# Generated by pormake.
# Topology gar, (4,6)-cn, num edge types: 1
# Building blocks:
#     Node 0, Type 0, BuildingBlock: QUQFOY_clean_sbu_3, # of connection points: 4
#     Node 1, Type 0, BuildingBlock: QUQFOY_clean_sbu_3, # of connection points: 4
#     Node 2, Type 0, BuildingBlock: QUQFOY_clean_sbu_3, # of connection points: 4
#     Node 3, Type 0, BuildingBlock: QUQFOY_clean_sbu_3, # of connection points: 4
#     Node 4, Type 0, BuildingBlock: QUQFOY_clean_sbu_3, # of connection points: 4
#     Node 5, Type 0, BuildingBlock: QUQFOY_clean_sbu_3, # of connection points: 4
#     Node 6, Type 0, BuildingBlock: QUQFOY_clean_sbu_3, # of connection points: 4
#     Node 7, Type 0, BuildingBlock: QUQFOY_clean_sbu_3, # of connection points: 4
#     Node 8, Type 0, BuildingBlock: QUQFOY_clean_sbu_3, # of connection points: 4
#     Node 9, Type 0, BuildingBlock: QUQFOY_clean_sbu_3, # of connection points: 4
#     Node 10, Type 0, BuildingBlock: QUQFOY_clean_sbu_3, # of connection points: 4
#     Node 11, Type 0, BuildingBlock: QUQFOY_clean_sbu_3, # of connection points: 4
#     Node 12, Type 0, BuildingBlock: QUQFOY_clean_sbu_3, # of connection points: 4
#     Node 13, Type 0, BuildingBlock: QUQFOY_clean_sbu_3, # of connection points: 4
#     Node 14, Type 0, BuildingBlock: QUQFOY_clean_sbu_3, # of connection points: 4
#     Node 15, Type 0, BuildingBlock: QUQFOY_clean_sbu_3, # of connection points: 4
#     Node 16, Type 0, BuildingBlock: QUQFOY_clean_sbu_3, # of connection points: 4
#     Node 17, Type 0, BuildingBlock: QUQFOY_clean_sbu_3, # of connection points: 4
#     Node 18, Type 0, BuildingBlock: QUQFOY_clean_sbu_3, # of connection points: 4
#     Node 19, Type 0, BuildingBlock: QUQFOY_clean_sbu_3, # of connection points: 4
#     Node 20, Type 0, BuildingBlock: QUQFOY_clean_sbu_3, # of connection points: 4
#     Node 21, Type 0, BuildingBlock: QUQFOY_clean_sbu_3, # of connection points: 4
#     Node 22, Type 0, BuildingBlock: QUQFOY_clean_sbu_3, # of connection points: 4
#     Node 23, Type 0, BuildingBlock: QUQFOY_clean_sbu_3, # of connection points: 4
#     Node 24, Type 1, BuildingBlock: MIFKUJ_clean_sbu_0, # of connection points: 6
#     Node 25, Type 1, BuildingBlock: MIFKUJ_clean_sbu_0, # of connection points: 6
#     Node 26, Type 1, BuildingBlock: MIFKUJ_clean_sbu_0, # of connection points: 6
#     Node 27, Type 1, BuildingBlock: MIFKUJ_clean_sbu_0, # of connection points: 6
#     Node 28, Type 1, BuildingBlock: MIFKUJ_clean_sbu_0, # of connection points: 6
#     Node 29, Type 1, BuildingBlock: MIFKUJ_clean_sbu_0, # of connection points: 6
#     Node 30, Type 1, BuildingBlock: MIFKUJ_clean_sbu_0, # of connection points: 6
#     Node 31, Type 1, BuildingBlock: MIFKUJ_clean_sbu_0, # of connection points: 6
#     Node 32, Type 1, BuildingBlock: MIFKUJ_clean_sbu_0, # of connection points: 6
#     Node 33, Type 1, BuildingBlock: MIFKUJ_clean_sbu_0, # of connection points: 6
#     Node 34, Type 1, BuildingBlock: MIFKUJ_clean_sbu_0, # of connection points: 6
#     Node 35, Type 1, BuildingBlock: MIFKUJ_clean_sbu_0, # of connection points: 6
#     Node 36, Type 1, BuildingBlock: MIFKUJ_clean_sbu_0, # of connection points: 6
#     Node 37, Type 1, BuildingBlock: MIFKUJ_clean_sbu_0, # of connection points: 6
#     Node 38, Type 1, BuildingBlock: MIFKUJ_clean_sbu_0, # of connection points: 6
#     Node 39, Type 1, BuildingBlock: MIFKUJ_clean_sbu_0, # of connection points: 6
#     Edge 40, Type (0, 1), BuildingBlock: UVAHIK_clean_linker_0, # of connection points: 2
#     Edge 41, Type (0, 1), BuildingBlock: UVAHIK_clean_linker_0, # of connection points: 2
#     Edge 42, Type (0, 1), BuildingBlock: UVAHIK_clean_linker_0, # of connection points: 2
#     Edge 43, Type (0, 1), BuildingBlock: UVAHIK_clean_linker_0, # of connection points: 2
#     Edge 44, Type (0, 1), BuildingBlock: UVAHIK_clean_linker_0, # of connection points: 2
#     Edge 45, Type (0, 1), BuildingBlock: UVAHIK_clean_linker_0, # of connection points: 2
#     Edge 46, Type (0, 1), BuildingBlock: UVAHIK_clean_linker_0, # of connection points: 2
#     Edge 47, Type (0, 1), BuildingBlock: UVAHIK_clean_linker_0, # of connection points: 2
#     Edge 48, Type (0, 1), BuildingBlock: UVAHIK_clean_linker_0, # of connection points: 2
#     Edge 49, Type (0, 1), BuildingBlock: UVAHIK_clean_linker_0, # of connection points: 2
#     Edge 50, Type (0, 1), BuildingBlock: UVAHIK_clean_linker_0, # of connection points: 2
#     Edge 51, Type (0, 1), BuildingBlock: UVAHIK_clean_linker_0, # of connection points: 2
#     Edge 52, Type (0, 1), BuildingBlock: UVAHIK_clean_linker_0, # of connection points: 2
#     Edge 53, Type (0, 1), BuildingBlock: UVAHIK_clean_linker_0, # of connection points: 2
#     Edge 54, Type (0, 1), BuildingBlock: UVAHIK_clean_linker_0, # of connection points: 2
#     Edge 55, Type (0, 1), BuildingBlock: UVAHIK_clean_linker_0, # of connection points: 2
#     Edge 56, Type (0, 1), BuildingBlock: UVAHIK_clean_linker_0, # of connection points: 2
#     Edge 57, Type (0, 1), BuildingBlock: UVAHIK_clean_linker_0, # of connection points: 2
#     Edge 58, Type (0, 1), BuildingBlock: UVAHIK_clean_linker_0, # of connection points: 2
#     Edge 59, Type (0, 1), BuildingBlock: UVAHIK_clean_linker_0, # of connection points: 2
#     Edge 60, Type (0, 1), BuildingBlock: UVAHIK_clean_linker_0, # of connection points: 2
#     Edge 61, Type (0, 1), BuildingBlock: UVAHIK_clean_linker_0, # of connection points: 2
#     Edge 62, Type (0, 1), BuildingBlock: UVAHIK_clean_linker_0, # of connection points: 2
#     Edge 63, Type (0, 1), BuildingBlock: UVAHIK_clean_linker_0, # of connection points: 2
#     Edge 64, Type (0, 1), BuildingBlock: UVAHIK_clean_linker_0, # of connection points: 2
#     Edge 65, Type (0, 1), BuildingBlock: UVAHIK_clean_linker_0, # of connection points: 2
#     Edge 66, Type (0, 1), BuildingBlock: UVAHIK_clean_linker_0, # of connection points: 2
#     Edge 67, Type (0, 1), BuildingBlock: UVAHIK_clean_linker_0, # of connection points: 2
#     Edge 68, Type (0, 1), BuildingBlock: UVAHIK_clean_linker_0, # of connection points: 2
#     Edge 69, Type (0, 1), BuildingBlock: UVAHIK_clean_linker_0, # of connection points: 2
#     Edge 70, Type (0, 1), BuildingBlock: UVAHIK_clean_linker_0, # of connection points: 2
#     Edge 71, Type (0, 1), BuildingBlock: UVAHIK_clean_linker_0, # of connection points: 2
#     Edge 72, Type (0, 1), BuildingBlock: UVAHIK_clean_linker_0, # of connection points: 2
#     Edge 73, Type (0, 1), BuildingBlock: UVAHIK_clean_linker_0, # of connection points: 2
#     Edge 74, Type (0, 1), BuildingBlock: UVAHIK_clean_linker_0, # of connection points: 2
#     Edge 75, Type (0, 1), BuildingBlock: UVAHIK_clean_linker_0, # of connection points: 2
#     Edge 76, Type (0, 1), BuildingBlock: UVAHIK_clean_linker_0, # of connection points: 2
#     Edge 77, Type (0, 1), BuildingBlock: UVAHIK_clean_linker_0, # of connection points: 2
#     Edge 78, Type (0, 1), BuildingBlock: UVAHIK_clean_linker_0, # of connection points: 2
#     Edge 79, Type (0, 1), BuildingBlock: UVAHIK_clean_linker_0, # of connection points: 2
#     Edge 80, Type (0, 1), BuildingBlock: UVAHIK_clean_linker_0, # of connection points: 2
#     Edge 81, Type (0, 1), BuildingBlock: UVAHIK_clean_linker_0, # of connection points: 2
#     Edge 82, Type (0, 1), BuildingBlock: UVAHIK_clean_linker_0, # of connection points: 2
#     Edge 83, Type (0, 1), BuildingBlock: UVAHIK_clean_linker_0, # of connection points: 2
#     Edge 84, Type (0, 1), BuildingBlock: UVAHIK_clean_linker_0, # of connection points: 2
#     Edge 85, Type (0, 1), BuildingBlock: UVAHIK_clean_linker_0, # of connection points: 2
#     Edge 86, Type (0, 1), BuildingBlock: UVAHIK_clean_linker_0, # of connection points: 2
#     Edge 87, Type (0, 1), BuildingBlock: UVAHIK_clean_linker_0, # of connection points: 2
#     Edge 88, Type (0, 1), BuildingBlock: UVAHIK_clean_linker_0, # of connection points: 2
#     Edge 89, Type (0, 1), BuildingBlock: UVAHIK_clean_linker_0, # of connection points: 2
#     Edge 90, Type (0, 1), BuildingBlock: UVAHIK_clean_linker_0, # of connection points: 2
#     Edge 91, Type (0, 1), BuildingBlock: UVAHIK_clean_linker_0, # of connection points: 2
#     Edge 92, Type (0, 1), BuildingBlock: UVAHIK_clean_linker_0, # of connection points: 2
#     Edge 93, Type (0, 1), BuildingBlock: UVAHIK_clean_linker_0, # of connection points: 2
#     Edge 94, Type (0, 1), BuildingBlock: UVAHIK_clean_linker_0, # of connection points: 2
#     Edge 95, Type (0, 1), BuildingBlock: UVAHIK_clean_linker_0, # of connection points: 2
#     Edge 96, Type (0, 1), BuildingBlock: UVAHIK_clean_linker_0, # of connection points: 2
#     Edge 97, Type (0, 1), BuildingBlock: UVAHIK_clean_linker_0, # of connection points: 2
#     Edge 98, Type (0, 1), BuildingBlock: UVAHIK_clean_linker_0, # of connection points: 2
#     Edge 99, Type (0, 1), BuildingBlock: UVAHIK_clean_linker_0, # of connection points: 2
#     Edge 100, Type (0, 1), BuildingBlock: UVAHIK_clean_linker_0, # of connection points: 2
#     Edge 101, Type (0, 1), BuildingBlock: UVAHIK_clean_linker_0, # of connection points: 2
#     Edge 102, Type (0, 1), BuildingBlock: UVAHIK_clean_linker_0, # of connection points: 2
#     Edge 103, Type (0, 1), BuildingBlock: UVAHIK_clean_linker_0, # of connection points: 2
#     Edge 104, Type (0, 1), BuildingBlock: UVAHIK_clean_linker_0, # of connection points: 2
#     Edge 105, Type (0, 1), BuildingBlock: UVAHIK_clean_linker_0, # of connection points: 2
#     Edge 106, Type (0, 1), BuildingBlock: UVAHIK_clean_linker_0, # of connection points: 2
#     Edge 107, Type (0, 1), BuildingBlock: UVAHIK_clean_linker_0, # of connection points: 2
#     Edge 108, Type (0, 1), BuildingBlock: UVAHIK_clean_linker_0, # of connection points: 2
#     Edge 109, Type (0, 1), BuildingBlock: UVAHIK_clean_linker_0, # of connection points: 2
#     Edge 110, Type (0, 1), BuildingBlock: UVAHIK_clean_linker_0, # of connection points: 2
#     Edge 111, Type (0, 1), BuildingBlock: UVAHIK_clean_linker_0, # of connection points: 2
#     Edge 112, Type (0, 1), BuildingBlock: UVAHIK_clean_linker_0, # of connection points: 2
#     Edge 113, Type (0, 1), BuildingBlock: UVAHIK_clean_linker_0, # of connection points: 2
#     Edge 114, Type (0, 1), BuildingBlock: UVAHIK_clean_linker_0, # of connection points: 2
#     Edge 115, Type (0, 1), BuildingBlock: UVAHIK_clean_linker_0, # of connection points: 2
#     Edge 116, Type (0, 1), BuildingBlock: UVAHIK_clean_linker_0, # of connection points: 2
#     Edge 117, Type (0, 1), BuildingBlock: UVAHIK_clean_linker_0, # of connection points: 2
#     Edge 118, Type (0, 1), BuildingBlock: UVAHIK_clean_linker_0, # of connection points: 2
#     Edge 119, Type (0, 1), BuildingBlock: UVAHIK_clean_linker_0, # of connection points: 2
#     Edge 120, Type (0, 1), BuildingBlock: UVAHIK_clean_linker_0, # of connection points: 2
#     Edge 121, Type (0, 1), BuildingBlock: UVAHIK_clean_linker_0, # of connection points: 2
#     Edge 122, Type (0, 1), BuildingBlock: UVAHIK_clean_linker_0, # of connection points: 2
#     Edge 123, Type (0, 1), BuildingBlock: UVAHIK_clean_linker_0, # of connection points: 2
#     Edge 124, Type (0, 1), BuildingBlock: UVAHIK_clean_linker_0, # of connection points: 2
#     Edge 125, Type (0, 1), BuildingBlock: UVAHIK_clean_linker_0, # of connection points: 2
#     Edge 126, Type (0, 1), BuildingBlock: UVAHIK_clean_linker_0, # of connection points: 2
#     Edge 127, Type (0, 1), BuildingBlock: UVAHIK_clean_linker_0, # of connection points: 2
#     Edge 128, Type (0, 1), BuildingBlock: UVAHIK_clean_linker_0, # of connection points: 2
#     Edge 129, Type (0, 1), BuildingBlock: UVAHIK_clean_linker_0, # of connection points: 2
#     Edge 130, Type (0, 1), BuildingBlock: UVAHIK_clean_linker_0, # of connection points: 2
#     Edge 131, Type (0, 1), BuildingBlock: UVAHIK_clean_linker_0, # of connection points: 2
#     Edge 132, Type (0, 1), BuildingBlock: UVAHIK_clean_linker_0, # of connection points: 2
#     Edge 133, Type (0, 1), BuildingBlock: UVAHIK_clean_linker_0, # of connection points: 2
#     Edge 134, Type (0, 1), BuildingBlock: UVAHIK_clean_linker_0, # of connection points: 2
#     Edge 135, Type (0, 1), BuildingBlock: UVAHIK_clean_linker_0, # of connection points: 2
# Relax obj value: 0.092
# Max RMSD: 0.268
# Mean RMSD: 0.123
data_MOF--net-gar--node1-QUQFOY_clean_sbu_3--node2-MIFKUJ_clean_sbu_0--edge1-UVAHIK_clean_linker_0
_symmetry_space_group_name_H-M    P1
_symmetry_Int_Tables_number       1
_symmetry_cell_setting            triclinic
loop_
_symmetry_equiv_pos_as_xyz
'x, y, z'
_cell_length_a     72.267263
_cell_length_b     73.318632
_cell_length_c     70.416525
_cell_angle_alpha  95.127718
_cell_angle_beta   94.261785
_cell_angle_gamma 98.805276
loop_
_atom_site_label
_atom_site_type_symbol
_atom_site_fract_x
_atom_site_fract_y
_atom_site_fract_z
_atom_type_partial_charge
C0 C 0.98539 0.27012 0.36484 0.0
O1 O -0.0015 0.27787 0.35581 0.0
Cd2 Cd 0.03122 0.27819 0.36472 0.0
O3 O 0.98914 0.26136 0.37913 0.0
Cd4 Cd 0.01697 0.25305 0.39723 0.0
C5 C 0.0332 0.29867 0.41071 0.0
O6 O 0.0338 0.24662 0.36929 0.0
O7 O 0.0495 0.24719 0.39661 0.0
O8 O -0.00248 0.22345 0.40087 0.0
C9 C 0.04877 0.24416 0.37854 0.0
O10 O 0.03816 0.29991 0.39383 0.0
C11 C 0.00225 0.22369 0.41864 0.0
O12 O 0.0245 0.28348 0.4153 0.0
O13 O 0.01358 0.23776 0.4265 0.0
C14 C 0.96565 0.74967 0.66591 0.0
O15 O 0.97502 0.73982 0.67558 0.0
Cd16 Cd 0.00316 0.72932 0.66671 0.0
O17 O 0.97113 0.75503 0.6502 0.0
Cd18 Cd -0.00174 0.75239 0.63061 0.0
C19 C 0.98869 0.70527 0.62265 0.0
O20 O 0.02207 0.75613 0.65758 0.0
O21 O 0.03176 0.74917 0.63008 0.0
O22 O 0.00098 0.78455 0.6232 0.0
C23 C 0.03565 0.75336 0.64794 0.0
O24 O -0.00567 0.70503 0.64018 0.0
C25 C -0.00231 0.78072 0.60521 0.0
O26 O 0.98786 0.7206 0.61567 0.0
O27 O -0.00573 0.76365 0.59897 0.0
C28 C 0.48076 0.76314 0.86403 0.0
O29 O 0.49335 0.77177 0.855 0.0
Cd30 Cd 0.52649 0.77516 0.86377 0.0
O31 O 0.48528 0.75536 0.87881 0.0
Cd32 Cd 0.51431 0.75119 0.89801 0.0
C33 C 0.52748 0.79786 0.90849 0.0
O34 O 0.53169 0.74481 0.87054 0.0
O35 O 0.54771 0.74787 0.89797 0.0
O36 O 0.49841 0.72065 0.90422 0.0
C37 C 0.54709 0.74406 0.88 0.0
O38 O 0.53244 0.7985 0.89155 0.0
C39 C 0.50241 0.7232 0.92223 0.0
O40 O 0.51965 0.78269 0.91392 0.0
O41 O 0.51171 0.73885 0.92895 0.0
C42 C 0.46582 0.24996 0.16582 0.0
O43 O 0.47413 0.23898 0.17504 0.0
Cd44 Cd 0.50096 0.22637 0.16552 0.0
O45 O 0.47177 0.25534 0.15031 0.0
Cd46 Cd 0.4984 0.25118 0.13048 0.0
C47 C 0.48545 0.20449 0.12066 0.0
O48 O 0.52186 0.2523 0.1573 0.0
O49 O 0.53109 0.24517 0.12962 0.0
O50 O 0.50388 0.28378 0.12461 0.0
C51 C 0.53508 0.2486 0.14756 0.0
O52 O 0.49069 0.20329 0.13811 0.0
C53 C 0.50009 0.2809 0.1066 0.0
O54 O 0.48593 0.22026 0.1143 0.0
O55 O 0.49526 0.26413 0.09958 0.0
C56 C -0.00713 0.75722 0.17206 0.0
O57 O 0.00629 0.75254 0.18224 0.0
Cd58 Cd 0.03814 0.75574 0.17454 0.0
O59 O -0.00423 0.76446 0.1565 0.0
Cd60 Cd 0.02192 0.77427 0.13661 0.0
C61 C 0.03092 0.72991 0.13015 0.0
O62 O 0.04355 0.78585 0.16412 0.0
O63 O 0.05603 0.78599 0.13742 0.0
O64 O 0.00653 0.80082 0.13115 0.0
C65 C 0.05815 0.78958 0.15548 0.0
O66 O 0.03734 0.7321 0.1477 0.0
C67 C 0.00754 0.79975 0.11317 0.0
O68 O 0.02371 0.74266 0.12256 0.0
O69 O 0.01493 0.78643 0.10583 0.0
C70 C 0.46628 0.74005 0.35312 0.0
O71 O 0.47673 0.75017 0.34314 0.0
Cd72 Cd 0.50788 0.76531 0.35289 0.0
O73 O 0.47235 0.73651 0.36967 0.0
Cd74 Cd 0.50223 0.74246 0.39114 0.0
C75 C 0.49974 0.78852 0.39599 0.0
O76 O 0.5215 0.74095 0.36494 0.0
O77 O 0.5371 0.74942 0.39227 0.0
O78 O 0.49474 0.71011 0.39693 0.0
C79 C 0.53731 0.74565 0.37437 0.0
O80 O 0.50402 0.78855 0.37876 0.0
C81 C 0.49857 0.71273 0.41495 0.0
O82 O 0.49747 0.77351 0.40401 0.0
O83 O 0.5037 0.72943 0.42216 0.0
C84 C 0.49241 0.25618 0.6713 0.0
O85 O 0.50615 0.25135 0.68085 0.0
Cd86 Cd 0.53759 0.25462 0.67166 0.0
O87 O 0.49475 0.26349 0.65569 0.0
Cd88 Cd 0.52026 0.27296 0.63499 0.0
C89 C 0.52855 0.22854 0.62772 0.0
O90 O 0.54311 0.28492 0.66159 0.0
O91 O 0.55445 0.28337 0.6343 0.0
O92 O 0.50526 0.29982 0.62963 0.0
C93 C 0.5573 0.28794 0.65219 0.0
O94 O 0.5364 0.23091 0.64477 0.0
C95 C 0.50585 0.29847 0.61159 0.0
O96 O 0.52043 0.24109 0.62087 0.0
O97 O 0.51277 0.28485 0.60421 0.0
C98 C 0.96854 0.23856 0.85056 0.0
O99 O 0.97859 0.2469 0.83897 0.0
Cd100 Cd 0.00956 0.26252 0.84739 0.0
O101 O 0.97532 0.23669 0.86741 0.0
Cd102 Cd 0.00715 0.24291 0.88581 0.0
C103 C 0.00352 0.28819 0.88986 0.0
O104 O 0.02494 0.23879 0.85863 0.0
O105 O 0.04153 0.25277 0.8838 0.0
O106 O 0.00218 0.21065 0.89158 0.0
C107 C 0.04103 0.24534 0.86676 0.0
O108 O 0.00658 0.28721 0.87223 0.0
C109 C 0.00676 0.21313 0.90946 0.0
O110 O 0.00238 0.27381 0.89888 0.0
O111 O 0.01098 0.22986 0.91691 0.0
C112 C 0.41563 0.02284 0.29797 0.0
O113 O 0.42465 0.01306 0.28743 0.0
Cd114 Cd 0.41374 -0.00141 0.25657 0.0
O115 O 0.39934 0.02591 0.29207 0.0
Cd116 Cd 0.37774 0.01853 0.26176 0.0
C117 C 0.37225 0.97275 0.26719 0.0
O118 O 0.40307 0.02339 0.24186 0.0
O119 O 0.37713 0.00997 0.22646 0.0
O120 O 0.37213 0.05023 0.26682 0.0
C121 C 0.39406 0.01751 0.22592 0.0
O122 O 0.38889 0.9736 0.26212 0.0
C123 C 0.35451 0.04682 0.26247 0.0
O124 O 0.36463 0.9873 0.26907 0.0
O125 O 0.34725 0.02988 0.25845 0.0
C126 C 0.27011 0.09393 0.50421 0.0
O127 O 0.25562 0.0847 0.50994 0.0
Cd128 Cd 0.22525 0.09347 0.50878 0.0
O129 O 0.26922 0.10925 0.49712 0.0
Cd130 Cd 0.24485 0.12921 0.49005 0.0
C131 C 0.23617 0.13517 0.53687 0.0
O132 O 0.22094 0.10335 0.4776 0.0
O133 O 0.21078 0.12926 0.48201 0.0
O134 O 0.25948 0.13709 0.461 0.0
C135 C 0.20733 0.11219 0.47588 0.0
O136 O 0.22769 0.11846 0.53461 0.0
C137 C 0.26042 0.15451 0.46447 0.0
O138 O 0.24445 0.1423 0.5233 0.0
O139 O 0.2545 0.16025 0.48009 0.0
C140 C 0.10183 0.00883 0.80797 0.0
O141 O 0.09341 0.01771 0.7963 0.0
Cd142 Cd 0.1023 0.02353 0.76517 0.0
O143 O 0.11649 0.00224 0.80361 0.0
Cd144 Cd 0.13599 0.00126 0.77577 0.0
C145 C 0.14687 0.04793 0.7769 0.0
O146 O 0.10941 0.99489 0.75132 0.0
O147 O 0.13664 0.00036 0.74076 0.0
O148 O 0.14081 0.9706 0.78399 0.0
C149 C 0.11901 -0.00393 0.73705 0.0
O150 O 0.13005 0.04735 0.76977 0.0
C151 C 0.15833 0.97302 0.78215 0.0
O152 O 0.15257 0.03331 0.78191 0.0
O153 O 0.16563 0.98879 0.77775 0.0
C154 C 0.26877 0.90285 0.9887 0.0
O155 O 0.25708 0.91127 0.9801 0.0
Cd156 Cd 0.22408 0.90485 0.98322 0.0
O157 O 0.2632 0.8906 -0.0003 0.0
Cd158 Cd 0.23336 0.87627 0.01166 0.0
C159 C 0.21542 0.85883 0.96666 0.0
O160 O 0.2223 0.90571 0.01739 0.0
O161 O 0.20202 0.88167 0.02065 0.0
O162 O 0.2532 0.87378 0.0407 0.0
C163 C 0.20646 0.89919 0.02257 0.0
O164 O 0.21313 0.87522 0.96357 0.0
C165 C 0.2457 0.85735 0.04282 0.0
O166 O 0.2231 0.85574 0.98262 0.0
O167 O 0.2324 0.84977 0.0305 0.0
C168 C 0.27949 0.41692 0.03373 0.0
O169 O 0.26932 0.42623 0.02423 0.0
Cd170 Cd 0.23718 0.41695 0.01292 0.0
O171 O 0.27256 0.40121 0.03884 0.0
Cd172 Cd 0.24142 0.3804 0.03674 0.0
C173 C 0.24168 0.37476 0.98834 0.0
O174 O 0.22377 0.40552 0.0399 0.0
O175 O 0.20671 0.37887 0.03245 0.0
O176 O 0.24934 0.37547 0.06982 0.0
C177 C 0.2075 0.39622 0.03618 0.0
O178 O 0.23823 0.39132 0.98864 0.0
C179 C 0.2448 0.35793 0.06762 0.0
O180 O 0.24437 0.36739 0.00385 0.0
O181 O 0.23889 0.3506 0.05079 0.0
C182 C 0.79394 0.09171 0.01799 0.0
O183 O 0.78383 0.08471 0.03034 0.0
Cd184 Cd 0.75793 0.09645 0.04311 0.0
O185 O 0.79094 0.10675 0.01137 0.0
Cd186 Cd 0.76792 0.12876 0.01602 0.0
C187 C 0.77804 0.13996 0.06379 0.0
O188 O 0.74052 0.10479 0.01617 0.0
O189 O 0.73601 0.13285 0.0234 0.0
O190 O 0.76469 0.13346 0.98216 0.0
C191 C 0.72913 0.1158 0.02008 0.0
O192 O 0.76986 0.1236 0.06548 0.0
C193 C 0.7699 0.15091 0.98457 0.0
O194 O 0.78049 0.14529 0.0473 0.0
O195 O 0.77498 0.15804 0.00161 0.0
C196 C 0.0867 0.49527 0.27301 0.0
O197 O 0.07637 0.49776 0.25837 0.0
Cd198 Cd 0.0835 0.49346 0.22589 0.0
O199 O 0.10243 0.48962 0.27132 0.0
Cd200 Cd 0.12228 0.48047 0.24573 0.0
C201 C 0.12547 0.52394 0.23076 0.0
O202 O 0.0957 0.46517 0.2249 0.0
O203 O 0.12179 0.46673 0.2121 0.0
O204 O 0.1321 0.45675 0.26483 0.0
C205 C 0.10413 0.46155 0.21029 0.0
O206 O 0.10834 0.51977 0.22395 0.0
C207 C 0.14956 0.46142 0.26333 0.0
O208 O 0.13346 0.51254 0.23981 0.0
O209 O 0.1543 0.47514 0.25394 0.0
C210 C 0.77914 0.92162 0.53371 0.0
O211 O 0.76935 0.931 0.52392 0.0
Cd212 Cd 0.73723 0.92161 0.51314 0.0
O213 O 0.77174 0.90613 0.53896 0.0
Cd214 Cd 0.73972 0.8867 0.53609 0.0
C215 C 0.74054 0.87975 0.48808 0.0
O216 O 0.72313 0.91265 0.54108 0.0
O217 O 0.70535 0.88719 0.52989 0.0
O218 O 0.74608 0.88113 0.56927 0.0
C219 C 0.70667 0.904 0.53665 0.0
O220 O 0.73725 0.89633 0.4881 0.0
C221 C 0.74063 0.86373 0.56689 0.0
O222 O 0.74305 0.87268 0.50377 0.0
O223 O 0.73505 0.85671 0.54989 0.0
C224 C 0.90656 0.00284 0.28037 0.0
O225 O 0.91528 0.99532 0.26757 0.0
Cd226 Cd 0.90727 0.99369 0.2338 0.0
O227 O 0.89253 0.01069 0.27573 0.0
Cd228 Cd 0.8748 0.01666 0.24573 0.0
C229 C 0.86241 0.97027 0.23248 0.0
O230 O 0.90233 0.02442 0.22834 0.0
O231 O 0.87575 0.02145 0.21156 0.0
O232 O 0.86886 0.04617 0.26158 0.0
C233 C 0.89349 0.02556 0.2124 0.0
O234 O 0.87901 0.97004 0.22761 0.0
C235 C 0.85127 0.04304 0.25673 0.0
O236 O 0.85784 0.98509 0.24023 0.0
O237 O 0.84478 0.02768 0.247 0.0
C238 C 0.29833 0.59357 0.53091 0.0
O239 O 0.29051 0.58827 0.54547 0.0
Cd240 Cd 0.26608 0.60163 0.55952 0.0
O241 O 0.29356 0.60726 0.52284 0.0
Cd242 Cd 0.2701 0.62868 0.52765 0.0
C243 C 0.28644 0.64659 0.57291 0.0
O244 O 0.24427 0.60438 0.53299 0.0
O245 O 0.23872 0.63245 0.53693 0.0
O246 O 0.26583 0.62886 0.49289 0.0
C247 C 0.23252 0.61525 0.5359 0.0
O248 O 0.27945 0.63098 0.57802 0.0
C249 C 0.26766 0.64638 0.49313 0.0
O250 O 0.28608 0.64919 0.55527 0.0
O251 O 0.27131 0.65572 0.50939 0.0
C252 C 0.40921 0.50655 0.77939 0.0
O253 O 0.41876 0.49991 0.76682 0.0
Cd254 Cd 0.41098 0.49729 0.73293 0.0
O255 O 0.39434 0.51301 0.77445 0.0
Cd256 Cd 0.37609 0.51719 0.74411 0.0
C257 C 0.36755 0.4706 0.73168 0.0
O258 O 0.40293 0.52657 0.72624 0.0
O259 O 0.37614 0.52029 0.70961 0.0
O260 O 0.36878 0.54672 0.75821 0.0
C261 C 0.39364 0.52606 0.71019 0.0
O262 O 0.3843 0.47195 0.72684 0.0
C263 C 0.35116 0.5426 0.75382 0.0
O264 O 0.36151 0.48466 0.73941 0.0
O265 O 0.34517 0.52653 0.74533 0.0
C266 C 0.59615 0.00366 0.77322 0.0
O267 O 0.58644 0.00773 0.75887 0.0
Cd268 Cd 0.59202 0.00198 0.7262 0.0
O269 O 0.61059 -0.00417 0.77102 0.0
Cd270 Cd 0.62795 0.98495 0.74382 0.0
C271 C 0.63547 0.02875 0.72965 0.0
O272 O 0.59935 0.9713 0.72545 0.0
O273 O 0.62343 0.97107 0.70958 0.0
O274 O 0.63757 0.96077 0.76255 0.0
C275 C 0.60584 0.96642 0.71002 0.0
O276 O 0.61844 0.02629 0.72254 0.0
C277 C 0.65471 0.96392 0.75904 0.0
O278 O 0.64176 0.01637 0.73866 0.0
O279 O 0.65929 0.97689 0.74866 0.0
C280 C 0.77405 0.59646 0.00718 0.0
O281 O 0.7595 0.58668 0.01217 0.0
Cd282 Cd 0.72881 0.59484 0.01082 0.0
O283 O 0.77296 0.61179 0.00018 0.0
Cd284 Cd 0.74821 0.63084 0.99166 0.0
C285 C 0.73937 0.63719 0.03828 0.0
O286 O 0.72398 0.60486 0.9799 0.0
O287 O 0.71431 0.63106 0.98406 0.0
O288 O 0.76212 0.63718 0.962 0.0
C289 C 0.71047 0.61389 0.97843 0.0
O290 O 0.73131 0.62033 0.03614 0.0
C291 C 0.76306 0.65467 0.96449 0.0
O292 O 0.74749 0.64446 0.02468 0.0
O293 O 0.75772 0.66128 0.98009 0.0
C294 C 0.91294 0.52919 0.79418 0.0
O295 O 0.92297 0.5214 0.78294 0.0
Cd296 Cd 0.91306 0.50763 0.75148 0.0
O297 O 0.89605 0.53083 0.78881 0.0
Cd298 Cd 0.87537 0.52365 0.75797 0.0
C299 C 0.87344 0.47776 0.76006 0.0
O300 O 0.89988 0.53149 0.73767 0.0
O301 O 0.87522 0.51483 0.72281 0.0
O302 O 0.86634 0.55415 0.76128 0.0
C303 C 0.89125 0.52441 0.7219 0.0
O304 O 0.88985 0.48011 0.75428 0.0
C305 C 0.84876 0.54869 0.75835 0.0
O306 O 0.86508 0.49153 0.76397 0.0
O307 O 0.84325 0.53126 0.75611 0.0
C308 C 0.77169 0.40599 0.50145 0.0
O309 O 0.76081 0.41592 0.49389 0.0
Cd310 Cd 0.72749 0.41038 0.49458 0.0
O311 O 0.76508 0.3923 0.51026 0.0
Cd312 Cd 0.73396 0.37698 0.51879 0.0
C313 C 0.71841 0.36628 0.47181 0.0
O314 O 0.72339 0.40613 0.52759 0.0
O315 O 0.70225 0.38192 0.52694 0.0
O316 O 0.75133 0.36989 0.54763 0.0
C317 C 0.70693 0.3993 0.53089 0.0
O318 O 0.71711 0.38333 0.47105 0.0
C319 C 0.74332 0.35311 0.54668 0.0
O320 O 0.72472 0.36064 0.48718 0.0
O321 O 0.73088 0.34753 0.53285 0.0
C322 C 0.60524 0.51137 0.30745 0.0
O323 O 0.59769 0.52154 0.29651 0.0
Cd324 Cd 0.60633 0.52811 0.2655 0.0
O325 O 0.61912 0.50376 0.30246 0.0
Cd326 Cd 0.63797 0.50299 0.27407 0.0
C327 C 0.65212 0.54937 0.27667 0.0
O328 O 0.61104 0.49921 0.25015 0.0
O329 O 0.63821 0.50412 0.23927 0.0
O330 O 0.64055 0.47077 0.27806 0.0
C331 C 0.62052 0.50048 0.23578 0.0
O332 O 0.63547 0.55011 0.26984 0.0
C333 C 0.65818 0.47259 0.27699 0.0
O334 O 0.65668 0.53413 0.28126 0.0
O335 O 0.66662 0.4888 0.27531 0.0
Zn336 Zn 0.02395 0.00414 0.02791 0.0
Zn337 Zn 0.98868 0.00911 0.00244 0.0
C338 C 0.00732 0.97241 0.04403 0.0
O339 O 0.01174 0.98433 0.05937 0.0
C340 C 0.00243 0.03985 0.98393 0.0
O341 O -0.00333 0.02703 0.96956 0.0
O342 O 0.04936 0.00343 0.04144 0.0
O343 O 0.02891 0.00922 0.00095 0.0
O344 O 0.00297 0.99178 0.98781 0.0
C345 C 0.06439 0.01123 0.03533 0.0
O346 O 0.06324 0.02211 0.0216 0.0
O347 O 0.01063 0.9778 0.02777 0.0
C348 C 0.94844 -0.00054 0.9934 0.0
O349 O 0.94977 0.98796 0.00654 0.0
O350 O 0.96335 0.00859 0.9884 0.0
O351 O 0.98333 0.00572 0.02956 0.0
O352 O 0.01007 0.02104 0.04368 0.0
O353 O 0.00125 0.03545 0.00091 0.0
C354 C 0.02008 -0.00139 0.98686 0.0
C355 C -0.00751 0.01579 0.04383 0.0
Zn356 Zn 0.24337 0.74048 0.28308 0.0
Zn357 Zn 0.26347 0.7556 0.24806 0.0
C358 C 0.21595 0.71196 0.26271 0.0
O359 O 0.20481 0.7232 0.26921 0.0
C360 C 0.28901 0.78559 0.26726 0.0
O361 O 0.3005 0.7755 0.25939 0.0
O362 O 0.23641 0.73505 0.30952 0.0
O363 O 0.27161 0.74406 0.28639 0.0
O364 O 0.27775 0.73612 0.25689 0.0
C365 C 0.24075 0.71964 0.31378 0.0
O366 O 0.24818 0.70949 0.301 0.0
O367 O 0.23363 0.71671 0.26611 0.0
C368 C 0.26445 0.77746 0.2182 0.0
O369 O 0.25524 0.7858 0.23085 0.0
O370 O 0.27051 0.7627 0.22217 0.0
O371 O 0.23554 0.74946 0.24461 0.0
O372 O 0.23026 0.76077 0.27323 0.0
O373 O 0.27153 0.77924 0.26566 0.0
C374 C 0.28174 0.73677 0.27483 0.0
C375 C 0.22622 0.75883 0.25521 0.0
Zn376 Zn 0.47666 0.00793 0.51856 0.0
Zn377 Zn 0.51519 0.00407 0.5098 0.0
C378 C 0.48667 0.04021 0.54436 0.0
O379 O 0.47511 0.02972 0.55397 0.0
C380 C 0.50601 0.97224 0.48318 0.0
O381 O 0.51527 0.98401 0.47286 0.0
O382 O 0.44935 0.01042 0.52007 0.0
O383 O 0.47888 0.00261 0.49056 0.0
O384 O 0.50554 0.02162 0.49224 0.0
C385 C 0.44524 0.02347 0.51058 0.0
O386 O 0.45843 0.03267 0.50166 0.0
O387 O 0.49047 0.03368 0.52803 0.0
C388 C 0.55561 0.00894 0.51985 0.0
O389 O 0.55202 0.01861 0.53538 0.0
O390 O 0.54242 0.00312 0.50677 0.0
O391 O 0.51275 0.00784 0.53811 0.0
O392 O 0.48519 0.98995 0.5361 0.0
O393 O 0.50325 0.97779 0.5002 0.0
C394 C 0.48977 0.01477 0.48324 0.0
C395 C 0.50108 -0.00385 0.54521 0.0
Zn396 Zn 0.27881 0.25312 0.75918 0.0
Zn397 Zn 0.24188 0.2661 0.76564 0.0
C398 C 0.26529 0.22783 0.72724 0.0
O399 O 0.27239 0.21734 0.73913 0.0
C400 C 0.2511 0.29194 0.79776 0.0
O401 O 0.24495 0.30189 0.78475 0.0
O402 O 0.30528 0.24876 0.75602 0.0
O403 O 0.28123 0.28076 0.76533 0.0
O404 O 0.25541 0.28212 0.74754 0.0
C405 C 0.31198 0.25713 0.74237 0.0
O406 O 0.30163 0.26739 0.73323 0.0
O407 O 0.26572 0.24492 0.73263 0.0
C408 C 0.20108 0.26026 0.75826 0.0
O409 O 0.20332 0.24564 0.74698 0.0
O410 O 0.21548 0.27125 0.76605 0.0
O411 O 0.2396 0.23841 0.76172 0.0
O412 O 0.26652 0.23597 0.77716 0.0
O413 O 0.25243 0.27512 0.79278 0.0
C414 C 0.27196 0.28942 0.75416 0.0
C415 C 0.24956 0.22913 0.7715 0.0
Zn416 Zn 0.00731 0.98124 0.51412 0.0
Zn417 Zn -0.00536 0.01854 0.51142 0.0
C418 C 0.03525 0.99107 0.54497 0.0
O419 O 0.04525 0.98536 0.53146 0.0
C420 C 0.9681 0.00788 0.47958 0.0
O421 O 0.95813 0.01578 0.49182 0.0
O422 O 0.01235 0.95496 0.51293 0.0
O423 O 0.97913 0.97959 0.51277 0.0
O424 O 0.97931 0.00587 0.53053 0.0
C425 C 0.00106 0.9409 0.50494 0.0
O426 O 0.98581 0.94337 0.49478 0.0
O427 O 0.01788 0.99142 0.54087 0.0
C428 C -0.00192 0.05202 0.49637 0.0
O429 O 0.00794 0.04195 0.48602 0.0
O430 O 0.99004 0.04496 0.5101 0.0
O431 O 0.02262 0.0205 0.51485 0.0
O432 O 0.02258 0.99531 0.49555 0.0
O433 O 0.9849 0.00627 0.485 0.0
C434 C 0.97149 0.98937 0.52478 0.0
C435 C 0.03018 0.01171 0.502 0.0
Zn436 Zn 0.25398 0.77601 0.76616 0.0
Zn437 Zn 0.25348 0.73564 0.76771 0.0
C438 C 0.22281 0.77129 0.73874 0.0
O439 O 0.23555 0.78171 0.73036 0.0
C440 C 0.28584 0.73869 0.79378 0.0
O441 O 0.27384 0.72741 0.80215 0.0
O442 O 0.25435 0.80378 0.76877 0.0
O443 O 0.25776 0.76921 0.79307 0.0
O444 O 0.2364 0.74429 0.78698 0.0
C445 C 0.24212 0.8081 0.77974 0.0
O446 O 0.23236 0.79488 0.78799 0.0
O447 O 0.22732 0.76624 0.75504 0.0
C448 C 0.26073 0.70043 0.75383 0.0
O449 O 0.26914 0.71093 0.74182 0.0
O450 O 0.25166 0.70781 0.76642 0.0
O451 O 0.25075 0.74234 0.74063 0.0
O452 O 0.27133 0.76799 0.74687 0.0
O453 O 0.28028 0.74475 0.77835 0.0
C454 C 0.24466 0.75785 0.79859 0.0
C455 C 0.26375 0.75403 0.73535 0.0
Zn456 Zn 0.5056 0.01193 0.98884 0.0
Zn457 Zn 0.49686 -0.00333 0.02506 0.0
C458 C 0.53543 0.03894 0.00567 0.0
O459 O 0.52445 0.04914 -0.00271 0.0
C460 C 0.46551 0.96905 0.01253 0.0
O461 O 0.47603 0.95937 0.02226 0.0
O462 O 0.51161 0.01792 0.96245 0.0
O463 O 0.50028 0.98399 0.98646 0.0
O464 O 0.51655 0.98338 0.01379 0.0
C465 C 0.52617 0.01142 0.95778 0.0
O466 O 0.53455 0.00204 0.96993 0.0
O467 O 0.53007 0.02153 0.00485 0.0
C468 C 0.50251 3e-05 0.06615 0.0
O469 O 0.51539 0.01412 0.06367 0.0
O470 O 0.49402 0.98989 0.0516 0.0
O471 O 0.49909 0.02441 0.02755 0.0
O472 O 0.48624 0.02664 -0.00126 0.0
O473 O 0.47171 0.986 0.01105 0.0
C474 C 0.51061 0.97581 -0.00291 0.0
C475 C 0.48949 0.03276 0.01634 0.0
Zn476 Zn 0.26305 0.24504 0.26089 0.0
Zn477 Zn 0.25326 0.28092 0.28426 0.0
C478 C 0.29078 0.2595 0.23803 0.0
O479 O 0.27721 0.25152 0.22512 0.0
C480 C 0.2247 0.2636 0.30413 0.0
O481 O 0.23697 0.27212 0.31803 0.0
O482 O 0.26437 0.21856 0.25095 0.0
O483 O 0.2617 0.24339 0.2892 0.0
O484 O 0.27323 0.27206 0.3009 0.0
C485 C 0.27946 0.21373 0.25783 0.0
O486 O 0.29123 0.2258 0.2696 0.0
O487 O 0.28812 0.25926 0.25567 0.0
C488 C 0.259 0.32107 0.29042 0.0
O489 O 0.27307 0.31982 0.27984 0.0
O490 O 0.24948 0.30631 0.29497 0.0
O491 O 0.25705 0.28337 0.25664 0.0
O492 O 0.24326 0.25537 0.24508 0.0
O493 O 0.22856 0.26478 0.28691 0.0
C494 C 0.27059 0.25479 0.30267 0.0
C495 C 0.24801 0.27244 0.24288 0.0
Zn496 Zn 0.5077 0.48154 0.01268 0.0
Zn497 Zn 0.4942 0.51872 0.01188 0.0
C498 C 0.53489 0.49105 0.044 0.0
O499 O 0.54507 0.48558 0.03053 0.0
C500 C 0.46829 0.50982 0.97925 0.0
O501 O 0.45787 0.51678 0.99166 0.0
O502 O 0.51364 0.45553 0.01119 0.0
O503 O 0.47938 0.47917 0.01066 0.0
O504 O 0.47893 0.50442 0.02986 0.0
C505 C 0.50218 0.4411 0.00442 0.0
O506 O 0.48613 0.44294 -0.00465 0.0
O507 O 0.51752 0.49124 0.03978 0.0
C508 C 0.4982 0.55408 0.00088 0.0
O509 O 0.50846 0.54536 0.98965 0.0
O510 O 0.48936 0.5452 0.01304 0.0
O511 O 0.52214 0.52098 0.01558 0.0
O512 O 0.52336 0.49683 -0.00479 0.0
O513 O 0.48506 0.50824 0.98478 0.0
C514 C 0.47141 0.48809 0.02313 0.0
C515 C 0.5304 0.51309 0.00267 0.0
Zn516 Zn 0.75105 0.27245 0.26172 0.0
Zn517 Zn 0.75905 0.23671 0.27836 0.0
C518 C 0.72109 0.25726 0.23447 0.0
O519 O 0.73341 0.26525 0.22374 0.0
C520 C 0.79029 0.25142 0.30433 0.0
O521 O 0.77907 0.24266 0.3156 0.0
O522 O 0.74803 0.29861 0.25651 0.0
O523 O 0.75475 0.2744 0.2905 0.0
O524 O 0.73977 0.24663 0.29371 0.0
C525 C 0.73332 0.30289 0.2635 0.0
O526 O 0.72306 0.29056 0.27243 0.0
O527 O 0.72564 0.25752 0.2523 0.0
C528 C 0.75253 0.19641 0.27591 0.0
O529 O 0.73925 0.19776 0.26257 0.0
O530 O 0.76176 0.21111 0.28507 0.0
O531 O 0.75535 0.23443 0.24978 0.0
O532 O 0.76994 0.2622 0.24561 0.0
O533 O 0.78446 0.25168 0.28689 0.0
C534 C 0.74397 0.26374 0.29965 0.0
C535 C 0.76534 0.24504 0.23985 0.0
Zn536 Zn 0.00798 0.50913 0.49429 0.0
Zn537 Zn 0.00263 0.49558 0.53168 0.0
C538 C 0.03863 0.53664 0.5084 0.0
O539 O 0.02744 0.54649 0.49981 0.0
C540 C 0.9704 0.46798 0.52207 0.0
O541 O 0.98124 0.45842 0.53157 0.0
O542 O 0.01169 0.51428 0.46717 0.0
O543 O 0.00319 0.48123 0.493 0.0
O544 O 0.02145 0.48187 0.51935 0.0
C545 C 0.02605 0.50807 0.4615 0.0
O546 O 0.03579 0.49945 0.47329 0.0
O547 O 0.03323 0.51932 0.50856 0.0
C548 C 0.00986 0.50099 0.57262 0.0
O549 O 0.02182 0.51541 0.56908 0.0
O550 O 0.00159 0.48976 0.55873 0.0
O551 O 0.00471 0.52329 0.53322 0.0
O552 O 0.98925 0.524 0.50529 0.0
O553 O 0.97675 0.48467 0.51958 0.0
C554 C 0.01452 0.47367 0.50318 0.0
C555 C -0.00603 0.53098 0.52248 0.0
Zn556 Zn 0.77975 0.75523 0.26079 0.0
Zn557 Zn 0.74219 0.76493 0.26903 0.0
C558 C 0.76767 0.7293 0.22881 0.0
O559 O 0.77601 0.7194 0.24043 0.0
C560 C 0.75199 0.7916 0.30019 0.0
O561 O 0.74371 0.80033 0.28734 0.0
O562 O 0.80663 0.75284 0.2574 0.0
O563 O 0.7798 0.78267 0.26636 0.0
O564 O 0.7526 0.78188 0.24999 0.0
C565 C 0.81284 0.76137 0.24365 0.0
O566 O 0.80185 0.77099 0.23442 0.0
O567 O 0.76676 0.7461 0.2344 0.0
C568 C 0.70999 0.75925 0.28686 0.0
O569 O 0.7218 0.75058 0.29623 0.0
O570 O 0.71511 0.76697 0.27221 0.0
O571 O 0.74198 0.73762 0.26385 0.0
O572 O 0.76944 0.73727 0.27915 0.0
O573 O 0.75463 0.77509 0.29548 0.0
C574 C 0.76895 0.79044 0.25582 0.0
C575 C 0.75297 0.72907 0.27326 0.0
Zn576 Zn 0.746 0.24994 0.7835 0.0
Zn577 Zn 0.76379 0.25606 0.74613 0.0
C578 C 0.71961 0.21786 0.77138 0.0
O579 O 0.70939 0.22784 0.78137 0.0
C580 C 0.79052 0.28784 0.76248 0.0
O581 O 0.80249 0.27626 0.7598 0.0
O582 O 0.73839 0.24757 0.81018 0.0
O583 O 0.77422 0.25338 0.78687 0.0
O584 O 0.77677 0.2378 0.75938 0.0
C585 C 0.74849 0.25611 0.82478 0.0
O586 O 0.76253 0.26912 0.82234 0.0
O587 O 0.73657 0.22464 0.76955 0.0
C588 C 0.76148 0.24867 0.70487 0.0
O589 O 0.74633 0.23702 0.70734 0.0
O590 O 0.77168 0.25709 0.71946 0.0
O591 O 0.73576 0.25231 0.74321 0.0
O592 O 0.73266 0.26832 0.77038 0.0
O593 O 0.77304 0.28208 0.75847 0.0
C594 C 0.78264 0.24256 0.77682 0.0
C595 C 0.72737 0.26353 0.75277 0.0
Zn596 Zn 0.75676 0.7426 0.75599 0.0
Zn597 Zn 0.75163 0.7801 0.77974 0.0
C598 C 0.786 0.75439 0.73368 0.0
O599 O 0.77201 0.74823 0.72056 0.0
C600 C 0.7226 0.76681 0.80105 0.0
O601 O 0.73577 0.7752 0.81417 0.0
O602 O 0.755 0.71549 0.74656 0.0
O603 O 0.75401 0.74175 0.78419 0.0
O604 O 0.77034 0.76876 0.79574 0.0
C605 C 0.76697 0.70832 0.75637 0.0
O606 O 0.77871 0.71906 0.76934 0.0
O607 O 0.78307 0.75396 0.75124 0.0
C608 C 0.76046 0.82026 0.78484 0.0
O609 O 0.77301 0.81773 0.77271 0.0
O610 O 0.7509 0.80621 0.79076 0.0
O611 O 0.75452 0.78209 0.75175 0.0
O612 O 0.73882 0.75482 0.73995 0.0
O613 O 0.7259 0.76656 0.78354 0.0
C614 C 0.76481 0.75174 0.79748 0.0
C615 C 0.74438 0.77185 0.73816 0.0
Zn616 Zn 0.52266 0.50262 0.52454 0.0
Zn617 Zn 0.4868 0.50633 0.4999 0.0
C618 C 0.50738 0.47062 0.54071 0.0
O619 O 0.5123 0.48259 0.55595 0.0
C620 C 0.48829 0.54528 0.50537 0.0
O621 O 0.47242 0.53974 0.51267 0.0
O622 O 0.548 0.50237 0.53846 0.0
O623 O 0.52756 0.5082 0.4977 0.0
O624 O 0.5018 0.49071 0.48406 0.0
C625 C 0.56326 0.50956 0.53231 0.0
O626 O 0.56257 0.51958 0.51779 0.0
O627 O 0.50992 0.47601 0.52429 0.0
C628 C 0.44659 0.49601 0.49222 0.0
O629 O 0.44879 0.48448 0.50515 0.0
O630 O 0.46108 0.50523 0.48644 0.0
O631 O 0.48229 0.50162 0.52697 0.0
O632 O 0.50827 0.51899 0.54028 0.0
O633 O 0.49809 0.5332 0.49965 0.0
C634 C 0.51883 0.49797 0.4833 0.0
C635 C 0.49099 0.51258 0.54087 0.0
Zn636 Zn 0.9819 0.5136 0.0195 0.0
Zn637 Zn 0.01594 0.50059 0.00113 0.0
C638 C 0.00222 0.54376 0.04507 0.0
O639 O -0.00457 0.5331 0.05779 0.0
C640 C -0.00222 0.47172 0.9743 0.0
O641 O 0.00594 0.48359 0.96337 0.0
O642 O 0.95646 0.51905 0.02596 0.0
O643 O 0.9791 0.50944 0.99073 0.0
O644 O 0.00825 0.52062 0.98616 0.0
C645 C 0.95265 0.53349 0.01874 0.0
O646 O 0.9651 0.54248 0.00881 0.0
O647 O -0.00076 0.53785 0.02742 0.0
C648 C 0.04387 0.47894 0.00045 0.0
O649 O 0.03034 0.46918 0.00844 0.0
O650 O 0.04148 0.49468 -0.00476 0.0
O651 O 0.01877 0.50558 0.02951 0.0
O652 O 0.99017 0.49363 0.03481 0.0
O653 O -0.0016 0.47653 0.99217 0.0
C654 C 0.99077 0.51851 0.98101 0.0
C655 C 0.0078 0.49572 0.03915 0.0
C656 C 0.01148 0.19934 0.94066 0.0
C657 C 0.00819 0.19713 0.92058 0.0
C658 C 0.01373 0.18403 0.95073 0.0
C659 C 0.02811 0.13827 0.94424 0.0
H660 H -0.00345 0.1242 0.98441 0.0
C661 C 0.01099 0.06333 0.96127 0.0
C662 C 0.00831 0.0593 0.98008 0.0
C663 C 0.01446 0.08164 0.95691 0.0
C664 C 0.00579 0.12813 0.97353 0.0
H665 H 0.00452 0.17714 0.89538 0.0
H666 H 0.00865 0.15073 0.91283 0.0
H667 H -0.00433 0.15401 0.97151 0.0
H668 H 0.00791 0.07136 0.00928 0.0
H669 H 0.01409 0.10356 0.00165 0.0
H670 H 0.038 0.11239 0.94585 0.0
C671 C 0.00954 0.16423 0.9208 0.0
C672 C 0.00523 0.14517 0.96613 0.0
C673 C 0.00703 0.17936 0.91083 0.0
C674 C 0.0099 0.07404 -0.00537 0.0
C675 C 0.01331 0.09246 0.99025 0.0
C676 C 0.02879 0.12137 0.9517 0.0
C677 C 0.01307 0.1664 0.94081 0.0
C678 C 0.0159 0.15006 0.95095 0.0
C679 C 0.01535 0.09645 0.97127 0.0
C680 C 0.01713 0.11578 0.96594 0.0
H681 H 0.01243 0.21287 0.94856 0.0
H682 H 0.01638 0.18603 0.96617 0.0
H683 H 0.03672 0.14189 0.93275 0.0
H684 H 0.0099 0.05231 0.94972 0.0
H685 H 0.01567 0.08415 0.9421 0.0
C686 C 0.07871 0.79479 0.1862 0.0
C687 C 0.07696 0.79331 0.16608 0.0
C688 C 0.09621 0.7953 0.19626 0.0
C689 C 0.13967 0.77758 0.1892 0.0
H690 H 0.15808 0.80559 0.23808 0.0
C691 C 0.20967 0.76831 0.22644 0.0
C692 C 0.21055 0.76672 0.24621 0.0
C693 C 0.19453 0.7746 0.21724 0.0
C694 C 0.15302 0.79758 0.22451 0.0
H695 H 0.09232 0.79272 0.14078 0.0
H696 H 0.12291 0.79369 0.15838 0.0
H697 H 0.12966 0.81217 0.22054 0.0
H698 H 0.19653 0.77105 0.27199 0.0
H699 H 0.16946 0.78151 0.25569 0.0
H700 H 0.1624 0.76254 0.19325 0.0
C701 C 0.11069 0.79414 0.16634 0.0
C702 C 0.13683 0.80141 0.21445 0.0
C703 C 0.0932 0.79366 0.15627 0.0
C704 C 0.19618 0.77213 0.25673 0.0
C705 C 0.18077 0.7782 0.24741 0.0
C706 C 0.15568 0.7737 0.19925 0.0
C707 C 0.11226 0.79433 0.18638 0.0
C708 C 0.13003 0.79143 0.19668 0.0
C709 C 0.17963 0.77913 0.22748 0.0
C710 C 0.1626 0.78365 0.21699 0.0
H711 H 0.06645 0.79467 0.19417 0.0
H712 H 0.09696 0.79536 0.21169 0.0
H713 H 0.1345 0.7693 0.17581 0.0
H714 H 0.22062 0.76448 0.21792 0.0
H715 H 0.19437 0.77561 0.20198 0.0
C716 C 0.49851 0.82249 0.39713 0.0
C717 C 0.49715 0.80626 0.40653 0.0
C718 C 0.4961 0.8393 0.40675 0.0
C719 C 0.49924 0.86432 0.45461 0.0
H720 H 0.4734 0.89818 0.42744 0.0
C721 C 0.49503 0.9388 0.48754 0.0
C722 C 0.5003 0.9526 0.47544 0.0
C723 C 0.49142 0.92006 0.48032 0.0
C724 C 0.48065 0.88888 0.43522 0.0
H725 H 0.49214 0.79506 0.43351 0.0
H726 H 0.48794 0.82461 0.4504 0.0
H727 H 0.47317 0.86674 0.41276 0.0
H728 H 0.50519 0.95763 0.4462 0.0
H729 H 0.49885 0.92509 0.43366 0.0
H730 H 0.5071 0.88669 0.47687 0.0
C731 C 0.49094 0.82421 0.43554 0.0
C732 C 0.48055 0.87089 0.42681 0.0
C733 C 0.49329 0.80729 0.42585 0.0
C734 C 0.50121 0.94734 0.45591 0.0
C735 C 0.49744 0.92868 0.44868 0.0
C736 C 0.49931 0.88235 0.46305 0.0
C737 C 0.49227 0.84039 0.42605 0.0
C738 C 0.4903 0.85857 0.43616 0.0
C739 C 0.49278 0.91481 0.46084 0.0
C740 C 0.49045 0.89497 0.4532 0.0
H741 H 0.5015 0.82228 0.38227 0.0
H742 H 0.49758 0.85155 0.39912 0.0
H743 H 0.50697 0.8552 0.46213 0.0
H744 H 0.49423 0.94243 0.50268 0.0
H745 H 0.48773 0.90966 0.48999 0.0
C746 C 0.47063 0.24498 0.69542 0.0
C747 C 0.4736 0.25359 0.67859 0.0
C748 C 0.45301 0.24302 0.7026 0.0
C749 C 0.40275 0.2438 0.68874 0.0
H750 H 0.40007 0.25562 0.74319 0.0
C751 C 0.33633 0.26259 0.71941 0.0
C752 C 0.33061 0.2549 0.73602 0.0
C753 C 0.35362 0.26035 0.71284 0.0
C754 C 0.40061 0.252 0.72801 0.0
H755 H 0.46029 0.26676 0.65604 0.0
H756 H 0.42967 0.26357 0.6687 0.0
H757 H 0.43067 0.25553 0.73062 0.0
H758 H 0.33864 0.23896 0.75889 0.0
H759 H 0.36919 0.23518 0.7474 0.0
H760 H 0.37273 0.24078 0.68606 0.0
C761 C 0.44089 0.25807 0.67619 0.0
C762 C 0.41811 0.25194 0.7208 0.0
C763 C 0.45849 0.26001 0.669 0.0
C764 C 0.34267 0.24503 0.74605 0.0
C765 C 0.36014 0.24291 0.73952 0.0
C766 C 0.3853 0.24394 0.69593 0.0
C767 C 0.43796 0.24962 0.69312 0.0
C768 C 0.41938 0.24818 0.70103 0.0
C769 C 0.36568 0.25044 0.72276 0.0
C770 C 0.38407 0.24839 0.71557 0.0
H771 H 0.48195 0.2398 0.70313 0.0
H772 H 0.45115 0.23625 0.71554 0.0
H773 H 0.40322 0.24045 0.67351 0.0
H774 H 0.3274 0.2703 0.71134 0.0
H775 H 0.35765 0.26658 0.70007 0.0
C776 C 0.99016 0.79171 0.57323 0.0
C777 C -0.00156 0.79547 0.59217 0.0
C778 C 0.99113 0.80574 0.56093 0.0
C779 C 0.01931 0.84923 0.55216 0.0
H780 H 0.97339 0.86212 0.52886 0.0
C781 C 0.01694 0.92023 0.52481 0.0
C782 C 0.00341 0.92218 0.51005 0.0
C783 C 0.01742 0.90308 0.53179 0.0
C784 C 0.98642 0.85849 0.53482 0.0
H785 H 0.01439 0.81675 0.613 0.0
H786 H 0.01644 0.84109 0.59137 0.0
H787 H 0.97189 0.83511 0.5469 0.0
H788 H 0.98057 0.90734 0.49018 0.0
H789 H 0.98185 0.87718 0.50191 0.0
H790 H 0.03396 0.87236 0.54006 0.0
C791 C 0.00911 0.82735 0.58612 0.0
C792 C 0.9855 0.84306 0.54526 0.0
C793 C 0.00781 0.81346 0.59852 0.0
C794 C 0.99107 0.90633 0.50167 0.0
C795 C 0.99171 0.88907 0.50852 0.0
C796 C 0.02028 0.86444 0.54146 0.0
C797 C 0.00076 0.82363 0.56725 0.0
C798 C 0.00189 0.8386 0.55441 0.0
C799 C 0.00457 0.88732 0.52403 0.0
C800 C 0.0038 0.86962 0.53309 0.0
H801 H 0.98283 0.77797 0.56797 0.0
H802 H 0.98459 0.80258 0.54642 0.0
H803 H 0.03217 0.84589 0.55889 0.0
H804 H 0.02663 0.93215 0.53165 0.0
H805 H 0.02735 0.90246 0.54392 0.0
C806 C 0.45552 0.77074 0.84109 0.0
C807 C 0.46069 0.76212 0.85729 0.0
C808 C 0.43661 0.76967 0.83461 0.0
C809 C 0.38855 0.76007 0.84983 0.0
H810 H 0.37402 0.74986 0.79532 0.0
C811 C 0.31164 0.73663 0.81878 0.0
C812 C 0.30565 0.74356 0.80181 0.0
C813 C 0.33052 0.74041 0.82594 0.0
C814 C 0.37787 0.753 0.81056 0.0
H815 H 0.44998 0.74569 0.87944 0.0
H816 H 0.417 0.74367 0.86799 0.0
H817 H 0.40708 0.75343 0.80706 0.0
H818 H 0.31468 0.76029 0.77925 0.0
H819 H 0.34766 0.767 0.79186 0.0
H820 H 0.35929 0.75943 0.85332 0.0
C821 C 0.42758 0.75145 0.86045 0.0
C822 C 0.39681 0.75502 0.81729 0.0
C823 C 0.4465 0.75251 0.86693 0.0
C824 C 0.31887 0.75468 0.79233 0.0
C825 C 0.33777 0.75844 0.79949 0.0
C826 C 0.36959 0.75804 0.8431 0.0
C827 C 0.42243 0.75996 0.84418 0.0
C828 C 0.40235 0.75844 0.83701 0.0
C829 C 0.34383 0.75121 0.81628 0.0
C830 C 0.36403 0.75434 0.82339 0.0
H831 H 0.46607 0.77833 0.83337 0.0
H832 H 0.43308 0.77657 0.82218 0.0
H833 H 0.3924 0.763 0.86508 0.0
H834 H 0.30182 0.72802 0.82643 0.0
H835 H 0.33476 0.73445 0.83878 0.0
C836 C 0.47821 0.16988 0.1147 0.0
C837 C 0.47975 0.18727 0.1075 0.0
C838 C 0.47444 0.15355 0.10232 0.0
C839 C 0.48046 0.1358 0.05329 0.0
H840 H 0.45149 0.09099 0.06783 0.0
C841 C 0.47886 0.06334 0.01185 0.0
C842 C 0.48328 0.05006 0.02391 0.0
C843 C 0.47444 0.08026 0.01961 0.0
C844 C 0.45955 0.10341 0.06353 0.0
H845 H 0.47785 0.20108 0.08158 0.0
H846 H 0.47122 0.17245 0.05991 0.0
H847 H 0.45064 0.12073 0.08601 0.0
H848 H 0.48579 0.04372 0.05343 0.0
H849 H 0.47799 0.07296 0.06684 0.0
H850 H 0.48983 0.11831 0.03118 0.0
C851 C 0.4731 0.17153 0.07518 0.0
C852 C 0.45911 0.12043 0.07396 0.0
C853 C 0.4768 0.18792 0.08761 0.0
C854 C 0.48254 0.05371 0.04375 0.0
C855 C 0.4779 0.07041 0.05143 0.0
C856 C 0.48085 0.11875 0.04281 0.0
C857 C 0.47213 0.15416 0.0824 0.0
C858 C 0.47006 0.13673 0.06937 0.0
C859 C 0.47404 0.08398 0.03952 0.0
C860 C 0.4709 0.10231 0.04824 0.0
H861 H 0.48036 0.16883 0.12993 0.0
H862 H 0.47408 0.14044 0.10837 0.0
H863 H 0.48916 0.14807 0.04946 0.0
H864 H 0.47937 0.0609 -0.00349 0.0
H865 H 0.47148 0.09048 0.0101 0.0
C866 C 0.06439 0.23806 0.34858 0.0
C867 C 0.06528 0.24021 0.36868 0.0
C868 C 0.08038 0.23567 0.33924 0.0
C869 C 0.12876 0.22465 0.34675 0.0
H870 H 0.13898 0.25631 0.30626 0.0
C871 C 0.20303 0.25165 0.32773 0.0
C872 C 0.20611 0.25449 0.30868 0.0
C873 C 0.18502 0.24529 0.3327 0.0
C874 C 0.1362 0.24705 0.31723 0.0
H875 H 0.08345 0.24085 0.39475 0.0
H876 H 0.11139 0.23696 0.37849 0.0
H877 H 0.10867 0.25383 0.31951 0.0
H878 H 0.1929 0.25189 0.27968 0.0
H879 H 0.16129 0.24077 0.2884 0.0
H880 H 0.15664 0.21847 0.34494 0.0
C881 C 0.0983 0.23689 0.36991 0.0
C882 C 0.11881 0.24564 0.32486 0.0
C883 C 0.08232 0.23927 0.37924 0.0
C884 C 0.19095 0.24991 0.2945 0.0
C885 C 0.17285 0.24364 0.2995 0.0
C886 C 0.14618 0.22608 0.33913 0.0
C887 C 0.0976 0.23536 0.3498 0.0
C888 C 0.11507 0.23481 0.34005 0.0
C889 C 0.16964 0.24168 0.31873 0.0
C890 C 0.15026 0.23769 0.32464 0.0
H891 H 0.05142 0.23859 0.34004 0.0
H892 H 0.07931 0.23428 0.32374 0.0
H893 H 0.12618 0.2159 0.35819 0.0
H894 H 0.21445 0.25492 0.33898 0.0
H895 H 0.18303 0.24411 0.34766 0.0
C896 C 0.92324 0.03212 0.19642 0.0
C897 C 0.90349 0.02838 0.19507 0.0
C898 C 0.93281 0.03318 0.17992 0.0
C899 C 0.92686 0.01563 0.12923 0.0
H900 H 0.97118 0.05178 0.1251 0.0
C901 C 0.96293 0.01747 0.05955 0.0
C902 C 0.98267 0.02009 0.06096 0.0
C903 C 0.95334 0.02033 0.07573 0.0
C904 C 0.95893 0.04149 0.12612 0.0
H905 H 0.87825 0.02357 0.17541 0.0
H906 H 0.89499 0.02542 0.1466 0.0
H907 H 0.9541 0.05378 0.15374 0.0
H908 H 0.00787 0.02821 0.0804 0.0
H909 H 0.99107 0.03284 0.10889 0.0
H910 H 0.9318 0.00303 0.10196 0.0
C911 C 0.90306 0.02733 0.16042 0.0
C912 C 0.94913 0.04267 0.14248 0.0
C913 C 0.89349 0.02637 0.17692 0.0
C914 C -0.00735 0.02612 0.07887 0.0
C915 C 0.98301 0.02884 0.09516 0.0
C916 C 0.93668 0.01439 0.11297 0.0
C917 C 0.92283 0.03044 0.16174 0.0
C918 C 0.93298 0.02975 0.14419 0.0
C919 C 0.96322 0.0257 0.09381 0.0
C920 C 0.95282 0.0273 0.11117 0.0
H921 H 0.93135 0.03379 0.2102 0.0
H922 H 0.94804 0.03545 0.18139 0.0
H923 H 0.9147 0.00524 0.13029 0.0
H924 H 0.95481 0.01307 0.0459 0.0
H925 H 0.93811 0.01821 0.07407 0.0
C926 C 0.26457 0.67461 0.47624 0.0
C927 C 0.26457 0.65537 0.47543 0.0
C928 C 0.26025 0.68285 0.45965 0.0
C929 C 0.23632 0.67119 0.41077 0.0
H930 H 0.26475 0.71797 0.40036 0.0
C931 C 0.23905 0.6947 0.33557 0.0
C932 C 0.23898 0.71348 0.33305 0.0
C933 C 0.23956 0.6888 0.35383 0.0
C934 C 0.25646 0.70507 0.40324 0.0
H935 H 0.26056 0.6298 0.45652 0.0
H936 H 0.25341 0.64419 0.42759 0.0
H937 H 0.27172 0.70532 0.43055 0.0
H938 H 0.23886 0.74076 0.34765 0.0
H939 H 0.23996 0.73038 0.37987 0.0
H940 H 0.22145 0.67067 0.38323 0.0
C941 C 0.25632 0.65287 0.44108 0.0
C942 C 0.26048 0.69779 0.4205 0.0
C943 C 0.26059 0.64464 0.45764 0.0
C944 C 0.23882 0.72619 0.34918 0.0
C945 C 0.23959 0.72029 0.36758 0.0
C946 C 0.23237 0.67842 0.39352 0.0
C947 C 0.25585 0.67203 0.44191 0.0
C948 C 0.25072 0.68056 0.42428 0.0
C949 C 0.24019 0.70155 0.37006 0.0
C950 C 0.24265 0.69524 0.3894 0.0
H951 H 0.26752 0.68325 0.48975 0.0
H952 H 0.25991 0.69762 0.4608 0.0
H953 H 0.22821 0.65812 0.41343 0.0
H954 H 0.23912 0.68457 0.3234 0.0
H955 H 0.24021 0.67431 0.35527 0.0
C956 C 0.57355 0.95643 0.69407 0.0
C957 C 0.59298 0.9607 0.6925 0.0
C958 C 0.56079 0.95477 0.67794 0.0
C959 C 0.54097 0.97207 0.64658 0.0
H960 H 0.54492 0.94936 0.59545 0.0
C961 C 0.51875 0.00127 0.57727 0.0
C962 C 0.5068 0.98927 0.56335 0.0
C963 C 0.52613 0.99453 0.59359 0.0
C964 C 0.5435 0.95551 0.60973 0.0
H965 H 0.61436 0.96482 0.67259 0.0
H966 H 0.59194 0.96193 0.64424 0.0
H967 H 0.56458 0.94165 0.62266 0.0
H968 H 0.49298 0.96095 0.55547 0.0
H969 H 0.50652 0.94896 0.58403 0.0
H970 H 0.52077 0.98674 0.63357 0.0
C971 C 0.58664 0.9599 0.65802 0.0
C972 C 0.55479 0.95122 0.6252 0.0
C973 C 0.59947 0.96162 0.67424 0.0
C974 C 0.50202 0.97047 0.56616 0.0
C975 C 0.50982 0.96361 0.58233 0.0
C976 C 0.52996 0.97656 0.63113 0.0
C977 C 0.5672 0.95724 0.65988 0.0
C978 C 0.55382 0.95971 0.64372 0.0
C979 C 0.52203 0.97561 0.59606 0.0
C980 C 0.53139 0.96859 0.61256 0.0
H981 H 0.56812 0.95536 0.70793 0.0
H982 H 0.54588 0.95244 0.6797 0.0
H983 H 0.5401 0.979 0.66066 0.0
H984 H 0.52265 0.01582 0.57536 0.0
H985 H 0.53562 0.004 0.60396 0.0
C986 C 0.24721 0.34619 0.96821 0.0
C987 C 0.24293 0.36432 0.96956 0.0
C988 C 0.24853 0.33671 0.95029 0.0
C989 C 0.23363 0.33711 0.89894 0.0
H990 H 0.27474 0.31005 0.88973 0.0
C991 C 0.25148 0.31803 0.82309 0.0
C992 C 0.25365 0.29954 0.81813 0.0
C993 C 0.25113 0.32473 0.84219 0.0
C994 C 0.26309 0.31741 0.89217 0.0
H995 H 0.23683 0.38671 0.95308 0.0
H996 H 0.2393 0.37037 0.92218 0.0
H997 H 0.27153 0.32358 0.92222 0.0
H998 H 0.25826 0.27387 0.82944 0.0
H999 H 0.25774 0.28574 0.86304 0.0
H1000 H 0.22536 0.33132 0.86898 0.0
C1001 C 0.24134 0.3633 0.93485 0.0
C1002 C 0.26121 0.3251 0.91075 0.0
C1003 C 0.24004 0.37273 0.95264 0.0
C1004 C 0.25652 0.28818 0.83281 0.0
C1005 C 0.25624 0.29496 0.85203 0.0
C1006 C 0.23555 0.32955 0.88047 0.0
C1007 C 0.2455 0.34516 0.93341 0.0
C1008 C 0.24666 0.33537 0.91423 0.0
C1009 C 0.25299 0.31315 0.85682 0.0
C1010 C 0.25051 0.31995 0.8768 0.0
H1011 H 0.24955 0.33932 0.98096 0.0
H1012 H 0.25167 0.3227 0.94963 0.0
H1013 H 0.22199 0.34453 0.90121 0.0
H1014 H 0.24943 0.32723 0.81218 0.0
H1015 H 0.24901 0.33894 0.8455 0.0
C1016 C 0.9021 0.00835 0.31534 0.0
C1017 C 0.91267 0.00213 0.30082 0.0
C1018 C 0.90775 0.00728 0.33458 0.0
C1019 C 0.9493 0.00456 0.36701 0.0
H1020 H 0.91267 0.98747 0.40169 0.0
C1021 C 0.97178 -0.00356 0.44563 0.0
C1022 C 0.96069 0.00334 0.45928 0.0
C1023 C 0.96549 0.99418 0.42617 0.0
C1024 C 0.92306 0.9924 0.39223 0.0
H1025 H 0.93755 0.98997 0.2952 0.0
H1026 H 0.94737 0.98818 0.32871 0.0
H1027 H 0.9026 0.9884 0.36798 0.0
H1028 H 0.93398 0.01259 0.46327 0.0
H1029 H 0.9232 0.00894 0.42945 0.0
H1030 H 0.96971 0.00896 0.39123 0.0
C1031 C 0.93477 0.99395 0.32522 0.0
C1032 C 0.91728 0.99295 0.37293 0.0
C1033 C 0.92907 0.99492 0.306 0.0
C1034 C 0.94289 0.00724 0.45314 0.0
C1035 C 0.93664 0.00504 0.43371 0.0
C1036 C 0.95508 0.00411 0.38631 0.0
C1037 C 0.92416 9e-05 0.33972 0.0
C1038 C 0.93032 -0.00086 0.36014 0.0
C1039 C 0.948 -0.00119 0.41995 0.0
C1040 C 0.94201 -0.00186 0.39919 0.0
H1041 H 0.88939 0.01397 0.31186 0.0
H1042 H 0.89941 0.01231 0.34547 0.0
H1043 H 0.95965 0.00961 0.35754 0.0
H1044 H 0.98553 0.99323 0.44991 0.0
H1045 H 0.97445 0.98904 0.41596 0.0
C1046 C 0.29486 0.68073 0.58301 0.0
C1047 C 0.29304 0.66234 0.58773 0.0
C1048 C 0.29764 0.69555 0.59742 0.0
C1049 C 0.28435 0.71893 0.63006 0.0
H1050 H 0.31267 0.71973 0.67921 0.0
C1051 C 0.2578 0.74054 0.70143 0.0
C1052 C 0.27032 0.75058 0.71625 0.0
C1053 C 0.26423 0.73495 0.68401 0.0
C1054 C 0.30497 0.71998 0.66546 0.0
H1055 H 0.29435 0.64517 0.61119 0.0
H1056 H 0.29922 0.67094 0.63623 0.0
H1057 H 0.31942 0.69974 0.65174 0.0
H1058 H 0.29924 0.76327 0.72436 0.0
H1059 H 0.31068 0.75301 0.69382 0.0
H1060 H 0.26919 0.73836 0.64404 0.0
C1061 C 0.29849 0.67396 0.62144 0.0
C1062 C 0.30872 0.70844 0.64979 0.0
C1063 C 0.29554 0.65916 0.60707 0.0
C1064 C 0.28931 0.75561 0.71309 0.0
C1065 C 0.29585 0.74969 0.69571 0.0
C1066 C 0.2805 0.73033 0.64575 0.0
C1067 C 0.29888 0.69226 0.6168 0.0
C1068 C 0.29797 0.70729 0.63212 0.0
C1069 C 0.28339 0.73905 0.68114 0.0
C1070 C 0.29029 0.73044 0.66376 0.0
H1071 H 0.29308 0.68365 0.56823 0.0
H1072 H 0.29806 0.70953 0.59343 0.0
H1073 H 0.27573 0.71827 0.61669 0.0
H1074 H 0.24307 0.73654 0.70349 0.0
H1075 H 0.25434 0.72658 0.67314 0.0
C1076 C 0.59955 0.00224 0.80878 0.0
C1077 C 0.59017 0.00774 0.79258 0.0
C1078 C 0.59318 0.00538 0.82687 0.0
C1079 C 0.55037 0.01251 0.84965 0.0
H1080 H 0.58478 0.0271 0.89526 0.0
C1081 C 0.52439 0.02257 0.92506 0.0
C1082 C 0.53377 0.01406 0.93916 0.0
C1083 C 0.53159 0.02433 0.90728 0.0
C1084 C 0.575 0.02296 0.88264 0.0
H1085 H 0.56709 0.0214 0.7828 0.0
H1086 H 0.55615 0.02695 0.81429 0.0
H1087 H 0.59707 0.02529 0.86391 0.0
H1088 H 0.55822 0.00108 0.94582 0.0
H1089 H 0.57055 0.00399 0.91496 0.0
H1090 H 0.52834 0.0098 0.86839 0.0
C1091 C 0.56823 0.01996 0.81298 0.0
C1092 C 0.58205 0.0219 0.86472 0.0
C1093 C 0.57458 0.01683 0.79494 0.0
C1094 C 0.55061 0.00768 0.93527 0.0
C1095 C 0.5578 0.0095 0.91762 0.0
C1096 C 0.54333 0.01356 0.86758 0.0
C1097 C 0.57732 0.01409 0.8291 0.0
C1098 C 0.56982 0.0164 0.84805 0.0
C1099 C 0.54833 0.01772 0.90338 0.0
C1100 C 0.5556 0.0185 0.88428 0.0
H1101 H 0.61159 0.99521 0.80747 0.0
H1102 H 0.60036 0.00053 0.83902 0.0
H1103 H 0.5406 0.00801 0.83709 0.0
H1104 H 0.51141 0.02766 0.92767 0.0
H1105 H 0.52406 0.03085 0.8966 0.0
C1106 C 0.25368 0.35545 0.10214 0.0
C1107 C 0.24595 0.3468 0.08408 0.0
C1108 C 0.25423 0.3453 0.11795 0.0
C1109 C 0.23143 0.3033 0.13693 0.0
H1110 H 0.27502 0.31404 0.17409 0.0
C1111 C 0.23878 0.2671 0.2073 0.0
C1112 C 0.24599 0.27918 0.22372 0.0
C1113 C 0.23859 0.27356 0.18913 0.0
C1114 C 0.26271 0.31094 0.16389 0.0
H1115 H 0.23285 0.32063 0.06842 0.0
H1116 H 0.23386 0.30281 0.09619 0.0
H1117 H 0.27564 0.32835 0.1442 0.0
H1118 H 0.25798 0.30769 0.23394 0.0
H1119 H 0.25755 0.31881 0.20254 0.0
H1120 H 0.21844 0.28606 0.15692 0.0
C1121 C 0.23939 0.31751 0.09806 0.0
C1122 C 0.26306 0.31914 0.14677 0.0
C1123 C 0.23892 0.32769 0.08215 0.0
C1124 C 0.25247 0.29792 0.22163 0.0
C1125 C 0.25235 0.3043 0.20358 0.0
C1126 C 0.23109 0.29504 0.15413 0.0
C1127 C 0.24705 0.32623 0.11614 0.0
C1128 C 0.24728 0.31579 0.13329 0.0
C1129 C 0.24571 0.29217 0.1871 0.0
C1130 C 0.24656 0.29916 0.16798 0.0
H1131 H 0.25917 0.37015 0.10414 0.0
H1132 H 0.25995 0.35252 0.13172 0.0
H1133 H 0.21901 0.30052 0.12687 0.0
H1134 H 0.23369 0.25259 0.20842 0.0
H1135 H 0.23337 0.2639 0.17666 0.0
C1136 C 0.20022 0.93009 0.03594 0.0
C1137 C 0.19335 0.91157 0.02894 0.0
C1138 C 0.18788 0.94222 0.04106 0.0
C1139 C 0.13757 0.94382 0.04952 0.0
H1140 H 0.15018 0.99425 0.0366 0.0
C1141 C 0.0969 0.00703 0.0283 0.0
C1142 C 0.0823 0.00468 0.04039 0.0
C1143 C 0.11227 -0.00224 0.03069 0.0
C1144 C 0.14635 0.9802 0.04021 0.0
H1145 H 0.16824 0.89109 0.02203 0.0
H1146 H 0.14657 0.9124 0.03002 0.0
H1147 H 0.17259 0.97308 0.03277 0.0
H1148 H 0.07313 0.99204 0.06548 0.0
H1149 H 0.10038 0.9765 0.07022 0.0
H1150 H 0.11075 0.95054 0.05551 0.0
C1151 C 0.16152 0.91752 0.03222 0.0
C1152 C 0.15939 0.96807 0.0383 0.0
C1153 C 0.17391 0.90529 0.02748 0.0
C1154 C 0.08408 0.99398 0.05581 0.0
C1155 C 0.09963 0.98492 0.0584 0.0
C1156 C 0.1244 0.95586 0.0511 0.0
C1157 C 0.16832 0.93623 0.0389 0.0
C1158 C 0.15506 0.9496 0.0426 0.0
C1159 C 0.11358 0.98613 0.04543 0.0
C1160 C 0.12847 0.97413 0.0461 0.0
H1161 H 0.21518 0.93524 0.03744 0.0
H1162 H 0.19372 0.95635 0.04658 0.0
H1163 H 0.13384 0.92986 0.05339 0.0
H1164 H 0.09593 0.01512 0.01622 0.0
H1165 H 0.12253 -0.00108 0.02024 0.0
C1166 C 0.67589 0.61371 0.9789 0.0
C1167 C 0.69086 0.6042 0.97504 0.0
C1168 C 0.65766 0.60399 0.9786 0.0
C1169 C 0.62631 0.5598 0.96327 0.0
H1170 H 0.60431 0.57049 0.01076 0.0
C1171 C 0.56033 0.5139 0.98638 0.0
C1172 C 0.54796 0.52313 -0.00335 0.0
C1173 C 0.57733 0.52371 0.98173 0.0
C1174 C 0.61002 0.56751 -0.00276 0.0
H1175 H 0.69832 0.5773 0.96644 0.0
H1176 H 0.66639 0.56035 0.96582 0.0
H1177 H 0.63411 0.58836 0.005 0.0
H1178 H 0.54331 0.54997 0.00934 0.0
H1179 H 0.57223 0.567 0.00058 0.0
H1180 H 0.60203 0.53897 0.95547 0.0
C1181 C 0.66879 0.57528 0.96915 0.0
C1182 C 0.62714 0.57776 0.99398 0.0
C1183 C 0.68706 0.58498 0.96961 0.0
C1184 C 0.5526 0.54236 0.0016 0.0
C1185 C 0.56931 0.55215 -0.00331 0.0
C1186 C 0.60897 0.54962 0.96644 0.0
C1187 C 0.65405 0.58462 0.97426 0.0
C1188 C 0.63545 0.57406 0.97698 0.0
C1189 C 0.58211 0.54293 0.98709 0.0
C1190 C 0.6006 0.55341 0.98347 0.0
H1191 H 0.67834 0.62853 0.98301 0.0
H1192 H 0.64647 0.61153 0.98237 0.0
H1193 H 0.63248 0.55667 0.95005 0.0
H1194 H 0.55711 0.49907 0.9824 0.0
H1195 H 0.58693 0.51615 0.97443 0.0
C1196 C 0.68716 0.45817 0.27278 0.0
C1197 C 0.66809 0.45635 0.27629 0.0
C1198 C 0.69591 0.44246 0.2702 0.0
C1199 C 0.68404 0.39217 0.25591 0.0
H1200 H 0.73387 0.3896 0.27903 0.0
C1201 C 0.70907 0.32339 0.26579 0.0
C1202 C 0.72745 0.32118 0.262 0.0
C1203 C 0.70326 0.3406 0.26544 0.0
C1204 C 0.72008 0.39025 0.27221 0.0
H1205 H 0.64347 0.43672 0.28062 0.0
H1206 H 0.65873 0.40947 0.27639 0.0
H1207 H 0.72102 0.41859 0.28347 0.0
H1208 H 0.75418 0.3353 0.25472 0.0
H1209 H 0.74397 0.36579 0.25428 0.0
H1210 H 0.68286 0.36381 0.24503 0.0
C1211 C 0.66685 0.42296 0.27523 0.0
C1212 C 0.7127 0.4068 0.27479 0.0
C1213 C 0.65814 0.4386 0.27782 0.0
C1214 C 0.73991 0.3366 0.25763 0.0
C1215 C 0.73412 0.35402 0.25749 0.0
C1216 C 0.69138 0.3757 0.25336 0.0
C1217 C 0.68572 0.42466 0.27102 0.0
C1218 C 0.6944 0.40777 0.26706 0.0
C1219 C 0.7157 0.35613 0.26139 0.0
C1220 C 0.70927 0.37441 0.26187 0.0
H1221 H 0.6952 0.47167 0.2715 0.0
H1222 H 0.71045 0.44422 0.26694 0.0
H1223 H 0.6701 0.39261 0.24933 0.0
H1224 H 0.69909 0.3118 0.26919 0.0
H1225 H 0.68908 0.34183 0.26878 0.0
C1226 C 0.7996 0.42626 0.49138 0.0
C1227 C 0.79223 0.41079 0.50048 0.0
C1228 C 0.81899 0.43147 0.49129 0.0
C1229 C 0.86449 0.4149 0.49824 0.0
H1230 H 0.88399 0.46715 0.51141 0.0
C1231 C 0.94284 0.44265 0.52127 0.0
C1232 C 0.9506 0.46002 0.51594 0.0
C1233 C 0.9237 0.43586 0.51709 0.0
C1234 C 0.8788 0.45256 0.50737 0.0
H1235 H 0.79951 0.38835 0.51619 0.0
H1236 H 0.83343 0.39755 0.51612 0.0
H1237 H 0.85022 0.45666 0.50844 0.0
H1238 H 0.94456 0.48347 0.5012 0.0
H1239 H 0.91122 0.47147 0.4936 0.0
H1240 H 0.89313 0.41081 0.49734 0.0
C1241 C 0.82414 0.40556 0.50894 0.0
C1242 C 0.85942 0.44654 0.50571 0.0
C1243 C 0.80471 0.40036 0.50907 0.0
C1244 C 0.93897 0.47011 0.50565 0.0
C1245 C 0.91984 0.46328 0.5014 0.0
C1246 C 0.8839 0.42094 0.49983 0.0
C1247 C 0.83147 0.42132 0.50026 0.0
C1248 C 0.85206 0.42764 0.50126 0.0
C1249 C 0.91191 0.44625 0.5074 0.0
C1250 C 0.89128 0.43983 0.50455 0.0
H1251 H 0.79041 0.43455 0.48451 0.0
H1252 H 0.82422 0.44352 0.48425 0.0
H1253 H 0.8592 0.40028 0.49457 0.0
H1254 H 0.95141 0.43452 0.52921 0.0
H1255 H 0.91803 0.42278 0.5221 0.0
C1256 C 0.32405 0.05858 0.25513 0.0
C1257 C 0.34346 0.0621 0.26082 0.0
C1258 C 0.31424 0.07327 0.25193 0.0
C1259 C 0.32265 0.12109 0.2392 0.0
H1260 H 0.27712 0.12809 0.26283 0.0
C1261 C 0.30284 0.1923 0.256 0.0
C1262 C 0.28406 0.19499 0.25323 0.0
C1263 C 0.30757 0.17463 0.25322 0.0
C1264 C 0.28959 0.12611 0.25578 0.0
H1265 H 0.3676 0.08379 0.26823 0.0
H1266 H 0.35058 0.10919 0.26266 0.0
H1267 H 0.29009 0.09933 0.26578 0.0
H1268 H 0.25545 0.18132 0.24504 0.0
H1269 H 0.26378 0.15 0.2404 0.0
H1270 H 0.32262 0.14799 0.22975 0.0
C1271 C 0.34298 0.09513 0.26043 0.0
C1272 C 0.29702 0.1097 0.25752 0.0
C1273 C 0.3527 0.08056 0.26376 0.0
C1274 C 0.27005 0.17961 0.2472 0.0
C1275 C 0.27479 0.16174 0.24466 0.0
C1276 C 0.31524 0.13738 0.23743 0.0
C1277 C 0.32374 0.09165 0.25416 0.0
C1278 C 0.31402 0.10739 0.24984 0.0
C1279 C 0.29362 0.15912 0.24773 0.0
C1280 C 0.29904 0.14037 0.24631 0.0
H1281 H 0.31655 0.04449 0.25276 0.0
H1282 H 0.29939 0.07024 0.24717 0.0
H1283 H 0.33554 0.11948 0.23277 0.0
H1284 H 0.31396 0.20388 0.26059 0.0
H1285 H 0.32216 0.17304 0.25598 0.0
C1286 C 0.30356 0.09448 0.49656 0.0
C1287 C 0.28801 0.08645 0.5055 0.0
C1288 C 0.32013 0.08681 0.49719 0.0
C1289 C 0.34659 0.05699 0.52424 0.0
H1290 H 0.37107 0.05075 0.47747 0.0
C1291 C 0.41197 0.02018 0.51978 0.0
C1292 C 0.42635 0.02889 0.50973 0.0
C1293 C 0.39436 0.026 0.51909 0.0
C1294 C 0.3645 0.05253 0.49069 0.0
H1295 H 0.27784 0.06428 0.52245 0.0
H1296 H 0.30673 0.05102 0.52357 0.0
H1297 H 0.34217 0.06406 0.477 0.0
H1298 H 0.43348 0.05042 0.491 0.0
H1299 H 0.40316 0.06063 0.49009 0.0
H1300 H 0.36911 0.04575 0.538 0.0
C1301 C 0.30611 0.06324 0.51611 0.0
C1302 C 0.34796 0.06018 0.49041 0.0
C1303 C 0.28953 0.07081 0.51537 0.0
C1304 C 0.42273 0.04335 0.4989 0.0
C1305 C 0.40525 0.04914 0.49824 0.0
C1306 C 0.36322 0.04942 0.52454 0.0
C1307 C 0.32153 0.07106 0.5069 0.0
C1308 C 0.33893 0.06265 0.50721 0.0
C1309 C 0.39085 0.04058 0.50832 0.0
C1310 C 0.37247 0.0473 0.50781 0.0
H1311 H 0.30287 0.10653 0.48885 0.0
H1312 H 0.33189 0.09326 0.49015 0.0
H1313 H 0.33999 0.05885 0.53743 0.0
H1314 H 0.41434 0.00898 0.52823 0.0
H1315 H 0.38349 0.01902 0.5269 0.0
C1316 C 0.6627 0.58139 0.26834 0.0
C1317 C 0.66643 0.56632 0.27818 0.0
C1318 C 0.67625 0.59713 0.2687 0.0
C1319 C 0.71556 0.62591 0.29598 0.0
H1320 H 0.72437 0.64444 0.24698 0.0
C1321 C 0.75746 0.69923 0.28699 0.0
C1322 C 0.74714 0.70908 0.27493 0.0
C1323 C 0.75151 0.68024 0.28811 0.0
C1324 C 0.72218 0.63939 0.26077 0.0
H1325 H 0.68721 0.55617 0.29656 0.0
H1326 H 0.71094 0.58423 0.29755 0.0
H1327 H 0.70643 0.6136 0.24794 0.0
H1328 H 0.72261 0.70669 0.25451 0.0
H1329 H 0.71245 0.67397 0.25641 0.0
H1330 H 0.73044 0.65228 0.30878 0.0
C1331 C 0.69749 0.58355 0.28939 0.0
C1332 C 0.71196 0.62176 0.26131 0.0
C1333 C 0.68396 0.56755 0.28878 0.0
C1334 C 0.73091 0.6996 0.26398 0.0
C1335 C 0.72515 0.68075 0.26493 0.0
C1336 C 0.72578 0.6437 0.29545 0.0
C1337 C 0.6938 0.59832 0.27909 0.0
C1338 C 0.70791 0.61517 0.27888 0.0
C1339 C 0.73536 0.67083 0.27692 0.0
C1340 C 0.72846 0.65086 0.27781 0.0
H1341 H 0.64939 0.58095 0.26001 0.0
H1342 H 0.67297 0.60847 0.26086 0.0
H1343 H 0.71257 0.62109 0.3097 0.0
H1344 H 0.77002 0.70619 0.29561 0.0
H1345 H 0.75959 0.67288 0.29751 0.0
C1346 C 0.84987 0.45571 0.77471 0.0
C1347 C 0.86417 0.45876 0.76236 0.0
C1348 C 0.84165 0.43763 0.77728 0.0
C1349 C 0.84949 0.38847 0.76891 0.0
H1350 H 0.79657 0.37746 0.77661 0.0
C1351 C 0.78684 0.32108 0.76156 0.0
C1352 C 0.79752 0.30781 0.76746 0.0
C1353 C 0.79455 0.33991 0.76374 0.0
C1354 C 0.81134 0.38022 0.77431 0.0
H1355 H 0.88067 0.44534 0.74254 0.0
H1356 H 0.86584 0.41401 0.74625 0.0
H1357 H 0.81071 0.4092 0.77355 0.0
H1358 H 0.82407 0.30383 0.78153 0.0
H1359 H 0.83719 0.33672 0.78634 0.0
H1360 H 0.84992 0.35944 0.76831 0.0
C1361 C 0.86141 0.42542 0.75462 0.0
C1362 C 0.81955 0.39855 0.77284 0.0
C1363 C 0.86983 0.44343 0.75234 0.0
C1364 C 0.81562 0.31378 0.77664 0.0
C1365 C 0.82318 0.33264 0.77922 0.0
C1366 C 0.84123 0.37015 0.77002 0.0
C1367 C 0.84734 0.42222 0.76728 0.0
C1368 C 0.8387 0.40289 0.76988 0.0
C1369 C 0.81299 0.34593 0.77224 0.0
C1370 C 0.82199 0.3657 0.77255 0.0
H1371 H 0.8453 0.46727 0.78272 0.0
H1372 H 0.83107 0.43578 0.78734 0.0
H1373 H 0.86437 0.39125 0.76709 0.0
H1374 H 0.77288 0.31686 0.75432 0.0
H1375 H 0.78629 0.34958 0.75793 0.0
C1376 C -0.0061 0.82884 0.11058 0.0
C1377 C 0.00148 0.81409 0.10169 0.0
C1378 C 0.98997 0.84348 0.1004 0.0
C1379 C 0.00525 0.86757 0.05941 0.0
H1380 H 0.96533 0.89545 0.07116 0.0
C1381 C 0.00186 0.9387 0.03147 0.0
C1382 C 0.00062 0.95266 0.04614 0.0
C1383 C -0.00202 0.91997 0.03465 0.0
C1384 C 0.9765 0.88776 0.06766 0.0
H1385 H 0.01004 0.80268 0.07486 0.0
H1386 H 0.00299 0.82823 0.05696 0.0
H1387 H 0.96564 0.86526 0.08316 0.0
H1388 H -0.00681 0.95796 0.07518 0.0
H1389 H 0.98637 0.92542 0.08066 0.0
H1390 H 0.01639 0.89032 0.04439 0.0
C1391 C 0.00034 0.82858 0.07191 0.0
C1392 C 0.97672 0.8705 0.07457 0.0
C1393 C 0.00429 0.8139 0.08214 0.0
C1394 C -0.00561 0.94753 0.06362 0.0
C1395 C 0.99034 0.92886 0.06672 0.0
C1396 C 0.00497 0.88479 0.05241 0.0
C1397 C -0.00652 0.84373 0.08103 0.0
C1398 C 0.99144 0.86047 0.07106 0.0
C1399 C -0.00745 0.91488 0.05245 0.0
C1400 C 0.99092 0.89533 0.05698 0.0
H1401 H 0.99154 0.82941 0.12562 0.0
H1402 H 0.98496 0.85501 0.10799 0.0
H1403 H 0.01691 0.86035 0.05658 0.0
H1404 H 0.0066 0.94224 0.01783 0.0
H1405 H -0.00033 0.90948 0.02334 0.0
C1406 C 0.93465 0.23329 0.85694 0.0
C1407 C 0.94861 0.23174 0.84434 0.0
C1408 C 0.91567 0.22999 0.84996 0.0
C1409 C 0.88738 0.23128 0.80447 0.0
H1410 H 0.84534 0.21431 0.83306 0.0
C1411 C 0.81142 0.22795 0.77303 0.0
C1412 C 0.8001 0.23695 0.78491 0.0
C1413 C 0.82857 0.22384 0.78047 0.0
C1414 C 0.85699 0.21906 0.82495 0.0
H1415 H 0.95385 0.22382 0.8151 0.0
H1416 H 0.92085 0.21716 0.80309 0.0
H1417 H 0.87738 0.21248 0.84586 0.0
H1418 H 0.79741 0.24787 0.8141 0.0
H1419 H 0.82744 0.24073 0.82704 0.0
H1420 H 0.86712 0.23801 0.78369 0.0
C1421 C 0.92441 0.22173 0.81815 0.0
C1422 C 0.87531 0.21806 0.83227 0.0
C1423 C 0.94332 0.22541 0.82503 0.0
C1424 C 0.80591 0.24106 0.80454 0.0
C1425 C 0.82301 0.23683 0.812 0.0
C1426 C 0.86914 0.23209 0.7971 0.0
C1427 C 0.91039 0.22478 0.83033 0.0
C1428 C 0.89074 0.22434 0.82218 0.0
C1429 C 0.83467 0.22852 0.79996 0.0
C1430 C 0.85378 0.22618 0.80733 0.0
H1431 H 0.93844 0.23821 0.8719 0.0
H1432 H 0.90527 0.23256 0.85975 0.0
H1433 H 0.89888 0.23673 0.79651 0.0
H1434 H 0.80729 0.2245 0.75788 0.0
H1435 H 0.83722 0.21726 0.77092 0.0
C1436 C 0.51491 0.20477 0.60036 0.0
C1437 C 0.52805 0.21046 0.61633 0.0
C1438 C 0.51313 0.18683 0.59103 0.0
C1439 C 0.51639 0.14973 0.56928 0.0
H1440 H 0.5189 0.11113 0.60317 0.0
C1441 C 0.50551 0.07148 0.54149 0.0
C1442 C 0.49414 0.05959 0.55206 0.0
C1443 C 0.51169 0.09005 0.54858 0.0
C1444 C 0.51809 0.12172 0.5935 0.0
H1445 H 0.55048 0.20223 0.6342 0.0
H1446 H 0.54772 0.17124 0.61768 0.0
H1447 H 0.52575 0.14344 0.61624 0.0
H1448 H 0.4805 0.05782 0.57842 0.0
H1449 H 0.49103 0.09005 0.5906 0.0
H1450 H 0.50787 0.12781 0.54666 0.0
C1451 C 0.53837 0.18037 0.6127 0.0
C1452 C 0.52228 0.1403 0.60095 0.0
C1453 C 0.54001 0.19819 0.62212 0.0
C1454 C 0.4893 0.06657 0.56993 0.0
C1455 C 0.49544 0.08506 0.57699 0.0
C1456 C 0.51212 0.13107 0.56181 0.0
C1457 C 0.52457 0.17427 0.59738 0.0
C1458 C 0.52129 0.15456 0.589 0.0
C1459 C 0.50666 0.09706 0.5664 0.0
C1460 C 0.51265 0.11686 0.5739 0.0
H1461 H 0.50547 0.21389 0.59556 0.0
H1462 H 0.50224 0.18257 0.57938 0.0
H1463 H 0.51569 0.16035 0.55963 0.0
H1464 H 0.50949 0.06651 0.52767 0.0
H1465 H 0.52046 0.0989 0.54016 0.0
C1466 C 0.57238 0.75215 0.37499 0.0
C1467 C 0.55467 0.74907 0.3646 0.0
C1468 C 0.58872 0.75542 0.36555 0.0
C1469 C 0.60607 0.74912 0.31756 0.0
H1470 H 0.64983 0.78249 0.3421 0.0
C1471 C 0.67644 0.76448 0.28264 0.0
C1472 C 0.6918 0.76096 0.2944 0.0
C1473 C 0.65913 0.7653 0.29011 0.0
C1474 C 0.63765 0.77321 0.33506 0.0
H1475 H 0.54009 0.74734 0.33626 0.0
H1476 H 0.5685 0.75352 0.31989 0.0
H1477 H 0.62048 0.77947 0.35742 0.0
H1478 H 0.70137 0.75624 0.32324 0.0
H1479 H 0.67139 0.75796 0.33623 0.0
H1480 H 0.62341 0.74289 0.29523 0.0
C1481 C 0.56987 0.75297 0.33524 0.0
C1482 C 0.6209 0.77135 0.34389 0.0
C1483 C 0.55358 0.7495 0.34464 0.0
C1484 C 0.68973 0.75881 0.31378 0.0
C1485 C 0.67263 0.75996 0.32128 0.0
C1486 C 0.62278 0.75116 0.30864 0.0
C1487 C 0.58766 0.75588 0.34555 0.0
C1488 C 0.60502 0.75897 0.33545 0.0
C1489 C 0.65713 0.76304 0.30951 0.0
C1490 C 0.63881 0.7629 0.31753 0.0
H1491 H 0.57362 0.75183 0.39038 0.0
H1492 H 0.60219 0.75727 0.37391 0.0
H1493 H 0.5942 0.7393 0.31075 0.0
H1494 H 0.67771 0.7662 0.26765 0.0
H1495 H 0.64732 0.7677 0.28079 0.0
C1496 C 0.00454 0.20646 0.44763 0.0
C1497 C -0.00403 0.20773 0.42932 0.0
C1498 C 0.00044 0.19029 0.45666 0.0
C1499 C 0.98483 0.14051 0.44343 0.0
H1500 H 0.98793 0.13835 0.4984 0.0
C1501 C 0.00585 0.07796 0.47641 0.0
C1502 C -0.00422 0.07066 0.49107 0.0
C1503 C 0.00309 0.09488 0.47014 0.0
C1504 C 0.98677 0.13873 0.48302 0.0
H1505 H 0.97531 0.19366 0.40677 0.0
H1506 H 0.96782 0.16561 0.4227 0.0
H1507 H 0.98652 0.16805 0.4854 0.0
H1508 H 0.97529 0.07572 0.51109 0.0
H1509 H 0.97047 0.10564 0.50002 0.0
H1510 H 0.98526 0.11134 0.44099 0.0
C1511 C 0.9781 0.17689 0.42987 0.0
C1512 C 0.98614 0.15574 0.47557 0.0
C1513 C 0.98233 0.19299 0.42077 0.0
C1514 C 0.98323 0.08099 0.49974 0.0
C1515 C 0.98049 0.09809 0.49344 0.0
C1516 C 0.98544 0.1236 0.45085 0.0
C1517 C 0.98757 0.1751 0.44764 0.0
C1518 C 0.98561 0.15688 0.45569 0.0
C1519 C 0.99018 0.10501 0.47832 0.0
C1520 C 0.98697 0.1226 0.47072 0.0
H1521 H 0.01509 0.21761 0.45462 0.0
H1522 H 0.00813 0.18936 0.47025 0.0
H1523 H 0.98464 0.14083 0.42807 0.0
H1524 H 0.0158 0.07051 0.46955 0.0
H1525 H 0.01112 0.10006 0.45879 0.0
C1526 C 0.56871 0.24438 0.14598 0.0
C1527 C 0.55362 0.24683 0.15689 0.0
C1528 C 0.58624 0.24283 0.15495 0.0
C1529 C 0.61448 0.25391 0.20172 0.0
H1530 H 0.64611 0.22142 0.17876 0.0
C1531 C 0.68684 0.24791 0.23822 0.0
C1532 C 0.70156 0.25058 0.22629 0.0
C1533 C 0.66814 0.24441 0.23036 0.0
C1534 C 0.63741 0.23055 0.18533 0.0
H1535 H 0.54492 0.24918 0.18572 0.0
H1536 H 0.5753 0.2461 0.20132 0.0
H1537 H 0.61457 0.22159 0.16376 0.0
H1538 H 0.70832 0.25047 0.19678 0.0
H1539 H 0.67575 0.24429 0.18312 0.0
H1540 H 0.63736 0.26297 0.22319 0.0
C1541 C 0.57378 0.24578 0.18587 0.0
C1542 C 0.61939 0.23073 0.17669 0.0
C1543 C 0.55633 0.24747 0.17691 0.0
C1544 C 0.69727 0.24858 0.20634 0.0
C1545 C 0.67861 0.24493 0.1985 0.0
C1546 C 0.63242 0.25363 0.21041 0.0
C1547 C 0.589 0.24358 0.17502 0.0
C1548 C 0.6078 0.24259 0.18466 0.0
C1549 C 0.66385 0.24333 0.21045 0.0
C1550 C 0.64417 0.24213 0.20218 0.0
H1551 H 0.56704 0.24387 0.13051 0.0
H1552 H 0.59772 0.24142 0.14617 0.0
H1553 H 0.60609 0.26345 0.2081 0.0
H1554 H 0.68971 0.24936 0.25364 0.0
H1555 H 0.65702 0.24302 0.23989 0.0
C1556 C 0.52095 0.81546 0.93877 0.0
C1557 C 0.52963 0.81519 0.92154 0.0
C1558 C 0.52113 0.83217 0.95003 0.0
C1559 C 0.51045 0.8702 0.9598 0.0
H1560 H 0.55338 0.90966 0.96974 0.0
C1561 C 0.50307 0.94667 0.97497 0.0
C1562 C 0.51422 0.95707 0.99062 0.0
C1563 C 0.50604 0.92883 0.96889 0.0
C1564 C 0.54134 0.89868 0.96723 0.0
H1565 H 0.54625 0.83216 0.90323 0.0
H1566 H 0.54658 0.86131 0.92296 0.0
H1567 H 0.55758 0.879 0.95539 0.0
H1568 H 0.53739 0.95703 0.01202 0.0
H1569 H 0.54286 0.92575 0.00102 0.0
H1570 H 0.4941 0.88997 0.97104 0.0
C1571 C 0.53964 0.84858 0.92772 0.0
C1572 C 0.54371 0.88122 0.95893 0.0
C1573 C 0.53933 0.83188 0.91636 0.0
C1574 C 0.52856 0.9493 -5e-05 0.0
C1575 C 0.53173 0.93148 0.99364 0.0
C1576 C 0.50805 0.88767 0.96785 0.0
C1577 C 0.53014 0.84894 0.94441 0.0
C1578 C 0.52823 0.86689 0.95491 0.0
C1579 C 0.52038 0.92106 0.97814 0.0
C1580 C 0.52341 0.90215 0.97136 0.0
H1581 H 0.51342 0.80285 0.94325 0.0
H1582 H 0.51385 0.83204 0.96294 0.0
H1583 H 0.49823 0.85948 0.95669 0.0
H1584 H 0.49187 0.95224 0.96752 0.0
H1585 H 0.49724 0.92115 0.95677 0.0
C1586 C 0.93517 0.76187 0.66102 0.0
C1587 C 0.94813 0.75471 0.673 0.0
C1588 C 0.91819 0.76562 0.66757 0.0
C1589 C 0.8941 0.77361 0.71132 0.0
H1590 H 0.8489 0.75192 0.67907 0.0
C1591 C 0.82106 0.75946 0.74019 0.0
C1592 C 0.80505 0.75995 0.72778 0.0
C1593 C 0.83896 0.76226 0.73358 0.0
C1594 C 0.86133 0.75845 0.68814 0.0
H1595 H 0.95371 0.74652 0.70148 0.0
H1596 H 0.92421 0.75312 0.71286 0.0
H1597 H 0.87946 0.75084 0.66715 0.0
H1598 H 0.79526 0.76509 0.6992 0.0
H1599 H 0.82643 0.77059 0.68786 0.0
H1600 H 0.87598 0.7811 0.7324 0.0
C1601 C 0.92716 0.75586 0.69843 0.0
C1602 C 0.87887 0.75777 0.68128 0.0
C1603 C 0.944 0.75193 0.69183 0.0
C1604 C 0.80734 0.76436 0.70901 0.0
C1605 C 0.82521 0.7674 0.70248 0.0
C1606 C 0.87653 0.77445 0.71814 0.0
C1607 C 0.91397 0.7625 0.6863 0.0
C1608 C 0.89543 0.76505 0.69292 0.0
C1609 C 0.84121 0.76584 0.71449 0.0
C1610 C 0.85991 0.76658 0.70675 0.0
H1611 H 0.93794 0.7642 0.64645 0.0
H1612 H 0.90831 0.77084 0.65796 0.0
H1613 H 0.90666 0.77952 0.72052 0.0
H1614 H 0.8197 0.75602 0.75472 0.0
H1615 H 0.85091 0.76077 0.7432 0.0
C1616 C 0.07923 0.01479 0.83213 0.0
C1617 C 0.09414 0.00586 0.82658 0.0
C1618 C 0.07147 0.01172 0.84934 0.0
C1619 C 0.08122 0.99531 0.89652 0.0
H1620 H 0.02747 0.99354 0.89828 0.0
C1621 C 0.04717 0.00577 0.96717 0.0
C1622 C 0.02907 -0.00386 0.96879 0.0
C1623 C 0.05534 0.00447 0.94986 0.0
C1624 C 0.04246 0.99371 0.89804 0.0
H1625 H 0.11266 0.98671 0.83487 0.0
H1626 H 0.0989 0.98116 0.86491 0.0
H1627 H 0.04112 -0.00437 0.86788 0.0
H1628 H 0.00562 0.97706 0.95366 0.0
H1629 H 0.02004 0.97453 0.92347 0.0
H1630 H 0.0825 0.99314 0.92668 0.0
C1631 C 0.09337 0.99072 0.856 0.0
C1632 C 0.05034 0.99519 0.88062 0.0
C1633 C 0.10122 0.99386 0.83876 0.0
C1634 C 0.01954 0.98475 0.95285 0.0
C1635 C 0.02777 0.98338 0.93552 0.0
C1636 C 0.07332 0.99373 0.91395 0.0
C1637 C 0.07833 -0.00045 0.86143 0.0
C1638 C 0.06986 -0.00362 0.8797 0.0
C1639 C 0.04568 0.99342 0.93375 0.0
C1640 C 0.05388 0.99326 0.91498 0.0
H1641 H 0.07351 0.02423 0.82319 0.0
H1642 H 0.0602 0.01908 0.85325 0.0
H1643 H 0.09631 -0.00373 0.89636 0.0
H1644 H 0.05492 0.01469 0.97915 0.0
H1645 H 0.06901 0.01263 0.94897 0.0
C1646 C 0.73725 0.32317 0.5614 0.0
C1647 C 0.74816 0.34072 0.56107 0.0
C1648 C 0.74145 0.3117 0.57539 0.0
C1649 C 0.76585 0.31407 0.6237 0.0
H1650 H 0.75796 0.26045 0.6135 0.0
C1651 C 0.77961 0.26891 0.68361 0.0
C1652 C 0.76445 0.25498 0.68579 0.0
C1653 C 0.78047 0.27755 0.66674 0.0
C1654 C 0.76023 0.2754 0.61653 0.0
H1655 H 0.77239 0.35975 0.57473 0.0
H1656 H 0.77997 0.33959 0.59889 0.0
H1657 H 0.75403 0.27947 0.58714 0.0
H1658 H 0.73912 0.23818 0.67138 0.0
H1659 H 0.74061 0.25332 0.64196 0.0
H1660 H 0.77183 0.31005 0.65305 0.0
C1661 C 0.7679 0.33484 0.58862 0.0
C1662 C 0.75791 0.28631 0.60147 0.0
C1663 C 0.76361 0.34638 0.57473 0.0
C1664 C 0.75095 0.24891 0.6702 0.0
C1665 C 0.75183 0.25755 0.6533 0.0
C1666 C 0.76829 0.3032 0.63868 0.0
C1667 C 0.75674 0.31745 0.58928 0.0
C1668 C 0.76045 0.30578 0.60493 0.0
C1669 C 0.76622 0.27242 0.65169 0.0
C1670 C 0.7653 0.28375 0.63531 0.0
H1671 H 0.72523 0.31843 0.55106 0.0
H1672 H 0.73237 0.29853 0.57561 0.0
H1673 H 0.76758 0.32898 0.62699 0.0
H1674 H 0.79036 0.2738 0.69526 0.0
H1675 H 0.79192 0.28874 0.66576 0.0
C1676 C 0.41464 0.04034 0.33024 0.0
C1677 C 0.42422 0.03024 0.31739 0.0
C1678 C 0.42252 0.04594 0.34902 0.0
C1679 C 0.46682 0.04843 0.38116 0.0
H1680 H 0.43223 0.03537 0.41906 0.0
C1681 C 0.46655 0.01227 0.4549 0.0
C1682 C 0.48319 0.02157 0.46523 0.0
C1683 C 0.45953 0.01882 0.43836 0.0
C1684 C 0.44209 0.03913 0.40866 0.0
H1685 H 0.45001 0.01895 0.31395 0.0
H1686 H 0.46331 0.02809 0.34645 0.0
H1687 H 0.41998 0.03766 0.38647 0.0
H1688 H 0.50552 0.04514 0.46638 0.0
H1689 H 0.49313 0.05674 0.43724 0.0
H1690 H 0.48896 0.04826 0.403 0.0
C1691 C 0.44994 0.0321 0.34213 0.0
C1692 C 0.43504 0.04074 0.39001 0.0
C1693 C 0.44214 0.0266 0.32345 0.0
C1694 C 0.49273 0.03761 0.45861 0.0
C1695 C 0.48561 0.04427 0.44198 0.0
C1696 C 0.47388 0.04658 0.39977 0.0
C1697 C 0.44011 0.04151 0.35528 0.0
C1698 C 0.44735 0.04451 0.37581 0.0
C1699 C 0.46887 0.03495 0.43172 0.0
C1700 C 0.46158 0.04102 0.41346 0.0
H1701 H 0.40088 0.04353 0.32594 0.0
H1702 H 0.41466 0.05334 0.35875 0.0
H1703 H 0.47668 0.05186 0.37067 0.0
H1704 H 0.45889 -0.0002 0.45955 0.0
H1705 H 0.44692 0.01096 0.43055 0.0
C1706 C 0.73436 0.639 0.0731 0.0
C1707 C 0.73994 0.64803 0.05717 0.0
C1708 C 0.73587 0.64878 0.0912 0.0
C1709 C 0.7389 0.69456 0.11741 0.0
H1710 H 0.76473 0.67279 0.15774 0.0
C1711 C 0.76063 0.73225 0.19393 0.0
C1712 C 0.76083 0.72116 0.20918 0.0
C1713 C 0.75663 0.72403 0.17504 0.0
C1714 C 0.75716 0.67894 0.14678 0.0
H1715 H 0.75087 0.67463 0.04772 0.0
H1716 H 0.7533 0.69182 0.07954 0.0
H1717 H 0.7604 0.65733 0.12539 0.0
H1718 H 0.75568 0.693 0.21689 0.0
H1719 H 0.7479 0.67872 0.1842 0.0
H1720 H 0.73533 0.71602 0.13892 0.0
C1721 C 0.74783 0.67711 0.07787 0.0
C1722 C 0.75481 0.67011 0.1282 0.0
C1723 C 0.74653 0.66725 0.0597 0.0
C1724 C 0.75591 0.70185 0.20535 0.0
C1725 C 0.7516 0.69368 0.18658 0.0
C1726 C 0.74105 0.70333 0.13613 0.0
C1727 C 0.74281 0.66787 0.09382 0.0
C1728 C 0.74557 0.67774 0.11335 0.0
C1729 C 0.7525 0.70459 0.17112 0.0
C1730 C 0.75011 0.69554 0.15109 0.0
H1731 H 0.72918 0.62423 0.0717 0.0
H1732 H 0.73172 0.64136 0.10324 0.0
H1733 H 0.73165 0.70068 0.10619 0.0
H1734 H 0.76447 0.74719 0.19652 0.0
H1735 H 0.75755 0.73288 0.16352 0.0
C1736 C 0.12098 -0.00321 0.7018 0.0
C1737 C 0.11002 -0.0045 0.71742 0.0
C1738 C 0.11258 -0.00272 0.68337 0.0
C1739 C 0.06676 0.98653 0.65417 0.0
H1740 H 0.09208 0.01931 0.62054 0.0
C1741 C 0.03231 -0.00321 0.58017 0.0
C1742 C 0.04368 0.99504 0.56497 0.0
C1743 C 0.04014 -0.00152 0.59913 0.0
C1744 C 0.08489 0.01004 0.62976 0.0
H1745 H 0.08163 0.99355 0.72598 0.0
H1746 H 0.06698 0.99469 0.69391 0.0
H1747 H 0.10624 0.01839 0.65292 0.0
H1748 H 0.07228 0.99457 0.55772 0.0
H1749 H 0.0859 -0.0024 0.59076 0.0
H1750 H 0.04541 0.97822 0.63097 0.0
C1751 C 0.08205 0.99504 0.69581 0.0
C1752 C 0.09303 0.00944 0.64827 0.0
C1753 C 0.09045 0.99445 0.71422 0.0
C1754 C 0.06313 -0.00418 0.56911 0.0
C1755 C 0.07096 -0.00235 0.58804 0.0
C1756 C 0.05858 0.98721 0.63569 0.0
C1757 C 0.09302 -0.00341 0.68018 0.0
C1758 C 0.08414 -0.00244 0.66065 0.0
C1759 C 0.0595 -0.00136 0.60325 0.0
C1760 C 0.06763 -0.00114 0.62324 0.0
H1761 H 0.13611 -0.00246 0.70381 0.0
H1762 H 0.12141 -0.00188 0.67161 0.0
H1763 H 0.05965 0.97703 0.66321 0.0
H1764 H 0.01728 -0.00374 0.57744 0.0
H1765 H 0.03101 -0.00056 0.61058 0.0
C1766 C 0.71276 0.35977 0.43618 0.0
C1767 C 0.7141 0.35315 0.45426 0.0
C1768 C 0.71124 0.34757 0.41953 0.0
C1769 C 0.72285 0.30175 0.40325 0.0
H1770 H 0.6993 0.31195 0.35489 0.0
C1771 C 0.7295 0.25996 0.3307 0.0
C1772 C 0.73654 0.27146 0.31707 0.0
C1773 C 0.72311 0.26766 0.34743 0.0
C1774 C 0.70582 0.30888 0.36834 0.0
H1775 H 0.71357 0.32837 0.46904 0.0
H1776 H 0.71033 0.30702 0.43998 0.0
H1777 H 0.69366 0.32934 0.38453 0.0
H1778 H 0.74194 0.2999 0.31001 0.0
H1779 H 0.7305 0.31317 0.33892 0.0
H1780 H 0.73514 0.2814 0.38689 0.0
C1781 C 0.71105 0.32171 0.43864 0.0
C1782 C 0.70271 0.31889 0.3853 0.0
C1783 C 0.71279 0.33394 0.45531 0.0
C1784 C 0.73665 0.29067 0.32025 0.0
C1785 C 0.72996 0.29827 0.33673 0.0
C1786 C 0.72576 0.29157 0.3863 0.0
C1787 C 0.71079 0.32842 0.42055 0.0
C1788 C 0.71167 0.31587 0.40292 0.0
C1789 C 0.72331 0.28689 0.35057 0.0
C1790 C 0.71773 0.29544 0.36865 0.0
H1791 H 0.71377 0.37449 0.43486 0.0
H1792 H 0.71135 0.35334 0.4059 0.0
H1793 H 0.7302 0.29917 0.41646 0.0
H1794 H 0.72928 0.24511 0.32863 0.0
H1795 H 0.71805 0.25862 0.35794 0.0
C1796 C 0.42179 0.02736 0.20836 0.0
C1797 C 0.40414 0.0163 0.20855 0.0
C1798 C 0.43258 0.02514 0.193 0.0
C1799 C 0.44078 0.99065 0.15545 0.0
H1800 H 0.46704 0.03312 0.13398 0.0
C1801 C 0.47895 0.98521 0.08659 0.0
C1802 C 0.49479 -0.00147 0.08488 0.0
C1803 C 0.4691 0.98614 0.10284 0.0
C1804 C 0.4601 0.02112 0.14006 0.0
H1805 H 0.38364 0.9946 0.19262 0.0
H1806 H 0.40268 0.99063 0.16557 0.0
H1807 H 0.44607 0.03789 0.15882 0.0
H1808 H 0.51374 0.0222 0.09963 0.0
H1809 H 0.49678 0.02353 0.12826 0.0
H1810 H 0.45493 0.97386 0.1368 0.0
C1811 C 0.40812 0.00096 0.17744 0.0
C1812 C 0.44796 0.02386 0.15416 0.0
C1813 C 0.39719 0.00333 0.19279 0.0
C1814 C 0.50147 0.01185 0.10043 0.0
C1815 C 0.49166 0.01272 0.11675 0.0
C1816 C 0.45303 0.9879 0.1414 0.0
C1817 C 0.426 0.01171 0.17755 0.0
C1818 C 0.43819 0.00867 0.16198 0.0
C1819 C 0.47495 0.00032 0.1178 0.0
C1820 C 0.46281 0.00311 0.13355 0.0
H1821 H 0.42748 0.03751 0.22032 0.0
H1822 H 0.44635 0.03352 0.19353 0.0
H1823 H 0.43363 0.97872 0.16148 0.0
H1824 H 0.47348 0.97468 0.07491 0.0
H1825 H 0.45627 0.9764 0.10315 0.0
C1826 C 0.76917 0.68584 0.95186 0.0
C1827 C 0.76842 0.66648 0.94916 0.0
C1828 C 0.77173 0.69656 0.93648 0.0
C1829 C 0.76019 0.69188 0.88536 0.0
H1830 H 0.79531 0.73724 0.88376 0.0
C1831 C 0.76685 0.72426 0.81533 0.0
C1832 C 0.7689 0.74363 0.81553 0.0
C1833 C 0.76889 0.71604 0.83226 0.0
C1834 C 0.78526 0.72472 0.88408 0.0
H1835 H 0.77083 0.64336 0.92848 0.0
H1836 H 0.77502 0.66202 0.90172 0.0
H1837 H 0.7955 0.72084 0.91269 0.0
H1838 H 0.77519 0.76966 0.8337 0.0
H1839 H 0.77807 0.75519 0.86364 0.0
H1840 H 0.7494 0.69577 0.8573 0.0
C1841 C 0.77357 0.66887 0.91569 0.0
C1842 C 0.78544 0.71533 0.90059 0.0
C1843 C 0.77123 0.65821 0.93104 0.0
C1844 C 0.7736 0.75468 0.8331 0.0
C1845 C 0.7753 0.74638 0.85023 0.0
C1846 C 0.75981 0.70132 0.86907 0.0
C1847 C 0.77336 0.68805 0.91814 0.0
C1848 C 0.7731 0.69864 0.90119 0.0
C1849 C 0.77255 0.72691 0.85 0.0
C1850 C 0.77257 0.71767 0.86802 0.0
H1851 H 0.76712 0.69262 0.96568 0.0
H1852 H 0.77148 0.71133 0.9387 0.0
H1853 H 0.75021 0.67928 0.88562 0.0
H1854 H 0.76332 0.71532 0.80207 0.0
H1855 H 0.76727 0.70105 0.8314 0.0
C1856 C 0.8111 0.0646 0.01751 0.0
C1857 C 0.80882 0.08173 0.0109 0.0
C1858 C 0.82474 0.05479 0.01076 0.0
C1859 C 0.86981 0.06089 0.98994 0.0
H1860 H 0.85946 0.00713 0.98153 0.0
C1861 C 0.92906 0.01908 0.97567 0.0
C1862 C 0.93009 0.00495 0.98779 0.0
C1863 C 0.91273 0.027 0.97349 0.0
C1864 C 0.86256 0.02213 0.9838 0.0
H1865 H 0.81914 0.10195 0.99191 0.0
H1866 H 0.84319 0.08473 0.98014 0.0
H1867 H 0.83386 0.02449 0.98747 0.0
H1868 H 0.91427 0.98705 0.00586 0.0
H1869 H 0.88589 0.00091 0.00216 0.0
H1870 H 0.89859 0.05854 0.98697 0.0
C1871 C 0.83434 0.07899 0.99061 0.0
C1872 C 0.84792 0.03207 0.98722 0.0
C1873 C 0.82057 0.08883 -0.00266 0.0
C1874 C 0.91397 -0.00206 -0.00352 0.0
C1875 C 0.89765 0.00586 -0.00572 0.0
C1876 C 0.88445 0.05094 0.98652 0.0
C1877 C 0.83651 0.06182 -0.00277 0.0
C1878 C 0.85148 0.05152 0.99087 0.0
C1879 C 0.89708 0.02093 0.98333 0.0
C1880 C 0.88108 0.03143 0.98392 0.0
H1881 H 0.80234 0.05868 0.02796 0.0
H1882 H 0.8263 0.0418 0.01645 0.0
H1883 H 0.87304 0.07584 0.99287 0.0
H1884 H 0.94117 0.0247 0.96862 0.0
H1885 H 0.9126 0.03835 0.96466 0.0
C1886 C 0.30727 0.44133 0.03191 0.0
C1887 C 0.29972 0.42433 0.03823 0.0
C1888 C 0.32646 0.44799 0.03493 0.0
C1889 C 0.3718 0.43194 0.0425 0.0
H1890 H 0.39008 0.48486 0.04951 0.0
C1891 C 0.44524 0.48827 0.04453 0.0
C1892 C 0.45304 0.47983 0.029 0.0
C1893 C 0.42758 0.48072 0.04962 0.0
C1894 C 0.38535 0.47002 0.04791 0.0
H1895 H 0.30643 0.40128 0.05327 0.0
H1896 H 0.34012 0.4131 0.05876 0.0
H1897 H 0.35716 0.47354 0.05251 0.0
H1898 H 0.44858 0.45666 0.00684 0.0
H1899 H 0.4176 0.44387 0.01527 0.0
H1900 H 0.40004 0.42843 0.03801 0.0
C1901 C 0.3311 0.42111 0.05122 0.0
C1902 C 0.36638 0.46354 0.04937 0.0
C1903 C 0.31181 0.41439 0.04815 0.0
C1904 C 0.44298 0.46349 0.01891 0.0
C1905 C 0.42526 0.45605 0.02387 0.0
C1906 C 0.39083 0.43843 0.04119 0.0
C1907 C 0.33866 0.4379 0.04445 0.0
C1908 C 0.35926 0.44447 0.04605 0.0
C1909 C 0.41725 0.46466 0.03917 0.0
C1910 C 0.39771 0.45758 0.04328 0.0
H1911 H 0.29842 0.44938 0.02421 0.0
H1912 H 0.33181 0.46078 0.02918 0.0
H1913 H 0.36679 0.41718 0.03979 0.0
H1914 H 0.45275 0.50076 0.05272 0.0
H1915 H 0.42196 0.48755 0.06167 0.0
C1916 C 0.34534 0.57411 0.76626 0.0
C1917 C 0.33835 0.55623 0.75731 0.0
C1918 C 0.33359 0.58754 0.76792 0.0
C1919 C 0.30378 0.61157 0.77634 0.0
H1920 H 0.27334 0.61621 0.72981 0.0
C1921 C 0.2609 0.6715 0.77035 0.0
C1922 C 0.26406 0.68106 0.75416 0.0
C1923 C 0.26659 0.65419 0.77157 0.0
C1924 C 0.28169 0.61503 0.74295 0.0
H1925 H 0.31336 0.53816 0.74381 0.0
H1926 H 0.29286 0.5616 0.74675 0.0
H1927 H 0.29026 0.58998 0.73143 0.0
H1928 H 0.2747 0.67956 0.72615 0.0
H1929 H 0.28449 0.64946 0.72824 0.0
H1930 H 0.29582 0.63708 0.78755 0.0
C1931 C 0.30747 0.56529 0.7523 0.0
C1932 C 0.29125 0.59992 0.74394 0.0
C1933 C 0.31921 0.55185 0.75069 0.0
C1934 C 0.27212 0.67257 0.73884 0.0
C1935 C 0.27763 0.65525 0.73999 0.0
C1936 C 0.29414 0.62665 0.77537 0.0
C1937 C 0.31461 0.58338 0.76062 0.0
C1938 C 0.30275 0.59824 0.76049 0.0
C1939 C 0.27533 0.64605 0.75654 0.0
C1940 C 0.28335 0.62877 0.75849 0.0
H1941 H 0.36003 0.57792 0.77151 0.0
H1942 H 0.33959 0.6014 0.77422 0.0
H1943 H 0.31236 0.61054 0.78936 0.0
H1944 H 0.25476 0.6777 0.7824 0.0
H1945 H 0.26449 0.64734 0.78443 0.0
C1946 C 0.19933 0.62037 0.53856 0.0
C1947 C 0.2125 0.60815 0.53748 0.0
C1948 C 0.18022 0.61351 0.53874 0.0
C1949 C 0.14654 0.57228 0.54683 0.0
H1950 H 0.11309 0.59146 0.51078 0.0
C1951 C 0.07159 0.53458 0.52065 0.0
C1952 C 0.05771 0.54542 0.51633 0.0
C1953 C 0.09014 0.543 0.52615 0.0
C1954 C 0.12213 0.58617 0.52121 0.0
H1955 H 0.2161 0.57925 0.53644 0.0
H1956 H 0.18273 0.5673 0.53669 0.0
H1957 H 0.14618 0.60496 0.5153 0.0
H1958 H 0.05204 0.57356 0.51554 0.0
H1959 H 0.08423 0.58825 0.52556 0.0
H1960 H 0.12246 0.55333 0.55257 0.0
C1961 C 0.18718 0.58216 0.5375 0.0
C1962 C 0.14112 0.59391 0.52376 0.0
C1963 C 0.20627 0.58901 0.53722 0.0
C1964 C 0.0625 0.56483 0.51853 0.0
C1965 C 0.08097 0.57324 0.52418 0.0
C1966 C 0.12748 0.56458 0.54435 0.0
C1967 C 0.17394 0.59433 0.53795 0.0
C1968 C 0.15356 0.58692 0.53643 0.0
C1969 C 0.0951 0.56243 0.52758 0.0
C1970 C 0.11509 0.57132 0.53135 0.0
H1971 H 0.20372 0.6352 0.53886 0.0
H1972 H 0.17034 0.62322 0.5393 0.0
H1973 H 0.15579 0.56675 0.55685 0.0
H1974 H 0.06831 0.51957 0.51906 0.0
H1975 H 0.1007 0.53424 0.52849 0.0
C1976 C 0.68715 0.95582 0.76091 0.0
C1977 C 0.66858 0.9526 0.76602 0.0
C1978 C 0.69994 0.94432 0.76627 0.0
C1979 C 0.70876 0.90898 0.79882 0.0
H1980 H 0.73603 0.89058 0.75776 0.0
C1981 C 0.73885 0.84066 0.79837 0.0
C1982 C 0.75477 0.83873 0.7885 0.0
C1983 C 0.7313 0.85711 0.7988 0.0
C1984 C 0.7289 0.89585 0.76956 0.0
H1985 H 0.64907 0.93523 0.78137 0.0
H1986 H 0.6714 0.91507 0.79065 0.0
H1987 H 0.71705 0.91458 0.75248 0.0
H1988 H 0.77616 0.85314 0.77273 0.0
H1989 H 0.76323 0.88201 0.77386 0.0
H1990 H 0.72036 0.88994 0.81578 0.0
C1991 C 0.6761 0.92657 0.7826 0.0
C1992 C 0.71795 0.9096 0.7665 0.0
C1993 C 0.66327 0.93804 0.77718 0.0
C1994 C 0.76377 0.85409 0.78028 0.0
C1995 C 0.75628 0.8706 0.78081 0.0
C1996 C 0.71982 0.89526 0.80193 0.0
C1997 C 0.69448 0.92939 0.77692 0.0
C1998 C 0.70748 0.91608 0.78096 0.0
C1999 C 0.73957 0.87207 0.78948 0.0
C2000 C 0.72974 0.88827 0.7872 0.0
H2001 H 0.69173 0.96699 0.75241 0.0
H2002 H 0.71408 0.947 0.76188 0.0
H2003 H 0.70104 0.91389 0.81033 0.0
H2004 H 0.73157 0.82912 0.80491 0.0
H2005 H 0.71836 0.85765 0.80549 0.0
C2006 C 0.67425 0.90745 0.52373 0.0
C2007 C 0.69056 0.91416 0.53599 0.0
C2008 C 0.65996 0.91823 0.52177 0.0
C2009 C 0.6399 0.9561 0.54554 0.0
H2010 H 0.62266 0.96509 0.49425 0.0
C2011 C 0.58808 0.00706 0.5339 0.0
C2012 C 0.57343 0.00138 0.51935 0.0
C2013 C 0.60354 -0.00228 0.53513 0.0
C2014 C 0.62714 0.96257 0.50867 0.0
H2015 H 0.70445 0.93698 0.55634 0.0
H2016 H 0.67932 0.95556 0.55323 0.0
H2017 H 0.64607 0.94477 0.49868 0.0
H2018 H 0.56398 0.98201 0.49409 0.0
H2019 H 0.59051 0.96551 0.49653 0.0
H2020 H 0.62067 0.97335 0.55562 0.0
C2021 C 0.67765 0.94209 0.54503 0.0
C2022 C 0.64054 0.95093 0.51117 0.0
C2023 C 0.69203 0.93148 0.54676 0.0
C2024 C 0.57503 0.9868 0.50548 0.0
C2025 C 0.59035 0.97734 0.50684 0.0
C2026 C 0.62631 0.96753 0.54305 0.0
C2027 C 0.66164 0.93572 0.53229 0.0
C2028 C 0.64703 0.9476 0.52962 0.0
C2029 C 0.60458 0.98237 0.52196 0.0
C2030 C 0.61974 0.97093 0.52457 0.0
H2031 H 0.6728 0.89417 0.51521 0.0
H2032 H 0.64765 0.91296 0.51195 0.0
H2033 H 0.64461 0.95364 0.55992 0.0
H2034 H 0.58733 0.01833 0.54472 0.0
H2035 H 0.61447 0.00228 0.54669 0.0
C2036 C 0.3606 0.43718 0.71842 0.0
C2037 C 0.35537 0.45224 0.72936 0.0
C2038 C 0.35004 0.41946 0.71767 0.0
C2039 C 0.33466 0.38257 0.73076 0.0
H2040 H 0.28076 0.37351 0.73405 0.0
C2041 C 0.2982 0.31626 0.75792 0.0
C2042 C 0.28043 0.30788 0.74926 0.0
C2043 C 0.30647 0.33356 0.75331 0.0
C2044 C 0.29578 0.37575 0.73288 0.0
H2045 H 0.33454 0.46064 0.74751 0.0
H2046 H 0.31646 0.42969 0.74667 0.0
H2047 H 0.2962 0.40433 0.72853 0.0
H2048 H 0.25738 0.31112 0.72895 0.0
H2049 H 0.27201 0.34136 0.72067 0.0
H2050 H 0.33426 0.35401 0.73485 0.0
C2051 C 0.3285 0.43157 0.73834 0.0
C2052 C 0.30467 0.39347 0.72995 0.0
C2053 C 0.33895 0.44933 0.73893 0.0
C2054 C 0.27107 0.31724 0.7359 0.0
C2055 C 0.27942 0.33459 0.73122 0.0
C2056 C 0.32578 0.36487 0.73357 0.0
C2057 C 0.33412 0.41635 0.72801 0.0
C2058 C 0.32427 0.39718 0.7292 0.0
C2059 C 0.29726 0.3429 0.73983 0.0
C2060 C 0.3063 0.36133 0.73508 0.0
H2061 H 0.37304 0.43899 0.71067 0.0
H2062 H 0.35455 0.40813 0.70923 0.0
H2063 H 0.34979 0.38491 0.73049 0.0
H2064 H 0.30576 0.30948 0.76835 0.0
H2065 H 0.32004 0.33972 0.76054 0.0
C2066 C 0.12624 0.55643 0.22209 0.0
C2067 C 0.13578 0.54276 0.22918 0.0
C2068 C 0.13543 0.57464 0.22225 0.0
C2069 C 0.18174 0.60438 0.2259 0.0
H2070 H 0.15548 0.64161 0.24936 0.0
C2071 C 0.21849 0.67867 0.25387 0.0
C2072 C 0.20786 0.69318 0.25377 0.0
C2073 C 0.21003 0.66041 0.24785 0.0
C2074 C 0.16291 0.63153 0.24238 0.0
H2075 H 0.16274 0.53736 0.24113 0.0
H2076 H 0.17878 0.56924 0.24131 0.0
H2077 H 0.1402 0.60949 0.24408 0.0
H2078 H 0.18043 0.7002 0.24603 0.0
H2079 H 0.16583 0.66852 0.23483 0.0
H2080 H 0.20449 0.62646 0.22419 0.0
C2081 C 0.16418 0.56579 0.23566 0.0
C2082 C 0.15414 0.61306 0.23944 0.0
C2083 C 0.15495 0.54756 0.23565 0.0
C2084 C 0.18891 0.68925 0.2465 0.0
C2085 C 0.18052 0.67106 0.24021 0.0
C2086 C 0.19048 0.62294 0.22866 0.0
C2087 C 0.15439 0.57958 0.22934 0.0
C2088 C 0.1635 0.59927 0.23133 0.0
C2089 C 0.19081 0.65632 0.24136 0.0
C2090 C 0.18123 0.63673 0.23711 0.0
H2091 H 0.1115 0.55322 0.21692 0.0
H2092 H 0.1276 0.58496 0.21709 0.0
H2093 H 0.18922 0.59403 0.21948 0.0
H2094 H 0.23313 0.68127 0.25949 0.0
H2095 H 0.21838 0.64944 0.24913 0.0
C2096 C 0.49162 0.67876 0.41812 0.0
C2097 C 0.49794 0.69691 0.42668 0.0
C2098 C 0.49218 0.66361 0.42868 0.0
C2099 C 0.49531 0.6498 0.47782 0.0
H2100 H 0.51019 0.60594 0.45231 0.0
C2101 C 0.48044 0.57727 0.50451 0.0
C2102 C 0.49303 0.56476 0.50108 0.0
C2103 C 0.48337 0.59481 0.49791 0.0
C2104 C 0.50629 0.61814 0.45981 0.0
H2105 H 0.50946 0.71343 0.4532 0.0
H2106 H 0.51056 0.68686 0.47169 0.0
H2107 H 0.51051 0.63366 0.43578 0.0
H2108 H 0.51928 0.56134 0.4892 0.0
H2109 H 0.52459 0.59209 0.478 0.0
H2110 H 0.4912 0.63422 0.50193 0.0
C2111 C 0.50503 0.6844 0.45681 0.0
C2112 C 0.5062 0.63397 0.45019 0.0
C2113 C 0.50445 0.69961 0.44621 0.0
C2114 C 0.50922 0.57059 0.49192 0.0
C2115 C 0.51219 0.58817 0.48539 0.0
C2116 C 0.49543 0.63394 0.48748 0.0
C2117 C 0.49914 0.6662 0.44808 0.0
C2118 C 0.50038 0.64988 0.45894 0.0
C2119 C 0.49902 0.60029 0.48781 0.0
C2120 C 0.50066 0.61782 0.47847 0.0
H2121 H 0.48641 0.6762 0.40314 0.0
H2122 H 0.48713 0.64982 0.42162 0.0
H2123 H 0.49071 0.66181 0.48495 0.0
H2124 H 0.46784 0.57326 0.51155 0.0
H2125 H 0.47285 0.60369 0.4999 0.0
C2126 C 0.59224 0.29137 0.65167 0.0
C2127 C 0.57645 0.29208 0.66203 0.0
C2128 C 0.61006 0.29244 0.66127 0.0
C2129 C 0.63785 0.30353 0.70848 0.0
H2130 H 0.66304 0.26331 0.6899 0.0
C2131 C 0.69764 0.27737 0.75305 0.0
C2132 C 0.71177 0.27087 0.74296 0.0
C2133 C 0.68221 0.28285 0.74313 0.0
C2134 C 0.65643 0.27485 0.69512 0.0
H2135 H 0.56711 0.29582 0.6905 0.0
H2136 H 0.59817 0.29754 0.70722 0.0
H2137 H 0.63465 0.26875 0.67223 0.0
H2138 H 0.72159 0.26622 0.71482 0.0
H2139 H 0.69516 0.2762 0.6977 0.0
H2140 H 0.65964 0.30942 0.73158 0.0
C2141 C 0.59682 0.29621 0.69171 0.0
C2142 C 0.64014 0.27797 0.68495 0.0
C2143 C 0.579 0.29511 0.68212 0.0
C2144 C 0.7107 0.2708 0.72296 0.0
C2145 C 0.69551 0.27648 0.71313 0.0
C2146 C 0.65429 0.30046 0.71865 0.0
C2147 C 0.61242 0.29428 0.68139 0.0
C2148 C 0.63059 0.29225 0.69155 0.0
C2149 C 0.68082 0.2821 0.723 0.0
C2150 C 0.66371 0.28601 0.71212 0.0
H2151 H 0.59075 0.28921 0.63618 0.0
H2152 H 0.62191 0.29121 0.65295 0.0
H2153 H 0.63079 0.31468 0.71386 0.0
H2154 H 0.69816 0.27759 0.76848 0.0
H2155 H 0.67108 0.28701 0.75116 0.0
C2156 C 0.00039 0.32159 0.88899 0.0
C2157 C 0.00097 0.30631 0.89961 0.0
C2158 C -0.00185 0.33878 0.89788 0.0
C2159 C 0.98262 0.36215 0.94125 0.0
H2160 H 0.0125 0.40535 0.92452 0.0
C2161 C 0.99097 0.43779 0.97864 0.0
C2162 C -0.0079 0.45208 0.9665 0.0
C2163 C 0.98964 0.41927 0.97103 0.0
C2164 C 0.00386 0.39345 0.92919 0.0
H2165 H -0.00062 0.29712 0.92798 0.0
H2166 H -0.00424 0.32741 0.94363 0.0
H2167 H 0.01578 0.3746 0.91073 0.0
H2168 H 0.99104 0.45805 0.93687 0.0
H2169 H 0.98845 0.42585 0.92364 0.0
H2170 H 0.97094 0.38128 0.95998 0.0
C2171 C -0.00316 0.32593 0.92833 0.0
C2172 C 0.00576 0.3758 0.92129 0.0
C2173 C -0.00098 0.30862 0.91938 0.0
C2174 C 0.99042 0.44738 0.94661 0.0
C2175 C 0.98907 0.42894 0.93903 0.0
C2176 C 0.98078 0.37992 0.94926 0.0
C2177 C -0.00345 0.34125 0.91768 0.0
C2178 C -0.00501 0.35992 0.927 0.0
C2179 C 0.98941 0.41477 0.95117 0.0
C2180 C 0.99122 0.39576 0.9431 0.0
H2181 H 0.00163 0.32033 0.87371 0.0
H2182 H -0.00242 0.35016 0.88916 0.0
H2183 H 0.97405 0.3502 0.94589 0.0
H2184 H -0.00773 0.44098 0.99405 0.0
H2185 H 0.98993 0.40864 0.98073 0.0
C2186 C 0.97021 0.74606 0.19536 0.0
C2187 C 0.97382 0.75488 0.17878 0.0
C2188 C 0.95252 0.74472 0.20233 0.0
C2189 C 0.90286 0.74834 0.18865 0.0
H2190 H 0.90085 0.75945 0.24331 0.0
C2191 C 0.83707 0.76774 0.22068 0.0
C2192 C 0.83151 0.75966 0.23714 0.0
C2193 C 0.85428 0.76561 0.21382 0.0
C2194 C 0.90119 0.75607 0.22806 0.0
H2195 H 0.96153 0.76893 0.15633 0.0
H2196 H 0.93077 0.76684 0.16865 0.0
H2197 H 0.93114 0.75827 0.23046 0.0
H2198 H 0.83976 0.7432 0.25947 0.0
H2199 H 0.87007 0.73959 0.24746 0.0
H2200 H 0.87294 0.74658 0.18622 0.0
C2201 C 0.94155 0.76071 0.17612 0.0
C2202 C 0.91851 0.75536 0.22068 0.0
C2203 C 0.95922 0.762 0.16911 0.0
C2204 C 0.84367 0.7496 0.24676 0.0
C2205 C 0.86101 0.74757 0.23993 0.0
C2206 C 0.88557 0.74912 0.19601 0.0
C2207 C 0.93805 0.75221 0.19291 0.0
C2208 C 0.91956 0.75173 0.20087 0.0
C2209 C 0.86638 0.75543 0.22328 0.0
C2210 C 0.88459 0.75325 0.21574 0.0
H2211 H 0.98111 0.74031 0.2031 0.0
H2212 H 0.95019 0.73784 0.21513 0.0
H2213 H 0.90315 0.74515 0.17337 0.0
H2214 H 0.82805 0.77561 0.21293 0.0
H2215 H 0.85818 0.77209 0.20114 0.0
C2216 C 0.51194 0.31372 0.10143 0.0
C2217 C 0.50146 0.29639 0.09444 0.0
C2218 C 0.51328 0.32847 0.09011 0.0
C2219 C 0.50465 0.34007 0.0399 0.0
H2220 H 0.50673 0.38943 0.06569 0.0
C2221 C 0.49226 0.40669 0.00403 0.0
C2222 C 0.50517 0.42283 0.01043 0.0
C2223 C 0.49327 0.39017 0.01233 0.0
C2224 C 0.50632 0.37574 0.05832 0.0
H2225 H 0.48414 0.28085 0.07012 0.0
H2226 H 0.48573 0.30683 0.0506 0.0
H2227 H 0.50475 0.36299 0.08431 0.0
H2228 H 0.53001 0.43393 0.02972 0.0
H2229 H 0.53151 0.40524 0.04431 0.0
H2230 H 0.50538 0.35311 0.01376 0.0
C2231 C 0.49342 0.30894 0.06461 0.0
C2232 C 0.50529 0.36054 0.06899 0.0
C2233 C 0.49237 0.29406 0.07585 0.0
C2234 C 0.51977 0.4218 0.02448 0.0
C2235 C 0.52061 0.40541 0.03292 0.0
C2236 C 0.50534 0.35532 0.02917 0.0
C2237 C 0.50384 0.32639 0.07163 0.0
C2238 C 0.50461 0.34249 0.05999 0.0
C2239 C 0.50707 0.38961 0.02731 0.0
C2240 C 0.50637 0.37329 0.03833 0.0
H2241 H 0.51931 0.31585 0.11562 0.0
H2242 H 0.52185 0.34148 0.09587 0.0
H2243 H 0.50439 0.32645 0.03246 0.0
H2244 H 0.48089 0.407 0.9932 0.0
H2245 H 0.48266 0.37815 0.00779 0.0
C2246 C 0.96099 0.27906 0.3418 0.0
C2247 C 0.9656 0.27136 0.35878 0.0
C2248 C 0.94228 0.28004 0.33599 0.0
C2249 C 0.89547 0.27927 0.35369 0.0
H2250 H 0.87689 0.26143 0.3012 0.0
C2251 C 0.81694 0.25623 0.32989 0.0
C2252 C 0.81007 0.25874 0.31127 0.0
C2253 C 0.83606 0.26105 0.33582 0.0
C2254 C 0.88189 0.26683 0.3158 0.0
H2255 H 0.95416 0.25889 0.3831 0.0
H2256 H 0.92155 0.26059 0.37292 0.0
H2257 H 0.91018 0.26347 0.31126 0.0
H2258 H 0.81772 0.26927 0.28461 0.0
H2259 H 0.85111 0.278 0.29511 0.0
H2260 H 0.86716 0.28244 0.35832 0.0
C2261 C 0.93243 0.26597 0.36419 0.0
C2262 C 0.90097 0.26794 0.32157 0.0
C2263 C 0.95111 0.26487 0.36993 0.0
C2264 C 0.8226 0.26702 0.29901 0.0
C2265 C 0.84175 0.27192 0.30498 0.0
C2266 C 0.8764 0.27827 0.3479 0.0
C2267 C 0.92782 0.27348 0.34711 0.0
C2268 C 0.90789 0.27383 0.34065 0.0
C2269 C 0.84876 0.2686 0.32331 0.0
C2270 C 0.86931 0.2717 0.32897 0.0
H2271 H 0.97181 0.28423 0.33289 0.0
H2272 H 0.93914 0.28601 0.32283 0.0
H2273 H 0.90048 0.28415 0.36842 0.0
H2274 H 0.80767 0.24989 0.3397 0.0
H2275 H 0.84096 0.25808 0.34995 0.0
C2276 C 0.97974 0.68724 0.59031 0.0
C2277 C 0.98376 0.68751 0.6102 0.0
C2278 C 0.97636 0.67041 0.57855 0.0
C2279 C 0.9649 0.61938 0.57997 0.0
H2280 H -0.0074 0.61657 0.53497 0.0
C2281 C 0.98878 0.55281 0.54996 0.0
C2282 C 0.98795 0.54837 0.53006 0.0
C2283 C 0.98422 0.56958 0.55755 0.0
C2284 C 0.98446 0.61719 0.54726 0.0
H2285 H 0.98682 0.67025 0.63336 0.0
H2286 H 0.98114 0.64113 0.61297 0.0
H2287 H 0.9919 0.64672 0.55247 0.0
H2288 H 0.98138 0.55789 0.50246 0.0
H2289 H 0.97363 0.58761 0.51585 0.0
H2290 H 0.95818 0.58978 0.57525 0.0
C2291 C 0.98037 0.65383 0.60641 0.0
C2292 C 0.98405 0.63446 0.55729 0.0
C2293 C 0.98379 0.67059 0.61811 0.0
C2294 C 0.98209 0.56095 0.51786 0.0
C2295 C 0.97775 0.57795 0.5255 0.0
C2296 C 0.96538 0.60216 0.57 0.0
C2297 C 0.97682 0.65353 0.58647 0.0
C2298 C 0.97477 0.63568 0.57412 0.0
C2299 C 0.97887 0.58244 0.54544 0.0
C2300 C 0.97565 0.60083 0.5539 0.0
H2301 H 0.97956 0.70002 0.58374 0.0
H2302 H 0.97353 0.67063 0.56326 0.0
H2303 H 0.95727 0.61989 0.59262 0.0
H2304 H -0.00684 0.54337 0.55976 0.0
H2305 H 0.98548 0.57275 0.57296 0.0
C2306 C 0.56311 0.73834 0.85024 0.0
C2307 C 0.56405 0.74125 0.87031 0.0
C2308 C 0.57935 0.73696 0.84097 0.0
C2309 C 0.62894 0.72975 0.84885 0.0
H2310 H 0.63632 0.75944 0.80632 0.0
C2311 C 0.70174 0.75734 0.82627 0.0
C2312 C 0.70409 0.75879 0.80681 0.0
C2313 C 0.68403 0.75138 0.83219 0.0
C2314 C 0.63436 0.75077 0.8179 0.0
H2315 H 0.58262 0.7444 0.89644 0.0
H2316 H 0.61099 0.74222 0.88027 0.0
H2317 H 0.60631 0.75611 0.82026 0.0
H2318 H 0.68985 0.75438 0.77817 0.0
H2319 H 0.65874 0.74395 0.78859 0.0
H2320 H 0.65724 0.72491 0.84684 0.0
C2321 C 0.59769 0.74079 0.87168 0.0
C2322 C 0.61715 0.74886 0.82592 0.0
C2323 C 0.58145 0.74218 0.88095 0.0
C2324 C 0.68845 0.75347 0.79328 0.0
C2325 C 0.67065 0.74759 0.79925 0.0
C2326 C 0.64616 0.73166 0.84083 0.0
C2327 C 0.59687 0.73844 0.85157 0.0
C2328 C 0.61439 0.73868 0.84176 0.0
C2329 C 0.66822 0.74677 0.81881 0.0
C2330 C 0.6492 0.74255 0.82555 0.0
H2331 H 0.54988 0.73745 0.84164 0.0
H2332 H 0.57821 0.7349 0.82548 0.0
H2333 H 0.62713 0.72153 0.86081 0.0
H2334 H 0.71352 0.76122 0.83705 0.0
H2335 H 0.68263 0.75113 0.84738 0.0
C2336 C 0.39291 0.52486 0.6745 0.0
C2337 C 0.40318 0.52859 0.69253 0.0
C2338 C 0.40217 0.52542 0.65779 0.0
C2339 C 0.4471 0.54215 0.63832 0.0
H2340 H 0.43175 0.49958 0.60065 0.0
C2341 C 0.49098 0.5245 0.57543 0.0
C2342 C 0.48106 0.51691 0.55789 0.0
C2343 C 0.48135 0.52755 0.59166 0.0
C2344 C 0.43605 0.51173 0.61084 0.0
H2345 H 0.43112 0.53669 0.70719 0.0
H2346 H 0.44725 0.53764 0.67798 0.0
H2347 H 0.4149 0.50256 0.62908 0.0
H2348 H 0.45325 0.50737 0.54336 0.0
H2349 H 0.43653 0.51302 0.57142 0.0
H2350 H 0.46831 0.55128 0.62003 0.0
C2351 C 0.43206 0.53433 0.67677 0.0
C2352 C 0.42637 0.51342 0.62716 0.0
C2353 C 0.42281 0.53369 0.6935 0.0
C2354 C 0.46133 0.51298 0.55674 0.0
C2355 C 0.45174 0.51614 0.57286 0.0
C2356 C 0.45674 0.54051 0.6219 0.0
C2357 C 0.42187 0.52982 0.65875 0.0
C2358 C 0.4318 0.52861 0.6411 0.0
C2359 C 0.46162 0.52317 0.5906 0.0
C2360 C 0.45134 0.52525 0.60798 0.0
H2361 H 0.37776 0.521 0.67327 0.0
H2362 H 0.39391 0.52215 0.64408 0.0
H2363 H 0.45151 0.55408 0.64877 0.0
H2364 H 0.50619 0.52765 0.57674 0.0
H2365 H 0.48941 0.53282 0.60513 0.0
C2366 C 0.75905 0.15478 0.95089 0.0
C2367 C 0.76882 0.16245 0.96846 0.0
C2368 C 0.75663 0.16588 0.93609 0.0
C2369 C 0.75808 0.21516 0.92658 0.0
H2370 H 0.75713 0.19417 0.87392 0.0
C2371 C 0.75956 0.25653 0.85946 0.0
C2372 C 0.74732 0.24838 0.84346 0.0
C2373 C 0.76102 0.24727 0.87592 0.0
C2374 C 0.75719 0.20016 0.88857 0.0
H2375 H 0.78415 0.18768 0.98418 0.0
H2376 H 0.78056 0.20698 0.95806 0.0
H2377 H 0.76356 0.17552 0.89976 0.0
H2378 H 0.72605 0.22472 0.83272 0.0
H2379 H 0.72878 0.2086 0.86133 0.0
H2380 H 0.75227 0.24006 0.91509 0.0
C2381 C 0.77429 0.19248 0.95587 0.0
C2382 C 0.76083 0.18946 0.90341 0.0
C2383 C 0.77651 0.18139 0.97079 0.0
C2384 C 0.7357 0.23137 0.84473 0.0
C2385 C 0.73732 0.22206 0.86106 0.0
C2386 C 0.7547 0.22597 0.91167 0.0
C2387 C 0.76415 0.1849 0.93838 0.0
C2388 C 0.76112 0.19672 0.92263 0.0
C2389 C 0.7504 0.22965 0.87656 0.0
C2390 C 0.75401 0.21847 0.89254 0.0
H2391 H 0.75279 0.14027 0.94871 0.0
H2392 H 0.74843 0.15958 0.92301 0.0
H2393 H 0.75794 0.22115 0.94118 0.0
H2394 H 0.76866 0.26963 0.85897 0.0
H2395 H 0.7712 0.25341 0.8877 0.0
C2396 C 0.10312 0.45686 0.17459 0.0
C2397 C 0.0936 0.45694 0.19125 0.0
C2398 C 0.09318 0.45614 0.15668 0.0
C2399 C 0.04559 0.44896 0.13051 0.0
H2400 H 0.06828 0.48881 0.10291 0.0
C2401 C 0.00562 0.48104 0.07009 0.0
C2402 C 0.01605 0.48693 0.05509 0.0
C2403 C 0.01442 0.47413 0.08573 0.0
C2404 C 0.06185 0.47739 0.11019 0.0
H2405 H 0.0661 0.4546 0.20214 0.0
H2406 H 0.04884 0.45359 0.17094 0.0
H2407 H 0.08519 0.48115 0.13131 0.0
H2408 H 0.04349 0.48907 0.04405 0.0
H2409 H 0.05847 0.47655 0.07068 0.0
H2410 H 0.02203 0.44553 0.10935 0.0
C2411 C 0.06392 0.45403 0.17165 0.0
C2412 C 0.07159 0.47296 0.12649 0.0
C2413 C 0.07385 0.45473 0.18955 0.0
C2414 C 0.0351 0.48493 0.05552 0.0
C2415 C 0.04374 0.47782 0.07087 0.0
C2416 C 0.03581 0.45336 0.11404 0.0
C2417 C 0.07357 0.4555 0.15513 0.0
C2418 C 0.06359 0.45877 0.13689 0.0
C2419 C 0.03371 0.47286 0.08644 0.0
C2420 C 0.04386 0.46766 0.10374 0.0
H2421 H 0.11831 0.45833 0.17542 0.0
H2422 H 0.10094 0.45693 0.14412 0.0
H2423 H 0.03908 0.43795 0.13827 0.0
H2424 H 0.9909 0.48239 0.07008 0.0
H2425 H 0.00632 0.47048 0.09757 0.0
C2426 C 0.74613 0.8508 0.46868 0.0
C2427 C 0.742 0.86899 0.46953 0.0
C2428 C 0.74786 0.84103 0.45102 0.0
C2429 C 0.73464 0.84077 0.39918 0.0
H2430 H 0.77526 0.81249 0.39226 0.0
C2431 C 0.7535 0.81869 0.32451 0.0
C2432 C 0.75514 0.79995 0.3203 0.0
C2433 C 0.75319 0.82614 0.34337 0.0
C2434 C 0.76376 0.8202 0.39406 0.0
H2435 H 0.73659 0.89115 0.45244 0.0
H2436 H 0.73979 0.87432 0.42196 0.0
H2437 H 0.77139 0.82697 0.42419 0.0
H2438 H 0.75892 0.77458 0.33268 0.0
H2439 H 0.75846 0.78775 0.36589 0.0
H2440 H 0.72715 0.83435 0.36914 0.0
C2441 C 0.74138 0.86743 0.43483 0.0
C2442 C 0.7615 0.82844 0.41231 0.0
C2443 C 0.73965 0.87714 0.45237 0.0
C2444 C 0.75766 0.78909 0.33549 0.0
C2445 C 0.75738 0.7966 0.35448 0.0
C2446 C 0.73695 0.83267 0.38102 0.0
C2447 C 0.74544 0.84924 0.43389 0.0
C2448 C 0.7471 0.83911 0.41499 0.0
C2449 C 0.75452 0.81505 0.35851 0.0
C2450 C 0.75172 0.82259 0.37818 0.0
H2451 H 0.74806 0.84412 0.48163 0.0
H2452 H 0.75088 0.827 0.45077 0.0
H2453 H 0.72311 0.84848 0.4008 0.0
H2454 H 0.75176 0.82751 0.31316 0.0
H2455 H 0.75141 0.84052 0.34608 0.0
C2456 C 0.43214 0.5001 0.80543 0.0
C2457 C 0.41523 0.50627 0.79993 0.0
C2458 C 0.43766 0.4993 0.82473 0.0
C2459 C 0.41918 0.4967 0.87191 0.0
H2460 H 0.47105 0.51443 0.89133 0.0
C2461 C 0.44342 0.50969 0.95257 0.0
C2462 C 0.4613 0.50603 0.95877 0.0
C2463 C 0.43747 0.50801 0.93308 0.0
C2464 C 0.45658 0.50913 0.88609 0.0
H2465 H 0.39089 0.51652 0.81048 0.0
H2466 H 0.40062 0.51521 0.84422 0.0
H2467 H 0.46141 0.51542 0.8576 0.0
H2468 H 0.48664 0.49694 0.94942 0.0
H2469 H 0.47611 0.49371 0.91537 0.0
H2470 H 0.41435 0.49044 0.90041 0.0
C2471 C 0.4095 0.51083 0.83353 0.0
C2472 C 0.45105 0.50976 0.86676 0.0
C2473 C 0.404 0.5117 0.81421 0.0
C2474 C 0.47282 0.49996 0.9451 0.0
C2475 C 0.46684 0.49824 0.92558 0.0
C2476 C 0.42474 0.496 0.89124 0.0
C2477 C 0.42638 0.5046 0.83899 0.0
C2478 C 0.43227 0.50366 0.85948 0.0
C2479 C 0.44923 0.50257 0.91933 0.0
C2480 C 0.44348 0.50232 0.89858 0.0
H2481 H 0.44113 0.49576 0.79483 0.0
H2482 H 0.45065 0.49426 0.82846 0.0
H2483 H 0.40468 0.49163 0.86665 0.0
H2484 H 0.43419 0.5144 0.96273 0.0
H2485 H 0.42391 0.51164 0.92879 0.0
C2486 C 0.78764 0.17249 0.07992 0.0
C2487 C 0.78266 0.15332 0.08118 0.0
C2488 C 0.78858 0.1852 0.09621 0.0
C2489 C 0.76492 0.18908 0.13901 0.0
H2490 H 0.80595 0.2267 0.16227 0.0
C2491 C 0.76592 0.21799 0.21611 0.0
C2492 C 0.77003 0.23727 0.22101 0.0
C2493 C 0.76889 0.21026 0.19807 0.0
C2494 C 0.79429 0.21647 0.1557 0.0
H2495 H 0.77636 0.13246 0.10082 0.0
H2496 H 0.77783 0.15455 0.12894 0.0
H2497 H 0.80959 0.20838 0.13207 0.0
H2498 H 0.78124 0.26351 0.21099 0.0
H2499 H 0.78648 0.24976 0.17904 0.0
H2500 H 0.74964 0.19674 0.16243 0.0
C2501 C 0.7808 0.15973 0.11537 0.0
C2502 C 0.7964 0.20601 0.13852 0.0
C2503 C 0.77998 0.1471 0.09923 0.0
C2504 C 0.77787 0.24861 0.20759 0.0
C2505 C 0.7809 0.24077 0.18936 0.0
C2506 C 0.76279 0.19952 0.15594 0.0
C2507 C 0.78445 0.17888 0.11389 0.0
C2508 C 0.78191 0.19182 0.13045 0.0
C2509 C 0.77602 0.22154 0.18435 0.0
C2510 C 0.77765 0.21286 0.16485 0.0
H2511 H 0.78986 0.17773 0.06623 0.0
H2512 H 0.79146 0.19993 0.0948 0.0
H2513 H 0.75342 0.17847 0.13281 0.0
H2514 H 0.76014 0.20877 0.22614 0.0
H2515 H 0.76543 0.19534 0.19478 0.0
C2516 C 0.06321 0.50567 0.29426 0.0
C2517 C 0.08033 0.49909 0.29224 0.0
C2518 C 0.05707 0.50919 0.31235 0.0
C2519 C 0.07378 0.51776 0.36367 0.0
H2520 H 0.02177 0.50003 0.37143 0.0
C2521 C 0.04926 0.50541 0.43744 0.0
C2522 C 0.03195 0.51022 0.4421 0.0
C2523 C 0.05487 0.50671 0.41907 0.0
C2524 C 0.03625 0.50536 0.36941 0.0
H2525 H 0.10445 0.49113 0.30772 0.0
H2526 H 0.09361 0.49706 0.33928 0.0
H2527 H 0.03226 0.49696 0.33931 0.0
H2528 H 0.00703 0.52045 0.43123 0.0
H2529 H 0.01688 0.52262 0.39882 0.0
H2530 H 0.07787 0.52573 0.39384 0.0
C2531 C 0.08507 0.49974 0.32685 0.0
C2532 C 0.04226 0.50358 0.35104 0.0
C2533 C 0.09122 0.49621 0.30875 0.0
C2534 C 0.02044 0.51663 0.42803 0.0
C2535 C 0.02603 0.51781 0.40951 0.0
C2536 C 0.06778 0.51952 0.38201 0.0
C2537 C 0.06791 0.50622 0.32884 0.0
C2538 C 0.06118 0.50944 0.34804 0.0
C2539 C 0.04329 0.51279 0.40486 0.0
C2540 C 0.04904 0.51299 0.38513 0.0
H2541 H 0.0545 0.50811 0.28185 0.0
H2542 H 0.04389 0.51436 0.31344 0.0
H2543 H 0.08835 0.52276 0.36174 0.0
H2544 H 0.05848 0.50046 0.44796 0.0
H2545 H 0.06811 0.50247 0.41585 0.0
C2546 C 0.73368 0.83324 0.58081 0.0
C2547 C 0.74011 0.85248 0.58334 0.0
C2548 C 0.73234 0.82297 0.59665 0.0
C2549 C 0.72811 0.82894 0.64864 0.0
H2550 H 0.74658 0.78207 0.64972 0.0
C2551 C 0.74518 0.7988 0.71882 0.0
C2552 C 0.74079 0.77958 0.71975 0.0
C2553 C 0.7429 0.80633 0.70148 0.0
C2554 C 0.74107 0.79498 0.64952 0.0
H2555 H 0.75053 0.87592 0.60443 0.0
H2556 H 0.7483 0.85808 0.63188 0.0
H2557 H 0.74715 0.79774 0.62045 0.0
H2558 H 0.73034 0.75316 0.70314 0.0
H2559 H 0.72632 0.76642 0.67264 0.0
H2560 H 0.72229 0.82642 0.6777 0.0
C2561 C 0.74403 0.85094 0.61773 0.0
C2562 C 0.74143 0.80397 0.63278 0.0
C2563 C 0.74545 0.86115 0.60196 0.0
C2564 C 0.7338 0.76804 0.70291 0.0
C2565 C 0.73162 0.77561 0.68544 0.0
C2566 C 0.72773 0.81999 0.6653 0.0
C2567 C 0.73728 0.83178 0.6153 0.0
C2568 C 0.73535 0.82126 0.63232 0.0
C2569 C 0.7362 0.79485 0.68455 0.0
C2570 C 0.73461 0.80312 0.6661 0.0
H2571 H 0.72946 0.82616 0.56663 0.0
H2572 H 0.72704 0.80824 0.59434 0.0
H2573 H 0.72292 0.84204 0.6486 0.0
H2574 H 0.75059 0.80811 0.7315 0.0
H2575 H 0.74684 0.82117 0.70127 0.0
C2576 C 0.69977 0.42982 0.54439 0.0
C2577 C 0.69335 0.41142 0.53666 0.0
C2578 C 0.68704 0.44183 0.54855 0.0
C2579 C 0.63603 0.44325 0.553 0.0
H2580 H 0.64948 0.49352 0.53988 0.0
C2581 C 0.59626 0.50538 0.5273 0.0
C2582 C 0.58101 0.50328 0.53861 0.0
C2583 C 0.61161 0.49635 0.53099 0.0
C2584 C 0.64545 0.47952 0.54356 0.0
H2585 H 0.66859 0.39097 0.52765 0.0
H2586 H 0.64633 0.41205 0.53415 0.0
H2587 H 0.67233 0.47253 0.53832 0.0
H2588 H 0.57061 0.49139 0.56363 0.0
H2589 H 0.59773 0.4762 0.57052 0.0
H2590 H 0.60871 0.44983 0.55687 0.0
C2591 C 0.66118 0.41717 0.53753 0.0
C2592 C 0.65869 0.46751 0.54294 0.0
C2593 C 0.67393 0.40508 0.53366 0.0
C2594 C 0.58207 0.49311 0.55454 0.0
C2595 C 0.59755 0.48426 0.55838 0.0
C2596 C 0.62271 0.45519 0.55335 0.0
C2597 C 0.66757 0.4358 0.54478 0.0
C2598 C 0.65405 0.44909 0.5473 0.0
C2599 C 0.6122 0.48521 0.54623 0.0
C2600 C 0.62712 0.47338 0.54826 0.0
H2601 H 0.71469 0.43503 0.54706 0.0
H2602 H 0.6925 0.45591 0.55453 0.0
H2603 H 0.63205 0.4293 0.55682 0.0
H2604 H 0.59588 0.51307 0.51488 0.0
H2605 H 0.62247 0.49729 0.52116 0.0
C2606 C 0.18491 0.08353 0.46354 0.0
C2607 C 0.18796 0.10218 0.4713 0.0
C2608 C 0.16688 0.07313 0.46165 0.0
C2609 C 0.11617 0.07644 0.4646 0.0
H2610 H 0.11437 0.02798 0.48311 0.0
C2611 C 0.05302 0.04017 0.49886 0.0
C2612 C 0.04731 0.02096 0.49441 0.0
C2613 C 0.06917 0.04919 0.49197 0.0
C2614 C 0.11462 0.04132 0.47756 0.0
H2615 H 0.17442 0.12488 0.4822 0.0
H2616 H 0.14302 0.10665 0.47939 0.0
H2617 H 0.14454 0.04576 0.47794 0.0
H2618 H 0.05399 -0.00385 0.47911 0.0
H2619 H 0.08264 0.01197 0.46731 0.0
H2620 H 0.08623 0.07224 0.46518 0.0
C2621 C 0.15446 0.10007 0.47445 0.0
C2622 C 0.13191 0.05153 0.47455 0.0
C2623 C 0.17249 0.11053 0.47617 0.0
C2624 C 0.05806 0.01096 0.48278 0.0
C2625 C 0.07443 0.01999 0.47606 0.0
C2626 C 0.09889 0.06627 0.46775 0.0
C2627 C 0.15153 0.08111 0.46765 0.0
C2628 C 0.13295 0.0694 0.46844 0.0
C2629 C 0.08013 0.03919 0.48063 0.0
C2630 C 0.098 0.04879 0.47469 0.0
H2631 H 0.19655 0.07679 0.45944 0.0
H2632 H 0.16507 0.05869 0.45596 0.0
H2633 H 0.11642 0.08999 0.45954 0.0
H2634 H 0.04503 0.04833 0.50773 0.0
H2635 H 0.07337 0.06394 0.49597 0.0
C2636 C 0.18715 0.95873 0.7769 0.0
C2637 C 0.16943 0.95784 0.78406 0.0
C2638 C 0.1968 0.94358 0.77714 0.0
C2639 C 0.18756 0.89281 0.77997 0.0
H2640 H 0.24183 0.89766 0.78851 0.0
C2641 C 0.2232 0.83066 0.79383 0.0
C2642 C 0.23726 0.82702 0.78191 0.0
C2643 C 0.21673 0.84761 0.79451 0.0
C2644 C 0.22668 0.89618 0.78596 0.0
H2645 H 0.14836 0.94082 0.798 0.0
H2646 H 0.16539 0.91474 0.79906 0.0
H2647 H 0.22691 0.92556 0.78956 0.0
H2648 H 0.25628 0.83875 0.76215 0.0
H2649 H 0.24497 0.86876 0.76356 0.0
H2650 H 0.18728 0.86351 0.77683 0.0
C2651 C 0.17162 0.92682 0.79263 0.0
C2652 C 0.21812 0.9121 0.78652 0.0
C2653 C 0.1619 0.94184 0.79217 0.0
C2654 C 0.2454 0.84114 0.77142 0.0
C2655 C 0.23897 0.85828 0.77224 0.0
C2656 C 0.19607 0.87699 0.77963 0.0
C2657 C 0.18899 0.9273 0.78471 0.0
C2658 C 0.19841 0.91059 0.78374 0.0
C2659 C 0.22422 0.86143 0.78342 0.0
C2660 C 0.21567 0.87849 0.78282 0.0
H2661 H 0.19329 0.97088 0.77051 0.0
H2662 H 0.21007 0.94441 0.7708 0.0
H2663 H 0.17242 0.89107 0.77718 0.0
H2664 H 0.21673 0.8202 0.80228 0.0
H2665 H 0.20555 0.84981 0.80348 0.0
C2666 C 0.30223 0.89825 -0.00464 0.0
C2667 C 0.2891 0.90791 0.98663 0.0
C2668 C 0.32149 0.90385 -0.00553 0.0
C2669 C 0.35524 0.9453 0.98984 0.0
H2670 H 0.39024 0.91065 0.98271 0.0
C2671 C 0.43487 0.97088 -0.00578 0.0
C2672 C 0.44613 0.96079 0.00497 0.0
C2673 C 0.41602 0.96368 0.98864 0.0
C2674 C 0.38066 0.9205 0.98484 0.0
H2675 H 0.28593 0.93069 0.96959 0.0
H2676 H 0.31954 0.94047 0.96815 0.0
H2677 H 0.35647 0.89923 0.97928 0.0
H2678 H 0.44663 0.93496 0.01767 0.0
H2679 H 0.41374 0.92263 0.00836 0.0
H2680 H 0.37927 0.96648 -0.00391 0.0
C2681 C 0.3149 0.92864 0.97577 0.0
C2682 C 0.36134 0.91395 0.98283 0.0
C2683 C 0.29565 0.92298 0.97655 0.0
C2684 C 0.43834 0.94309 0.0094 0.0
C2685 C 0.41948 0.93595 0.00393 0.0
C2686 C 0.37453 0.95183 0.99197 0.0
C2687 C 0.32802 0.9193 0.98494 0.0
C2688 C 0.34845 0.92627 0.98555 0.0
C2689 C 0.40799 0.9463 0.99378 0.0
C2690 C 0.3875 0.93948 0.98975 0.0
H2691 H 0.29767 0.88656 0.00319 0.0
H2692 H 0.33128 0.89649 0.00183 0.0
H2693 H 0.34565 0.9551 0.99229 0.0
H2694 H 0.44051 0.98449 0.99043 0.0
H2695 H 0.40765 0.97186 0.98052 0.0
C2696 C 0.84266 0.58066 0.75409 0.0
C2697 C 0.8356 0.56211 0.75636 0.0
C2698 C 0.83048 0.59332 0.75107 0.0
C2699 C 0.78517 0.60446 0.76108 0.0
H2700 H 0.7949 0.63877 0.72274 0.0
C2701 C 0.76317 0.67766 0.73627 0.0
C2702 C 0.76773 0.68828 0.75407 0.0
C2703 C 0.76626 0.65919 0.73409 0.0
C2704 C 0.79168 0.62908 0.73323 0.0
H2705 H 0.81022 0.54233 0.75749 0.0
H2706 H 0.78879 0.56485 0.75276 0.0
H2707 H 0.81107 0.61187 0.72315 0.0
H2708 H 0.7778 0.68775 0.78377 0.0
H2709 H 0.78286 0.65567 0.78006 0.0
H2710 H 0.76662 0.6223 0.77187 0.0
C2711 C 0.80381 0.56937 0.75308 0.0
C2712 C 0.80106 0.6138 0.73357 0.0
C2713 C 0.81604 0.55655 0.75581 0.0
C2714 C 0.77432 0.6799 0.76984 0.0
C2715 C 0.77703 0.66146 0.76776 0.0
C2716 C 0.77594 0.61987 0.76087 0.0
C2717 C 0.81095 0.58782 0.75047 0.0
C2718 C 0.79839 0.60174 0.74791 0.0
C2719 C 0.7735 0.65105 0.74979 0.0
C2720 C 0.77962 0.63267 0.74736 0.0
H2721 H 0.85765 0.58537 0.75437 0.0
H2722 H 0.83637 0.60754 0.74944 0.0
H2723 H 0.78289 0.59538 0.77229 0.0
H2724 H 0.75807 0.68385 0.72391 0.0
H2725 H 0.76346 0.65143 0.72008 0.0
C2726 C 0.79362 0.57325 0.01785 0.0
C2727 C 0.7924 0.58996 0.0098 0.0
C2728 C 0.81088 0.56709 0.02055 0.0
C2729 C 0.86206 0.5833 0.02468 0.0
H2730 H 0.86486 0.53132 0.01161 0.0
C2731 C 0.93169 0.55698 0.01401 0.0
C2732 C 0.93445 0.54001 0.02067 0.0
C2733 C 0.91438 0.56302 0.01476 0.0
C2734 C 0.86425 0.54581 0.01563 0.0
H2735 H 0.80843 0.61327 -0.00177 0.0
H2736 H 0.83854 0.60237 0.00275 0.0
H2737 H 0.83454 0.54201 0.00835 0.0
H2738 H 0.9213 0.5162 0.0337 0.0
H2739 H 0.89083 0.52683 0.03502 0.0
H2740 H 0.89181 0.58714 0.03166 0.0
C2741 C 0.82614 0.59418 0.00721 0.0
C2742 C 0.8469 0.55195 0.01372 0.0
C2743 C 0.80886 0.60036 0.0045 0.0
C2744 C 0.91958 0.52933 0.02844 0.0
C2745 C 0.90214 0.53536 0.02911 0.0
C2746 C 0.8794 0.57716 0.02657 0.0
C2747 C 0.82733 0.57747 0.01527 0.0
C2748 C 0.84565 0.57081 0.01801 0.0
C2749 C 0.89935 0.55224 0.02216 0.0
C2750 C 0.88072 0.5584 0.02182 0.0
H2751 H 0.78125 0.56491 0.02217 0.0
H2752 H 0.81135 0.55428 0.027 0.0
H2753 H 0.8615 0.59784 0.02846 0.0
H2754 H 0.94285 0.56558 0.00795 0.0
H2755 H 0.91262 0.57595 0.00905 0.0
C2756 C 0.17855 0.06743 0.7869 0.0
C2757 C 0.16002 0.0657 0.77839 0.0
C2758 C 0.19105 0.08409 0.78716 0.0
C2759 C 0.19906 0.12476 0.76051 0.0
H2760 H 0.22675 0.1511 0.80673 0.0
C2761 C 0.22341 0.20235 0.7664 0.0
C2762 C 0.24183 0.2097 0.77405 0.0
C2763 C 0.2161 0.18384 0.76751 0.0
C2764 C 0.21937 0.14372 0.79366 0.0
H2765 H 0.14004 0.08032 0.76392 0.0
H2766 H 0.16175 0.10907 0.76432 0.0
H2767 H 0.20891 0.1199 0.80773 0.0
H2768 H 0.26686 0.20341 0.78941 0.0
H2769 H 0.25382 0.17073 0.7915 0.0
H2770 H 0.20897 0.14855 0.7465 0.0
C2771 C 0.16668 0.09754 0.77063 0.0
C2772 C 0.20918 0.12593 0.79424 0.0
C2773 C 0.1542 0.08107 0.77052 0.0
C2774 C 0.25263 0.19814 0.78334 0.0
C2775 C 0.24519 0.17949 0.78456 0.0
C2776 C 0.20921 0.1424 0.75993 0.0
C2777 C 0.18528 0.09917 0.77869 0.0
C2778 C 0.19842 0.1166 0.77779 0.0
C2779 C 0.22696 0.17214 0.77634 0.0
C2780 C 0.21892 0.15233 0.77662 0.0
H2781 H 0.18345 0.05586 0.79315 0.0
H2782 H 0.20533 0.08504 0.7935 0.0
H2783 H 0.19121 0.11769 0.74753 0.0
H2784 H 0.2146 0.21084 0.75927 0.0
H2785 H 0.20185 0.17867 0.76141 0.0
C2786 C 0.37145 0.93925 0.27186 0.0
C2787 C 0.36199 0.95461 0.27125 0.0
C2788 C 0.36206 0.92206 0.27562 0.0
C2789 C 0.31545 0.8939 0.27189 0.0
H2790 H 0.3408 0.86292 0.30353 0.0
C2791 C 0.28338 0.81777 0.27768 0.0
C2792 C 0.29596 0.80517 0.27458 0.0
C2793 C 0.29005 0.83681 0.28148 0.0
C2794 C 0.33353 0.87139 0.29465 0.0
H2795 H 0.33516 0.9639 0.27422 0.0
H2796 H 0.31863 0.93364 0.28064 0.0
H2797 H 0.35502 0.89506 0.30183 0.0
H2798 H 0.32542 0.80253 0.27425 0.0
H2799 H 0.33699 0.83556 0.28078 0.0
H2800 H 0.29432 0.87003 0.26411 0.0
C2801 C 0.33338 0.93503 0.2782 0.0
C2802 C 0.34167 0.88979 0.29368 0.0
C2803 C 0.34286 0.95235 0.27457 0.0
C2804 C 0.31535 0.81187 0.2765 0.0
C2805 C 0.322 0.83083 0.28037 0.0
C2806 C 0.30732 0.87545 0.27281 0.0
C2807 C 0.34292 0.91972 0.27878 0.0
C2808 C 0.33298 0.90109 0.28188 0.0
C2809 C 0.30942 0.84359 0.2824 0.0
C2810 C 0.31653 0.86384 0.28379 0.0
H2811 H 0.38619 0.94045 0.2694 0.0
H2812 H 0.36973 0.91048 0.27565 0.0
H2813 H 0.30848 0.90222 0.26256 0.0
H2814 H 0.26835 0.81305 0.27631 0.0
H2815 H 0.28002 0.84626 0.28323 0.0
C2816 C 0.49281 0.32788 0.6089 0.0
C2817 C 0.4999 0.3128 0.60003 0.0
C2818 C 0.48904 0.34249 0.59859 0.0
C2819 C 0.50411 0.36574 0.55703 0.0
H2820 H 0.46498 0.39457 0.56898 0.0
C2821 C 0.50154 0.43682 0.52845 0.0
C2822 C 0.50065 0.45095 0.54307 0.0
C2823 C 0.49749 0.41814 0.53183 0.0
C2824 C 0.47593 0.38661 0.56543 0.0
H2825 H 0.50776 0.3008 0.57312 0.0
H2826 H 0.50101 0.32631 0.55502 0.0
H2827 H 0.46492 0.3645 0.58135 0.0
H2828 H 0.49374 0.45663 0.57223 0.0
H2829 H 0.48662 0.42422 0.57806 0.0
H2830 H 0.51543 0.38812 0.5416 0.0
C2831 C 0.49861 0.32693 0.57005 0.0
C2832 C 0.47593 0.36942 0.57255 0.0
C2833 C 0.50239 0.31227 0.58039 0.0
C2834 C 0.49466 0.44606 0.56071 0.0
C2835 C 0.49043 0.42746 0.56401 0.0
C2836 C 0.50405 0.3829 0.54984 0.0
C2837 C 0.49224 0.34239 0.57913 0.0
C2838 C 0.49038 0.35906 0.56897 0.0
C2839 C 0.49224 0.4133 0.54978 0.0
C2840 C 0.4903 0.39378 0.55447 0.0
H2841 H 0.49072 0.32872 0.62401 0.0
H2842 H 0.48441 0.35427 0.60615 0.0
H2843 H 0.51556 0.35824 0.55413 0.0
H2844 H 0.50611 0.44017 0.51469 0.0
H2845 H 0.49888 0.40751 0.52056 0.0
C2846 C 0.43308 0.72633 0.35756 0.0
C2847 C 0.44669 0.73284 0.34545 0.0
C2848 C 0.41422 0.72133 0.35046 0.0
C2849 C 0.38226 0.71025 0.30593 0.0
H2850 H 0.3488 0.73648 0.3344 0.0
C2851 C 0.31403 0.72923 0.27129 0.0
C2852 C 0.29896 0.73051 0.28254 0.0
C2853 C 0.33094 0.72506 0.27936 0.0
C2854 C 0.35776 0.72867 0.32643 0.0
H2855 H 0.4514 0.73814 0.31621 0.0
H2856 H 0.41862 0.72945 0.30391 0.0
H2857 H 0.38059 0.73637 0.34817 0.0
H2858 H 0.28923 0.72719 0.31063 0.0
H2859 H 0.31849 0.71943 0.32455 0.0
H2860 H 0.35954 0.70292 0.28397 0.0
C2861 C 0.42247 0.72817 0.31884 0.0
C2862 C 0.37601 0.72862 0.33435 0.0
C2863 C 0.44123 0.73333 0.32595 0.0
C2864 C 0.30074 0.7266 0.30169 0.0
C2865 C 0.31753 0.72221 0.30969 0.0
C2866 C 0.36393 0.71017 0.29804 0.0
C2867 C 0.40871 0.72254 0.3311 0.0
C2868 C 0.38859 0.71984 0.32398 0.0
C2869 C 0.33301 0.72188 0.29878 0.0
C2870 C 0.35162 0.7198 0.30799 0.0
H2871 H 0.43688 0.72574 0.37264 0.0
H2872 H 0.40387 0.71693 0.36018 0.0
H2873 H 0.39165 0.7032 0.29772 0.0
H2874 H 0.31303 0.73221 0.25648 0.0
H2875 H 0.34264 0.72515 0.2706 0.0
C2876 C 0.02621 0.70933 0.09899 0.0
C2877 C 0.03141 0.71197 0.1188 0.0
C2878 C 0.0262 0.69209 0.08864 0.0
C2879 C 0.0433 0.6468 0.09218 0.0
H2880 H 0.00106 0.6279 0.05478 0.0
C2881 C 0.01648 0.5691 0.07042 0.0
C2882 C 0.01064 0.56329 0.05107 0.0
C2883 C 0.02218 0.5879 0.07656 0.0
C2884 C 0.01311 0.6331 0.06496 0.0
H2885 H 0.04081 0.69855 0.14321 0.0
H2886 H 0.04029 0.66864 0.12541 0.0
H2887 H 0.00479 0.6598 0.06942 0.0
H2888 H 0.00682 0.57257 0.02283 0.0
H2889 H 0.01655 0.60551 0.03367 0.0
H2890 H 0.05103 0.61972 0.08832 0.0
C2891 C 0.03666 0.6799 0.11768 0.0
C2892 C 0.01529 0.65141 0.07333 0.0
C2893 C 0.03681 0.69709 0.12795 0.0
C2894 C 0.0113 0.57661 0.03784 0.0
C2895 C 0.01674 0.59546 0.04404 0.0
C2896 C 0.04099 0.62844 0.08396 0.0
C2897 C 0.03129 0.67711 0.0979 0.0
C2898 C 0.03019 0.65838 0.08736 0.0
C2899 C 0.02193 0.60131 0.06351 0.0
C2900 C 0.02569 0.62131 0.07053 0.0
H2901 H 0.02208 0.72053 0.09148 0.0
H2902 H 0.02219 0.69052 0.07338 0.0
H2903 H 0.0552 0.65181 0.10258 0.0
H2904 H 0.01615 0.55915 0.08093 0.0
H2905 H 0.02597 0.59203 0.09168 0.0
C2906 C 0.07407 0.25937 0.86201 0.0
C2907 C 0.05763 0.24682 0.85566 0.0
C2908 C 0.08908 0.26157 0.8505 0.0
C2909 C 0.1099 0.23804 0.81126 0.0
H2910 H 0.13238 0.2876 0.802 0.0
C2911 C 0.16674 0.2484 0.75887 0.0
C2912 C 0.18256 0.26174 0.76536 0.0
C2913 C 0.15024 0.2478 0.76813 0.0
C2914 C 0.12636 0.27367 0.80455 0.0
H2915 H 0.04415 0.22636 0.83264 0.0
H2916 H 0.07039 0.23003 0.81277 0.0
H2917 H 0.10703 0.28358 0.82309 0.0
H2918 H 0.19303 0.28572 0.78583 0.0
H2919 H 0.16456 0.28441 0.80214 0.0
H2920 H 0.12944 0.22805 0.79324 0.0
C2921 C 0.07168 0.23821 0.82654 0.0
C2922 C 0.11188 0.27139 0.81665 0.0
C2923 C 0.05665 0.23617 0.83789 0.0
C2924 C 0.18112 0.27521 0.78047 0.0
C2925 C 0.16471 0.27451 0.78981 0.0
C2926 C 0.12448 0.24031 0.79932 0.0
C2927 C 0.08795 0.25106 0.83262 0.0
C2928 C 0.10355 0.25356 0.82013 0.0
C2929 C 0.14927 0.26045 0.78415 0.0
C2930 C 0.13293 0.25815 0.79584 0.0
H2931 H 0.07518 0.26778 0.87562 0.0
H2932 H 0.10157 0.27146 0.85558 0.0
H2933 H 0.10383 0.22414 0.81384 0.0
H2934 H 0.16734 0.23793 0.74716 0.0
H2935 H 0.13844 0.23706 0.7631 0.0
C2936 C 0.50337 0.71101 0.95433 0.0
C2937 C 0.49747 0.70829 0.93467 0.0
C2938 C 0.50047 0.69632 0.9657 0.0
C2939 C 0.50698 0.65998 0.98037 0.0
H2940 H 0.46359 0.62092 0.97276 0.0
C2941 C 0.51137 0.58444 0.99038 0.0
C2942 C 0.49703 0.57372 -0.00117 0.0
C2943 C 0.50997 0.60258 0.98683 0.0
C2944 C 0.47566 0.63185 0.97533 0.0
H2945 H 0.48304 0.68832 0.91171 0.0
H2946 H 0.47816 0.66267 0.93148 0.0
H2947 H 0.46244 0.64993 0.95836 0.0
H2948 H 0.47017 0.57366 0.01061 0.0
H2949 H 0.46753 0.60557 0.004 0.0
H2950 H 0.52042 0.64169 -0.00325 0.0
C2951 C 0.48487 0.67617 0.93818 0.0
C2952 C 0.47508 0.64837 0.96693 0.0
C2953 C 0.4878 0.69084 0.92681 0.0
C2954 C 0.48143 0.58167 0.00413 0.0
C2955 C 0.47989 0.59984 0.00028 0.0
C2956 C 0.50758 0.64346 0.98866 0.0
C2957 C 0.49157 0.67863 0.95766 0.0
C2958 C 0.49093 0.66239 0.96892 0.0
C2959 C 0.49411 0.6104 0.99145 0.0
C2960 C 0.49215 0.62902 0.98573 0.0
H2961 H 0.51074 0.72433 0.96085 0.0
H2962 H 0.50559 0.69871 0.98071 0.0
H2963 H 0.51948 0.67042 0.98209 0.0
H2964 H 0.52361 0.57871 0.98623 0.0
H2965 H 0.52104 0.61027 0.97979 0.0
C2966 C 0.05735 0.75362 0.67729 0.0
C2967 C 0.05465 0.7536 0.65733 0.0
C2968 C 0.07525 0.75375 0.68629 0.0
C2969 C 0.12337 0.74541 0.6766 0.0
H2970 H 0.13723 0.77454 0.72574 0.0
C2971 C 0.19984 0.7678 0.70992 0.0
C2972 C 0.20347 0.76622 0.72953 0.0
C2973 C 0.18146 0.76425 0.7013 0.0
C2974 C 0.13347 0.76616 0.71214 0.0
H2975 H 0.06857 0.75379 0.63112 0.0
H2976 H 0.09997 0.75468 0.64684 0.0
H2977 H 0.1057 0.77286 0.71015 0.0
H2978 H 0.19077 0.75932 0.75545 0.0
H2979 H 0.15847 0.75341 0.74038 0.0
H2980 H 0.15151 0.73935 0.6784 0.0
C2981 C 0.0882 0.75409 0.65555 0.0
C2982 C 0.11538 0.76515 0.70319 0.0
C2983 C 0.07022 0.75372 0.64652 0.0
C2984 C 0.18838 0.76063 0.7403 0.0
C2985 C 0.16993 0.75734 0.73172 0.0
C2986 C 0.14154 0.74662 0.68546 0.0
C2987 C 0.09095 0.75412 0.67557 0.0
C2988 C 0.11011 0.75482 0.68526 0.0
C2989 C 0.1663 0.75929 0.71217 0.0
C2990 C 0.14677 0.75707 0.70327 0.0
H2991 H 0.04558 0.75334 0.68599 0.0
H2992 H 0.07673 0.75339 0.70166 0.0
H2993 H 0.11973 0.73704 0.663 0.0
H2994 H 0.21121 0.77199 0.70124 0.0
H2995 H 0.17905 0.76598 0.68624 0.0
C2996 C 0.04547 0.33245 0.41981 0.0
C2997 C 0.03608 0.31546 0.42462 0.0
C2998 C 0.04597 0.34877 0.43184 0.0
C2999 C 0.04995 0.38085 0.46357 0.0
H3000 H 0.00042 0.38753 0.47787 0.0
C3001 C 0.03371 0.44802 0.50537 0.0
C3002 C 0.01852 0.45508 0.49669 0.0
C3003 C 0.03735 0.43039 0.49897 0.0
C3004 C 0.01435 0.38581 0.47407 0.0
H3005 H 0.02089 0.30214 0.44647 0.0
H3006 H 0.02173 0.33066 0.46738 0.0
H3007 H 0.00521 0.35754 0.4629 0.0
H3008 H -0.00486 0.44917 0.47468 0.0
H3009 H 0.00135 0.41843 0.46376 0.0
H3010 H 0.05887 0.40942 0.47429 0.0
C3011 C 0.02853 0.33134 0.4542 0.0
C3012 C 0.01715 0.36861 0.46567 0.0
C3013 C 0.02812 0.315 0.44223 0.0
C3014 C 0.00698 0.44415 0.48164 0.0
C3015 C 0.01045 0.4265 0.47546 0.0
C3016 C 0.04718 0.39805 0.47218 0.0
C3017 C 0.03702 0.34845 0.44888 0.0
C3018 C 0.03488 0.36605 0.45996 0.0
C3019 C 0.02565 0.41945 0.48404 0.0
C3020 C 0.02924 0.40078 0.47707 0.0
H3021 H 0.05184 0.33328 0.4064 0.0
H3022 H 0.0525 0.36177 0.42729 0.0
H3023 H 0.06378 0.37921 0.4594 0.0
H3024 H 0.04286 0.45617 0.51697 0.0
H3025 H 0.04914 0.42523 0.50583 0.0
C3026 C 0.44501 0.25397 0.19219 0.0
C3027 C 0.44906 0.25639 0.17327 0.0
C3028 C 0.42883 0.25925 0.19915 0.0
C3029 C 0.38122 0.26406 0.18296 0.0
H3030 H 0.38043 0.28778 0.23432 0.0
C3031 C 0.31101 0.27106 0.21313 0.0
C3032 C 0.30943 0.26629 0.23187 0.0
C3033 C 0.32862 0.2746 0.20608 0.0
C3034 C 0.38038 0.28107 0.21998 0.0
H3035 H 0.43948 0.26666 0.14693 0.0
H3036 H 0.41091 0.2756 0.15905 0.0
H3037 H 0.41049 0.28488 0.22158 0.0
H3038 H 0.32498 0.26239 0.2583 0.0
H3039 H 0.3557 0.26793 0.24589 0.0
H3040 H 0.35127 0.25928 0.18157 0.0
C3041 C 0.42038 0.26966 0.16846 0.0
C3042 C 0.3976 0.27948 0.21267 0.0
C3043 C 0.43673 0.26458 0.16156 0.0
C3044 C 0.32582 0.26613 0.24382 0.0
C3045 C 0.34345 0.26938 0.23668 0.0
C3046 C 0.36403 0.26546 0.19032 0.0
C3047 C 0.41621 0.26689 0.18728 0.0
C3048 C 0.39817 0.27066 0.19422 0.0
C3049 C 0.34502 0.27311 0.21753 0.0
C3050 C 0.36336 0.27367 0.20906 0.0
H3051 H 0.45427 0.24781 0.20164 0.0
H3052 H 0.42587 0.25674 0.21363 0.0
H3053 H 0.38122 0.25697 0.16879 0.0
H3054 H 0.29858 0.27153 0.2037 0.0
H3055 H 0.32931 0.27793 0.19145 0.0
C3056 C 0.60346 0.49501 0.33739 0.0
C3057 C 0.59726 0.50798 0.32585 0.0
C3058 C 0.59515 0.49139 0.35429 0.0
C3059 C 0.55189 0.49622 0.37825 0.0
H3060 H 0.58254 0.49176 0.42464 0.0
C3061 C 0.54656 0.50492 0.4644 0.0
C3062 C 0.52819 0.49565 0.46544 0.0
C3063 C 0.55518 0.50367 0.44735 0.0
C3064 C 0.57379 0.493 0.41181 0.0
H3065 H 0.57774 0.52759 0.3233 0.0
H3066 H 0.56361 0.52154 0.35274 0.0
H3067 H 0.59729 0.49546 0.39486 0.0
H3068 H 0.50472 0.47723 0.44951 0.0
H3069 H 0.51989 0.47485 0.41974 0.0
H3070 H 0.52854 0.49462 0.39528 0.0
C3071 C 0.57456 0.51383 0.34858 0.0
C3072 C 0.58222 0.49491 0.3947 0.0
C3073 C 0.5828 0.51741 0.33174 0.0
C3074 C 0.51883 0.48465 0.44915 0.0
C3075 C 0.52749 0.48335 0.43207 0.0
C3076 C 0.54349 0.49436 0.39534 0.0
C3077 C 0.58048 0.50067 0.35998 0.0
C3078 C 0.57141 0.49692 0.3778 0.0
C3079 C 0.54569 0.49305 0.4309 0.0
C3080 C 0.55438 0.49307 0.41241 0.0
H3081 H 0.61453 0.48747 0.33324 0.0
H3082 H 0.59997 0.4811 0.36272 0.0
H3083 H 0.54311 0.49739 0.36542 0.0
H3084 H 0.5542 0.51352 0.47665 0.0
H3085 H 0.56907 0.51155 0.44692 0.0
C3086 C 0.24129 0.83091 0.06305 0.0
C3087 C 0.25184 0.84766 0.05911 0.0
C3088 C 0.24644 0.82233 0.07913 0.0
C3089 C 0.26366 0.80279 0.11051 0.0
H3090 H 0.27884 0.83584 0.15699 0.0
C3091 C 0.27534 0.7759 0.185 0.0
C3092 C 0.26695 0.78507 0.19965 0.0
C3093 C 0.27681 0.78311 0.16729 0.0
C3094 C 0.27464 0.82641 0.14413 0.0
H3095 H 0.27659 0.8681 0.06838 0.0
H3096 H 0.28584 0.85293 0.09619 0.0
H3097 H 0.27493 0.84874 0.12666 0.0
H3098 H 0.25374 0.80907 0.20726 0.0
H3099 H 0.2561 0.82138 0.17663 0.0
H3100 H 0.26233 0.7805 0.12832 0.0
C3101 C 0.2733 0.84664 0.08715 0.0
C3102 C 0.27262 0.8338 0.12666 0.0
C3103 C 0.26805 0.85531 0.07117 0.0
C3104 C 0.26034 0.80165 0.19634 0.0
C3105 C 0.26183 0.80883 0.17877 0.0
C3106 C 0.26558 0.79539 0.12805 0.0
C3107 C 0.26236 0.83023 0.09154 0.0
C3108 C 0.26667 0.82212 0.10968 0.0
C3109 C 0.27002 0.79966 0.16401 0.0
C3110 C 0.2706 0.80716 0.14512 0.0
H3111 H 0.22872 0.82468 0.05402 0.0
H3112 H 0.23751 0.80987 0.08218 0.0
H3113 H 0.25937 0.79338 0.09765 0.0
H3114 H 0.28057 0.76309 0.18714 0.0
H3115 H 0.28327 0.77578 0.15621 0.0
C3116 C 0.94065 0.54077 0.81747 0.0
C3117 C 0.92109 0.53568 0.81386 0.0
C3118 C 0.949 0.54418 0.83617 0.0
C3119 C 0.93964 0.55007 0.88744 0.0
H3120 H 0.98278 0.52485 0.89394 0.0
C3121 C 0.96453 0.52435 0.95843 0.0
C3122 C 0.98393 0.52529 0.96309 0.0
C3123 C 0.95783 0.52968 0.94103 0.0
C3124 C 0.971 0.53229 0.89239 0.0
H3125 H 0.89476 0.53126 0.82688 0.0
H3126 H 0.9094 0.53661 0.85977 0.0
H3127 H 0.96903 0.52722 0.86199 0.0
H3128 H 0.01158 0.53333 0.95351 0.0
H3129 H -0.00016 0.54261 0.923 0.0
H3130 H 0.94129 0.5544 0.91807 0.0
C3131 C 0.91829 0.53831 0.84812 0.0
C3132 C 0.96309 0.53368 0.87403 0.0
C3133 C 0.90988 0.53517 0.82931 0.0
C3134 C -0.00346 0.53231 0.95027 0.0
C3135 C 0.98983 0.53758 0.9328 0.0
C3136 C 0.94753 0.54859 0.90587 0.0
C3137 C 0.938 0.54223 0.85172 0.0
C3138 C 0.94718 0.54238 0.87131 0.0
C3139 C 0.97039 0.53602 0.92788 0.0
C3140 C 0.96314 0.53946 0.90851 0.0
H3141 H 0.9496 0.54159 0.80578 0.0
H3142 H 0.96416 0.5477 0.83844 0.0
H3143 H 0.92752 0.55704 0.88582 0.0
H3144 H 0.95443 0.51916 0.96809 0.0
H3145 H 0.94278 0.52813 0.93757 0.0
C3146 C 0.23095 0.1372 0.57166 0.0
C3147 C 0.23696 0.14605 0.55577 0.0
C3148 C 0.23259 0.14704 0.58976 0.0
C3149 C 0.2371 0.19328 0.61568 0.0
H3150 H 0.26067 0.17049 0.65669 0.0
C3151 C 0.25929 0.23088 0.69221 0.0
C3152 C 0.25841 0.21986 0.70755 0.0
C3153 C 0.25524 0.22263 0.67333 0.0
C3154 C 0.25375 0.17695 0.64553 0.0
H3155 H 0.24884 0.17239 0.54638 0.0
H3156 H 0.25152 0.18967 0.57815 0.0
H3157 H 0.25626 0.15482 0.62443 0.0
H3158 H 0.25131 0.1919 0.71537 0.0
H3159 H 0.24351 0.17764 0.68268 0.0
H3160 H 0.23432 0.21531 0.63691 0.0
C3161 C 0.2456 0.17506 0.57647 0.0
C3162 C 0.25132 0.16798 0.627 0.0
C3163 C 0.24415 0.16515 0.55833 0.0
C3164 C 0.25238 0.20068 0.70378 0.0
C3165 C 0.24806 0.19251 0.68501 0.0
C3166 C 0.23934 0.20221 0.63434 0.0
C3167 C 0.24011 0.16601 0.5924 0.0
C3168 C 0.24289 0.17597 0.61191 0.0
C3169 C 0.25002 0.20327 0.6695 0.0
C3170 C 0.24758 0.19407 0.64953 0.0
H3171 H 0.22529 0.12254 0.57023 0.0
H3172 H 0.22805 0.13977 0.60176 0.0
H3173 H 0.23049 0.19969 0.60429 0.0
H3174 H 0.26399 0.24571 0.69475 0.0
H3175 H 0.25699 0.23135 0.66176 0.0
C3176 C 0.62209 0.50141 0.2005 0.0
C3177 C 0.61134 0.50018 0.21628 0.0
C3178 C 0.61343 0.50169 0.18214 0.0
C3179 C 0.56736 0.48978 0.15362 0.0
H3180 H 0.59165 0.5219 0.1188 0.0
C3181 C 0.53195 0.4972 0.07915 0.0
C3182 C 0.54332 0.49537 0.06397 0.0
C3183 C 0.53988 0.49951 0.09811 0.0
C3184 C 0.58474 0.51282 0.12835 0.0
H3185 H 0.58308 0.49826 0.22524 0.0
H3186 H 0.568 0.49902 0.19328 0.0
H3187 H 0.60624 0.5221 0.15121 0.0
H3188 H 0.57197 0.49532 0.0567 0.0
H3189 H 0.58575 0.49939 0.08971 0.0
H3190 H 0.5459 0.48048 0.13072 0.0
C3191 C 0.58309 0.49948 0.195 0.0
C3192 C 0.59313 0.51286 0.14688 0.0
C3193 C 0.59175 0.49912 0.21334 0.0
C3194 C 0.56282 0.49662 0.06808 0.0
C3195 C 0.57074 0.49906 0.087 0.0
C3196 C 0.55894 0.48981 0.13512 0.0
C3197 C 0.59383 0.50082 0.17919 0.0
C3198 C 0.58463 0.50121 0.15968 0.0
C3199 C 0.55932 0.50021 0.10221 0.0
C3200 C 0.56763 0.50119 0.12224 0.0
H3201 H 0.63721 0.50217 0.20231 0.0
H3202 H 0.62208 0.50241 0.17023 0.0
H3203 H 0.56057 0.48045 0.16301 0.0
H3204 H 0.51687 0.49633 0.07643 0.0
H3205 H 0.53077 0.50057 0.10957 0.0
C3206 C 0.21308 0.82534 0.95444 0.0
C3207 C 0.21091 0.84353 0.951 0.0
C3208 C 0.21181 0.81146 0.93925 0.0
C3209 C 0.22596 0.79209 0.90489 0.0
H3210 H 0.19468 0.78928 0.8572 0.0
C3211 C 0.25091 0.77259 0.83208 0.0
C3212 C 0.23842 0.76161 0.81782 0.0
C3213 C 0.24477 0.77813 0.84965 0.0
C3214 C 0.20329 0.78962 0.87053 0.0
H3215 H 0.20432 0.86104 0.929 0.0
H3216 H 0.20243 0.83693 0.90251 0.0
H3217 H 0.18708 0.8073 0.88569 0.0
H3218 H 0.20984 0.74733 0.81088 0.0
H3219 H 0.19894 0.75735 0.84175 0.0
H3220 H 0.24253 0.77497 0.88961 0.0
C3221 C 0.20494 0.83332 0.91695 0.0
C3222 C 0.19906 0.80009 0.88678 0.0
C3223 C 0.20615 0.8472 0.93215 0.0
C3224 C 0.21977 0.75573 0.82169 0.0
C3225 C 0.21352 0.76154 0.83926 0.0
C3226 C 0.23021 0.78171 0.88868 0.0
C3227 C 0.20839 0.81546 0.92027 0.0
C3228 C 0.2107 0.80189 0.90398 0.0
C3229 C 0.22594 0.77298 0.8533 0.0
C3230 C 0.21929 0.78087 0.87118 0.0
H3231 H 0.21651 0.82195 0.96881 0.0
H3232 H 0.21419 0.79774 0.94231 0.0
H3233 H 0.23534 0.79329 0.91783 0.0
H3234 H 0.26538 0.77729 0.8295 0.0
H3235 H 0.25461 0.78714 0.86008 0.0
C3236 C 0.89692 0.50813 0.69058 0.0
C3237 C 0.9017 0.52315 0.7048 0.0
C3238 C 0.90897 0.50542 0.6763 0.0
C3239 C 0.9485 0.52863 0.6526 0.0
H3240 H 0.96183 0.47941 0.64469 0.0
C3241 C 0.00702 0.51571 0.60546 0.0
C3242 C 0.0021 0.50053 0.59142 0.0
C3243 C -0.00365 0.51748 0.62106 0.0
C3244 C 0.95818 0.4932 0.64667 0.0
H3245 H 0.92205 0.54771 0.71466 0.0
H3246 H 0.94287 0.54313 0.68967 0.0
H3247 H 0.93806 0.4851 0.66644 0.0
H3248 H 0.98338 0.47436 0.58374 0.0
H3249 H 0.9647 0.47757 0.61073 0.0
H3250 H 0.96833 0.53674 0.6327 0.0
C3251 C 0.92996 0.53339 0.68954 0.0
C3252 C 0.9445 0.49642 0.65902 0.0
C3253 C 0.91807 0.53599 0.70387 0.0
C3254 C 0.98744 0.48632 0.59422 0.0
C3255 C 0.97675 0.48812 0.60977 0.0
C3256 C 0.96208 0.5254 0.64021 0.0
C3257 C 0.9258 0.51783 0.67592 0.0
C3258 C 0.93955 0.51417 0.66209 0.0
C3259 C 0.98058 0.50411 0.62288 0.0
C3260 C 0.96709 0.50766 0.63711 0.0
H3261 H 0.88441 0.498 0.69103 0.0
H3262 H 0.90534 0.49342 0.66579 0.0
H3263 H 0.94483 0.54242 0.6546 0.0
H3264 H 0.01836 0.52681 0.60382 0.0
H3265 H -7e-05 0.52973 0.63124 0.0
C3266 C 0.26785 0.18663 0.45445 0.0
C3267 C 0.26707 0.16739 0.45046 0.0
C3268 C 0.27258 0.1986 0.44053 0.0
C3269 C 0.2927 0.20083 0.39334 0.0
H3270 H 0.26086 0.23823 0.38658 0.0
C3271 C 0.2772 0.22893 0.32145 0.0
C3272 C 0.27574 0.24779 0.32107 0.0
C3273 C 0.28012 0.22156 0.33881 0.0
C3274 C 0.27013 0.22811 0.38849 0.0
H3275 H 0.2712 0.14566 0.42895 0.0
H3276 H 0.27907 0.16638 0.40463 0.0
H3277 H 0.25856 0.22065 0.41432 0.0
H3278 H 0.27681 0.27387 0.33856 0.0
H3279 H 0.28168 0.26084 0.3691 0.0
H3280 H 0.30361 0.20776 0.36698 0.0
C3281 C 0.27636 0.17236 0.41858 0.0
C3282 C 0.26883 0.21802 0.40441 0.0
C3283 C 0.2717 0.16042 0.4325 0.0
C3284 C 0.27792 0.25929 0.33842 0.0
C3285 C 0.28059 0.25183 0.35587 0.0
C3286 C 0.29391 0.21084 0.37737 0.0
C3287 C 0.27658 0.19157 0.4223 0.0
C3288 C 0.27976 0.20392 0.40678 0.0
C3289 C 0.28147 0.23282 0.35622 0.0
C3290 C 0.2823 0.22426 0.37453 0.0
H3291 H 0.26445 0.19244 0.4682 0.0
H3292 H 0.27288 0.21334 0.44399 0.0
H3293 H 0.30162 0.19037 0.39493 0.0
H3294 H 0.27567 0.21972 0.30831 0.0
H3295 H 0.28052 0.20683 0.33859 0.0
C3296 C 0.32222 0.5889 0.50741 0.0
C3297 C 0.31237 0.58303 0.52285 0.0
C3298 C 0.33504 0.57846 0.49964 0.0
C3299 C 0.34783 0.53141 0.49658 0.0
H3300 H 0.39781 0.5564 0.48981 0.0
C3301 C 0.41289 0.49527 0.49847 0.0
C3302 C 0.42807 0.50178 0.4882 0.0
C3303 C 0.39678 0.50364 0.49795 0.0
C3304 C 0.38381 0.54918 0.49116 0.0
H3305 H 0.30829 0.56154 0.54216 0.0
H3306 H 0.33058 0.54353 0.5287 0.0
H3307 H 0.37361 0.57465 0.49821 0.0
H3308 H 0.43753 0.52107 0.46794 0.0
H3309 H 0.40925 0.53543 0.46678 0.0
H3310 H 0.35813 0.50593 0.49 0.0
C3311 C 0.32827 0.55606 0.52246 0.0
C3312 C 0.36995 0.55968 0.49604 0.0
C3313 C 0.31561 0.56652 0.5303 0.0
C3314 C 0.42616 0.51583 0.47618 0.0
C3315 C 0.41001 0.52417 0.47562 0.0
C3316 C 0.36165 0.52091 0.49161 0.0
C3317 C 0.3381 0.56188 0.50703 0.0
C3318 C 0.35198 0.55088 0.49933 0.0
C3319 C 0.39545 0.51865 0.48707 0.0
C3320 C 0.37996 0.52966 0.48935 0.0
H3321 H 0.32001 0.60153 0.50131 0.0
H3322 H 0.34242 0.58326 0.48773 0.0
H3323 H 0.33398 0.52427 0.49869 0.0
H3324 H 0.41388 0.48446 0.50785 0.0
H3325 H 0.38591 0.4991 0.50707 0.0
C3326 C 0.81094 0.91913 0.54953 0.0
C3327 C 0.79938 0.92877 0.53856 0.0
C3328 C 0.83022 0.92576 0.55322 0.0
C3329 C 0.86613 0.96765 0.55075 0.0
H3330 H 0.89981 0.93186 0.54285 0.0
C3331 C 0.94294 0.96504 0.52198 0.0
C3332 C 0.95306 0.98183 0.53106 0.0
C3333 C 0.9252 0.95814 0.52725 0.0
C3334 C 0.89059 0.94205 0.54508 0.0
H3335 H 0.799 0.95313 0.52318 0.0
H3336 H 0.83234 0.96432 0.52916 0.0
H3337 H 0.8664 0.92104 0.54405 0.0
H3338 H 0.9528 0.00421 0.55332 0.0
H3339 H 0.9219 0.99195 0.56282 0.0
H3340 H 0.89003 0.98867 0.5504 0.0
C3341 C 0.8266 0.95189 0.53532 0.0
C3342 C 0.87146 0.93583 0.54605 0.0
C3343 C 0.80743 0.94533 0.53171 0.0
C3344 C 0.94526 0.99132 0.54592 0.0
C3345 C 0.92754 0.98432 0.55133 0.0
C3346 C 0.88521 0.97387 0.54958 0.0
C3347 C 0.83828 0.94214 0.54598 0.0
C3348 C 0.85891 0.94858 0.54827 0.0
C3349 C 0.91718 0.96776 0.54187 0.0
C3350 C 0.89758 0.96114 0.54612 0.0
H3351 H 0.80515 0.90637 0.55509 0.0
H3352 H 0.83882 0.91801 0.56161 0.0
H3353 H 0.85691 0.97785 0.5529 0.0
H3354 H 0.94853 0.95738 0.51045 0.0
H3355 H 0.91753 0.94556 0.51936 0.0
C3356 C 0.82001 0.05373 0.25415 0.0
C3357 C 0.83894 0.0568 0.26161 0.0
C3358 C 0.80856 0.06712 0.25782 0.0
C3359 C 0.804 0.10847 0.28995 0.0
H3360 H 0.7755 0.12184 0.2459 0.0
C3361 C 0.77539 0.1776 0.28965 0.0
C3362 C 0.75884 0.17836 0.27812 0.0
C3363 C 0.78294 0.16117 0.28964 0.0
C3364 C 0.78302 0.11806 0.25846 0.0
H3365 H 0.86056 0.07609 0.27922 0.0
H3366 H 0.84051 0.0995 0.28566 0.0
H3367 H 0.79301 0.09614 0.24213 0.0
H3368 H 0.73657 0.16212 0.25852 0.0
H3369 H 0.74949 0.1333 0.25888 0.0
H3370 H 0.79412 0.13049 0.30627 0.0
C3371 C 0.83453 0.08669 0.27703 0.0
C3372 C 0.79313 0.10335 0.25627 0.0
C3373 C 0.84604 0.07334 0.27325 0.0
C3374 C 0.74943 0.16205 0.26743 0.0
C3375 C 0.75692 0.14556 0.26753 0.0
C3376 C 0.79376 0.12312 0.29219 0.0
C3377 C 0.81574 0.08382 0.26914 0.0
C3378 C 0.80396 0.09857 0.27191 0.0
C3379 C 0.77405 0.14505 0.27823 0.0
C3380 C 0.78338 0.1283 0.2764 0.0
H3381 H 0.81409 0.0411 0.24518 0.0
H3382 H 0.79408 0.06444 0.2517 0.0
H3383 H 0.81203 0.10494 0.30231 0.0
H3384 H 0.78302 0.18991 0.29807 0.0
H3385 H 0.79624 0.16141 0.2979 0.0
C3386 C 0.69651 0.1213 0.02551 0.0
C3387 C 0.70919 0.10888 0.02219 0.0
C3388 C 0.67758 0.11465 0.0272 0.0
C3389 C 0.64498 0.07323 0.03671 0.0
H3390 H 0.60818 0.09437 0.00645 0.0
C3391 C 0.56873 0.03645 0.01608 0.0
C3392 C 0.55458 0.04741 0.01361 0.0
C3393 C 0.58744 0.04478 0.02069 0.0
C3394 C 0.6182 0.08853 0.01533 0.0
H3395 H 0.71211 0.07979 0.01839 0.0
H3396 H 0.67908 0.06822 0.02127 0.0
H3397 H 0.64126 0.10756 0.00767 0.0
H3398 H 0.54862 0.07559 0.0155 0.0
H3399 H 0.58114 0.09011 0.02406 0.0
H3400 H 0.62189 0.05403 0.04417 0.0
C3401 C 0.68378 0.08307 0.02271 0.0
C3402 C 0.63718 0.09608 0.01597 0.0
C3403 C 0.70266 0.08971 0.0209 0.0
C3404 C 0.55929 0.06679 0.01705 0.0
C3405 C 0.57793 0.07511 0.02184 0.0
C3406 C 0.62594 0.06572 0.03617 0.0
C3407 C 0.67102 0.09547 0.02573 0.0
C3408 C 0.65079 0.08835 0.02642 0.0
C3409 C 0.59231 0.06423 0.02309 0.0
C3410 C 0.61235 0.07313 0.02524 0.0
H3411 H 0.70115 0.13615 0.02663 0.0
H3412 H 0.66807 0.12452 0.02967 0.0
H3413 H 0.65518 0.06714 0.04509 0.0
H3414 H 0.56551 0.02147 0.01347 0.0
H3415 H 0.59816 0.03598 0.02139 0.0
C3416 C 0.15805 0.43537 0.2812 0.0
C3417 C 0.16364 0.45077 0.27123 0.0
C3418 C 0.17109 0.42432 0.28713 0.0
C3419 C 0.21518 0.41036 0.27368 0.0
H3420 H 0.21405 0.38709 0.32101 0.0
C3421 C 0.26155 0.35521 0.28764 0.0
C3422 C 0.25219 0.339 0.29413 0.0
C3423 C 0.2535 0.37141 0.28839 0.0
C3424 C 0.21451 0.39344 0.30771 0.0
H3425 H 0.18745 0.46712 0.2604 0.0
H3426 H 0.21019 0.44783 0.27077 0.0
H3427 H 0.19447 0.41084 0.31563 0.0
H3428 H 0.22761 0.32747 0.30763 0.0
H3429 H 0.21346 0.35548 0.3086 0.0
H3430 H 0.23457 0.39255 0.26535 0.0
C3431 C 0.19569 0.4442 0.27382 0.0
C3432 C 0.20331 0.40705 0.30464 0.0
C3433 C 0.18267 0.45529 0.26795 0.0
C3434 C 0.23519 0.33968 0.30245 0.0
C3435 C 0.22711 0.35583 0.30312 0.0
C3436 C 0.2263 0.39672 0.2767 0.0
C3437 C 0.18997 0.42839 0.28316 0.0
C3438 C 0.20327 0.41541 0.28744 0.0
C3439 C 0.23589 0.37173 0.29558 0.0
C3440 C 0.22585 0.38783 0.29359 0.0
H3441 H 0.1435 0.43154 0.28398 0.0
H3442 H 0.16619 0.41213 0.29412 0.0
H3443 H 0.21528 0.41632 0.26015 0.0
H3444 H 0.27476 0.35521 0.2813 0.0
H3445 H 0.26083 0.38352 0.28282 0.0
C3446 C 0.19347 0.42497 0.03276 0.0
C3447 C 0.1911 0.40552 0.03212 0.0
C3448 C 0.1784 0.43384 0.0275 0.0
C3449 C 0.13172 0.42507 -0.0 0.0
H3450 H 0.12461 0.47074 0.02875 0.0
C3451 C 0.06166 0.4526 -0.00149 0.0
C3452 C 0.06172 0.47179 -0.0011 0.0
C3453 C 0.07848 0.44554 -0.00033 0.0
C3454 C 0.12662 0.45819 0.02036 0.0
H3455 H 0.17096 0.38016 0.02597 0.0
H3456 H 0.14447 0.39568 0.01722 0.0
H3457 H 0.15161 0.45607 0.03772 0.0
H3458 H 0.07933 0.49865 6e-05 0.0
H3459 H 0.10903 0.48623 0.00237 0.0
H3460 H 0.10635 0.42693 0.98305 0.0
C3461 C 0.15811 0.40405 0.02136 0.0
C3462 C 0.14205 0.44974 0.02553 0.0
C3463 C 0.17323 0.39515 0.02654 0.0
C3464 C 0.07893 0.48379 -0.00034 0.0
C3465 C 0.09587 0.47671 0.00111 0.0
C3466 C 0.11625 0.43347 -0.00509 0.0
C3467 C 0.16057 0.42349 0.02158 0.0
C3468 C 0.14463 0.43293 0.01558 0.0
C3469 C 0.09576 0.45753 0.00147 0.0
C3470 C 0.11339 0.44996 0.00522 0.0
H3471 H 0.20709 0.43336 0.03692 0.0
H3472 H 0.18084 0.4488 0.02766 0.0
H3473 H 0.13352 0.41237 0.99176 0.0
H3474 H 0.04856 0.44303 -0.00217 0.0
H3475 H 0.07794 0.43074 9e-05 0.0
C3476 C 0.85326 0.93629 0.22175 0.0
C3477 C 0.84866 0.95286 0.23039 0.0
C3478 C 0.84111 0.91951 0.22173 0.0
C3479 C 0.80666 0.89758 0.25105 0.0
H3480 H 0.79782 0.8578 0.20963 0.0
C3481 C 0.76634 0.81701 0.23616 0.0
C3482 C 0.775 0.80971 0.25167 0.0
C3483 C 0.7727 0.83515 0.2321 0.0
C3484 C 0.79998 0.86888 0.22122 0.0
H3485 H 0.82718 0.96492 0.24481 0.0
H3486 H 0.8061 0.93561 0.24485 0.0
H3487 H 0.81348 0.88869 0.20392 0.0
H3488 H 0.79676 0.81575 0.27532 0.0
H3489 H 0.80757 0.84737 0.26843 0.0
H3490 H 0.79382 0.87768 0.26852 0.0
C3491 C 0.81917 0.93562 0.23824 0.0
C3492 C 0.80904 0.88646 0.218 0.0
C3493 C 0.83124 0.9524 0.23816 0.0
C3494 C 0.78985 0.82095 0.26322 0.0
C3495 C 0.79597 0.83909 0.25937 0.0
C3496 C 0.79783 0.88 0.2543 0.0
C3497 C 0.82418 0.91895 0.23043 0.0
C3498 C 0.81274 0.9009 0.23299 0.0
C3499 C 0.78754 0.84634 0.24373 0.0
C3500 C 0.79474 0.86541 0.23953 0.0
H3501 H 0.86651 0.93616 0.21555 0.0
H3502 H 0.8454 0.90686 0.21573 0.0
H3503 H 0.80948 0.90837 0.26292 0.0
H3504 H 0.75489 0.80862 0.227 0.0
H3505 H 0.76598 0.84047 0.21997 0.0
C3506 C 0.66474 0.05132 0.74057 0.0
C3507 C 0.64752 0.04694 0.72918 0.0
C3508 C 0.67478 0.06933 0.74253 0.0
C3509 C 0.6806 0.11449 0.72286 0.0
H3510 H 0.69093 0.13459 0.77613 0.0
C3511 C 0.72124 0.18854 0.75065 0.0
C3512 C 0.7119 0.19851 0.76386 0.0
C3513 C 0.71435 0.16988 0.74453 0.0
C3514 C 0.68819 0.12913 0.7612 0.0
H3515 H 0.62806 0.05774 0.70983 0.0
H3516 H 0.64577 0.08921 0.71318 0.0
H3517 H 0.6782 0.10179 0.76818 0.0
H3518 H 0.68785 0.19687 0.7807 0.0
H3519 H 0.67611 0.16429 0.77031 0.0
H3520 H 0.69053 0.14207 0.716 0.0
C3521 C 0.65138 0.07868 0.72063 0.0
C3522 C 0.68106 0.11036 0.75665 0.0
C3523 C 0.64121 0.06068 0.71881 0.0
C3524 C 0.69538 0.18959 0.77053 0.0
C3525 C 0.6887 0.17092 0.76467 0.0
C3526 C 0.68804 0.13329 0.72744 0.0
C3527 C 0.66794 0.08329 0.73299 0.0
C3528 C 0.67697 0.10289 0.73746 0.0
C3529 C 0.69821 0.16085 0.75179 0.0
C3530 C 0.69159 0.1408 0.74667 0.0
H3531 H 0.67008 0.04107 0.74868 0.0
H3532 H 0.68763 0.0725 0.75199 0.0
H3533 H 0.67758 0.10904 0.70796 0.0
H3534 H 0.73397 0.1951 0.74521 0.0
H3535 H 0.72193 0.16235 0.73461 0.0
loop_
_geom_bond_atom_site_label_1
_geom_bond_atom_site_label_2
_geom_bond_distance
_geom_bond_site_symmetry_2
_ccdc_geom_bond_type
C0 O1 1.306 . S
C0 O3 1.160 . S
O1 C0 1.306 . S
O1 Cd2 2.228 1_655 S
Cd2 O1 2.228 1_455 S
Cd2 O6 2.273 . S
Cd2 O10 2.277 . S
O3 C0 1.160 . S
O3 Cd4 2.203 1_655 S
Cd4 O3 2.203 1_455 S
Cd4 O6 2.411 . S
Cd4 O7 2.333 . S
Cd4 O8 2.352 . S
Cd4 O12 2.277 . S
Cd4 O13 2.356 . S
C5 O10 1.209 . S
C5 O12 1.226 . S
O6 Cd2 2.273 . S
O6 Cd4 2.411 . S
O6 C9 1.320 . S
O7 Cd4 2.333 . S
O7 C9 1.214 . S
O8 Cd4 2.352 . S
O8 C11 1.258 . S
C9 O6 1.320 . S
C9 O7 1.214 . S
O10 Cd2 2.277 . S
O10 C5 1.209 . S
C11 O8 1.258 . S
C11 O13 1.282 . S
O12 Cd4 2.277 . S
O12 C5 1.226 . S
O13 Cd4 2.356 . S
O13 C11 1.282 . S
C14 O15 1.306 . S
C14 O17 1.160 . S
O15 C14 1.306 . S
O15 Cd16 2.228 1_655 S
Cd16 O15 2.228 1_455 S
Cd16 O20 2.273 . S
Cd16 O24 2.277 . S
O17 C14 1.160 . S
O17 Cd18 2.203 1_655 S
Cd18 O17 2.203 1_455 S
Cd18 O20 2.411 . S
Cd18 O21 2.333 . S
Cd18 O22 2.352 . S
Cd18 O26 2.277 . S
Cd18 O27 2.356 . S
C19 O24 1.209 . S
C19 O26 1.226 . S
O20 Cd16 2.273 . S
O20 Cd18 2.411 . S
O20 C23 1.320 . S
O21 Cd18 2.333 . S
O21 C23 1.214 . S
O22 Cd18 2.352 . S
O22 C25 1.258 . S
C23 O20 1.320 . S
C23 O21 1.214 . S
O24 Cd16 2.277 . S
O24 C19 1.209 . S
C25 O22 1.258 . S
C25 O27 1.282 . S
O26 Cd18 2.277 . S
O26 C19 1.226 . S
O27 Cd18 2.356 . S
O27 C25 1.282 . S
C28 O29 1.306 . S
C28 O31 1.160 . S
O29 C28 1.306 . S
O29 Cd30 2.228 . S
Cd30 O29 2.228 . S
Cd30 O34 2.273 . S
Cd30 O38 2.277 . S
O31 C28 1.160 . S
O31 Cd32 2.203 . S
Cd32 O31 2.203 . S
Cd32 O34 2.411 . S
Cd32 O35 2.333 . S
Cd32 O36 2.352 . S
Cd32 O40 2.277 . S
Cd32 O41 2.356 . S
C33 O38 1.209 . S
C33 O40 1.226 . S
O34 Cd30 2.273 . S
O34 Cd32 2.411 . S
O34 C37 1.320 . S
O35 Cd32 2.333 . S
O35 C37 1.214 . S
O36 Cd32 2.352 . S
O36 C39 1.258 . S
C37 O34 1.320 . S
C37 O35 1.214 . S
O38 Cd30 2.277 . S
O38 C33 1.209 . S
C39 O36 1.258 . S
C39 O41 1.282 . S
O40 Cd32 2.277 . S
O40 C33 1.226 . S
O41 Cd32 2.356 . S
O41 C39 1.282 . S
C42 O43 1.306 . S
C42 O45 1.160 . S
O43 C42 1.306 . S
O43 Cd44 2.228 . S
Cd44 O43 2.228 . S
Cd44 O48 2.273 . S
Cd44 O52 2.277 . S
O45 C42 1.160 . S
O45 Cd46 2.203 . S
Cd46 O45 2.203 . S
Cd46 O48 2.411 . S
Cd46 O49 2.333 . S
Cd46 O50 2.352 . S
Cd46 O54 2.277 . S
Cd46 O55 2.356 . S
C47 O52 1.209 . S
C47 O54 1.226 . S
O48 Cd44 2.273 . S
O48 Cd46 2.411 . S
O48 C51 1.320 . S
O49 Cd46 2.333 . S
O49 C51 1.214 . S
O50 Cd46 2.352 . S
O50 C53 1.258 . S
C51 O48 1.320 . S
C51 O49 1.214 . S
O52 Cd44 2.277 . S
O52 C47 1.209 . S
C53 O50 1.258 . S
C53 O55 1.282 . S
O54 Cd46 2.277 . S
O54 C47 1.226 . S
O55 Cd46 2.356 . S
O55 C53 1.282 . S
C56 O57 1.286 1_655 S
C56 O59 1.160 . S
O57 C56 1.286 1_455 S
O57 Cd58 2.258 . S
Cd58 O57 2.258 . S
Cd58 O62 2.273 . S
Cd58 O66 2.277 . S
O59 C56 1.160 . S
O59 Cd60 2.203 1_655 S
Cd60 O59 2.203 1_455 S
Cd60 O62 2.411 . S
Cd60 O63 2.333 . S
Cd60 O64 2.352 . S
Cd60 O68 2.277 . S
Cd60 O69 2.356 . S
C61 O66 1.209 . S
C61 O68 1.226 . S
O62 Cd58 2.273 . S
O62 Cd60 2.411 . S
O62 C65 1.320 . S
O63 Cd60 2.333 . S
O63 C65 1.214 . S
O64 Cd60 2.352 . S
O64 C67 1.258 . S
C65 O62 1.320 . S
C65 O63 1.214 . S
O66 Cd58 2.277 . S
O66 C61 1.209 . S
C67 O64 1.258 . S
C67 O69 1.282 . S
O68 Cd60 2.277 . S
O68 C61 1.226 . S
O69 Cd60 2.356 . S
O69 C67 1.282 . S
C70 O71 1.306 . S
C70 O73 1.160 . S
O71 C70 1.306 . S
O71 Cd72 2.228 . S
Cd72 O71 2.228 . S
Cd72 O76 2.273 . S
Cd72 O80 2.277 . S
O73 C70 1.160 . S
O73 Cd74 2.203 . S
Cd74 O73 2.203 . S
Cd74 O76 2.411 . S
Cd74 O77 2.333 . S
Cd74 O78 2.352 . S
Cd74 O82 2.277 . S
Cd74 O83 2.356 . S
C75 O80 1.209 . S
C75 O82 1.226 . S
O76 Cd72 2.273 . S
O76 Cd74 2.411 . S
O76 C79 1.320 . S
O77 Cd74 2.333 . S
O77 C79 1.214 . S
O78 Cd74 2.352 . S
O78 C81 1.258 . S
C79 O76 1.320 . S
C79 O77 1.214 . S
O80 Cd72 2.277 . S
O80 C75 1.209 . S
C81 O78 1.258 . S
C81 O83 1.282 . S
O82 Cd74 2.277 . S
O82 C75 1.226 . S
O83 Cd74 2.356 . S
O83 C81 1.282 . S
C84 O85 1.306 . S
C84 O87 1.160 . S
O85 C84 1.306 . S
O85 Cd86 2.228 . S
Cd86 O85 2.228 . S
Cd86 O90 2.273 . S
Cd86 O94 2.277 . S
O87 C84 1.160 . S
O87 Cd88 2.203 . S
Cd88 O87 2.203 . S
Cd88 O90 2.411 . S
Cd88 O91 2.333 . S
Cd88 O92 2.352 . S
Cd88 O96 2.277 . S
Cd88 O97 2.356 . S
C89 O94 1.209 . S
C89 O96 1.226 . S
O90 Cd86 2.273 . S
O90 Cd88 2.411 . S
O90 C93 1.320 . S
O91 Cd88 2.333 . S
O91 C93 1.214 . S
O92 Cd88 2.352 . S
O92 C95 1.258 . S
C93 O90 1.320 . S
C93 O91 1.214 . S
O94 Cd86 2.277 . S
O94 C89 1.209 . S
C95 O92 1.258 . S
C95 O97 1.282 . S
O96 Cd88 2.277 . S
O96 C89 1.226 . S
O97 Cd88 2.356 . S
O97 C95 1.282 . S
C98 O99 1.306 . S
C98 O101 1.160 . S
O99 C98 1.306 . S
O99 Cd100 2.228 1_655 S
Cd100 O99 2.228 1_455 S
Cd100 O104 2.273 . S
Cd100 O108 2.277 . S
O101 C98 1.160 . S
O101 Cd102 2.203 1_655 S
Cd102 O101 2.203 1_455 S
Cd102 O104 2.411 . S
Cd102 O105 2.333 . S
Cd102 O106 2.352 1_455 S
Cd102 O110 2.277 . S
Cd102 O111 2.356 . S
C103 O108 1.209 . S
C103 O110 1.226 . S
O104 Cd100 2.273 . S
O104 Cd102 2.411 . S
O104 C107 1.320 . S
O105 Cd102 2.333 . S
O105 C107 1.214 . S
O106 Cd102 2.352 1_655 S
O106 C109 1.259 1_655 S
C107 O104 1.320 . S
C107 O105 1.214 . S
O108 Cd100 2.277 . S
O108 C103 1.209 . S
C109 O106 1.259 1_455 S
C109 O111 1.282 . S
O110 Cd102 2.277 . S
O110 C103 1.226 . S
O111 Cd102 2.356 . S
O111 C109 1.282 . S
C112 O113 1.306 . S
C112 O115 1.160 . S
O113 C112 1.306 . S
O113 Cd114 2.228 1_545 S
Cd114 O113 2.228 1_565 S
Cd114 O118 2.273 1_565 S
Cd114 O122 2.277 . S
O115 C112 1.160 . S
O115 Cd116 2.203 . S
Cd116 O115 2.203 . S
Cd116 O118 2.411 . S
Cd116 O119 2.333 . S
Cd116 O120 2.352 . S
Cd116 O124 2.277 1_545 S
Cd116 O125 2.356 . S
C117 O122 1.209 . S
C117 O124 1.226 . S
O118 Cd114 2.273 1_545 S
O118 Cd116 2.411 . S
O118 C121 1.320 . S
O119 Cd116 2.333 . S
O119 C121 1.214 . S
O120 Cd116 2.352 . S
O120 C123 1.258 . S
C121 O118 1.320 . S
C121 O119 1.214 . S
O122 Cd114 2.277 . S
O122 C117 1.209 . S
C123 O120 1.258 . S
C123 O125 1.282 . S
O124 Cd116 2.277 1_565 S
O124 C117 1.226 . S
O125 Cd116 2.356 . S
O125 C123 1.282 . S
C126 O127 1.306 . S
C126 O129 1.160 . S
O127 C126 1.306 . S
O127 Cd128 2.228 . S
Cd128 O127 2.228 . S
Cd128 O132 2.273 . S
Cd128 O136 2.277 . S
O129 C126 1.160 . S
O129 Cd130 2.203 . S
Cd130 O129 2.203 . S
Cd130 O132 2.411 . S
Cd130 O133 2.333 . S
Cd130 O134 2.352 . S
Cd130 O138 2.277 . S
Cd130 O139 2.356 . S
C131 O136 1.209 . S
C131 O138 1.226 . S
O132 Cd128 2.273 . S
O132 Cd130 2.411 . S
O132 C135 1.320 . S
O133 Cd130 2.333 . S
O133 C135 1.214 . S
O134 Cd130 2.352 . S
O134 C137 1.258 . S
C135 O132 1.320 . S
C135 O133 1.214 . S
O136 Cd128 2.277 . S
O136 C131 1.209 . S
C137 O134 1.258 . S
C137 O139 1.282 . S
O138 Cd130 2.277 . S
O138 C131 1.226 . S
O139 Cd130 2.356 . S
O139 C137 1.282 . S
C140 O141 1.306 . S
C140 O143 1.160 . S
O141 C140 1.306 . S
O141 Cd142 2.228 . S
Cd142 O141 2.228 . S
Cd142 O146 2.273 . S
Cd142 O150 2.277 . S
O143 C140 1.160 . S
O143 Cd144 2.203 . S
Cd144 O143 2.203 . S
Cd144 O146 2.411 . S
Cd144 O147 2.333 . S
Cd144 O148 2.352 1_545 S
Cd144 O152 2.277 . S
Cd144 O153 2.356 1_545 S
C145 O150 1.209 . S
C145 O152 1.226 . S
O146 Cd142 2.273 . S
O146 Cd144 2.411 . S
O146 C149 1.320 . S
O147 Cd144 2.333 . S
O147 C149 1.214 . S
O148 Cd144 2.352 1_565 S
O148 C151 1.258 . S
C149 O146 1.320 . S
C149 O147 1.214 . S
O150 Cd142 2.277 . S
O150 C145 1.209 . S
C151 O148 1.258 . S
C151 O153 1.282 . S
O152 Cd144 2.277 . S
O152 C145 1.226 . S
O153 Cd144 2.356 1_565 S
O153 C151 1.282 . S
C154 O155 1.306 . S
C154 O157 1.160 . S
O155 C154 1.306 . S
O155 Cd156 2.228 1_554 S
Cd156 O155 2.228 1_556 S
Cd156 O160 2.273 1_556 S
Cd156 O164 2.277 . S
O157 C154 1.160 . S
O157 Cd158 2.203 . S
Cd158 O157 2.203 . S
Cd158 O160 2.411 . S
Cd158 O161 2.333 . S
Cd158 O162 2.352 . S
Cd158 O166 2.277 1_554 S
Cd158 O167 2.356 . S
C159 O164 1.209 . S
C159 O166 1.226 . S
O160 Cd156 2.273 1_554 S
O160 Cd158 2.411 . S
O160 C163 1.320 . S
O161 Cd158 2.333 . S
O161 C163 1.214 . S
O162 Cd158 2.352 . S
O162 C165 1.258 . S
C163 O160 1.320 . S
C163 O161 1.214 . S
O164 Cd156 2.277 . S
O164 C159 1.209 . S
C165 O162 1.258 . S
C165 O167 1.282 . S
O166 Cd158 2.277 1_556 S
O166 C159 1.226 . S
O167 Cd158 2.356 . S
O167 C165 1.282 . S
C168 O169 1.306 . S
C168 O171 1.160 . S
O169 C168 1.306 . S
O169 Cd170 2.228 . S
Cd170 O169 2.228 . S
Cd170 O174 2.273 . S
Cd170 O178 2.277 . S
O171 C168 1.160 . S
O171 Cd172 2.203 . S
Cd172 O171 2.203 . S
Cd172 O174 2.411 . S
Cd172 O175 2.333 . S
Cd172 O176 2.352 . S
Cd172 O180 2.277 . S
Cd172 O181 2.356 . S
C173 O178 1.211 . S
C173 O180 1.253 . S
O174 Cd170 2.273 . S
O174 Cd172 2.411 . S
O174 C177 1.320 . S
O175 Cd172 2.333 . S
O175 C177 1.214 . S
O176 Cd172 2.352 . S
O176 C179 1.258 . S
C177 O174 1.320 . S
C177 O175 1.214 . S
O178 Cd170 2.277 . S
O178 C173 1.211 . S
C179 O176 1.258 . S
C179 O181 1.282 . S
O180 Cd172 2.277 . S
O180 C173 1.253 . S
O181 Cd172 2.356 . S
O181 C179 1.282 . S
C182 O183 1.306 . S
C182 O185 1.160 . S
O183 C182 1.306 . S
O183 Cd184 2.228 . S
Cd184 O183 2.228 . S
Cd184 O188 2.273 . S
Cd184 O192 2.277 . S
O185 C182 1.160 . S
O185 Cd186 2.203 . S
Cd186 O185 2.203 . S
Cd186 O188 2.411 . S
Cd186 O189 2.333 . S
Cd186 O190 2.352 1_554 S
Cd186 O194 2.277 . S
Cd186 O195 2.356 1_554 S
C187 O192 1.209 . S
C187 O194 1.226 . S
O188 Cd184 2.273 . S
O188 Cd186 2.411 . S
O188 C191 1.320 . S
O189 Cd186 2.333 . S
O189 C191 1.214 . S
O190 Cd186 2.352 1_556 S
O190 C193 1.258 . S
C191 O188 1.320 . S
C191 O189 1.214 . S
O192 Cd184 2.277 . S
O192 C187 1.209 . S
C193 O190 1.258 . S
C193 O195 1.282 . S
O194 Cd186 2.277 . S
O194 C187 1.226 . S
O195 Cd186 2.356 1_556 S
O195 C193 1.282 . S
C196 O197 1.306 . S
C196 O199 1.160 . S
O197 C196 1.306 . S
O197 Cd198 2.228 . S
Cd198 O197 2.228 . S
Cd198 O202 2.273 . S
Cd198 O206 2.277 . S
O199 C196 1.160 . S
O199 Cd200 2.203 . S
Cd200 O199 2.203 . S
Cd200 O202 2.411 . S
Cd200 O203 2.333 . S
Cd200 O204 2.352 . S
Cd200 O208 2.277 . S
Cd200 O209 2.356 . S
C201 O206 1.209 . S
C201 O208 1.226 . S
O202 Cd198 2.273 . S
O202 Cd200 2.411 . S
O202 C205 1.320 . S
O203 Cd200 2.333 . S
O203 C205 1.214 . S
O204 Cd200 2.352 . S
O204 C207 1.258 . S
C205 O202 1.320 . S
C205 O203 1.214 . S
O206 Cd198 2.277 . S
O206 C201 1.209 . S
C207 O204 1.258 . S
C207 O209 1.282 . S
O208 Cd200 2.277 . S
O208 C201 1.226 . S
O209 Cd200 2.356 . S
O209 C207 1.282 . S
C210 O211 1.306 . S
C210 O213 1.160 . S
O211 C210 1.306 . S
O211 Cd212 2.228 . S
Cd212 O211 2.228 . S
Cd212 O216 2.273 . S
Cd212 O220 2.277 . S
O213 C210 1.160 . S
O213 Cd214 2.203 . S
Cd214 O213 2.203 . S
Cd214 O216 2.411 . S
Cd214 O217 2.333 . S
Cd214 O218 2.352 . S
Cd214 O222 2.277 . S
Cd214 O223 2.356 . S
C215 O220 1.209 . S
C215 O222 1.226 . S
O216 Cd212 2.273 . S
O216 Cd214 2.411 . S
O216 C219 1.320 . S
O217 Cd214 2.333 . S
O217 C219 1.214 . S
O218 Cd214 2.352 . S
O218 C221 1.258 . S
C219 O216 1.320 . S
C219 O217 1.214 . S
O220 Cd212 2.277 . S
O220 C215 1.209 . S
C221 O218 1.258 . S
C221 O223 1.282 . S
O222 Cd214 2.277 . S
O222 C215 1.226 . S
O223 Cd214 2.356 . S
O223 C221 1.282 . S
C224 O225 1.306 . S
C224 O227 1.160 . S
O225 C224 1.306 . S
O225 Cd226 2.228 1_545 S
Cd226 O225 2.228 1_565 S
Cd226 O230 2.273 1_565 S
Cd226 O234 2.277 . S
O227 C224 1.160 . S
O227 Cd228 2.203 . S
Cd228 O227 2.203 . S
Cd228 O230 2.411 . S
Cd228 O231 2.333 . S
Cd228 O232 2.352 . S
Cd228 O236 2.277 1_545 S
Cd228 O237 2.356 . S
C229 O234 1.209 . S
C229 O236 1.226 . S
O230 Cd226 2.273 1_545 S
O230 Cd228 2.411 . S
O230 C233 1.320 . S
O231 Cd228 2.333 . S
O231 C233 1.214 . S
O232 Cd228 2.352 . S
O232 C235 1.258 . S
C233 O230 1.320 . S
C233 O231 1.214 . S
O234 Cd226 2.277 . S
O234 C229 1.209 . S
C235 O232 1.258 . S
C235 O237 1.282 . S
O236 Cd228 2.277 1_565 S
O236 C229 1.226 . S
O237 Cd228 2.356 . S
O237 C235 1.282 . S
C238 O239 1.306 . S
C238 O241 1.160 . S
O239 C238 1.306 . S
O239 Cd240 2.228 . S
Cd240 O239 2.228 . S
Cd240 O244 2.273 . S
Cd240 O248 2.277 . S
O241 C238 1.160 . S
O241 Cd242 2.203 . S
Cd242 O241 2.203 . S
Cd242 O244 2.411 . S
Cd242 O245 2.333 . S
Cd242 O246 2.352 . S
Cd242 O250 2.277 . S
Cd242 O251 2.356 . S
C243 O248 1.209 . S
C243 O250 1.226 . S
O244 Cd240 2.273 . S
O244 Cd242 2.411 . S
O244 C247 1.320 . S
O245 Cd242 2.333 . S
O245 C247 1.214 . S
O246 Cd242 2.352 . S
O246 C249 1.258 . S
C247 O244 1.320 . S
C247 O245 1.214 . S
O248 Cd240 2.277 . S
O248 C243 1.209 . S
C249 O246 1.258 . S
C249 O251 1.282 . S
O250 Cd242 2.277 . S
O250 C243 1.226 . S
O251 Cd242 2.356 . S
O251 C249 1.282 . S
C252 O253 1.306 . S
C252 O255 1.160 . S
O253 C252 1.306 . S
O253 Cd254 2.228 . S
Cd254 O253 2.228 . S
Cd254 O258 2.273 . S
Cd254 O262 2.277 . S
O255 C252 1.160 . S
O255 Cd256 2.203 . S
Cd256 O255 2.203 . S
Cd256 O258 2.411 . S
Cd256 O259 2.333 . S
Cd256 O260 2.352 . S
Cd256 O264 2.277 . S
Cd256 O265 2.356 . S
C257 O262 1.209 . S
C257 O264 1.226 . S
O258 Cd254 2.273 . S
O258 Cd256 2.411 . S
O258 C261 1.320 . S
O259 Cd256 2.333 . S
O259 C261 1.214 . S
O260 Cd256 2.352 . S
O260 C263 1.258 . S
C261 O258 1.320 . S
C261 O259 1.214 . S
O262 Cd254 2.277 . S
O262 C257 1.209 . S
C263 O260 1.258 . S
C263 O265 1.282 . S
O264 Cd256 2.277 . S
O264 C257 1.226 . S
O265 Cd256 2.356 . S
O265 C263 1.282 . S
C266 O267 1.306 . S
C266 O269 1.148 1_545 S
O267 C266 1.306 . S
O267 Cd268 2.228 . S
Cd268 O267 2.228 . S
Cd268 O272 2.273 1_545 S
Cd268 O276 2.277 . S
O269 C266 1.148 1_565 S
O269 Cd270 2.204 . S
Cd270 O269 2.204 . S
Cd270 O272 2.411 . S
Cd270 O273 2.333 . S
Cd270 O274 2.352 . S
Cd270 O278 2.277 1_565 S
Cd270 O279 2.356 . S
C271 O276 1.209 . S
C271 O278 1.226 . S
O272 Cd268 2.273 1_565 S
O272 Cd270 2.411 . S
O272 C275 1.320 . S
O273 Cd270 2.333 . S
O273 C275 1.214 . S
O274 Cd270 2.352 . S
O274 C277 1.258 . S
C275 O272 1.320 . S
C275 O273 1.214 . S
O276 Cd268 2.277 . S
O276 C271 1.209 . S
C277 O274 1.258 . S
C277 O279 1.282 . S
O278 Cd270 2.277 1_545 S
O278 C271 1.226 . S
O279 Cd270 2.356 . S
O279 C277 1.282 . S
C280 O281 1.306 . S
C280 O283 1.145 1_554 S
O281 C280 1.306 . S
O281 Cd282 2.228 . S
Cd282 O281 2.228 . S
Cd282 O286 2.238 1_554 S
Cd282 O290 2.277 . S
O283 C280 1.145 1_556 S
O283 Cd284 2.204 . S
Cd284 O283 2.204 . S
Cd284 O286 2.419 . S
Cd284 O287 2.333 . S
Cd284 O288 2.352 . S
Cd284 O292 2.277 1_556 S
Cd284 O293 2.356 . S
C285 O290 1.209 . S
C285 O292 1.226 . S
O286 Cd282 2.238 1_556 S
O286 Cd284 2.419 . S
O286 C289 1.324 . S
O287 Cd284 2.333 . S
O287 C289 1.214 . S
O288 Cd284 2.352 . S
O288 C291 1.258 . S
C289 O286 1.324 . S
C289 O287 1.214 . S
O290 Cd282 2.277 . S
O290 C285 1.209 . S
C291 O288 1.258 . S
C291 O293 1.282 . S
O292 Cd284 2.277 1_554 S
O292 C285 1.226 . S
O293 Cd284 2.356 . S
O293 C291 1.282 . S
C294 O295 1.306 . S
C294 O297 1.160 . S
O295 C294 1.306 . S
O295 Cd296 2.228 . S
Cd296 O295 2.228 . S
Cd296 O300 2.273 . S
Cd296 O304 2.277 . S
O297 C294 1.160 . S
O297 Cd298 2.203 . S
Cd298 O297 2.203 . S
Cd298 O300 2.411 . S
Cd298 O301 2.333 . S
Cd298 O302 2.352 . S
Cd298 O306 2.277 . S
Cd298 O307 2.356 . S
C299 O304 1.209 . S
C299 O306 1.226 . S
O300 Cd296 2.273 . S
O300 Cd298 2.411 . S
O300 C303 1.320 . S
O301 Cd298 2.333 . S
O301 C303 1.214 . S
O302 Cd298 2.352 . S
O302 C305 1.258 . S
C303 O300 1.320 . S
C303 O301 1.214 . S
O304 Cd296 2.277 . S
O304 C299 1.209 . S
C305 O302 1.258 . S
C305 O307 1.282 . S
O306 Cd298 2.277 . S
O306 C299 1.226 . S
O307 Cd298 2.356 . S
O307 C305 1.282 . S
C308 O309 1.306 . S
C308 O311 1.160 . S
O309 C308 1.306 . S
O309 Cd310 2.228 . S
Cd310 O309 2.228 . S
Cd310 O314 2.273 . S
Cd310 O318 2.277 . S
O311 C308 1.160 . S
O311 Cd312 2.203 . S
Cd312 O311 2.203 . S
Cd312 O314 2.411 . S
Cd312 O315 2.333 . S
Cd312 O316 2.352 . S
Cd312 O320 2.277 . S
Cd312 O321 2.356 . S
C313 O318 1.209 . S
C313 O320 1.226 . S
O314 Cd310 2.273 . S
O314 Cd312 2.411 . S
O314 C317 1.320 . S
O315 Cd312 2.333 . S
O315 C317 1.214 . S
O316 Cd312 2.352 . S
O316 C319 1.258 . S
C317 O314 1.320 . S
C317 O315 1.214 . S
O318 Cd310 2.277 . S
O318 C313 1.209 . S
C319 O316 1.258 . S
C319 O321 1.282 . S
O320 Cd312 2.277 . S
O320 C313 1.226 . S
O321 Cd312 2.356 . S
O321 C319 1.282 . S
C322 O323 1.306 . S
C322 O325 1.160 . S
O323 C322 1.306 . S
O323 Cd324 2.228 . S
Cd324 O323 2.228 . S
Cd324 O328 2.273 . S
Cd324 O332 2.277 . S
O325 C322 1.160 . S
O325 Cd326 2.203 . S
Cd326 O325 2.203 . S
Cd326 O328 2.411 . S
Cd326 O329 2.333 . S
Cd326 O330 2.352 . S
Cd326 O334 2.277 . S
Cd326 O335 2.356 . S
C327 O332 1.209 . S
C327 O334 1.226 . S
O328 Cd324 2.273 . S
O328 Cd326 2.411 . S
O328 C331 1.320 . S
O329 Cd326 2.333 . S
O329 C331 1.214 . S
O330 Cd326 2.352 . S
O330 C333 1.258 . S
C331 O328 1.320 . S
C331 O329 1.214 . S
O332 Cd324 2.277 . S
O332 C327 1.209 . S
C333 O330 1.258 . S
C333 O335 1.282 . S
O334 Cd326 2.277 . S
O334 C327 1.226 . S
O335 Cd326 2.356 . S
O335 C333 1.282 . S
Zn336 O342 1.969 . S
Zn336 O343 1.965 1_565 S
Zn336 O347 2.024 . S
Zn336 O352 1.969 1_565 S
Zn337 O344 1.969 1_654 S
Zn337 O350 1.965 1_554 S
Zn337 O351 1.965 . S
Zn337 O353 2.024 1_655 S
C338 O339 1.229 . S
C338 O347 1.058 . S
O339 C338 1.229 . S
C340 O341 1.212 1_454 S
C340 O353 1.058 . S
O341 C340 1.212 1_656 S
O342 Zn336 1.969 . S
O342 C345 1.267 . S
O343 Zn336 1.965 1_545 S
O343 C354 1.260 1_554 S
O344 Zn337 1.969 1_456 S
O344 C354 1.258 . S
C345 O342 1.267 . S
C345 O346 1.228 . S
O346 C345 1.228 . S
O347 Zn336 2.024 . S
O347 C338 1.058 . S
C348 O349 1.228 . S
C348 O350 1.261 1_554 S
O349 C348 1.228 . S
O350 Zn337 1.965 1_556 S
O350 C348 1.261 1_556 S
O351 Zn337 1.965 . S
O351 C355 1.260 1_655 S
O352 Zn336 1.969 1_545 S
O352 C355 1.258 . S
O353 Zn337 2.024 1_455 S
O353 C340 1.058 . S
C354 O343 1.260 1_556 S
C354 O344 1.258 . S
C355 O351 1.260 1_455 S
C355 O352 1.258 . S
Zn356 O362 1.969 . S
Zn356 O363 1.965 . S
Zn356 O367 2.024 . S
Zn356 O372 1.969 . S
Zn357 O364 1.969 . S
Zn357 O370 1.969 . S
Zn357 O371 1.965 . S
Zn357 O373 2.024 . S
C358 O359 1.229 . S
C358 O367 1.058 . S
O359 C358 1.229 . S
C360 O361 1.229 . S
C360 O373 1.058 . S
O361 C360 1.229 . S
O362 Zn356 1.969 . S
O362 C365 1.267 . S
O363 Zn356 1.965 . S
O363 C374 1.260 . S
O364 Zn357 1.969 . S
O364 C374 1.258 . S
C365 O362 1.267 . S
C365 O366 1.228 . S
O366 C365 1.228 . S
O367 Zn356 2.024 . S
O367 C358 1.058 . S
C368 O369 1.228 . S
C368 O370 1.267 . S
O369 C368 1.228 . S
O370 Zn357 1.969 . S
O370 C368 1.267 . S
O371 Zn357 1.965 . S
O371 C375 1.260 . S
O372 Zn356 1.969 . S
O372 C375 1.258 . S
O373 Zn357 2.024 . S
O373 C360 1.058 . S
C374 O363 1.260 . S
C374 O364 1.258 . S
C375 O371 1.260 . S
C375 O372 1.258 . S
Zn376 O382 1.969 . S
Zn376 O383 1.965 . S
Zn376 O387 2.024 . S
Zn376 O392 1.969 . S
Zn377 O384 1.969 . S
Zn377 O390 1.969 . S
Zn377 O391 1.965 1_565 S
Zn377 O393 2.024 . S
C378 O379 1.229 . S
C378 O387 1.058 . S
O379 C378 1.229 . S
C380 O381 1.229 . S
C380 O393 1.058 . S
O381 C380 1.229 . S
O382 Zn376 1.969 . S
O382 C385 1.267 . S
O383 Zn376 1.965 . S
O383 C394 1.260 . S
O384 Zn377 1.969 . S
O384 C394 1.258 1_565 S
C385 O382 1.267 . S
C385 O386 1.228 . S
O386 C385 1.228 . S
O387 Zn376 2.024 . S
O387 C378 1.058 . S
C388 O389 1.228 . S
C388 O390 1.267 . S
O389 C388 1.228 . S
O390 Zn377 1.969 . S
O390 C388 1.267 . S
O391 Zn377 1.965 1_545 S
O391 C395 1.260 . S
O392 Zn376 1.969 . S
O392 C395 1.258 . S
O393 Zn377 2.024 . S
O393 C380 1.058 . S
C394 O383 1.260 . S
C394 O384 1.258 1_545 S
C395 O391 1.260 . S
C395 O392 1.258 . S
Zn396 O402 1.969 . S
Zn396 O403 1.965 . S
Zn396 O407 2.024 . S
Zn396 O412 1.969 . S
Zn397 O404 1.969 . S
Zn397 O410 1.969 . S
Zn397 O411 1.965 . S
Zn397 O413 2.024 . S
C398 O399 1.229 . S
C398 O407 1.058 . S
O399 C398 1.229 . S
C400 O401 1.229 . S
C400 O413 1.058 . S
O401 C400 1.229 . S
O402 Zn396 1.969 . S
O402 C405 1.267 . S
O403 Zn396 1.965 . S
O403 C414 1.260 . S
O404 Zn397 1.969 . S
O404 C414 1.258 . S
C405 O402 1.267 . S
C405 O406 1.228 . S
O406 C405 1.228 . S
O407 Zn396 2.024 . S
O407 C398 1.058 . S
C408 O409 1.228 . S
C408 O410 1.267 . S
O409 C408 1.228 . S
O410 Zn397 1.969 . S
O410 C408 1.267 . S
O411 Zn397 1.965 . S
O411 C415 1.260 . S
O412 Zn396 1.969 . S
O412 C415 1.258 . S
O413 Zn397 2.024 . S
O413 C400 1.058 . S
C414 O403 1.260 . S
C414 O404 1.258 . S
C415 O411 1.260 . S
C415 O412 1.258 . S
Zn416 O422 1.969 . S
Zn416 O423 1.966 1_455 S
Zn416 O427 2.024 1_565 S
Zn416 O432 1.969 1_565 S
Zn417 O424 1.969 1_455 S
Zn417 O430 1.969 1_455 S
Zn417 O431 1.965 . S
Zn417 O433 2.024 . S
C418 O419 1.229 1_545 S
C418 O427 1.058 . S
O419 C418 1.229 1_565 S
C420 O421 1.229 . S
C420 O433 1.058 1_655 S
O421 C420 1.229 . S
O422 Zn416 1.969 . S
O422 C425 1.267 . S
O423 Zn416 1.966 1_655 S
O423 C434 1.292 . S
O424 Zn417 1.969 1_655 S
O424 C434 1.214 1_545 S
C425 O422 1.267 . S
C425 O426 1.228 . S
O426 C425 1.228 . S
O427 Zn416 2.024 1_545 S
O427 C418 1.058 . S
C428 O429 1.228 . S
C428 O430 1.267 1_455 S
O429 C428 1.228 . S
O430 Zn417 1.969 1_655 S
O430 C428 1.267 1_655 S
O431 Zn417 1.965 . S
O431 C435 1.260 . S
O432 Zn416 1.969 1_545 S
O432 C435 1.258 . S
O433 Zn417 2.024 . S
O433 C420 1.058 1_455 S
C434 O423 1.292 . S
C434 O424 1.214 1_565 S
C435 O431 1.260 . S
C435 O432 1.258 . S
Zn436 O442 1.969 . S
Zn436 O443 1.965 . S
Zn436 O447 2.024 . S
Zn436 O452 1.969 . S
Zn437 O444 1.969 . S
Zn437 O450 1.969 . S
Zn437 O451 1.965 . S
Zn437 O453 2.024 . S
C438 O439 1.229 . S
C438 O447 1.058 . S
O439 C438 1.229 . S
C440 O441 1.229 . S
C440 O453 1.058 . S
O441 C440 1.229 . S
O442 Zn436 1.969 . S
O442 C445 1.267 . S
O443 Zn436 1.965 . S
O443 C454 1.260 . S
O444 Zn437 1.969 . S
O444 C454 1.258 . S
C445 O442 1.267 . S
C445 O446 1.228 . S
O446 C445 1.228 . S
O447 Zn436 2.024 . S
O447 C438 1.058 . S
C448 O449 1.228 . S
C448 O450 1.267 . S
O449 C448 1.228 . S
O450 Zn437 1.969 . S
O450 C448 1.267 . S
O451 Zn437 1.965 . S
O451 C455 1.260 . S
O452 Zn436 1.969 . S
O452 C455 1.258 . S
O453 Zn437 2.024 . S
O453 C440 1.058 . S
C454 O443 1.260 . S
C454 O444 1.258 . S
C455 O451 1.260 . S
C455 O452 1.258 . S
Zn456 O462 1.962 1_554 S
Zn456 O463 1.963 1_545 S
Zn456 O467 2.027 . S
Zn456 O472 1.972 . S
Zn457 O464 1.969 1_545 S
Zn457 O470 1.969 1_545 S
Zn457 O471 1.965 . S
Zn457 O473 2.024 . S
C458 O459 1.229 . S
C458 O467 1.058 . S
O459 C458 1.229 . S
C460 O461 1.229 . S
C460 O473 1.058 1_565 S
O461 C460 1.229 . S
O462 Zn456 1.962 1_556 S
O462 C465 1.267 . S
O463 Zn456 1.963 1_565 S
O463 C474 1.271 . S
O464 Zn457 1.969 1_565 S
O464 C474 1.258 . S
C465 O462 1.267 . S
C465 O466 1.228 . S
O466 C465 1.228 . S
O467 Zn456 2.027 . S
O467 C458 1.058 . S
C468 O469 1.228 . S
C468 O470 1.267 1_545 S
O469 C468 1.228 . S
O470 Zn457 1.969 1_565 S
O470 C468 1.267 1_565 S
O471 Zn457 1.965 . S
O471 C475 1.260 . S
O472 Zn456 1.972 . S
O472 C475 1.258 . S
O473 Zn457 2.024 . S
O473 C460 1.058 1_545 S
C474 O463 1.271 . S
C474 O464 1.258 . S
C475 O471 1.260 . S
C475 O472 1.258 . S
Zn476 O482 1.969 . S
Zn476 O483 1.965 . S
Zn476 O487 2.024 . S
Zn476 O492 1.969 . S
Zn477 O484 1.969 . S
Zn477 O490 1.969 . S
Zn477 O491 1.965 . S
Zn477 O493 2.024 . S
C478 O479 1.229 . S
C478 O487 1.058 . S
O479 C478 1.229 . S
C480 O481 1.229 . S
C480 O493 1.058 . S
O481 C480 1.229 . S
O482 Zn476 1.969 . S
O482 C485 1.267 . S
O483 Zn476 1.965 . S
O483 C494 1.260 . S
O484 Zn477 1.969 . S
O484 C494 1.258 . S
C485 O482 1.267 . S
C485 O486 1.228 . S
O486 C485 1.228 . S
O487 Zn476 2.024 . S
O487 C478 1.058 . S
C488 O489 1.228 . S
C488 O490 1.267 . S
O489 C488 1.228 . S
O490 Zn477 1.969 . S
O490 C488 1.267 . S
O491 Zn477 1.965 . S
O491 C495 1.260 . S
O492 Zn476 1.969 . S
O492 C495 1.258 . S
O493 Zn477 2.024 . S
O493 C480 1.058 . S
C494 O483 1.260 . S
C494 O484 1.258 . S
C495 O491 1.260 . S
C495 O492 1.258 . S
Zn496 O502 1.969 . S
Zn496 O503 1.965 . S
Zn496 O507 2.024 . S
Zn496 O512 1.969 . S
Zn497 O504 1.969 1_556 S
Zn497 O510 1.969 1_556 S
Zn497 O511 1.965 1_556 S
Zn497 O513 2.024 . S
C498 O499 1.229 . S
C498 O507 1.058 . S
O499 C498 1.229 . S
C500 O501 1.229 . S
C500 O513 1.058 . S
O501 C500 1.229 . S
O502 Zn496 1.969 . S
O502 C505 1.267 . S
O503 Zn496 1.965 . S
O503 C514 1.260 . S
O504 Zn497 1.969 1_554 S
O504 C514 1.258 . S
C505 O502 1.267 . S
C505 O506 1.228 . S
O506 C505 1.228 . S
O507 Zn496 2.024 . S
O507 C498 1.058 . S
C508 O509 1.228 . S
C508 O510 1.267 1_556 S
O509 C508 1.228 . S
O510 Zn497 1.969 1_554 S
O510 C508 1.267 1_554 S
O511 Zn497 1.965 1_554 S
O511 C515 1.260 . S
O512 Zn496 1.969 . S
O512 C515 1.258 . S
O513 Zn497 2.024 . S
O513 C500 1.058 . S
C514 O503 1.260 . S
C514 O504 1.258 . S
C515 O511 1.260 . S
C515 O512 1.258 . S
Zn516 O522 1.969 . S
Zn516 O523 1.965 . S
Zn516 O527 2.024 . S
Zn516 O532 1.969 . S
Zn517 O524 1.969 . S
Zn517 O530 1.969 . S
Zn517 O531 1.965 . S
Zn517 O533 2.024 . S
C518 O519 1.229 . S
C518 O527 1.058 . S
O519 C518 1.229 . S
C520 O521 1.229 . S
C520 O533 1.058 . S
O521 C520 1.229 . S
O522 Zn516 1.969 . S
O522 C525 1.267 . S
O523 Zn516 1.965 . S
O523 C534 1.260 . S
O524 Zn517 1.969 . S
O524 C534 1.258 . S
C525 O522 1.267 . S
C525 O526 1.228 . S
O526 C525 1.228 . S
O527 Zn516 2.024 . S
O527 C518 1.058 . S
C528 O529 1.228 . S
C528 O530 1.267 . S
O529 C528 1.228 . S
O530 Zn517 1.969 . S
O530 C528 1.267 . S
O531 Zn517 1.965 . S
O531 C535 1.260 . S
O532 Zn516 1.969 . S
O532 C535 1.258 . S
O533 Zn517 2.024 . S
O533 C520 1.058 . S
C534 O523 1.260 . S
C534 O524 1.258 . S
C535 O531 1.260 . S
C535 O532 1.258 . S
Zn536 O542 1.969 . S
Zn536 O543 1.965 . S
Zn536 O547 2.024 . S
Zn536 O552 1.969 . S
Zn537 O544 1.955 1_655 S
Zn537 O550 1.969 . S
Zn537 O551 1.965 1_655 S
Zn537 O553 2.024 . S
C538 O539 1.229 . S
C538 O547 1.058 . S
O539 C538 1.229 . S
C540 O541 1.229 . S
C540 O553 1.058 . S
O541 C540 1.229 . S
O542 Zn536 1.969 . S
O542 C545 1.267 . S
O543 Zn536 1.965 . S
O543 C554 1.260 . S
O544 Zn537 1.955 1_455 S
O544 C554 1.276 . S
C545 O542 1.267 . S
C545 O546 1.228 . S
O546 C545 1.228 . S
O547 Zn536 2.024 . S
O547 C538 1.058 . S
C548 O549 1.228 . S
C548 O550 1.267 . S
O549 C548 1.228 . S
O550 Zn537 1.969 . S
O550 C548 1.267 . S
O551 Zn537 1.965 1_455 S
O551 C555 1.260 . S
O552 Zn536 1.969 . S
O552 C555 1.258 . S
O553 Zn537 2.024 . S
O553 C540 1.058 . S
C554 O543 1.260 . S
C554 O544 1.276 . S
C555 O551 1.260 . S
C555 O552 1.258 . S
Zn556 O562 1.969 . S
Zn556 O563 1.965 . S
Zn556 O567 2.024 . S
Zn556 O572 1.969 . S
Zn557 O564 1.969 . S
Zn557 O570 1.969 . S
Zn557 O571 1.965 . S
Zn557 O573 2.024 . S
C558 O559 1.229 . S
C558 O567 1.058 . S
O559 C558 1.229 . S
C560 O561 1.229 . S
C560 O573 1.058 . S
O561 C560 1.229 . S
O562 Zn556 1.969 . S
O562 C565 1.267 . S
O563 Zn556 1.965 . S
O563 C574 1.260 . S
O564 Zn557 1.969 . S
O564 C574 1.258 . S
C565 O562 1.267 . S
C565 O566 1.228 . S
O566 C565 1.228 . S
O567 Zn556 2.024 . S
O567 C558 1.058 . S
C568 O569 1.228 . S
C568 O570 1.267 . S
O569 C568 1.228 . S
O570 Zn557 1.969 . S
O570 C568 1.267 . S
O571 Zn557 1.965 . S
O571 C575 1.260 . S
O572 Zn556 1.969 . S
O572 C575 1.258 . S
O573 Zn557 2.024 . S
O573 C560 1.058 . S
C574 O563 1.260 . S
C574 O564 1.258 . S
C575 O571 1.260 . S
C575 O572 1.258 . S
Zn576 O582 1.969 . S
Zn576 O583 1.965 . S
Zn576 O587 2.024 . S
Zn576 O592 1.969 . S
Zn577 O584 1.969 . S
Zn577 O590 1.969 . S
Zn577 O591 1.965 . S
Zn577 O593 2.024 . S
C578 O579 1.229 . S
C578 O587 1.058 . S
O579 C578 1.229 . S
C580 O581 1.229 . S
C580 O593 1.058 . S
O581 C580 1.229 . S
O582 Zn576 1.969 . S
O582 C585 1.267 . S
O583 Zn576 1.965 . S
O583 C594 1.260 . S
O584 Zn577 1.969 . S
O584 C594 1.258 . S
C585 O582 1.267 . S
C585 O586 1.228 . S
O586 C585 1.228 . S
O587 Zn576 2.024 . S
O587 C578 1.058 . S
C588 O589 1.228 . S
C588 O590 1.267 . S
O589 C588 1.228 . S
O590 Zn577 1.969 . S
O590 C588 1.267 . S
O591 Zn577 1.965 . S
O591 C595 1.260 . S
O592 Zn576 1.969 . S
O592 C595 1.258 . S
O593 Zn577 2.024 . S
O593 C580 1.058 . S
C594 O583 1.260 . S
C594 O584 1.258 . S
C595 O591 1.260 . S
C595 O592 1.258 . S
Zn596 O602 1.969 . S
Zn596 O603 1.965 . S
Zn596 O607 2.024 . S
Zn596 O612 1.969 . S
Zn597 O604 1.969 . S
Zn597 O610 1.969 . S
Zn597 O611 1.965 . S
Zn597 O613 2.024 . S
C598 O599 1.229 . S
C598 O607 1.058 . S
O599 C598 1.229 . S
C600 O601 1.229 . S
C600 O613 1.058 . S
O601 C600 1.229 . S
O602 Zn596 1.969 . S
O602 C605 1.267 . S
O603 Zn596 1.965 . S
O603 C614 1.260 . S
O604 Zn597 1.969 . S
O604 C614 1.258 . S
C605 O602 1.267 . S
C605 O606 1.228 . S
O606 C605 1.228 . S
O607 Zn596 2.024 . S
O607 C598 1.058 . S
C608 O609 1.228 . S
C608 O610 1.267 . S
O609 C608 1.228 . S
O610 Zn597 1.969 . S
O610 C608 1.267 . S
O611 Zn597 1.965 . S
O611 C615 1.260 . S
O612 Zn596 1.969 . S
O612 C615 1.258 . S
O613 Zn597 2.024 . S
O613 C600 1.058 . S
C614 O603 1.260 . S
C614 O604 1.258 . S
C615 O611 1.260 . S
C615 O612 1.258 . S
Zn616 O622 1.969 . S
Zn616 O623 1.965 . S
Zn616 O627 2.024 . S
Zn616 O632 1.969 . S
Zn617 O624 1.969 . S
Zn617 O630 1.969 . S
Zn617 O631 1.965 . S
Zn617 O633 2.024 . S
C618 O619 1.229 . S
C618 O627 1.058 . S
O619 C618 1.229 . S
C620 O621 1.229 . S
C620 O633 1.058 . S
O621 C620 1.229 . S
O622 Zn616 1.969 . S
O622 C625 1.267 . S
O623 Zn616 1.965 . S
O623 C634 1.260 . S
O624 Zn617 1.969 . S
O624 C634 1.258 . S
C625 O622 1.267 . S
C625 O626 1.228 . S
O626 C625 1.228 . S
O627 Zn616 2.024 . S
O627 C618 1.058 . S
C628 O629 1.228 . S
C628 O630 1.267 . S
O629 C628 1.228 . S
O630 Zn617 1.969 . S
O630 C628 1.267 . S
O631 Zn617 1.965 . S
O631 C635 1.260 . S
O632 Zn616 1.969 . S
O632 C635 1.258 . S
O633 Zn617 2.024 . S
O633 C620 1.058 . S
C634 O623 1.260 . S
C634 O624 1.258 . S
C635 O631 1.260 . S
C635 O632 1.258 . S
Zn636 O642 1.969 . S
Zn636 O643 1.965 . S
Zn636 O647 2.024 1_655 S
Zn636 O652 1.969 1_655 S
Zn637 O644 1.969 1_554 S
Zn637 O650 1.969 . S
Zn637 O651 1.965 . S
Zn637 O653 2.024 . S
C638 O639 1.239 . S
C638 O647 1.058 . S
O639 C638 1.239 . S
C640 O641 1.229 1_554 S
C640 O653 1.058 . S
O641 C640 1.229 1_556 S
O642 Zn636 1.969 . S
O642 C645 1.267 . S
O643 Zn636 1.965 . S
O643 C654 1.260 1_654 S
O644 Zn637 1.969 1_556 S
O644 C654 1.258 . S
C645 O642 1.267 . S
C645 O646 1.228 . S
O646 C645 1.228 . S
O647 Zn636 2.024 1_455 S
O647 C638 1.058 . S
C648 O649 1.228 . S
C648 O650 1.267 . S
O649 C648 1.228 . S
O650 Zn637 1.969 . S
O650 C648 1.267 . S
O651 Zn637 1.965 . S
O651 C655 1.260 . S
O652 Zn636 1.969 1_455 S
O652 C655 1.258 . S
O653 Zn637 2.024 . S
O653 C640 1.058 . S
C654 O643 1.260 1_456 S
C654 O644 1.258 . S
C655 O651 1.260 . S
C655 O652 1.258 . S
C656 C657 1.355 . S
C656 C658 1.327 . S
C656 H681 0.950 . S
C657 C656 1.355 . S
C657 C673 1.341 1_655 S
C658 C656 1.327 . S
C658 C677 1.429 1_655 S
C658 H682 0.950 . S
C659 C676 1.574 . S
C659 C678 1.368 . S
C659 H683 0.949 . S
H660 C664 0.949 . S
C661 C662 1.349 1_556 S
C661 C663 1.327 . S
C661 H684 0.950 . S
C662 C661 1.349 1_554 S
C662 C674 1.349 . S
C663 C661 1.327 . S
C663 C679 1.429 . S
C663 H685 0.950 . S
C664 H660 0.949 . S
C664 C672 1.574 . S
C664 C680 1.368 1_655 S
H665 C673 0.950 . S
H666 C671 0.950 . S
H667 C672 0.949 . S
H668 C674 0.950 1_655 S
H669 C675 0.958 1_554 S
H670 C676 0.949 . S
C671 H666 0.950 . S
C671 C673 1.327 . S
C671 C677 1.429 . S
C672 C664 1.574 . S
C672 H667 0.949 . S
C672 C678 1.368 1_655 S
C673 C657 1.341 1_455 S
C673 H665 0.950 . S
C673 C671 1.327 . S
C674 C662 1.349 . S
C674 H668 0.950 1_455 S
C674 C675 1.320 1_454 S
C675 H669 0.958 1_556 S
C675 C674 1.320 1_656 S
C675 C679 1.428 1_655 S
C676 C659 1.574 . S
C676 H670 0.949 . S
C676 C680 1.368 . S
C677 C658 1.429 1_455 S
C677 C671 1.429 . S
C677 C678 1.523 . S
C678 C659 1.368 . S
C678 C672 1.368 1_455 S
C678 C677 1.523 . S
C679 C663 1.429 . S
C679 C675 1.428 1_455 S
C679 C680 1.523 . S
C680 C664 1.368 1_455 S
C680 C676 1.368 . S
C680 C679 1.523 . S
H681 C656 0.950 . S
H682 C658 0.950 . S
H683 C659 0.949 . S
H684 C661 0.950 . S
H685 C663 0.950 . S
C686 C687 1.349 . S
C686 C688 1.327 . S
C686 H711 0.950 . S
C687 C686 1.349 . S
C687 C703 1.349 . S
C688 C686 1.327 . S
C688 C707 1.429 . S
C688 H712 0.950 . S
C689 C706 1.574 . S
C689 C708 1.368 . S
C689 H713 0.949 . S
H690 C694 0.949 . S
C691 C692 1.349 . S
C691 C693 1.327 . S
C691 H714 0.950 . S
C692 C691 1.349 . S
C692 C704 1.349 . S
C693 C691 1.327 . S
C693 C709 1.429 . S
C693 H715 0.950 . S
C694 H690 0.949 . S
C694 C702 1.574 . S
C694 C710 1.368 . S
H695 C703 0.950 . S
H696 C701 0.950 . S
H697 C702 0.949 . S
H698 C704 0.950 . S
H699 C705 0.950 . S
H700 C706 0.949 . S
C701 H696 0.950 . S
C701 C703 1.327 . S
C701 C707 1.429 . S
C702 C694 1.574 . S
C702 H697 0.949 . S
C702 C708 1.368 . S
C703 C687 1.349 . S
C703 H695 0.950 . S
C703 C701 1.327 . S
C704 C692 1.349 . S
C704 H698 0.950 . S
C704 C705 1.327 . S
C705 H699 0.950 . S
C705 C704 1.327 . S
C705 C709 1.429 . S
C706 C689 1.574 . S
C706 H700 0.949 . S
C706 C710 1.368 . S
C707 C688 1.429 . S
C707 C701 1.429 . S
C707 C708 1.523 . S
C708 C689 1.368 . S
C708 C702 1.368 . S
C708 C707 1.523 . S
C709 C693 1.429 . S
C709 C705 1.429 . S
C709 C710 1.523 . S
C710 C694 1.368 . S
C710 C706 1.368 . S
C710 C709 1.523 . S
H711 C686 0.950 . S
H712 C688 0.950 . S
H713 C689 0.949 . S
H714 C691 0.950 . S
H715 C693 0.950 . S
C716 C717 1.349 . S
C716 C718 1.327 . S
C716 H741 0.950 . S
C717 C716 1.349 . S
C717 C733 1.349 . S
C718 C716 1.327 . S
C718 C737 1.429 . S
C718 H742 0.950 . S
C719 C736 1.574 . S
C719 C738 1.368 . S
C719 H743 0.949 . S
H720 C724 0.949 . S
C721 C722 1.349 . S
C721 C723 1.327 . S
C721 H744 0.950 . S
C722 C721 1.349 . S
C722 C734 1.349 . S
C723 C721 1.327 . S
C723 C739 1.429 . S
C723 H745 0.950 . S
C724 H720 0.949 . S
C724 C732 1.574 . S
C724 C740 1.368 . S
H725 C733 0.950 . S
H726 C731 0.950 . S
H727 C732 0.949 . S
H728 C734 0.950 . S
H729 C735 0.950 . S
H730 C736 0.949 . S
C731 H726 0.950 . S
C731 C733 1.327 . S
C731 C737 1.429 . S
C732 C724 1.574 . S
C732 H727 0.949 . S
C732 C738 1.368 . S
C733 C717 1.349 . S
C733 H725 0.950 . S
C733 C731 1.327 . S
C734 C722 1.349 . S
C734 H728 0.950 . S
C734 C735 1.327 . S
C735 H729 0.950 . S
C735 C734 1.327 . S
C735 C739 1.429 . S
C736 C719 1.574 . S
C736 H730 0.949 . S
C736 C740 1.368 . S
C737 C718 1.429 . S
C737 C731 1.429 . S
C737 C738 1.523 . S
C738 C719 1.368 . S
C738 C732 1.368 . S
C738 C737 1.523 . S
C739 C723 1.429 . S
C739 C735 1.429 . S
C739 C740 1.523 . S
C740 C724 1.368 . S
C740 C736 1.368 . S
C740 C739 1.523 . S
H741 C716 0.950 . S
H742 C718 0.950 . S
H743 C719 0.949 . S
H744 C721 0.950 . S
H745 C723 0.950 . S
C746 C747 1.349 . S
C746 C748 1.327 . S
C746 H771 0.950 . S
C747 C746 1.349 . S
C747 C763 1.349 . S
C748 C746 1.327 . S
C748 C767 1.429 . S
C748 H772 0.950 . S
C749 C766 1.574 . S
C749 C768 1.368 . S
C749 H773 0.949 . S
H750 C754 0.949 . S
C751 C752 1.349 . S
C751 C753 1.327 . S
C751 H774 0.950 . S
C752 C751 1.349 . S
C752 C764 1.349 . S
C753 C751 1.327 . S
C753 C769 1.429 . S
C753 H775 0.950 . S
C754 H750 0.949 . S
C754 C762 1.574 . S
C754 C770 1.368 . S
H755 C763 0.950 . S
H756 C761 0.950 . S
H757 C762 0.949 . S
H758 C764 0.950 . S
H759 C765 0.950 . S
H760 C766 0.949 . S
C761 H756 0.950 . S
C761 C763 1.327 . S
C761 C767 1.429 . S
C762 C754 1.574 . S
C762 H757 0.949 . S
C762 C768 1.368 . S
C763 C747 1.349 . S
C763 H755 0.950 . S
C763 C761 1.327 . S
C764 C752 1.349 . S
C764 H758 0.950 . S
C764 C765 1.327 . S
C765 H759 0.950 . S
C765 C764 1.327 . S
C765 C769 1.429 . S
C766 C749 1.574 . S
C766 H760 0.949 . S
C766 C770 1.368 . S
C767 C748 1.429 . S
C767 C761 1.429 . S
C767 C768 1.523 . S
C768 C749 1.368 . S
C768 C762 1.368 . S
C768 C767 1.523 . S
C769 C753 1.429 . S
C769 C765 1.429 . S
C769 C770 1.523 . S
C770 C754 1.368 . S
C770 C766 1.368 . S
C770 C769 1.523 . S
H771 C746 0.950 . S
H772 C748 0.950 . S
H773 C749 0.949 . S
H774 C751 0.950 . S
H775 C753 0.950 . S
C776 C777 1.349 1_655 S
C776 C778 1.327 . S
C776 H801 0.950 . S
C777 C776 1.349 1_455 S
C777 C793 1.349 . S
C778 C776 1.327 . S
C778 C797 1.429 1_655 S
C778 H802 0.950 . S
C779 C796 1.574 . S
C779 C798 1.368 . S
C779 H803 0.949 . S
H780 C784 0.965 . S
C781 C782 1.349 . S
C781 C783 1.327 . S
C781 H804 0.950 . S
C782 C781 1.349 . S
C782 C794 1.349 . S
C783 C781 1.327 . S
C783 C799 1.429 . S
C783 H805 0.950 . S
C784 H780 0.965 . S
C784 C792 1.573 . S
C784 C800 1.352 1_655 S
H785 C793 0.950 . S
H786 C791 0.950 . S
H787 C792 0.949 . S
H788 C794 0.950 1_655 S
H789 C795 0.950 1_655 S
H790 C796 0.949 . S
C791 H786 0.950 . S
C791 C793 1.327 . S
C791 C797 1.429 . S
C792 C784 1.573 . S
C792 H787 0.949 . S
C792 C798 1.368 1_655 S
C793 C777 1.349 . S
C793 H785 0.950 . S
C793 C791 1.327 . S
C794 C782 1.349 . S
C794 H788 0.950 1_455 S
C794 C795 1.327 . S
C795 H789 0.950 1_455 S
C795 C794 1.327 . S
C795 C799 1.429 . S
C796 C779 1.574 . S
C796 H790 0.949 . S
C796 C800 1.368 . S
C797 C778 1.429 1_455 S
C797 C791 1.429 . S
C797 C798 1.523 . S
C798 C779 1.368 . S
C798 C792 1.368 1_455 S
C798 C797 1.523 . S
C799 C783 1.429 . S
C799 C795 1.429 . S
C799 C800 1.523 . S
C800 C784 1.352 1_455 S
C800 C796 1.368 . S
C800 C799 1.523 . S
H801 C776 0.950 . S
H802 C778 0.950 . S
H803 C779 0.949 . S
H804 C781 0.950 . S
H805 C783 0.950 . S
C806 C807 1.349 . S
C806 C808 1.327 . S
C806 H831 0.950 . S
C807 C806 1.349 . S
C807 C823 1.349 . S
C808 C806 1.327 . S
C808 C827 1.429 . S
C808 H832 0.950 . S
C809 C826 1.574 . S
C809 C828 1.368 . S
C809 H833 0.949 . S
H810 C814 0.949 . S
C811 C812 1.349 . S
C811 C813 1.327 . S
C811 H834 0.950 . S
C812 C811 1.349 . S
C812 C824 1.349 . S
C813 C811 1.327 . S
C813 C829 1.429 . S
C813 H835 0.950 . S
C814 H810 0.949 . S
C814 C822 1.574 . S
C814 C830 1.368 . S
H815 C823 0.950 . S
H816 C821 0.950 . S
H817 C822 0.949 . S
H818 C824 0.950 . S
H819 C825 0.950 . S
H820 C826 0.949 . S
C821 H816 0.950 . S
C821 C823 1.327 . S
C821 C827 1.429 . S
C822 C814 1.574 . S
C822 H817 0.949 . S
C822 C828 1.368 . S
C823 C807 1.349 . S
C823 H815 0.950 . S
C823 C821 1.327 . S
C824 C812 1.349 . S
C824 H818 0.950 . S
C824 C825 1.327 . S
C825 H819 0.950 . S
C825 C824 1.327 . S
C825 C829 1.429 . S
C826 C809 1.574 . S
C826 H820 0.949 . S
C826 C830 1.368 . S
C827 C808 1.429 . S
C827 C821 1.429 . S
C827 C828 1.523 . S
C828 C809 1.368 . S
C828 C822 1.368 . S
C828 C827 1.523 . S
C829 C813 1.429 . S
C829 C825 1.429 . S
C829 C830 1.523 . S
C830 C814 1.368 . S
C830 C826 1.368 . S
C830 C829 1.523 . S
H831 C806 0.950 . S
H832 C808 0.950 . S
H833 C809 0.949 . S
H834 C811 0.950 . S
H835 C813 0.950 . S
C836 C837 1.349 . S
C836 C838 1.327 . S
C836 H861 0.950 . S
C837 C836 1.349 . S
C837 C853 1.349 . S
C838 C836 1.327 . S
C838 C857 1.429 . S
C838 H862 0.950 . S
C839 C856 1.574 . S
C839 C858 1.368 . S
C839 H863 0.949 . S
H840 C844 0.949 . S
C841 C842 1.349 . S
C841 C843 1.327 . S
C841 H864 0.950 . S
C842 C841 1.349 . S
C842 C854 1.349 . S
C843 C841 1.327 . S
C843 C859 1.429 . S
C843 H865 0.950 . S
C844 H840 0.949 . S
C844 C852 1.574 . S
C844 C860 1.368 . S
H845 C853 0.950 . S
H846 C851 0.950 . S
H847 C852 0.949 . S
H848 C854 0.950 . S
H849 C855 0.950 . S
H850 C856 0.949 . S
C851 H846 0.950 . S
C851 C853 1.327 . S
C851 C857 1.429 . S
C852 C844 1.574 . S
C852 H847 0.949 . S
C852 C858 1.368 . S
C853 C837 1.349 . S
C853 H845 0.950 . S
C853 C851 1.327 . S
C854 C842 1.349 . S
C854 H848 0.950 . S
C854 C855 1.327 . S
C855 H849 0.950 . S
C855 C854 1.327 . S
C855 C859 1.429 . S
C856 C839 1.574 . S
C856 H850 0.949 . S
C856 C860 1.368 . S
C857 C838 1.429 . S
C857 C851 1.429 . S
C857 C858 1.523 . S
C858 C839 1.368 . S
C858 C852 1.368 . S
C858 C857 1.523 . S
C859 C843 1.429 . S
C859 C855 1.429 . S
C859 C860 1.523 . S
C860 C844 1.368 . S
C860 C856 1.368 . S
C860 C859 1.523 . S
H861 C836 0.950 . S
H862 C838 0.950 . S
H863 C839 0.949 . S
H864 C841 0.950 . S
H865 C843 0.950 . S
C866 C867 1.349 . S
C866 C868 1.327 . S
C866 H891 0.950 . S
C867 C866 1.349 . S
C867 C883 1.349 . S
C868 C866 1.327 . S
C868 C887 1.429 . S
C868 H892 0.950 . S
C869 C886 1.574 . S
C869 C888 1.368 . S
C869 H893 0.949 . S
H870 C874 0.949 . S
C871 C872 1.349 . S
C871 C873 1.327 . S
C871 H894 0.950 . S
C872 C871 1.349 . S
C872 C884 1.349 . S
C873 C871 1.327 . S
C873 C889 1.429 . S
C873 H895 0.950 . S
C874 H870 0.949 . S
C874 C882 1.574 . S
C874 C890 1.368 . S
H875 C883 0.950 . S
H876 C881 0.950 . S
H877 C882 0.949 . S
H878 C884 0.950 . S
H879 C885 0.950 . S
H880 C886 0.949 . S
C881 H876 0.950 . S
C881 C883 1.327 . S
C881 C887 1.429 . S
C882 C874 1.574 . S
C882 H877 0.949 . S
C882 C888 1.368 . S
C883 C867 1.349 . S
C883 H875 0.950 . S
C883 C881 1.327 . S
C884 C872 1.349 . S
C884 H878 0.950 . S
C884 C885 1.327 . S
C885 H879 0.950 . S
C885 C884 1.327 . S
C885 C889 1.429 . S
C886 C869 1.574 . S
C886 H880 0.949 . S
C886 C890 1.368 . S
C887 C868 1.429 . S
C887 C881 1.429 . S
C887 C888 1.523 . S
C888 C869 1.368 . S
C888 C882 1.368 . S
C888 C887 1.523 . S
C889 C873 1.429 . S
C889 C885 1.429 . S
C889 C890 1.523 . S
C890 C874 1.368 . S
C890 C886 1.368 . S
C890 C889 1.523 . S
H891 C866 0.950 . S
H892 C868 0.950 . S
H893 C869 0.949 . S
H894 C871 0.950 . S
H895 C873 0.950 . S
C896 C897 1.349 . S
C896 C898 1.327 . S
C896 H921 0.950 . S
C897 C896 1.349 . S
C897 C913 1.317 1_545 S
C898 C896 1.327 . S
C898 C917 1.429 . S
C898 H922 0.950 . S
C899 C916 1.574 . S
C899 C918 1.379 . S
C899 H923 0.939 1_545 S
H900 C904 0.949 . S
C901 C902 1.349 . S
C901 C903 1.327 . S
C901 H924 0.950 1_545 S
C902 C901 1.349 . S
C902 C914 1.349 1_655 S
C903 C901 1.327 . S
C903 C919 1.429 . S
C903 H925 0.950 1_545 S
C904 H900 0.949 . S
C904 C912 1.574 . S
C904 C920 1.368 . S
H905 C913 0.984 . S
H906 C911 0.966 . S
H907 C912 0.949 . S
H908 C914 0.950 . S
H909 C915 0.950 . S
H910 C916 0.949 1_565 S
C911 H906 0.966 . S
C911 C913 1.327 . S
C911 C917 1.412 1_565 S
C912 C904 1.574 . S
C912 H907 0.949 . S
C912 C918 1.368 . S
C913 C897 1.317 1_565 S
C913 H905 0.984 . S
C913 C911 1.327 . S
C914 C902 1.349 1_455 S
C914 H908 0.950 . S
C914 C915 1.327 1_455 S
C915 H909 0.950 . S
C915 C914 1.327 1_655 S
C915 C919 1.429 . S
C916 C899 1.574 . S
C916 H910 0.949 1_545 S
C916 C920 1.368 . S
C917 C898 1.429 . S
C917 C911 1.412 1_545 S
C917 C918 1.523 . S
C918 C899 1.379 . S
C918 C912 1.368 . S
C918 C917 1.523 . S
C919 C903 1.429 . S
C919 C915 1.429 . S
C919 C920 1.523 . S
C920 C904 1.368 . S
C920 C916 1.368 . S
C920 C919 1.523 . S
H921 C896 0.950 . S
H922 C898 0.950 . S
H923 C899 0.939 1_565 S
H924 C901 0.950 1_565 S
H925 C903 0.950 1_565 S
C926 C927 1.349 . S
C926 C928 1.327 . S
C926 H951 0.950 . S
C927 C926 1.349 . S
C927 C943 1.349 . S
C928 C926 1.327 . S
C928 C947 1.429 . S
C928 H952 0.950 . S
C929 C946 1.574 . S
C929 C948 1.368 . S
C929 H953 0.949 . S
H930 C934 0.949 . S
C931 C932 1.349 . S
C931 C933 1.327 . S
C931 H954 0.950 . S
C932 C931 1.349 . S
C932 C944 1.349 . S
C933 C931 1.327 . S
C933 C949 1.429 . S
C933 H955 0.950 . S
C934 H930 0.949 . S
C934 C942 1.574 . S
C934 C950 1.368 . S
H935 C943 0.950 . S
H936 C941 0.950 . S
H937 C942 0.949 . S
H938 C944 0.950 . S
H939 C945 0.950 . S
H940 C946 0.949 . S
C941 H936 0.950 . S
C941 C943 1.327 . S
C941 C947 1.429 . S
C942 C934 1.574 . S
C942 H937 0.949 . S
C942 C948 1.368 . S
C943 C927 1.349 . S
C943 H935 0.950 . S
C943 C941 1.327 . S
C944 C932 1.349 . S
C944 H938 0.950 . S
C944 C945 1.327 . S
C945 H939 0.950 . S
C945 C944 1.327 . S
C945 C949 1.429 . S
C946 C929 1.574 . S
C946 H940 0.949 . S
C946 C950 1.368 . S
C947 C928 1.429 . S
C947 C941 1.429 . S
C947 C948 1.523 . S
C948 C929 1.368 . S
C948 C942 1.368 . S
C948 C947 1.523 . S
C949 C933 1.429 . S
C949 C945 1.429 . S
C949 C950 1.523 . S
C950 C934 1.368 . S
C950 C946 1.368 . S
C950 C949 1.523 . S
H951 C926 0.950 . S
H952 C928 0.950 . S
H953 C929 0.949 . S
H954 C931 0.950 . S
H955 C933 0.950 . S
C956 C957 1.349 . S
C956 C958 1.327 . S
C956 H981 0.950 . S
C957 C956 1.349 . S
C957 C973 1.349 1_565 S
C958 C956 1.327 . S
C958 C977 1.429 . S
C958 H982 0.950 . S
C959 C976 1.574 . S
C959 C978 1.331 1_545 S
C959 H983 0.949 . S
H960 C964 0.949 . S
C961 C962 1.349 . S
C961 C963 1.327 . S
C961 H984 0.950 . S
C962 C961 1.349 . S
C962 C974 1.349 1_545 S
C963 C961 1.327 . S
C963 C979 1.429 . S
C963 H985 0.950 . S
C964 H960 0.949 . S
C964 C972 1.574 . S
C964 C980 1.332 1_565 S
H965 C973 0.950 . S
H966 C971 0.950 . S
H967 C972 0.949 . S
H968 C974 0.950 . S
H969 C975 0.950 . S
H970 C976 0.949 . S
C971 H966 0.950 . S
C971 C973 1.327 . S
C971 C977 1.429 1_545 S
C972 C964 1.574 . S
C972 H967 0.949 . S
C972 C978 1.400 . S
C973 C957 1.349 1_545 S
C973 H965 0.950 . S
C973 C971 1.327 . S
C974 C962 1.349 1_565 S
C974 H968 0.950 . S
C974 C975 1.327 . S
C975 H969 0.950 . S
C975 C974 1.327 . S
C975 C979 1.429 1_565 S
C976 C959 1.574 . S
C976 H970 0.949 . S
C976 C980 1.399 . S
C977 C958 1.429 . S
C977 C971 1.429 1_565 S
C977 C978 1.532 . S
C978 C959 1.331 1_565 S
C978 C972 1.400 . S
C978 C977 1.532 . S
C979 C963 1.429 . S
C979 C975 1.429 1_545 S
C979 C980 1.531 . S
C980 C964 1.332 1_545 S
C980 C976 1.399 . S
C980 C979 1.531 . S
H981 C956 0.950 . S
H982 C958 0.950 . S
H983 C959 0.949 . S
H984 C961 0.950 . S
H985 C963 0.950 . S
C986 C987 1.349 . S
C986 C988 1.327 . S
C986 H1011 0.950 . S
C987 C986 1.349 . S
C987 C1003 1.349 . S
C988 C986 1.327 . S
C988 C1007 1.429 . S
C988 H1012 0.950 . S
C989 C1006 1.574 . S
C989 C1008 1.368 . S
C989 H1013 0.949 . S
H990 C994 0.949 . S
C991 C992 1.349 . S
C991 C993 1.327 . S
C991 H1014 0.950 . S
C992 C991 1.349 . S
C992 C1004 1.349 . S
C993 C991 1.327 . S
C993 C1009 1.429 . S
C993 H1015 0.950 . S
C994 H990 0.949 . S
C994 C1002 1.574 . S
C994 C1010 1.368 . S
H995 C1003 0.950 . S
H996 C1001 0.950 . S
H997 C1002 0.949 . S
H998 C1004 0.950 . S
H999 C1005 0.950 . S
H1000 C1006 0.949 . S
C1001 H996 0.950 . S
C1001 C1003 1.327 . S
C1001 C1007 1.429 . S
C1002 C994 1.574 . S
C1002 H997 0.949 . S
C1002 C1008 1.368 . S
C1003 C987 1.349 . S
C1003 H995 0.950 . S
C1003 C1001 1.327 . S
C1004 C992 1.349 . S
C1004 H998 0.950 . S
C1004 C1005 1.327 . S
C1005 H999 0.950 . S
C1005 C1004 1.327 . S
C1005 C1009 1.429 . S
C1006 C989 1.574 . S
C1006 H1000 0.949 . S
C1006 C1010 1.368 . S
C1007 C988 1.429 . S
C1007 C1001 1.429 . S
C1007 C1008 1.523 . S
C1008 C989 1.368 . S
C1008 C1002 1.368 . S
C1008 C1007 1.523 . S
C1009 C993 1.429 . S
C1009 C1005 1.429 . S
C1009 C1010 1.523 . S
C1010 C994 1.368 . S
C1010 C1006 1.368 . S
C1010 C1009 1.523 . S
H1011 C986 0.950 . S
H1012 C988 0.950 . S
H1013 C989 0.949 . S
H1014 C991 0.950 . S
H1015 C993 0.950 . S
C1016 C1017 1.349 . S
C1016 C1018 1.327 . S
C1016 H1041 0.950 . S
C1017 C1016 1.349 . S
C1017 C1033 1.349 . S
C1018 C1016 1.327 . S
C1018 C1037 1.429 . S
C1018 H1042 0.950 . S
C1019 C1036 1.563 1_545 S
C1019 C1038 1.394 . S
C1019 H1043 0.933 1_545 S
H1020 C1024 0.949 . S
C1021 C1022 1.349 1_565 S
C1021 C1023 1.327 . S
C1021 H1044 0.950 1_655 S
C1022 C1021 1.349 1_545 S
C1022 C1034 1.349 . S
C1023 C1021 1.327 . S
C1023 C1039 1.429 1_565 S
C1023 H1045 0.950 . S
C1024 H1020 0.949 . S
C1024 C1032 1.574 . S
C1024 C1040 1.368 . S
H1025 C1033 0.950 1_565 S
H1026 C1031 0.950 1_565 S
H1027 C1032 0.949 . S
H1028 C1034 0.950 . S
H1029 C1035 0.950 . S
H1030 C1036 0.968 . S
C1031 H1026 0.950 1_545 S
C1031 C1033 1.327 . S
C1031 C1037 1.429 . S
C1032 C1024 1.574 . S
C1032 H1027 0.949 . S
C1032 C1038 1.368 . S
C1033 C1017 1.349 . S
C1033 H1025 0.950 1_545 S
C1033 C1031 1.327 . S
C1034 C1022 1.349 . S
C1034 H1028 0.950 . S
C1034 C1035 1.327 . S
C1035 H1029 0.950 . S
C1035 C1034 1.327 . S
C1035 C1039 1.429 . S
C1036 C1019 1.563 1_565 S
C1036 H1030 0.968 . S
C1036 C1040 1.353 1_565 S
C1037 C1018 1.429 . S
C1037 C1031 1.429 . S
C1037 C1038 1.523 . S
C1038 C1019 1.394 . S
C1038 C1032 1.368 . S
C1038 C1037 1.523 . S
C1039 C1023 1.429 1_545 S
C1039 C1035 1.429 . S
C1039 C1040 1.523 . S
C1040 C1024 1.368 . S
C1040 C1036 1.353 1_545 S
C1040 C1039 1.523 . S
H1041 C1016 0.950 . S
H1042 C1018 0.950 . S
H1043 C1019 0.933 1_565 S
H1044 C1021 0.950 1_455 S
H1045 C1023 0.950 . S
C1046 C1047 1.349 . S
C1046 C1048 1.327 . S
C1046 H1071 0.950 . S
C1047 C1046 1.349 . S
C1047 C1063 1.349 . S
C1048 C1046 1.327 . S
C1048 C1067 1.429 . S
C1048 H1072 0.950 . S
C1049 C1066 1.574 . S
C1049 C1068 1.368 . S
C1049 H1073 0.949 . S
H1050 C1054 0.949 . S
C1051 C1052 1.349 . S
C1051 C1053 1.327 . S
C1051 H1074 0.950 . S
C1052 C1051 1.349 . S
C1052 C1064 1.349 . S
C1053 C1051 1.327 . S
C1053 C1069 1.429 . S
C1053 H1075 0.950 . S
C1054 H1050 0.949 . S
C1054 C1062 1.574 . S
C1054 C1070 1.368 . S
H1055 C1063 0.950 . S
H1056 C1061 0.950 . S
H1057 C1062 0.949 . S
H1058 C1064 0.950 . S
H1059 C1065 0.950 . S
H1060 C1066 0.949 . S
C1061 H1056 0.950 . S
C1061 C1063 1.327 . S
C1061 C1067 1.429 . S
C1062 C1054 1.574 . S
C1062 H1057 0.949 . S
C1062 C1068 1.368 . S
C1063 C1047 1.349 . S
C1063 H1055 0.950 . S
C1063 C1061 1.327 . S
C1064 C1052 1.349 . S
C1064 H1058 0.950 . S
C1064 C1065 1.327 . S
C1065 H1059 0.950 . S
C1065 C1064 1.327 . S
C1065 C1069 1.429 . S
C1066 C1049 1.574 . S
C1066 H1060 0.949 . S
C1066 C1070 1.368 . S
C1067 C1048 1.429 . S
C1067 C1061 1.429 . S
C1067 C1068 1.523 . S
C1068 C1049 1.368 . S
C1068 C1062 1.368 . S
C1068 C1067 1.523 . S
C1069 C1053 1.429 . S
C1069 C1065 1.429 . S
C1069 C1070 1.523 . S
C1070 C1054 1.368 . S
C1070 C1066 1.368 . S
C1070 C1069 1.523 . S
H1071 C1046 0.950 . S
H1072 C1048 0.950 . S
H1073 C1049 0.949 . S
H1074 C1051 0.950 . S
H1075 C1053 0.950 . S
C1076 C1077 1.349 1_565 S
C1076 C1078 1.327 . S
C1076 H1101 0.950 . S
C1077 C1076 1.349 1_545 S
C1077 C1093 1.349 . S
C1078 C1076 1.327 . S
C1078 C1097 1.429 1_565 S
C1078 H1102 0.950 . S
C1079 C1096 1.574 . S
C1079 C1098 1.368 . S
C1079 H1103 0.949 . S
H1080 C1084 0.981 . S
C1081 C1082 1.349 . S
C1081 C1083 1.327 . S
C1081 H1104 0.950 . S
C1082 C1081 1.349 . S
C1082 C1094 1.349 . S
C1083 C1081 1.327 . S
C1083 C1099 1.429 . S
C1083 H1105 0.950 . S
C1084 H1080 0.981 . S
C1084 C1092 1.580 . S
C1084 C1100 1.329 1_565 S
H1085 C1093 0.950 . S
H1086 C1091 0.950 . S
H1087 C1092 0.949 . S
H1088 C1094 0.919 1_565 S
H1089 C1095 0.950 1_565 S
H1090 C1096 0.949 . S
C1091 H1086 0.950 . S
C1091 C1093 1.327 . S
C1091 C1097 1.429 . S
C1092 C1084 1.580 . S
C1092 H1087 0.949 . S
C1092 C1098 1.368 1_565 S
C1093 C1077 1.349 . S
C1093 H1085 0.950 . S
C1093 C1091 1.327 . S
C1094 C1082 1.349 . S
C1094 H1088 0.919 1_545 S
C1094 C1095 1.327 . S
C1095 H1089 0.950 1_545 S
C1095 C1094 1.327 . S
C1095 C1099 1.429 . S
C1096 C1079 1.574 . S
C1096 H1090 0.949 . S
C1096 C1100 1.368 . S
C1097 C1078 1.429 1_545 S
C1097 C1091 1.429 . S
C1097 C1098 1.523 . S
C1098 C1079 1.368 . S
C1098 C1092 1.368 1_545 S
C1098 C1097 1.523 . S
C1099 C1083 1.429 . S
C1099 C1095 1.429 . S
C1099 C1100 1.523 . S
C1100 C1084 1.329 1_545 S
C1100 C1096 1.368 . S
C1100 C1099 1.523 . S
H1101 C1076 0.950 . S
H1102 C1078 0.950 . S
H1103 C1079 0.949 . S
H1104 C1081 0.950 . S
H1105 C1083 0.950 . S
C1106 C1107 1.349 . S
C1106 C1108 1.327 . S
C1106 H1131 0.950 . S
C1107 C1106 1.349 . S
C1107 C1123 1.349 . S
C1108 C1106 1.327 . S
C1108 C1127 1.429 . S
C1108 H1132 0.950 . S
C1109 C1126 1.574 . S
C1109 C1128 1.368 . S
C1109 H1133 0.949 . S
H1110 C1114 0.949 . S
C1111 C1112 1.349 . S
C1111 C1113 1.327 . S
C1111 H1134 0.950 . S
C1112 C1111 1.349 . S
C1112 C1124 1.349 . S
C1113 C1111 1.327 . S
C1113 C1129 1.429 . S
C1113 H1135 0.950 . S
C1114 H1110 0.949 . S
C1114 C1122 1.574 . S
C1114 C1130 1.368 . S
H1115 C1123 0.950 . S
H1116 C1121 0.950 . S
H1117 C1122 0.949 . S
H1118 C1124 0.950 . S
H1119 C1125 0.950 . S
H1120 C1126 0.949 . S
C1121 H1116 0.950 . S
C1121 C1123 1.327 . S
C1121 C1127 1.429 . S
C1122 C1114 1.574 . S
C1122 H1117 0.949 . S
C1122 C1128 1.368 . S
C1123 C1107 1.349 . S
C1123 H1115 0.950 . S
C1123 C1121 1.327 . S
C1124 C1112 1.349 . S
C1124 H1118 0.950 . S
C1124 C1125 1.327 . S
C1125 H1119 0.950 . S
C1125 C1124 1.327 . S
C1125 C1129 1.429 . S
C1126 C1109 1.574 . S
C1126 H1120 0.949 . S
C1126 C1130 1.368 . S
C1127 C1108 1.429 . S
C1127 C1121 1.429 . S
C1127 C1128 1.523 . S
C1128 C1109 1.368 . S
C1128 C1122 1.368 . S
C1128 C1127 1.523 . S
C1129 C1113 1.429 . S
C1129 C1125 1.429 . S
C1129 C1130 1.523 . S
C1130 C1114 1.368 . S
C1130 C1126 1.368 . S
C1130 C1129 1.523 . S
H1131 C1106 0.950 . S
H1132 C1108 0.950 . S
H1133 C1109 0.949 . S
H1134 C1111 0.950 . S
H1135 C1113 0.950 . S
C1136 C1137 1.349 . S
C1136 C1138 1.327 . S
C1136 H1161 0.950 . S
C1137 C1136 1.349 . S
C1137 C1153 1.349 . S
C1138 C1136 1.327 . S
C1138 C1157 1.429 . S
C1138 H1162 0.950 . S
C1139 C1156 1.574 . S
C1139 C1158 1.368 . S
C1139 H1163 0.949 1_554 S
H1140 C1144 0.949 . S
C1141 C1142 1.349 . S
C1141 C1143 1.327 . S
C1141 H1164 0.950 . S
C1142 C1141 1.349 . S
C1142 C1154 1.349 . S
C1143 C1141 1.327 . S
C1143 C1159 1.429 . S
C1143 H1165 0.950 . S
C1144 H1140 0.949 . S
C1144 C1152 1.574 . S
C1144 C1160 1.368 . S
H1145 C1153 0.950 1_556 S
H1146 C1151 0.950 1_556 S
H1147 C1152 0.949 . S
H1148 C1154 0.950 . S
H1149 C1155 0.950 . S
H1150 C1156 0.985 . S
C1151 H1146 0.950 1_554 S
C1151 C1153 1.327 . S
C1151 C1157 1.429 . S
C1152 C1144 1.574 . S
C1152 H1147 0.949 . S
C1152 C1158 1.368 . S
C1153 C1137 1.349 . S
C1153 H1145 0.950 1_554 S
C1153 C1151 1.327 . S
C1154 C1142 1.349 . S
C1154 H1148 0.950 . S
C1154 C1155 1.327 . S
C1155 H1149 0.950 . S
C1155 C1154 1.327 . S
C1155 C1159 1.429 . S
C1156 C1139 1.574 . S
C1156 H1150 0.985 . S
C1156 C1160 1.368 . S
C1157 C1138 1.429 . S
C1157 C1151 1.429 . S
C1157 C1158 1.523 . S
C1158 C1139 1.368 . S
C1158 C1152 1.368 . S
C1158 C1157 1.523 . S
C1159 C1143 1.429 . S
C1159 C1155 1.429 . S
C1159 C1160 1.523 . S
C1160 C1144 1.368 . S
C1160 C1156 1.368 . S
C1160 C1159 1.523 . S
H1161 C1136 0.950 . S
H1162 C1138 0.950 . S
H1163 C1139 0.949 1_556 S
H1164 C1141 0.950 . S
H1165 C1143 0.950 . S
C1166 C1167 1.349 1_554 S
C1166 C1168 1.327 . S
C1166 H1191 0.950 . S
C1167 C1166 1.349 1_556 S
C1167 C1183 1.349 . S
C1168 C1166 1.327 . S
C1168 C1187 1.429 . S
C1168 H1192 0.950 . S
C1169 C1186 1.574 . S
C1169 C1188 1.368 1_556 S
C1169 H1193 0.949 . S
H1170 C1174 0.949 . S
C1171 C1172 1.349 1_556 S
C1171 C1173 1.327 . S
C1171 H1194 0.950 . S
C1172 C1171 1.349 1_554 S
C1172 C1184 1.349 . S
C1173 C1171 1.327 . S
C1173 C1189 1.429 1_556 S
C1173 H1195 0.950 . S
C1174 H1170 0.949 . S
C1174 C1182 1.574 . S
C1174 C1190 1.368 . S
H1175 C1183 0.950 . S
H1176 C1181 0.950 . S
H1177 C1182 0.949 . S
H1178 C1184 0.950 . S
H1179 C1185 0.950 . S
H1180 C1186 0.949 . S
C1181 H1176 0.950 . S
C1181 C1183 1.327 . S
C1181 C1187 1.429 1_556 S
C1182 C1174 1.574 . S
C1182 H1177 0.949 . S
C1182 C1188 1.368 . S
C1183 C1167 1.349 . S
C1183 H1175 0.950 . S
C1183 C1181 1.327 . S
C1184 C1172 1.349 . S
C1184 H1178 0.950 . S
C1184 C1185 1.327 . S
C1185 H1179 0.950 . S
C1185 C1184 1.327 . S
C1185 C1189 1.429 . S
C1186 C1169 1.574 . S
C1186 H1180 0.949 . S
C1186 C1190 1.368 1_556 S
C1187 C1168 1.429 . S
C1187 C1181 1.429 1_554 S
C1187 C1188 1.523 . S
C1188 C1169 1.368 1_554 S
C1188 C1182 1.368 . S
C1188 C1187 1.523 . S
C1189 C1173 1.429 1_554 S
C1189 C1185 1.429 . S
C1189 C1190 1.523 . S
C1190 C1174 1.368 . S
C1190 C1186 1.368 1_554 S
C1190 C1189 1.523 . S
H1191 C1166 0.950 . S
H1192 C1168 0.950 . S
H1193 C1169 0.949 . S
H1194 C1171 0.950 . S
H1195 C1173 0.950 . S
C1196 C1197 1.349 . S
C1196 C1198 1.327 . S
C1196 H1221 0.950 . S
C1197 C1196 1.349 . S
C1197 C1213 1.349 . S
C1198 C1196 1.327 . S
C1198 C1217 1.429 . S
C1198 H1222 0.950 . S
C1199 C1216 1.574 . S
C1199 C1218 1.368 . S
C1199 H1223 0.949 . S
H1200 C1204 0.949 . S
C1201 C1202 1.349 . S
C1201 C1203 1.327 . S
C1201 H1224 0.950 . S
C1202 C1201 1.349 . S
C1202 C1214 1.349 . S
C1203 C1201 1.327 . S
C1203 C1219 1.429 . S
C1203 H1225 0.950 . S
C1204 H1200 0.949 . S
C1204 C1212 1.574 . S
C1204 C1220 1.368 . S
H1205 C1213 0.950 . S
H1206 C1211 0.950 . S
H1207 C1212 0.949 . S
H1208 C1214 0.950 . S
H1209 C1215 0.950 . S
H1210 C1216 0.949 . S
C1211 H1206 0.950 . S
C1211 C1213 1.327 . S
C1211 C1217 1.429 . S
C1212 C1204 1.574 . S
C1212 H1207 0.949 . S
C1212 C1218 1.368 . S
C1213 C1197 1.349 . S
C1213 H1205 0.950 . S
C1213 C1211 1.327 . S
C1214 C1202 1.349 . S
C1214 H1208 0.950 . S
C1214 C1215 1.327 . S
C1215 H1209 0.950 . S
C1215 C1214 1.327 . S
C1215 C1219 1.429 . S
C1216 C1199 1.574 . S
C1216 H1210 0.949 . S
C1216 C1220 1.368 . S
C1217 C1198 1.429 . S
C1217 C1211 1.429 . S
C1217 C1218 1.523 . S
C1218 C1199 1.368 . S
C1218 C1212 1.368 . S
C1218 C1217 1.523 . S
C1219 C1203 1.429 . S
C1219 C1215 1.429 . S
C1219 C1220 1.523 . S
C1220 C1204 1.368 . S
C1220 C1216 1.368 . S
C1220 C1219 1.523 . S
H1221 C1196 0.950 . S
H1222 C1198 0.950 . S
H1223 C1199 0.949 . S
H1224 C1201 0.950 . S
H1225 C1203 0.950 . S
C1226 C1227 1.349 . S
C1226 C1228 1.327 . S
C1226 H1251 0.950 . S
C1227 C1226 1.349 . S
C1227 C1243 1.349 . S
C1228 C1226 1.327 . S
C1228 C1247 1.429 . S
C1228 H1252 0.950 . S
C1229 C1246 1.574 . S
C1229 C1248 1.368 . S
C1229 H1253 0.949 . S
H1230 C1234 0.949 . S
C1231 C1232 1.349 . S
C1231 C1233 1.327 . S
C1231 H1254 0.950 . S
C1232 C1231 1.349 . S
C1232 C1244 1.349 . S
C1233 C1231 1.327 . S
C1233 C1249 1.429 . S
C1233 H1255 0.950 . S
C1234 H1230 0.949 . S
C1234 C1242 1.574 . S
C1234 C1250 1.368 . S
H1235 C1243 0.950 . S
H1236 C1241 0.950 . S
H1237 C1242 0.949 . S
H1238 C1244 0.950 . S
H1239 C1245 0.950 . S
H1240 C1246 0.949 . S
C1241 H1236 0.950 . S
C1241 C1243 1.327 . S
C1241 C1247 1.429 . S
C1242 C1234 1.574 . S
C1242 H1237 0.949 . S
C1242 C1248 1.368 . S
C1243 C1227 1.349 . S
C1243 H1235 0.950 . S
C1243 C1241 1.327 . S
C1244 C1232 1.349 . S
C1244 H1238 0.950 . S
C1244 C1245 1.327 . S
C1245 H1239 0.950 . S
C1245 C1244 1.327 . S
C1245 C1249 1.429 . S
C1246 C1229 1.574 . S
C1246 H1240 0.949 . S
C1246 C1250 1.368 . S
C1247 C1228 1.429 . S
C1247 C1241 1.429 . S
C1247 C1248 1.523 . S
C1248 C1229 1.368 . S
C1248 C1242 1.368 . S
C1248 C1247 1.523 . S
C1249 C1233 1.429 . S
C1249 C1245 1.429 . S
C1249 C1250 1.523 . S
C1250 C1234 1.368 . S
C1250 C1246 1.368 . S
C1250 C1249 1.523 . S
H1251 C1226 0.950 . S
H1252 C1228 0.950 . S
H1253 C1229 0.949 . S
H1254 C1231 0.950 . S
H1255 C1233 0.950 . S
C1256 C1257 1.349 . S
C1256 C1258 1.327 . S
C1256 H1281 0.950 . S
C1257 C1256 1.349 . S
C1257 C1273 1.349 . S
C1258 C1256 1.327 . S
C1258 C1277 1.429 . S
C1258 H1282 0.950 . S
C1259 C1276 1.574 . S
C1259 C1278 1.368 . S
C1259 H1283 0.949 . S
H1260 C1264 0.949 . S
C1261 C1262 1.349 . S
C1261 C1263 1.327 . S
C1261 H1284 0.950 . S
C1262 C1261 1.349 . S
C1262 C1274 1.349 . S
C1263 C1261 1.327 . S
C1263 C1279 1.429 . S
C1263 H1285 0.950 . S
C1264 H1260 0.949 . S
C1264 C1272 1.574 . S
C1264 C1280 1.368 . S
H1265 C1273 0.950 . S
H1266 C1271 0.950 . S
H1267 C1272 0.949 . S
H1268 C1274 0.950 . S
H1269 C1275 0.950 . S
H1270 C1276 0.949 . S
C1271 H1266 0.950 . S
C1271 C1273 1.327 . S
C1271 C1277 1.429 . S
C1272 C1264 1.574 . S
C1272 H1267 0.949 . S
C1272 C1278 1.368 . S
C1273 C1257 1.349 . S
C1273 H1265 0.950 . S
C1273 C1271 1.327 . S
C1274 C1262 1.349 . S
C1274 H1268 0.950 . S
C1274 C1275 1.327 . S
C1275 H1269 0.950 . S
C1275 C1274 1.327 . S
C1275 C1279 1.429 . S
C1276 C1259 1.574 . S
C1276 H1270 0.949 . S
C1276 C1280 1.368 . S
C1277 C1258 1.429 . S
C1277 C1271 1.429 . S
C1277 C1278 1.523 . S
C1278 C1259 1.368 . S
C1278 C1272 1.368 . S
C1278 C1277 1.523 . S
C1279 C1263 1.429 . S
C1279 C1275 1.429 . S
C1279 C1280 1.523 . S
C1280 C1264 1.368 . S
C1280 C1276 1.368 . S
C1280 C1279 1.523 . S
H1281 C1256 0.950 . S
H1282 C1258 0.950 . S
H1283 C1259 0.949 . S
H1284 C1261 0.950 . S
H1285 C1263 0.950 . S
C1286 C1287 1.349 . S
C1286 C1288 1.327 . S
C1286 H1311 0.950 . S
C1287 C1286 1.349 . S
C1287 C1303 1.349 . S
C1288 C1286 1.327 . S
C1288 C1307 1.429 . S
C1288 H1312 0.950 . S
C1289 C1306 1.574 . S
C1289 C1308 1.368 . S
C1289 H1313 0.949 . S
H1290 C1294 0.949 . S
C1291 C1292 1.349 . S
C1291 C1293 1.327 . S
C1291 H1314 0.950 . S
C1292 C1291 1.349 . S
C1292 C1304 1.349 . S
C1293 C1291 1.327 . S
C1293 C1309 1.429 . S
C1293 H1315 0.950 . S
C1294 H1290 0.949 . S
C1294 C1302 1.574 . S
C1294 C1310 1.368 . S
H1295 C1303 0.950 . S
H1296 C1301 0.950 . S
H1297 C1302 0.949 . S
H1298 C1304 0.950 . S
H1299 C1305 0.950 . S
H1300 C1306 0.949 . S
C1301 H1296 0.950 . S
C1301 C1303 1.327 . S
C1301 C1307 1.429 . S
C1302 C1294 1.574 . S
C1302 H1297 0.949 . S
C1302 C1308 1.368 . S
C1303 C1287 1.349 . S
C1303 H1295 0.950 . S
C1303 C1301 1.327 . S
C1304 C1292 1.349 . S
C1304 H1298 0.950 . S
C1304 C1305 1.327 . S
C1305 H1299 0.950 . S
C1305 C1304 1.327 . S
C1305 C1309 1.429 . S
C1306 C1289 1.574 . S
C1306 H1300 0.949 . S
C1306 C1310 1.368 . S
C1307 C1288 1.429 . S
C1307 C1301 1.429 . S
C1307 C1308 1.523 . S
C1308 C1289 1.368 . S
C1308 C1302 1.368 . S
C1308 C1307 1.523 . S
C1309 C1293 1.429 . S
C1309 C1305 1.429 . S
C1309 C1310 1.523 . S
C1310 C1294 1.368 . S
C1310 C1306 1.368 . S
C1310 C1309 1.523 . S
H1311 C1286 0.950 . S
H1312 C1288 0.950 . S
H1313 C1289 0.949 . S
H1314 C1291 0.950 . S
H1315 C1293 0.950 . S
C1316 C1317 1.349 . S
C1316 C1318 1.327 . S
C1316 H1341 0.950 . S
C1317 C1316 1.349 . S
C1317 C1333 1.349 . S
C1318 C1316 1.327 . S
C1318 C1337 1.429 . S
C1318 H1342 0.950 . S
C1319 C1336 1.574 . S
C1319 C1338 1.368 . S
C1319 H1343 0.949 . S
H1320 C1324 0.949 . S
C1321 C1322 1.349 . S
C1321 C1323 1.327 . S
C1321 H1344 0.950 . S
C1322 C1321 1.349 . S
C1322 C1334 1.349 . S
C1323 C1321 1.327 . S
C1323 C1339 1.429 . S
C1323 H1345 0.950 . S
C1324 H1320 0.949 . S
C1324 C1332 1.574 . S
C1324 C1340 1.368 . S
H1325 C1333 0.950 . S
H1326 C1331 0.950 . S
H1327 C1332 0.949 . S
H1328 C1334 0.950 . S
H1329 C1335 0.950 . S
H1330 C1336 0.949 . S
C1331 H1326 0.950 . S
C1331 C1333 1.327 . S
C1331 C1337 1.429 . S
C1332 C1324 1.574 . S
C1332 H1327 0.949 . S
C1332 C1338 1.368 . S
C1333 C1317 1.349 . S
C1333 H1325 0.950 . S
C1333 C1331 1.327 . S
C1334 C1322 1.349 . S
C1334 H1328 0.950 . S
C1334 C1335 1.327 . S
C1335 H1329 0.950 . S
C1335 C1334 1.327 . S
C1335 C1339 1.429 . S
C1336 C1319 1.574 . S
C1336 H1330 0.949 . S
C1336 C1340 1.368 . S
C1337 C1318 1.429 . S
C1337 C1331 1.429 . S
C1337 C1338 1.523 . S
C1338 C1319 1.368 . S
C1338 C1332 1.368 . S
C1338 C1337 1.523 . S
C1339 C1323 1.429 . S
C1339 C1335 1.429 . S
C1339 C1340 1.523 . S
C1340 C1324 1.368 . S
C1340 C1336 1.368 . S
C1340 C1339 1.523 . S
H1341 C1316 0.950 . S
H1342 C1318 0.950 . S
H1343 C1319 0.949 . S
H1344 C1321 0.950 . S
H1345 C1323 0.950 . S
C1346 C1347 1.349 . S
C1346 C1348 1.327 . S
C1346 H1371 0.950 . S
C1347 C1346 1.349 . S
C1347 C1363 1.349 . S
C1348 C1346 1.327 . S
C1348 C1367 1.429 . S
C1348 H1372 0.950 . S
C1349 C1366 1.574 . S
C1349 C1368 1.368 . S
C1349 H1373 0.949 . S
H1350 C1354 0.949 . S
C1351 C1352 1.349 . S
C1351 C1353 1.327 . S
C1351 H1374 0.950 . S
C1352 C1351 1.349 . S
C1352 C1364 1.349 . S
C1353 C1351 1.327 . S
C1353 C1369 1.429 . S
C1353 H1375 0.950 . S
C1354 H1350 0.949 . S
C1354 C1362 1.574 . S
C1354 C1370 1.368 . S
H1355 C1363 0.950 . S
H1356 C1361 0.950 . S
H1357 C1362 0.949 . S
H1358 C1364 0.950 . S
H1359 C1365 0.950 . S
H1360 C1366 0.949 . S
C1361 H1356 0.950 . S
C1361 C1363 1.327 . S
C1361 C1367 1.429 . S
C1362 C1354 1.574 . S
C1362 H1357 0.949 . S
C1362 C1368 1.368 . S
C1363 C1347 1.349 . S
C1363 H1355 0.950 . S
C1363 C1361 1.327 . S
C1364 C1352 1.349 . S
C1364 H1358 0.950 . S
C1364 C1365 1.327 . S
C1365 H1359 0.950 . S
C1365 C1364 1.327 . S
C1365 C1369 1.429 . S
C1366 C1349 1.574 . S
C1366 H1360 0.949 . S
C1366 C1370 1.368 . S
C1367 C1348 1.429 . S
C1367 C1361 1.429 . S
C1367 C1368 1.523 . S
C1368 C1349 1.368 . S
C1368 C1362 1.368 . S
C1368 C1367 1.523 . S
C1369 C1353 1.429 . S
C1369 C1365 1.429 . S
C1369 C1370 1.523 . S
C1370 C1354 1.368 . S
C1370 C1366 1.368 . S
C1370 C1369 1.523 . S
H1371 C1346 0.950 . S
H1372 C1348 0.950 . S
H1373 C1349 0.949 . S
H1374 C1351 0.950 . S
H1375 C1353 0.950 . S
C1376 C1377 1.349 . S
C1376 C1378 1.327 . S
C1376 H1401 0.950 . S
C1377 C1376 1.349 . S
C1377 C1393 1.349 . S
C1378 C1376 1.327 . S
C1378 C1397 1.429 . S
C1378 H1402 0.950 . S
C1379 C1396 1.574 . S
C1379 C1398 1.368 . S
C1379 H1403 0.948 . S
H1380 C1384 0.949 . S
C1381 C1382 1.375 . S
C1381 C1383 1.338 . S
C1381 H1404 0.916 1_455 S
C1382 C1381 1.375 . S
C1382 C1394 1.349 . S
C1383 C1381 1.338 . S
C1383 C1399 1.429 . S
C1383 H1405 0.950 1_455 S
C1384 H1380 0.949 . S
C1384 C1392 1.574 . S
C1384 C1400 1.368 . S
H1385 C1393 0.950 . S
H1386 C1391 0.950 . S
H1387 C1392 0.949 . S
H1388 C1394 0.950 . S
H1389 C1395 0.950 . S
H1390 C1396 0.949 1_655 S
C1391 H1386 0.950 . S
C1391 C1393 1.327 . S
C1391 C1397 1.429 . S
C1392 C1384 1.574 . S
C1392 H1387 0.949 . S
C1392 C1398 1.368 . S
C1393 C1377 1.349 . S
C1393 H1385 0.950 . S
C1393 C1391 1.327 . S
C1394 C1382 1.349 . S
C1394 H1388 0.950 . S
C1394 C1395 1.327 . S
C1395 H1389 0.950 . S
C1395 C1394 1.327 . S
C1395 C1399 1.429 . S
C1396 C1379 1.574 . S
C1396 H1390 0.949 1_455 S
C1396 C1400 1.368 . S
C1397 C1378 1.429 . S
C1397 C1391 1.429 . S
C1397 C1398 1.523 . S
C1398 C1379 1.368 . S
C1398 C1392 1.368 . S
C1398 C1397 1.523 . S
C1399 C1383 1.429 . S
C1399 C1395 1.429 . S
C1399 C1400 1.523 . S
C1400 C1384 1.368 . S
C1400 C1396 1.368 . S
C1400 C1399 1.523 . S
H1401 C1376 0.950 . S
H1402 C1378 0.950 . S
H1403 C1379 0.948 . S
H1404 C1381 0.916 1_655 S
H1405 C1383 0.950 1_655 S
C1406 C1407 1.349 . S
C1406 C1408 1.327 . S
C1406 H1431 0.950 . S
C1407 C1406 1.349 . S
C1407 C1423 1.349 . S
C1408 C1406 1.327 . S
C1408 C1427 1.429 . S
C1408 H1432 0.950 . S
C1409 C1426 1.574 . S
C1409 C1428 1.368 . S
C1409 H1433 0.949 . S
H1410 C1414 0.949 . S
C1411 C1412 1.349 . S
C1411 C1413 1.327 . S
C1411 H1434 0.950 . S
C1412 C1411 1.349 . S
C1412 C1424 1.349 . S
C1413 C1411 1.327 . S
C1413 C1429 1.429 . S
C1413 H1435 0.950 . S
C1414 H1410 0.949 . S
C1414 C1422 1.574 . S
C1414 C1430 1.368 . S
H1415 C1423 0.950 . S
H1416 C1421 0.950 . S
H1417 C1422 0.949 . S
H1418 C1424 0.950 . S
H1419 C1425 0.950 . S
H1420 C1426 0.949 . S
C1421 H1416 0.950 . S
C1421 C1423 1.327 . S
C1421 C1427 1.429 . S
C1422 C1414 1.574 . S
C1422 H1417 0.949 . S
C1422 C1428 1.368 . S
C1423 C1407 1.349 . S
C1423 H1415 0.950 . S
C1423 C1421 1.327 . S
C1424 C1412 1.349 . S
C1424 H1418 0.950 . S
C1424 C1425 1.327 . S
C1425 H1419 0.950 . S
C1425 C1424 1.327 . S
C1425 C1429 1.429 . S
C1426 C1409 1.574 . S
C1426 H1420 0.949 . S
C1426 C1430 1.368 . S
C1427 C1408 1.429 . S
C1427 C1421 1.429 . S
C1427 C1428 1.523 . S
C1428 C1409 1.368 . S
C1428 C1422 1.368 . S
C1428 C1427 1.523 . S
C1429 C1413 1.429 . S
C1429 C1425 1.429 . S
C1429 C1430 1.523 . S
C1430 C1414 1.368 . S
C1430 C1426 1.368 . S
C1430 C1429 1.523 . S
H1431 C1406 0.950 . S
H1432 C1408 0.950 . S
H1433 C1409 0.949 . S
H1434 C1411 0.950 . S
H1435 C1413 0.950 . S
C1436 C1437 1.349 . S
C1436 C1438 1.327 . S
C1436 H1461 0.950 . S
C1437 C1436 1.349 . S
C1437 C1453 1.349 . S
C1438 C1436 1.327 . S
C1438 C1457 1.429 . S
C1438 H1462 0.950 . S
C1439 C1456 1.574 . S
C1439 C1458 1.368 . S
C1439 H1463 0.949 . S
H1440 C1444 0.949 . S
C1441 C1442 1.349 . S
C1441 C1443 1.327 . S
C1441 H1464 0.950 . S
C1442 C1441 1.349 . S
C1442 C1454 1.349 . S
C1443 C1441 1.327 . S
C1443 C1459 1.429 . S
C1443 H1465 0.950 . S
C1444 H1440 0.949 . S
C1444 C1452 1.574 . S
C1444 C1460 1.368 . S
H1445 C1453 0.950 . S
H1446 C1451 0.950 . S
H1447 C1452 0.949 . S
H1448 C1454 0.950 . S
H1449 C1455 0.950 . S
H1450 C1456 0.949 . S
C1451 H1446 0.950 . S
C1451 C1453 1.327 . S
C1451 C1457 1.429 . S
C1452 C1444 1.574 . S
C1452 H1447 0.949 . S
C1452 C1458 1.368 . S
C1453 C1437 1.349 . S
C1453 H1445 0.950 . S
C1453 C1451 1.327 . S
C1454 C1442 1.349 . S
C1454 H1448 0.950 . S
C1454 C1455 1.327 . S
C1455 H1449 0.950 . S
C1455 C1454 1.327 . S
C1455 C1459 1.429 . S
C1456 C1439 1.574 . S
C1456 H1450 0.949 . S
C1456 C1460 1.368 . S
C1457 C1438 1.429 . S
C1457 C1451 1.429 . S
C1457 C1458 1.523 . S
C1458 C1439 1.368 . S
C1458 C1452 1.368 . S
C1458 C1457 1.523 . S
C1459 C1443 1.429 . S
C1459 C1455 1.429 . S
C1459 C1460 1.523 . S
C1460 C1444 1.368 . S
C1460 C1456 1.368 . S
C1460 C1459 1.523 . S
H1461 C1436 0.950 . S
H1462 C1438 0.950 . S
H1463 C1439 0.949 . S
H1464 C1441 0.950 . S
H1465 C1443 0.950 . S
C1466 C1467 1.349 . S
C1466 C1468 1.327 . S
C1466 H1491 0.950 . S
C1467 C1466 1.349 . S
C1467 C1483 1.349 . S
C1468 C1466 1.327 . S
C1468 C1487 1.429 . S
C1468 H1492 0.950 . S
C1469 C1486 1.574 . S
C1469 C1488 1.368 . S
C1469 H1493 0.949 . S
H1470 C1474 0.949 . S
C1471 C1472 1.349 . S
C1471 C1473 1.327 . S
C1471 H1494 0.950 . S
C1472 C1471 1.349 . S
C1472 C1484 1.349 . S
C1473 C1471 1.327 . S
C1473 C1489 1.429 . S
C1473 H1495 0.950 . S
C1474 H1470 0.949 . S
C1474 C1482 1.574 . S
C1474 C1490 1.368 . S
H1475 C1483 0.950 . S
H1476 C1481 0.950 . S
H1477 C1482 0.949 . S
H1478 C1484 0.950 . S
H1479 C1485 0.950 . S
H1480 C1486 0.949 . S
C1481 H1476 0.950 . S
C1481 C1483 1.327 . S
C1481 C1487 1.429 . S
C1482 C1474 1.574 . S
C1482 H1477 0.949 . S
C1482 C1488 1.368 . S
C1483 C1467 1.349 . S
C1483 H1475 0.950 . S
C1483 C1481 1.327 . S
C1484 C1472 1.349 . S
C1484 H1478 0.950 . S
C1484 C1485 1.327 . S
C1485 H1479 0.950 . S
C1485 C1484 1.327 . S
C1485 C1489 1.429 . S
C1486 C1469 1.574 . S
C1486 H1480 0.949 . S
C1486 C1490 1.368 . S
C1487 C1468 1.429 . S
C1487 C1481 1.429 . S
C1487 C1488 1.523 . S
C1488 C1469 1.368 . S
C1488 C1482 1.368 . S
C1488 C1487 1.523 . S
C1489 C1473 1.429 . S
C1489 C1485 1.429 . S
C1489 C1490 1.523 . S
C1490 C1474 1.368 . S
C1490 C1486 1.368 . S
C1490 C1489 1.523 . S
H1491 C1466 0.950 . S
H1492 C1468 0.950 . S
H1493 C1469 0.949 . S
H1494 C1471 0.950 . S
H1495 C1473 0.950 . S
C1496 C1497 1.349 . S
C1496 C1498 1.327 . S
C1496 H1521 0.950 1_455 S
C1497 C1496 1.349 . S
C1497 C1513 1.349 . S
C1498 C1496 1.327 . S
C1498 C1517 1.429 . S
C1498 H1522 0.950 1_455 S
C1499 C1516 1.574 . S
C1499 C1518 1.368 . S
C1499 H1523 0.949 . S
H1500 C1504 0.949 . S
C1501 C1502 1.349 . S
C1501 C1503 1.327 . S
C1501 H1524 0.950 . S
C1502 C1501 1.349 . S
C1502 C1514 1.349 1_455 S
C1503 C1501 1.327 . S
C1503 C1519 1.429 . S
C1503 H1525 0.950 . S
C1504 H1500 0.949 . S
C1504 C1512 1.574 1_655 S
C1504 C1520 1.368 1_655 S
H1505 C1513 0.950 . S
H1506 C1511 0.950 . S
H1507 C1512 0.951 1_655 S
H1508 C1514 0.950 . S
H1509 C1515 0.950 . S
H1510 C1516 0.949 . S
C1511 H1506 0.950 . S
C1511 C1513 1.327 . S
C1511 C1517 1.429 . S
C1512 C1504 1.574 1_455 S
C1512 H1507 0.951 1_455 S
C1512 C1518 1.366 . S
C1513 C1497 1.349 . S
C1513 H1505 0.950 . S
C1513 C1511 1.327 . S
C1514 C1502 1.349 1_655 S
C1514 H1508 0.950 . S
C1514 C1515 1.327 . S
C1515 H1509 0.950 . S
C1515 C1514 1.327 . S
C1515 C1519 1.429 1_655 S
C1516 C1499 1.574 . S
C1516 H1510 0.949 . S
C1516 C1520 1.368 . S
C1517 C1498 1.429 . S
C1517 C1511 1.429 . S
C1517 C1518 1.523 . S
C1518 C1499 1.368 . S
C1518 C1512 1.366 . S
C1518 C1517 1.523 . S
C1519 C1503 1.429 . S
C1519 C1515 1.429 1_455 S
C1519 C1520 1.523 . S
C1520 C1504 1.368 1_455 S
C1520 C1516 1.368 . S
C1520 C1519 1.523 . S
H1521 C1496 0.950 1_655 S
H1522 C1498 0.950 1_655 S
H1523 C1499 0.949 . S
H1524 C1501 0.950 . S
H1525 C1503 0.950 . S
C1526 C1527 1.349 . S
C1526 C1528 1.327 . S
C1526 H1551 0.950 . S
C1527 C1526 1.349 . S
C1527 C1543 1.349 . S
C1528 C1526 1.327 . S
C1528 C1547 1.429 . S
C1528 H1552 0.950 . S
C1529 C1546 1.574 . S
C1529 C1548 1.368 . S
C1529 H1553 0.949 . S
H1530 C1534 0.949 . S
C1531 C1532 1.349 . S
C1531 C1533 1.327 . S
C1531 H1554 0.950 . S
C1532 C1531 1.349 . S
C1532 C1544 1.349 . S
C1533 C1531 1.327 . S
C1533 C1549 1.429 . S
C1533 H1555 0.950 . S
C1534 H1530 0.949 . S
C1534 C1542 1.574 . S
C1534 C1550 1.368 . S
H1535 C1543 0.950 . S
H1536 C1541 0.950 . S
H1537 C1542 0.949 . S
H1538 C1544 0.950 . S
H1539 C1545 0.950 . S
H1540 C1546 0.949 . S
C1541 H1536 0.950 . S
C1541 C1543 1.327 . S
C1541 C1547 1.429 . S
C1542 C1534 1.574 . S
C1542 H1537 0.949 . S
C1542 C1548 1.368 . S
C1543 C1527 1.349 . S
C1543 H1535 0.950 . S
C1543 C1541 1.327 . S
C1544 C1532 1.349 . S
C1544 H1538 0.950 . S
C1544 C1545 1.327 . S
C1545 H1539 0.950 . S
C1545 C1544 1.327 . S
C1545 C1549 1.429 . S
C1546 C1529 1.574 . S
C1546 H1540 0.949 . S
C1546 C1550 1.368 . S
C1547 C1528 1.429 . S
C1547 C1541 1.429 . S
C1547 C1548 1.523 . S
C1548 C1529 1.368 . S
C1548 C1542 1.368 . S
C1548 C1547 1.523 . S
C1549 C1533 1.429 . S
C1549 C1545 1.429 . S
C1549 C1550 1.523 . S
C1550 C1534 1.368 . S
C1550 C1546 1.368 . S
C1550 C1549 1.523 . S
H1551 C1526 0.950 . S
H1552 C1528 0.950 . S
H1553 C1529 0.949 . S
H1554 C1531 0.950 . S
H1555 C1533 0.950 . S
C1556 C1557 1.349 . S
C1556 C1558 1.327 . S
C1556 H1581 0.950 . S
C1557 C1556 1.349 . S
C1557 C1573 1.349 . S
C1558 C1556 1.327 . S
C1558 C1577 1.429 . S
C1558 H1582 0.950 . S
C1559 C1576 1.574 . S
C1559 C1578 1.368 . S
C1559 H1583 0.949 . S
H1560 C1564 0.949 . S
C1561 C1562 1.310 1_556 S
C1561 C1563 1.327 . S
C1561 H1584 0.950 . S
C1562 C1561 1.310 1_554 S
C1562 C1574 1.369 . S
C1563 C1561 1.327 . S
C1563 C1579 1.429 . S
C1563 H1585 0.950 . S
C1564 H1560 0.949 . S
C1564 C1572 1.574 . S
C1564 C1580 1.368 . S
H1565 C1573 0.950 . S
H1566 C1571 0.950 . S
H1567 C1572 0.949 . S
H1568 C1574 0.950 . S
H1569 C1575 0.941 1_554 S
H1570 C1576 0.949 . S
C1571 H1566 0.950 . S
C1571 C1573 1.327 . S
C1571 C1577 1.429 . S
C1572 C1564 1.574 . S
C1572 H1567 0.949 . S
C1572 C1578 1.368 . S
C1573 C1557 1.349 . S
C1573 H1565 0.950 . S
C1573 C1571 1.327 . S
C1574 C1562 1.369 . S
C1574 H1568 0.950 . S
C1574 C1575 1.319 1_554 S
C1575 H1569 0.941 1_556 S
C1575 C1574 1.319 1_556 S
C1575 C1579 1.446 . S
C1576 C1559 1.574 . S
C1576 H1570 0.949 . S
C1576 C1580 1.368 . S
C1577 C1558 1.429 . S
C1577 C1571 1.429 . S
C1577 C1578 1.523 . S
C1578 C1559 1.368 . S
C1578 C1572 1.368 . S
C1578 C1577 1.523 . S
C1579 C1563 1.429 . S
C1579 C1575 1.446 . S
C1579 C1580 1.523 . S
C1580 C1564 1.368 . S
C1580 C1576 1.368 . S
C1580 C1579 1.523 . S
H1581 C1556 0.950 . S
H1582 C1558 0.950 . S
H1583 C1559 0.949 . S
H1584 C1561 0.950 . S
H1585 C1563 0.950 . S
C1586 C1587 1.349 . S
C1586 C1588 1.327 . S
C1586 H1611 0.950 . S
C1587 C1586 1.349 . S
C1587 C1603 1.349 . S
C1588 C1586 1.327 . S
C1588 C1607 1.429 . S
C1588 H1612 0.950 . S
C1589 C1606 1.574 . S
C1589 C1608 1.368 . S
C1589 H1613 0.949 . S
H1590 C1594 0.949 . S
C1591 C1592 1.349 . S
C1591 C1593 1.327 . S
C1591 H1614 0.950 . S
C1592 C1591 1.349 . S
C1592 C1604 1.349 . S
C1593 C1591 1.327 . S
C1593 C1609 1.429 . S
C1593 H1615 0.950 . S
C1594 H1590 0.949 . S
C1594 C1602 1.574 . S
C1594 C1610 1.368 . S
H1595 C1603 0.950 . S
H1596 C1601 0.950 . S
H1597 C1602 0.949 . S
H1598 C1604 0.950 . S
H1599 C1605 0.950 . S
H1600 C1606 0.949 . S
C1601 H1596 0.950 . S
C1601 C1603 1.327 . S
C1601 C1607 1.429 . S
C1602 C1594 1.574 . S
C1602 H1597 0.949 . S
C1602 C1608 1.368 . S
C1603 C1587 1.349 . S
C1603 H1595 0.950 . S
C1603 C1601 1.327 . S
C1604 C1592 1.349 . S
C1604 H1598 0.950 . S
C1604 C1605 1.327 . S
C1605 H1599 0.950 . S
C1605 C1604 1.327 . S
C1605 C1609 1.429 . S
C1606 C1589 1.574 . S
C1606 H1600 0.949 . S
C1606 C1610 1.368 . S
C1607 C1588 1.429 . S
C1607 C1601 1.429 . S
C1607 C1608 1.523 . S
C1608 C1589 1.368 . S
C1608 C1602 1.368 . S
C1608 C1607 1.523 . S
C1609 C1593 1.429 . S
C1609 C1605 1.429 . S
C1609 C1610 1.523 . S
C1610 C1594 1.368 . S
C1610 C1606 1.368 . S
C1610 C1609 1.523 . S
H1611 C1586 0.950 . S
H1612 C1588 0.950 . S
H1613 C1589 0.949 . S
H1614 C1591 0.950 . S
H1615 C1593 0.950 . S
C1616 C1617 1.349 . S
C1616 C1618 1.327 . S
C1616 H1641 0.950 . S
C1617 C1616 1.349 . S
C1617 C1633 1.349 1_545 S
C1618 C1616 1.327 . S
C1618 C1637 1.429 . S
C1618 H1642 0.950 . S
C1619 C1636 1.574 . S
C1619 C1638 1.368 1_565 S
C1619 H1643 0.949 . S
H1620 C1624 0.949 . S
C1621 C1622 1.349 1_565 S
C1621 C1623 1.327 . S
C1621 H1644 0.950 . S
C1622 C1621 1.349 1_545 S
C1622 C1634 1.349 . S
C1623 C1621 1.327 . S
C1623 C1639 1.429 1_565 S
C1623 H1645 0.950 . S
C1624 H1620 0.949 . S
C1624 C1632 1.574 . S
C1624 C1640 1.368 . S
H1625 C1633 0.950 . S
H1626 C1631 0.950 . S
H1627 C1632 0.949 . S
H1628 C1634 0.950 . S
H1629 C1635 0.950 . S
H1630 C1636 0.949 . S
C1631 H1626 0.950 . S
C1631 C1633 1.327 . S
C1631 C1637 1.429 1_565 S
C1632 C1624 1.574 . S
C1632 H1627 0.949 . S
C1632 C1638 1.368 . S
C1633 C1617 1.349 1_565 S
C1633 H1625 0.950 . S
C1633 C1631 1.327 . S
C1634 C1622 1.349 . S
C1634 H1628 0.950 . S
C1634 C1635 1.327 . S
C1635 H1629 0.950 . S
C1635 C1634 1.327 . S
C1635 C1639 1.429 . S
C1636 C1619 1.574 . S
C1636 H1630 0.949 . S
C1636 C1640 1.368 1_565 S
C1637 C1618 1.429 . S
C1637 C1631 1.429 1_545 S
C1637 C1638 1.523 . S
C1638 C1619 1.368 1_545 S
C1638 C1632 1.368 . S
C1638 C1637 1.523 . S
C1639 C1623 1.429 1_545 S
C1639 C1635 1.429 . S
C1639 C1640 1.523 . S
C1640 C1624 1.368 . S
C1640 C1636 1.368 1_545 S
C1640 C1639 1.523 . S
H1641 C1616 0.950 . S
H1642 C1618 0.950 . S
H1643 C1619 0.949 . S
H1644 C1621 0.950 . S
H1645 C1623 0.950 . S
C1646 C1647 1.349 . S
C1646 C1648 1.327 . S
C1646 H1671 0.950 . S
C1647 C1646 1.349 . S
C1647 C1663 1.349 . S
C1648 C1646 1.327 . S
C1648 C1667 1.429 . S
C1648 H1672 0.950 . S
C1649 C1666 1.574 . S
C1649 C1668 1.368 . S
C1649 H1673 0.949 . S
H1650 C1654 0.949 . S
C1651 C1652 1.349 . S
C1651 C1653 1.327 . S
C1651 H1674 0.950 . S
C1652 C1651 1.349 . S
C1652 C1664 1.349 . S
C1653 C1651 1.327 . S
C1653 C1669 1.429 . S
C1653 H1675 0.950 . S
C1654 H1650 0.949 . S
C1654 C1662 1.574 . S
C1654 C1670 1.368 . S
H1655 C1663 0.950 . S
H1656 C1661 0.950 . S
H1657 C1662 0.949 . S
H1658 C1664 0.950 . S
H1659 C1665 0.950 . S
H1660 C1666 0.949 . S
C1661 H1656 0.950 . S
C1661 C1663 1.327 . S
C1661 C1667 1.429 . S
C1662 C1654 1.574 . S
C1662 H1657 0.949 . S
C1662 C1668 1.368 . S
C1663 C1647 1.349 . S
C1663 H1655 0.950 . S
C1663 C1661 1.327 . S
C1664 C1652 1.349 . S
C1664 H1658 0.950 . S
C1664 C1665 1.327 . S
C1665 H1659 0.950 . S
C1665 C1664 1.327 . S
C1665 C1669 1.429 . S
C1666 C1649 1.574 . S
C1666 H1660 0.949 . S
C1666 C1670 1.368 . S
C1667 C1648 1.429 . S
C1667 C1661 1.429 . S
C1667 C1668 1.523 . S
C1668 C1649 1.368 . S
C1668 C1662 1.368 . S
C1668 C1667 1.523 . S
C1669 C1653 1.429 . S
C1669 C1665 1.429 . S
C1669 C1670 1.523 . S
C1670 C1654 1.368 . S
C1670 C1666 1.368 . S
C1670 C1669 1.523 . S
H1671 C1646 0.950 . S
H1672 C1648 0.950 . S
H1673 C1649 0.949 . S
H1674 C1651 0.950 . S
H1675 C1653 0.950 . S
C1676 C1677 1.349 . S
C1676 C1678 1.327 . S
C1676 H1701 0.950 . S
C1677 C1676 1.349 . S
C1677 C1693 1.349 . S
C1678 C1676 1.327 . S
C1678 C1697 1.429 . S
C1678 H1702 0.950 . S
C1679 C1696 1.574 . S
C1679 C1698 1.368 . S
C1679 H1703 0.977 . S
H1680 C1684 0.949 . S
C1681 C1682 1.349 . S
C1681 C1683 1.327 . S
C1681 H1704 0.950 1_545 S
C1682 C1681 1.349 . S
C1682 C1694 1.349 . S
C1683 C1681 1.327 . S
C1683 C1699 1.429 . S
C1683 H1705 0.950 1_545 S
C1684 H1680 0.949 . S
C1684 C1692 1.574 . S
C1684 C1700 1.368 . S
H1685 C1693 0.950 . S
H1686 C1691 0.950 . S
H1687 C1692 0.949 . S
H1688 C1694 0.950 . S
H1689 C1695 0.950 . S
H1690 C1696 0.921 1_565 S
C1691 H1686 0.950 . S
C1691 C1693 1.327 . S
C1691 C1697 1.429 . S
C1692 C1684 1.574 . S
C1692 H1687 0.949 . S
C1692 C1698 1.368 . S
C1693 C1677 1.349 . S
C1693 H1685 0.950 . S
C1693 C1691 1.327 . S
C1694 C1682 1.349 . S
C1694 H1688 0.950 . S
C1694 C1695 1.327 . S
C1695 H1689 0.950 . S
C1695 C1694 1.327 . S
C1695 C1699 1.429 . S
C1696 C1679 1.574 . S
C1696 H1690 0.921 1_545 S
C1696 C1700 1.368 . S
C1697 C1678 1.429 . S
C1697 C1691 1.429 . S
C1697 C1698 1.523 . S
C1698 C1679 1.368 . S
C1698 C1692 1.368 . S
C1698 C1697 1.523 . S
C1699 C1683 1.429 . S
C1699 C1695 1.429 . S
C1699 C1700 1.523 . S
C1700 C1684 1.368 . S
C1700 C1696 1.368 . S
C1700 C1699 1.523 . S
H1701 C1676 0.950 . S
H1702 C1678 0.950 . S
H1703 C1679 0.977 . S
H1704 C1681 0.950 1_565 S
H1705 C1683 0.950 1_565 S
C1706 C1707 1.349 . S
C1706 C1708 1.327 . S
C1706 H1731 0.950 . S
C1707 C1706 1.349 . S
C1707 C1723 1.349 . S
C1708 C1706 1.327 . S
C1708 C1727 1.429 . S
C1708 H1732 0.950 . S
C1709 C1726 1.574 . S
C1709 C1728 1.368 . S
C1709 H1733 0.949 . S
H1710 C1714 0.949 . S
C1711 C1712 1.349 . S
C1711 C1713 1.327 . S
C1711 H1734 0.950 . S
C1712 C1711 1.349 . S
C1712 C1724 1.349 . S
C1713 C1711 1.327 . S
C1713 C1729 1.429 . S
C1713 H1735 0.950 . S
C1714 H1710 0.949 . S
C1714 C1722 1.574 . S
C1714 C1730 1.368 . S
H1715 C1723 0.950 . S
H1716 C1721 0.950 . S
H1717 C1722 0.949 . S
H1718 C1724 0.950 . S
H1719 C1725 0.950 . S
H1720 C1726 0.949 . S
C1721 H1716 0.950 . S
C1721 C1723 1.327 . S
C1721 C1727 1.429 . S
C1722 C1714 1.574 . S
C1722 H1717 0.949 . S
C1722 C1728 1.368 . S
C1723 C1707 1.349 . S
C1723 H1715 0.950 . S
C1723 C1721 1.327 . S
C1724 C1712 1.349 . S
C1724 H1718 0.950 . S
C1724 C1725 1.327 . S
C1725 H1719 0.950 . S
C1725 C1724 1.327 . S
C1725 C1729 1.429 . S
C1726 C1709 1.574 . S
C1726 H1720 0.949 . S
C1726 C1730 1.368 . S
C1727 C1708 1.429 . S
C1727 C1721 1.429 . S
C1727 C1728 1.523 . S
C1728 C1709 1.368 . S
C1728 C1722 1.368 . S
C1728 C1727 1.523 . S
C1729 C1713 1.429 . S
C1729 C1725 1.429 . S
C1729 C1730 1.523 . S
C1730 C1714 1.368 . S
C1730 C1726 1.368 . S
C1730 C1729 1.523 . S
H1731 C1706 0.950 . S
H1732 C1708 0.950 . S
H1733 C1709 0.949 . S
H1734 C1711 0.950 . S
H1735 C1713 0.950 . S
C1736 C1737 1.349 . S
C1736 C1738 1.327 . S
C1736 H1761 0.950 . S
C1737 C1736 1.349 . S
C1737 C1753 1.349 1_545 S
C1738 C1736 1.327 . S
C1738 C1757 1.429 . S
C1738 H1762 0.950 . S
C1739 C1756 1.574 . S
C1739 C1758 1.368 1_565 S
C1739 H1763 0.949 . S
H1740 C1744 0.949 . S
C1741 C1742 1.349 1_565 S
C1741 C1743 1.327 . S
C1741 H1764 0.950 . S
C1742 C1741 1.349 1_545 S
C1742 C1754 1.349 . S
C1743 C1741 1.327 . S
C1743 C1759 1.429 1_565 S
C1743 H1765 0.950 . S
C1744 H1740 0.949 . S
C1744 C1752 1.574 . S
C1744 C1760 1.368 . S
H1745 C1753 0.950 . S
H1746 C1751 0.950 . S
H1747 C1752 0.949 . S
H1748 C1754 0.950 . S
H1749 C1755 0.950 . S
H1750 C1756 0.949 . S
C1751 H1746 0.950 . S
C1751 C1753 1.327 . S
C1751 C1757 1.429 1_565 S
C1752 C1744 1.574 . S
C1752 H1747 0.949 . S
C1752 C1758 1.368 . S
C1753 C1737 1.349 1_565 S
C1753 H1745 0.950 . S
C1753 C1751 1.327 . S
C1754 C1742 1.349 . S
C1754 H1748 0.950 . S
C1754 C1755 1.327 . S
C1755 H1749 0.950 . S
C1755 C1754 1.327 . S
C1755 C1759 1.429 . S
C1756 C1739 1.574 . S
C1756 H1750 0.949 . S
C1756 C1760 1.368 1_565 S
C1757 C1738 1.429 . S
C1757 C1751 1.429 1_545 S
C1757 C1758 1.523 . S
C1758 C1739 1.368 1_545 S
C1758 C1752 1.368 . S
C1758 C1757 1.523 . S
C1759 C1743 1.429 1_545 S
C1759 C1755 1.429 . S
C1759 C1760 1.523 . S
C1760 C1744 1.368 . S
C1760 C1756 1.368 1_545 S
C1760 C1759 1.523 . S
H1761 C1736 0.950 . S
H1762 C1738 0.950 . S
H1763 C1739 0.949 . S
H1764 C1741 0.950 . S
H1765 C1743 0.950 . S
C1766 C1767 1.349 . S
C1766 C1768 1.327 . S
C1766 H1791 0.950 . S
C1767 C1766 1.349 . S
C1767 C1783 1.349 . S
C1768 C1766 1.327 . S
C1768 C1787 1.429 . S
C1768 H1792 0.950 . S
C1769 C1786 1.574 . S
C1769 C1788 1.368 . S
C1769 H1793 0.949 . S
H1770 C1774 0.949 . S
C1771 C1772 1.349 . S
C1771 C1773 1.327 . S
C1771 H1794 0.950 . S
C1772 C1771 1.349 . S
C1772 C1784 1.349 . S
C1773 C1771 1.327 . S
C1773 C1789 1.429 . S
C1773 H1795 0.950 . S
C1774 H1770 0.949 . S
C1774 C1782 1.574 . S
C1774 C1790 1.368 . S
H1775 C1783 0.950 . S
H1776 C1781 0.950 . S
H1777 C1782 0.949 . S
H1778 C1784 0.950 . S
H1779 C1785 0.950 . S
H1780 C1786 0.949 . S
C1781 H1776 0.950 . S
C1781 C1783 1.327 . S
C1781 C1787 1.429 . S
C1782 C1774 1.574 . S
C1782 H1777 0.949 . S
C1782 C1788 1.368 . S
C1783 C1767 1.349 . S
C1783 H1775 0.950 . S
C1783 C1781 1.327 . S
C1784 C1772 1.349 . S
C1784 H1778 0.950 . S
C1784 C1785 1.327 . S
C1785 H1779 0.950 . S
C1785 C1784 1.327 . S
C1785 C1789 1.429 . S
C1786 C1769 1.574 . S
C1786 H1780 0.949 . S
C1786 C1790 1.368 . S
C1787 C1768 1.429 . S
C1787 C1781 1.429 . S
C1787 C1788 1.523 . S
C1788 C1769 1.368 . S
C1788 C1782 1.368 . S
C1788 C1787 1.523 . S
C1789 C1773 1.429 . S
C1789 C1785 1.429 . S
C1789 C1790 1.523 . S
C1790 C1774 1.368 . S
C1790 C1786 1.368 . S
C1790 C1789 1.523 . S
H1791 C1766 0.950 . S
H1792 C1768 0.950 . S
H1793 C1769 0.949 . S
H1794 C1771 0.950 . S
H1795 C1773 0.950 . S
C1796 C1797 1.349 . S
C1796 C1798 1.327 . S
C1796 H1821 0.950 . S
C1797 C1796 1.349 . S
C1797 C1813 1.349 . S
C1798 C1796 1.327 . S
C1798 C1817 1.429 . S
C1798 H1822 0.950 . S
C1799 C1816 1.574 . S
C1799 C1818 1.368 1_565 S
C1799 H1823 0.949 . S
H1800 C1804 0.949 . S
C1801 C1802 1.349 1_565 S
C1801 C1803 1.327 . S
C1801 H1824 0.950 . S
C1802 C1801 1.349 1_545 S
C1802 C1814 1.349 . S
C1803 C1801 1.327 . S
C1803 C1819 1.429 1_565 S
C1803 H1825 0.950 . S
C1804 H1800 0.949 . S
C1804 C1812 1.574 . S
C1804 C1820 1.368 . S
H1805 C1813 0.950 1_565 S
H1806 C1811 0.950 . S
H1807 C1812 0.949 . S
H1808 C1814 0.950 . S
H1809 C1815 0.950 . S
H1810 C1816 0.949 . S
C1811 H1806 0.950 . S
C1811 C1813 1.327 1_565 S
C1811 C1817 1.429 1_565 S
C1812 C1804 1.574 . S
C1812 H1807 0.949 . S
C1812 C1818 1.368 . S
C1813 C1797 1.349 . S
C1813 H1805 0.950 1_545 S
C1813 C1811 1.327 1_545 S
C1814 C1802 1.349 . S
C1814 H1808 0.950 . S
C1814 C1815 1.327 . S
C1815 H1809 0.950 . S
C1815 C1814 1.327 . S
C1815 C1819 1.429 . S
C1816 C1799 1.574 . S
C1816 H1810 0.949 . S
C1816 C1820 1.368 1_565 S
C1817 C1798 1.429 . S
C1817 C1811 1.429 1_545 S
C1817 C1818 1.523 . S
C1818 C1799 1.368 1_545 S
C1818 C1812 1.368 . S
C1818 C1817 1.523 . S
C1819 C1803 1.429 1_545 S
C1819 C1815 1.429 . S
C1819 C1820 1.523 . S
C1820 C1804 1.368 . S
C1820 C1816 1.368 1_545 S
C1820 C1819 1.523 . S
H1821 C1796 0.950 . S
H1822 C1798 0.950 . S
H1823 C1799 0.949 . S
H1824 C1801 0.950 . S
H1825 C1803 0.950 . S
C1826 C1827 1.349 . S
C1826 C1828 1.327 . S
C1826 H1851 0.950 . S
C1827 C1826 1.349 . S
C1827 C1843 1.349 . S
C1828 C1826 1.327 . S
C1828 C1847 1.429 . S
C1828 H1852 0.950 . S
C1829 C1846 1.574 . S
C1829 C1848 1.368 . S
C1829 H1853 0.949 . S
H1830 C1834 0.949 . S
C1831 C1832 1.349 . S
C1831 C1833 1.327 . S
C1831 H1854 0.950 . S
C1832 C1831 1.349 . S
C1832 C1844 1.349 . S
C1833 C1831 1.327 . S
C1833 C1849 1.429 . S
C1833 H1855 0.950 . S
C1834 H1830 0.949 . S
C1834 C1842 1.574 . S
C1834 C1850 1.368 . S
H1835 C1843 0.950 . S
H1836 C1841 0.950 . S
H1837 C1842 0.949 . S
H1838 C1844 0.950 . S
H1839 C1845 0.950 . S
H1840 C1846 0.949 . S
C1841 H1836 0.950 . S
C1841 C1843 1.327 . S
C1841 C1847 1.429 . S
C1842 C1834 1.574 . S
C1842 H1837 0.949 . S
C1842 C1848 1.368 . S
C1843 C1827 1.349 . S
C1843 H1835 0.950 . S
C1843 C1841 1.327 . S
C1844 C1832 1.349 . S
C1844 H1838 0.950 . S
C1844 C1845 1.327 . S
C1845 H1839 0.950 . S
C1845 C1844 1.327 . S
C1845 C1849 1.429 . S
C1846 C1829 1.574 . S
C1846 H1840 0.949 . S
C1846 C1850 1.368 . S
C1847 C1828 1.429 . S
C1847 C1841 1.429 . S
C1847 C1848 1.523 . S
C1848 C1829 1.368 . S
C1848 C1842 1.368 . S
C1848 C1847 1.523 . S
C1849 C1833 1.429 . S
C1849 C1845 1.429 . S
C1849 C1850 1.523 . S
C1850 C1834 1.368 . S
C1850 C1846 1.368 . S
C1850 C1849 1.523 . S
H1851 C1826 0.950 . S
H1852 C1828 0.950 . S
H1853 C1829 0.949 . S
H1854 C1831 0.950 . S
H1855 C1833 0.950 . S
C1856 C1857 1.349 . S
C1856 C1858 1.327 . S
C1856 H1881 0.950 . S
C1857 C1856 1.349 . S
C1857 C1873 1.349 . S
C1858 C1856 1.327 . S
C1858 C1877 1.429 . S
C1858 H1882 0.950 . S
C1859 C1876 1.579 . S
C1859 C1878 1.327 1_556 S
C1859 H1883 0.983 . S
H1860 C1864 0.949 . S
C1861 C1862 1.349 1_556 S
C1861 C1863 1.327 . S
C1861 H1884 0.950 . S
C1862 C1861 1.349 1_554 S
C1862 C1874 1.349 . S
C1863 C1861 1.327 . S
C1863 C1879 1.429 1_556 S
C1863 H1885 0.950 . S
C1864 H1860 0.949 . S
C1864 C1872 1.574 . S
C1864 C1880 1.368 . S
H1865 C1873 0.950 1_556 S
H1866 C1871 0.950 1_556 S
H1867 C1872 0.949 . S
H1868 C1874 0.950 . S
H1869 C1875 0.950 . S
H1870 C1876 0.949 . S
C1871 H1866 0.950 1_554 S
C1871 C1873 1.327 . S
C1871 C1877 1.429 . S
C1872 C1864 1.574 . S
C1872 H1867 0.949 . S
C1872 C1878 1.368 . S
C1873 C1857 1.349 . S
C1873 H1865 0.950 1_554 S
C1873 C1871 1.327 . S
C1874 C1862 1.349 . S
C1874 H1868 0.950 . S
C1874 C1875 1.327 . S
C1875 H1869 0.950 . S
C1875 C1874 1.327 . S
C1875 C1879 1.429 . S
C1876 C1859 1.579 . S
C1876 H1870 0.949 . S
C1876 C1880 1.368 1_556 S
C1877 C1858 1.429 . S
C1877 C1871 1.429 . S
C1877 C1878 1.523 . S
C1878 C1859 1.327 1_554 S
C1878 C1872 1.368 . S
C1878 C1877 1.523 . S
C1879 C1863 1.429 1_554 S
C1879 C1875 1.429 . S
C1879 C1880 1.523 . S
C1880 C1864 1.368 . S
C1880 C1876 1.368 1_554 S
C1880 C1879 1.523 . S
H1881 C1856 0.950 . S
H1882 C1858 0.950 . S
H1883 C1859 0.983 . S
H1884 C1861 0.950 . S
H1885 C1863 0.950 . S
C1886 C1887 1.349 . S
C1886 C1888 1.327 . S
C1886 H1911 0.950 . S
C1887 C1886 1.349 . S
C1887 C1903 1.349 . S
C1888 C1886 1.327 . S
C1888 C1907 1.429 . S
C1888 H1912 0.950 . S
C1889 C1906 1.574 . S
C1889 C1908 1.368 . S
C1889 H1913 0.949 . S
H1890 C1894 0.949 . S
C1891 C1892 1.349 . S
C1891 C1893 1.327 . S
C1891 H1914 0.950 . S
C1892 C1891 1.349 . S
C1892 C1904 1.349 . S
C1893 C1891 1.327 . S
C1893 C1909 1.429 . S
C1893 H1915 0.950 . S
C1894 H1890 0.949 . S
C1894 C1902 1.574 . S
C1894 C1910 1.368 . S
H1895 C1903 0.950 . S
H1896 C1901 0.950 . S
H1897 C1902 0.949 . S
H1898 C1904 0.950 . S
H1899 C1905 0.950 . S
H1900 C1906 0.949 . S
C1901 H1896 0.950 . S
C1901 C1903 1.327 . S
C1901 C1907 1.429 . S
C1902 C1894 1.574 . S
C1902 H1897 0.949 . S
C1902 C1908 1.368 . S
C1903 C1887 1.349 . S
C1903 H1895 0.950 . S
C1903 C1901 1.327 . S
C1904 C1892 1.349 . S
C1904 H1898 0.950 . S
C1904 C1905 1.327 . S
C1905 H1899 0.950 . S
C1905 C1904 1.327 . S
C1905 C1909 1.429 . S
C1906 C1889 1.574 . S
C1906 H1900 0.949 . S
C1906 C1910 1.368 . S
C1907 C1888 1.429 . S
C1907 C1901 1.429 . S
C1907 C1908 1.523 . S
C1908 C1889 1.368 . S
C1908 C1902 1.368 . S
C1908 C1907 1.523 . S
C1909 C1893 1.429 . S
C1909 C1905 1.429 . S
C1909 C1910 1.523 . S
C1910 C1894 1.368 . S
C1910 C1906 1.368 . S
C1910 C1909 1.523 . S
H1911 C1886 0.950 . S
H1912 C1888 0.950 . S
H1913 C1889 0.949 . S
H1914 C1891 0.950 . S
H1915 C1893 0.950 . S
C1916 C1917 1.349 . S
C1916 C1918 1.327 . S
C1916 H1941 0.950 . S
C1917 C1916 1.349 . S
C1917 C1933 1.349 . S
C1918 C1916 1.327 . S
C1918 C1937 1.429 . S
C1918 H1942 0.950 . S
C1919 C1936 1.574 . S
C1919 C1938 1.368 . S
C1919 H1943 0.949 . S
H1920 C1924 0.949 . S
C1921 C1922 1.349 . S
C1921 C1923 1.327 . S
C1921 H1944 0.950 . S
C1922 C1921 1.349 . S
C1922 C1934 1.349 . S
C1923 C1921 1.327 . S
C1923 C1939 1.429 . S
C1923 H1945 0.950 . S
C1924 H1920 0.949 . S
C1924 C1932 1.574 . S
C1924 C1940 1.368 . S
H1925 C1933 0.950 . S
H1926 C1931 0.950 . S
H1927 C1932 0.949 . S
H1928 C1934 0.950 . S
H1929 C1935 0.950 . S
H1930 C1936 0.949 . S
C1931 H1926 0.950 . S
C1931 C1933 1.327 . S
C1931 C1937 1.429 . S
C1932 C1924 1.574 . S
C1932 H1927 0.949 . S
C1932 C1938 1.368 . S
C1933 C1917 1.349 . S
C1933 H1925 0.950 . S
C1933 C1931 1.327 . S
C1934 C1922 1.349 . S
C1934 H1928 0.950 . S
C1934 C1935 1.327 . S
C1935 H1929 0.950 . S
C1935 C1934 1.327 . S
C1935 C1939 1.429 . S
C1936 C1919 1.574 . S
C1936 H1930 0.949 . S
C1936 C1940 1.368 . S
C1937 C1918 1.429 . S
C1937 C1931 1.429 . S
C1937 C1938 1.523 . S
C1938 C1919 1.368 . S
C1938 C1932 1.368 . S
C1938 C1937 1.523 . S
C1939 C1923 1.429 . S
C1939 C1935 1.429 . S
C1939 C1940 1.523 . S
C1940 C1924 1.368 . S
C1940 C1936 1.368 . S
C1940 C1939 1.523 . S
H1941 C1916 0.950 . S
H1942 C1918 0.950 . S
H1943 C1919 0.949 . S
H1944 C1921 0.950 . S
H1945 C1923 0.950 . S
C1946 C1947 1.349 . S
C1946 C1948 1.327 . S
C1946 H1971 0.950 . S
C1947 C1946 1.349 . S
C1947 C1963 1.349 . S
C1948 C1946 1.327 . S
C1948 C1967 1.429 . S
C1948 H1972 0.950 . S
C1949 C1966 1.574 . S
C1949 C1968 1.368 . S
C1949 H1973 0.949 . S
H1950 C1954 0.949 . S
C1951 C1952 1.349 . S
C1951 C1953 1.327 . S
C1951 H1974 0.950 . S
C1952 C1951 1.349 . S
C1952 C1964 1.349 . S
C1953 C1951 1.327 . S
C1953 C1969 1.429 . S
C1953 H1975 0.950 . S
C1954 H1950 0.949 . S
C1954 C1962 1.574 . S
C1954 C1970 1.368 . S
H1955 C1963 0.950 . S
H1956 C1961 0.950 . S
H1957 C1962 0.949 . S
H1958 C1964 0.950 . S
H1959 C1965 0.950 . S
H1960 C1966 0.949 . S
C1961 H1956 0.950 . S
C1961 C1963 1.327 . S
C1961 C1967 1.429 . S
C1962 C1954 1.574 . S
C1962 H1957 0.949 . S
C1962 C1968 1.368 . S
C1963 C1947 1.349 . S
C1963 H1955 0.950 . S
C1963 C1961 1.327 . S
C1964 C1952 1.349 . S
C1964 H1958 0.950 . S
C1964 C1965 1.327 . S
C1965 H1959 0.950 . S
C1965 C1964 1.327 . S
C1965 C1969 1.429 . S
C1966 C1949 1.574 . S
C1966 H1960 0.949 . S
C1966 C1970 1.368 . S
C1967 C1948 1.429 . S
C1967 C1961 1.429 . S
C1967 C1968 1.523 . S
C1968 C1949 1.368 . S
C1968 C1962 1.368 . S
C1968 C1967 1.523 . S
C1969 C1953 1.429 . S
C1969 C1965 1.429 . S
C1969 C1970 1.523 . S
C1970 C1954 1.368 . S
C1970 C1966 1.368 . S
C1970 C1969 1.523 . S
H1971 C1946 0.950 . S
H1972 C1948 0.950 . S
H1973 C1949 0.949 . S
H1974 C1951 0.950 . S
H1975 C1953 0.950 . S
C1976 C1977 1.349 . S
C1976 C1978 1.327 . S
C1976 H2001 0.950 . S
C1977 C1976 1.349 . S
C1977 C1993 1.349 . S
C1978 C1976 1.327 . S
C1978 C1997 1.429 . S
C1978 H2002 0.950 . S
C1979 C1996 1.574 . S
C1979 C1998 1.368 . S
C1979 H2003 0.949 . S
H1980 C1984 0.949 . S
C1981 C1982 1.349 . S
C1981 C1983 1.327 . S
C1981 H2004 0.950 . S
C1982 C1981 1.349 . S
C1982 C1994 1.349 . S
C1983 C1981 1.327 . S
C1983 C1999 1.429 . S
C1983 H2005 0.950 . S
C1984 H1980 0.949 . S
C1984 C1992 1.574 . S
C1984 C2000 1.368 . S
H1985 C1993 0.950 . S
H1986 C1991 0.950 . S
H1987 C1992 0.949 . S
H1988 C1994 0.950 . S
H1989 C1995 0.950 . S
H1990 C1996 0.949 . S
C1991 H1986 0.950 . S
C1991 C1993 1.327 . S
C1991 C1997 1.429 . S
C1992 C1984 1.574 . S
C1992 H1987 0.949 . S
C1992 C1998 1.368 . S
C1993 C1977 1.349 . S
C1993 H1985 0.950 . S
C1993 C1991 1.327 . S
C1994 C1982 1.349 . S
C1994 H1988 0.950 . S
C1994 C1995 1.327 . S
C1995 H1989 0.950 . S
C1995 C1994 1.327 . S
C1995 C1999 1.429 . S
C1996 C1979 1.574 . S
C1996 H1990 0.949 . S
C1996 C2000 1.368 . S
C1997 C1978 1.429 . S
C1997 C1991 1.429 . S
C1997 C1998 1.523 . S
C1998 C1979 1.368 . S
C1998 C1992 1.368 . S
C1998 C1997 1.523 . S
C1999 C1983 1.429 . S
C1999 C1995 1.429 . S
C1999 C2000 1.523 . S
C2000 C1984 1.368 . S
C2000 C1996 1.368 . S
C2000 C1999 1.523 . S
H2001 C1976 0.950 . S
H2002 C1978 0.950 . S
H2003 C1979 0.949 . S
H2004 C1981 0.950 . S
H2005 C1983 0.950 . S
C2006 C2007 1.349 . S
C2006 C2008 1.327 . S
C2006 H2031 0.950 . S
C2007 C2006 1.349 . S
C2007 C2023 1.349 . S
C2008 C2006 1.327 . S
C2008 C2027 1.429 . S
C2008 H2032 0.950 . S
C2009 C2026 1.574 . S
C2009 C2028 1.368 . S
C2009 H2033 0.949 . S
H2010 C2014 0.949 . S
C2011 C2012 1.349 . S
C2011 C2013 1.327 . S
C2011 H2034 0.950 . S
C2012 C2011 1.349 . S
C2012 C2024 1.349 . S
C2013 C2011 1.327 . S
C2013 C2029 1.429 . S
C2013 H2035 0.950 . S
C2014 H2010 0.949 . S
C2014 C2022 1.574 . S
C2014 C2030 1.368 . S
H2015 C2023 0.950 . S
H2016 C2021 0.950 . S
H2017 C2022 0.949 . S
H2018 C2024 0.950 . S
H2019 C2025 0.950 . S
H2020 C2026 0.949 . S
C2021 H2016 0.950 . S
C2021 C2023 1.327 . S
C2021 C2027 1.429 . S
C2022 C2014 1.574 . S
C2022 H2017 0.949 . S
C2022 C2028 1.368 . S
C2023 C2007 1.349 . S
C2023 H2015 0.950 . S
C2023 C2021 1.327 . S
C2024 C2012 1.349 . S
C2024 H2018 0.950 . S
C2024 C2025 1.327 . S
C2025 H2019 0.950 . S
C2025 C2024 1.327 . S
C2025 C2029 1.429 . S
C2026 C2009 1.574 . S
C2026 H2020 0.949 . S
C2026 C2030 1.368 . S
C2027 C2008 1.429 . S
C2027 C2021 1.429 . S
C2027 C2028 1.523 . S
C2028 C2009 1.368 . S
C2028 C2022 1.368 . S
C2028 C2027 1.523 . S
C2029 C2013 1.429 . S
C2029 C2025 1.429 . S
C2029 C2030 1.523 . S
C2030 C2014 1.368 . S
C2030 C2026 1.368 . S
C2030 C2029 1.523 . S
H2031 C2006 0.950 . S
H2032 C2008 0.950 . S
H2033 C2009 0.949 . S
H2034 C2011 0.950 . S
H2035 C2013 0.950 . S
C2036 C2037 1.349 . S
C2036 C2038 1.327 . S
C2036 H2061 0.950 . S
C2037 C2036 1.349 . S
C2037 C2053 1.349 . S
C2038 C2036 1.327 . S
C2038 C2057 1.429 . S
C2038 H2062 0.950 . S
C2039 C2056 1.574 . S
C2039 C2058 1.368 . S
C2039 H2063 0.949 . S
H2040 C2044 0.949 . S
C2041 C2042 1.349 . S
C2041 C2043 1.327 . S
C2041 H2064 0.950 . S
C2042 C2041 1.349 . S
C2042 C2054 1.349 . S
C2043 C2041 1.327 . S
C2043 C2059 1.429 . S
C2043 H2065 0.950 . S
C2044 H2040 0.949 . S
C2044 C2052 1.574 . S
C2044 C2060 1.368 . S
H2045 C2053 0.950 . S
H2046 C2051 0.950 . S
H2047 C2052 0.949 . S
H2048 C2054 0.950 . S
H2049 C2055 0.950 . S
H2050 C2056 0.949 . S
C2051 H2046 0.950 . S
C2051 C2053 1.327 . S
C2051 C2057 1.429 . S
C2052 C2044 1.574 . S
C2052 H2047 0.949 . S
C2052 C2058 1.368 . S
C2053 C2037 1.349 . S
C2053 H2045 0.950 . S
C2053 C2051 1.327 . S
C2054 C2042 1.349 . S
C2054 H2048 0.950 . S
C2054 C2055 1.327 . S
C2055 H2049 0.950 . S
C2055 C2054 1.327 . S
C2055 C2059 1.429 . S
C2056 C2039 1.574 . S
C2056 H2050 0.949 . S
C2056 C2060 1.368 . S
C2057 C2038 1.429 . S
C2057 C2051 1.429 . S
C2057 C2058 1.523 . S
C2058 C2039 1.368 . S
C2058 C2052 1.368 . S
C2058 C2057 1.523 . S
C2059 C2043 1.429 . S
C2059 C2055 1.429 . S
C2059 C2060 1.523 . S
C2060 C2044 1.368 . S
C2060 C2056 1.368 . S
C2060 C2059 1.523 . S
H2061 C2036 0.950 . S
H2062 C2038 0.950 . S
H2063 C2039 0.949 . S
H2064 C2041 0.950 . S
H2065 C2043 0.950 . S
C2066 C2067 1.349 . S
C2066 C2068 1.327 . S
C2066 H2091 0.950 . S
C2067 C2066 1.349 . S
C2067 C2083 1.349 . S
C2068 C2066 1.327 . S
C2068 C2087 1.429 . S
C2068 H2092 0.950 . S
C2069 C2086 1.574 . S
C2069 C2088 1.368 . S
C2069 H2093 0.949 . S
H2070 C2074 0.949 . S
C2071 C2072 1.349 . S
C2071 C2073 1.327 . S
C2071 H2094 0.950 . S
C2072 C2071 1.349 . S
C2072 C2084 1.349 . S
C2073 C2071 1.327 . S
C2073 C2089 1.429 . S
C2073 H2095 0.950 . S
C2074 H2070 0.949 . S
C2074 C2082 1.574 . S
C2074 C2090 1.368 . S
H2075 C2083 0.950 . S
H2076 C2081 0.950 . S
H2077 C2082 0.949 . S
H2078 C2084 0.950 . S
H2079 C2085 0.950 . S
H2080 C2086 0.949 . S
C2081 H2076 0.950 . S
C2081 C2083 1.327 . S
C2081 C2087 1.429 . S
C2082 C2074 1.574 . S
C2082 H2077 0.949 . S
C2082 C2088 1.368 . S
C2083 C2067 1.349 . S
C2083 H2075 0.950 . S
C2083 C2081 1.327 . S
C2084 C2072 1.349 . S
C2084 H2078 0.950 . S
C2084 C2085 1.327 . S
C2085 H2079 0.950 . S
C2085 C2084 1.327 . S
C2085 C2089 1.429 . S
C2086 C2069 1.574 . S
C2086 H2080 0.949 . S
C2086 C2090 1.368 . S
C2087 C2068 1.429 . S
C2087 C2081 1.429 . S
C2087 C2088 1.523 . S
C2088 C2069 1.368 . S
C2088 C2082 1.368 . S
C2088 C2087 1.523 . S
C2089 C2073 1.429 . S
C2089 C2085 1.429 . S
C2089 C2090 1.523 . S
C2090 C2074 1.368 . S
C2090 C2086 1.368 . S
C2090 C2089 1.523 . S
H2091 C2066 0.950 . S
H2092 C2068 0.950 . S
H2093 C2069 0.949 . S
H2094 C2071 0.950 . S
H2095 C2073 0.950 . S
C2096 C2097 1.349 . S
C2096 C2098 1.327 . S
C2096 H2121 0.950 . S
C2097 C2096 1.349 . S
C2097 C2113 1.349 . S
C2098 C2096 1.327 . S
C2098 C2117 1.429 . S
C2098 H2122 0.950 . S
C2099 C2116 1.574 . S
C2099 C2118 1.368 . S
C2099 H2123 0.949 . S
H2100 C2104 0.949 . S
C2101 C2102 1.349 . S
C2101 C2103 1.327 . S
C2101 H2124 0.950 . S
C2102 C2101 1.349 . S
C2102 C2114 1.349 . S
C2103 C2101 1.327 . S
C2103 C2119 1.429 . S
C2103 H2125 0.950 . S
C2104 H2100 0.949 . S
C2104 C2112 1.574 . S
C2104 C2120 1.368 . S
H2105 C2113 0.950 . S
H2106 C2111 0.950 . S
H2107 C2112 0.949 . S
H2108 C2114 0.950 . S
H2109 C2115 0.950 . S
H2110 C2116 0.949 . S
C2111 H2106 0.950 . S
C2111 C2113 1.327 . S
C2111 C2117 1.429 . S
C2112 C2104 1.574 . S
C2112 H2107 0.949 . S
C2112 C2118 1.368 . S
C2113 C2097 1.349 . S
C2113 H2105 0.950 . S
C2113 C2111 1.327 . S
C2114 C2102 1.349 . S
C2114 H2108 0.950 . S
C2114 C2115 1.327 . S
C2115 H2109 0.950 . S
C2115 C2114 1.327 . S
C2115 C2119 1.429 . S
C2116 C2099 1.574 . S
C2116 H2110 0.949 . S
C2116 C2120 1.368 . S
C2117 C2098 1.429 . S
C2117 C2111 1.429 . S
C2117 C2118 1.523 . S
C2118 C2099 1.368 . S
C2118 C2112 1.368 . S
C2118 C2117 1.523 . S
C2119 C2103 1.429 . S
C2119 C2115 1.429 . S
C2119 C2120 1.523 . S
C2120 C2104 1.368 . S
C2120 C2116 1.368 . S
C2120 C2119 1.523 . S
H2121 C2096 0.950 . S
H2122 C2098 0.950 . S
H2123 C2099 0.949 . S
H2124 C2101 0.950 . S
H2125 C2103 0.950 . S
C2126 C2127 1.349 . S
C2126 C2128 1.327 . S
C2126 H2151 0.950 . S
C2127 C2126 1.349 . S
C2127 C2143 1.349 . S
C2128 C2126 1.327 . S
C2128 C2147 1.429 . S
C2128 H2152 0.950 . S
C2129 C2146 1.574 . S
C2129 C2148 1.368 . S
C2129 H2153 0.949 . S
H2130 C2134 0.949 . S
C2131 C2132 1.349 . S
C2131 C2133 1.327 . S
C2131 H2154 0.950 . S
C2132 C2131 1.349 . S
C2132 C2144 1.349 . S
C2133 C2131 1.327 . S
C2133 C2149 1.429 . S
C2133 H2155 0.950 . S
C2134 H2130 0.949 . S
C2134 C2142 1.574 . S
C2134 C2150 1.368 . S
H2135 C2143 0.950 . S
H2136 C2141 0.950 . S
H2137 C2142 0.949 . S
H2138 C2144 0.950 . S
H2139 C2145 0.950 . S
H2140 C2146 0.949 . S
C2141 H2136 0.950 . S
C2141 C2143 1.327 . S
C2141 C2147 1.429 . S
C2142 C2134 1.574 . S
C2142 H2137 0.949 . S
C2142 C2148 1.368 . S
C2143 C2127 1.349 . S
C2143 H2135 0.950 . S
C2143 C2141 1.327 . S
C2144 C2132 1.349 . S
C2144 H2138 0.950 . S
C2144 C2145 1.327 . S
C2145 H2139 0.950 . S
C2145 C2144 1.327 . S
C2145 C2149 1.429 . S
C2146 C2129 1.574 . S
C2146 H2140 0.949 . S
C2146 C2150 1.368 . S
C2147 C2128 1.429 . S
C2147 C2141 1.429 . S
C2147 C2148 1.523 . S
C2148 C2129 1.368 . S
C2148 C2142 1.368 . S
C2148 C2147 1.523 . S
C2149 C2133 1.429 . S
C2149 C2145 1.429 . S
C2149 C2150 1.523 . S
C2150 C2134 1.368 . S
C2150 C2146 1.368 . S
C2150 C2149 1.523 . S
H2151 C2126 0.950 . S
H2152 C2128 0.950 . S
H2153 C2129 0.949 . S
H2154 C2131 0.950 . S
H2155 C2133 0.950 . S
C2156 C2157 1.349 1_655 S
C2156 C2158 1.327 . S
C2156 H2181 0.950 . S
C2157 C2156 1.349 1_455 S
C2157 C2173 1.349 . S
C2158 C2156 1.327 . S
C2158 C2177 1.429 1_655 S
C2158 H2182 0.950 . S
C2159 C2176 1.574 . S
C2159 C2178 1.368 . S
C2159 H2183 0.949 . S
H2160 C2164 0.949 . S
C2161 C2162 1.358 . S
C2161 C2163 1.322 1_554 S
C2161 H2184 0.950 . S
C2162 C2161 1.358 . S
C2162 C2174 1.332 1_454 S
C2163 C2161 1.322 1_556 S
C2163 C2179 1.440 . S
C2163 H2185 0.943 1_556 S
C2164 H2160 0.949 . S
C2164 C2172 1.574 . S
C2164 C2180 1.368 1_655 S
H2165 C2173 0.950 . S
H2166 C2171 0.950 . S
H2167 C2172 0.949 . S
H2168 C2174 0.950 . S
H2169 C2175 0.950 . S
H2170 C2176 0.949 . S
C2171 H2166 0.950 . S
C2171 C2173 1.327 . S
C2171 C2177 1.429 . S
C2172 C2164 1.574 . S
C2172 H2167 0.949 . S
C2172 C2178 1.368 1_655 S
C2173 C2157 1.349 . S
C2173 H2165 0.950 . S
C2173 C2171 1.327 . S
C2174 C2162 1.332 1_656 S
C2174 H2168 0.950 . S
C2174 C2175 1.327 . S
C2175 H2169 0.950 . S
C2175 C2174 1.327 . S
C2175 C2179 1.429 1_655 S
C2176 C2159 1.574 . S
C2176 H2170 0.949 . S
C2176 C2180 1.368 . S
C2177 C2158 1.429 1_455 S
C2177 C2171 1.429 . S
C2177 C2178 1.523 . S
C2178 C2159 1.368 . S
C2178 C2172 1.368 1_455 S
C2178 C2177 1.523 . S
C2179 C2163 1.440 . S
C2179 C2175 1.429 1_455 S
C2179 C2180 1.523 . S
C2180 C2164 1.368 1_455 S
C2180 C2176 1.368 . S
C2180 C2179 1.523 . S
H2181 C2156 0.950 . S
H2182 C2158 0.950 . S
H2183 C2159 0.949 . S
H2184 C2161 0.950 . S
H2185 C2163 0.943 1_554 S
C2186 C2187 1.349 . S
C2186 C2188 1.327 . S
C2186 H2211 0.950 . S
C2187 C2186 1.349 . S
C2187 C2203 1.349 . S
C2188 C2186 1.327 . S
C2188 C2207 1.429 . S
C2188 H2212 0.950 . S
C2189 C2206 1.574 . S
C2189 C2208 1.368 . S
C2189 H2213 0.949 . S
H2190 C2194 0.949 . S
C2191 C2192 1.349 . S
C2191 C2193 1.327 . S
C2191 H2214 0.950 . S
C2192 C2191 1.349 . S
C2192 C2204 1.349 . S
C2193 C2191 1.327 . S
C2193 C2209 1.429 . S
C2193 H2215 0.950 . S
C2194 H2190 0.949 . S
C2194 C2202 1.574 . S
C2194 C2210 1.368 . S
H2195 C2203 0.950 . S
H2196 C2201 0.950 . S
H2197 C2202 0.949 . S
H2198 C2204 0.950 . S
H2199 C2205 0.950 . S
H2200 C2206 0.949 . S
C2201 H2196 0.950 . S
C2201 C2203 1.327 . S
C2201 C2207 1.429 . S
C2202 C2194 1.574 . S
C2202 H2197 0.949 . S
C2202 C2208 1.368 . S
C2203 C2187 1.349 . S
C2203 H2195 0.950 . S
C2203 C2201 1.327 . S
C2204 C2192 1.349 . S
C2204 H2198 0.950 . S
C2204 C2205 1.327 . S
C2205 H2199 0.950 . S
C2205 C2204 1.327 . S
C2205 C2209 1.429 . S
C2206 C2189 1.574 . S
C2206 H2200 0.949 . S
C2206 C2210 1.368 . S
C2207 C2188 1.429 . S
C2207 C2201 1.429 . S
C2207 C2208 1.523 . S
C2208 C2189 1.368 . S
C2208 C2202 1.368 . S
C2208 C2207 1.523 . S
C2209 C2193 1.429 . S
C2209 C2205 1.429 . S
C2209 C2210 1.523 . S
C2210 C2194 1.368 . S
C2210 C2206 1.368 . S
C2210 C2209 1.523 . S
H2211 C2186 0.950 . S
H2212 C2188 0.950 . S
H2213 C2189 0.949 . S
H2214 C2191 0.950 . S
H2215 C2193 0.950 . S
C2216 C2217 1.349 . S
C2216 C2218 1.327 . S
C2216 H2241 0.950 . S
C2217 C2216 1.349 . S
C2217 C2233 1.349 . S
C2218 C2216 1.327 . S
C2218 C2237 1.429 . S
C2218 H2242 0.950 . S
C2219 C2236 1.574 . S
C2219 C2238 1.368 . S
C2219 H2243 0.949 . S
H2220 C2224 0.949 . S
C2221 C2222 1.349 . S
C2221 C2223 1.327 . S
C2221 H2244 0.950 . S
C2222 C2221 1.349 . S
C2222 C2234 1.349 . S
C2223 C2221 1.327 . S
C2223 C2239 1.429 . S
C2223 H2245 0.950 . S
C2224 H2220 0.949 . S
C2224 C2232 1.574 . S
C2224 C2240 1.368 . S
H2225 C2233 0.950 . S
H2226 C2231 0.950 . S
H2227 C2232 0.949 . S
H2228 C2234 0.950 . S
H2229 C2235 0.950 . S
H2230 C2236 0.949 . S
C2231 H2226 0.950 . S
C2231 C2233 1.327 . S
C2231 C2237 1.429 . S
C2232 C2224 1.574 . S
C2232 H2227 0.949 . S
C2232 C2238 1.368 . S
C2233 C2217 1.349 . S
C2233 H2225 0.950 . S
C2233 C2231 1.327 . S
C2234 C2222 1.349 . S
C2234 H2228 0.950 . S
C2234 C2235 1.327 . S
C2235 H2229 0.950 . S
C2235 C2234 1.327 . S
C2235 C2239 1.429 . S
C2236 C2219 1.574 . S
C2236 H2230 0.949 . S
C2236 C2240 1.368 . S
C2237 C2218 1.429 . S
C2237 C2231 1.429 . S
C2237 C2238 1.523 . S
C2238 C2219 1.368 . S
C2238 C2232 1.368 . S
C2238 C2237 1.523 . S
C2239 C2223 1.429 . S
C2239 C2235 1.429 . S
C2239 C2240 1.523 . S
C2240 C2224 1.368 . S
C2240 C2236 1.368 . S
C2240 C2239 1.523 . S
H2241 C2216 0.950 . S
H2242 C2218 0.950 . S
H2243 C2219 0.949 . S
H2244 C2221 0.950 . S
H2245 C2223 0.950 . S
C2246 C2247 1.349 . S
C2246 C2248 1.327 . S
C2246 H2271 0.950 . S
C2247 C2246 1.349 . S
C2247 C2263 1.349 . S
C2248 C2246 1.327 . S
C2248 C2267 1.429 . S
C2248 H2272 0.950 . S
C2249 C2266 1.574 . S
C2249 C2268 1.368 . S
C2249 H2273 0.949 . S
H2250 C2254 0.949 . S
C2251 C2252 1.349 . S
C2251 C2253 1.327 . S
C2251 H2274 0.950 . S
C2252 C2251 1.349 . S
C2252 C2264 1.349 . S
C2253 C2251 1.327 . S
C2253 C2269 1.429 . S
C2253 H2275 0.950 . S
C2254 H2250 0.949 . S
C2254 C2262 1.574 . S
C2254 C2270 1.368 . S
H2255 C2263 0.950 . S
H2256 C2261 0.950 . S
H2257 C2262 0.949 . S
H2258 C2264 0.950 . S
H2259 C2265 0.950 . S
H2260 C2266 0.949 . S
C2261 H2256 0.950 . S
C2261 C2263 1.327 . S
C2261 C2267 1.429 . S
C2262 C2254 1.574 . S
C2262 H2257 0.949 . S
C2262 C2268 1.368 . S
C2263 C2247 1.349 . S
C2263 H2255 0.950 . S
C2263 C2261 1.327 . S
C2264 C2252 1.349 . S
C2264 H2258 0.950 . S
C2264 C2265 1.327 . S
C2265 H2259 0.950 . S
C2265 C2264 1.327 . S
C2265 C2269 1.429 . S
C2266 C2249 1.574 . S
C2266 H2260 0.949 . S
C2266 C2270 1.368 . S
C2267 C2248 1.429 . S
C2267 C2261 1.429 . S
C2267 C2268 1.523 . S
C2268 C2249 1.368 . S
C2268 C2262 1.368 . S
C2268 C2267 1.523 . S
C2269 C2253 1.429 . S
C2269 C2265 1.429 . S
C2269 C2270 1.523 . S
C2270 C2254 1.368 . S
C2270 C2266 1.368 . S
C2270 C2269 1.523 . S
H2271 C2246 0.950 . S
H2272 C2248 0.950 . S
H2273 C2249 0.949 . S
H2274 C2251 0.950 . S
H2275 C2253 0.950 . S
C2276 C2277 1.349 1_655 S
C2276 C2278 1.327 . S
C2276 H2301 0.950 . S
C2277 C2276 1.349 1_455 S
C2277 C2293 1.349 . S
C2278 C2276 1.327 . S
C2278 C2297 1.429 1_655 S
C2278 H2302 0.950 . S
C2279 C2296 1.574 . S
C2279 C2298 1.368 . S
C2279 H2303 0.949 . S
H2280 C2284 0.949 . S
C2281 C2282 1.349 . S
C2281 C2283 1.327 . S
C2281 H2304 0.950 . S
C2282 C2281 1.349 . S
C2282 C2294 1.349 1_455 S
C2283 C2281 1.327 . S
C2283 C2299 1.429 . S
C2283 H2305 0.950 . S
C2284 H2280 0.949 . S
C2284 C2292 1.574 . S
C2284 C2300 1.368 1_655 S
H2285 C2293 0.950 . S
H2286 C2291 0.950 . S
H2287 C2292 0.949 . S
H2288 C2294 0.950 . S
H2289 C2295 0.950 . S
H2290 C2296 0.949 . S
C2291 H2286 0.950 . S
C2291 C2293 1.327 . S
C2291 C2297 1.429 . S
C2292 C2284 1.574 . S
C2292 H2287 0.949 . S
C2292 C2298 1.368 1_655 S
C2293 C2277 1.349 . S
C2293 H2285 0.950 . S
C2293 C2291 1.327 . S
C2294 C2282 1.349 1_655 S
C2294 H2288 0.950 . S
C2294 C2295 1.327 . S
C2295 H2289 0.950 . S
C2295 C2294 1.327 . S
C2295 C2299 1.429 1_655 S
C2296 C2279 1.574 . S
C2296 H2290 0.949 . S
C2296 C2300 1.368 . S
C2297 C2278 1.429 1_455 S
C2297 C2291 1.429 . S
C2297 C2298 1.523 . S
C2298 C2279 1.368 . S
C2298 C2292 1.368 1_455 S
C2298 C2297 1.523 . S
C2299 C2283 1.429 . S
C2299 C2295 1.429 1_455 S
C2299 C2300 1.523 . S
C2300 C2284 1.368 1_455 S
C2300 C2296 1.368 . S
C2300 C2299 1.523 . S
H2301 C2276 0.950 . S
H2302 C2278 0.950 . S
H2303 C2279 0.949 . S
H2304 C2281 0.950 . S
H2305 C2283 0.950 . S
C2306 C2307 1.349 . S
C2306 C2308 1.327 . S
C2306 H2331 0.950 . S
C2307 C2306 1.349 . S
C2307 C2323 1.349 . S
C2308 C2306 1.327 . S
C2308 C2327 1.429 . S
C2308 H2332 0.950 . S
C2309 C2326 1.574 . S
C2309 C2328 1.368 . S
C2309 H2333 0.949 . S
H2310 C2314 0.949 . S
C2311 C2312 1.349 . S
C2311 C2313 1.327 . S
C2311 H2334 0.950 . S
C2312 C2311 1.349 . S
C2312 C2324 1.349 . S
C2313 C2311 1.327 . S
C2313 C2329 1.429 . S
C2313 H2335 0.950 . S
C2314 H2310 0.949 . S
C2314 C2322 1.574 . S
C2314 C2330 1.368 . S
H2315 C2323 0.950 . S
H2316 C2321 0.950 . S
H2317 C2322 0.949 . S
H2318 C2324 0.950 . S
H2319 C2325 0.950 . S
H2320 C2326 0.949 . S
C2321 H2316 0.950 . S
C2321 C2323 1.327 . S
C2321 C2327 1.429 . S
C2322 C2314 1.574 . S
C2322 H2317 0.949 . S
C2322 C2328 1.368 . S
C2323 C2307 1.349 . S
C2323 H2315 0.950 . S
C2323 C2321 1.327 . S
C2324 C2312 1.349 . S
C2324 H2318 0.950 . S
C2324 C2325 1.327 . S
C2325 H2319 0.950 . S
C2325 C2324 1.327 . S
C2325 C2329 1.429 . S
C2326 C2309 1.574 . S
C2326 H2320 0.949 . S
C2326 C2330 1.368 . S
C2327 C2308 1.429 . S
C2327 C2321 1.429 . S
C2327 C2328 1.523 . S
C2328 C2309 1.368 . S
C2328 C2322 1.368 . S
C2328 C2327 1.523 . S
C2329 C2313 1.429 . S
C2329 C2325 1.429 . S
C2329 C2330 1.523 . S
C2330 C2314 1.368 . S
C2330 C2326 1.368 . S
C2330 C2329 1.523 . S
H2331 C2306 0.950 . S
H2332 C2308 0.950 . S
H2333 C2309 0.949 . S
H2334 C2311 0.950 . S
H2335 C2313 0.950 . S
C2336 C2337 1.349 . S
C2336 C2338 1.327 . S
C2336 H2361 0.950 . S
C2337 C2336 1.349 . S
C2337 C2353 1.349 . S
C2338 C2336 1.327 . S
C2338 C2357 1.429 . S
C2338 H2362 0.950 . S
C2339 C2356 1.574 . S
C2339 C2358 1.368 . S
C2339 H2363 0.949 . S
H2340 C2344 0.949 . S
C2341 C2342 1.349 . S
C2341 C2343 1.327 . S
C2341 H2364 0.950 . S
C2342 C2341 1.349 . S
C2342 C2354 1.349 . S
C2343 C2341 1.327 . S
C2343 C2359 1.429 . S
C2343 H2365 0.950 . S
C2344 H2340 0.949 . S
C2344 C2352 1.574 . S
C2344 C2360 1.368 . S
H2345 C2353 0.950 . S
H2346 C2351 0.950 . S
H2347 C2352 0.949 . S
H2348 C2354 0.950 . S
H2349 C2355 0.950 . S
H2350 C2356 0.949 . S
C2351 H2346 0.950 . S
C2351 C2353 1.327 . S
C2351 C2357 1.429 . S
C2352 C2344 1.574 . S
C2352 H2347 0.949 . S
C2352 C2358 1.368 . S
C2353 C2337 1.349 . S
C2353 H2345 0.950 . S
C2353 C2351 1.327 . S
C2354 C2342 1.349 . S
C2354 H2348 0.950 . S
C2354 C2355 1.327 . S
C2355 H2349 0.950 . S
C2355 C2354 1.327 . S
C2355 C2359 1.429 . S
C2356 C2339 1.574 . S
C2356 H2350 0.949 . S
C2356 C2360 1.368 . S
C2357 C2338 1.429 . S
C2357 C2351 1.429 . S
C2357 C2358 1.523 . S
C2358 C2339 1.368 . S
C2358 C2352 1.368 . S
C2358 C2357 1.523 . S
C2359 C2343 1.429 . S
C2359 C2355 1.429 . S
C2359 C2360 1.523 . S
C2360 C2344 1.368 . S
C2360 C2356 1.368 . S
C2360 C2359 1.523 . S
H2361 C2336 0.950 . S
H2362 C2338 0.950 . S
H2363 C2339 0.949 . S
H2364 C2341 0.950 . S
H2365 C2343 0.950 . S
C2366 C2367 1.349 . S
C2366 C2368 1.327 . S
C2366 H2391 0.950 . S
C2367 C2366 1.349 . S
C2367 C2383 1.349 . S
C2368 C2366 1.327 . S
C2368 C2387 1.429 . S
C2368 H2392 0.950 . S
C2369 C2386 1.574 . S
C2369 C2388 1.368 . S
C2369 H2393 0.949 . S
H2370 C2374 0.949 . S
C2371 C2372 1.349 . S
C2371 C2373 1.327 . S
C2371 H2394 0.950 . S
C2372 C2371 1.349 . S
C2372 C2384 1.349 . S
C2373 C2371 1.327 . S
C2373 C2389 1.429 . S
C2373 H2395 0.950 . S
C2374 H2370 0.949 . S
C2374 C2382 1.574 . S
C2374 C2390 1.368 . S
H2375 C2383 0.950 . S
H2376 C2381 0.950 . S
H2377 C2382 0.949 . S
H2378 C2384 0.950 . S
H2379 C2385 0.950 . S
H2380 C2386 0.949 . S
C2381 H2376 0.950 . S
C2381 C2383 1.327 . S
C2381 C2387 1.429 . S
C2382 C2374 1.574 . S
C2382 H2377 0.949 . S
C2382 C2388 1.368 . S
C2383 C2367 1.349 . S
C2383 H2375 0.950 . S
C2383 C2381 1.327 . S
C2384 C2372 1.349 . S
C2384 H2378 0.950 . S
C2384 C2385 1.327 . S
C2385 H2379 0.950 . S
C2385 C2384 1.327 . S
C2385 C2389 1.429 . S
C2386 C2369 1.574 . S
C2386 H2380 0.949 . S
C2386 C2390 1.368 . S
C2387 C2368 1.429 . S
C2387 C2381 1.429 . S
C2387 C2388 1.523 . S
C2388 C2369 1.368 . S
C2388 C2382 1.368 . S
C2388 C2387 1.523 . S
C2389 C2373 1.429 . S
C2389 C2385 1.429 . S
C2389 C2390 1.523 . S
C2390 C2374 1.368 . S
C2390 C2386 1.368 . S
C2390 C2389 1.523 . S
H2391 C2366 0.950 . S
H2392 C2368 0.950 . S
H2393 C2369 0.949 . S
H2394 C2371 0.950 . S
H2395 C2373 0.950 . S
C2396 C2397 1.349 . S
C2396 C2398 1.327 . S
C2396 H2421 0.950 . S
C2397 C2396 1.349 . S
C2397 C2413 1.349 . S
C2398 C2396 1.327 . S
C2398 C2417 1.429 . S
C2398 H2422 0.950 . S
C2399 C2416 1.574 . S
C2399 C2418 1.368 . S
C2399 H2423 0.949 . S
H2400 C2404 0.949 . S
C2401 C2402 1.349 . S
C2401 C2403 1.327 . S
C2401 H2424 0.950 . S
C2402 C2401 1.349 . S
C2402 C2414 1.349 . S
C2403 C2401 1.327 . S
C2403 C2419 1.429 . S
C2403 H2425 0.950 . S
C2404 H2400 0.949 . S
C2404 C2412 1.574 . S
C2404 C2420 1.368 . S
H2405 C2413 0.950 . S
H2406 C2411 0.950 . S
H2407 C2412 0.949 . S
H2408 C2414 0.950 . S
H2409 C2415 0.950 . S
H2410 C2416 0.949 . S
C2411 H2406 0.950 . S
C2411 C2413 1.327 . S
C2411 C2417 1.429 . S
C2412 C2404 1.574 . S
C2412 H2407 0.949 . S
C2412 C2418 1.368 . S
C2413 C2397 1.349 . S
C2413 H2405 0.950 . S
C2413 C2411 1.327 . S
C2414 C2402 1.349 . S
C2414 H2408 0.950 . S
C2414 C2415 1.327 . S
C2415 H2409 0.950 . S
C2415 C2414 1.327 . S
C2415 C2419 1.429 . S
C2416 C2399 1.574 . S
C2416 H2410 0.949 . S
C2416 C2420 1.368 . S
C2417 C2398 1.429 . S
C2417 C2411 1.429 . S
C2417 C2418 1.523 . S
C2418 C2399 1.368 . S
C2418 C2412 1.368 . S
C2418 C2417 1.523 . S
C2419 C2403 1.429 . S
C2419 C2415 1.429 . S
C2419 C2420 1.523 . S
C2420 C2404 1.368 . S
C2420 C2416 1.368 . S
C2420 C2419 1.523 . S
H2421 C2396 0.950 . S
H2422 C2398 0.950 . S
H2423 C2399 0.949 . S
H2424 C2401 0.950 . S
H2425 C2403 0.950 . S
C2426 C2427 1.349 . S
C2426 C2428 1.327 . S
C2426 H2451 0.950 . S
C2427 C2426 1.349 . S
C2427 C2443 1.349 . S
C2428 C2426 1.327 . S
C2428 C2447 1.429 . S
C2428 H2452 0.950 . S
C2429 C2446 1.574 . S
C2429 C2448 1.368 . S
C2429 H2453 0.949 . S
H2430 C2434 0.949 . S
C2431 C2432 1.349 . S
C2431 C2433 1.327 . S
C2431 H2454 0.950 . S
C2432 C2431 1.349 . S
C2432 C2444 1.349 . S
C2433 C2431 1.327 . S
C2433 C2449 1.429 . S
C2433 H2455 0.950 . S
C2434 H2430 0.949 . S
C2434 C2442 1.574 . S
C2434 C2450 1.368 . S
H2435 C2443 0.950 . S
H2436 C2441 0.950 . S
H2437 C2442 0.949 . S
H2438 C2444 0.950 . S
H2439 C2445 0.950 . S
H2440 C2446 0.949 . S
C2441 H2436 0.950 . S
C2441 C2443 1.327 . S
C2441 C2447 1.429 . S
C2442 C2434 1.574 . S
C2442 H2437 0.949 . S
C2442 C2448 1.368 . S
C2443 C2427 1.349 . S
C2443 H2435 0.950 . S
C2443 C2441 1.327 . S
C2444 C2432 1.349 . S
C2444 H2438 0.950 . S
C2444 C2445 1.327 . S
C2445 H2439 0.950 . S
C2445 C2444 1.327 . S
C2445 C2449 1.429 . S
C2446 C2429 1.574 . S
C2446 H2440 0.949 . S
C2446 C2450 1.368 . S
C2447 C2428 1.429 . S
C2447 C2441 1.429 . S
C2447 C2448 1.523 . S
C2448 C2429 1.368 . S
C2448 C2442 1.368 . S
C2448 C2447 1.523 . S
C2449 C2433 1.429 . S
C2449 C2445 1.429 . S
C2449 C2450 1.523 . S
C2450 C2434 1.368 . S
C2450 C2446 1.368 . S
C2450 C2449 1.523 . S
H2451 C2426 0.950 . S
H2452 C2428 0.950 . S
H2453 C2429 0.949 . S
H2454 C2431 0.950 . S
H2455 C2433 0.950 . S
C2456 C2457 1.349 . S
C2456 C2458 1.327 . S
C2456 H2481 0.950 . S
C2457 C2456 1.349 . S
C2457 C2473 1.349 . S
C2458 C2456 1.327 . S
C2458 C2477 1.429 . S
C2458 H2482 0.950 . S
C2459 C2476 1.574 . S
C2459 C2478 1.368 . S
C2459 H2483 0.949 . S
H2460 C2464 0.949 . S
C2461 C2462 1.349 . S
C2461 C2463 1.327 . S
C2461 H2484 0.950 . S
C2462 C2461 1.349 . S
C2462 C2474 1.349 . S
C2463 C2461 1.327 . S
C2463 C2479 1.429 . S
C2463 H2485 0.950 . S
C2464 H2460 0.949 . S
C2464 C2472 1.574 . S
C2464 C2480 1.368 . S
H2465 C2473 0.950 . S
H2466 C2471 0.950 . S
H2467 C2472 0.949 . S
H2468 C2474 0.950 . S
H2469 C2475 0.950 . S
H2470 C2476 0.949 . S
C2471 H2466 0.950 . S
C2471 C2473 1.327 . S
C2471 C2477 1.429 . S
C2472 C2464 1.574 . S
C2472 H2467 0.949 . S
C2472 C2478 1.368 . S
C2473 C2457 1.349 . S
C2473 H2465 0.950 . S
C2473 C2471 1.327 . S
C2474 C2462 1.349 . S
C2474 H2468 0.950 . S
C2474 C2475 1.327 . S
C2475 H2469 0.950 . S
C2475 C2474 1.327 . S
C2475 C2479 1.429 . S
C2476 C2459 1.574 . S
C2476 H2470 0.949 . S
C2476 C2480 1.368 . S
C2477 C2458 1.429 . S
C2477 C2471 1.429 . S
C2477 C2478 1.523 . S
C2478 C2459 1.368 . S
C2478 C2472 1.368 . S
C2478 C2477 1.523 . S
C2479 C2463 1.429 . S
C2479 C2475 1.429 . S
C2479 C2480 1.523 . S
C2480 C2464 1.368 . S
C2480 C2476 1.368 . S
C2480 C2479 1.523 . S
H2481 C2456 0.950 . S
H2482 C2458 0.950 . S
H2483 C2459 0.949 . S
H2484 C2461 0.950 . S
H2485 C2463 0.950 . S
C2486 C2487 1.349 . S
C2486 C2488 1.327 . S
C2486 H2511 0.950 . S
C2487 C2486 1.349 . S
C2487 C2503 1.349 . S
C2488 C2486 1.327 . S
C2488 C2507 1.429 . S
C2488 H2512 0.950 . S
C2489 C2506 1.574 . S
C2489 C2508 1.368 . S
C2489 H2513 0.949 . S
H2490 C2494 0.949 . S
C2491 C2492 1.349 . S
C2491 C2493 1.327 . S
C2491 H2514 0.950 . S
C2492 C2491 1.349 . S
C2492 C2504 1.349 . S
C2493 C2491 1.327 . S
C2493 C2509 1.429 . S
C2493 H2515 0.950 . S
C2494 H2490 0.949 . S
C2494 C2502 1.574 . S
C2494 C2510 1.368 . S
H2495 C2503 0.950 . S
H2496 C2501 0.950 . S
H2497 C2502 0.949 . S
H2498 C2504 0.950 . S
H2499 C2505 0.950 . S
H2500 C2506 0.949 . S
C2501 H2496 0.950 . S
C2501 C2503 1.327 . S
C2501 C2507 1.429 . S
C2502 C2494 1.574 . S
C2502 H2497 0.949 . S
C2502 C2508 1.368 . S
C2503 C2487 1.349 . S
C2503 H2495 0.950 . S
C2503 C2501 1.327 . S
C2504 C2492 1.349 . S
C2504 H2498 0.950 . S
C2504 C2505 1.327 . S
C2505 H2499 0.950 . S
C2505 C2504 1.327 . S
C2505 C2509 1.429 . S
C2506 C2489 1.574 . S
C2506 H2500 0.949 . S
C2506 C2510 1.368 . S
C2507 C2488 1.429 . S
C2507 C2501 1.429 . S
C2507 C2508 1.523 . S
C2508 C2489 1.368 . S
C2508 C2502 1.368 . S
C2508 C2507 1.523 . S
C2509 C2493 1.429 . S
C2509 C2505 1.429 . S
C2509 C2510 1.523 . S
C2510 C2494 1.368 . S
C2510 C2506 1.368 . S
C2510 C2509 1.523 . S
H2511 C2486 0.950 . S
H2512 C2488 0.950 . S
H2513 C2489 0.949 . S
H2514 C2491 0.950 . S
H2515 C2493 0.950 . S
C2516 C2517 1.349 . S
C2516 C2518 1.327 . S
C2516 H2541 0.950 . S
C2517 C2516 1.349 . S
C2517 C2533 1.349 . S
C2518 C2516 1.327 . S
C2518 C2537 1.429 . S
C2518 H2542 0.950 . S
C2519 C2536 1.574 . S
C2519 C2538 1.368 . S
C2519 H2543 0.949 . S
H2520 C2524 0.949 . S
C2521 C2522 1.349 . S
C2521 C2523 1.327 . S
C2521 H2544 0.950 . S
C2522 C2521 1.349 . S
C2522 C2534 1.349 . S
C2523 C2521 1.327 . S
C2523 C2539 1.429 . S
C2523 H2545 0.950 . S
C2524 H2520 0.949 . S
C2524 C2532 1.574 . S
C2524 C2540 1.368 . S
H2525 C2533 0.950 . S
H2526 C2531 0.950 . S
H2527 C2532 0.949 . S
H2528 C2534 0.950 . S
H2529 C2535 0.950 . S
H2530 C2536 0.949 . S
C2531 H2526 0.950 . S
C2531 C2533 1.327 . S
C2531 C2537 1.429 . S
C2532 C2524 1.574 . S
C2532 H2527 0.949 . S
C2532 C2538 1.368 . S
C2533 C2517 1.349 . S
C2533 H2525 0.950 . S
C2533 C2531 1.327 . S
C2534 C2522 1.349 . S
C2534 H2528 0.950 . S
C2534 C2535 1.327 . S
C2535 H2529 0.950 . S
C2535 C2534 1.327 . S
C2535 C2539 1.429 . S
C2536 C2519 1.574 . S
C2536 H2530 0.949 . S
C2536 C2540 1.368 . S
C2537 C2518 1.429 . S
C2537 C2531 1.429 . S
C2537 C2538 1.523 . S
C2538 C2519 1.368 . S
C2538 C2532 1.368 . S
C2538 C2537 1.523 . S
C2539 C2523 1.429 . S
C2539 C2535 1.429 . S
C2539 C2540 1.523 . S
C2540 C2524 1.368 . S
C2540 C2536 1.368 . S
C2540 C2539 1.523 . S
H2541 C2516 0.950 . S
H2542 C2518 0.950 . S
H2543 C2519 0.949 . S
H2544 C2521 0.950 . S
H2545 C2523 0.950 . S
C2546 C2547 1.349 . S
C2546 C2548 1.327 . S
C2546 H2571 0.950 . S
C2547 C2546 1.349 . S
C2547 C2563 1.349 . S
C2548 C2546 1.327 . S
C2548 C2567 1.429 . S
C2548 H2572 0.950 . S
C2549 C2566 1.574 . S
C2549 C2568 1.368 . S
C2549 H2573 0.949 . S
H2550 C2554 0.949 . S
C2551 C2552 1.349 . S
C2551 C2553 1.327 . S
C2551 H2574 0.950 . S
C2552 C2551 1.349 . S
C2552 C2564 1.349 . S
C2553 C2551 1.327 . S
C2553 C2569 1.429 . S
C2553 H2575 0.950 . S
C2554 H2550 0.949 . S
C2554 C2562 1.574 . S
C2554 C2570 1.368 . S
H2555 C2563 0.950 . S
H2556 C2561 0.950 . S
H2557 C2562 0.949 . S
H2558 C2564 0.950 . S
H2559 C2565 0.950 . S
H2560 C2566 0.949 . S
C2561 H2556 0.950 . S
C2561 C2563 1.327 . S
C2561 C2567 1.429 . S
C2562 C2554 1.574 . S
C2562 H2557 0.949 . S
C2562 C2568 1.368 . S
C2563 C2547 1.349 . S
C2563 H2555 0.950 . S
C2563 C2561 1.327 . S
C2564 C2552 1.349 . S
C2564 H2558 0.950 . S
C2564 C2565 1.327 . S
C2565 H2559 0.950 . S
C2565 C2564 1.327 . S
C2565 C2569 1.429 . S
C2566 C2549 1.574 . S
C2566 H2560 0.949 . S
C2566 C2570 1.368 . S
C2567 C2548 1.429 . S
C2567 C2561 1.429 . S
C2567 C2568 1.523 . S
C2568 C2549 1.368 . S
C2568 C2562 1.368 . S
C2568 C2567 1.523 . S
C2569 C2553 1.429 . S
C2569 C2565 1.429 . S
C2569 C2570 1.523 . S
C2570 C2554 1.368 . S
C2570 C2566 1.368 . S
C2570 C2569 1.523 . S
H2571 C2546 0.950 . S
H2572 C2548 0.950 . S
H2573 C2549 0.949 . S
H2574 C2551 0.950 . S
H2575 C2553 0.950 . S
C2576 C2577 1.349 . S
C2576 C2578 1.327 . S
C2576 H2601 0.950 . S
C2577 C2576 1.349 . S
C2577 C2593 1.349 . S
C2578 C2576 1.327 . S
C2578 C2597 1.429 . S
C2578 H2602 0.950 . S
C2579 C2596 1.574 . S
C2579 C2598 1.368 . S
C2579 H2603 0.949 . S
H2580 C2584 0.949 . S
C2581 C2582 1.349 . S
C2581 C2583 1.327 . S
C2581 H2604 0.950 . S
C2582 C2581 1.349 . S
C2582 C2594 1.349 . S
C2583 C2581 1.327 . S
C2583 C2599 1.429 . S
C2583 H2605 0.950 . S
C2584 H2580 0.949 . S
C2584 C2592 1.574 . S
C2584 C2600 1.368 . S
H2585 C2593 0.950 . S
H2586 C2591 0.950 . S
H2587 C2592 0.949 . S
H2588 C2594 0.950 . S
H2589 C2595 0.950 . S
H2590 C2596 0.949 . S
C2591 H2586 0.950 . S
C2591 C2593 1.327 . S
C2591 C2597 1.429 . S
C2592 C2584 1.574 . S
C2592 H2587 0.949 . S
C2592 C2598 1.368 . S
C2593 C2577 1.349 . S
C2593 H2585 0.950 . S
C2593 C2591 1.327 . S
C2594 C2582 1.349 . S
C2594 H2588 0.950 . S
C2594 C2595 1.327 . S
C2595 H2589 0.950 . S
C2595 C2594 1.327 . S
C2595 C2599 1.429 . S
C2596 C2579 1.574 . S
C2596 H2590 0.949 . S
C2596 C2600 1.368 . S
C2597 C2578 1.429 . S
C2597 C2591 1.429 . S
C2597 C2598 1.523 . S
C2598 C2579 1.368 . S
C2598 C2592 1.368 . S
C2598 C2597 1.523 . S
C2599 C2583 1.429 . S
C2599 C2595 1.429 . S
C2599 C2600 1.523 . S
C2600 C2584 1.368 . S
C2600 C2596 1.368 . S
C2600 C2599 1.523 . S
H2601 C2576 0.950 . S
H2602 C2578 0.950 . S
H2603 C2579 0.949 . S
H2604 C2581 0.950 . S
H2605 C2583 0.950 . S
C2606 C2607 1.349 . S
C2606 C2608 1.327 . S
C2606 H2631 0.950 . S
C2607 C2606 1.349 . S
C2607 C2623 1.349 . S
C2608 C2606 1.327 . S
C2608 C2627 1.429 . S
C2608 H2632 0.950 . S
C2609 C2626 1.574 . S
C2609 C2628 1.368 . S
C2609 H2633 0.949 . S
H2610 C2614 0.949 . S
C2611 C2612 1.349 . S
C2611 C2613 1.327 . S
C2611 H2634 0.950 . S
C2612 C2611 1.349 . S
C2612 C2624 1.349 . S
C2613 C2611 1.327 . S
C2613 C2629 1.429 . S
C2613 H2635 0.950 . S
C2614 H2610 0.949 . S
C2614 C2622 1.574 . S
C2614 C2630 1.368 . S
H2615 C2623 0.950 . S
H2616 C2621 0.950 . S
H2617 C2622 0.949 . S
H2618 C2624 0.950 . S
H2619 C2625 0.950 . S
H2620 C2626 0.949 . S
C2621 H2616 0.950 . S
C2621 C2623 1.327 . S
C2621 C2627 1.429 . S
C2622 C2614 1.574 . S
C2622 H2617 0.949 . S
C2622 C2628 1.368 . S
C2623 C2607 1.349 . S
C2623 H2615 0.950 . S
C2623 C2621 1.327 . S
C2624 C2612 1.349 . S
C2624 H2618 0.950 . S
C2624 C2625 1.327 . S
C2625 H2619 0.950 . S
C2625 C2624 1.327 . S
C2625 C2629 1.429 . S
C2626 C2609 1.574 . S
C2626 H2620 0.949 . S
C2626 C2630 1.368 . S
C2627 C2608 1.429 . S
C2627 C2621 1.429 . S
C2627 C2628 1.523 . S
C2628 C2609 1.368 . S
C2628 C2622 1.368 . S
C2628 C2627 1.523 . S
C2629 C2613 1.429 . S
C2629 C2625 1.429 . S
C2629 C2630 1.523 . S
C2630 C2614 1.368 . S
C2630 C2626 1.368 . S
C2630 C2629 1.523 . S
H2631 C2606 0.950 . S
H2632 C2608 0.950 . S
H2633 C2609 0.949 . S
H2634 C2611 0.950 . S
H2635 C2613 0.950 . S
C2636 C2637 1.349 . S
C2636 C2638 1.327 . S
C2636 H2661 0.950 . S
C2637 C2636 1.349 . S
C2637 C2653 1.349 . S
C2638 C2636 1.327 . S
C2638 C2657 1.429 . S
C2638 H2662 0.950 . S
C2639 C2656 1.574 . S
C2639 C2658 1.368 . S
C2639 H2663 0.949 . S
H2640 C2644 0.949 . S
C2641 C2642 1.349 . S
C2641 C2643 1.327 . S
C2641 H2664 0.950 . S
C2642 C2641 1.349 . S
C2642 C2654 1.349 . S
C2643 C2641 1.327 . S
C2643 C2659 1.429 . S
C2643 H2665 0.950 . S
C2644 H2640 0.949 . S
C2644 C2652 1.574 . S
C2644 C2660 1.368 . S
H2645 C2653 0.950 . S
H2646 C2651 0.950 . S
H2647 C2652 0.949 . S
H2648 C2654 0.950 . S
H2649 C2655 0.950 . S
H2650 C2656 0.949 . S
C2651 H2646 0.950 . S
C2651 C2653 1.327 . S
C2651 C2657 1.429 . S
C2652 C2644 1.574 . S
C2652 H2647 0.949 . S
C2652 C2658 1.368 . S
C2653 C2637 1.349 . S
C2653 H2645 0.950 . S
C2653 C2651 1.327 . S
C2654 C2642 1.349 . S
C2654 H2648 0.950 . S
C2654 C2655 1.327 . S
C2655 H2649 0.950 . S
C2655 C2654 1.327 . S
C2655 C2659 1.429 . S
C2656 C2639 1.574 . S
C2656 H2650 0.949 . S
C2656 C2660 1.368 . S
C2657 C2638 1.429 . S
C2657 C2651 1.429 . S
C2657 C2658 1.523 . S
C2658 C2639 1.368 . S
C2658 C2652 1.368 . S
C2658 C2657 1.523 . S
C2659 C2643 1.429 . S
C2659 C2655 1.429 . S
C2659 C2660 1.523 . S
C2660 C2644 1.368 . S
C2660 C2656 1.368 . S
C2660 C2659 1.523 . S
H2661 C2636 0.950 . S
H2662 C2638 0.950 . S
H2663 C2639 0.949 . S
H2664 C2641 0.950 . S
H2665 C2643 0.950 . S
C2666 C2667 1.349 . S
C2666 C2668 1.327 . S
C2666 H2691 0.950 . S
C2667 C2666 1.349 . S
C2667 C2683 1.349 . S
C2668 C2666 1.327 . S
C2668 C2687 1.429 . S
C2668 H2692 0.950 . S
C2669 C2686 1.574 . S
C2669 C2688 1.368 . S
C2669 H2693 0.949 1_554 S
H2670 C2674 0.949 . S
C2671 C2672 1.349 . S
C2671 C2673 1.327 . S
C2671 H2694 0.950 1_554 S
C2672 C2671 1.349 . S
C2672 C2684 1.349 . S
C2673 C2671 1.327 . S
C2673 C2689 1.429 . S
C2673 H2695 0.950 1_554 S
C2674 H2670 0.949 . S
C2674 C2682 1.574 . S
C2674 C2690 1.368 . S
H2675 C2683 0.950 1_556 S
H2676 C2681 0.950 1_556 S
H2677 C2682 0.949 . S
H2678 C2684 0.950 . S
H2679 C2685 0.950 . S
H2680 C2686 0.949 1_556 S
C2681 H2676 0.950 1_554 S
C2681 C2683 1.327 . S
C2681 C2687 1.429 . S
C2682 C2674 1.574 . S
C2682 H2677 0.949 . S
C2682 C2688 1.368 . S
C2683 C2667 1.349 . S
C2683 H2675 0.950 1_554 S
C2683 C2681 1.327 . S
C2684 C2672 1.349 . S
C2684 H2678 0.950 . S
C2684 C2685 1.327 . S
C2685 H2679 0.950 . S
C2685 C2684 1.327 . S
C2685 C2689 1.429 . S
C2686 C2669 1.574 . S
C2686 H2680 0.949 1_554 S
C2686 C2690 1.368 . S
C2687 C2668 1.429 . S
C2687 C2681 1.429 . S
C2687 C2688 1.523 . S
C2688 C2669 1.368 . S
C2688 C2682 1.368 . S
C2688 C2687 1.523 . S
C2689 C2673 1.429 . S
C2689 C2685 1.429 . S
C2689 C2690 1.523 . S
C2690 C2674 1.368 . S
C2690 C2686 1.368 . S
C2690 C2689 1.523 . S
H2691 C2666 0.950 . S
H2692 C2668 0.950 . S
H2693 C2669 0.949 1_556 S
H2694 C2671 0.950 1_556 S
H2695 C2673 0.950 1_556 S
C2696 C2697 1.349 . S
C2696 C2698 1.327 . S
C2696 H2721 0.950 . S
C2697 C2696 1.349 . S
C2697 C2713 1.349 . S
C2698 C2696 1.327 . S
C2698 C2717 1.429 . S
C2698 H2722 0.950 . S
C2699 C2716 1.574 . S
C2699 C2718 1.368 . S
C2699 H2723 0.949 . S
H2700 C2704 0.949 . S
C2701 C2702 1.349 . S
C2701 C2703 1.327 . S
C2701 H2724 0.950 . S
C2702 C2701 1.349 . S
C2702 C2714 1.349 . S
C2703 C2701 1.327 . S
C2703 C2719 1.429 . S
C2703 H2725 0.950 . S
C2704 H2700 0.949 . S
C2704 C2712 1.574 . S
C2704 C2720 1.368 . S
H2705 C2713 0.950 . S
H2706 C2711 0.950 . S
H2707 C2712 0.949 . S
H2708 C2714 0.950 . S
H2709 C2715 0.950 . S
H2710 C2716 0.949 . S
C2711 H2706 0.950 . S
C2711 C2713 1.327 . S
C2711 C2717 1.429 . S
C2712 C2704 1.574 . S
C2712 H2707 0.949 . S
C2712 C2718 1.368 . S
C2713 C2697 1.349 . S
C2713 H2705 0.950 . S
C2713 C2711 1.327 . S
C2714 C2702 1.349 . S
C2714 H2708 0.950 . S
C2714 C2715 1.327 . S
C2715 H2709 0.950 . S
C2715 C2714 1.327 . S
C2715 C2719 1.429 . S
C2716 C2699 1.574 . S
C2716 H2710 0.949 . S
C2716 C2720 1.368 . S
C2717 C2698 1.429 . S
C2717 C2711 1.429 . S
C2717 C2718 1.523 . S
C2718 C2699 1.368 . S
C2718 C2712 1.368 . S
C2718 C2717 1.523 . S
C2719 C2703 1.429 . S
C2719 C2715 1.429 . S
C2719 C2720 1.523 . S
C2720 C2704 1.368 . S
C2720 C2716 1.368 . S
C2720 C2719 1.523 . S
H2721 C2696 0.950 . S
H2722 C2698 0.950 . S
H2723 C2699 0.949 . S
H2724 C2701 0.950 . S
H2725 C2703 0.950 . S
C2726 C2727 1.349 . S
C2726 C2728 1.327 . S
C2726 H2751 0.950 . S
C2727 C2726 1.349 . S
C2727 C2743 1.349 1_554 S
C2728 C2726 1.327 . S
C2728 C2747 1.429 . S
C2728 H2752 0.950 . S
C2729 C2746 1.570 1_556 S
C2729 C2748 1.345 1_556 S
C2729 H2753 0.974 . S
H2730 C2734 0.949 . S
C2731 C2732 1.349 . S
C2731 C2733 1.327 . S
C2731 H2754 0.950 . S
C2732 C2731 1.349 . S
C2732 C2744 1.349 . S
C2733 C2731 1.327 . S
C2733 C2749 1.429 . S
C2733 H2755 0.950 1_554 S
C2734 H2730 0.949 . S
C2734 C2742 1.574 . S
C2734 C2750 1.368 . S
H2735 C2743 0.950 . S
H2736 C2741 0.950 . S
H2737 C2742 0.949 . S
H2738 C2744 0.950 . S
H2739 C2745 0.950 . S
H2740 C2746 0.949 1_556 S
C2741 H2736 0.950 . S
C2741 C2743 1.327 . S
C2741 C2747 1.429 1_556 S
C2742 C2734 1.574 . S
C2742 H2737 0.949 . S
C2742 C2748 1.368 . S
C2743 C2727 1.349 1_556 S
C2743 H2735 0.950 . S
C2743 C2741 1.327 . S
C2744 C2732 1.349 . S
C2744 H2738 0.950 . S
C2744 C2745 1.327 . S
C2745 H2739 0.950 . S
C2745 C2744 1.327 . S
C2745 C2749 1.429 . S
C2746 C2729 1.570 1_554 S
C2746 H2740 0.949 1_554 S
C2746 C2750 1.368 . S
C2747 C2728 1.429 . S
C2747 C2741 1.429 1_554 S
C2747 C2748 1.523 . S
C2748 C2729 1.345 1_554 S
C2748 C2742 1.368 . S
C2748 C2747 1.523 . S
C2749 C2733 1.429 . S
C2749 C2745 1.429 . S
C2749 C2750 1.523 . S
C2750 C2734 1.368 . S
C2750 C2746 1.368 . S
C2750 C2749 1.523 . S
H2751 C2726 0.950 . S
H2752 C2728 0.950 . S
H2753 C2729 0.974 . S
H2754 C2731 0.950 . S
H2755 C2733 0.950 1_556 S
C2756 C2757 1.349 . S
C2756 C2758 1.327 . S
C2756 H2781 0.950 . S
C2757 C2756 1.349 . S
C2757 C2773 1.349 . S
C2758 C2756 1.327 . S
C2758 C2777 1.429 . S
C2758 H2782 0.950 . S
C2759 C2776 1.574 . S
C2759 C2778 1.368 . S
C2759 H2783 0.949 . S
H2760 C2764 0.949 . S
C2761 C2762 1.349 . S
C2761 C2763 1.327 . S
C2761 H2784 0.950 . S
C2762 C2761 1.349 . S
C2762 C2774 1.349 . S
C2763 C2761 1.327 . S
C2763 C2779 1.429 . S
C2763 H2785 0.950 . S
C2764 H2760 0.949 . S
C2764 C2772 1.574 . S
C2764 C2780 1.368 . S
H2765 C2773 0.950 . S
H2766 C2771 0.950 . S
H2767 C2772 0.949 . S
H2768 C2774 0.950 . S
H2769 C2775 0.950 . S
H2770 C2776 0.949 . S
C2771 H2766 0.950 . S
C2771 C2773 1.327 . S
C2771 C2777 1.429 . S
C2772 C2764 1.574 . S
C2772 H2767 0.949 . S
C2772 C2778 1.368 . S
C2773 C2757 1.349 . S
C2773 H2765 0.950 . S
C2773 C2771 1.327 . S
C2774 C2762 1.349 . S
C2774 H2768 0.950 . S
C2774 C2775 1.327 . S
C2775 H2769 0.950 . S
C2775 C2774 1.327 . S
C2775 C2779 1.429 . S
C2776 C2759 1.574 . S
C2776 H2770 0.949 . S
C2776 C2780 1.368 . S
C2777 C2758 1.429 . S
C2777 C2771 1.429 . S
C2777 C2778 1.523 . S
C2778 C2759 1.368 . S
C2778 C2772 1.368 . S
C2778 C2777 1.523 . S
C2779 C2763 1.429 . S
C2779 C2775 1.429 . S
C2779 C2780 1.523 . S
C2780 C2764 1.368 . S
C2780 C2776 1.368 . S
C2780 C2779 1.523 . S
H2781 C2756 0.950 . S
H2782 C2758 0.950 . S
H2783 C2759 0.949 . S
H2784 C2761 0.950 . S
H2785 C2763 0.950 . S
C2786 C2787 1.349 . S
C2786 C2788 1.327 . S
C2786 H2811 0.950 . S
C2787 C2786 1.349 . S
C2787 C2803 1.349 . S
C2788 C2786 1.327 . S
C2788 C2807 1.429 . S
C2788 H2812 0.950 . S
C2789 C2806 1.574 . S
C2789 C2808 1.368 . S
C2789 H2813 0.949 . S
H2790 C2794 0.949 . S
C2791 C2792 1.349 . S
C2791 C2793 1.327 . S
C2791 H2814 0.950 . S
C2792 C2791 1.349 . S
C2792 C2804 1.349 . S
C2793 C2791 1.327 . S
C2793 C2809 1.429 . S
C2793 H2815 0.950 . S
C2794 H2790 0.949 . S
C2794 C2802 1.574 . S
C2794 C2810 1.368 . S
H2795 C2803 0.950 . S
H2796 C2801 0.950 . S
H2797 C2802 0.949 . S
H2798 C2804 0.950 . S
H2799 C2805 0.950 . S
H2800 C2806 0.949 . S
C2801 H2796 0.950 . S
C2801 C2803 1.327 . S
C2801 C2807 1.429 . S
C2802 C2794 1.574 . S
C2802 H2797 0.949 . S
C2802 C2808 1.368 . S
C2803 C2787 1.349 . S
C2803 H2795 0.950 . S
C2803 C2801 1.327 . S
C2804 C2792 1.349 . S
C2804 H2798 0.950 . S
C2804 C2805 1.327 . S
C2805 H2799 0.950 . S
C2805 C2804 1.327 . S
C2805 C2809 1.429 . S
C2806 C2789 1.574 . S
C2806 H2800 0.949 . S
C2806 C2810 1.368 . S
C2807 C2788 1.429 . S
C2807 C2801 1.429 . S
C2807 C2808 1.523 . S
C2808 C2789 1.368 . S
C2808 C2802 1.368 . S
C2808 C2807 1.523 . S
C2809 C2793 1.429 . S
C2809 C2805 1.429 . S
C2809 C2810 1.523 . S
C2810 C2794 1.368 . S
C2810 C2806 1.368 . S
C2810 C2809 1.523 . S
H2811 C2786 0.950 . S
H2812 C2788 0.950 . S
H2813 C2789 0.949 . S
H2814 C2791 0.950 . S
H2815 C2793 0.950 . S
C2816 C2817 1.349 . S
C2816 C2818 1.327 . S
C2816 H2841 0.950 . S
C2817 C2816 1.349 . S
C2817 C2833 1.349 . S
C2818 C2816 1.327 . S
C2818 C2837 1.429 . S
C2818 H2842 0.950 . S
C2819 C2836 1.574 . S
C2819 C2838 1.368 . S
C2819 H2843 0.949 . S
H2820 C2824 0.949 . S
C2821 C2822 1.349 . S
C2821 C2823 1.327 . S
C2821 H2844 0.950 . S
C2822 C2821 1.349 . S
C2822 C2834 1.349 . S
C2823 C2821 1.327 . S
C2823 C2839 1.429 . S
C2823 H2845 0.950 . S
C2824 H2820 0.949 . S
C2824 C2832 1.574 . S
C2824 C2840 1.368 . S
H2825 C2833 0.950 . S
H2826 C2831 0.950 . S
H2827 C2832 0.949 . S
H2828 C2834 0.950 . S
H2829 C2835 0.950 . S
H2830 C2836 0.949 . S
C2831 H2826 0.950 . S
C2831 C2833 1.327 . S
C2831 C2837 1.429 . S
C2832 C2824 1.574 . S
C2832 H2827 0.949 . S
C2832 C2838 1.368 . S
C2833 C2817 1.349 . S
C2833 H2825 0.950 . S
C2833 C2831 1.327 . S
C2834 C2822 1.349 . S
C2834 H2828 0.950 . S
C2834 C2835 1.327 . S
C2835 H2829 0.950 . S
C2835 C2834 1.327 . S
C2835 C2839 1.429 . S
C2836 C2819 1.574 . S
C2836 H2830 0.949 . S
C2836 C2840 1.368 . S
C2837 C2818 1.429 . S
C2837 C2831 1.429 . S
C2837 C2838 1.523 . S
C2838 C2819 1.368 . S
C2838 C2832 1.368 . S
C2838 C2837 1.523 . S
C2839 C2823 1.429 . S
C2839 C2835 1.429 . S
C2839 C2840 1.523 . S
C2840 C2824 1.368 . S
C2840 C2836 1.368 . S
C2840 C2839 1.523 . S
H2841 C2816 0.950 . S
H2842 C2818 0.950 . S
H2843 C2819 0.949 . S
H2844 C2821 0.950 . S
H2845 C2823 0.950 . S
C2846 C2847 1.349 . S
C2846 C2848 1.327 . S
C2846 H2871 0.950 . S
C2847 C2846 1.349 . S
C2847 C2863 1.349 . S
C2848 C2846 1.327 . S
C2848 C2867 1.429 . S
C2848 H2872 0.950 . S
C2849 C2866 1.574 . S
C2849 C2868 1.368 . S
C2849 H2873 0.949 . S
H2850 C2854 0.949 . S
C2851 C2852 1.349 . S
C2851 C2853 1.327 . S
C2851 H2874 0.950 . S
C2852 C2851 1.349 . S
C2852 C2864 1.349 . S
C2853 C2851 1.327 . S
C2853 C2869 1.429 . S
C2853 H2875 0.950 . S
C2854 H2850 0.949 . S
C2854 C2862 1.574 . S
C2854 C2870 1.368 . S
H2855 C2863 0.950 . S
H2856 C2861 0.950 . S
H2857 C2862 0.949 . S
H2858 C2864 0.950 . S
H2859 C2865 0.950 . S
H2860 C2866 0.949 . S
C2861 H2856 0.950 . S
C2861 C2863 1.327 . S
C2861 C2867 1.429 . S
C2862 C2854 1.574 . S
C2862 H2857 0.949 . S
C2862 C2868 1.368 . S
C2863 C2847 1.349 . S
C2863 H2855 0.950 . S
C2863 C2861 1.327 . S
C2864 C2852 1.349 . S
C2864 H2858 0.950 . S
C2864 C2865 1.327 . S
C2865 H2859 0.950 . S
C2865 C2864 1.327 . S
C2865 C2869 1.429 . S
C2866 C2849 1.574 . S
C2866 H2860 0.949 . S
C2866 C2870 1.368 . S
C2867 C2848 1.429 . S
C2867 C2861 1.429 . S
C2867 C2868 1.523 . S
C2868 C2849 1.368 . S
C2868 C2862 1.368 . S
C2868 C2867 1.523 . S
C2869 C2853 1.429 . S
C2869 C2865 1.429 . S
C2869 C2870 1.523 . S
C2870 C2854 1.368 . S
C2870 C2866 1.368 . S
C2870 C2869 1.523 . S
H2871 C2846 0.950 . S
H2872 C2848 0.950 . S
H2873 C2849 0.949 . S
H2874 C2851 0.950 . S
H2875 C2853 0.950 . S
C2876 C2877 1.349 . S
C2876 C2878 1.327 . S
C2876 H2901 0.950 . S
C2877 C2876 1.349 . S
C2877 C2893 1.349 . S
C2878 C2876 1.327 . S
C2878 C2897 1.429 . S
C2878 H2902 0.950 . S
C2879 C2896 1.574 . S
C2879 C2898 1.368 . S
C2879 H2903 0.949 1_455 S
H2880 C2884 0.949 . S
C2881 C2882 1.349 . S
C2881 C2883 1.327 . S
C2881 H2904 0.950 1_455 S
C2882 C2881 1.349 . S
C2882 C2894 1.349 . S
C2883 C2881 1.327 . S
C2883 C2899 1.429 . S
C2883 H2905 0.950 1_455 S
C2884 H2880 0.949 . S
C2884 C2892 1.574 . S
C2884 C2900 1.368 . S
H2885 C2893 0.950 1_655 S
H2886 C2891 0.950 1_655 S
H2887 C2892 0.949 . S
H2888 C2894 0.950 . S
H2889 C2895 0.950 . S
H2890 C2896 0.949 1_655 S
C2891 H2886 0.950 1_455 S
C2891 C2893 1.327 . S
C2891 C2897 1.429 . S
C2892 C2884 1.574 . S
C2892 H2887 0.949 . S
C2892 C2898 1.368 . S
C2893 C2877 1.349 . S
C2893 H2885 0.950 1_455 S
C2893 C2891 1.327 . S
C2894 C2882 1.349 . S
C2894 H2888 0.950 . S
C2894 C2895 1.327 . S
C2895 H2889 0.950 . S
C2895 C2894 1.327 . S
C2895 C2899 1.429 . S
C2896 C2879 1.574 . S
C2896 H2890 0.949 1_455 S
C2896 C2900 1.368 . S
C2897 C2878 1.429 . S
C2897 C2891 1.429 . S
C2897 C2898 1.523 . S
C2898 C2879 1.368 . S
C2898 C2892 1.368 . S
C2898 C2897 1.523 . S
C2899 C2883 1.429 . S
C2899 C2895 1.429 . S
C2899 C2900 1.523 . S
C2900 C2884 1.368 . S
C2900 C2896 1.368 . S
C2900 C2899 1.523 . S
H2901 C2876 0.950 . S
H2902 C2878 0.950 . S
H2903 C2879 0.949 1_655 S
H2904 C2881 0.950 1_655 S
H2905 C2883 0.950 1_655 S
C2906 C2907 1.349 . S
C2906 C2908 1.327 . S
C2906 H2931 0.950 . S
C2907 C2906 1.349 . S
C2907 C2923 1.349 . S
C2908 C2906 1.327 . S
C2908 C2927 1.429 . S
C2908 H2932 0.950 . S
C2909 C2926 1.574 . S
C2909 C2928 1.368 . S
C2909 H2933 0.949 . S
H2910 C2914 0.949 . S
C2911 C2912 1.349 . S
C2911 C2913 1.327 . S
C2911 H2934 0.950 . S
C2912 C2911 1.349 . S
C2912 C2924 1.349 . S
C2913 C2911 1.327 . S
C2913 C2929 1.429 . S
C2913 H2935 0.950 . S
C2914 H2910 0.949 . S
C2914 C2922 1.574 . S
C2914 C2930 1.368 . S
H2915 C2923 0.950 . S
H2916 C2921 0.950 . S
H2917 C2922 0.949 . S
H2918 C2924 0.950 . S
H2919 C2925 0.950 . S
H2920 C2926 0.949 . S
C2921 H2916 0.950 . S
C2921 C2923 1.327 . S
C2921 C2927 1.429 . S
C2922 C2914 1.574 . S
C2922 H2917 0.949 . S
C2922 C2928 1.368 . S
C2923 C2907 1.349 . S
C2923 H2915 0.950 . S
C2923 C2921 1.327 . S
C2924 C2912 1.349 . S
C2924 H2918 0.950 . S
C2924 C2925 1.327 . S
C2925 H2919 0.950 . S
C2925 C2924 1.327 . S
C2925 C2929 1.429 . S
C2926 C2909 1.574 . S
C2926 H2920 0.949 . S
C2926 C2930 1.368 . S
C2927 C2908 1.429 . S
C2927 C2921 1.429 . S
C2927 C2928 1.523 . S
C2928 C2909 1.368 . S
C2928 C2922 1.368 . S
C2928 C2927 1.523 . S
C2929 C2913 1.429 . S
C2929 C2925 1.429 . S
C2929 C2930 1.523 . S
C2930 C2914 1.368 . S
C2930 C2926 1.368 . S
C2930 C2929 1.523 . S
H2931 C2906 0.950 . S
H2932 C2908 0.950 . S
H2933 C2909 0.949 . S
H2934 C2911 0.950 . S
H2935 C2913 0.950 . S
C2936 C2937 1.349 . S
C2936 C2938 1.327 . S
C2936 H2961 0.950 . S
C2937 C2936 1.349 . S
C2937 C2953 1.349 . S
C2938 C2936 1.327 . S
C2938 C2957 1.429 . S
C2938 H2962 0.950 . S
C2939 C2956 1.574 . S
C2939 C2958 1.368 . S
C2939 H2963 0.949 . S
H2940 C2944 0.949 . S
C2941 C2942 1.349 . S
C2941 C2943 1.327 . S
C2941 H2964 0.950 . S
C2942 C2941 1.349 . S
C2942 C2954 1.349 . S
C2943 C2941 1.327 . S
C2943 C2959 1.429 . S
C2943 H2965 0.950 . S
C2944 H2940 0.949 . S
C2944 C2952 1.574 . S
C2944 C2960 1.368 . S
H2945 C2953 0.950 . S
H2946 C2951 0.950 . S
H2947 C2952 0.949 . S
H2948 C2954 0.950 1_554 S
H2949 C2955 0.950 . S
H2950 C2956 0.949 . S
C2951 H2946 0.950 . S
C2951 C2953 1.327 . S
C2951 C2957 1.429 . S
C2952 C2944 1.574 . S
C2952 H2947 0.949 . S
C2952 C2958 1.368 . S
C2953 C2937 1.349 . S
C2953 H2945 0.950 . S
C2953 C2951 1.327 . S
C2954 C2942 1.349 . S
C2954 H2948 0.950 1_556 S
C2954 C2955 1.327 . S
C2955 H2949 0.950 . S
C2955 C2954 1.327 . S
C2955 C2959 1.429 . S
C2956 C2939 1.574 . S
C2956 H2950 0.949 . S
C2956 C2960 1.368 . S
C2957 C2938 1.429 . S
C2957 C2951 1.429 . S
C2957 C2958 1.523 . S
C2958 C2939 1.368 . S
C2958 C2952 1.368 . S
C2958 C2957 1.523 . S
C2959 C2943 1.429 . S
C2959 C2955 1.429 . S
C2959 C2960 1.523 . S
C2960 C2944 1.368 . S
C2960 C2956 1.368 . S
C2960 C2959 1.523 . S
H2961 C2936 0.950 . S
H2962 C2938 0.950 . S
H2963 C2939 0.949 . S
H2964 C2941 0.950 . S
H2965 C2943 0.950 . S
C2966 C2967 1.349 . S
C2966 C2968 1.327 . S
C2966 H2991 0.950 . S
C2967 C2966 1.349 . S
C2967 C2983 1.349 . S
C2968 C2966 1.327 . S
C2968 C2987 1.429 . S
C2968 H2992 0.950 . S
C2969 C2986 1.574 . S
C2969 C2988 1.368 . S
C2969 H2993 0.949 . S
H2970 C2974 0.949 . S
C2971 C2972 1.349 . S
C2971 C2973 1.327 . S
C2971 H2994 0.950 . S
C2972 C2971 1.349 . S
C2972 C2984 1.349 . S
C2973 C2971 1.327 . S
C2973 C2989 1.429 . S
C2973 H2995 0.950 . S
C2974 H2970 0.949 . S
C2974 C2982 1.574 . S
C2974 C2990 1.368 . S
H2975 C2983 0.950 . S
H2976 C2981 0.950 . S
H2977 C2982 0.949 . S
H2978 C2984 0.950 . S
H2979 C2985 0.950 . S
H2980 C2986 0.949 . S
C2981 H2976 0.950 . S
C2981 C2983 1.327 . S
C2981 C2987 1.429 . S
C2982 C2974 1.574 . S
C2982 H2977 0.949 . S
C2982 C2988 1.368 . S
C2983 C2967 1.349 . S
C2983 H2975 0.950 . S
C2983 C2981 1.327 . S
C2984 C2972 1.349 . S
C2984 H2978 0.950 . S
C2984 C2985 1.327 . S
C2985 H2979 0.950 . S
C2985 C2984 1.327 . S
C2985 C2989 1.429 . S
C2986 C2969 1.574 . S
C2986 H2980 0.949 . S
C2986 C2990 1.368 . S
C2987 C2968 1.429 . S
C2987 C2981 1.429 . S
C2987 C2988 1.523 . S
C2988 C2969 1.368 . S
C2988 C2982 1.368 . S
C2988 C2987 1.523 . S
C2989 C2973 1.429 . S
C2989 C2985 1.429 . S
C2989 C2990 1.523 . S
C2990 C2974 1.368 . S
C2990 C2986 1.368 . S
C2990 C2989 1.523 . S
H2991 C2966 0.950 . S
H2992 C2968 0.950 . S
H2993 C2969 0.949 . S
H2994 C2971 0.950 . S
H2995 C2973 0.950 . S
C2996 C2997 1.349 . S
C2996 C2998 1.327 . S
C2996 H3021 0.950 . S
C2997 C2996 1.349 . S
C2997 C3013 1.349 . S
C2998 C2996 1.327 . S
C2998 C3017 1.429 . S
C2998 H3022 0.950 . S
C2999 C3016 1.574 . S
C2999 C3018 1.368 . S
C2999 H3023 0.949 . S
H3000 C3004 0.949 . S
C3001 C3002 1.349 . S
C3001 C3003 1.327 . S
C3001 H3024 0.950 . S
C3002 C3001 1.349 . S
C3002 C3014 1.349 . S
C3003 C3001 1.327 . S
C3003 C3019 1.429 . S
C3003 H3025 0.950 . S
C3004 H3000 0.949 . S
C3004 C3012 1.574 . S
C3004 C3020 1.368 . S
H3005 C3013 0.950 . S
H3006 C3011 0.950 . S
H3007 C3012 0.949 . S
H3008 C3014 0.950 . S
H3009 C3015 0.950 . S
H3010 C3016 0.949 . S
C3011 H3006 0.950 . S
C3011 C3013 1.327 . S
C3011 C3017 1.429 . S
C3012 C3004 1.574 . S
C3012 H3007 0.949 . S
C3012 C3018 1.368 . S
C3013 C2997 1.349 . S
C3013 H3005 0.950 . S
C3013 C3011 1.327 . S
C3014 C3002 1.349 . S
C3014 H3008 0.950 . S
C3014 C3015 1.327 . S
C3015 H3009 0.950 . S
C3015 C3014 1.327 . S
C3015 C3019 1.429 . S
C3016 C2999 1.574 . S
C3016 H3010 0.949 . S
C3016 C3020 1.368 . S
C3017 C2998 1.429 . S
C3017 C3011 1.429 . S
C3017 C3018 1.523 . S
C3018 C2999 1.368 . S
C3018 C3012 1.368 . S
C3018 C3017 1.523 . S
C3019 C3003 1.429 . S
C3019 C3015 1.429 . S
C3019 C3020 1.523 . S
C3020 C3004 1.368 . S
C3020 C3016 1.368 . S
C3020 C3019 1.523 . S
H3021 C2996 0.950 . S
H3022 C2998 0.950 . S
H3023 C2999 0.949 . S
H3024 C3001 0.950 . S
H3025 C3003 0.950 . S
C3026 C3027 1.349 . S
C3026 C3028 1.327 . S
C3026 H3051 0.950 . S
C3027 C3026 1.349 . S
C3027 C3043 1.349 . S
C3028 C3026 1.327 . S
C3028 C3047 1.429 . S
C3028 H3052 0.950 . S
C3029 C3046 1.574 . S
C3029 C3048 1.368 . S
C3029 H3053 0.949 . S
H3030 C3034 0.949 . S
C3031 C3032 1.349 . S
C3031 C3033 1.327 . S
C3031 H3054 0.950 . S
C3032 C3031 1.349 . S
C3032 C3044 1.349 . S
C3033 C3031 1.327 . S
C3033 C3049 1.429 . S
C3033 H3055 0.950 . S
C3034 H3030 0.949 . S
C3034 C3042 1.574 . S
C3034 C3050 1.368 . S
H3035 C3043 0.950 . S
H3036 C3041 0.950 . S
H3037 C3042 0.949 . S
H3038 C3044 0.950 . S
H3039 C3045 0.950 . S
H3040 C3046 0.949 . S
C3041 H3036 0.950 . S
C3041 C3043 1.327 . S
C3041 C3047 1.429 . S
C3042 C3034 1.574 . S
C3042 H3037 0.949 . S
C3042 C3048 1.368 . S
C3043 C3027 1.349 . S
C3043 H3035 0.950 . S
C3043 C3041 1.327 . S
C3044 C3032 1.349 . S
C3044 H3038 0.950 . S
C3044 C3045 1.327 . S
C3045 H3039 0.950 . S
C3045 C3044 1.327 . S
C3045 C3049 1.429 . S
C3046 C3029 1.574 . S
C3046 H3040 0.949 . S
C3046 C3050 1.368 . S
C3047 C3028 1.429 . S
C3047 C3041 1.429 . S
C3047 C3048 1.523 . S
C3048 C3029 1.368 . S
C3048 C3042 1.368 . S
C3048 C3047 1.523 . S
C3049 C3033 1.429 . S
C3049 C3045 1.429 . S
C3049 C3050 1.523 . S
C3050 C3034 1.368 . S
C3050 C3046 1.368 . S
C3050 C3049 1.523 . S
H3051 C3026 0.950 . S
H3052 C3028 0.950 . S
H3053 C3029 0.949 . S
H3054 C3031 0.950 . S
H3055 C3033 0.950 . S
C3056 C3057 1.349 . S
C3056 C3058 1.327 . S
C3056 H3081 0.950 . S
C3057 C3056 1.349 . S
C3057 C3073 1.349 . S
C3058 C3056 1.327 . S
C3058 C3077 1.429 . S
C3058 H3082 0.950 . S
C3059 C3076 1.574 . S
C3059 C3078 1.368 . S
C3059 H3083 0.949 . S
H3060 C3064 0.949 . S
C3061 C3062 1.349 . S
C3061 C3063 1.327 . S
C3061 H3084 0.950 . S
C3062 C3061 1.349 . S
C3062 C3074 1.349 . S
C3063 C3061 1.327 . S
C3063 C3079 1.429 . S
C3063 H3085 0.950 . S
C3064 H3060 0.949 . S
C3064 C3072 1.574 . S
C3064 C3080 1.368 . S
H3065 C3073 0.950 . S
H3066 C3071 0.950 . S
H3067 C3072 0.949 . S
H3068 C3074 0.950 . S
H3069 C3075 0.950 . S
H3070 C3076 0.949 . S
C3071 H3066 0.950 . S
C3071 C3073 1.327 . S
C3071 C3077 1.429 . S
C3072 C3064 1.574 . S
C3072 H3067 0.949 . S
C3072 C3078 1.368 . S
C3073 C3057 1.349 . S
C3073 H3065 0.950 . S
C3073 C3071 1.327 . S
C3074 C3062 1.349 . S
C3074 H3068 0.950 . S
C3074 C3075 1.327 . S
C3075 H3069 0.950 . S
C3075 C3074 1.327 . S
C3075 C3079 1.429 . S
C3076 C3059 1.574 . S
C3076 H3070 0.949 . S
C3076 C3080 1.368 . S
C3077 C3058 1.429 . S
C3077 C3071 1.429 . S
C3077 C3078 1.523 . S
C3078 C3059 1.368 . S
C3078 C3072 1.368 . S
C3078 C3077 1.523 . S
C3079 C3063 1.429 . S
C3079 C3075 1.429 . S
C3079 C3080 1.523 . S
C3080 C3064 1.368 . S
C3080 C3076 1.368 . S
C3080 C3079 1.523 . S
H3081 C3056 0.950 . S
H3082 C3058 0.950 . S
H3083 C3059 0.949 . S
H3084 C3061 0.950 . S
H3085 C3063 0.950 . S
C3086 C3087 1.349 . S
C3086 C3088 1.327 . S
C3086 H3111 0.950 . S
C3087 C3086 1.349 . S
C3087 C3103 1.349 . S
C3088 C3086 1.327 . S
C3088 C3107 1.429 . S
C3088 H3112 0.950 . S
C3089 C3106 1.574 . S
C3089 C3108 1.368 . S
C3089 H3113 0.949 . S
H3090 C3094 0.949 . S
C3091 C3092 1.349 . S
C3091 C3093 1.327 . S
C3091 H3114 0.950 . S
C3092 C3091 1.349 . S
C3092 C3104 1.349 . S
C3093 C3091 1.327 . S
C3093 C3109 1.429 . S
C3093 H3115 0.950 . S
C3094 H3090 0.949 . S
C3094 C3102 1.574 . S
C3094 C3110 1.368 . S
H3095 C3103 0.950 . S
H3096 C3101 0.950 . S
H3097 C3102 0.949 . S
H3098 C3104 0.950 . S
H3099 C3105 0.950 . S
H3100 C3106 0.949 . S
C3101 H3096 0.950 . S
C3101 C3103 1.327 . S
C3101 C3107 1.429 . S
C3102 C3094 1.574 . S
C3102 H3097 0.949 . S
C3102 C3108 1.368 . S
C3103 C3087 1.349 . S
C3103 H3095 0.950 . S
C3103 C3101 1.327 . S
C3104 C3092 1.349 . S
C3104 H3098 0.950 . S
C3104 C3105 1.327 . S
C3105 H3099 0.950 . S
C3105 C3104 1.327 . S
C3105 C3109 1.429 . S
C3106 C3089 1.574 . S
C3106 H3100 0.949 . S
C3106 C3110 1.368 . S
C3107 C3088 1.429 . S
C3107 C3101 1.429 . S
C3107 C3108 1.523 . S
C3108 C3089 1.368 . S
C3108 C3102 1.368 . S
C3108 C3107 1.523 . S
C3109 C3093 1.429 . S
C3109 C3105 1.429 . S
C3109 C3110 1.523 . S
C3110 C3094 1.368 . S
C3110 C3106 1.368 . S
C3110 C3109 1.523 . S
H3111 C3086 0.950 . S
H3112 C3088 0.950 . S
H3113 C3089 0.949 . S
H3114 C3091 0.950 . S
H3115 C3093 0.950 . S
C3116 C3117 1.349 . S
C3116 C3118 1.327 . S
C3116 H3141 0.950 . S
C3117 C3116 1.349 . S
C3117 C3133 1.349 . S
C3118 C3116 1.327 . S
C3118 C3137 1.429 . S
C3118 H3142 0.950 . S
C3119 C3136 1.574 . S
C3119 C3138 1.368 . S
C3119 H3143 0.949 . S
H3120 C3124 0.949 . S
C3121 C3122 1.349 . S
C3121 C3123 1.327 . S
C3121 H3144 0.950 . S
C3122 C3121 1.349 . S
C3122 C3134 1.349 1_655 S
C3123 C3121 1.327 . S
C3123 C3139 1.429 . S
C3123 H3145 0.950 . S
C3124 H3120 0.949 . S
C3124 C3132 1.574 . S
C3124 C3140 1.368 . S
H3125 C3133 0.950 . S
H3126 C3131 0.950 . S
H3127 C3132 0.949 . S
H3128 C3134 0.950 . S
H3129 C3135 0.950 1_455 S
H3130 C3136 0.949 . S
C3131 H3126 0.950 . S
C3131 C3133 1.327 . S
C3131 C3137 1.429 . S
C3132 C3124 1.574 . S
C3132 H3127 0.949 . S
C3132 C3138 1.368 . S
C3133 C3117 1.349 . S
C3133 H3125 0.950 . S
C3133 C3131 1.327 . S
C3134 C3122 1.349 1_455 S
C3134 H3128 0.950 . S
C3134 C3135 1.327 1_455 S
C3135 H3129 0.950 1_655 S
C3135 C3134 1.327 1_655 S
C3135 C3139 1.429 . S
C3136 C3119 1.574 . S
C3136 H3130 0.949 . S
C3136 C3140 1.368 . S
C3137 C3118 1.429 . S
C3137 C3131 1.429 . S
C3137 C3138 1.523 . S
C3138 C3119 1.368 . S
C3138 C3132 1.368 . S
C3138 C3137 1.523 . S
C3139 C3123 1.429 . S
C3139 C3135 1.429 . S
C3139 C3140 1.523 . S
C3140 C3124 1.368 . S
C3140 C3136 1.368 . S
C3140 C3139 1.523 . S
H3141 C3116 0.950 . S
H3142 C3118 0.950 . S
H3143 C3119 0.949 . S
H3144 C3121 0.950 . S
H3145 C3123 0.950 . S
C3146 C3147 1.349 . S
C3146 C3148 1.327 . S
C3146 H3171 0.950 . S
C3147 C3146 1.349 . S
C3147 C3163 1.349 . S
C3148 C3146 1.327 . S
C3148 C3167 1.429 . S
C3148 H3172 0.950 . S
C3149 C3166 1.574 . S
C3149 C3168 1.368 . S
C3149 H3173 0.949 . S
H3150 C3154 0.949 . S
C3151 C3152 1.349 . S
C3151 C3153 1.327 . S
C3151 H3174 0.950 . S
C3152 C3151 1.349 . S
C3152 C3164 1.349 . S
C3153 C3151 1.327 . S
C3153 C3169 1.429 . S
C3153 H3175 0.950 . S
C3154 H3150 0.949 . S
C3154 C3162 1.574 . S
C3154 C3170 1.368 . S
H3155 C3163 0.950 . S
H3156 C3161 0.950 . S
H3157 C3162 0.949 . S
H3158 C3164 0.950 . S
H3159 C3165 0.950 . S
H3160 C3166 0.949 . S
C3161 H3156 0.950 . S
C3161 C3163 1.327 . S
C3161 C3167 1.429 . S
C3162 C3154 1.574 . S
C3162 H3157 0.949 . S
C3162 C3168 1.368 . S
C3163 C3147 1.349 . S
C3163 H3155 0.950 . S
C3163 C3161 1.327 . S
C3164 C3152 1.349 . S
C3164 H3158 0.950 . S
C3164 C3165 1.327 . S
C3165 H3159 0.950 . S
C3165 C3164 1.327 . S
C3165 C3169 1.429 . S
C3166 C3149 1.574 . S
C3166 H3160 0.949 . S
C3166 C3170 1.368 . S
C3167 C3148 1.429 . S
C3167 C3161 1.429 . S
C3167 C3168 1.523 . S
C3168 C3149 1.368 . S
C3168 C3162 1.368 . S
C3168 C3167 1.523 . S
C3169 C3153 1.429 . S
C3169 C3165 1.429 . S
C3169 C3170 1.523 . S
C3170 C3154 1.368 . S
C3170 C3166 1.368 . S
C3170 C3169 1.523 . S
H3171 C3146 0.950 . S
H3172 C3148 0.950 . S
H3173 C3149 0.949 . S
H3174 C3151 0.950 . S
H3175 C3153 0.950 . S
C3176 C3177 1.349 . S
C3176 C3178 1.327 . S
C3176 H3201 0.950 . S
C3177 C3176 1.349 . S
C3177 C3193 1.349 . S
C3178 C3176 1.327 . S
C3178 C3197 1.429 . S
C3178 H3202 0.950 . S
C3179 C3196 1.574 . S
C3179 C3198 1.368 . S
C3179 H3203 0.949 . S
H3180 C3184 0.949 . S
C3181 C3182 1.349 . S
C3181 C3183 1.327 . S
C3181 H3204 0.950 . S
C3182 C3181 1.349 . S
C3182 C3194 1.349 . S
C3183 C3181 1.327 . S
C3183 C3199 1.429 . S
C3183 H3205 0.950 . S
C3184 H3180 0.949 . S
C3184 C3192 1.574 . S
C3184 C3200 1.368 . S
H3185 C3193 0.950 . S
H3186 C3191 0.950 . S
H3187 C3192 0.949 . S
H3188 C3194 0.950 . S
H3189 C3195 0.950 . S
H3190 C3196 0.949 . S
C3191 H3186 0.950 . S
C3191 C3193 1.327 . S
C3191 C3197 1.429 . S
C3192 C3184 1.574 . S
C3192 H3187 0.949 . S
C3192 C3198 1.368 . S
C3193 C3177 1.349 . S
C3193 H3185 0.950 . S
C3193 C3191 1.327 . S
C3194 C3182 1.349 . S
C3194 H3188 0.950 . S
C3194 C3195 1.327 . S
C3195 H3189 0.950 . S
C3195 C3194 1.327 . S
C3195 C3199 1.429 . S
C3196 C3179 1.574 . S
C3196 H3190 0.949 . S
C3196 C3200 1.368 . S
C3197 C3178 1.429 . S
C3197 C3191 1.429 . S
C3197 C3198 1.523 . S
C3198 C3179 1.368 . S
C3198 C3192 1.368 . S
C3198 C3197 1.523 . S
C3199 C3183 1.429 . S
C3199 C3195 1.429 . S
C3199 C3200 1.523 . S
C3200 C3184 1.368 . S
C3200 C3196 1.368 . S
C3200 C3199 1.523 . S
H3201 C3176 0.950 . S
H3202 C3178 0.950 . S
H3203 C3179 0.949 . S
H3204 C3181 0.950 . S
H3205 C3183 0.950 . S
C3206 C3207 1.349 . S
C3206 C3208 1.327 . S
C3206 H3231 0.950 . S
C3207 C3206 1.349 . S
C3207 C3223 1.349 . S
C3208 C3206 1.327 . S
C3208 C3227 1.429 . S
C3208 H3232 0.950 . S
C3209 C3226 1.574 . S
C3209 C3228 1.368 . S
C3209 H3233 0.949 . S
H3210 C3214 0.949 . S
C3211 C3212 1.349 . S
C3211 C3213 1.327 . S
C3211 H3234 0.950 . S
C3212 C3211 1.349 . S
C3212 C3224 1.349 . S
C3213 C3211 1.327 . S
C3213 C3229 1.429 . S
C3213 H3235 0.950 . S
C3214 H3210 0.949 . S
C3214 C3222 1.574 . S
C3214 C3230 1.368 . S
H3215 C3223 0.950 . S
H3216 C3221 0.950 . S
H3217 C3222 0.949 . S
H3218 C3224 0.950 . S
H3219 C3225 0.950 . S
H3220 C3226 0.949 . S
C3221 H3216 0.950 . S
C3221 C3223 1.327 . S
C3221 C3227 1.429 . S
C3222 C3214 1.574 . S
C3222 H3217 0.949 . S
C3222 C3228 1.368 . S
C3223 C3207 1.349 . S
C3223 H3215 0.950 . S
C3223 C3221 1.327 . S
C3224 C3212 1.349 . S
C3224 H3218 0.950 . S
C3224 C3225 1.327 . S
C3225 H3219 0.950 . S
C3225 C3224 1.327 . S
C3225 C3229 1.429 . S
C3226 C3209 1.574 . S
C3226 H3220 0.949 . S
C3226 C3230 1.368 . S
C3227 C3208 1.429 . S
C3227 C3221 1.429 . S
C3227 C3228 1.523 . S
C3228 C3209 1.368 . S
C3228 C3222 1.368 . S
C3228 C3227 1.523 . S
C3229 C3213 1.429 . S
C3229 C3225 1.429 . S
C3229 C3230 1.523 . S
C3230 C3214 1.368 . S
C3230 C3226 1.368 . S
C3230 C3229 1.523 . S
H3231 C3206 0.950 . S
H3232 C3208 0.950 . S
H3233 C3209 0.949 . S
H3234 C3211 0.950 . S
H3235 C3213 0.950 . S
C3236 C3237 1.349 . S
C3236 C3238 1.327 . S
C3236 H3261 0.950 . S
C3237 C3236 1.349 . S
C3237 C3253 1.349 . S
C3238 C3236 1.327 . S
C3238 C3257 1.429 . S
C3238 H3262 0.950 . S
C3239 C3256 1.574 . S
C3239 C3258 1.368 . S
C3239 H3263 0.949 . S
H3240 C3244 0.949 . S
C3241 C3242 1.349 . S
C3241 C3243 1.327 . S
C3241 H3264 0.948 . S
C3242 C3241 1.349 . S
C3242 C3254 1.349 . S
C3243 C3241 1.327 . S
C3243 C3259 1.429 . S
C3243 H3265 0.950 . S
C3244 H3240 0.949 . S
C3244 C3252 1.574 . S
C3244 C3260 1.368 . S
H3245 C3253 0.950 . S
H3246 C3251 0.950 . S
H3247 C3252 0.949 . S
H3248 C3254 0.950 . S
H3249 C3255 0.950 . S
H3250 C3256 0.949 . S
C3251 H3246 0.950 . S
C3251 C3253 1.327 . S
C3251 C3257 1.429 . S
C3252 C3244 1.574 . S
C3252 H3247 0.949 . S
C3252 C3258 1.368 . S
C3253 C3237 1.349 . S
C3253 H3245 0.950 . S
C3253 C3251 1.327 . S
C3254 C3242 1.349 . S
C3254 H3248 0.950 . S
C3254 C3255 1.327 . S
C3255 H3249 0.950 . S
C3255 C3254 1.327 . S
C3255 C3259 1.429 . S
C3256 C3239 1.574 . S
C3256 H3250 0.949 . S
C3256 C3260 1.368 . S
C3257 C3238 1.429 . S
C3257 C3251 1.429 . S
C3257 C3258 1.523 . S
C3258 C3239 1.368 . S
C3258 C3252 1.368 . S
C3258 C3257 1.523 . S
C3259 C3243 1.429 . S
C3259 C3255 1.429 . S
C3259 C3260 1.523 . S
C3260 C3244 1.368 . S
C3260 C3256 1.368 . S
C3260 C3259 1.523 . S
H3261 C3236 0.950 . S
H3262 C3238 0.950 . S
H3263 C3239 0.949 . S
H3264 C3241 0.948 . S
H3265 C3243 0.950 . S
C3266 C3267 1.349 . S
C3266 C3268 1.327 . S
C3266 H3291 0.950 . S
C3267 C3266 1.349 . S
C3267 C3283 1.349 . S
C3268 C3266 1.327 . S
C3268 C3287 1.429 . S
C3268 H3292 0.950 . S
C3269 C3286 1.574 . S
C3269 C3288 1.368 . S
C3269 H3293 0.949 . S
H3270 C3274 0.949 . S
C3271 C3272 1.349 . S
C3271 C3273 1.327 . S
C3271 H3294 0.950 . S
C3272 C3271 1.349 . S
C3272 C3284 1.349 . S
C3273 C3271 1.327 . S
C3273 C3289 1.429 . S
C3273 H3295 0.950 . S
C3274 H3270 0.949 . S
C3274 C3282 1.574 . S
C3274 C3290 1.368 . S
H3275 C3283 0.950 . S
H3276 C3281 0.950 . S
H3277 C3282 0.949 . S
H3278 C3284 0.950 . S
H3279 C3285 0.950 . S
H3280 C3286 0.949 . S
C3281 H3276 0.950 . S
C3281 C3283 1.327 . S
C3281 C3287 1.429 . S
C3282 C3274 1.574 . S
C3282 H3277 0.949 . S
C3282 C3288 1.368 . S
C3283 C3267 1.349 . S
C3283 H3275 0.950 . S
C3283 C3281 1.327 . S
C3284 C3272 1.349 . S
C3284 H3278 0.950 . S
C3284 C3285 1.327 . S
C3285 H3279 0.950 . S
C3285 C3284 1.327 . S
C3285 C3289 1.429 . S
C3286 C3269 1.574 . S
C3286 H3280 0.949 . S
C3286 C3290 1.368 . S
C3287 C3268 1.429 . S
C3287 C3281 1.429 . S
C3287 C3288 1.523 . S
C3288 C3269 1.368 . S
C3288 C3282 1.368 . S
C3288 C3287 1.523 . S
C3289 C3273 1.429 . S
C3289 C3285 1.429 . S
C3289 C3290 1.523 . S
C3290 C3274 1.368 . S
C3290 C3286 1.368 . S
C3290 C3289 1.523 . S
H3291 C3266 0.950 . S
H3292 C3268 0.950 . S
H3293 C3269 0.949 . S
H3294 C3271 0.950 . S
H3295 C3273 0.950 . S
C3296 C3297 1.349 . S
C3296 C3298 1.327 . S
C3296 H3321 0.950 . S
C3297 C3296 1.349 . S
C3297 C3313 1.349 . S
C3298 C3296 1.327 . S
C3298 C3317 1.429 . S
C3298 H3322 0.950 . S
C3299 C3316 1.574 . S
C3299 C3318 1.368 . S
C3299 H3323 0.949 . S
H3300 C3304 0.949 . S
C3301 C3302 1.349 . S
C3301 C3303 1.327 . S
C3301 H3324 0.950 . S
C3302 C3301 1.349 . S
C3302 C3314 1.349 . S
C3303 C3301 1.327 . S
C3303 C3319 1.429 . S
C3303 H3325 0.950 . S
C3304 H3300 0.949 . S
C3304 C3312 1.574 . S
C3304 C3320 1.368 . S
H3305 C3313 0.950 . S
H3306 C3311 0.950 . S
H3307 C3312 0.949 . S
H3308 C3314 0.950 . S
H3309 C3315 0.950 . S
H3310 C3316 0.949 . S
C3311 H3306 0.950 . S
C3311 C3313 1.327 . S
C3311 C3317 1.429 . S
C3312 C3304 1.574 . S
C3312 H3307 0.949 . S
C3312 C3318 1.368 . S
C3313 C3297 1.349 . S
C3313 H3305 0.950 . S
C3313 C3311 1.327 . S
C3314 C3302 1.349 . S
C3314 H3308 0.950 . S
C3314 C3315 1.327 . S
C3315 H3309 0.950 . S
C3315 C3314 1.327 . S
C3315 C3319 1.429 . S
C3316 C3299 1.574 . S
C3316 H3310 0.949 . S
C3316 C3320 1.368 . S
C3317 C3298 1.429 . S
C3317 C3311 1.429 . S
C3317 C3318 1.523 . S
C3318 C3299 1.368 . S
C3318 C3312 1.368 . S
C3318 C3317 1.523 . S
C3319 C3303 1.429 . S
C3319 C3315 1.429 . S
C3319 C3320 1.523 . S
C3320 C3304 1.368 . S
C3320 C3316 1.368 . S
C3320 C3319 1.523 . S
H3321 C3296 0.950 . S
H3322 C3298 0.950 . S
H3323 C3299 0.949 . S
H3324 C3301 0.950 . S
H3325 C3303 0.950 . S
C3326 C3327 1.349 . S
C3326 C3328 1.327 . S
C3326 H3351 0.950 . S
C3327 C3326 1.349 . S
C3327 C3343 1.349 . S
C3328 C3326 1.327 . S
C3328 C3347 1.429 . S
C3328 H3352 0.950 . S
C3329 C3346 1.574 . S
C3329 C3348 1.368 . S
C3329 H3353 0.949 . S
H3330 C3334 0.949 . S
C3331 C3332 1.349 . S
C3331 C3333 1.327 . S
C3331 H3354 0.950 . S
C3332 C3331 1.349 . S
C3332 C3344 1.349 . S
C3333 C3331 1.327 . S
C3333 C3349 1.429 . S
C3333 H3355 0.950 . S
C3334 H3330 0.949 . S
C3334 C3342 1.574 . S
C3334 C3350 1.368 . S
H3335 C3343 0.950 . S
H3336 C3341 0.950 . S
H3337 C3342 0.949 . S
H3338 C3344 0.950 . S
H3339 C3345 0.950 . S
H3340 C3346 0.949 . S
C3341 H3336 0.950 . S
C3341 C3343 1.327 . S
C3341 C3347 1.429 . S
C3342 C3334 1.574 . S
C3342 H3337 0.949 . S
C3342 C3348 1.368 . S
C3343 C3327 1.349 . S
C3343 H3335 0.950 . S
C3343 C3341 1.327 . S
C3344 C3332 1.349 . S
C3344 H3338 0.950 . S
C3344 C3345 1.327 . S
C3345 H3339 0.950 . S
C3345 C3344 1.327 . S
C3345 C3349 1.429 . S
C3346 C3329 1.574 . S
C3346 H3340 0.949 . S
C3346 C3350 1.368 . S
C3347 C3328 1.429 . S
C3347 C3341 1.429 . S
C3347 C3348 1.523 . S
C3348 C3329 1.368 . S
C3348 C3342 1.368 . S
C3348 C3347 1.523 . S
C3349 C3333 1.429 . S
C3349 C3345 1.429 . S
C3349 C3350 1.523 . S
C3350 C3334 1.368 . S
C3350 C3346 1.368 . S
C3350 C3349 1.523 . S
H3351 C3326 0.950 . S
H3352 C3328 0.950 . S
H3353 C3329 0.949 . S
H3354 C3331 0.950 . S
H3355 C3333 0.950 . S
C3356 C3357 1.349 . S
C3356 C3358 1.327 . S
C3356 H3381 0.950 . S
C3357 C3356 1.349 . S
C3357 C3373 1.349 . S
C3358 C3356 1.327 . S
C3358 C3377 1.429 . S
C3358 H3382 0.950 . S
C3359 C3376 1.574 . S
C3359 C3378 1.368 . S
C3359 H3383 0.949 . S
H3360 C3364 0.949 . S
C3361 C3362 1.349 . S
C3361 C3363 1.327 . S
C3361 H3384 0.950 . S
C3362 C3361 1.349 . S
C3362 C3374 1.349 . S
C3363 C3361 1.327 . S
C3363 C3379 1.429 . S
C3363 H3385 0.950 . S
C3364 H3360 0.949 . S
C3364 C3372 1.574 . S
C3364 C3380 1.368 . S
H3365 C3373 0.950 . S
H3366 C3371 0.950 . S
H3367 C3372 0.949 . S
H3368 C3374 0.950 . S
H3369 C3375 0.950 . S
H3370 C3376 0.949 . S
C3371 H3366 0.950 . S
C3371 C3373 1.327 . S
C3371 C3377 1.429 . S
C3372 C3364 1.574 . S
C3372 H3367 0.949 . S
C3372 C3378 1.368 . S
C3373 C3357 1.349 . S
C3373 H3365 0.950 . S
C3373 C3371 1.327 . S
C3374 C3362 1.349 . S
C3374 H3368 0.950 . S
C3374 C3375 1.327 . S
C3375 H3369 0.950 . S
C3375 C3374 1.327 . S
C3375 C3379 1.429 . S
C3376 C3359 1.574 . S
C3376 H3370 0.949 . S
C3376 C3380 1.368 . S
C3377 C3358 1.429 . S
C3377 C3371 1.429 . S
C3377 C3378 1.523 . S
C3378 C3359 1.368 . S
C3378 C3372 1.368 . S
C3378 C3377 1.523 . S
C3379 C3363 1.429 . S
C3379 C3375 1.429 . S
C3379 C3380 1.523 . S
C3380 C3364 1.368 . S
C3380 C3376 1.368 . S
C3380 C3379 1.523 . S
H3381 C3356 0.950 . S
H3382 C3358 0.950 . S
H3383 C3359 0.949 . S
H3384 C3361 0.950 . S
H3385 C3363 0.950 . S
C3386 C3387 1.349 . S
C3386 C3388 1.327 . S
C3386 H3411 0.950 . S
C3387 C3386 1.349 . S
C3387 C3403 1.349 . S
C3388 C3386 1.327 . S
C3388 C3407 1.429 . S
C3388 H3412 0.950 . S
C3389 C3406 1.574 . S
C3389 C3408 1.368 . S
C3389 H3413 0.949 . S
H3390 C3394 0.949 . S
C3391 C3392 1.349 . S
C3391 C3393 1.327 . S
C3391 H3414 0.950 . S
C3392 C3391 1.349 . S
C3392 C3404 1.349 . S
C3393 C3391 1.327 . S
C3393 C3409 1.429 . S
C3393 H3415 0.950 . S
C3394 H3390 0.949 . S
C3394 C3402 1.574 . S
C3394 C3410 1.368 . S
H3395 C3403 0.950 . S
H3396 C3401 0.950 . S
H3397 C3402 0.949 . S
H3398 C3404 0.950 . S
H3399 C3405 0.950 . S
H3400 C3406 0.949 . S
C3401 H3396 0.950 . S
C3401 C3403 1.327 . S
C3401 C3407 1.429 . S
C3402 C3394 1.574 . S
C3402 H3397 0.949 . S
C3402 C3408 1.368 . S
C3403 C3387 1.349 . S
C3403 H3395 0.950 . S
C3403 C3401 1.327 . S
C3404 C3392 1.349 . S
C3404 H3398 0.950 . S
C3404 C3405 1.327 . S
C3405 H3399 0.950 . S
C3405 C3404 1.327 . S
C3405 C3409 1.429 . S
C3406 C3389 1.574 . S
C3406 H3400 0.949 . S
C3406 C3410 1.368 . S
C3407 C3388 1.429 . S
C3407 C3401 1.429 . S
C3407 C3408 1.523 . S
C3408 C3389 1.368 . S
C3408 C3402 1.368 . S
C3408 C3407 1.523 . S
C3409 C3393 1.429 . S
C3409 C3405 1.429 . S
C3409 C3410 1.523 . S
C3410 C3394 1.368 . S
C3410 C3406 1.368 . S
C3410 C3409 1.523 . S
H3411 C3386 0.950 . S
H3412 C3388 0.950 . S
H3413 C3389 0.949 . S
H3414 C3391 0.950 . S
H3415 C3393 0.950 . S
C3416 C3417 1.349 . S
C3416 C3418 1.327 . S
C3416 H3441 0.950 . S
C3417 C3416 1.349 . S
C3417 C3433 1.349 . S
C3418 C3416 1.327 . S
C3418 C3437 1.429 . S
C3418 H3442 0.950 . S
C3419 C3436 1.574 . S
C3419 C3438 1.368 . S
C3419 H3443 0.949 . S
H3420 C3424 0.949 . S
C3421 C3422 1.349 . S
C3421 C3423 1.327 . S
C3421 H3444 0.950 . S
C3422 C3421 1.349 . S
C3422 C3434 1.349 . S
C3423 C3421 1.327 . S
C3423 C3439 1.429 . S
C3423 H3445 0.950 . S
C3424 H3420 0.949 . S
C3424 C3432 1.574 . S
C3424 C3440 1.368 . S
H3425 C3433 0.950 . S
H3426 C3431 0.950 . S
H3427 C3432 0.949 . S
H3428 C3434 0.950 . S
H3429 C3435 0.950 . S
H3430 C3436 0.949 . S
C3431 H3426 0.950 . S
C3431 C3433 1.327 . S
C3431 C3437 1.429 . S
C3432 C3424 1.574 . S
C3432 H3427 0.949 . S
C3432 C3438 1.368 . S
C3433 C3417 1.349 . S
C3433 H3425 0.950 . S
C3433 C3431 1.327 . S
C3434 C3422 1.349 . S
C3434 H3428 0.950 . S
C3434 C3435 1.327 . S
C3435 H3429 0.950 . S
C3435 C3434 1.327 . S
C3435 C3439 1.429 . S
C3436 C3419 1.574 . S
C3436 H3430 0.949 . S
C3436 C3440 1.368 . S
C3437 C3418 1.429 . S
C3437 C3431 1.429 . S
C3437 C3438 1.523 . S
C3438 C3419 1.368 . S
C3438 C3432 1.368 . S
C3438 C3437 1.523 . S
C3439 C3423 1.429 . S
C3439 C3435 1.429 . S
C3439 C3440 1.523 . S
C3440 C3424 1.368 . S
C3440 C3436 1.368 . S
C3440 C3439 1.523 . S
H3441 C3416 0.950 . S
H3442 C3418 0.950 . S
H3443 C3419 0.949 . S
H3444 C3421 0.950 . S
H3445 C3423 0.950 . S
C3446 C3447 1.349 . S
C3446 C3448 1.327 . S
C3446 H3471 0.950 . S
C3447 C3446 1.349 . S
C3447 C3463 1.349 . S
C3448 C3446 1.327 . S
C3448 C3467 1.429 . S
C3448 H3472 0.950 . S
C3449 C3466 1.574 . S
C3449 C3468 1.368 . S
C3449 H3473 0.949 . S
H3450 C3454 0.949 . S
C3451 C3452 1.349 . S
C3451 C3453 1.327 . S
C3451 H3474 0.950 1_554 S
C3452 C3451 1.349 . S
C3452 C3464 1.349 . S
C3453 C3451 1.327 . S
C3453 C3469 1.429 . S
C3453 H3475 0.950 1_554 S
C3454 H3450 0.949 . S
C3454 C3462 1.574 . S
C3454 C3470 1.368 . S
H3455 C3463 0.950 . S
H3456 C3461 0.950 . S
H3457 C3462 0.949 . S
H3458 C3464 0.950 . S
H3459 C3465 0.950 . S
H3460 C3466 0.949 1_556 S
C3461 H3456 0.950 . S
C3461 C3463 1.327 . S
C3461 C3467 1.429 . S
C3462 C3454 1.574 . S
C3462 H3457 0.949 . S
C3462 C3468 1.368 . S
C3463 C3447 1.349 . S
C3463 H3455 0.950 . S
C3463 C3461 1.327 . S
C3464 C3452 1.349 . S
C3464 H3458 0.950 . S
C3464 C3465 1.327 . S
C3465 H3459 0.950 . S
C3465 C3464 1.327 . S
C3465 C3469 1.429 . S
C3466 C3449 1.574 . S
C3466 H3460 0.949 1_554 S
C3466 C3470 1.368 . S
C3467 C3448 1.429 . S
C3467 C3461 1.429 . S
C3467 C3468 1.523 . S
C3468 C3449 1.368 . S
C3468 C3462 1.368 . S
C3468 C3467 1.523 . S
C3469 C3453 1.429 . S
C3469 C3465 1.429 . S
C3469 C3470 1.523 . S
C3470 C3454 1.368 . S
C3470 C3466 1.368 . S
C3470 C3469 1.523 . S
H3471 C3446 0.950 . S
H3472 C3448 0.950 . S
H3473 C3449 0.949 . S
H3474 C3451 0.950 1_556 S
H3475 C3453 0.950 1_556 S
C3476 C3477 1.349 . S
C3476 C3478 1.327 . S
C3476 H3501 0.950 . S
C3477 C3476 1.349 . S
C3477 C3493 1.349 . S
C3478 C3476 1.327 . S
C3478 C3497 1.429 . S
C3478 H3502 0.950 . S
C3479 C3496 1.574 . S
C3479 C3498 1.368 . S
C3479 H3503 0.949 . S
H3480 C3484 0.949 . S
C3481 C3482 1.349 . S
C3481 C3483 1.327 . S
C3481 H3504 0.950 . S
C3482 C3481 1.349 . S
C3482 C3494 1.349 . S
C3483 C3481 1.327 . S
C3483 C3499 1.429 . S
C3483 H3505 0.950 . S
C3484 H3480 0.949 . S
C3484 C3492 1.574 . S
C3484 C3500 1.368 . S
H3485 C3493 0.950 . S
H3486 C3491 0.950 . S
H3487 C3492 0.949 . S
H3488 C3494 0.950 . S
H3489 C3495 0.950 . S
H3490 C3496 0.949 . S
C3491 H3486 0.950 . S
C3491 C3493 1.327 . S
C3491 C3497 1.429 . S
C3492 C3484 1.574 . S
C3492 H3487 0.949 . S
C3492 C3498 1.368 . S
C3493 C3477 1.349 . S
C3493 H3485 0.950 . S
C3493 C3491 1.327 . S
C3494 C3482 1.349 . S
C3494 H3488 0.950 . S
C3494 C3495 1.327 . S
C3495 H3489 0.950 . S
C3495 C3494 1.327 . S
C3495 C3499 1.429 . S
C3496 C3479 1.574 . S
C3496 H3490 0.949 . S
C3496 C3500 1.368 . S
C3497 C3478 1.429 . S
C3497 C3491 1.429 . S
C3497 C3498 1.523 . S
C3498 C3479 1.368 . S
C3498 C3492 1.368 . S
C3498 C3497 1.523 . S
C3499 C3483 1.429 . S
C3499 C3495 1.429 . S
C3499 C3500 1.523 . S
C3500 C3484 1.368 . S
C3500 C3496 1.368 . S
C3500 C3499 1.523 . S
H3501 C3476 0.950 . S
H3502 C3478 0.950 . S
H3503 C3479 0.949 . S
H3504 C3481 0.950 . S
H3505 C3483 0.950 . S
C3506 C3507 1.349 . S
C3506 C3508 1.327 . S
C3506 H3531 0.950 . S
C3507 C3506 1.349 . S
C3507 C3523 1.349 . S
C3508 C3506 1.327 . S
C3508 C3527 1.429 . S
C3508 H3532 0.950 . S
C3509 C3526 1.574 . S
C3509 C3528 1.368 . S
C3509 H3533 0.949 . S
H3510 C3514 0.949 . S
C3511 C3512 1.349 . S
C3511 C3513 1.327 . S
C3511 H3534 0.950 . S
C3512 C3511 1.349 . S
C3512 C3524 1.349 . S
C3513 C3511 1.327 . S
C3513 C3529 1.429 . S
C3513 H3535 0.950 . S
C3514 H3510 0.949 . S
C3514 C3522 1.574 . S
C3514 C3530 1.368 . S
H3515 C3523 0.950 . S
H3516 C3521 0.950 . S
H3517 C3522 0.949 . S
H3518 C3524 0.950 . S
H3519 C3525 0.950 . S
H3520 C3526 0.949 . S
C3521 H3516 0.950 . S
C3521 C3523 1.327 . S
C3521 C3527 1.429 . S
C3522 C3514 1.574 . S
C3522 H3517 0.949 . S
C3522 C3528 1.368 . S
C3523 C3507 1.349 . S
C3523 H3515 0.950 . S
C3523 C3521 1.327 . S
C3524 C3512 1.349 . S
C3524 H3518 0.950 . S
C3524 C3525 1.327 . S
C3525 H3519 0.950 . S
C3525 C3524 1.327 . S
C3525 C3529 1.429 . S
C3526 C3509 1.574 . S
C3526 H3520 0.949 . S
C3526 C3530 1.368 . S
C3527 C3508 1.429 . S
C3527 C3521 1.429 . S
C3527 C3528 1.523 . S
C3528 C3509 1.368 . S
C3528 C3522 1.368 . S
C3528 C3527 1.523 . S
C3529 C3513 1.429 . S
C3529 C3525 1.429 . S
C3529 C3530 1.523 . S
C3530 C3514 1.368 . S
C3530 C3526 1.368 . S
C3530 C3529 1.523 . S
H3531 C3506 0.950 . S
H3532 C3508 0.950 . S
H3533 C3509 0.949 . S
H3534 C3511 0.950 . S
H3535 C3513 0.950 . S
C657 C109 1.290 1_655 S
C662 C340 1.153 . S
C687 C65 1.446 . S
C692 C375 1.404 . S
C717 C75 0.990 . S
C722 C380 0.924 . S
C752 C405 1.401 . S
C747 C84 1.476 . S
C777 C25 1.447 . S
C782 C425 1.367 . S
C812 C440 0.890 . S
C807 C28 0.941 . S
C842 C475 1.447 . S
C837 C47 1.487 . S
C867 C9 1.324 . S
C872 C480 1.180 . S
C902 C355 1.499 1_655 S
C897 C233 1.566 . S
C927 C249 0.876 . S
C932 C365 0.850 . S
C962 C395 1.439 . S
C957 C275 1.478 . S
C992 C400 1.037 . S
C987 C173 1.094 1_556 S
C1017 C224 1.156 . S
C1022 C420 1.072 . S
C1052 C455 1.416 . S
C1047 C243 1.455 . S
C1082 C465 0.879 . S
C1077 C266 0.906 . S
C1112 C495 1.356 . S
C1107 C179 1.410 . S
C1142 C345 1.288 . S
C1137 C163 1.398 . S
C1167 C289 1.734 . S
C1172 C515 1.690 . S
C1202 C525 1.351 . S
C1197 C333 1.436 . S
C1232 C540 0.877 . S
C1227 C308 0.920 . S
C1257 C123 1.361 . S
C1262 C485 1.261 . S
C1287 C126 1.525 . S
C1292 C385 1.441 . S
C1317 C327 1.770 . S
C1322 C575 1.732 . S
C1352 C580 0.968 . S
C1347 C299 1.044 . S
C1382 C338 1.167 . S
C1377 C67 1.304 . S
C1412 C594 1.437 . S
C1407 C98 1.462 . S
C1437 C89 1.017 . S
C1442 C378 0.946 . S
C1467 C79 1.530 . S
C1472 C568 1.449 . S
C1502 C428 1.402 . S
C1497 C11 1.481 . S
C1527 C51 0.978 . S
C1532 C518 0.917 . S
C1562 C474 1.510 . S
C1557 C33 1.534 . S
C1592 C598 1.184 . S
C1587 C14 1.321 . S
C1622 C354 1.488 . S
C1617 C140 1.546 . S
C1652 C588 0.867 . S
C1647 C319 0.897 . S
C1677 C112 1.486 . S
C1682 C394 1.459 . S
C1707 C285 1.148 . S
C1712 C558 1.052 . S
C1737 C149 1.202 . S
C1742 C418 1.107 . S
C1772 C534 1.462 . S
C1767 C313 1.502 . S
C1797 C121 0.981 . S
C1802 C468 0.941 . S
C1827 C291 1.445 . S
C1832 C614 1.401 . S
C1857 C182 1.394 . S
C1862 C348 1.293 . S
C1887 C168 1.744 . S
C1892 C514 1.720 . S
C1917 C263 1.485 . S
C1922 C448 1.395 . S
C1947 C247 0.978 . S
C1952 C538 0.920 . S
C1982 C608 1.271 . S
C1977 C277 1.375 . S
C2007 C219 1.579 . S
C2012 C388 1.475 . S
C2042 C414 1.779 . S
C2037 C257 1.818 . S
C2072 C358 0.978 . S
C2067 C201 1.053 . S
C2097 C81 1.290 . S
C2102 C620 1.153 . S
C2132 C595 1.404 . S
C2127 C93 1.445 . S
C2157 C103 0.990 . S
C2162 C640 0.925 . S
C2187 C56 1.476 . S
C2192 C565 1.401 . S
C2217 C53 1.447 . S
C2222 C505 1.368 . S
C2252 C520 0.890 . S
C2247 C0 0.942 . S
C2282 C555 1.448 . S
C2277 C19 1.487 . S
C2312 C600 1.179 . S
C2307 C37 1.323 . S
C2342 C635 1.499 . S
C2337 C261 1.566 . S
C2367 C193 0.876 . S
C2372 C585 0.850 . S
C2402 C655 1.439 . S
C2397 C205 1.479 . S
C2432 C560 1.036 . S
C2427 C215 1.124 . S
C2462 C500 1.072 . S
C2457 C252 1.156 . S
C2487 C187 1.456 . S
C2492 C535 1.416 . S
C2522 C545 0.879 . S
C2517 C196 0.905 . S
C2547 C221 1.409 . S
C2552 C615 1.356 . S
C2582 C625 1.288 . S
C2577 C317 1.398 . S
C2607 C135 1.734 . S
C2612 C435 1.693 . S
C2642 C445 1.351 . S
C2637 C151 1.437 . S
C2672 C460 0.877 . S
C2667 C154 0.920 . S
C2702 C605 1.261 . S
C2697 C305 1.362 . S
C2727 C280 1.525 . S
C2732 C645 1.442 . S
C2762 C415 1.732 . S
C2757 C145 1.770 . S
C2792 C360 0.968 . S
C2787 C117 1.044 . S
C2817 C95 1.304 . S
C2822 C618 1.167 . S
C2852 C374 1.437 . S
C2847 C70 1.461 . S
C2877 C61 1.017 . S
C2882 C638 0.946 . S
C2907 C107 1.530 . S
C2912 C408 1.449 . S
C2937 C39 1.480 . S
C2942 C508 1.401 . S
C2972 C438 0.917 . S
C2967 C23 0.978 . S
C2997 C5 1.534 . S
C3002 C554 1.494 . S
C3027 C42 1.321 . S
C3032 C478 1.184 . S
C3062 C634 1.488 . S
C3057 C322 1.546 . S
C3087 C165 0.897 . S
C3092 C368 0.867 . S
C3122 C654 1.459 1_655 S
C3117 C294 1.486 . S
C3147 C131 1.149 . S
C3152 C398 1.058 . S
C3177 C331 1.202 . S
C3182 C498 1.108 . S
C3212 C454 1.462 . S
C3207 C159 1.502 . S
C3237 C303 0.982 . S
C3242 C548 0.941 . S
C3272 C494 1.394 . S
C3267 C137 1.445 . S
C3302 C628 1.293 . S
C3297 C238 1.394 . S
C3332 C434 1.739 . S
C3327 C210 1.744 . S
C3357 C235 1.485 . S
C3362 C528 1.395 . S
C3392 C458 0.920 . S
C3387 C191 0.978 . S
C3417 C207 1.370 . S
C3422 C488 1.271 . S
C3447 C177 1.579 . S
C3452 C648 1.475 . S
C3482 C574 1.779 . S
C3477 C229 1.818 . S
C3512 C578 0.979 . S
C3507 C271 1.048 . S
