# Generated by pormake.
# Topology zzz, (3,6)-cn, num edge types: 1
# Building blocks:
#     Node 0, Type 0, BuildingBlock: OLANEW_clean_sbu_2, # of connection points: 3
#     Node 1, Type 0, BuildingBlock: OLANEW_clean_sbu_2, # of connection points: 3
#     Node 2, Type 0, BuildingBlock: OLANEW_clean_sbu_2, # of connection points: 3
#     Node 3, Type 0, BuildingBlock: OLANEW_clean_sbu_2, # of connection points: 3
#     Node 4, Type 0, BuildingBlock: OLANEW_clean_sbu_2, # of connection points: 3
#     Node 5, Type 0, BuildingBlock: OLANEW_clean_sbu_2, # of connection points: 3
#     Node 6, Type 0, BuildingBlock: OLANEW_clean_sbu_2, # of connection points: 3
#     Node 7, Type 0, BuildingBlock: OLANEW_clean_sbu_2, # of connection points: 3
#     Node 8, Type 1, BuildingBlock: BETFEN_clean_sbu_0, # of connection points: 6
#     Node 9, Type 1, BuildingBlock: BETFEN_clean_sbu_0, # of connection points: 6
#     Node 10, Type 1, BuildingBlock: BETFEN_clean_sbu_0, # of connection points: 6
#     Node 11, Type 1, BuildingBlock: BETFEN_clean_sbu_0, # of connection points: 6
#     Edge 12, Type (0, 1), BuildingBlock: MIFKUJ_clean_linker_0, # of connection points: 2
#     Edge 13, Type (0, 1), BuildingBlock: MIFKUJ_clean_linker_0, # of connection points: 2
#     Edge 14, Type (0, 1), BuildingBlock: MIFKUJ_clean_linker_0, # of connection points: 2
#     Edge 15, Type (0, 1), BuildingBlock: MIFKUJ_clean_linker_0, # of connection points: 2
#     Edge 16, Type (0, 1), BuildingBlock: MIFKUJ_clean_linker_0, # of connection points: 2
#     Edge 17, Type (0, 1), BuildingBlock: MIFKUJ_clean_linker_0, # of connection points: 2
#     Edge 18, Type (0, 1), BuildingBlock: MIFKUJ_clean_linker_0, # of connection points: 2
#     Edge 19, Type (0, 1), BuildingBlock: MIFKUJ_clean_linker_0, # of connection points: 2
#     Edge 20, Type (0, 1), BuildingBlock: MIFKUJ_clean_linker_0, # of connection points: 2
#     Edge 21, Type (0, 1), BuildingBlock: MIFKUJ_clean_linker_0, # of connection points: 2
#     Edge 22, Type (0, 1), BuildingBlock: MIFKUJ_clean_linker_0, # of connection points: 2
#     Edge 23, Type (0, 1), BuildingBlock: MIFKUJ_clean_linker_0, # of connection points: 2
#     Edge 24, Type (0, 1), BuildingBlock: MIFKUJ_clean_linker_0, # of connection points: 2
#     Edge 25, Type (0, 1), BuildingBlock: MIFKUJ_clean_linker_0, # of connection points: 2
#     Edge 26, Type (0, 1), BuildingBlock: MIFKUJ_clean_linker_0, # of connection points: 2
#     Edge 27, Type (0, 1), BuildingBlock: MIFKUJ_clean_linker_0, # of connection points: 2
#     Edge 28, Type (0, 1), BuildingBlock: MIFKUJ_clean_linker_0, # of connection points: 2
#     Edge 29, Type (0, 1), BuildingBlock: MIFKUJ_clean_linker_0, # of connection points: 2
#     Edge 30, Type (0, 1), BuildingBlock: MIFKUJ_clean_linker_0, # of connection points: 2
#     Edge 31, Type (0, 1), BuildingBlock: MIFKUJ_clean_linker_0, # of connection points: 2
#     Edge 32, Type (0, 1), BuildingBlock: MIFKUJ_clean_linker_0, # of connection points: 2
#     Edge 33, Type (0, 1), BuildingBlock: MIFKUJ_clean_linker_0, # of connection points: 2
#     Edge 34, Type (0, 1), BuildingBlock: MIFKUJ_clean_linker_0, # of connection points: 2
#     Edge 35, Type (0, 1), BuildingBlock: MIFKUJ_clean_linker_0, # of connection points: 2
# Relax obj value: 0.223
# Max RMSD: 0.180
# Mean RMSD: 0.168
data_MOF--net-zzz--node1-OLANEW_clean_sbu_2--node2-BETFEN_clean_sbu_0--edge1-MIFKUJ_clean_linker_0
_symmetry_space_group_name_H-M    P1
_symmetry_Int_Tables_number       1
_symmetry_cell_setting            triclinic
loop_
_symmetry_equiv_pos_as_xyz
'x, y, z'
_cell_length_a     72.121623
_cell_length_b     72.127702
_cell_length_c     19.282855
_cell_angle_alpha  90.086355
_cell_angle_beta   90.014285
_cell_angle_gamma 90.001447
loop_
_atom_site_label
_atom_site_type_symbol
_atom_site_fract_x
_atom_site_fract_y
_atom_site_fract_z
_atom_type_partial_charge
O0 O 0.73093 0.53247 0.2674 0.0
Cd1 Cd 0.70057 0.53508 0.3225 0.0
O2 O 0.73372 0.50556 0.3192 0.0
Cd3 Cd 0.74954 0.48061 0.34467 0.0
O4 O 0.77699 0.47149 0.37642 0.0
C5 C 0.78192 0.47646 0.43688 0.0
O6 O 0.76948 0.48399 0.47797 0.0
C7 C 0.7406 0.51823 0.28113 0.0
C8 C 0.67165 0.52728 0.2316 0.0
O9 O 0.67788 0.54382 0.23857 0.0
O10 O 0.67917 0.51438 0.2676 0.0
O11 O 0.98928 0.74168 0.27811 0.0
Cd12 Cd 0.98824 0.71199 0.33854 0.0
O13 O 0.01043 0.75224 0.35029 0.0
Cd14 Cd 0.00591 0.73187 0.43168 0.0
O15 O 0.002 0.75589 0.49914 0.0
C16 C 0.98856 0.76659 0.4842 0.0
O17 O 0.97656 0.76122 0.43697 0.0
C18 C 0.00071 0.75423 0.2959 0.0
C19 C 0.9896 0.68296 0.24316 0.0
O20 O 0.97407 0.68842 0.26818 0.0
O21 O 0.00442 0.69107 0.26384 0.0
O22 O 0.76946 0.96571 0.20347 0.0
Cd23 Cd 0.79831 0.9598 0.26591 0.0
O24 O 0.76726 0.98996 0.27121 0.0
Cd25 Cd 0.75017 0.01036 0.32382 0.0
O26 O 0.72541 0.01048 0.38765 0.0
C27 C 0.71673 0.99516 0.3865 0.0
O28 O 0.72334 0.98149 0.3488 0.0
C29 C 0.76046 0.97987 0.22346 0.0
C30 C 0.82933 0.96945 0.18854 0.0
O31 O 0.82314 0.95279 0.18838 0.0
O32 O 0.82082 0.98156 0.22542 0.0
O33 O 0.5405 0.75869 0.21155 0.0
Cd34 Cd 0.55215 0.78687 0.26669 0.0
O35 O 0.51496 0.76165 0.27162 0.0
Cd36 Cd 0.4904 0.75123 0.32432 0.0
O37 O 0.4844 0.73093 0.40401 0.0
C38 C 0.49898 0.72601 0.43603 0.0
O39 O 0.51476 0.73406 0.42005 0.0
C40 C 0.52473 0.75238 0.22893 0.0
C41 C 0.54375 0.81848 0.19088 0.0
O42 O 0.55863 0.80927 0.1792 0.0
O43 O 0.53281 0.81269 0.23858 0.0
O44 O 0.27294 0.53594 0.06141 0.0
Cd45 Cd 0.30273 0.5375 0.00172 0.0
O46 O 0.27062 0.50726 0.02502 0.0
Cd47 Cd 0.25716 0.48028 0.0125 0.0
O48 O 0.23273 0.46554 0.97588 0.0
C49 C 0.21977 0.46165 0.01798 0.0
O50 O 0.22244 0.46437 0.08463 0.0
C51 C 0.26374 0.52096 0.05791 0.0
C52 C 0.33164 0.53081 0.09382 0.0
O53 O 0.32583 0.54733 0.08249 0.0
O54 O 0.32386 0.51745 0.06096 0.0
O55 O 0.97452 0.26816 0.13792 0.0
Cd56 Cd 0.97103 0.29829 0.08179 0.0
O57 O 0.9915 0.26029 0.04886 0.0
Cd58 Cd 0.00595 0.24289 0.97302 0.0
O59 O 0.01632 0.228 0.88163 0.0
C60 C 0.0072 0.22701 0.82516 0.0
O61 O 0.99111 0.23547 0.82066 0.0
C62 C 0.98405 0.25597 0.10647 0.0
C63 C 0.97678 0.32769 0.17285 0.0
O64 O 0.96079 0.32011 0.16665 0.0
O65 O 0.99013 0.32132 0.13597 0.0
O66 O 0.2347 0.9526 0.09143 0.0
Cd67 Cd 0.20485 0.94294 0.0436 0.0
O68 O 0.23176 0.97986 0.04234 0.0
Cd69 Cd 0.242 0.00764 0.02012 0.0
O70 O 0.26425 0.0254 0.98414 0.0
C71 C 0.27668 0.03075 0.0263 0.0
O72 O 0.27453 0.02738 0.09277 0.0
C73 C 0.24123 0.96857 0.07849 0.0
C74 C 0.17556 0.95382 0.12828 0.0
O75 O 0.18427 0.9386 0.13906 0.0
O76 O 0.18066 0.96392 0.07707 0.0
O77 O 0.53723 0.22598 0.18109 0.0
Cd78 Cd 0.53897 0.19812 0.10957 0.0
O79 O 0.51689 0.23292 0.10184 0.0
Cd80 Cd 0.49905 0.25065 0.03953 0.0
O81 O 0.48884 0.27283 0.97413 0.0
C82 C 0.49584 0.27476 0.91413 0.0
O83 O 0.50832 0.26279 0.89276 0.0
C84 C 0.52552 0.2374 0.15698 0.0
C85 C 0.52166 0.16888 0.1765 0.0
O86 O 0.53935 0.17059 0.17747 0.0
O87 O 0.51213 0.18088 0.14298 0.0
Pr88 Pr 0.01494 0.99455 0.7451 0.0
Pr89 Pr 0.99852 0.00602 0.59105 0.0
C90 C 0.01683 0.98504 0.87947 0.0
C91 C 0.0112 0.9687 0.91955 0.0
C92 C 0.02149 0.96344 0.97789 0.0
C93 C 0.01785 0.9466 0.01098 0.0
C94 C 0.00385 0.93474 0.98604 0.0
C95 C 0.99319 0.94037 0.92876 0.0
C96 C 0.99692 0.95715 0.89558 0.0
C97 C 0.04329 0.0003 0.64788 0.0
C98 C 0.00464 0.96112 0.63157 0.0
C99 C 0.99017 0.01481 0.45943 0.0
C100 C 0.99017 0.03243 0.42032 0.0
C101 C 0.97348 0.03939 0.39343 0.0
C102 C 0.97279 0.05708 0.3639 0.0
C103 C 0.98884 0.06814 0.36028 0.0
C104 C 0.0057 0.06075 0.38448 0.0
C105 C 0.00635 0.04317 0.41455 0.0
C106 C 0.97405 0.00491 0.70238 0.0
C107 C 0.0142 0.03856 0.69487 0.0
O108 O 0.00351 0.99547 0.85437 0.0
O109 O 0.03034 0.98209 0.83547 0.0
O110 O 0.02622 0.00281 0.6418 0.0
O111 O 0.04671 0.99474 0.71077 0.0
O112 O 0.00061 0.97356 0.5832 0.0
O113 O 0.00921 0.96549 0.69614 0.0
O114 O 0.00632 0.00802 0.47769 0.0
O115 O 0.97761 0.01347 0.50823 0.0
O116 O 0.98672 0.99334 0.69038 0.0
O117 O 0.97327 0.01766 0.65483 0.0
O118 O 0.01235 0.0271 0.74819 0.0
O119 O 0.0126 0.03322 0.62947 0.0
H120 H 0.03274 0.97207 0.99649 0.0
H121 H 0.02646 0.94255 0.05441 0.0
H122 H 0.9822 0.93164 0.90873 0.0
H123 H 0.98907 0.96079 0.84982 0.0
H124 H 0.96083 0.03135 0.39708 0.0
H125 H 0.95965 0.06217 0.34455 0.0
H126 H 0.01833 0.06881 0.3828 0.0
H127 H 0.01944 0.03827 0.43506 0.0
Pr128 Pr 0.50081 0.00577 0.77137 0.0
Pr129 Pr 0.48654 0.99153 0.62754 0.0
C130 C 0.51884 0.01034 0.89231 0.0
C131 C 0.53817 0.00811 0.91582 0.0
C132 C 0.54612 0.02151 0.95937 0.0
C133 C 0.56462 0.01992 0.98027 0.0
C134 C 0.57546 0.0048 0.95829 0.0
C135 C 0.56744 0.99136 0.91478 0.0
C136 C 0.549 0.99305 0.89338 0.0
C137 C 0.49329 0.03288 0.6733 0.0
C138 C 0.53127 0.99236 0.65004 0.0
C139 C 0.47056 0.98649 0.50238 0.0
C140 C 0.45282 0.98908 0.46633 0.0
C141 C 0.45097 0.98285 0.39788 0.0
C142 C 0.43411 0.98479 0.36292 0.0
C143 C 0.41877 0.993 0.39593 0.0
C144 C 0.42076 0.99937 0.46462 0.0
C145 C 0.43768 0.99746 0.4995 0.0
C146 C 0.495 0.96424 0.72369 0.0
C147 C 0.45646 0.00582 0.75014 0.0
O148 O 0.50986 0.99515 0.87612 0.0
O149 O 0.51571 0.02401 0.84933 0.0
O150 O 0.50142 0.01775 0.66199 0.0
O151 O 0.48926 0.03503 0.73863 0.0
O152 O 0.51807 0.99217 0.60267 0.0
O153 O 0.52781 0.99511 0.71652 0.0
O154 O 0.47962 0.00154 0.51947 0.0
O155 O 0.47104 0.97367 0.5503 0.0
O156 O 0.48646 0.97908 0.73669 0.0
O157 O 0.49873 0.96254 0.65801 0.0
O158 O 0.46965 0.00456 0.7972 0.0
O159 O 0.45986 0.00371 0.68298 0.0
H160 H 0.53803 0.03327 0.97695 0.0
H161 H 0.5704 0.0304 0.01426 0.0
H162 H 0.57552 0.97969 0.89636 0.0
H163 H 0.54326 0.98264 0.85893 0.0
H164 H 0.46254 0.97634 0.37157 0.0
H165 H 0.43298 0.97952 0.31046 0.0
H166 H 0.40926 0.0059 0.49126 0.0
H167 H 0.43892 0.00241 0.55234 0.0
Pr168 Pr 0.49068 0.50321 0.74007 0.0
Pr169 Pr 0.50967 0.4957 0.59948 0.0
C170 C 0.48274 0.51632 0.86741 0.0
C171 C 0.485 0.53461 0.9002 0.0
C172 C 0.47232 0.54071 0.95034 0.0
C173 C 0.47379 0.55859 0.97823 0.0
C174 C 0.48793 0.57066 0.95606 0.0
C175 C 0.50062 0.5644 0.90585 0.0
C176 C 0.49923 0.54653 0.87855 0.0
C177 C 0.46659 0.50081 0.62801 0.0
C178 C 0.50662 0.53865 0.6435 0.0
C179 C 0.5192 0.48136 0.47589 0.0
C180 C 0.51794 0.46237 0.44723 0.0
C181 C 0.53401 0.45342 0.42347 0.0
C182 C 0.53335 0.43487 0.4023 0.0
C183 C 0.51657 0.42496 0.40392 0.0
C184 C 0.50041 0.43403 0.42645 0.0
C185 C 0.5011 0.45251 0.44827 0.0
C186 C 0.53346 0.49931 0.71166 0.0
C187 C 0.49137 0.46057 0.69118 0.0
O188 O 0.49805 0.50736 0.85297 0.0
O189 O 0.47047 0.51547 0.81757 0.0
O190 O 0.48202 0.50898 0.62792 0.0
O191 O 0.46252 0.49422 0.68896 0.0
O192 O 0.5079 0.52765 0.58899 0.0
O193 O 0.50298 0.5321 0.70608 0.0
O194 O 0.50356 0.49016 0.4863 0.0
O195 O 0.53112 0.48367 0.52631 0.0
O196 O 0.51855 0.49018 0.71176 0.0
O197 O 0.53688 0.50667 0.65146 0.0
O198 O 0.49004 0.47122 0.7465 0.0
O199 O 0.49626 0.46719 0.63009 0.0
H200 H 0.46121 0.53171 0.9675 0.0
H201 H 0.46394 0.5629 0.01744 0.0
H202 H 0.51153 0.57338 0.88692 0.0
H203 H 0.50917 0.54213 0.83979 0.0
H204 H 0.54716 0.46068 0.42256 0.0
H205 H 0.54599 0.42826 0.38458 0.0
H206 H 0.48733 0.42668 0.42896 0.0
H207 H 0.4885 0.45892 0.4673 0.0
Pr208 Pr 0.99463 0.50269 0.76954 0.0
Pr209 Pr 0.01435 0.51471 0.62096 0.0
C210 C 0.97761 0.5069 0.8926 0.0
C211 C 0.9589 0.5058 0.92432 0.0
C212 C 0.9524 0.48927 0.9543 0.0
C213 C 0.93483 0.48858 0.98528 0.0
C214 C 0.92343 0.5044 0.98693 0.0
C215 C 0.93006 0.52095 0.9576 0.0
C216 C 0.94758 0.52166 0.927 0.0
C217 C 0.99342 0.4739 0.67227 0.0
C218 C 0.96895 0.51426 0.631 0.0
C219 C 0.03428 0.51898 0.50401 0.0
C220 C 0.0533 0.51685 0.47642 0.0
C221 C 0.06353 0.53275 0.45927 0.0
C222 C 0.08121 0.53122 0.43044 0.0
C223 C 0.08903 0.51371 0.41747 0.0
C224 C 0.07885 0.49775 0.43489 0.0
C225 C 0.06116 0.49929 0.46424 0.0
C226 C 0.00793 0.5421 0.72002 0.0
C227 C 0.03955 0.49529 0.74935 0.0
O228 O 0.98034 0.52052 0.84874 0.0
O229 O 0.98591 0.4914 0.87446 0.0
O230 O 0.00031 0.48974 0.66618 0.0
O231 O 0.98615 0.47217 0.73384 0.0
O232 O 0.98333 0.51254 0.58883 0.0
O233 O 0.97057 0.51435 0.69958 0.0
O234 O 0.0247 0.50397 0.51759 0.0
O235 O 0.03164 0.53232 0.54904 0.0
O236 O 0.01363 0.52592 0.73152 0.0
O237 O 0.00562 0.545 0.65397 0.0
O238 O 0.02573 0.49688 0.79429 0.0
O239 O 0.0381 0.49973 0.68276 0.0
H240 H 0.96085 0.47686 0.9539 0.0
H241 H 0.93009 0.4756 0.00719 0.0
H242 H 0.9218 0.53349 0.95917 0.0
H243 H 0.95228 0.53473 0.90571 0.0
H244 H 0.05773 0.54645 0.46732 0.0
H245 H 0.08857 0.54377 0.4166 0.0
H246 H 0.08458 0.48408 0.42592 0.0
H247 H 0.05362 0.48675 0.47674 0.0
H248 H 0.15012 0.98136 0.10647 0.0
H249 H 0.12516 0.99119 0.18427 0.0
H250 H 0.14194 0.94968 0.33264 0.0
H251 H 0.16638 0.93938 0.25416 0.0
H252 H 0.10605 0.95036 0.32627 0.0
H253 H 0.15391 0.99711 0.34663 0.0
H254 H 0.17529 0.02121 0.30383 0.0
H255 H 0.12914 0.05284 0.22773 0.0
H256 H 0.10751 0.0288 0.26939 0.0
H257 H 0.07654 0.98299 0.64752 0.0
H258 H 0.09697 0.97791 0.54824 0.0
H259 H 0.06061 0.01051 0.41924 0.0
H260 H 0.04001 0.01567 0.51916 0.0
H261 H 0.10228 0.01595 0.40354 0.0
H262 H 0.05431 0.96954 0.39911 0.0
H263 H 0.03432 0.94659 0.45737 0.0
H264 H 0.08223 0.91457 0.5129 0.0
H265 H 0.10255 0.93753 0.45625 0.0
C266 C 0.14843 0.9743 0.1556 0.0
C267 C 0.16025 0.95965 0.17437 0.0
C268 C 0.1342 0.97997 0.20012 0.0
C269 C 0.13181 0.97135 0.26478 0.0
C270 C 0.14346 0.95654 0.283 0.0
C271 C 0.15749 0.9507 0.23817 0.0
C272 C 0.11747 0.97783 0.31444 0.0
C273 C 0.10529 0.9647 0.34306 0.0
C274 C 0.11613 0.99664 0.3355 0.0
C275 C 0.12912 0.01106 0.31032 0.0
C276 C 0.14834 0.00913 0.32026 0.0
C277 C 0.1605 0.0228 0.29631 0.0
C278 C 0.15358 0.03852 0.26286 0.0
C279 C 0.13449 0.04064 0.25349 0.0
C280 C 0.12227 0.027 0.27728 0.0
C281 C 0.07303 0.9893 0.59829 0.0
C282 C 0.05657 0.99942 0.59028 0.0
C283 C 0.08468 0.98638 0.54174 0.0
C284 C 0.08012 0.99366 0.47657 0.0
C285 C 0.06425 0.00472 0.46924 0.0
C286 C 0.05246 0.0075 0.52589 0.0
C287 C 0.09136 0.98841 0.41577 0.0
C288 C 0.10287 0.00172 0.38529 0.0
C289 C 0.09223 0.96977 0.39343 0.0
C290 C 0.07997 0.95534 0.42383 0.0
C291 C 0.06059 0.95763 0.42392 0.0
C292 C 0.0492 0.94465 0.45676 0.0
C293 C 0.05701 0.92919 0.48908 0.0
C294 C 0.07621 0.92658 0.48795 0.0
C295 C 0.08767 0.93956 0.45542 0.0
H296 H 0.04819 0.91925 0.51507 0.0
H297 H 0.16302 0.04908 0.24438 0.0
H298 H 0.48698 0.16915 0.23273 0.0
H299 H 0.47347 0.14579 0.31027 0.0
H300 H 0.5221 0.11167 0.28503 0.0
H301 H 0.53594 0.13517 0.20957 0.0
H302 H 0.48265 0.09324 0.28298 0.0
H303 H 0.52553 0.13477 0.41229 0.0
H304 H 0.53522 0.16609 0.44895 0.0
H305 H 0.48099 0.17617 0.53291 0.0
H306 H 0.47094 0.14495 0.49577 0.0
H307 H 0.50692 0.03245 0.54286 0.0
H308 H 0.50259 0.05546 0.45256 0.0
H309 H 0.46661 0.0869 0.58776 0.0
H310 H 0.47157 0.06398 0.68008 0.0
H311 H 0.48972 0.10903 0.53222 0.0
H312 H 0.44984 0.06433 0.43714 0.0
H313 H 0.43825 0.03383 0.39907 0.0
H314 H 0.48218 0.03001 0.2496 0.0
H315 H 0.49423 0.06037 0.28731 0.0
C316 C 0.49463 0.15651 0.24287 0.0
C317 C 0.51254 0.15396 0.21574 0.0
C318 C 0.48689 0.14322 0.28691 0.0
C319 C 0.49681 0.12707 0.30284 0.0
C320 C 0.51423 0.12403 0.27271 0.0
C321 C 0.52215 0.13749 0.23014 0.0
C322 C 0.49019 0.11426 0.35686 0.0
C323 C 0.48408 0.09656 0.33759 0.0
C324 C 0.49132 0.11906 0.4277 0.0
C325 C 0.49743 0.13768 0.45054 0.0
C326 C 0.51564 0.14374 0.43802 0.0
C327 C 0.5212 0.16145 0.45898 0.0
C328 C 0.50871 0.17314 0.49303 0.0
C329 C 0.49064 0.16711 0.50639 0.0
C330 C 0.485 0.14942 0.48541 0.0
C331 C 0.49793 0.04416 0.55321 0.0
C332 C 0.48963 0.04652 0.61842 0.0
C333 C 0.49528 0.05723 0.50118 0.0
C334 C 0.48393 0.07275 0.51264 0.0
C335 C 0.47532 0.07497 0.57755 0.0
C336 C 0.47818 0.06194 0.63022 0.0
C337 C 0.48285 0.08742 0.45894 0.0
C338 C 0.48759 0.10561 0.478 0.0
C339 C 0.48004 0.0831 0.38792 0.0
C340 C 0.47297 0.06468 0.36523 0.0
C341 C 0.45713 0.05695 0.3965 0.0
C342 C 0.45046 0.03967 0.37494 0.0
C343 C 0.45947 0.03 0.32195 0.0
C344 C 0.4752 0.03755 0.29056 0.0
C345 C 0.48193 0.05481 0.31191 0.0
H346 H 0.45424 0.01669 0.30496 0.0
H347 H 0.51304 0.18685 0.50924 0.0
H348 H 0.35124 0.55629 0.16883 0.0
H349 H 0.37539 0.55038 0.25486 0.0
H350 H 0.36982 0.49152 0.2206 0.0
H351 H 0.34585 0.49731 0.13361 0.0
H352 H 0.37356 0.53273 0.3745 0.0
H353 H 0.41177 0.4707 0.24677 0.0
H354 H 0.41934 0.45895 0.1299 0.0
H355 H 0.41565 0.51415 0.04794 0.0
H356 H 0.40828 0.52625 0.1644 0.0
H357 H 0.43068 0.48883 0.62394 0.0
H358 H 0.40848 0.49281 0.52871 0.0
H359 H 0.4509 0.51909 0.40551 0.0
H360 H 0.47307 0.51521 0.50025 0.0
H361 H 0.42971 0.49486 0.32868 0.0
H362 H 0.42122 0.5458 0.48573 0.0
H363 H 0.41588 0.56035 0.59981 0.0
H364 H 0.36344 0.53253 0.61626 0.0
H365 H 0.36859 0.51759 0.50263 0.0
C366 C 0.35523 0.54208 0.17925 0.0
C367 C 0.34664 0.52727 0.14436 0.0
C368 C 0.36899 0.53874 0.22858 0.0
C369 C 0.37448 0.52053 0.24384 0.0
C370 C 0.36599 0.5057 0.20892 0.0
C371 C 0.35224 0.50903 0.15941 0.0
C372 C 0.3887 0.51708 0.29781 0.0
C373 C 0.38581 0.52442 0.3644 0.0
C374 C 0.40482 0.50646 0.28446 0.0
C375 C 0.40927 0.49933 0.21419 0.0
C376 C 0.41261 0.48033 0.20382 0.0
C377 C 0.41686 0.47361 0.13765 0.0
C378 C 0.41791 0.48579 0.08149 0.0
C379 C 0.41475 0.50472 0.09142 0.0
C380 C 0.4105 0.51151 0.15748 0.0
C381 C 0.43527 0.49529 0.57628 0.0
C382 C 0.45352 0.50181 0.56948 0.0
C383 C 0.42261 0.49758 0.52208 0.0
C384 C 0.42806 0.50636 0.4604 0.0
C385 C 0.44646 0.51224 0.45265 0.0
C386 C 0.45907 0.51006 0.50687 0.0
C387 C 0.41437 0.51029 0.40521 0.0
C388 C 0.41737 0.50305 0.33861 0.0
C389 C 0.39857 0.52138 0.41799 0.0
C390 C 0.39537 0.53043 0.48605 0.0
C391 C 0.40862 0.54267 0.51392 0.0
C392 C 0.40562 0.55101 0.57844 0.0
C393 C 0.38936 0.54733 0.61532 0.0
C394 C 0.37604 0.53534 0.58766 0.0
C395 C 0.37898 0.52695 0.52319 0.0
H396 H 0.38706 0.5538 0.66527 0.0
H397 H 0.4212 0.48056 0.03032 0.0
H398 H 0.00726 0.35011 0.18393 0.0
H399 H 0.01169 0.37629 0.26304 0.0
H400 H 0.95751 0.36657 0.35075 0.0
H401 H 0.95277 0.3408 0.27055 0.0
H402 H 0.96226 0.4021 0.32974 0.0
H403 H 0.99878 0.35327 0.43346 0.0
H404 H 0.02309 0.32923 0.43588 0.0
H405 H 0.06446 0.37028 0.39049 0.0
H406 H 0.04034 0.39453 0.38695 0.0
H407 H 0.96898 0.44553 0.65916 0.0
H408 H 0.96777 0.42223 0.5665 0.0
H409 H 0.01584 0.44682 0.47054 0.0
H410 H 0.01691 0.47035 0.56274 0.0
H411 H 0.01632 0.40605 0.48833 0.0
H412 H 0.97996 0.45499 0.39001 0.0
H413 H 0.95553 0.4789 0.38573 0.0
H414 H 0.9141 0.43739 0.42371 0.0
H415 H 0.93824 0.41328 0.42831 0.0
C416 C 0.9963 0.35355 0.22016 0.0
C417 C 0.97968 0.34337 0.22112 0.0
C418 C 0.99889 0.36847 0.26553 0.0
C419 C 0.98502 0.37327 0.31344 0.0
C420 C 0.9684 0.36314 0.31421 0.0
C421 C 0.96573 0.34837 0.26845 0.0
C422 C 0.98762 0.38893 0.3625 0.0
C423 C 0.97401 0.40283 0.36481 0.0
C424 C 0.00324 0.39023 0.40687 0.0
C425 C 0.01774 0.37567 0.40919 0.0
C426 C 0.01304 0.35714 0.42347 0.0
C427 C 0.02679 0.34349 0.42514 0.0
C428 C 0.0453 0.34822 0.41314 0.0
C429 C 0.05011 0.36663 0.39965 0.0
C430 C 0.03641 0.38034 0.39786 0.0
C431 C 0.97926 0.44594 0.61824 0.0
C432 C 0.99294 0.45975 0.6174 0.0
C433 C 0.97853 0.4327 0.56541 0.0
C434 C 0.99166 0.43293 0.51173 0.0
C435 C 0.00556 0.44651 0.5115 0.0
C436 C 0.00608 0.45997 0.56371 0.0
C437 C 0.99077 0.41883 0.45623 0.0
C438 C 0.00469 0.4053 0.45274 0.0
C439 C 0.97544 0.4178 0.41088 0.0
C440 C 0.96091 0.43235 0.4098 0.0
C441 C 0.96564 0.451 0.39802 0.0
C442 C 0.95183 0.46458 0.3952 0.0
C443 C 0.93325 0.45966 0.40388 0.0
C444 C 0.92845 0.44119 0.4163 0.0
C445 C 0.94219 0.42755 0.41892 0.0
H446 H 0.92257 0.47014 0.40055 0.0
H447 H 0.05592 0.33762 0.41445 0.0
H448 H 0.84181 0.00428 0.15808 0.0
H449 H 0.86817 0.01266 0.08448 0.0
H450 H 0.8802 0.95475 0.05145 0.0
H451 H 0.8538 0.94623 0.1244 0.0
H452 H 0.91198 0.97732 0.0807 0.0
H453 H 0.85778 0.97628 0.93115 0.0
H454 H 0.82616 0.98569 0.89751 0.0
H455 H 0.84349 0.0426 0.88868 0.0
H456 H 0.87517 0.03353 0.92325 0.0
H457 H 0.9665 0.97421 0.77773 0.0
H458 H 0.94408 0.97092 0.87174 0.0
H459 H 0.92962 0.02878 0.85202 0.0
H460 H 0.95199 0.03196 0.75692 0.0
H461 H 0.89977 0.00946 0.85805 0.0
H462 H 0.95438 0.01135 0.9939 0.0
H463 H 0.98567 0.00384 0.03695 0.0
H464 H 0.96849 0.94801 0.07916 0.0
H465 H 0.93717 0.95504 0.03504 0.0
C466 C 0.85013 0.99333 0.13546 0.0
C467 C 0.84568 0.97459 0.14664 0.0
C468 C 0.86515 0.99815 0.09346 0.0
C469 C 0.87603 0.98431 0.06245 0.0
C470 C 0.87195 0.96561 0.07509 0.0
C471 C 0.85682 0.96078 0.11643 0.0
C472 C 0.89121 0.98924 0.0144 0.0
C473 C 0.9094 0.98419 0.03164 0.0
C474 C 0.88777 0.99883 0.95188 0.0
C475 C 0.86878 0.00425 0.93052 0.0
C476 C 0.85481 0.99081 0.92259 0.0
C477 C 0.83688 0.99608 0.90325 0.0
C478 C 0.8328 0.01474 0.89116 0.0
C479 C 0.84666 0.02816 0.89817 0.0
C480 C 0.8646 0.02296 0.91759 0.0
C481 C 0.9588 0.98629 0.79456 0.0
C482 C 0.96106 0.00336 0.76088 0.0
C483 C 0.946 0.98443 0.8483 0.0
C484 C 0.93534 0.99968 0.86985 0.0
C485 C 0.93773 0.01683 0.83648 0.0
C486 C 0.95047 0.01865 0.78224 0.0
C487 C 0.92077 0.99729 0.92344 0.0
C488 C 0.90259 0.00277 0.9073 0.0
C489 C 0.92431 0.9883 0.98743 0.0
C490 C 0.9434 0.98372 0.01085 0.0
C491 C 0.95731 0.9974 0.0115 0.0
C492 C 0.97504 0.99325 0.03632 0.0
C493 C 0.979 0.97551 0.06123 0.0
C494 C 0.96535 0.96178 0.06025 0.0
C495 C 0.94761 0.96584 0.03526 0.0
H496 H 0.99264 0.97243 0.0815 0.0
H497 H 0.81892 0.01879 0.87621 0.0
H498 H 0.56249 0.83222 0.07927 0.0
H499 H 0.55446 0.85914 0.00899 0.0
H500 H 0.50706 0.86966 0.13983 0.0
H501 H 0.51477 0.84242 0.20952 0.0
H502 H 0.49733 0.87209 0.01 0.0
H503 H 0.546 0.89745 0.14564 0.0
H504 H 0.57686 0.89977 0.1999 0.0
H505 H 0.60234 0.90168 0.99882 0.0
H506 H 0.57164 0.89907 0.94326 0.0
H507 H 0.48184 0.9614 0.85553 0.0
H508 H 0.49047 0.93824 0.9429 0.0
H509 H 0.52942 0.91394 0.79946 0.0
H510 H 0.52055 0.93677 0.71137 0.0
H511 H 0.54266 0.92072 0.94387 0.0
H512 H 0.49263 0.89249 0.81182 0.0
H513 H 0.46113 0.89184 0.76205 0.0
H514 H 0.43771 0.89751 0.96569 0.0
H515 H 0.46911 0.89846 0.01658 0.0
C516 C 0.55041 0.84031 0.09338 0.0
C517 C 0.53925 0.83518 0.14992 0.0
C518 C 0.5459 0.85578 0.0534 0.0
C519 C 0.53029 0.86657 0.06969 0.0
C520 C 0.51919 0.86155 0.12642 0.0
C521 C 0.52362 0.846 0.16621 0.0
C522 C 0.52508 0.8825 0.02526 0.0
C523 C 0.50718 0.88288 0.99668 0.0
C524 C 0.53796 0.89652 0.00713 0.0
C525 C 0.55651 0.89788 0.04027 0.0
C526 C 0.55819 0.89817 0.11295 0.0
C527 C 0.57566 0.89958 0.14395 0.0
C528 C 0.59156 0.90082 0.10283 0.0
C529 C 0.59002 0.90068 0.0306 0.0
C530 C 0.57258 0.89926 0.99933 0.0
C531 C 0.49225 0.95111 0.8428 0.0
C532 C 0.50045 0.9507 0.77676 0.0
C533 C 0.49716 0.93796 0.89261 0.0
C534 C 0.51053 0.92445 0.87727 0.0
C535 C 0.51908 0.92432 0.81201 0.0
C536 C 0.51394 0.93725 0.76178 0.0
C537 C 0.51515 0.90999 0.92844 0.0
C538 C 0.53288 0.90994 0.95808 0.0
C539 C 0.50206 0.89644 0.94838 0.0
C540 C 0.4832 0.89577 0.91789 0.0
C541 C 0.48076 0.89378 0.84591 0.0
C542 C 0.46293 0.89332 0.81751 0.0
C543 C 0.44743 0.8947 0.86066 0.0
C544 C 0.44973 0.89648 0.93233 0.0
C545 C 0.46754 0.89697 0.96097 0.0
H546 H 0.43363 0.89433 0.83858 0.0
H547 H 0.60507 0.90193 0.12694 0.0
H548 H 0.65535 0.49372 0.20529 0.0
H549 H 0.62996 0.48715 0.12475 0.0
H550 H 0.62781 0.54496 0.06812 0.0
H551 H 0.65299 0.55168 0.14904 0.0
H552 H 0.59352 0.53102 0.08811 0.0
H553 H 0.64889 0.51329 0.96395 0.0
H554 H 0.67817 0.49622 0.94679 0.0
H555 H 0.64899 0.44448 0.9614 0.0
H556 H 0.61955 0.46126 0.97958 0.0
H557 H 0.55817 0.52685 0.73702 0.0
H558 H 0.57908 0.52978 0.8368 0.0
H559 H 0.55777 0.47868 0.92073 0.0
H560 H 0.53621 0.47606 0.82239 0.0
H561 H 0.60175 0.48629 0.89478 0.0
H562 H 0.54571 0.50458 0.00956 0.0
H563 H 0.51685 0.522 0.03008 0.0
H564 H 0.54756 0.57298 0.03514 0.0
H565 H 0.57651 0.55595 0.01188 0.0
C566 C 0.64946 0.50504 0.17574 0.0
C567 C 0.65623 0.52322 0.18334 0.0
C568 C 0.63498 0.50125 0.12964 0.0
C569 C 0.62711 0.51555 0.09006 0.0
C570 C 0.63368 0.53373 0.09825 0.0
C571 C 0.64812 0.53753 0.14431 0.0
C572 C 0.61215 0.51163 0.03942 0.0
C573 C 0.59536 0.52133 0.04557 0.0
C574 C 0.6144 0.49861 0.98506 0.0
C575 C 0.63207 0.48852 0.97391 0.0
C576 C 0.64875 0.49827 0.96407 0.0
C577 C 0.66536 0.48865 0.95405 0.0
C578 C 0.66545 0.46928 0.95322 0.0
C579 C 0.64891 0.45949 0.96219 0.0
C580 C 0.63225 0.46904 0.97231 0.0
C581 C 0.55787 0.51633 0.77705 0.0
C582 C 0.54569 0.50121 0.77224 0.0
C583 C 0.56973 0.51805 0.83392 0.0
C584 C 0.56982 0.50449 0.8859 0.0
C585 C 0.55773 0.48932 0.88113 0.0
C586 C 0.54549 0.48785 0.82517 0.0
C587 C 0.5833 0.50587 0.94316 0.0
C588 C 0.59985 0.49579 0.93792 0.0
C589 C 0.58084 0.51856 0.9982 0.0
C590 C 0.56328 0.52898 0.00792 0.0
C591 C 0.54627 0.51954 0.01331 0.0
C592 C 0.52989 0.52934 0.02577 0.0
C593 C 0.53037 0.54858 0.03398 0.0
C594 C 0.54718 0.55809 0.0286 0.0
C595 C 0.56358 0.54836 0.01557 0.0
H596 H 0.51773 0.55608 0.04507 0.0
H597 H 0.67833 0.46186 0.94545 0.0
H598 H 0.96381 0.656 0.21823 0.0
H599 H 0.96574 0.63064 0.13397 0.0
H600 H 0.01865 0.65144 0.06393 0.0
H601 H 0.01721 0.67611 0.15043 0.0
H602 H 0.96621 0.62782 0.00344 0.0
H603 H 0.04665 0.61833 0.00863 0.0
H604 H 0.0724 0.62074 0.09237 0.0
H605 H 0.03447 0.61213 0.26085 0.0
H606 H 0.00853 0.60943 0.17811 0.0
H607 H 0.99468 0.57744 0.70669 0.0
H608 H 0.99016 0.60032 0.79926 0.0
H609 H 0.00903 0.56038 0.9502 0.0
H610 H 0.01443 0.53793 0.85774 0.0
H611 H 0.02396 0.59106 0.97862 0.0
H612 H 0.96232 0.57241 0.93321 0.0
H613 H 0.93455 0.56543 0.86331 0.0
H614 H 0.93122 0.62241 0.80039 0.0
H615 H 0.95913 0.62971 0.86929 0.0
C616 C 0.97588 0.65506 0.18502 0.0
C617 C 0.99046 0.66788 0.19136 0.0
C618 C 0.97695 0.64062 0.1367 0.0
C619 C 0.99249 0.63888 0.09323 0.0
C620 C 0.00676 0.65209 0.09814 0.0
C621 C 0.00589 0.66626 0.14741 0.0
C622 C 0.99385 0.62334 0.04267 0.0
C623 C 0.97882 0.61976 0.99818 0.0
C624 C 0.01006 0.61234 0.037 0.0
C625 C 0.02562 0.61386 0.08714 0.0
C626 C 0.04381 0.61689 0.06352 0.0
C627 C 0.05844 0.61832 0.11083 0.0
C628 C 0.05506 0.61665 0.1819 0.0
C629 C 0.03705 0.61349 0.20581 0.0
C630 C 0.02238 0.61204 0.15874 0.0
C631 C 0.99784 0.5736 0.75968 0.0
C632 C 0.00473 0.55589 0.77521 0.0
C633 C 0.99512 0.58661 0.8126 0.0
C634 C 0.999 0.582 0.88198 0.0
C635 C 0.00592 0.56429 0.89723 0.0
C636 C 0.00889 0.55142 0.84435 0.0
C637 C 0.99648 0.59581 0.93848 0.0
C638 C 0.01131 0.59906 0.98405 0.0
C639 C 0.97977 0.60584 0.94724 0.0
C640 C 0.96292 0.60157 0.90594 0.0
C641 C 0.95575 0.58343 0.90408 0.0
C642 C 0.93997 0.57942 0.8647 0.0
C643 C 0.93116 0.59346 0.82728 0.0
C644 C 0.93808 0.61155 0.82935 0.0
C645 C 0.95386 0.61564 0.86864 0.0
H646 H 0.91895 0.59033 0.79678 0.0
H647 H 0.06641 0.61777 0.21842 0.0
H648 H 0.0146 0.23356 0.11645 0.0
H649 H 0.01618 0.20251 0.16964 0.0
H650 H 0.95759 0.20473 0.21216 0.0
H651 H 0.95628 0.23624 0.16528 0.0
H652 H 0.97952 0.18939 0.31832 0.0
H653 H 0.97299 0.19116 0.07161 0.0
H654 H 0.97903 0.20089 0.94029 0.0
H655 H 0.03386 0.14574 0.9711 0.0
H656 H 0.02082 0.1448 0.10395 0.0
H657 H 0.96148 0.09392 0.3828 0.0
H658 H 0.96042 0.12597 0.34275 0.0
H659 H 0.0137 0.11889 0.24427 0.0
H660 H 0.01414 0.08647 0.27952 0.0
H661 H 0.993 0.13641 0.16257 0.0
H662 H 0.007 0.14671 0.40781 0.0
H663 H 0.00216 0.14517 0.53426 0.0
H664 H 0.94689 0.16608 0.51034 0.0
H665 H 0.95158 0.16843 0.3838 0.0
C666 C 0.00209 0.22733 0.1369 0.0
C667 C 0.98521 0.23704 0.13522 0.0
C668 C 0.00298 0.20962 0.16676 0.0
C669 C 0.98684 0.20096 0.19125 0.0
C670 C 0.97016 0.21099 0.19217 0.0
C671 C 0.96939 0.22891 0.16484 0.0
C672 C 0.98699 0.18133 0.2145 0.0
C673 C 0.98254 0.17782 0.28407 0.0
C674 C 0.99121 0.16618 0.1698 0.0
C675 C 0.99654 0.16831 0.09556 0.0
C676 C 0.98462 0.1844 0.04722 0.0
C677 C 0.98784 0.19043 0.96319 0.0
C678 C 0.00439 0.18008 0.91351 0.0
C679 C 0.02255 0.15517 0.98484 0.0
C680 C 0.0143 0.15428 0.06804 0.0
C681 C 0.97284 0.09909 0.35162 0.0
C682 C 0.98791 0.08756 0.33438 0.0
C683 C 0.97239 0.11759 0.32992 0.0
C684 C 0.98716 0.12508 0.29164 0.0
C685 C 0.00214 0.11353 0.27399 0.0
C686 C 0.00244 0.09498 0.29455 0.0
C687 C 0.98678 0.14465 0.26697 0.0
C688 C 0.99063 0.14811 0.19683 0.0
C689 C 0.98272 0.15978 0.31116 0.0
C690 C 0.97955 0.15751 0.38647 0.0
C691 C 0.99375 0.15081 0.42948 0.0
C692 C 0.99107 0.14985 0.50116 0.0
C693 C 0.97418 0.15525 0.53029 0.0
C694 C 0.95995 0.16182 0.48775 0.0
C695 C 0.96264 0.1631 0.41612 0.0
H696 H 0.97218 0.15447 0.58585 0.0
H697 H 0.00552 0.1846 0.86055 0.0
H698 H 0.26976 0.98524 0.00907 0.0
H699 H 0.30065 0.99295 0.05463 0.0
H700 H 0.28502 0.97092 0.25415 0.0
H701 H 0.25431 0.96302 0.2085 0.0
H702 H 0.30258 0.00505 0.26405 0.0
H703 H 0.31022 0.94675 0.1422 0.0
H704 H 0.30975 0.9262 0.04003 0.0
H705 H 0.3496 0.96098 0.93814 0.0
H706 H 0.34997 0.98201 0.03906 0.0
H707 H 0.38438 0.98541 0.44804 0.0
H708 H 0.35481 0.98544 0.38647 0.0
H709 H 0.38246 0.00316 0.19955 0.0
H710 H 0.41219 0.00307 0.26104 0.0
H711 H 0.35964 0.9757 0.17137 0.0
H712 H 0.35403 0.03296 0.29025 0.0
H713 H 0.35521 0.0545 0.38953 0.0
H714 H 0.31274 0.02328 0.49281 0.0
H715 H 0.31148 0.00138 0.39453 0.0
C716 C 0.2729 0.98228 0.06285 0.0
C717 C 0.25963 0.9738 0.10574 0.0
C718 C 0.29056 0.98655 0.08863 0.0
C719 C 0.2951 0.98259 0.1579 0.0
C720 C 0.28176 0.97423 0.20072 0.0
C721 C 0.26427 0.96967 0.17464 0.0
C722 C 0.31377 0.98677 0.18629 0.0
C723 C 0.31506 0.99856 0.24407 0.0
C724 C 0.33014 0.97887 0.15843 0.0
C725 C 0.32984 0.96618 0.09773 0.0
C726 C 0.31868 0.95019 0.09765 0.0
C727 C 0.31846 0.93841 0.03999 0.0
C728 C 0.32956 0.94233 0.98246 0.0
C729 C 0.34098 0.95797 0.98266 0.0
C730 C 0.34116 0.96985 0.04002 0.0
C731 C 0.38414 0.98963 0.39416 0.0
C732 C 0.40064 0.99425 0.35948 0.0
C733 C 0.3672 0.98965 0.35894 0.0
C734 C 0.36634 0.9945 0.28846 0.0
C735 C 0.38276 0.99935 0.25386 0.0
C736 C 0.39974 0.99925 0.28903 0.0
C737 C 0.34839 0.99357 0.25049 0.0
C738 C 0.34723 0.98244 0.19082 0.0
C739 C 0.33216 0.00225 0.27603 0.0
C740 C 0.33275 0.01545 0.33515 0.0
C741 C 0.34503 0.03061 0.33432 0.0
C742 C 0.34569 0.0429 0.3904 0.0
C743 C 0.33408 0.04024 0.44749 0.0
C744 C 0.32173 0.02531 0.44855 0.0
C745 C 0.32101 0.01298 0.39261 0.0
H746 H 0.33462 0.04976 0.49088 0.0
H747 H 0.32937 0.93321 0.93786 0.0
H748 H 0.49484 0.25996 0.1533 0.0
H749 H 0.49192 0.29137 0.19965 0.0
H750 H 0.54644 0.28707 0.28976 0.0
H751 H 0.54993 0.25598 0.23994 0.0
H752 H 0.51602 0.30318 0.37838 0.0
H753 H 0.5446 0.30784 0.15047 0.0
H754 H 0.5449 0.30107 0.02512 0.0
H755 H 0.49384 0.33093 9e-05 0.0
H756 H 0.49282 0.3372 0.12554 0.0
H757 H 0.54011 0.39721 0.44296 0.0
H758 H 0.53931 0.3646 0.40749 0.0
H759 H 0.4908 0.37534 0.28295 0.0
H760 H 0.49158 0.40801 0.31817 0.0
H761 H 0.51628 0.35557 0.21179 0.0
H762 H 0.48622 0.35248 0.42715 0.0
H763 H 0.47968 0.35598 0.55189 0.0
H764 H 0.52711 0.32254 0.60095 0.0
H765 H 0.53432 0.31928 0.47651 0.0
C766 C 0.50643 0.26585 0.18108 0.0
C767 C 0.52296 0.25579 0.19005 0.0
C768 C 0.50458 0.28366 0.20883 0.0
C769 C 0.51906 0.29156 0.24738 0.0
C770 C 0.53515 0.28119 0.25992 0.0
C771 C 0.53712 0.26347 0.23125 0.0
C772 C 0.51783 0.31105 0.27116 0.0
C773 C 0.51638 0.31471 0.34232 0.0
C774 C 0.51745 0.32592 0.2235 0.0
C775 C 0.51848 0.32274 0.14761 0.0
C776 C 0.53331 0.31276 0.11835 0.0
C777 C 0.53357 0.30895 0.0473 0.0
C778 C 0.51925 0.31531 0.00483 0.0
C779 C 0.50478 0.32574 0.0331 0.0
C780 C 0.50433 0.32941 0.10422 0.0
C781 C 0.52931 0.39261 0.40789 0.0
C782 C 0.51594 0.40515 0.3831 0.0
C783 C 0.52877 0.37396 0.38814 0.0
C784 C 0.51493 0.36752 0.34288 0.0
C785 C 0.50158 0.38002 0.318 0.0
C786 C 0.50199 0.39863 0.33836 0.0
C787 C 0.51485 0.34789 0.31964 0.0
C788 C 0.51602 0.34415 0.24833 0.0
C789 C 0.5145 0.33295 0.36721 0.0
C790 C 0.51095 0.33582 0.44231 0.0
C791 C 0.49549 0.34617 0.46446 0.0
C792 C 0.49162 0.34807 0.53511 0.0
C793 C 0.50297 0.33948 0.5841 0.0
C794 C 0.51836 0.32919 0.56278 0.0
C795 C 0.52237 0.32736 0.4922 0.0
H796 H 0.49974 0.34066 0.63849 0.0
H797 H 0.5195 0.3123 0.94991 0.0
H798 H 0.23286 0.5021 0.01454 0.0
H799 H 0.20347 0.4986 0.07573 0.0
H800 H 0.22291 0.53584 0.23544 0.0
H801 H 0.25292 0.53801 0.17704 0.0
H802 H 0.20646 0.50927 0.29495 0.0
H803 H 0.19049 0.5467 0.09535 0.0
H804 H 0.18784 0.55379 0.97064 0.0
H805 H 0.15344 0.50583 0.94112 0.0
H806 H 0.15603 0.49838 0.0655 0.0
H807 H 0.12028 0.53374 0.4463 0.0
H808 H 0.14986 0.53313 0.38449 0.0
H809 H 0.1292 0.48975 0.25098 0.0
H810 H 0.09936 0.49063 0.31157 0.0
H811 H 0.14576 0.51698 0.17763 0.0
H812 H 0.16071 0.48012 0.37568 0.0
H813 H 0.16247 0.47297 0.50052 0.0
H814 H 0.19797 0.51998 0.5327 0.0
H815 H 0.19618 0.52761 0.4082 0.0
C816 C 0.2311 0.50897 0.06391 0.0
C817 C 0.24547 0.51966 0.09247 0.0
C818 C 0.21408 0.50738 0.09809 0.0
C819 C 0.21083 0.51698 0.16039 0.0
C820 C 0.22505 0.52812 0.18785 0.0
C821 C 0.24217 0.52946 0.15423 0.0
C822 C 0.19283 0.51522 0.19788 0.0
C823 C 0.19322 0.51124 0.26926 0.0
C824 C 0.17542 0.51709 0.16424 0.0
C825 C 0.17372 0.52179 0.08956 0.0
C826 C 0.18249 0.53758 0.06216 0.0
C827 C 0.18097 0.54169 0.99153 0.0
C828 C 0.17057 0.53021 0.94788 0.0
C829 C 0.16158 0.51465 0.97485 0.0
C830 C 0.16306 0.51049 0.04539 0.0
C831 C 0.12205 0.52406 0.4038 0.0
C832 C 0.10748 0.51227 0.38368 0.0
C833 C 0.13901 0.52362 0.36889 0.0
C834 C 0.14179 0.51131 0.31339 0.0
C835 C 0.12736 0.49934 0.29373 0.0
C836 C 0.11039 0.49974 0.32877 0.0
C837 C 0.15953 0.51145 0.2744 0.0
C838 C 0.15906 0.51503 0.20295 0.0
C839 C 0.17684 0.50924 0.30785 0.0
C840 C 0.17819 0.50452 0.38262 0.0
C841 C 0.1688 0.489 0.40942 0.0
C842 C 0.16982 0.48485 0.48013 0.0
C843 C 0.18031 0.49603 0.52452 0.0
C844 C 0.18984 0.51134 0.49825 0.0
C845 C 0.18885 0.51558 0.4276 0.0
H846 H 0.18104 0.49281 0.57926 0.0
H847 H 0.16941 0.53341 0.89323 0.0
H848 H 0.01164 0.78757 0.34692 0.0
H849 H 0.01074 0.8176 0.28881 0.0
H850 H 0.99054 0.79142 0.10235 0.0
H851 H 0.99099 0.76115 0.16088 0.0
H852 H 0.02219 0.81939 0.09051 0.0
H853 H 0.96048 0.8108 0.18242 0.0
H854 H 0.93787 0.80375 0.27453 0.0
H855 H 0.9577 0.84996 0.39387 0.0
H856 H 0.98096 0.8568 0.30355 0.0
H857 H 0.99832 0.90207 0.91746 0.0
H858 H 0.99632 0.87098 0.96672 0.0
H859 H 0.00236 0.8938 0.17236 0.0
H860 H 0.00377 0.92511 0.12356 0.0
H861 H 0.97701 0.86667 0.17113 0.0
H862 H 0.03867 0.87526 0.09002 0.0
H863 H 0.06338 0.88289 0.00655 0.0
H864 H 0.04636 0.83768 0.87622 0.0
H865 H 0.02128 0.82997 0.95846 0.0
C866 C 0.00721 0.78812 0.29326 0.0
C867 C 0.00145 0.772 0.25821 0.0
C868 C 0.00663 0.8053 0.26036 0.0
C869 C 0.00053 0.80665 0.19158 0.0
C870 C 0.99529 0.79056 0.15555 0.0
C871 C 0.99552 0.77335 0.18897 0.0
C872 C 0.99922 0.82503 0.15845 0.0
C873 C 0.01209 0.82965 0.10691 0.0
C874 C 0.98646 0.8385 0.18212 0.0
C875 C 0.97255 0.83425 0.23651 0.0
C876 C 0.9602 0.8193 0.22872 0.0
C877 C 0.94727 0.81533 0.28063 0.0
C878 C 0.9464 0.82636 0.34016 0.0
C879 C 0.95844 0.84139 0.34786 0.0
C880 C 0.97152 0.84529 0.29645 0.0
C881 C 0.99887 0.90053 0.97328 0.0
C882 C 0.00128 0.91605 0.01664 0.0
C883 C 0.99791 0.88273 0.00128 0.0
C884 C 0.99949 0.88008 0.07311 0.0
C885 C 0.00122 0.89557 0.11678 0.0
C886 C 0.00216 0.91341 0.0888 0.0
C887 C -0.0001 0.8611 0.10243 0.0
C888 C 0.98696 0.85639 0.15376 0.0
C889 C 0.01283 0.84763 0.07939 0.0
C890 C 0.02789 0.85222 0.02983 0.0
C891 C 0.04004 0.86707 0.04317 0.0
C892 C 0.05414 0.87139 0.99615 0.0
C893 C 0.05636 0.86084 0.93592 0.0
C894 C 0.04454 0.84589 0.92274 0.0
C895 C 0.03038 0.84155 0.96951 0.0
H896 H 0.0673 0.86419 0.89962 0.0
H897 H 0.93636 0.82328 0.38026 0.0
H898 H 0.74633 0.01318 0.18332 0.0
H899 H 0.71598 0.01927 0.13153 0.0
H900 H 0.70185 0.96135 0.1533 0.0
H901 H 0.73281 0.95512 0.19932 0.0
H902 H 0.6906 0.97116 0.03752 0.0
H903 H 0.68294 0.00312 0.26624 0.0
H904 H 0.69046 0.02697 0.35434 0.0
H905 H 0.6881 0.06938 0.19928 0.0
H906 H 0.68016 0.04601 0.11058 0.0
H907 H 0.59302 0.97399 0.0078 0.0
H908 H 0.62518 0.97125 0.04658 0.0
H909 H 0.63444 0.02885 0.99718 0.0
H910 H 0.60213 0.03173 0.95972 0.0
H911 H 0.64907 0.02171 0.11635 0.0
H912 H 0.651 0.99282 0.89557 0.0
H913 H 0.64145 0.97124 0.80291 0.0
H914 H 0.65603 0.92488 0.93105 0.0
H915 H 0.66506 0.94612 0.0255 0.0
C916 C 0.73665 0.00182 0.1771 0.0
C917 C 0.74182 0.9837 0.19529 0.0
C918 C 0.71918 0.00532 0.14822 0.0
C919 C 0.70624 0.99087 0.1397 0.0
C920 C 0.71146 0.97279 0.15895 0.0
C921 C 0.72915 0.9692 0.18542 0.0
C922 C 0.6876 0.99419 0.10818 0.0
C923 C 0.68143 0.98205 0.05577 0.0
C924 C 0.67586 0.00901 0.12857 0.0
C925 C 0.68119 0.02282 0.1818 0.0
C926 C 0.68417 0.01752 0.25096 0.0
C927 C 0.68845 0.03093 0.30096 0.0
C928 C 0.68995 0.04957 0.28233 0.0
C929 C 0.68701 0.05493 0.21366 0.0
C930 C 0.68252 0.04164 0.1636 0.0
C931 C 0.60197 0.98602 0.0047 0.0
C932 C 0.59508 0.00307 0.98066 0.0
C933 C 0.62036 0.98444 0.0267 0.0
C934 C 0.63235 -0.00022 0.02391 0.0
C935 C 0.62548 0.01682 -0.00015 0.0
C936 C 0.60702 0.01846 0.97857 0.0
C937 C 0.65186 0.99819 0.0483 0.0
C938 C 0.65822 0.01075 0.09853 0.0
C939 C 0.66385 0.98394 0.02508 0.0
C940 C 0.65858 0.9711 0.96798 0.0
C941 C 0.65202 0.97802 0.90432 0.0
C942 C 0.6467 0.96585 0.85143 0.0
C943 C 0.64819 0.94672 0.86101 0.0
C944 C 0.65491 0.93971 0.92366 0.0
C945 C 0.66009 0.95181 0.97697 0.0
H946 H 0.64412 0.93733 0.81989 0.0
H947 H 0.6933 0.05988 0.32121 0.0
H948 H 0.48928 0.73928 0.2083 0.0
H949 H 0.48015 0.70887 0.16306 0.0
H950 H 0.53777 0.69367 0.14357 0.0
H951 H 0.54692 0.72388 0.18923 0.0
H952 H 0.51994 0.6853 0.02884 0.0
H953 H 0.50971 0.67313 0.2738 0.0
H954 H 0.49649 0.67668 0.39079 0.0
H955 H 0.44145 0.67485 0.30608 0.0
H956 H 0.45441 0.67086 0.18848 0.0
H957 H 0.51963 0.58896 0.99249 0.0
H958 H 0.52273 0.62036 0.0374 0.0
H959 H 0.46334 0.62717 0.03012 0.0
H960 H 0.4601 0.59546 0.98577 0.0
H961 H 0.4782 0.64118 0.14944 0.0
H962 H 0.49025 0.64649 0.90607 0.0
H963 H 0.50539 0.63558 0.79893 0.0
H964 H 0.55877 0.64872 0.8845 0.0
H965 H 0.54398 0.65934 0.99284 0.0
C966 C 0.49998 0.72929 0.19611 0.0
C967 C 0.51883 0.73388 0.20357 0.0
C968 C 0.49475 0.71193 0.1698 0.0
C969 C 0.50827 0.69889 0.1504 0.0
C970 C 0.52707 0.70349 0.15802 0.0
C971 C 0.53229 0.72078 0.18416 0.0
C972 C 0.50305 0.68071 0.11954 0.0
C973 C 0.51087 0.67565 0.05547 0.0
C974 C 0.4908 0.66825 0.15291 0.0
C975 C 0.48301 0.67199 0.22247 0.0
C976 C 0.4948 0.67375 0.28009 0.0
C977 C 0.48735 0.67574 0.34656 0.0
C978 C 0.46813 0.67617 0.3559 0.0
C979 C 0.45633 0.67458 0.29875 0.0
C980 C 0.46371 0.67237 0.23224 0.0
C981 C 0.50721 0.59708 0.00031 0.0
C982 C 0.48963 0.58968 0.98529 0.0
C983 C 0.509 0.61508 0.0259 0.0
C984 C 0.49329 0.62623 0.0359 0.0
C985 C 0.47566 0.61881 0.02251 0.0
C986 C 0.47383 0.60068 0.99736 0.0
C987 C 0.49547 0.64566 0.06005 0.0
C988 C 0.48699 0.651 0.12232 0.0
C989 C 0.50719 0.65832 0.02518 0.0
C990 C 0.516 0.65354 0.95788 0.0
C991 C 0.50522 0.64707 0.90204 0.0
C992 C 0.51374 0.64086 0.84122 0.0
C993 C 0.53304 0.64126 0.83531 0.0
C994 C 0.54383 0.64829 0.88947 0.0
C995 C 0.53538 0.65443 0.95056 0.0
H996 H 0.53966 0.63613 0.78877 0.0
H997 H 0.46235 0.67758 0.40738 0.0
H998 H 0.75315 0.5274 0.15226 0.0
H999 H 0.78466 0.52375 0.10684 0.0
H1000 H 0.80246 0.50192 0.30425 0.0
H1001 H 0.77128 0.507 0.35073 0.0
H1002 H 0.82838 0.5213 0.25989 0.0
H1003 H 0.79332 0.4734 0.15527 0.0
H1004 H 0.76757 0.4588 0.09122 0.0
H1005 H 0.78149 0.49034 0.90986 0.0
H1006 H 0.80718 0.50533 0.97312 0.0
H1007 H 0.91306 0.48781 0.10903 0.0
H1008 H 0.88232 0.488 0.16329 0.0
H1009 H 0.86093 0.52016 0.99268 0.0
H1010 H 0.8914 0.51964 0.93747 0.0
H1011 H 0.83753 0.49195 0.02959 0.0
H1012 H 0.87252 0.54088 0.14941 0.0
H1013 H 0.89911 0.55191 0.21872 0.0
H1014 H 0.8861 0.51255 0.37819 0.0
H1015 H 0.85942 0.50133 0.30996 0.0
C1016 C 0.76384 0.52184 0.18576 0.0
C1017 C 0.75967 0.51658 0.25402 0.0
C1018 C 0.7818 0.51956 0.15968 0.0
C1019 C 0.79587 0.51181 0.20117 0.0
C1020 C 0.79183 0.50745 0.2705 0.0
C1021 C 0.77395 0.50999 0.29673 0.0
C1022 C 0.81477 0.50842 0.17249 0.0
C1023 C 0.83032 0.51464 0.20994 0.0
C1024 C 0.81752 0.49959 0.10756 0.0
C1025 C 0.80208 0.49061 0.06917 0.0
C1026 C 0.79081 0.47732 0.10188 0.0
C1027 C 0.77624 0.46896 0.06569 0.0
C1028 C 0.77287 0.47367 0.99657 0.0
C1029 C 0.7841 0.48672 0.96343 0.0
C1030 C 0.79868 0.49514 0.99941 0.0
C1031 C 0.90175 0.49474 0.08275 0.0
C1032 C 0.9047 0.50382 0.01914 0.0
C1033 C 0.88424 0.49498 0.1141 0.0
C1034 C 0.86939 0.5043 0.08245 0.0
C1035 C 0.87221 0.51296 0.0182 0.0
C1036 C 0.88967 0.51277 0.98697 0.0
C1037 C 0.85088 0.50532 0.11601 0.0
C1038 C 0.83546 0.49853 0.07962 0.0
C1039 C 0.84831 0.51311 0.18273 0.0
C1040 C 0.86407 0.52019 0.22442 0.0
C1041 C 0.87535 0.53458 0.19925 0.0
C1042 C 0.89041 0.54089 0.23843 0.0
C1043 C 0.89427 0.53295 0.30292 0.0
C1044 C 0.88303 0.51875 0.32849 0.0
C1045 C 0.86792 0.51244 0.28967 0.0
H1046 H 0.90598 0.5378 0.33304 0.0
H1047 H 0.76158 0.46718 0.96863 0.0
H1048 H 0.98397 0.20573 0.7466 0.0
H1049 H 0.99133 0.17417 0.70877 0.0
H1050 H 0.04938 0.18448 0.74415 0.0
H1051 H 0.04197 0.21541 0.78929 0.0
H1052 H 0.02696 0.15578 0.61837 0.0
H1053 H 0.04796 0.17194 0.85524 0.0
H1054 H 0.04592 0.19437 0.96606 0.0
H1055 H 0.97981 0.15343 -8e-05 0.0
H1056 H 0.99101 0.13736 0.87792 0.0
H1057 H 0.04195 0.05905 0.63991 0.0
H1058 H 0.04711 0.0924 0.65383 0.0
H1059 H 0.99916 0.09565 0.78772 0.0
H1060 H 0.99508 0.06204 0.7783 0.0
H1061 H 0.02212 0.11829 0.83329 0.0
H1062 H 0.00074 0.10538 0.59944 0.0
H1063 H 0.00152 0.09291 0.48052 0.0
H1064 H 0.05345 0.12031 0.44379 0.0
H1065 H 0.05305 0.13284 0.56284 0.0
C1066 C 0.99838 0.20154 0.7442 0.0
C1067 C 0.01233 0.21261 0.77415 0.0
C1068 C 0.00254 0.18344 0.72293 0.0
C1069 C 0.02073 0.17671 0.72892 0.0
C1070 C 0.03511 0.18916 0.74373 0.0
C1071 C 0.0309 0.20689 0.76855 0.0
C1072 C 0.02413 0.15648 0.72905 0.0
C1073 C 0.0263 0.14752 0.6653 0.0
C1074 C 0.02292 0.14578 0.79074 0.0
C1075 C 0.01979 0.15427 0.85982 0.0
C1076 C 0.03558 0.17063 0.88623 0.0
C1077 C 0.03475 0.18465 0.95697 0.0
C1078 C 0.01684 0.18355 0.01468 0.0
C1079 C 0.99281 0.15821 0.9768 0.0
C1080 C -0.00022 0.14786 0.90101 0.0
C1081 C 0.03276 0.06695 0.67316 0.0
C1082 C 0.01811 0.05819 0.70797 0.0
C1083 C 0.03558 0.086 0.6806 0.0
C1084 C 0.02322 0.09674 0.72021 0.0
C1085 C 0.0089 0.08776 0.75674 0.0
C1086 C 0.00652 0.06859 0.75133 0.0
C1087 C 0.02461 0.11733 0.72183 0.0
C1088 C 0.02324 0.12641 0.78615 0.0
C1089 C 0.02637 0.1281 0.66061 0.0
C1090 C 0.02702 0.11978 0.59037 0.0
C1091 C 0.01247 0.10849 0.56636 0.0
C1092 C 0.0128 0.1015 0.49876 0.0
C1093 C 0.02759 0.10575 0.45472 0.0
C1094 C 0.04205 0.117 0.47808 0.0
C1095 C 0.04177 0.12405 0.54555 0.0
H1096 H 0.02789 0.10042 0.40239 0.0
H1097 H 0.01737 0.19305 0.05821 0.0
H1098 H 0.28507 0.04146 0.89444 0.0
H1099 H 0.31593 0.04275 0.84262 0.0
H1100 H 0.34056 0.03281 0.04302 0.0
H1101 H 0.30976 0.03167 0.09551 0.0
H1102 H 0.36201 0.05616 0.95943 0.0
H1103 H 0.3294 0.99852 0.94635 0.0
H1104 H 0.30369 0.97753 0.9165 0.0
H1105 H 0.31187 0.98902 0.70017 0.0
H1106 H 0.3375 0.01034 0.72899 0.0
H1107 H 0.44422 0.00831 0.8835 0.0
H1108 H 0.41351 0.01708 0.9239 0.0
H1109 H 0.39495 0.02277 0.71231 0.0
H1110 H 0.4258 0.01374 0.67092 0.0
H1111 H 0.37002 0.00421 0.79286 0.0
H1112 H 0.40417 0.06102 0.80782 0.0
H1113 H 0.43056 0.08086 0.8411 0.0
H1114 H 0.41995 0.06984 0.05622 0.0
H1115 H 0.39365 0.0497 0.02421 0.0
C1116 C 0.29706 0.04008 0.92785 0.0
C1117 C 0.29499 0.03618 0.99883 0.0
C1118 C 0.31467 0.04083 0.89813 0.0
C1119 C 0.33044 0.03752 0.93883 0.0
C1120 C 0.32852 0.03537 0.01078 0.0
C1121 C 0.31089 0.03471 0.04067 0.0
C1122 C 0.34851 0.03379 0.90547 0.0
C1123 C 0.36381 0.04479 0.92315 0.0
C1124 C 0.3507 0.01905 0.85747 0.0
C1125 C 0.33529 0.00618 0.83995 0.0
C1126 C 0.32566 0.99668 0.89246 0.0
C1127 C 0.31109 0.98471 0.87573 0.0
C1128 C 0.30612 0.98196 0.80645 0.0
C1129 C 0.31572 0.99117 0.75383 0.0
C1130 C 0.33028 0.00321 0.77037 0.0
C1131 C 0.43366 0.01141 0.84528 0.0
C1132 C 0.43752 0.01042 0.77386 0.0
C1133 C 0.41612 0.01653 0.8686 0.0
C1134 C 0.40207 0.02093 0.82114 0.0
C1135 C 0.40568 0.01955 0.74976 0.0
C1136 C 0.42329 0.01438 0.72623 0.0
C1137 C 0.38357 0.02659 0.8467 0.0
C1138 C 0.36817 0.01583 0.82799 0.0
C1139 C 0.38133 0.04146 0.89405 0.0
C1140 C 0.397 0.05376 0.91355 0.0
C1141 C 0.40753 0.06274 0.86221 0.0
C1142 C 0.42247 0.07405 0.88085 0.0
C1143 C 0.42694 0.07659 0.95072 0.0
C1144 C 0.41646 0.06786 0.00212 0.0
C1145 C 0.40152 0.05651 0.98375 0.0
H1146 H 0.43852 0.08534 0.96505 0.0
H1147 H 0.29484 0.97267 0.79354 0.0
H1148 H 0.51171 0.28555 0.79178 0.0
H1149 H 0.50826 0.31546 0.73393 0.0
H1150 H 0.46816 0.33221 0.88789 0.0
H1151 H 0.47107 0.30218 0.94451 0.0
H1152 H 0.45806 0.34485 0.76784 0.0
H1153 H 0.51656 0.34619 0.89735 0.0
H1154 H 0.54804 0.33547 0.92879 0.0
H1155 H 0.56507 0.34 0.71625 0.0
H1156 H 0.53387 0.35106 0.684 0.0
H1157 H 0.47362 0.44231 0.79592 0.0
H1158 H 0.47087 0.40873 0.81095 0.0
H1159 H 0.49941 0.39989 0.61719 0.0
H1160 H 0.50198 0.43341 0.60099 0.0
H1161 H 0.51521 0.38229 0.73808 0.0
H1162 H 0.45799 0.38728 0.61592 0.0
H1163 H 0.42725 0.40039 0.58917 0.0
H1164 H 0.40785 0.3854 0.792 0.0
H1165 H 0.43858 0.37243 0.82038 0.0
C1166 C 0.50193 0.29549 0.81264 0.0
C1167 C 0.49186 0.29161 0.87333 0.0
C1168 C 0.5001 0.31265 0.77987 0.0
C1169 C 0.48834 0.32628 0.80774 0.0
C1170 C 0.47743 0.32197 0.86573 0.0
C1171 C 0.47913 0.30478 0.89814 0.0
C1172 C 0.48783 0.34526 0.77859 0.0
C1173 C 0.47055 0.35307 0.76182 0.0
C1174 C 0.50416 0.35587 0.76891 0.0
C1175 C 0.5228 0.34898 0.7881 0.0
C1176 C 0.52699 0.34467 0.85735 0.0
C1177 C 0.54478 0.33865 0.87534 0.0
C1178 C 0.55845 0.33684 0.82445 0.0
C1179 C 0.55443 0.34127 0.75556 0.0
C1180 C 0.53672 0.34747 0.73745 0.0
C1181 C 0.47908 0.43323 0.75607 0.0
C1182 C 0.48813 0.44047 0.69761 0.0
C1183 C 0.47739 0.41409 0.7645 0.0
C1184 C 0.48489 0.40196 0.715 0.0
C1185 C 0.49348 0.40912 0.65566 0.0
C1186 C 0.49492 0.42825 0.64662 0.0
C1187 C 0.48547 0.38192 0.72932 0.0
C1188 C 0.50276 0.37395 0.74334 0.0
C1189 C 0.46917 0.37132 0.73733 0.0
C1190 C 0.45064 0.37902 0.72046 0.0
C1191 C 0.44722 0.38692 0.65505 0.0
C1192 C 0.42978 0.3943 0.63954 0.0
C1193 C 0.41561 0.39376 0.6889 0.0
C1194 C 0.41884 0.38581 0.75383 0.0
C1195 C 0.43626 0.37842 0.76962 0.0
H1196 H 0.40212 0.39948 0.6768 0.0
H1197 H 0.5722 0.33213 0.83849 0.0
H1198 H 0.18699 0.46435 0.08809 0.0
H1199 H 0.15597 0.46484 0.03833 0.0
H1200 H 0.17868 0.45225 0.83662 0.0
H1201 H 0.20988 0.45217 0.88592 0.0
H1202 H 0.15747 0.48056 0.82606 0.0
H1203 H 0.14985 0.4211 0.93067 0.0
H1204 H 0.15101 0.39789 0.02433 0.0
H1205 H 0.11275 0.43024 0.14475 0.0
H1206 H 0.11154 0.45377 0.05218 0.0
H1207 H 0.0681 0.48108 0.67282 0.0
H1208 H 0.09826 0.47052 0.71459 0.0
H1209 H 0.08236 0.48416 0.92432 0.0
H1210 H 0.05192 0.49411 0.88323 0.0
H1211 H 0.1003 0.45245 0.92261 0.0
H1212 H 0.11089 0.51325 0.82158 0.0
H1213 H 0.10966 0.5362 0.72691 0.0
H1214 H 0.14255 0.50045 0.59805 0.0
H1215 H 0.14388 0.47723 0.69184 0.0
C1216 C 0.18537 0.46121 0.03348 0.0
C1217 C 0.2009 0.4583 0.99086 0.0
C1218 C 0.16757 0.46148 0.005 0.0
C1219 C 0.16493 0.45859 0.93361 0.0
C1220 C 0.18036 0.45463 0.89175 0.0
C1221 C 0.19818 0.45451 0.92005 0.0
C1222 C 0.14642 0.46153 0.90172 0.0
C1223 C 0.14503 0.47407 0.84627 0.0
C1224 C 0.1301 0.45344 0.92898 0.0
C1225 C 0.13069 0.43925 0.9846 0.0
C1226 C 0.14177 0.42332 0.97729 0.0
C1227 C 0.14242 0.41009 0.03017 0.0
C1228 C 0.13198 0.4126 0.09049 0.0
C1229 C 0.12083 0.42831 0.09799 0.0
C1230 C 0.12013 0.44158 0.04528 0.0
C1231 C 0.07101 0.48181 0.72787 0.0
C1232 C 0.05767 0.48855 0.77471 0.0
C1233 C 0.08829 0.47581 0.75164 0.0
C1234 C 0.09271 0.47685 0.82247 0.0
C1235 C 0.07927 0.48325 0.86944 0.0
C1236 C 0.06189 0.48898 0.84585 0.0
C1237 C 0.11141 0.47161 0.8478 0.0
C1238 C 0.11281 0.4587 0.90195 0.0
C1239 C 0.12777 0.47931 0.81928 0.0
C1240 C 0.12731 0.49344 0.76346 0.0
C1241 C 0.11779 0.51026 0.77296 0.0
C1242 C 0.1171 0.52332 0.71949 0.0
C1243 C 0.12599 0.51976 0.65645 0.0
C1244 C 0.13568 0.50318 0.6469 0.0
C1245 C 0.13643 0.49008 0.70022 0.0
H1246 H 0.12539 0.52986 0.61504 0.0
H1247 H 0.13252 0.40235 0.13138 0.0
H1248 H 0.01404 0.78391 0.56753 0.0
H1249 H 0.01577 0.81698 0.59502 0.0
H1250 H 0.96458 0.82631 0.48525 0.0
H1251 H 0.96291 0.79339 0.4558 0.0
H1252 H 0.99333 0.85022 0.44421 0.0
H1253 H 0.96421 0.82941 0.65568 0.0
H1254 H 0.96134 0.80962 0.75936 0.0
H1255 H 0.0145 0.82826 0.8311 0.0
H1256 H 0.01773 0.84814 0.7279 0.0
H1257 H 0.98171 0.94468 0.53726 0.0
H1258 H 0.97829 0.91155 0.51406 0.0
H1259 H 0.02222 0.89976 0.65973 0.0
H1260 H 0.02484 0.9328 0.68602 0.0
H1261 H 0.99654 0.87677 0.68138 0.0
H1262 H 0.02816 0.89418 0.46992 0.0
H1263 H 0.03346 0.91314 0.36516 0.0
H1264 H 0.97864 0.90026 0.29266 0.0
H1265 H 0.97297 0.88154 0.39767 0.0
C1266 C 0.00301 0.79294 0.5499 0.0
C1267 C 0.98836 0.786 0.50929 0.0
C1268 C 0.00404 0.81184 0.56563 0.0
C1269 C 0.99038 0.8241 0.54148 0.0
C1270 C 0.9754 0.81712 0.50319 0.0
C1271 C 0.97439 0.79826 0.48713 0.0
C1272 C 0.99213 0.84432 0.55362 0.0
C1273 C 0.99374 0.85609 0.49603 0.0
C1274 C 0.99329 0.85186 0.62115 0.0
C1275 C 0.99126 0.84015 0.68383 0.0
C1276 C 0.97532 0.82923 0.69347 0.0
C1277 C 0.97361 0.81804 0.75227 0.0
C1278 C 0.98773 0.8177 0.80188 0.0
C1279 C 0.00356 0.8286 0.79287 0.0
C1280 C 0.00531 0.83986 0.73431 0.0
C1281 C 0.99072 0.935 0.56383 0.0
C1282 C 0.0035 0.94127 0.61352 0.0
C1283 C 0.98887 0.91605 0.55019 0.0
C1284 C 0.0002 0.90306 0.58428 0.0
C1285 C 0.01326 0.90943 0.63287 0.0
C1286 C 0.01478 0.92832 0.64778 0.0
C1287 C 0.99787 0.88281 0.5719 0.0
C1288 C 0.99611 0.87099 0.62943 0.0
C1289 C 0.99688 0.87517 0.50429 0.0
C1290 C 0.00015 0.88653 0.44152 0.0
C1291 C 0.01722 0.89554 0.43181 0.0
C1292 C 0.02028 0.90624 0.37248 0.0
C1293 C 0.00637 0.90796 0.32244 0.0
C1294 C 0.98939 0.89895 0.33154 0.0
C1295 C 0.98626 0.88828 0.39088 0.0
H1296 H 0.00876 0.91625 0.27656 0.0
H1297 H 0.98641 0.809 0.8473 0.0
H1298 H 0.70272 0.01645 0.49169 0.0
H1299 H 0.67183 0.01419 0.54406 0.0
H1300 H 0.65949 0.96704 0.41413 0.0
H1301 H 0.69024 0.9692 0.36164 0.0
H1302 H 0.63299 0.99549 0.40875 0.0
H1303 H 0.66619 0.95971 0.58445 0.0
H1304 H 0.6909 0.95531 0.67145 0.0
H1305 H 0.67247 0.00379 0.78099 0.0
H1306 H 0.64762 0.00845 0.69471 0.0
H1307 H 0.54509 0.97283 0.54033 0.0
H1308 H 0.57742 0.97127 0.50224 0.0
H1309 H 0.59327 0.00778 0.66992 0.0
H1310 H 0.56127 0.00823 0.71076 0.0
H1311 H 0.61873 0.98488 0.65718 0.0
H1312 H 0.58656 0.02221 0.49224 0.0
H1313 H 0.56256 0.03044 0.40653 0.0
H1314 H 0.57992 0.98539 0.27602 0.0
H1315 H 0.60385 0.9767 0.36147 0.0
C1316 C 0.69348 0.00548 0.47498 0.0
C1317 C 0.69883 0.99303 0.42252 0.0
C1318 C 0.67591 0.00416 0.50505 0.0
C1319 C 0.66347 0.9904 0.48305 0.0
C1320 C 0.66895 0.97772 0.43183 0.0
C1321 C 0.68653 0.97894 0.40215 0.0
C1322 C 0.6443 0.98992 0.50984 0.0
C1323 C 0.62978 0.9929 0.46287 0.0
C1324 C 0.64031 0.98737 0.58087 0.0
C1325 C 0.65515 0.98448 0.63293 0.0
C1326 C 0.66747 0.96947 0.62694 0.0
C1327 C 0.68146 0.96691 0.67621 0.0
C1328 C 0.68328 0.97929 0.73162 0.0
C1329 C 0.67107 0.99424 0.73796 0.0
C1330 C 0.65698 0.99679 0.6891 0.0
C1331 C 0.55555 0.98039 0.56914 0.0
C1332 C 0.55074 0.99073 0.62809 0.0
C1333 C 0.57399 0.97962 0.54715 0.0
C1334 C 0.58778 0.98981 0.58206 0.0
C1335 C 0.58295 -0.00018 0.64192 0.0
C1336 C 0.56464 0.00011 0.66513 0.0
C1337 C 0.60715 0.99029 0.55588 0.0
C1338 C 0.62178 0.98742 0.60292 0.0
C1339 C 0.6113 0.99355 0.48505 0.0
C1340 C 0.59686 0.99868 0.43365 0.0
C1341 C 0.58516 0.01396 0.44553 0.0
C1342 C 0.57158 0.01872 0.39696 0.0
C1343 C 0.56968 0.00841 0.33597 0.0
C1344 C 0.58138 0.99334 0.32335 0.0
C1345 C 0.59496 0.98849 0.37183 0.0
H1346 H 0.55917 0.01213 0.2984 0.0
H1347 H 0.6941 0.97727 0.76975 0.0
H1348 H 0.469 0.7088 0.49481 0.0
H1349 H 0.46889 0.67891 0.55502 0.0
H1350 H 0.52849 0.67622 0.53717 0.0
H1351 H 0.52874 0.70616 0.47993 0.0
H1352 H 0.47804 0.64782 0.49932 0.0
H1353 H 0.5481 0.65096 0.64497 0.0
H1354 H 0.56577 0.67257 0.71923 0.0
H1355 H 0.51512 0.69879 0.78318 0.0
H1356 H 0.49718 0.67735 0.70925 0.0
H1357 H 0.51319 0.55785 0.5236 0.0
H1358 H 0.51118 0.59134 0.5065 0.0
H1359 H 0.49974 0.59889 0.72433 0.0
H1360 H 0.50201 0.56552 0.74215 0.0
H1361 H 0.52192 0.62555 0.67911 0.0
H1362 H 0.46488 0.59845 0.60831 0.0
H1363 H 0.44462 0.57667 0.54521 0.0
H1364 H 0.46328 0.59895 0.35105 0.0
H1365 H 0.48395 0.62064 0.41292 0.0
C1366 C 0.4821 0.70203 0.50555 0.0
C1367 C 0.49886 0.70971 0.48213 0.0
C1368 C 0.48202 0.68496 0.53985 0.0
C1369 C 0.49868 0.67532 0.55091 0.0
C1370 C 0.51548 0.68351 0.53075 0.0
C1371 C 0.51559 0.70063 0.49742 0.0
C1372 C 0.49851 0.65584 0.57518 0.0
C1373 C 0.48746 0.64299 0.53928 0.0
C1374 C 0.51059 0.64953 0.62788 0.0
C1375 C 0.52134 0.6626 0.67152 0.0
C1376 C 0.54076 0.66136 0.67484 0.0
C1377 C 0.55082 0.67359 0.71676 0.0
C1378 C 0.54158 0.68706 0.75581 0.0
C1379 C 0.52226 0.68838 0.75277 0.0
C1380 C 0.51215 0.67625 0.71069 0.0
C1381 C 0.51048 0.56663 0.56805 0.0
C1382 C 0.5076 0.55897 0.63413 0.0
C1383 C 0.50924 0.58576 0.55812 0.0
C1384 C 0.50493 0.59753 0.61391 0.0
C1385 C 0.50296 0.59003 0.68051 0.0
C1386 C 0.50426 0.57092 0.69053 0.0
C1387 C 0.50176 0.61756 0.60221 0.0
C1388 C 0.51226 0.63044 0.64012 0.0
C1389 C 0.4887 0.62395 0.55287 0.0
C1390 C 0.47611 0.61107 0.51532 0.0
C1391 C 0.46478 0.59862 0.55214 0.0
C1392 C 0.45321 0.58629 0.5166 0.0
C1393 C 0.45269 0.5864 0.44418 0.0
C1394 C 0.46372 0.59887 0.40715 0.0
C1395 C 0.47536 0.61119 0.44244 0.0
H1396 H 0.44372 0.57683 0.41678 0.0
H1397 H 0.54938 0.69645 0.78852 0.0
H1398 H 0.8117 0.46912 0.35319 0.0
H1399 H 0.84409 0.47664 0.37621 0.0
H1400 H 0.82962 0.49452 0.58289 0.0
H1401 H 0.79711 0.48747 0.55969 0.0
H1402 H 0.8506 0.51995 0.51959 0.0
H1403 H 0.85494 0.45237 0.55398 0.0
H1404 H 0.85001 0.42014 0.51471 0.0
H1405 H 0.88132 0.43111 0.32983 0.0
H1406 H 0.88638 0.4634 0.36812 0.0
H1407 H 0.9362 0.52097 0.69773 0.0
H1408 H 0.90497 0.51606 0.65289 0.0
H1409 H 0.92745 0.50211 0.45227 0.0
H1410 H 0.95887 0.50666 0.49691 0.0
H1411 H 0.90312 0.47593 0.4989 0.0
H1412 H 0.90359 0.54127 0.46912 0.0
H1413 H 0.90853 0.57397 0.50157 0.0
H1414 H 0.86808 0.56897 0.66381 0.0
H1415 H 0.86304 0.53615 0.63283 0.0
C1416 C 0.81544 0.47436 0.40397 0.0
C1417 C 0.80181 0.4778 0.45453 0.0
C1418 C 0.83399 0.47869 0.41701 0.0
C1419 C 0.83928 0.48622 0.48122 0.0
C1420 C 0.82581 0.48888 0.53276 0.0
C1421 C 0.80725 0.4847 0.51959 0.0
C1422 C 0.85869 0.49198 0.49434 0.0
C1423 C 0.86209 0.5103 0.51555 0.0
C1424 C 0.87375 0.47966 0.48605 0.0
C1425 C 0.87103 0.46021 0.46386 0.0
C1426 C 0.86076 0.44786 0.505 0.0
C1427 C 0.85795 0.42961 0.48292 0.0
C1428 C 0.86535 0.42358 0.41981 0.0
C1429 C 0.87559 0.43579 0.37868 0.0
C1430 C 0.8785 0.45404 0.40064 0.0
C1431 C 0.93454 0.51712 0.64376 0.0
C1432 C 0.95006 0.51413 0.60103 0.0
C1433 C 0.91666 0.51438 0.61815 0.0
C1434 C 0.91392 0.50868 0.54931 0.0
C1435 C 0.92931 0.50638 0.50568 0.0
C1436 C 0.94724 0.50915 0.53121 0.0
C1437 C 0.89506 0.50386 0.52486 0.0
C1438 C 0.89174 0.48571 0.50168 0.0
C1439 C 0.88012 0.51647 0.53013 0.0
C1440 C 0.88305 0.53621 0.54898 0.0
C1441 C 0.89584 0.5471 0.51204 0.0
C1442 C 0.89864 0.56567 0.5301 0.0
C1443 C 0.88866 0.57353 0.58482 0.0
C1444 C 0.87581 0.56285 0.62146 0.0
C1445 C 0.87296 0.54427 0.6036 0.0
H1446 H 0.89085 0.58791 0.59876 0.0
H1447 H 0.86314 0.40944 0.40277 0.0
loop_
_geom_bond_atom_site_label_1
_geom_bond_atom_site_label_2
_geom_bond_distance
_geom_bond_site_symmetry_2
_ccdc_geom_bond_type
O0 Cd1 2.300 . S
O0 C7 1.275 . S
Cd1 O0 2.300 . S
Cd1 O9 2.381 . S
Cd1 O10 2.378 . S
O2 Cd3 2.385 . S
O2 C7 1.255 . S
Cd3 O2 2.385 . S
Cd3 O4 2.317 . S
O4 Cd3 2.317 . S
O4 C5 1.232 . S
C5 O4 1.232 . S
C5 O6 1.218 . S
O6 C5 1.218 . S
C7 O0 1.275 . S
C7 O2 1.255 . S
C8 O9 1.258 . S
C8 O10 1.256 . S
O9 Cd1 2.381 . S
O9 C8 1.258 . S
O10 Cd1 2.378 . S
O10 C8 1.256 . S
O11 Cd12 2.300 1_655 S
O11 C18 1.275 1_655 S
Cd12 O11 2.300 1_455 S
Cd12 O20 2.381 1_455 S
Cd12 O21 2.378 . S
O13 Cd14 2.385 . S
O13 C18 1.255 . S
Cd14 O13 2.385 . S
Cd14 O15 2.317 . S
O15 Cd14 2.317 . S
O15 C16 1.232 . S
C16 O15 1.232 . S
C16 O17 1.218 . S
O17 C16 1.218 . S
C18 O11 1.275 1_455 S
C18 O13 1.255 . S
C19 O20 1.231 1_455 S
C19 O21 1.294 . S
O20 Cd12 2.381 1_655 S
O20 C19 1.231 1_655 S
O21 Cd12 2.378 . S
O21 C19 1.294 . S
O22 Cd23 2.300 1_565 S
O22 C29 1.275 1_565 S
Cd23 O22 2.300 1_545 S
Cd23 O31 2.381 1_545 S
Cd23 O32 2.378 . S
O24 Cd25 2.385 . S
O24 C29 1.255 . S
Cd25 O24 2.385 . S
Cd25 O26 2.317 . S
O26 Cd25 2.317 . S
O26 C27 1.232 . S
C27 O26 1.232 . S
C27 O28 1.218 . S
O28 C27 1.218 . S
C29 O22 1.275 1_545 S
C29 O24 1.255 . S
C30 O31 1.258 1_545 S
C30 O32 1.255 . S
O31 Cd23 2.381 1_565 S
O31 C30 1.258 1_565 S
O32 Cd23 2.378 . S
O32 C30 1.255 . S
O33 Cd34 2.300 . S
O33 C40 1.275 . S
Cd34 O33 2.300 . S
Cd34 O42 2.381 . S
Cd34 O43 2.378 . S
O35 Cd36 2.385 . S
O35 C40 1.255 . S
Cd36 O35 2.385 . S
Cd36 O37 2.317 . S
O37 Cd36 2.317 . S
O37 C38 1.232 . S
C38 O37 1.232 . S
C38 O39 1.218 . S
O39 C38 1.218 . S
C40 O33 1.275 . S
C40 O35 1.255 . S
C41 O42 1.258 . S
C41 O43 1.256 . S
O42 Cd34 2.381 . S
O42 C41 1.258 . S
O43 Cd34 2.378 . S
O43 C41 1.256 . S
O44 Cd45 2.300 . S
O44 C51 1.275 . S
Cd45 O44 2.300 . S
Cd45 O53 2.381 . S
Cd45 O54 2.378 . S
O46 Cd47 2.394 . S
O46 C51 1.255 . S
Cd47 O46 2.394 . S
Cd47 O48 2.310 1_554 S
O48 Cd47 2.310 1_556 S
O48 C49 1.232 . S
C49 O48 1.232 . S
C49 O50 1.218 . S
O50 C49 1.218 . S
C51 O44 1.275 . S
C51 O46 1.255 . S
C52 O53 1.258 . S
C52 O54 1.256 . S
O53 Cd45 2.381 . S
O53 C52 1.258 . S
O54 Cd45 2.378 . S
O54 C52 1.256 . S
O55 Cd56 2.298 . S
O55 C62 1.273 . S
Cd56 O55 2.298 . S
Cd56 O64 2.381 1_455 S
Cd56 O65 2.378 . S
O57 Cd58 2.394 . S
O57 C62 1.255 . S
Cd58 O57 2.394 . S
Cd58 O59 2.310 1_554 S
O59 Cd58 2.310 1_556 S
O59 C60 1.232 . S
C60 O59 1.232 . S
C60 O61 1.218 . S
O61 C60 1.218 . S
C62 O55 1.273 . S
C62 O57 1.255 . S
C63 O64 1.258 1_455 S
C63 O65 1.256 . S
O64 Cd56 2.381 1_655 S
O64 C63 1.258 1_655 S
O65 Cd56 2.378 . S
O65 C63 1.256 . S
O66 Cd67 2.300 1_565 S
O66 C73 1.275 1_565 S
Cd67 O66 2.300 1_545 S
Cd67 O75 2.381 1_545 S
Cd67 O76 2.378 . S
O68 Cd69 2.394 . S
O68 C73 1.255 . S
Cd69 O68 2.394 . S
Cd69 O70 2.310 1_554 S
O70 Cd69 2.310 1_556 S
O70 C71 1.232 . S
C71 O70 1.232 . S
C71 O72 1.218 . S
O72 C71 1.218 . S
C73 O66 1.275 1_545 S
C73 O68 1.255 . S
C74 O75 1.258 1_545 S
C74 O76 1.256 . S
O75 Cd67 2.381 1_565 S
O75 C74 1.258 1_565 S
O76 Cd67 2.378 . S
O76 C74 1.256 . S
O77 Cd78 2.300 . S
O77 C84 1.275 . S
Cd78 O77 2.300 . S
Cd78 O86 2.381 . S
Cd78 O87 2.378 . S
O79 Cd80 2.395 . S
O79 C84 1.255 . S
Cd80 O79 2.395 . S
Cd80 O81 2.309 1_554 S
O81 Cd80 2.309 1_556 S
O81 C82 1.232 . S
C82 O81 1.232 . S
C82 O83 1.218 . S
O83 C82 1.218 . S
C84 O77 1.275 . S
C84 O79 1.255 . S
C85 O86 1.258 . S
C85 O87 1.256 . S
O86 Cd78 2.381 . S
O86 C85 1.258 . S
O87 Cd78 2.378 . S
O87 C85 1.256 . S
Pr88 C90 2.880 . S
Pr88 O108 2.562 . S
Pr88 O109 2.490 . S
Pr88 O110 2.695 1_565 S
Pr88 O111 2.512 . S
Pr88 O113 2.437 . S
Pr88 O116 2.436 1_455 S
Pr88 O118 2.438 1_565 S
Pr89 C99 2.880 . S
Pr89 O110 2.436 1_655 S
Pr89 O112 2.438 1_545 S
Pr89 O114 2.562 1_655 S
Pr89 O115 2.490 . S
Pr89 O116 2.695 1_545 S
Pr89 O117 2.512 . S
Pr89 O119 2.437 . S
C90 Pr88 2.880 . S
C90 C91 1.491 . S
C90 O108 1.254 . S
C90 O109 1.225 . S
C91 C90 1.491 . S
C91 C92 1.392 . S
C91 C96 1.356 . S
C92 C91 1.392 . S
C92 C93 1.368 . S
C92 H120 0.929 . S
C93 C92 1.368 . S
C93 C94 1.386 . S
C93 H121 0.929 . S
C94 C93 1.386 . S
C94 C95 1.373 . S
C95 C94 1.373 . S
C95 C96 1.409 . S
C95 H122 0.931 1_455 S
C96 C91 1.356 . S
C96 C95 1.409 . S
C96 H123 0.930 1_455 S
C97 O110 1.258 1_565 S
C97 O111 1.270 . S
C98 O112 1.267 . S
C98 O113 1.278 1_655 S
C99 Pr89 2.880 . S
C99 C100 1.491 . S
C99 O114 1.254 1_655 S
C99 O115 1.225 . S
C100 C99 1.491 . S
C100 C101 1.392 . S
C100 C105 1.356 . S
C101 C100 1.392 . S
C101 C102 1.368 . S
C101 H124 0.929 . S
C102 C101 1.368 . S
C102 C103 1.386 . S
C102 H125 0.929 . S
C103 C102 1.386 . S
C103 C104 1.373 . S
C104 C103 1.373 . S
C104 C105 1.409 . S
C104 H126 0.931 1_655 S
C105 C100 1.356 . S
C105 C104 1.409 . S
C105 H127 0.930 1_655 S
C106 O116 1.270 1_545 S
C106 O117 1.248 . S
C107 O118 1.267 . S
C107 O119 1.278 1_455 S
O108 Pr88 2.562 . S
O108 C90 1.254 . S
O109 Pr88 2.490 . S
O109 C90 1.225 . S
O110 Pr88 2.695 1_545 S
O110 Pr89 2.436 1_455 S
O110 C97 1.258 1_545 S
O111 Pr88 2.512 . S
O111 C97 1.270 . S
O112 Pr89 2.438 1_565 S
O112 C98 1.267 . S
O113 Pr88 2.437 . S
O113 C98 1.278 1_455 S
O114 Pr89 2.562 1_455 S
O114 C99 1.254 1_455 S
O115 Pr89 2.490 . S
O115 C99 1.225 . S
O116 Pr88 2.436 1_655 S
O116 Pr89 2.695 1_565 S
O116 C106 1.270 1_565 S
O117 Pr89 2.512 . S
O117 C106 1.248 . S
O118 Pr88 2.438 1_545 S
O118 C107 1.267 . S
O119 Pr89 2.437 . S
O119 C107 1.278 1_655 S
H120 C92 0.929 . S
H121 C93 0.929 . S
H122 C95 0.931 1_655 S
H123 C96 0.930 1_655 S
H124 C101 0.929 . S
H125 C102 0.929 . S
H126 C104 0.931 1_455 S
H127 C105 0.930 1_455 S
Pr128 C130 2.880 . S
Pr128 O148 2.563 . S
Pr128 O149 2.490 . S
Pr128 O150 2.695 . S
Pr128 O151 2.512 . S
Pr128 O153 2.437 . S
Pr128 O156 2.436 1_545 S
Pr128 O158 2.438 . S
Pr129 C139 2.880 . S
Pr129 O150 2.436 1_565 S
Pr129 O152 2.438 . S
Pr129 O154 2.554 1_565 S
Pr129 O155 2.490 . S
Pr129 O156 2.695 . S
Pr129 O157 2.512 . S
Pr129 O159 2.437 . S
C130 Pr128 2.880 . S
C130 C131 1.491 . S
C130 O148 1.255 . S
C130 O149 1.225 . S
C131 C130 1.491 . S
C131 C132 1.392 . S
C131 C136 1.356 . S
C132 C131 1.392 . S
C132 C133 1.368 . S
C132 H160 0.929 . S
C133 C132 1.368 . S
C133 C134 1.386 . S
C133 H161 0.929 . S
C134 C133 1.386 . S
C134 C135 1.373 . S
C135 C134 1.373 . S
C135 C136 1.409 . S
C135 H162 0.931 1_545 S
C136 C131 1.356 . S
C136 C135 1.409 . S
C136 H163 0.930 1_545 S
C137 O150 1.270 . S
C137 O151 1.248 . S
C138 O152 1.267 . S
C138 O153 1.278 1_565 S
C139 Pr129 2.880 . S
C139 C140 1.491 . S
C139 O154 1.233 1_565 S
C139 O155 1.225 . S
C140 C139 1.491 . S
C140 C141 1.392 . S
C140 C145 1.356 . S
C141 C140 1.392 . S
C141 C142 1.368 . S
C141 H164 0.929 . S
C142 C141 1.368 . S
C142 C143 1.386 . S
C142 H165 0.929 . S
C143 C142 1.386 . S
C143 C144 1.373 . S
C144 C143 1.373 . S
C144 C145 1.409 . S
C144 H166 0.931 1_565 S
C145 C140 1.356 . S
C145 C144 1.409 . S
C145 H167 0.930 1_565 S
C146 O156 1.270 . S
C146 O157 1.248 . S
C147 O158 1.267 . S
C147 O159 1.278 1_545 S
O148 Pr128 2.563 . S
O148 C130 1.255 . S
O149 Pr128 2.490 . S
O149 C130 1.225 . S
O150 Pr128 2.695 . S
O150 Pr129 2.436 1_545 S
O150 C137 1.270 . S
O151 Pr128 2.512 . S
O151 C137 1.248 . S
O152 Pr129 2.438 . S
O152 C138 1.267 . S
O153 Pr128 2.437 . S
O153 C138 1.278 1_545 S
O154 Pr129 2.554 1_545 S
O154 C139 1.233 1_545 S
O155 Pr129 2.490 . S
O155 C139 1.225 . S
O156 Pr128 2.436 1_565 S
O156 Pr129 2.695 . S
O156 C146 1.270 . S
O157 Pr129 2.512 . S
O157 C146 1.248 . S
O158 Pr128 2.438 . S
O158 C147 1.267 . S
O159 Pr129 2.437 . S
O159 C147 1.278 1_565 S
H160 C132 0.929 . S
H161 C133 0.929 . S
H162 C135 0.931 1_565 S
H163 C136 0.930 1_565 S
H164 C141 0.929 . S
H165 C142 0.929 . S
H166 C144 0.931 1_545 S
H167 C145 0.930 1_545 S
Pr168 C170 2.880 . S
Pr168 O188 2.562 . S
Pr168 O189 2.490 . S
Pr168 O190 2.695 . S
Pr168 O191 2.512 . S
Pr168 O193 2.437 . S
Pr168 O196 2.436 . S
Pr168 O198 2.438 . S
Pr169 C179 2.880 . S
Pr169 O190 2.436 . S
Pr169 O192 2.438 . S
Pr169 O194 2.562 . S
Pr169 O195 2.490 . S
Pr169 O196 2.695 . S
Pr169 O197 2.512 . S
Pr169 O199 2.437 . S
C170 Pr168 2.880 . S
C170 C171 1.491 . S
C170 O188 1.254 . S
C170 O189 1.225 . S
C171 C170 1.491 . S
C171 C172 1.392 . S
C171 C176 1.356 . S
C172 C171 1.392 . S
C172 C173 1.368 . S
C172 H200 0.929 . S
C173 C172 1.368 . S
C173 C174 1.386 . S
C173 H201 0.929 . S
C174 C173 1.386 . S
C174 C175 1.373 . S
C175 C174 1.373 . S
C175 C176 1.409 . S
C175 H202 0.931 . S
C176 C171 1.356 . S
C176 C175 1.409 . S
C176 H203 0.930 . S
C177 O190 1.270 . S
C177 O191 1.248 . S
C178 O192 1.267 . S
C178 O193 1.278 . S
C179 Pr169 2.880 . S
C179 C180 1.491 . S
C179 O194 1.254 . S
C179 O195 1.225 . S
C180 C179 1.491 . S
C180 C181 1.392 . S
C180 C185 1.356 . S
C181 C180 1.392 . S
C181 C182 1.368 . S
C181 H204 0.929 . S
C182 C181 1.368 . S
C182 C183 1.386 . S
C182 H205 0.929 . S
C183 C182 1.386 . S
C183 C184 1.373 . S
C184 C183 1.373 . S
C184 C185 1.409 . S
C184 H206 0.931 . S
C185 C180 1.356 . S
C185 C184 1.409 . S
C185 H207 0.930 . S
C186 O196 1.270 . S
C186 O197 1.248 . S
C187 O198 1.267 . S
C187 O199 1.278 . S
O188 Pr168 2.562 . S
O188 C170 1.254 . S
O189 Pr168 2.490 . S
O189 C170 1.225 . S
O190 Pr168 2.695 . S
O190 Pr169 2.436 . S
O190 C177 1.270 . S
O191 Pr168 2.512 . S
O191 C177 1.248 . S
O192 Pr169 2.438 . S
O192 C178 1.267 . S
O193 Pr168 2.437 . S
O193 C178 1.278 . S
O194 Pr169 2.562 . S
O194 C179 1.254 . S
O195 Pr169 2.490 . S
O195 C179 1.225 . S
O196 Pr168 2.436 . S
O196 Pr169 2.695 . S
O196 C186 1.270 . S
O197 Pr169 2.512 . S
O197 C186 1.248 . S
O198 Pr168 2.438 . S
O198 C187 1.267 . S
O199 Pr169 2.437 . S
O199 C187 1.278 . S
H200 C172 0.929 . S
H201 C173 0.929 . S
H202 C175 0.931 . S
H203 C176 0.930 . S
H204 C181 0.929 . S
H205 C182 0.929 . S
H206 C184 0.931 . S
H207 C185 0.930 . S
Pr208 C210 2.880 . S
Pr208 O228 2.562 . S
Pr208 O229 2.490 . S
Pr208 O230 2.695 1_655 S
Pr208 O231 2.512 . S
Pr208 O233 2.437 . S
Pr208 O236 2.436 . S
Pr208 O238 2.438 1_655 S
Pr209 C219 2.880 . S
Pr209 O230 2.436 . S
Pr209 O232 2.438 1_455 S
Pr209 O234 2.562 . S
Pr209 O235 2.490 . S
Pr209 O236 2.695 1_455 S
Pr209 O237 2.512 . S
Pr209 O239 2.437 . S
C210 Pr208 2.880 . S
C210 C211 1.491 . S
C210 O228 1.254 . S
C210 O229 1.225 . S
C211 C210 1.491 . S
C211 C212 1.392 . S
C211 C216 1.356 . S
C212 C211 1.392 . S
C212 C213 1.368 . S
C212 H240 0.929 . S
C213 C212 1.368 . S
C213 C214 1.386 . S
C213 H241 0.929 . S
C214 C213 1.386 . S
C214 C215 1.373 . S
C215 C214 1.373 . S
C215 C216 1.409 . S
C215 H242 0.931 . S
C216 C211 1.356 . S
C216 C215 1.409 . S
C216 H243 0.930 . S
C217 O230 1.278 . S
C217 O231 1.236 1_455 S
C218 O232 1.267 . S
C218 O233 1.278 . S
C219 Pr209 2.880 . S
C219 C220 1.491 . S
C219 O234 1.254 . S
C219 O235 1.225 . S
C220 C219 1.491 . S
C220 C221 1.392 . S
C220 C225 1.356 . S
C221 C220 1.392 . S
C221 C222 1.368 . S
C221 H244 0.929 . S
C222 C221 1.368 . S
C222 C223 1.386 . S
C222 H245 0.929 . S
C223 C222 1.386 . S
C223 C224 1.373 . S
C224 C223 1.373 . S
C224 C225 1.409 . S
C224 H246 0.931 . S
C225 C220 1.356 . S
C225 C224 1.409 . S
C225 H247 0.930 . S
C226 O236 1.270 1_455 S
C226 O237 1.248 . S
C227 O238 1.267 . S
C227 O239 1.278 . S
O228 Pr208 2.562 . S
O228 C210 1.254 . S
O229 Pr208 2.490 . S
O229 C210 1.225 . S
O230 Pr208 2.695 1_455 S
O230 Pr209 2.436 . S
O230 C217 1.278 . S
O231 Pr208 2.512 . S
O231 C217 1.236 1_655 S
O232 Pr209 2.438 1_655 S
O232 C218 1.267 . S
O233 Pr208 2.437 . S
O233 C218 1.278 . S
O234 Pr209 2.562 . S
O234 C219 1.254 . S
O235 Pr209 2.490 . S
O235 C219 1.225 . S
O236 Pr208 2.436 . S
O236 Pr209 2.695 1_655 S
O236 C226 1.270 1_655 S
O237 Pr209 2.512 . S
O237 C226 1.248 . S
O238 Pr208 2.438 1_455 S
O238 C227 1.267 . S
O239 Pr209 2.437 . S
O239 C227 1.278 . S
H240 C212 0.929 . S
H241 C213 0.929 . S
H242 C215 0.931 . S
H243 C216 0.930 . S
H244 C221 0.929 . S
H245 C222 0.929 . S
H246 C224 0.931 . S
H247 C225 0.930 . S
H248 C266 0.951 . S
H249 C268 0.951 . S
H250 C270 0.951 . S
H251 C271 0.951 . S
H252 C273 0.950 . S
H253 C276 0.950 . S
H254 C277 0.950 . S
H255 C279 0.950 . S
H256 C280 0.950 . S
H257 C281 0.949 1_565 S
H258 C283 0.951 . S
H259 C285 0.950 . S
H260 C286 0.950 . S
H261 C288 0.950 . S
H262 C291 0.950 . S
H263 C292 0.950 . S
H264 C294 0.950 . S
H265 C295 0.950 . S
C266 H248 0.951 . S
C266 C267 1.366 . S
C266 C268 1.388 . S
C267 C266 1.366 . S
C267 C271 1.385 . S
C268 H249 0.951 . S
C268 C266 1.388 . S
C268 C269 1.366 . S
C269 C268 1.366 . S
C269 C270 1.414 . S
C269 C272 1.499 . S
C270 H250 0.951 . S
C270 C269 1.414 . S
C270 C271 1.374 . S
C271 H251 0.951 . S
C271 C267 1.385 . S
C271 C270 1.374 . S
C272 C269 1.499 . S
C272 C273 1.373 1_545 S
C272 C274 1.389 . S
C273 H252 0.950 . S
C273 C272 1.373 1_565 S
C273 C289 1.377 . S
C274 C272 1.389 . S
C274 C275 1.524 . S
C274 C288 1.377 . S
C275 C274 1.524 . S
C275 C276 1.397 . S
C275 C280 1.363 . S
C276 H253 0.950 . S
C276 C275 1.397 . S
C276 C277 1.334 . S
C277 H254 0.950 . S
C277 C276 1.334 . S
C277 C278 1.287 . S
C278 C277 1.287 . S
C278 C279 1.524 . S
C278 H297 0.913 . S
C279 H255 0.950 . S
C279 C278 1.524 . S
C279 C280 1.415 . S
C280 H256 0.950 . S
C280 C275 1.363 . S
C280 C279 1.415 . S
C281 H257 0.949 1_545 S
C281 C282 1.366 . S
C281 C283 1.388 1_545 S
C282 C281 1.366 . S
C282 C286 1.385 . S
C283 H258 0.951 . S
C283 C281 1.388 1_565 S
C283 C284 1.364 1_565 S
C284 C283 1.364 1_545 S
C284 C285 1.420 . S
C284 C287 1.499 . S
C285 H259 0.950 . S
C285 C284 1.420 . S
C285 C286 1.374 . S
C286 H260 0.950 . S
C286 C282 1.385 . S
C286 C285 1.374 . S
C287 C284 1.499 . S
C287 C288 1.419 . S
C287 C289 1.349 1_545 S
C288 H261 0.950 . S
C288 C274 1.377 . S
C288 C287 1.419 . S
C289 C273 1.377 . S
C289 C287 1.349 1_565 S
C289 C290 1.524 . S
C290 C289 1.524 . S
C290 C291 1.397 . S
C290 C295 1.363 . S
C291 H262 0.950 . S
C291 C290 1.397 . S
C291 C292 1.334 . S
C292 H263 0.950 . S
C292 C291 1.334 . S
C292 C293 1.287 . S
C293 C292 1.287 . S
C293 C294 1.524 . S
C293 H296 0.999 . S
C294 H264 0.950 . S
C294 C293 1.524 . S
C294 C295 1.415 . S
C295 H265 0.950 . S
C295 C290 1.363 . S
C295 C294 1.415 . S
H296 C293 0.999 . S
H297 C278 0.913 . S
H298 C316 0.951 . S
H299 C318 0.951 . S
H300 C320 0.950 . S
H301 C321 0.950 . S
H302 C323 0.950 . S
H303 C326 0.950 . S
H304 C327 0.950 . S
H305 C329 0.950 . S
H306 C330 0.950 . S
H307 C331 0.951 . S
H308 C333 0.951 . S
H309 C335 0.950 . S
H310 C336 0.950 . S
H311 C338 0.950 . S
H312 C341 0.950 . S
H313 C342 0.950 . S
H314 C344 0.950 . S
H315 C345 0.950 . S
C316 H298 0.951 . S
C316 C317 1.366 . S
C316 C318 1.388 . S
C317 C316 1.366 . S
C317 C321 1.385 . S
C318 H299 0.951 . S
C318 C316 1.388 . S
C318 C319 1.366 . S
C319 C318 1.366 . S
C319 C320 1.414 . S
C319 C322 1.499 . S
C320 H300 0.950 . S
C320 C319 1.414 . S
C320 C321 1.374 . S
C321 H301 0.950 . S
C321 C317 1.385 . S
C321 C320 1.374 . S
C322 C319 1.499 . S
C322 C323 1.373 . S
C322 C324 1.389 . S
C323 H302 0.950 . S
C323 C322 1.373 . S
C323 C339 1.377 . S
C324 C322 1.389 . S
C324 C325 1.524 . S
C324 C338 1.377 . S
C325 C324 1.524 . S
C325 C326 1.397 . S
C325 C330 1.363 . S
C326 H303 0.950 . S
C326 C325 1.397 . S
C326 C327 1.334 . S
C327 H304 0.950 . S
C327 C326 1.334 . S
C327 C328 1.287 . S
C328 C327 1.287 . S
C328 C329 1.524 . S
C328 H347 0.913 . S
C329 H305 0.950 . S
C329 C328 1.524 . S
C329 C330 1.415 . S
C330 H306 0.950 . S
C330 C325 1.363 . S
C330 C329 1.415 . S
C331 H307 0.951 . S
C331 C332 1.366 . S
C331 C333 1.388 . S
C332 C331 1.366 . S
C332 C336 1.385 . S
C333 H308 0.951 . S
C333 C331 1.388 . S
C333 C334 1.366 . S
C334 C333 1.366 . S
C334 C335 1.414 . S
C334 C337 1.499 . S
C335 H309 0.950 . S
C335 C334 1.414 . S
C335 C336 1.374 . S
C336 H310 0.950 . S
C336 C332 1.385 . S
C336 C335 1.374 . S
C337 C334 1.499 . S
C337 C338 1.373 . S
C337 C339 1.389 . S
C338 H311 0.950 . S
C338 C324 1.377 . S
C338 C337 1.373 . S
C339 C323 1.377 . S
C339 C337 1.389 . S
C339 C340 1.524 . S
C340 C339 1.524 . S
C340 C341 1.397 . S
C340 C345 1.363 . S
C341 H312 0.950 . S
C341 C340 1.397 . S
C341 C342 1.334 . S
C342 H313 0.950 . S
C342 C341 1.334 . S
C342 C343 1.287 . S
C343 C342 1.287 . S
C343 C344 1.524 . S
C343 H346 0.999 . S
C344 H314 0.950 . S
C344 C343 1.524 . S
C344 C345 1.415 . S
C345 H315 0.950 . S
C345 C340 1.363 . S
C345 C344 1.415 . S
H346 C343 0.999 . S
H347 C328 0.913 . S
H348 C366 0.951 . S
H349 C368 0.951 . S
H350 C370 0.950 . S
H351 C371 0.950 . S
H352 C373 0.950 . S
H353 C376 0.950 . S
H354 C377 0.950 . S
H355 C379 0.950 . S
H356 C380 0.950 . S
H357 C381 0.951 . S
H358 C383 0.951 . S
H359 C385 0.950 . S
H360 C386 0.950 . S
H361 C388 0.950 . S
H362 C391 0.950 . S
H363 C392 0.950 . S
H364 C394 0.950 . S
H365 C395 0.950 . S
C366 H348 0.951 . S
C366 C367 1.366 . S
C366 C368 1.388 . S
C367 C366 1.366 . S
C367 C371 1.385 . S
C368 H349 0.951 . S
C368 C366 1.388 . S
C368 C369 1.366 . S
C369 C368 1.366 . S
C369 C370 1.414 . S
C369 C372 1.499 . S
C370 H350 0.950 . S
C370 C369 1.414 . S
C370 C371 1.374 . S
C371 H351 0.950 . S
C371 C367 1.385 . S
C371 C370 1.374 . S
C372 C369 1.499 . S
C372 C373 1.373 . S
C372 C374 1.389 . S
C373 H352 0.950 . S
C373 C372 1.373 . S
C373 C389 1.377 . S
C374 C372 1.389 . S
C374 C375 1.524 . S
C374 C388 1.377 . S
C375 C374 1.524 . S
C375 C376 1.397 . S
C375 C380 1.363 . S
C376 H353 0.950 . S
C376 C375 1.397 . S
C376 C377 1.334 . S
C377 H354 0.950 . S
C377 C376 1.334 . S
C377 C378 1.287 . S
C378 C377 1.287 . S
C378 C379 1.524 . S
C378 H397 0.913 . S
C379 H355 0.950 . S
C379 C378 1.524 . S
C379 C380 1.415 . S
C380 H356 0.950 . S
C380 C375 1.363 . S
C380 C379 1.415 . S
C381 H357 0.951 . S
C381 C382 1.366 . S
C381 C383 1.388 . S
C382 C381 1.366 . S
C382 C386 1.385 . S
C383 H358 0.951 . S
C383 C381 1.388 . S
C383 C384 1.366 . S
C384 C383 1.366 . S
C384 C385 1.414 . S
C384 C387 1.499 . S
C385 H359 0.950 . S
C385 C384 1.414 . S
C385 C386 1.374 . S
C386 H360 0.950 . S
C386 C382 1.385 . S
C386 C385 1.374 . S
C387 C384 1.499 . S
C387 C388 1.373 . S
C387 C389 1.389 . S
C388 H361 0.950 . S
C388 C374 1.377 . S
C388 C387 1.373 . S
C389 C373 1.377 . S
C389 C387 1.389 . S
C389 C390 1.524 . S
C390 C389 1.524 . S
C390 C391 1.397 . S
C390 C395 1.363 . S
C391 H362 0.950 . S
C391 C390 1.397 . S
C391 C392 1.334 . S
C392 H363 0.950 . S
C392 C391 1.334 . S
C392 C393 1.287 . S
C393 C392 1.287 . S
C393 C394 1.524 . S
C393 H396 0.999 . S
C394 H364 0.950 . S
C394 C393 1.524 . S
C394 C395 1.415 . S
C395 H365 0.950 . S
C395 C390 1.363 . S
C395 C394 1.415 . S
H396 C393 0.999 . S
H397 C378 0.913 . S
H398 C416 0.951 . S
H399 C418 0.951 . S
H400 C420 0.950 . S
H401 C421 0.950 . S
H402 C423 0.950 . S
H403 C426 0.950 . S
H404 C427 0.950 . S
H405 C429 0.950 . S
H406 C430 0.950 . S
H407 C431 0.951 . S
H408 C433 0.951 . S
H409 C435 0.950 . S
H410 C436 0.950 . S
H411 C438 0.950 . S
H412 C441 0.950 . S
H413 C442 0.950 . S
H414 C444 0.950 . S
H415 C445 0.950 . S
C416 H398 0.951 . S
C416 C417 1.366 . S
C416 C418 1.388 . S
C417 C416 1.366 . S
C417 C421 1.385 1_455 S
C418 H399 0.951 . S
C418 C416 1.388 . S
C418 C419 1.366 . S
C419 C418 1.366 . S
C419 C420 1.414 1_455 S
C419 C422 1.499 . S
C420 H400 0.950 . S
C420 C419 1.414 1_655 S
C420 C421 1.374 . S
C421 H401 0.950 . S
C421 C417 1.385 1_655 S
C421 C420 1.374 . S
C422 C419 1.499 . S
C422 C423 1.373 1_455 S
C422 C424 1.389 . S
C423 H402 0.950 . S
C423 C422 1.373 1_655 S
C423 C439 1.377 . S
C424 C422 1.389 . S
C424 C425 1.524 . S
C424 C438 1.377 . S
C425 C424 1.524 . S
C425 C426 1.397 . S
C425 C430 1.363 . S
C426 H403 0.950 . S
C426 C425 1.397 . S
C426 C427 1.334 . S
C427 H404 0.950 . S
C427 C426 1.334 . S
C427 C428 1.287 . S
C428 C427 1.287 . S
C428 C429 1.524 . S
C428 H447 0.913 . S
C429 H405 0.950 . S
C429 C428 1.524 . S
C429 C430 1.415 . S
C430 H406 0.950 . S
C430 C425 1.363 . S
C430 C429 1.415 . S
C431 H407 0.951 . S
C431 C432 1.366 1_655 S
C431 C433 1.388 . S
C432 C431 1.366 1_455 S
C432 C436 1.385 . S
C433 H408 0.951 . S
C433 C431 1.388 . S
C433 C434 1.366 1_655 S
C434 C433 1.366 1_455 S
C434 C435 1.414 . S
C434 C437 1.499 . S
C435 H409 0.950 . S
C435 C434 1.414 . S
C435 C436 1.374 . S
C436 H410 0.950 . S
C436 C432 1.385 . S
C436 C435 1.374 . S
C437 C434 1.499 . S
C437 C438 1.373 . S
C437 C439 1.389 1_455 S
C438 H411 0.950 . S
C438 C424 1.377 . S
C438 C437 1.373 . S
C439 C423 1.377 . S
C439 C437 1.389 1_655 S
C439 C440 1.524 . S
C440 C439 1.524 . S
C440 C441 1.397 . S
C440 C445 1.363 . S
C441 H412 0.950 . S
C441 C440 1.397 . S
C441 C442 1.334 . S
C442 H413 0.950 . S
C442 C441 1.334 . S
C442 C443 1.287 . S
C443 C442 1.287 . S
C443 C444 1.524 . S
C443 H446 0.999 . S
C444 H414 0.950 . S
C444 C443 1.524 . S
C444 C445 1.415 . S
C445 H415 0.950 . S
C445 C440 1.363 . S
C445 C444 1.415 . S
H446 C443 0.999 . S
H447 C428 0.913 . S
H448 C466 0.951 . S
H449 C468 0.951 . S
H450 C470 0.950 . S
H451 C471 0.950 . S
H452 C473 0.950 . S
H453 C476 0.950 1_565 S
H454 C477 0.950 . S
H455 C479 0.950 . S
H456 C480 0.950 . S
H457 C481 0.951 . S
H458 C483 0.951 . S
H459 C485 0.950 . S
H460 C486 0.950 . S
H461 C488 0.950 . S
H462 C491 0.950 1_545 S
H463 C492 0.950 . S
H464 C494 0.950 . S
H465 C495 0.950 . S
C466 H448 0.951 . S
C466 C467 1.366 1_545 S
C466 C468 1.388 . S
C467 C466 1.366 1_565 S
C467 C471 1.385 . S
C468 H449 0.951 . S
C468 C466 1.388 . S
C468 C469 1.366 1_545 S
C469 C468 1.366 1_565 S
C469 C470 1.414 . S
C469 C472 1.499 . S
C470 H450 0.950 . S
C470 C469 1.414 . S
C470 C471 1.374 . S
C471 H451 0.950 . S
C471 C467 1.385 . S
C471 C470 1.374 . S
C472 C469 1.499 . S
C472 C473 1.373 . S
C472 C474 1.389 1_564 S
C473 H452 0.950 . S
C473 C472 1.373 . S
C473 C489 1.377 . S
C474 C472 1.389 1_546 S
C474 C475 1.524 . S
C474 C488 1.377 . S
C475 C474 1.524 . S
C475 C476 1.397 . S
C475 C480 1.363 . S
C476 H453 0.950 1_545 S
C476 C475 1.397 . S
C476 C477 1.334 . S
C477 H454 0.950 . S
C477 C476 1.334 . S
C477 C478 1.287 . S
C478 C477 1.287 . S
C478 C479 1.524 . S
C478 H497 0.913 . S
C479 H455 0.950 . S
C479 C478 1.524 . S
C479 C480 1.415 . S
C480 H456 0.950 . S
C480 C475 1.363 . S
C480 C479 1.415 . S
C481 H457 0.951 . S
C481 C482 1.366 . S
C481 C483 1.388 . S
C482 C481 1.366 . S
C482 C486 1.385 1_565 S
C483 H458 0.951 . S
C483 C481 1.388 . S
C483 C484 1.366 . S
C484 C483 1.366 . S
C484 C485 1.414 1_565 S
C484 C487 1.500 . S
C485 H459 0.950 . S
C485 C484 1.414 1_545 S
C485 C486 1.374 . S
C486 H460 0.950 . S
C486 C482 1.385 1_545 S
C486 C485 1.374 . S
C487 C484 1.500 . S
C487 C488 1.356 1_565 S
C487 C489 1.409 1_556 S
C488 H461 0.950 . S
C488 C474 1.377 . S
C488 C487 1.356 1_545 S
C489 C473 1.377 . S
C489 C487 1.409 1_554 S
C489 C490 1.524 . S
C490 C489 1.524 . S
C490 C491 1.397 . S
C490 C495 1.363 . S
C491 H462 0.950 1_565 S
C491 C490 1.397 . S
C491 C492 1.334 . S
C492 H463 0.950 . S
C492 C491 1.334 . S
C492 C493 1.287 . S
C493 C492 1.287 . S
C493 C494 1.524 . S
C493 H496 0.999 . S
C494 H464 0.950 . S
C494 C493 1.524 . S
C494 C495 1.415 . S
C495 H465 0.950 . S
C495 C490 1.363 . S
C495 C494 1.415 . S
H496 C493 0.999 . S
H497 C478 0.913 . S
H498 C516 0.951 . S
H499 C518 0.951 . S
H500 C520 0.950 . S
H501 C521 0.950 . S
H502 C523 0.950 . S
H503 C526 0.950 . S
H504 C527 0.950 . S
H505 C529 0.950 . S
H506 C530 0.950 . S
H507 C531 0.951 . S
H508 C533 0.951 . S
H509 C535 0.950 . S
H510 C536 0.950 . S
H511 C538 0.950 . S
H512 C541 0.950 . S
H513 C542 0.950 . S
H514 C544 0.950 . S
H515 C545 0.950 . S
C516 H498 0.951 . S
C516 C517 1.366 . S
C516 C518 1.388 . S
C517 C516 1.366 . S
C517 C521 1.385 . S
C518 H499 0.951 . S
C518 C516 1.388 . S
C518 C519 1.366 . S
C519 C518 1.366 . S
C519 C520 1.414 . S
C519 C522 1.499 . S
C520 H500 0.950 . S
C520 C519 1.414 . S
C520 C521 1.374 . S
C521 H501 0.950 . S
C521 C517 1.385 . S
C521 C520 1.374 . S
C522 C519 1.499 . S
C522 C523 1.373 . S
C522 C524 1.389 . S
C523 H502 0.950 . S
C523 C522 1.373 . S
C523 C539 1.377 1_554 S
C524 C522 1.389 . S
C524 C525 1.524 . S
C524 C538 1.377 1_554 S
C525 C524 1.524 . S
C525 C526 1.397 . S
C525 C530 1.363 . S
C526 H503 0.950 . S
C526 C525 1.397 . S
C526 C527 1.334 . S
C527 H504 0.950 . S
C527 C526 1.334 . S
C527 C528 1.287 . S
C528 C527 1.287 . S
C528 C529 1.524 . S
C528 H547 0.913 . S
C529 H505 0.950 . S
C529 C528 1.524 . S
C529 C530 1.415 . S
C530 H506 0.950 . S
C530 C525 1.363 . S
C530 C529 1.415 . S
C531 H507 0.951 . S
C531 C532 1.366 . S
C531 C533 1.388 . S
C532 C531 1.366 . S
C532 C536 1.385 . S
C533 H508 0.951 . S
C533 C531 1.388 . S
C533 C534 1.366 . S
C534 C533 1.366 . S
C534 C535 1.414 . S
C534 C537 1.499 . S
C535 H509 0.950 . S
C535 C534 1.414 . S
C535 C536 1.374 . S
C536 H510 0.950 . S
C536 C532 1.385 . S
C536 C535 1.374 . S
C537 C534 1.499 . S
C537 C538 1.373 . S
C537 C539 1.389 . S
C538 H511 0.950 . S
C538 C524 1.377 1_556 S
C538 C537 1.373 . S
C539 C523 1.377 1_556 S
C539 C537 1.389 . S
C539 C540 1.524 . S
C540 C539 1.524 . S
C540 C541 1.397 . S
C540 C545 1.363 . S
C541 H512 0.950 . S
C541 C540 1.397 . S
C541 C542 1.334 . S
C542 H513 0.950 . S
C542 C541 1.334 . S
C542 C543 1.287 . S
C543 C542 1.287 . S
C543 C544 1.524 . S
C543 H546 0.999 . S
C544 H514 0.950 . S
C544 C543 1.524 . S
C544 C545 1.415 . S
C545 H515 0.950 . S
C545 C540 1.363 . S
C545 C544 1.415 . S
H546 C543 0.999 . S
H547 C528 0.913 . S
H548 C566 0.951 . S
H549 C568 0.951 . S
H550 C570 0.950 . S
H551 C571 0.950 . S
H552 C573 0.950 . S
H553 C576 0.950 . S
H554 C577 0.950 . S
H555 C579 0.950 . S
H556 C580 0.950 . S
H557 C581 0.951 . S
H558 C583 0.951 . S
H559 C585 0.950 . S
H560 C586 0.950 . S
H561 C588 0.950 . S
H562 C591 0.950 . S
H563 C592 0.950 . S
H564 C594 0.950 . S
H565 C595 0.950 . S
C566 H548 0.951 . S
C566 C567 1.366 . S
C566 C568 1.388 . S
C567 C566 1.366 . S
C567 C571 1.385 . S
C568 H549 0.951 . S
C568 C566 1.388 . S
C568 C569 1.366 . S
C569 C568 1.366 . S
C569 C570 1.414 . S
C569 C572 1.499 . S
C570 H550 0.950 . S
C570 C569 1.414 . S
C570 C571 1.374 . S
C571 H551 0.950 . S
C571 C567 1.385 . S
C571 C570 1.374 . S
C572 C569 1.499 . S
C572 C573 1.373 . S
C572 C574 1.389 1_554 S
C573 H552 0.950 . S
C573 C572 1.373 . S
C573 C589 1.377 1_554 S
C574 C572 1.389 1_556 S
C574 C575 1.524 . S
C574 C588 1.377 . S
C575 C574 1.524 . S
C575 C576 1.397 . S
C575 C580 1.363 . S
C576 H553 0.950 . S
C576 C575 1.397 . S
C576 C577 1.334 . S
C577 H554 0.950 . S
C577 C576 1.334 . S
C577 C578 1.287 . S
C578 C577 1.287 . S
C578 C579 1.524 . S
C578 H597 0.913 . S
C579 H555 0.950 . S
C579 C578 1.524 . S
C579 C580 1.415 . S
C580 H556 0.950 . S
C580 C575 1.363 . S
C580 C579 1.415 . S
C581 H557 0.951 . S
C581 C582 1.366 . S
C581 C583 1.388 . S
C582 C581 1.366 . S
C582 C586 1.385 . S
C583 H558 0.951 . S
C583 C581 1.388 . S
C583 C584 1.366 . S
C584 C583 1.366 . S
C584 C585 1.414 . S
C584 C587 1.499 . S
C585 H559 0.950 . S
C585 C584 1.414 . S
C585 C586 1.374 . S
C586 H560 0.950 . S
C586 C582 1.385 . S
C586 C585 1.374 . S
C587 C584 1.499 . S
C587 C588 1.373 . S
C587 C589 1.389 . S
C588 H561 0.950 . S
C588 C574 1.377 . S
C588 C587 1.373 . S
C589 C573 1.377 1_556 S
C589 C587 1.389 . S
C589 C590 1.524 1_556 S
C590 C589 1.524 1_554 S
C590 C591 1.397 . S
C590 C595 1.363 . S
C591 H562 0.950 . S
C591 C590 1.397 . S
C591 C592 1.334 . S
C592 H563 0.950 . S
C592 C591 1.334 . S
C592 C593 1.287 . S
C593 C592 1.287 . S
C593 C594 1.524 . S
C593 H596 0.999 . S
C594 H564 0.950 . S
C594 C593 1.524 . S
C594 C595 1.415 . S
C595 H565 0.950 . S
C595 C590 1.363 . S
C595 C594 1.415 . S
H596 C593 0.999 . S
H597 C578 0.913 . S
H598 C616 0.951 . S
H599 C618 0.951 . S
H600 C620 0.950 . S
H601 C621 0.950 . S
H602 C623 0.950 . S
H603 C626 0.950 . S
H604 C627 0.950 . S
H605 C629 0.950 . S
H606 C630 0.950 . S
H607 C631 0.951 . S
H608 C633 0.951 . S
H609 C635 0.950 . S
H610 C636 0.950 . S
H611 C638 0.950 . S
H612 C641 0.950 . S
H613 C642 0.950 . S
H614 C644 0.950 . S
H615 C645 0.950 . S
C616 H598 0.951 . S
C616 C617 1.366 . S
C616 C618 1.388 . S
C617 C616 1.366 . S
C617 C621 1.385 1_655 S
C618 H599 0.951 . S
C618 C616 1.388 . S
C618 C619 1.367 1_655 S
C619 C618 1.367 1_455 S
C619 C620 1.413 . S
C619 C622 1.498 . S
C620 H600 0.950 . S
C620 C619 1.413 . S
C620 C621 1.374 . S
C621 H601 0.950 . S
C621 C617 1.385 1_455 S
C621 C620 1.374 . S
C622 C619 1.498 . S
C622 C623 1.363 1_454 S
C622 C624 1.398 . S
C623 H602 0.950 . S
C623 C622 1.363 1_656 S
C623 C639 1.377 . S
C624 C622 1.398 . S
C624 C625 1.524 . S
C624 C638 1.377 . S
C625 C624 1.524 . S
C625 C626 1.397 . S
C625 C630 1.363 . S
C626 H603 0.950 . S
C626 C625 1.397 . S
C626 C627 1.334 . S
C627 H604 0.950 . S
C627 C626 1.334 . S
C627 C628 1.287 . S
C628 C627 1.287 . S
C628 C629 1.524 . S
C628 H647 0.913 . S
C629 H605 0.950 . S
C629 C628 1.524 . S
C629 C630 1.415 . S
C630 H606 0.950 . S
C630 C625 1.363 . S
C630 C629 1.415 . S
C631 H607 0.951 . S
C631 C632 1.366 1_455 S
C631 C633 1.388 . S
C632 C631 1.366 1_655 S
C632 C636 1.384 . S
C633 H608 0.951 . S
C633 C631 1.388 . S
C633 C634 1.366 1_455 S
C634 C633 1.366 1_655 S
C634 C635 1.414 . S
C634 C637 1.499 . S
C635 H609 0.950 . S
C635 C634 1.414 . S
C635 C636 1.374 . S
C636 H610 0.950 . S
C636 C632 1.384 . S
C636 C635 1.374 . S
C637 C634 1.499 . S
C637 C638 1.373 1_656 S
C637 C639 1.389 . S
C638 H611 0.950 . S
C638 C624 1.377 . S
C638 C637 1.373 1_454 S
C639 C623 1.377 . S
C639 C637 1.389 . S
C639 C640 1.524 . S
C640 C639 1.524 . S
C640 C641 1.397 . S
C640 C645 1.363 . S
C641 H612 0.950 . S
C641 C640 1.397 . S
C641 C642 1.334 . S
C642 H613 0.950 . S
C642 C641 1.334 . S
C642 C643 1.287 . S
C643 C642 1.287 . S
C643 C644 1.524 . S
C643 H646 0.999 . S
C644 H614 0.950 . S
C644 C643 1.524 . S
C644 C645 1.415 . S
C645 H615 0.950 . S
C645 C640 1.363 . S
C645 C644 1.415 . S
H646 C643 0.999 . S
H647 C628 0.913 . S
H648 C666 0.951 . S
H649 C668 0.951 . S
H650 C670 0.950 . S
H651 C671 0.950 . S
H652 C673 0.950 . S
H653 C676 0.950 . S
H654 C677 0.950 . S
H655 C679 0.950 . S
H656 C680 0.950 . S
H657 C681 0.951 . S
H658 C683 0.951 . S
H659 C685 0.950 1_455 S
H660 C686 0.971 . S
H661 C688 0.950 . S
H662 C691 0.950 . S
H663 C692 0.950 . S
H664 C694 0.950 . S
H665 C695 0.950 . S
C666 H648 0.951 . S
C666 C667 1.366 . S
C666 C668 1.388 . S
C667 C666 1.366 . S
C667 C671 1.385 1_455 S
C668 H649 0.951 . S
C668 C666 1.388 . S
C668 C669 1.366 1_455 S
C669 C668 1.366 1_655 S
C669 C670 1.414 . S
C669 C672 1.499 . S
C670 H650 0.950 . S
C670 C669 1.414 . S
C670 C671 1.374 . S
C671 H651 0.950 . S
C671 C667 1.385 1_655 S
C671 C670 1.374 . S
C672 C669 1.499 . S
C672 C673 1.373 . S
C672 C674 1.389 . S
C673 H652 0.950 . S
C673 C672 1.373 . S
C673 C689 1.377 . S
C674 C672 1.389 . S
C674 C675 1.524 . S
C674 C688 1.377 . S
C675 C674 1.524 . S
C675 C676 1.397 . S
C675 C680 1.363 1_655 S
C676 H653 0.950 . S
C676 C675 1.397 . S
C676 C677 1.334 . S
C677 H654 0.950 . S
C677 C676 1.334 . S
C677 C678 1.287 . S
C678 C677 1.287 . S
C678 C679 1.524 1_655 S
C678 H697 0.913 1_554 S
C679 H655 0.950 . S
C679 C678 1.524 1_455 S
C679 C680 1.415 . S
C680 H656 0.950 . S
C680 C675 1.363 1_455 S
C680 C679 1.415 . S
C681 H657 0.951 . S
C681 C682 1.366 . S
C681 C683 1.388 . S
C682 C681 1.366 . S
C682 C686 1.385 . S
C683 H658 0.951 . S
C683 C681 1.388 . S
C683 C684 1.366 . S
C684 C683 1.366 . S
C684 C685 1.414 . S
C684 C687 1.499 . S
C685 H659 0.950 1_655 S
C685 C684 1.414 . S
C685 C686 1.374 . S
C686 H660 0.971 . S
C686 C682 1.385 . S
C686 C685 1.374 . S
C687 C684 1.499 . S
C687 C688 1.373 . S
C687 C689 1.389 . S
C688 H661 0.950 . S
C688 C674 1.377 . S
C688 C687 1.373 . S
C689 C673 1.377 . S
C689 C687 1.389 . S
C689 C690 1.524 . S
C690 C689 1.524 . S
C690 C691 1.397 1_655 S
C690 C695 1.363 . S
C691 H662 0.950 . S
C691 C690 1.397 1_455 S
C691 C692 1.334 . S
C692 H663 0.950 . S
C692 C691 1.334 . S
C692 C693 1.287 1_455 S
C693 C692 1.287 1_655 S
C693 C694 1.524 . S
C693 H696 0.999 . S
C694 H664 0.950 . S
C694 C693 1.524 . S
C694 C695 1.415 . S
C695 H665 0.950 . S
C695 C690 1.363 . S
C695 C694 1.415 . S
H696 C693 0.999 . S
H697 C678 0.913 1_556 S
H698 C716 0.951 . S
H699 C718 0.951 . S
H700 C720 0.950 . S
H701 C721 0.950 . S
H702 C723 0.950 . S
H703 C726 0.950 . S
H704 C727 0.950 . S
H705 C729 0.950 . S
H706 C730 0.950 . S
H707 C731 0.951 . S
H708 C733 0.951 . S
H709 C735 0.950 . S
H710 C736 0.950 . S
H711 C738 0.950 . S
H712 C741 0.950 . S
H713 C742 0.950 . S
H714 C744 0.950 . S
H715 C745 0.950 . S
C716 H698 0.951 . S
C716 C717 1.366 1_565 S
C716 C718 1.388 . S
C717 C716 1.366 1_545 S
C717 C721 1.385 . S
C718 H699 0.951 . S
C718 C716 1.388 . S
C718 C719 1.366 . S
C719 C718 1.366 . S
C719 C720 1.414 1_565 S
C719 C722 1.499 . S
C720 H700 0.950 . S
C720 C719 1.414 1_545 S
C720 C721 1.374 . S
C721 H701 0.950 . S
C721 C717 1.385 . S
C721 C720 1.374 . S
C722 C719 1.499 . S
C722 C723 1.373 1_565 S
C722 C724 1.389 . S
C723 H702 0.950 . S
C723 C722 1.373 1_545 S
C723 C739 1.377 . S
C724 C722 1.389 . S
C724 C725 1.524 . S
C724 C738 1.377 . S
C725 C724 1.524 . S
C725 C726 1.397 . S
C725 C730 1.363 . S
C726 H703 0.950 . S
C726 C725 1.397 . S
C726 C727 1.334 . S
C727 H704 0.950 . S
C727 C726 1.334 . S
C727 C728 1.287 . S
C728 C727 1.287 . S
C728 C729 1.524 . S
C728 H747 0.913 . S
C729 H705 0.950 . S
C729 C728 1.524 . S
C729 C730 1.415 . S
C730 H706 0.950 . S
C730 C725 1.363 . S
C730 C729 1.415 . S
C731 H707 0.951 . S
C731 C732 1.366 . S
C731 C733 1.388 . S
C732 C731 1.366 . S
C732 C736 1.385 . S
C733 H708 0.951 . S
C733 C731 1.388 . S
C733 C734 1.366 . S
C734 C733 1.366 . S
C734 C735 1.414 . S
C734 C737 1.499 . S
C735 H709 0.950 . S
C735 C734 1.414 . S
C735 C736 1.374 . S
C736 H710 0.950 . S
C736 C732 1.385 . S
C736 C735 1.374 . S
C737 C734 1.499 . S
C737 C738 1.373 . S
C737 C739 1.389 1_565 S
C738 H711 0.950 . S
C738 C724 1.377 . S
C738 C737 1.373 . S
C739 C723 1.377 . S
C739 C737 1.389 1_545 S
C739 C740 1.524 . S
C740 C739 1.524 . S
C740 C741 1.397 . S
C740 C745 1.363 . S
C741 H712 0.950 . S
C741 C740 1.397 . S
C741 C742 1.334 . S
C742 H713 0.950 . S
C742 C741 1.334 . S
C742 C743 1.287 . S
C743 C742 1.287 . S
C743 C744 1.524 . S
C743 H746 0.999 . S
C744 H714 0.950 . S
C744 C743 1.524 . S
C744 C745 1.415 . S
C745 H715 0.950 . S
C745 C740 1.363 . S
C745 C744 1.415 . S
H746 C743 0.999 . S
H747 C728 0.913 . S
H748 C766 0.951 . S
H749 C768 0.951 . S
H750 C770 0.950 . S
H751 C771 0.950 . S
H752 C773 0.950 . S
H753 C776 0.950 . S
H754 C777 0.950 . S
H755 C779 0.950 . S
H756 C780 0.950 . S
H757 C781 0.951 . S
H758 C783 0.951 . S
H759 C785 0.950 . S
H760 C786 0.950 . S
H761 C788 0.950 . S
H762 C791 0.950 . S
H763 C792 0.950 . S
H764 C794 0.950 . S
H765 C795 0.950 . S
C766 H748 0.951 . S
C766 C767 1.366 . S
C766 C768 1.388 . S
C767 C766 1.366 . S
C767 C771 1.385 . S
C768 H749 0.951 . S
C768 C766 1.388 . S
C768 C769 1.366 . S
C769 C768 1.366 . S
C769 C770 1.414 . S
C769 C772 1.499 . S
C770 H750 0.950 . S
C770 C769 1.414 . S
C770 C771 1.374 . S
C771 H751 0.950 . S
C771 C767 1.385 . S
C771 C770 1.374 . S
C772 C769 1.499 . S
C772 C773 1.373 . S
C772 C774 1.389 . S
C773 H752 0.950 . S
C773 C772 1.373 . S
C773 C789 1.377 . S
C774 C772 1.389 . S
C774 C775 1.524 . S
C774 C788 1.377 . S
C775 C774 1.524 . S
C775 C776 1.397 . S
C775 C780 1.363 . S
C776 H753 0.950 . S
C776 C775 1.397 . S
C776 C777 1.334 . S
C777 H754 0.950 . S
C777 C776 1.334 . S
C777 C778 1.287 . S
C778 C777 1.287 . S
C778 C779 1.524 . S
C778 H797 0.913 1_554 S
C779 H755 0.950 . S
C779 C778 1.524 . S
C779 C780 1.415 . S
C780 H756 0.950 . S
C780 C775 1.363 . S
C780 C779 1.415 . S
C781 H757 0.951 . S
C781 C782 1.366 . S
C781 C783 1.388 . S
C782 C781 1.366 . S
C782 C786 1.385 . S
C783 H758 0.951 . S
C783 C781 1.388 . S
C783 C784 1.366 . S
C784 C783 1.366 . S
C784 C785 1.414 . S
C784 C787 1.499 . S
C785 H759 0.950 . S
C785 C784 1.414 . S
C785 C786 1.374 . S
C786 H760 0.950 . S
C786 C782 1.385 . S
C786 C785 1.374 . S
C787 C784 1.499 . S
C787 C788 1.373 . S
C787 C789 1.389 . S
C788 H761 0.950 . S
C788 C774 1.377 . S
C788 C787 1.373 . S
C789 C773 1.377 . S
C789 C787 1.389 . S
C789 C790 1.524 . S
C790 C789 1.524 . S
C790 C791 1.397 . S
C790 C795 1.363 . S
C791 H762 0.950 . S
C791 C790 1.397 . S
C791 C792 1.334 . S
C792 H763 0.950 . S
C792 C791 1.334 . S
C792 C793 1.287 . S
C793 C792 1.287 . S
C793 C794 1.524 . S
C793 H796 0.999 . S
C794 H764 0.950 . S
C794 C793 1.524 . S
C794 C795 1.415 . S
C795 H765 0.950 . S
C795 C790 1.363 . S
C795 C794 1.415 . S
H796 C793 0.999 . S
H797 C778 0.913 1_556 S
H798 C816 0.951 . S
H799 C818 0.951 . S
H800 C820 0.950 . S
H801 C821 0.950 . S
H802 C823 0.950 . S
H803 C826 0.950 . S
H804 C827 0.950 . S
H805 C829 0.950 . S
H806 C830 0.950 . S
H807 C831 0.951 . S
H808 C833 0.951 . S
H809 C835 0.950 . S
H810 C836 0.950 . S
H811 C838 0.950 . S
H812 C841 0.950 . S
H813 C842 0.950 . S
H814 C844 0.950 . S
H815 C845 0.950 . S
C816 H798 0.951 . S
C816 C817 1.366 . S
C816 C818 1.388 . S
C817 C816 1.366 . S
C817 C821 1.385 . S
C818 H799 0.951 . S
C818 C816 1.388 . S
C818 C819 1.366 . S
C819 C818 1.366 . S
C819 C820 1.414 . S
C819 C822 1.499 . S
C820 H800 0.950 . S
C820 C819 1.414 . S
C820 C821 1.374 . S
C821 H801 0.950 . S
C821 C817 1.385 . S
C821 C820 1.374 . S
C822 C819 1.499 . S
C822 C823 1.373 . S
C822 C824 1.389 . S
C823 H802 0.950 . S
C823 C822 1.373 . S
C823 C839 1.377 . S
C824 C822 1.389 . S
C824 C825 1.524 . S
C824 C838 1.377 . S
C825 C824 1.524 . S
C825 C826 1.397 . S
C825 C830 1.363 . S
C826 H803 0.950 . S
C826 C825 1.397 . S
C826 C827 1.334 . S
C827 H804 0.950 . S
C827 C826 1.334 . S
C827 C828 1.287 . S
C828 C827 1.287 . S
C828 C829 1.524 . S
C828 H847 0.913 . S
C829 H805 0.950 . S
C829 C828 1.524 . S
C829 C830 1.415 . S
C830 H806 0.950 . S
C830 C825 1.363 . S
C830 C829 1.415 . S
C831 H807 0.951 . S
C831 C832 1.366 . S
C831 C833 1.388 . S
C832 C831 1.366 . S
C832 C836 1.385 . S
C833 H808 0.951 . S
C833 C831 1.388 . S
C833 C834 1.366 . S
C834 C833 1.366 . S
C834 C835 1.414 . S
C834 C837 1.499 . S
C835 H809 0.950 . S
C835 C834 1.414 . S
C835 C836 1.374 . S
C836 H810 0.950 . S
C836 C832 1.385 . S
C836 C835 1.374 . S
C837 C834 1.499 . S
C837 C838 1.373 . S
C837 C839 1.389 . S
C838 H811 0.950 . S
C838 C824 1.377 . S
C838 C837 1.373 . S
C839 C823 1.377 . S
C839 C837 1.389 . S
C839 C840 1.524 . S
C840 C839 1.524 . S
C840 C841 1.397 . S
C840 C845 1.363 . S
C841 H812 0.950 . S
C841 C840 1.397 . S
C841 C842 1.334 . S
C842 H813 0.950 . S
C842 C841 1.334 . S
C842 C843 1.287 . S
C843 C842 1.287 . S
C843 C844 1.524 . S
C843 H846 0.999 . S
C844 H814 0.950 . S
C844 C843 1.524 . S
C844 C845 1.415 . S
C845 H815 0.950 . S
C845 C840 1.363 . S
C845 C844 1.415 . S
H846 C843 0.999 . S
H847 C828 0.913 . S
H848 C866 0.951 . S
H849 C868 0.951 . S
H850 C870 0.950 . S
H851 C871 0.948 . S
H852 C873 0.950 . S
H853 C876 0.950 . S
H854 C877 0.950 . S
H855 C879 0.950 . S
H856 C880 0.950 . S
H857 C881 0.951 . S
H858 C883 0.951 . S
H859 C885 0.950 . S
H860 C886 0.950 1_554 S
H861 C888 0.950 1_655 S
H862 C891 0.950 1_554 S
H863 C892 0.950 . S
H864 C894 0.950 . S
H865 C895 0.950 . S
C866 H848 0.951 . S
C866 C867 1.366 . S
C866 C868 1.388 1_655 S
C867 C866 1.366 . S
C867 C871 1.385 . S
C868 H849 0.951 . S
C868 C866 1.388 1_455 S
C868 C869 1.366 . S
C869 C868 1.366 . S
C869 C870 1.414 . S
C869 C872 1.499 . S
C870 H850 0.950 . S
C870 C869 1.414 . S
C870 C871 1.373 1_455 S
C871 H851 0.948 . S
C871 C867 1.385 . S
C871 C870 1.373 1_655 S
C872 C869 1.499 . S
C872 C873 1.373 . S
C872 C874 1.389 1_455 S
C873 H852 0.950 . S
C873 C872 1.373 . S
C873 C889 1.377 . S
C874 C872 1.389 1_655 S
C874 C875 1.524 . S
C874 C888 1.377 1_655 S
C875 C874 1.524 . S
C875 C876 1.397 . S
C875 C880 1.363 . S
C876 H853 0.950 . S
C876 C875 1.397 . S
C876 C877 1.334 . S
C877 H854 0.950 . S
C877 C876 1.334 . S
C877 C878 1.287 . S
C878 C877 1.287 . S
C878 C879 1.524 . S
C878 H897 0.913 . S
C879 H855 0.950 . S
C879 C878 1.524 . S
C879 C880 1.415 . S
C880 H856 0.950 . S
C880 C875 1.363 . S
C880 C879 1.415 . S
C881 H857 0.951 . S
C881 C882 1.366 . S
C881 C883 1.388 . S
C882 C881 1.366 . S
C882 C886 1.385 . S
C883 H858 0.951 . S
C883 C881 1.388 . S
C883 C884 1.366 . S
C884 C883 1.366 . S
C884 C885 1.414 1_556 S
C884 C887 1.499 1_556 S
C885 H859 0.950 . S
C885 C884 1.414 1_554 S
C885 C886 1.374 1_554 S
C886 H860 0.950 1_556 S
C886 C882 1.385 . S
C886 C885 1.374 1_556 S
C887 C884 1.499 1_554 S
C887 C888 1.373 . S
C887 C889 1.389 . S
C888 H861 0.950 1_455 S
C888 C874 1.377 1_455 S
C888 C887 1.373 . S
C889 C873 1.377 . S
C889 C887 1.389 . S
C889 C890 1.524 1_554 S
C890 C889 1.524 1_556 S
C890 C891 1.397 . S
C890 C895 1.363 . S
C891 H862 0.950 1_556 S
C891 C890 1.397 . S
C891 C892 1.334 . S
C892 H863 0.950 . S
C892 C891 1.334 . S
C892 C893 1.287 . S
C893 C892 1.287 . S
C893 C894 1.524 . S
C893 H896 0.999 . S
C894 H864 0.950 . S
C894 C893 1.524 . S
C894 C895 1.415 . S
C895 H865 0.950 . S
C895 C890 1.363 . S
C895 C894 1.415 . S
H896 C893 0.999 . S
H897 C878 0.913 . S
H898 C916 0.951 . S
H899 C918 0.951 . S
H900 C920 0.950 . S
H901 C921 0.950 . S
H902 C923 0.950 . S
H903 C926 0.950 . S
H904 C927 0.950 . S
H905 C929 0.950 . S
H906 C930 0.950 . S
H907 C931 0.951 . S
H908 C933 0.951 1_565 S
H909 C935 0.950 . S
H910 C936 0.950 . S
H911 C938 0.950 . S
H912 C941 0.950 . S
H913 C942 0.950 . S
H914 C944 0.950 1_554 S
H915 C945 0.950 . S
C916 H898 0.951 . S
C916 C917 1.366 1_545 S
C916 C918 1.388 . S
C917 C916 1.366 1_565 S
C917 C921 1.385 . S
C918 H899 0.951 . S
C918 C916 1.388 . S
C918 C919 1.366 . S
C919 C918 1.366 . S
C919 C920 1.414 1_545 S
C919 C922 1.499 . S
C920 H900 0.950 . S
C920 C919 1.414 1_565 S
C920 C921 1.374 . S
C921 H901 0.950 . S
C921 C917 1.385 . S
C921 C920 1.374 . S
C922 C919 1.499 . S
C922 C923 1.373 1_545 S
C922 C924 1.389 . S
C923 H902 0.950 . S
C923 C922 1.373 1_565 S
C923 C939 1.377 . S
C924 C922 1.389 . S
C924 C925 1.524 . S
C924 C938 1.377 . S
C925 C924 1.524 . S
C925 C926 1.397 . S
C925 C930 1.363 . S
C926 H903 0.950 . S
C926 C925 1.397 . S
C926 C927 1.334 . S
C927 H904 0.950 . S
C927 C926 1.334 . S
C927 C928 1.287 . S
C928 C927 1.287 . S
C928 C929 1.524 . S
C928 H947 0.913 . S
C929 H905 0.950 . S
C929 C928 1.524 . S
C929 C930 1.415 . S
C930 H906 0.950 . S
C930 C925 1.363 . S
C930 C929 1.415 . S
C931 H907 0.951 . S
C931 C932 1.366 . S
C931 C933 1.388 1_556 S
C932 C931 1.366 . S
C932 C936 1.385 . S
C933 H908 0.951 1_545 S
C933 C931 1.388 1_554 S
C933 C934 1.366 1_554 S
C934 C933 1.366 1_556 S
C934 C935 1.414 . S
C934 C937 1.499 1_556 S
C935 H909 0.950 . S
C935 C934 1.414 . S
C935 C936 1.374 . S
C936 H910 0.950 . S
C936 C932 1.385 . S
C936 C935 1.374 . S
C937 C934 1.499 1_554 S
C937 C938 1.373 . S
C937 C939 1.389 1_545 S
C938 H911 0.950 . S
C938 C924 1.377 . S
C938 C937 1.373 . S
C939 C923 1.377 . S
C939 C937 1.389 1_565 S
C939 C940 1.524 1_554 S
C940 C939 1.524 1_556 S
C940 C941 1.397 . S
C940 C945 1.363 1_556 S
C941 H912 0.950 . S
C941 C940 1.397 . S
C941 C942 1.334 . S
C942 H913 0.950 . S
C942 C941 1.334 . S
C942 C943 1.287 . S
C943 C942 1.287 . S
C943 C944 1.524 . S
C943 H946 0.999 . S
C944 H914 0.950 1_556 S
C944 C943 1.524 . S
C944 C945 1.415 1_556 S
C945 H915 0.950 . S
C945 C940 1.363 1_554 S
C945 C944 1.415 1_554 S
H946 C943 0.999 . S
H947 C928 0.913 . S
H948 C966 0.951 . S
H949 C968 0.951 . S
H950 C970 0.950 . S
H951 C971 0.950 . S
H952 C973 0.950 . S
H953 C976 0.950 . S
H954 C977 0.950 . S
H955 C979 0.950 . S
H956 C980 0.950 . S
H957 C981 0.951 . S
H958 C983 0.951 . S
H959 C985 0.950 . S
H960 C986 0.950 . S
H961 C988 0.950 . S
H962 C991 0.950 . S
H963 C992 0.950 . S
H964 C994 0.950 . S
H965 C995 0.950 . S
C966 H948 0.951 . S
C966 C967 1.366 . S
C966 C968 1.388 . S
C967 C966 1.366 . S
C967 C971 1.385 . S
C968 H949 0.951 . S
C968 C966 1.388 . S
C968 C969 1.366 . S
C969 C968 1.366 . S
C969 C970 1.414 . S
C969 C972 1.499 . S
C970 H950 0.950 . S
C970 C969 1.414 . S
C970 C971 1.374 . S
C971 H951 0.950 . S
C971 C967 1.385 . S
C971 C970 1.374 . S
C972 C969 1.499 . S
C972 C973 1.373 . S
C972 C974 1.389 . S
C973 H952 0.950 . S
C973 C972 1.373 . S
C973 C989 1.377 . S
C974 C972 1.389 . S
C974 C975 1.524 . S
C974 C988 1.377 . S
C975 C974 1.524 . S
C975 C976 1.397 . S
C975 C980 1.363 . S
C976 H953 0.950 . S
C976 C975 1.397 . S
C976 C977 1.334 . S
C977 H954 0.950 . S
C977 C976 1.334 . S
C977 C978 1.287 . S
C978 C977 1.287 . S
C978 C979 1.524 . S
C978 H997 0.913 . S
C979 H955 0.950 . S
C979 C978 1.524 . S
C979 C980 1.415 . S
C980 H956 0.950 . S
C980 C975 1.363 . S
C980 C979 1.415 . S
C981 H957 0.951 . S
C981 C982 1.366 . S
C981 C983 1.388 . S
C982 C981 1.366 . S
C982 C986 1.385 . S
C983 H958 0.951 . S
C983 C981 1.388 . S
C983 C984 1.366 . S
C984 C983 1.366 . S
C984 C985 1.414 . S
C984 C987 1.499 1_556 S
C985 H959 0.950 . S
C985 C984 1.414 . S
C985 C986 1.374 . S
C986 H960 0.950 . S
C986 C982 1.385 . S
C986 C985 1.374 . S
C987 C984 1.499 1_554 S
C987 C988 1.373 . S
C987 C989 1.389 . S
C988 H961 0.950 . S
C988 C974 1.377 . S
C988 C987 1.373 . S
C989 C973 1.377 . S
C989 C987 1.389 . S
C989 C990 1.524 1_554 S
C990 C989 1.524 1_556 S
C990 C991 1.397 . S
C990 C995 1.363 . S
C991 H962 0.950 . S
C991 C990 1.397 . S
C991 C992 1.334 . S
C992 H963 0.950 . S
C992 C991 1.334 . S
C992 C993 1.287 . S
C993 C992 1.287 . S
C993 C994 1.524 . S
C993 H996 0.999 . S
C994 H964 0.950 . S
C994 C993 1.524 . S
C994 C995 1.415 . S
C995 H965 0.950 . S
C995 C990 1.363 . S
C995 C994 1.415 . S
H996 C993 0.999 . S
H997 C978 0.913 . S
H998 C1016 0.951 . S
H999 C1018 0.951 . S
H1000 C1020 0.950 . S
H1001 C1021 0.950 . S
H1002 C1023 0.950 . S
H1003 C1026 0.950 . S
H1004 C1027 0.950 . S
H1005 C1029 0.950 . S
H1006 C1030 0.950 . S
H1007 C1031 0.951 1_554 S
H1008 C1033 0.951 . S
H1009 C1035 0.950 . S
H1010 C1036 0.950 . S
H1011 C1038 0.950 1_556 S
H1012 C1041 0.950 . S
H1013 C1042 0.950 . S
H1014 C1044 0.950 . S
H1015 C1045 0.950 . S
C1016 H998 0.951 . S
C1016 C1017 1.366 . S
C1016 C1018 1.388 . S
C1017 C1016 1.366 . S
C1017 C1021 1.385 . S
C1018 H999 0.951 . S
C1018 C1016 1.388 . S
C1018 C1019 1.366 . S
C1019 C1018 1.366 . S
C1019 C1020 1.414 . S
C1019 C1022 1.499 . S
C1020 H1000 0.950 . S
C1020 C1019 1.414 . S
C1020 C1021 1.374 . S
C1021 H1001 0.950 . S
C1021 C1017 1.385 . S
C1021 C1020 1.374 . S
C1022 C1019 1.499 . S
C1022 C1023 1.373 . S
C1022 C1024 1.389 . S
C1023 H1002 0.950 . S
C1023 C1022 1.373 . S
C1023 C1039 1.377 . S
C1024 C1022 1.389 . S
C1024 C1025 1.524 . S
C1024 C1038 1.377 . S
C1025 C1024 1.524 . S
C1025 C1026 1.397 . S
C1025 C1030 1.363 1_554 S
C1026 H1003 0.950 . S
C1026 C1025 1.397 . S
C1026 C1027 1.334 . S
C1027 H1004 0.950 . S
C1027 C1026 1.334 . S
C1027 C1028 1.287 1_554 S
C1028 C1027 1.287 1_556 S
C1028 C1029 1.524 . S
C1028 H1047 0.913 . S
C1029 H1005 0.950 . S
C1029 C1028 1.524 . S
C1029 C1030 1.415 . S
C1030 H1006 0.950 . S
C1030 C1025 1.363 1_556 S
C1030 C1029 1.415 . S
C1031 H1007 0.951 1_556 S
C1031 C1032 1.366 . S
C1031 C1033 1.388 1_556 S
C1032 C1031 1.366 . S
C1032 C1036 1.385 . S
C1033 H1008 0.951 . S
C1033 C1031 1.388 1_554 S
C1033 C1034 1.366 1_554 S
C1034 C1033 1.366 1_556 S
C1034 C1035 1.414 . S
C1034 C1037 1.499 1_556 S
C1035 H1009 0.950 . S
C1035 C1034 1.414 . S
C1035 C1036 1.374 . S
C1036 H1010 0.950 . S
C1036 C1032 1.385 . S
C1036 C1035 1.374 . S
C1037 C1034 1.499 1_554 S
C1037 C1038 1.373 . S
C1037 C1039 1.389 . S
C1038 H1011 0.950 1_554 S
C1038 C1024 1.377 . S
C1038 C1037 1.373 . S
C1039 C1023 1.377 . S
C1039 C1037 1.389 . S
C1039 C1040 1.524 . S
C1040 C1039 1.524 . S
C1040 C1041 1.397 . S
C1040 C1045 1.363 . S
C1041 H1012 0.950 . S
C1041 C1040 1.397 . S
C1041 C1042 1.334 . S
C1042 H1013 0.950 . S
C1042 C1041 1.334 . S
C1042 C1043 1.287 . S
C1043 C1042 1.287 . S
C1043 C1044 1.524 . S
C1043 H1046 0.999 . S
C1044 H1014 0.950 . S
C1044 C1043 1.524 . S
C1044 C1045 1.415 . S
C1045 H1015 0.950 . S
C1045 C1040 1.363 . S
C1045 C1044 1.415 . S
H1046 C1043 0.999 . S
H1047 C1028 0.913 . S
H1048 C1066 0.951 . S
H1049 C1068 0.951 . S
H1050 C1070 0.950 . S
H1051 C1071 0.950 . S
H1052 C1073 0.950 . S
H1053 C1076 0.950 . S
H1054 C1077 0.950 . S
H1055 C1079 0.950 . S
H1056 C1080 0.950 . S
H1057 C1081 0.951 . S
H1058 C1083 0.951 . S
H1059 C1085 0.950 . S
H1060 C1086 0.950 . S
H1061 C1088 0.963 . S
H1062 C1091 0.950 . S
H1063 C1092 0.974 . S
H1064 C1094 0.950 . S
H1065 C1095 0.950 . S
C1066 H1048 0.951 . S
C1066 C1067 1.366 1_655 S
C1066 C1068 1.388 . S
C1067 C1066 1.366 1_455 S
C1067 C1071 1.385 . S
C1068 H1049 0.951 . S
C1068 C1066 1.388 . S
C1068 C1069 1.366 1_655 S
C1069 C1068 1.366 1_455 S
C1069 C1070 1.414 . S
C1069 C1072 1.499 . S
C1070 H1050 0.950 . S
C1070 C1069 1.414 . S
C1070 C1071 1.374 . S
C1071 H1051 0.950 . S
C1071 C1067 1.385 . S
C1071 C1070 1.374 . S
C1072 C1069 1.499 . S
C1072 C1073 1.373 . S
C1072 C1074 1.389 . S
C1073 H1052 0.950 . S
C1073 C1072 1.373 . S
C1073 C1089 1.377 . S
C1074 C1072 1.389 . S
C1074 C1075 1.524 . S
C1074 C1088 1.377 . S
C1075 C1074 1.524 . S
C1075 C1076 1.397 . S
C1075 C1080 1.363 1_455 S
C1076 H1053 0.950 . S
C1076 C1075 1.397 . S
C1076 C1077 1.334 1_556 S
C1077 H1054 0.950 . S
C1077 C1076 1.334 1_554 S
C1077 C1078 1.287 . S
C1078 C1077 1.287 . S
C1078 C1079 1.524 1_455 S
C1078 H1097 0.913 . S
C1079 H1055 0.950 . S
C1079 C1078 1.524 1_655 S
C1079 C1080 1.415 1_554 S
C1080 H1056 0.950 . S
C1080 C1075 1.363 1_655 S
C1080 C1079 1.415 1_556 S
C1081 H1057 0.951 . S
C1081 C1082 1.366 . S
C1081 C1083 1.388 . S
C1082 C1081 1.366 . S
C1082 C1086 1.385 1_455 S
C1083 H1058 0.951 . S
C1083 C1081 1.388 . S
C1083 C1084 1.366 . S
C1084 C1083 1.366 . S
C1084 C1085 1.414 1_455 S
C1084 C1087 1.499 . S
C1085 H1059 0.950 . S
C1085 C1084 1.414 1_655 S
C1085 C1086 1.374 . S
C1086 H1060 0.950 . S
C1086 C1082 1.385 1_655 S
C1086 C1085 1.374 . S
C1087 C1084 1.499 . S
C1087 C1088 1.373 . S
C1087 C1089 1.389 . S
C1088 H1061 0.963 . S
C1088 C1074 1.377 . S
C1088 C1087 1.373 . S
C1089 C1073 1.377 . S
C1089 C1087 1.389 . S
C1089 C1090 1.524 . S
C1090 C1089 1.524 . S
C1090 C1091 1.397 1_455 S
C1090 C1095 1.363 . S
C1091 H1062 0.950 . S
C1091 C1090 1.397 1_655 S
C1091 C1092 1.336 . S
C1092 H1063 0.974 . S
C1092 C1091 1.336 . S
C1092 C1093 1.261 1_655 S
C1093 C1092 1.261 1_455 S
C1093 C1094 1.524 . S
C1093 H1096 0.999 . S
C1094 H1064 0.950 . S
C1094 C1093 1.524 . S
C1094 C1095 1.415 . S
C1095 H1065 0.950 . S
C1095 C1090 1.363 . S
C1095 C1094 1.415 . S
H1096 C1093 0.999 . S
H1097 C1078 0.913 . S
H1098 C1116 0.951 . S
H1099 C1118 0.951 . S
H1100 C1120 0.950 . S
H1101 C1121 0.950 . S
H1102 C1123 0.950 . S
H1103 C1126 0.950 . S
H1104 C1127 0.950 . S
H1105 C1129 0.950 . S
H1106 C1130 0.950 . S
H1107 C1131 0.951 . S
H1108 C1133 0.951 . S
H1109 C1135 0.950 . S
H1110 C1136 0.950 . S
H1111 C1138 0.950 . S
H1112 C1141 0.950 . S
H1113 C1142 0.950 . S
H1114 C1144 0.950 . S
H1115 C1145 0.950 1_565 S
C1116 H1098 0.951 . S
C1116 C1117 1.366 . S
C1116 C1118 1.388 . S
C1117 C1116 1.366 . S
C1117 C1121 1.385 1_545 S
C1118 H1099 0.951 . S
C1118 C1116 1.388 . S
C1118 C1119 1.366 . S
C1119 C1118 1.366 . S
C1119 C1120 1.414 1_545 S
C1119 C1122 1.499 . S
C1120 H1100 0.950 . S
C1120 C1119 1.414 1_565 S
C1120 C1121 1.374 . S
C1121 H1101 0.950 . S
C1121 C1117 1.385 1_565 S
C1121 C1120 1.374 . S
C1122 C1119 1.499 . S
C1122 C1123 1.373 . S
C1122 C1124 1.389 . S
C1123 H1102 0.950 . S
C1123 C1122 1.373 . S
C1123 C1139 1.377 . S
C1124 C1122 1.389 . S
C1124 C1125 1.524 1_545 S
C1124 C1138 1.377 . S
C1125 C1124 1.524 1_565 S
C1125 C1126 1.397 . S
C1125 C1130 1.363 1_565 S
C1126 H1103 0.950 . S
C1126 C1125 1.397 . S
C1126 C1127 1.334 . S
C1127 H1104 0.950 . S
C1127 C1126 1.334 . S
C1127 C1128 1.287 . S
C1128 C1127 1.287 . S
C1128 C1129 1.524 1_565 S
C1128 H1147 0.913 . S
C1129 H1105 0.950 . S
C1129 C1128 1.524 1_545 S
C1129 C1130 1.415 . S
C1130 H1106 0.950 . S
C1130 C1125 1.363 1_545 S
C1130 C1129 1.415 . S
C1131 H1107 0.951 . S
C1131 C1132 1.366 1_565 S
C1131 C1133 1.388 . S
C1132 C1131 1.366 1_545 S
C1132 C1136 1.385 . S
C1133 H1108 0.951 . S
C1133 C1131 1.388 . S
C1133 C1134 1.366 1_565 S
C1134 C1133 1.366 1_545 S
C1134 C1135 1.414 . S
C1134 C1137 1.499 . S
C1135 H1109 0.950 . S
C1135 C1134 1.414 . S
C1135 C1136 1.374 . S
C1136 H1110 0.950 . S
C1136 C1132 1.385 . S
C1136 C1135 1.374 . S
C1137 C1134 1.499 . S
C1137 C1138 1.373 . S
C1137 C1139 1.389 . S
C1138 H1111 0.950 . S
C1138 C1124 1.377 . S
C1138 C1137 1.373 . S
C1139 C1123 1.377 . S
C1139 C1137 1.389 . S
C1139 C1140 1.524 . S
C1140 C1139 1.524 . S
C1140 C1141 1.397 . S
C1140 C1145 1.363 . S
C1141 H1112 0.950 . S
C1141 C1140 1.397 . S
C1141 C1142 1.334 . S
C1142 H1113 0.950 . S
C1142 C1141 1.334 . S
C1142 C1143 1.287 1_556 S
C1143 C1142 1.287 1_554 S
C1143 C1144 1.524 . S
C1143 H1146 0.999 . S
C1144 H1114 0.950 . S
C1144 C1143 1.524 . S
C1144 C1145 1.415 1_554 S
C1145 H1115 0.950 1_545 S
C1145 C1140 1.363 . S
C1145 C1144 1.415 1_556 S
H1146 C1143 0.999 . S
H1147 C1128 0.913 . S
H1148 C1166 0.951 . S
H1149 C1168 0.951 . S
H1150 C1170 0.950 . S
H1151 C1171 0.950 . S
H1152 C1173 0.950 . S
H1153 C1176 0.950 . S
H1154 C1177 0.950 . S
H1155 C1179 0.950 . S
H1156 C1180 0.950 . S
H1157 C1181 0.951 . S
H1158 C1183 0.951 . S
H1159 C1185 0.950 . S
H1160 C1186 0.950 . S
H1161 C1188 0.950 . S
H1162 C1191 0.950 . S
H1163 C1192 0.950 . S
H1164 C1194 0.950 . S
H1165 C1195 0.950 . S
C1166 H1148 0.951 . S
C1166 C1167 1.366 . S
C1166 C1168 1.388 . S
C1167 C1166 1.366 . S
C1167 C1171 1.385 . S
C1168 H1149 0.951 . S
C1168 C1166 1.388 . S
C1168 C1169 1.366 . S
C1169 C1168 1.366 . S
C1169 C1170 1.414 . S
C1169 C1172 1.499 . S
C1170 H1150 0.950 . S
C1170 C1169 1.414 . S
C1170 C1171 1.374 . S
C1171 H1151 0.950 . S
C1171 C1167 1.385 . S
C1171 C1170 1.374 . S
C1172 C1169 1.499 . S
C1172 C1173 1.373 . S
C1172 C1174 1.389 . S
C1173 H1152 0.950 . S
C1173 C1172 1.373 . S
C1173 C1189 1.377 . S
C1174 C1172 1.389 . S
C1174 C1175 1.524 . S
C1174 C1188 1.377 . S
C1175 C1174 1.524 . S
C1175 C1176 1.397 . S
C1175 C1180 1.363 . S
C1176 H1153 0.950 . S
C1176 C1175 1.397 . S
C1176 C1177 1.334 . S
C1177 H1154 0.950 . S
C1177 C1176 1.334 . S
C1177 C1178 1.287 . S
C1178 C1177 1.287 . S
C1178 C1179 1.524 . S
C1178 H1197 0.913 . S
C1179 H1155 0.950 . S
C1179 C1178 1.524 . S
C1179 C1180 1.415 . S
C1180 H1156 0.950 . S
C1180 C1175 1.363 . S
C1180 C1179 1.415 . S
C1181 H1157 0.951 . S
C1181 C1182 1.366 . S
C1181 C1183 1.388 . S
C1182 C1181 1.366 . S
C1182 C1186 1.385 . S
C1183 H1158 0.951 . S
C1183 C1181 1.388 . S
C1183 C1184 1.366 . S
C1184 C1183 1.366 . S
C1184 C1185 1.414 . S
C1184 C1187 1.499 . S
C1185 H1159 0.950 . S
C1185 C1184 1.414 . S
C1185 C1186 1.374 . S
C1186 H1160 0.950 . S
C1186 C1182 1.385 . S
C1186 C1185 1.374 . S
C1187 C1184 1.499 . S
C1187 C1188 1.373 . S
C1187 C1189 1.389 . S
C1188 H1161 0.950 . S
C1188 C1174 1.377 . S
C1188 C1187 1.373 . S
C1189 C1173 1.377 . S
C1189 C1187 1.389 . S
C1189 C1190 1.524 . S
C1190 C1189 1.524 . S
C1190 C1191 1.397 . S
C1190 C1195 1.363 . S
C1191 H1162 0.950 . S
C1191 C1190 1.397 . S
C1191 C1192 1.334 . S
C1192 H1163 0.950 . S
C1192 C1191 1.334 . S
C1192 C1193 1.287 . S
C1193 C1192 1.287 . S
C1193 C1194 1.524 . S
C1193 H1196 0.999 . S
C1194 H1164 0.950 . S
C1194 C1193 1.524 . S
C1194 C1195 1.415 . S
C1195 H1165 0.950 . S
C1195 C1190 1.363 . S
C1195 C1194 1.415 . S
H1196 C1193 0.999 . S
H1197 C1178 0.913 . S
H1198 C1216 0.951 . S
H1199 C1218 0.951 . S
H1200 C1220 0.950 . S
H1201 C1221 0.950 . S
H1202 C1223 0.950 . S
H1203 C1226 0.950 . S
H1204 C1227 0.950 . S
H1205 C1229 0.950 . S
H1206 C1230 0.952 . S
H1207 C1231 0.951 . S
H1208 C1233 0.951 . S
H1209 C1235 0.950 . S
H1210 C1236 0.950 . S
H1211 C1238 0.950 . S
H1212 C1241 0.950 . S
H1213 C1242 0.950 . S
H1214 C1244 0.950 . S
H1215 C1245 0.950 . S
C1216 H1198 0.951 . S
C1216 C1217 1.366 . S
C1216 C1218 1.388 . S
C1217 C1216 1.366 . S
C1217 C1221 1.385 . S
C1218 H1199 0.951 . S
C1218 C1216 1.388 . S
C1218 C1219 1.366 . S
C1219 C1218 1.366 . S
C1219 C1220 1.414 . S
C1219 C1222 1.499 . S
C1220 H1200 0.950 . S
C1220 C1219 1.414 . S
C1220 C1221 1.374 . S
C1221 H1201 0.950 . S
C1221 C1217 1.385 . S
C1221 C1220 1.374 . S
C1222 C1219 1.499 . S
C1222 C1223 1.373 . S
C1222 C1224 1.389 . S
C1223 H1202 0.950 . S
C1223 C1222 1.373 . S
C1223 C1239 1.377 . S
C1224 C1222 1.389 . S
C1224 C1225 1.524 . S
C1224 C1238 1.377 . S
C1225 C1224 1.524 . S
C1225 C1226 1.397 . S
C1225 C1230 1.363 1_556 S
C1226 H1203 0.950 . S
C1226 C1225 1.397 . S
C1226 C1227 1.334 1_556 S
C1227 H1204 0.950 . S
C1227 C1226 1.334 1_554 S
C1227 C1228 1.287 . S
C1228 C1227 1.287 . S
C1228 C1229 1.524 . S
C1228 H1247 0.913 . S
C1229 H1205 0.950 . S
C1229 C1228 1.524 . S
C1229 C1230 1.415 . S
C1230 H1206 0.952 . S
C1230 C1225 1.363 1_554 S
C1230 C1229 1.415 . S
C1231 H1207 0.951 . S
C1231 C1232 1.366 . S
C1231 C1233 1.388 . S
C1232 C1231 1.366 . S
C1232 C1236 1.385 . S
C1233 H1208 0.951 . S
C1233 C1231 1.388 . S
C1233 C1234 1.366 . S
C1234 C1233 1.366 . S
C1234 C1235 1.414 . S
C1234 C1237 1.499 . S
C1235 H1209 0.950 . S
C1235 C1234 1.414 . S
C1235 C1236 1.374 . S
C1236 H1210 0.950 . S
C1236 C1232 1.385 . S
C1236 C1235 1.374 . S
C1237 C1234 1.499 . S
C1237 C1238 1.373 . S
C1237 C1239 1.389 . S
C1238 H1211 0.950 . S
C1238 C1224 1.377 . S
C1238 C1237 1.373 . S
C1239 C1223 1.377 . S
C1239 C1237 1.389 . S
C1239 C1240 1.524 . S
C1240 C1239 1.524 . S
C1240 C1241 1.397 . S
C1240 C1245 1.363 . S
C1241 H1212 0.950 . S
C1241 C1240 1.397 . S
C1241 C1242 1.334 . S
C1242 H1213 0.950 . S
C1242 C1241 1.334 . S
C1242 C1243 1.287 . S
C1243 C1242 1.287 . S
C1243 C1244 1.524 . S
C1243 H1246 0.999 . S
C1244 H1214 0.950 . S
C1244 C1243 1.524 . S
C1244 C1245 1.415 . S
C1245 H1215 0.950 . S
C1245 C1240 1.363 . S
C1245 C1244 1.415 . S
H1246 C1243 0.999 . S
H1247 C1228 0.913 . S
H1248 C1266 0.951 . S
H1249 C1268 0.951 . S
H1250 C1270 0.950 . S
H1251 C1271 0.950 . S
H1252 C1273 0.950 . S
H1253 C1276 0.950 . S
H1254 C1277 0.950 . S
H1255 C1279 0.950 . S
H1256 C1280 0.950 . S
H1257 C1281 0.951 . S
H1258 C1283 0.951 . S
H1259 C1285 0.950 . S
H1260 C1286 0.950 . S
H1261 C1288 0.950 . S
H1262 C1291 0.950 . S
H1263 C1292 0.950 . S
H1264 C1294 0.950 . S
H1265 C1295 0.950 . S
C1266 H1248 0.951 . S
C1266 C1267 1.366 1_455 S
C1266 C1268 1.388 . S
C1267 C1266 1.366 1_655 S
C1267 C1271 1.385 . S
C1268 H1249 0.951 . S
C1268 C1266 1.388 . S
C1268 C1269 1.366 1_455 S
C1269 C1268 1.366 1_655 S
C1269 C1270 1.414 . S
C1269 C1272 1.499 . S
C1270 H1250 0.950 . S
C1270 C1269 1.414 . S
C1270 C1271 1.374 . S
C1271 H1251 0.950 . S
C1271 C1267 1.385 . S
C1271 C1270 1.374 . S
C1272 C1269 1.499 . S
C1272 C1273 1.373 . S
C1272 C1274 1.389 1_655 S
C1273 H1252 0.950 . S
C1273 C1272 1.373 . S
C1273 C1289 1.377 . S
C1274 C1272 1.389 1_455 S
C1274 C1275 1.524 . S
C1274 C1288 1.377 . S
C1275 C1274 1.524 . S
C1275 C1276 1.397 . S
C1275 C1280 1.363 . S
C1276 H1253 0.950 . S
C1276 C1275 1.397 . S
C1276 C1277 1.334 . S
C1277 H1254 0.950 . S
C1277 C1276 1.334 . S
C1277 C1278 1.287 . S
C1278 C1277 1.287 . S
C1278 C1279 1.524 . S
C1278 H1297 0.913 . S
C1279 H1255 0.950 . S
C1279 C1278 1.524 . S
C1279 C1280 1.415 . S
C1280 H1256 0.950 . S
C1280 C1275 1.363 . S
C1280 C1279 1.415 . S
C1281 H1257 0.951 . S
C1281 C1282 1.366 . S
C1281 C1283 1.388 . S
C1282 C1281 1.366 . S
C1282 C1286 1.385 1_655 S
C1283 H1258 0.951 . S
C1283 C1281 1.388 . S
C1283 C1284 1.366 . S
C1284 C1283 1.366 . S
C1284 C1285 1.414 1_655 S
C1284 C1287 1.499 . S
C1285 H1259 0.950 . S
C1285 C1284 1.414 1_455 S
C1285 C1286 1.374 . S
C1286 H1260 0.950 . S
C1286 C1282 1.385 1_455 S
C1286 C1285 1.374 . S
C1287 C1284 1.499 . S
C1287 C1288 1.373 1_655 S
C1287 C1289 1.389 . S
C1288 H1261 0.950 . S
C1288 C1274 1.377 . S
C1288 C1287 1.373 1_455 S
C1289 C1273 1.377 . S
C1289 C1287 1.389 . S
C1289 C1290 1.524 . S
C1290 C1289 1.524 . S
C1290 C1291 1.397 . S
C1290 C1295 1.363 . S
C1291 H1262 0.950 . S
C1291 C1290 1.397 . S
C1291 C1292 1.334 . S
C1292 H1263 0.950 . S
C1292 C1291 1.334 . S
C1292 C1293 1.287 . S
C1293 C1292 1.287 . S
C1293 C1294 1.524 . S
C1293 H1296 0.999 . S
C1294 H1264 0.950 . S
C1294 C1293 1.524 . S
C1294 C1295 1.415 . S
C1295 H1265 0.950 . S
C1295 C1290 1.363 . S
C1295 C1294 1.415 . S
H1296 C1293 0.999 . S
H1297 C1278 0.913 . S
H1298 C1316 0.951 . S
H1299 C1318 0.951 . S
H1300 C1320 0.950 . S
H1301 C1321 0.950 . S
H1302 C1323 0.950 . S
H1303 C1326 0.950 . S
H1304 C1327 0.950 . S
H1305 C1329 0.950 . S
H1306 C1330 0.950 . S
H1307 C1331 0.951 . S
H1308 C1333 0.951 . S
H1309 C1335 0.950 . S
H1310 C1336 0.950 . S
H1311 C1338 0.949 . S
H1312 C1341 0.950 . S
H1313 C1342 0.950 . S
H1314 C1344 0.950 . S
H1315 C1345 0.950 . S
C1316 H1298 0.951 . S
C1316 C1317 1.366 1_545 S
C1316 C1318 1.388 . S
C1317 C1316 1.366 1_565 S
C1317 C1321 1.385 . S
C1318 H1299 0.951 . S
C1318 C1316 1.388 . S
C1318 C1319 1.366 1_545 S
C1319 C1318 1.366 1_565 S
C1319 C1320 1.414 . S
C1319 C1322 1.499 . S
C1320 H1300 0.950 . S
C1320 C1319 1.414 . S
C1320 C1321 1.374 . S
C1321 H1301 0.950 . S
C1321 C1317 1.385 . S
C1321 C1320 1.374 . S
C1322 C1319 1.499 . S
C1322 C1323 1.373 . S
C1322 C1324 1.389 . S
C1323 H1302 0.950 . S
C1323 C1322 1.373 . S
C1323 C1339 1.377 . S
C1324 C1322 1.389 . S
C1324 C1325 1.524 . S
C1324 C1338 1.377 . S
C1325 C1324 1.524 . S
C1325 C1326 1.397 . S
C1325 C1330 1.363 1_565 S
C1326 H1303 0.950 . S
C1326 C1325 1.397 . S
C1326 C1327 1.334 . S
C1327 H1304 0.950 . S
C1327 C1326 1.334 . S
C1327 C1328 1.287 . S
C1328 C1327 1.287 . S
C1328 C1329 1.524 1_565 S
C1328 H1347 0.913 . S
C1329 H1305 0.950 . S
C1329 C1328 1.524 1_545 S
C1329 C1330 1.415 . S
C1330 H1306 0.950 . S
C1330 C1325 1.363 1_545 S
C1330 C1329 1.415 . S
C1331 H1307 0.951 . S
C1331 C1332 1.366 . S
C1331 C1333 1.388 . S
C1332 C1331 1.366 . S
C1332 C1336 1.385 1_565 S
C1333 H1308 0.951 . S
C1333 C1331 1.388 . S
C1333 C1334 1.366 . S
C1334 C1333 1.366 . S
C1334 C1335 1.414 1_565 S
C1334 C1337 1.499 . S
C1335 H1309 0.950 . S
C1335 C1334 1.414 1_545 S
C1335 C1336 1.374 . S
C1336 H1310 0.950 . S
C1336 C1332 1.385 1_545 S
C1336 C1335 1.374 . S
C1337 C1334 1.499 . S
C1337 C1338 1.373 . S
C1337 C1339 1.389 . S
C1338 H1311 0.949 . S
C1338 C1324 1.377 . S
C1338 C1337 1.373 . S
C1339 C1323 1.377 . S
C1339 C1337 1.389 . S
C1339 C1340 1.524 . S
C1340 C1339 1.524 . S
C1340 C1341 1.397 1_565 S
C1340 C1345 1.363 . S
C1341 H1312 0.950 . S
C1341 C1340 1.397 1_545 S
C1341 C1342 1.334 . S
C1342 H1313 0.950 . S
C1342 C1341 1.334 . S
C1342 C1343 1.287 1_545 S
C1343 C1342 1.287 1_565 S
C1343 C1344 1.524 . S
C1343 H1346 0.999 . S
C1344 H1314 0.950 . S
C1344 C1343 1.524 . S
C1344 C1345 1.415 . S
C1345 H1315 0.950 . S
C1345 C1340 1.363 . S
C1345 C1344 1.415 . S
H1346 C1343 0.999 . S
H1347 C1328 0.913 . S
H1348 C1366 0.951 . S
H1349 C1368 0.951 . S
H1350 C1370 0.950 . S
H1351 C1371 0.950 . S
H1352 C1373 0.950 . S
H1353 C1376 0.950 . S
H1354 C1377 0.950 . S
H1355 C1379 0.950 . S
H1356 C1380 0.950 . S
H1357 C1381 0.951 . S
H1358 C1383 0.951 . S
H1359 C1385 0.950 . S
H1360 C1386 0.950 . S
H1361 C1388 0.950 . S
H1362 C1391 0.950 . S
H1363 C1392 0.950 . S
H1364 C1394 0.950 . S
H1365 C1395 0.950 . S
C1366 H1348 0.951 . S
C1366 C1367 1.366 . S
C1366 C1368 1.388 . S
C1367 C1366 1.366 . S
C1367 C1371 1.385 . S
C1368 H1349 0.951 . S
C1368 C1366 1.388 . S
C1368 C1369 1.366 . S
C1369 C1368 1.366 . S
C1369 C1370 1.414 . S
C1369 C1372 1.499 . S
C1370 H1350 0.950 . S
C1370 C1369 1.414 . S
C1370 C1371 1.374 . S
C1371 H1351 0.950 . S
C1371 C1367 1.385 . S
C1371 C1370 1.374 . S
C1372 C1369 1.499 . S
C1372 C1373 1.373 . S
C1372 C1374 1.389 . S
C1373 H1352 0.950 . S
C1373 C1372 1.373 . S
C1373 C1389 1.377 . S
C1374 C1372 1.389 . S
C1374 C1375 1.524 . S
C1374 C1388 1.377 . S
C1375 C1374 1.524 . S
C1375 C1376 1.397 . S
C1375 C1380 1.363 . S
C1376 H1353 0.950 . S
C1376 C1375 1.397 . S
C1376 C1377 1.334 . S
C1377 H1354 0.950 . S
C1377 C1376 1.334 . S
C1377 C1378 1.287 . S
C1378 C1377 1.287 . S
C1378 C1379 1.524 . S
C1378 H1397 0.913 . S
C1379 H1355 0.950 . S
C1379 C1378 1.524 . S
C1379 C1380 1.415 . S
C1380 H1356 0.950 . S
C1380 C1375 1.363 . S
C1380 C1379 1.415 . S
C1381 H1357 0.951 . S
C1381 C1382 1.366 . S
C1381 C1383 1.388 . S
C1382 C1381 1.366 . S
C1382 C1386 1.385 . S
C1383 H1358 0.951 . S
C1383 C1381 1.388 . S
C1383 C1384 1.366 . S
C1384 C1383 1.366 . S
C1384 C1385 1.414 . S
C1384 C1387 1.499 . S
C1385 H1359 0.950 . S
C1385 C1384 1.414 . S
C1385 C1386 1.374 . S
C1386 H1360 0.950 . S
C1386 C1382 1.385 . S
C1386 C1385 1.374 . S
C1387 C1384 1.499 . S
C1387 C1388 1.373 . S
C1387 C1389 1.389 . S
C1388 H1361 0.950 . S
C1388 C1374 1.377 . S
C1388 C1387 1.373 . S
C1389 C1373 1.377 . S
C1389 C1387 1.389 . S
C1389 C1390 1.524 . S
C1390 C1389 1.524 . S
C1390 C1391 1.397 . S
C1390 C1395 1.363 . S
C1391 H1362 0.950 . S
C1391 C1390 1.397 . S
C1391 C1392 1.334 . S
C1392 H1363 0.950 . S
C1392 C1391 1.334 . S
C1392 C1393 1.287 . S
C1393 C1392 1.287 . S
C1393 C1394 1.524 . S
C1393 H1396 0.999 . S
C1394 H1364 0.950 . S
C1394 C1393 1.524 . S
C1394 C1395 1.415 . S
C1395 H1365 0.950 . S
C1395 C1390 1.363 . S
C1395 C1394 1.415 . S
H1396 C1393 0.999 . S
H1397 C1378 0.913 . S
H1398 C1416 0.951 . S
H1399 C1418 0.951 . S
H1400 C1420 0.950 . S
H1401 C1421 0.950 . S
H1402 C1423 0.950 . S
H1403 C1426 0.950 . S
H1404 C1427 0.950 . S
H1405 C1429 0.950 . S
H1406 C1430 0.950 . S
H1407 C1431 0.951 . S
H1408 C1433 0.951 . S
H1409 C1435 0.950 . S
H1410 C1436 0.950 . S
H1411 C1438 0.950 . S
H1412 C1441 0.950 . S
H1413 C1442 0.950 . S
H1414 C1444 0.950 . S
H1415 C1445 0.950 . S
C1416 H1398 0.951 . S
C1416 C1417 1.366 . S
C1416 C1418 1.388 . S
C1417 C1416 1.366 . S
C1417 C1421 1.385 . S
C1418 H1399 0.951 . S
C1418 C1416 1.388 . S
C1418 C1419 1.366 . S
C1419 C1418 1.366 . S
C1419 C1420 1.414 . S
C1419 C1422 1.499 . S
C1420 H1400 0.950 . S
C1420 C1419 1.414 . S
C1420 C1421 1.374 . S
C1421 H1401 0.950 . S
C1421 C1417 1.385 . S
C1421 C1420 1.374 . S
C1422 C1419 1.499 . S
C1422 C1423 1.373 . S
C1422 C1424 1.389 . S
C1423 H1402 0.950 . S
C1423 C1422 1.373 . S
C1423 C1439 1.377 . S
C1424 C1422 1.389 . S
C1424 C1425 1.524 . S
C1424 C1438 1.377 . S
C1425 C1424 1.524 . S
C1425 C1426 1.397 . S
C1425 C1430 1.363 . S
C1426 H1403 0.950 . S
C1426 C1425 1.397 . S
C1426 C1427 1.334 . S
C1427 H1404 0.950 . S
C1427 C1426 1.334 . S
C1427 C1428 1.287 . S
C1428 C1427 1.287 . S
C1428 C1429 1.524 . S
C1428 H1447 0.913 . S
C1429 H1405 0.950 . S
C1429 C1428 1.524 . S
C1429 C1430 1.415 . S
C1430 H1406 0.950 . S
C1430 C1425 1.363 . S
C1430 C1429 1.415 . S
C1431 H1407 0.951 . S
C1431 C1432 1.366 . S
C1431 C1433 1.388 . S
C1432 C1431 1.366 . S
C1432 C1436 1.385 . S
C1433 H1408 0.951 . S
C1433 C1431 1.388 . S
C1433 C1434 1.366 . S
C1434 C1433 1.366 . S
C1434 C1435 1.414 . S
C1434 C1437 1.499 . S
C1435 H1409 0.950 . S
C1435 C1434 1.414 . S
C1435 C1436 1.374 . S
C1436 H1410 0.950 . S
C1436 C1432 1.385 . S
C1436 C1435 1.374 . S
C1437 C1434 1.499 . S
C1437 C1438 1.373 . S
C1437 C1439 1.389 . S
C1438 H1411 0.950 . S
C1438 C1424 1.377 . S
C1438 C1437 1.373 . S
C1439 C1423 1.377 . S
C1439 C1437 1.389 . S
C1439 C1440 1.524 . S
C1440 C1439 1.524 . S
C1440 C1441 1.397 . S
C1440 C1445 1.363 . S
C1441 H1412 0.950 . S
C1441 C1440 1.397 . S
C1441 C1442 1.334 . S
C1442 H1413 0.950 . S
C1442 C1441 1.334 . S
C1442 C1443 1.287 . S
C1443 C1442 1.287 . S
C1443 C1444 1.524 . S
C1443 H1446 0.999 . S
C1444 H1414 0.950 . S
C1444 C1443 1.524 . S
C1444 C1445 1.415 . S
C1445 H1415 0.950 . S
C1445 C1440 1.363 . S
C1445 C1444 1.415 . S
H1446 C1443 0.999 . S
H1447 C1428 0.913 . S
C267 C74 1.665 . S
C282 C97 1.716 1_545 S
C332 C137 1.719 . S
C317 C85 1.665 . S
C382 C177 1.719 . S
C367 C52 1.665 . S
C432 C217 1.722 . S
C417 C63 1.666 . S
C482 C106 1.719 1_565 S
C467 C30 1.665 1_565 S
C517 C41 1.664 . S
C532 C146 1.720 . S
C567 C8 1.665 . S
C582 C186 1.719 . S
C617 C19 1.660 1_655 S
C632 C226 1.719 1_655 S
C682 C103 0.420 . S
C667 C62 0.404 . S
C732 C143 0.421 . S
C717 C73 0.403 . S
C782 C183 0.420 . S
C767 C84 0.403 . S
C817 C51 0.403 . S
C832 C223 0.420 . S
C867 C18 0.473 1_655 S
C882 C94 0.419 . S
C932 C134 0.420 . S
C917 C29 0.475 1_565 S
C982 C174 0.420 . S
C967 C40 0.475 . S
C1017 C7 0.476 . S
C1032 C214 0.421 . S
C1067 C60 1.571 . S
C1082 C107 2.021 . S
C1117 C71 1.569 . S
C1132 C147 2.021 . S
C1182 C187 2.021 . S
C1167 C82 1.570 . S
C1232 C227 2.021 . S
C1217 C49 1.571 . S
C1267 C16 1.605 1_655 S
C1282 C98 2.020 . S
C1332 C138 2.021 . S
C1317 C27 1.605 1_565 S
C1382 C178 2.021 . S
C1367 C38 1.605 . S
C1417 C5 1.606 . S
C1432 C218 2.020 . S
