# Generated by pormake.
# Topology gar, (4,6)-cn, num edge types: 1
# Building blocks:
#     Node 0, Type 0, BuildingBlock: CEKHIL_clean_sbu_0, # of connection points: 4
#     Node 1, Type 0, BuildingBlock: CEKHIL_clean_sbu_0, # of connection points: 4
#     Node 2, Type 0, BuildingBlock: CEKHIL_clean_sbu_0, # of connection points: 4
#     Node 3, Type 0, BuildingBlock: CEKHIL_clean_sbu_0, # of connection points: 4
#     Node 4, Type 0, BuildingBlock: CEKHIL_clean_sbu_0, # of connection points: 4
#     Node 5, Type 0, BuildingBlock: CEKHIL_clean_sbu_0, # of connection points: 4
#     Node 6, Type 0, BuildingBlock: CEKHIL_clean_sbu_0, # of connection points: 4
#     Node 7, Type 0, BuildingBlock: CEKHIL_clean_sbu_0, # of connection points: 4
#     Node 8, Type 0, BuildingBlock: CEKHIL_clean_sbu_0, # of connection points: 4
#     Node 9, Type 0, BuildingBlock: CEKHIL_clean_sbu_0, # of connection points: 4
#     Node 10, Type 0, BuildingBlock: CEKHIL_clean_sbu_0, # of connection points: 4
#     Node 11, Type 0, BuildingBlock: CEKHIL_clean_sbu_0, # of connection points: 4
#     Node 12, Type 0, BuildingBlock: CEKHIL_clean_sbu_0, # of connection points: 4
#     Node 13, Type 0, BuildingBlock: CEKHIL_clean_sbu_0, # of connection points: 4
#     Node 14, Type 0, BuildingBlock: CEKHIL_clean_sbu_0, # of connection points: 4
#     Node 15, Type 0, BuildingBlock: CEKHIL_clean_sbu_0, # of connection points: 4
#     Node 16, Type 0, BuildingBlock: CEKHIL_clean_sbu_0, # of connection points: 4
#     Node 17, Type 0, BuildingBlock: CEKHIL_clean_sbu_0, # of connection points: 4
#     Node 18, Type 0, BuildingBlock: CEKHIL_clean_sbu_0, # of connection points: 4
#     Node 19, Type 0, BuildingBlock: CEKHIL_clean_sbu_0, # of connection points: 4
#     Node 20, Type 0, BuildingBlock: CEKHIL_clean_sbu_0, # of connection points: 4
#     Node 21, Type 0, BuildingBlock: CEKHIL_clean_sbu_0, # of connection points: 4
#     Node 22, Type 0, BuildingBlock: CEKHIL_clean_sbu_0, # of connection points: 4
#     Node 23, Type 0, BuildingBlock: CEKHIL_clean_sbu_0, # of connection points: 4
#     Node 24, Type 1, BuildingBlock: BETDAH_clean_sbu_0, # of connection points: 6
#     Node 25, Type 1, BuildingBlock: BETDAH_clean_sbu_0, # of connection points: 6
#     Node 26, Type 1, BuildingBlock: BETDAH_clean_sbu_0, # of connection points: 6
#     Node 27, Type 1, BuildingBlock: BETDAH_clean_sbu_0, # of connection points: 6
#     Node 28, Type 1, BuildingBlock: BETDAH_clean_sbu_0, # of connection points: 6
#     Node 29, Type 1, BuildingBlock: BETDAH_clean_sbu_0, # of connection points: 6
#     Node 30, Type 1, BuildingBlock: BETDAH_clean_sbu_0, # of connection points: 6
#     Node 31, Type 1, BuildingBlock: BETDAH_clean_sbu_0, # of connection points: 6
#     Node 32, Type 1, BuildingBlock: BETDAH_clean_sbu_0, # of connection points: 6
#     Node 33, Type 1, BuildingBlock: BETDAH_clean_sbu_0, # of connection points: 6
#     Node 34, Type 1, BuildingBlock: BETDAH_clean_sbu_0, # of connection points: 6
#     Node 35, Type 1, BuildingBlock: BETDAH_clean_sbu_0, # of connection points: 6
#     Node 36, Type 1, BuildingBlock: BETDAH_clean_sbu_0, # of connection points: 6
#     Node 37, Type 1, BuildingBlock: BETDAH_clean_sbu_0, # of connection points: 6
#     Node 38, Type 1, BuildingBlock: BETDAH_clean_sbu_0, # of connection points: 6
#     Node 39, Type 1, BuildingBlock: BETDAH_clean_sbu_0, # of connection points: 6
#     Edge 40, Type (0, 1), BuildingBlock: AJUNOK_clean_linker_0, # of connection points: 2
#     Edge 41, Type (0, 1), BuildingBlock: AJUNOK_clean_linker_0, # of connection points: 2
#     Edge 42, Type (0, 1), BuildingBlock: AJUNOK_clean_linker_0, # of connection points: 2
#     Edge 43, Type (0, 1), BuildingBlock: AJUNOK_clean_linker_0, # of connection points: 2
#     Edge 44, Type (0, 1), BuildingBlock: AJUNOK_clean_linker_0, # of connection points: 2
#     Edge 45, Type (0, 1), BuildingBlock: AJUNOK_clean_linker_0, # of connection points: 2
#     Edge 46, Type (0, 1), BuildingBlock: AJUNOK_clean_linker_0, # of connection points: 2
#     Edge 47, Type (0, 1), BuildingBlock: AJUNOK_clean_linker_0, # of connection points: 2
#     Edge 48, Type (0, 1), BuildingBlock: AJUNOK_clean_linker_0, # of connection points: 2
#     Edge 49, Type (0, 1), BuildingBlock: AJUNOK_clean_linker_0, # of connection points: 2
#     Edge 50, Type (0, 1), BuildingBlock: AJUNOK_clean_linker_0, # of connection points: 2
#     Edge 51, Type (0, 1), BuildingBlock: AJUNOK_clean_linker_0, # of connection points: 2
#     Edge 52, Type (0, 1), BuildingBlock: AJUNOK_clean_linker_0, # of connection points: 2
#     Edge 53, Type (0, 1), BuildingBlock: AJUNOK_clean_linker_0, # of connection points: 2
#     Edge 54, Type (0, 1), BuildingBlock: AJUNOK_clean_linker_0, # of connection points: 2
#     Edge 55, Type (0, 1), BuildingBlock: AJUNOK_clean_linker_0, # of connection points: 2
#     Edge 56, Type (0, 1), BuildingBlock: AJUNOK_clean_linker_0, # of connection points: 2
#     Edge 57, Type (0, 1), BuildingBlock: AJUNOK_clean_linker_0, # of connection points: 2
#     Edge 58, Type (0, 1), BuildingBlock: AJUNOK_clean_linker_0, # of connection points: 2
#     Edge 59, Type (0, 1), BuildingBlock: AJUNOK_clean_linker_0, # of connection points: 2
#     Edge 60, Type (0, 1), BuildingBlock: AJUNOK_clean_linker_0, # of connection points: 2
#     Edge 61, Type (0, 1), BuildingBlock: AJUNOK_clean_linker_0, # of connection points: 2
#     Edge 62, Type (0, 1), BuildingBlock: AJUNOK_clean_linker_0, # of connection points: 2
#     Edge 63, Type (0, 1), BuildingBlock: AJUNOK_clean_linker_0, # of connection points: 2
#     Edge 64, Type (0, 1), BuildingBlock: AJUNOK_clean_linker_0, # of connection points: 2
#     Edge 65, Type (0, 1), BuildingBlock: AJUNOK_clean_linker_0, # of connection points: 2
#     Edge 66, Type (0, 1), BuildingBlock: AJUNOK_clean_linker_0, # of connection points: 2
#     Edge 67, Type (0, 1), BuildingBlock: AJUNOK_clean_linker_0, # of connection points: 2
#     Edge 68, Type (0, 1), BuildingBlock: AJUNOK_clean_linker_0, # of connection points: 2
#     Edge 69, Type (0, 1), BuildingBlock: AJUNOK_clean_linker_0, # of connection points: 2
#     Edge 70, Type (0, 1), BuildingBlock: AJUNOK_clean_linker_0, # of connection points: 2
#     Edge 71, Type (0, 1), BuildingBlock: AJUNOK_clean_linker_0, # of connection points: 2
#     Edge 72, Type (0, 1), BuildingBlock: AJUNOK_clean_linker_0, # of connection points: 2
#     Edge 73, Type (0, 1), BuildingBlock: AJUNOK_clean_linker_0, # of connection points: 2
#     Edge 74, Type (0, 1), BuildingBlock: AJUNOK_clean_linker_0, # of connection points: 2
#     Edge 75, Type (0, 1), BuildingBlock: AJUNOK_clean_linker_0, # of connection points: 2
#     Edge 76, Type (0, 1), BuildingBlock: AJUNOK_clean_linker_0, # of connection points: 2
#     Edge 77, Type (0, 1), BuildingBlock: AJUNOK_clean_linker_0, # of connection points: 2
#     Edge 78, Type (0, 1), BuildingBlock: AJUNOK_clean_linker_0, # of connection points: 2
#     Edge 79, Type (0, 1), BuildingBlock: AJUNOK_clean_linker_0, # of connection points: 2
#     Edge 80, Type (0, 1), BuildingBlock: AJUNOK_clean_linker_0, # of connection points: 2
#     Edge 81, Type (0, 1), BuildingBlock: AJUNOK_clean_linker_0, # of connection points: 2
#     Edge 82, Type (0, 1), BuildingBlock: AJUNOK_clean_linker_0, # of connection points: 2
#     Edge 83, Type (0, 1), BuildingBlock: AJUNOK_clean_linker_0, # of connection points: 2
#     Edge 84, Type (0, 1), BuildingBlock: AJUNOK_clean_linker_0, # of connection points: 2
#     Edge 85, Type (0, 1), BuildingBlock: AJUNOK_clean_linker_0, # of connection points: 2
#     Edge 86, Type (0, 1), BuildingBlock: AJUNOK_clean_linker_0, # of connection points: 2
#     Edge 87, Type (0, 1), BuildingBlock: AJUNOK_clean_linker_0, # of connection points: 2
#     Edge 88, Type (0, 1), BuildingBlock: AJUNOK_clean_linker_0, # of connection points: 2
#     Edge 89, Type (0, 1), BuildingBlock: AJUNOK_clean_linker_0, # of connection points: 2
#     Edge 90, Type (0, 1), BuildingBlock: AJUNOK_clean_linker_0, # of connection points: 2
#     Edge 91, Type (0, 1), BuildingBlock: AJUNOK_clean_linker_0, # of connection points: 2
#     Edge 92, Type (0, 1), BuildingBlock: AJUNOK_clean_linker_0, # of connection points: 2
#     Edge 93, Type (0, 1), BuildingBlock: AJUNOK_clean_linker_0, # of connection points: 2
#     Edge 94, Type (0, 1), BuildingBlock: AJUNOK_clean_linker_0, # of connection points: 2
#     Edge 95, Type (0, 1), BuildingBlock: AJUNOK_clean_linker_0, # of connection points: 2
#     Edge 96, Type (0, 1), BuildingBlock: AJUNOK_clean_linker_0, # of connection points: 2
#     Edge 97, Type (0, 1), BuildingBlock: AJUNOK_clean_linker_0, # of connection points: 2
#     Edge 98, Type (0, 1), BuildingBlock: AJUNOK_clean_linker_0, # of connection points: 2
#     Edge 99, Type (0, 1), BuildingBlock: AJUNOK_clean_linker_0, # of connection points: 2
#     Edge 100, Type (0, 1), BuildingBlock: AJUNOK_clean_linker_0, # of connection points: 2
#     Edge 101, Type (0, 1), BuildingBlock: AJUNOK_clean_linker_0, # of connection points: 2
#     Edge 102, Type (0, 1), BuildingBlock: AJUNOK_clean_linker_0, # of connection points: 2
#     Edge 103, Type (0, 1), BuildingBlock: AJUNOK_clean_linker_0, # of connection points: 2
#     Edge 104, Type (0, 1), BuildingBlock: AJUNOK_clean_linker_0, # of connection points: 2
#     Edge 105, Type (0, 1), BuildingBlock: AJUNOK_clean_linker_0, # of connection points: 2
#     Edge 106, Type (0, 1), BuildingBlock: AJUNOK_clean_linker_0, # of connection points: 2
#     Edge 107, Type (0, 1), BuildingBlock: AJUNOK_clean_linker_0, # of connection points: 2
#     Edge 108, Type (0, 1), BuildingBlock: AJUNOK_clean_linker_0, # of connection points: 2
#     Edge 109, Type (0, 1), BuildingBlock: AJUNOK_clean_linker_0, # of connection points: 2
#     Edge 110, Type (0, 1), BuildingBlock: AJUNOK_clean_linker_0, # of connection points: 2
#     Edge 111, Type (0, 1), BuildingBlock: AJUNOK_clean_linker_0, # of connection points: 2
#     Edge 112, Type (0, 1), BuildingBlock: AJUNOK_clean_linker_0, # of connection points: 2
#     Edge 113, Type (0, 1), BuildingBlock: AJUNOK_clean_linker_0, # of connection points: 2
#     Edge 114, Type (0, 1), BuildingBlock: AJUNOK_clean_linker_0, # of connection points: 2
#     Edge 115, Type (0, 1), BuildingBlock: AJUNOK_clean_linker_0, # of connection points: 2
#     Edge 116, Type (0, 1), BuildingBlock: AJUNOK_clean_linker_0, # of connection points: 2
#     Edge 117, Type (0, 1), BuildingBlock: AJUNOK_clean_linker_0, # of connection points: 2
#     Edge 118, Type (0, 1), BuildingBlock: AJUNOK_clean_linker_0, # of connection points: 2
#     Edge 119, Type (0, 1), BuildingBlock: AJUNOK_clean_linker_0, # of connection points: 2
#     Edge 120, Type (0, 1), BuildingBlock: AJUNOK_clean_linker_0, # of connection points: 2
#     Edge 121, Type (0, 1), BuildingBlock: AJUNOK_clean_linker_0, # of connection points: 2
#     Edge 122, Type (0, 1), BuildingBlock: AJUNOK_clean_linker_0, # of connection points: 2
#     Edge 123, Type (0, 1), BuildingBlock: AJUNOK_clean_linker_0, # of connection points: 2
#     Edge 124, Type (0, 1), BuildingBlock: AJUNOK_clean_linker_0, # of connection points: 2
#     Edge 125, Type (0, 1), BuildingBlock: AJUNOK_clean_linker_0, # of connection points: 2
#     Edge 126, Type (0, 1), BuildingBlock: AJUNOK_clean_linker_0, # of connection points: 2
#     Edge 127, Type (0, 1), BuildingBlock: AJUNOK_clean_linker_0, # of connection points: 2
#     Edge 128, Type (0, 1), BuildingBlock: AJUNOK_clean_linker_0, # of connection points: 2
#     Edge 129, Type (0, 1), BuildingBlock: AJUNOK_clean_linker_0, # of connection points: 2
#     Edge 130, Type (0, 1), BuildingBlock: AJUNOK_clean_linker_0, # of connection points: 2
#     Edge 131, Type (0, 1), BuildingBlock: AJUNOK_clean_linker_0, # of connection points: 2
#     Edge 132, Type (0, 1), BuildingBlock: AJUNOK_clean_linker_0, # of connection points: 2
#     Edge 133, Type (0, 1), BuildingBlock: AJUNOK_clean_linker_0, # of connection points: 2
#     Edge 134, Type (0, 1), BuildingBlock: AJUNOK_clean_linker_0, # of connection points: 2
#     Edge 135, Type (0, 1), BuildingBlock: AJUNOK_clean_linker_0, # of connection points: 2
# Relax obj value: 0.244
# Max RMSD: 0.340
# Mean RMSD: 0.172
data_MOF--net-gar--node1-CEKHIL_clean_sbu_0--node2-BETDAH_clean_sbu_0--edge1-AJUNOK_clean_linker_0
_symmetry_space_group_name_H-M    P1
_symmetry_Int_Tables_number       1
_symmetry_cell_setting            triclinic
loop_
_symmetry_equiv_pos_as_xyz
'x, y, z'
_cell_length_a     47.73296
_cell_length_b     41.234309
_cell_length_c     40.943525
_cell_angle_alpha  99.382606
_cell_angle_beta   95.589914
_cell_angle_gamma 102.08794
loop_
_atom_site_label
_atom_site_type_symbol
_atom_site_fract_x
_atom_site_fract_y
_atom_site_fract_z
_atom_type_partial_charge
Co0 Co 0.17977 0.40841 0.40614 0.0
O1 O 0.22 0.40989 0.40599 0.0
O2 O 0.18559 0.38818 0.36266 0.0
C3 C 0.18413 0.46165 0.43226 0.0
O4 O 0.13711 0.4035 0.39623 0.0
Co5 Co 0.15332 0.4197 0.4728 0.0
O6 O 0.11693 0.41561 0.44281 0.0
C7 C 0.16805 0.35504 0.4487 0.0
C8 C 0.2128 0.39524 0.37479 0.0
C9 C 0.11545 0.40741 0.41121 0.0
O10 O 0.17288 0.36321 0.42044 0.0
O11 O 0.16344 0.37531 0.47365 0.0
O12 O 0.18548 0.4555 0.40037 0.0
O13 O 0.1834 0.43646 0.44734 0.0
Co14 Co 1.02654 0.78665 0.68059 0.0
O15 O 0.98517 0.7772 0.6737 0.0
O16 O 1.0123 0.77915 0.72163 0.0
C17 C 1.03261 0.83069 0.65421 0.0
O18 O 0.06887 0.79729 0.6983 0.0
Co19 Co 0.06518 0.78832 0.62313 0.0
O20 O 0.09638 0.81312 0.65977 0.0
C21 C 0.03656 0.72324 0.64117 0.0
C22 C 0.98684 0.77605 0.70535 0.0
C23 C 0.09328 0.81007 0.68975 0.0
O24 O 1.02683 0.73759 0.66659 0.0
O25 O 0.04991 0.73892 0.62064 0.0
O26 O 1.02804 0.83516 0.68525 0.0
O27 O 1.03186 0.80026 0.64021 0.0
Co28 Co 0.67752 0.90716 0.90521 0.0
O29 O 0.71829 0.91152 0.90636 0.0
O30 O 0.68485 0.88364 0.8638 0.0
C31 C 0.67864 0.96122 0.92561 0.0
O32 O 0.63472 0.8983 0.89373 0.0
Co33 Co 0.64894 0.92295 0.96967 0.0
O34 O 0.6128 0.91413 0.93784 0.0
C35 C 0.66919 0.86031 0.95452 0.0
C36 C 0.712 0.89392 0.87613 0.0
C37 C 0.61228 0.9024 0.90695 0.0
O38 O 0.67323 0.86501 0.92489 0.0
O39 O 0.66325 0.88227 0.97699 0.0
O40 O 0.68049 0.95214 0.89412 0.0
O41 O 0.67909 0.93859 0.94379 0.0
Co42 Co 0.52415 0.28019 0.17314 0.0
O43 O 0.48328 0.27413 0.17007 0.0
O44 O 0.51275 0.27672 0.21636 0.0
C45 C 0.53199 0.32248 0.14469 0.0
O46 O 0.56697 0.287 0.18555 0.0
Co47 Co 0.55286 0.26947 0.10763 0.0
O48 O 0.58922 0.28438 0.13948 0.0
C49 C 0.52089 0.21205 0.13266 0.0
C50 C 0.48668 0.27438 0.20195 0.0
C51 C 0.58974 0.28865 0.17114 0.0
O52 O 0.52112 0.23019 0.16138 0.0
O53 O 0.52666 0.22448 0.10677 0.0
O54 O 0.52893 0.32903 0.17611 0.0
O55 O 0.52698 0.29106 0.13139 0.0
Co56 Co 0.1483 0.8696 0.14544 0.0
O57 O 0.10659 0.86364 0.13647 0.0
O58 O 0.13046 0.86119 0.18468 0.0
C59 C 0.15609 0.91762 0.12145 0.0
O60 O 0.19052 0.87426 0.16773 0.0
Co61 Co 0.18793 0.86619 0.09599 0.0
O62 O 0.22154 0.87161 0.13092 0.0
C63 C 0.15012 0.80271 0.10229 0.0
C64 C 0.10592 0.85964 0.16716 0.0
C65 C 0.21631 0.87351 0.16091 0.0
O66 O 0.14357 0.81902 0.12898 0.0
O67 O 0.16603 0.81753 0.0833 0.0
O68 O 0.1531 0.9188 0.15275 0.0
O69 O 0.15557 0.8876 0.10506 0.0
Co70 Co 0.55295 0.81457 0.43941 0.0
O71 O 0.59492 0.82454 0.44624 0.0
O72 O 0.56774 0.80024 0.39833 0.0
C73 C 0.55096 0.86716 0.46566 0.0
O74 O 0.50923 0.80307 0.4197 0.0
Co75 Co 0.51582 0.81202 0.49262 0.0
O76 O 0.48421 0.8183 0.46031 0.0
C77 C 0.54639 0.75747 0.48036 0.0
C78 C 0.59354 0.81244 0.41468 0.0
C79 C 0.48586 0.81049 0.42933 0.0
O80 O 0.55273 0.76871 0.45364 0.0
O81 O 0.53246 0.77229 0.50091 0.0
O82 O 0.55405 0.86082 0.43434 0.0
O83 O 0.54984 0.84185 0.48117 0.0
Co84 Co 0.64992 0.36786 0.64719 0.0
O85 O 0.60811 0.36154 0.63873 0.0
O86 O 0.63219 0.35706 0.68579 0.0
C87 C 0.65673 0.41691 0.625 0.0
O88 O 0.6925 0.37318 0.66947 0.0
Co89 Co 0.68958 0.36713 0.59769 0.0
O90 O 0.72308 0.37105 0.63197 0.0
C91 C 0.65343 0.30203 0.60261 0.0
C92 C 0.60742 0.35587 0.66892 0.0
C93 C 0.71819 0.3727 0.66202 0.0
O94 O 0.64542 0.31767 0.62869 0.0
O95 O 0.67029 0.31772 0.58503 0.0
O96 O 0.65393 0.41683 0.65622 0.0
O97 O 0.65685 0.38752 0.60767 0.0
Co98 Co 0.05472 0.31642 0.94121 0.0
O99 O 0.09632 0.32739 0.95047 0.0
O100 O 0.07149 0.30138 0.90162 0.0
C101 C 0.05122 0.3691 0.96508 0.0
O102 O 1.01144 0.30392 0.92005 0.0
Co103 Co 1.01629 0.31524 0.99356 0.0
O104 O 0.98616 0.32157 0.95951 0.0
C105 C 0.04727 0.26059 0.98371 0.0
C106 C 0.0966 0.3147 0.91946 0.0
C107 C 0.98825 0.31258 0.9288 0.0
O108 O 0.05431 0.27125 0.95694 0.0
O109 O 1.03291 0.27603 1.00323 0.0
O110 O 0.0556 0.36207 0.93427 0.0
O111 O 0.05013 0.34459 0.98162 0.0
Co112 Co 0.47609 0.0823 0.34143 0.0
O113 O 0.47501 0.11855 0.31752 0.0
O114 O 0.43707 0.0809 0.32643 0.0
C115 C 0.50844 0.11128 0.38521 0.0
O116 O 0.46689 0.04268 0.36445 0.0
Co117 Co 0.53039 0.05449 0.35622 0.0
O118 O 0.50163 1.01383 0.36134 0.0
C119 C 0.49734 0.03705 0.28853 0.0
C120 C 0.44712 0.10643 0.31282 0.0
C121 C 0.4759 1.01574 0.36519 0.0
O122 O 0.47787 0.05176 0.29881 0.0
O123 O 0.52074 0.03749 0.3069 0.0
O124 O 0.48143 0.11276 0.38436 0.0
O125 O 0.51532 0.09506 0.35869 0.0
Co126 Co 0.3185 0.23087 0.51253 0.0
O127 O 0.36053 0.24068 0.51774 0.0
O128 O 0.3322 0.19327 0.52451 0.0
C129 C 0.3156 0.2499 0.46245 0.0
O130 O 0.27522 0.20755 0.50862 0.0
Co131 Co 0.28172 0.27952 0.51184 0.0
O132 O 0.24613 0.24304 0.50586 0.0
C133 C 0.31195 0.27673 0.57697 0.0
C134 C 0.35818 0.21042 0.52408 0.0
C135 C 0.24975 0.21352 0.50635 0.0
O136 O 0.32001 0.25094 0.56194 0.0
O137 O 0.29777 0.29347 0.56074 0.0
O138 O 0.31744 0.21929 0.46426 0.0
O139 O 0.31492 0.26883 0.49101 0.0
Co140 Co 0.22417 0.05555 0.80859 0.0
O141 O 0.21974 1.00319 0.80338 0.0
O142 O 0.2588 1.03478 0.79712 0.0
C143 C 0.20115 0.06378 0.86174 0.0
O144 O 0.24681 0.10814 0.81261 0.0
Co145 Co 0.18532 0.1041 0.81412 0.0
O146 O 0.21781 0.14411 0.81712 0.0
C147 C 0.18526 0.06824 0.74471 0.0
C148 C 0.24642 1.0039 0.79804 0.0
C149 C 0.24297 0.13917 0.81463 0.0
O150 O 0.20612 0.0544 0.75664 0.0
O151 O 0.17369 0.08674 0.76499 0.0
O152 O 0.22708 0.05851 0.86025 0.0
O153 O 0.18981 0.06387 0.83175 0.0
Co154 Co 0.36236 0.98719 1.01057 0.0
O155 O 0.32521 0.98566 1.0247 0.0
O156 O 0.35978 1.03222 0.0302 0.0
C157 C 0.3442 0.95285 0.96187 0.0
O158 O 0.40334 0.99804 0.99869 0.0
Co159 Co 0.38531 0.92208 0.98766 0.0
O160 O 0.41385 0.95267 0.9684 0.0
C161 C 0.38617 0.95193 0.05995 0.0
C162 C 0.33361 1.0181 0.03435 0.0
C163 C 0.41984 0.98403 0.98079 0.0
O164 O 0.37795 0.97848 0.05436 0.0
O165 O 0.38878 0.92794 0.03715 0.0
O166 O 0.34565 0.98508 0.96434 0.0
O167 O 0.35318 0.94315 0.98821 0.0
Co168 Co 0.38229 0.43448 0.06137 0.0
O169 O 0.34031 0.42348 0.05492 0.0
O170 O 0.3679 0.4736 0.07785 0.0
C171 C 0.38638 0.41042 1.00809 0.0
O172 O 0.42564 0.45833 0.06943 0.0
Co173 Co 0.4187 0.38395 0.0596 0.0
O174 O 0.45231 0.42061 0.0568 0.0
C175 C 0.3877 0.39363 0.11746 0.0
C176 C 0.34206 0.45496 0.06749 0.0
C177 C 0.44991 0.451 0.06368 0.0
O178 O 0.38188 0.41978 0.10711 0.0
O179 O 0.40061 0.37389 0.10048 0.0
O180 O 0.38235 0.44071 1.01549 0.0
O181 O 0.38625 0.39407 0.03278 0.0
Co182 Co 0.833 0.17327 0.05128 0.0
O183 O 0.87186 0.17536 0.042 0.0
O184 O 0.84597 0.13553 0.06457 0.0
C185 C 0.81445 0.18232 1.0024 0.0
O186 O 0.79221 0.16362 0.06302 0.0
Co187 Co 0.80864 0.2398 0.05163 0.0
O188 O 0.77502 0.21119 0.06634 0.0
C189 C 0.85162 0.23519 0.10071 0.0
C190 C 0.86965 0.14717 0.05279 0.0
C191 C 0.77267 0.18031 0.06893 0.0
O192 O 0.8466 0.20291 0.09646 0.0
O193 O 0.84887 0.24938 0.07566 0.0
O194 O 0.81785 0.15229 1.00464 0.0
O195 O 0.82577 0.20591 0.02774 0.0
Co196 Co 0.22227 0.58174 0.26549 0.0
O197 O 0.2202 0.53587 0.27043 0.0
O198 O 0.25578 0.56929 0.25165 0.0
C199 C 0.20879 0.59852 0.31463 0.0
O200 O 0.23409 0.62931 0.25924 0.0
Co201 Co 0.17111 0.61755 0.26667 0.0
O202 O 0.20136 0.65993 0.27043 0.0
C203 C 0.17481 0.56595 0.20908 0.0
C204 C 0.24544 0.54068 0.26012 0.0
C205 C 0.2265 0.65736 0.26416 0.0
O206 O 0.20145 0.56748 0.219 0.0
O207 O 0.15848 0.58036 0.22656 0.0
O208 O 0.23561 0.59702 0.31326 0.0
O209 O 0.19127 0.58825 0.2872 0.0
Co210 Co 0.8834 0.93493 0.55922 0.0
O211 O 0.84181 0.92283 0.54964 0.0
O212 O 0.86743 0.97332 0.57484 0.0
C213 C 0.88919 0.91135 0.50658 0.0
O214 O 0.92678 0.9589 0.57072 0.0
Co215 Co 0.92019 0.88436 0.55763 0.0
O216 O 0.95155 0.92158 0.55055 0.0
C217 C 0.88699 0.89309 0.61436 0.0
C218 C 0.84228 0.95392 0.56212 0.0
C219 C 0.95008 0.9519 0.56084 0.0
O220 O 0.88103 0.91923 0.60415 0.0
O221 O 0.90137 0.87461 0.59807 0.0
O222 O 0.8856 0.94189 0.51356 0.0
O223 O 0.88826 0.89508 0.53122 0.0
Co224 Co 0.97819 0.11305 0.28838 0.0
O225 O 0.98217 0.16544 0.29564 0.0
O226 O 0.94224 0.13149 0.27663 0.0
C227 C 1.00432 0.10835 0.34165 0.0
O228 O 0.95615 0.06014 0.28191 0.0
Co229 Co 1.01929 0.0661 0.28398 0.0
O230 O 0.98735 1.02708 0.28702 0.0
C231 C 1.01404 0.09783 0.22466 0.0
C232 C 0.95472 0.16317 0.28631 0.0
C233 C 0.96133 1.03032 0.28424 0.0
O234 O 0.99293 0.11008 0.23823 0.0
O235 O 1.02796 0.0806 0.24058 0.0
O236 O 0.9789 0.11544 0.33898 0.0
O237 O 1.01399 0.10674 0.31309 0.0
Co238 Co 0.34099 0.67704 0.54931 0.0
O239 O 0.38154 0.68103 0.55019 0.0
O240 O 0.35102 0.63735 0.56197 0.0
C241 C 0.33565 0.69247 0.49981 0.0
O242 O 0.29765 0.66471 0.5501 0.0
Co243 Co 0.31507 0.74066 0.54297 0.0
O244 O 0.27787 0.70876 0.5429 0.0
C245 C 0.3425 0.73127 0.60803 0.0
C246 C 0.37716 0.65108 0.55731 0.0
C247 C 0.27606 0.67871 0.54778 0.0
O248 O 0.34623 0.7017 0.59675 0.0
O249 O 0.33358 0.75071 0.59014 0.0
O250 O 0.3351 0.66106 0.50083 0.0
O251 O 0.34062 0.713 0.52793 0.0
Co252 Co 0.47776 0.61182 0.7883 0.0
O253 O 0.48181 0.66424 0.79678 0.0
O254 O 0.44189 0.6309 0.7766 0.0
C255 C 0.50265 0.60649 0.84217 0.0
O256 O 0.45599 0.55864 0.78016 0.0
Co257 Co 0.51938 0.56589 0.78506 0.0
O258 O 0.48767 0.5273 0.78991 0.0
C259 C 0.51524 0.59761 0.72553 0.0
C260 C 0.45447 0.66247 0.78728 0.0
C261 C 0.46146 0.52947 0.78467 0.0
O262 O 0.49395 0.60995 0.73873 0.0
O263 O 0.52882 0.58029 0.74175 0.0
O264 O 0.47686 0.61244 0.83841 0.0
O265 O 0.51334 0.60605 0.81426 0.0
Co266 Co 0.72802 0.08638 0.76831 0.0
O267 O 0.72587 0.04028 0.77133 0.0
O268 O 0.75978 0.07299 0.74997 0.0
C269 C 0.71999 0.10234 0.82039 0.0
O270 O 0.73897 0.13437 0.76267 0.0
Co271 Co 0.67723 0.12203 0.77845 0.0
O272 O 0.70773 0.16405 0.78231 0.0
C273 C 0.6779 0.07601 0.71503 0.0
C274 C 0.75042 0.04458 0.75948 0.0
C275 C 0.73145 0.1621 0.77126 0.0
O276 O 0.70376 0.07351 0.72373 0.0
O277 O 0.66324 0.0916 0.73399 0.0
O278 O 0.7459 0.10036 0.81473 0.0
O279 O 0.69974 0.0928 0.79525 0.0
Co280 Co 0.81639 0.73296 1.01242 0.0
O281 O 0.85837 0.74158 1.01666 0.0
O282 O 0.82939 0.69437 1.02285 0.0
C283 C 0.81271 0.75348 0.96346 0.0
O284 O 0.77296 0.71061 1.00893 0.0
Co285 Co 0.78082 0.78308 1.01481 0.0
O286 O 0.74489 0.7475 1.01054 0.0
C287 C 0.81076 0.77724 0.0785 0.0
C288 C 0.85553 0.71104 1.02238 0.0
C289 C 0.74784 0.71745 1.00906 0.0
O290 O 0.81915 0.75229 0.06222 0.0
O291 O 0.79578 0.79432 0.06389 0.0
O292 O 0.81416 0.72249 0.96387 0.0
O293 O 0.81334 0.7719 0.99266 0.0
Co294 Co 0.97548 0.58263 0.8413 0.0
O295 O 0.9709 0.62128 0.82227 0.0
O296 O 0.93573 0.58174 0.83384 0.0
C297 C 1.01177 0.609 0.88148 0.0
O298 O 0.96967 0.54035 0.8602 0.0
Co299 Co 1.02986 0.55291 0.84606 0.0
O300 O 1.008 0.51805 0.86788 0.0
C301 C 0.99004 0.53912 0.7824 0.0
C302 C 0.94335 0.60912 0.82216 0.0
C303 C 0.98143 0.51757 0.86924 0.0
O304 O 0.97283 0.55557 0.79576 0.0
O305 O 1.01408 0.53678 0.79755 0.0
O306 O 0.98527 0.61 0.88573 0.0
O307 O 1.01562 0.59414 0.85256 0.0
Co308 Co 0.86757 0.48962 0.50625 0.0
O309 O 0.82877 0.49372 0.50994 0.0
O310 O 0.86771 0.53632 0.52252 0.0
C311 C 0.85833 0.45532 0.45643 0.0
O312 O 0.91052 0.49433 0.50454 0.0
Co313 Co 0.88132 0.41812 0.50252 0.0
O314 O 0.92143 0.4435 0.50213 0.0
C315 C 0.86717 0.45397 0.56343 0.0
C316 C 0.83987 0.5256 0.52089 0.0
C317 C 0.92873 0.47528 0.50319 0.0
O318 O 0.87285 0.48199 0.55309 0.0
O319 O 0.86294 0.42527 0.54407 0.0
O320 O 0.8615 0.48765 0.45772 0.0
O321 O 0.85773 0.44517 0.48435 0.0
Co322 Co 0.7249 0.55538 0.30702 0.0
O323 O 0.7207 0.50309 0.30213 0.0
O324 O 0.75978 0.53482 0.29614 0.0
C325 C 0.70137 0.56361 0.35989 0.0
O326 O 0.74699 0.60822 0.3107 0.0
Co327 Co 0.68465 0.60216 0.31066 0.0
O328 O 0.71683 0.64275 0.31484 0.0
C329 C 0.68609 0.56658 0.24198 0.0
C330 C 0.74742 0.50389 0.29696 0.0
C331 C 0.74233 0.63889 0.31258 0.0
O332 O 0.70712 0.55351 0.25485 0.0
O333 O 0.67367 0.5849 0.26134 0.0
O334 O 0.72757 0.55909 0.35884 0.0
O335 O 0.69011 0.56291 0.32963 0.0
Ho336 Ho 0.08452 0.06655 1.02342 0.0
Ho337 Ho 0.1247 0.10554 0.06108 0.0
C338 C 0.08778 0.14489 1.02538 0.0
C339 C 1.03283 0.04052 0.99225 0.0
C340 C 1.00633 0.04991 1.00221 0.0
C341 C 1.00651 0.06585 0.03531 0.0
C342 C 0.98319 0.07892 0.04459 0.0
C343 C 0.95915 0.07646 1.02092 0.0
C344 C 0.95875 0.0601 0.98781 0.0
C345 C 0.98224 0.04694 0.97852 0.0
C346 C 0.13178 0.0697 0.98498 0.0
C347 C 0.12196 1.0272 0.06026 0.0
C348 C 0.17554 0.13309 0.09393 0.0
C349 C 0.20252 0.1234 0.08683 0.0
C350 C 0.20459 0.10814 0.05416 0.0
C351 C 0.22762 0.09337 0.04773 0.0
C352 C 0.24892 0.09333 0.07384 0.0
C353 C 0.24735 0.10932 0.10643 0.0
C354 C 0.22415 0.1242 0.11291 0.0
C355 C 0.07765 0.10264 0.09933 0.0
O356 O 0.06985 0.11624 0.02615 0.0
O357 O 0.11504 0.14684 0.03497 0.0
O358 O 0.05085 0.06446 0.98297 0.0
O359 O 0.04598 1.02577 1.01279 0.0
O360 O 0.11315 0.04298 0.98824 0.0
O361 O 0.12489 0.09423 1.0041 0.0
O362 O 0.13968 0.05658 0.06172 0.0
O363 O 0.09509 1.02413 0.04751 0.0
O364 O 0.15709 0.10979 0.10345 0.0
O365 O 0.16322 0.14636 0.07136 0.0
O366 O 0.09623 0.12937 0.09602 0.0
O367 O 0.08417 0.07797 0.08004 0.0
H368 H 1.02514 0.0691 0.05383 0.0
H369 H 0.98416 0.0915 0.07022 0.0
H370 H 0.94079 0.0586 0.96887 0.0
H371 H 0.98197 1.03545 0.95271 0.0
H372 H 0.18778 0.10644 0.03374 0.0
H373 H 0.22842 0.0812 1.02241 0.0
H374 H 0.26333 0.10905 0.12701 0.0
H375 H 0.22247 0.13506 0.13838 0.0
Ho376 Ho 0.36494 0.83535 0.27769 0.0
Ho377 Ho 0.32789 0.84485 0.32174 0.0
C378 C 0.37614 0.9061 0.3251 0.0
C379 C 0.40187 0.84527 0.2366 0.0
C380 C 0.41024 0.87602 0.22347 0.0
C381 C 0.39159 0.8982 0.22394 0.0
C382 C 0.3976 0.926 0.20871 0.0
C383 C 0.42086 0.92988 0.19036 0.0
C384 C 0.44188 0.91097 0.19418 0.0
C385 C 0.43643 0.88373 0.2107 0.0
C386 C 0.38457 0.81368 0.33319 0.0
C387 C 0.31954 0.77295 0.27934 0.0
C388 C 0.28778 0.83695 0.35987 0.0
C389 C 0.2763 0.80796 0.3749 0.0
C390 C 0.27419 0.77496 0.35746 0.0
C391 C 0.27604 0.74917 0.3751 0.0
C392 C 0.27927 0.75638 0.40998 0.0
C393 C 0.27518 0.78733 0.42657 0.0
C394 C 0.2742 0.81337 0.40906 0.0
C395 C 0.3106 0.86604 0.26411 0.0
O396 O 0.37235 0.89142 0.29362 0.0
O397 O 0.36134 0.89075 0.34556 0.0
O398 O 0.40929 0.84921 0.26859 0.0
O399 O 0.37513 0.82857 0.22706 0.0
O400 O 0.38108 0.79724 0.30281 0.0
O401 O 0.37399 0.83975 0.33333 0.0
O402 O 0.32274 0.789 0.31023 0.0
O403 O 0.33183 0.78815 0.25711 0.0
O404 O 0.28267 0.8319 0.3275 0.0
O405 O 0.31464 0.85224 0.37106 0.0
O406 O 0.31338 0.88304 0.29419 0.0
O407 O 0.31948 0.83939 0.26599 0.0
H408 H 0.37122 0.89268 0.2337 0.0
H409 H 0.38116 0.94032 0.20589 0.0
H410 H 0.45999 0.91384 0.18002 0.0
H411 H 0.45138 0.86728 0.21109 0.0
H412 H 0.27438 0.76984 0.33075 0.0
H413 H 0.27864 0.7252 0.3619 0.0
H414 H 0.2771 0.7929 0.4536 0.0
H415 H 0.27528 0.8385 0.42276 0.0
Ho416 Ho 0.63119 0.08348 0.53129 0.0
Ho417 Ho 0.56912 0.08252 0.55119 0.0
C418 C 0.58256 1.01168 0.52212 0.0
C419 C 0.68343 0.07633 0.52851 0.0
C420 C 0.70203 0.05248 0.53293 0.0
C421 C 0.70608 0.04091 0.56316 0.0
C422 C 0.72694 1.02222 0.56822 0.0
C423 C 0.74383 1.01452 0.54306 0.0
C424 C 0.73908 1.02522 0.51254 0.0
C425 C 0.71841 0.04402 0.50756 0.0
C426 C 0.59278 0.0961 0.4857 0.0
C427 C 0.61652 0.15459 0.55838 0.0
C428 C 0.51811 0.09089 0.56061 0.0
C429 C 0.49967 0.11507 0.55823 0.0
C430 C 0.50063 0.1347 0.5331 0.0
C431 C 0.47965 0.15341 0.5285 0.0
C432 C 0.45751 0.15242 0.54882 0.0
C433 C 0.45769 0.1343 0.575 0.0
C434 C 0.47858 0.11579 0.57964 0.0
C435 C 0.60807 0.06846 0.59502 0.0
O436 O 0.61051 1.02732 0.52736 0.0
O437 O 0.56187 1.02838 0.52594 0.0
O438 O 0.66356 0.06833 0.50225 0.0
O439 O 0.67474 0.09074 0.55537 0.0
O440 O 0.62033 0.10938 0.48865 0.0
O441 O 0.5879 0.07545 0.50487 0.0
O442 O 0.5888 0.13845 0.55395 0.0
O443 O 0.6374 0.13826 0.5539 0.0
O444 O 0.54004 0.09917 0.5845 0.0
O445 O 0.5242 0.07588 0.53248 0.0
O446 O 0.58068 0.05457 0.59177 0.0
O447 O 0.61246 0.09042 0.57727 0.0
H448 H 0.69377 0.04706 0.58324 0.0
H449 H 0.73016 1.01416 0.59192 0.0
H450 H 0.75212 1.0201 0.49293 0.0
H451 H 0.71591 0.05298 0.48423 0.0
H452 H 0.51679 0.13446 0.51627 0.0
H453 H 0.47984 0.16718 0.50811 0.0
H454 H 0.44092 0.13342 0.59109 0.0
H455 H 0.4775 0.10081 0.5991 0.0
Ho456 Ho 0.32642 0.34702 0.79684 0.0
Ho457 Ho 0.37897 0.31738 0.79341 0.0
C458 C 0.36661 0.34986 0.86588 0.0
C459 C 0.27461 0.35531 0.80263 0.0
C460 C 0.25011 0.34711 0.8217 0.0
C461 C 0.23701 0.31379 0.82388 0.0
C462 C 0.21294 0.30724 0.84094 0.0
C463 C 0.20161 0.3339 0.85612 0.0
C464 C 0.21473 0.36713 0.85373 0.0
C465 C 0.23873 0.37362 0.83683 0.0
C466 C 0.37123 0.3999 0.78785 0.0
C467 C 0.33968 0.31659 0.72386 0.0
C468 C 0.43017 0.3074 0.78662 0.0
C469 C 0.45469 0.31562 0.76781 0.0
C470 C 0.4584 0.34274 0.75063 0.0
C471 C 0.48219 0.34939 0.73304 0.0
C472 C 0.50245 0.32893 0.73233 0.0
C473 C 0.49826 0.30164 0.74928 0.0
C474 C 0.47465 0.29508 0.76676 0.0
C475 C 0.33423 0.26511 0.80399 0.0
O476 O 0.34064 0.35011 0.85167 0.0
O477 O 0.38638 0.34088 0.84822 0.0
O478 O 0.29803 0.37608 0.81919 0.0
O479 O 0.28014 0.33106 0.78111 0.0
O480 O 0.34446 0.40058 0.78949 0.0
O481 O 0.37278 0.36937 0.78995 0.0
O482 O 0.36494 0.31428 0.73841 0.0
O483 O 0.32031 0.32664 0.74152 0.0
O484 O 0.4064 0.288 0.76947 0.0
O485 O 0.42536 0.33156 0.80881 0.0
O486 O 0.36096 0.26425 0.80242 0.0
O487 O 0.33288 0.29549 0.80123 0.0
H488 H 0.24511 0.29284 0.81218 0.0
H489 H 0.20321 0.28138 0.84233 0.0
H490 H 0.20609 0.38814 0.86442 0.0
H491 H 0.24819 0.39948 0.83512 0.0
H492 H 0.44308 0.35878 0.75099 0.0
H493 H 0.48504 0.37088 0.72061 0.0
H494 H 0.5133 0.28527 0.74898 0.0
H495 H 0.472 0.27387 0.7796 0.0
Ho496 Ho 0.09467 0.11274 0.55447 0.0
Ho497 Ho 0.10791 0.053 0.5206 0.0
C498 C 0.07199 0.08941 0.47136 0.0
C499 C 0.09355 0.17542 0.56705 0.0
C500 C 0.10395 0.19869 0.54508 0.0
C501 C 0.12358 0.19008 0.52366 0.0
C502 C 0.13426 0.21107 0.50228 0.0
C503 C 0.12463 0.2406 0.50117 0.0
C504 C 0.10409 0.24885 0.5216 0.0
C505 C 0.09382 0.22795 0.54364 0.0
C506 C 0.05456 0.05734 0.56041 0.0
C507 C 0.12952 0.07617 0.60425 0.0
C508 C 0.10993 0.99056 0.50854 0.0
C509 C 0.10197 0.96819 0.53207 0.0
C510 C 0.08794 0.97965 0.55879 0.0
C511 C 0.07939 0.95921 0.58148 0.0
C512 C 0.08449 0.92674 0.57762 0.0
C513 C 0.0989 0.91527 0.55117 0.0
C514 C 0.10778 0.93606 0.52853 0.0
C515 C 0.1473 0.10819 0.51351 0.0
O516 O 0.07659 0.11313 0.49907 0.0
O517 O 0.08202 0.06183 0.4733 0.0
O518 O 0.07059 0.15187 0.55395 0.0
O519 O 0.11369 0.1634 0.58153 0.0
O520 O 0.06326 0.08422 0.58355 0.0
O521 O 0.06646 0.06232 0.53478 0.0
O522 O 0.12687 0.05343 0.57613 0.0
O523 O 0.11827 0.10287 0.6025 0.0
O524 O 0.133 1.01471 0.51923 0.0
O525 O 0.08848 1.00165 0.4958 0.0
O526 O 0.13778 0.08151 0.49027 0.0
O527 O 0.13619 0.1035 0.53979 0.0
H528 H 0.13066 0.167 0.52364 0.0
H529 H 0.15004 0.20432 0.4867 0.0
H530 H 0.09661 0.27184 0.52105 0.0
H531 H 0.07822 0.23462 0.55949 0.0
H532 H 0.08291 1.00422 0.56165 0.0
H533 H 0.06768 0.96822 0.60113 0.0
H534 H 0.10275 0.89004 0.54772 0.0
H535 H 0.11861 0.92691 0.50808 0.0
Ho536 Ho 0.37577 0.85898 0.78655 0.0
Ho537 Ho 0.32476 0.80729 0.79653 0.0
C538 C 0.38615 0.77983 0.79594 0.0
C539 C 0.42394 0.90303 0.79715 0.0
C540 C 0.45427 0.90263 0.79912 0.0
C541 C 0.4742 0.9308 0.81798 0.0
C542 C 0.50182 0.92793 0.82906 0.0
C543 C 0.50945 0.89688 0.82126 0.0
C544 C 0.49042 0.86955 0.79992 0.0
C545 C 0.46267 0.87235 0.78888 0.0
C546 C 0.34848 0.81677 0.73094 0.0
C547 C 0.31413 0.88627 0.78734 0.0
C548 C 0.27466 0.76701 0.78314 0.0
C549 C 0.24579 0.77369 0.77665 0.0
C550 C 0.23294 0.76837 0.74333 0.0
C551 C 0.20861 0.78039 0.73543 0.0
C552 C 0.19625 0.79721 0.76073 0.0
C553 C 0.20758 0.80046 0.79428 0.0
C554 C 0.23259 0.78918 0.80225 0.0
C555 C 0.3509 0.85127 0.85198 0.0
O556 O 0.39789 0.81265 0.79466 0.0
O557 O 0.35741 0.77167 0.79666 0.0
O558 O 0.40847 0.89284 0.7676 0.0
O559 O 0.41147 0.89043 0.82088 0.0
O560 O 0.36031 0.84832 0.73157 0.0
O561 O 0.3536 0.80978 0.75914 0.0
O562 O 0.30256 0.85355 0.78885 0.0
O563 O 0.34281 0.89434 0.78642 0.0
O564 O 0.28838 0.77682 0.81372 0.0
O565 O 0.29122 0.77429 0.76042 0.0
O566 O 0.34039 0.81929 0.85175 0.0
O567 O 0.34633 0.85695 0.82313 0.0
H568 H 0.46769 0.95409 0.8264 0.0
H569 H 0.51646 0.94911 0.84576 0.0
H570 H 0.49648 0.8457 0.79355 0.0
H571 H 0.44724 0.85033 0.77452 0.0
H572 H 0.24248 0.75623 0.72315 0.0
H573 H 0.19951 0.77679 0.70943 0.0
H574 H 0.19769 0.81268 0.81406 0.0
H575 H 0.24199 0.79352 0.82819 0.0
Ho576 Ho 0.60048 0.06365 0.06014 0.0
Ho577 Ho 0.59332 0.10712 1.0137 0.0
C578 C 0.54172 0.0469 1.00764 0.0
C579 C 0.59108 1.0239 0.10187 0.0
C580 C 0.5661 1.01752 0.11973 0.0
C581 C 0.55391 0.04436 0.1321 0.0
C582 C 0.53168 0.03918 0.15138 0.0
C583 C 0.5205 1.0068 0.15776 0.0
C584 C 0.53082 0.97934 0.14242 0.0
C585 C 0.55375 0.98476 0.12374 0.0
C586 C 0.63035 0.05149 1.00878 0.0
C587 C 0.65275 0.12191 0.06304 0.0
C588 C 0.60086 0.15206 0.97634 0.0
C589 C 0.62621 0.1671 0.96193 0.0
C590 C 0.6542 0.16992 0.9782 0.0
C591 C 0.67729 0.17064 0.95979 0.0
C592 C 0.67246 0.16936 0.92533 0.0
C593 C 0.6457 0.17261 0.91041 0.0
C594 C 0.62247 0.1711 0.92864 0.0
C595 C 0.56246 0.1155 0.06514 0.0
O596 O 0.55358 0.04659 0.03804 0.0
O597 O 0.55569 0.06602 0.98896 0.0
O598 O 0.58554 1.01324 0.06963 0.0
O599 O 0.60758 0.05438 0.11021 0.0
O600 O 0.63866 0.05061 0.03948 0.0
O601 O 0.60528 0.05736 1.00581 0.0
O602 O 0.64064 0.12066 0.03253 0.0
O603 O 0.63863 0.10512 0.08325 0.0
O604 O 0.60261 0.15955 1.00882 0.0
O605 O 0.59047 0.11982 0.96456 0.0
O606 O 0.55358 0.11599 0.03452 0.0
O607 O 0.58829 0.11241 0.06777 0.0
H608 H 0.56251 0.06977 0.12832 0.0
H609 H 0.52508 0.06122 0.1634 0.0
H610 H 0.52245 0.95409 0.1467 0.0
H611 H 0.5624 0.96364 0.11336 0.0
H612 H 0.6578 0.16811 1.00422 0.0
H613 H 0.69783 0.16798 0.97156 0.0
H614 H 0.64169 0.17133 0.88366 0.0
H615 H 0.60107 0.16918 0.91579 0.0
Ho616 Ho 0.3713 0.36101 0.3114 0.0
Ho617 Ho 0.32589 0.29214 0.27212 0.0
C618 C 0.30111 0.35314 0.30417 0.0
C619 C 0.39623 0.42333 0.32215 0.0
C620 C 0.38173 0.44634 0.30723 0.0
C621 C 0.36174 0.43224 0.27834 0.0
C622 C 0.34072 0.44842 0.26842 0.0
C623 C 0.33905 0.47912 0.28737 0.0
C624 C 0.35962 0.49427 0.31565 0.0
C625 C 0.38097 0.47786 0.32559 0.0
C626 C 0.35602 0.3168 0.35349 0.0
C627 C 0.39603 0.30046 0.27719 0.0
C628 C 0.30069 0.2297 0.25836 0.0
C629 C 0.31666 0.20402 0.26374 0.0
C630 C 0.33904 0.21256 0.29066 0.0
C631 C 0.36092 0.19529 0.29122 0.0
C632 C 0.36071 0.16881 0.26506 0.0
C633 C 0.33751 0.15858 0.23901 0.0
C634 C 0.31567 0.17651 0.2381 0.0
C635 C 0.34082 0.33506 0.22876 0.0
O636 O 0.32738 0.37303 0.30836 0.0
O637 O 0.29495 0.32045 0.29206 0.0
O638 O 0.38205 0.4098 0.34423 0.0
O639 O 0.40454 0.401 0.30081 0.0
O640 O 0.37427 0.34585 0.36274 0.0
O641 O 0.34896 0.31327 0.32232 0.0
O642 O 0.3698 0.28036 0.27218 0.0
O643 O 0.40232 0.3327 0.29134 0.0
O644 O 0.30999 0.2463 0.23546 0.0
O645 O 0.29726 0.24962 0.28545 0.0
O646 O 0.32126 0.30698 0.22162 0.0
O647 O 0.34912 0.33986 0.26005 0.0
H648 H 0.36036 0.40699 0.26521 0.0
H649 H 0.32448 0.43567 0.2473 0.0
H650 H 0.35836 0.51794 0.33074 0.0
H651 H 0.39541 0.48851 0.34869 0.0
H652 H 0.34078 0.23429 0.31011 0.0
H653 H 0.37835 0.20297 0.3119 0.0
H654 H 0.33689 0.13766 0.21895 0.0
H655 H 0.29904 0.17019 0.21663 0.0
Ho656 Ho 0.59096 0.61486 0.05651 0.0
Ho657 Ho 0.60819 0.55048 1.01945 0.0
C658 C 0.56857 0.5881 0.97312 0.0
C659 C 0.59261 0.67799 0.07193 0.0
C660 C 0.60424 0.70274 0.05199 0.0
C661 C 0.61059 0.69108 1.01993 0.0
C662 C 0.62312 0.71369 1.00088 0.0
C663 C 0.62978 0.74831 1.01378 0.0
C664 C 0.62352 0.76014 0.04585 0.0
C665 C 0.61068 0.73738 0.06489 0.0
C666 C 0.55061 0.55914 0.06124 0.0
C667 C 0.62949 0.57568 0.10301 0.0
C668 C 0.60549 0.48744 1.00184 0.0
C669 C 0.59514 0.46125 1.02087 0.0
C670 C 0.57101 0.46288 0.03767 0.0
C671 C 0.56347 0.44139 0.05979 0.0
C672 C 0.58006 0.41826 0.06576 0.0
C673 C 0.60387 0.41602 0.04866 0.0
C674 C 0.61152 0.43767 0.02644 0.0
C675 C 0.64914 0.60623 1.01474 0.0
O676 O 0.56999 0.61059 1.00126 0.0
O677 O 0.58165 0.56241 0.97395 0.0
O678 O 0.56923 0.65585 0.05703 0.0
O679 O 0.61173 0.66406 0.0859 0.0
O680 O 0.55001 0.58961 0.07499 0.0
O681 O 0.57322 0.56079 0.04722 0.0
O682 O 0.62695 0.5524 0.0751 0.0
O683 O 0.61773 0.60248 0.10184 0.0
O684 O 0.62943 0.50894 1.01623 0.0
O685 O 0.58587 0.50206 0.98989 0.0
O686 O 0.64904 0.57552 1.00101 0.0
O687 O 0.62653 0.60501 0.02898 0.0
H688 H 0.60671 0.6644 1.00996 0.0
H689 H 0.62812 0.70415 0.97638 0.0
H690 H 0.62848 0.78695 0.05605 0.0
H691 H 0.60618 0.74672 0.08967 0.0
H692 H 0.55824 0.48114 0.03414 0.0
H693 H 0.54445 0.44243 0.07194 0.0
H694 H 0.61658 0.3978 0.05277 0.0
H695 H 0.63052 0.43655 1.01421 0.0
Ho696 Ho 0.87473 0.35669 0.28082 0.0
Ho697 Ho 0.82545 0.3074 0.29556 0.0
C698 C 0.88572 0.27926 0.2929 0.0
C699 C 0.92385 0.39814 0.28445 0.0
C700 C 0.95287 0.39849 0.30034 0.0
C701 C 0.96011 0.40943 0.33503 0.0
C702 C 0.98633 0.40711 0.35104 0.0
C703 C 1.00624 0.39476 0.33254 0.0
C704 C 0.99962 0.38464 0.29771 0.0
C705 C 0.97297 0.38642 0.28166 0.0
C706 C 0.84253 0.31615 0.22622 0.0
C707 C 0.81507 0.38614 0.28592 0.0
C708 C 0.77507 0.2682 0.28912 0.0
C709 C 0.74753 0.27533 0.2775 0.0
C710 C 0.74709 0.29755 0.25496 0.0
C711 C 0.72114 0.30323 0.24179 0.0
C712 C 0.69523 0.28668 0.25082 0.0
C713 C 0.69551 0.26566 0.27453 0.0
C714 C 0.72175 0.26 0.28793 0.0
C715 C 0.85812 0.3474 0.35013 0.0
O716 O 0.8975 0.31208 0.29218 0.0
O717 O 0.85707 0.27106 0.29358 0.0
O718 O 0.91292 0.37447 0.25828 0.0
O719 O 0.90509 0.40227 0.30505 0.0
O720 O 0.85239 0.34841 0.22831 0.0
O721 O 0.84987 0.30812 0.25345 0.0
O722 O 0.8036 0.35384 0.28857 0.0
O723 O 0.84324 0.39348 0.28252 0.0
O724 O 0.78821 0.28604 0.31796 0.0
O725 O 0.79237 0.26659 0.26634 0.0
O726 O 0.8463 0.31564 0.34884 0.0
O727 O 0.85086 0.35528 0.32282 0.0
H728 H 0.94546 0.4198 0.34988 0.0
H729 H 0.99135 0.4157 0.37786 0.0
H730 H 1.01494 0.37524 0.28306 0.0
H731 H 0.968 0.37813 0.25482 0.0
H732 H 0.76671 0.30958 0.24642 0.0
H733 H 0.72116 0.31949 0.22348 0.0
H734 H 0.67546 0.2525 0.2814 0.0
H735 H 0.72186 0.243 0.30549 0.0
Ho736 Ho 0.10411 0.56791 0.56667 0.0
Ho737 Ho 0.09299 0.60776 0.51422 0.0
C738 C 0.04782 0.54181 0.50894 0.0
C739 C 0.09741 0.54136 0.61859 0.0
C740 C 0.07081 0.5271 0.63063 0.0
C741 C 0.04424 0.53106 0.61583 0.0
C742 C 1.01906 0.5202 0.62927 0.0
C743 C 1.02063 0.50681 0.65854 0.0
C744 C 0.04671 0.49949 0.67094 0.0
C745 C 0.07175 0.50963 0.65696 0.0
C746 C 0.12771 0.54177 0.51511 0.0
C747 C 0.15768 0.61812 0.55357 0.0
C748 C 0.09785 0.65472 0.47928 0.0
C749 C 0.1213 0.67044 0.4625 0.0
C750 C 0.15006 0.67014 0.4735 0.0
C751 C 0.17017 0.67105 0.45103 0.0
C752 C 0.1615 0.67275 0.41783 0.0
C753 C 0.13473 0.68033 0.40911 0.0
C754 C 0.11437 0.67847 0.43129 0.0
C755 C 0.06362 0.61569 0.56726 0.0
O756 O 0.05933 0.54331 0.53999 0.0
O757 O 0.05941 0.56243 0.49001 0.0
O758 O 0.10097 0.52454 0.5901 0.0
O759 O 0.10298 0.57408 0.61989 0.0
O760 O 0.12851 0.53277 0.54382 0.0
O761 O 0.11503 0.56593 0.5147 0.0
O762 O 0.14123 0.61762 0.52562 0.0
O763 O 0.14715 0.60417 0.57781 0.0
O764 O 0.10268 0.66077 0.51194 0.0
O765 O 0.08644 0.62277 0.46652 0.0
O766 O 0.05261 0.61187 0.53651 0.0
O767 O 0.08998 0.61515 0.56823 0.0
H768 H 0.04317 0.54442 0.59532 0.0
H769 H 0.99913 0.52577 0.61917 0.0
H770 H 0.04852 0.48923 0.69359 0.0
H771 H 0.09207 0.50574 0.66799 0.0
H772 H 0.15626 0.6656 0.4981 0.0
H773 H 0.19093 0.66571 0.45833 0.0
H774 H 0.12795 0.68215 0.38356 0.0
H775 H 0.09239 0.67934 0.42265 0.0
Ho776 Ho 0.82677 0.84812 0.29776 0.0
Ho777 Ho 0.87903 0.81798 0.29282 0.0
C778 C 0.86813 0.8503 0.36514 0.0
C779 C 0.77611 0.85932 0.30583 0.0
C780 C 0.7499 0.84945 0.32156 0.0
C781 C 0.7485 0.82862 0.34558 0.0
C782 C 0.72322 0.82076 0.36046 0.0
C783 C 0.69912 0.8339 0.35177 0.0
C784 C 0.70118 0.85557 0.32846 0.0
C785 C 0.72616 0.86297 0.31336 0.0
C786 C 0.87191 0.90132 0.28983 0.0
C787 C 0.83961 0.81868 0.2246 0.0
C788 C 0.92909 0.80568 0.28314 0.0
C789 C 0.95376 0.81557 0.2649 0.0
C790 C 0.95973 0.84658 0.25407 0.0
C791 C 0.9834 0.85496 0.23675 0.0
C792 C 1.00132 0.83227 0.22977 0.0
C793 C 0.99482 0.80099 0.24008 0.0
C794 C 0.97135 0.7928 0.25753 0.0
C795 C 0.83354 0.76558 0.30261 0.0
O796 O 0.8412 0.84714 0.3517 0.0
O797 O 0.88822 0.8441 0.34669 0.0
O798 O 0.79979 0.87479 0.32587 0.0
O799 O 0.78069 0.83803 0.28062 0.0
O800 O 0.84528 0.90217 0.29201 0.0
O801 O 0.87324 0.87055 0.29097 0.0
O802 O 0.86578 0.81991 0.23911 0.0
O803 O 0.81931 0.82545 0.24263 0.0
O804 O 0.90481 0.78935 0.26473 0.0
O805 O 0.92531 0.82766 0.30829 0.0
O806 O 0.86016 0.76433 0.30085 0.0
O807 O 0.83283 0.79626 0.30065 0.0
H808 H 0.76686 0.81843 0.35272 0.0
H809 H 0.7224 0.80419 0.37851 0.0
H810 H 0.68356 0.86721 0.32212 0.0
H811 H 0.72707 0.87974 0.29548 0.0
H812 H 0.94611 0.86417 0.25901 0.0
H813 H 0.98759 0.87904 0.22862 0.0
H814 H 1.00824 0.78304 0.23516 0.0
H815 H 0.96696 0.76859 0.26539 0.0
Ho816 Ho 0.8693 0.33914 0.7758 0.0
Ho817 Ho 0.8336 0.35028 0.82299 0.0
C818 C 0.88429 0.40939 0.82736 0.0
C819 C 0.90296 0.34259 0.72987 0.0
C820 C 0.91708 0.37062 0.71529 0.0
C821 C 0.91699 0.40386 0.7299 0.0
C822 C 0.91794 0.42843 0.71024 0.0
C823 C 0.91934 0.41966 0.67616 0.0
C824 C 0.92558 0.3886 0.66337 0.0
C825 C 0.92393 0.36377 0.68286 0.0
C826 C 0.88942 0.31722 0.8308 0.0
C827 C 0.82393 0.27751 0.78282 0.0
C828 C 0.79724 0.34121 0.86478 0.0
C829 C 0.7927 0.31279 0.88209 0.0
C830 C 0.8155 0.29681 0.88737 0.0
C831 C 0.8108 0.26676 0.89914 0.0
C832 C 0.7832 0.25204 0.9058 0.0
C833 C 0.76029 0.26795 0.90039 0.0
C834 C 0.76498 0.29809 0.88822 0.0
C835 C 0.81414 0.36962 0.76529 0.0
O836 O 0.88189 0.39536 0.79561 0.0
O837 O 0.86755 0.39502 0.84671 0.0
O838 O 0.91205 0.34355 0.76102 0.0
O839 O 0.87481 0.33512 0.72365 0.0
O840 O 0.88575 0.30082 0.80036 0.0
O841 O 0.87942 0.34364 0.83114 0.0
O842 O 0.82859 0.29466 0.81334 0.0
O843 O 0.83514 0.2916 0.75922 0.0
O844 O 0.78997 0.33214 0.83262 0.0
O845 O 0.82242 0.36239 0.87284 0.0
O846 O 0.81752 0.38743 0.79511 0.0
O847 O 0.82358 0.34338 0.76738 0.0
H848 H 0.91272 0.40998 0.75519 0.0
H849 H 0.91333 0.45241 0.72046 0.0
H850 H 0.92683 0.38167 0.63694 0.0
H851 H 0.92442 0.33832 0.67137 0.0
H852 H 0.83697 0.30738 0.88205 0.0
H853 H 0.82911 0.25578 0.90426 0.0
H854 H 0.73899 0.25741 0.90611 0.0
H855 H 0.74705 0.30974 0.88334 0.0
Ho856 Ho 0.86803 0.86136 0.81349 0.0
Ho857 Ho 0.83129 0.80238 0.77158 0.0
C858 C 0.80033 0.85635 0.80158 0.0
C859 C 0.89178 0.92311 0.8395 0.0
C860 C 0.88176 0.95132 0.82835 0.0
C861 C 0.87654 0.95096 0.79383 0.0
C862 C 0.85673 0.96784 0.78156 0.0
C863 C 0.8418 0.98515 0.80351 0.0
C864 C 0.84937 0.98884 0.83814 0.0
C865 C 0.86941 0.97209 0.85053 0.0
C866 C 0.85322 0.81114 0.84918 0.0
C867 C 0.89902 0.80785 0.78279 0.0
C868 C 0.80878 0.74103 0.74313 0.0
C869 C 0.81999 0.71256 0.75158 0.0
C870 C 0.82799 0.71207 0.78541 0.0
C871 C 0.84599 0.69178 0.79438 0.0
C872 C 0.85622 0.67131 0.76976 0.0
C873 C 0.84762 0.67069 0.73588 0.0
C874 C 0.82945 0.69121 0.7268 0.0
C875 C 0.84557 0.85361 0.73657 0.0
O876 O 0.82592 0.87645 0.8027 0.0
O877 O 0.79652 0.82361 0.79229 0.0
O878 O 0.87289 0.90427 0.85355 0.0
O879 O 0.90341 0.90509 0.81781 0.0
O880 O 0.87863 0.83111 0.85232 0.0
O881 O 0.83693 0.81873 0.82677 0.0
O882 O 0.87373 0.78732 0.78211 0.0
O883 O 0.90208 0.84048 0.79124 0.0
O884 O 0.82669 0.76151 0.72952 0.0
O885 O 0.79734 0.75716 0.76657 0.0
O886 O 0.82026 0.83358 0.73377 0.0
O887 O 0.86189 0.84507 0.75827 0.0
H888 H 0.88556 0.93509 0.77594 0.0
H889 H 0.85147 0.96525 0.7548 0.0
H890 H 0.83856 1.00299 0.85549 0.0
H891 H 0.87302 0.97261 0.87718 0.0
H892 H 0.82207 0.7291 0.80517 0.0
H893 H 0.85305 0.69332 0.82068 0.0
H894 H 0.85559 0.65515 0.71662 0.0
H895 H 0.82426 0.692 0.70063 0.0
Ho896 Ho 0.58616 0.56445 0.52304 0.0
Ho897 Ho 0.62655 0.60498 0.56103 0.0
C898 C 0.58722 0.6434 0.52528 0.0
C899 C 0.53428 0.53684 0.49355 0.0
C900 C 0.50847 0.54673 0.5049 0.0
C901 C 0.51074 0.56436 0.53778 0.0
C902 C 0.48861 0.57891 0.54825 0.0
C903 C 0.46372 0.57623 0.52596 0.0
C904 C 0.46076 0.55752 0.49335 0.0
C905 C 0.48319 0.543 0.48276 0.0
C906 C 0.63347 0.5684 0.48463 0.0
C907 C 0.62273 0.52589 0.5628 0.0
C908 C 0.67918 0.63302 0.58858 0.0
C909 C 0.70495 0.62102 0.58015 0.0
C910 C 0.7015 0.59271 0.55468 0.0
C911 C 0.7251 0.57976 0.54667 0.0
C912 C 0.75303 0.59558 0.56301 0.0
C913 C 0.75665 0.62448 0.58813 0.0
C914 C 0.73265 0.63693 0.59688 0.0
C915 C 0.58027 0.60245 0.60016 0.0
O916 O 0.57055 0.61293 0.52104 0.0
O917 O 0.61369 0.64774 0.5399 0.0
O918 O 0.55164 0.56037 0.48288 0.0
O919 O 0.54829 0.52289 0.5141 0.0
O920 O 0.61454 0.5416 0.48707 0.0
O921 O 0.62623 0.59256 0.50397 0.0
O922 O 0.63949 0.55637 0.56896 0.0
O923 O 0.59746 0.52128 0.54499 0.0
O924 O 0.66115 0.61265 0.60202 0.0
O925 O 0.66587 0.64371 0.56472 0.0
O926 O 0.59953 0.6289 0.59738 0.0
O927 O 0.58602 0.57753 0.58012 0.0
H928 H 0.53022 0.56801 0.55505 0.0
H929 H 0.49129 0.59313 0.57351 0.0
H930 H 0.44172 0.55546 0.47574 0.0
H931 H 0.48126 0.53001 0.45715 0.0
H932 H 0.68047 0.5805 0.54082 0.0
H933 H 0.72142 0.5572 0.52761 0.0
H934 H 0.77797 0.6377 0.60069 0.0
H935 H 0.73574 0.659 0.61641 0.0
Ho936 Ho 0.1309 0.58466 0.0328 0.0
Ho937 Ho 0.06813 0.58467 0.04963 0.0
C938 C 0.08072 0.51407 1.01872 0.0
C939 C 0.18301 0.57651 0.0305 0.0
C940 C 0.20179 0.55294 0.03502 0.0
C941 C 0.2006 0.53466 0.06124 0.0
C942 C 0.22155 0.51623 0.06734 0.0
C943 C 0.24395 0.51605 0.04743 0.0
C944 C 0.24431 0.5333 1.02055 0.0
C945 C 0.22341 0.55147 1.01438 0.0
C946 C 0.09629 0.60272 0.98711 0.0
C947 C 0.11622 0.65563 0.06043 0.0
C948 C 1.01724 0.59282 0.06015 0.0
C949 C 0.997 0.61478 0.05637 0.0
C950 C 0.99926 0.63713 0.03374 0.0
C951 C 0.97765 0.65491 0.02869 0.0
C952 C 0.9537 0.65056 0.04633 0.0
C953 C 0.95257 0.62972 0.07032 0.0
C954 C 0.97392 0.61187 0.07511 0.0
C955 C 0.1048 0.56716 0.09403 0.0
O956 O 0.10877 0.52874 0.02677 0.0
O957 O 0.06053 0.53167 1.02111 0.0
O958 O 0.16316 0.56834 1.00428 0.0
O959 O 0.17425 0.59092 0.05726 0.0
O960 O 0.1242 0.61342 0.99159 0.0
O961 O 0.08871 0.58049 1.00416 0.0
O962 O 0.08842 0.64029 0.05198 0.0
O963 O 0.13693 0.63862 0.05906 0.0
O964 O 0.04035 0.605 0.08219 0.0
O965 O 1.02223 0.57477 0.03289 0.0
O966 O 0.07728 0.55401 0.08898 0.0
O967 O 0.11048 0.59001 0.0776 0.0
H968 H 0.18413 0.53551 0.07759 0.0
H969 H 0.22093 0.50329 0.08835 0.0
H970 H 0.26123 0.53335 1.00472 0.0
H971 H 0.22475 0.56543 0.99412 0.0
H972 H 1.01727 0.64033 1.01955 0.0
H973 H 0.9791 0.67104 1.01023 0.0
H974 H 0.9347 0.62656 0.08482 0.0
H975 H 0.972 0.59507 0.09298 0.0
C976 C 0.08072 0.2193 0.98124 0.0
C977 C 0.05671 0.23001 0.99329 0.0
C978 C 0.09096 0.19233 0.99209 0.0
C979 C 0.07726 0.17414 1.0148 0.0
H980 H 0.09216 0.23233 0.96383 0.0
H981 H 0.10958 0.18539 0.98224 0.0
S982 S 1.01456 0.19222 0.05506 0.0
N983 N 1.02034 0.22022 0.03049 0.0
N984 N 0.03888 0.16941 0.0495 0.0
C985 C 0.05322 0.18429 0.02678 0.0
C986 C 0.0432 0.21215 1.01643 0.0
C987 C 0.26876 0.87291 0.18078 0.0
C988 C 0.24023 0.87252 0.18805 0.0
C989 C 0.2912 0.87035 0.20502 0.0
C990 C 0.28644 0.86756 0.23797 0.0
H991 H 0.27392 0.87509 0.15594 0.0
H992 H 0.31257 0.87095 0.19796 0.0
S993 S 0.21574 0.86222 0.27007 0.0
N994 N 0.20869 0.86682 0.23102 0.0
N995 N 0.25053 0.86261 0.27605 0.0
C996 C 0.25807 0.86661 0.24556 0.0
C997 C 0.23517 0.86894 0.22088 0.0
C998 C 0.54109 0.92513 0.47315 0.0
C999 C 0.55731 0.90291 0.48353 0.0
C1000 C 0.54888 0.96 0.4866 0.0
C1001 C 0.57388 0.97431 0.51006 0.0
H1002 H 0.52241 0.91551 0.45414 0.0
H1003 H 0.53576 0.97606 0.4776 0.0
S1004 S 0.62395 0.92713 0.54518 0.0
N1005 N 0.59931 0.89768 0.51909 0.0
N1006 N 0.61453 0.9632 0.54335 0.0
C1007 C 0.59022 0.95232 0.52069 0.0
C1008 C 0.58181 0.91667 0.5077 0.0
C1009 C 0.58104 0.34318 0.71692 0.0
C1010 C 0.58006 0.34892 0.68391 0.0
C1011 C 0.55593 0.33701 0.73223 0.0
C1012 C 0.52866 0.33636 0.71529 0.0
H1013 H 0.60143 0.34351 0.73127 0.0
H1014 H 0.55796 0.33296 0.75776 0.0
S1015 S 0.51372 0.34837 0.62798 0.0
N1016 N 0.54913 0.35273 0.63439 0.0
N1017 N 0.50193 0.34088 0.66324 0.0
C1018 C 0.5272 0.34185 0.6822 0.0
C1019 C 0.55285 0.3481 0.66649 0.0
C1020 C 0.03868 0.85084 0.60161 0.0
C1021 C 0.04369 0.858 0.63673 0.0
C1022 C 0.05232 0.87316 0.58288 0.0
C1023 C 0.07147 0.90353 0.59858 0.0
H1024 H 1.02447 0.82734 0.58838 0.0
H1025 H 0.04775 0.86665 0.55587 0.0
S1026 S 0.0926 0.93405 0.68977 0.0
N1027 N 0.06946 0.89737 0.68662 0.0
N1028 N 0.09502 0.94003 0.65109 0.0
C1029 C 0.07642 0.91149 0.6337 0.0
C1030 C 0.0625 0.88854 0.6529 0.0
C1031 C 0.58735 0.90773 0.85321 0.0
C1032 C 0.5857 0.89683 0.88396 0.0
C1033 C 0.56238 0.90589 0.83171 0.0
C1034 C 0.53528 0.89216 0.83998 0.0
H1035 H 0.60801 0.91933 0.84649 0.0
H1036 H 0.56416 0.91641 0.8092 0.0
S1037 S 0.51955 0.85615 0.91515 0.0
N1038 N 0.55513 0.8694 0.92029 0.0
N1039 N 0.50782 0.86503 0.87906 0.0
C1040 C 0.53333 0.87925 0.86954 0.0
C1041 C 0.55873 0.88182 0.89184 0.0
C1042 C 0.55182 0.17341 0.14075 0.0
C1043 C 0.52386 0.17725 0.1304 0.0
C1044 C 0.56383 0.1497 0.12164 0.0
C1045 C 0.54775 0.12899 0.09236 0.0
H1046 H 0.56609 0.19232 0.16021 0.0
H1047 H 0.58665 0.15062 0.12748 0.0
S1048 S 0.47056 0.12153 0.06208 0.0
N1049 N 0.47842 0.15316 0.09441 0.0
N1050 N 0.50032 0.10739 0.05935 0.0
C1051 C 0.51815 0.12828 0.0858 0.0
C1052 C 0.50621 0.1527 0.10486 0.0
C1053 C 0.26418 0.39839 0.36754 0.0
C1054 C 0.23481 0.38668 0.35434 0.0
C1055 C 0.28566 0.38904 0.34988 0.0
C1056 C 0.27847 0.36731 0.31863 0.0
H1057 H 0.27071 0.41434 0.39204 0.0
H1058 H 0.30795 0.39749 0.36162 0.0
S1059 S 0.20514 0.33175 0.27179 0.0
N1060 N 0.19976 0.35409 0.30697 0.0
N1061 N 0.24048 0.33581 0.27414 0.0
C1062 C 0.24937 0.35626 0.30456 0.0
C1063 C 0.22742 0.36618 0.32233 0.0
C1064 C 0.04453 0.13024 0.18374 0.0
C1065 C 1.02442 0.10131 0.18921 0.0
C1066 C 0.06049 0.13043 0.15518 0.0
C1067 C 0.05867 0.10152 0.12956 0.0
H1068 H 0.04904 0.15302 0.2026 0.0
H1069 H 0.07534 0.15378 0.15383 0.0
S1070 S 1.00986 1.01833 0.13041 0.0
N1071 N 1.00449 0.04229 0.16465 0.0
N1072 N 1.03366 0.04268 0.11289 0.0
C1073 C 0.03856 0.07252 0.13458 0.0
C1074 C 1.02214 0.0724 0.1635 0.0
C1075 C 0.29948 0.68677 0.45038 0.0
C1076 C 0.32558 0.70422 0.47028 0.0
C1077 C 0.28472 0.70326 0.42949 0.0
C1078 C 0.29563 0.73745 0.42872 0.0
H1079 H 0.28941 0.66134 0.45285 0.0
H1080 H 0.26419 0.6898 0.4153 0.0
S1081 S 0.36588 0.79167 0.47158 0.0
N1082 N 0.36372 0.75548 0.48455 0.0
N1083 N 0.33609 0.78639 0.44529 0.0
C1084 C 0.32299 0.75396 0.44624 0.0
C1085 C 0.33796 0.73728 0.46711 0.0
C1086 C 0.67146 0.09447 0.66211 0.0
C1087 C 0.66661 0.06797 0.67986 0.0
C1088 C 0.6534 0.09323 0.63295 0.0
C1089 C 0.62991 0.06555 0.6211 0.0
H1090 H 0.68767 0.11751 0.67239 0.0
H1091 H 0.65654 0.11522 0.62121 0.0
S1092 S 0.61279 0.98668 0.65457 0.0
N1093 N 0.64027 1.0112 0.68113 0.0
N1094 N 0.60603 1.0086 0.62553 0.0
C1095 C 0.62678 0.03743 0.63668 0.0
C1096 C 0.64529 0.03872 0.66644 0.0
C1097 C 0.375 0.35899 0.96121 0.0
C1098 C 0.38494 0.39421 0.97222 0.0
C1099 C 0.36979 0.34436 0.92677 0.0
C1100 C 0.37467 0.36438 0.90218 0.0
H1101 H 0.3701 0.34276 0.97918 0.0
H1102 H 0.36125 0.31737 0.91932 0.0
S1103 S 0.40255 0.45715 0.91743 0.0
N1104 N 0.40083 0.44822 0.95517 0.0
N1105 N 0.39121 0.42071 0.89116 0.0
C1106 C 0.38554 0.39926 0.91285 0.0
C1107 C 0.39066 0.41415 0.94765 0.0
C1108 C 1.02056 0.12151 0.407 0.0
C1109 C 1.02129 0.10286 0.37467 0.0
C1110 C 0.03695 0.11756 0.43716 0.0
C1111 C 0.05486 0.09387 0.43789 0.0
H1112 H 1.00749 0.14008 0.4091 0.0
H1113 H 0.0352 0.13324 0.46046 0.0
S1114 S 0.06386 0.03681 0.36089 0.0
N1115 N 0.04201 0.05898 0.34644 0.0
N1116 N 0.07087 0.05056 0.40172 0.0
C1117 C 0.05525 0.07456 0.40578 0.0
C1118 C 0.03923 0.07928 0.37498 0.0
C1119 C 0.31895 0.74973 0.65531 0.0
C1120 C 0.34437 0.74316 0.64365 0.0
C1121 C 0.32033 0.77355 0.68412 0.0
C1122 C 0.34715 0.79115 0.70177 0.0
H1123 H 0.29804 0.73846 0.64048 0.0
H1124 H 0.30051 0.77924 0.69178 0.0
S1125 S 0.4193 0.77791 0.68553 0.0
N1126 N 0.39658 0.7524 0.65426 0.0
N1127 N 0.39924 0.79681 0.70949 0.0
C1128 C 0.37249 0.78237 0.69238 0.0
C1129 C 0.37108 0.75823 0.66293 0.0
C1130 C 0.72469 0.15249 0.86487 0.0
C1131 C 0.7137 0.1178 0.85249 0.0
C1132 C 0.71246 0.16948 0.89028 0.0
C1133 C 0.68954 0.15181 0.90399 0.0
H1134 H 0.74111 0.16695 0.85315 0.0
H1135 H 0.71969 0.19657 0.89787 0.0
S1136 S 0.65483 0.06061 0.8814 0.0
N1137 N 0.67987 0.06631 0.85647 0.0
N1138 N 0.65758 0.09786 0.90512 0.0
C1139 C 0.67982 0.11679 0.89324 0.0
C1140 C 0.69178 0.09981 0.86716 0.0
C1141 C 0.38888 0.39339 0.18014 0.0
C1142 C 0.37488 0.38228 0.14691 0.0
C1143 C 0.37796 0.37893 0.20698 0.0
C1144 C 0.35217 0.35342 0.2018 0.0
H1145 H 0.40894 0.41247 0.18525 0.0
H1146 H 0.39045 0.38696 0.23153 0.0
S1147 S 0.3086 0.31432 0.11876 0.0
N1148 N 0.33503 0.34318 0.11028 0.0
N1149 N 0.31392 0.31715 0.15965 0.0
C1150 C 0.33819 0.34244 0.16844 0.0
C1151 C 0.34959 0.3566 0.1414 0.0
C1152 C 0.28334 1.02262 0.0404 0.0
C1153 C 0.31312 0.03764 0.0472 0.0
C1154 C 0.26287 0.04069 0.04988 0.0
C1155 C 0.27138 0.07438 0.06685 0.0
H1156 H 0.2756 0.99691 0.02679 0.0
H1157 H 0.24014 1.02831 0.04352 0.0
S1158 S 0.34656 0.1246 0.09299 0.0
N1159 N 0.35018 0.08762 0.07354 0.0
N1160 N 0.3114 0.12169 0.09165 0.0
C1161 C 0.30103 0.0894 0.075 0.0
C1162 C 0.322 0.07102 0.06501 0.0
C1163 C 0.71719 0.65813 0.98917 0.0
C1164 C 0.72196 0.69 1.01001 0.0
C1165 C 0.69322 0.63193 0.99057 0.0
C1166 C 0.6732 0.636 1.01337 0.0
H1167 H 0.73199 0.65343 0.97146 0.0
H1168 H 0.69057 0.60802 0.97372 0.0
S1169 S 0.67913 0.71286 0.07738 0.0
N1170 N 0.70604 0.72339 0.0559 0.0
N1171 N 0.66255 0.67359 0.06007 0.0
C1172 C 0.67851 0.66739 0.03519 0.0
C1173 C 0.70244 0.69442 0.03312 0.0
C1174 C 0.7936 0.4769 0.28923 0.0
C1175 C 0.76362 0.47276 0.29346 0.0
C1176 C 0.80919 0.44983 0.28664 0.0
C1177 C 0.7967 0.41529 0.28796 0.0
H1178 H 0.80565 0.50192 0.28801 0.0
H1179 H 0.83185 0.45645 0.28369 0.0
S1180 S 0.71883 0.38815 0.2988 0.0
N1181 N 0.72249 0.42891 0.29876 0.0
N1182 N 0.75077 0.37985 0.29416 0.0
C1183 C 0.76669 0.41067 0.29219 0.0
C1184 C 0.75075 0.43834 0.29481 0.0
C1185 C 0.96706 0.52397 0.49528 0.0
C1186 C 0.95929 0.49059 0.50084 0.0
C1187 C 0.99596 0.53956 0.49452 0.0
C1188 C 1.01799 0.52239 0.49954 0.0
H1189 H 0.95088 0.53855 0.49233 0.0
H1190 H 1.00124 0.56589 0.49219 0.0
S1191 S 1.00962 0.43445 0.51264 0.0
N1192 N 0.97638 0.44034 0.50921 0.0
N1193 N 1.03065 0.47038 0.50849 0.0
C1194 C 1.01063 0.48884 0.50375 0.0
C1195 C 0.98127 0.47273 0.5042 0.0
C1196 C 0.39805 0.10235 0.28456 0.0
C1197 C 0.42696 0.12066 0.29334 0.0
C1198 C 0.37681 0.11716 0.27172 0.0
C1199 C 0.38389 0.15069 0.26732 0.0
H1200 H 0.39137 0.07698 0.28936 0.0
H1201 H 0.35444 0.10327 0.26787 0.0
S1202 S 0.45705 0.20714 0.28008 0.0
N1203 N 0.46226 0.17221 0.29194 0.0
N1204 N 0.42196 0.20031 0.26777 0.0
C1205 C 0.41306 0.16817 0.27277 0.0
C1206 C 0.43478 0.15303 0.28579 0.0
C1207 C 0.4119 0.2159 0.53575 0.0
C1208 C 0.38357 0.1955 0.52948 0.0
C1209 C 0.43601 0.2019 0.54138 0.0
C1210 C 0.43248 0.16712 0.54097 0.0
H1211 H 0.41548 0.24289 0.53676 0.0
H1212 H 0.45744 0.21841 0.54674 0.0
S1213 S 0.3635 0.10227 0.52213 0.0
N1214 N 0.35387 0.13825 0.52077 0.0
N1215 N 0.39905 0.11232 0.53132 0.0
C1216 C 0.40447 0.1464 0.53373 0.0
C1217 C 0.38004 0.1605 0.52802 0.0
C1218 C 0.79586 0.67256 0.31099 0.0
C1219 C 0.7659 0.67145 0.31067 0.0
C1220 C 0.81677 0.70266 0.30876 0.0
C1221 C 0.80964 0.7342 0.30588 0.0
H1222 H 0.80341 0.64987 0.31298 0.0
H1223 H 0.83914 0.701 0.30916 0.0
S1224 S 0.73449 0.74611 0.30182 0.0
N1225 N 0.73076 0.70635 0.306 0.0
N1226 N 0.76938 0.76103 0.30172 0.0
C1227 C 0.77988 0.73345 0.30519 0.0
C1228 C 0.75852 0.70295 0.30757 0.0
C1229 C 0.93379 0.48776 0.8802 0.0
C1230 C 0.96084 0.48585 0.86986 0.0
C1231 C 0.90893 0.46248 0.86697 0.0
C1232 C 0.91044 0.43488 0.84277 0.0
H1233 H 0.93139 0.51042 0.89619 0.0
H1234 H 0.88825 0.4655 0.87421 0.0
S1235 S 0.97673 0.41391 0.81349 0.0
N1236 N 0.98819 0.45112 0.83845 0.0
N1237 N 0.94149 0.40345 0.81406 0.0
C1238 C 0.93768 0.43077 0.83514 0.0
C1239 C 0.96298 0.45622 0.84884 0.0
C1240 C 0.12791 0.93853 0.07605 0.0
C1241 C 0.14949 0.94549 0.10413 0.0
C1242 C 0.1191 0.96472 0.06194 0.0
C1243 C 0.13206 0.99919 0.07452 0.0
H1244 H 0.11696 0.91261 0.06557 0.0
H1245 H 0.10197 0.95786 0.04097 0.0
S1246 S 0.18983 1.03118 0.14734 0.0
N1247 N 0.18321 0.98973 0.14401 0.0
N1248 N 0.16802 0.03836 0.11684 0.0
C1249 C 0.15409 1.00633 0.1021 0.0
C1250 C 0.16238 0.97976 0.11703 0.0
C1251 C 0.94 0.32705 0.9129 0.0
C1252 C 0.96302 0.31247 0.90311 0.0
C1253 C 0.91647 0.32852 0.8897 0.0
C1254 C 0.91438 0.315 0.85548 0.0
H1255 H 0.94022 0.33793 0.93887 0.0
H1256 H 0.8997 0.34025 0.89873 0.0
S1257 S 0.96922 0.27557 0.8158 0.0
N1258 N 0.98229 0.28546 0.85589 0.0
N1259 N 0.93834 0.28759 0.81273 0.0
C1260 C 0.93727 0.3005 0.8452 0.0
C1261 C 0.96141 0.29941 0.86877 0.0
C1262 C 0.66149 0.24561 0.5768 0.0
C1263 C 0.64335 0.26445 0.59235 0.0
C1264 C 0.65261 0.21039 0.56597 0.0
C1265 C 0.62487 0.19227 0.56948 0.0
H1266 H 0.68298 0.25817 0.57322 0.0
H1267 H 0.66767 0.19734 0.55449 0.0
S1268 S 0.56854 0.22966 0.60767 0.0
N1269 N 0.5961 0.26224 0.61043 0.0
N1270 N 0.57913 0.19633 0.5895 0.0
C1271 C 0.60634 0.21085 0.5847 0.0
C1272 C 0.61564 0.24674 0.59632 0.0
C1273 C 0.64765 0.82304 0.41708 0.0
C1274 C 0.62007 0.815 0.39793 0.0
C1275 C 0.67308 0.82811 0.40199 0.0
C1276 C 0.67197 0.82572 0.36716 0.0
H1277 H 0.64966 0.82593 0.44403 0.0
H1278 H 0.69375 0.83498 0.41784 0.0
S1279 S 0.60531 0.80429 0.3056 0.0
N1280 N 0.59336 0.80425 0.34209 0.0
N1281 N 0.64091 0.81335 0.31385 0.0
C1282 C 0.64454 0.81701 0.3477 0.0
C1283 C 0.61869 0.81173 0.36302 0.0
C1284 C 0.17843 0.3087 0.47522 0.0
C1285 C 0.16114 0.31955 0.45147 0.0
C1286 C 0.16695 0.28101 0.48938 0.0
C1287 C 0.1377 0.26417 0.48071 0.0
H1288 H 0.2001 0.32342 0.48495 0.0
H1289 H 0.18029 0.2745 0.50914 0.0
S1290 S 0.08461 0.28042 0.41695 0.0
N1291 N 0.11449 0.30928 0.41722 0.0
N1292 N 0.09266 0.25758 0.4446 0.0
C1293 C 0.1209 0.27303 0.45512 0.0
C1294 C 0.13277 0.3007 0.44019 0.0
C1295 C 0.63873 0.27746 0.17759 0.0
C1296 C 0.61726 0.29124 0.192 0.0
C1297 C 0.66374 0.27586 0.19715 0.0
C1298 C 0.66817 0.28804 0.23172 0.0
H1299 H 0.6359 0.26687 0.15115 0.0
H1300 H 0.67968 0.26468 0.18521 0.0
S1301 S 0.61984 0.3283 0.28159 0.0
N1302 N 0.60268 0.31856 0.243 0.0
N1303 N 0.65027 0.31542 0.27974 0.0
C1304 C 0.64732 0.3023 0.24659 0.0
C1305 C 0.62171 0.304 0.22669 0.0
C1306 C 0.68512 1.01043 0.97 0.0
C1307 C 0.66988 0.99198 0.93943 0.0
C1308 C 0.67268 1.03185 0.99089 0.0
C1309 C 0.64443 1.03556 0.9821 0.0
H1310 H 0.70588 1.00613 0.9791 0.0
H1311 H 0.68458 0.04348 1.01533 0.0
S1312 S 0.59636 0.99464 0.90313 0.0
N1313 N 0.62605 0.98037 0.89982 0.0
N1314 N 0.60236 1.02097 0.93946 0.0
C1315 C 0.62971 1.01925 0.95039 0.0
C1316 C 0.64255 0.9973 0.92893 0.0
C1317 C 0.94576 0.80191 0.71484 0.0
C1318 C 0.96223 0.77932 0.72335 0.0
C1319 C 0.92549 0.81081 0.73469 0.0
C1320 C 0.92005 0.79636 0.76284 0.0
H1321 H 0.94969 0.81433 0.69379 0.0
H1322 H 0.91433 0.82969 0.72827 0.0
S1323 S 0.95703 0.73569 0.79555 0.0
N1324 N 0.97228 0.74304 0.7621 0.0
N1325 N 0.93215 0.75816 0.79825 0.0
C1326 C 0.93553 0.77288 0.77112 0.0
C1327 C 0.95717 0.76475 0.75159 0.0
C1328 C 0.16213 0.08491 0.8982 0.0
C1329 C 0.18459 0.06677 0.89428 0.0
C1330 C 0.14642 0.08715 0.92711 0.0
C1331 C 0.15092 0.07061 0.95471 0.0
H1332 H 0.15648 0.09791 0.87847 0.0
H1333 H 0.12983 0.10147 0.92722 0.0
S1334 S 0.20578 1.01819 0.95832 0.0
N1335 N 0.20955 1.03166 0.92277 0.0
N1336 N 0.18001 1.03422 0.97424 0.0
C1337 C 0.17292 0.05201 0.95083 0.0
C1338 C 0.1895 0.05058 0.92196 0.0
C1339 C 0.90093 0.47401 0.61574 0.0
C1340 C 0.87423 0.45392 0.59886 0.0
C1341 C 0.91524 0.46425 0.64269 0.0
C1342 C 0.90282 0.43456 0.65327 0.0
H1343 H 0.91232 0.49506 0.60581 0.0
H1344 H 0.9368 0.47842 0.65355 0.0
S1345 S 0.83098 0.37755 0.62171 0.0
N1346 N 0.83416 0.4064 0.59787 0.0
N1347 N 0.8608 0.38824 0.64886 0.0
C1348 C 0.8747 0.41673 0.63923 0.0
C1349 C 0.86031 0.42655 0.61196 0.0
C1350 C 0.55484 0.1346 0.42184 0.0
C1351 C 0.52669 0.11419 0.41663 0.0
C1352 C 0.57618 0.12942 0.44516 0.0
C1353 C 0.57015 0.10262 0.4625 0.0
H1354 H 0.5607 0.15357 0.4067 0.0
H1355 H 0.59772 0.14554 0.4486 0.0
S1356 S 0.50027 0.04031 0.45491 0.0
N1357 N 0.4936 0.06726 0.43119 0.0
N1358 N 0.53473 0.05372 0.47039 0.0
C1359 C 0.54211 0.08187 0.45701 0.0
C1360 C 0.52004 0.08872 0.43526 0.0
C1361 C 0.79784 0.79516 0.13585 0.0
C1362 C 0.81853 0.78689 0.1156 0.0
C1363 C 0.80478 0.80542 0.17082 0.0
C1364 C 0.83291 0.80855 0.18715 0.0
H1365 H 0.77594 0.79334 0.12457 0.0
H1366 H 0.78784 0.81093 0.18511 0.0
S1367 S 0.89566 0.79236 0.14491 0.0
N1368 N 0.86855 0.78368 0.11418 0.0
N1369 N 0.88201 0.80375 0.17935 0.0
C1370 C 0.85396 0.80089 0.16691 0.0
C1371 C 0.84668 0.78986 0.13138 0.0
C1372 C 0.14542 0.07635 0.70077 0.0
C1373 C 0.17187 0.06562 0.70696 0.0
C1374 C 0.1326 0.07945 0.6686 0.0
C1375 C 0.14434 0.07128 0.63876 0.0
H1376 H 0.13412 0.08329 0.72154 0.0
H1377 H 0.11281 0.08836 0.66722 0.0
S1378 S 0.21337 0.04224 0.63769 0.0
N1379 N 0.20945 0.04738 0.67779 0.0
N1380 N 0.18508 0.05171 0.61801 0.0
C1381 C 0.17045 0.05974 0.6438 0.0
C1382 C 0.18406 0.05725 0.67716 0.0
C1383 C 0.83289 0.40982 0.41022 0.0
C1384 C 0.859 0.43127 0.42638 0.0
C1385 C 0.83285 0.38105 0.38684 0.0
C1386 C 0.85892 0.37243 0.37985 0.0
H1387 H 0.81243 0.41499 0.41614 0.0
H1388 H 0.81234 0.36577 0.37363 0.0
S1389 S 0.93283 0.41956 0.41675 0.0
N1390 N 0.91143 0.44227 0.43361 0.0
N1391 N 0.91122 0.38679 0.39116 0.0
C1392 C 0.88507 0.39339 0.39605 0.0
C1393 C 0.88514 0.42321 0.41908 0.0
C1394 C 0.50913 0.99589 0.24405 0.0
C1395 C 0.49393 1.02087 0.2532 0.0
C1396 C 0.51411 0.98744 0.21113 0.0
C1397 C 0.50412 1.00388 0.18638 0.0
H1398 H 0.51945 0.98494 0.2629 0.0
H1399 H 0.52878 0.971 0.2062 0.0
S1400 S 0.45579 0.06349 0.19587 0.0
N1401 N 0.46333 0.05629 0.23389 0.0
N1402 N 0.47251 0.04001 0.17156 0.0
C1403 C 0.485 1.02481 0.19425 0.0
C1404 C 0.47993 1.03348 0.22789 0.0
C1405 C 0.84943 0.79023 0.93695 0.0
C1406 C 0.82171 0.76904 0.93442 0.0
C1407 C 0.85958 0.80299 0.90922 0.0
C1408 C 0.84225 0.79572 0.87775 0.0
H1409 H 0.86369 0.79645 0.96046 0.0
H1410 H 0.88115 0.81901 0.91266 0.0
S1411 S 0.76759 0.74214 0.85824 0.0
N1412 N 0.77721 0.74111 0.89788 0.0
N1413 N 0.7954 0.76652 0.84644 0.0
C1414 C 0.81427 0.77498 0.87514 0.0
C1415 C 0.80427 0.76126 0.9032 0.0
C1416 C 0.92116 0.14406 0.05551 0.0
C1417 C 0.89182 0.12763 0.04784 0.0
C1418 C 0.94268 0.12689 0.04749 0.0
C1419 C 0.93565 0.0931 0.0305 0.0
H1420 H 0.9275 0.17042 0.06754 0.0
H1421 H 0.96501 0.14039 0.05391 0.0
S1422 S 0.86172 0.03932 1.0039 0.0
N1423 N 0.85655 0.07596 1.02226 0.0
N1424 N 0.89712 0.04385 1.00639 0.0
C1425 C 0.90631 0.07644 1.02266 0.0
C1426 C 0.88437 0.09369 0.03155 0.0
C1427 C 0.47657 0.49819 0.03844 0.0
C1428 C 0.47576 0.47856 0.06362 0.0
C1429 C 0.50148 0.52306 0.03679 0.0
C1430 C 0.52657 0.5292 0.06019 0.0
H1431 H 0.45785 0.49416 1.01976 0.0
H1432 H 0.50092 0.53805 1.01742 0.0
S1433 S 0.53442 0.48718 0.1328 0.0
N1434 N 0.50171 0.46824 0.11333 0.0
N1435 N 0.54806 0.51525 0.11062 0.0
C1436 C 0.52575 0.51021 0.08577 0.0
C1437 C 0.50054 0.48474 0.08729 0.0
C1438 C 0.40705 0.68825 0.78337 0.0
C1439 C 0.43794 0.69336 0.78958 0.0
C1440 C 0.39135 0.71525 0.78581 0.0
C1441 C 0.40462 0.75073 0.7943 0.0
H1442 H 0.39436 0.66252 0.77659 0.0
H1443 H 0.368 0.70785 0.78052 0.0
S1444 S 0.48502 0.7805 0.81451 0.0
N1445 N 0.48072 0.73906 0.80599 0.0
N1446 N 0.45234 0.78807 0.80963 0.0
C1447 C 0.43555 0.75631 0.80058 0.0
C1448 C 0.45156 0.72868 0.79856 0.0
C1449 C 0.23483 0.66759 0.58 0.0
C1450 C 0.24753 0.65938 0.55108 0.0
C1451 C 0.20593 0.65251 0.58175 0.0
C1452 C 0.18899 0.62974 0.5542 0.0
H1453 H 0.24707 0.68643 0.60092 0.0
H1454 H 0.19642 0.66005 0.60392 0.0
S1455 S 0.21305 0.59925 0.47351 0.0
N1456 N 0.24201 0.62593 0.49546 0.0
N1457 N 0.18736 0.59879 0.49778 0.0
C1458 C 0.20189 0.62079 0.52557 0.0
C1459 C 0.23135 0.63538 0.52423 0.0
C1460 C 0.79729 1.0296 0.75279 0.0
C1461 C 0.77047 1.02286 0.76483 0.0
C1462 C 0.8202 1.01691 0.76515 0.0
C1463 C 0.81701 0.99711 0.78991 0.0
H1464 H 0.80118 0.04637 0.73508 0.0
H1465 H 0.84087 1.02372 0.75621 0.0
S1466 S 0.74999 0.96788 0.826 0.0
N1467 N 0.74106 0.99204 0.80023 0.0
N1468 N 0.78424 0.96781 0.82313 0.0
C1469 C 0.78977 0.98817 0.80045 0.0
C1470 C 0.76637 1.00098 0.7878 0.0
C1471 C 0.81303 0.99552 0.58129 0.0
C1472 C 0.81591 0.96732 0.55855 0.0
C1473 C 0.78903 1.00987 0.57682 0.0
C1474 C 0.76743 0.99695 0.54906 0.0
H1475 H 0.82954 1.00675 0.60252 0.0
H1476 H 0.78787 1.03193 0.5946 0.0
S1477 S 0.7648 0.92353 0.48222 0.0
N1478 N 0.79488 0.92682 0.50739 0.0
N1479 N 0.75016 0.95411 0.4989 0.0
C1480 C 0.7699 0.96857 0.52637 0.0
C1481 C 0.79403 0.95365 0.53115 0.0
C1482 C 0.4454 0.46532 0.78784 0.0
C1483 C 0.4377 0.49643 0.78398 0.0
C1484 C 0.42474 0.43451 0.78856 0.0
C1485 C 0.39454 0.43224 0.78556 0.0
H1486 H 0.46803 0.4646 0.79063 0.0
H1487 H 0.4327 0.41238 0.79193 0.0
S1488 S 0.36149 0.50511 0.77463 0.0
N1489 N 0.39646 0.52142 0.77688 0.0
N1490 N 0.35841 0.46524 0.77819 0.0
C1491 C 0.38651 0.46306 0.78149 0.0
C1492 C 0.40756 0.49432 0.78069 0.0
C1493 C 0.277 0.68759 0.28316 0.0
C1494 C 0.24977 0.68722 0.26621 0.0
C1495 C 0.30043 0.71474 0.28534 0.0
C1496 C 0.2975 0.74185 0.26987 0.0
H1497 H 0.28004 0.66707 0.29564 0.0
H1498 H 0.32066 0.71506 0.30008 0.0
S1499 S 0.23114 0.75341 0.22287 0.0
N1500 N 0.22118 0.71632 0.23395 0.0
N1501 N 0.26581 0.76761 0.2376 0.0
C1502 C 0.27069 0.74171 0.25233 0.0
C1503 C 0.24656 0.71429 0.25069 0.0
C1504 C 0.5853 0.73138 0.50483 0.0
C1505 C 0.55682 0.72744 0.48913 0.0
C1506 C 0.59482 0.70444 0.51654 0.0
C1507 C 0.57634 0.67206 0.51313 0.0
H1508 H 0.60029 0.75578 0.50868 0.0
H1509 H 0.61692 0.70917 0.5285 0.0
S1510 S 0.4998 0.64809 0.47247 0.0
N1511 N 0.51039 0.68839 0.47027 0.0
N1512 N 0.52796 0.63793 0.49152 0.0
C1513 C 0.54784 0.66779 0.49698 0.0
C1514 C 0.53818 0.69532 0.48528 0.0
C1515 C 0.74665 0.39121 0.72101 0.0
C1516 C 0.7426 0.37189 0.6884 0.0
C1517 C 0.77008 0.39105 0.74521 0.0
C1518 C 0.7903 0.37092 0.7384 0.0
H1519 H 0.73184 0.407 0.72778 0.0
H1520 H 0.77205 0.40653 0.76974 0.0
S1521 S 0.78785 0.31298 0.65809 0.0
N1522 N 0.76032 0.33064 0.65146 0.0
N1523 N 0.80324 0.32967 0.69677 0.0
C1524 C 0.78597 0.35085 0.7062 0.0
C1525 C 0.76253 0.3515 0.68139 0.0
C1526 C 0.08056 0.41993 1.00569 0.0
C1527 C 0.05611 0.405 0.98173 0.0
C1528 C 0.08833 0.45513 1.01761 0.0
C1529 C 0.07162 0.47668 1.00654 0.0
H1530 H 0.09448 0.40448 1.01423 0.0
H1531 H 0.10767 0.46554 0.03551 0.0
S1532 S 1.00504 0.44956 0.94441 0.0
N1533 N 1.01525 0.41416 0.94741 0.0
N1534 N 1.0289 0.47983 0.97055 0.0
C1535 C 0.04659 0.46172 0.98326 0.0
C1536 C 0.03915 0.42605 0.97062 0.0
C1537 C 0.05682 0.8248 0.16963 0.0
C1538 C 0.07865 0.85414 0.1818 0.0
C1539 C 1.03163 0.81816 0.18492 0.0
C1540 C 1.02713 0.84104 0.21242 0.0
H1541 H 0.05962 0.80641 0.14879 0.0
H1542 H 1.01561 0.79485 0.1753 0.0
S1543 S 0.07732 0.92256 0.25212 0.0
N1544 N 0.09397 0.90674 0.22195 0.0
N1545 N 0.04645 0.89482 0.25027 0.0
C1546 C 0.0485 0.87102 0.22401 0.0
C1547 C 0.07433 0.87739 0.20883 0.0
C1548 C 0.54684 0.3377 0.09199 0.0
C1549 C 0.54496 0.34811 0.12608 0.0
C1550 C 0.55953 0.36046 0.07309 0.0
C1551 C 0.57056 0.39446 0.08751 0.0
H1552 H 0.53819 0.31174 0.07951 0.0
H1553 H 0.55992 0.35162 0.04675 0.0
S1554 S 0.57332 0.43447 0.17595 0.0
N1555 N 0.55683 0.39458 0.1739 0.0
N1556 N 0.5806 0.43768 0.1378 0.0
C1557 C 0.56952 0.40535 0.12159 0.0
C1558 C 0.55669 0.38206 0.14105 0.0
C1559 C 0.06249 0.38418 0.39853 0.0
C1560 C 0.08795 0.40293 0.3902 0.0
C1561 C 0.03609 0.37999 0.37852 0.0
C1562 C 1.03453 0.39482 0.34999 0.0
H1563 H 0.06302 0.37271 0.42052 0.0
H1564 H 1.01667 0.36578 0.38578 0.0
S1565 S 0.09525 0.44658 0.31811 0.0
N1566 N 0.11036 0.43564 0.35139 0.0
N1567 N 0.06039 0.42915 0.31466 0.0
C1568 C 0.05994 0.41311 0.34117 0.0
C1569 C 0.0868 0.41686 0.36114 0.0
C1570 C 0.06086 0.67729 0.64439 0.0
C1571 C 0.03511 0.68703 0.63528 0.0
C1572 C 0.06885 0.65086 0.6241 0.0
C1573 C 0.0511 0.63346 0.59439 0.0
H1574 H 0.07673 0.69313 0.66453 0.0
H1575 H 0.09031 0.64666 0.62978 0.0
S1576 S 0.97798 0.64363 0.56503 0.0
N1577 N 0.98956 0.67336 0.59874 0.0
N1578 N 1.00379 0.62269 0.56116 0.0
C1579 C 1.02325 0.63943 0.58821 0.0
C1580 C 1.01537 0.66654 0.60867 0.0
C1581 C 0.72736 0.86125 0.82708 0.0
C1582 C 0.73468 0.88622 0.85631 0.0
C1583 C 0.74866 0.85274 0.80838 0.0
C1584 C 0.77783 0.86946 0.81786 0.0
H1585 H 0.70514 0.84751 0.81905 0.0
H1586 H 0.74233 0.83244 0.78678 0.0
S1587 S 0.80816 0.93705 0.89206 0.0
N1588 N 0.77305 0.92779 0.89366 0.0
N1589 N 0.81297 0.91216 0.85824 0.0
C1590 C 0.78532 0.89504 0.84654 0.0
C1591 C 0.76375 0.90327 0.86591 0.0
C1592 C 0.5207 0.57648 0.66165 0.0
C1593 C 0.52724 0.60261 0.69101 0.0
C1594 C 0.53698 0.57614 0.63317 0.0
C1595 C 0.56194 0.60169 0.63127 0.0
H1596 H 0.50302 0.555 0.66097 0.0
H1597 H 0.52992 0.55503 0.61247 0.0
S1598 S 0.59228 0.67382 0.70253 0.0
N1599 N 0.56356 0.65319 0.71613 0.0
N1600 N 0.59284 0.65317 0.66457 0.0
C1601 C 0.56899 0.62756 0.66074 0.0
C1602 C 0.55248 0.62774 0.68962 0.0
C1603 C 0.77991 0.21276 0.98065 0.0
C1604 C 0.79735 0.18959 0.97413 0.0
C1605 C 0.77143 0.2298 0.95613 0.0
C1606 C 0.78049 0.2243 0.92455 0.0
H1607 H 0.77486 0.22 1.00556 0.0
H1608 H 0.76079 0.25014 0.96329 0.0
S1609 S 0.81937 0.1594 0.89264 0.0
N1610 N 0.81814 0.15669 0.93233 0.0
N1611 N 0.80213 0.18896 0.8857 0.0
C1612 C 0.79416 0.19756 0.9163 0.0
C1613 C 0.80268 0.18006 0.94136 0.0
C1614 C 0.17213 0.58067 0.15436 0.0
C1615 C 0.16414 0.55607 0.17372 0.0
C1616 C 0.15321 0.58286 0.12715 0.0
C1617 C 0.12624 0.55986 0.11802 0.0
H1618 H 0.19127 0.60093 0.16282 0.0
H1619 H 0.15872 0.60449 0.11521 0.0
S1620 S 0.09904 0.48593 0.15601 0.0
N1621 N 0.13016 0.50528 0.17929 0.0
N1622 N 0.09499 0.50809 0.12641 0.0
C1623 C 0.11978 0.53259 0.13455 0.0
C1624 C 0.13881 0.53088 0.16282 0.0
C1625 C 0.87091 0.86099 0.45985 0.0
C1626 C 0.88729 0.89435 0.47115 0.0
C1627 C 0.86516 0.84646 0.42551 0.0
C1628 C 0.87634 0.86438 0.40141 0.0
H1629 H 0.8613 0.84658 0.47747 0.0
H1630 H 0.85155 0.82124 0.41772 0.0
S1631 S 0.9215 0.9517 0.41794 0.0
N1632 N 0.91498 0.94447 0.45531 0.0
N1633 N 0.9052 0.91672 0.39125 0.0
C1634 C 0.8936 0.89717 0.41248 0.0
C1635 C 0.89883 0.91225 0.44722 0.0
C1636 C 0.54877 0.59976 0.87944 0.0
C1637 C 0.51897 0.60102 0.8757 0.0
C1638 C 0.56424 0.59522 0.90995 0.0
C1639 C 0.55137 0.59194 0.93958 0.0
H1640 H 0.5606 0.60253 0.85842 0.0
H1641 H 0.58689 0.59486 0.91038 0.0
S1642 S 0.4734 0.58974 0.94385 0.0
N1643 N 0.47716 0.59581 0.90545 0.0
N1644 N 0.50564 0.58815 0.96138 0.0
C1645 C 0.52154 0.59256 0.93605 0.0
C1646 C 0.50571 0.59681 0.90492 0.0
C1647 C 0.86223 0.25007 0.16295 0.0
C1648 C 0.8475 0.25395 0.13304 0.0
C1649 C 0.85947 0.26935 0.19347 0.0
C1650 C 0.84179 0.2929 0.19486 0.0
H1651 H 0.87661 0.23291 0.16263 0.0
H1652 H 0.87216 0.26673 0.21591 0.0
S1653 S 0.79449 0.30769 0.12465 0.0
N1654 N 0.81148 0.27972 0.10738 0.0
N1655 N 0.80689 0.31607 0.1649 0.0
C1656 C 0.82573 0.29554 0.16555 0.0
C1657 C 0.8284 0.27597 0.13455 0.0
C1658 C 0.21546 0.64589 0.36331 0.0
C1659 C 0.19868 0.61558 0.34369 0.0
C1660 C 0.2033 0.66512 0.38721 0.0
C1661 C 0.17428 0.65436 0.39172 0.0
H1662 H 0.2375 0.65542 0.35915 0.0
H1663 H 0.2162 0.68876 0.40172 0.0
S1664 S 0.12231 0.57571 0.34787 0.0
N1665 N 0.15234 0.57503 0.33126 0.0
N1666 N 0.12976 0.61068 0.37632 0.0
C1667 C 0.15777 0.62357 0.3729 0.0
C1668 C 0.16996 0.60426 0.34882 0.0
C1669 C 0.86648 0.90571 0.66925 0.0
C1670 C 0.87651 0.88315 0.64579 0.0
C1671 C 0.85664 0.89632 0.69869 0.0
C1672 C 0.85635 0.86402 0.70589 0.0
H1673 H 0.86631 0.9309 0.66495 0.0
H1674 H 0.84906 0.91437 0.71582 0.0
S1675 S 0.87733 0.79418 0.65193 0.0
N1676 N 0.88368 0.82594 0.63175 0.0
N1677 N 0.86479 0.80871 0.68617 0.0
C1678 C 0.8655 0.84101 0.68243 0.0
C1679 C 0.8757 0.85046 0.65274 0.0
C1680 C 0.79981 0.55294 0.50858 0.0
C1681 C 0.82119 0.54798 0.53193 0.0
C1682 C 0.7788 0.56992 0.51886 0.0
C1683 C 0.77789 0.58162 0.55301 0.0
H1684 H 0.79897 0.54299 0.48222 0.0
H1685 H 0.76267 0.57312 0.49987 0.0
S1686 S 0.82889 0.57317 0.62394 0.0
N1687 N 0.84073 0.55569 0.59034 0.0
N1688 N 0.80035 0.58635 0.61014 0.0
C1689 C 0.79956 0.57706 0.5766 0.0
C1690 C 0.82137 0.56038 0.56594 0.0
C1691 C 0.20969 0.16257 0.47998 0.0
C1692 C 0.22425 0.18623 0.50844 0.0
C1693 C 0.18498 0.13748 0.48189 0.0
C1694 C 0.17384 0.13493 0.51235 0.0
H1695 H 0.21727 0.16367 0.45601 0.0
H1696 H 0.17439 0.12008 0.4592 0.0
S1697 S 0.20495 0.19037 0.59433 0.0
N1698 N 0.2262 0.20517 0.56803 0.0
N1699 N 0.18025 0.15827 0.57182 0.0
C1700 C 0.18857 0.15832 0.54103 0.0
C1701 C 0.21359 0.18386 0.539 0.0
C1702 C 0.29229 0.97663 0.78902 0.0
C1703 C 0.26262 0.9728 0.79456 0.0
C1704 C 0.30788 0.94955 0.78655 0.0
C1705 C 0.29567 0.91531 0.78918 0.0
H1706 H 0.3041 1.0014 0.78667 0.0
H1707 H 0.33031 0.95594 0.78258 0.0
S1708 S 0.21911 0.8896 0.8054 0.0
N1709 N 0.22239 0.92993 0.80359 0.0
N1710 N 0.25058 0.88076 0.79899 0.0
C1711 C 0.26602 0.91107 0.79494 0.0
C1712 C 0.25013 0.93878 0.79755 0.0
C1713 C 0.468 0.99429 1.01222 0.0
C1714 C 0.45046 1.0008 0.98573 0.0
C1715 C 0.49759 1.00849 1.01813 0.0
C1716 C 0.51084 1.02991 0.9978 0.0
H1717 H 0.45869 0.97805 0.02861 0.0
H1718 H 0.51003 1.00281 0.03918 0.0
S1719 S 0.47366 0.05443 0.9248 0.0
N1720 N 0.44761 1.0293 0.93867 0.0
N1721 N 0.50372 0.05674 0.94971 0.0
C1722 C 0.49339 0.03639 0.97087 0.0
C1723 C 0.46302 1.02171 0.96488 0.0
C1724 C 0.92648 0.64443 0.78396 0.0
C1725 C 0.92103 0.62455 0.80843 0.0
C1726 C 0.90474 0.65808 0.7699 0.0
C1727 C 0.8772 0.65241 0.78026 0.0
H1728 H 0.94755 0.64937 0.7756 0.0
H1729 H 0.90976 0.67409 0.75175 0.0
S1730 S 0.85184 0.60123 0.84256 0.0
N1731 N 0.88593 0.59923 0.84179 0.0
N1732 N 0.84519 0.62472 0.81506 0.0
C1733 C 0.87136 0.63194 0.80404 0.0
C1734 C 0.8933 0.61808 0.81828 0.0
C1735 C 0.90911 0.71528 0.03365 0.0
C1736 C 0.88058 0.69544 0.02743 0.0
C1737 C 0.93289 0.70068 0.03914 0.0
C1738 C 0.92887 0.6658 0.03861 0.0
H1739 H 0.91311 0.74231 0.03479 0.0
H1740 H 0.95446 0.71685 0.04453 0.0
S1741 S 0.85903 0.60226 1.01986 0.0
N1742 N 0.85007 0.63865 1.0188 0.0
N1743 N 0.89458 0.61151 0.02873 0.0
C1744 C 0.9006 0.64563 0.03135 0.0
C1745 C 0.8765 0.66037 0.02589 0.0
C1746 C 0.25989 0.20206 0.80799 0.0
C1747 C 0.26711 0.17092 0.81258 0.0
C1748 C 0.28081 0.23197 0.80548 0.0
C1749 C 0.31083 0.23344 0.80767 0.0
H1750 H 0.23741 0.20346 0.80586 0.0
H1751 H 0.27326 0.25409 0.80135 0.0
S1752 S 0.34275 0.16018 0.82025 0.0
N1753 N 0.30776 0.14486 0.8193 0.0
N1754 N 0.34635 0.19971 0.81523 0.0
C1755 C 0.31843 0.20259 0.81245 0.0
C1756 C 0.29708 0.17206 0.81472 0.0
C1757 C 0.44568 0.96883 0.32483 0.0
C1758 C 0.45328 0.98483 0.35835 0.0
C1759 C 0.42004 0.94452 0.3144 0.0
C1760 C 0.40119 0.93468 0.33721 0.0
H1761 H 0.45903 0.97629 0.30614 0.0
H1762 H 0.41523 0.9333 0.28814 0.0
S1763 S 0.4122 0.96861 0.42837 0.0
N1764 N 0.44047 0.98993 0.41452 0.0
N1765 N 0.39261 0.94222 0.39538 0.0
C1766 C 0.4089 0.95005 0.37113 0.0
C1767 C 0.43488 0.97566 0.38159 0.0
C1768 C 0.63783 0.4396 0.57461 0.0
C1769 C 0.64982 0.44536 0.60867 0.0
C1770 C 0.62874 0.46527 0.55989 0.0
C1771 C 0.63191 0.49822 0.57824 0.0
H1772 H 0.63472 0.41476 0.55932 0.0
H1773 H 0.61941 0.45933 0.53383 0.0
S1774 S 0.66101 0.52674 0.6682 0.0
N1775 N 0.66324 0.48686 0.66027 0.0
N1776 N 0.64736 0.53475 0.63255 0.0
C1777 C 0.64402 0.50435 0.61209 0.0
C1778 C 0.65261 0.47813 0.62725 0.0
C1779 C 0.43594 0.82216 0.41492 0.0
C1780 C 0.45999 0.81021 0.40422 0.0
C1781 C 0.4119 0.82345 0.39221 0.0
C1782 C 0.41026 0.81231 0.35753 0.0
H1783 H 0.4357 0.83104 0.44125 0.0
H1784 H 0.39432 0.83303 0.402 0.0
S1785 S 0.46771 0.7803 0.31559 0.0
N1786 N 0.48057 0.78826 0.35569 0.0
N1787 N 0.43585 0.79005 0.31354 0.0
C1788 C 0.4342 0.80045 0.34641 0.0
C1789 C 0.4588 0.79956 0.36947 0.0
C1790 C 0.11773 0.74975 0.0674 0.0
C1791 C 0.14025 0.76526 0.09367 0.0
C1792 C 0.10965 0.71429 0.0572 0.0
C1793 C 0.12442 0.69306 0.07218 0.0
H1794 H 0.10639 0.76516 0.05451 0.0
H1795 H 0.09223 0.70348 0.03684 0.0
S1796 S 0.18456 0.72126 0.14247 0.0
N1797 N 0.17654 0.7567 0.13506 0.0
N1798 N 0.16223 0.69046 0.11529 0.0
C1799 C 0.14692 0.70839 0.09854 0.0
C1800 C 0.15461 0.74436 0.10942 0.0
C1801 C 0.12501 0.29918 0.87308 0.0
C1802 C 0.12412 0.31795 0.90477 0.0
C1803 C 0.15042 0.30362 0.85795 0.0
C1804 C 0.17575 0.32733 0.87375 0.0
H1805 H 0.10586 0.28119 0.85966 0.0
H1806 H 0.14995 0.28913 0.83325 0.0
S1807 S 0.18528 0.38212 0.95733 0.0
N1808 N 0.15131 0.36067 0.95179 0.0
N1809 N 0.19876 0.36877 0.92336 0.0
C1810 C 0.17533 0.34575 0.90569 0.0
C1811 C 0.14962 0.34111 0.9212 0.0
C1812 C 0.68033 0.82177 0.99118 0.0
C1813 C 0.66495 0.82635 0.96194 0.0
C1814 C 0.66961 0.79498 1.00686 0.0
C1815 C 0.64313 0.77229 0.9938 0.0
H1816 H 0.69951 0.84051 1.0034 0.0
H1817 H 0.68123 0.79309 0.03031 0.0
S1818 S 0.59536 0.77262 0.91699 0.0
N1819 N 0.62284 0.80524 0.91953 0.0
N1820 N 0.60255 0.75475 0.94917 0.0
C1821 C 0.62854 0.77519 0.96334 0.0
C1822 C 0.63957 0.80234 0.94727 0.0
C1823 C 0.1183 0.79569 0.7396 0.0
C1824 C 0.11921 0.81518 0.71427 0.0
C1825 C 0.14373 0.79281 0.75767 0.0
C1826 C 0.17065 0.80954 0.75106 0.0
H1827 H 0.09807 0.7802 0.7436 0.0
H1828 H 0.1424 0.77508 0.77462 0.0
S1829 S 0.1845 0.8703 0.69392 0.0
N1830 N 0.14897 0.85647 0.68829 0.0
N1831 N 0.19696 0.85082 0.72239 0.0
C1832 C 0.17177 0.83215 0.72881 0.0
C1833 C 0.14593 0.83506 0.71033 0.0
C1834 C 0.18525 0.50137 0.48373 0.0
C1835 C 0.1759 0.49163 0.44937 0.0
C1836 C 0.17059 0.52023 0.50424 0.0
C1837 C 0.14604 0.53015 0.49115 0.0
H1838 H 0.20252 0.4919 0.49531 0.0
H1839 H 0.17757 0.52527 0.53094 0.0
S1840 S 0.11571 0.5158 0.40215 0.0
N1841 N 0.14302 0.49689 0.40227 0.0
N1842 N 0.11523 0.53289 0.44145 0.0
C1843 C 0.13824 0.52379 0.45648 0.0
C1844 C 0.15332 0.50436 0.43534 0.0
C1845 C 0.46801 0.28574 0.25644 0.0
C1846 C 0.46247 0.2759 0.22139 0.0
C1847 C 0.44604 0.29229 0.27506 0.0
C1848 C 0.41786 0.28835 0.25919 0.0
H1849 H 0.48968 0.28982 0.26947 0.0
H1850 H 0.45123 0.30126 0.3018 0.0
S1851 S 0.39214 0.26465 0.16831 0.0
N1852 N 0.42659 0.26326 0.17169 0.0
N1853 N 0.38546 0.27524 0.2069 0.0
C1854 C 0.41183 0.27786 0.22441 0.0
C1855 C 0.43413 0.27165 0.20541 0.0
C1856 C 0.69514 0.56087 0.42429 0.0
C1857 C 0.68452 0.56671 0.39228 0.0
C1858 C 0.67938 0.56223 0.45316 0.0
C1859 C 0.65159 0.57032 0.45349 0.0
H1860 H 0.71598 0.55442 0.42715 0.0
H1861 H 0.68926 0.55639 0.47573 0.0
S1862 S 0.61241 0.58784 0.3772 0.0
N1863 N 0.64269 0.58079 0.36422 0.0
N1864 N 0.61449 0.5838 0.41681 0.0
C1865 C 0.64078 0.57637 0.42178 0.0
C1866 C 0.65662 0.57458 0.39223 0.0
C1867 C 0.40616 0.97508 0.11986 0.0
C1868 C 0.39301 0.94748 0.09414 0.0
C1869 C 0.41599 0.96966 0.15146 0.0
C1870 C 0.41376 0.93674 0.15724 0.0
H1871 H 0.40927 1.00069 0.1154 0.0
H1872 H 0.42506 0.99094 0.17145 0.0
S1873 S 0.37616 0.85675 0.10018 0.0
N1874 N 0.3741 0.8866 0.07834 0.0
N1875 N 0.39432 0.87662 0.13678 0.0
C1876 C 0.39951 0.90921 0.13218 0.0
C1877 C 0.38869 0.91459 0.10079 0.0
C1878 C 1.02688 0.61065 0.94134 0.0
C1879 C 1.03453 0.61479 0.90982 0.0
C1880 C 0.0476 0.60819 0.96668 0.0
C1881 C 0.07648 0.61049 0.96165 0.0
H1882 H 1.00455 0.60707 0.94586 0.0
H1883 H 0.04087 0.60342 0.99008 0.0
S1884 S 0.10805 0.62493 0.88479 0.0
N1885 N 0.07333 0.62366 0.8755 0.0
N1886 N 0.11238 0.61975 0.92397 0.0
C1887 C 0.08486 0.617 0.93111 0.0
C1888 C 0.06375 0.61896 0.90496 0.0
C1889 C 0.33843 0.27343 0.63297 0.0
C1890 C 0.31896 0.28738 0.61448 0.0
C1891 C 0.34533 0.28332 0.66806 0.0
C1892 C 0.33274 0.3072 0.68646 0.0
H1893 H 0.3486 0.25478 0.62027 0.0
H1894 H 0.36034 0.27169 0.68092 0.0
S1895 S 0.28092 0.35205 0.65065 0.0
N1896 N 0.28763 0.32714 0.61795 0.0
N1897 N 0.30026 0.34501 0.6833 0.0
C1898 C 0.31329 0.32132 0.6684 0.0
C1899 C 0.30653 0.31164 0.6327 0.0
C1900 C 0.68889 0.57105 0.17777 0.0
C1901 C 0.67299 0.56192 0.204 0.0
C1902 C 0.67522 0.57467 0.14559 0.0
C1903 C 0.64464 0.57046 0.1373 0.0
H1904 H 0.71227 0.57688 0.18249 0.0
H1905 H 0.68903 0.58203 0.12734 0.0
S1906 S 0.59237 0.54579 0.19554 0.0
N1907 N 0.62391 0.54765 0.21712 0.0
N1908 N 0.59949 0.55572 0.15928 0.0
C1909 C 0.62875 0.56105 0.16307 0.0
C1910 C 0.64242 0.55663 0.19523 0.0
C1911 C 0.33153 0.89453 0.93168 0.0
C1912 C 0.34124 0.929 0.93065 0.0
C1913 C 0.33617 0.86943 0.90705 0.0
C1914 C 0.3503 0.87793 0.8802 0.0
H1915 H 0.32139 0.88692 0.95266 0.0
H1916 H 0.32828 0.84327 0.90892 0.0
S1917 S 0.37906 0.96465 0.86547 0.0
N1918 N 0.36525 0.97054 0.9008 0.0
N1919 N 0.37321 0.92332 0.85336 0.0
C1920 C 0.35938 0.9124 0.87834 0.0
C1921 C 0.35482 0.93799 0.90372 0.0
C1922 C 0.98472 0.49411 0.733 0.0
C1923 C 0.98492 0.5277 0.74642 0.0
C1924 C 0.99153 0.48562 0.70076 0.0
C1925 C 0.99957 0.51083 0.6819 0.0
H1926 H 0.98206 0.47509 0.74858 0.0
H1927 H 0.9941 0.46024 0.69229 0.0
S1928 S 0.99923 0.60166 0.70514 0.0
N1929 N 0.98933 0.58512 0.73747 0.0
N1930 N 1.00341 0.56983 0.67738 0.0
C1931 C 0.99614 0.54366 0.69366 0.0
C1932 C 0.98865 0.55201 0.72612 0.0
C1933 C 0.31484 0.29374 0.42533 0.0
C1934 C 0.32373 0.26477 0.43236 0.0
C1935 C 0.32401 0.30916 0.39848 0.0
C1936 C 0.34261 0.29647 0.37753 0.0
H1937 H 0.30099 0.3049 0.44099 0.0
H1938 H 0.31712 0.33185 0.39467 0.0
S1939 S 0.37539 0.22421 0.38759 0.0
N1940 N 0.35386 0.22541 0.41677 0.0
N1941 N 0.37188 0.2554 0.36799 0.0
C1942 C 0.35214 0.2681 0.38467 0.0
C1943 C 0.34246 0.25198 0.41152 0.0
C1944 C 0.39238 0.59661 0.54462 0.0
C1945 C 0.39994 0.632 0.55433 0.0
C1946 C 0.41312 0.57853 0.53542 0.0
C1947 C 0.44208 0.59526 0.53622 0.0
H1948 H 0.37009 0.58293 0.54263 0.0
H1949 H 0.40646 0.55137 0.52739 0.0
S1950 S 0.47315 0.68742 0.56042 0.0
N1951 N 0.43857 0.68298 0.56458 0.0
N1952 N 0.47747 0.64886 0.54793 0.0
C1953 C 0.45007 0.63046 0.54674 0.0
C1954 C 0.42901 0.64887 0.55568 0.0
C1955 C 0.98642 1.00651 0.58763 0.0
C1956 C 0.97604 0.97944 0.56046 0.0
C1957 C 1.01191 1.03131 0.58762 0.0
C1958 C 1.02771 1.03053 0.56013 0.0
H1959 H 0.97516 1.00812 0.60936 0.0
H1960 H 1.01923 0.05131 0.60934 0.0
S1961 S 1.00785 0.96661 0.4815 0.0
N1962 N 0.98279 0.9543 0.50479 0.0
N1963 N 1.02952 1.00115 0.50416 0.0
C1964 C 1.01689 1.00408 0.53248 0.0
C1965 C 0.99142 0.97857 0.5328 0.0
C1966 C 0.95064 0.22883 0.29943 0.0
C1967 C 0.93776 0.19352 0.2876 0.0
C1968 C 0.93468 0.25573 0.3009 0.0
C1969 C 0.90403 0.25019 0.29124 0.0
H1970 H 0.97366 0.2361 0.30788 0.0
H1971 H 0.94678 0.28143 0.31026 0.0
S1972 S 0.85868 0.16348 0.25654 0.0
N1973 N 0.89115 0.15628 0.26466 0.0
N1974 N 0.86237 0.20462 0.26783 0.0
C1975 C 0.89108 0.21508 0.2792 0.0
C1976 C 0.90729 0.1879 0.27732 0.0
C1977 C 0.72995 0.13438 0.04763 0.0
C1978 C 0.74407 0.16162 0.07298 0.0
C1979 C 0.7004 0.12101 0.04567 0.0
C1980 C 0.68424 0.13348 0.06968 0.0
H1981 H 0.7413 0.1251 0.02771 0.0
H1982 H 0.68983 0.10188 1.02425 0.0
S1983 S 0.71186 0.20277 0.14253 0.0
N1984 N 0.74043 0.19996 0.12336 0.0
N1985 N 0.68467 0.17308 0.12067 0.0
C1986 C 0.69842 0.15923 0.09641 0.0
C1987 C 0.72849 0.17376 0.0978 0.0
C1988 C 0.27176 0.51204 0.29627 0.0
C1989 C 0.26467 0.51831 0.2642 0.0
C1990 C 0.29624 0.49968 0.30374 0.0
C1991 C 0.31397 0.49306 0.27921 0.0
H1992 H 0.25942 0.51872 0.31618 0.0
H1993 H 0.30146 0.49555 0.32887 0.0
S1994 S 0.30281 0.50298 0.19081 0.0
N1995 N 0.27588 0.51567 0.20746 0.0
N1996 N 0.32178 0.49165 0.22117 0.0
C1997 C 0.3062 0.49778 0.24664 0.0
C1998 C 0.2815 0.51064 0.23921 0.0
C1999 C 0.32039 0.50472 0.0654 0.0
C2000 C 0.31642 0.47004 0.06604 0.0
C2001 C 0.29677 0.51933 0.06001 0.0
C2002 C 0.2682 0.50003 0.05557 0.0
H2003 H 0.34195 0.52057 0.06783 0.0
H2004 H 0.30092 0.54596 0.05887 0.0
S2005 S 0.24579 0.4087 0.05704 0.0
N2006 N 0.28151 0.41698 0.063 0.0
N2007 N 0.23707 0.44481 0.0535 0.0
C2008 C 0.26378 0.46564 0.05738 0.0
C2009 C 0.2879 0.45054 0.06238 0.0
C2010 C 0.94204 0.96473 0.27376 0.0
C2011 C 0.93742 0.99782 0.28427 0.0
C2012 C 0.92181 0.93405 0.27576 0.0
C2013 C 0.89542 0.93391 0.2889 0.0
H2014 H 0.96177 0.96234 0.26357 0.0
H2015 H 0.92679 0.9102 0.26641 0.0
S2016 S 0.87307 1.01285 0.32339 0.0
N2017 N 0.90413 1.02729 0.31034 0.0
N2018 N 0.86708 0.97125 0.31452 0.0
C2019 C 0.89077 0.96684 0.30004 0.0
C2020 C 0.91124 0.998 0.2977 0.0
C2021 C 0.77732 0.19887 0.7989 0.0
C2022 C 0.75395 0.19231 0.7734 0.0
C2023 C 0.80108 0.22542 0.80037 0.0
C2024 C 0.80242 0.24565 0.77589 0.0
H2025 H 0.77722 0.18332 0.81783 0.0
H2026 H 0.81821 0.23066 0.82125 0.0
S2027 S 0.74736 0.23695 0.7027 0.0
N2028 N 0.73381 0.20639 0.72224 0.0
N2029 N 0.7789 0.25685 0.72479 0.0
C2030 C 0.77964 0.23853 0.74946 0.0
C2031 C 0.75518 0.21163 0.74828 0.0
loop_
_geom_bond_atom_site_label_1
_geom_bond_atom_site_label_2
_geom_bond_distance
_geom_bond_site_symmetry_2
_ccdc_geom_bond_type
Co0 O1 2.216 . S
Co0 O2 2.091 . S
Co0 O4 2.004 . S
Co0 O10 2.021 . S
Co0 O12 2.137 . S
Co0 O13 2.244 . S
O1 Co0 2.216 . S
O1 C8 1.247 . S
O2 Co0 2.091 . S
O2 C8 1.261 . S
C3 O12 1.247 . S
C3 O13 1.272 . S
O4 Co0 2.004 . S
O4 C9 1.259 . S
Co5 O6 2.061 . S
Co5 O11 2.052 . S
Co5 O13 2.135 . S
O6 Co5 2.061 . S
O6 C9 1.235 . S
C7 O10 1.238 . S
C7 O11 1.241 . S
C8 O1 1.247 . S
C8 O2 1.261 . S
C9 O4 1.259 . S
C9 O6 1.235 . S
O10 Co0 2.021 . S
O10 C7 1.238 . S
O11 Co5 2.052 . S
O11 C7 1.241 . S
O12 Co0 2.137 . S
O12 C3 1.247 . S
O13 Co0 2.244 . S
O13 C3 1.272 . S
O13 Co5 2.135 . S
Co14 O15 2.216 . S
Co14 O16 2.091 . S
Co14 O18 2.004 1_655 S
Co14 O24 2.021 . S
Co14 O26 2.141 1_655 S
Co14 O27 2.244 1_655 S
O15 Co14 2.216 . S
O15 C22 1.247 . S
O16 Co14 2.091 . S
O16 C22 1.261 . S
C17 O26 1.254 . S
C17 O27 1.272 . S
O18 Co14 2.004 1_455 S
O18 C23 1.259 . S
Co19 O20 2.061 . S
Co19 O25 2.052 . S
Co19 O27 2.135 . S
O20 Co19 2.061 . S
O20 C23 1.235 . S
C21 O24 1.238 . S
C21 O25 1.241 1_655 S
C22 O15 1.247 . S
C22 O16 1.261 . S
C23 O18 1.259 . S
C23 O20 1.235 . S
O24 Co14 2.021 . S
O24 C21 1.238 . S
O25 Co19 2.052 . S
O25 C21 1.241 1_455 S
O26 Co14 2.141 1_455 S
O26 C17 1.254 . S
O27 Co14 2.244 1_455 S
O27 C17 1.272 . S
O27 Co19 2.135 . S
Co28 O29 2.216 . S
Co28 O30 2.091 . S
Co28 O32 2.004 . S
Co28 O38 2.021 . S
Co28 O40 2.137 . S
Co28 O41 2.244 . S
O29 Co28 2.216 . S
O29 C36 1.247 . S
O30 Co28 2.091 . S
O30 C36 1.261 . S
C31 O40 1.247 . S
C31 O41 1.272 . S
O32 Co28 2.004 . S
O32 C37 1.259 . S
Co33 O34 2.061 . S
Co33 O39 2.052 . S
Co33 O41 2.135 . S
O34 Co33 2.061 . S
O34 C37 1.235 . S
C35 O38 1.238 . S
C35 O39 1.241 . S
C36 O29 1.247 . S
C36 O30 1.261 . S
C37 O32 1.259 . S
C37 O34 1.235 . S
O38 Co28 2.021 . S
O38 C35 1.238 . S
O39 Co33 2.052 . S
O39 C35 1.241 . S
O40 Co28 2.137 . S
O40 C31 1.247 . S
O41 Co28 2.244 . S
O41 C31 1.272 . S
O41 Co33 2.135 . S
Co42 O43 2.216 . S
Co42 O44 2.091 . S
Co42 O46 2.004 . S
Co42 O52 2.021 . S
Co42 O54 2.137 . S
Co42 O55 2.244 . S
O43 Co42 2.216 . S
O43 C50 1.247 . S
O44 Co42 2.091 . S
O44 C50 1.261 . S
C45 O54 1.247 . S
C45 O55 1.272 . S
O46 Co42 2.004 . S
O46 C51 1.259 . S
Co47 O48 2.061 . S
Co47 O53 2.052 . S
Co47 O55 2.135 . S
O48 Co47 2.061 . S
O48 C51 1.235 . S
C49 O52 1.238 . S
C49 O53 1.241 . S
C50 O43 1.247 . S
C50 O44 1.261 . S
C51 O46 1.259 . S
C51 O48 1.235 . S
O52 Co42 2.021 . S
O52 C49 1.238 . S
O53 Co47 2.052 . S
O53 C49 1.241 . S
O54 Co42 2.137 . S
O54 C45 1.247 . S
O55 Co42 2.244 . S
O55 C45 1.272 . S
O55 Co47 2.135 . S
Co56 O57 2.216 . S
Co56 O58 2.091 . S
Co56 O60 2.004 . S
Co56 O66 2.021 . S
Co56 O68 2.137 . S
Co56 O69 2.244 . S
O57 Co56 2.216 . S
O57 C64 1.247 . S
O58 Co56 2.091 . S
O58 C64 1.261 . S
C59 O68 1.247 . S
C59 O69 1.272 . S
O60 Co56 2.004 . S
O60 C65 1.259 . S
Co61 O62 2.061 . S
Co61 O67 2.052 . S
Co61 O69 2.135 . S
O62 Co61 2.061 . S
O62 C65 1.235 . S
C63 O66 1.238 . S
C63 O67 1.241 . S
C64 O57 1.247 . S
C64 O58 1.261 . S
C65 O60 1.259 . S
C65 O62 1.235 . S
O66 Co56 2.021 . S
O66 C63 1.238 . S
O67 Co61 2.052 . S
O67 C63 1.241 . S
O68 Co56 2.137 . S
O68 C59 1.247 . S
O69 Co56 2.244 . S
O69 C59 1.272 . S
O69 Co61 2.135 . S
Co70 O71 2.216 . S
Co70 O72 2.091 . S
Co70 O74 2.004 . S
Co70 O80 2.021 . S
Co70 O82 2.137 . S
Co70 O83 2.244 . S
O71 Co70 2.216 . S
O71 C78 1.247 . S
O72 Co70 2.091 . S
O72 C78 1.261 . S
C73 O82 1.247 . S
C73 O83 1.272 . S
O74 Co70 2.004 . S
O74 C79 1.259 . S
Co75 O76 2.061 . S
Co75 O81 2.052 . S
Co75 O83 2.135 . S
O76 Co75 2.061 . S
O76 C79 1.235 . S
C77 O80 1.238 . S
C77 O81 1.241 . S
C78 O71 1.247 . S
C78 O72 1.261 . S
C79 O74 1.259 . S
C79 O76 1.235 . S
O80 Co70 2.021 . S
O80 C77 1.238 . S
O81 Co75 2.052 . S
O81 C77 1.241 . S
O82 Co70 2.137 . S
O82 C73 1.247 . S
O83 Co70 2.244 . S
O83 C73 1.272 . S
O83 Co75 2.135 . S
Co84 O85 2.216 . S
Co84 O86 2.091 . S
Co84 O88 2.004 . S
Co84 O94 2.021 . S
Co84 O96 2.137 . S
Co84 O97 2.244 . S
O85 Co84 2.216 . S
O85 C92 1.247 . S
O86 Co84 2.091 . S
O86 C92 1.261 . S
C87 O96 1.247 . S
C87 O97 1.272 . S
O88 Co84 2.004 . S
O88 C93 1.259 . S
Co89 O90 2.061 . S
Co89 O95 2.052 . S
Co89 O97 2.135 . S
O90 Co89 2.061 . S
O90 C93 1.235 . S
C91 O94 1.238 . S
C91 O95 1.241 . S
C92 O85 1.247 . S
C92 O86 1.261 . S
C93 O88 1.259 . S
C93 O90 1.235 . S
O94 Co84 2.021 . S
O94 C91 1.238 . S
O95 Co89 2.052 . S
O95 C91 1.241 . S
O96 Co84 2.137 . S
O96 C87 1.247 . S
O97 Co84 2.244 . S
O97 C87 1.272 . S
O97 Co89 2.135 . S
Co98 O99 2.216 . S
Co98 O100 2.091 . S
Co98 O102 2.004 1_455 S
Co98 O108 2.021 . S
Co98 O110 2.137 . S
Co98 O111 2.244 . S
O99 Co98 2.216 . S
O99 C106 1.247 . S
O100 Co98 2.091 . S
O100 C106 1.261 . S
C101 O110 1.247 . S
C101 O111 1.272 . S
O102 Co98 2.004 1_655 S
O102 C107 1.259 . S
Co103 O104 2.061 . S
Co103 O109 2.052 1_655 S
Co103 O111 2.135 1_655 S
O104 Co103 2.061 . S
O104 C107 1.235 . S
C105 O108 1.238 . S
C105 O109 1.241 . S
C106 O99 1.247 . S
C106 O100 1.261 . S
C107 O102 1.259 . S
C107 O104 1.235 . S
O108 Co98 2.021 . S
O108 C105 1.238 . S
O109 Co103 2.052 1_455 S
O109 C105 1.241 . S
O110 Co98 2.137 . S
O110 C101 1.247 . S
O111 Co98 2.244 . S
O111 C101 1.272 . S
O111 Co103 2.135 1_455 S
Co112 O113 2.216 . S
Co112 O114 2.091 . S
Co112 O116 2.004 1_545 S
Co112 O122 2.021 1_545 S
Co112 O124 2.137 . S
Co112 O125 2.258 . S
O113 Co112 2.216 . S
O113 C120 1.247 . S
O114 Co112 2.091 . S
O114 C120 1.261 . S
C115 O124 1.247 . S
C115 O125 1.279 . S
O116 Co112 2.004 1_565 S
O116 C121 1.259 . S
Co117 O118 2.061 . S
Co117 O123 2.052 . S
Co117 O125 2.110 1_565 S
O118 Co117 2.061 . S
O118 C121 1.235 . S
C119 O122 1.238 . S
C119 O123 1.241 . S
C120 O113 1.247 . S
C120 O114 1.261 . S
C121 O116 1.259 . S
C121 O118 1.235 . S
O122 Co112 2.021 1_565 S
O122 C119 1.238 . S
O123 Co117 2.052 . S
O123 C119 1.241 . S
O124 Co112 2.137 . S
O124 C115 1.247 . S
O125 Co112 2.258 . S
O125 C115 1.279 . S
O125 Co117 2.110 1_545 S
Co126 O127 2.216 . S
Co126 O128 2.091 . S
Co126 O130 2.004 . S
Co126 O136 2.021 . S
Co126 O138 2.137 . S
Co126 O139 2.244 . S
O127 Co126 2.216 . S
O127 C134 1.247 . S
O128 Co126 2.091 . S
O128 C134 1.261 . S
C129 O138 1.247 . S
C129 O139 1.272 . S
O130 Co126 2.004 . S
O130 C135 1.259 . S
Co131 O132 2.061 . S
Co131 O137 2.052 . S
Co131 O139 2.135 . S
O132 Co131 2.061 . S
O132 C135 1.235 . S
C133 O136 1.238 . S
C133 O137 1.241 . S
C134 O127 1.247 . S
C134 O128 1.261 . S
C135 O130 1.259 . S
C135 O132 1.235 . S
O136 Co126 2.021 . S
O136 C133 1.238 . S
O137 Co131 2.052 . S
O137 C133 1.241 . S
O138 Co126 2.137 . S
O138 C129 1.247 . S
O139 Co126 2.244 . S
O139 C129 1.272 . S
O139 Co131 2.135 . S
Co140 O141 2.216 1_545 S
Co140 O142 2.091 1_545 S
Co140 O144 2.004 . S
Co140 O150 2.021 . S
Co140 O152 2.137 . S
Co140 O153 2.244 . S
O141 Co140 2.216 1_565 S
O141 C148 1.247 . S
O142 Co140 2.091 1_565 S
O142 C148 1.261 . S
C143 O152 1.247 . S
C143 O153 1.272 . S
O144 Co140 2.004 . S
O144 C149 1.259 . S
Co145 O146 2.061 . S
Co145 O151 2.052 . S
Co145 O153 2.135 . S
O146 Co145 2.061 . S
O146 C149 1.235 . S
C147 O150 1.238 . S
C147 O151 1.241 . S
C148 O141 1.247 . S
C148 O142 1.261 . S
C149 O144 1.259 . S
C149 O146 1.235 . S
O150 Co140 2.021 . S
O150 C147 1.238 . S
O151 Co145 2.052 . S
O151 C147 1.241 . S
O152 Co140 2.137 . S
O152 C143 1.247 . S
O153 Co140 2.244 . S
O153 C143 1.272 . S
O153 Co145 2.135 . S
Co154 O155 2.216 . S
Co154 O156 2.091 1_556 S
Co154 O158 2.004 1_556 S
Co154 O164 2.021 1_556 S
Co154 O166 2.137 . S
Co154 O167 2.244 . S
O155 Co154 2.216 . S
O155 C162 1.247 1_556 S
O156 Co154 2.091 1_554 S
O156 C162 1.262 . S
C157 O166 1.247 . S
C157 O167 1.272 . S
O158 Co154 2.004 1_554 S
O158 C163 1.259 . S
Co159 O160 2.061 1_556 S
Co159 O165 2.052 1_556 S
Co159 O167 2.135 . S
O160 Co159 2.061 1_554 S
O160 C163 1.235 . S
C161 O164 1.238 . S
C161 O165 1.241 . S
C162 O155 1.247 1_554 S
C162 O156 1.262 . S
C163 O158 1.259 . S
C163 O160 1.235 . S
O164 Co154 2.021 1_554 S
O164 C161 1.238 . S
O165 Co159 2.052 1_554 S
O165 C161 1.241 . S
O166 Co154 2.137 . S
O166 C157 1.247 . S
O167 Co154 2.244 . S
O167 C157 1.272 . S
O167 Co159 2.135 . S
Co168 O169 2.216 . S
Co168 O170 2.091 . S
Co168 O172 2.004 . S
Co168 O178 2.021 . S
Co168 O180 2.137 1_554 S
Co168 O181 2.244 1_554 S
O169 Co168 2.216 . S
O169 C176 1.247 . S
O170 Co168 2.091 . S
O170 C176 1.261 . S
C171 O180 1.247 . S
C171 O181 1.272 . S
O172 Co168 2.004 . S
O172 C177 1.259 . S
Co173 O174 2.061 . S
Co173 O179 2.052 . S
Co173 O181 2.135 1_554 S
O174 Co173 2.061 . S
O174 C177 1.235 . S
C175 O178 1.238 . S
C175 O179 1.241 . S
C176 O169 1.247 . S
C176 O170 1.261 . S
C177 O172 1.259 . S
C177 O174 1.235 . S
O178 Co168 2.021 . S
O178 C175 1.238 . S
O179 Co173 2.052 . S
O179 C175 1.241 . S
O180 Co168 2.137 1_556 S
O180 C171 1.247 . S
O181 Co168 2.244 1_556 S
O181 C171 1.272 . S
O181 Co173 2.135 1_556 S
Co182 O183 2.216 . S
Co182 O184 2.091 . S
Co182 O186 2.004 . S
Co182 O192 2.021 . S
Co182 O194 2.137 1_554 S
Co182 O195 2.244 . S
O183 Co182 2.216 . S
O183 C190 1.247 . S
O184 Co182 2.091 . S
O184 C190 1.261 . S
C185 O194 1.247 . S
C185 O195 1.272 1_556 S
O186 Co182 2.004 . S
O186 C191 1.259 . S
Co187 O188 2.061 . S
Co187 O193 2.052 . S
Co187 O195 2.135 . S
O188 Co187 2.061 . S
O188 C191 1.235 . S
C189 O192 1.238 . S
C189 O193 1.241 . S
C190 O183 1.247 . S
C190 O184 1.261 . S
C191 O186 1.259 . S
C191 O188 1.235 . S
O192 Co182 2.021 . S
O192 C189 1.238 . S
O193 Co187 2.052 . S
O193 C189 1.241 . S
O194 Co182 2.137 1_556 S
O194 C185 1.247 . S
O195 Co182 2.244 . S
O195 C185 1.272 1_554 S
O195 Co187 2.135 . S
Co196 O197 2.216 . S
Co196 O198 2.091 . S
Co196 O200 2.004 . S
Co196 O206 2.021 . S
Co196 O208 2.137 . S
Co196 O209 2.244 . S
O197 Co196 2.216 . S
O197 C204 1.247 . S
O198 Co196 2.091 . S
O198 C204 1.261 . S
C199 O208 1.247 . S
C199 O209 1.272 . S
O200 Co196 2.004 . S
O200 C205 1.259 . S
Co201 O202 2.061 . S
Co201 O207 2.052 . S
Co201 O209 2.135 . S
O202 Co201 2.061 . S
O202 C205 1.235 . S
C203 O206 1.238 . S
C203 O207 1.241 . S
C204 O197 1.247 . S
C204 O198 1.261 . S
C205 O200 1.259 . S
C205 O202 1.235 . S
O206 Co196 2.021 . S
O206 C203 1.238 . S
O207 Co201 2.052 . S
O207 C203 1.241 . S
O208 Co196 2.137 . S
O208 C199 1.247 . S
O209 Co196 2.244 . S
O209 C199 1.272 . S
O209 Co201 2.135 . S
Co210 O211 2.216 . S
Co210 O212 2.091 . S
Co210 O214 2.004 . S
Co210 O220 2.021 . S
Co210 O222 2.137 . S
Co210 O223 2.244 . S
O211 Co210 2.216 . S
O211 C218 1.247 . S
O212 Co210 2.091 . S
O212 C218 1.261 . S
C213 O222 1.247 . S
C213 O223 1.272 . S
O214 Co210 2.004 . S
O214 C219 1.259 . S
Co215 O216 2.061 . S
Co215 O221 2.052 . S
Co215 O223 2.135 . S
O216 Co215 2.061 . S
O216 C219 1.235 . S
C217 O220 1.238 . S
C217 O221 1.241 . S
C218 O211 1.247 . S
C218 O212 1.261 . S
C219 O214 1.259 . S
C219 O216 1.235 . S
O220 Co210 2.021 . S
O220 C217 1.238 . S
O221 Co215 2.052 . S
O221 C217 1.241 . S
O222 Co210 2.137 . S
O222 C213 1.247 . S
O223 Co210 2.244 . S
O223 C213 1.272 . S
O223 Co215 2.135 . S
Co224 O225 2.216 . S
Co224 O226 2.091 . S
Co224 O228 2.004 . S
Co224 O234 2.021 . S
Co224 O236 2.137 . S
Co224 O237 2.244 . S
O225 Co224 2.216 . S
O225 C232 1.247 . S
O226 Co224 2.091 . S
O226 C232 1.261 . S
C227 O236 1.247 . S
C227 O237 1.272 . S
O228 Co224 2.004 . S
O228 C233 1.259 . S
Co229 O230 2.061 . S
Co229 O235 2.052 . S
Co229 O237 2.135 . S
O230 Co229 2.061 . S
O230 C233 1.235 . S
C231 O234 1.238 . S
C231 O235 1.241 . S
C232 O225 1.247 . S
C232 O226 1.261 . S
C233 O228 1.259 . S
C233 O230 1.235 . S
O234 Co224 2.021 . S
O234 C231 1.238 . S
O235 Co229 2.052 . S
O235 C231 1.241 . S
O236 Co224 2.137 . S
O236 C227 1.247 . S
O237 Co224 2.244 . S
O237 C227 1.272 . S
O237 Co229 2.135 . S
Co238 O239 2.216 . S
Co238 O240 2.091 . S
Co238 O242 2.004 . S
Co238 O248 2.021 . S
Co238 O250 2.137 . S
Co238 O251 2.244 . S
O239 Co238 2.216 . S
O239 C246 1.247 . S
O240 Co238 2.091 . S
O240 C246 1.261 . S
C241 O250 1.247 . S
C241 O251 1.272 . S
O242 Co238 2.004 . S
O242 C247 1.259 . S
Co243 O244 2.061 . S
Co243 O249 2.052 . S
Co243 O251 2.135 . S
O244 Co243 2.061 . S
O244 C247 1.235 . S
C245 O248 1.238 . S
C245 O249 1.241 . S
C246 O239 1.247 . S
C246 O240 1.261 . S
C247 O242 1.259 . S
C247 O244 1.235 . S
O248 Co238 2.021 . S
O248 C245 1.238 . S
O249 Co243 2.052 . S
O249 C245 1.241 . S
O250 Co238 2.137 . S
O250 C241 1.247 . S
O251 Co238 2.244 . S
O251 C241 1.272 . S
O251 Co243 2.135 . S
Co252 O253 2.216 . S
Co252 O254 2.091 . S
Co252 O256 2.004 . S
Co252 O262 2.021 . S
Co252 O264 2.137 . S
Co252 O265 2.244 . S
O253 Co252 2.216 . S
O253 C260 1.247 . S
O254 Co252 2.091 . S
O254 C260 1.261 . S
C255 O264 1.247 . S
C255 O265 1.272 . S
O256 Co252 2.004 . S
O256 C261 1.259 . S
Co257 O258 2.061 . S
Co257 O263 2.052 . S
Co257 O265 2.135 . S
O258 Co257 2.061 . S
O258 C261 1.235 . S
C259 O262 1.238 . S
C259 O263 1.241 . S
C260 O253 1.247 . S
C260 O254 1.261 . S
C261 O256 1.259 . S
C261 O258 1.235 . S
O262 Co252 2.021 . S
O262 C259 1.238 . S
O263 Co257 2.052 . S
O263 C259 1.241 . S
O264 Co252 2.137 . S
O264 C255 1.247 . S
O265 Co252 2.244 . S
O265 C255 1.272 . S
O265 Co257 2.135 . S
Co266 O267 2.216 . S
Co266 O268 2.091 . S
Co266 O270 2.004 . S
Co266 O276 2.021 . S
Co266 O278 2.137 . S
Co266 O279 2.244 . S
O267 Co266 2.216 . S
O267 C274 1.247 . S
O268 Co266 2.091 . S
O268 C274 1.261 . S
C269 O278 1.247 . S
C269 O279 1.272 . S
O270 Co266 2.004 . S
O270 C275 1.259 . S
Co271 O272 2.061 . S
Co271 O277 2.052 . S
Co271 O279 2.135 . S
O272 Co271 2.061 . S
O272 C275 1.235 . S
C273 O276 1.238 . S
C273 O277 1.241 . S
C274 O267 1.247 . S
C274 O268 1.261 . S
C275 O270 1.259 . S
C275 O272 1.235 . S
O276 Co266 2.021 . S
O276 C273 1.238 . S
O277 Co271 2.052 . S
O277 C273 1.241 . S
O278 Co266 2.137 . S
O278 C269 1.247 . S
O279 Co266 2.244 . S
O279 C269 1.272 . S
O279 Co271 2.135 . S
Co280 O281 2.216 . S
Co280 O282 2.093 . S
Co280 O284 2.005 1_554 S
Co280 O290 2.033 . S
Co280 O292 2.124 1_554 S
Co280 O293 2.238 1_554 S
O281 Co280 2.216 . S
O281 C288 1.247 . S
O282 Co280 2.093 . S
O282 C288 1.261 . S
C283 O292 1.247 . S
C283 O293 1.272 . S
O284 Co280 2.005 1_556 S
O284 C289 1.259 . S
Co285 O286 2.061 . S
Co285 O291 2.052 . S
Co285 O293 2.135 1_554 S
O286 Co285 2.061 . S
O286 C289 1.235 1_554 S
C287 O290 1.238 . S
C287 O291 1.241 . S
C288 O281 1.247 . S
C288 O282 1.261 . S
C289 O284 1.259 . S
C289 O286 1.235 1_556 S
O290 Co280 2.033 . S
O290 C287 1.238 . S
O291 Co285 2.052 . S
O291 C287 1.241 . S
O292 Co280 2.124 1_556 S
O292 C283 1.247 . S
O293 Co280 2.238 1_556 S
O293 C283 1.272 . S
O293 Co285 2.135 1_556 S
Co294 O295 2.216 . S
Co294 O296 2.091 . S
Co294 O298 2.004 . S
Co294 O304 2.021 . S
Co294 O306 2.137 . S
Co294 O307 2.244 . S
O295 Co294 2.216 . S
O295 C302 1.247 . S
O296 Co294 2.091 . S
O296 C302 1.261 . S
C297 O306 1.247 . S
C297 O307 1.272 . S
O298 Co294 2.004 . S
O298 C303 1.259 . S
Co299 O300 2.061 . S
Co299 O305 2.052 . S
Co299 O307 2.135 . S
O300 Co299 2.061 . S
O300 C303 1.235 . S
C301 O304 1.238 . S
C301 O305 1.241 . S
C302 O295 1.247 . S
C302 O296 1.261 . S
C303 O298 1.259 . S
C303 O300 1.235 . S
O304 Co294 2.021 . S
O304 C301 1.238 . S
O305 Co299 2.052 . S
O305 C301 1.241 . S
O306 Co294 2.137 . S
O306 C297 1.247 . S
O307 Co294 2.244 . S
O307 C297 1.272 . S
O307 Co299 2.135 . S
Co308 O309 2.216 . S
Co308 O310 2.091 . S
Co308 O312 2.004 . S
Co308 O318 2.021 . S
Co308 O320 2.137 . S
Co308 O321 2.244 . S
O309 Co308 2.216 . S
O309 C316 1.247 . S
O310 Co308 2.091 . S
O310 C316 1.261 . S
C311 O320 1.247 . S
C311 O321 1.272 . S
O312 Co308 2.004 . S
O312 C317 1.259 . S
Co313 O314 2.061 . S
Co313 O319 2.052 . S
Co313 O321 2.135 . S
O314 Co313 2.061 . S
O314 C317 1.235 . S
C315 O318 1.238 . S
C315 O319 1.241 . S
C316 O309 1.247 . S
C316 O310 1.261 . S
C317 O312 1.259 . S
C317 O314 1.235 . S
O318 Co308 2.021 . S
O318 C315 1.238 . S
O319 Co313 2.052 . S
O319 C315 1.241 . S
O320 Co308 2.137 . S
O320 C311 1.247 . S
O321 Co308 2.244 . S
O321 C311 1.272 . S
O321 Co313 2.135 . S
Co322 O323 2.216 . S
Co322 O324 2.091 . S
Co322 O326 2.004 . S
Co322 O332 2.021 . S
Co322 O334 2.137 . S
Co322 O335 2.244 . S
O323 Co322 2.216 . S
O323 C330 1.247 . S
O324 Co322 2.091 . S
O324 C330 1.261 . S
C325 O334 1.247 . S
C325 O335 1.272 . S
O326 Co322 2.004 . S
O326 C331 1.259 . S
Co327 O328 2.061 . S
Co327 O333 2.052 . S
Co327 O335 2.135 . S
O328 Co327 2.061 . S
O328 C331 1.235 . S
C329 O332 1.238 . S
C329 O333 1.241 . S
C330 O323 1.247 . S
C330 O324 1.261 . S
C331 O326 1.259 . S
C331 O328 1.235 . S
O332 Co322 2.021 . S
O332 C329 1.238 . S
O333 Co327 2.052 . S
O333 C329 1.241 . S
O334 Co322 2.137 . S
O334 C325 1.247 . S
O335 Co322 2.244 . S
O335 C325 1.272 . S
O335 Co327 2.135 . S
Ho336 C339 2.815 1_455 S
Ho336 O356 2.331 . S
Ho336 O358 2.391 1_455 S
Ho336 O359 2.517 1_456 S
Ho336 O360 2.405 . S
Ho336 O361 2.678 . S
Ho336 O363 2.337 1_546 S
Ho336 O367 2.286 1_556 S
Ho337 C348 2.811 . S
Ho337 O357 2.346 . S
Ho337 O361 2.305 1_554 S
Ho337 O362 2.322 . S
Ho337 O364 2.378 . S
Ho337 O365 2.524 . S
Ho337 O366 2.381 . S
Ho337 O367 2.669 . S
C338 O356 1.259 1_554 S
C338 O357 1.268 . S
C339 Ho336 2.815 1_655 S
C339 C340 1.488 . S
C339 O358 1.215 . S
C339 O359 1.289 1_556 S
C340 C339 1.488 . S
C340 C341 1.348 1_556 S
C340 C345 1.413 . S
C341 C340 1.348 1_554 S
C341 C342 1.442 1_554 S
C341 H368 0.930 . S
C342 C341 1.442 1_556 S
C342 C343 1.381 . S
C342 H369 0.931 1_556 S
C343 C342 1.381 . S
C343 C344 1.321 . S
C344 C343 1.321 . S
C344 C345 1.403 . S
C344 H370 0.934 . S
C345 C340 1.413 . S
C345 C344 1.403 . S
C345 H371 0.930 . S
C346 O360 1.275 . S
C346 O361 1.256 . S
C347 O362 1.259 1_565 S
C347 O363 1.268 . S
C348 Ho337 2.811 . S
C348 C349 1.488 . S
C348 O364 1.215 . S
C348 O365 1.289 . S
C349 C348 1.488 . S
C349 C350 1.348 . S
C349 C354 1.413 . S
C350 C349 1.348 . S
C350 C351 1.442 . S
C350 H372 0.930 . S
C351 C350 1.442 . S
C351 C352 1.381 . S
C351 H373 0.931 1_545 S
C352 C351 1.381 . S
C352 C353 1.321 . S
C353 C352 1.321 . S
C353 C354 1.403 . S
C353 H374 0.934 . S
C354 C349 1.413 . S
C354 C353 1.403 . S
C354 H375 0.930 . S
C355 O366 1.275 . S
C355 O367 1.256 . S
O356 Ho336 2.331 . S
O356 C338 1.259 1_556 S
O357 Ho337 2.346 . S
O357 C338 1.268 . S
O358 Ho336 2.391 1_655 S
O358 C339 1.215 . S
O359 Ho336 2.517 1_654 S
O359 C339 1.289 1_554 S
O360 Ho336 2.405 . S
O360 C346 1.275 . S
O361 Ho336 2.678 . S
O361 Ho337 2.305 1_556 S
O361 C346 1.256 . S
O362 Ho337 2.322 . S
O362 C347 1.259 1_545 S
O363 Ho336 2.337 1_564 S
O363 C347 1.268 . S
O364 Ho337 2.378 . S
O364 C348 1.215 . S
O365 Ho337 2.524 . S
O365 C348 1.289 . S
O366 Ho337 2.381 . S
O366 C355 1.275 . S
O367 Ho336 2.286 1_554 S
O367 Ho337 2.669 . S
O367 C355 1.256 . S
H368 C341 0.930 . S
H369 C342 0.931 1_554 S
H370 C344 0.934 . S
H371 C345 0.930 . S
H372 C350 0.930 . S
H373 C351 0.931 1_565 S
H374 C353 0.934 . S
H375 C354 0.930 . S
Ho376 C379 2.811 . S
Ho376 O396 2.322 . S
Ho376 O398 2.378 . S
Ho376 O399 2.524 . S
Ho376 O400 2.381 . S
Ho376 O401 2.669 . S
Ho376 O403 2.346 . S
Ho376 O407 2.305 . S
Ho377 C388 2.811 . S
Ho377 O397 2.346 . S
Ho377 O401 2.305 . S
Ho377 O402 2.322 . S
Ho377 O404 2.378 . S
Ho377 O405 2.524 . S
Ho377 O406 2.381 . S
Ho377 O407 2.669 . S
C378 O396 1.259 . S
C378 O397 1.268 . S
C379 Ho376 2.811 . S
C379 C380 1.488 . S
C379 O398 1.215 . S
C379 O399 1.289 . S
C380 C379 1.488 . S
C380 C381 1.348 . S
C380 C385 1.413 . S
C381 C380 1.348 . S
C381 C382 1.442 . S
C381 H408 0.930 . S
C382 C381 1.442 . S
C382 C383 1.381 . S
C382 H409 0.931 . S
C383 C382 1.381 . S
C383 C384 1.321 . S
C384 C383 1.321 . S
C384 C385 1.403 . S
C384 H410 0.934 . S
C385 C380 1.413 . S
C385 C384 1.403 . S
C385 H411 0.930 . S
C386 O400 1.275 . S
C386 O401 1.256 . S
C387 O402 1.259 . S
C387 O403 1.268 . S
C388 Ho377 2.811 . S
C388 C389 1.488 . S
C388 O404 1.215 . S
C388 O405 1.289 . S
C389 C388 1.488 . S
C389 C390 1.348 . S
C389 C394 1.413 . S
C390 C389 1.348 . S
C390 C391 1.442 . S
C390 H412 0.930 . S
C391 C390 1.442 . S
C391 C392 1.381 . S
C391 H413 0.931 . S
C392 C391 1.381 . S
C392 C393 1.321 . S
C393 C392 1.321 . S
C393 C394 1.403 . S
C393 H414 0.934 . S
C394 C389 1.413 . S
C394 C393 1.403 . S
C394 H415 0.930 . S
C395 O406 1.275 . S
C395 O407 1.256 . S
O396 Ho376 2.322 . S
O396 C378 1.259 . S
O397 Ho377 2.346 . S
O397 C378 1.268 . S
O398 Ho376 2.378 . S
O398 C379 1.215 . S
O399 Ho376 2.524 . S
O399 C379 1.289 . S
O400 Ho376 2.381 . S
O400 C386 1.275 . S
O401 Ho376 2.669 . S
O401 Ho377 2.305 . S
O401 C386 1.256 . S
O402 Ho377 2.322 . S
O402 C387 1.259 . S
O403 Ho376 2.346 . S
O403 C387 1.268 . S
O404 Ho377 2.378 . S
O404 C388 1.215 . S
O405 Ho377 2.524 . S
O405 C388 1.289 . S
O406 Ho377 2.381 . S
O406 C395 1.275 . S
O407 Ho376 2.305 . S
O407 Ho377 2.669 . S
O407 C395 1.256 . S
H408 C381 0.930 . S
H409 C382 0.931 . S
H410 C384 0.934 . S
H411 C385 0.930 . S
H412 C390 0.930 . S
H413 C391 0.931 . S
H414 C393 0.934 . S
H415 C394 0.930 . S
Ho416 C419 2.811 . S
Ho416 O436 2.297 1_545 S
Ho416 O438 2.378 . S
Ho416 O439 2.524 . S
Ho416 O440 2.381 . S
Ho416 O441 2.669 . S
Ho416 O443 2.346 . S
Ho416 O447 2.305 . S
Ho417 C428 2.811 . S
Ho417 O437 2.346 1_545 S
Ho417 O441 2.305 . S
Ho417 O442 2.322 . S
Ho417 O444 2.378 . S
Ho417 O445 2.524 . S
Ho417 O446 2.381 . S
Ho417 O447 2.669 . S
C418 O436 1.273 . S
C418 O437 1.268 . S
C419 Ho416 2.811 . S
C419 C420 1.488 1_545 S
C419 O438 1.215 . S
C419 O439 1.289 . S
C420 C419 1.488 1_565 S
C420 C421 1.348 . S
C420 C425 1.413 . S
C421 C420 1.348 . S
C421 C422 1.442 . S
C421 H448 0.930 . S
C422 C421 1.442 . S
C422 C423 1.381 . S
C422 H449 0.931 . S
C423 C422 1.381 . S
C423 C424 1.321 . S
C424 C423 1.321 . S
C424 C425 1.403 . S
C424 H450 0.934 . S
C425 C420 1.413 . S
C425 C424 1.403 . S
C425 H451 0.930 . S
C426 O440 1.275 . S
C426 O441 1.256 . S
C427 O442 1.259 . S
C427 O443 1.268 . S
C428 Ho417 2.811 . S
C428 C429 1.488 . S
C428 O444 1.215 . S
C428 O445 1.289 . S
C429 C428 1.488 . S
C429 C430 1.348 . S
C429 C434 1.413 . S
C430 C429 1.348 . S
C430 C431 1.442 . S
C430 H452 0.930 . S
C431 C430 1.442 . S
C431 C432 1.381 . S
C431 H453 0.931 . S
C432 C431 1.381 . S
C432 C433 1.321 . S
C433 C432 1.321 . S
C433 C434 1.403 . S
C433 H454 0.934 . S
C434 C429 1.413 . S
C434 C433 1.403 . S
C434 H455 0.930 . S
C435 O446 1.275 . S
C435 O447 1.256 . S
O436 Ho416 2.297 1_565 S
O436 C418 1.273 . S
O437 Ho417 2.346 1_565 S
O437 C418 1.268 . S
O438 Ho416 2.378 . S
O438 C419 1.215 . S
O439 Ho416 2.524 . S
O439 C419 1.289 . S
O440 Ho416 2.381 . S
O440 C426 1.275 . S
O441 Ho416 2.669 . S
O441 Ho417 2.305 . S
O441 C426 1.256 . S
O442 Ho417 2.322 . S
O442 C427 1.259 . S
O443 Ho416 2.346 . S
O443 C427 1.268 . S
O444 Ho417 2.378 . S
O444 C428 1.215 . S
O445 Ho417 2.524 . S
O445 C428 1.289 . S
O446 Ho417 2.381 . S
O446 C435 1.275 . S
O447 Ho416 2.305 . S
O447 Ho417 2.669 . S
O447 C435 1.256 . S
H448 C421 0.930 . S
H449 C422 0.931 . S
H450 C424 0.934 . S
H451 C425 0.930 . S
H452 C430 0.930 . S
H453 C431 0.931 . S
H454 C433 0.934 . S
H455 C434 0.930 . S
Ho456 C459 2.811 . S
Ho456 O476 2.322 . S
Ho456 O478 2.378 . S
Ho456 O479 2.524 . S
Ho456 O480 2.381 . S
Ho456 O481 2.669 . S
Ho456 O483 2.346 . S
Ho456 O487 2.305 . S
Ho457 C468 2.811 . S
Ho457 O477 2.346 . S
Ho457 O481 2.305 . S
Ho457 O482 2.322 . S
Ho457 O484 2.378 . S
Ho457 O485 2.524 . S
Ho457 O486 2.381 . S
Ho457 O487 2.669 . S
C458 O476 1.259 . S
C458 O477 1.268 . S
C459 Ho456 2.811 . S
C459 C460 1.488 . S
C459 O478 1.215 . S
C459 O479 1.289 . S
C460 C459 1.488 . S
C460 C461 1.348 . S
C460 C465 1.413 . S
C461 C460 1.348 . S
C461 C462 1.442 . S
C461 H488 0.930 . S
C462 C461 1.442 . S
C462 C463 1.381 . S
C462 H489 0.931 . S
C463 C462 1.381 . S
C463 C464 1.321 . S
C464 C463 1.321 . S
C464 C465 1.403 . S
C464 H490 0.934 . S
C465 C460 1.413 . S
C465 C464 1.403 . S
C465 H491 0.930 . S
C466 O480 1.275 . S
C466 O481 1.256 . S
C467 O482 1.259 . S
C467 O483 1.268 . S
C468 Ho457 2.811 . S
C468 C469 1.488 . S
C468 O484 1.215 . S
C468 O485 1.289 . S
C469 C468 1.488 . S
C469 C470 1.348 . S
C469 C474 1.413 . S
C470 C469 1.348 . S
C470 C471 1.442 . S
C470 H492 0.930 . S
C471 C470 1.442 . S
C471 C472 1.381 . S
C471 H493 0.931 . S
C472 C471 1.381 . S
C472 C473 1.321 . S
C473 C472 1.321 . S
C473 C474 1.403 . S
C473 H494 0.934 . S
C474 C469 1.413 . S
C474 C473 1.403 . S
C474 H495 0.930 . S
C475 O486 1.275 . S
C475 O487 1.256 . S
O476 Ho456 2.322 . S
O476 C458 1.259 . S
O477 Ho457 2.346 . S
O477 C458 1.268 . S
O478 Ho456 2.378 . S
O478 C459 1.215 . S
O479 Ho456 2.524 . S
O479 C459 1.289 . S
O480 Ho456 2.381 . S
O480 C466 1.275 . S
O481 Ho456 2.669 . S
O481 Ho457 2.305 . S
O481 C466 1.256 . S
O482 Ho457 2.322 . S
O482 C467 1.259 . S
O483 Ho456 2.346 . S
O483 C467 1.268 . S
O484 Ho457 2.378 . S
O484 C468 1.215 . S
O485 Ho457 2.524 . S
O485 C468 1.289 . S
O486 Ho457 2.381 . S
O486 C475 1.275 . S
O487 Ho456 2.305 . S
O487 Ho457 2.669 . S
O487 C475 1.256 . S
H488 C461 0.930 . S
H489 C462 0.931 . S
H490 C464 0.934 . S
H491 C465 0.930 . S
H492 C470 0.930 . S
H493 C471 0.931 . S
H494 C473 0.934 . S
H495 C474 0.930 . S
Ho496 C499 2.811 . S
Ho496 O516 2.322 . S
Ho496 O518 2.378 . S
Ho496 O519 2.524 . S
Ho496 O520 2.381 . S
Ho496 O521 2.669 . S
Ho496 O523 2.346 . S
Ho496 O527 2.305 . S
Ho497 C508 2.811 1_545 S
Ho497 O517 2.346 . S
Ho497 O521 2.305 . S
Ho497 O522 2.322 . S
Ho497 O524 2.378 1_545 S
Ho497 O525 2.524 1_545 S
Ho497 O526 2.381 . S
Ho497 O527 2.669 . S
C498 O516 1.259 . S
C498 O517 1.268 . S
C499 Ho496 2.811 . S
C499 C500 1.488 . S
C499 O518 1.215 . S
C499 O519 1.289 . S
C500 C499 1.488 . S
C500 C501 1.348 . S
C500 C505 1.413 . S
C501 C500 1.348 . S
C501 C502 1.442 . S
C501 H528 0.930 . S
C502 C501 1.442 . S
C502 C503 1.381 . S
C502 H529 0.931 . S
C503 C502 1.381 . S
C503 C504 1.321 . S
C504 C503 1.321 . S
C504 C505 1.403 . S
C504 H530 0.934 . S
C505 C500 1.413 . S
C505 C504 1.403 . S
C505 H531 0.930 . S
C506 O520 1.275 . S
C506 O521 1.256 . S
C507 O522 1.259 . S
C507 O523 1.268 . S
C508 Ho497 2.811 1_565 S
C508 C509 1.488 . S
C508 O524 1.215 . S
C508 O525 1.289 . S
C509 C508 1.488 . S
C509 C510 1.348 . S
C509 C514 1.413 . S
C510 C509 1.348 . S
C510 C511 1.442 . S
C510 H532 0.930 . S
C511 C510 1.442 . S
C511 C512 1.381 . S
C511 H533 0.931 . S
C512 C511 1.381 . S
C512 C513 1.321 . S
C513 C512 1.321 . S
C513 C514 1.403 . S
C513 H534 0.934 . S
C514 C509 1.413 . S
C514 C513 1.403 . S
C514 H535 0.930 . S
C515 O526 1.275 . S
C515 O527 1.256 . S
O516 Ho496 2.322 . S
O516 C498 1.259 . S
O517 Ho497 2.346 . S
O517 C498 1.268 . S
O518 Ho496 2.378 . S
O518 C499 1.215 . S
O519 Ho496 2.524 . S
O519 C499 1.289 . S
O520 Ho496 2.381 . S
O520 C506 1.275 . S
O521 Ho496 2.669 . S
O521 Ho497 2.305 . S
O521 C506 1.256 . S
O522 Ho497 2.322 . S
O522 C507 1.259 . S
O523 Ho496 2.346 . S
O523 C507 1.268 . S
O524 Ho497 2.378 1_565 S
O524 C508 1.215 . S
O525 Ho497 2.524 1_565 S
O525 C508 1.289 . S
O526 Ho497 2.381 . S
O526 C515 1.275 . S
O527 Ho496 2.305 . S
O527 Ho497 2.669 . S
O527 C515 1.256 . S
H528 C501 0.930 . S
H529 C502 0.931 . S
H530 C504 0.934 . S
H531 C505 0.930 . S
H532 C510 0.930 . S
H533 C511 0.931 . S
H534 C513 0.934 . S
H535 C514 0.930 . S
Ho536 C539 2.811 . S
Ho536 O556 2.322 . S
Ho536 O558 2.378 . S
Ho536 O559 2.524 . S
Ho536 O560 2.381 . S
Ho536 O561 2.669 . S
Ho536 O563 2.346 . S
Ho536 O567 2.305 . S
Ho537 C548 2.811 . S
Ho537 O557 2.346 . S
Ho537 O561 2.305 . S
Ho537 O562 2.322 . S
Ho537 O564 2.378 . S
Ho537 O565 2.524 . S
Ho537 O566 2.381 . S
Ho537 O567 2.669 . S
C538 O556 1.259 . S
C538 O557 1.268 . S
C539 Ho536 2.811 . S
C539 C540 1.488 . S
C539 O558 1.215 . S
C539 O559 1.289 . S
C540 C539 1.488 . S
C540 C541 1.348 . S
C540 C545 1.413 . S
C541 C540 1.348 . S
C541 C542 1.442 . S
C541 H568 0.930 . S
C542 C541 1.442 . S
C542 C543 1.381 . S
C542 H569 0.931 . S
C543 C542 1.381 . S
C543 C544 1.321 . S
C544 C543 1.321 . S
C544 C545 1.403 . S
C544 H570 0.934 . S
C545 C540 1.413 . S
C545 C544 1.403 . S
C545 H571 0.930 . S
C546 O560 1.275 . S
C546 O561 1.256 . S
C547 O562 1.259 . S
C547 O563 1.268 . S
C548 Ho537 2.811 . S
C548 C549 1.488 . S
C548 O564 1.215 . S
C548 O565 1.289 . S
C549 C548 1.488 . S
C549 C550 1.348 . S
C549 C554 1.413 . S
C550 C549 1.348 . S
C550 C551 1.442 . S
C550 H572 0.930 . S
C551 C550 1.442 . S
C551 C552 1.381 . S
C551 H573 0.931 . S
C552 C551 1.381 . S
C552 C553 1.321 . S
C553 C552 1.321 . S
C553 C554 1.403 . S
C553 H574 0.934 . S
C554 C549 1.413 . S
C554 C553 1.403 . S
C554 H575 0.930 . S
C555 O566 1.275 . S
C555 O567 1.256 . S
O556 Ho536 2.322 . S
O556 C538 1.259 . S
O557 Ho537 2.346 . S
O557 C538 1.268 . S
O558 Ho536 2.378 . S
O558 C539 1.215 . S
O559 Ho536 2.524 . S
O559 C539 1.289 . S
O560 Ho536 2.381 . S
O560 C546 1.275 . S
O561 Ho536 2.669 . S
O561 Ho537 2.305 . S
O561 C546 1.256 . S
O562 Ho537 2.322 . S
O562 C547 1.259 . S
O563 Ho536 2.346 . S
O563 C547 1.268 . S
O564 Ho537 2.378 . S
O564 C548 1.215 . S
O565 Ho537 2.524 . S
O565 C548 1.289 . S
O566 Ho537 2.381 . S
O566 C555 1.275 . S
O567 Ho536 2.305 . S
O567 Ho537 2.669 . S
O567 C555 1.256 . S
H568 C541 0.930 . S
H569 C542 0.931 . S
H570 C544 0.934 . S
H571 C545 0.930 . S
H572 C550 0.930 . S
H573 C551 0.931 . S
H574 C553 0.934 . S
H575 C554 0.930 . S
Ho576 C579 2.811 . S
Ho576 O596 2.322 . S
Ho576 O598 2.378 . S
Ho576 O599 2.524 . S
Ho576 O600 2.381 1_545 S
Ho576 O601 2.669 1_554 S
Ho576 O603 2.346 . S
Ho576 O607 2.305 . S
Ho577 C588 2.811 . S
Ho577 O597 2.346 . S
Ho577 O601 2.305 . S
Ho577 O602 2.322 1_556 S
Ho577 O604 2.378 . S
Ho577 O605 2.524 . S
Ho577 O606 2.381 1_556 S
Ho577 O607 2.669 1_556 S
C578 O596 1.259 . S
C578 O597 1.268 1_554 S
C579 Ho576 2.811 . S
C579 C580 1.488 . S
C579 O598 1.215 . S
C579 O599 1.289 . S
C580 C579 1.488 . S
C580 C581 1.348 . S
C580 C585 1.413 1_545 S
C581 C580 1.348 . S
C581 C582 1.442 . S
C581 H608 0.930 . S
C582 C581 1.442 . S
C582 C583 1.381 1_545 S
C582 H609 0.931 . S
C583 C582 1.381 1_565 S
C583 C584 1.321 . S
C584 C583 1.321 . S
C584 C585 1.403 . S
C584 H610 0.934 . S
C585 C580 1.413 1_565 S
C585 C584 1.403 . S
C585 H611 0.930 . S
C586 O600 1.275 1_556 S
C586 O601 1.256 1_565 S
C587 O602 1.259 . S
C587 O603 1.268 . S
C588 Ho577 2.811 . S
C588 C589 1.488 . S
C588 O604 1.215 . S
C588 O605 1.289 . S
C589 C588 1.488 . S
C589 C590 1.348 . S
C589 C594 1.413 . S
C590 C589 1.348 . S
C590 C591 1.442 . S
C590 H612 0.930 . S
C591 C590 1.442 . S
C591 C592 1.381 . S
C591 H613 0.931 . S
C592 C591 1.381 . S
C592 C593 1.321 . S
C593 C592 1.321 . S
C593 C594 1.403 . S
C593 H614 0.934 . S
C594 C589 1.413 . S
C594 C593 1.403 . S
C594 H615 0.930 . S
C595 O606 1.275 . S
C595 O607 1.256 . S
O596 Ho576 2.322 . S
O596 C578 1.259 . S
O597 Ho577 2.346 . S
O597 C578 1.268 1_556 S
O598 Ho576 2.378 . S
O598 C579 1.215 . S
O599 Ho576 2.524 . S
O599 C579 1.289 . S
O600 Ho576 2.381 1_565 S
O600 C586 1.275 1_554 S
O601 Ho576 2.669 1_556 S
O601 Ho577 2.305 . S
O601 C586 1.256 1_545 S
O602 Ho577 2.322 1_554 S
O602 C587 1.259 . S
O603 Ho576 2.346 . S
O603 C587 1.268 . S
O604 Ho577 2.378 . S
O604 C588 1.215 . S
O605 Ho577 2.524 . S
O605 C588 1.289 . S
O606 Ho577 2.381 1_554 S
O606 C595 1.275 . S
O607 Ho576 2.305 . S
O607 Ho577 2.669 1_554 S
O607 C595 1.256 . S
H608 C581 0.930 . S
H609 C582 0.931 . S
H610 C584 0.934 . S
H611 C585 0.930 . S
H612 C590 0.930 . S
H613 C591 0.931 . S
H614 C593 0.934 . S
H615 C594 0.930 . S
Ho616 C619 2.811 . S
Ho616 O636 2.322 . S
Ho616 O638 2.378 . S
Ho616 O639 2.524 . S
Ho616 O640 2.381 . S
Ho616 O641 2.669 . S
Ho616 O643 2.346 . S
Ho616 O647 2.305 . S
Ho617 C628 2.811 . S
Ho617 O637 2.346 . S
Ho617 O641 2.305 . S
Ho617 O642 2.322 . S
Ho617 O644 2.378 . S
Ho617 O645 2.524 . S
Ho617 O646 2.381 . S
Ho617 O647 2.669 . S
C618 O636 1.259 . S
C618 O637 1.268 . S
C619 Ho616 2.811 . S
C619 C620 1.488 . S
C619 O638 1.215 . S
C619 O639 1.289 . S
C620 C619 1.488 . S
C620 C621 1.348 . S
C620 C625 1.413 . S
C621 C620 1.348 . S
C621 C622 1.442 . S
C621 H648 0.930 . S
C622 C621 1.442 . S
C622 C623 1.381 . S
C622 H649 0.931 . S
C623 C622 1.381 . S
C623 C624 1.321 . S
C624 C623 1.321 . S
C624 C625 1.403 . S
C624 H650 0.934 . S
C625 C620 1.413 . S
C625 C624 1.403 . S
C625 H651 0.930 . S
C626 O640 1.275 . S
C626 O641 1.256 . S
C627 O642 1.259 . S
C627 O643 1.268 . S
C628 Ho617 2.811 . S
C628 C629 1.488 . S
C628 O644 1.215 . S
C628 O645 1.289 . S
C629 C628 1.488 . S
C629 C630 1.348 . S
C629 C634 1.413 . S
C630 C629 1.348 . S
C630 C631 1.442 . S
C630 H652 0.930 . S
C631 C630 1.442 . S
C631 C632 1.381 . S
C631 H653 0.931 . S
C632 C631 1.381 . S
C632 C633 1.321 . S
C633 C632 1.321 . S
C633 C634 1.403 . S
C633 H654 0.934 . S
C634 C629 1.413 . S
C634 C633 1.403 . S
C634 H655 0.930 . S
C635 O646 1.275 . S
C635 O647 1.256 . S
O636 Ho616 2.322 . S
O636 C618 1.259 . S
O637 Ho617 2.346 . S
O637 C618 1.268 . S
O638 Ho616 2.378 . S
O638 C619 1.215 . S
O639 Ho616 2.524 . S
O639 C619 1.289 . S
O640 Ho616 2.381 . S
O640 C626 1.275 . S
O641 Ho616 2.669 . S
O641 Ho617 2.305 . S
O641 C626 1.256 . S
O642 Ho617 2.322 . S
O642 C627 1.259 . S
O643 Ho616 2.346 . S
O643 C627 1.268 . S
O644 Ho617 2.378 . S
O644 C628 1.215 . S
O645 Ho617 2.524 . S
O645 C628 1.289 . S
O646 Ho617 2.381 . S
O646 C635 1.275 . S
O647 Ho616 2.305 . S
O647 Ho617 2.669 . S
O647 C635 1.256 . S
H648 C621 0.930 . S
H649 C622 0.931 . S
H650 C624 0.934 . S
H651 C625 0.930 . S
H652 C630 0.930 . S
H653 C631 0.931 . S
H654 C633 0.934 . S
H655 C634 0.930 . S
Ho656 C659 2.811 . S
Ho656 O676 2.322 1_554 S
Ho656 O678 2.378 . S
Ho656 O679 2.520 1_554 S
Ho656 O680 2.381 . S
Ho656 O681 2.669 . S
Ho656 O683 2.346 . S
Ho656 O687 2.305 . S
Ho657 C668 2.794 1_556 S
Ho657 O677 2.370 . S
Ho657 O681 2.293 1_556 S
Ho657 O682 2.296 1_556 S
Ho657 O684 2.369 1_556 S
Ho657 O685 2.502 1_556 S
Ho657 O686 2.388 . S
Ho657 O687 2.672 1_556 S
C658 O676 1.259 . S
C658 O677 1.268 . S
C659 Ho656 2.811 . S
C659 C660 1.488 1_554 S
C659 O678 1.215 . S
C659 O679 1.288 1_554 S
C660 C659 1.488 1_556 S
C660 C661 1.348 . S
C660 C665 1.413 . S
C661 C660 1.348 . S
C661 C662 1.442 . S
C661 H688 0.930 . S
C662 C661 1.442 . S
C662 C663 1.381 . S
C662 H689 0.931 . S
C663 C662 1.381 . S
C663 C664 1.321 . S
C664 C663 1.321 . S
C664 C665 1.403 . S
C664 H690 0.934 . S
C665 C660 1.413 . S
C665 C664 1.403 . S
C665 H691 0.930 1_556 S
C666 O680 1.275 . S
C666 O681 1.256 . S
C667 O682 1.259 . S
C667 O683 1.268 . S
C668 Ho657 2.794 1_554 S
C668 C669 1.488 . S
C668 O684 1.215 . S
C668 O685 1.289 . S
C669 C668 1.488 . S
C669 C670 1.348 . S
C669 C674 1.413 . S
C670 C669 1.348 . S
C670 C671 1.442 . S
C670 H692 0.930 . S
C671 C670 1.442 . S
C671 C672 1.381 . S
C671 H693 0.931 . S
C672 C671 1.381 . S
C672 C673 1.321 . S
C673 C672 1.321 . S
C673 C674 1.403 . S
C673 H694 0.934 . S
C674 C669 1.413 . S
C674 C673 1.403 . S
C674 H695 0.930 . S
C675 O686 1.275 1_554 S
C675 O687 1.256 . S
O676 Ho656 2.322 1_556 S
O676 C658 1.259 . S
O677 Ho657 2.370 . S
O677 C658 1.268 . S
O678 Ho656 2.378 . S
O678 C659 1.215 . S
O679 Ho656 2.520 1_556 S
O679 C659 1.288 1_556 S
O680 Ho656 2.381 . S
O680 C666 1.275 . S
O681 Ho656 2.669 . S
O681 Ho657 2.293 1_554 S
O681 C666 1.256 . S
O682 Ho657 2.296 1_554 S
O682 C667 1.259 . S
O683 Ho656 2.346 . S
O683 C667 1.268 . S
O684 Ho657 2.369 1_554 S
O684 C668 1.215 . S
O685 Ho657 2.502 1_554 S
O685 C668 1.289 . S
O686 Ho657 2.388 . S
O686 C675 1.275 1_556 S
O687 Ho656 2.305 . S
O687 Ho657 2.672 1_554 S
O687 C675 1.256 . S
H688 C661 0.930 . S
H689 C662 0.931 . S
H690 C664 0.934 . S
H691 C665 0.930 1_554 S
H692 C670 0.930 . S
H693 C671 0.931 . S
H694 C673 0.934 . S
H695 C674 0.930 . S
Ho696 C699 2.811 . S
Ho696 O716 2.322 . S
Ho696 O718 2.378 . S
Ho696 O719 2.524 . S
Ho696 O720 2.381 . S
Ho696 O721 2.669 . S
Ho696 O723 2.346 . S
Ho696 O727 2.305 . S
Ho697 C708 2.811 . S
Ho697 O717 2.346 . S
Ho697 O721 2.305 . S
Ho697 O722 2.322 . S
Ho697 O724 2.378 . S
Ho697 O725 2.524 . S
Ho697 O726 2.381 . S
Ho697 O727 2.669 . S
C698 O716 1.259 . S
C698 O717 1.268 . S
C699 Ho696 2.811 . S
C699 C700 1.488 . S
C699 O718 1.215 . S
C699 O719 1.289 . S
C700 C699 1.488 . S
C700 C701 1.348 . S
C700 C705 1.413 . S
C701 C700 1.348 . S
C701 C702 1.442 . S
C701 H728 0.930 . S
C702 C701 1.442 . S
C702 C703 1.381 . S
C702 H729 0.931 . S
C703 C702 1.381 . S
C703 C704 1.321 . S
C704 C703 1.321 . S
C704 C705 1.403 . S
C704 H730 0.934 . S
C705 C700 1.413 . S
C705 C704 1.403 . S
C705 H731 0.930 . S
C706 O720 1.275 . S
C706 O721 1.256 . S
C707 O722 1.259 . S
C707 O723 1.268 . S
C708 Ho697 2.811 . S
C708 C709 1.488 . S
C708 O724 1.215 . S
C708 O725 1.289 . S
C709 C708 1.488 . S
C709 C710 1.348 . S
C709 C714 1.413 . S
C710 C709 1.348 . S
C710 C711 1.442 . S
C710 H732 0.930 . S
C711 C710 1.442 . S
C711 C712 1.381 . S
C711 H733 0.931 . S
C712 C711 1.381 . S
C712 C713 1.321 . S
C713 C712 1.321 . S
C713 C714 1.403 . S
C713 H734 0.934 . S
C714 C709 1.413 . S
C714 C713 1.403 . S
C714 H735 0.930 . S
C715 O726 1.275 . S
C715 O727 1.256 . S
O716 Ho696 2.322 . S
O716 C698 1.259 . S
O717 Ho697 2.346 . S
O717 C698 1.268 . S
O718 Ho696 2.378 . S
O718 C699 1.215 . S
O719 Ho696 2.524 . S
O719 C699 1.289 . S
O720 Ho696 2.381 . S
O720 C706 1.275 . S
O721 Ho696 2.669 . S
O721 Ho697 2.305 . S
O721 C706 1.256 . S
O722 Ho697 2.322 . S
O722 C707 1.259 . S
O723 Ho696 2.346 . S
O723 C707 1.268 . S
O724 Ho697 2.378 . S
O724 C708 1.215 . S
O725 Ho697 2.524 . S
O725 C708 1.289 . S
O726 Ho697 2.381 . S
O726 C715 1.275 . S
O727 Ho696 2.305 . S
O727 Ho697 2.669 . S
O727 C715 1.256 . S
H728 C701 0.930 . S
H729 C702 0.931 . S
H730 C704 0.934 . S
H731 C705 0.930 . S
H732 C710 0.930 . S
H733 C711 0.931 . S
H734 C713 0.934 . S
H735 C714 0.930 . S
Ho736 C739 2.811 . S
Ho736 O756 2.322 . S
Ho736 O758 2.378 . S
Ho736 O759 2.524 . S
Ho736 O760 2.381 . S
Ho736 O761 2.669 . S
Ho736 O763 2.346 . S
Ho736 O767 2.305 . S
Ho737 C748 2.811 . S
Ho737 O757 2.346 . S
Ho737 O761 2.305 . S
Ho737 O762 2.322 . S
Ho737 O764 2.378 . S
Ho737 O765 2.524 . S
Ho737 O766 2.381 . S
Ho737 O767 2.669 . S
C738 O756 1.259 . S
C738 O757 1.268 . S
C739 Ho736 2.811 . S
C739 C740 1.488 . S
C739 O758 1.215 . S
C739 O759 1.289 . S
C740 C739 1.488 . S
C740 C741 1.348 . S
C740 C745 1.413 . S
C741 C740 1.348 . S
C741 C742 1.442 1_455 S
C741 H768 0.918 1_455 S
C742 C741 1.442 1_655 S
C742 C743 1.381 . S
C742 H769 0.931 . S
C743 C742 1.381 . S
C743 C744 1.321 1_655 S
C744 C743 1.321 1_455 S
C744 C745 1.403 . S
C744 H770 0.934 . S
C745 C740 1.413 . S
C745 C744 1.403 . S
C745 H771 0.930 . S
C746 O760 1.275 . S
C746 O761 1.256 . S
C747 O762 1.259 . S
C747 O763 1.268 . S
C748 Ho737 2.811 . S
C748 C749 1.488 . S
C748 O764 1.215 . S
C748 O765 1.289 . S
C749 C748 1.488 . S
C749 C750 1.348 . S
C749 C754 1.413 . S
C750 C749 1.348 . S
C750 C751 1.442 . S
C750 H772 0.930 . S
C751 C750 1.442 . S
C751 C752 1.381 . S
C751 H773 0.931 . S
C752 C751 1.381 . S
C752 C753 1.321 . S
C753 C752 1.321 . S
C753 C754 1.403 . S
C753 H774 0.934 . S
C754 C749 1.413 . S
C754 C753 1.403 . S
C754 H775 0.930 . S
C755 O766 1.275 . S
C755 O767 1.256 . S
O756 Ho736 2.322 . S
O756 C738 1.259 . S
O757 Ho737 2.346 . S
O757 C738 1.268 . S
O758 Ho736 2.378 . S
O758 C739 1.215 . S
O759 Ho736 2.524 . S
O759 C739 1.289 . S
O760 Ho736 2.381 . S
O760 C746 1.275 . S
O761 Ho736 2.669 . S
O761 Ho737 2.305 . S
O761 C746 1.256 . S
O762 Ho737 2.322 . S
O762 C747 1.259 . S
O763 Ho736 2.346 . S
O763 C747 1.268 . S
O764 Ho737 2.378 . S
O764 C748 1.215 . S
O765 Ho737 2.524 . S
O765 C748 1.289 . S
O766 Ho737 2.381 . S
O766 C755 1.275 . S
O767 Ho736 2.305 . S
O767 Ho737 2.669 . S
O767 C755 1.256 . S
H768 C741 0.918 1_655 S
H769 C742 0.931 . S
H770 C744 0.934 . S
H771 C745 0.930 . S
H772 C750 0.930 . S
H773 C751 0.931 . S
H774 C753 0.934 . S
H775 C754 0.930 . S
Ho776 C779 2.811 . S
Ho776 O796 2.322 . S
Ho776 O798 2.378 . S
Ho776 O799 2.524 . S
Ho776 O800 2.381 . S
Ho776 O801 2.669 . S
Ho776 O803 2.346 . S
Ho776 O807 2.305 . S
Ho777 C788 2.811 . S
Ho777 O797 2.346 . S
Ho777 O801 2.305 . S
Ho777 O802 2.322 . S
Ho777 O804 2.378 . S
Ho777 O805 2.524 . S
Ho777 O806 2.381 . S
Ho777 O807 2.669 . S
C778 O796 1.259 . S
C778 O797 1.268 . S
C779 Ho776 2.811 . S
C779 C780 1.488 . S
C779 O798 1.215 . S
C779 O799 1.289 . S
C780 C779 1.488 . S
C780 C781 1.348 . S
C780 C785 1.413 . S
C781 C780 1.348 . S
C781 C782 1.442 . S
C781 H808 0.930 . S
C782 C781 1.442 . S
C782 C783 1.381 . S
C782 H809 0.931 . S
C783 C782 1.381 . S
C783 C784 1.321 . S
C784 C783 1.321 . S
C784 C785 1.403 . S
C784 H810 0.934 . S
C785 C780 1.413 . S
C785 C784 1.403 . S
C785 H811 0.930 . S
C786 O800 1.275 . S
C786 O801 1.256 . S
C787 O802 1.259 . S
C787 O803 1.268 . S
C788 Ho777 2.811 . S
C788 C789 1.488 . S
C788 O804 1.215 . S
C788 O805 1.289 . S
C789 C788 1.488 . S
C789 C790 1.348 . S
C789 C794 1.413 . S
C790 C789 1.348 . S
C790 C791 1.442 . S
C790 H812 0.930 . S
C791 C790 1.442 . S
C791 C792 1.381 . S
C791 H813 0.931 . S
C792 C791 1.381 . S
C792 C793 1.321 . S
C793 C792 1.321 . S
C793 C794 1.403 . S
C793 H814 0.934 . S
C794 C789 1.413 . S
C794 C793 1.403 . S
C794 H815 0.930 . S
C795 O806 1.275 . S
C795 O807 1.256 . S
O796 Ho776 2.322 . S
O796 C778 1.259 . S
O797 Ho777 2.346 . S
O797 C778 1.268 . S
O798 Ho776 2.378 . S
O798 C779 1.215 . S
O799 Ho776 2.524 . S
O799 C779 1.289 . S
O800 Ho776 2.381 . S
O800 C786 1.275 . S
O801 Ho776 2.669 . S
O801 Ho777 2.305 . S
O801 C786 1.256 . S
O802 Ho777 2.322 . S
O802 C787 1.259 . S
O803 Ho776 2.346 . S
O803 C787 1.268 . S
O804 Ho777 2.378 . S
O804 C788 1.215 . S
O805 Ho777 2.524 . S
O805 C788 1.289 . S
O806 Ho777 2.381 . S
O806 C795 1.275 . S
O807 Ho776 2.305 . S
O807 Ho777 2.669 . S
O807 C795 1.256 . S
H808 C781 0.930 . S
H809 C782 0.931 . S
H810 C784 0.934 . S
H811 C785 0.930 . S
H812 C790 0.930 . S
H813 C791 0.931 . S
H814 C793 0.934 . S
H815 C794 0.930 . S
Ho816 C819 2.811 . S
Ho816 O836 2.322 . S
Ho816 O838 2.378 . S
Ho816 O839 2.524 . S
Ho816 O840 2.381 . S
Ho816 O841 2.669 . S
Ho816 O843 2.346 . S
Ho816 O847 2.305 . S
Ho817 C828 2.811 . S
Ho817 O837 2.346 . S
Ho817 O841 2.305 . S
Ho817 O842 2.322 . S
Ho817 O844 2.378 . S
Ho817 O845 2.524 . S
Ho817 O846 2.381 . S
Ho817 O847 2.669 . S
C818 O836 1.259 . S
C818 O837 1.268 . S
C819 Ho816 2.811 . S
C819 C820 1.488 . S
C819 O838 1.215 . S
C819 O839 1.289 . S
C820 C819 1.488 . S
C820 C821 1.348 . S
C820 C825 1.413 . S
C821 C820 1.348 . S
C821 C822 1.442 . S
C821 H848 0.930 . S
C822 C821 1.442 . S
C822 C823 1.381 . S
C822 H849 0.931 . S
C823 C822 1.381 . S
C823 C824 1.321 . S
C824 C823 1.321 . S
C824 C825 1.403 . S
C824 H850 0.934 . S
C825 C820 1.413 . S
C825 C824 1.403 . S
C825 H851 0.930 . S
C826 O840 1.275 . S
C826 O841 1.256 . S
C827 O842 1.259 . S
C827 O843 1.268 . S
C828 Ho817 2.811 . S
C828 C829 1.488 . S
C828 O844 1.215 . S
C828 O845 1.289 . S
C829 C828 1.488 . S
C829 C830 1.348 . S
C829 C834 1.413 . S
C830 C829 1.348 . S
C830 C831 1.442 . S
C830 H852 0.930 . S
C831 C830 1.442 . S
C831 C832 1.381 . S
C831 H853 0.931 . S
C832 C831 1.381 . S
C832 C833 1.321 . S
C833 C832 1.321 . S
C833 C834 1.403 . S
C833 H854 0.934 . S
C834 C829 1.413 . S
C834 C833 1.403 . S
C834 H855 0.930 . S
C835 O846 1.275 . S
C835 O847 1.256 . S
O836 Ho816 2.322 . S
O836 C818 1.259 . S
O837 Ho817 2.346 . S
O837 C818 1.268 . S
O838 Ho816 2.378 . S
O838 C819 1.215 . S
O839 Ho816 2.524 . S
O839 C819 1.289 . S
O840 Ho816 2.381 . S
O840 C826 1.275 . S
O841 Ho816 2.669 . S
O841 Ho817 2.305 . S
O841 C826 1.256 . S
O842 Ho817 2.322 . S
O842 C827 1.259 . S
O843 Ho816 2.346 . S
O843 C827 1.268 . S
O844 Ho817 2.378 . S
O844 C828 1.215 . S
O845 Ho817 2.524 . S
O845 C828 1.289 . S
O846 Ho817 2.381 . S
O846 C835 1.275 . S
O847 Ho816 2.305 . S
O847 Ho817 2.669 . S
O847 C835 1.256 . S
H848 C821 0.930 . S
H849 C822 0.931 . S
H850 C824 0.934 . S
H851 C825 0.930 . S
H852 C830 0.930 . S
H853 C831 0.931 . S
H854 C833 0.934 . S
H855 C834 0.930 . S
Ho856 C859 2.811 . S
Ho856 O876 2.322 . S
Ho856 O878 2.378 . S
Ho856 O879 2.524 . S
Ho856 O880 2.381 . S
Ho856 O881 2.669 . S
Ho856 O883 2.346 . S
Ho856 O887 2.305 . S
Ho857 C868 2.811 . S
Ho857 O877 2.346 . S
Ho857 O881 2.305 . S
Ho857 O882 2.322 . S
Ho857 O884 2.378 . S
Ho857 O885 2.524 . S
Ho857 O886 2.381 . S
Ho857 O887 2.669 . S
C858 O876 1.259 . S
C858 O877 1.268 . S
C859 Ho856 2.811 . S
C859 C860 1.488 . S
C859 O878 1.215 . S
C859 O879 1.289 . S
C860 C859 1.488 . S
C860 C861 1.348 . S
C860 C865 1.413 . S
C861 C860 1.348 . S
C861 C862 1.442 . S
C861 H888 0.930 . S
C862 C861 1.442 . S
C862 C863 1.381 . S
C862 H889 0.931 . S
C863 C862 1.381 . S
C863 C864 1.321 . S
C864 C863 1.321 . S
C864 C865 1.403 . S
C864 H890 0.934 . S
C865 C860 1.413 . S
C865 C864 1.403 . S
C865 H891 0.930 . S
C866 O880 1.275 . S
C866 O881 1.256 . S
C867 O882 1.259 . S
C867 O883 1.268 . S
C868 Ho857 2.811 . S
C868 C869 1.488 . S
C868 O884 1.215 . S
C868 O885 1.289 . S
C869 C868 1.488 . S
C869 C870 1.348 . S
C869 C874 1.413 . S
C870 C869 1.348 . S
C870 C871 1.442 . S
C870 H892 0.930 . S
C871 C870 1.442 . S
C871 C872 1.381 . S
C871 H893 0.931 . S
C872 C871 1.381 . S
C872 C873 1.321 . S
C873 C872 1.321 . S
C873 C874 1.403 . S
C873 H894 0.934 . S
C874 C869 1.413 . S
C874 C873 1.403 . S
C874 H895 0.930 . S
C875 O886 1.275 . S
C875 O887 1.256 . S
O876 Ho856 2.322 . S
O876 C858 1.259 . S
O877 Ho857 2.346 . S
O877 C858 1.268 . S
O878 Ho856 2.378 . S
O878 C859 1.215 . S
O879 Ho856 2.524 . S
O879 C859 1.289 . S
O880 Ho856 2.381 . S
O880 C866 1.275 . S
O881 Ho856 2.669 . S
O881 Ho857 2.305 . S
O881 C866 1.256 . S
O882 Ho857 2.322 . S
O882 C867 1.259 . S
O883 Ho856 2.346 . S
O883 C867 1.268 . S
O884 Ho857 2.378 . S
O884 C868 1.215 . S
O885 Ho857 2.524 . S
O885 C868 1.289 . S
O886 Ho857 2.381 . S
O886 C875 1.275 . S
O887 Ho856 2.305 . S
O887 Ho857 2.669 . S
O887 C875 1.256 . S
H888 C861 0.930 . S
H889 C862 0.931 . S
H890 C864 0.934 . S
H891 C865 0.930 . S
H892 C870 0.930 . S
H893 C871 0.931 . S
H894 C873 0.934 . S
H895 C874 0.930 . S
Ho896 C899 2.811 . S
Ho896 O916 2.322 . S
Ho896 O918 2.378 . S
Ho896 O919 2.524 . S
Ho896 O920 2.381 . S
Ho896 O921 2.669 . S
Ho896 O923 2.346 . S
Ho896 O927 2.305 . S
Ho897 C908 2.811 . S
Ho897 O917 2.346 . S
Ho897 O921 2.305 . S
Ho897 O922 2.322 . S
Ho897 O924 2.378 . S
Ho897 O925 2.524 . S
Ho897 O926 2.381 . S
Ho897 O927 2.669 . S
C898 O916 1.259 . S
C898 O917 1.268 . S
C899 Ho896 2.811 . S
C899 C900 1.488 . S
C899 O918 1.215 . S
C899 O919 1.289 . S
C900 C899 1.488 . S
C900 C901 1.348 . S
C900 C905 1.413 . S
C901 C900 1.348 . S
C901 C902 1.442 . S
C901 H928 0.930 . S
C902 C901 1.442 . S
C902 C903 1.381 . S
C902 H929 0.931 . S
C903 C902 1.381 . S
C903 C904 1.321 . S
C904 C903 1.321 . S
C904 C905 1.403 . S
C904 H930 0.934 . S
C905 C900 1.413 . S
C905 C904 1.403 . S
C905 H931 0.930 . S
C906 O920 1.275 . S
C906 O921 1.256 . S
C907 O922 1.259 . S
C907 O923 1.268 . S
C908 Ho897 2.811 . S
C908 C909 1.488 . S
C908 O924 1.215 . S
C908 O925 1.289 . S
C909 C908 1.488 . S
C909 C910 1.348 . S
C909 C914 1.413 . S
C910 C909 1.348 . S
C910 C911 1.442 . S
C910 H932 0.930 . S
C911 C910 1.442 . S
C911 C912 1.381 . S
C911 H933 0.931 . S
C912 C911 1.381 . S
C912 C913 1.321 . S
C913 C912 1.321 . S
C913 C914 1.403 . S
C913 H934 0.934 . S
C914 C909 1.413 . S
C914 C913 1.403 . S
C914 H935 0.930 . S
C915 O926 1.275 . S
C915 O927 1.256 . S
O916 Ho896 2.322 . S
O916 C898 1.259 . S
O917 Ho897 2.346 . S
O917 C898 1.268 . S
O918 Ho896 2.378 . S
O918 C899 1.215 . S
O919 Ho896 2.524 . S
O919 C899 1.289 . S
O920 Ho896 2.381 . S
O920 C906 1.275 . S
O921 Ho896 2.669 . S
O921 Ho897 2.305 . S
O921 C906 1.256 . S
O922 Ho897 2.322 . S
O922 C907 1.259 . S
O923 Ho896 2.346 . S
O923 C907 1.268 . S
O924 Ho897 2.378 . S
O924 C908 1.215 . S
O925 Ho897 2.524 . S
O925 C908 1.289 . S
O926 Ho897 2.381 . S
O926 C915 1.275 . S
O927 Ho896 2.305 . S
O927 Ho897 2.669 . S
O927 C915 1.256 . S
H928 C901 0.930 . S
H929 C902 0.931 . S
H930 C904 0.934 . S
H931 C905 0.930 . S
H932 C910 0.930 . S
H933 C911 0.931 . S
H934 C913 0.934 . S
H935 C914 0.930 . S
Ho936 C939 2.811 1_554 S
Ho936 O956 2.322 1_554 S
Ho936 O958 2.378 1_554 S
Ho936 O959 2.524 . S
Ho936 O960 2.381 1_554 S
Ho936 O961 2.669 1_554 S
Ho936 O963 2.346 . S
Ho936 O967 2.305 . S
Ho937 C948 2.811 1_455 S
Ho937 O957 2.346 . S
Ho937 O961 2.305 1_554 S
Ho937 O962 2.322 . S
Ho937 O964 2.384 . S
Ho937 O965 2.524 1_455 S
Ho937 O966 2.381 . S
Ho937 O967 2.669 . S
C938 O956 1.259 1_554 S
C938 O957 1.268 . S
C939 Ho936 2.811 1_556 S
C939 C940 1.488 . S
C939 O958 1.215 . S
C939 O959 1.289 1_556 S
C940 C939 1.488 . S
C940 C941 1.348 1_556 S
C940 C945 1.413 . S
C941 C940 1.348 1_554 S
C941 C942 1.442 . S
C941 H968 0.930 . S
C942 C941 1.442 . S
C942 C943 1.381 1_554 S
C942 H969 0.931 . S
C943 C942 1.381 1_556 S
C943 C944 1.321 . S
C944 C943 1.321 . S
C944 C945 1.403 . S
C944 H970 0.934 . S
C945 C940 1.413 . S
C945 C944 1.403 . S
C945 H971 0.930 . S
C946 O960 1.275 . S
C946 O961 1.256 . S
C947 O962 1.259 . S
C947 O963 1.268 . S
C948 Ho937 2.811 1_655 S
C948 C949 1.488 . S
C948 O964 1.212 1_655 S
C948 O965 1.289 . S
C949 C948 1.488 . S
C949 C950 1.348 . S
C949 C954 1.413 . S
C950 C949 1.348 . S
C950 C951 1.442 . S
C950 H972 0.930 . S
C951 C950 1.442 . S
C951 C952 1.381 . S
C951 H973 0.931 . S
C952 C951 1.381 . S
C952 C953 1.321 . S
C953 C952 1.321 . S
C953 C954 1.403 . S
C953 H974 0.934 . S
C954 C949 1.413 . S
C954 C953 1.403 . S
C954 H975 0.930 . S
C955 O966 1.275 . S
C955 O967 1.256 . S
O956 Ho936 2.322 1_556 S
O956 C938 1.259 1_556 S
O957 Ho937 2.346 . S
O957 C938 1.268 . S
O958 Ho936 2.378 1_556 S
O958 C939 1.215 . S
O959 Ho936 2.524 . S
O959 C939 1.289 1_554 S
O960 Ho936 2.381 1_556 S
O960 C946 1.275 . S
O961 Ho936 2.669 1_556 S
O961 Ho937 2.305 1_556 S
O961 C946 1.256 . S
O962 Ho937 2.322 . S
O962 C947 1.259 . S
O963 Ho936 2.346 . S
O963 C947 1.268 . S
O964 Ho937 2.384 . S
O964 C948 1.212 1_455 S
O965 Ho937 2.524 1_655 S
O965 C948 1.289 . S
O966 Ho937 2.381 . S
O966 C955 1.275 . S
O967 Ho936 2.305 . S
O967 Ho937 2.669 . S
O967 C955 1.256 . S
H968 C941 0.930 . S
H969 C942 0.931 . S
H970 C944 0.934 . S
H971 C945 0.930 . S
H972 C950 0.930 . S
H973 C951 0.931 . S
H974 C953 0.934 . S
H975 C954 0.930 . S
C976 C977 1.369 . S
C976 C978 1.419 . S
C976 H980 0.930 . S
C977 C976 1.369 . S
C977 C986 1.429 . S
C978 C976 1.419 . S
C978 C979 1.363 . S
C978 H981 0.929 . S
C979 C978 1.363 . S
C979 C985 1.428 1_556 S
H980 C976 0.930 . S
H981 C978 0.929 . S
S982 N983 1.613 . S
S982 N984 1.610 1_655 S
N983 S982 1.613 . S
N983 C986 1.350 1_654 S
N984 S982 1.610 1_455 S
N984 C985 1.351 . S
C985 C979 1.428 1_554 S
C985 N984 1.351 . S
C985 C986 1.434 1_554 S
C986 C977 1.429 . S
C986 N983 1.350 1_456 S
C986 C985 1.434 1_556 S
C987 C988 1.369 . S
C987 C989 1.419 . S
C987 H991 0.930 . S
C988 C987 1.369 . S
C988 C997 1.429 . S
C989 C987 1.419 . S
C989 C990 1.363 . S
C989 H992 0.929 . S
C990 C989 1.363 . S
C990 C996 1.428 . S
H991 C987 0.930 . S
H992 C989 0.929 . S
S993 N994 1.613 . S
S993 N995 1.610 . S
N994 S993 1.613 . S
N994 C997 1.350 . S
N995 S993 1.610 . S
N995 C996 1.351 . S
C996 C990 1.428 . S
C996 N995 1.351 . S
C996 C997 1.434 . S
C997 C988 1.429 . S
C997 N994 1.350 . S
C997 C996 1.434 . S
C998 C999 1.369 . S
C998 C1000 1.419 . S
C998 H1002 0.930 . S
C999 C998 1.369 . S
C999 C1008 1.429 . S
C1000 C998 1.419 . S
C1000 C1001 1.363 . S
C1000 H1003 0.929 . S
C1001 C1000 1.363 . S
C1001 C1007 1.428 . S
H1002 C998 0.930 . S
H1003 C1000 0.929 . S
S1004 N1005 1.613 . S
S1004 N1006 1.610 . S
N1005 S1004 1.613 . S
N1005 C1008 1.350 . S
N1006 S1004 1.610 . S
N1006 C1007 1.351 . S
C1007 C1001 1.428 . S
C1007 N1006 1.351 . S
C1007 C1008 1.434 . S
C1008 C999 1.429 . S
C1008 N1005 1.350 . S
C1008 C1007 1.434 . S
C1009 C1010 1.369 . S
C1009 C1011 1.419 . S
C1009 H1013 0.930 . S
C1010 C1009 1.369 . S
C1010 C1019 1.429 . S
C1011 C1009 1.419 . S
C1011 C1012 1.363 . S
C1011 H1014 0.929 . S
C1012 C1011 1.363 . S
C1012 C1018 1.428 . S
H1013 C1009 0.930 . S
H1014 C1011 0.929 . S
S1015 N1016 1.613 . S
S1015 N1017 1.610 . S
N1016 S1015 1.613 . S
N1016 C1019 1.350 . S
N1017 S1015 1.610 . S
N1017 C1018 1.351 . S
C1018 C1012 1.428 . S
C1018 N1017 1.351 . S
C1018 C1019 1.434 . S
C1019 C1010 1.429 . S
C1019 N1016 1.350 . S
C1019 C1018 1.434 . S
C1020 C1021 1.369 . S
C1020 C1022 1.419 . S
C1020 H1024 0.930 . S
C1021 C1020 1.369 . S
C1021 C1030 1.429 . S
C1022 C1020 1.419 . S
C1022 C1023 1.363 . S
C1022 H1025 0.929 . S
C1023 C1022 1.363 . S
C1023 C1029 1.428 . S
H1024 C1020 0.930 . S
H1025 C1022 0.929 . S
S1026 N1027 1.613 . S
S1026 N1028 1.610 . S
N1027 S1026 1.613 . S
N1027 C1030 1.350 . S
N1028 S1026 1.610 . S
N1028 C1029 1.351 . S
C1029 C1023 1.428 . S
C1029 N1028 1.351 . S
C1029 C1030 1.434 . S
C1030 C1021 1.429 . S
C1030 N1027 1.350 . S
C1030 C1029 1.434 . S
C1031 C1032 1.369 . S
C1031 C1033 1.419 . S
C1031 H1035 0.930 . S
C1032 C1031 1.369 . S
C1032 C1041 1.429 . S
C1033 C1031 1.419 . S
C1033 C1034 1.363 . S
C1033 H1036 0.929 . S
C1034 C1033 1.363 . S
C1034 C1040 1.428 . S
H1035 C1031 0.930 . S
H1036 C1033 0.929 . S
S1037 N1038 1.613 . S
S1037 N1039 1.610 . S
N1038 S1037 1.613 . S
N1038 C1041 1.350 . S
N1039 S1037 1.610 . S
N1039 C1040 1.351 . S
C1040 C1034 1.428 . S
C1040 N1039 1.351 . S
C1040 C1041 1.434 . S
C1041 C1032 1.429 . S
C1041 N1038 1.350 . S
C1041 C1040 1.434 . S
C1042 C1043 1.369 . S
C1042 C1044 1.419 . S
C1042 H1046 0.930 . S
C1043 C1042 1.369 . S
C1043 C1052 1.429 . S
C1044 C1042 1.419 . S
C1044 C1045 1.363 . S
C1044 H1047 0.929 . S
C1045 C1044 1.363 . S
C1045 C1051 1.428 . S
H1046 C1042 0.930 . S
H1047 C1044 0.929 . S
S1048 N1049 1.613 . S
S1048 N1050 1.610 . S
N1049 S1048 1.613 . S
N1049 C1052 1.350 . S
N1050 S1048 1.610 . S
N1050 C1051 1.351 . S
C1051 C1045 1.428 . S
C1051 N1050 1.351 . S
C1051 C1052 1.434 . S
C1052 C1043 1.429 . S
C1052 N1049 1.350 . S
C1052 C1051 1.434 . S
C1053 C1054 1.369 . S
C1053 C1055 1.419 . S
C1053 H1057 0.930 . S
C1054 C1053 1.369 . S
C1054 C1063 1.429 . S
C1055 C1053 1.419 . S
C1055 C1056 1.363 . S
C1055 H1058 0.929 . S
C1056 C1055 1.363 . S
C1056 C1062 1.428 . S
H1057 C1053 0.930 . S
H1058 C1055 0.929 . S
S1059 N1060 1.613 . S
S1059 N1061 1.610 . S
N1060 S1059 1.613 . S
N1060 C1063 1.350 . S
N1061 S1059 1.610 . S
N1061 C1062 1.351 . S
C1062 C1056 1.428 . S
C1062 N1061 1.351 . S
C1062 C1063 1.434 . S
C1063 C1054 1.429 . S
C1063 N1060 1.350 . S
C1063 C1062 1.434 . S
C1064 C1065 1.369 . S
C1064 C1066 1.419 . S
C1064 H1068 0.930 . S
C1065 C1064 1.369 . S
C1065 C1074 1.429 1_455 S
C1066 C1064 1.419 . S
C1066 C1067 1.363 . S
C1066 H1069 0.929 . S
C1067 C1066 1.363 . S
C1067 C1073 1.428 . S
H1068 C1064 0.930 . S
H1069 C1066 0.929 . S
S1070 N1071 1.613 . S
S1070 N1072 1.610 . S
N1071 S1070 1.613 . S
N1071 C1074 1.350 . S
N1072 S1070 1.610 . S
N1072 C1073 1.351 1_655 S
C1073 C1067 1.428 . S
C1073 N1072 1.351 1_455 S
C1073 C1074 1.434 1_455 S
C1074 C1065 1.429 1_655 S
C1074 N1071 1.350 . S
C1074 C1073 1.434 1_655 S
C1075 C1076 1.369 . S
C1075 C1077 1.419 . S
C1075 H1079 0.930 . S
C1076 C1075 1.369 . S
C1076 C1085 1.429 . S
C1077 C1075 1.419 . S
C1077 C1078 1.363 . S
C1077 H1080 0.929 . S
C1078 C1077 1.363 . S
C1078 C1084 1.428 . S
H1079 C1075 0.930 . S
H1080 C1077 0.929 . S
S1081 N1082 1.613 . S
S1081 N1083 1.610 . S
N1082 S1081 1.613 . S
N1082 C1085 1.350 . S
N1083 S1081 1.610 . S
N1083 C1084 1.351 . S
C1084 C1078 1.428 . S
C1084 N1083 1.351 . S
C1084 C1085 1.434 . S
C1085 C1076 1.429 . S
C1085 N1082 1.350 . S
C1085 C1084 1.434 . S
C1086 C1087 1.369 . S
C1086 C1088 1.419 . S
C1086 H1090 0.930 . S
C1087 C1086 1.369 . S
C1087 C1096 1.429 . S
C1088 C1086 1.419 . S
C1088 C1089 1.363 . S
C1088 H1091 0.929 . S
C1089 C1088 1.363 . S
C1089 C1095 1.428 . S
H1090 C1086 0.930 . S
H1091 C1088 0.929 . S
S1092 N1093 1.613 . S
S1092 N1094 1.610 . S
N1093 S1092 1.613 . S
N1093 C1096 1.350 . S
N1094 S1092 1.610 . S
N1094 C1095 1.351 . S
C1095 C1089 1.428 . S
C1095 N1094 1.351 . S
C1095 C1096 1.434 . S
C1096 C1087 1.429 . S
C1096 N1093 1.350 . S
C1096 C1095 1.434 . S
C1097 C1098 1.369 . S
C1097 C1099 1.419 . S
C1097 H1101 0.930 . S
C1098 C1097 1.369 . S
C1098 C1107 1.429 . S
C1099 C1097 1.419 . S
C1099 C1100 1.363 . S
C1099 H1102 0.929 . S
C1100 C1099 1.363 . S
C1100 C1106 1.428 . S
H1101 C1097 0.930 . S
H1102 C1099 0.929 . S
S1103 N1104 1.613 . S
S1103 N1105 1.610 . S
N1104 S1103 1.613 . S
N1104 C1107 1.350 . S
N1105 S1103 1.610 . S
N1105 C1106 1.351 . S
C1106 C1100 1.428 . S
C1106 N1105 1.351 . S
C1106 C1107 1.434 . S
C1107 C1098 1.429 . S
C1107 N1104 1.350 . S
C1107 C1106 1.434 . S
C1108 C1109 1.369 . S
C1108 C1110 1.419 . S
C1108 H1112 0.930 . S
C1109 C1108 1.369 . S
C1109 C1118 1.429 . S
C1110 C1108 1.419 . S
C1110 C1111 1.363 . S
C1110 H1113 0.929 . S
C1111 C1110 1.363 . S
C1111 C1117 1.428 . S
H1112 C1108 0.930 . S
H1113 C1110 0.929 . S
S1114 N1115 1.613 1_465 S
S1114 N1116 1.610 1_565 S
N1115 S1114 1.613 1_645 S
N1115 C1118 1.350 1_655 S
N1116 S1114 1.610 1_545 S
N1116 C1117 1.351 . S
C1117 C1111 1.428 . S
C1117 N1116 1.351 . S
C1117 C1118 1.434 . S
C1118 C1109 1.429 . S
C1118 N1115 1.350 1_455 S
C1118 C1117 1.434 . S
C1119 C1120 1.369 . S
C1119 C1121 1.419 . S
C1119 H1123 0.930 . S
C1120 C1119 1.369 . S
C1120 C1129 1.429 . S
C1121 C1119 1.419 . S
C1121 C1122 1.363 . S
C1121 H1124 0.929 . S
C1122 C1121 1.363 . S
C1122 C1128 1.428 . S
H1123 C1119 0.930 . S
H1124 C1121 0.929 . S
S1125 N1126 1.613 . S
S1125 N1127 1.610 . S
N1126 S1125 1.613 . S
N1126 C1129 1.350 . S
N1127 S1125 1.610 . S
N1127 C1128 1.351 . S
C1128 C1122 1.428 . S
C1128 N1127 1.351 . S
C1128 C1129 1.434 . S
C1129 C1120 1.429 . S
C1129 N1126 1.350 . S
C1129 C1128 1.434 . S
C1130 C1131 1.369 . S
C1130 C1132 1.419 . S
C1130 H1134 0.930 . S
C1131 C1130 1.369 . S
C1131 C1140 1.429 . S
C1132 C1130 1.419 . S
C1132 C1133 1.363 . S
C1132 H1135 0.929 . S
C1133 C1132 1.363 . S
C1133 C1139 1.428 . S
H1134 C1130 0.930 . S
H1135 C1132 0.929 . S
S1136 N1137 1.613 . S
S1136 N1138 1.610 . S
N1137 S1136 1.613 . S
N1137 C1140 1.350 . S
N1138 S1136 1.610 . S
N1138 C1139 1.351 . S
C1139 C1133 1.428 . S
C1139 N1138 1.351 . S
C1139 C1140 1.434 . S
C1140 C1131 1.429 . S
C1140 N1137 1.350 . S
C1140 C1139 1.434 . S
C1141 C1142 1.369 . S
C1141 C1143 1.419 . S
C1141 H1145 0.930 . S
C1142 C1141 1.369 . S
C1142 C1151 1.429 . S
C1143 C1141 1.419 . S
C1143 C1144 1.363 . S
C1143 H1146 0.929 . S
C1144 C1143 1.363 . S
C1144 C1150 1.428 . S
H1145 C1141 0.930 . S
H1146 C1143 0.929 . S
S1147 N1148 1.613 . S
S1147 N1149 1.610 . S
N1148 S1147 1.613 . S
N1148 C1151 1.350 . S
N1149 S1147 1.610 . S
N1149 C1150 1.351 . S
C1150 C1144 1.428 . S
C1150 N1149 1.351 . S
C1150 C1151 1.434 . S
C1151 C1142 1.429 . S
C1151 N1148 1.350 . S
C1151 C1150 1.434 . S
C1152 C1153 1.369 . S
C1152 C1154 1.419 . S
C1152 H1156 0.930 . S
C1153 C1152 1.369 . S
C1153 C1162 1.429 1_565 S
C1154 C1152 1.419 . S
C1154 C1155 1.363 1_565 S
C1154 H1157 0.929 . S
C1155 C1154 1.363 1_545 S
C1155 C1161 1.428 . S
H1156 C1152 0.930 . S
H1157 C1154 0.929 . S
S1158 N1159 1.613 . S
S1158 N1160 1.610 . S
N1159 S1158 1.613 . S
N1159 C1162 1.350 . S
N1160 S1158 1.610 . S
N1160 C1161 1.351 . S
C1161 C1155 1.428 . S
C1161 N1160 1.351 . S
C1161 C1162 1.434 . S
C1162 C1153 1.429 1_545 S
C1162 N1159 1.350 . S
C1162 C1161 1.434 . S
C1163 C1164 1.369 . S
C1163 C1165 1.426 . S
C1163 H1167 0.930 . S
C1164 C1163 1.369 . S
C1164 C1173 1.429 1_556 S
C1165 C1163 1.426 . S
C1165 C1166 1.360 1_556 S
C1165 H1168 0.931 . S
C1166 C1165 1.360 1_554 S
C1166 C1172 1.428 . S
H1167 C1163 0.930 . S
H1168 C1165 0.931 . S
S1169 N1170 1.613 . S
S1169 N1171 1.610 . S
N1170 S1169 1.613 . S
N1170 C1173 1.350 . S
N1171 S1169 1.610 . S
N1171 C1172 1.351 . S
C1172 C1166 1.428 . S
C1172 N1171 1.351 . S
C1172 C1173 1.434 . S
C1173 C1164 1.429 1_554 S
C1173 N1170 1.350 . S
C1173 C1172 1.434 . S
C1174 C1175 1.369 . S
C1174 C1176 1.419 . S
C1174 H1178 0.930 . S
C1175 C1174 1.369 . S
C1175 C1184 1.429 . S
C1176 C1174 1.419 . S
C1176 C1177 1.363 . S
C1176 H1179 0.929 . S
C1177 C1176 1.363 . S
C1177 C1183 1.428 . S
H1178 C1174 0.930 . S
H1179 C1176 0.929 . S
S1180 N1181 1.613 . S
S1180 N1182 1.610 . S
N1181 S1180 1.613 . S
N1181 C1184 1.350 . S
N1182 S1180 1.610 . S
N1182 C1183 1.351 . S
C1183 C1177 1.428 . S
C1183 N1182 1.351 . S
C1183 C1184 1.434 . S
C1184 C1175 1.429 . S
C1184 N1181 1.350 . S
C1184 C1183 1.434 . S
C1185 C1186 1.369 . S
C1185 C1187 1.419 . S
C1185 H1189 0.930 . S
C1186 C1185 1.369 . S
C1186 C1195 1.429 . S
C1187 C1185 1.419 . S
C1187 C1188 1.363 . S
C1187 H1190 0.929 . S
C1188 C1187 1.363 . S
C1188 C1194 1.428 . S
H1189 C1185 0.930 . S
H1190 C1187 0.929 . S
S1191 N1192 1.613 . S
S1191 N1193 1.610 . S
N1192 S1191 1.613 . S
N1192 C1195 1.350 . S
N1193 S1191 1.610 . S
N1193 C1194 1.351 . S
C1194 C1188 1.428 . S
C1194 N1193 1.351 . S
C1194 C1195 1.434 . S
C1195 C1186 1.429 . S
C1195 N1192 1.350 . S
C1195 C1194 1.434 . S
C1196 C1197 1.369 . S
C1196 C1198 1.419 . S
C1196 H1200 0.930 . S
C1197 C1196 1.369 . S
C1197 C1206 1.429 . S
C1198 C1196 1.419 . S
C1198 C1199 1.363 . S
C1198 H1201 0.929 . S
C1199 C1198 1.363 . S
C1199 C1205 1.428 . S
H1200 C1196 0.930 . S
H1201 C1198 0.929 . S
S1202 N1203 1.613 . S
S1202 N1204 1.610 . S
N1203 S1202 1.613 . S
N1203 C1206 1.350 . S
N1204 S1202 1.610 . S
N1204 C1205 1.351 . S
C1205 C1199 1.428 . S
C1205 N1204 1.351 . S
C1205 C1206 1.434 . S
C1206 C1197 1.429 . S
C1206 N1203 1.350 . S
C1206 C1205 1.434 . S
C1207 C1208 1.369 . S
C1207 C1209 1.419 . S
C1207 H1211 0.930 . S
C1208 C1207 1.369 . S
C1208 C1217 1.429 . S
C1209 C1207 1.419 . S
C1209 C1210 1.363 . S
C1209 H1212 0.929 . S
C1210 C1209 1.363 . S
C1210 C1216 1.428 . S
H1211 C1207 0.930 . S
H1212 C1209 0.929 . S
S1213 N1214 1.613 . S
S1213 N1215 1.610 . S
N1214 S1213 1.613 . S
N1214 C1217 1.350 . S
N1215 S1213 1.610 . S
N1215 C1216 1.351 . S
C1216 C1210 1.428 . S
C1216 N1215 1.351 . S
C1216 C1217 1.434 . S
C1217 C1208 1.429 . S
C1217 N1214 1.350 . S
C1217 C1216 1.434 . S
C1218 C1219 1.369 . S
C1218 C1220 1.419 . S
C1218 H1222 0.930 . S
C1219 C1218 1.369 . S
C1219 C1228 1.429 . S
C1220 C1218 1.419 . S
C1220 C1221 1.363 . S
C1220 H1223 0.929 . S
C1221 C1220 1.363 . S
C1221 C1227 1.428 . S
H1222 C1218 0.930 . S
H1223 C1220 0.929 . S
S1224 N1225 1.613 . S
S1224 N1226 1.610 . S
N1225 S1224 1.613 . S
N1225 C1228 1.350 . S
N1226 S1224 1.610 . S
N1226 C1227 1.351 . S
C1227 C1221 1.428 . S
C1227 N1226 1.351 . S
C1227 C1228 1.434 . S
C1228 C1219 1.429 . S
C1228 N1225 1.350 . S
C1228 C1227 1.434 . S
C1229 C1230 1.369 . S
C1229 C1231 1.419 . S
C1229 H1233 0.930 . S
C1230 C1229 1.369 . S
C1230 C1239 1.429 . S
C1231 C1229 1.419 . S
C1231 C1232 1.363 . S
C1231 H1234 0.929 . S
C1232 C1231 1.363 . S
C1232 C1238 1.428 . S
H1233 C1229 0.930 . S
H1234 C1231 0.929 . S
S1235 N1236 1.613 . S
S1235 N1237 1.610 . S
N1236 S1235 1.613 . S
N1236 C1239 1.350 . S
N1237 S1235 1.610 . S
N1237 C1238 1.351 . S
C1238 C1232 1.428 . S
C1238 N1237 1.351 . S
C1238 C1239 1.434 . S
C1239 C1230 1.429 . S
C1239 N1236 1.350 . S
C1239 C1238 1.434 . S
C1240 C1241 1.369 . S
C1240 C1242 1.419 . S
C1240 H1244 0.930 . S
C1241 C1240 1.369 . S
C1241 C1250 1.429 . S
C1242 C1240 1.419 . S
C1242 C1243 1.363 . S
C1242 H1245 0.929 . S
C1243 C1242 1.363 . S
C1243 C1249 1.428 . S
H1244 C1240 0.930 . S
H1245 C1242 0.929 . S
S1246 N1247 1.613 . S
S1246 N1248 1.610 . S
N1247 S1246 1.613 . S
N1247 C1250 1.350 . S
N1248 S1246 1.610 . S
N1248 C1249 1.351 . S
C1249 C1243 1.428 . S
C1249 N1248 1.351 . S
C1249 C1250 1.434 . S
C1250 C1241 1.429 . S
C1250 N1247 1.350 . S
C1250 C1249 1.434 . S
C1251 C1252 1.369 . S
C1251 C1253 1.419 . S
C1251 H1255 0.930 . S
C1252 C1251 1.369 . S
C1252 C1261 1.429 . S
C1253 C1251 1.419 . S
C1253 C1254 1.363 . S
C1253 H1256 0.929 . S
C1254 C1253 1.363 . S
C1254 C1260 1.428 . S
H1255 C1251 0.930 . S
H1256 C1253 0.929 . S
S1257 N1258 1.613 . S
S1257 N1259 1.610 . S
N1258 S1257 1.613 . S
N1258 C1261 1.350 . S
N1259 S1257 1.610 . S
N1259 C1260 1.351 . S
C1260 C1254 1.428 . S
C1260 N1259 1.351 . S
C1260 C1261 1.434 . S
C1261 C1252 1.429 . S
C1261 N1258 1.350 . S
C1261 C1260 1.434 . S
C1262 C1263 1.369 . S
C1262 C1264 1.419 . S
C1262 H1266 0.930 . S
C1263 C1262 1.369 . S
C1263 C1272 1.429 . S
C1264 C1262 1.419 . S
C1264 C1265 1.363 . S
C1264 H1267 0.929 . S
C1265 C1264 1.363 . S
C1265 C1271 1.428 . S
H1266 C1262 0.930 . S
H1267 C1264 0.929 . S
S1268 N1269 1.613 . S
S1268 N1270 1.610 . S
N1269 S1268 1.613 . S
N1269 C1272 1.350 . S
N1270 S1268 1.610 . S
N1270 C1271 1.351 . S
C1271 C1265 1.428 . S
C1271 N1270 1.351 . S
C1271 C1272 1.434 . S
C1272 C1263 1.429 . S
C1272 N1269 1.350 . S
C1272 C1271 1.434 . S
C1273 C1274 1.369 . S
C1273 C1275 1.419 . S
C1273 H1277 0.930 . S
C1274 C1273 1.369 . S
C1274 C1283 1.429 . S
C1275 C1273 1.419 . S
C1275 C1276 1.363 . S
C1275 H1278 0.929 . S
C1276 C1275 1.363 . S
C1276 C1282 1.428 . S
H1277 C1273 0.930 . S
H1278 C1275 0.929 . S
S1279 N1280 1.613 . S
S1279 N1281 1.610 . S
N1280 S1279 1.613 . S
N1280 C1283 1.350 . S
N1281 S1279 1.610 . S
N1281 C1282 1.351 . S
C1282 C1276 1.428 . S
C1282 N1281 1.351 . S
C1282 C1283 1.434 . S
C1283 C1274 1.429 . S
C1283 N1280 1.350 . S
C1283 C1282 1.434 . S
C1284 C1285 1.369 . S
C1284 C1286 1.419 . S
C1284 H1288 0.930 . S
C1285 C1284 1.369 . S
C1285 C1294 1.429 . S
C1286 C1284 1.419 . S
C1286 C1287 1.363 . S
C1286 H1289 0.929 . S
C1287 C1286 1.363 . S
C1287 C1293 1.428 . S
H1288 C1284 0.930 . S
H1289 C1286 0.929 . S
S1290 N1291 1.613 . S
S1290 N1292 1.610 . S
N1291 S1290 1.613 . S
N1291 C1294 1.350 . S
N1292 S1290 1.610 . S
N1292 C1293 1.351 . S
C1293 C1287 1.428 . S
C1293 N1292 1.351 . S
C1293 C1294 1.434 . S
C1294 C1285 1.429 . S
C1294 N1291 1.350 . S
C1294 C1293 1.434 . S
C1295 C1296 1.369 . S
C1295 C1297 1.419 . S
C1295 H1299 0.930 . S
C1296 C1295 1.369 . S
C1296 C1305 1.429 . S
C1297 C1295 1.419 . S
C1297 C1298 1.363 . S
C1297 H1300 0.929 . S
C1298 C1297 1.363 . S
C1298 C1304 1.428 . S
H1299 C1295 0.930 . S
H1300 C1297 0.929 . S
S1301 N1302 1.613 . S
S1301 N1303 1.610 . S
N1302 S1301 1.613 . S
N1302 C1305 1.350 . S
N1303 S1301 1.610 . S
N1303 C1304 1.351 . S
C1304 C1298 1.428 . S
C1304 N1303 1.351 . S
C1304 C1305 1.434 . S
C1305 C1296 1.429 . S
C1305 N1302 1.350 . S
C1305 C1304 1.434 . S
C1306 C1307 1.369 . S
C1306 C1308 1.419 . S
C1306 H1310 0.930 . S
C1307 C1306 1.369 . S
C1307 C1316 1.429 . S
C1308 C1306 1.419 . S
C1308 C1309 1.363 . S
C1308 H1311 0.929 1_556 S
C1309 C1308 1.363 . S
C1309 C1315 1.428 . S
H1310 C1306 0.930 . S
H1311 C1308 0.929 1_554 S
S1312 N1313 1.613 . S
S1312 N1314 1.610 . S
N1313 S1312 1.613 . S
N1313 C1316 1.350 . S
N1314 S1312 1.610 . S
N1314 C1315 1.351 . S
C1315 C1309 1.428 . S
C1315 N1314 1.351 . S
C1315 C1316 1.434 . S
C1316 C1307 1.429 . S
C1316 N1313 1.350 . S
C1316 C1315 1.434 . S
C1317 C1318 1.369 . S
C1317 C1319 1.419 . S
C1317 H1321 0.930 . S
C1318 C1317 1.369 . S
C1318 C1327 1.429 . S
C1319 C1317 1.419 . S
C1319 C1320 1.363 . S
C1319 H1322 0.929 . S
C1320 C1319 1.363 . S
C1320 C1326 1.428 . S
H1321 C1317 0.930 . S
H1322 C1319 0.929 . S
S1323 N1324 1.613 . S
S1323 N1325 1.610 . S
N1324 S1323 1.613 . S
N1324 C1327 1.350 . S
N1325 S1323 1.610 . S
N1325 C1326 1.351 . S
C1326 C1320 1.428 . S
C1326 N1325 1.351 . S
C1326 C1327 1.434 . S
C1327 C1318 1.429 . S
C1327 N1324 1.350 . S
C1327 C1326 1.434 . S
C1328 C1329 1.369 . S
C1328 C1330 1.419 . S
C1328 H1332 0.930 . S
C1329 C1328 1.369 . S
C1329 C1338 1.429 . S
C1330 C1328 1.419 . S
C1330 C1331 1.363 . S
C1330 H1333 0.929 . S
C1331 C1330 1.363 . S
C1331 C1337 1.428 . S
H1332 C1328 0.930 . S
H1333 C1330 0.929 . S
S1334 N1335 1.613 . S
S1334 N1336 1.610 . S
N1335 S1334 1.613 . S
N1335 C1338 1.350 1_565 S
N1336 S1334 1.610 . S
N1336 C1337 1.351 1_565 S
C1337 C1331 1.428 . S
C1337 N1336 1.351 1_545 S
C1337 C1338 1.434 . S
C1338 C1329 1.429 . S
C1338 N1335 1.350 1_545 S
C1338 C1337 1.434 . S
C1339 C1340 1.369 . S
C1339 C1341 1.419 . S
C1339 H1343 0.930 . S
C1340 C1339 1.369 . S
C1340 C1349 1.429 . S
C1341 C1339 1.419 . S
C1341 C1342 1.363 . S
C1341 H1344 0.929 . S
C1342 C1341 1.363 . S
C1342 C1348 1.428 . S
H1343 C1339 0.930 . S
H1344 C1341 0.929 . S
S1345 N1346 1.613 . S
S1345 N1347 1.610 . S
N1346 S1345 1.613 . S
N1346 C1349 1.350 . S
N1347 S1345 1.610 . S
N1347 C1348 1.351 . S
C1348 C1342 1.428 . S
C1348 N1347 1.351 . S
C1348 C1349 1.434 . S
C1349 C1340 1.429 . S
C1349 N1346 1.350 . S
C1349 C1348 1.434 . S
C1350 C1351 1.369 . S
C1350 C1352 1.419 . S
C1350 H1354 0.930 . S
C1351 C1350 1.369 . S
C1351 C1360 1.429 1_545 S
C1352 C1350 1.419 . S
C1352 C1353 1.363 . S
C1352 H1355 0.929 . S
C1353 C1352 1.363 . S
C1353 C1359 1.428 . S
H1354 C1350 0.930 . S
H1355 C1352 0.929 . S
S1356 N1357 1.613 . S
S1356 N1358 1.610 . S
N1357 S1356 1.613 . S
N1357 C1360 1.350 . S
N1358 S1356 1.610 . S
N1358 C1359 1.351 1_565 S
C1359 C1353 1.428 . S
C1359 N1358 1.351 1_545 S
C1359 C1360 1.434 1_545 S
C1360 C1351 1.429 1_565 S
C1360 N1357 1.350 . S
C1360 C1359 1.434 1_565 S
C1361 C1362 1.369 . S
C1361 C1363 1.419 . S
C1361 H1365 0.930 . S
C1362 C1361 1.369 . S
C1362 C1371 1.429 . S
C1363 C1361 1.419 . S
C1363 C1364 1.363 . S
C1363 H1366 0.929 . S
C1364 C1363 1.363 . S
C1364 C1370 1.428 . S
H1365 C1361 0.930 . S
H1366 C1363 0.929 . S
S1367 N1368 1.613 . S
S1367 N1369 1.610 . S
N1368 S1367 1.613 . S
N1368 C1371 1.350 . S
N1369 S1367 1.610 . S
N1369 C1370 1.351 . S
C1370 C1364 1.428 . S
C1370 N1369 1.351 . S
C1370 C1371 1.434 . S
C1371 C1362 1.429 . S
C1371 N1368 1.350 . S
C1371 C1370 1.434 . S
C1372 C1373 1.369 . S
C1372 C1374 1.419 . S
C1372 H1376 0.930 . S
C1373 C1372 1.369 . S
C1373 C1382 1.429 . S
C1374 C1372 1.419 . S
C1374 C1375 1.363 . S
C1374 H1377 0.929 . S
C1375 C1374 1.363 . S
C1375 C1381 1.428 . S
H1376 C1372 0.930 . S
H1377 C1374 0.929 . S
S1378 N1379 1.613 . S
S1378 N1380 1.610 . S
N1379 S1378 1.613 . S
N1379 C1382 1.350 . S
N1380 S1378 1.610 . S
N1380 C1381 1.351 . S
C1381 C1375 1.428 . S
C1381 N1380 1.351 . S
C1381 C1382 1.434 . S
C1382 C1373 1.429 . S
C1382 N1379 1.350 . S
C1382 C1381 1.434 . S
C1383 C1384 1.369 . S
C1383 C1385 1.419 . S
C1383 H1387 0.930 . S
C1384 C1383 1.369 . S
C1384 C1393 1.429 . S
C1385 C1383 1.419 . S
C1385 C1386 1.363 . S
C1385 H1388 0.929 . S
C1386 C1385 1.363 . S
C1386 C1392 1.428 . S
H1387 C1383 0.930 . S
H1388 C1385 0.929 . S
S1389 N1390 1.613 . S
S1389 N1391 1.610 . S
N1390 S1389 1.613 . S
N1390 C1393 1.350 . S
N1391 S1389 1.610 . S
N1391 C1392 1.351 . S
C1392 C1386 1.428 . S
C1392 N1391 1.351 . S
C1392 C1393 1.434 . S
C1393 C1384 1.429 . S
C1393 N1390 1.350 . S
C1393 C1392 1.434 . S
C1394 C1395 1.397 . S
C1394 C1396 1.419 . S
C1394 H1398 0.930 . S
C1395 C1394 1.397 . S
C1395 C1404 1.411 1_565 S
C1396 C1394 1.419 . S
C1396 C1397 1.363 . S
C1396 H1399 0.929 . S
C1397 C1396 1.363 . S
C1397 C1403 1.428 . S
H1398 C1394 0.930 . S
H1399 C1396 0.929 . S
S1400 N1401 1.613 . S
S1400 N1402 1.635 . S
N1401 S1400 1.613 . S
N1401 C1404 1.350 . S
N1402 S1400 1.635 . S
N1402 C1403 1.331 1_545 S
C1403 C1397 1.428 . S
C1403 N1402 1.331 1_565 S
C1403 C1404 1.434 1_565 S
C1404 C1395 1.411 1_545 S
C1404 N1401 1.350 . S
C1404 C1403 1.434 1_545 S
C1405 C1406 1.369 . S
C1405 C1407 1.419 . S
C1405 H1409 0.930 . S
C1406 C1405 1.369 . S
C1406 C1415 1.429 . S
C1407 C1405 1.419 . S
C1407 C1408 1.363 . S
C1407 H1410 0.929 . S
C1408 C1407 1.363 . S
C1408 C1414 1.428 . S
H1409 C1405 0.930 . S
H1410 C1407 0.929 . S
S1411 N1412 1.613 . S
S1411 N1413 1.610 . S
N1412 S1411 1.613 . S
N1412 C1415 1.350 . S
N1413 S1411 1.610 . S
N1413 C1414 1.351 . S
C1414 C1408 1.428 . S
C1414 N1413 1.351 . S
C1414 C1415 1.434 . S
C1415 C1406 1.429 . S
C1415 N1412 1.350 . S
C1415 C1414 1.434 . S
C1416 C1417 1.369 . S
C1416 C1418 1.419 . S
C1416 H1420 0.930 . S
C1417 C1416 1.369 . S
C1417 C1426 1.429 1_554 S
C1418 C1416 1.419 . S
C1418 C1419 1.363 1_554 S
C1418 H1421 0.929 . S
C1419 C1418 1.363 1_556 S
C1419 C1425 1.428 . S
H1420 C1416 0.930 . S
H1421 C1418 0.929 . S
S1422 N1423 1.613 . S
S1422 N1424 1.610 . S
N1423 S1422 1.613 . S
N1423 C1426 1.350 . S
N1424 S1422 1.610 . S
N1424 C1425 1.351 . S
C1425 C1419 1.428 . S
C1425 N1424 1.351 . S
C1425 C1426 1.434 . S
C1426 C1417 1.429 1_556 S
C1426 N1423 1.350 . S
C1426 C1425 1.434 . S
C1427 C1428 1.369 . S
C1427 C1429 1.419 . S
C1427 H1431 0.945 . S
C1428 C1427 1.369 . S
C1428 C1437 1.429 . S
C1429 C1427 1.419 . S
C1429 C1430 1.363 . S
C1429 H1432 0.929 1_554 S
C1430 C1429 1.363 . S
C1430 C1436 1.428 . S
H1431 C1427 0.945 . S
H1432 C1429 0.929 1_556 S
S1433 N1434 1.613 . S
S1433 N1435 1.610 . S
N1434 S1433 1.613 . S
N1434 C1437 1.350 . S
N1435 S1433 1.610 . S
N1435 C1436 1.351 . S
C1436 C1430 1.428 . S
C1436 N1435 1.351 . S
C1436 C1437 1.434 . S
C1437 C1428 1.429 . S
C1437 N1434 1.350 . S
C1437 C1436 1.434 . S
C1438 C1439 1.369 . S
C1438 C1440 1.419 . S
C1438 H1442 0.930 . S
C1439 C1438 1.369 . S
C1439 C1448 1.429 . S
C1440 C1438 1.419 . S
C1440 C1441 1.363 . S
C1440 H1443 0.929 . S
C1441 C1440 1.363 . S
C1441 C1447 1.428 . S
H1442 C1438 0.930 . S
H1443 C1440 0.929 . S
S1444 N1445 1.613 . S
S1444 N1446 1.610 . S
N1445 S1444 1.613 . S
N1445 C1448 1.350 . S
N1446 S1444 1.610 . S
N1446 C1447 1.351 . S
C1447 C1441 1.428 . S
C1447 N1446 1.351 . S
C1447 C1448 1.434 . S
C1448 C1439 1.429 . S
C1448 N1445 1.350 . S
C1448 C1447 1.434 . S
C1449 C1450 1.369 . S
C1449 C1451 1.419 . S
C1449 H1453 0.930 . S
C1450 C1449 1.369 . S
C1450 C1459 1.429 . S
C1451 C1449 1.419 . S
C1451 C1452 1.363 . S
C1451 H1454 0.929 . S
C1452 C1451 1.363 . S
C1452 C1458 1.428 . S
H1453 C1449 0.930 . S
H1454 C1451 0.929 . S
S1455 N1456 1.613 . S
S1455 N1457 1.610 . S
N1456 S1455 1.613 . S
N1456 C1459 1.350 . S
N1457 S1455 1.610 . S
N1457 C1458 1.351 . S
C1458 C1452 1.428 . S
C1458 N1457 1.351 . S
C1458 C1459 1.434 . S
C1459 C1450 1.429 . S
C1459 N1456 1.350 . S
C1459 C1458 1.434 . S
C1460 C1461 1.369 . S
C1460 C1462 1.419 . S
C1460 H1464 0.930 . S
C1461 C1460 1.369 . S
C1461 C1470 1.429 . S
C1462 C1460 1.419 . S
C1462 C1463 1.365 . S
C1462 H1465 0.929 . S
C1463 C1462 1.365 . S
C1463 C1469 1.429 1_545 S
H1464 C1460 0.930 . S
H1465 C1462 0.929 . S
S1466 N1467 1.613 . S
S1466 N1468 1.610 . S
N1467 S1466 1.613 . S
N1467 C1470 1.350 1_565 S
N1468 S1466 1.610 . S
N1468 C1469 1.351 . S
C1469 C1463 1.429 1_565 S
C1469 N1468 1.351 . S
C1469 C1470 1.434 1_565 S
C1470 C1461 1.429 . S
C1470 N1467 1.350 1_545 S
C1470 C1469 1.434 1_545 S
C1471 C1472 1.369 . S
C1471 C1473 1.419 . S
C1471 H1475 0.930 . S
C1472 C1471 1.369 . S
C1472 C1481 1.429 . S
C1473 C1471 1.419 . S
C1473 C1474 1.363 . S
C1473 H1476 0.929 . S
C1474 C1473 1.363 . S
C1474 C1480 1.428 . S
H1475 C1471 0.930 . S
H1476 C1473 0.929 . S
S1477 N1478 1.613 . S
S1477 N1479 1.610 . S
N1478 S1477 1.613 . S
N1478 C1481 1.350 . S
N1479 S1477 1.610 . S
N1479 C1480 1.351 . S
C1480 C1474 1.428 . S
C1480 N1479 1.351 . S
C1480 C1481 1.434 . S
C1481 C1472 1.429 . S
C1481 N1478 1.350 . S
C1481 C1480 1.434 . S
C1482 C1483 1.369 . S
C1482 C1484 1.419 . S
C1482 H1486 0.930 . S
C1483 C1482 1.369 . S
C1483 C1492 1.429 . S
C1484 C1482 1.419 . S
C1484 C1485 1.363 . S
C1484 H1487 0.929 . S
C1485 C1484 1.363 . S
C1485 C1491 1.428 . S
H1486 C1482 0.930 . S
H1487 C1484 0.929 . S
S1488 N1489 1.613 . S
S1488 N1490 1.610 . S
N1489 S1488 1.613 . S
N1489 C1492 1.350 . S
N1490 S1488 1.610 . S
N1490 C1491 1.351 . S
C1491 C1485 1.428 . S
C1491 N1490 1.351 . S
C1491 C1492 1.434 . S
C1492 C1483 1.429 . S
C1492 N1489 1.350 . S
C1492 C1491 1.434 . S
C1493 C1494 1.369 . S
C1493 C1495 1.419 . S
C1493 H1497 0.930 . S
C1494 C1493 1.369 . S
C1494 C1503 1.429 . S
C1495 C1493 1.419 . S
C1495 C1496 1.363 . S
C1495 H1498 0.929 . S
C1496 C1495 1.363 . S
C1496 C1502 1.428 . S
H1497 C1493 0.930 . S
H1498 C1495 0.929 . S
S1499 N1500 1.613 . S
S1499 N1501 1.610 . S
N1500 S1499 1.613 . S
N1500 C1503 1.350 . S
N1501 S1499 1.610 . S
N1501 C1502 1.351 . S
C1502 C1496 1.428 . S
C1502 N1501 1.351 . S
C1502 C1503 1.434 . S
C1503 C1494 1.429 . S
C1503 N1500 1.350 . S
C1503 C1502 1.434 . S
C1504 C1505 1.369 . S
C1504 C1506 1.419 . S
C1504 H1508 0.930 . S
C1505 C1504 1.369 . S
C1505 C1514 1.429 . S
C1506 C1504 1.419 . S
C1506 C1507 1.363 . S
C1506 H1509 0.929 . S
C1507 C1506 1.363 . S
C1507 C1513 1.428 . S
H1508 C1504 0.930 . S
H1509 C1506 0.929 . S
S1510 N1511 1.613 . S
S1510 N1512 1.610 . S
N1511 S1510 1.613 . S
N1511 C1514 1.350 . S
N1512 S1510 1.610 . S
N1512 C1513 1.351 . S
C1513 C1507 1.428 . S
C1513 N1512 1.351 . S
C1513 C1514 1.434 . S
C1514 C1505 1.429 . S
C1514 N1511 1.350 . S
C1514 C1513 1.434 . S
C1515 C1516 1.369 . S
C1515 C1517 1.419 . S
C1515 H1519 0.930 . S
C1516 C1515 1.369 . S
C1516 C1525 1.429 . S
C1517 C1515 1.419 . S
C1517 C1518 1.363 . S
C1517 H1520 0.929 . S
C1518 C1517 1.363 . S
C1518 C1524 1.428 . S
H1519 C1515 0.930 . S
H1520 C1517 0.929 . S
S1521 N1522 1.613 . S
S1521 N1523 1.610 . S
N1522 S1521 1.613 . S
N1522 C1525 1.350 . S
N1523 S1521 1.610 . S
N1523 C1524 1.351 . S
C1524 C1518 1.428 . S
C1524 N1523 1.351 . S
C1524 C1525 1.434 . S
C1525 C1516 1.429 . S
C1525 N1522 1.350 . S
C1525 C1524 1.434 . S
C1526 C1527 1.369 . S
C1526 C1528 1.419 1_556 S
C1526 H1530 0.930 1_556 S
C1527 C1526 1.369 . S
C1527 C1536 1.429 . S
C1528 C1526 1.419 1_554 S
C1528 C1529 1.363 . S
C1528 H1531 0.929 . S
C1529 C1528 1.363 . S
C1529 C1535 1.428 1_554 S
H1530 C1526 0.930 1_554 S
H1531 C1528 0.929 . S
S1532 N1533 1.621 . S
S1532 N1534 1.610 1_655 S
N1533 S1532 1.621 . S
N1533 C1536 1.341 1_655 S
N1534 S1532 1.610 1_455 S
N1534 C1535 1.351 . S
C1535 C1529 1.428 1_556 S
C1535 N1534 1.351 . S
C1535 C1536 1.434 . S
C1536 C1527 1.429 . S
C1536 N1533 1.341 1_455 S
C1536 C1535 1.434 . S
C1537 C1538 1.369 . S
C1537 C1539 1.419 1_455 S
C1537 H1541 0.930 . S
C1538 C1537 1.369 . S
C1538 C1547 1.429 . S
C1539 C1537 1.419 1_655 S
C1539 C1540 1.363 . S
C1539 H1542 0.929 . S
C1540 C1539 1.363 . S
C1540 C1546 1.428 . S
H1541 C1537 0.930 . S
H1542 C1539 0.929 . S
S1543 N1544 1.613 . S
S1543 N1545 1.610 1_455 S
N1544 S1543 1.613 . S
N1544 C1547 1.350 . S
N1545 S1543 1.610 1_655 S
N1545 C1546 1.351 . S
C1546 C1540 1.428 . S
C1546 N1545 1.351 . S
C1546 C1547 1.434 1_655 S
C1547 C1538 1.429 . S
C1547 N1544 1.350 . S
C1547 C1546 1.434 1_455 S
C1548 C1549 1.369 . S
C1548 C1550 1.419 . S
C1548 H1552 0.930 . S
C1549 C1548 1.369 . S
C1549 C1558 1.429 . S
C1550 C1548 1.419 . S
C1550 C1551 1.363 . S
C1550 H1553 0.929 . S
C1551 C1550 1.363 . S
C1551 C1557 1.428 . S
H1552 C1548 0.930 . S
H1553 C1550 0.929 . S
S1554 N1555 1.613 . S
S1554 N1556 1.610 . S
N1555 S1554 1.613 . S
N1555 C1558 1.350 . S
N1556 S1554 1.610 . S
N1556 C1557 1.351 . S
C1557 C1551 1.428 . S
C1557 N1556 1.351 . S
C1557 C1558 1.434 . S
C1558 C1549 1.429 . S
C1558 N1555 1.350 . S
C1558 C1557 1.434 . S
C1559 C1560 1.369 . S
C1559 C1561 1.419 . S
C1559 H1563 0.930 . S
C1560 C1559 1.369 . S
C1560 C1569 1.429 . S
C1561 C1559 1.419 . S
C1561 C1562 1.363 . S
C1561 H1564 0.929 1_455 S
C1562 C1561 1.363 . S
C1562 C1568 1.428 . S
H1563 C1559 0.930 . S
H1564 C1561 0.929 1_655 S
S1565 N1566 1.613 . S
S1565 N1567 1.610 . S
N1566 S1565 1.613 . S
N1566 C1569 1.350 . S
N1567 S1565 1.610 . S
N1567 C1568 1.351 . S
C1568 C1562 1.428 . S
C1568 N1567 1.351 . S
C1568 C1569 1.434 . S
C1569 C1560 1.429 . S
C1569 N1566 1.350 . S
C1569 C1568 1.434 . S
C1570 C1571 1.369 . S
C1570 C1572 1.419 . S
C1570 H1574 0.930 . S
C1571 C1570 1.369 . S
C1571 C1580 1.429 . S
C1572 C1570 1.419 . S
C1572 C1573 1.363 . S
C1572 H1575 0.929 . S
C1573 C1572 1.363 . S
C1573 C1579 1.428 . S
H1574 C1570 0.930 . S
H1575 C1572 0.929 . S
S1576 N1577 1.613 . S
S1576 N1578 1.610 1_655 S
N1577 S1576 1.613 . S
N1577 C1580 1.350 1_655 S
N1578 S1576 1.610 1_455 S
N1578 C1579 1.351 . S
C1579 C1573 1.428 . S
C1579 N1578 1.351 . S
C1579 C1580 1.434 . S
C1580 C1571 1.429 . S
C1580 N1577 1.350 1_455 S
C1580 C1579 1.434 . S
C1581 C1582 1.369 . S
C1581 C1583 1.419 . S
C1581 H1585 0.930 . S
C1582 C1581 1.369 . S
C1582 C1591 1.429 . S
C1583 C1581 1.419 . S
C1583 C1584 1.363 . S
C1583 H1586 0.929 . S
C1584 C1583 1.363 . S
C1584 C1590 1.428 . S
H1585 C1581 0.930 . S
H1586 C1583 0.929 . S
S1587 N1588 1.613 . S
S1587 N1589 1.610 . S
N1588 S1587 1.613 . S
N1588 C1591 1.350 . S
N1589 S1587 1.610 . S
N1589 C1590 1.351 . S
C1590 C1584 1.428 . S
C1590 N1589 1.351 . S
C1590 C1591 1.434 . S
C1591 C1582 1.429 . S
C1591 N1588 1.350 . S
C1591 C1590 1.434 . S
C1592 C1593 1.369 . S
C1592 C1594 1.419 . S
C1592 H1596 0.930 . S
C1593 C1592 1.369 . S
C1593 C1602 1.429 . S
C1594 C1592 1.419 . S
C1594 C1595 1.363 . S
C1594 H1597 0.929 . S
C1595 C1594 1.363 . S
C1595 C1601 1.428 . S
H1596 C1592 0.930 . S
H1597 C1594 0.929 . S
S1598 N1599 1.613 . S
S1598 N1600 1.610 . S
N1599 S1598 1.613 . S
N1599 C1602 1.350 . S
N1600 S1598 1.610 . S
N1600 C1601 1.351 . S
C1601 C1595 1.428 . S
C1601 N1600 1.351 . S
C1601 C1602 1.434 . S
C1602 C1593 1.429 . S
C1602 N1599 1.350 . S
C1602 C1601 1.434 . S
C1603 C1604 1.369 . S
C1603 C1605 1.419 . S
C1603 H1607 0.930 . S
C1604 C1603 1.369 . S
C1604 C1613 1.429 . S
C1605 C1603 1.419 . S
C1605 C1606 1.363 . S
C1605 H1608 0.929 . S
C1606 C1605 1.363 . S
C1606 C1612 1.428 . S
H1607 C1603 0.930 . S
H1608 C1605 0.929 . S
S1609 N1610 1.613 . S
S1609 N1611 1.610 . S
N1610 S1609 1.613 . S
N1610 C1613 1.350 . S
N1611 S1609 1.610 . S
N1611 C1612 1.351 . S
C1612 C1606 1.428 . S
C1612 N1611 1.351 . S
C1612 C1613 1.434 . S
C1613 C1604 1.429 . S
C1613 N1610 1.350 . S
C1613 C1612 1.434 . S
C1614 C1615 1.369 . S
C1614 C1616 1.419 . S
C1614 H1618 0.930 . S
C1615 C1614 1.369 . S
C1615 C1624 1.429 . S
C1616 C1614 1.419 . S
C1616 C1617 1.363 . S
C1616 H1619 0.929 . S
C1617 C1616 1.363 . S
C1617 C1623 1.428 . S
H1618 C1614 0.930 . S
H1619 C1616 0.929 . S
S1620 N1621 1.613 . S
S1620 N1622 1.610 . S
N1621 S1620 1.613 . S
N1621 C1624 1.350 . S
N1622 S1620 1.610 . S
N1622 C1623 1.351 . S
C1623 C1617 1.428 . S
C1623 N1622 1.351 . S
C1623 C1624 1.434 . S
C1624 C1615 1.429 . S
C1624 N1621 1.350 . S
C1624 C1623 1.434 . S
C1625 C1626 1.369 . S
C1625 C1627 1.419 . S
C1625 H1629 0.930 . S
C1626 C1625 1.369 . S
C1626 C1635 1.429 . S
C1627 C1625 1.419 . S
C1627 C1628 1.363 . S
C1627 H1630 0.929 . S
C1628 C1627 1.363 . S
C1628 C1634 1.428 . S
H1629 C1625 0.930 . S
H1630 C1627 0.929 . S
S1631 N1632 1.613 . S
S1631 N1633 1.610 . S
N1632 S1631 1.613 . S
N1632 C1635 1.350 . S
N1633 S1631 1.610 . S
N1633 C1634 1.351 . S
C1634 C1628 1.428 . S
C1634 N1633 1.351 . S
C1634 C1635 1.434 . S
C1635 C1626 1.429 . S
C1635 N1632 1.350 . S
C1635 C1634 1.434 . S
C1636 C1637 1.369 . S
C1636 C1638 1.419 . S
C1636 H1640 0.930 . S
C1637 C1636 1.369 . S
C1637 C1646 1.429 . S
C1638 C1636 1.419 . S
C1638 C1639 1.363 . S
C1638 H1641 0.929 . S
C1639 C1638 1.363 . S
C1639 C1645 1.428 . S
H1640 C1636 0.930 . S
H1641 C1638 0.929 . S
S1642 N1643 1.613 . S
S1642 N1644 1.610 . S
N1643 S1642 1.613 . S
N1643 C1646 1.350 . S
N1644 S1642 1.610 . S
N1644 C1645 1.351 . S
C1645 C1639 1.428 . S
C1645 N1644 1.351 . S
C1645 C1646 1.434 . S
C1646 C1637 1.429 . S
C1646 N1643 1.350 . S
C1646 C1645 1.434 . S
C1647 C1648 1.369 . S
C1647 C1649 1.419 . S
C1647 H1651 0.930 . S
C1648 C1647 1.369 . S
C1648 C1657 1.429 . S
C1649 C1647 1.419 . S
C1649 C1650 1.363 . S
C1649 H1652 0.929 . S
C1650 C1649 1.363 . S
C1650 C1656 1.428 . S
H1651 C1647 0.930 . S
H1652 C1649 0.929 . S
S1653 N1654 1.613 . S
S1653 N1655 1.610 . S
N1654 S1653 1.613 . S
N1654 C1657 1.350 . S
N1655 S1653 1.610 . S
N1655 C1656 1.351 . S
C1656 C1650 1.428 . S
C1656 N1655 1.351 . S
C1656 C1657 1.434 . S
C1657 C1648 1.429 . S
C1657 N1654 1.350 . S
C1657 C1656 1.434 . S
C1658 C1659 1.369 . S
C1658 C1660 1.419 . S
C1658 H1662 0.930 . S
C1659 C1658 1.369 . S
C1659 C1668 1.429 . S
C1660 C1658 1.419 . S
C1660 C1661 1.363 . S
C1660 H1663 0.929 . S
C1661 C1660 1.363 . S
C1661 C1667 1.428 . S
H1662 C1658 0.930 . S
H1663 C1660 0.929 . S
S1664 N1665 1.613 . S
S1664 N1666 1.610 . S
N1665 S1664 1.613 . S
N1665 C1668 1.350 . S
N1666 S1664 1.610 . S
N1666 C1667 1.351 . S
C1667 C1661 1.428 . S
C1667 N1666 1.351 . S
C1667 C1668 1.434 . S
C1668 C1659 1.429 . S
C1668 N1665 1.350 . S
C1668 C1667 1.434 . S
C1669 C1670 1.369 . S
C1669 C1671 1.419 . S
C1669 H1673 0.930 . S
C1670 C1669 1.369 . S
C1670 C1679 1.429 . S
C1671 C1669 1.419 . S
C1671 C1672 1.363 . S
C1671 H1674 0.929 . S
C1672 C1671 1.363 . S
C1672 C1678 1.428 . S
H1673 C1669 0.930 . S
H1674 C1671 0.929 . S
S1675 N1676 1.613 . S
S1675 N1677 1.610 . S
N1676 S1675 1.613 . S
N1676 C1679 1.350 . S
N1677 S1675 1.610 . S
N1677 C1678 1.351 . S
C1678 C1672 1.428 . S
C1678 N1677 1.351 . S
C1678 C1679 1.434 . S
C1679 C1670 1.429 . S
C1679 N1676 1.350 . S
C1679 C1678 1.434 . S
C1680 C1681 1.369 . S
C1680 C1682 1.419 . S
C1680 H1684 0.930 . S
C1681 C1680 1.369 . S
C1681 C1690 1.429 . S
C1682 C1680 1.419 . S
C1682 C1683 1.363 . S
C1682 H1685 0.929 . S
C1683 C1682 1.363 . S
C1683 C1689 1.428 . S
H1684 C1680 0.930 . S
H1685 C1682 0.929 . S
S1686 N1687 1.613 . S
S1686 N1688 1.610 . S
N1687 S1686 1.613 . S
N1687 C1690 1.350 . S
N1688 S1686 1.610 . S
N1688 C1689 1.351 . S
C1689 C1683 1.428 . S
C1689 N1688 1.351 . S
C1689 C1690 1.434 . S
C1690 C1681 1.429 . S
C1690 N1687 1.350 . S
C1690 C1689 1.434 . S
C1691 C1692 1.369 . S
C1691 C1693 1.419 . S
C1691 H1695 0.930 . S
C1692 C1691 1.369 . S
C1692 C1701 1.429 . S
C1693 C1691 1.419 . S
C1693 C1694 1.363 . S
C1693 H1696 0.929 . S
C1694 C1693 1.363 . S
C1694 C1700 1.428 . S
H1695 C1691 0.930 . S
H1696 C1693 0.929 . S
S1697 N1698 1.613 . S
S1697 N1699 1.610 . S
N1698 S1697 1.613 . S
N1698 C1701 1.350 . S
N1699 S1697 1.610 . S
N1699 C1700 1.351 . S
C1700 C1694 1.428 . S
C1700 N1699 1.351 . S
C1700 C1701 1.434 . S
C1701 C1692 1.429 . S
C1701 N1698 1.350 . S
C1701 C1700 1.434 . S
C1702 C1703 1.369 . S
C1702 C1704 1.419 . S
C1702 H1706 0.930 . S
C1703 C1702 1.369 . S
C1703 C1712 1.429 . S
C1704 C1702 1.419 . S
C1704 C1705 1.363 . S
C1704 H1707 0.929 . S
C1705 C1704 1.363 . S
C1705 C1711 1.428 . S
H1706 C1702 0.930 . S
H1707 C1704 0.929 . S
S1708 N1709 1.613 . S
S1708 N1710 1.610 . S
N1709 S1708 1.613 . S
N1709 C1712 1.350 . S
N1710 S1708 1.610 . S
N1710 C1711 1.351 . S
C1711 C1705 1.428 . S
C1711 N1710 1.351 . S
C1711 C1712 1.434 . S
C1712 C1703 1.429 . S
C1712 N1709 1.350 . S
C1712 C1711 1.434 . S
C1713 C1714 1.369 . S
C1713 C1715 1.419 . S
C1713 H1717 0.930 . S
C1714 C1713 1.369 . S
C1714 C1723 1.429 1_564 S
C1715 C1713 1.419 . S
C1715 C1716 1.363 1_565 S
C1715 H1718 0.929 . S
C1716 C1715 1.363 1_545 S
C1716 C1722 1.428 1_554 S
H1717 C1713 0.930 . S
H1718 C1715 0.929 . S
S1719 N1720 1.613 . S
S1719 N1721 1.610 . S
N1720 S1719 1.613 . S
N1720 C1723 1.350 . S
N1721 S1719 1.610 . S
N1721 C1722 1.351 . S
C1722 C1716 1.428 1_556 S
C1722 N1721 1.351 . S
C1722 C1723 1.434 . S
C1723 C1714 1.429 1_546 S
C1723 N1720 1.350 . S
C1723 C1722 1.434 . S
C1724 C1725 1.369 . S
C1724 C1726 1.419 . S
C1724 H1728 0.930 . S
C1725 C1724 1.369 . S
C1725 C1734 1.429 . S
C1726 C1724 1.419 . S
C1726 C1727 1.363 . S
C1726 H1729 0.929 . S
C1727 C1726 1.363 . S
C1727 C1733 1.428 . S
H1728 C1724 0.930 . S
H1729 C1726 0.929 . S
S1730 N1731 1.613 . S
S1730 N1732 1.610 . S
N1731 S1730 1.613 . S
N1731 C1734 1.350 . S
N1732 S1730 1.610 . S
N1732 C1733 1.351 . S
C1733 C1727 1.428 . S
C1733 N1732 1.351 . S
C1733 C1734 1.434 . S
C1734 C1725 1.429 . S
C1734 N1731 1.350 . S
C1734 C1733 1.434 . S
C1735 C1736 1.369 . S
C1735 C1737 1.419 . S
C1735 H1739 0.930 . S
C1736 C1735 1.369 . S
C1736 C1745 1.429 . S
C1737 C1735 1.419 . S
C1737 C1738 1.363 . S
C1737 H1740 0.929 . S
C1738 C1737 1.363 . S
C1738 C1744 1.428 . S
H1739 C1735 0.930 . S
H1740 C1737 0.929 . S
S1741 N1742 1.613 . S
S1741 N1743 1.610 1_556 S
N1742 S1741 1.613 . S
N1742 C1745 1.350 1_556 S
N1743 S1741 1.610 1_554 S
N1743 C1744 1.351 . S
C1744 C1738 1.428 . S
C1744 N1743 1.351 . S
C1744 C1745 1.434 . S
C1745 C1736 1.429 . S
C1745 N1742 1.350 1_554 S
C1745 C1744 1.434 . S
C1746 C1747 1.369 . S
C1746 C1748 1.419 . S
C1746 H1750 0.930 . S
C1747 C1746 1.369 . S
C1747 C1756 1.429 . S
C1748 C1746 1.419 . S
C1748 C1749 1.363 . S
C1748 H1751 0.929 . S
C1749 C1748 1.363 . S
C1749 C1755 1.428 . S
H1750 C1746 0.930 . S
H1751 C1748 0.929 . S
S1752 N1753 1.613 . S
S1752 N1754 1.610 . S
N1753 S1752 1.613 . S
N1753 C1756 1.350 . S
N1754 S1752 1.610 . S
N1754 C1755 1.351 . S
C1755 C1749 1.428 . S
C1755 N1754 1.351 . S
C1755 C1756 1.434 . S
C1756 C1747 1.429 . S
C1756 N1753 1.350 . S
C1756 C1755 1.434 . S
C1757 C1758 1.369 . S
C1757 C1759 1.419 . S
C1757 H1761 0.930 . S
C1758 C1757 1.369 . S
C1758 C1767 1.429 . S
C1759 C1757 1.419 . S
C1759 C1760 1.363 . S
C1759 H1762 0.929 . S
C1760 C1759 1.363 . S
C1760 C1766 1.428 . S
H1761 C1757 0.930 . S
H1762 C1759 0.929 . S
S1763 N1764 1.613 . S
S1763 N1765 1.610 . S
N1764 S1763 1.613 . S
N1764 C1767 1.350 . S
N1765 S1763 1.610 . S
N1765 C1766 1.351 . S
C1766 C1760 1.428 . S
C1766 N1765 1.351 . S
C1766 C1767 1.434 . S
C1767 C1758 1.429 . S
C1767 N1764 1.350 . S
C1767 C1766 1.434 . S
C1768 C1769 1.369 . S
C1768 C1770 1.419 . S
C1768 H1772 0.930 . S
C1769 C1768 1.369 . S
C1769 C1778 1.429 . S
C1770 C1768 1.419 . S
C1770 C1771 1.363 . S
C1770 H1773 0.929 . S
C1771 C1770 1.363 . S
C1771 C1777 1.428 . S
H1772 C1768 0.930 . S
H1773 C1770 0.929 . S
S1774 N1775 1.613 . S
S1774 N1776 1.610 . S
N1775 S1774 1.613 . S
N1775 C1778 1.350 . S
N1776 S1774 1.610 . S
N1776 C1777 1.351 . S
C1777 C1771 1.428 . S
C1777 N1776 1.351 . S
C1777 C1778 1.434 . S
C1778 C1769 1.429 . S
C1778 N1775 1.350 . S
C1778 C1777 1.434 . S
C1779 C1780 1.369 . S
C1779 C1781 1.419 . S
C1779 H1783 0.930 . S
C1780 C1779 1.369 . S
C1780 C1789 1.429 . S
C1781 C1779 1.419 . S
C1781 C1782 1.363 . S
C1781 H1784 0.929 . S
C1782 C1781 1.363 . S
C1782 C1788 1.428 . S
H1783 C1779 0.930 . S
H1784 C1781 0.929 . S
S1785 N1786 1.613 . S
S1785 N1787 1.610 . S
N1786 S1785 1.613 . S
N1786 C1789 1.350 . S
N1787 S1785 1.610 . S
N1787 C1788 1.351 . S
C1788 C1782 1.428 . S
C1788 N1787 1.351 . S
C1788 C1789 1.434 . S
C1789 C1780 1.429 . S
C1789 N1786 1.350 . S
C1789 C1788 1.434 . S
C1790 C1791 1.369 . S
C1790 C1792 1.419 . S
C1790 H1794 0.930 . S
C1791 C1790 1.369 . S
C1791 C1800 1.429 . S
C1792 C1790 1.419 . S
C1792 C1793 1.363 . S
C1792 H1795 0.929 1_554 S
C1793 C1792 1.363 . S
C1793 C1799 1.428 . S
H1794 C1790 0.930 . S
H1795 C1792 0.929 1_556 S
S1796 N1797 1.613 . S
S1796 N1798 1.610 . S
N1797 S1796 1.613 . S
N1797 C1800 1.350 . S
N1798 S1796 1.610 . S
N1798 C1799 1.351 . S
C1799 C1793 1.428 . S
C1799 N1798 1.351 . S
C1799 C1800 1.434 . S
C1800 C1791 1.429 . S
C1800 N1797 1.350 . S
C1800 C1799 1.434 . S
C1801 C1802 1.369 . S
C1801 C1803 1.419 . S
C1801 H1805 0.930 . S
C1802 C1801 1.369 . S
C1802 C1811 1.429 . S
C1803 C1801 1.419 . S
C1803 C1804 1.363 . S
C1803 H1806 0.929 . S
C1804 C1803 1.363 . S
C1804 C1810 1.428 . S
H1805 C1801 0.930 . S
H1806 C1803 0.929 . S
S1807 N1808 1.613 . S
S1807 N1809 1.610 . S
N1808 S1807 1.613 . S
N1808 C1811 1.350 . S
N1809 S1807 1.610 . S
N1809 C1810 1.351 . S
C1810 C1804 1.428 . S
C1810 N1809 1.351 . S
C1810 C1811 1.434 . S
C1811 C1802 1.429 . S
C1811 N1808 1.350 . S
C1811 C1810 1.434 . S
C1812 C1813 1.369 . S
C1812 C1814 1.419 . S
C1812 H1816 0.930 . S
C1813 C1812 1.369 . S
C1813 C1822 1.429 . S
C1814 C1812 1.419 . S
C1814 C1815 1.363 . S
C1814 H1817 0.929 . S
C1815 C1814 1.363 . S
C1815 C1821 1.428 . S
H1816 C1812 0.930 . S
H1817 C1814 0.929 . S
S1818 N1819 1.613 . S
S1818 N1820 1.610 . S
N1819 S1818 1.613 . S
N1819 C1822 1.350 . S
N1820 S1818 1.610 . S
N1820 C1821 1.351 . S
C1821 C1815 1.428 . S
C1821 N1820 1.351 . S
C1821 C1822 1.434 . S
C1822 C1813 1.429 . S
C1822 N1819 1.350 . S
C1822 C1821 1.434 . S
C1823 C1824 1.369 . S
C1823 C1825 1.419 . S
C1823 H1827 0.930 . S
C1824 C1823 1.369 . S
C1824 C1833 1.429 . S
C1825 C1823 1.419 . S
C1825 C1826 1.363 . S
C1825 H1828 0.929 . S
C1826 C1825 1.363 . S
C1826 C1832 1.428 . S
H1827 C1823 0.930 . S
H1828 C1825 0.929 . S
S1829 N1830 1.613 . S
S1829 N1831 1.610 . S
N1830 S1829 1.613 . S
N1830 C1833 1.350 . S
N1831 S1829 1.610 . S
N1831 C1832 1.351 . S
C1832 C1826 1.428 . S
C1832 N1831 1.351 . S
C1832 C1833 1.434 . S
C1833 C1824 1.429 . S
C1833 N1830 1.350 . S
C1833 C1832 1.434 . S
C1834 C1835 1.369 . S
C1834 C1836 1.419 . S
C1834 H1838 0.930 . S
C1835 C1834 1.369 . S
C1835 C1844 1.429 . S
C1836 C1834 1.419 . S
C1836 C1837 1.363 . S
C1836 H1839 0.929 . S
C1837 C1836 1.363 . S
C1837 C1843 1.428 . S
H1838 C1834 0.930 . S
H1839 C1836 0.929 . S
S1840 N1841 1.613 . S
S1840 N1842 1.610 . S
N1841 S1840 1.613 . S
N1841 C1844 1.350 . S
N1842 S1840 1.610 . S
N1842 C1843 1.351 . S
C1843 C1837 1.428 . S
C1843 N1842 1.351 . S
C1843 C1844 1.434 . S
C1844 C1835 1.429 . S
C1844 N1841 1.350 . S
C1844 C1843 1.434 . S
C1845 C1846 1.369 . S
C1845 C1847 1.419 . S
C1845 H1849 0.930 . S
C1846 C1845 1.369 . S
C1846 C1855 1.429 . S
C1847 C1845 1.419 . S
C1847 C1848 1.363 . S
C1847 H1850 0.929 . S
C1848 C1847 1.363 . S
C1848 C1854 1.428 . S
H1849 C1845 0.930 . S
H1850 C1847 0.929 . S
S1851 N1852 1.613 . S
S1851 N1853 1.610 . S
N1852 S1851 1.613 . S
N1852 C1855 1.350 . S
N1853 S1851 1.610 . S
N1853 C1854 1.351 . S
C1854 C1848 1.428 . S
C1854 N1853 1.351 . S
C1854 C1855 1.434 . S
C1855 C1846 1.429 . S
C1855 N1852 1.350 . S
C1855 C1854 1.434 . S
C1856 C1857 1.369 . S
C1856 C1858 1.419 . S
C1856 H1860 0.930 . S
C1857 C1856 1.369 . S
C1857 C1866 1.429 . S
C1858 C1856 1.419 . S
C1858 C1859 1.363 . S
C1858 H1861 0.929 . S
C1859 C1858 1.363 . S
C1859 C1865 1.428 . S
H1860 C1856 0.930 . S
H1861 C1858 0.929 . S
S1862 N1863 1.613 . S
S1862 N1864 1.610 . S
N1863 S1862 1.613 . S
N1863 C1866 1.350 . S
N1864 S1862 1.610 . S
N1864 C1865 1.351 . S
C1865 C1859 1.428 . S
C1865 N1864 1.351 . S
C1865 C1866 1.434 . S
C1866 C1857 1.429 . S
C1866 N1863 1.350 . S
C1866 C1865 1.434 . S
C1867 C1868 1.369 . S
C1867 C1869 1.419 . S
C1867 H1871 0.930 . S
C1868 C1867 1.369 . S
C1868 C1877 1.429 . S
C1869 C1867 1.419 . S
C1869 C1870 1.363 . S
C1869 H1872 0.929 . S
C1870 C1869 1.363 . S
C1870 C1876 1.428 . S
H1871 C1867 0.930 . S
H1872 C1869 0.929 . S
S1873 N1874 1.613 . S
S1873 N1875 1.610 . S
N1874 S1873 1.613 . S
N1874 C1877 1.350 . S
N1875 S1873 1.610 . S
N1875 C1876 1.351 . S
C1876 C1870 1.428 . S
C1876 N1875 1.351 . S
C1876 C1877 1.434 . S
C1877 C1868 1.429 . S
C1877 N1874 1.350 . S
C1877 C1876 1.434 . S
C1878 C1879 1.369 . S
C1878 C1880 1.419 1_655 S
C1878 H1882 0.930 . S
C1879 C1878 1.369 . S
C1879 C1888 1.429 1_655 S
C1880 C1878 1.419 1_455 S
C1880 C1881 1.363 . S
C1880 H1883 0.929 1_455 S
C1881 C1880 1.363 . S
C1881 C1887 1.428 . S
H1882 C1878 0.930 . S
H1883 C1880 0.929 1_655 S
S1884 N1885 1.613 . S
S1884 N1886 1.610 . S
N1885 S1884 1.613 . S
N1885 C1888 1.350 . S
N1886 S1884 1.610 . S
N1886 C1887 1.351 . S
C1887 C1881 1.428 . S
C1887 N1886 1.351 . S
C1887 C1888 1.434 . S
C1888 C1879 1.429 1_455 S
C1888 N1885 1.350 . S
C1888 C1887 1.434 . S
C1889 C1890 1.369 . S
C1889 C1891 1.419 . S
C1889 H1893 0.930 . S
C1890 C1889 1.369 . S
C1890 C1899 1.429 . S
C1891 C1889 1.419 . S
C1891 C1892 1.363 . S
C1891 H1894 0.929 . S
C1892 C1891 1.363 . S
C1892 C1898 1.428 . S
H1893 C1889 0.930 . S
H1894 C1891 0.929 . S
S1895 N1896 1.613 . S
S1895 N1897 1.610 . S
N1896 S1895 1.613 . S
N1896 C1899 1.350 . S
N1897 S1895 1.610 . S
N1897 C1898 1.351 . S
C1898 C1892 1.428 . S
C1898 N1897 1.351 . S
C1898 C1899 1.434 . S
C1899 C1890 1.429 . S
C1899 N1896 1.350 . S
C1899 C1898 1.434 . S
C1900 C1901 1.369 . S
C1900 C1902 1.419 . S
C1900 H1904 0.930 . S
C1901 C1900 1.369 . S
C1901 C1910 1.429 . S
C1902 C1900 1.419 . S
C1902 C1903 1.363 . S
C1902 H1905 0.929 . S
C1903 C1902 1.363 . S
C1903 C1909 1.428 . S
H1904 C1900 0.930 . S
H1905 C1902 0.929 . S
S1906 N1907 1.613 . S
S1906 N1908 1.610 . S
N1907 S1906 1.613 . S
N1907 C1910 1.350 . S
N1908 S1906 1.610 . S
N1908 C1909 1.351 . S
C1909 C1903 1.428 . S
C1909 N1908 1.351 . S
C1909 C1910 1.434 . S
C1910 C1901 1.429 . S
C1910 N1907 1.350 . S
C1910 C1909 1.434 . S
C1911 C1912 1.369 . S
C1911 C1913 1.419 . S
C1911 H1915 0.930 . S
C1912 C1911 1.369 . S
C1912 C1921 1.429 . S
C1913 C1911 1.419 . S
C1913 C1914 1.363 . S
C1913 H1916 0.929 . S
C1914 C1913 1.363 . S
C1914 C1920 1.428 . S
H1915 C1911 0.930 . S
H1916 C1913 0.929 . S
S1917 N1918 1.613 . S
S1917 N1919 1.610 . S
N1918 S1917 1.613 . S
N1918 C1921 1.350 . S
N1919 S1917 1.610 . S
N1919 C1920 1.351 . S
C1920 C1914 1.428 . S
C1920 N1919 1.351 . S
C1920 C1921 1.434 . S
C1921 C1912 1.429 . S
C1921 N1918 1.350 . S
C1921 C1920 1.434 . S
C1922 C1923 1.369 . S
C1922 C1924 1.419 . S
C1922 H1926 0.930 . S
C1923 C1922 1.369 . S
C1923 C1932 1.429 . S
C1924 C1922 1.419 . S
C1924 C1925 1.363 . S
C1924 H1927 0.929 . S
C1925 C1924 1.363 . S
C1925 C1931 1.428 . S
H1926 C1922 0.930 . S
H1927 C1924 0.929 . S
S1928 N1929 1.613 . S
S1928 N1930 1.610 . S
N1929 S1928 1.613 . S
N1929 C1932 1.350 1_455 S
N1930 S1928 1.610 . S
N1930 C1931 1.351 1_455 S
C1931 C1925 1.428 . S
C1931 N1930 1.351 1_655 S
C1931 C1932 1.434 . S
C1932 C1923 1.429 . S
C1932 N1929 1.350 1_655 S
C1932 C1931 1.434 . S
C1933 C1934 1.369 . S
C1933 C1935 1.419 . S
C1933 H1937 0.930 . S
C1934 C1933 1.369 . S
C1934 C1943 1.429 . S
C1935 C1933 1.419 . S
C1935 C1936 1.363 . S
C1935 H1938 0.929 . S
C1936 C1935 1.363 . S
C1936 C1942 1.428 . S
H1937 C1933 0.930 . S
H1938 C1935 0.929 . S
S1939 N1940 1.613 . S
S1939 N1941 1.610 . S
N1940 S1939 1.613 . S
N1940 C1943 1.350 . S
N1941 S1939 1.610 . S
N1941 C1942 1.351 . S
C1942 C1936 1.428 . S
C1942 N1941 1.351 . S
C1942 C1943 1.434 . S
C1943 C1934 1.429 . S
C1943 N1940 1.350 . S
C1943 C1942 1.434 . S
C1944 C1945 1.369 . S
C1944 C1946 1.419 . S
C1944 H1948 0.930 . S
C1945 C1944 1.369 . S
C1945 C1954 1.429 . S
C1946 C1944 1.419 . S
C1946 C1947 1.363 . S
C1946 H1949 0.929 . S
C1947 C1946 1.363 . S
C1947 C1953 1.428 . S
H1948 C1944 0.930 . S
H1949 C1946 0.929 . S
S1950 N1951 1.613 . S
S1950 N1952 1.610 . S
N1951 S1950 1.613 . S
N1951 C1954 1.350 . S
N1952 S1950 1.610 . S
N1952 C1953 1.351 . S
C1953 C1947 1.428 . S
C1953 N1952 1.351 . S
C1953 C1954 1.434 . S
C1954 C1945 1.429 . S
C1954 N1951 1.350 . S
C1954 C1953 1.434 . S
C1955 C1956 1.369 . S
C1955 C1957 1.419 . S
C1955 H1959 0.930 . S
C1956 C1955 1.369 . S
C1956 C1965 1.429 . S
C1957 C1955 1.419 . S
C1957 C1958 1.365 . S
C1957 H1960 0.929 1_565 S
C1958 C1957 1.365 . S
C1958 C1964 1.435 . S
H1959 C1955 0.930 . S
H1960 C1957 0.929 1_545 S
S1961 N1962 1.613 . S
S1961 N1963 1.610 . S
N1962 S1961 1.613 . S
N1962 C1965 1.350 . S
N1963 S1961 1.610 . S
N1963 C1964 1.351 . S
C1964 C1958 1.435 . S
C1964 N1963 1.351 . S
C1964 C1965 1.434 . S
C1965 C1956 1.429 . S
C1965 N1962 1.350 . S
C1965 C1964 1.434 . S
C1966 C1967 1.369 . S
C1966 C1968 1.419 . S
C1966 H1970 0.930 . S
C1967 C1966 1.369 . S
C1967 C1976 1.429 . S
C1968 C1966 1.419 . S
C1968 C1969 1.363 . S
C1968 H1971 0.929 . S
C1969 C1968 1.363 . S
C1969 C1975 1.428 . S
H1970 C1966 0.930 . S
H1971 C1968 0.929 . S
S1972 N1973 1.613 . S
S1972 N1974 1.610 . S
N1973 S1972 1.613 . S
N1973 C1976 1.350 . S
N1974 S1972 1.610 . S
N1974 C1975 1.351 . S
C1975 C1969 1.428 . S
C1975 N1974 1.351 . S
C1975 C1976 1.434 . S
C1976 C1967 1.429 . S
C1976 N1973 1.350 . S
C1976 C1975 1.434 . S
C1977 C1978 1.369 1_556 S
C1977 C1979 1.419 . S
C1977 H1981 0.930 . S
C1978 C1977 1.369 1_554 S
C1978 C1987 1.429 . S
C1979 C1977 1.419 . S
C1979 C1980 1.363 1_556 S
C1979 H1982 0.929 . S
C1980 C1979 1.363 1_554 S
C1980 C1986 1.428 . S
H1981 C1977 0.930 . S
H1982 C1979 0.929 . S
S1983 N1984 1.613 . S
S1983 N1985 1.610 . S
N1984 S1983 1.613 . S
N1984 C1987 1.350 . S
N1985 S1983 1.610 . S
N1985 C1986 1.351 . S
C1986 C1980 1.428 . S
C1986 N1985 1.351 . S
C1986 C1987 1.434 . S
C1987 C1978 1.429 . S
C1987 N1984 1.350 . S
C1987 C1986 1.434 . S
C1988 C1989 1.369 . S
C1988 C1990 1.419 . S
C1988 H1992 0.930 . S
C1989 C1988 1.369 . S
C1989 C1998 1.429 . S
C1990 C1988 1.419 . S
C1990 C1991 1.363 . S
C1990 H1993 0.929 . S
C1991 C1990 1.363 . S
C1991 C1997 1.428 . S
H1992 C1988 0.930 . S
H1993 C1990 0.929 . S
S1994 N1995 1.613 . S
S1994 N1996 1.610 . S
N1995 S1994 1.613 . S
N1995 C1998 1.350 . S
N1996 S1994 1.610 . S
N1996 C1997 1.351 . S
C1997 C1991 1.428 . S
C1997 N1996 1.351 . S
C1997 C1998 1.434 . S
C1998 C1989 1.429 . S
C1998 N1995 1.350 . S
C1998 C1997 1.434 . S
C1999 C2000 1.369 1_556 S
C1999 C2001 1.419 . S
C1999 H2003 0.930 . S
C2000 C1999 1.369 1_554 S
C2000 C2009 1.429 . S
C2001 C1999 1.419 . S
C2001 C2002 1.363 . S
C2001 H2004 0.929 . S
C2002 C2001 1.363 . S
C2002 C2008 1.428 1_556 S
H2003 C1999 0.930 . S
H2004 C2001 0.929 . S
S2005 N2006 1.613 . S
S2005 N2007 1.610 . S
N2006 S2005 1.613 . S
N2006 C2009 1.350 . S
N2007 S2005 1.610 . S
N2007 C2008 1.351 . S
C2008 C2002 1.428 1_554 S
C2008 N2007 1.351 . S
C2008 C2009 1.434 . S
C2009 C2000 1.429 . S
C2009 N2006 1.350 . S
C2009 C2008 1.434 . S
C2010 C2011 1.369 . S
C2010 C2012 1.419 . S
C2010 H2014 0.930 . S
C2011 C2010 1.369 . S
C2011 C2020 1.429 . S
C2012 C2010 1.419 . S
C2012 C2013 1.363 . S
C2012 H2015 0.929 . S
C2013 C2012 1.363 . S
C2013 C2019 1.428 . S
H2014 C2010 0.930 . S
H2015 C2012 0.929 . S
S2016 N2017 1.613 . S
S2016 N2018 1.610 . S
N2017 S2016 1.613 . S
N2017 C2020 1.350 . S
N2018 S2016 1.610 . S
N2018 C2019 1.351 . S
C2019 C2013 1.428 . S
C2019 N2018 1.351 . S
C2019 C2020 1.434 . S
C2020 C2011 1.429 . S
C2020 N2017 1.350 . S
C2020 C2019 1.434 . S
C2021 C2022 1.369 . S
C2021 C2023 1.419 . S
C2021 H2025 0.930 . S
C2022 C2021 1.369 . S
C2022 C2031 1.429 . S
C2023 C2021 1.419 . S
C2023 C2024 1.363 . S
C2023 H2026 0.929 . S
C2024 C2023 1.363 . S
C2024 C2030 1.428 . S
H2025 C2021 0.930 . S
H2026 C2023 0.929 . S
S2027 N2028 1.613 . S
S2027 N2029 1.610 . S
N2028 S2027 1.613 . S
N2028 C2031 1.350 . S
N2029 S2027 1.610 . S
N2029 C2030 1.351 . S
C2030 C2024 1.428 . S
C2030 N2029 1.351 . S
C2030 C2031 1.434 . S
C2031 C2022 1.429 . S
C2031 N2028 1.350 . S
C2031 C2030 1.434 . S
C977 C105 2.401 . S
C979 C338 2.366 1_556 S
C988 C65 2.254 . S
C990 C395 2.271 . S
C999 C73 1.420 . S
C1001 C418 1.390 . S
C1012 C472 1.391 . S
C1010 C92 1.434 . S
C1021 C17 1.699 . S
C1023 C512 1.597 . S
C1034 C543 0.811 . S
C1032 C37 0.834 . S
C1045 C595 1.660 . S
C1043 C49 1.379 . S
C1054 C8 2.039 . S
C1056 C618 1.968 . S
C1067 C355 2.557 . S
C1065 C231 2.479 1_455 S
C1076 C241 0.902 . S
C1078 C392 0.857 . S
C1089 C435 1.302 . S
C1087 C273 1.249 . S
C1100 C458 1.500 . S
C1098 C171 1.508 . S
C1109 C227 2.060 1_455 S
C1111 C498 2.037 . S
C1122 C546 1.501 . S
C1120 C245 1.452 . S
C1133 C592 0.632 . S
C1131 C269 0.614 . S
C1144 C635 2.201 . S
C1142 C175 2.210 . S
C1155 C352 1.676 . S
C1153 C162 1.762 . S
C1164 C289 2.016 . S
C1166 C675 2.025 . S
C1177 C707 2.665 . S
C1175 C330 2.705 . S
C1188 C738 0.755 1_655 S
C1186 C317 0.748 . S
C1197 C120 1.895 . S
C1199 C632 1.804 . S
C1208 C134 1.719 . S
C1210 C432 1.658 . S
C1219 C331 2.233 . S
C1221 C795 2.233 . S
C1232 C818 0.773 . S
C1230 C303 0.802 . S
C1243 C347 2.371 . S
C1241 C59 2.374 . S
C1254 C826 2.292 . S
C1252 C107 2.266 . S
C1263 C91 1.466 . S
C1265 C427 1.436 . S
C1274 C78 1.437 . S
C1276 C783 1.414 . S
C1287 C503 1.601 . S
C1285 C7 1.511 . S
C1296 C51 0.825 . S
C1298 C712 0.820 . S
C1309 C586 1.706 . S
C1307 C31 1.620 . S
C1320 C867 1.956 . S
C1318 C22 1.999 . S
C1331 C346 2.573 . S
C1329 C143 2.574 . S
C1342 C823 0.838 . S
C1340 C315 0.847 . S
C1351 C115 1.319 . S
C1353 C426 1.321 . S
C1362 C287 1.548 . S
C1364 C787 1.542 . S
C1373 C147 1.962 . S
C1375 C507 2.065 . S
C1386 C715 1.504 . S
C1384 C311 1.510 . S
C1395 C119 0.665 . S
C1397 C583 0.642 . S
C1406 C283 2.217 . S
C1408 C866 2.211 . S
C1417 C190 1.729 . S
C1419 C343 1.679 . S
C1428 C177 2.030 . S
C1430 C666 2.046 . S
C1439 C260 2.717 . S
C1441 C538 2.681 . S
C1450 C247 0.824 . S
C1452 C747 0.832 . S
C1463 C863 1.776 1_545 S
C1461 C274 1.798 . S
C1472 C218 1.675 . S
C1474 C423 1.659 . S
C1485 C466 2.256 . S
C1483 C261 2.252 . S
C1496 C387 0.761 . S
C1494 C205 0.786 . S
C1505 C77 2.402 . S
C1507 C898 2.364 . S
C1518 C835 2.271 . S
C1516 C93 2.254 . S
C1527 C101 1.417 . S
C1529 C938 1.383 . S
C1538 C64 1.433 . S
C1540 C792 1.389 . S
C1549 C45 1.702 . S
C1551 C672 1.594 . S
C1562 C703 0.820 1_455 S
C1560 C9 0.831 . S
C1573 C755 1.661 . S
C1571 C21 1.374 1_455 S
C1584 C858 1.962 . S
C1582 C36 2.045 . S
C1595 C915 2.557 . S
C1593 C259 2.480 . S
C1604 C185 0.906 . S
C1606 C832 0.853 . S
C1617 C955 1.302 . S
C1615 C203 1.248 . S
C1628 C778 1.500 . S
C1626 C213 1.508 . S
C1639 C658 2.035 . S
C1637 C255 2.062 . S
C1648 C189 1.441 . S
C1650 C706 1.505 . S
C1661 C752 0.633 . S
C1659 C199 0.613 . S
C1670 C217 2.209 . S
C1672 C875 2.200 . S
C1683 C912 1.677 . S
C1681 C316 1.765 . S
C1692 C135 2.015 . S
C1694 C515 2.026 . S
C1705 C547 2.665 . S
C1703 C148 2.705 . S
C1716 C578 0.754 . S
C1714 C163 0.754 . S
C1727 C872 1.809 . S
C1725 C302 1.891 . S
C1736 C288 1.718 . S
C1738 C952 1.659 . S
C1749 C475 2.231 . S
C1747 C149 2.234 . S
C1760 C378 0.773 . S
C1758 C121 0.803 . S
C1769 C87 2.373 . S
C1771 C907 2.371 . S
C1782 C386 2.292 . S
C1780 C79 2.266 . S
C1791 C63 1.462 . S
C1793 C947 1.432 . S
C1802 C106 1.434 . S
C1804 C463 1.419 . S
C1813 C35 1.510 . S
C1815 C663 1.602 . S
C1826 C552 0.809 . S
C1824 C23 0.826 . S
C1835 C3 1.627 . S
C1837 C746 1.701 . S
C1846 C50 1.995 . S
C1848 C627 1.954 . S
C1859 C906 2.572 . S
C1857 C325 2.574 . S
C1868 C161 0.839 . S
C1870 C383 0.839 . S
C1881 C946 1.320 . S
C1879 C297 1.316 . S
C1890 C133 1.545 . S
C1892 C467 1.541 . S
C1901 C329 1.964 . S
C1903 C667 2.068 . S
C1914 C555 1.501 . S
C1912 C157 1.514 . S
C1923 C301 0.651 . S
C1925 C743 0.635 . S
C1936 C626 2.212 . S
C1934 C129 2.214 . S
C1947 C903 1.677 . S
C1945 C246 1.729 . S
C1958 C506 2.038 1_665 S
C1956 C219 2.027 . S
C1967 C232 2.716 . S
C1969 C698 2.679 . S
C1980 C587 0.829 . S
C1978 C191 0.821 . S
C1989 C204 1.806 . S
C1991 C623 1.773 . S
C2000 C176 1.682 . S
C2002 C943 1.654 . S
C2013 C786 2.257 . S
C2011 C233 2.250 1_565 S
C2024 C827 0.763 . S
C2022 C275 0.784 . S
