# Generated by pormake.
# Topology tsx, (6,3)-cn, num edge types: 1
# Building blocks:
#     Node 0, Type 0, BuildingBlock: CIFDUS_clean_sbu_1, # of connection points: 6
#     Node 1, Type 0, BuildingBlock: CIFDUS_clean_sbu_1, # of connection points: 6
#     Node 2, Type 1, BuildingBlock: WUSLED_clean_sbu_0, # of connection points: 3
#     Node 3, Type 1, BuildingBlock: WUSLED_clean_sbu_0, # of connection points: 3
#     Node 4, Type 1, BuildingBlock: WUSLED_clean_sbu_0, # of connection points: 3
#     Node 5, Type 1, BuildingBlock: WUSLED_clean_sbu_0, # of connection points: 3
#     Edge 6, Type (0, 1), BuildingBlock: UVAHIK_clean_linker_0, # of connection points: 2
#     Edge 7, Type (0, 1), BuildingBlock: UVAHIK_clean_linker_0, # of connection points: 2
#     Edge 8, Type (0, 1), BuildingBlock: UVAHIK_clean_linker_0, # of connection points: 2
#     Edge 9, Type (0, 1), BuildingBlock: UVAHIK_clean_linker_0, # of connection points: 2
#     Edge 10, Type (0, 1), BuildingBlock: UVAHIK_clean_linker_0, # of connection points: 2
#     Edge 11, Type (0, 1), BuildingBlock: UVAHIK_clean_linker_0, # of connection points: 2
#     Edge 12, Type (0, 1), BuildingBlock: UVAHIK_clean_linker_0, # of connection points: 2
#     Edge 13, Type (0, 1), BuildingBlock: UVAHIK_clean_linker_0, # of connection points: 2
#     Edge 14, Type (0, 1), BuildingBlock: UVAHIK_clean_linker_0, # of connection points: 2
#     Edge 15, Type (0, 1), BuildingBlock: UVAHIK_clean_linker_0, # of connection points: 2
#     Edge 16, Type (0, 1), BuildingBlock: UVAHIK_clean_linker_0, # of connection points: 2
#     Edge 17, Type (0, 1), BuildingBlock: UVAHIK_clean_linker_0, # of connection points: 2
# Relax obj value: 0.120
# Max RMSD: 0.152
# Mean RMSD: 0.113
data_MOF--net-tsx--node1-CIFDUS_clean_sbu_1--node2-WUSLED_clean_sbu_0--edge1-UVAHIK_clean_linker_0
_symmetry_space_group_name_H-M    P1
_symmetry_Int_Tables_number       1
_symmetry_cell_setting            triclinic
loop_
_symmetry_equiv_pos_as_xyz
'x, y, z'
_cell_length_a     29.273694
_cell_length_b     35.235023
_cell_length_c     58.013957
_cell_angle_alpha  97.186086
_cell_angle_beta   90.67011
_cell_angle_gamma 90.661943
loop_
_atom_site_label
_atom_site_type_symbol
_atom_site_fract_x
_atom_site_fract_y
_atom_site_fract_z
_atom_type_partial_charge
O0 O 0.01186 0.08278 0.01367 0.0
Mn1 Mn 0.05302 0.03347 0.01106 0.0
O2 O 0.9525 0.06509 0.98942 0.0
Mn3 Mn 0.96967 0.01554 0.98005 0.0
O4 O 0.09154 0.98236 0.00673 0.0
O5 O 0.10929 0.06967 0.01936 0.0
Mn6 Mn 0.14003 0.04037 0.03711 0.0
O7 O 0.04061 0.028 0.04623 0.0
O8 O 0.1617 0.9974 0.02008 0.0
O9 O 0.06554 0.03944 0.97561 0.0
O10 O 0.00774 0.00913 0.9552 0.0
O11 O 0.17623 0.08142 0.03832 0.0
O12 O 0.10933 0.03304 0.06372 0.0
C13 C 0.9642 0.9731 1.00196 0.0
C14 C 0.97425 0.09001 1.0033 0.0
C15 C 0.13372 0.97396 0.00928 0.0
C16 C 0.14498 0.09245 0.02468 0.0
C17 C 0.06647 0.02802 0.06428 0.0
C18 C 0.04653 0.02553 0.95617 0.0
O19 O 0.99732 0.99842 1.00365 0.0
O20 O 0.93384 0.97569 0.98582 0.0
O21 O 0.51422 0.58363 0.51449 0.0
Mn22 Mn 0.55384 0.5336 0.5114 0.0
O23 O 0.45241 0.56763 0.49161 0.0
Mn24 Mn 0.46836 0.51799 0.48149 0.0
O25 O 0.5913 0.48188 0.50674 0.0
O26 O 0.61075 0.56912 0.5194 0.0
Mn27 Mn 0.64177 0.53918 0.53658 0.0
O28 O 0.5423 0.52825 0.54663 0.0
O29 O 0.66232 0.49647 0.51891 0.0
O30 O 0.56541 0.53928 0.47582 0.0
O31 O 0.505 0.51184 0.45606 0.0
O32 O 0.67834 0.58005 0.53778 0.0
O33 O 0.61179 0.53115 0.5633 0.0
C34 C 0.46352 0.47473 0.50292 0.0
C35 C 0.47595 0.59176 0.50514 0.0
C36 C 0.63359 0.47321 0.50857 0.0
C37 C 0.64679 0.59156 0.52449 0.0
C38 C 0.56882 0.52711 0.56432 0.0
C39 C 0.54472 0.52659 0.4566 0.0
O40 O 0.49713 0.49958 0.50436 0.0
O41 O 0.4323 0.47831 0.48736 0.0
C42 C 0.98419 0.08521 0.46646 0.0
C43 C 0.97132 0.10693 0.44883 0.0
C44 C 0.92365 0.14706 0.47593 0.0
C45 C 0.94141 0.13754 0.45351 0.0
C46 C 0.93646 0.12497 0.49351 0.0
C47 C 0.96651 0.09435 0.4888 0.0
U48 U 0.05051 0.01787 0.4232 0.0
O49 O 0.12017 0.99551 0.42465 0.0
O50 O 0.06133 0.95574 0.42059 0.0
C51 C 0.10587 0.95975 0.42311 0.0
C52 C 0.0157 0.05292 0.46157 0.0
C53 C 0.12843 0.93501 0.43832 0.0
C54 C 0.16471 0.92346 0.47474 0.0
C55 C 0.14035 0.94756 0.4616 0.0
C56 C 0.16396 0.87405 0.44167 0.0
C57 C 0.17674 0.8865 0.4648 0.0
C58 C 0.14021 0.89811 0.42857 0.0
C59 C 0.03366 0.03474 0.35846 0.0
C60 C 0.07323 0.00627 0.32394 0.0
C61 C 0.00938 0.04833 0.32028 0.0
C62 C 1.00426 0.05294 0.3443 0.0
C63 C 0.0442 0.02537 0.30976 0.0
C64 C 0.0681 0.01104 0.34821 0.0
C65 C 0.02725 0.04212 0.38375 0.0
O66 O 0.99762 0.02173 0.45007 0.0
O67 O 0.05594 0.06166 0.45373 0.0
O68 O 0.06264 0.05577 0.39643 0.0
O69 O 1.00348 0.01642 0.39322 0.0
H70 H 0.98433 0.10014 0.4314 0.0
H71 H 0.93171 0.15343 0.43944 0.0
H72 H 0.92375 0.13165 0.51099 0.0
H73 H 0.976 0.07785 0.50263 0.0
H74 H 0.17416 0.93361 0.49257 0.0
H75 H 0.13147 0.97599 0.46944 0.0
H76 H 0.17343 0.84595 0.43349 0.0
H77 H 0.13166 0.88806 0.4106 0.0
H78 H 0.10039 0.9884 0.31634 0.0
H79 H 0.98582 0.06278 0.3099 0.0
H80 H 0.97732 0.07111 0.35189 0.0
H81 H 0.0911 0.99664 0.35892 0.0
C82 C 0.94317 0.006 0.55952 0.0
C83 C 0.92894 0.98496 0.57721 0.0
C84 C 0.88264 0.9428 0.54934 0.0
C85 C 0.89899 0.95369 0.57218 0.0
C86 C 0.89689 0.96423 0.53171 0.0
C87 C 0.92688 0.99551 0.53679 0.0
U88 U 0.01057 0.07473 0.60319 0.0
O89 O 0.08045 0.09803 0.60216 0.0
O90 O 0.02203 0.13703 0.60565 0.0
C91 C 0.06656 0.13362 0.6039 0.0
C92 C 0.97484 0.03885 0.56465 0.0
C93 C 0.09055 0.15979 0.59011 0.0
C94 C 0.12581 0.17616 0.55475 0.0
C95 C 0.0994 0.15093 0.56629 0.0
C96 C 0.13374 0.21901 0.59066 0.0
C97 C 0.14362 0.21044 0.56692 0.0
C98 C 0.10745 0.19411 0.60201 0.0
C99 C 0.99621 0.05877 0.6679 0.0
C100 C 0.04291 0.08274 0.70176 0.0
C101 C 0.97207 0.04853 0.70653 0.0
C102 C 0.96444 0.0445 0.68258 0.0
C103 C 0.01182 0.06693 0.71639 0.0
C104 C 0.03524 0.07857 0.67761 0.0
C105 C 0.98818 0.05058 0.64265 0.0
O106 O 0.95709 0.06976 0.57594 0.0
O107 O 0.01521 0.03085 0.57283 0.0
O108 O 0.02278 0.03706 0.63006 0.0
O109 O 0.96429 0.07577 0.63293 0.0
H110 H 0.94097 0.99278 0.59493 0.0
H111 H 0.88824 0.93832 0.58626 0.0
H112 H 0.88546 0.95648 0.51391 0.0
H113 H 0.93752 0.01144 0.52292 0.0
H114 H 0.13253 0.16875 0.53644 0.0
H115 H 0.0866 0.12445 0.55679 0.0
H116 H 0.14766 0.24446 0.60084 0.0
H117 H 0.10133 0.20128 0.62043 0.0
H118 H 0.07386 0.09702 0.70887 0.0
H119 H 0.94707 0.03665 0.71734 0.0
H120 H 0.93401 0.02937 0.67543 0.0
H121 H 0.06012 0.08994 0.66653 0.0
C122 C 0.48477 0.58589 0.96681 0.0
C123 C 0.47188 0.60753 0.94913 0.0
C124 C 0.42378 0.64749 0.9761 0.0
C125 C 0.44177 0.63802 0.95373 0.0
C126 C 0.43657 0.62546 0.99373 0.0
C127 C 0.46683 0.59497 0.9891 0.0
U128 U 0.55114 0.51867 0.92359 0.0
O129 O 0.62099 0.49653 0.92484 0.0
O130 O 0.5623 0.45659 0.92098 0.0
C131 C 0.6069 0.4607 0.92302 0.0
C132 C 0.51652 0.55373 0.96199 0.0
C133 C 0.63061 0.43532 0.93739 0.0
C134 C 0.66029 0.41856 0.97413 0.0
C135 C 0.63589 0.44359 0.96161 0.0
C136 C 0.67381 0.37723 0.93832 0.0
C137 C 0.67945 0.38499 0.96256 0.0
C138 C 0.6496 0.40201 0.92596 0.0
C139 C 0.53309 0.53505 0.85883 0.0
C140 C 0.57468 0.50972 0.82425 0.0
C141 C 0.5054 0.54556 0.82061 0.0
C142 C 0.50076 0.55012 0.84466 0.0
C143 C 0.54268 0.52581 0.81006 0.0
C144 C 0.57 0.51442 0.84854 0.0
C145 C 0.52714 0.54265 0.88416 0.0
O146 O 0.49859 0.52236 0.95063 0.0
O147 O 0.55664 0.56258 0.95405 0.0
O148 O 0.56267 0.55643 0.89668 0.0
O149 O 0.50357 0.51704 0.89381 0.0
H150 H 0.48506 0.60078 0.93174 0.0
H151 H 0.43209 0.65386 0.93964 0.0
H152 H 0.42368 0.6321 0.01117 0.0
H153 H 0.47631 0.57852 1.00296 0.0
H154 H 0.66387 0.42531 0.9928 0.0
H155 H 0.62144 0.4693 0.97073 0.0
H156 H 0.68892 0.35226 0.92871 0.0
H157 H 0.64617 0.39532 0.90726 0.0
H158 H 0.60378 0.49437 0.81663 0.0
H159 H 0.4796 0.55759 0.81023 0.0
H160 H 0.47192 0.5659 0.85227 0.0
H161 H 0.5953 0.50244 0.85924 0.0
C162 C 0.44344 0.50572 0.05951 0.0
C163 C 0.4292 0.48464 0.07717 0.0
C164 C 0.38285 0.44259 0.04926 0.0
C165 C 0.39923 0.4534 0.07211 0.0
C166 C 0.39711 0.46406 0.03167 0.0
C167 C 0.42713 0.49531 0.03677 0.0
U168 U 0.51068 0.57452 0.10322 0.0
O169 O 0.5805 0.59794 0.10221 0.0
O170 O 0.52197 0.63682 0.10564 0.0
C171 C 0.56651 0.6335 0.10394 0.0
C172 C 0.47509 0.53858 0.06467 0.0
C173 C 0.5905 0.65973 0.0902 0.0
C174 C 0.62493 0.67657 0.05475 0.0
C175 C 0.59861 0.65127 0.06628 0.0
C176 C 0.63424 0.71868 0.09088 0.0
C177 C 0.64335 0.71053 0.06703 0.0
C178 C 0.60805 0.69372 0.10222 0.0
C179 C 0.49635 0.55898 0.16799 0.0
C180 C 0.5444 0.5805 0.20179 0.0
C181 C 0.47032 0.55147 0.20673 0.0
C182 C 0.46291 0.54736 0.18276 0.0
C183 C 0.51152 0.56726 0.21653 0.0
C184 C 0.53692 0.57629 0.17762 0.0
C185 C 0.48834 0.55052 0.14273 0.0
O186 O 0.45727 0.56948 0.07593 0.0
O187 O 0.51542 0.53059 0.07288 0.0
O188 O 0.52294 0.53696 0.13015 0.0
O189 O 0.46429 0.57552 0.13292 0.0
H190 H 0.44124 0.4924 0.09489 0.0
H191 H 0.38847 0.43798 0.08617 0.0
H192 H 0.38565 0.45637 0.01386 0.0
H193 H 0.43777 0.51128 0.02292 0.0
H194 H 0.63107 0.66948 0.03635 0.0
H195 H 0.5853 0.62504 0.05669 0.0
H196 H 0.64866 0.74386 0.10113 0.0
H197 H 0.6025 0.70056 0.1207 0.0
H198 H 0.57649 0.59274 0.20883 0.0
H199 H 0.44395 0.54166 0.21761 0.0
H200 H 0.43129 0.53418 0.17567 0.0
H201 H 0.56313 0.58563 0.16649 0.0
C202 C 0.19786 0.13756 0.00947 0.0
C203 C 0.15303 0.12963 0.01612 0.0
C204 C 0.21326 0.17512 0.00943 0.0
C205 C 0.21688 0.26513 1.00274 0.0
H206 H 0.25555 0.30124 0.06596 0.0
C207 C 0.31451 0.40976 0.0281 0.0
C208 C 0.35128 0.40899 0.04389 0.0
C209 C 0.28451 0.37835 0.02348 0.0
C210 C 0.24488 0.2917 0.04822 0.0
H211 H 0.0883 0.15478 0.02666 0.0
H212 H 0.11549 0.22139 0.02643 0.0
H213 H 0.20965 0.24253 0.05799 0.0
H214 H 0.38601 0.3738 0.06656 0.0
H215 H 0.33387 0.31936 0.0586 0.0
H216 H 0.25352 0.31342 0.99275 0.0
C217 C 0.13833 0.19804 0.02111 0.0
C218 C 0.2181 0.25841 0.04374 0.0
C219 C 0.12264 0.16007 0.02096 0.0
C220 C 0.35754 0.37583 0.05471 0.0
C221 C 0.32755 0.34455 0.05014 0.0
C222 C 0.24332 0.29875 0.00723 0.0
C223 C 0.18422 0.20568 0.0161 0.0
C224 C 0.20447 0.24455 0.02095 0.0
C225 C 0.29045 0.34546 0.0346 0.0
C226 C 0.25859 0.31193 0.02997 0.0
H227 H 0.22228 0.11468 0.00614 0.0
H228 H 0.24889 0.18035 0.00584 0.0
H229 H 0.20742 0.25448 0.98498 0.0
H230 H 0.30832 0.43494 0.01962 0.0
H231 H 0.25615 0.38012 0.01152 0.0
C232 C 0.13544 0.90303 0.00986 0.0
C233 C 0.15145 0.93582 1.00086 0.0
C234 C 0.16031 0.86895 0.0065 0.0
C235 C 0.25229 0.82023 0.97078 0.0
H236 H 0.27763 0.76931 0.02496 0.0
C237 C 0.39912 0.714 0.97085 0.0
C238 C 0.39174 0.68011 0.98081 0.0
C239 C 0.36782 0.74379 0.97392 0.0
C240 C 0.27047 0.78288 0.00959 0.0
H241 H 0.20473 0.95871 0.98086 0.0
H242 H 0.2472 0.89945 0.97439 0.0
H243 H 0.22352 0.82206 0.02765 0.0
H244 H 0.34601 0.65163 1.00249 0.0
H245 H 0.29118 0.7037 0.0078 0.0
H246 H 0.29924 0.78158 0.95272 0.0
C247 C 0.21564 0.89958 0.98395 0.0
C248 C 0.23933 0.81305 0.01111 0.0
C249 C 0.19126 0.93355 0.98757 0.0
C250 C 0.35291 0.67738 0.99464 0.0
C251 C 0.32144 0.70726 0.99769 0.0
C252 C 0.28323 0.79017 0.96925 0.0
C253 C 0.20119 0.86709 0.99384 0.0
C254 C 0.23041 0.83247 0.99179 0.0
C255 C 0.32809 0.74057 0.98699 0.0
C256 C 0.29336 0.77147 0.9887 0.0
H257 H 0.1054 0.90442 0.02066 0.0
H258 H 0.14815 0.84437 0.01425 0.0
H259 H 0.2457 0.83411 0.95546 0.0
H260 H 0.4292 0.71755 0.9606 0.0
H261 H 0.37479 0.76942 0.96596 0.0
C262 C 0.92927 0.95181 0.03639 0.0
C263 C 0.95738 0.94324 0.01708 0.0
C264 C 0.89961 0.92387 0.04312 0.0
C265 C 0.86496 0.8212 0.03368 0.0
H266 H 0.74276 0.86265 0.03699 0.0
C267 C 0.708 0.72239 0.04024 0.0
C268 C 0.6742 0.73674 0.05591 0.0
C269 C 0.742 0.74675 0.03327 0.0
C270 C 0.77658 0.85049 0.03645 0.0
H271 H 0.98025 0.8981 0.99127 0.0
H272 H 0.9298 0.849 1.00343 0.0
H273 H 0.80777 0.9049 0.03379 0.0
H274 H 0.64711 0.78869 0.07456 0.0
H275 H 0.70698 0.83033 0.06362 0.0
H276 H 0.83398 0.76689 0.03686 0.0
C277 C 0.93027 0.87715 0.01337 0.0
C278 C 0.81398 0.87487 0.03467 0.0
C279 C 0.95976 0.90516 0.00661 0.0
C280 C 0.67332 0.77638 0.06301 0.0
C281 C 0.70753 0.80051 0.05638 0.0
C282 C 0.82752 0.79681 0.03583 0.0
C283 C 0.89783 0.8869 0.0307 0.0
C284 C 0.85867 0.86063 0.03352 0.0
C285 C 0.74322 0.78594 0.04197 0.0
C286 C 0.78276 0.81118 0.0375 0.0
H287 H 0.926 0.98112 0.04439 0.0
H288 H 0.87558 0.93201 0.05687 0.0
H289 H 0.89894 0.80932 0.03262 0.0
H290 H 0.70969 0.69207 0.0343 0.0
H291 H 0.76806 0.73457 0.02159 0.0
C292 C 0.93304 0.14029 0.98584 0.0
C293 C 0.95469 0.12885 0.00558 0.0
C294 C 0.90583 0.17253 0.98759 0.0
C295 C 0.87819 0.26323 0.01002 0.0
H296 H 0.7507 0.2323 1.00256 0.0
C297 C 0.73819 0.37166 0.99268 0.0
C298 C 0.70625 0.35814 0.97517 0.0
C299 C 0.76727 0.34621 1.00225 0.0
C300 C 0.78606 0.24159 0.00464 0.0
H301 H 0.96738 0.14397 0.04246 0.0
H302 H 0.91937 0.2018 0.04549 0.0
H303 H 0.80834 0.18496 0.00848 0.0
H304 H 0.67779 0.30695 0.95523 0.0
H305 H 0.72908 0.26318 0.97103 0.0
H306 H 0.85669 0.31923 0.00436 0.0
C307 C 0.92371 0.185 0.02873 0.0
C308 C 0.81892 0.21452 0.00837 0.0
C309 C 0.95123 0.15221 0.02698 0.0
C310 C 0.70255 0.3185 0.96836 0.0
C311 C 0.73167 0.29322 0.97774 0.0
C312 C 0.8453 0.29039 0.00607 0.0
C313 C 0.89983 0.19453 0.00909 0.0
C314 C 0.86529 0.22493 0.01058 0.0
C315 C 0.76504 0.30669 0.99454 0.0
C316 C 0.79893 0.27964 1.00258 0.0
H317 H 0.93546 0.12316 0.96903 0.0
H318 H 0.88793 0.1795 0.97223 0.0
H319 H 0.91393 0.27165 0.01127 0.0
H320 H 0.74204 0.40202 0.99831 0.0
H321 H 0.79205 0.3576 0.01539 0.0
C322 C 0.69943 0.6373 0.50964 0.0
C323 C 0.65466 0.62902 0.51623 0.0
C324 C 0.71443 0.67497 0.50962 0.0
C325 C 0.71745 0.76481 0.50285 0.0
H326 H 0.75522 0.8015 0.56611 0.0
C327 C 0.81443 0.90978 0.52813 0.0
C328 C 0.85112 0.90915 0.54399 0.0
C329 C 0.78451 0.87832 0.52352 0.0
C330 C 0.74479 0.79181 0.54836 0.0
H331 H 0.58961 0.65366 0.52667 0.0
H332 H 0.61614 0.72048 0.52653 0.0
H333 H 0.70962 0.74262 0.55816 0.0
H334 H 0.88577 0.87413 0.56679 0.0
H335 H 0.83372 0.81962 0.55886 0.0
H336 H 0.75404 0.81311 0.49284 0.0
C337 C 0.63924 0.69731 0.52124 0.0
C338 C 0.71817 0.75841 0.54389 0.0
C339 C 0.62394 0.65922 0.52105 0.0
C340 C 0.85735 0.87607 0.55489 0.0
C341 C 0.82743 0.84474 0.55034 0.0
C342 C 0.7437 0.79853 0.50733 0.0
C343 C 0.68505 0.7053 0.51626 0.0
C344 C 0.7049 0.74432 0.52108 0.0
C345 C 0.79042 0.84551 0.53472 0.0
C346 C 0.75866 0.81192 0.53009 0.0
H347 H 0.72409 0.61461 0.50629 0.0
H348 H 0.75 0.68046 0.50603 0.0
H349 H 0.70827 0.75399 0.48507 0.0
H350 H 0.80826 0.93489 0.51958 0.0
H351 H 0.75623 0.87998 0.5115 0.0
C352 C 0.69005 0.43234 0.48644 0.0
C353 C 0.65069 0.43491 0.50007 0.0
C354 C 0.71451 0.39842 0.48295 0.0
C355 C 0.7393 0.31273 0.51086 0.0
H356 H 0.79877 0.28052 0.45243 0.0
C357 C 0.85303 0.17709 0.49463 0.0
C358 C 0.89173 0.17975 0.48071 0.0
C359 C 0.82159 0.20699 0.4977 0.0
C360 C 0.78287 0.28932 0.46897 0.0
H361 H 0.6055 0.40402 0.52059 0.0
H362 H 0.64827 0.34397 0.51434 0.0
H363 H 0.74487 0.33275 0.45496 0.0
H364 H 0.92907 0.21709 0.46037 0.0
H365 H 0.87466 0.26897 0.46573 0.0
H366 H 0.77801 0.2694 0.5249 0.0
C367 C 0.66005 0.36832 0.50625 0.0
C368 C 0.75173 0.31922 0.47038 0.0
C369 C 0.63512 0.40238 0.50951 0.0
C370 C 0.89907 0.2136 0.47069 0.0
C371 C 0.86779 0.24339 0.47377 0.0
C372 C 0.77061 0.28269 0.50944 0.0
C373 C 0.70058 0.36623 0.49329 0.0
C374 C 0.73001 0.33173 0.4914 0.0
C375 C 0.82814 0.24022 0.48691 0.0
C376 C 0.79333 0.27102 0.48854 0.0
H377 H 0.70323 0.45731 0.47942 0.0
H378 H 0.74581 0.39814 0.47317 0.0
H379 H 0.72364 0.32195 0.5274 0.0
H380 H 0.84617 0.15139 0.50253 0.0
H381 H 0.79139 0.20349 0.50786 0.0
C382 C 0.42845 0.45268 0.53704 0.0
C383 C 0.45691 0.44453 0.51783 0.0
C384 C 0.39888 0.42448 0.54352 0.0
C385 C 0.36526 0.32178 0.53406 0.0
H386 H 0.24258 0.36228 0.53627 0.0
C387 C 0.20895 0.22212 0.5405 0.0
C388 C 0.17461 0.23657 0.55582 0.0
C389 C 0.24294 0.24651 0.53355 0.0
C390 C 0.27653 0.35039 0.53604 0.0
H391 H 0.48044 0.39982 0.49192 0.0
H392 H 0.43023 0.35017 0.50373 0.0
H393 H 0.30731 0.4049 0.5332 0.0
H394 H 0.14666 0.28865 0.57387 0.0
H395 H 0.20647 0.33038 0.56297 0.0
H396 H 0.3347 0.26739 0.53749 0.0
C397 C 0.43035 0.37826 0.51374 0.0
C398 C 0.31376 0.37497 0.53432 0.0
C399 C 0.4597 0.40657 0.5072 0.0
C400 C 0.17326 0.27628 0.56259 0.0
C401 C 0.20745 0.30045 0.55599 0.0
C402 C 0.32799 0.29719 0.53617 0.0
C403 C 0.3976 0.38761 0.53097 0.0
C404 C 0.3586 0.36108 0.53358 0.0
C405 C 0.24362 0.28584 0.54192 0.0
C406 C 0.28305 0.31122 0.53747 0.0
H407 H 0.42482 0.4819 0.54514 0.0
H408 H 0.37456 0.43233 0.55717 0.0
H409 H 0.39939 0.31018 0.5333 0.0
H410 H 0.21103 0.19174 0.53482 0.0
H411 H 0.26939 0.23427 0.52214 0.0
C412 C 0.44923 0.6462 0.48639 0.0
C413 C 0.45919 0.63127 0.50716 0.0
C414 C 0.42102 0.67765 0.48627 0.0
C415 C 0.36474 0.7584 0.52005 0.0
H416 H 0.27194 0.73555 0.47189 0.0
C417 C 0.24684 0.8729 0.4875 0.0
C418 C 0.20413 0.86091 0.47778 0.0
C419 C 0.27636 0.84647 0.49578 0.0
C420 C 0.2969 0.7424 0.48574 0.0
H421 H 0.45011 0.63896 0.5444 0.0
H422 H 0.40064 0.69522 0.54432 0.0
H423 H 0.3288 0.68834 0.47761 0.0
H424 H 0.15701 0.81295 0.4709 0.0
H425 H 0.20724 0.76727 0.48622 0.0
H426 H 0.33228 0.81267 0.5282 0.0
C427 C 0.4149 0.68226 0.52812 0.0
C428 C 0.33007 0.7154 0.48878 0.0
C429 C 0.44339 0.65035 0.52822 0.0
C430 C 0.19003 0.82279 0.47806 0.0
C431 C 0.21907 0.79659 0.48666 0.0
C432 C 0.33124 0.78565 0.51703 0.0
C433 C 0.40181 0.69498 0.50695 0.0
C434 C 0.36494 0.7233 0.50559 0.0
C435 C 0.26341 0.80764 0.49472 0.0
C436 C 0.29716 0.77812 0.49962 0.0
H437 H 0.46084 0.63183 0.46991 0.0
H438 H 0.41232 0.68721 0.46975 0.0
H439 H 0.39116 0.76518 0.53319 0.0
H440 H 0.25856 0.90215 0.48736 0.0
H441 H 0.31022 0.8561 0.50173 0.0
C442 C 0.05417 0.98658 0.09517 0.0
C443 C 0.04762 0.02189 0.08689 0.0
C444 C 0.04933 0.98318 0.1188 0.0
C445 C 0.00873 0.03477 0.17497 0.0
H446 H 0.10123 0.97502 0.20188 0.0
C447 C 0.04528 0.05513 0.27279 0.0
C448 C 0.04969 0.02231 0.28411 0.0
C449 C 0.04511 0.05241 0.24861 0.0
C450 C 0.07489 0.99149 0.19461 0.0
H451 H 0.03068 0.08122 0.09649 0.0
H452 H 0.02221 0.07568 0.13773 0.0
H453 H 0.09672 0.97453 0.1598 0.0
H454 H 0.05981 0.96102 0.27879 0.0
H455 H 0.05975 0.95623 0.23623 0.0
H456 H 0.98764 0.05243 0.20977 0.0
C457 C 0.02985 0.05017 0.12606 0.0
C458 C 0.0721 0.99111 0.17044 0.0
C459 C 0.03441 0.05343 0.1024 0.0
C460 C 0.05638 0.98683 0.27059 0.0
C461 C 0.05626 0.9841 0.24623 0.0
C462 C 0.01172 0.03532 0.19906 0.0
C463 C 0.03854 0.01525 0.13472 0.0
C464 C 0.03929 0.01315 0.16029 0.0
C465 C 0.04944 0.0168 0.23499 0.0
C466 C 0.04522 0.01416 0.20922 0.0
H467 H 0.0655 0.96212 0.08354 0.0
H468 H 0.05557 0.95571 0.12469 0.0
H469 H 0.98243 0.05146 0.16786 0.0
H470 H 0.04125 0.08304 0.28269 0.0
H471 H 0.04112 0.07831 0.24054 0.0
C472 C 0.07231 0.07037 0.9286 0.0
C473 C 0.06491 0.03273 0.93354 0.0
C474 C 0.07232 0.07838 0.90545 0.0
C475 C 0.01783 0.03945 0.85054 0.0
H476 H 0.10125 0.10246 0.81988 0.0
C477 C 0.01402 0.03375 0.75198 0.0
C478 C 0.02136 0.06725 0.74166 0.0
C479 C 0.02091 0.03351 0.77576 0.0
C480 C 0.07724 0.08526 0.82829 0.0
H481 H 0.05519 0.97385 0.91839 0.0
H482 H 0.05638 0.98752 0.87831 0.0
H483 H 0.11365 0.09501 0.86099 0.0
H484 H 0.04267 0.12675 0.74823 0.0
H485 H 0.05426 0.12656 0.79019 0.0
H486 H 0.98095 0.02985 0.81838 0.0
C487 C 0.06149 0.01095 0.89212 0.0
C488 C 0.08449 0.08092 0.8518 0.0
C489 C 0.06153 1.00303 0.91505 0.0
C490 C 0.03684 0.10047 0.7557 0.0
C491 C 0.04349 0.10032 0.77971 0.0
C492 C 0.01035 0.04405 0.82729 0.0
C493 C 0.0647 0.04883 0.88707 0.0
C494 C 0.05559 0.05699 0.86291 0.0
C495 C 0.03506 0.06687 0.79007 0.0
C496 C 0.04069 0.06603 0.8156 0.0
H497 H 0.07382 0.09389 0.94255 0.0
H498 H 0.07485 0.10784 0.90203 0.0
H499 H 0.99415 0.02173 0.85883 0.0
H500 H 1.00313 0.00744 0.74158 0.0
H501 H 0.0154 0.00689 0.7829 0.0
C502 C 0.53192 0.55028 0.60179 0.0
C503 C 0.55066 0.52019 0.58696 0.0
C504 C 0.52692 0.54717 0.62548 0.0
C505 C 0.5762 0.49391 0.67118 0.0
H506 H 0.48227 0.54633 0.70889 0.0
C507 C 0.5594 0.48847 0.77102 0.0
C508 C 0.54769 0.52302 0.78437 0.0
C509 C 0.55956 0.4856 0.74666 0.0
C510 C 0.50897 0.53175 0.69862 0.0
H511 H 0.57734 0.46291 0.5847 0.0
H512 H 0.56654 0.4565 0.62572 0.0
H513 H 0.47861 0.54465 0.66686 0.0
H514 H 0.53023 0.58226 0.78265 0.0
H515 H 0.53053 0.57727 0.7405 0.0
H516 H 0.6064 0.48104 0.70312 0.0
C517 C 0.55663 0.48289 0.6194 0.0
C518 C 0.50688 0.5308 0.67447 0.0
C519 C 0.56206 0.48623 0.59583 0.0
C520 C 0.53821 0.55495 0.77289 0.0
C521 C 0.5383 0.55208 0.74869 0.0
C522 C 0.5781 0.49465 0.69537 0.0
C523 C 0.5405 0.51381 0.63475 0.0
C524 C 0.54078 0.51233 0.66039 0.0
C525 C 0.54799 0.51721 0.73523 0.0
C526 C 0.54489 0.51414 0.70941 0.0
H527 H 0.52413 0.57712 0.59542 0.0
H528 H 0.51495 0.57181 0.63671 0.0
H529 H 0.60342 0.47991 0.66103 0.0
H530 H 0.56678 0.46333 0.77933 0.0
H531 H 0.56721 0.45831 0.73678 0.0
C532 C 0.55666 0.50323 0.41531 0.0
C533 C 0.56293 0.53273 0.43374 0.0
C534 C 0.55691 0.51103 0.39236 0.0
C535 C 0.58603 0.57835 0.35152 0.0
H536 H 0.47663 0.53536 0.31949 0.0
C537 C 0.53993 0.59957 0.25555 0.0
C538 C 0.52055 0.56752 0.24186 0.0
C539 C 0.54657 0.59945 0.27956 0.0
C540 C 0.50764 0.54726 0.32801 0.0
H541 H 0.57737 0.59323 0.44259 0.0
H542 H 0.57904 0.6069 0.402 0.0
H543 H 0.48964 0.52694 0.35992 0.0
H544 H 0.49514 0.50961 0.24244 0.0
H545 H 0.50726 0.50907 0.28375 0.0
H546 H 0.60462 0.59772 0.31922 0.0
C547 C 0.57392 0.57768 0.4055 0.0
C548 C 0.515 0.54252 0.35125 0.0
C549 C 0.57353 0.56981 0.42868 0.0
C550 C 0.5091 0.53513 0.25255 0.0
C551 C 0.51594 0.5349 0.27634 0.0
C552 C 0.57889 0.58279 0.32802 0.0
C553 C 0.56344 0.54859 0.38722 0.0
C554 C 0.55476 0.55715 0.36312 0.0
C555 C 0.53419 0.56717 0.29029 0.0
C556 C 0.54011 0.5664 0.31582 0.0
H557 H 0.5479 0.4745 0.41873 0.0
H558 H 0.5495 0.48793 0.37862 0.0
H559 H 0.61681 0.59014 0.36032 0.0
H560 H 0.54898 0.62501 0.24781 0.0
H561 H 0.56053 0.62486 0.28976 0.0
loop_
_geom_bond_atom_site_label_1
_geom_bond_atom_site_label_2
_geom_bond_distance
_geom_bond_site_symmetry_2
_ccdc_geom_bond_type
O0 Mn1 2.163 . S
O0 C14 1.244 1_455 S
Mn1 O0 2.163 . S
Mn1 O4 2.160 1_545 S
Mn1 O5 2.221 . S
Mn1 O7 2.163 . S
Mn1 O9 2.160 1_554 S
Mn1 O19 2.221 1_444 S
O2 Mn3 2.087 . S
O2 C14 1.256 1_556 S
Mn3 O2 2.087 . S
Mn3 O10 2.089 . S
Mn3 O19 2.290 1_545 S
Mn3 O20 2.251 1_546 S
O4 Mn1 2.160 1_565 S
O4 C15 1.244 . S
O5 Mn1 2.221 . S
O5 Mn6 2.290 . S
O5 C16 1.278 . S
Mn6 O5 2.290 . S
Mn6 O8 2.089 1_545 S
Mn6 O11 2.251 . S
Mn6 O12 2.087 . S
O7 Mn1 2.163 . S
O7 C17 1.244 . S
O8 Mn6 2.089 1_565 S
O8 C15 1.256 . S
O9 Mn1 2.160 1_556 S
O9 C18 1.239 . S
O10 Mn3 2.089 . S
O10 C18 1.256 1_655 S
O11 Mn6 2.251 . S
O11 C16 1.241 . S
O12 Mn6 2.087 . S
O12 C17 1.256 . S
C13 O19 1.278 1_554 S
C13 O20 1.241 . S
C14 O0 1.244 1_655 S
C14 O2 1.256 1_554 S
C15 O4 1.244 . S
C15 O8 1.256 . S
C16 O5 1.278 . S
C16 O11 1.241 . S
C17 O7 1.244 . S
C17 O12 1.256 . S
C18 O9 1.239 . S
C18 O10 1.256 1_455 S
O19 Mn1 2.221 1_666 S
O19 Mn3 2.290 1_565 S
O19 C13 1.278 1_556 S
O20 Mn3 2.251 1_564 S
O20 C13 1.241 . S
O21 Mn22 2.163 . S
O21 C35 1.244 . S
Mn22 O21 2.163 . S
Mn22 O25 2.160 . S
Mn22 O26 2.221 . S
Mn22 O28 2.163 . S
Mn22 O30 2.160 . S
Mn22 O40 2.221 . S
O23 Mn24 2.087 . S
O23 C35 1.256 . S
Mn24 O23 2.087 . S
Mn24 O31 2.089 . S
Mn24 O40 2.290 . S
Mn24 O41 2.251 . S
O25 Mn22 2.160 . S
O25 C36 1.239 . S
O26 Mn22 2.221 . S
O26 Mn27 2.290 . S
O26 C37 1.278 . S
Mn27 O26 2.290 . S
Mn27 O29 2.089 . S
Mn27 O32 2.251 . S
Mn27 O33 2.087 . S
O28 Mn22 2.163 . S
O28 C38 1.244 . S
O29 Mn27 2.089 . S
O29 C36 1.256 . S
O30 Mn22 2.160 . S
O30 C39 1.239 . S
O31 Mn24 2.089 . S
O31 C39 1.256 . S
O32 Mn27 2.251 . S
O32 C37 1.241 . S
O33 Mn27 2.087 . S
O33 C38 1.256 . S
C34 O40 1.278 . S
C34 O41 1.241 . S
C35 O21 1.244 . S
C35 O23 1.256 . S
C36 O25 1.239 . S
C36 O29 1.256 . S
C37 O26 1.278 . S
C37 O32 1.241 . S
C38 O28 1.244 . S
C38 O33 1.256 . S
C39 O30 1.239 . S
C39 O31 1.256 . S
O40 Mn22 2.221 . S
O40 Mn24 2.290 . S
O40 C34 1.278 . S
O41 Mn24 2.251 . S
O41 C34 1.241 . S
C42 C43 1.264 . S
C42 C47 1.479 . S
C42 C52 1.465 1_655 S
C43 C42 1.264 . S
C43 C45 1.339 . S
C43 H70 0.931 . S
C44 C45 1.395 . S
C44 C46 1.320 . S
C45 C43 1.339 . S
C45 C44 1.395 . S
C45 H71 0.929 . S
C46 C44 1.320 . S
C46 C47 1.405 . S
C46 H72 0.930 . S
C47 C42 1.479 . S
C47 C46 1.405 . S
C47 H73 0.931 . S
U48 O49 2.454 1_545 S
U48 O50 2.458 1_545 S
U48 C51 2.984 1_545 S
U48 C52 2.847 . S
U48 C65 2.882 . S
U48 O66 2.441 . S
U48 O67 2.420 . S
U48 O68 2.455 1_545 S
U48 O69 2.449 . S
O49 U48 2.454 1_565 S
O49 C51 1.353 . S
O50 U48 2.458 1_565 S
O50 C51 1.286 . S
C51 U48 2.984 1_565 S
C51 O49 1.353 . S
C51 O50 1.286 . S
C51 C53 1.363 . S
C52 C42 1.465 1_455 S
C52 U48 2.847 . S
C52 O66 1.249 . S
C52 O67 1.202 . S
C53 C51 1.363 . S
C53 C55 1.408 . S
C53 C58 1.342 . S
C54 C55 1.310 . S
C54 C57 1.461 . S
C54 H74 0.932 . S
C55 C53 1.408 . S
C55 C54 1.310 . S
C55 H75 0.930 . S
C56 C57 1.474 . S
C56 C58 1.285 . S
C56 H76 0.929 . S
C57 C54 1.461 . S
C57 C56 1.474 . S
C58 C53 1.342 . S
C58 C56 1.285 . S
C58 H77 0.930 . S
C59 C62 1.424 . S
C59 C64 1.245 1_545 S
C59 C65 1.428 . S
C60 C63 1.260 1_565 S
C60 C64 1.477 . S
C60 H78 0.932 . S
C61 C62 1.384 . S
C61 C63 1.479 . S
C61 H79 0.929 . S
C62 C59 1.424 . S
C62 C61 1.384 . S
C62 H80 0.928 . S
C63 C60 1.260 1_545 S
C63 C61 1.479 . S
C64 C59 1.245 1_565 S
C64 C60 1.477 . S
C64 H81 0.932 . S
C65 U48 2.882 . S
C65 C59 1.428 . S
C65 O68 1.301 1_545 S
C65 O69 1.282 . S
O66 U48 2.441 . S
O66 C52 1.249 . S
O67 U48 2.420 . S
O67 C52 1.202 . S
O68 U48 2.455 1_565 S
O68 C65 1.301 1_565 S
O69 U48 2.449 . S
O69 C65 1.282 . S
H70 C43 0.931 . S
H71 C45 0.929 . S
H72 C46 0.930 . S
H73 C47 0.931 . S
H74 C54 0.932 . S
H75 C55 0.930 . S
H76 C56 0.929 . S
H77 C58 0.930 . S
H78 C60 0.932 . S
H79 C61 0.929 . S
H80 C62 0.928 . S
H81 C64 0.932 . S
C82 C83 1.264 . S
C82 C87 1.479 . S
C82 C92 1.465 1_565 S
C83 C82 1.264 . S
C83 C85 1.339 . S
C83 H110 0.931 . S
C84 C85 1.395 . S
C84 C86 1.320 . S
C85 C83 1.339 . S
C85 C84 1.395 . S
C85 H111 0.929 . S
C86 C84 1.320 . S
C86 C87 1.405 . S
C86 H112 0.930 . S
C87 C82 1.479 . S
C87 C86 1.405 . S
C87 H113 0.931 . S
U88 O89 2.454 . S
U88 O90 2.458 . S
U88 C91 2.984 . S
U88 C92 2.847 1_455 S
U88 C105 2.882 . S
U88 O106 2.441 1_455 S
U88 O107 2.420 1_455 S
U88 O108 2.455 . S
U88 O109 2.449 . S
O89 U88 2.454 . S
O89 C91 1.353 . S
O90 U88 2.458 . S
O90 C91 1.286 . S
C91 U88 2.984 . S
C91 O89 1.353 . S
C91 O90 1.286 . S
C91 C93 1.363 . S
C92 C82 1.465 1_545 S
C92 U88 2.847 1_655 S
C92 O106 1.249 . S
C92 O107 1.202 . S
C93 C91 1.363 . S
C93 C95 1.408 . S
C93 C98 1.342 . S
C94 C95 1.310 . S
C94 C97 1.461 . S
C94 H114 0.932 . S
C95 C93 1.408 . S
C95 C94 1.310 . S
C95 H115 0.930 . S
C96 C97 1.474 . S
C96 C98 1.285 . S
C96 H116 0.929 . S
C97 C94 1.461 . S
C97 C96 1.474 . S
C98 C93 1.342 . S
C98 C96 1.285 . S
C98 H117 0.930 . S
C99 C102 1.424 1_455 S
C99 C104 1.245 . S
C99 C105 1.428 . S
C100 C103 1.260 . S
C100 C104 1.477 . S
C100 H118 0.932 . S
C101 C102 1.384 . S
C101 C103 1.479 1_655 S
C101 H119 0.929 . S
C102 C99 1.424 1_655 S
C102 C101 1.384 . S
C102 H120 0.928 . S
C103 C100 1.260 . S
C103 C101 1.479 1_455 S
C104 C99 1.245 . S
C104 C100 1.477 . S
C104 H121 0.932 . S
C105 U88 2.882 . S
C105 C99 1.428 . S
C105 O108 1.301 . S
C105 O109 1.282 . S
O106 U88 2.441 1_655 S
O106 C92 1.249 . S
O107 U88 2.420 1_655 S
O107 C92 1.202 . S
O108 U88 2.455 . S
O108 C105 1.301 . S
O109 U88 2.449 . S
O109 C105 1.282 . S
H110 C83 0.931 . S
H111 C85 0.929 . S
H112 C86 0.930 . S
H113 C87 0.931 . S
H114 C94 0.932 . S
H115 C95 0.930 . S
H116 C96 0.929 . S
H117 C98 0.930 . S
H118 C100 0.932 . S
H119 C101 0.929 . S
H120 C102 0.928 . S
H121 C104 0.932 . S
C122 C123 1.264 . S
C122 C127 1.479 . S
C122 C132 1.465 . S
C123 C122 1.264 . S
C123 C125 1.339 . S
C123 H150 0.931 . S
C124 C125 1.395 . S
C124 C126 1.320 . S
C125 C123 1.339 . S
C125 C124 1.395 . S
C125 H151 0.929 . S
C126 C124 1.320 . S
C126 C127 1.405 . S
C126 H152 0.930 1_556 S
C127 C122 1.479 . S
C127 C126 1.405 . S
C127 H153 0.931 . S
U128 O129 2.454 . S
U128 O130 2.458 . S
U128 C131 2.984 . S
U128 C132 2.847 . S
U128 C145 2.882 . S
U128 O146 2.441 . S
U128 O147 2.420 . S
U128 O148 2.455 . S
U128 O149 2.449 . S
O129 U128 2.454 . S
O129 C131 1.353 . S
O130 U128 2.458 . S
O130 C131 1.286 . S
C131 U128 2.984 . S
C131 O129 1.353 . S
C131 O130 1.286 . S
C131 C133 1.363 . S
C132 C122 1.465 . S
C132 U128 2.847 . S
C132 O146 1.249 . S
C132 O147 1.202 . S
C133 C131 1.363 . S
C133 C135 1.408 . S
C133 C138 1.342 . S
C134 C135 1.310 . S
C134 C137 1.461 . S
C134 H154 0.932 1_556 S
C135 C133 1.408 . S
C135 C134 1.310 . S
C135 H155 0.930 . S
C136 C137 1.474 . S
C136 C138 1.285 . S
C136 H156 0.929 . S
C137 C134 1.461 . S
C137 C136 1.474 . S
C138 C133 1.342 . S
C138 C136 1.285 . S
C138 H157 0.930 . S
C139 C142 1.424 . S
C139 C144 1.245 . S
C139 C145 1.428 . S
C140 C143 1.260 . S
C140 C144 1.477 . S
C140 H158 0.932 . S
C141 C142 1.384 . S
C141 C143 1.479 . S
C141 H159 0.929 . S
C142 C139 1.424 . S
C142 C141 1.384 . S
C142 H160 0.928 . S
C143 C140 1.260 . S
C143 C141 1.479 . S
C144 C139 1.245 . S
C144 C140 1.477 . S
C144 H161 0.932 . S
C145 U128 2.882 . S
C145 C139 1.428 . S
C145 O148 1.301 . S
C145 O149 1.282 . S
O146 U128 2.441 . S
O146 C132 1.249 . S
O147 U128 2.420 . S
O147 C132 1.202 . S
O148 U128 2.455 . S
O148 C145 1.301 . S
O149 U128 2.449 . S
O149 C145 1.282 . S
H150 C123 0.931 . S
H151 C125 0.929 . S
H152 C126 0.930 1_554 S
H153 C127 0.931 . S
H154 C134 0.932 1_554 S
H155 C135 0.930 . S
H156 C136 0.929 . S
H157 C138 0.930 . S
H158 C140 0.932 . S
H159 C141 0.929 . S
H160 C142 0.928 . S
H161 C144 0.932 . S
C162 C163 1.264 . S
C162 C167 1.479 . S
C162 C172 1.465 . S
C163 C162 1.264 . S
C163 C165 1.339 . S
C163 H190 0.931 . S
C164 C165 1.395 . S
C164 C166 1.320 . S
C165 C163 1.339 . S
C165 C164 1.395 . S
C165 H191 0.929 . S
C166 C164 1.320 . S
C166 C167 1.405 . S
C166 H192 0.930 . S
C167 C162 1.479 . S
C167 C166 1.405 . S
C167 H193 0.931 . S
U168 O169 2.454 . S
U168 O170 2.458 . S
U168 C171 2.984 . S
U168 C172 2.847 . S
U168 C185 2.882 . S
U168 O186 2.441 . S
U168 O187 2.420 . S
U168 O188 2.455 . S
U168 O189 2.449 . S
O169 U168 2.454 . S
O169 C171 1.353 . S
O170 U168 2.458 . S
O170 C171 1.286 . S
C171 U168 2.984 . S
C171 O169 1.353 . S
C171 O170 1.286 . S
C171 C173 1.363 . S
C172 C162 1.465 . S
C172 U168 2.847 . S
C172 O186 1.249 . S
C172 O187 1.202 . S
C173 C171 1.363 . S
C173 C175 1.408 . S
C173 C178 1.342 . S
C174 C175 1.310 . S
C174 C177 1.461 . S
C174 H194 0.932 . S
C175 C173 1.408 . S
C175 C174 1.310 . S
C175 H195 0.930 . S
C176 C177 1.474 . S
C176 C178 1.285 . S
C176 H196 0.929 . S
C177 C174 1.461 . S
C177 C176 1.474 . S
C178 C173 1.342 . S
C178 C176 1.285 . S
C178 H197 0.930 . S
C179 C182 1.424 . S
C179 C184 1.245 . S
C179 C185 1.428 . S
C180 C183 1.260 . S
C180 C184 1.477 . S
C180 H198 0.932 . S
C181 C182 1.384 . S
C181 C183 1.479 . S
C181 H199 0.929 . S
C182 C179 1.424 . S
C182 C181 1.384 . S
C182 H200 0.928 . S
C183 C180 1.260 . S
C183 C181 1.479 . S
C184 C179 1.245 . S
C184 C180 1.477 . S
C184 H201 0.932 . S
C185 U168 2.882 . S
C185 C179 1.428 . S
C185 O188 1.301 . S
C185 O189 1.282 . S
O186 U168 2.441 . S
O186 C172 1.249 . S
O187 U168 2.420 . S
O187 C172 1.202 . S
O188 U168 2.455 . S
O188 C185 1.301 . S
O189 U168 2.449 . S
O189 C185 1.282 . S
H190 C163 0.931 . S
H191 C165 0.929 . S
H192 C166 0.930 . S
H193 C167 0.931 . S
H194 C174 0.932 . S
H195 C175 0.930 . S
H196 C176 0.929 . S
H197 C178 0.930 . S
H198 C180 0.932 . S
H199 C181 0.929 . S
H200 C182 0.928 . S
H201 C184 0.932 . S
C202 C203 1.349 . S
C202 C204 1.327 . S
C202 H227 0.950 . S
C203 C202 1.349 . S
C203 C219 1.349 1_554 S
C204 C202 1.327 . S
C204 C223 1.429 . S
C204 H228 0.950 . S
C205 C222 1.574 . S
C205 C224 1.368 . S
C205 H229 0.949 1_554 S
H206 C210 0.949 . S
C207 C208 1.349 . S
C207 C209 1.327 . S
C207 H230 0.950 . S
C208 C207 1.349 . S
C208 C220 1.349 . S
C209 C207 1.327 . S
C209 C225 1.429 . S
C209 H231 0.950 1_554 S
C210 H206 0.949 . S
C210 C218 1.574 . S
C210 C226 1.368 . S
H211 C219 0.950 . S
H212 C217 0.950 . S
H213 C218 0.949 . S
H214 C220 0.950 . S
H215 C221 0.950 . S
H216 C222 0.949 1_556 S
C217 H212 0.950 . S
C217 C219 1.327 . S
C217 C223 1.429 1_556 S
C218 C210 1.574 . S
C218 H213 0.949 . S
C218 C224 1.368 . S
C219 C203 1.349 1_556 S
C219 H211 0.950 . S
C219 C217 1.327 . S
C220 C208 1.349 . S
C220 H214 0.950 . S
C220 C221 1.327 . S
C221 H215 0.950 . S
C221 C220 1.327 . S
C221 C225 1.429 . S
C222 C205 1.574 . S
C222 H216 0.949 1_554 S
C222 C226 1.368 . S
C223 C204 1.429 . S
C223 C217 1.429 1_554 S
C223 C224 1.523 . S
C224 C205 1.368 . S
C224 C218 1.368 . S
C224 C223 1.523 . S
C225 C209 1.429 . S
C225 C221 1.429 . S
C225 C226 1.523 . S
C226 C210 1.368 . S
C226 C222 1.368 . S
C226 C225 1.523 . S
H227 C202 0.950 . S
H228 C204 0.950 . S
H229 C205 0.949 1_556 S
H230 C207 0.950 . S
H231 C209 0.950 1_556 S
C232 C233 1.349 . S
C232 C234 1.327 . S
C232 H257 0.950 . S
C233 C232 1.349 . S
C233 C249 1.349 1_554 S
C234 C232 1.327 . S
C234 C253 1.429 . S
C234 H258 0.950 . S
C235 C252 1.574 . S
C235 C254 1.368 . S
C235 H259 0.949 . S
H236 C240 0.949 . S
C237 C238 1.349 . S
C237 C239 1.327 . S
C237 H260 0.950 . S
C238 C237 1.349 . S
C238 C250 1.349 1_556 S
C239 C237 1.327 . S
C239 C255 1.429 . S
C239 H261 0.950 . S
C240 H236 0.949 . S
C240 C248 1.574 . S
C240 C256 1.368 1_554 S
H241 C249 0.950 . S
H242 C247 0.950 . S
H243 C248 0.949 . S
H244 C250 0.950 . S
H245 C251 0.950 . S
H246 C252 0.949 . S
C247 H242 0.950 . S
C247 C249 1.327 . S
C247 C253 1.429 1_556 S
C248 C240 1.574 . S
C248 H243 0.949 . S
C248 C254 1.368 1_554 S
C249 C233 1.349 1_556 S
C249 H241 0.950 . S
C249 C247 1.327 . S
C250 C238 1.349 1_554 S
C250 H244 0.950 . S
C250 C251 1.327 . S
C251 H245 0.950 . S
C251 C250 1.327 . S
C251 C255 1.429 1_554 S
C252 C235 1.574 . S
C252 H246 0.949 . S
C252 C256 1.368 . S
C253 C234 1.429 . S
C253 C247 1.429 1_554 S
C253 C254 1.523 1_554 S
C254 C235 1.368 . S
C254 C248 1.368 1_556 S
C254 C253 1.523 1_556 S
C255 C239 1.429 . S
C255 C251 1.429 1_556 S
C255 C256 1.523 . S
C256 C240 1.368 1_556 S
C256 C252 1.368 . S
C256 C255 1.523 . S
H257 C232 0.950 . S
H258 C234 0.950 . S
H259 C235 0.949 . S
H260 C237 0.950 . S
H261 C239 0.950 . S
C262 C263 1.349 . S
C262 C264 1.327 . S
C262 H287 0.950 . S
C263 C262 1.349 . S
C263 C279 1.349 . S
C264 C262 1.327 . S
C264 C283 1.429 . S
C264 H288 0.950 . S
C265 C282 1.574 . S
C265 C284 1.368 . S
C265 H289 0.949 . S
H266 C270 0.949 . S
C267 C268 1.349 . S
C267 C269 1.327 . S
C267 H290 0.950 . S
C268 C267 1.349 . S
C268 C280 1.349 . S
C269 C267 1.327 . S
C269 C285 1.429 . S
C269 H291 0.950 . S
C270 H266 0.949 . S
C270 C278 1.574 . S
C270 C286 1.368 . S
H271 C279 0.950 1_556 S
H272 C277 0.955 . S
H273 C278 0.949 . S
H274 C280 0.950 . S
H275 C281 0.950 . S
H276 C282 0.949 . S
C277 H272 0.955 . S
C277 C279 1.327 . S
C277 C283 1.429 . S
C278 C270 1.574 . S
C278 H273 0.949 . S
C278 C284 1.368 . S
C279 C263 1.349 . S
C279 H271 0.950 1_554 S
C279 C277 1.327 . S
C280 C268 1.349 . S
C280 H274 0.950 . S
C280 C281 1.327 . S
C281 H275 0.950 . S
C281 C280 1.327 . S
C281 C285 1.429 . S
C282 C265 1.574 . S
C282 H276 0.949 . S
C282 C286 1.368 . S
C283 C264 1.429 . S
C283 C277 1.429 . S
C283 C284 1.523 . S
C284 C265 1.368 . S
C284 C278 1.368 . S
C284 C283 1.523 . S
C285 C269 1.429 . S
C285 C281 1.429 . S
C285 C286 1.523 . S
C286 C270 1.368 . S
C286 C282 1.368 . S
C286 C285 1.523 . S
H287 C262 0.950 . S
H288 C264 0.950 . S
H289 C265 0.949 . S
H290 C267 0.950 . S
H291 C269 0.950 . S
C292 C293 1.349 1_556 S
C292 C294 1.327 . S
C292 H317 0.950 . S
C293 C292 1.349 1_554 S
C293 C309 1.349 . S
C294 C292 1.327 . S
C294 C313 1.429 . S
C294 H318 0.950 . S
C295 C312 1.574 . S
C295 C314 1.368 1_554 S
C295 H319 0.949 . S
H296 C300 0.949 . S
C297 C298 1.349 . S
C297 C299 1.327 . S
C297 H320 0.951 . S
C298 C297 1.349 . S
C298 C310 1.349 . S
C299 C297 1.327 . S
C299 C315 1.429 . S
C299 H321 0.950 1_556 S
C300 H296 0.949 . S
C300 C308 1.574 . S
C300 C316 1.368 . S
H301 C309 0.950 . S
H302 C307 0.950 . S
H303 C308 0.949 . S
H304 C310 0.950 . S
H305 C311 0.950 . S
H306 C312 0.949 . S
C307 H302 0.950 . S
C307 C309 1.327 . S
C307 C313 1.429 1_554 S
C308 C300 1.574 . S
C308 H303 0.949 . S
C308 C314 1.368 . S
C309 C293 1.349 . S
C309 H301 0.950 . S
C309 C307 1.327 . S
C310 C298 1.349 . S
C310 H304 0.950 . S
C310 C311 1.327 . S
C311 H305 0.950 . S
C311 C310 1.327 . S
C311 C315 1.429 . S
C312 C295 1.574 . S
C312 H306 0.949 . S
C312 C316 1.368 1_554 S
C313 C294 1.429 . S
C313 C307 1.429 1_556 S
C313 C314 1.523 . S
C314 C295 1.368 1_556 S
C314 C308 1.368 . S
C314 C313 1.523 . S
C315 C299 1.429 . S
C315 C311 1.429 . S
C315 C316 1.523 . S
C316 C300 1.368 . S
C316 C312 1.368 1_556 S
C316 C315 1.523 . S
H317 C292 0.950 . S
H318 C294 0.950 . S
H319 C295 0.949 . S
H320 C297 0.951 . S
H321 C299 0.950 1_554 S
C322 C323 1.349 . S
C322 C324 1.327 . S
C322 H347 0.950 . S
C323 C322 1.349 . S
C323 C339 1.349 . S
C324 C322 1.327 . S
C324 C343 1.429 . S
C324 H348 0.950 . S
C325 C342 1.574 . S
C325 C344 1.368 . S
C325 H349 0.949 . S
H326 C330 0.949 . S
C327 C328 1.349 . S
C327 C329 1.327 . S
C327 H350 0.950 . S
C328 C327 1.349 . S
C328 C340 1.349 . S
C329 C327 1.327 . S
C329 C345 1.429 . S
C329 H351 0.950 . S
C330 H326 0.949 . S
C330 C338 1.574 . S
C330 C346 1.368 . S
H331 C339 0.950 . S
H332 C337 0.950 . S
H333 C338 0.949 . S
H334 C340 0.950 . S
H335 C341 0.950 . S
H336 C342 0.949 . S
C337 H332 0.950 . S
C337 C339 1.327 . S
C337 C343 1.429 . S
C338 C330 1.574 . S
C338 H333 0.949 . S
C338 C344 1.368 . S
C339 C323 1.349 . S
C339 H331 0.950 . S
C339 C337 1.327 . S
C340 C328 1.349 . S
C340 H334 0.950 . S
C340 C341 1.327 . S
C341 H335 0.950 . S
C341 C340 1.327 . S
C341 C345 1.429 . S
C342 C325 1.574 . S
C342 H336 0.949 . S
C342 C346 1.368 . S
C343 C324 1.429 . S
C343 C337 1.429 . S
C343 C344 1.523 . S
C344 C325 1.368 . S
C344 C338 1.368 . S
C344 C343 1.523 . S
C345 C329 1.429 . S
C345 C341 1.429 . S
C345 C346 1.523 . S
C346 C330 1.368 . S
C346 C342 1.368 . S
C346 C345 1.523 . S
H347 C322 0.950 . S
H348 C324 0.950 . S
H349 C325 0.949 . S
H350 C327 0.950 . S
H351 C329 0.950 . S
C352 C353 1.349 . S
C352 C354 1.327 . S
C352 H377 0.950 . S
C353 C352 1.349 . S
C353 C369 1.349 . S
C354 C352 1.327 . S
C354 C373 1.429 . S
C354 H378 0.950 . S
C355 C372 1.574 . S
C355 C374 1.368 . S
C355 H379 0.949 . S
H356 C360 0.949 . S
C357 C358 1.349 . S
C357 C359 1.327 . S
C357 H380 0.950 . S
C358 C357 1.349 . S
C358 C370 1.349 . S
C359 C357 1.327 . S
C359 C375 1.429 . S
C359 H381 0.950 . S
C360 H356 0.949 . S
C360 C368 1.574 . S
C360 C376 1.368 . S
H361 C369 0.950 . S
H362 C367 0.950 . S
H363 C368 0.949 . S
H364 C370 0.950 . S
H365 C371 0.950 . S
H366 C372 0.949 . S
C367 H362 0.950 . S
C367 C369 1.327 . S
C367 C373 1.429 . S
C368 C360 1.574 . S
C368 H363 0.949 . S
C368 C374 1.368 . S
C369 C353 1.349 . S
C369 H361 0.950 . S
C369 C367 1.327 . S
C370 C358 1.349 . S
C370 H364 0.950 . S
C370 C371 1.327 . S
C371 H365 0.950 . S
C371 C370 1.327 . S
C371 C375 1.429 . S
C372 C355 1.574 . S
C372 H366 0.949 . S
C372 C376 1.368 . S
C373 C354 1.429 . S
C373 C367 1.429 . S
C373 C374 1.523 . S
C374 C355 1.368 . S
C374 C368 1.368 . S
C374 C373 1.523 . S
C375 C359 1.429 . S
C375 C371 1.429 . S
C375 C376 1.523 . S
C376 C360 1.368 . S
C376 C372 1.368 . S
C376 C375 1.523 . S
H377 C352 0.950 . S
H378 C354 0.950 . S
H379 C355 0.949 . S
H380 C357 0.950 . S
H381 C359 0.950 . S
C382 C383 1.349 . S
C382 C384 1.327 . S
C382 H407 0.950 . S
C383 C382 1.349 . S
C383 C399 1.349 . S
C384 C382 1.327 . S
C384 C403 1.429 . S
C384 H408 0.950 . S
C385 C402 1.574 . S
C385 C404 1.368 . S
C385 H409 0.949 . S
H386 C390 0.949 . S
C387 C388 1.349 . S
C387 C389 1.327 . S
C387 H410 0.950 . S
C388 C387 1.349 . S
C388 C400 1.349 . S
C389 C387 1.327 . S
C389 C405 1.429 . S
C389 H411 0.950 . S
C390 H386 0.949 . S
C390 C398 1.574 . S
C390 C406 1.368 . S
H391 C399 0.950 . S
H392 C397 0.950 . S
H393 C398 0.949 . S
H394 C400 0.950 . S
H395 C401 0.950 . S
H396 C402 0.949 . S
C397 H392 0.950 . S
C397 C399 1.327 . S
C397 C403 1.429 . S
C398 C390 1.574 . S
C398 H393 0.949 . S
C398 C404 1.368 . S
C399 C383 1.349 . S
C399 H391 0.950 . S
C399 C397 1.327 . S
C400 C388 1.349 . S
C400 H394 0.950 . S
C400 C401 1.327 . S
C401 H395 0.950 . S
C401 C400 1.327 . S
C401 C405 1.429 . S
C402 C385 1.574 . S
C402 H396 0.949 . S
C402 C406 1.368 . S
C403 C384 1.429 . S
C403 C397 1.429 . S
C403 C404 1.523 . S
C404 C385 1.368 . S
C404 C398 1.368 . S
C404 C403 1.523 . S
C405 C389 1.429 . S
C405 C401 1.429 . S
C405 C406 1.523 . S
C406 C390 1.368 . S
C406 C402 1.368 . S
C406 C405 1.523 . S
H407 C382 0.950 . S
H408 C384 0.950 . S
H409 C385 0.949 . S
H410 C387 0.950 . S
H411 C389 0.950 . S
C412 C413 1.349 . S
C412 C414 1.327 . S
C412 H437 0.950 . S
C413 C412 1.349 . S
C413 C429 1.349 . S
C414 C412 1.327 . S
C414 C433 1.429 . S
C414 H438 0.950 . S
C415 C432 1.574 . S
C415 C434 1.368 . S
C415 H439 0.949 . S
H416 C420 0.949 . S
C417 C418 1.349 . S
C417 C419 1.327 . S
C417 H440 0.950 . S
C418 C417 1.349 . S
C418 C430 1.349 . S
C419 C417 1.327 . S
C419 C435 1.429 . S
C419 H441 0.950 . S
C420 H416 0.949 . S
C420 C428 1.574 . S
C420 C436 1.368 . S
H421 C429 0.950 . S
H422 C427 0.950 . S
H423 C428 0.949 . S
H424 C430 0.950 . S
H425 C431 0.950 . S
H426 C432 0.949 . S
C427 H422 0.950 . S
C427 C429 1.327 . S
C427 C433 1.429 . S
C428 C420 1.574 . S
C428 H423 0.949 . S
C428 C434 1.368 . S
C429 C413 1.349 . S
C429 H421 0.950 . S
C429 C427 1.327 . S
C430 C418 1.349 . S
C430 H424 0.950 . S
C430 C431 1.327 . S
C431 H425 0.950 . S
C431 C430 1.327 . S
C431 C435 1.429 . S
C432 C415 1.574 . S
C432 H426 0.949 . S
C432 C436 1.368 . S
C433 C414 1.429 . S
C433 C427 1.429 . S
C433 C434 1.523 . S
C434 C415 1.368 . S
C434 C428 1.368 . S
C434 C433 1.523 . S
C435 C419 1.429 . S
C435 C431 1.429 . S
C435 C436 1.523 . S
C436 C420 1.368 . S
C436 C432 1.368 . S
C436 C435 1.523 . S
H437 C412 0.950 . S
H438 C414 0.950 . S
H439 C415 0.949 . S
H440 C417 0.950 . S
H441 C419 0.950 . S
C442 C443 1.349 1_565 S
C442 C444 1.327 . S
C442 H467 0.950 . S
C443 C442 1.349 1_545 S
C443 C459 1.349 . S
C444 C442 1.327 . S
C444 C463 1.429 1_565 S
C444 H468 0.950 . S
C445 C462 1.574 . S
C445 C464 1.368 . S
C445 H469 0.949 . S
H446 C450 0.949 . S
C447 C448 1.349 1_545 S
C447 C449 1.327 . S
C447 H470 0.950 . S
C448 C447 1.349 1_565 S
C448 C460 1.349 . S
C449 C447 1.327 . S
C449 C465 1.429 . S
C449 H471 0.950 . S
C450 H446 0.949 . S
C450 C458 1.574 . S
C450 C466 1.368 1_565 S
H451 C459 0.950 . S
H452 C457 0.950 . S
H453 C458 0.949 . S
H454 C460 0.950 . S
H455 C461 0.950 . S
H456 C462 0.949 . S
C457 H452 0.950 . S
C457 C459 1.327 . S
C457 C463 1.429 . S
C458 C450 1.574 . S
C458 H453 0.949 . S
C458 C464 1.368 1_565 S
C459 C443 1.349 . S
C459 H451 0.950 . S
C459 C457 1.327 . S
C460 C448 1.349 . S
C460 H454 0.950 . S
C460 C461 1.327 . S
C461 H455 0.950 . S
C461 C460 1.327 . S
C461 C465 1.429 1_565 S
C462 C445 1.574 . S
C462 H456 0.949 . S
C462 C466 1.368 . S
C463 C444 1.429 1_545 S
C463 C457 1.429 . S
C463 C464 1.523 . S
C464 C445 1.368 . S
C464 C458 1.368 1_545 S
C464 C463 1.523 . S
C465 C449 1.429 . S
C465 C461 1.429 1_545 S
C465 C466 1.523 . S
C466 C450 1.368 1_545 S
C466 C462 1.368 . S
C466 C465 1.523 . S
H467 C442 0.950 . S
H468 C444 0.950 . S
H469 C445 0.949 . S
H470 C447 0.950 . S
H471 C449 0.950 . S
C472 C473 1.349 . S
C472 C474 1.327 . S
C472 H497 0.950 . S
C473 C472 1.349 . S
C473 C489 1.349 . S
C474 C472 1.327 . S
C474 C493 1.429 . S
C474 H498 0.950 . S
C475 C492 1.574 . S
C475 C494 1.368 . S
C475 H499 0.949 1_455 S
H476 C480 0.949 . S
C477 C478 1.349 1_655 S
C477 C479 1.327 . S
C477 H500 0.950 . S
C478 C477 1.349 1_455 S
C478 C490 1.349 . S
C479 C477 1.327 . S
C479 C495 1.429 1_655 S
C479 H501 0.950 . S
C480 H476 0.949 . S
C480 C488 1.574 . S
C480 C496 1.368 . S
H481 C489 0.950 1_565 S
H482 C487 0.950 1_565 S
H483 C488 0.949 . S
H484 C490 0.950 . S
H485 C491 0.950 . S
H486 C492 0.949 1_655 S
C487 H482 0.950 1_545 S
C487 C489 1.327 . S
C487 C493 1.429 . S
C488 C480 1.574 . S
C488 H483 0.949 . S
C488 C494 1.368 . S
C489 C473 1.349 . S
C489 H481 0.950 1_545 S
C489 C487 1.327 . S
C490 C478 1.349 . S
C490 H484 0.950 . S
C490 C491 1.327 . S
C491 H485 0.950 . S
C491 C490 1.327 . S
C491 C495 1.429 . S
C492 C475 1.574 . S
C492 H486 0.949 1_455 S
C492 C496 1.368 . S
C493 C474 1.429 . S
C493 C487 1.429 . S
C493 C494 1.523 . S
C494 C475 1.368 . S
C494 C488 1.368 . S
C494 C493 1.523 . S
C495 C479 1.429 1_455 S
C495 C491 1.429 . S
C495 C496 1.523 . S
C496 C480 1.368 . S
C496 C492 1.368 . S
C496 C495 1.523 . S
H497 C472 0.950 . S
H498 C474 0.950 . S
H499 C475 0.949 1_655 S
H500 C477 0.950 . S
H501 C479 0.950 . S
C502 C503 1.349 . S
C502 C504 1.327 . S
C502 H527 0.950 . S
C503 C502 1.349 . S
C503 C519 1.349 . S
C504 C502 1.327 . S
C504 C523 1.429 . S
C504 H528 0.950 . S
C505 C522 1.574 . S
C505 C524 1.368 . S
C505 H529 0.949 . S
H506 C510 0.949 . S
C507 C508 1.349 . S
C507 C509 1.327 . S
C507 H530 0.950 . S
C508 C507 1.349 . S
C508 C520 1.349 . S
C509 C507 1.327 . S
C509 C525 1.429 . S
C509 H531 0.950 . S
C510 H506 0.949 . S
C510 C518 1.574 . S
C510 C526 1.368 . S
H511 C519 0.950 . S
H512 C517 0.950 . S
H513 C518 0.949 . S
H514 C520 0.950 . S
H515 C521 0.950 . S
H516 C522 0.949 . S
C517 H512 0.950 . S
C517 C519 1.327 . S
C517 C523 1.429 . S
C518 C510 1.574 . S
C518 H513 0.949 . S
C518 C524 1.368 . S
C519 C503 1.349 . S
C519 H511 0.950 . S
C519 C517 1.327 . S
C520 C508 1.349 . S
C520 H514 0.950 . S
C520 C521 1.327 . S
C521 H515 0.950 . S
C521 C520 1.327 . S
C521 C525 1.429 . S
C522 C505 1.574 . S
C522 H516 0.949 . S
C522 C526 1.368 . S
C523 C504 1.429 . S
C523 C517 1.429 . S
C523 C524 1.523 . S
C524 C505 1.368 . S
C524 C518 1.368 . S
C524 C523 1.523 . S
C525 C509 1.429 . S
C525 C521 1.429 . S
C525 C526 1.523 . S
C526 C510 1.368 . S
C526 C522 1.368 . S
C526 C525 1.523 . S
H527 C502 0.950 . S
H528 C504 0.950 . S
H529 C505 0.949 . S
H530 C507 0.950 . S
H531 C509 0.950 . S
C532 C533 1.349 . S
C532 C534 1.327 . S
C532 H557 0.950 . S
C533 C532 1.349 . S
C533 C549 1.349 . S
C534 C532 1.327 . S
C534 C553 1.429 . S
C534 H558 0.950 . S
C535 C552 1.574 . S
C535 C554 1.368 . S
C535 H559 0.949 . S
H536 C540 0.949 . S
C537 C538 1.349 . S
C537 C539 1.327 . S
C537 H560 0.950 . S
C538 C537 1.349 . S
C538 C550 1.349 . S
C539 C537 1.327 . S
C539 C555 1.429 . S
C539 H561 0.950 . S
C540 H536 0.949 . S
C540 C548 1.574 . S
C540 C556 1.368 . S
H541 C549 0.950 . S
H542 C547 0.950 . S
H543 C548 0.949 . S
H544 C550 0.950 . S
H545 C551 0.950 . S
H546 C552 0.949 . S
C547 H542 0.950 . S
C547 C549 1.327 . S
C547 C553 1.429 . S
C548 C540 1.574 . S
C548 H543 0.949 . S
C548 C554 1.368 . S
C549 C533 1.349 . S
C549 H541 0.950 . S
C549 C547 1.327 . S
C550 C538 1.349 . S
C550 H544 0.950 . S
C550 C551 1.327 . S
C551 H545 0.950 . S
C551 C550 1.327 . S
C551 C555 1.429 . S
C552 C535 1.574 . S
C552 H546 0.949 . S
C552 C556 1.368 . S
C553 C534 1.429 . S
C553 C547 1.429 . S
C553 C554 1.523 . S
C554 C535 1.368 . S
C554 C548 1.368 . S
C554 C553 1.523 . S
C555 C539 1.429 . S
C555 C551 1.429 . S
C555 C556 1.523 . S
C556 C540 1.368 . S
C556 C552 1.368 . S
C556 C555 1.523 . S
H557 C532 0.950 . S
H558 C534 0.950 . S
H559 C535 0.949 . S
H560 C537 0.950 . S
H561 C539 0.950 . S
C208 C164 1.433 . S
C203 C16 1.299 . S
C233 C15 1.521 . S
C238 C124 1.513 . S
C263 C13 1.288 . S
C268 C177 1.464 . S
C293 C14 1.298 . S
C298 C137 1.334 . S
C323 C37 1.299 . S
C328 C84 1.435 . S
C353 C36 1.521 . S
C358 C44 1.513 . S
C388 C97 1.464 . S
C383 C34 1.286 . S
C418 C57 1.334 . S
C413 C35 1.298 . S
C443 C17 1.524 . S
C448 C63 1.550 1_565 S
C473 C18 1.370 . S
C478 C103 1.393 . S
C508 C143 1.550 . S
C503 C38 1.524 . S
C533 C39 1.370 . S
C538 C183 1.393 . S
