# Generated by pormake.
# Topology gar, (4,6)-cn, num edge types: 1
# Building blocks:
#     Node 0, Type 0, BuildingBlock: QUQFOY_clean_sbu_1, # of connection points: 4
#     Node 1, Type 0, BuildingBlock: QUQFOY_clean_sbu_1, # of connection points: 4
#     Node 2, Type 0, BuildingBlock: QUQFOY_clean_sbu_1, # of connection points: 4
#     Node 3, Type 0, BuildingBlock: QUQFOY_clean_sbu_1, # of connection points: 4
#     Node 4, Type 0, BuildingBlock: QUQFOY_clean_sbu_1, # of connection points: 4
#     Node 5, Type 0, BuildingBlock: QUQFOY_clean_sbu_1, # of connection points: 4
#     Node 6, Type 0, BuildingBlock: QUQFOY_clean_sbu_1, # of connection points: 4
#     Node 7, Type 0, BuildingBlock: QUQFOY_clean_sbu_1, # of connection points: 4
#     Node 8, Type 0, BuildingBlock: QUQFOY_clean_sbu_1, # of connection points: 4
#     Node 9, Type 0, BuildingBlock: QUQFOY_clean_sbu_1, # of connection points: 4
#     Node 10, Type 0, BuildingBlock: QUQFOY_clean_sbu_1, # of connection points: 4
#     Node 11, Type 0, BuildingBlock: QUQFOY_clean_sbu_1, # of connection points: 4
#     Node 12, Type 0, BuildingBlock: QUQFOY_clean_sbu_1, # of connection points: 4
#     Node 13, Type 0, BuildingBlock: QUQFOY_clean_sbu_1, # of connection points: 4
#     Node 14, Type 0, BuildingBlock: QUQFOY_clean_sbu_1, # of connection points: 4
#     Node 15, Type 0, BuildingBlock: QUQFOY_clean_sbu_1, # of connection points: 4
#     Node 16, Type 0, BuildingBlock: QUQFOY_clean_sbu_1, # of connection points: 4
#     Node 17, Type 0, BuildingBlock: QUQFOY_clean_sbu_1, # of connection points: 4
#     Node 18, Type 0, BuildingBlock: QUQFOY_clean_sbu_1, # of connection points: 4
#     Node 19, Type 0, BuildingBlock: QUQFOY_clean_sbu_1, # of connection points: 4
#     Node 20, Type 0, BuildingBlock: QUQFOY_clean_sbu_1, # of connection points: 4
#     Node 21, Type 0, BuildingBlock: QUQFOY_clean_sbu_1, # of connection points: 4
#     Node 22, Type 0, BuildingBlock: QUQFOY_clean_sbu_1, # of connection points: 4
#     Node 23, Type 0, BuildingBlock: QUQFOY_clean_sbu_1, # of connection points: 4
#     Node 24, Type 1, BuildingBlock: BETGAK_clean_sbu_0, # of connection points: 6
#     Node 25, Type 1, BuildingBlock: BETGAK_clean_sbu_0, # of connection points: 6
#     Node 26, Type 1, BuildingBlock: BETGAK_clean_sbu_0, # of connection points: 6
#     Node 27, Type 1, BuildingBlock: BETGAK_clean_sbu_0, # of connection points: 6
#     Node 28, Type 1, BuildingBlock: BETGAK_clean_sbu_0, # of connection points: 6
#     Node 29, Type 1, BuildingBlock: BETGAK_clean_sbu_0, # of connection points: 6
#     Node 30, Type 1, BuildingBlock: BETGAK_clean_sbu_0, # of connection points: 6
#     Node 31, Type 1, BuildingBlock: BETGAK_clean_sbu_0, # of connection points: 6
#     Node 32, Type 1, BuildingBlock: BETGAK_clean_sbu_0, # of connection points: 6
#     Node 33, Type 1, BuildingBlock: BETGAK_clean_sbu_0, # of connection points: 6
#     Node 34, Type 1, BuildingBlock: BETGAK_clean_sbu_0, # of connection points: 6
#     Node 35, Type 1, BuildingBlock: BETGAK_clean_sbu_0, # of connection points: 6
#     Node 36, Type 1, BuildingBlock: BETGAK_clean_sbu_0, # of connection points: 6
#     Node 37, Type 1, BuildingBlock: BETGAK_clean_sbu_0, # of connection points: 6
#     Node 38, Type 1, BuildingBlock: BETGAK_clean_sbu_0, # of connection points: 6
#     Node 39, Type 1, BuildingBlock: BETGAK_clean_sbu_0, # of connection points: 6
#     Edge 40, Type (0, 1), BuildingBlock: MIFKUJ_clean_linker_0, # of connection points: 2
#     Edge 41, Type (0, 1), BuildingBlock: MIFKUJ_clean_linker_0, # of connection points: 2
#     Edge 42, Type (0, 1), BuildingBlock: MIFKUJ_clean_linker_0, # of connection points: 2
#     Edge 43, Type (0, 1), BuildingBlock: MIFKUJ_clean_linker_0, # of connection points: 2
#     Edge 44, Type (0, 1), BuildingBlock: MIFKUJ_clean_linker_0, # of connection points: 2
#     Edge 45, Type (0, 1), BuildingBlock: MIFKUJ_clean_linker_0, # of connection points: 2
#     Edge 46, Type (0, 1), BuildingBlock: MIFKUJ_clean_linker_0, # of connection points: 2
#     Edge 47, Type (0, 1), BuildingBlock: MIFKUJ_clean_linker_0, # of connection points: 2
#     Edge 48, Type (0, 1), BuildingBlock: MIFKUJ_clean_linker_0, # of connection points: 2
#     Edge 49, Type (0, 1), BuildingBlock: MIFKUJ_clean_linker_0, # of connection points: 2
#     Edge 50, Type (0, 1), BuildingBlock: MIFKUJ_clean_linker_0, # of connection points: 2
#     Edge 51, Type (0, 1), BuildingBlock: MIFKUJ_clean_linker_0, # of connection points: 2
#     Edge 52, Type (0, 1), BuildingBlock: MIFKUJ_clean_linker_0, # of connection points: 2
#     Edge 53, Type (0, 1), BuildingBlock: MIFKUJ_clean_linker_0, # of connection points: 2
#     Edge 54, Type (0, 1), BuildingBlock: MIFKUJ_clean_linker_0, # of connection points: 2
#     Edge 55, Type (0, 1), BuildingBlock: MIFKUJ_clean_linker_0, # of connection points: 2
#     Edge 56, Type (0, 1), BuildingBlock: MIFKUJ_clean_linker_0, # of connection points: 2
#     Edge 57, Type (0, 1), BuildingBlock: MIFKUJ_clean_linker_0, # of connection points: 2
#     Edge 58, Type (0, 1), BuildingBlock: MIFKUJ_clean_linker_0, # of connection points: 2
#     Edge 59, Type (0, 1), BuildingBlock: MIFKUJ_clean_linker_0, # of connection points: 2
#     Edge 60, Type (0, 1), BuildingBlock: MIFKUJ_clean_linker_0, # of connection points: 2
#     Edge 61, Type (0, 1), BuildingBlock: MIFKUJ_clean_linker_0, # of connection points: 2
#     Edge 62, Type (0, 1), BuildingBlock: MIFKUJ_clean_linker_0, # of connection points: 2
#     Edge 63, Type (0, 1), BuildingBlock: MIFKUJ_clean_linker_0, # of connection points: 2
#     Edge 64, Type (0, 1), BuildingBlock: MIFKUJ_clean_linker_0, # of connection points: 2
#     Edge 65, Type (0, 1), BuildingBlock: MIFKUJ_clean_linker_0, # of connection points: 2
#     Edge 66, Type (0, 1), BuildingBlock: MIFKUJ_clean_linker_0, # of connection points: 2
#     Edge 67, Type (0, 1), BuildingBlock: MIFKUJ_clean_linker_0, # of connection points: 2
#     Edge 68, Type (0, 1), BuildingBlock: MIFKUJ_clean_linker_0, # of connection points: 2
#     Edge 69, Type (0, 1), BuildingBlock: MIFKUJ_clean_linker_0, # of connection points: 2
#     Edge 70, Type (0, 1), BuildingBlock: MIFKUJ_clean_linker_0, # of connection points: 2
#     Edge 71, Type (0, 1), BuildingBlock: MIFKUJ_clean_linker_0, # of connection points: 2
#     Edge 72, Type (0, 1), BuildingBlock: MIFKUJ_clean_linker_0, # of connection points: 2
#     Edge 73, Type (0, 1), BuildingBlock: MIFKUJ_clean_linker_0, # of connection points: 2
#     Edge 74, Type (0, 1), BuildingBlock: MIFKUJ_clean_linker_0, # of connection points: 2
#     Edge 75, Type (0, 1), BuildingBlock: MIFKUJ_clean_linker_0, # of connection points: 2
#     Edge 76, Type (0, 1), BuildingBlock: MIFKUJ_clean_linker_0, # of connection points: 2
#     Edge 77, Type (0, 1), BuildingBlock: MIFKUJ_clean_linker_0, # of connection points: 2
#     Edge 78, Type (0, 1), BuildingBlock: MIFKUJ_clean_linker_0, # of connection points: 2
#     Edge 79, Type (0, 1), BuildingBlock: MIFKUJ_clean_linker_0, # of connection points: 2
#     Edge 80, Type (0, 1), BuildingBlock: MIFKUJ_clean_linker_0, # of connection points: 2
#     Edge 81, Type (0, 1), BuildingBlock: MIFKUJ_clean_linker_0, # of connection points: 2
#     Edge 82, Type (0, 1), BuildingBlock: MIFKUJ_clean_linker_0, # of connection points: 2
#     Edge 83, Type (0, 1), BuildingBlock: MIFKUJ_clean_linker_0, # of connection points: 2
#     Edge 84, Type (0, 1), BuildingBlock: MIFKUJ_clean_linker_0, # of connection points: 2
#     Edge 85, Type (0, 1), BuildingBlock: MIFKUJ_clean_linker_0, # of connection points: 2
#     Edge 86, Type (0, 1), BuildingBlock: MIFKUJ_clean_linker_0, # of connection points: 2
#     Edge 87, Type (0, 1), BuildingBlock: MIFKUJ_clean_linker_0, # of connection points: 2
#     Edge 88, Type (0, 1), BuildingBlock: MIFKUJ_clean_linker_0, # of connection points: 2
#     Edge 89, Type (0, 1), BuildingBlock: MIFKUJ_clean_linker_0, # of connection points: 2
#     Edge 90, Type (0, 1), BuildingBlock: MIFKUJ_clean_linker_0, # of connection points: 2
#     Edge 91, Type (0, 1), BuildingBlock: MIFKUJ_clean_linker_0, # of connection points: 2
#     Edge 92, Type (0, 1), BuildingBlock: MIFKUJ_clean_linker_0, # of connection points: 2
#     Edge 93, Type (0, 1), BuildingBlock: MIFKUJ_clean_linker_0, # of connection points: 2
#     Edge 94, Type (0, 1), BuildingBlock: MIFKUJ_clean_linker_0, # of connection points: 2
#     Edge 95, Type (0, 1), BuildingBlock: MIFKUJ_clean_linker_0, # of connection points: 2
#     Edge 96, Type (0, 1), BuildingBlock: MIFKUJ_clean_linker_0, # of connection points: 2
#     Edge 97, Type (0, 1), BuildingBlock: MIFKUJ_clean_linker_0, # of connection points: 2
#     Edge 98, Type (0, 1), BuildingBlock: MIFKUJ_clean_linker_0, # of connection points: 2
#     Edge 99, Type (0, 1), BuildingBlock: MIFKUJ_clean_linker_0, # of connection points: 2
#     Edge 100, Type (0, 1), BuildingBlock: MIFKUJ_clean_linker_0, # of connection points: 2
#     Edge 101, Type (0, 1), BuildingBlock: MIFKUJ_clean_linker_0, # of connection points: 2
#     Edge 102, Type (0, 1), BuildingBlock: MIFKUJ_clean_linker_0, # of connection points: 2
#     Edge 103, Type (0, 1), BuildingBlock: MIFKUJ_clean_linker_0, # of connection points: 2
#     Edge 104, Type (0, 1), BuildingBlock: MIFKUJ_clean_linker_0, # of connection points: 2
#     Edge 105, Type (0, 1), BuildingBlock: MIFKUJ_clean_linker_0, # of connection points: 2
#     Edge 106, Type (0, 1), BuildingBlock: MIFKUJ_clean_linker_0, # of connection points: 2
#     Edge 107, Type (0, 1), BuildingBlock: MIFKUJ_clean_linker_0, # of connection points: 2
#     Edge 108, Type (0, 1), BuildingBlock: MIFKUJ_clean_linker_0, # of connection points: 2
#     Edge 109, Type (0, 1), BuildingBlock: MIFKUJ_clean_linker_0, # of connection points: 2
#     Edge 110, Type (0, 1), BuildingBlock: MIFKUJ_clean_linker_0, # of connection points: 2
#     Edge 111, Type (0, 1), BuildingBlock: MIFKUJ_clean_linker_0, # of connection points: 2
#     Edge 112, Type (0, 1), BuildingBlock: MIFKUJ_clean_linker_0, # of connection points: 2
#     Edge 113, Type (0, 1), BuildingBlock: MIFKUJ_clean_linker_0, # of connection points: 2
#     Edge 114, Type (0, 1), BuildingBlock: MIFKUJ_clean_linker_0, # of connection points: 2
#     Edge 115, Type (0, 1), BuildingBlock: MIFKUJ_clean_linker_0, # of connection points: 2
#     Edge 116, Type (0, 1), BuildingBlock: MIFKUJ_clean_linker_0, # of connection points: 2
#     Edge 117, Type (0, 1), BuildingBlock: MIFKUJ_clean_linker_0, # of connection points: 2
#     Edge 118, Type (0, 1), BuildingBlock: MIFKUJ_clean_linker_0, # of connection points: 2
#     Edge 119, Type (0, 1), BuildingBlock: MIFKUJ_clean_linker_0, # of connection points: 2
#     Edge 120, Type (0, 1), BuildingBlock: MIFKUJ_clean_linker_0, # of connection points: 2
#     Edge 121, Type (0, 1), BuildingBlock: MIFKUJ_clean_linker_0, # of connection points: 2
#     Edge 122, Type (0, 1), BuildingBlock: MIFKUJ_clean_linker_0, # of connection points: 2
#     Edge 123, Type (0, 1), BuildingBlock: MIFKUJ_clean_linker_0, # of connection points: 2
#     Edge 124, Type (0, 1), BuildingBlock: MIFKUJ_clean_linker_0, # of connection points: 2
#     Edge 125, Type (0, 1), BuildingBlock: MIFKUJ_clean_linker_0, # of connection points: 2
#     Edge 126, Type (0, 1), BuildingBlock: MIFKUJ_clean_linker_0, # of connection points: 2
#     Edge 127, Type (0, 1), BuildingBlock: MIFKUJ_clean_linker_0, # of connection points: 2
#     Edge 128, Type (0, 1), BuildingBlock: MIFKUJ_clean_linker_0, # of connection points: 2
#     Edge 129, Type (0, 1), BuildingBlock: MIFKUJ_clean_linker_0, # of connection points: 2
#     Edge 130, Type (0, 1), BuildingBlock: MIFKUJ_clean_linker_0, # of connection points: 2
#     Edge 131, Type (0, 1), BuildingBlock: MIFKUJ_clean_linker_0, # of connection points: 2
#     Edge 132, Type (0, 1), BuildingBlock: MIFKUJ_clean_linker_0, # of connection points: 2
#     Edge 133, Type (0, 1), BuildingBlock: MIFKUJ_clean_linker_0, # of connection points: 2
#     Edge 134, Type (0, 1), BuildingBlock: MIFKUJ_clean_linker_0, # of connection points: 2
#     Edge 135, Type (0, 1), BuildingBlock: MIFKUJ_clean_linker_0, # of connection points: 2
# Relax obj value: 0.181
# Max RMSD: 0.298
# Mean RMSD: 0.180
data_MOF--net-gar--node1-QUQFOY_clean_sbu_1--node2-BETGAK_clean_sbu_0--edge1-MIFKUJ_clean_linker_0
_symmetry_space_group_name_H-M    P1
_symmetry_Int_Tables_number       1
_symmetry_cell_setting            triclinic
loop_
_symmetry_equiv_pos_as_xyz
'x, y, z'
_cell_length_a     79.794734
_cell_length_b     73.838806
_cell_length_c     73.83586
_cell_angle_alpha  98.305078
_cell_angle_beta   95.381906
_cell_angle_gamma 104.53875
loop_
_atom_site_label
_atom_site_type_symbol
_atom_site_fract_x
_atom_site_fract_y
_atom_site_fract_z
_atom_type_partial_charge
O0 O 0.10799 0.2857 0.39416 0.0
Cd1 Cd 0.10218 0.30476 0.37843 0.0
Cd2 Cd 0.09344 0.32082 0.40895 0.0
O3 O 0.10345 0.30118 0.42022 0.0
O4 O 0.11475 0.30314 0.35669 0.0
O5 O 0.1203 0.32902 0.37809 0.0
C6 C 0.12366 0.32046 0.36287 0.0
C7 C 0.10136 0.35232 0.42371 0.0
C8 C 0.10798 0.28743 0.41152 0.0
C9 C 0.06479 0.30437 0.37739 0.0
O10 O 0.06864 0.31167 0.39441 0.0
O11 O 0.07657 0.301 0.36806 0.0
O12 O 0.09167 0.33909 0.4307 0.0
O13 O 0.1071 0.34763 0.40843 0.0
O14 O 0.98638 0.70609 0.65404 0.0
Cd15 Cd 0.99137 0.72958 0.67438 0.0
Cd16 Cd 0.99832 0.74968 0.64693 0.0
O17 O 0.99009 0.72265 0.63151 0.0
O18 O 0.97723 0.7234 0.69444 0.0
O19 O 0.97415 0.7448 0.67699 0.0
C20 C 0.96945 0.73594 0.69036 0.0
C21 C 0.99171 0.77379 0.63264 0.0
C22 C 0.98648 0.70675 0.63696 0.0
C23 C 0.02772 0.75315 0.67751 0.0
O24 O 0.02279 0.75758 0.66228 0.0
O25 O 0.01696 0.74207 0.6853 0.0
O26 O 1.00228 0.76451 0.62661 0.0
O27 O 0.98452 0.76934 0.6469 0.0
O28 O 0.63629 0.83762 0.90169 0.0
Cd29 Cd 0.61655 0.83446 0.91817 0.0
Cd30 Cd 0.59822 0.8417 0.88884 0.0
O31 O 0.62029 0.84109 0.87711 0.0
O32 O 0.62321 0.8208 0.93782 0.0
O33 O 0.60009 0.8086 0.91651 0.0
C34 C 0.60983 0.80681 0.93079 0.0
C35 C 0.57142 0.82498 0.87181 0.0
C36 C 0.63471 0.83988 0.88494 0.0
C37 C 0.60376 0.86954 0.92374 0.0
O38 O 0.59849 0.86593 0.90652 0.0
O39 O 0.61069 0.85831 0.93136 0.0
O40 O 0.58073 0.84027 0.86744 0.0
O41 O 0.57743 0.8189 0.88593 0.0
O42 O 0.48707 0.20805 0.1573 0.0
Cd43 Cd 0.49017 0.23034 0.17852 0.0
Cd44 Cd 0.49917 0.25266 0.15193 0.0
O45 O 0.49185 0.2259 0.13579 0.0
O46 O 0.47455 0.22249 0.19702 0.0
O47 O 0.47241 0.24495 0.18057 0.0
C48 C 0.4669 0.23519 0.19309 0.0
C49 C 0.49563 0.27717 0.13616 0.0
C50 C 0.48815 0.20963 0.14052 0.0
C51 C 0.52622 0.25501 0.18511 0.0
O52 O 0.5222 0.26027 0.17001 0.0
O53 O 0.51507 0.24292 0.19147 0.0
O54 O 0.5068 0.26778 0.13255 0.0
O55 O 0.48604 0.27258 0.14879 0.0
O56 O 0.07666 0.78746 0.1333 0.0
Cd57 Cd 0.08122 0.81212 0.15255 0.0
Cd58 Cd 0.09827 0.82682 0.1236 0.0
O59 O 0.088 0.79867 0.10966 0.0
O60 O 0.06629 0.80364 0.17191 0.0
O61 O 0.06167 0.8251 0.15568 0.0
C62 C 0.05694 0.8148 0.168 0.0
C63 C 0.09297 0.85338 0.11118 0.0
C64 C 0.08021 0.78468 0.11684 0.0
C65 C 0.12077 0.82772 0.15977 0.0
O66 O 0.1203 0.83037 0.14303 0.0
O67 O 0.10663 0.82204 0.16654 0.0
O68 O 0.10395 0.84459 0.10504 0.0
O69 O 0.08484 0.84705 0.12429 0.0
O70 O 0.55273 0.77522 0.41097 0.0
Cd71 Cd 0.53655 0.77463 0.43142 0.0
Cd72 Cd 0.51681 0.78833 0.39836 0.0
O73 O 0.53851 0.78265 0.38701 0.0
O74 O 0.54798 0.76279 0.45055 0.0
O75 O 0.52179 0.74885 0.43534 0.0
C76 C 0.53457 0.7482 0.44713 0.0
C77 C 0.49056 0.7864 0.37909 0.0
C78 C 0.55176 0.7783 0.39441 0.0
C79 C 0.5281 0.81313 0.43774 0.0
O80 O 0.52137 0.80994 0.42089 0.0
O81 O 0.53452 0.80104 0.44466 0.0
O82 O 0.5049 0.799 0.37867 0.0
O83 O 0.4912 0.7741 0.38974 0.0
O84 O 0.58213 0.28687 0.63621 0.0
Cd85 Cd 0.58694 0.3114 0.65569 0.0
Cd86 Cd 0.60266 0.32657 0.62654 0.0
O87 O 0.59261 0.29855 0.61241 0.0
O88 O 0.57202 0.30303 0.67509 0.0
O89 O 0.56758 0.32459 0.65888 0.0
C90 C 0.56275 0.31427 0.67115 0.0
C91 C 0.59635 0.35258 0.614 0.0
C92 C 0.58521 0.28438 0.61955 0.0
C93 C 0.62638 0.32763 0.66201 0.0
O94 O 0.62524 0.33057 0.64537 0.0
O95 O 0.61258 0.32143 0.66917 0.0
O96 O 0.60775 0.34436 0.60799 0.0
O97 O 0.58845 0.34607 0.62717 0.0
O98 O 0.02027 0.23811 0.91556 0.0
Cd99 Cd 0.02108 0.2581 0.89817 0.0
Cd100 Cd 0.01116 0.27775 0.93005 0.0
O101 O 0.01511 0.25409 0.94117 0.0
O102 O 0.03432 0.25021 0.87797 0.0
O103 O 0.04434 0.27708 0.89781 0.0
C104 C 0.04667 0.26556 0.88393 0.0
C105 C 0.02208 0.30916 0.94662 0.0
C106 C 0.01824 0.23925 0.93257 0.0
C107 C 0.98661 0.26847 0.8933 0.0
O108 O 0.98942 0.27478 0.91062 0.0
O109 O 0.99772 0.26148 0.88548 0.0
O110 O 1.00868 0.2974 0.95078 0.0
O111 O 0.02999 0.30278 0.93364 0.0
O112 O 0.44409 0.06902 0.28665 0.0
Cd113 Cd 0.42646 0.07254 0.30457 0.0
Cd114 Cd 0.44948 0.06391 0.32708 0.0
O115 O 0.46521 0.06616 0.30653 0.0
O116 O 0.41158 0.08525 0.29098 0.0
O117 O 0.42775 0.09877 0.31783 0.0
C118 C 0.41708 0.09982 0.30399 0.0
C119 C 0.46053 0.07855 0.35726 0.0
C120 C 0.45944 0.06729 0.29023 0.0
C121 C 0.41407 0.03605 0.3173 0.0
O122 O 0.42988 0.03911 0.32431 0.0
O123 O 0.40924 0.04852 0.30959 0.0
O124 O 0.46419 0.06334 0.34988 0.0
O125 O 0.45099 0.0861 0.3472 0.0
O126 O 0.29837 0.19416 0.53949 0.0
Cd127 Cd 0.29414 0.17364 0.51587 0.0
Cd128 Cd 0.27991 0.20207 0.50151 0.0
O129 O 0.28857 0.21659 0.5287 0.0
O130 O 0.30698 0.15517 0.52389 0.0
O131 O 0.31436 0.17098 0.50151 0.0
C132 C 0.3174 0.15915 0.51186 0.0
C133 C 0.28608 0.21626 0.47503 0.0
C134 C 0.29517 0.21033 0.54212 0.0
C135 C 0.25491 0.1635 0.50209 0.0
O136 O 0.257 0.18039 0.49892 0.0
O137 O 0.26804 0.15785 0.50775 0.0
O138 O 0.27535 0.221 0.48563 0.0
O139 O 0.29376 0.20382 0.47967 0.0
O140 O 0.17062 0.01402 0.75154 0.0
Cd141 Cd 0.19331 0.01539 0.77103 0.0
Cd142 Cd 0.16428 0.03715 0.79568 0.0
O143 O 0.15234 0.02779 0.76655 0.0
O144 O 0.21049 1.00029 0.75904 0.0
O145 O 0.19704 0.99072 0.78142 0.0
C146 C 0.20765 0.98781 0.7698 0.0
C147 C 0.14878 0.03709 0.82453 0.0
C148 C 0.15665 0.01996 0.75138 0.0
C149 C 0.20268 0.06046 0.78893 0.0
O150 O 0.18812 0.05863 0.79569 0.0
O151 O 0.20676 0.04576 0.78055 0.0
O152 O 0.14885 0.04931 0.8136 0.0
O153 O 0.15689 0.02457 0.81917 0.0
O154 O 0.30158 0.93164 0.0324 0.0
Cd155 Cd 0.29791 0.95065 0.0158 0.0
Cd156 Cd 0.30935 0.92845 0.99 0.0
O157 O 0.31121 0.91387 0.01145 0.0
O158 O 0.28219 0.96405 0.02766 0.0
O159 O 0.27537 0.94703 0.9994 0.0
C160 C 0.27116 0.95761 0.01279 0.0
C161 C 0.30286 0.90844 0.96123 0.0
C162 C 0.3076 0.91757 0.02771 0.0
C163 C 0.33083 0.96918 1.00288 0.0
O164 O 0.32828 0.95362 0.99176 0.0
O165 O 0.31998 0.97126 0.01398 0.0
O166 O 0.31783 0.91233 0.97113 0.0
O167 O 0.29133 0.9163 0.96745 0.0
O168 O 0.31333 0.40628 0.0774 0.0
Cd169 Cd 0.31539 0.42235 0.05626 0.0
Cd170 Cd 0.32457 0.38982 0.03947 0.0
O171 O 0.31649 0.37916 0.06301 0.0
O172 O 0.30347 0.44279 0.06376 0.0
O173 O 0.29344 0.42079 0.03894 0.0
C174 C 0.29161 0.43539 0.04972 0.0
C175 C 0.31673 0.37287 1.0088 0.0
C176 C 0.31358 0.38908 0.07744 0.0
C177 C 0.3524 0.42777 0.04736 0.0
O178 O 0.34861 0.40974 0.04326 0.0
O179 O 0.34067 0.43596 0.05166 0.0
O180 O 0.32761 0.36875 0.02054 0.0
O181 O 0.30931 0.38582 0.01479 0.0
O182 O 0.79152 0.1518 0.06808 0.0
Cd183 Cd 0.78836 0.12915 0.04711 0.0
Cd184 Cd 0.79024 0.15464 0.02457 0.0
O185 O 0.79585 0.17294 0.04957 0.0
O186 O 0.79938 0.10967 0.05487 0.0
O187 O 0.8088 0.12759 0.03423 0.0
C188 C 0.8104 0.11439 0.04348 0.0
C189 C 0.80493 0.16501 1.00058 0.0
C190 C 0.79497 0.16898 0.06569 0.0
C191 C 0.75657 0.12355 0.02069 0.0
O192 O 0.76481 0.13873 0.01577 0.0
O193 O 0.76377 0.1167 0.03314 0.0
O194 O 0.79354 0.1728 1.00711 0.0
O195 O 0.80845 0.15139 1.008 0.0
O196 O 0.16316 0.52058 0.21938 0.0
Cd197 Cd 0.18594 0.52935 0.23768 0.0
Cd198 Cd 0.16721 0.54759 0.25806 0.0
O199 O 0.14706 0.53339 0.23741 0.0
O200 O 0.20083 0.5115 0.23331 0.0
O201 O 0.18757 0.51485 0.25819 0.0
C202 C 0.19762 0.50691 0.24911 0.0
C203 C 0.16532 0.54639 0.2891 0.0
C204 C 0.14853 0.52355 0.22232 0.0
C205 C 0.19822 0.57189 0.24569 0.0
O206 O 0.18433 0.57136 0.2529 0.0
O207 O 0.20189 0.55659 0.23945 0.0
O208 O 0.1571 0.55619 0.28035 0.0
O209 O 0.17411 0.53669 0.27998 0.0
O210 O 0.81318 0.90589 0.58079 0.0
Cd211 Cd 0.81548 0.92329 0.56089 0.0
Cd212 Cd 0.82282 0.89043 0.54087 0.0
O213 O 0.81599 0.87932 0.5648 0.0
O214 O 0.80377 0.94361 0.56949 0.0
O215 O 0.79387 0.9229 0.5437 0.0
C216 C 0.79206 0.93704 0.55517 0.0
C217 C 0.81363 0.87318 0.51036 0.0
C218 C 0.81339 0.88858 0.57982 0.0
C219 C 0.85152 0.92825 0.54935 0.0
O220 O 0.84675 0.91049 0.54305 0.0
O221 O 0.84089 0.93651 0.5566 0.0
O222 O 0.82502 0.86917 0.52156 0.0
O223 O 0.8065 0.88621 0.51683 0.0
O224 O 0.93637 0.06894 0.23283 0.0
Cd225 Cd 0.91566 0.0704 0.25051 0.0
Cd226 Cd 0.9493 0.05334 0.27447 0.0
O227 O 0.95792 0.05966 0.24777 0.0
O228 O 0.8971 0.0839 0.23944 0.0
O229 O 0.91386 0.09707 0.26514 0.0
C230 C 0.90161 0.09821 0.25291 0.0
C231 C 0.96713 0.05449 0.3048 0.0
C232 C 0.95121 0.06462 0.23311 0.0
C233 C 0.90858 0.02961 0.26458 0.0
O234 O 0.92479 0.03297 0.27092 0.0
O235 O 0.90284 0.04219 0.25714 0.0
O236 O 0.96589 0.04167 0.29047 0.0
O237 O 0.95945 0.06748 0.30188 0.0
O238 O 0.29254 0.65273 0.56058 0.0
Cd239 Cd 0.28935 0.63042 0.53916 0.0
Cd240 Cd 0.2925 0.65697 0.51791 0.0
O241 O 0.2988 0.67478 0.54322 0.0
O242 O 0.29977 0.61048 0.54695 0.0
O243 O 0.31019 0.62874 0.52696 0.0
C244 C 0.31133 0.61537 0.53615 0.0
C245 C 0.30712 0.66665 0.49358 0.0
C246 C 0.29705 0.67015 0.55899 0.0
C247 C 0.25797 0.6269 0.51303 0.0
O248 O 0.26668 0.64247 0.50925 0.0
O249 O 0.26482 0.61872 0.52454 0.0
O250 O 0.29633 0.67514 0.50048 0.0
O251 O 0.31027 0.65287 0.50102 0.0
O252 O 0.43575 0.56473 0.73287 0.0
Cd253 Cd 0.41497 0.56587 0.75045 0.0
Cd254 Cd 0.44837 0.54988 0.77465 0.0
O255 O 0.45754 0.55638 0.74838 0.0
O256 O 0.39625 0.57908 0.73935 0.0
O257 O 0.41335 0.5927 0.76476 0.0
C258 C 0.40096 0.59362 0.75258 0.0
C259 C 0.46582 0.55193 0.80528 0.0
C260 C 0.45083 0.56097 0.73354 0.0
C261 C 0.40814 0.52505 0.76436 0.0
O262 O 0.42436 0.52868 0.77072 0.0
O263 O 0.4022 0.53762 0.75713 0.0
O264 O 0.46513 0.53903 0.79119 0.0
O265 O 0.45777 0.56452 0.80194 0.0
O266 O 0.66581 0.01428 0.71256 0.0
Cd267 Cd 0.68443 0.02635 0.73501 0.0
Cd268 Cd 0.65841 0.03784 0.75029 0.0
O269 O 0.64435 0.02269 0.72536 0.0
O270 O 0.70381 0.01381 0.73539 0.0
O271 O 0.68526 0.01254 0.75606 0.0
C272 C 0.69873 1.00822 0.75025 0.0
C273 C 0.6492 0.03088 0.77815 0.0
C274 C 0.64987 0.01447 0.7117 0.0
C275 C 0.68953 0.06831 0.74528 0.0
O276 O 0.67456 0.06458 0.75065 0.0
O277 O 0.69583 0.055 0.73871 0.0
O278 O 0.6415 0.0403 0.76831 0.0
O279 O 0.66191 0.02519 0.77198 0.0
O280 O 0.79948 0.695 0.04247 0.0
Cd281 Cd 0.79582 0.67357 0.01978 0.0
Cd282 Cd 0.77996 0.69991 1.00353 0.0
O283 O 0.78743 0.71538 0.03059 0.0
O284 O 0.80956 0.65633 0.02875 0.0
O285 O 0.81601 0.67102 1.00541 0.0
C286 C 0.81962 0.65994 0.01633 0.0
C287 C 0.78549 0.71386 0.97675 0.0
C288 C 0.79494 0.71045 0.04439 0.0
C289 C 0.75673 0.66066 1.00534 0.0
O290 O 0.75807 0.67687 1.00066 0.0
O291 O 0.77018 0.6565 0.01245 0.0
O292 O 0.77371 0.71718 0.98659 0.0
O293 O 0.79461 0.70304 0.98238 0.0
O294 O 0.93728 0.57084 0.77644 0.0
Cd295 Cd 0.92847 0.5668 0.80123 0.0
Cd296 Cd 0.95957 0.56328 0.81025 0.0
O297 O 0.96479 0.57336 0.78631 0.0
O298 O 0.9054 0.57192 0.79824 0.0
O299 O 0.92723 0.58959 0.81919 0.0
C300 C 0.91131 0.58622 0.81145 0.0
C301 C 0.97495 0.5796 0.83835 0.0
C302 C 0.95316 0.57428 0.77378 0.0
C303 C 0.93112 0.52861 0.80818 0.0
O304 O 0.94756 0.53468 0.80874 0.0
O305 O 0.92153 0.53977 0.80658 0.0
O306 O 0.98191 0.56981 0.82683 0.0
O307 O 0.95921 0.58051 0.83367 0.0
O308 O 0.78901 0.44376 0.53583 0.0
Cd309 Cd 0.79676 0.45859 0.51514 0.0
Cd310 Cd 0.79936 0.42399 0.49815 0.0
O311 O 0.78745 0.41542 0.5202 0.0
O312 O 0.78913 0.48218 0.51957 0.0
O313 O 0.77863 0.45983 0.49481 0.0
C314 C 0.7787 0.47602 0.50426 0.0
C315 C 0.79318 0.40212 0.47059 0.0
C316 C 0.78532 0.42582 0.53462 0.0
C317 C 0.83243 0.45659 0.50952 0.0
O318 O 0.82532 0.43914 0.50316 0.0
O319 O 0.82317 0.46759 0.51453 0.0
O320 O 0.80224 0.3998 0.48497 0.0
O321 O 0.78684 0.41664 0.47193 0.0
O322 O 0.67166 0.51787 0.25358 0.0
Cd323 Cd 0.69391 0.51964 0.2736 0.0
Cd324 Cd 0.66437 0.53944 0.29739 0.0
O325 O 0.65211 0.52935 0.26848 0.0
O326 O 0.7112 0.50447 0.26211 0.0
O327 O 0.69751 0.49529 0.2845 0.0
C328 C 0.70819 0.49215 0.27303 0.0
C329 C 0.64968 0.53869 0.32664 0.0
C330 C 0.65711 0.52262 0.25328 0.0
C331 C 0.70186 0.56458 0.29063 0.0
O332 O 0.68704 0.5622 0.29688 0.0
O333 O 0.70681 0.55014 0.28301 0.0
O334 O 0.64711 0.54909 0.31454 0.0
O335 O 0.66004 0.5283 0.32226 0.0
La336 La 0.03385 0.0363 0.0186 0.0
La337 La 0.06829 0.06163 0.04005 0.0
C338 C 1.00188 0.01906 0.0112 0.0
C339 C 0.98606 0.02442 0.01553 0.0
C340 C 0.96961 1.01143 1.01008 0.0
C341 C 0.95448 0.01701 0.01319 0.0
C342 C 0.95567 0.0357 0.02167 0.0
C343 C 0.97223 0.04849 0.02751 0.0
C344 C 0.98731 0.04288 0.02449 0.0
C345 C 0.05879 0.03832 0.99532 0.0
C346 C 0.04298 0.08119 0.01959 0.0
C347 C 0.10035 0.07798 0.04677 0.0
C348 C 0.11534 0.07174 0.04054 0.0
C349 C 0.12702 0.06738 0.05352 0.0
C350 C 0.13915 0.05788 0.04772 0.0
C351 C 0.14004 0.0528 0.02878 0.0
C352 C 0.12907 0.05829 0.01584 0.0
C353 C 0.11676 0.06757 0.02164 0.0
C354 C 0.04371 0.05963 0.06372 0.0
C355 C 0.05964 0.01659 0.03806 0.0
O356 O 0.01067 0.02892 1.00013 0.0
O357 O 0.01206 0.01709 0.02533 0.0
O358 O 0.04277 0.02795 0.99169 0.0
O359 O 0.06023 0.04609 0.0123 0.0
O360 O 0.03079 0.06474 0.01646 0.0
O361 O 0.05884 0.08305 0.028 0.0
O362 O 0.09184 0.06771 0.05774 0.0
O363 O 0.08977 0.08191 0.03415 0.0
O364 O 0.05996 0.06927 0.06725 0.0
O365 O 0.04182 0.05193 0.0466 0.0
O366 O 0.07168 0.03314 0.04121 0.0
O367 O 0.04359 0.01469 0.03012 0.0
H368 H 0.96848 0.99713 1.00312 0.0
H369 H 0.94186 1.00692 1.00846 0.0
H370 H 0.97352 0.06289 0.0343 0.0
H371 H 0.99993 0.05304 0.02889 0.0
H372 H 0.12611 0.07036 0.06815 0.0
H373 H 0.14718 0.05369 0.05812 0.0
H374 H 0.12964 0.05497 1.00117 0.0
H375 H 0.10793 0.07076 0.01126 0.0
La376 La 0.30448 0.80329 0.25422 0.0
La377 La 0.29747 0.80376 0.29529 0.0
C378 C 0.30061 0.80432 0.22036 0.0
C379 C 0.31034 0.81412 0.20697 0.0
C380 C 0.32364 0.8076 0.19919 0.0
C381 C 0.33175 0.81615 0.18543 0.0
C382 C 0.32669 0.83135 0.17925 0.0
C383 C 0.31368 0.8381 0.18735 0.0
C384 C 0.30555 0.82954 0.201 0.0
C385 C 0.33332 0.80414 0.27645 0.0
C386 C 0.31359 0.8423 0.28257 0.0
C387 C 0.29807 0.79752 0.32768 0.0
C388 C 0.30452 0.78326 0.33635 0.0
C389 C 0.29401 0.76455 0.33463 0.0
C390 C 0.30062 0.75082 0.34171 0.0
C391 C 0.31787 0.7555 0.35065 0.0
C392 C 0.32838 0.77419 0.35234 0.0
C393 C 0.32173 0.78796 0.34544 0.0
C394 C 0.27258 0.80961 0.27228 0.0
C395 C 0.29295 0.76476 0.26832 0.0
O396 O 0.30695 0.79167 0.22736 0.0
O397 O 0.29467 0.81492 0.2327 0.0
O398 O 0.33281 0.80459 0.25889 0.0
O399 O 0.31818 0.80363 0.27998 0.0
O400 O 0.31009 0.8336 0.26508 0.0
O401 O 0.31136 0.83325 0.29676 0.0
O402 O 0.2841 0.79097 0.31525 0.0
O403 O 0.31007 0.81076 0.32252 0.0
O404 O 0.27579 0.81638 0.28985 0.0
O405 O 0.2821 0.79861 0.26864 0.0
O406 O 0.29669 0.77417 0.28549 0.0
O407 O 0.29271 0.7734 0.25386 0.0
H408 H 0.32755 0.79565 0.20341 0.0
H409 H 0.34175 0.81068 0.17942 0.0
H410 H 0.30921 0.84951 0.18258 0.0
H411 H 0.29518 0.83469 0.20655 0.0
H412 H 0.28068 0.76044 0.32777 0.0
H413 H 0.29206 0.73664 0.34054 0.0
H414 H 0.34178 0.7782 0.35903 0.0
H415 H 0.33018 0.80224 0.34698 0.0
La416 La 0.57546 0.05214 0.52742 0.0
La417 La 0.53534 0.0454 0.52684 0.0
C418 C 0.60703 0.05104 0.5314 0.0
C419 C 0.61848 0.03796 0.53252 0.0
C420 C 0.62724 0.03355 0.51751 0.0
C421 C 0.63982 0.02337 0.51907 0.0
C422 C 0.64412 0.01741 0.53576 0.0
C423 C 0.635 0.02138 0.55063 0.0
C424 C 0.62239 0.03156 0.54905 0.0
C425 C 0.55908 0.06465 0.5013 0.0
C426 C 0.54894 1.01095 0.51103 0.0
C427 C 0.50395 0.04703 0.52203 0.0
C428 C 0.49275 0.06027 0.52027 0.0
C429 C 0.48931 0.07132 0.53596 0.0
C430 C 0.47659 0.08136 0.53448 0.0
C431 C 0.46691 0.08058 0.51729 0.0
C432 C 0.47081 0.07007 0.50155 0.0
C433 C 0.48352 0.06005 0.503 0.0
C434 C 0.55126 0.03276 0.55303 0.0
C435 C 0.56188 0.08646 0.54348 0.0
O436 O 0.59789 0.04999 0.51538 0.0
O437 O 0.59832 0.05418 0.54523 0.0
O438 O 0.57507 0.07269 0.5088 0.0
O439 O 0.55349 0.04965 0.50757 0.0
O440 O 0.56496 0.02126 0.51831 0.0
O441 O 0.53529 0.01818 0.51075 0.0
O442 O 0.51274 0.04805 0.53823 0.0
O443 O 0.51287 0.04362 0.5085 0.0
O444 O 0.53491 0.02569 0.54643 0.0
O445 O 0.55735 0.04762 0.54668 0.0
O446 O 0.5459 0.0763 0.5359 0.0
O447 O 0.57544 0.07908 0.54395 0.0
H448 H 0.62479 0.03852 0.50467 0.0
H449 H 0.64666 0.02081 0.50738 0.0
H450 H 0.63775 0.0168 0.56361 0.0
H451 H 0.61605 0.03484 0.56093 0.0
H452 H 0.49603 0.07177 0.54953 0.0
H453 H 0.47412 0.08948 0.54689 0.0
H454 H 0.46343 0.06886 0.48819 0.0
H455 H 0.48563 0.05148 0.49066 0.0
La456 La 0.28305 0.2933 0.77221 0.0
La457 La 0.32344 0.29284 0.77681 0.0
C458 C 0.25034 0.28201 0.77198 0.0
C459 C 0.23597 0.28371 0.78299 0.0
C460 C 0.23077 0.30058 0.7866 0.0
C461 C 0.2161 0.30098 0.79568 0.0
C462 C 0.20625 0.28449 0.80119 0.0
C463 C 0.2118 0.26781 0.79791 0.0
C464 C 0.2264 0.26743 0.78891 0.0
C465 C 0.30505 0.3281 0.7721 0.0
C466 C 0.30562 0.30482 0.81232 0.0
C467 C 0.35601 0.30547 0.77712 0.0
C468 C 0.37105 0.30407 0.76711 0.0
C469 C 0.37582 0.28703 0.76273 0.0
C470 C 0.39073 0.2868 0.75401 0.0
C471 C 0.40115 0.30358 0.74949 0.0
C472 C 0.39622 0.32052 0.7539 0.0
C473 C 0.3814 0.32074 0.76256 0.0
C474 C 0.30165 0.25782 0.77648 0.0
C475 C 0.30079 0.28132 0.73672 0.0
O476 O 0.25791 0.29634 0.7643 0.0
O477 O 0.26155 0.27357 0.77858 0.0
O478 O 0.28804 0.32391 0.76972 0.0
O479 O 0.30829 0.31253 0.77452 0.0
O480 O 0.29005 0.30081 0.80216 0.0
O481 O 0.32016 0.30352 0.80529 0.0
O482 O 0.34903 0.29182 0.78596 0.0
O483 O 0.34425 0.31222 0.76888 0.0
O484 O 0.31864 0.26185 0.77757 0.0
O485 O 0.29821 0.27359 0.77525 0.0
O486 O 0.31636 0.28548 0.74686 0.0
O487 O 0.28621 0.28241 0.74375 0.0
H488 H 0.2378 0.31336 0.78213 0.0
H489 H 0.21217 0.31405 0.79787 0.0
H490 H 0.20479 0.25494 0.80223 0.0
H491 H 0.23004 0.2542 0.78627 0.0
H492 H 0.36812 0.27395 0.7661 0.0
H493 H 0.39405 0.27347 0.75071 0.0
H494 H 0.40408 0.33379 0.75106 0.0
H495 H 0.37815 0.33412 0.76596 0.0
La496 La 0.05794 0.05558 0.5371 0.0
La497 La 0.05781 0.01424 0.52149 0.0
C498 C 0.06457 0.09111 0.54267 0.0
C499 C 0.07002 0.10584 0.53121 0.0
C500 C 0.05763 0.11062 0.51933 0.0
C501 C 0.06297 0.12407 0.5081 0.0
C502 C 0.08081 0.13303 0.5085 0.0
C503 C 0.09317 0.12838 0.52053 0.0
C504 C 0.08782 0.11504 0.53185 0.0
C505 C 0.03146 0.02885 0.54408 0.0
C506 C 0.0454 0.03866 0.49276 0.0
C507 C 0.0481 0.97856 0.51333 0.0
C508 C 0.04019 0.96311 0.52286 0.0
C509 C 0.04298 0.9452 0.51787 0.0
C510 C 0.03624 0.9305 0.52729 0.0
C511 C 0.02645 0.9334 0.54183 0.0
C512 C 0.02361 0.95143 0.54672 0.0
C513 C 0.03053 0.9662 0.53739 0.0
C514 C 0.08737 0.03894 0.51713 0.0
C515 C 0.07241 0.03183 0.56488 0.0
O516 O 0.04865 0.07983 0.53826 0.0
O517 O 0.07609 0.08187 0.54675 0.0
O518 O 0.03814 0.0453 0.55459 0.0
O519 O 0.03882 0.02869 0.52968 0.0
O520 O 0.04921 0.05342 0.50679 0.0
O521 O 0.04765 0.02185 0.49539 0.0
O522 O 0.06409 0.98819 0.52026 0.0
O523 O 0.03834 0.98959 0.5091 0.0
O524 O 0.08377 0.02077 0.51148 0.0
O525 O 0.07444 0.04166 0.52435 0.0
O526 O 0.06532 0.01636 0.55197 0.0
O527 O 0.0725 0.04905 0.5613 0.0
H528 H 0.04379 0.10394 0.51863 0.0
H529 H 0.05309 0.12761 0.49925 0.0
H530 H 0.10702 0.13486 0.52104 0.0
H531 H 0.09769 0.11174 0.54094 0.0
H532 H 0.0506 0.94267 0.50684 0.0
H533 H 0.03905 0.91697 0.5234 0.0
H534 H 0.01601 0.95413 0.55771 0.0
H535 H 0.02847 0.98005 0.54162 0.0
La536 La 0.32165 0.80446 0.7654 0.0
La537 La 0.28658 0.77627 0.75463 0.0
C538 C 0.35075 0.82194 0.7838 0.0
C539 C 0.36699 0.81663 0.78867 0.0
C540 C 0.38304 0.82863 0.7865 0.0
C541 C 0.39855 0.8237 0.79076 0.0
C542 C 0.39827 0.80666 0.79729 0.0
C543 C 0.38217 0.79465 0.79948 0.0
C544 C 0.36666 0.79958 0.79519 0.0
C545 C 0.31246 0.79247 0.72987 0.0
C546 C 0.31899 0.75838 0.76105 0.0
C547 C 0.25759 0.75838 0.73622 0.0
C548 C 0.24032 0.76194 0.73329 0.0
C549 C 0.22535 0.74726 0.73347 0.0
C550 C 0.20882 0.75042 0.73104 0.0
C551 C 0.20702 0.76834 0.72833 0.0
C552 C 0.22207 0.78304 0.72814 0.0
C553 C 0.23859 0.77989 0.73064 0.0
C554 C 0.29538 0.78837 0.79029 0.0
C555 C 0.2893 0.82254 0.75917 0.0
O556 O 0.3468 0.82256 0.7663 0.0
O557 O 0.33714 0.81375 0.79117 0.0
O558 O 0.32213 0.80949 0.73679 0.0
O559 O 0.30973 0.78298 0.74258 0.0
O560 O 0.32837 0.77647 0.76714 0.0
O561 O 0.30219 0.75497 0.75415 0.0
O562 O 0.26256 0.75588 0.7529 0.0
O563 O 0.2702 0.76927 0.72938 0.0
O564 O 0.28564 0.77144 0.78318 0.0
O565 O 0.2984 0.79773 0.77751 0.0
O566 O 0.27964 0.80438 0.75411 0.0
O567 O 0.30638 0.82605 0.76496 0.0
H568 H 0.38358 0.84185 0.78153 0.0
H569 H 0.4108 0.8334 0.78923 0.0
H570 H 0.38155 0.78139 0.80437 0.0
H571 H 0.35443 0.79001 0.79697 0.0
H572 H 0.22644 0.73333 0.7355 0.0
H573 H 0.19743 0.73876 0.731 0.0
H574 H 0.22107 0.79702 0.72623 0.0
H575 H 0.24995 0.79149 0.73048 0.0
La576 La 0.55189 0.05469 0.04377 0.0
La577 La 0.53744 0.03389 1.00456 0.0
C578 C 0.558 0.0742 0.07582 0.0
C579 C 0.55265 0.07071 0.09368 0.0
C580 C 0.56018 0.08409 0.10966 0.0
C581 C 0.55493 0.08095 0.12673 0.0
C582 C 0.54198 0.06447 0.12791 0.0
C583 C 0.53473 0.05092 0.11193 0.0
C584 C 0.54011 0.05397 0.09491 0.0
C585 C 0.5589 0.0218 0.03447 0.0
C586 C 0.51211 0.02878 0.03371 0.0
C587 C 0.53328 0.0135 0.97325 0.0
C588 C 0.54544 1.00798 0.96121 0.0
C589 C 0.54034 1.00331 0.94211 0.0
C590 C 0.5523 0.99985 0.93032 0.0
C591 C 0.56961 1.001 0.93746 0.0
C592 C 0.57447 1.00495 0.95672 0.0
C593 C 0.56249 1.00847 0.96848 0.0
C594 C 0.52956 0.0662 0.01452 0.0
C595 C 0.57613 0.06051 0.01403 0.0
O596 O 0.56803 0.06406 0.06924 0.0
O597 O 0.54555 0.07472 0.06322 0.0
O598 O 0.56924 0.03605 0.04578 0.0
O599 O 0.54501 0.02597 0.02993 0.0
O600 O 0.52402 0.04223 0.0455 0.0
O601 O 0.51534 0.02138 0.01746 0.0
O602 O 0.53368 0.03154 0.9757 0.0
O603 O 0.53279 1.00677 0.98871 0.0
O604 O 0.51926 0.05172 1.00322 0.0
O605 O 0.54388 0.06259 0.01859 0.0
O606 O 0.56559 0.04465 1.00423 0.0
O607 O 0.57152 0.06949 0.02877 0.0
H608 H 0.56997 0.09701 0.1089 0.0
H609 H 0.5606 0.09163 0.1389 0.0
H610 H 0.52477 0.03809 0.11258 0.0
H611 H 0.5343 0.04342 0.08269 0.0
H612 H 0.52726 1.00295 0.93627 0.0
H613 H 0.54818 0.99718 0.91557 0.0
H614 H 0.58763 1.00576 0.96267 0.0
H615 H 0.56667 1.01208 0.98321 0.0
La616 La 0.31343 0.32558 0.28609 0.0
La617 La 0.28954 0.2885 0.27124 0.0
C618 C 0.32836 0.36057 0.29382 0.0
C619 C 0.32274 0.37653 0.30319 0.0
C620 C 0.31334 0.37452 0.31829 0.0
C621 C 0.30517 0.38834 0.32481 0.0
C622 C 0.30602 0.40424 0.31615 0.0
C623 C 0.31628 0.40665 0.3017 0.0
C624 C 0.3246 0.39294 0.29534 0.0
C625 C 0.30921 0.30212 0.31042 0.0
C626 C 0.27218 0.31974 0.28527 0.0
C627 C 0.27664 0.25324 0.26453 0.0
C628 C 0.28589 0.23882 0.26796 0.0
C629 C 0.29226 0.22943 0.25329 0.0
C630 C 0.30506 0.22005 0.25682 0.0
C631 C 0.31161 0.2198 0.27509 0.0
C632 C 0.30418 0.22777 0.28968 0.0
C633 C 0.29142 0.23715 0.28616 0.0
C634 C 0.29348 0.31179 0.24693 0.0
C635 C 0.33024 0.29457 0.27233 0.0
O636 O 0.33145 0.3483 0.3039 0.0
O637 O 0.31909 0.35225 0.27787 0.0
O638 O 0.32373 0.31432 0.30934 0.0
O639 O 0.29746 0.30402 0.2987 0.0
O640 O 0.28798 0.33163 0.28767 0.0
O641 O 0.26956 0.30128 0.28009 0.0
O642 O 0.28227 0.26313 0.25192 0.0
O643 O 0.2743 0.26412 0.2792 0.0
O644 O 0.27899 0.29961 0.24822 0.0
O645 O 0.30542 0.30999 0.25853 0.0
O646 O 0.31539 0.28306 0.27482 0.0
O647 O 0.33171 0.31281 0.27298 0.0
H648 H 0.31156 0.36183 0.32446 0.0
H649 H 0.29749 0.38612 0.33603 0.0
H650 H 0.31693 0.41844 0.29436 0.0
H651 H 0.3316 0.39461 0.28354 0.0
H652 H 0.28823 0.23046 0.23913 0.0
H653 H 0.31053 0.21397 0.24531 0.0
H654 H 0.30866 0.22733 0.30387 0.0
H655 H 0.2867 0.24405 0.29782 0.0
La656 La 0.56009 0.55924 0.03685 0.0
La657 La 0.55637 0.51849 0.02534 0.0
C658 C 0.57216 0.59463 0.04689 0.0
C659 C 0.57464 0.61087 0.03714 0.0
C660 C 0.57579 0.62898 0.04685 0.0
C661 C 0.57785 0.64448 0.03762 0.0
C662 C 0.57885 0.64207 0.01853 0.0
C663 C 0.57763 0.62384 1.00886 0.0
C664 C 0.5755 0.60835 0.01808 0.0
C665 C 0.52909 0.53739 0.03952 0.0
C666 C 0.54406 0.54236 0.99484 0.0
C667 C 0.5442 0.48314 0.01492 0.0
C668 C 0.53796 0.46727 0.02464 0.0
C669 C 0.5312 0.44881 0.01465 0.0
C670 C 0.52523 0.43364 0.02385 0.0
C671 C 0.5259 0.43675 0.0432 0.0
C672 C 0.53253 0.45537 0.05312 0.0
C673 C 0.53855 0.47048 0.04391 0.0
C674 C 0.58698 0.54096 0.02187 0.0
C675 C 0.57218 0.5353 0.06721 0.0
O676 O 0.55593 0.58552 0.04737 0.0
O677 O 0.58183 0.58304 0.04295 0.0
O678 O 0.53186 0.55426 0.03541 0.0
O679 O 0.54356 0.53384 0.04344 0.0
O680 O 0.55121 0.55814 1.00717 0.0
O681 O 0.54421 0.52552 0.99941 0.0
O682 O 0.56092 0.49168 0.01857 0.0
O683 O 0.53472 0.49525 0.01498 0.0
O684 O 0.58489 0.5243 0.02638 0.0
O685 O 0.57223 0.54375 0.01829 0.0
O686 O 0.56373 0.51964 0.05532 0.0
O687 O 0.57333 0.5522 0.06221 0.0
H688 H 0.57504 0.63112 0.06155 0.0
H689 H 0.57858 0.65833 0.04539 0.0
H690 H 0.57854 0.62158 0.9942 0.0
H691 H 0.57453 0.59443 1.01033 0.0
H692 H 0.53056 0.44612 0.99975 0.0
H693 H 0.52002 0.41949 0.01581 0.0
H694 H 0.53342 0.45821 0.06804 0.0
H695 H 0.54373 0.48465 0.05186 0.0
La696 La 0.82114 0.3085 0.26816 0.0
La697 La 0.78613 0.28034 0.25908 0.0
C698 C 0.85067 0.32754 0.28469 0.0
C699 C 0.8676 0.32369 0.28874 0.0
C700 C 0.87999 0.33591 0.30278 0.0
C701 C 0.89561 0.33161 0.30793 0.0
C702 C 0.89902 0.31493 0.29916 0.0
C703 C 0.88669 0.30293 0.28476 0.0
C704 C 0.87108 0.30729 0.27959 0.0
C705 C 0.81054 0.29589 0.23283 0.0
C706 C 0.81891 0.26266 0.26416 0.0
C707 C 0.75655 0.26181 0.24229 0.0
C708 C 0.73896 0.26472 0.24057 0.0
C709 C 0.72437 0.24905 0.23868 0.0
C710 C 0.70755 0.25155 0.23715 0.0
C711 C 0.70507 0.2698 0.23754 0.0
C712 C 0.71976 0.28548 0.23953 0.0
C713 C 0.73655 0.28296 0.241 0.0
C714 C 0.79622 0.29272 0.29458 0.0
C715 C 0.78861 0.3264 0.26312 0.0
O716 O 0.84544 0.32736 0.26729 0.0
O717 O 0.83821 0.31835 0.29293 0.0
O718 O 0.8203 0.31295 0.23928 0.0
O719 O 0.80852 0.28668 0.2458 0.0
O720 O 0.82824 0.28076 0.27028 0.0
O721 O 0.80204 0.25924 0.25751 0.0
O722 O 0.76265 0.25948 0.25864 0.0
O723 O 0.7683 0.27315 0.23482 0.0
O724 O 0.78651 0.27573 0.28768 0.0
O725 O 0.79864 0.30213 0.28171 0.0
O726 O 0.77895 0.30825 0.2585 0.0
O727 O 0.80576 0.32996 0.26838 0.0
H728 H 0.87745 0.34861 0.30997 0.0
H729 H 0.90499 0.34128 0.31886 0.0
H730 H 0.88889 0.28991 0.27787 0.0
H731 H 0.86161 0.29769 0.2687 0.0
H732 H 0.72599 0.23487 0.23829 0.0
H733 H 0.69648 0.23914 0.23534 0.0
H734 H 0.7183 0.29973 0.24005 0.0
H735 H 0.7476 0.29527 0.24239 0.0
La736 La 0.05651 0.5444 0.53498 0.0
La737 La 0.03995 0.53561 0.49515 0.0
C738 C 0.06366 0.55252 0.56957 0.0
C739 C 0.05311 0.55418 0.58451 0.0
C740 C 0.06036 0.55537 0.60279 0.0
C741 C 0.05017 0.55673 0.61704 0.0
C742 C 0.03258 0.55679 0.6131 0.0
C743 C 0.02541 0.55528 0.59467 0.0
C744 C 0.03561 0.55415 0.5805 0.0
C745 C 0.06673 0.51871 0.51366 0.0
C746 C 0.01743 0.51816 0.52272 0.0
C747 C 0.03616 0.52711 0.46072 0.0
C748 C 0.05018 0.52869 0.4488 0.0
C749 C 0.05732 0.54605 0.44315 0.0
C750 C 0.07282 0.549 0.43537 0.0
C751 C 0.08145 0.53459 0.43282 0.0
C752 C 0.07381 0.51686 0.43752 0.0
C753 C 0.05832 0.51393 0.4454 0.0
C754 C 0.02966 0.56151 0.51617 0.0
C755 C 0.0787 0.56264 0.50719 0.0
O756 O 0.06085 0.53534 0.56021 0.0
O757 O 0.06437 0.56523 0.55882 0.0
O758 O 0.07664 0.53044 0.5275 0.0
O759 O 0.05151 0.52069 0.51304 0.0
O760 O 0.02873 0.53076 0.53573 0.0
O761 O 0.02048 0.51526 0.50543 0.0
O762 O 0.0345 0.54322 0.4694 0.0
O763 O 0.03542 0.51449 0.47161 0.0
O764 O 0.01989 0.54993 0.50204 0.0
O765 O 0.04489 0.55935 0.5171 0.0
O766 O 0.06722 0.55038 0.49421 0.0
O767 O 0.07606 0.56486 0.52466 0.0
H768 H 0.07386 0.55526 0.60602 0.0
H769 H 0.056 0.55759 0.63109 0.0
H770 H 0.01198 0.55529 0.59121 0.0
H771 H 0.02984 0.55335 0.56645 0.0
H772 H 0.05141 0.55773 0.44556 0.0
H773 H 0.07838 0.56289 0.43205 0.0
H774 H 0.07986 0.50529 0.43528 0.0
H775 H 0.05309 0.50032 0.44945 0.0
La776 La 0.78289 0.80012 0.27247 0.0
La777 La 0.82037 0.79728 0.27831 0.0
C778 C 0.7507 0.79769 0.27287 0.0
C779 C 0.73672 0.79601 0.28497 0.0
C780 C 0.72728 0.80973 0.2862 0.0
C781 C 0.71279 0.8077 0.29578 0.0
C782 C 0.70724 0.79181 0.30436 0.0
C783 C 0.71705 0.77833 0.30364 0.0
C784 C 0.73161 0.78038 0.294 0.0
C785 C 0.80726 0.83106 0.2677 0.0
C786 C 0.80297 0.80735 0.31367 0.0
C787 C 0.85312 0.80827 0.27861 0.0
C788 C 0.86759 0.80619 0.26787 0.0
C789 C 0.8732 0.7895 0.26532 0.0
C790 C 0.88772 0.78877 0.25606 0.0
C791 C 0.89692 0.8047 0.24916 0.0
C792 C 0.89115 0.82127 0.25169 0.0
C793 C 0.87675 0.822 0.26092 0.0
C794 C 0.79861 0.76239 0.27783 0.0
C795 C 0.79885 0.78566 0.23764 0.0
O796 O 0.76291 0.81377 0.27578 0.0
O797 O 0.75695 0.78306 0.26857 0.0
O798 O 0.79196 0.82407 0.25799 0.0
O799 O 0.80832 0.8206 0.27987 0.0
O800 O 0.78805 0.80432 0.30269 0.0
O801 O 0.8177 0.8063 0.30717 0.0
O802 O 0.8455 0.79446 0.28691 0.0
O803 O 0.84194 0.81631 0.27125 0.0
O804 O 0.81559 0.76663 0.27969 0.0
O805 O 0.79476 0.77784 0.27601 0.0
O806 O 0.81423 0.79048 0.24814 0.0
O807 O 0.78431 0.78674 0.2445 0.0
H808 H 0.73089 0.82189 0.27934 0.0
H809 H 0.70584 0.81857 0.29633 0.0
H810 H 0.71314 0.76587 0.30999 0.0
H811 H 0.73856 0.7695 0.29326 0.0
H812 H 0.86651 0.7771 0.27061 0.0
H813 H 0.89169 0.77572 0.25427 0.0
H814 H 0.89804 0.83395 0.24696 0.0
H815 H 0.87293 0.83516 0.26291 0.0
La816 La 0.81351 0.29865 0.75798 0.0
La817 La 0.80204 0.30227 0.79447 0.0
C818 C 0.82021 0.30265 0.72587 0.0
C819 C 0.8177 0.3162 0.71393 0.0
C820 C 0.82442 0.31575 0.69709 0.0
C821 C 0.82071 0.32742 0.68486 0.0
C822 C 0.81008 0.33956 0.68927 0.0
C823 C 0.80374 0.34033 0.7064 0.0
C824 C 0.80766 0.32883 0.71873 0.0
C825 C 0.8329 0.28705 0.78299 0.0
C826 C 0.82524 0.33822 0.78482 0.0
C827 C 0.79496 0.29718 0.82615 0.0
C828 C 0.79583 0.28147 0.83591 0.0
C829 C 0.78783 0.27948 0.85184 0.0
C830 C 0.78918 0.26475 0.86134 0.0
C831 C 0.79846 0.25176 0.85493 0.0
C832 C 0.80593 0.25348 0.83857 0.0
C833 C 0.80478 0.26833 0.82926 0.0
C834 C 0.78302 0.31441 0.76965 0.0
C835 C 0.79108 0.26245 0.7681 0.0
O836 O 0.83164 0.30951 0.74069 0.0
O837 O 0.80581 0.29158 0.72941 0.0
O838 O 0.82943 0.27984 0.76559 0.0
O839 O 0.82651 0.30103 0.78551 0.0
O840 O 0.82017 0.32951 0.76749 0.0
O841 O 0.82124 0.32927 0.79863 0.0
O842 O 0.7832 0.29283 0.81153 0.0
O843 O 0.81003 0.30728 0.82301 0.0
O844 O 0.78661 0.32151 0.78709 0.0
O845 O 0.78907 0.30016 0.76693 0.0
O846 O 0.79591 0.2716 0.78522 0.0
O847 O 0.79469 0.27118 0.75407 0.0
H848 H 0.83216 0.30604 0.69321 0.0
H849 H 0.82561 0.32644 0.67166 0.0
H850 H 0.79564 0.34967 0.71017 0.0
H851 H 0.80253 0.32946 0.7318 0.0
H852 H 0.78078 0.28945 0.85705 0.0
H853 H 0.78313 0.26363 0.87381 0.0
H854 H 0.81327 0.24384 0.83334 0.0
H855 H 0.8112 0.26975 0.81706 0.0
La856 La 0.81079 0.81735 0.78535 0.0
La857 La 0.7895 0.77955 0.76848 0.0
C858 C 0.82295 0.85269 0.79532 0.0
C859 C 0.81401 0.86746 0.80045 0.0
C860 C 0.81988 0.88043 0.81708 0.0
C861 C 0.81035 0.89321 0.82292 0.0
C862 C 0.79473 0.89296 0.81228 0.0
C863 C 0.78905 0.88014 0.79555 0.0
C864 C 0.79859 0.86756 0.78967 0.0
C865 C 0.80785 0.79255 0.80835 0.0
C866 C 0.76925 0.80748 0.78299 0.0
C867 C 0.77736 0.74419 0.75926 0.0
C868 C 0.78586 0.72895 0.76109 0.0
C869 C 0.80258 0.7303 0.75591 0.0
C870 C 0.81223 0.71825 0.76138 0.0
C871 C 0.80535 0.70469 0.77212 0.0
C872 C 0.7882 0.7025 0.77626 0.0
C873 C 0.77853 0.71459 0.77079 0.0
C874 C 0.79254 0.80448 0.74562 0.0
C875 C 0.83075 0.78912 0.77179 0.0
O876 O 0.82243 0.84056 0.80662 0.0
O877 O 0.81964 0.84422 0.77803 0.0
O878 O 0.82191 0.8057 0.80775 0.0
O879 O 0.79588 0.79392 0.79655 0.0
O880 O 0.78415 0.82073 0.78433 0.0
O881 O 0.76837 0.78935 0.77855 0.0
O882 O 0.78304 0.75539 0.74767 0.0
O883 O 0.7756 0.75374 0.77498 0.0
O884 O 0.77843 0.79139 0.74618 0.0
O885 O 0.80447 0.8029 0.75731 0.0
O886 O 0.81611 0.77615 0.77241 0.0
O887 O 0.83131 0.80727 0.77394 0.0
H888 H 0.83166 0.88045 0.82567 0.0
H889 H 0.81504 0.90311 0.83579 0.0
H890 H 0.77725 0.87995 0.78688 0.0
H891 H 0.79369 0.85769 0.7768 0.0
H892 H 0.80859 0.74125 0.74844 0.0
H893 H 0.8253 0.71994 0.75771 0.0
H894 H 0.78263 0.69213 0.78454 0.0
H895 H 0.76572 0.71343 0.77503 0.0
La896 La 0.53687 0.53628 0.52242 0.0
La897 La 0.57215 0.55972 0.54364 0.0
C898 C 0.50461 0.52013 0.5154 0.0
C899 C 0.489 0.52596 0.51981 0.0
C900 C 0.47242 0.51321 0.51457 0.0
C901 C 0.45745 0.51924 0.5174 0.0
C902 C 0.45892 0.53815 0.52539 0.0
C903 C 0.47562 0.5507 0.53111 0.0
C904 C 0.49054 0.54464 0.52837 0.0
C905 C 0.56115 0.53809 0.49832 0.0
C906 C 0.5481 0.58056 0.52306 0.0
C907 C 0.60421 0.57659 0.55103 0.0
C908 C 0.61932 0.57576 0.54135 0.0
C909 C 0.63529 0.57673 0.55158 0.0
C910 C 0.64907 0.57319 0.54259 0.0
C911 C 0.64703 0.56851 0.52321 0.0
C912 C 0.63126 0.56839 0.51295 0.0
C913 C 0.61751 0.57206 0.52196 0.0
C914 C 0.54777 0.55824 0.5677 0.0
C915 C 0.56202 0.51469 0.54036 0.0
O916 O 0.51355 0.52977 0.50431 0.0
O917 O 0.51471 0.5178 0.52941 0.0
O918 O 0.54468 0.52925 0.49472 0.0
O919 O 0.56333 0.54511 0.51559 0.0
O920 O 0.53486 0.5653 0.52191 0.0
O921 O 0.56418 0.58073 0.52941 0.0
O922 O 0.59693 0.561 0.55695 0.0
O923 O 0.59262 0.58383 0.54321 0.0
O924 O 0.56426 0.56689 0.57129 0.0
O925 O 0.54573 0.55111 0.55049 0.0
O926 O 0.57462 0.53078 0.54337 0.0
O927 O 0.54597 0.51367 0.53297 0.0
H928 H 0.47104 0.49874 0.5079 0.0
H929 H 0.44473 0.50931 0.51275 0.0
H930 H 0.47714 0.56528 0.53753 0.0
H931 H 0.50327 0.55465 0.53259 0.0
H932 H 0.63688 0.57946 0.56655 0.0
H933 H 0.66101 0.57317 0.55087 0.0
H934 H 0.62945 0.56502 0.49801 0.0
H935 H 0.60528 0.57136 0.51383 0.0
La936 La 0.0759 0.55115 0.0342 0.0
La937 La 0.03598 0.54445 0.02906 0.0
C938 C 0.1067 0.5494 0.0437 0.0
C939 C 0.1195 0.53846 0.03928 0.0
C940 C 0.13718 0.54837 0.04098 0.0
C941 C 0.15003 0.53866 0.03885 0.0
C942 C 0.14557 0.51866 0.03509 0.0
C943 C 0.1277 0.5087 0.03246 0.0
C944 C 0.11478 0.51851 0.0346 0.0
C945 C 0.06216 0.55853 1.00342 0.0
C946 C 0.05035 0.50939 0.01677 0.0
C947 C 1.00496 0.54604 0.02041 0.0
C948 C 0.99395 0.55958 0.01976 0.0
C949 C 0.99053 0.56977 0.036 0.0
C950 C 0.97808 0.5802 0.03526 0.0
C951 C 0.96872 0.58075 0.01829 0.0
C952 C 0.97271 0.57123 1.002 0.0
C953 C 0.98511 0.56072 1.00275 0.0
C954 C 0.04982 0.53642 0.05953 0.0
C955 C 0.06138 0.5861 0.04516 0.0
O956 O 0.10271 0.55956 0.03166 0.0
O957 O 0.0931 0.54122 0.05108 0.0
O958 O 0.07773 0.56753 0.01162 0.0
O959 O 0.05569 0.54522 0.0116 0.0
O960 O 0.06631 0.52032 0.02353 0.0
O961 O 0.03642 0.51615 0.01601 0.0
O962 O 0.01112 0.54353 0.03667 0.0
O963 O 0.01629 0.54612 1.00867 0.0
O964 O 0.03445 0.52726 0.05089 0.0
O965 O 0.05626 0.55022 0.05185 0.0
O966 O 0.04612 0.5756 0.03596 0.0
O967 O 0.07449 0.57854 0.04888 0.0
H968 H 0.14115 0.56374 0.04447 0.0
H969 H 0.16356 0.54687 0.04058 0.0
H970 H 0.12373 0.49332 0.02968 0.0
H971 H 0.10121 0.51048 0.0332 0.0
H972 H 0.99707 0.56925 0.04936 0.0
H973 H 0.97559 0.5876 0.04806 0.0
H974 H 0.96574 0.57123 0.98868 0.0
H975 H 0.98734 0.55293 0.99001 0.0
H976 H 0.0234 0.20511 0.91774 0.0
H977 H 0.02628 0.17877 0.93315 0.0
H978 H 0.02006 0.21011 0.98493 0.0
H979 H 0.01679 0.2365 0.96943 0.0
H980 H 0.04902 0.17468 0.95819 0.0
H981 H 1.00223 0.17936 0.01305 0.0
H982 H 0.97528 0.18927 0.01701 0.0
H983 H 0.9608 0.1784 0.95817 0.0
H984 H 0.98754 0.16821 0.95388 0.0
H985 H 0.06463 0.11728 0.02316 0.0
H986 H 0.05935 0.14392 1.00958 0.0
H987 H 1.00751 0.11012 0.98602 0.0
H988 H 0.01259 0.08338 0.99984 0.0
H989 H 1.00667 0.1458 0.99789 0.0
H990 H 0.04133 0.11676 0.95993 0.0
H991 H 0.06631 0.10407 0.95325 0.0
H992 H 0.10166 0.15928 0.97297 0.0
H993 H 0.0769 0.17224 0.98005 0.0
C994 C 0.02255 0.20647 0.93241 0.0
C995 C 0.01979 0.22307 0.94226 0.0
C996 C 0.02428 0.19132 0.94126 0.0
C997 C 0.02329 0.19219 0.96027 0.0
C998 C 0.02061 0.20879 0.97021 0.0
C999 C 0.01881 0.22398 0.96132 0.0
C1000 C 0.02533 0.17583 0.96955 0.0
C1001 C 0.03975 0.16848 0.96692 0.0
C1002 C 0.01315 0.16726 0.98073 0.0
C1003 C 0.99698 0.17324 0.98316 0.0
C1004 C 0.99326 0.17904 1.00097 0.0
C1005 C 0.97803 0.18471 1.00327 0.0
C1006 C 0.96637 0.18453 0.98785 0.0
C1007 C 0.96988 0.17861 0.9701 0.0
C1008 C 0.98509 0.17292 0.96772 0.0
C1009 C 0.05201 0.11547 0.01524 0.0
C1010 C 0.03909 0.09799 0.01257 0.0
C1011 C 0.04903 0.13078 1.00736 0.0
C1012 C 0.03311 0.12908 0.99644 0.0
C1013 C 0.01994 0.11189 0.99431 0.0
C1014 C 0.02289 0.09654 1.00222 0.0
C1015 C 0.0305 0.14495 0.98675 0.0
C1016 C 0.01599 0.15214 0.98927 0.0
C1017 C 0.04236 0.15311 0.97511 0.0
C1018 C 0.05727 0.14543 0.97068 0.0
C1019 C 0.05444 0.12616 0.96295 0.0
C1020 C 0.06856 0.11892 0.95909 0.0
C1021 C 0.08556 0.13085 0.96272 0.0
C1022 C 0.08848 0.15006 0.97018 0.0
C1023 C 0.07441 0.15736 0.97412 0.0
H1024 H 0.09648 0.12522 0.95972 0.0
H1025 H 0.95459 0.18893 0.98966 0.0
H1026 H 0.15143 0.82472 0.14725 0.0
H1027 H 0.17816 0.82276 0.16529 0.0
H1028 H 0.15563 0.83175 0.21551 0.0
H1029 H 0.12864 0.83314 0.19753 0.0
H1030 H 0.19367 0.85404 0.21484 0.0
H1031 H 0.1539 0.79028 0.20249 0.0
H1032 H 0.13468 0.76205 0.18172 0.0
H1033 H 0.17758 0.75583 0.15259 0.0
H1034 H 0.197 0.78423 0.17303 0.0
H1035 H 0.24902 0.82923 0.28109 0.0
H1036 H 0.22453 0.8332 0.26121 0.0
H1037 H 0.23862 0.80035 0.21471 0.0
H1038 H 0.26251 0.79518 0.23507 0.0
H1039 H 0.20583 0.79103 0.21127 0.0
H1040 H 0.24633 0.85187 0.22236 0.0
H1041 H 0.26694 0.88098 0.24035 0.0
H1042 H 0.22547 0.89448 0.26797 0.0
H1043 H 0.20465 0.86529 0.25034 0.0
C1044 C 0.15223 0.82658 0.16216 0.0
C1045 C 0.13784 0.82914 0.17092 0.0
C1046 C 0.16751 0.82535 0.17245 0.0
C1047 C 0.16891 0.82704 0.19176 0.0
C1048 C 0.15488 0.83041 0.20063 0.0
C1049 C 0.13944 0.83121 0.19032 0.0
C1050 C 0.18467 0.82448 0.20265 0.0
C1051 C 0.19627 0.84025 0.21425 0.0
C1052 C 0.18847 0.80665 0.2013 0.0
C1053 C 0.17684 0.7895 0.18914 0.0
C1054 C 0.15919 0.783 0.19154 0.0
C1055 C 0.14827 0.76695 0.17985 0.0
C1056 C 0.15489 0.75718 0.1658 0.0
C1057 C 0.17246 0.76342 0.16345 0.0
C1058 C 0.18343 0.77949 0.17509 0.0
C1059 C 0.24695 0.82285 0.26661 0.0
C1060 C 0.25795 0.81214 0.25963 0.0
C1061 C 0.23297 0.82531 0.25514 0.0
C1062 C 0.22983 0.8176 0.23617 0.0
C1063 C 0.24072 0.80666 0.2292 0.0
C1064 C 0.25453 0.80384 0.24082 0.0
C1065 C 0.21495 0.82061 0.22389 0.0
C1066 C 0.20345 0.80492 0.21193 0.0
C1067 C 0.2115 0.83867 0.22454 0.0
C1068 C 0.22395 0.85629 0.23513 0.0
C1069 C 0.24162 0.86098 0.23236 0.0
C1070 C 0.25334 0.8775 0.24248 0.0
C1071 C 0.24753 0.88955 0.25532 0.0
C1072 C 0.22996 0.88512 0.25803 0.0
C1073 C 0.21819 0.8686 0.24797 0.0
H1074 H 0.25662 0.90233 0.26315 0.0
H1075 H 0.14641 0.74475 0.15677 0.0
H1076 H 0.50298 0.83199 0.43744 0.0
H1077 H 0.50546 0.86462 0.4519 0.0
H1078 H 0.55817 0.86996 0.47627 0.0
H1079 H 0.55522 0.83673 0.46269 0.0
H1080 H 0.54447 0.88976 0.4991 0.0
H1081 H 0.54712 0.88648 0.43389 0.0
H1082 H 0.53669 0.87435 0.40077 0.0
H1083 H 0.4899 0.89217 0.40632 0.0
H1084 H 0.49998 0.90424 0.43954 0.0
H1085 H 0.57324 0.9905 0.51168 0.0
H1086 H 0.5689 0.95667 0.50062 0.0
H1087 H 0.51442 0.95056 0.48291 0.0
H1088 H 0.51867 0.98457 0.49381 0.0
H1089 H 0.52876 0.93139 0.45705 0.0
H1090 H 0.52735 0.93602 0.52244 0.0
H1091 H 0.53877 0.94885 0.55524 0.0
H1092 H 0.5845 0.92917 0.54885 0.0
H1093 H 0.57348 0.91648 0.51593 0.0
C1094 C 0.51498 0.84002 0.44618 0.0
C1095 C 0.52893 0.83183 0.44888 0.0
C1096 C 0.51648 0.85879 0.45429 0.0
C1097 C 0.53224 0.87015 0.46469 0.0
C1098 C 0.54591 0.86166 0.46819 0.0
C1099 C 0.54422 0.84263 0.46047 0.0
C1100 C 0.53463 0.89095 0.47123 0.0
C1101 C 0.54123 0.89885 0.48981 0.0
C1102 C 0.53016 0.90299 0.45929 0.0
C1103 C 0.52425 0.89612 0.43923 0.0
C1104 C 0.53458 0.88775 0.42806 0.0
C1105 C 0.52873 0.88089 0.40927 0.0
C1106 C 0.51262 0.88245 0.40146 0.0
C1107 C 0.50237 0.89097 0.4124 0.0
C1108 C 0.50816 0.89784 0.4312 0.0
C1109 C 0.56031 0.98205 0.50538 0.0
C1110 C 0.54629 0.99037 0.50369 0.0
C1111 C 0.55783 0.96261 0.49915 0.0
C1112 C 0.54127 0.95093 0.49113 0.0
C1113 C 0.52732 0.95923 0.48909 0.0
C1114 C 0.52977 0.97871 0.49538 0.0
C1115 C 0.53858 0.9301 0.48485 0.0
C1116 C 0.53196 0.92224 0.46631 0.0
C1117 C 0.54318 0.91818 0.49677 0.0
C1118 C 0.54965 0.92543 0.51667 0.0
C1119 C 0.53989 0.93452 0.528 0.0
C1120 C 0.54629 0.94176 0.54662 0.0
C1121 C 0.56237 0.93986 0.55412 0.0
C1122 C 0.57205 0.93065 0.54302 0.0
C1123 C 0.56573 0.92341 0.52439 0.0
H1124 H 0.56731 0.94551 0.56853 0.0
H1125 H 0.50809 0.87709 0.38693 0.0
H1126 H 0.53825 0.3335 0.66346 0.0
H1127 H 0.51085 0.33183 0.67645 0.0
H1128 H 0.52334 0.29375 0.71147 0.0
H1129 H 0.55049 0.29507 0.69832 0.0
H1130 H 0.4905 0.28075 0.6964 0.0
H1131 H 0.52637 0.34154 0.72824 0.0
H1132 H 0.54555 0.37396 0.73085 0.0
H1133 H 0.50487 0.38994 0.69998 0.0
H1134 H 0.48552 0.35753 0.69698 0.0
H1135 H 0.42615 0.28485 0.75675 0.0
H1136 H 0.45325 0.28665 0.74323 0.0
H1137 H 0.43993 0.32458 0.70853 0.0
H1138 H 0.41287 0.32288 0.722 0.0
H1139 H 0.473 0.33772 0.72305 0.0
H1140 H 0.43702 0.27713 0.69143 0.0
H1141 H 0.41778 0.24473 0.6887 0.0
H1142 H 0.45857 0.22836 0.71897 0.0
H1143 H 0.47799 0.26075 0.72209 0.0
C1144 C 0.53524 0.3249 0.67405 0.0
C1145 C 0.54665 0.31447 0.67986 0.0
C1146 C 0.51955 0.32398 0.68151 0.0
C1147 C 0.51498 0.31276 0.6951 0.0
C1148 C 0.52646 0.30248 0.701 0.0
C1149 C 0.54207 0.30333 0.69351 0.0
C1150 C 0.49812 0.31133 0.7029 0.0
C1151 C 0.48681 0.29323 0.70245 0.0
C1152 C 0.49296 0.32755 0.7104 0.0
C1153 C 0.50456 0.34706 0.71223 0.0
C1154 C 0.52156 0.35193 0.72189 0.0
C1155 C 0.53246 0.37031 0.72346 0.0
C1156 C 0.52645 0.38398 0.71554 0.0
C1157 C 0.50952 0.37932 0.70608 0.0
C1158 C 0.49857 0.36096 0.70446 0.0
C1159 C 0.42885 0.29336 0.74605 0.0
C1160 C 0.41726 0.30372 0.74052 0.0
C1161 C 0.44441 0.29441 0.73833 0.0
C1162 C 0.44869 0.30566 0.72471 0.0
C1163 C 0.43705 0.31587 0.71905 0.0
C1164 C 0.42155 0.31489 0.72681 0.0
C1165 C 0.46541 0.30714 0.71662 0.0
C1166 C 0.47669 0.32525 0.717 0.0
C1167 C 0.47053 0.29092 0.70904 0.0
C1168 C 0.4589 0.27142 0.70715 0.0
C1169 C 0.44184 0.26666 0.69762 0.0
C1170 C 0.43092 0.24829 0.69599 0.0
C1171 C 0.43694 0.23451 0.7037 0.0
C1172 C 0.45392 0.23906 0.71303 0.0
C1173 C 0.46489 0.25742 0.71472 0.0
H1174 H 0.42846 0.22029 0.70242 0.0
H1175 H 0.53491 0.39821 0.71677 0.0
H1176 H 0.98981 0.77543 0.59626 0.0
H1177 H 0.9915 0.80355 0.58202 0.0
H1178 H 0.99066 0.83652 0.63502 0.0
H1179 H 0.9881 0.80796 0.64922 0.0
H1180 H 0.97488 0.84965 0.60753 0.0
H1181 H 0.02925 0.83557 0.62063 0.0
H1182 H 0.0499 0.81572 0.6209 0.0
H1183 H 0.04414 0.80622 0.56161 0.0
H1184 H 0.02323 0.82579 0.56097 0.0
H1185 H 0.02453 0.93569 0.57905 0.0
H1186 H 0.01497 0.90947 0.59583 0.0
H1187 H 1.00419 0.8695 0.54474 0.0
H1188 H 0.01298 0.89554 0.52774 0.0
H1189 H 0.02666 0.86209 0.57415 0.0
H1190 H 0.97273 0.87955 0.563 0.0
H1191 H 0.95536 0.90273 0.56532 0.0
H1192 H 0.9624 0.90853 0.62442 0.0
H1193 H 0.9808 0.88618 0.62254 0.0
C1194 C 0.98951 0.78856 0.60477 0.0
C1195 C 0.98903 0.78966 0.62383 0.0
C1196 C 0.99055 0.80463 0.59666 0.0
C1197 C 0.99175 0.82225 0.60757 0.0
C1198 C 0.98988 0.82308 0.62639 0.0
C1199 C 0.98842 0.8068 0.63447 0.0
C1200 C 0.99683 0.83984 0.59959 0.0
C1201 C 0.9863 0.85251 0.60042 0.0
C1202 C 0.01186 0.84368 0.59045 0.0
C1203 C 0.02456 0.83202 0.59075 0.0
C1204 C 0.0323 0.82915 0.60764 0.0
C1205 C 0.04406 0.81796 0.60786 0.0
C1206 C 0.0483 0.80969 0.59128 0.0
C1207 C 0.04082 0.81263 0.57445 0.0
C1208 C 0.02903 0.82378 0.57415 0.0
C1209 C 0.01978 0.92137 0.57131 0.0
C1210 C 0.01965 0.91774 0.55203 0.0
C1211 C 0.01442 0.90642 0.58095 0.0
C1212 C 1.00895 0.88761 0.57149 0.0
C1213 C 1.00849 0.88395 0.55227 0.0
C1214 C 0.01363 0.89885 0.54261 0.0
C1215 C 1.00444 0.87154 0.58158 0.0
C1216 C 0.01523 0.85924 0.58127 0.0
C1217 C 0.98995 0.86841 0.59153 0.0
C1218 C 0.97837 0.88134 0.59263 0.0
C1219 C 0.97078 0.88591 0.57652 0.0
C1220 C 0.9607 0.8989 0.57775 0.0
C1221 C 0.95765 0.90702 0.59499 0.0
C1222 C 0.96477 0.90223 0.61106 0.0
C1223 C 0.97511 0.88947 0.60993 0.0
H1224 H 0.94978 0.91704 0.59589 0.0
H1225 H 0.05741 0.80102 0.59148 0.0
H1226 H 0.54328 0.80263 0.88385 0.0
H1227 H 0.51303 0.79274 0.86846 0.0
H1228 H 0.5301 0.8163 0.82099 0.0
H1229 H 0.56011 0.82671 0.83651 0.0
H1230 H 0.50612 0.83094 0.83342 0.0
H1231 H 0.51247 0.76768 0.81949 0.0
H1232 H 0.51936 0.73843 0.82632 0.0
H1233 H 0.47951 0.7306 0.86191 0.0
H1234 H 0.47253 0.75996 0.8555 0.0
H1235 H 0.42609 0.80961 0.77799 0.0
H1236 H 0.45487 0.80593 0.78833 0.0
H1237 H 0.43675 0.78919 0.83821 0.0
H1238 H 0.40788 0.79287 0.82797 0.0
H1239 H 0.46059 0.76952 0.82439 0.0
H1240 H 0.45589 0.83357 0.84001 0.0
H1241 H 0.44876 0.86276 0.83335 0.0
H1242 H 0.48611 0.86902 0.79488 0.0
H1243 H 0.49326 0.83967 0.8011 0.0
C1244 C 0.54058 0.80526 0.86995 0.0
C1245 C 0.55394 0.81565 0.86144 0.0
C1246 C 0.52331 0.79954 0.86114 0.0
C1247 C 0.51929 0.80384 0.84359 0.0
C1248 C 0.53288 0.81296 0.83459 0.0
C1249 C 0.55002 0.81891 0.84347 0.0
C1250 C 0.50092 0.80128 0.83559 0.0
C1251 C 0.4963 0.81738 0.83112 0.0
C1252 C 0.48791 0.78378 0.83325 0.0
C1253 C 0.4921 0.76613 0.83715 0.0
C1254 C 0.50528 0.75982 0.8289 0.0
C1255 C 0.50918 0.7432 0.83267 0.0
C1256 C 0.49991 0.73269 0.84458 0.0
C1257 C 0.48669 0.73876 0.85271 0.0
C1258 C 0.48275 0.75538 0.84899 0.0
C1259 C 0.42818 0.80496 0.79107 0.0
C1260 C 0.41485 0.80186 0.80233 0.0
C1261 C 0.44457 0.80273 0.79689 0.0
C1262 C 0.44795 0.79754 0.81413 0.0
C1263 C 0.43436 0.79317 0.82485 0.0
C1264 C 0.4179 0.79533 0.81899 0.0
C1265 C 0.46612 0.79905 0.82189 0.0
C1266 C 0.47059 0.78293 0.82652 0.0
C1267 C 0.4791 0.81655 0.82447 0.0
C1268 C 0.47498 0.83433 0.82088 0.0
C1269 C 0.46249 0.8411 0.83003 0.0
C1270 C 0.45845 0.85767 0.82635 0.0
C1271 C 0.46694 0.86771 0.81367 0.0
C1272 C 0.47952 0.86121 0.80468 0.0
C1273 C 0.48358 0.84461 0.80828 0.0
H1274 H 0.4638 0.88054 0.81083 0.0
H1275 H 0.50295 0.71983 0.84747 0.0
H1276 H 0.49418 0.1763 0.14699 0.0
H1277 H 0.49863 0.15107 0.12434 0.0
H1278 H 0.48453 0.17922 0.08021 0.0
H1279 H 0.48098 0.20509 0.10296 0.0
H1280 H 0.48192 0.12578 0.09794 0.0
H1281 H 0.50806 0.1734 0.04532 0.0
H1282 H 0.52278 0.20698 0.0449 0.0
H1283 H 0.54416 0.21446 0.10191 0.0
H1284 H 0.52976 0.18089 0.10259 0.0
H1285 H 0.49615 0.06541 0.02014 0.0
H1286 H 0.48659 0.08831 0.04138 0.0
H1287 H 0.54001 0.12227 0.05614 0.0
H1288 H 0.54949 0.09955 0.03475 0.0
H1289 H 0.52189 0.14466 0.05237 0.0
H1290 H 0.51625 0.09315 0.08567 0.0
H1291 H 0.50671 0.06188 0.09511 0.0
H1292 H 0.45323 0.06333 0.08622 0.0
H1293 H 0.46232 0.09447 0.07641 0.0
C1294 C 0.49175 0.17697 0.13245 0.0
C1295 C 0.48742 0.19276 0.12674 0.0
C1296 C 0.4943 0.16252 0.11949 0.0
C1297 C 0.49232 0.16343 0.10056 0.0
C1298 C 0.48665 0.17847 0.09476 0.0
C1299 C 0.48448 0.19316 0.10775 0.0
C1300 C 0.49713 0.14919 0.08714 0.0
C1301 C 0.49057 0.12987 0.08786 0.0
C1302 C 0.50883 0.15455 0.07438 0.0
C1303 C 0.51765 0.17472 0.07405 0.0
C1304 C 0.51594 0.18222 0.05774 0.0
C1305 C 0.52422 0.20124 0.05746 0.0
C1306 C 0.53434 0.21287 0.07339 0.0
C1307 C 0.53626 0.20547 0.08961 0.0
C1308 C 0.52803 0.18645 0.08995 0.0
C1309 C 0.50575 0.07796 0.02769 0.0
C1310 C 0.52352 0.08083 0.02579 0.0
C1311 C 0.50031 0.0909 0.03999 0.0
C1312 C 0.51253 0.107 0.05046 0.0
C1313 C 0.53027 0.11002 0.04819 0.0
C1314 C 0.5357 0.09708 0.03595 0.0
C1315 C 0.50688 0.12109 0.06329 0.0
C1316 C 0.51313 0.14044 0.06231 0.0
C1317 C 0.49559 0.11578 0.07648 0.0
C1318 C 0.48996 0.09606 0.08011 0.0
C1319 C 0.50243 0.08665 0.08538 0.0
C1320 C 0.49712 0.06903 0.09097 0.0
C1321 C 0.47943 0.06067 0.09137 0.0
C1322 C 0.46695 0.06985 0.08601 0.0
C1323 C 0.47215 0.08744 0.08034 0.0
H1324 H 0.47539 0.04703 0.09571 0.0
H1325 H 0.54072 0.22759 0.07315 0.0
H1326 H 0.12998 0.30816 0.32841 0.0
H1327 H 0.1566 0.31909 0.31491 0.0
H1328 H 0.17665 0.36407 0.36186 0.0
H1329 H 0.14987 0.35317 0.37566 0.0
H1330 H 0.18392 0.36682 0.31635 0.0
H1331 H 0.19433 0.34014 0.37276 0.0
H1332 H 0.18437 0.31754 0.39361 0.0
H1333 H 0.17515 0.27084 0.34858 0.0
H1334 H 0.18482 0.29322 0.32743 0.0
H1335 H 0.27264 0.35554 0.30246 0.0
H1336 H 0.24797 0.3654 0.31438 0.0
H1337 H 0.2135 0.3105 0.29026 0.0
H1338 H 0.23778 0.30048 0.27842 0.0
H1339 H 0.21706 0.32054 0.32947 0.0
H1340 H 0.2097 0.34701 0.27384 0.0
H1341 H 0.21707 0.36892 0.25182 0.0
H1342 H 0.21948 0.41634 0.29406 0.0
H1343 H 0.21282 0.39483 0.31657 0.0
C1344 C 0.13982 0.32069 0.33569 0.0
C1345 C 0.13802 0.32958 0.35327 0.0
C1346 C 0.15493 0.32703 0.32785 0.0
C1347 C 0.16849 0.34233 0.33744 0.0
C1348 C 0.16618 0.35234 0.35423 0.0
C1349 C 0.15096 0.346 0.36213 0.0
C1350 C 0.18597 0.34466 0.33171 0.0
C1351 C 0.19157 0.35717 0.31955 0.0
C1352 C 0.19562 0.33183 0.33579 0.0
C1353 C 0.19016 0.31833 0.34853 0.0
C1354 C 0.19007 0.32505 0.36731 0.0
C1355 C 0.18449 0.31229 0.37917 0.0
C1356 C 0.17909 0.29277 0.37242 0.0
C1357 C 0.17932 0.28596 0.35379 0.0
C1358 C 0.18486 0.29868 0.34187 0.0
C1359 C 0.25973 0.34571 0.29938 0.0
C1360 C 0.25721 0.32705 0.28987 0.0
C1361 C 0.24569 0.35144 0.3061 0.0
C1362 C 0.22904 0.33863 0.30326 0.0
C1363 C 0.22631 0.32055 0.29261 0.0
C1364 C 0.24023 0.31482 0.28596 0.0
C1365 C 0.21505 0.34247 0.31366 0.0
C1366 C 0.20999 0.33086 0.32671 0.0
C1367 C 0.20616 0.35631 0.31042 0.0
C1368 C 0.21105 0.36928 0.29702 0.0
C1369 C 0.2122 0.36213 0.27859 0.0
C1370 C 0.21617 0.3745 0.26597 0.0
C1371 C 0.21876 0.39401 0.27154 0.0
C1372 C 0.21753 0.40123 0.28977 0.0
C1373 C 0.21372 0.38896 0.30248 0.0
H1374 H 0.22177 0.40355 0.26175 0.0
H1375 H 0.17476 0.28291 0.38162 0.0
H1376 H 0.939 0.06806 0.19719 0.0
H1377 H 0.95282 0.06648 0.16889 0.0
H1378 H 0.99849 0.05885 0.19928 0.0
H1379 H 0.98462 0.0603 0.22766 0.0
H1380 H 1.00969 0.08163 0.17551 0.0
H1381 H 0.96604 0.02164 0.16617 0.0
H1382 H 0.93624 1.00058 0.16365 0.0
H1383 H 0.91915 0.02645 0.11944 0.0
H1384 H 0.94881 0.04783 0.12185 0.0
H1385 H 0.05367 0.05864 0.0998 0.0
H1386 H 0.03783 0.05841 0.12634 0.0
H1387 H 0.99095 0.0566 0.0913 0.0
H1388 H 1.00692 0.0557 0.06412 0.0
H1389 H 0.97941 0.03952 0.11702 0.0
H1390 H 0.02117 0.09967 0.12572 0.0
H1391 H 0.05003 0.12258 0.128 0.0
H1392 H 0.0695 0.09935 0.17306 0.0
H1393 H 0.0408 0.07615 0.1709 0.0
C1394 C 0.95202 0.06607 0.19807 0.0
C1395 C 0.9604 0.06437 0.21535 0.0
C1396 C 0.96001 0.06499 0.18152 0.0
C1397 C 0.97697 0.06225 0.18115 0.0
C1398 C 0.9855 0.06091 0.19849 0.0
C1399 C 0.97741 0.06175 0.21502 0.0
C1400 C 0.98579 0.061 0.16309 0.0
C1401 C 1.003 0.07213 0.16289 0.0
C1402 C 0.9774 0.04931 0.14582 0.0
C1403 C 0.9596 0.03646 0.14432 0.0
C1404 C 0.95589 0.02293 0.156 0.0
C1405 C 0.93904 1.01092 0.15457 0.0
C1406 C 0.9258 1.01221 0.14142 0.0
C1407 C 0.92941 0.02549 0.12964 0.0
C1408 C 0.94624 0.03754 0.13102 0.0
C1409 C 0.0399 0.05798 0.09746 0.0
C1410 C 0.03191 0.05709 0.07926 0.0
C1411 C 0.03072 0.0582 0.11306 0.0
C1412 C 0.01292 0.05831 0.1118 0.0
C1413 C 1.0046 0.05677 0.09343 0.0
C1414 C 0.01383 0.05615 0.07757 0.0
C1415 C 1.00347 0.06004 0.12946 0.0
C1416 C 0.98614 0.04902 0.12961 0.0
C1417 C 0.01162 0.07214 0.14666 0.0
C1418 C 0.02889 0.08605 0.14802 0.0
C1419 C 0.03164 0.09938 0.13604 0.0
C1420 C 0.04796 0.11242 0.13732 0.0
C1421 C 0.0616 0.11239 0.15063 0.0
C1422 C 0.05893 0.09934 0.16273 0.0
C1423 C 0.04263 0.08625 0.1615 0.0
H1424 H 0.07423 0.1225 0.1516 0.0
H1425 H 0.91276 1.0029 0.14034 0.0
H1426 H 0.32697 0.64895 0.47228 0.0
H1427 H 0.33528 0.65566 0.44212 0.0
H1428 H 0.31144 0.70217 0.44691 0.0
H1429 H 0.30335 0.69585 0.47672 0.0
H1430 H 0.2995 0.67289 0.41329 0.0
H1431 H 0.35223 0.71367 0.45449 0.0
H1432 H 0.3788 0.71793 0.47641 0.0
H1433 H 0.39764 0.68177 0.437 0.0
H1434 H 0.37104 0.67714 0.41494 0.0
H1435 H 0.33734 0.7614 0.38432 0.0
H1436 H 0.34326 0.73753 0.40145 0.0
H1437 H 0.31927 0.69358 0.35445 0.0
H1438 H 0.31287 0.71758 0.33721 0.0
H1439 H 0.35789 0.70859 0.40175 0.0
H1440 H 0.29383 0.65876 0.3695 0.0
H1441 H 0.26725 0.65776 0.34887 0.0
H1442 H 0.27065 0.7154 0.37269 0.0
H1443 H 0.29716 0.71663 0.39353 0.0
C1444 C 0.32377 0.66078 0.46698 0.0
C1445 C 0.31436 0.67177 0.47678 0.0
C1446 C 0.32846 0.66451 0.44978 0.0
C1447 C 0.3237 0.67919 0.44228 0.0
C1448 C 0.31501 0.69061 0.45242 0.0
C1449 C 0.31045 0.68701 0.4695 0.0
C1450 C 0.32696 0.68277 0.42363 0.0
C1451 C 0.31234 0.68013 0.41044 0.0
C1452 C 0.34369 0.69207 0.41994 0.0
C1453 C 0.35957 0.69484 0.43321 0.0
C1454 C 0.36196 0.70648 0.45059 0.0
C1455 C 0.37704 0.709 0.46301 0.0
C1456 C 0.38987 0.70006 0.45813 0.0
C1457 C 0.38767 0.68864 0.44079 0.0
C1458 C 0.3726 0.68606 0.42833 0.0
C1459 C 0.33377 0.74675 0.37737 0.0
C1460 C 0.3243 0.74133 0.35955 0.0
C1461 C 0.33729 0.73307 0.38717 0.0
C1462 C 0.33146 0.71373 0.37935 0.0
C1463 C 0.32363 0.70842 0.36084 0.0
C1464 C 0.31982 0.7221 0.3511 0.0
C1465 C 0.33027 0.69966 0.39191 0.0
C1466 C 0.3452 0.70026 0.40395 0.0
C1467 C 0.31375 0.68866 0.39475 0.0
C1468 C 0.29744 0.68779 0.38293 0.0
C1469 C 0.28879 0.67114 0.37039 0.0
C1470 C 0.27378 0.67055 0.35866 0.0
C1471 C 0.26728 0.68651 0.35945 0.0
C1472 C 0.2757 0.70305 0.37208 0.0
C1473 C 0.29068 0.70369 0.38387 0.0
H1474 H 0.25571 0.68606 0.35029 0.0
H1475 H 0.40154 0.70204 0.46776 0.0
H1476 H 0.61497 1.01173 0.7049 0.0
H1477 H 0.59738 1.00592 0.67475 0.0
H1478 H 0.64062 0.99499 0.6482 0.0
H1479 H 0.65839 1.00087 0.67832 0.0
H1480 H 0.62956 0.02361 0.63672 0.0
H1481 H 0.60324 0.96014 0.64348 0.0
H1482 H 0.58865 0.9344 0.65912 0.0
H1483 H 0.5447 0.95787 0.66216 0.0
H1484 H 0.55913 0.98392 0.64678 0.0
H1485 H 0.58103 0.02146 0.55089 0.0
H1486 H 0.59705 1.01025 0.57494 0.0
H1487 H 0.55816 0.01604 0.61062 0.0
H1488 H 0.54183 0.0266 0.58625 0.0
H1489 H 0.56865 0.98529 0.61438 0.0
H1490 H 0.59633 0.05069 0.61179 0.0
H1491 H 0.6113 0.07778 0.59804 0.0
H1492 H 0.65342 0.05234 0.5896 0.0
H1493 H 0.63841 0.02476 0.6027 0.0
C1494 C 0.62062 1.00762 0.69269 0.0
C1495 C 0.63818 1.00708 0.694 0.0
C1496 C 0.61049 1.00416 0.67546 0.0
C1497 C 0.61771 1.00004 0.65925 0.0
C1498 C 0.63482 0.99815 0.66057 0.0
C1499 C 0.64495 1.00153 0.67781 0.0
C1500 C 0.60842 1.00077 0.64119 0.0
C1501 C 0.61641 0.01487 0.63152 0.0
C1502 C 0.5911 0.98973 0.63481 0.0
C1503 C 0.58234 0.97407 0.64406 0.0
C1504 C 0.59052 0.95991 0.64761 0.0
C1505 C 0.58227 0.94524 0.6564 0.0
C1506 C 0.56577 0.94452 0.66165 0.0
C1507 C 0.55748 0.95845 0.65808 0.0
C1508 C 0.56569 0.97316 0.6493 0.0
C1509 C 0.57605 0.02051 0.56393 0.0
C1510 C 0.56061 0.02548 0.5671 0.0
C1511 C 0.58511 0.01398 0.57758 0.0
C1512 C 0.57904 0.01279 0.59472 0.0
C1513 C 0.56314 0.01696 0.59753 0.0
C1514 C 0.55391 0.02311 0.58372 0.0
C1515 C 0.58971 1.00839 0.61015 0.0
C1516 C 0.58196 0.99369 0.61933 0.0
C1517 C 0.60725 0.01904 0.61625 0.0
C1518 C 0.61608 0.03547 0.60795 0.0
C1519 C 0.60865 0.05071 0.60674 0.0
C1520 C 0.61716 0.06618 0.59909 0.0
C1521 C 0.63328 0.06677 0.59291 0.0
C1522 C 0.64093 0.05188 0.59439 0.0
C1523 C 0.63237 0.03627 0.60183 0.0
H1524 H 0.63986 0.07877 0.58701 0.0
H1525 H 0.5594 0.93315 0.66846 0.0
H1526 H 0.29229 0.3752 0.98089 0.0
H1527 H 0.28975 0.36273 0.94777 0.0
H1528 H 0.33304 0.33891 0.9583 0.0
H1529 H 0.33551 0.35104 0.99134 0.0
H1530 H 0.33633 0.35985 0.92935 0.0
H1531 H 0.29325 0.31013 0.94807 0.0
H1532 H 0.26712 0.297 0.9623 0.0
H1533 H 0.23572 0.31814 0.92444 0.0
H1534 H 0.26173 0.33164 0.91016 0.0
H1535 H 0.33187 0.30639 0.84002 0.0
H1536 H 0.33319 0.3169 0.87323 0.0
H1537 H 0.28343 0.32942 0.8638 0.0
H1538 H 0.28171 0.3182 0.83077 0.0
H1539 H 0.28335 0.31442 0.89258 0.0
H1540 H 0.32495 0.3648 0.87407 0.0
H1541 H 0.35048 0.37956 0.85973 0.0
H1542 H 0.3839 0.35984 0.89676 0.0
H1543 H 0.35852 0.34474 0.91117 0.0
C1544 C 0.30114 0.36711 0.97619 0.0
C1545 C 0.31406 0.36408 0.98886 0.0
C1546 C 0.29968 0.35999 0.95723 0.0
C1547 C 0.31121 0.34986 0.95047 0.0
C1548 C 0.32401 0.3467 0.96312 0.0
C1549 C 0.32532 0.35357 0.98206 0.0
C1550 C 0.31029 0.34294 0.93024 0.0
C1551 C 0.32482 0.34973 0.92134 0.0
C1552 C 0.29511 0.33018 0.91961 0.0
C1553 C 0.27947 0.32207 0.92818 0.0
C1554 C 0.2808 0.31213 0.94289 0.0
C1555 C 0.26601 0.30459 0.95094 0.0
C1556 C 0.24978 0.30678 0.94431 0.0
C1557 C 0.2483 0.31648 0.92959 0.0
C1558 C 0.26306 0.32407 0.9215 0.0
C1559 C 0.32122 0.31141 0.845 0.0
C1560 C 0.30671 0.31146 0.83261 0.0
C1561 C 0.32202 0.31754 0.86406 0.0
C1562 C 0.30855 0.32433 0.87121 0.0
C1563 C 0.29403 0.32428 0.85882 0.0
C1564 C 0.29309 0.31788 0.83983 0.0
C1565 C 0.30943 0.33132 0.89153 0.0
C1566 C 0.29489 0.32456 0.90049 0.0
C1567 C 0.32451 0.34439 0.90217 0.0
C1568 C 0.33981 0.35348 0.89357 0.0
C1569 C 0.33773 0.3635 0.87907 0.0
C1570 C 0.35217 0.37194 0.87094 0.0
C1571 C 0.36879 0.37059 0.87729 0.0
C1572 C 0.37101 0.36085 0.89183 0.0
C1573 C 0.3566 0.35236 0.89999 0.0
H1574 H 0.37996 0.37714 0.87098 0.0
H1575 H 0.23833 0.30093 0.95056 0.0
H1576 H 0.98102 0.02623 0.31614 0.0
H1577 H 0.99425 0.02413 0.34686 0.0
H1578 H 0.98721 0.07862 0.36861 0.0
H1579 H 0.97393 0.08074 0.33779 0.0
H1580 H 0.01816 0.07688 0.38491 0.0
H1581 H 0.96071 0.03395 0.3767 0.0
H1582 H 0.93624 1.00701 0.36091 0.0
H1583 H 0.96883 0.96903 0.36441 0.0
H1584 H 0.99357 0.9958 0.38002 0.0
H1585 H 0.03681 0.07001 0.48101 0.0
H1586 H 0.02426 0.07319 0.45042 0.0
H1587 H 0.02457 0.01585 0.42904 0.0
H1588 H 0.03663 1.01248 0.45976 0.0
H1589 H 0.99695 0.01939 0.41244 0.0
H1590 H 0.05438 0.06088 0.41952 0.0
H1591 H 0.07994 0.08713 0.43415 0.0
H1592 H 0.04909 0.12695 0.43185 0.0
H1593 H 0.02326 0.10087 0.41735 0.0
C1594 C 0.98228 0.03788 0.32736 0.0
C1595 C 0.97619 0.05369 0.32398 0.0
C1596 C 0.98985 0.0366 0.34524 0.0
C1597 C 0.99179 0.05106 0.36077 0.0
C1598 C 0.98606 0.06707 0.35731 0.0
C1599 C 0.97834 0.06829 0.33944 0.0
C1600 C 0.99956 0.04943 0.38036 0.0
C1601 C 0.01325 0.06435 0.39092 0.0
C1602 C 0.9939 0.03302 0.38866 0.0
C1603 C 0.97904 0.01691 0.37936 0.0
C1604 C 0.96269 0.01987 0.37399 0.0
C1605 C 0.94877 1.00463 0.36509 0.0
C1606 C 0.95099 0.98633 0.36161 0.0
C1607 C 0.96713 0.98322 0.36708 0.0
C1608 C 0.98111 0.99842 0.37597 0.0
C1609 C 0.03432 0.05801 0.46986 0.0
C1610 C 0.03802 0.04095 0.47337 0.0
C1611 C 0.02714 0.05991 0.45202 0.0
C1612 C 0.02345 0.04493 0.4366 0.0
C1613 C 0.02707 0.02786 0.44019 0.0
C1614 C 0.03417 0.02593 0.45803 0.0
C1615 C 0.01566 0.04683 0.41707 0.0
C1616 C 1.00192 0.03195 0.4065 0.0
C1617 C 0.02144 0.06319 0.40868 0.0
C1618 C 0.03685 0.07889 0.41751 0.0
C1619 C 0.05301 0.07521 0.42225 0.0
C1620 C 0.06755 0.09006 0.4305 0.0
C1621 C 0.06613 0.10868 0.43393 0.0
C1622 C 0.05016 0.1125 0.42917 0.0
C1623 C 0.03557 0.0977 0.42092 0.0
H1624 H 0.07744 0.12015 0.44023 0.0
H1625 H 0.94019 0.97455 0.35472 0.0
H1626 H 0.30954 0.70862 0.56125 0.0
H1627 H 0.31167 0.73342 0.58787 0.0
H1628 H 0.29177 0.69056 0.6202 0.0
H1629 H 0.28959 0.66567 0.59372 0.0
H1630 H 0.27505 0.71947 0.62276 0.0
H1631 H 0.33416 0.71263 0.62648 0.0
H1632 H 0.36207 0.71265 0.61468 0.0
H1633 H 0.36927 0.77065 0.60745 0.0
H1634 H 0.34127 0.77089 0.619 0.0
H1635 H 0.29716 0.75555 0.71586 0.0
H1636 H 0.29384 0.73953 0.68416 0.0
H1637 H 0.31774 0.79271 0.66756 0.0
H1638 H 0.32141 0.80901 0.69983 0.0
H1639 H 0.33129 0.76418 0.65328 0.0
H1640 H 0.27447 0.77255 0.65501 0.0
H1641 H 0.24737 0.7726 0.66853 0.0
H1642 H 0.23578 0.7122 0.66587 0.0
H1643 H 0.26295 0.7118 0.65264 0.0
C1644 C 0.30571 0.70445 0.57406 0.0
C1645 C 0.29939 0.68515 0.57537 0.0
C1646 C 0.30695 0.71865 0.58924 0.0
C1647 C 0.30185 0.7138 0.60595 0.0
C1648 C 0.29568 0.69458 0.60736 0.0
C1649 C 0.29455 0.68037 0.59225 0.0
C1650 C 0.30278 0.72866 0.62206 0.0
C1651 C 0.28733 0.72924 0.62948 0.0
C1652 C 0.31872 0.74186 0.63034 0.0
C1653 C 0.33552 0.74169 0.62336 0.0
C1654 C 0.34161 0.72533 0.6222 0.0
C1655 C 0.35746 0.7253 0.6156 0.0
C1656 C 0.36741 0.74162 0.61025 0.0
C1657 C 0.36154 0.75801 0.61155 0.0
C1658 C 0.34568 0.7581 0.61813 0.0
C1659 C 0.30152 0.76396 0.70548 0.0
C1660 C 0.30945 0.78356 0.71027 0.0
C1661 C 0.29955 0.75476 0.68731 0.0
C1662 C 0.30526 0.76497 0.67343 0.0
C1663 C 0.31313 0.78462 0.67808 0.0
C1664 C 0.31516 0.7939 0.69643 0.0
C1665 C 0.30364 0.75455 0.65437 0.0
C1666 C 0.31892 0.75479 0.64633 0.0
C1667 C 0.28752 0.74213 0.64546 0.0
C1668 C 0.27081 0.74216 0.65285 0.0
C1669 C 0.26617 0.75928 0.65735 0.0
C1670 C 0.2508 0.75937 0.66499 0.0
C1671 C 0.23987 0.74242 0.66808 0.0
C1672 C 0.24425 0.72532 0.66346 0.0
C1673 C 0.25963 0.72515 0.65585 0.0
H1674 H 0.22801 0.74253 0.67404 0.0
H1675 H 0.37968 0.74158 0.60516 0.0
H1676 H 0.66666 0.01785 0.80488 0.0
H1677 H 0.6579 1.01186 0.8348 0.0
H1678 H 0.61065 0.02843 0.82156 0.0
H1679 H 0.61964 0.03509 0.79197 0.0
H1680 H 0.62413 0.04345 0.85548 0.0
H1681 H 0.61209 0.98043 0.81835 0.0
H1682 H 0.62026 0.95461 0.79915 0.0
H1683 H 0.65806 0.95305 0.8439 0.0
H1684 H 0.65026 0.97905 0.86327 0.0
H1685 H 0.56563 0.9768 0.90461 0.0
H1686 H 0.58468 0.98011 0.88062 0.0
H1687 H 0.62257 0.02587 0.91739 0.0
H1688 H 0.60327 0.02317 0.94121 0.0
H1689 H 0.61786 0.98043 0.87422 0.0
H1690 H 0.63528 0.06135 0.89314 0.0
H1691 H 0.62494 0.08633 0.91108 0.0
H1692 H 0.57239 0.05037 0.89997 0.0
H1693 H 0.58239 0.02531 0.88179 0.0
C1694 C 0.65439 0.0202 0.80836 0.0
C1695 C 0.64379 0.0269 0.79607 0.0
C1696 C 0.64939 0.01671 0.82544 0.0
C1697 C 0.63353 0.01951 0.83037 0.0
C1698 C 0.62298 0.02623 0.8181 0.0
C1699 C 0.62808 0.02997 0.80115 0.0
C1700 C 0.62774 0.01546 0.84824 0.0
C1701 C 0.62292 0.02971 0.85962 0.0
C1702 C 0.62619 0.99757 0.85373 0.0
C1703 C 0.6307 0.98178 0.84218 0.0
C1704 C 0.62221 0.97464 0.82405 0.0
C1705 C 0.62677 0.95998 0.81314 0.0
C1706 C 0.63972 0.95224 0.82028 0.0
C1707 C 0.64808 0.9591 0.83837 0.0
C1708 C 0.64358 0.97378 0.84932 0.0
C1709 C 0.57815 0.98735 0.90771 0.0
C1710 C 0.58276 0.99996 0.92468 0.0
C1711 C 0.58911 0.9891 0.89404 0.0
C1712 C 0.60487 1.00347 0.89711 0.0
C1713 C 0.61034 0.01483 0.91467 0.0
C1714 C 0.59932 0.01318 0.92833 0.0
C1715 C 0.614 1.00831 0.88118 0.0
C1716 C 0.61946 0.99427 0.87022 0.0
C1717 C 0.61586 0.02629 0.87584 0.0
C1718 C 0.60962 0.04142 0.88631 0.0
C1719 C 0.62151 0.05883 0.89448 0.0
C1720 C 0.61572 0.07299 0.90469 0.0
C1721 C 0.59803 0.06991 0.90671 0.0
C1722 C 0.58609 0.05272 0.89844 0.0
C1723 C 0.59181 0.03854 0.88819 0.0
H1724 H 0.59358 0.08087 0.91466 0.0
H1725 H 0.64325 0.9409 0.81182 0.0
H1726 H 0.30983 0.40739 0.11124 0.0
H1727 H 0.30744 0.39516 0.1401 0.0
H1728 H 0.30919 0.34025 0.11235 0.0
H1729 H 0.31207 0.3526 0.08338 0.0
H1730 H 0.28481 0.37007 0.15187 0.0
H1731 H 0.32724 0.31707 0.14229 0.0
H1732 H 0.35248 0.31317 0.12673 0.0
H1733 H 0.36997 0.37348 0.12892 0.0
H1734 H 0.34497 0.37776 0.1447 0.0
H1735 H 0.26946 0.30909 0.21731 0.0
H1736 H 0.27363 0.32262 0.18932 0.0
H1737 H 0.3278 0.34923 0.21082 0.0
H1738 H 0.32375 0.335 0.2388 0.0
H1739 H 0.32576 0.3357 0.17575 0.0
H1740 H 0.29546 0.37417 0.20973 0.0
H1741 H 0.27211 0.38068 0.22714 0.0
H1742 H 0.23399 0.35539 0.17938 0.0
H1743 H 0.25702 0.34826 0.16176 0.0
C1744 C 0.30969 0.39268 0.11118 0.0
C1745 C 0.31121 0.38104 0.09484 0.0
C1746 C 0.30828 0.38567 0.12779 0.0
C1747 C 0.30833 0.36679 0.12866 0.0
C1748 C 0.30947 0.35498 0.11228 0.0
C1749 C 0.311 0.36204 0.09563 0.0
C1750 C 0.3071 0.3596 0.14668 0.0
C1751 C 0.29378 0.36253 0.15702 0.0
C1752 C 0.31897 0.3501 0.15383 0.0
C1753 C 0.33413 0.3477 0.1445 0.0
C1754 C 0.33651 0.3295 0.1395 0.0
C1755 C 0.35077 0.32722 0.13063 0.0
C1756 C 0.36279 0.34306 0.12678 0.0
C1757 C 0.36061 0.36122 0.13185 0.0
C1758 C 0.34639 0.36358 0.14073 0.0
C1759 C 0.28228 0.31787 0.21616 0.0
C1760 C 0.29626 0.32101 0.23037 0.0
C1761 C 0.28464 0.32571 0.2001 0.0
C1762 C 0.30098 0.33728 0.1979 0.0
C1763 C 0.31503 0.34041 0.21209 0.0
C1764 C 0.3127 0.33237 0.22815 0.0
C1765 C 0.30328 0.34588 0.18073 0.0
C1766 C 0.31679 0.34322 0.17057 0.0
C1767 C 0.29184 0.35605 0.17395 0.0
C1768 C 0.27797 0.36055 0.18445 0.0
C1769 C 0.28209 0.36988 0.20296 0.0
C1770 C 0.26891 0.3737 0.21287 0.0
C1771 C 0.25159 0.36848 0.20438 0.0
C1772 C 0.24741 0.35943 0.18594 0.0
C1773 C 0.26052 0.35548 0.17598 0.0
H1774 H 0.24142 0.37146 0.2121 0.0
H1775 H 0.37381 0.34126 0.11991 0.0
H1776 H 0.24601 0.94955 0.98252 0.0
H1777 H 0.21905 0.95987 0.98016 0.0
H1778 H 0.23182 0.98751 0.03722 0.0
H1779 H 0.25842 0.97717 0.03974 0.0
H1780 H 0.19765 0.96923 0.02924 0.0
H1781 H 0.24141 1.01208 1.00203 0.0
H1782 H 0.2619 0.01977 0.97948 0.0
H1783 H 0.21982 0.99696 0.93487 0.0
H1784 H 0.19911 0.98893 0.95719 0.0
H1785 H 0.17271 0.05402 0.04504 0.0
H1786 H 0.18994 0.03172 0.03718 0.0
H1787 H 0.15134 1.00249 0.99046 0.0
H1788 H 0.13336 0.02402 0.99878 0.0
H1789 H 0.19222 0.0146 0.98699 0.0
H1790 H 0.14756 0.97784 0.01614 0.0
H1791 H 0.12799 0.97236 0.0399 0.0
H1792 H 0.17238 0.98492 0.08176 0.0
H1793 H 0.19224 0.99084 0.0583 0.0
C1794 C 0.24294 0.95767 0.99458 0.0
C1795 C 0.25439 0.96267 0.01128 0.0
C1796 C 0.22758 0.96357 0.9932 0.0
C1797 C 0.22351 0.97453 1.00849 0.0
C1798 C 0.23467 0.97899 0.02528 0.0
C1799 C 0.24995 0.97315 0.02665 0.0
C1800 C 0.20825 0.98247 1.00711 0.0
C1801 C 0.19637 0.97902 0.0199 0.0
C1802 C 0.20634 0.99489 0.99461 0.0
C1803 C 0.21878 0.99966 0.98123 0.0
C1804 C 0.23657 1.00855 0.9874 0.0
C1805 C 0.24821 0.013 0.97467 0.0
C1806 C 0.24218 1.00879 0.95575 0.0
C1807 C 0.22448 1.00017 0.94953 0.0
C1808 C 0.21279 0.99566 0.9622 0.0
C1809 C 0.16775 0.04279 0.03318 0.0
C1810 C 0.15153 0.04074 0.02269 0.0
C1811 C 0.17767 0.03015 0.02866 0.0
C1812 C 0.17174 0.01545 0.0134 0.0
C1813 C 0.15602 0.01379 1.00232 0.0
C1814 C 0.14588 0.02623 1.00703 0.0
C1815 C 0.1821 1.00178 1.00949 0.0
C1816 C 0.19311 1.00425 0.99582 0.0
C1817 C 0.18328 0.98854 0.02125 0.0
C1818 C 0.1714 0.985 0.03546 0.0
C1819 C 0.15316 0.97967 0.03044 0.0
C1820 C 0.14201 0.97645 0.04385 0.0
C1821 C 0.14894 0.97842 0.06234 0.0
C1822 C 0.16703 0.98349 0.06744 0.0
C1823 C 0.17824 0.98676 0.05408 0.0
H1824 H 0.14029 0.97589 0.0727 0.0
H1825 H 0.25121 1.01225 0.94591 0.0
H1826 H 0.74777 0.62778 0.01968 0.0
H1827 H 0.71854 0.60766 0.02035 0.0
H1828 H 0.69618 0.64273 0.98876 0.0
H1829 H 0.72541 0.66328 0.98851 0.0
H1830 H 0.67798 0.63574 0.01537 0.0
H1831 H 0.69786 0.5965 0.96992 0.0
H1832 H 0.71788 0.57937 0.95652 0.0
H1833 H 0.71348 0.54563 0.99947 0.0
H1834 H 0.69361 0.56274 0.01327 0.0
H1835 H 0.59233 0.5712 1.00357 0.0
H1836 H 0.62029 0.59144 0.99842 0.0
H1837 H 0.64769 0.55966 0.02921 0.0
H1838 H 0.61973 0.53902 0.03371 0.0
H1839 H 0.66246 0.56542 1.00037 0.0
H1840 H 0.64265 0.60651 0.04608 0.0
H1841 H 0.62261 0.62428 0.0584 0.0
H1842 H 0.62626 0.6548 0.013 0.0
H1843 H 0.6461 0.63699 1.00023 0.0
C1844 C 0.73668 0.63111 0.01265 0.0
C1845 C 0.73905 0.64718 1.00399 0.0
C1846 C 0.71989 0.61952 0.013 0.0
C1847 C 0.70501 0.62346 1.00444 0.0
C1848 C 0.70737 0.63932 0.9955 0.0
C1849 C 0.72415 0.65103 0.99528 0.0
C1850 C 0.68703 0.61148 1.00541 0.0
C1851 C 0.67452 0.62036 0.0118 0.0
C1852 C 0.68243 0.59137 1.00099 0.0
C1853 C 0.69436 0.58102 0.99272 0.0
C1854 C 0.70126 0.58553 0.97658 0.0
C1855 C 0.71257 0.5758 0.9689 0.0
C1856 C 0.71698 0.56145 0.97716 0.0
C1857 C 0.71006 0.55676 0.99309 0.0
C1858 C 0.69876 0.56645 1.00084 0.0
C1859 C 0.60434 0.56862 1.00929 0.0
C1860 C 0.60386 0.55357 0.01909 0.0
C1861 C 0.62036 0.58027 1.00642 0.0
C1862 C 0.63627 0.57736 0.01364 0.0
C1863 C 0.6357 0.56228 0.02345 0.0
C1864 C 0.6197 0.55049 0.02608 0.0
C1865 C 0.65352 0.58963 1.01075 0.0
C1866 C 0.66589 0.58079 1.0039 0.0
C1867 C 0.65789 0.60979 0.01456 0.0
C1868 C 0.64577 0.6203 0.02213 0.0
C1869 C 0.63906 0.61688 0.03863 0.0
C1870 C 0.62776 0.62698 0.04571 0.0
C1871 C 0.62323 0.64068 0.03651 0.0
C1872 C 0.62983 0.6442 0.02012 0.0
C1873 C 0.6411 0.63411 0.01296 0.0
H1874 H 0.61469 0.64867 0.04215 0.0
H1875 H 0.72573 0.55394 0.97119 0.0
H1876 H 0.69817 0.45851 0.28744 0.0
H1877 H 0.71039 0.43115 0.2854 0.0
H1878 H 0.75017 0.4592 0.25554 0.0
H1879 H 0.73705 0.48598 0.25649 0.0
H1880 H 0.74735 0.42676 0.24252 0.0
H1881 H 0.75367 0.44859 0.30735 0.0
H1882 H 0.74532 0.45809 0.33791 0.0
H1883 H 0.70963 0.40289 0.33342 0.0
H1884 H 0.71762 0.39313 0.30274 0.0
H1885 H 0.80344 0.36469 0.26158 0.0
H1886 H 0.79004 0.39138 0.26282 0.0
H1887 H 0.74061 0.35392 0.26809 0.0
H1888 H 0.75384 0.32701 0.26617 0.0
H1889 H 0.7487 0.39043 0.29375 0.0
H1890 H 0.74592 0.36947 0.2284 0.0
H1891 H 0.75819 0.36142 0.19983 0.0
H1892 H 0.7922 0.41798 0.20821 0.0
H1893 H 0.7803 0.42629 0.23699 0.0
C1894 C 0.70957 0.45902 0.28045 0.0
C1895 C 0.71642 0.47507 0.27227 0.0
C1896 C 0.71689 0.44312 0.27945 0.0
C1897 C 0.73196 0.44244 0.27074 0.0
C1898 C 0.73872 0.45854 0.26247 0.0
C1899 C 0.73114 0.47424 0.2631 0.0
C1900 C 0.74034 0.42521 0.26987 0.0
C1901 C 0.74773 0.41922 0.25403 0.0
C1902 C 0.74118 0.41433 0.2844 0.0
C1903 C 0.73608 0.42022 0.30265 0.0
C1904 C 0.74393 0.43854 0.31282 0.0
C1905 C 0.73928 0.44396 0.33017 0.0
C1906 C 0.72691 0.43112 0.33757 0.0
C1907 C 0.71918 0.41283 0.32765 0.0
C1908 C 0.72376 0.40735 0.31028 0.0
C1909 C 0.78967 0.36193 0.26289 0.0
C1910 C 0.77997 0.34315 0.26364 0.0
C1911 C 0.78189 0.37746 0.26361 0.0
C1912 C 0.76401 0.37529 0.26559 0.0
C1913 C 0.75434 0.35657 0.2666 0.0
C1914 C 0.76202 0.34092 0.26539 0.0
C1915 C 0.75557 0.39228 0.26655 0.0
C1916 C 0.74823 0.39813 0.28236 0.0
C1917 C 0.75524 0.40338 0.25227 0.0
C1918 C 0.76234 0.39844 0.23495 0.0
C1919 C 0.75612 0.38014 0.22424 0.0
C1920 C 0.76298 0.37554 0.20799 0.0
C1921 C 0.776 0.38917 0.20223 0.0
C1922 C 0.78214 0.40744 0.2127 0.0
C1923 C 0.77532 0.4121 0.22897 0.0
H1924 H 0.7813 0.38558 0.18965 0.0
H1925 H 0.72335 0.43534 0.35102 0.0
H1926 H 0.85566 0.43844 0.49598 0.0
H1927 H 0.88746 0.44907 0.50191 0.0
H1928 H 0.88471 0.50103 0.53524 0.0
H1929 H 0.85278 0.49068 0.52898 0.0
H1930 H 0.90935 0.50815 0.51385 0.0
H1931 H 0.89404 0.46469 0.55526 0.0
H1932 H 0.8794 0.4346 0.56467 0.0
H1933 H 0.90665 0.40456 0.52889 0.0
H1934 H 0.92127 0.43443 0.51905 0.0
H1935 H 0.99965 0.53303 0.54814 0.0
H1936 H 0.96829 0.52219 0.54982 0.0
H1937 H 0.96375 0.47378 0.50753 0.0
H1938 H 0.99503 0.48462 0.50552 0.0
H1939 H 0.94309 0.46622 0.53713 0.0
H1940 H 0.95709 0.5105 0.49484 0.0
H1941 H 0.97135 0.54101 0.48601 0.0
H1942 H 0.94597 0.5702 0.52476 0.0
H1943 H 0.93167 0.53981 0.53394 0.0
C1944 C 0.86179 0.45218 0.50451 0.0
C1945 C 0.85169 0.46368 0.51209 0.0
C1946 C 0.87998 0.45816 0.508 0.0
C1947 C 0.88844 0.47564 0.51937 0.0
C1948 C 0.87843 0.48742 0.52654 0.0
C1949 C 0.86019 0.4815 0.52292 0.0
C1950 C 0.90776 0.48167 0.52349 0.0
C1951 C 0.91671 0.49915 0.51929 0.0
C1952 C 0.91736 0.46979 0.53036 0.0
C1953 C 0.90865 0.45179 0.53631 0.0
C1954 C 0.89682 0.45164 0.54929 0.0
C1955 C 0.88854 0.43463 0.55472 0.0
C1956 C 0.89207 0.41767 0.54736 0.0
C1957 C 0.90392 0.4177 0.53458 0.0
C1958 C 0.91223 0.43467 0.52908 0.0
C1959 C 0.99208 0.51978 0.5396 0.0
C1960 C 0.9997 0.50965 0.52664 0.0
C1961 C 0.97418 0.51371 0.54051 0.0
C1962 C 0.96378 0.49736 0.52867 0.0
C1963 C 0.97162 0.48646 0.51675 0.0
C1964 C 0.98943 0.49267 0.5156 0.0
C1965 C 0.94455 0.49256 0.52733 0.0
C1966 C 0.93566 0.47531 0.53198 0.0
C1967 C 0.935 0.50472 0.52101 0.0
C1968 C 0.94364 0.52294 0.51543 0.0
C1969 C 0.95474 0.52344 0.50168 0.0
C1970 C 0.96274 0.5407 0.49651 0.0
C1971 C 0.9596 0.55754 0.50486 0.0
C1972 C 0.94842 0.55715 0.51835 0.0
C1973 C 0.94038 0.53992 0.52354 0.0
H1974 H 0.96582 0.57089 0.50086 0.0
H1975 H 0.88564 0.40451 0.55158 0.0
H1976 H 0.39598 0.10571 0.27571 0.0
H1977 H 0.38558 0.13356 0.27336 0.0
H1978 H 0.41471 0.16131 0.32661 0.0
H1979 H 0.42513 0.13305 0.3292 0.0
H1980 H 0.3823 0.16429 0.32465 0.0
H1981 H 0.42685 0.17837 0.28757 0.0
H1982 H 0.44597 0.17421 0.26384 0.0
H1983 H 0.40189 0.15973 0.22133 0.0
H1984 H 0.38243 0.16335 0.24483 0.0
H1985 H 0.34039 0.23576 0.30074 0.0
H1986 H 0.36474 0.22231 0.30845 0.0
H1987 H 0.34199 0.17409 0.26504 0.0
H1988 H 0.31727 0.18701 0.25783 0.0
H1989 H 0.37913 0.1908 0.2668 0.0
H1990 H 0.33473 0.17062 0.30685 0.0
H1991 H 0.31675 0.17681 0.33122 0.0
H1992 H 0.36312 0.20549 0.36916 0.0
H1993 H 0.38138 0.19986 0.34487 0.0
C1994 C 0.40033 0.11775 0.28691 0.0
C1995 C 0.41133 0.11715 0.30269 0.0
C1996 C 0.39451 0.13379 0.28544 0.0
C1997 C 0.39965 0.14968 0.29963 0.0
C1998 C 0.41074 0.14925 0.31541 0.0
C1999 C 0.41663 0.13311 0.31689 0.0
C2000 C 0.3919 0.16577 0.2984 0.0
C2001 C 0.38204 0.17053 0.31223 0.0
C2002 C 0.39159 0.17398 0.28223 0.0
C2003 C 0.40315 0.17113 0.26802 0.0
C2004 C 0.42119 0.1741 0.27319 0.0
C2005 C 0.4321 0.17186 0.25976 0.0
C2006 C 0.42515 0.16672 0.24109 0.0
C2007 C 0.40727 0.16374 0.2358 0.0
C2008 C 0.39629 0.1659 0.24917 0.0
C2009 C 0.34047 0.22213 0.29307 0.0
C2010 C 0.32674 0.21215 0.27902 0.0
C2011 C 0.35446 0.21463 0.29733 0.0
C2012 C 0.35502 0.1972 0.28738 0.0
C2013 C 0.34173 0.18761 0.27284 0.0
C2014 C 0.32764 0.19497 0.26874 0.0
C2015 C 0.36891 0.18825 0.29248 0.0
C2016 C 0.37992 0.18498 0.27942 0.0
C2017 C 0.37045 0.18165 0.30944 0.0
C2018 C 0.35942 0.18506 0.32397 0.0
C2019 C 0.34109 0.17845 0.32032 0.0
C2020 C 0.33085 0.18181 0.33414 0.0
C2021 C 0.33879 0.19153 0.35173 0.0
C2022 C 0.35699 0.19793 0.35554 0.0
C2023 C 0.36729 0.19471 0.34174 0.0
H2024 H 0.33084 0.19416 0.3624 0.0
H2025 H 0.43363 0.16505 0.23072 0.0
H2026 H 0.34156 0.16351 0.4873 0.0
H2027 H 0.36732 0.15102 0.48668 0.0
H2028 H 0.35367 0.12395 0.53322 0.0
H2029 H 0.32806 0.13633 0.53394 0.0
H2030 H 0.38788 0.14277 0.53825 0.0
H2031 H 0.34738 0.09862 0.48919 0.0
H2032 H 0.32741 0.08919 0.45984 0.0
H2033 H 0.36934 0.11365 0.43092 0.0
H2034 H 0.38952 0.12347 0.46015 0.0
H2035 H 0.44204 0.08087 0.54041 0.0
H2036 H 0.41755 0.095 0.53803 0.0
H2037 H 0.43357 0.11514 0.48869 0.0
H2038 H 0.45806 0.1007 0.49087 0.0
H2039 H 0.39953 0.10212 0.4839 0.0
H2040 H 0.44034 0.14544 0.53175 0.0
H2041 H 0.46089 0.15563 0.56068 0.0
H2042 H 0.41935 0.13437 0.59143 0.0
H2043 H 0.39857 0.12381 0.56264 0.0
C2044 C 0.34398 0.15479 0.49732 0.0
C2045 C 0.33266 0.15093 0.51065 0.0
C2046 C 0.35872 0.1476 0.49692 0.0
C2047 C 0.36249 0.13643 0.50986 0.0
C2048 C 0.35114 0.13253 0.5231 0.0
C2049 C 0.33641 0.13959 0.52344 0.0
C2050 C 0.37842 0.12914 0.51007 0.0
C2051 C 0.3903 0.13371 0.52641 0.0
C2052 C 0.38204 0.11785 0.49446 0.0
C2053 C 0.3699 0.112 0.4769 0.0
C2054 C 0.3523 0.10216 0.4766 0.0
C2055 C 0.34095 0.09671 0.45998 0.0
C2056 C 0.34708 0.10088 0.44353 0.0
C2057 C 0.3646 0.11047 0.44367 0.0
C2058 C 0.376 0.11597 0.46026 0.0
C2059 C 0.44052 0.0885 0.52916 0.0
C2060 C 0.45219 0.08977 0.51595 0.0
C2061 C 0.42645 0.09661 0.5278 0.0
C2062 C 0.42376 0.10652 0.51336 0.0
C2063 C 0.43529 0.10764 0.5 0.0
C2064 C 0.44932 0.09937 0.50127 0.0
C2065 C 0.40883 0.11547 0.51222 0.0
C2066 C 0.39718 0.11127 0.49572 0.0
C2067 C 0.40549 0.12728 0.52763 0.0
C2068 C 0.41793 0.13369 0.545 0.0
C2069 C 0.4356 0.14282 0.54466 0.0
C2070 C 0.44729 0.14868 0.56104 0.0
C2071 C 0.44144 0.14561 0.57788 0.0
C2072 C 0.42387 0.13672 0.57837 0.0
C2073 C 0.41212 0.13081 0.56203 0.0
H2074 H 0.45051 0.15016 0.59054 0.0
H2075 H 0.33828 0.09664 0.43068 0.0
H2076 H 0.69282 0.59822 0.30033 0.0
H2077 H 0.70811 0.63072 0.29796 0.0
H2078 H 0.75054 0.61114 0.27795 0.0
H2079 H 0.73511 0.57829 0.28013 0.0
H2080 H 0.76364 0.64483 0.30206 0.0
H2081 H 0.71963 0.62426 0.24895 0.0
H2082 H 0.68966 0.61114 0.2325 0.0
H2083 H 0.67371 0.65682 0.26251 0.0
H2084 H 0.70353 0.67007 0.27934 0.0
H2085 H 0.80791 0.72916 0.27291 0.0
H2086 H 0.79157 0.69701 0.27466 0.0
H2087 H 0.74672 0.71705 0.28595 0.0
H2088 H 0.76312 0.74959 0.28334 0.0
H2089 H 0.73422 0.68323 0.26698 0.0
H2090 H 0.7768 0.70376 0.32054 0.0
H2091 H 0.80604 0.71705 0.33866 0.0
H2092 H 0.82382 0.67193 0.31021 0.0
H2093 H 0.79474 0.65849 0.29174 0.0
C2094 C 0.70547 0.60063 0.29552 0.0
C2095 C 0.71252 0.58508 0.29053 0.0
C2096 C 0.71425 0.6195 0.294 0.0
C2097 C 0.73063 0.62394 0.28749 0.0
C2098 C 0.73798 0.60855 0.28296 0.0
C2099 C 0.72906 0.58955 0.28426 0.0
C2100 C 0.73991 0.64443 0.28548 0.0
C2101 C 0.7572 0.65302 0.29412 0.0
C2102 C 0.73168 0.65592 0.27573 0.0
C2103 C 0.71378 0.64806 0.26554 0.0
C2104 C 0.7097 0.63143 0.25214 0.0
C2105 C 0.69274 0.62398 0.24273 0.0
C2106 C 0.67978 0.63312 0.24649 0.0
C2107 C 0.68376 0.64975 0.25963 0.0
C2108 C 0.70069 0.65724 0.2691 0.0
C2109 C 0.79452 0.72689 0.2757 0.0
C2110 C 0.78708 0.74241 0.27802 0.0
C2111 C 0.7851 0.70822 0.27693 0.0
C2112 C 0.76777 0.70399 0.28109 0.0
C2113 C 0.76003 0.71942 0.28291 0.0
C2114 C 0.76948 0.73824 0.28139 0.0
C2115 C 0.75809 0.68367 0.28347 0.0
C2116 C 0.74071 0.67509 0.27493 0.0
C2117 C 0.76614 0.67223 0.29356 0.0
C2118 C 0.78364 0.68023 0.30464 0.0
C2119 C 0.78698 0.69674 0.31807 0.0
C2120 C 0.80352 0.70429 0.32841 0.0
C2121 C 0.81679 0.69536 0.32555 0.0
C2122 C 0.81353 0.67884 0.31239 0.0
C2123 C 0.79702 0.67124 0.30199 0.0
H2124 H 0.82959 0.70123 0.33358 0.0
H2125 H 0.66666 0.62733 0.2392 0.0
H2126 H 0.89647 0.51228 0.80715 0.0
H2127 H 0.88188 0.47911 0.80628 0.0
H2128 H 0.93159 0.46576 0.80958 0.0
H2129 H 0.94651 0.49931 0.81009 0.0
H2130 H 0.90793 0.44068 0.78351 0.0
H2131 H 0.90982 0.46508 0.84671 0.0
H2132 H 0.90699 0.48732 0.87383 0.0
H2133 H 0.85186 0.47509 0.85637 0.0
H2134 H 0.85438 0.45298 0.82899 0.0
H2135 H 0.84434 0.35679 0.8177 0.0
H2136 H 0.86549 0.38784 0.82405 0.0
H2137 H 0.85341 0.39507 0.76776 0.0
H2138 H 0.83261 0.36355 0.76109 0.0
H2139 H 0.86311 0.42154 0.82441 0.0
H2140 H 0.88848 0.42129 0.75294 0.0
H2141 H 0.8932 0.39813 0.72766 0.0
H2142 H 0.89796 0.36011 0.76551 0.0
H2143 H 0.89351 0.38314 0.79106 0.0
C2144 C 0.90441 0.50241 0.80782 0.0
C2145 C 0.92269 0.50848 0.80871 0.0
C2146 C 0.89601 0.48341 0.80742 0.0
C2147 C 0.90566 0.47002 0.80815 0.0
C2148 C 0.92393 0.47593 0.8091 0.0
C2149 C 0.93242 0.49507 0.80945 0.0
C2150 C 0.8963 0.44982 0.80714 0.0
C2151 C 0.89825 0.4364 0.79255 0.0
C2152 C 0.88396 0.4442 0.81922 0.0
C2153 C 0.88232 0.45742 0.83573 0.0
C2154 C 0.89711 0.46722 0.84858 0.0
C2155 C 0.89555 0.47979 0.86401 0.0
C2156 C 0.87926 0.48263 0.86681 0.0
C2157 C 0.86447 0.47287 0.85419 0.0
C2158 C 0.86595 0.46029 0.83873 0.0
C2159 C 0.84609 0.36501 0.80667 0.0
C2160 C 0.83682 0.35773 0.78887 0.0
C2161 C 0.85824 0.38276 0.81033 0.0
C2162 C 0.86126 0.39366 0.79632 0.0
C2163 C 0.85161 0.38669 0.77867 0.0
C2164 C 0.83961 0.36877 0.77491 0.0
C2165 C 0.87426 0.4125 0.80035 0.0
C2166 C 0.87296 0.42567 0.81552 0.0
C2167 C 0.88752 0.4177 0.78912 0.0
C2168 C 0.89052 0.4039 0.77389 0.0
C2169 C 0.89063 0.40804 0.75589 0.0
C2170 C 0.89324 0.39492 0.74151 0.0
C2171 C 0.89583 0.37764 0.74496 0.0
C2172 C 0.89589 0.37347 0.76283 0.0
C2173 C 0.89331 0.38655 0.77727 0.0
H2174 H 0.89782 0.3675 0.7338 0.0
H2175 H 0.87808 0.49238 0.87876 0.0
H2176 H 0.10292 0.86567 0.07938 0.0
H2177 H 0.09792 0.893 0.06675 0.0
H2178 H 0.07193 0.9073 0.11328 0.0
H2179 H 0.07618 0.87942 0.12546 0.0
H2180 H 0.05484 0.91341 0.08613 0.0
H2181 H 0.1164 0.93262 0.106 0.0
H2182 H 0.14708 0.93122 0.10832 0.0
H2183 H 0.14604 0.92988 0.04988 0.0
H2184 H 0.1153 0.93105 0.04718 0.0
H2185 H 0.08832 0.01576 0.06149 0.0
H2186 H 0.09432 0.98857 0.07363 0.0
H2187 H 0.04752 0.95167 0.04051 0.0
H2188 H 0.0411 0.97892 0.02895 0.0
H2189 H 0.10154 0.95789 0.06215 0.0
H2190 H 0.02975 0.91417 0.05973 0.0
H2191 H 1.00067 0.9196 0.0619 0.0
H2192 H 0.02456 0.97541 0.09322 0.0
H2193 H 0.05375 0.97022 0.09144 0.0
C2194 C 0.09613 0.87463 0.08695 0.0
C2195 C 0.08999 0.87025 0.10351 0.0
C2196 C 0.09339 0.89046 0.07976 0.0
C2197 C 0.08479 0.90272 0.0891 0.0
C2198 C 0.0786 0.89826 0.10564 0.0
C2199 C 0.08108 0.88225 0.11267 0.0
C2200 C 0.08182 0.91981 0.08152 0.0
C2201 C 0.06514 0.92307 0.08091 0.0
C2202 C 0.09514 0.93289 0.07486 0.0
C2203 C 0.11348 0.93168 0.07636 0.0
C2204 C 0.12266 0.93182 0.09361 0.0
C2205 C 0.14007 0.93111 0.095 0.0
C2206 C 0.14848 0.93039 0.07925 0.0
C2207 C 0.13949 0.93034 0.06206 0.0
C2208 C 0.12208 0.93104 0.0606 0.0
C2209 C 0.0793 1.00185 0.05673 0.0
C2210 C 0.06411 0.99969 0.0443 0.0
C2211 C 0.08277 0.98621 0.0637 0.0
C2212 C 0.07124 0.96789 0.0584 0.0
C2213 C 0.05645 0.9656 0.04538 0.0
C2214 C 0.05283 0.98127 0.03861 0.0
C2215 C 0.07457 0.95133 0.06665 0.0
C2216 C 0.09128 0.94817 0.06734 0.0
C2217 C 0.06144 0.93869 0.07394 0.0
C2218 C 0.04393 0.94186 0.07528 0.0
C2219 C 0.02879 0.92757 0.06714 0.0
C2220 C 0.01229 0.93061 0.06829 0.0
C2221 C 0.01077 0.94786 0.07763 0.0
C2222 C 0.02575 0.96208 0.08592 0.0
C2223 C 0.04228 0.9591 0.08484 0.0
H2224 H 0.99799 0.9502 0.07849 0.0
H2225 H 0.16198 0.92992 0.08036 0.0
H2226 H 0.97174 0.24977 0.85821 0.0
H2227 H 0.94537 0.25239 0.8402 0.0
H2228 H 0.93897 0.29374 0.8848 0.0
H2229 H 0.96479 0.29047 0.90313 0.0
H2230 H 0.90902 0.27288 0.87238 0.0
H2231 H 0.95494 0.30479 0.84204 0.0
H2232 H 0.98126 0.30902 0.82635 0.0
H2233 H 0.9543 0.26256 0.78309 0.0
H2234 H 0.92788 0.2579 0.79865 0.0
H2235 H 0.84716 0.30647 0.81795 0.0
H2236 H 0.87249 0.30299 0.83734 0.0
H2237 H 0.87655 0.25727 0.79594 0.0
H2238 H 0.85145 0.2609 0.77649 0.0
H2239 H 0.90774 0.28105 0.80685 0.0
H2240 H 0.86201 0.2493 0.84013 0.0
H2241 H 0.83707 0.24625 0.8578 0.0
H2242 H 0.86486 0.29663 0.8962 0.0
H2243 H 0.89024 0.29964 0.87905 0.0
C2244 C 0.96471 0.25941 0.8642 0.0
C2245 C 0.97048 0.2699 0.88217 0.0
C2246 C 0.94964 0.26104 0.85379 0.0
C2247 C 0.94015 0.27357 0.86086 0.0
C2248 C 0.94589 0.28395 0.87888 0.0
C2249 C 0.96076 0.28208 0.88939 0.0
C2250 C 0.92414 0.27567 0.84975 0.0
C2251 C 0.90891 0.27494 0.85812 0.0
C2252 C 0.92364 0.27813 0.83101 0.0
C2253 C 0.9395 0.28087 0.82161 0.0
C2254 C 0.95467 0.29538 0.82925 0.0
C2255 C 0.9696 0.29787 0.82037 0.0
C2256 C 0.96947 0.28603 0.80376 0.0
C2257 C 0.95439 0.2717 0.79597 0.0
C2258 C 0.93943 0.26914 0.80481 0.0
C2259 C 0.85335 0.29555 0.81308 0.0
C2260 C 0.8473 0.28401 0.79562 0.0
C2261 C 0.86783 0.29349 0.82424 0.0
C2262 C 0.87654 0.27976 0.81826 0.0
C2263 C 0.87021 0.26801 0.80095 0.0
C2264 C 0.85578 0.27006 0.78983 0.0
C2265 C 0.89266 0.27814 0.82948 0.0
C2266 C 0.90792 0.27899 0.82112 0.0
C2267 C 0.89333 0.27623 0.84834 0.0
C2268 C 0.87788 0.27484 0.85818 0.0
C2269 C 0.8627 0.25986 0.8522 0.0
C2270 C 0.84849 0.25813 0.86215 0.0
C2271 C 0.84924 0.27144 0.87793 0.0
C2272 C 0.86427 0.2864 0.88391 0.0
C2273 C 0.8786 0.28806 0.87416 0.0
H2274 H 0.83827 0.27012 0.88564 0.0
H2275 H 0.98104 0.28798 0.7969 0.0
H2276 H 0.56708 0.25169 0.62981 0.0
H2277 H 0.56351 0.21899 0.61504 0.0
H2278 H 0.59122 0.23887 0.57125 0.0
H2279 H 0.59472 0.27188 0.58592 0.0
H2280 H 0.5642 0.20759 0.55764 0.0
H2281 H 0.61229 0.22451 0.60598 0.0
H2282 H 0.62768 0.23716 0.63758 0.0
H2283 H 0.5915 0.19414 0.65843 0.0
H2284 H 0.57574 0.1814 0.62698 0.0
H2285 H 0.59259 0.11295 0.55916 0.0
H2286 H 0.59713 0.14699 0.56989 0.0
H2287 H 0.54215 0.1408 0.55514 0.0
H2288 H 0.53754 0.10692 0.54409 0.0
H2289 H 0.58581 0.16635 0.59634 0.0
H2290 H 0.53539 0.18039 0.542 0.0
H2291 H 0.52256 0.16815 0.50944 0.0
H2292 H 0.56845 0.15039 0.49852 0.0
H2293 H 0.58159 0.16262 0.53098 0.0
C2294 C 0.57229 0.24921 0.61693 0.0
C2295 C 0.58133 0.26455 0.60918 0.0
C2296 C 0.57028 0.23042 0.60852 0.0
C2297 C 0.57738 0.22637 0.59219 0.0
C2298 C 0.58569 0.24159 0.58389 0.0
C2299 C 0.58768 0.26049 0.59231 0.0
C2300 C 0.57671 0.2063 0.58439 0.0
C2301 C 0.56892 0.19858 0.56611 0.0
C2302 C 0.58325 0.19456 0.59521 0.0
C2303 C 0.59275 0.2021 0.61414 0.0
C2304 C 0.60754 0.21783 0.61732 0.0
C2305 C 0.61635 0.225 0.6352 0.0
C2306 C 0.61055 0.21648 0.65001 0.0
C2307 C 0.59597 0.20073 0.64695 0.0
C2308 C 0.5871 0.19352 0.6291 0.0
C2309 C 0.58144 0.1188 0.55819 0.0
C2310 C 0.56469 0.10708 0.55072 0.0
C2311 C 0.58407 0.13832 0.56436 0.0
C2312 C 0.57004 0.14663 0.56314 0.0
C2313 C 0.55327 0.1349 0.55593 0.0
C2314 C 0.55064 0.11542 0.54972 0.0
C2315 C 0.57286 0.16744 0.56975 0.0
C2316 C 0.58108 0.17532 0.58784 0.0
C2317 C 0.56707 0.17939 0.5586 0.0
C2318 C 0.55941 0.17231 0.53896 0.0
C2319 C 0.54277 0.17396 0.53263 0.0
C2320 C 0.53544 0.16698 0.5142 0.0
C2321 C 0.54467 0.15845 0.50194 0.0
C2322 C 0.56129 0.15693 0.50806 0.0
C2323 C 0.56867 0.16385 0.52648 0.0
H2324 H 0.53894 0.15302 0.4877 0.0
H2325 H 0.61738 0.22205 0.66384 0.0
H2326 H 0.55701 0.78776 0.36017 0.0
H2327 H 0.58293 0.78877 0.3446 0.0
H2328 H 0.60681 0.76858 0.38967 0.0
H2329 H 0.58118 0.76781 0.40541 0.0
H2330 H 0.62986 0.79697 0.38079 0.0
H2331 H 0.59007 0.7397 0.34695 0.0
H2332 H 0.56252 0.71974 0.32858 0.0
H2333 H 0.57017 0.75404 0.28622 0.0
H2334 H 0.59766 0.77436 0.30446 0.0
H2335 H 0.70104 0.77827 0.33671 0.0
H2336 H 0.67439 0.77432 0.35141 0.0
H2337 H 0.65007 0.79571 0.30753 0.0
H2338 H 0.67635 0.79903 0.29245 0.0
H2339 H 0.62734 0.7661 0.31594 0.0
H2340 H 0.6671 0.82369 0.35047 0.0
H2341 H 0.69506 0.8428 0.36868 0.0
H2342 H 0.68762 0.80702 0.40984 0.0
H2343 H 0.65971 0.78754 0.39174 0.0
C2344 C 0.5677 0.78337 0.36671 0.0
C2345 C 0.5669 0.77769 0.38408 0.0
C2346 C 0.58255 0.78391 0.35775 0.0
C2347 C 0.59689 0.77864 0.36586 0.0
C2348 C 0.59601 0.77278 0.3831 0.0
C2349 C 0.58124 0.77228 0.39206 0.0
C2350 C 0.61298 0.77963 0.35669 0.0
C2351 C 0.62929 0.78998 0.36669 0.0
C2352 C 0.61236 0.77085 0.33816 0.0
C2353 C 0.59583 0.75867 0.32716 0.0
C2354 C 0.5858 0.74308 0.33379 0.0
C2355 C 0.57021 0.73168 0.32339 0.0
C2356 C 0.56457 0.73565 0.30627 0.0
C2357 C 0.57454 0.751 0.2995 0.0
C2358 C 0.59014 0.76245 0.30985 0.0
C2359 C 0.68997 0.78197 0.33009 0.0
C2360 C 0.69098 0.78914 0.31344 0.0
C2361 C 0.67476 0.77986 0.33861 0.0
C2362 C 0.66021 0.78496 0.33075 0.0
C2363 C 0.66108 0.79175 0.31395 0.0
C2364 C 0.67624 0.79383 0.30543 0.0
C2365 C 0.64416 0.78347 0.34003 0.0
C2366 C 0.62788 0.77305 0.33006 0.0
C2367 C 0.64481 0.79213 0.35859 0.0
C2368 C 0.6614 0.80406 0.36967 0.0
C2369 C 0.67147 0.81984 0.36336 0.0
C2370 C 0.6873 0.83074 0.37366 0.0
C2371 C 0.69313 0.8261 0.39038 0.0
C2372 C 0.6831 0.81059 0.39687 0.0
C2373 C 0.66726 0.79962 0.38661 0.0
H2374 H 0.7054 0.83454 0.39832 0.0
H2375 H 0.55249 0.72681 0.29824 0.0
H2376 H 0.11708 0.25528 0.3975 0.0
H2377 H 0.11679 0.22772 0.41252 0.0
H2378 H 0.10559 0.25762 0.46256 0.0
H2379 H 0.10595 0.28519 0.44785 0.0
H2380 H 0.13362 0.22119 0.44847 0.0
H2381 H 0.06836 0.22739 0.47171 0.0
H2382 H 0.04399 0.24065 0.46262 0.0
H2383 H 0.05355 0.23242 0.40614 0.0
H2384 H 0.07776 0.21882 0.41485 0.0
H2385 H 0.10648 0.16655 0.51759 0.0
H2386 H 0.11481 0.19086 0.49851 0.0
H2387 H 0.07607 0.15669 0.45374 0.0
H2388 H 0.06779 0.13213 0.47265 0.0
H2389 H 0.0735 0.19261 0.4611 0.0
H2390 H 0.11876 0.16208 0.45068 0.0
H2391 H 0.14277 0.14849 0.46011 0.0
H2392 H 0.17278 0.20329 0.48946 0.0
H2393 H 0.14883 0.21717 0.48044 0.0
C2394 C 0.11499 0.25617 0.41184 0.0
C2395 C 0.11125 0.27232 0.42138 0.0
C2396 C 0.11492 0.24045 0.42041 0.0
C2397 C 0.11099 0.24065 0.43853 0.0
C2398 C 0.10857 0.25723 0.44851 0.0
C2399 C 0.10874 0.27295 0.44004 0.0
C2400 C 0.107 0.22293 0.44623 0.0
C2401 C 0.12051 0.21484 0.4512 0.0
C2402 C 0.0898 0.21456 0.44944 0.0
C2403 C 0.07497 0.22227 0.44397 0.0
C2404 C 0.06519 0.22832 0.45734 0.0
C2405 C 0.05142 0.23591 0.45226 0.0
C2406 C 0.04726 0.23743 0.43383 0.0
C2407 C 0.05682 0.23129 0.42042 0.0
C2408 C 0.07058 0.22367 0.42543 0.0
C2409 C 0.09996 0.16401 0.50356 0.0
C2410 C 0.08645 0.14741 0.49664 0.0
C2411 C 0.10474 0.17793 0.49268 0.0
C2412 C 0.09615 0.17548 0.47467 0.0
C2413 C 0.08285 0.15882 0.46761 0.0
C2414 C 0.07808 0.14487 0.47847 0.0
C2415 C 0.10017 0.19093 0.46376 0.0
C2416 C 0.08662 0.19871 0.45822 0.0
C2417 C 0.11729 0.19883 0.45993 0.0
C2418 C 0.13193 0.19065 0.46497 0.0
C2419 C 0.13044 0.17123 0.45922 0.0
C2420 C 0.14404 0.16347 0.46449 0.0
C2421 C 0.15928 0.17501 0.47541 0.0
C2422 C 0.16097 0.19436 0.48101 0.0
C2423 C 0.14739 0.20219 0.47579 0.0
H2424 H 0.16978 0.16897 0.47952 0.0
H2425 H 0.03661 0.24334 0.42993 0.0
H2426 H 0.54081 0.2436 0.21505 0.0
H2427 H 0.57177 0.25165 0.22731 0.0
H2428 H 0.58382 0.29002 0.18859 0.0
H2429 H 0.55296 0.28188 0.17606 0.0
H2430 H 0.60274 0.26507 0.18628 0.0
H2431 H 0.58911 0.30674 0.23494 0.0
H2432 H 0.57298 0.31609 0.25998 0.0
H2433 H 0.58722 0.2754 0.29009 0.0
H2434 H 0.60324 0.2656 0.2651 0.0
H2435 H 0.69295 0.29283 0.21683 0.0
H2436 H 0.66306 0.29547 0.21143 0.0
H2437 H 0.64676 0.25481 0.24711 0.0
H2438 H 0.6768 0.25257 0.2531 0.0
H2439 H 0.63064 0.28385 0.25156 0.0
H2440 H 0.64139 0.24009 0.20176 0.0
H2441 H 0.6573 0.23016 0.17672 0.0
H2442 H 0.64785 0.27447 0.14874 0.0
H2443 H 0.63209 0.28484 0.17377 0.0
C2444 C 0.55 0.25402 0.20936 0.0
C2445 C 0.54444 0.26193 0.19442 0.0
C2446 C 0.56769 0.25868 0.21647 0.0
C2447 C 0.58008 0.27146 0.20887 0.0
C2448 C 0.57446 0.2801 0.19461 0.0
C2449 C 0.55681 0.27541 0.18747 0.0
C2450 C 0.59899 0.27414 0.21435 0.0
C2451 C 0.60891 0.26959 0.20052 0.0
C2452 C 0.60689 0.27948 0.23298 0.0
C2453 C 0.59726 0.28532 0.24805 0.0
C2454 C 0.58868 0.29967 0.24682 0.0
C2455 C 0.57958 0.30507 0.26103 0.0
C2456 C 0.57904 0.29631 0.2766 0.0
C2457 C 0.58764 0.28216 0.27801 0.0
C2458 C 0.59675 0.27669 0.26384 0.0
C2459 C 0.68309 0.28474 0.22383 0.0
C2460 C 0.68719 0.27236 0.23527 0.0
C2461 C 0.66601 0.28618 0.22064 0.0
C2462 C 0.6527 0.27516 0.2287 0.0
C2463 C 0.65686 0.2634 0.24074 0.0
C2464 C 0.67397 0.26197 0.24397 0.0
C2465 C 0.63426 0.2748 0.22348 0.0
C2466 C 0.62445 0.27963 0.23732 0.0
C2467 C 0.62637 0.26965 0.20485 0.0
C2468 C 0.63574 0.26336 0.18973 0.0
C2469 C 0.64282 0.2478 0.19034 0.0
C2470 C 0.65179 0.24209 0.17614 0.0
C2471 C 0.65363 0.25172 0.16118 0.0
C2472 C 0.64645 0.26705 0.16036 0.0
C2473 C 0.63749 0.27285 0.17454 0.0
H2474 H 0.66058 0.24727 0.15019 0.0
H2475 H 0.57199 0.30052 0.28758 0.0
H2476 H 0.60158 0.8754 0.96061 0.0
H2477 H 0.5952 0.90259 0.97883 0.0
H2478 H 0.59475 0.92972 0.93081 0.0
H2479 H 0.60023 0.90207 0.91231 0.0
H2480 H 0.61076 0.93774 0.98888 0.0
H2481 H 0.56665 0.95785 0.933 0.0
H2482 H 0.54703 0.9431 0.90387 0.0
H2483 H 0.53711 0.88877 0.92119 0.0
H2484 H 0.55644 0.90324 0.9505 0.0
H2485 H 0.5916 0.02311 0.02634 0.0
H2486 H 0.60056 0.99866 1.0066 0.0
H2487 H 0.54819 0.96189 0.99945 0.0
H2488 H 0.53895 0.98672 0.01847 0.0
H2489 H 0.55974 0.96019 0.96818 0.0
H2490 H 0.58396 0.95709 0.02982 0.0
H2491 H 0.60166 0.97019 0.0603 0.0
H2492 H 0.64774 0.98625 0.0342 0.0
H2493 H 0.63029 0.97337 1.00357 0.0
C2494 C 0.60017 0.88719 0.95396 0.0
C2495 C 0.60123 0.88657 0.93502 0.0
C2496 C 0.59656 0.90275 0.96438 0.0
C2497 C 0.59421 0.91809 0.95614 0.0
C2498 C 0.59605 0.91785 0.93738 0.0
C2499 C 0.59927 0.9021 0.92685 0.0
C2500 C 0.5895 0.93406 0.96721 0.0
C2501 C 0.59959 0.94263 0.98434 0.0
C2502 C 0.57492 0.94048 0.96133 0.0
C2503 C 0.56318 0.9316 0.94381 0.0
C2504 C 0.56025 0.94277 0.93058 0.0
C2505 C 0.54919 0.93446 0.91405 0.0
C2506 C 0.54091 0.915 0.91065 0.0
C2507 C 0.5436 0.90382 0.92381 0.0
C2508 C 0.55462 0.91207 0.94037 0.0
C2509 C 0.58208 1.0097 0.02072 0.0
C2510 C 0.56463 1.0066 0.02396 0.0
C2511 C 0.58723 0.99579 1.00947 0.0
C2512 C 0.57517 0.97835 1.00179 0.0
C2513 C 0.55774 0.97524 1.00521 0.0
C2514 C 0.55249 0.98931 0.01615 0.0
C2515 C 0.58065 0.96338 0.99009 0.0
C2516 C 0.57088 0.95524 0.97273 0.0
C2517 C 0.59523 0.957 0.99597 0.0
C2518 C 0.60578 0.96447 0.0144 0.0
C2519 C 0.59785 0.96351 0.03059 0.0
C2520 C 0.60784 0.97087 0.04789 0.0
C2521 C 0.62581 0.97909 0.04919 0.0
C2522 C 0.63383 0.97989 0.03318 0.0
C2523 C 0.62389 0.97254 0.01585 0.0
H2524 H 0.63352 0.98481 0.0626 0.0
H2525 H 0.53236 0.90859 0.89784 0.0
H2526 H 0.95309 0.71604 0.71509 0.0
H2527 H 0.93049 0.72339 0.73285 0.0
H2528 H 0.9323 0.77278 0.70745 0.0
H2529 H 0.95479 0.7655 0.68954 0.0
H2530 H 0.93348 0.77929 0.74674 0.0
H2531 H 0.90023 0.73452 0.69227 0.0
H2532 H 0.89208 0.70363 0.67121 0.0
H2533 H 0.87786 0.6749 0.71635 0.0
H2534 H 0.88603 0.70563 0.73771 0.0
H2535 H 0.85818 0.80856 0.75707 0.0
H2536 H 0.88294 0.79774 0.74765 0.0
H2537 H 0.86378 0.74544 0.76804 0.0
H2538 H 0.83849 0.75605 0.77691 0.0
H2539 H 0.8729 0.73745 0.73624 0.0
H2540 H 0.9016 0.78079 0.79014 0.0
H2541 H 0.91013 0.81064 0.81274 0.0
H2542 H 0.93409 0.84067 0.77212 0.0
H2543 H 0.92548 0.81107 0.74917 0.0
C2544 C 0.94866 0.72846 0.71328 0.0
C2545 C 0.95568 0.74019 0.7009 0.0
C2546 C 0.93576 0.7326 0.72341 0.0
C2547 C 0.92977 0.74859 0.7214 0.0
C2548 C 0.93683 0.76039 0.70918 0.0
C2549 C 0.94959 0.75617 0.69891 0.0
C2550 C 0.91605 0.75309 0.73191 0.0
C2551 C 0.92019 0.77025 0.74442 0.0
C2552 C 0.899 0.74077 0.72949 0.0
C2553 C 0.89395 0.72234 0.71661 0.0
C2554 C 0.89548 0.7216 0.69772 0.0
C2555 C 0.89081 0.70413 0.68573 0.0
C2556 C 0.88449 0.68731 0.69245 0.0
C2557 C 0.88275 0.68794 0.71117 0.0
C2558 C 0.88738 0.70538 0.72322 0.0
C2559 C 0.85936 0.79487 0.75979 0.0
C2560 C 0.84643 0.78312 0.76768 0.0
C2561 C 0.87359 0.78873 0.75449 0.0
C2562 C 0.87544 0.77091 0.75744 0.0
C2563 C 0.86267 0.75927 0.76567 0.0
C2564 C 0.84824 0.76531 0.77071 0.0
C2565 C 0.89009 0.76411 0.75069 0.0
C2566 C 0.88621 0.74644 0.73892 0.0
C2567 C 0.9075 0.7758 0.75411 0.0
C2568 C 0.9128 0.79369 0.76789 0.0
C2569 C 0.90859 0.79378 0.78598 0.0
C2570 C 0.91345 0.81066 0.79886 0.0
C2571 C 0.92262 0.82754 0.79386 0.0
C2572 C 0.92698 0.82758 0.77598 0.0
C2573 C 0.92214 0.81074 0.76303 0.0
H2574 H 0.92637 0.8406 0.80386 0.0
H2575 H 0.88089 0.6738 0.68314 0.0
H2576 H 0.13822 0.06662 0.84459 0.0
H2577 H 0.12496 0.06774 0.87339 0.0
H2578 H 0.12546 1.00986 0.87479 0.0
H2579 H 0.13921 1.0089 0.84628 0.0
H2580 H 0.0937 0.01543 0.88422 0.0
H2581 H 0.15413 0.04814 0.90522 0.0
H2582 H 0.18167 0.0728 0.90611 0.0
H2583 H 0.15594 0.11635 0.92066 0.0
H2584 H 0.12817 0.09193 0.91961 0.0
H2585 H 0.06572 1.00907 0.97249 0.0
H2586 H 0.0817 1.00933 0.94591 0.0
H2587 H 0.09532 0.0705 0.95571 0.0
H2588 H 0.08021 0.0701 0.98342 0.0
H2589 H 0.11986 0.0641 0.93993 0.0
H2590 H 0.05996 0.03438 0.91778 0.0
H2591 H 0.03095 1.01166 0.9152 0.0
H2592 H 0.05316 0.96517 0.90049 0.0
H2593 H 0.08235 0.98762 0.90319 0.0
C2594 C 0.1356 0.05404 0.85093 0.0
C2595 C 0.14006 0.03765 0.84254 0.0
C2596 C 0.12794 0.05473 0.86773 0.0
C2597 C 0.12396 0.03894 0.87701 0.0
C2598 C 0.12815 0.02244 0.86846 0.0
C2599 C 0.13617 0.0219 0.85189 0.0
C2600 C 0.11545 0.03951 0.89526 0.0
C2601 C 0.09968 0.02598 0.89642 0.0
C2602 C 0.12237 0.05354 0.9115 0.0
C2603 C 0.13903 0.06821 0.91215 0.0
C2604 C 0.15431 0.06298 0.90846 0.0
C2605 C 0.16997 0.07691 0.90902 0.0
C2606 C 0.17055 0.09613 0.91339 0.0
C2607 C 0.15547 0.10145 0.91725 0.0
C2608 C 0.13977 0.08757 0.91669 0.0
C2609 C 0.07243 0.02269 0.96936 0.0
C2610 C 0.07168 0.03952 0.98082 0.0
C2611 C 0.08141 0.02287 0.95355 0.0
C2612 C 0.08957 0.03992 0.94747 0.0
C2613 C 0.08931 0.05689 0.95931 0.0
C2614 C 0.08063 0.0567 0.97554 0.0
C2615 C 0.09803 0.03986 0.92906 0.0
C2616 C 0.11379 0.0535 0.92781 0.0
C2617 C 0.09085 0.02622 0.9125 0.0
C2618 C 0.07336 0.01267 0.91088 0.0
C2619 C 0.05867 0.0193 0.91411 0.0
C2620 C 0.0422 1.00648 0.91261 0.0
C2621 C 0.04023 0.98698 0.90773 0.0
C2622 C 0.05472 0.98028 0.90429 0.0
C2623 C 0.07123 0.99304 0.90579 0.0
H2624 H 0.02746 0.97707 0.90658 0.0
H2625 H 0.18268 0.1069 0.91382 0.0
H2626 H 0.77013 0.38849 0.53526 0.0
H2627 H 0.7677 0.3732 0.56245 0.0
H2628 H 0.7885 0.42789 0.59774 0.0
H2629 H 0.79035 0.44329 0.57065 0.0
H2630 H 0.79413 0.37212 0.58395 0.0
H2631 H 0.77884 0.42685 0.64105 0.0
H2632 H 0.75998 0.44865 0.64397 0.0
H2633 H 0.72495 0.41473 0.59661 0.0
H2634 H 0.74345 0.39257 0.59356 0.0
H2635 H 0.83108 0.36158 0.66928 0.0
H2636 H 0.82198 0.37663 0.64404 0.0
H2637 H 0.76815 0.35667 0.65263 0.0
H2638 H 0.77726 0.34194 0.67818 0.0
H2639 H 0.77425 0.39137 0.64367 0.0
H2640 H 0.78411 0.33202 0.61944 0.0
H2641 H 0.80049 0.3078 0.61578 0.0
H2642 H 0.84106 0.34636 0.59522 0.0
H2643 H 0.82505 0.37093 0.59903 0.0
C2644 C 0.77374 0.39729 0.54884 0.0
C2645 C 0.7806 0.41706 0.55083 0.0
C2646 C 0.77237 0.38854 0.56436 0.0
C2647 C 0.77798 0.39936 0.58216 0.0
C2648 C 0.78382 0.41923 0.5842 0.0
C2649 C 0.78496 0.42803 0.56867 0.0
C2650 C 0.77999 0.38979 0.59825 0.0
C2651 C 0.78961 0.37624 0.59693 0.0
C2652 C 0.77394 0.39494 0.61516 0.0
C2653 C 0.76263 0.40812 0.617 0.0
C2654 C 0.76707 0.42398 0.63131 0.0
C2655 C 0.75645 0.43642 0.63298 0.0
C2656 C 0.7413 0.43311 0.62046 0.0
C2657 C 0.73672 0.41732 0.60626 0.0
C2658 C 0.74729 0.40483 0.60454 0.0
C2659 C 0.81733 0.3606 0.66589 0.0
C2660 C 0.80484 0.35048 0.67551 0.0
C2661 C 0.81215 0.36916 0.65149 0.0
C2662 C 0.79436 0.36741 0.64623 0.0
C2663 C 0.78193 0.35814 0.65644 0.0
C2664 C 0.78715 0.34975 0.67101 0.0
C2665 C 0.78873 0.37419 0.62936 0.0
C2666 C 0.77853 0.38717 0.63057 0.0
C2667 C 0.79383 0.36818 0.61216 0.0
C2668 C 0.80343 0.35336 0.60965 0.0
C2669 C 0.79657 0.33537 0.61424 0.0
C2670 C 0.80579 0.32158 0.61213 0.0
C2671 C 0.82182 0.32555 0.6053 0.0
C2672 C 0.82865 0.34331 0.60052 0.0
C2673 C 0.8195 0.35717 0.60264 0.0
H2674 H 0.82893 0.31485 0.60367 0.0
H2675 H 0.7331 0.44276 0.62177 0.0
H2676 H 0.46293 0.05826 0.38425 0.0
H2677 H 0.47581 0.06982 0.41626 0.0
H2678 H 0.48531 0.12769 0.40693 0.0
H2679 H 0.4718 0.11595 0.37447 0.0
H2680 H 0.51527 0.11802 0.42116 0.0
H2681 H 0.46243 0.12014 0.44354 0.0
H2682 H 0.4308 0.11115 0.44555 0.0
H2683 H 0.43361 0.05623 0.45608 0.0
H2684 H 0.4652 0.06482 0.45391 0.0
H2685 H 0.56405 0.10272 0.50194 0.0
H2686 H 0.54475 0.11816 0.48571 0.0
H2687 H 0.50964 0.06321 0.46264 0.0
H2688 H 0.52885 0.04783 0.47866 0.0
H2689 H 0.49171 0.0895 0.47346 0.0
H2690 H 0.54228 0.08652 0.43843 0.0
H2691 H 0.57401 0.0959 0.43692 0.0
H2692 H 0.57509 0.15471 0.45118 0.0
H2693 H 0.54336 0.14562 0.45279 0.0
C2694 C 0.46743 0.07346 0.38909 0.0
C2695 C 0.46655 0.08623 0.37695 0.0
C2696 C 0.4746 0.08009 0.40745 0.0
C2697 C 0.48128 0.09964 0.41407 0.0
C2698 C 0.47997 0.11257 0.40213 0.0
C2699 C 0.47234 0.10587 0.38367 0.0
C2700 C 0.49199 0.10558 0.43245 0.0
C2701 C 0.5101 0.11262 0.43299 0.0
C2702 C 0.48529 0.09876 0.44795 0.0
C2703 C 0.46621 0.0932 0.44876 0.0
C2704 C 0.45627 0.10611 0.4462 0.0
C2705 C 0.43835 0.10109 0.44736 0.0
C2706 C 0.4302 0.08315 0.45098 0.0
C2707 C 0.43994 0.07015 0.45332 0.0
C2708 C 0.45786 0.07511 0.45218 0.0
C2709 C 0.5522 0.09401 0.49336 0.0
C2710 C 0.54785 0.0741 0.49144 0.0
C2711 C 0.54114 0.10285 0.48429 0.0
C2712 C 0.52574 0.09186 0.47306 0.0
C2713 C 0.52134 0.07199 0.47143 0.0
C2714 C 0.53234 0.0632 0.48048 0.0
C2715 C 0.51488 0.10043 0.46135 0.0
C2716 C 0.49684 0.09607 0.4622 0.0
C2717 C 0.52166 0.11 0.44726 0.0
C2718 C 0.54057 0.11542 0.44587 0.0
C2719 C 0.54932 0.10144 0.44125 0.0
C2720 C 0.56729 0.1067 0.44038 0.0
C2721 C 0.57657 0.12589 0.44399 0.0
C2722 C 0.56789 0.13986 0.4484 0.0
C2723 C 0.54992 0.13467 0.44928 0.0
H2724 H 0.59048 0.12993 0.44334 0.0
H2725 H 0.41635 0.07933 0.45197 0.0
H2726 H 0.776 0.73462 0.05775 0.0
H2727 H 0.77643 0.7487 0.08997 0.0
H2728 H 0.81895 0.72559 0.10638 0.0
H2729 H 0.81796 0.7108 0.07438 0.0
H2730 H 0.79751 0.71903 0.12899 0.0
H2731 H 0.82263 0.77573 0.10585 0.0
H2732 H 0.8245 0.79942 0.08522 0.0
H2733 H 0.77692 0.81024 0.10069 0.0
H2734 H 0.77464 0.78644 0.12125 0.0
H2735 H 0.82347 0.77297 0.21993 0.0
H2736 H 0.82243 0.76167 0.18693 0.0
H2737 H 0.77181 0.77175 0.17631 0.0
H2738 H 0.77261 0.78286 0.20947 0.0
H2739 H 0.79614 0.78527 0.15109 0.0
H2740 H 0.77245 0.72848 0.17526 0.0
H2741 H 0.77242 0.70581 0.19673 0.0
H2742 H 0.81998 0.69635 0.17972 0.0
H2743 H 0.82044 0.71921 0.15835 0.0
C2744 C 0.78565 0.73284 0.06818 0.0
C2745 C 0.79697 0.72159 0.06341 0.0
C2746 C 0.78592 0.74095 0.08669 0.0
C2747 C 0.79782 0.73842 0.10085 0.0
C2748 C 0.80954 0.72774 0.09591 0.0
C2749 C 0.80905 0.71936 0.07751 0.0
C2750 C 0.79755 0.74595 0.12084 0.0
C2751 C 0.79747 0.73362 0.13374 0.0
C2752 C 0.79705 0.76486 0.1273 0.0
C2753 C 0.79837 0.77916 0.11494 0.0
C2754 C 0.81249 0.78306 0.10474 0.0
C2755 C 0.81364 0.79652 0.09308 0.0
C2756 C 0.80081 0.80629 0.09161 0.0
C2757 C 0.78683 0.80264 0.10183 0.0
C2758 C 0.78561 0.78918 0.1135 0.0
C2759 C 0.81209 0.77282 0.21063 0.0
C2760 C 0.79809 0.7788 0.21745 0.0
C2761 C 0.81151 0.76631 0.19172 0.0
C2762 C 0.79703 0.7658 0.17908 0.0
C2763 C 0.78314 0.77203 0.18576 0.0
C2764 C 0.78358 0.77828 0.20476 0.0
C2765 C 0.79635 0.7584 0.15899 0.0
C2766 C 0.79619 0.77071 0.14618 0.0
C2767 C 0.79689 0.73957 0.15261 0.0
C2768 C 0.79656 0.72569 0.16533 0.0
C2769 C 0.78298 0.72169 0.17621 0.0
C2770 C 0.78287 0.70878 0.18834 0.0
C2771 C 0.79621 0.69968 0.18962 0.0
C2772 C 0.80966 0.70343 0.17873 0.0
C2773 C 0.80985 0.71635 0.16659 0.0
H2774 H 0.7961 0.6897 0.19902 0.0
H2775 H 0.80172 0.81671 0.08257 0.0
H2776 H 0.15556 0.99751 0.71726 0.0
H2777 H 0.14087 0.99824 0.68691 0.0
H2778 H 0.1203 0.04332 0.71119 0.0
H2779 H 0.13412 0.04167 0.74181 0.0
H2780 H 0.09739 0.02683 0.68556 0.0
H2781 H 0.15834 0.04649 0.6813 0.0
H2782 H 0.1889 0.04472 0.68311 0.0
H2783 H 0.17325 0.99319 0.6431 0.0
H2784 H 0.14256 0.99454 0.64121 0.0
H2785 H 0.07988 0.05767 0.59798 0.0
H2786 H 0.09281 0.05485 0.62864 0.0
H2787 H 0.09697 0.99913 0.60681 0.0
H2788 H 0.08355 1.00167 0.57617 0.0
H2789 H 0.12799 0.02105 0.63052 0.0
H2790 H 0.06637 1.00415 0.6345 0.0
H2791 H 0.03684 1.00903 0.63243 0.0
H2792 H 0.05563 0.05983 0.67317 0.0
H2793 H 0.08534 0.0554 0.67529 0.0
C2794 C 0.14779 1.00751 0.7163 0.0
C2795 C 0.14622 0.01946 0.73251 0.0
C2796 C 0.13946 1.00818 0.69857 0.0
C2797 C 0.12958 0.02132 0.69586 0.0
C2798 C 0.1277 0.03298 0.71218 0.0
C2799 C 0.13572 0.03202 0.73 0.0
C2800 C 0.12128 0.02288 0.67637 0.0
C2801 C 0.1044 0.02581 0.67374 0.0
C2802 C 0.12974 0.02141 0.66016 0.0
C2803 C 0.14814 0.02051 0.66127 0.0
C2804 C 0.16141 0.03472 0.67298 0.0
C2805 C 0.17875 0.0338 0.67401 0.0
C2806 C 0.183 0.01882 0.66327 0.0
C2807 C 0.16993 1.00476 0.65144 0.0
C2808 C 0.15256 1.0056 0.65037 0.0
C2809 C 0.08344 0.04471 0.59957 0.0
C2810 C 0.08042 0.02991 0.58412 0.0
C2811 C 0.09091 0.04308 0.61737 0.0
C2812 C 0.09608 0.02671 0.62062 0.0
C2813 C 0.09328 1.01201 0.60515 0.0
C2814 C 0.08545 0.01346 0.58742 0.0
C2815 C 0.10429 0.02499 0.63992 0.0
C2816 C 0.12111 0.02205 0.64246 0.0
C2817 C 0.09597 0.02691 0.65609 0.0
C2818 C 0.07812 0.02954 0.65492 0.0
C2819 C 0.06424 0.01645 0.64291 0.0
C2820 C 0.04746 0.01912 0.64174 0.0
C2821 C 0.04437 0.03476 0.65263 0.0
C2822 C 0.05804 0.04774 0.66473 0.0
C2823 C 0.07485 0.04515 0.66593 0.0
H2824 H 0.03137 0.0368 0.65171 0.0
H2825 H 0.19644 0.01813 0.66409 0.0
H2826 H 0.81483 0.3807 0.46071 0.0
H2827 H 0.8137 0.36089 0.43111 0.0
H2828 H 0.76596 0.37346 0.41114 0.0
H2829 H 0.76774 0.39447 0.44064 0.0
H2830 H 0.79434 0.33078 0.413 0.0
H2831 H 0.76199 0.37081 0.36451 0.0
H2832 H 0.75901 0.40308 0.36317 0.0
H2833 H 0.8072 0.42712 0.39966 0.0
H2834 H 0.81057 0.39502 0.40101 0.0
H2835 H 0.77888 0.27781 0.32151 0.0
H2836 H 0.77662 0.29482 0.35177 0.0
H2837 H 0.81287 0.34519 0.34126 0.0
H2838 H 0.81417 0.32863 0.31062 0.0
H2839 H 0.78793 0.35516 0.35433 0.0
H2840 H 0.82359 0.31565 0.37245 0.0
H2841 H 0.83155 0.28566 0.37399 0.0
H2842 H 0.78574 0.26484 0.3991 0.0
H2843 H 0.77739 0.29463 0.3975 0.0
C2844 C 0.80405 0.37922 0.45004 0.0
C2845 C 0.79141 0.38918 0.45292 0.0
C2846 C 0.80338 0.3678 0.4331 0.0
C2847 C 0.78985 0.36576 0.41874 0.0
C2848 C 0.77677 0.37514 0.42183 0.0
C2849 C 0.77772 0.38704 0.4387 0.0
C2850 C 0.78996 0.35416 0.40053 0.0
C2851 C 0.7929 0.33613 0.40017 0.0
C2852 C 0.78827 0.36113 0.38375 0.0
C2853 C 0.78639 0.38051 0.38306 0.0
C2854 C 0.77195 0.38299 0.37223 0.0
C2855 C 0.7702 0.40125 0.37146 0.0
C2856 C 0.78287 0.41714 0.38139 0.0
C2857 C 0.79735 0.4148 0.39204 0.0
C2858 C 0.79918 0.39658 0.39283 0.0
C2859 C 0.78654 0.29243 0.32579 0.0
C2860 C 0.79684 0.30187 0.3138 0.0
C2861 C 0.78527 0.30215 0.34311 0.0
C2862 C 0.79467 0.32129 0.34891 0.0
C2863 C 0.80541 0.33047 0.33711 0.0
C2864 C 0.80635 0.32092 0.31968 0.0
C2865 C 0.79289 0.33208 0.3669 0.0
C2866 C 0.78936 0.34982 0.36717 0.0
C2867 C 0.7948 0.32521 0.38369 0.0
C2868 C 0.79977 0.30728 0.38467 0.0
C2869 C 0.81515 0.30462 0.37817 0.0
C2870 C 0.81974 0.28767 0.37908 0.0
C2871 C 0.80913 0.27334 0.38659 0.0
C2872 C 0.79393 0.27595 0.39326 0.0
C2873 C 0.78927 0.29286 0.39237 0.0
H2874 H 0.8127 0.26023 0.38728 0.0
H2875 H 0.78148 0.43126 0.38079 0.0
H2876 H 0.44989 0.06708 0.25382 0.0
H2877 H 0.46688 0.06363 0.22847 0.0
H2878 H 0.5102 0.06089 0.26658 0.0
H2879 H 0.49321 0.06439 0.2923 0.0
H2880 H 0.51966 0.08506 0.24071 0.0
H2881 H 0.48722 0.0211 0.24068 0.0
H2882 H 0.46081 0.99551 0.24156 0.0
H2883 H 0.43698 1.00596 0.1909 0.0
H2884 H 0.46316 0.0318 0.18985 0.0
H2885 H 0.56068 0.06554 0.16112 0.0
H2886 H 0.54945 0.0626 0.19069 0.0
H2887 H 0.49721 0.05585 0.16392 0.0
H2888 H 0.50832 0.05792 0.13435 0.0
H2889 H 0.4958 0.03285 0.18715 0.0
H2890 H 0.52479 0.09961 0.18974 0.0
H2891 H 0.54993 0.12669 0.18873 0.0
H2892 H 0.57887 0.11242 0.23407 0.0
H2893 H 0.55395 0.0851 0.23519 0.0
C2894 C 0.46304 0.06578 0.25691 0.0
C2895 C 0.47017 0.06593 0.27509 0.0
C2896 C 0.47269 0.06372 0.24236 0.0
C2897 C 0.48966 0.06171 0.24566 0.0
C2898 C 0.49706 0.06229 0.2638 0.0
C2899 C 0.48734 0.06428 0.27844 0.0
C2900 C 0.49954 0.05923 0.22995 0.0
C2901 C 0.51471 0.07343 0.22914 0.0
C2902 C 0.49283 0.04421 0.21481 0.0
C2903 C 0.47714 0.02846 0.21524 0.0
C2904 C 0.47632 0.01802 0.22978 0.0
C2905 C 0.46139 1.00345 0.2303 0.0
C2906 C 0.44722 0.99912 0.21631 0.0
C2907 C 0.44797 1.00932 0.20173 0.0
C2908 C 0.46287 0.02391 0.20115 0.0
C2909 C 0.5468 0.06329 0.16164 0.0
C2910 C 0.53532 0.06196 0.14559 0.0
C2911 C 0.54041 0.06169 0.17849 0.0
C2912 C 0.52251 0.0593 0.17959 0.0
C2913 C 0.51105 0.05763 0.16342 0.0
C2914 C 0.51738 0.05884 0.14656 0.0
C2915 C 0.5156 0.05909 0.19754 0.0
C2916 C 0.50099 0.04431 0.19882 0.0
C2917 C 0.52269 0.07373 0.21301 0.0
C2918 C 0.53761 0.0902 0.21241 0.0
C2919 C 0.53656 0.10218 0.19941 0.0
C2920 C 0.55076 0.11758 0.19883 0.0
C2921 C 0.56601 0.12124 0.21129 0.0
C2922 C 0.56706 0.10954 0.2244 0.0
C2923 C 0.55291 0.09411 0.22502 0.0
H2924 H 0.57699 0.13316 0.21081 0.0
H2925 H 0.43567 0.98786 0.21674 0.0
H2926 H 0.76852 0.73754 0.9621 0.0
H2927 H 0.77154 0.74951 0.93305 0.0
H2928 H 0.81105 0.72026 0.9226 0.0
H2929 H 0.80792 0.70803 0.95162 0.0
H2930 H 0.79709 0.77208 0.92058 0.0
H2931 H 0.80964 0.7071 0.8756 0.0
H2932 H 0.80251 0.67225 0.87318 0.0
H2933 H 0.75643 0.67264 0.8988 0.0
H2934 H 0.76316 0.70744 0.90114 0.0
H2935 H 0.83091 0.79679 0.83932 0.0
H2936 H 0.82617 0.78257 0.86697 0.0
H2937 H 0.77391 0.75158 0.842 0.0
H2938 H 0.7785 0.76614 0.81424 0.0
H2939 H 0.79215 0.72928 0.86083 0.0
H2940 H 0.777 0.78818 0.87319 0.0
H2941 H 0.78119 0.82266 0.87513 0.0
H2942 H 0.82775 0.8336 0.91378 0.0
H2943 H 0.82384 0.79912 0.91204 0.0
C2944 C 0.7779 0.73364 0.95367 0.0
C2945 C 0.78795 0.72175 0.95929 0.0
C2946 C 0.77963 0.74056 0.937 0.0
C2947 C 0.79139 0.73571 0.92536 0.0
C2948 C 0.80165 0.72403 0.93107 0.0
C2949 C 0.79993 0.71712 0.94778 0.0
C2950 C 0.79293 0.743 0.90742 0.0
C2951 C 0.79605 0.76264 0.90758 0.0
C2952 C 0.79129 0.73083 0.89021 0.0
C2953 C 0.78702 0.70989 0.88872 0.0
C2954 C 0.79796 0.69973 0.88066 0.0
C2955 C 0.79399 0.67999 0.87931 0.0
C2956 C 0.77906 0.67025 0.88589 0.0
C2957 C 0.76803 0.68021 0.89378 0.0
C2958 C 0.77193 0.69995 0.89514 0.0
C2959 C 0.81841 0.78688 0.83962 0.0
C2960 C 0.80505 0.78268 0.82454 0.0
C2961 C 0.81571 0.77877 0.8555 0.0
C2962 C 0.79964 0.76605 0.85671 0.0
C2963 C 0.78643 0.76133 0.84144 0.0
C2964 C 0.78905 0.76968 0.82558 0.0
C2965 C 0.79663 0.75829 0.87417 0.0
C2966 C 0.79326 0.73863 0.8739 0.0
C2967 C 0.79778 0.77037 0.89125 0.0
C2968 C 0.80022 0.79109 0.89235 0.0
C2969 C 0.78821 0.79794 0.88199 0.0
C2970 C 0.79052 0.81749 0.88307 0.0
C2971 C 0.80478 0.83033 0.89448 0.0
C2972 C 0.81672 0.82364 0.90491 0.0
C2973 C 0.81444 0.8041 0.90393 0.0
H2974 H 0.80655 0.84546 0.89528 0.0
H2975 H 0.77601 0.65497 0.88485 0.0
H2976 H 0.81396 0.0823 0.05592 0.0
H2977 H 0.83733 0.06673 0.05182 0.0
H2978 H 0.86226 0.10992 0.02201 0.0
H2979 H 0.83864 0.12517 0.02552 0.0
H2980 H 0.86297 0.07667 1.00516 0.0
H2981 H 0.87678 0.10946 0.06811 0.0
H2982 H 0.87132 0.11813 0.10012 0.0
H2983 H 0.86278 0.06002 0.10744 0.0
H2984 H 0.86797 0.05096 0.07537 0.0
H2985 H 0.94938 0.06824 0.01325 0.0
H2986 H 0.92319 0.07918 0.01665 0.0
H2987 H 0.8997 0.02868 0.0379 0.0
H2988 H 0.92605 0.01769 0.03466 0.0
H2989 H 0.89685 0.06268 0.05878 0.0
H2990 H 0.88568 0.03105 0.99565 0.0
H2991 H 0.89261 0.02384 0.964 0.0
H2992 H 0.89772 0.08175 0.95749 0.0
H2993 H 0.89107 0.08938 0.98921 0.0
C2994 C 0.82443 0.08847 0.0485 0.0
C2995 C 0.82451 0.10499 0.0411 0.0
C2996 C 0.83781 0.0796 0.04623 0.0
C2997 C 0.85168 0.08731 0.03683 0.0
C2998 C 0.85169 0.10372 0.02931 0.0
C2999 C 0.83821 0.11245 0.03138 0.0
C3000 C 0.86618 0.07829 0.03472 0.0
C3001 C 0.87047 0.07379 0.01692 0.0
C3002 C 0.8757 0.07408 0.05 0.0
C3003 C 0.87256 0.0795 0.06928 0.0
C3004 C 0.87359 0.09851 0.0765 0.0
C3005 C 0.87057 0.10349 0.09466 0.0
C3006 C 0.86665 0.08962 0.10579 0.0
C3007 C 0.86579 0.07074 0.09879 0.0
C3008 C 0.86878 0.06567 0.08063 0.0
C3009 C 0.93868 0.05952 0.01874 0.0
C3010 C 0.93973 0.04215 0.02374 0.0
C3011 C 0.9237 0.06571 0.02054 0.0
C3012 C 0.90951 0.05464 0.02737 0.0
C3013 C 0.91054 0.03736 0.03254 0.0
C3014 C 0.92551 0.03107 0.0306 0.0
C3015 C 0.89373 0.06139 0.02931 0.0
C3016 C 0.8892 0.06543 0.04704 0.0
C3017 C 0.88413 0.06539 0.01401 0.0
C3018 C 0.88801 0.06081 0.99487 0.0
C3019 C 0.88841 0.04228 0.98752 0.0
C3020 C 0.89227 0.03812 0.96956 0.0
C3021 C 0.89564 0.05234 0.95875 0.0
C3022 C 0.89512 0.07075 0.96588 0.0
C3023 C 0.89129 0.075 0.98384 0.0
H3024 H 0.89862 0.04909 0.94485 0.0
H3025 H 0.86432 0.09351 0.11985 0.0
H3026 H 0.36536 0.46659 0.05053 0.0
H3027 H 0.39558 0.48456 0.04976 0.0
H3028 H 0.41123 0.43246 0.04315 0.0
H3029 H 0.3812 0.41444 0.04388 0.0
H3030 H 0.43453 0.46034 0.06841 0.0
H3031 H 0.40612 0.4536 1.00656 0.0
H3032 H 0.38344 0.45621 0.98273 0.0
H3033 H 0.39738 0.51672 1.00023 0.0
H3034 H 0.41999 0.51444 0.02434 0.0
H3035 H 0.5196 0.5002 0.0449 0.0
H3036 H 0.4901 0.48056 0.046 0.0
H3037 H 0.46974 0.52891 0.04148 0.0
H3038 H 0.49885 0.54789 0.03881 0.0
H3039 H 0.44858 0.50142 0.0214 0.0
H3040 H 0.4771 0.50846 0.08367 0.0
H3041 H 0.49944 0.50575 0.10782 0.0
H3042 H 0.48501 0.44517 0.09075 0.0
H3043 H 0.46292 0.44756 0.06616 0.0
C3044 C 0.37522 0.45895 0.04894 0.0
C3045 C 0.37074 0.43902 0.04718 0.0
C3046 C 0.39251 0.46925 0.04845 0.0
C3047 C 0.40572 0.45987 0.04627 0.0
C3048 C 0.40133 0.44004 0.04485 0.0
C3049 C 0.38407 0.42975 0.04518 0.0
C3050 C 0.42406 0.47063 0.04524 0.0
C3051 C 0.43766 0.46921 0.05804 0.0
C3052 C 0.42817 0.48241 0.03189 0.0
C3053 C 0.41462 0.48382 0.01737 0.0
C3054 C 0.40425 0.46744 1.00542 0.0
C3055 C 0.39143 0.46887 0.99185 0.0
C3056 C 0.38894 0.48662 0.99 0.0
C3057 C 0.3993 0.50298 1.00169 0.0
C3058 C 0.41213 0.50163 0.0153 0.0
C3059 C 0.50878 0.50652 0.04398 0.0
C3060 C 0.51155 0.52552 0.04155 0.0
C3061 C 0.49188 0.49535 0.04486 0.0
C3062 C 0.47748 0.50319 0.04408 0.0
C3063 C 0.48044 0.52233 0.04202 0.0
C3064 C 0.49718 0.53327 0.04059 0.0
C3065 C 0.45925 0.49162 0.04491 0.0
C3066 C 0.44559 0.49272 0.03193 0.0
C3067 C 0.45512 0.47965 0.05821 0.0
C3068 C 0.46849 0.47823 0.07293 0.0
C3069 C 0.47882 0.49459 0.08494 0.0
C3070 C 0.49145 0.49311 0.0987 0.0
C3071 C 0.49373 0.47532 0.10073 0.0
C3072 C 0.48333 0.45896 0.08906 0.0
C3073 C 0.47077 0.46037 0.0752 0.0
H3074 H 0.50349 0.4742 0.11142 0.0
H3075 H 0.37901 0.48769 0.97948 0.0
H3076 H 0.36954 0.59616 0.73404 0.0
H3077 H 0.35603 0.62255 0.73594 0.0
H3078 H 0.39991 0.65735 0.77476 0.0
H3079 H 0.4128 0.63037 0.77375 0.0
H3080 H 0.37687 0.67059 0.78495 0.0
H3081 H 0.3864 0.65989 0.72195 0.0
H3082 H 0.38477 0.64211 0.69058 0.0
H3083 H 0.32873 0.62832 0.68445 0.0
H3084 H 0.33002 0.64586 0.71587 0.0
H3085 H 0.35305 0.7582 0.77508 0.0
H3086 H 0.36672 0.7318 0.7739 0.0
H3087 H 0.31891 0.69341 0.74466 0.0
H3088 H 0.30525 0.7198 0.7458 0.0
H3089 H 0.34431 0.6828 0.7296 0.0
H3090 H 0.33669 0.69581 0.79395 0.0
H3091 H 0.34045 0.71626 0.82438 0.0
H3092 H 0.39622 0.72883 0.8265 0.0
H3093 H 0.39277 0.70858 0.79599 0.0
C3094 C 0.37645 0.6094 0.74301 0.0
C3095 C 0.39258 0.61061 0.75363 0.0
C3096 C 0.36868 0.62495 0.74396 0.0
C3097 C 0.37679 0.64303 0.75511 0.0
C3098 C 0.39288 0.64412 0.76586 0.0
C3099 C 0.40047 0.62841 0.76522 0.0
C3100 C 0.36858 0.66038 0.75581 0.0
C3101 C 0.37002 0.67315 0.7726 0.0
C3102 C 0.35916 0.66463 0.74016 0.0
C3103 C 0.35831 0.654 0.72133 0.0
C3104 C 0.37373 0.65296 0.71395 0.0
C3105 C 0.37287 0.64294 0.69616 0.0
C3106 C 0.35666 0.63404 0.68555 0.0
C3107 C 0.34128 0.63519 0.6927 0.0
C3108 C 0.34206 0.64517 0.71049 0.0
C3109 C 0.34527 0.74417 0.76847 0.0
C3110 C 0.32771 0.74168 0.7607 0.0
C3111 C 0.35321 0.72875 0.76786 0.0
C3112 C 0.34412 0.70983 0.75939 0.0
C3113 C 0.32665 0.70742 0.7514 0.0
C3114 C 0.31867 0.7228 0.75214 0.0
C3115 C 0.35261 0.6928 0.75864 0.0
C3116 C 0.35119 0.68012 0.74187 0.0
C3117 C 0.36239 0.68893 0.77418 0.0
C3118 C 0.36447 0.70081 0.79264 0.0
C3119 C 0.34975 0.703 0.80088 0.0
C3120 C 0.35183 0.71454 0.81814 0.0
C3121 C 0.36856 0.72387 0.82735 0.0
C3122 C 0.38326 0.72161 0.81935 0.0
C3123 C 0.38126 0.71007 0.80208 0.0
H3124 H 0.37015 0.73283 0.8407 0.0
H3125 H 0.35602 0.6263 0.67178 0.0
H3126 H 0.23475 0.59468 0.51879 0.0
H3127 H 0.20339 0.58418 0.50825 0.0
H3128 H 0.20792 0.63063 0.47803 0.0
H3129 H 0.23927 0.64135 0.48862 0.0
H3130 H 0.18407 0.63079 0.49971 0.0
H3131 H 0.19484 0.58582 0.45453 0.0
H3132 H 0.20666 0.56062 0.43946 0.0
H3133 H 0.1806 0.52216 0.47273 0.0
H3134 H 0.1688 0.54721 0.48821 0.0
H3135 H 0.08963 0.55941 0.4732 0.0
H3136 H 0.11889 0.5724 0.46566 0.0
H3137 H 0.1358 0.59991 0.52246 0.0
H3138 H 0.10651 0.5874 0.52998 0.0
H3139 H 0.14751 0.5648 0.47747 0.0
H3140 H 0.16772 0.63873 0.52662 0.0
H3141 H 0.15442 0.66464 0.53648 0.0
H3142 H 0.11735 0.64706 0.48705 0.0
H3143 H 0.13058 0.6212 0.47675 0.0
C3144 C 0.22914 0.60248 0.50964 0.0
C3145 C 0.23947 0.619 0.50476 0.0
C3146 C 0.21122 0.59637 0.5035 0.0
C3147 C 0.20333 0.60662 0.49232 0.0
C3148 C 0.21375 0.62255 0.48666 0.0
C3149 C 0.23167 0.62865 0.49277 0.0
C3150 C 0.18405 0.60211 0.48868 0.0
C3151 C 0.17606 0.6164 0.49466 0.0
C3152 C 0.17356 0.58351 0.48145 0.0
C3153 C 0.18106 0.56849 0.47267 0.0
C3154 C 0.19181 0.57208 0.45882 0.0
C3155 C 0.19845 0.55779 0.45015 0.0
C3156 C 0.19442 0.53982 0.45517 0.0
C3157 C 0.18372 0.5361 0.46887 0.0
C3158 C 0.17703 0.55034 0.47758 0.0
C3159 C 0.09947 0.56858 0.484 0.0
C3160 C 0.09573 0.57238 0.5022 0.0
C3161 C 0.11621 0.57592 0.47966 0.0
C3162 C 0.12949 0.58724 0.49345 0.0
C3163 C 0.12566 0.59152 0.5115 0.0
C3164 C 0.10892 0.58425 0.51582 0.0
C3165 C 0.14774 0.59325 0.48957 0.0
C3166 C 0.15552 0.57925 0.48222 0.0
C3167 C 0.15798 0.61226 0.49494 0.0
C3168 C 0.15009 0.62795 0.50097 0.0
C3169 C 0.1568 0.64046 0.5178 0.0
C3170 C 0.14926 0.65512 0.52348 0.0
C3171 C 0.13503 0.65747 0.51242 0.0
C3172 C 0.12834 0.64519 0.49563 0.0
C3173 C 0.13584 0.6305 0.48988 0.0
H3174 H 0.1292 0.66883 0.51685 0.0
H3175 H 0.19955 0.52876 0.44841 0.0
H3176 H 0.68591 0.98245 0.77179 0.0
H3177 H 0.70217 0.96507 0.78919 0.0
H3178 H 0.74984 0.99452 0.77094 0.0
H3179 H 0.73338 1.01085 0.75254 0.0
H3180 H 0.74883 0.9601 0.76741 0.0
H3181 H 0.73811 1.00375 0.81732 0.0
H3182 H 0.71965 0.01945 0.83545 0.0
H3183 H 0.69184 0.96569 0.84749 0.0
H3184 H 0.70995 0.94963 0.82919 0.0
H3185 H 0.80736 0.93128 0.82238 0.0
H3186 H 0.79019 0.95436 0.82128 0.0
H3187 H 0.7426 0.90901 0.81246 0.0
H3188 H 0.75969 0.88584 0.81314 0.0
H3189 H 0.74418 0.95256 0.83268 0.0
H3190 H 0.74937 0.91005 0.77515 0.0
H3191 H 0.7677 0.89369 0.75756 0.0
H3192 H 0.80656 0.94677 0.7615 0.0
H3193 H 0.78843 0.96338 0.77934 0.0
C3194 C 0.69986 0.98513 0.77151 0.0
C3195 C 0.70843 0.99781 0.76076 0.0
C3196 C 0.70918 0.97538 0.78164 0.0
C3197 C 0.72732 0.97875 0.7817 0.0
C3198 C 0.73587 0.99167 0.77112 0.0
C3199 C 0.72647 1.00096 0.76058 0.0
C3200 C 0.73729 0.9679 0.79169 0.0
C3201 C 0.74796 0.95886 0.78179 0.0
C3202 C 0.73592 0.96575 0.81035 0.0
C3203 C 0.72531 0.97547 0.82176 0.0
C3204 C 0.72801 0.99527 0.82376 0.0
C3205 C 0.7176 1.00423 0.83406 0.0
C3206 C 0.70453 0.99356 0.84256 0.0
C3207 C 0.70193 0.97393 0.84086 0.0
C3208 C 0.71228 0.96489 0.83055 0.0
C3209 C 0.79325 0.92633 0.82111 0.0
C3210 C 0.7848 0.90682 0.81755 0.0
C3211 C 0.78347 0.93952 0.82061 0.0
C3212 C 0.76519 0.9333 0.81675 0.0
C3213 C 0.7567 0.91404 0.81563 0.0
C3214 C 0.76647 0.90083 0.81581 0.0
C3215 C 0.7557 0.94539 0.80838 0.0
C3216 C 0.74509 0.95432 0.81844 0.0
C3217 C 0.75708 0.94763 0.78988 0.0
C3218 C 0.76765 0.93789 0.77859 0.0
C3219 C 0.76183 0.9182 0.77225 0.0
C3220 C 0.77219 0.90889 0.76225 0.0
C3221 C 0.78832 0.91918 0.75842 0.0
C3222 C 0.79407 0.93882 0.76449 0.0
C3223 C 0.78376 0.94819 0.77452 0.0
H3224 H 0.79637 0.91195 0.75075 0.0
H3225 H 0.69645 1.00051 0.85048 0.0
H3226 H 0.76573 0.92764 0.52577 0.0
H3227 H 0.74031 0.94046 0.52209 0.0
H3228 H 0.75831 0.97744 0.57481 0.0
H3229 H 0.78364 0.96468 0.57861 0.0
H3230 H 0.7237 0.96062 0.5716 0.0
H3231 H 0.76253 0.99454 0.53436 0.0
H3232 H 0.78144 0.99779 0.50979 0.0
H3233 H 0.73784 0.96652 0.46916 0.0
H3234 H 0.71872 0.96287 0.49354 0.0
H3235 H 0.66949 0.02321 0.56546 0.0
H3236 H 0.69384 1.00884 0.56833 0.0
H3237 H 0.67612 0.97578 0.51366 0.0
H3238 H 0.65181 0.99028 0.51064 0.0
H3239 H 0.71005 0.98952 0.51737 0.0
H3240 H 0.67093 0.95606 0.55414 0.0
H3241 H 0.6518 0.95264 0.57849 0.0
H3242 H 0.69542 0.98228 0.61971 0.0
H3243 H 0.71479 0.9861 0.59557 0.0
C3244 C 0.76433 0.93857 0.53655 0.0
C3245 C 0.77682 0.94515 0.55246 0.0
C3246 C 0.74978 0.94593 0.53441 0.0
C3247 C 0.74736 0.96005 0.54812 0.0
C3248 C 0.7598 0.96656 0.56403 0.0
C3249 C 0.77436 0.95929 0.56614 0.0
C3250 C 0.73187 0.96797 0.54603 0.0
C3251 C 0.72085 0.96713 0.55983 0.0
C3252 C 0.72777 0.97606 0.53047 0.0
C3253 C 0.73924 0.97826 0.5158 0.0
C3254 C 0.75701 0.98822 0.5202 0.0
C3255 C 0.76776 0.99016 0.50631 0.0
C3256 C 0.76086 0.98231 0.48793 0.0
C3257 C 0.74318 0.97256 0.48341 0.0
C3258 C 0.73237 0.97056 0.49725 0.0
C3259 C 0.6706 0.01269 0.55412 0.0
C3260 C 0.65856 1.00789 0.53783 0.0
C3261 C 0.6846 1.00445 0.55578 0.0
C3262 C 0.68683 0.99097 0.54131 0.0
C3263 C 0.6748 0.98613 0.52505 0.0
C3264 C 0.66086 0.99447 0.52333 0.0
C3265 C 0.70186 0.98225 0.54298 0.0
C3266 C 0.71283 0.98294 0.5291 0.0
C3267 C 0.70585 0.97394 0.55844 0.0
C3268 C 0.69428 0.97152 0.57302 0.0
C3269 C 0.67642 0.96196 0.56838 0.0
C3270 C 0.66554 0.95994 0.58215 0.0
C3271 C 0.67238 0.96728 0.60063 0.0
C3272 C 0.69014 0.97662 0.60539 0.0
C3273 C 0.70108 0.9787 0.59167 0.0
H3274 H 0.66393 0.96571 0.61127 0.0
H3275 H 0.7692 0.98383 0.4772 0.0
H3276 H 0.37222 0.50771 0.75177 0.0
H3277 H 0.35518 0.47505 0.75261 0.0
H3278 H 0.40085 0.46389 0.77953 0.0
H3279 H 0.41777 0.49602 0.77857 0.0
H3280 H 0.38558 0.43341 0.75638 0.0
H3281 H 0.36331 0.47106 0.80192 0.0
H3282 H 0.3497 0.49609 0.81379 0.0
H3283 H 0.3039 0.47006 0.7742 0.0
H3284 H 0.31734 0.44499 0.76195 0.0
H3285 H 0.34128 0.34478 0.78391 0.0
H3286 H 0.35855 0.37717 0.78249 0.0
H3287 H 0.31259 0.38886 0.75678 0.0
H3288 H 0.29553 0.35682 0.75825 0.0
H3289 H 0.3281 0.41903 0.77919 0.0
H3290 H 0.3499 0.38158 0.73345 0.0
H3291 H 0.36313 0.35637 0.72115 0.0
H3292 H 0.4093 0.38168 0.76038 0.0
H3293 H 0.39626 0.40695 0.77307 0.0
C3294 C 0.37867 0.4984 0.75798 0.0
C3295 C 0.39662 0.50509 0.76515 0.0
C3296 C 0.3688 0.47949 0.75854 0.0
C3297 C 0.3764 0.46641 0.76631 0.0
C3298 C 0.39431 0.47315 0.77336 0.0
C3299 C 0.40409 0.49191 0.77286 0.0
C3300 C 0.36609 0.44588 0.76718 0.0
C3301 C 0.3731 0.43046 0.76162 0.0
C3302 C 0.3495 0.44123 0.77358 0.0
C3303 C 0.34141 0.45628 0.78089 0.0
C3304 C 0.35039 0.47076 0.79566 0.0
C3305 C 0.3427 0.48494 0.80247 0.0
C3306 C 0.32597 0.4847 0.79472 0.0
C3307 C 0.31687 0.47025 0.78017 0.0
C3308 C 0.32451 0.45604 0.7733 0.0
C3309 C 0.33491 0.35404 0.77756 0.0
C3310 C 0.31687 0.34762 0.77084 0.0
C3311 C 0.34486 0.37285 0.77681 0.0
C3312 C 0.33721 0.38605 0.76928 0.0
C3313 C 0.31918 0.37951 0.76271 0.0
C3314 C 0.30933 0.36087 0.76348 0.0
C3315 C 0.34756 0.40654 0.76837 0.0
C3316 C 0.34057 0.42196 0.77394 0.0
C3317 C 0.36413 0.41117 0.7619 0.0
C3318 C 0.37204 0.39605 0.75432 0.0
C3319 C 0.36283 0.3817 0.73954 0.0
C3320 C 0.3703 0.36741 0.73248 0.0
C3321 C 0.38703 0.36741 0.73999 0.0
C3322 C 0.39634 0.3817 0.75458 0.0
C3323 C 0.38892 0.39602 0.7617 0.0
H3324 H 0.39281 0.35639 0.73444 0.0
H3325 H 0.32003 0.49569 0.80001 0.0
H3326 H 0.19133 0.6064 0.25086 0.0
H3327 H 0.21151 0.63744 0.25161 0.0
H3328 H 0.25263 0.61084 0.24026 0.0
H3329 H 0.23241 0.57951 0.2394 0.0
H3330 H 0.26246 0.64138 0.26995 0.0
H3331 H 0.23654 0.62835 0.20708 0.0
H3332 H 0.21248 0.61847 0.18119 0.0
H3333 H 0.19224 0.66472 0.20247 0.0
H3334 H 0.21603 0.67472 0.22866 0.0
H3335 H 0.29165 0.74056 0.23626 0.0
H3336 H 0.28092 0.70597 0.23037 0.0
H3337 H 0.27176 0.70706 0.28718 0.0
H3338 H 0.28311 0.74155 0.29331 0.0
H3339 H 0.24984 0.68687 0.23082 0.0
H3340 H 0.26976 0.66635 0.30103 0.0
H3341 H 0.29491 0.67419 0.32561 0.0
H3342 H 0.32971 0.69331 0.28714 0.0
H3343 H 0.30477 0.68567 0.26235 0.0
C3344 C 0.20463 0.60709 0.24841 0.0
C3345 C 0.21029 0.5905 0.24509 0.0
C3346 C 0.21611 0.62484 0.24877 0.0
C3347 C 0.23349 0.62636 0.24589 0.0
C3348 C 0.23922 0.60988 0.24247 0.0
C3349 C 0.22766 0.59203 0.24191 0.0
C3350 C 0.24567 0.64535 0.24716 0.0
C3351 C 0.25986 0.65134 0.26133 0.0
C3352 C 0.24235 0.65813 0.23567 0.0
C3353 C 0.22802 0.65221 0.21991 0.0
C3354 C 0.22688 0.63633 0.20633 0.0
C3355 C 0.2133 0.63072 0.19158 0.0
C3356 C 0.20082 0.64094 0.1902 0.0
C3357 C 0.20191 0.65681 0.20356 0.0
C3358 C 0.21546 0.66247 0.21835 0.0
C3359 C 0.2876 0.7334 0.24757 0.0
C3360 C 0.28806 0.74379 0.2652 0.0
C3361 C 0.2815 0.71362 0.24419 0.0
C3362 C 0.27559 0.70385 0.25833 0.0
C3363 C 0.27659 0.71418 0.27612 0.0
C3364 C 0.28294 0.73395 0.27957 0.0
C3365 C 0.26656 0.68324 0.25397 0.0
C3366 C 0.25278 0.67693 0.23929 0.0
C3367 C 0.27041 0.67013 0.26487 0.0
C3368 C 0.28539 0.67549 0.27986 0.0
C3369 C 0.28278 0.67225 0.29782 0.0
C3370 C 0.29699 0.67668 0.3118 0.0
C3371 C 0.31389 0.68419 0.30793 0.0
C3372 C 0.3166 0.68751 0.29012 0.0
C3373 C 0.30243 0.68323 0.27613 0.0
H3374 H 0.32489 0.68744 0.31873 0.0
H3375 H 0.19032 0.63658 0.17877 0.0
H3376 H 0.50792 0.71531 0.44399 0.0
H3377 H 0.5086 0.68666 0.45697 0.0
H3378 H 0.56159 0.71335 0.48259 0.0
H3379 H 0.56101 0.7419 0.46971 0.0
H3380 H 0.55841 0.67756 0.46538 0.0
H3381 H 0.52707 0.70765 0.50784 0.0
H3382 H 0.50342 0.72172 0.51665 0.0
H3383 H 0.46527 0.66916 0.49338 0.0
H3384 H 0.4887 0.65486 0.48421 0.0
H3385 H 0.57172 0.61523 0.52547 0.0
H3386 H 0.56774 0.64285 0.51289 0.0
H3387 H 0.51407 0.61302 0.49223 0.0
H3388 H 0.51786 0.58529 0.50521 0.0
H3389 H 0.51609 0.64908 0.5053 0.0
H3390 H 0.54638 0.61836 0.46346 0.0
H3391 H 0.56932 0.60352 0.45385 0.0
H3392 H 0.60845 0.65613 0.47419 0.0
H3393 H 0.58576 0.67121 0.48419 0.0
C3394 C 0.51968 0.71515 0.45251 0.0
C3395 C 0.53439 0.73103 0.4558 0.0
C3396 C 0.52004 0.69872 0.45998 0.0
C3397 C 0.53514 0.69774 0.47089 0.0
C3398 C 0.54978 0.71363 0.47423 0.0
C3399 C 0.54939 0.73005 0.46689 0.0
C3400 C 0.53595 0.68013 0.47851 0.0
C3401 C 0.54927 0.6715 0.47429 0.0
C3402 C 0.5237 0.67168 0.48964 0.0
C3403 C 0.50962 0.68026 0.49516 0.0
C3404 C 0.51363 0.69915 0.50446 0.0
C3405 C 0.50027 0.70715 0.50955 0.0
C3406 C 0.48285 0.69636 0.50553 0.0
C3407 C 0.47877 0.67752 0.49646 0.0
C3408 C 0.49208 0.66945 0.49133 0.0
C3409 C 0.559 0.61447 0.51834 0.0
C3410 C 0.54516 0.59785 0.5163 0.0
C3411 C 0.55677 0.63034 0.51102 0.0
C3412 C 0.54069 0.63004 0.5012 0.0
C3413 C 0.52665 0.61368 0.49963 0.0
C3414 C 0.52885 0.59778 0.50706 0.0
C3415 C 0.53875 0.64669 0.49242 0.0
C3416 C 0.52521 0.6551 0.49635 0.0
C3417 C 0.55068 0.65484 0.48083 0.0
C3418 C 0.56437 0.64587 0.47473 0.0
C3419 C 0.55989 0.62673 0.46601 0.0
C3420 C 0.57285 0.61828 0.46047 0.0
C3421 C 0.59033 0.62887 0.46344 0.0
C3422 C 0.5949 0.64794 0.47192 0.0
C3423 C 0.58199 0.65645 0.47751 0.0
H3424 H 0.60035 0.6223 0.45915 0.0
H3425 H 0.47253 0.70258 0.50948 0.0
H3426 H 0.63535 0.33185 0.69958 0.0
H3427 H 0.66335 0.3317 0.71638 0.0
H3428 H 0.68477 0.3261 0.66508 0.0
H3429 H 0.657 0.32678 0.64823 0.0
H3430 H 0.68929 0.29858 0.68992 0.0
H3431 H 0.69924 0.36579 0.68987 0.0
H3432 H 0.692 0.39651 0.69546 0.0
H3433 H 0.69229 0.39358 0.75314 0.0
H3434 H 0.69929 0.36269 0.74785 0.0
H3435 H 0.7747 0.30375 0.73193 0.0
H3436 H 0.75047 0.30884 0.71212 0.0
H3437 H 0.73355 0.33614 0.76011 0.0
H3438 H 0.75857 0.33256 0.77953 0.0
H3439 H 0.72716 0.35325 0.73496 0.0
H3440 H 0.71606 0.28682 0.7366 0.0
H3441 H 0.72345 0.25621 0.73285 0.0
H3442 H 0.72264 0.25554 0.67452 0.0
H3443 H 0.71612 0.28671 0.67808 0.0
C3444 C 0.64608 0.33085 0.69188 0.0
C3445 C 0.64388 0.32945 0.67252 0.0
C3446 C 0.66209 0.33072 0.70151 0.0
C3447 C 0.67619 0.32881 0.69202 0.0
C3448 C 0.6741 0.32755 0.67273 0.0
C3449 C 0.65822 0.3281 0.66312 0.0
C3450 C 0.69297 0.32777 0.70221 0.0
C3451 C 0.69773 0.3106 0.69959 0.0
C3452 C 0.70375 0.34325 0.71521 0.0
C3453 C 0.69961 0.36184 0.71843 0.0
C3454 C 0.6976 0.37161 0.70372 0.0
C3455 C 0.69357 0.38907 0.70684 0.0
C3456 C 0.69164 0.39697 0.72463 0.0
C3457 C 0.69377 0.38744 0.73936 0.0
C3458 C 0.69778 0.36996 0.73631 0.0
C3459 C 0.76593 0.31107 0.73817 0.0
C3460 C 0.76858 0.31772 0.75732 0.0
C3461 C 0.7519 0.31382 0.72685 0.0
C3462 C 0.73967 0.32247 0.73452 0.0
C3463 C 0.74261 0.32941 0.75365 0.0
C3464 C 0.75694 0.32724 0.76483 0.0
C3465 C 0.72358 0.32389 0.72294 0.0
C3466 C 0.71886 0.34116 0.72529 0.0
C3467 C 0.71261 0.30832 0.70997 0.0
C3468 C 0.71579 0.28921 0.70764 0.0
C3469 C 0.71755 0.2802 0.72298 0.0
C3470 C 0.72162 0.26276 0.72089 0.0
C3471 C 0.72345 0.25386 0.70344 0.0
C3472 C 0.72124 0.26245 0.68803 0.0
C3473 C 0.71744 0.28007 0.69009 0.0
H3474 H 0.72657 0.24033 0.70185 0.0
H3475 H 0.68853 0.41049 0.72702 0.0
H3476 H 1.00481 0.32723 0.97043 0.0
H3477 H 0.01135 0.36117 0.98262 0.0
H3478 H 0.05738 0.37161 0.95531 0.0
H3479 H 0.05082 0.33751 0.94282 0.0
H3480 H 0.06212 0.39314 0.99261 0.0
H3481 H 0.0236 0.38015 0.93525 0.0
H3482 H 0.99717 0.36301 0.91341 0.0
H3483 H 0.96485 0.37898 0.95277 0.0
H3484 H 0.99109 0.39599 0.97497 0.0
H3485 H 0.07465 0.49304 1.0027 0.0
H3486 H 0.07121 0.45953 0.9906 0.0
H3487 H 0.01813 0.44591 1.00297 0.0
H3488 H 0.02123 0.47962 0.01397 0.0
H3489 H 0.01813 0.42574 0.97249 0.0
H3490 H 0.05567 0.43801 0.03037 0.0
H3491 H 0.08162 0.4557 0.05269 0.0
H3492 H 0.11515 0.44116 0.01406 0.0
H3493 H 0.08939 0.42357 0.99141 0.0
C3494 C 0.01646 0.33665 0.96715 0.0
C3495 C 0.02725 0.32957 0.95555 0.0
C3496 C 0.02016 0.35611 0.97413 0.0
C3497 C 0.03479 0.36901 0.96979 0.0
C3498 C 0.04602 0.36194 0.95886 0.0
C3499 C 0.04223 0.34244 0.95169 0.0
C3500 C 0.03765 0.38988 0.97582 0.0
C3501 C 0.05262 0.40035 0.98807 0.0
C3502 C 0.0251 0.39925 0.97022 0.0
C3503 C 1.00931 0.38919 0.95683 0.0
C3504 C 0.01085 0.37988 0.9393 0.0
C3505 C 0.99591 0.37021 0.92685 0.0
C3506 C 0.97934 0.36986 0.93172 0.0
C3507 C 0.97769 0.37924 0.94903 0.0
C3508 C 0.99259 0.38891 0.96155 0.0
C3509 C 0.06223 0.48289 1.0028 0.0
C3510 C 0.04822 0.489 1.00934 0.0
C3511 C 0.06031 0.46365 0.99601 0.0
C3512 C 0.04452 0.4499 0.99622 0.0
C3513 C 0.03048 0.45608 1.00263 0.0
C3514 C 0.03225 0.4754 1.00897 0.0
C3515 C 0.04252 0.42917 0.98961 0.0
C3516 C 0.02767 0.41865 0.97717 0.0
C3517 C 0.0551 0.41975 0.99525 0.0
C3518 C 0.0706 0.42959 1.00914 0.0
C3519 C 0.06858 0.4386 0.02663 0.0
C3520 C 0.08325 0.44862 0.03933 0.0
C3521 C 0.10002 0.44959 0.03477 0.0
C3522 C 0.10215 0.4404 0.01756 0.0
C3523 C 0.08752 0.43038 1.0048 0.0
H3524 H 0.11136 0.45743 0.04458 0.0
H3525 H 0.96778 0.36237 0.92206 0.0
H3526 H 0.04578 0.79699 0.19638 0.0
H3527 H 0.01872 0.79545 0.20972 0.0
H3528 H 1.00426 0.83082 0.17272 0.0
H3529 H 0.03164 0.8328 0.15957 0.0
H3530 H 0.99595 0.84107 0.20572 0.0
H3531 H 0.98608 0.78163 0.16516 0.0
H3532 H 0.99224 0.75167 0.15216 0.0
H3533 H 0.98928 0.73327 0.20462 0.0
H3534 H 0.98334 0.76326 0.21802 0.0
H3535 H 0.90653 0.82056 0.21896 0.0
H3536 H 0.9334 0.82229 0.20513 0.0
H3537 H 0.95017 0.78994 0.24397 0.0
H3538 H 0.92335 0.7883 0.25805 0.0
H3539 H 0.95695 0.77818 0.20956 0.0
H3540 H 0.96684 0.83822 0.24988 0.0
H3541 H 0.96007 0.86804 0.26219 0.0
H3542 H 0.96231 0.88511 0.20909 0.0
H3543 H 0.96886 0.85525 0.19639 0.0
C3544 C 0.03692 0.80455 0.19111 0.0
C3545 C 0.0409 0.81496 0.17681 0.0
C3546 C 0.02133 0.80355 0.1987 0.0
C3547 C 1.00917 0.81269 0.19202 0.0
C3548 C 0.01333 0.82355 0.17809 0.0
C3549 C 0.02902 0.82467 0.17056 0.0
C3550 C 0.99212 0.81079 0.19952 0.0
C3551 C 0.98733 0.82729 0.20629 0.0
C3552 C 0.9809 0.79284 0.20066 0.0
C3553 C 0.98443 0.77477 0.19264 0.0
C3554 C 0.98687 0.77126 0.17396 0.0
C3555 C 0.9903 0.75426 0.16651 0.0
C3556 C 0.99119 0.74059 0.17757 0.0
C3557 C 0.98861 0.74388 0.19608 0.0
C3558 C 0.98519 0.76087 0.20361 0.0
C3559 C 0.91595 0.81387 0.22467 0.0
C3560 C 0.91276 0.80444 0.2398 0.0
C3561 C 0.93134 0.81487 0.2167 0.0
C3562 C 0.94402 0.80653 0.22367 0.0
C3563 C 0.94064 0.79655 0.23835 0.0
C3564 C 0.92523 0.79554 0.24635 0.0
C3565 C 0.96085 0.80844 0.21579 0.0
C3566 C 0.96559 0.79194 0.20895 0.0
C3567 C 0.97196 0.82637 0.21449 0.0
C3568 C 0.96818 0.84441 0.22214 0.0
C3569 C 0.96577 0.84827 0.24079 0.0
C3570 C 0.96199 0.86519 0.24784 0.0
C3571 C 0.96072 0.87844 0.23641 0.0
C3572 C 0.96328 0.87482 0.21792 0.0
C3573 C 0.96704 0.85791 0.21079 0.0
H3574 H 0.95778 0.89153 0.2419 0.0
H3575 H 0.99385 0.72744 0.17177 0.0
H3576 H 0.50861 0.2841 0.1045 0.0
H3577 H 0.51064 0.31215 0.09024 0.0
H3578 H 0.48306 0.33483 0.13161 0.0
H3579 H 0.48069 0.30633 0.14592 0.0
H3580 H 0.47362 0.34223 0.09641 0.0
H3581 H 0.52581 0.3506 0.13734 0.0
H3582 H 0.55116 0.34168 0.15144 0.0
H3583 H 0.57078 0.33726 0.09924 0.0
H3584 H 0.5454 0.34586 0.08475 0.0
H3585 H 0.50668 0.43494 0.07207 0.0
H3586 H 0.49884 0.40874 0.08933 0.0
H3587 H 0.52453 0.37594 0.05382 0.0
H3588 H 0.53269 0.40213 0.03683 0.0
H3589 H 0.5343 0.37654 0.09032 0.0
H3590 H 0.4803 0.36598 0.04926 0.0
H3591 H 0.45508 0.37559 0.03583 0.0
H3592 H 0.43929 0.38561 0.08957 0.0
H3593 H 0.46456 0.37627 0.10336 0.0
C3594 C 0.50278 0.29492 0.11049 0.0
C3595 C 0.49469 0.29314 0.12649 0.0
C3596 C 0.50397 0.31097 0.10233 0.0
C3597 C 0.49734 0.32574 0.11011 0.0
C3598 C 0.48836 0.32361 0.12547 0.0
C3599 C 0.48703 0.30737 0.13363 0.0
C3600 C 0.50091 0.34373 0.10266 0.0
C3601 C 0.48688 0.34995 0.09536 0.0
C3602 C 0.51823 0.35376 0.10125 0.0
C3603 C 0.53362 0.34875 0.10993 0.0
C3604 C 0.53547 0.3476 0.12884 0.0
C3605 C 0.54985 0.34262 0.1369 0.0
C3606 C 0.56256 0.33888 0.12624 0.0
C3607 C 0.56092 0.34015 0.10749 0.0
C3608 C 0.54655 0.3451 0.09934 0.0
C3609 C 0.51063 0.42213 0.06797 0.0
C3610 C 0.52028 0.42058 0.05309 0.0
C3611 C 0.50604 0.40714 0.07775 0.0
C3612 C 0.51103 0.39037 0.07279 0.0
C3613 C 0.52053 0.38875 0.05785 0.0
C3614 C 0.52506 0.40367 0.04806 0.0
C3615 C 0.50702 0.37466 0.08348 0.0
C3616 C 0.52103 0.36895 0.09152 0.0
C3617 C 0.48973 0.36528 0.08568 0.0
C3618 C 0.47441 0.37062 0.07736 0.0
C3619 C 0.47151 0.37036 0.05823 0.0
C3620 C 0.4572 0.37573 0.05055 0.0
C3621 C 0.44562 0.38126 0.06185 0.0
C3622 C 0.44828 0.38135 0.08084 0.0
C3623 C 0.46259 0.376 0.08859 0.0
H3624 H 0.43455 0.38544 0.05588 0.0
H3625 H 0.57368 0.33502 0.13251 0.0
H3626 H 0.05225 0.2899 0.34103 0.0
H3627 H 0.02293 0.28625 0.32537 0.0
H3628 H 1.00721 0.30679 0.37703 0.0
H3629 H 0.0364 0.31031 0.39288 0.0
H3630 H 0.98173 0.27692 0.3562 0.0
H3631 H 0.01993 0.33663 0.34776 0.0
H3632 H 0.04603 0.35661 0.33796 0.0
H3633 H 0.03036 0.32619 0.28232 0.0
H3634 H 1.00427 0.30587 0.29187 0.0
H3635 H 0.91366 0.3176 0.33461 0.0
H3636 H 0.94078 0.31047 0.34513 0.0
H3637 H 0.9477 0.29306 0.28859 0.0
H3638 H 0.92074 0.30081 0.2779 0.0
H3639 H 0.97715 0.3166 0.30809 0.0
H3640 H 0.93631 0.26005 0.31592 0.0
H3641 H 0.90997 0.24089 0.32594 0.0
H3642 H 0.93013 0.26533 0.38259 0.0
H3643 H 0.9565 0.28487 0.37289 0.0
C3644 C 0.04251 0.29346 0.34912 0.0
C3645 C 0.0467 0.30059 0.36818 0.0
C3646 C 0.02579 0.29137 0.34013 0.0
C3647 C 0.01302 0.29647 0.35002 0.0
C3648 C 0.01692 0.30279 0.36917 0.0
C3649 C 0.03363 0.30488 0.37818 0.0
C3650 C 0.99593 0.29638 0.34035 0.0
C3651 C 0.98068 0.28562 0.34572 0.0
C3652 C 0.99465 0.30734 0.32632 0.0
C3653 C 1.01028 0.31959 0.32057 0.0
C3654 C 0.02213 0.33411 0.33347 0.0
C3655 C 0.0369 0.34551 0.32795 0.0
C3656 C 0.03988 0.34263 0.30954 0.0
C3657 C 0.02806 0.32838 0.29659 0.0
C3658 C 0.01328 0.31692 0.30204 0.0
C3659 C 0.92099 0.31234 0.3244 0.0
C3660 C 0.91515 0.30988 0.30543 0.0
C3661 C 0.93636 0.30803 0.33043 0.0
C3662 C 0.9461 0.30098 0.31763 0.0
C3663 C 0.94028 0.29836 0.29867 0.0
C3664 C 0.92486 0.3027 0.2926 0.0
C3665 C 0.96288 0.29745 0.3242 0.0
C3666 C 0.97812 0.30756 0.31828 0.0
C3667 C 0.96412 0.2859 0.33772 0.0
C3668 C 0.94835 0.27402 0.34366 0.0
C3669 C 0.93508 0.26143 0.33051 0.0
C3670 C 0.92014 0.25048 0.33614 0.0
C3671 C 0.91836 0.25191 0.3549 0.0
C3672 C 0.93153 0.26424 0.36807 0.0
C3673 C 0.94649 0.27524 0.36251 0.0
H3674 H 0.90679 0.24344 0.35926 0.0
H3675 H 0.05132 0.35147 0.3053 0.0
H3676 H 0.98253 0.67061 0.64405 0.0
H3677 H 0.98624 0.6435 0.62328 0.0
H3678 H 0.9907 0.67593 0.57905 0.0
H3679 H 0.98702 0.70317 0.59966 0.0
H3680 H 0.97284 0.62086 0.59151 0.0
H3681 H 0.02424 0.66985 0.55696 0.0
H3682 H 0.0445 0.70205 0.5643 0.0
H3683 H 0.04633 0.69999 0.62226 0.0
H3684 H 0.02632 0.66769 0.61525 0.0
H3685 H 0.99674 0.5654 0.51595 0.0
H3686 H 0.98638 0.58758 0.53707 0.0
H3687 H 0.03812 0.60817 0.56806 0.0
H3688 H 0.04865 0.58717 0.54596 0.0
H3689 H 0.02805 0.63628 0.56417 0.0
H3690 H 0.99989 0.57866 0.58291 0.0
H3691 H 0.98105 0.54612 0.58155 0.0
H3692 H 0.93607 0.56392 0.5633 0.0
H3693 H 0.95465 0.59621 0.56391 0.0
C3694 C 0.98395 0.67188 0.6298 0.0
C3695 C 0.98487 0.68921 0.62363 0.0
C3696 C 0.98612 0.65635 0.61796 0.0
C3697 C 0.9894 0.65792 0.59984 0.0
C3698 C 0.98867 0.67459 0.59315 0.0
C3699 C 0.98649 0.69013 0.60495 0.0
C3700 C 0.99523 0.64294 0.58855 0.0
C3701 C 0.98484 0.62414 0.58538 0.0
C3702 C 0.01125 0.6472 0.58124 0.0
C3703 C 0.02364 0.66645 0.58557 0.0
C3704 C 0.02904 0.67624 0.57126 0.0
C3705 C 0.04047 0.69451 0.57536 0.0
C3706 C 0.04665 0.70309 0.59373 0.0
C3707 C 0.0415 0.69336 0.60804 0.0
C3708 C 0.03011 0.67508 0.60401 0.0
C3709 C 1.00584 0.57469 0.5273 0.0
C3710 C 0.02346 0.57447 0.52943 0.0
C3711 C 0.99987 0.5872 0.53952 0.0
C3712 C 0.01136 0.59946 0.55442 0.0
C3713 C 0.02893 0.59892 0.55672 0.0
C3714 C 0.03495 0.58674 0.54422 0.0
C3715 C 1.00553 0.61387 0.56672 0.0
C3716 C 0.01597 0.63275 0.57012 0.0
C3717 C 0.98982 0.60948 0.57475 0.0
C3718 C 0.97874 0.58975 0.57322 0.0
C3719 C 0.98603 0.57546 0.57827 0.0
C3720 C 0.9754 0.55711 0.57767 0.0
C3721 C 0.95741 0.55295 0.57225 0.0
C3722 C 0.95002 0.56712 0.5674 0.0
C3723 C 0.96061 0.58542 0.56779 0.0
H3724 H 0.94919 0.53875 0.57184 0.0
H3725 H 0.05543 0.71726 0.59687 0.0
H3726 H 0.63726 0.85011 0.85108 0.0
H3727 H 0.66049 0.84894 0.83209 0.0
H3728 H 0.68865 0.83003 0.87513 0.0
H3729 H 0.66557 0.83152 0.89446 0.0
H3730 H 0.71069 0.85467 0.85842 0.0
H3731 H 0.6629 0.79811 0.84013 0.0
H3732 H 0.63217 0.78007 0.82985 0.0
H3733 H 0.63245 0.80504 0.7808 0.0
H3734 H 0.66314 0.82344 0.79092 0.0
H3735 H 0.7397 0.78428 0.79109 0.0
H3736 H 0.7165 0.79373 0.80583 0.0
H3737 H 0.74015 0.85231 0.80252 0.0
H3738 H 0.76379 0.84293 0.78807 0.0
H3739 H 0.69224 0.81068 0.79828 0.0
H3740 H 0.73487 0.87974 0.84507 0.0
H3741 H 0.76595 0.89535 0.85647 0.0
H3742 H 0.77717 0.84108 0.8505 0.0
H3743 H 0.74602 0.82506 0.84005 0.0
C3744 C 0.64846 0.84586 0.85661 0.0
C3745 C 0.64948 0.84064 0.87418 0.0
C3746 C 0.66173 0.84524 0.84573 0.0
C3747 C 0.67613 0.83914 0.85212 0.0
C3748 C 0.67761 0.83477 0.86998 0.0
C3749 C 0.66438 0.83553 0.88095 0.0
C3750 C 0.68894 0.83593 0.83965 0.0
C3751 C 0.7067 0.84517 0.84521 0.0
C3752 C 0.68366 0.82339 0.82252 0.0
C3753 C 0.66523 0.81231 0.81638 0.0
C3754 C 0.65636 0.79987 0.82722 0.0
C3755 C 0.63896 0.78956 0.82141 0.0
C3756 C 0.63034 0.79145 0.80471 0.0
C3757 C 0.63913 0.80362 0.79375 0.0
C3758 C 0.65652 0.81398 0.79951 0.0
C3759 C 0.73986 0.79915 0.79318 0.0
C3760 C 0.75376 0.81294 0.78876 0.0
C3761 C 0.72654 0.80452 0.80158 0.0
C3762 C 0.72681 0.82376 0.8056 0.0
C3763 C 0.73993 0.83744 0.79989 0.0
C3764 C 0.75341 0.83207 0.79165 0.0
C3765 C 0.71408 0.8293 0.81705 0.0
C3766 C 0.69628 0.82049 0.81132 0.0
C3767 C 0.71942 0.84187 0.83423 0.0
C3768 C 0.73811 0.85122 0.8414 0.0
C3769 C 0.74392 0.87111 0.84639 0.0
C3770 C 0.76155 0.88002 0.85278 0.0
C3771 C 0.77354 0.86922 0.85412 0.0
C3772 C 0.76787 0.84944 0.84944 0.0
C3773 C 0.75021 0.84042 0.84337 0.0
H3774 H 0.78722 0.87617 0.85881 0.0
H3775 H 0.61687 0.78346 0.80024 0.0
H3776 H 0.43847 0.56215 0.697 0.0
H3777 H 0.45303 0.56098 0.66917 0.0
H3778 H 0.49988 0.55864 0.70159 0.0
H3779 H 0.48524 0.55954 0.72947 0.0
H3780 H 0.50932 0.58185 0.67695 0.0
H3781 H 0.47101 0.51879 0.66988 0.0
H3782 H 0.44268 0.49495 0.66763 0.0
H3783 H 0.42282 0.51542 0.62079 0.0
H3784 H 0.45097 0.53956 0.62292 0.0
H3785 H 0.5576 0.56114 0.60456 0.0
H3786 H 0.54103 0.56067 0.63049 0.0
H3787 H 0.49366 0.55173 0.59332 0.0
H3788 H 0.51049 0.55108 0.56678 0.0
H3789 H 0.4833 0.53516 0.61981 0.0
H3790 H 0.51954 0.59804 0.62602 0.0
H3791 H 0.54661 0.62367 0.62786 0.0
H3792 H 0.56872 0.60643 0.67564 0.0
H3793 H 0.54185 0.58054 0.67396 0.0
C3794 C 0.4519 0.56141 0.69841 0.0
C3795 C 0.46039 0.56099 0.71608 0.0
C3796 C 0.46033 0.56059 0.68216 0.0
C3797 C 0.47785 0.55948 0.68256 0.0
C3798 C 0.48646 0.55943 0.70027 0.0
C3799 C 0.47794 0.55994 0.71649 0.0
C3800 C 0.48716 0.55859 0.66488 0.0
C3801 C 0.5036 0.57137 0.66463 0.0
C3802 C 0.47993 0.5456 0.648 0.0
C3803 C 0.46303 0.5311 0.64669 0.0
C3804 C 0.46056 0.5183 0.65919 0.0
C3805 C 0.44454 0.50472 0.65792 0.0
C3806 C 0.43094 0.50371 0.64411 0.0
C3807 C 0.43335 0.51624 0.63151 0.0
C3808 C 0.44934 0.52987 0.63273 0.0
C3809 C 0.54361 0.55895 0.60163 0.0
C3810 C 0.53575 0.55621 0.58305 0.0
C3811 C 0.53396 0.55898 0.61685 0.0
C3812 C 0.51574 0.55696 0.61474 0.0
C3813 C 0.50761 0.55361 0.59605 0.0
C3814 C 0.51735 0.55319 0.58059 0.0
C3815 C 0.50565 0.55832 0.63191 0.0
C3816 C 0.48907 0.54565 0.6321 0.0
C3817 C 0.51257 0.57172 0.64867 0.0
C3818 C 0.52875 0.58724 0.64975 0.0
C3819 C 0.53022 0.59964 0.63685 0.0
C3820 C 0.54552 0.61422 0.63787 0.0
C3821 C 0.55939 0.61664 0.65183 0.0
C3822 C 0.55797 0.60452 0.66482 0.0
C3823 C 0.5427 0.5899 0.66385 0.0
H3824 H 0.57122 0.62794 0.65259 0.0
H3825 H 0.41856 0.49318 0.64315 0.0
H3826 H 0.80644 0.19798 0.98814 0.0
H3827 H 0.81282 0.20498 0.9579 0.0
H3828 H 0.82632 0.15201 0.94517 0.0
H3829 H 0.81985 0.14476 0.9757 0.0
H3830 H 0.84626 0.19898 0.93444 0.0
H3831 H 0.79884 0.13872 0.92089 0.0
H3832 H 0.77319 0.11733 0.93012 0.0
H3833 H 0.74775 0.16228 0.93542 0.0
H3834 H 0.77336 0.18396 0.92643 0.0
H3835 H 0.79737 0.21441 0.8429 0.0
H3836 H 0.80531 0.19204 0.86159 0.0
H3837 H 0.81538 0.23502 0.91043 0.0
H3838 H 0.80733 0.25718 0.89212 0.0
H3839 H 0.78901 0.1814 0.89444 0.0
H3840 H 0.85336 0.23468 0.93268 0.0
H3841 H 0.8786 0.25803 0.92511 0.0
H3842 H 0.87047 0.22716 0.86969 0.0
H3843 H 0.84509 0.20373 0.87686 0.0
C3844 C 0.81116 0.18799 0.97912 0.0
C3845 C 0.81242 0.17071 0.98413 0.0
C3846 C 0.81489 0.19207 0.9619 0.0
C3847 C 0.81989 0.17893 0.94938 0.0
C3848 C 0.82247 0.16228 0.95476 0.0
C3849 C 0.81879 0.15819 0.97215 0.0
C3850 C 0.81961 0.18184 0.93006 0.0
C3851 C 0.83397 0.19468 0.92529 0.0
C3852 C 0.80358 0.17604 0.91817 0.0
C3853 C 0.78799 0.16293 0.92306 0.0
C3854 C 0.78779 0.14403 0.92409 0.0
C3855 C 0.77327 0.13186 0.92927 0.0
C3856 C 0.75886 0.13845 0.93338 0.0
C3857 C 0.75892 0.15719 0.93224 0.0
C3858 C 0.77341 0.16941 0.92707 0.0
C3859 C 0.80126 0.21902 0.85764 0.0
C3860 C 0.80172 0.23754 0.86607 0.0
C3861 C 0.80584 0.20629 0.86822 0.0
C3862 C 0.81127 0.21209 0.88724 0.0
C3863 C 0.81151 0.23044 0.89568 0.0
C3864 C 0.80665 0.24298 0.88524 0.0
C3865 C 0.81555 0.19892 0.89899 0.0
C3866 C 0.80173 0.18463 0.90268 0.0
C3867 C 0.83214 0.20323 0.9097 0.0
C3868 C 0.84735 0.21741 0.90534 0.0
C3869 C 0.857 0.23282 0.9189 0.0
C3870 C 0.87128 0.24612 0.91466 0.0
C3871 C 0.87615 0.24406 0.89694 0.0
C3872 C 0.86668 0.22875 0.8834 0.0
C3873 C 0.85228 0.21553 0.88752 0.0
H3874 H 0.88723 0.25435 0.89369 0.0
H3875 H 0.74765 0.12902 0.93742 0.0
H3876 H 0.1204 0.53799 0.2182 0.0
H3877 H 0.09965 0.53282 0.19036 0.0
H3878 H 0.12217 0.48994 0.16454 0.0
H3879 H 0.14352 0.49571 0.19213 0.0
H3880 H 0.12248 0.51423 0.14386 0.0
H3881 H 0.07821 0.48001 0.17393 0.0
H3882 H 0.06024 0.47325 0.1988 0.0
H3883 H 0.04147 0.52226 0.19419 0.0
H3884 H 0.05951 0.52949 0.16947 0.0
H3885 H 0.03892 0.50444 0.07418 0.0
H3886 H 0.05305 0.49578 0.10131 0.0
H3887 H 0.09385 0.54825 0.10885 0.0
H3888 H 0.07979 0.55692 0.08172 0.0
H3889 H 0.05961 0.51222 0.13663 0.0
H3890 H 0.13171 0.54222 0.12552 0.0
H3891 H 0.1506 0.54382 0.10088 0.0
H3892 H 0.11308 0.49617 0.0667 0.0
H3893 H 0.09395 0.49432 0.09111 0.0
C3894 C 0.12065 0.5271 0.20677 0.0
C3895 C 0.13374 0.51744 0.20722 0.0
C3896 C 0.10867 0.52406 0.19086 0.0
C3897 C 0.10931 0.51097 0.1753 0.0
C3898 C 0.12149 0.5002 0.17632 0.0
C3899 C 0.13368 0.5035 0.19209 0.0
C3900 C 0.09929 0.51073 0.15724 0.0
C3901 C 0.10868 0.51358 0.14229 0.0
C3902 C 0.08122 0.50963 0.15502 0.0
C3903 C 0.07031 0.50535 0.1699 0.0
C3904 C 0.07035 0.48943 0.1783 0.0
C3905 C 0.06013 0.4855 0.19236 0.0
C3906 C 0.04974 0.49733 0.19809 0.0
C3907 C 0.04952 0.5131 0.18974 0.0
C3908 C 0.05972 0.51711 0.17568 0.0
C3909 C 0.05093 0.51409 0.08163 0.0
C3910 C 0.05837 0.53128 0.07584 0.0
C3911 C 0.05897 0.50913 0.0971 0.0
C3912 C 0.0746 0.52125 0.10696 0.0
C3913 C 0.08197 0.53851 0.10124 0.0
C3914 C 0.07392 0.54348 0.08579 0.0
C3915 C 0.08301 0.51622 0.12358 0.0
C3916 C 0.07334 0.51253 0.13822 0.0
C3917 C 0.10077 0.51614 0.12548 0.0
C3918 C 0.11138 0.51821 0.1101 0.0
C3919 C 0.12744 0.53219 0.11268 0.0
C3920 C 0.13818 0.53314 0.09878 0.0
C3921 C 0.13305 0.5201 0.08229 0.0
C3922 C 0.117 0.50632 0.07947 0.0
C3923 C 0.10615 0.50537 0.0933 0.0
H3924 H 0.14165 0.52059 0.07183 0.0
H3925 H 0.04183 0.49426 0.20898 0.0
H3926 H 0.82877 0.84748 0.49268 0.0
H3927 H 0.82549 0.8353 0.45961 0.0
H3928 H 0.78757 0.86646 0.44942 0.0
H3929 H 0.79078 0.87875 0.48265 0.0
H3930 H 0.77813 0.83037 0.4278 0.0
H3931 H 0.82877 0.88397 0.44211 0.0
H3932 H 0.85728 0.90296 0.45918 0.0
H3933 H 0.88008 0.85743 0.44238 0.0
H3934 H 0.85162 0.83805 0.42543 0.0
H3935 H 0.78042 0.82392 0.33109 0.0
H3936 H 0.78108 0.83426 0.3641 0.0
H3937 H 0.82609 0.8132 0.37544 0.0
H3938 H 0.82606 0.80387 0.34222 0.0
H3939 H 0.83133 0.84431 0.39687 0.0
H3940 H 0.78081 0.79038 0.38239 0.0
H3941 H 0.75227 0.77115 0.36552 0.0
H3942 H 0.72909 0.81625 0.3827 0.0
H3943 H 0.75754 0.83587 0.39948 0.0
C3944 C 0.81956 0.85162 0.48349 0.0
C3945 C 0.81009 0.8642 0.49042 0.0
C3946 C 0.81776 0.84468 0.4645 0.0
C3947 C 0.80646 0.85013 0.45189 0.0
C3948 C 0.79642 0.86206 0.45881 0.0
C3949 C 0.79828 0.8691 0.47785 0.0
C3950 C 0.80571 0.84398 0.43152 0.0
C3951 C 0.78971 0.83358 0.42097 0.0
C3952 C 0.82086 0.8478 0.42259 0.0
C3953 C 0.83802 0.85949 0.43265 0.0
C3954 C 0.83983 0.87795 0.44217 0.0
C3955 C 0.85598 0.88879 0.45181 0.0
C3956 C 0.87047 0.88139 0.45191 0.0
C3957 C 0.86884 0.86314 0.44232 0.0
C3958 C 0.8527 0.85223 0.43268 0.0
C3959 C 0.79043 0.82139 0.3406 0.0
C3960 C 0.80315 0.81295 0.33395 0.0
C3961 C 0.79072 0.82721 0.3596 0.0
C3962 C 0.80338 0.82418 0.37257 0.0
C3963 C 0.81611 0.81572 0.36589 0.0
C3964 C 0.81607 0.81032 0.34684 0.0
C3965 C 0.80374 0.83036 0.39297 0.0
C3966 C 0.8197 0.84091 0.40358 0.0
C3967 C 0.78854 0.82654 0.40194 0.0
C3968 C 0.77136 0.81466 0.39206 0.0
C3969 C 0.76965 0.79624 0.38249 0.0
C3970 C 0.75349 0.78527 0.37295 0.0
C3971 C 0.73889 0.7925 0.373 0.0
C3972 C 0.74041 0.81069 0.38266 0.0
C3973 C 0.75655 0.82173 0.3922 0.0
H3974 H 0.7264 0.78399 0.36559 0.0
H3975 H 0.88297 0.8898 0.45938 0.0
H3976 H 0.47278 0.57923 0.83744 0.0
H3977 H 0.48593 0.57806 0.86858 0.0
H3978 H 0.49186 0.52251 0.84902 0.0
H3979 H 0.47887 0.52373 0.81786 0.0
H3980 H 0.48064 0.52233 0.88227 0.0
H3981 H 0.52747 0.56448 0.8601 0.0
H3982 H 0.54151 0.59265 0.84725 0.0
H3983 H 0.53162 0.62914 0.89345 0.0
H3984 H 0.51731 0.60116 0.90646 0.0
H3985 H 0.53314 0.51406 0.96356 0.0
H3986 H 0.52097 0.51588 0.93242 0.0
H3987 H 0.52418 0.57502 0.95 0.0
H3988 H 0.53719 0.5734 0.98098 0.0
H3989 H 0.53038 0.57361 0.91757 0.0
H3990 H 0.48307 0.5332 0.93978 0.0
H3991 H 0.46774 0.50592 0.9531 0.0
H3992 H 0.47646 0.46738 0.90784 0.0
H3993 H 0.49204 0.49444 0.89435 0.0
C3994 C 0.47699 0.56678 0.83962 0.0
C3995 C 0.4747 0.55166 0.82464 0.0
C3996 C 0.48465 0.56611 0.85766 0.0
C3997 C 0.49027 0.55022 0.86172 0.0
C3998 C 0.48783 0.53505 0.84677 0.0
C3999 C 0.48039 0.53581 0.8287 0.0
C4000 C 0.49843 0.54927 0.8813 0.0
C4001 C 0.49168 0.5335 0.88979 0.0
C4002 C 0.51258 0.5639 0.89194 0.0
C4003 C 0.52116 0.58072 0.88415 0.0
C4004 C 0.52817 0.5785 0.86744 0.0
C4005 C 0.53619 0.59444 0.86014 0.0
C4006 C 0.53741 0.61267 0.8695 0.0
C4007 C 0.53064 0.61501 0.8862 0.0
C4008 C 0.52258 0.59912 0.89355 0.0
C4009 C 0.53127 0.52752 0.96093 0.0
C4010 C 0.53625 0.54352 0.9753 0.0
C4011 C 0.52402 0.52854 0.94286 0.0
C4012 C 0.52093 0.54552 0.93824 0.0
C4013 C 0.52612 0.56159 0.95259 0.0
C4014 C 0.53361 0.56063 0.97061 0.0
C4015 C 0.51261 0.54661 0.91868 0.0
C4016 C 0.51932 0.56241 0.91015 0.0
C4017 C 0.49822 0.53214 0.90811 0.0
C4018 C 0.48888 0.51584 0.91616 0.0
C4019 C 0.48182 0.51891 0.93273 0.0
C4020 C 0.47307 0.50349 0.9403 0.0
C4021 C 0.47117 0.48493 0.93135 0.0
C4022 C 0.47797 0.48176 0.91477 0.0
C4023 C 0.48675 0.49713 0.90715 0.0
H4024 H 0.46439 0.47301 0.93724 0.0
H4025 H 0.54363 0.62499 0.86383 0.0
H4026 H 0.80661 0.20724 0.06637 0.0
H4027 H 0.80832 0.23286 0.09207 0.0
H4028 H 0.78953 0.19152 0.12631 0.0
H4029 H 0.78782 0.16579 0.10075 0.0
H4030 H 0.772 0.22017 0.12711 0.0
H4031 H 0.83134 0.2139 0.13229 0.0
H4032 H 0.85934 0.21358 0.12084 0.0
H4033 H 0.86605 0.27072 0.11101 0.0
H4034 H 0.83795 0.27128 0.12218 0.0
H4035 H 0.79414 0.25908 0.2196 0.0
H4036 H 0.79015 0.24235 0.1881 0.0
H4037 H 0.81461 0.29461 0.17016 0.0
H4038 H 0.81896 0.31162 0.20223 0.0
H4039 H 0.82794 0.26596 0.15689 0.0
H4040 H 0.77102 0.27414 0.15739 0.0
H4041 H 0.74363 0.27458 0.17013 0.0
H4042 H 0.73212 0.21446 0.16943 0.0
H4043 H 0.75958 0.21368 0.15697 0.0
C4044 C 0.80293 0.20358 0.0794 0.0
C4045 C 0.79708 0.18447 0.08153 0.0
C4046 C 0.80392 0.21825 0.09404 0.0
C4047 C 0.79902 0.21404 0.11102 0.0
C4048 C 0.7933 0.19501 0.11325 0.0
C4049 C 0.79244 0.18034 0.09867 0.0
C4050 C 0.79974 0.22939 0.12655 0.0
C4051 C 0.78421 0.23018 0.13368 0.0
C4052 C 0.81559 0.2429 0.13456 0.0
C4053 C 0.83245 0.24254 0.12783 0.0
C4054 C 0.83871 0.22633 0.12751 0.0
C4055 C 0.85461 0.22612 0.12112 0.0
C4056 C 0.86444 0.2421 0.11514 0.0
C4057 C 0.85841 0.25834 0.1156 0.0
C4058 C 0.8425 0.25862 0.12197 0.0
C4059 C 0.79844 0.26714 0.20896 0.0
C4060 C 0.80681 0.28667 0.21332 0.0
C4061 C 0.79607 0.25755 0.1909 0.0
C4062 C 0.80181 0.26728 0.17672 0.0
C4063 C 0.80996 0.28689 0.18092 0.0
C4064 C 0.81239 0.29657 0.19916 0.0
C4065 C 0.80027 0.25633 0.15791 0.0
C4066 C 0.81563 0.25633 0.15008 0.0
C4067 C 0.78422 0.2436 0.14919 0.0
C4068 C 0.76742 0.24387 0.15627 0.0
C4069 C 0.76269 0.26101 0.16002 0.0
C4070 C 0.74714 0.26132 0.1672 0.0
C4071 C 0.73615 0.24456 0.17061 0.0
C4072 C 0.74065 0.22743 0.16677 0.0
C4073 C 0.75619 0.22704 0.15961 0.0
H4074 H 0.72414 0.24484 0.17621 0.0
H4075 H 0.87676 0.24191 0.1102 0.0
H4076 H 0.1831 0.52938 0.31213 0.0
H4077 H 0.18178 0.52963 0.34523 0.0
H4078 H 0.14539 0.56408 0.34396 0.0
H4079 H 0.1469 0.56422 0.31127 0.0
H4080 H 0.16874 0.57573 0.37514 0.0
H4081 H 0.13281 0.51376 0.33786 0.0
H4082 H 0.13041 0.48324 0.3177 0.0
H4083 H 0.16578 0.46971 0.35783 0.0
H4084 H 0.16862 0.50034 0.37805 0.0
H4085 H 0.09065 0.55481 0.40552 0.0
H4086 H 0.1175 0.55959 0.3918 0.0
H4087 H 0.13712 0.52641 0.42795 0.0
H4088 H 0.11027 0.52211 0.44247 0.0
H4089 H 0.13765 0.51399 0.39057 0.0
H4090 H 0.16032 0.57069 0.43247 0.0
H4091 H 0.16092 0.60088 0.45218 0.0
H4092 H 0.14961 0.62448 0.40421 0.0
H4093 H 0.14875 0.59449 0.38413 0.0
C4094 C 0.17491 0.53709 0.31898 0.0
C4095 C 0.16493 0.54662 0.30907 0.0
C4096 C 0.17425 0.53729 0.33789 0.0
C4097 C 0.16349 0.54686 0.34705 0.0
C4098 C 0.15393 0.55675 0.33722 0.0
C4099 C 0.15465 0.55666 0.31846 0.0
C4100 C 0.16051 0.5454 0.36633 0.0
C4101 C 0.16215 0.56226 0.37873 0.0
C4102 C 0.15289 0.52774 0.37146 0.0
C4103 C 0.15112 0.5094 0.3593 0.0
C4104 C 0.14017 0.50432 0.34229 0.0
C4105 C 0.13875 0.48703 0.33086 0.0
C4106 C 0.14804 0.4746 0.33642 0.0
C4107 C 0.1587 0.47941 0.35347 0.0
C4108 C 0.16024 0.49674 0.36491 0.0
C4109 C 0.10081 0.54895 0.411 0.0
C4110 C 0.09825 0.53805 0.42509 0.0
C4111 C 0.11621 0.55173 0.40314 0.0
C4112 C 0.12941 0.54361 0.40908 0.0
C4113 C 0.12713 0.53293 0.42333 0.0
C4114 C 0.11171 0.53031 0.43141 0.0
C4115 C 0.14423 0.54445 0.39837 0.0
C4116 C 0.14504 0.52748 0.38764 0.0
C4117 C 0.15402 0.56204 0.39476 0.0
C4118 C 0.15461 0.58028 0.40675 0.0
C4119 C 0.15794 0.58229 0.4261 0.0
C4120 C 0.15831 0.59937 0.43735 0.0
C4121 C 0.15533 0.61455 0.42947 0.0
C4122 C 0.15199 0.61272 0.4103 0.0
C4123 C 0.15162 0.5957 0.39896 0.0
H4124 H 0.1556 0.62773 0.43824 0.0
H4125 H 0.14691 0.4612 0.32757 0.0
H4126 H 0.81251 0.90599 0.61492 0.0
H4127 H 0.81012 0.89227 0.64293 0.0
H4128 H 0.80651 0.83708 0.61158 0.0
H4129 H 0.80952 0.85097 0.58341 0.0
H4130 H 0.78689 0.86888 0.65482 0.0
H4131 H 0.82168 0.80936 0.63866 0.0
H4132 H 0.84509 0.80301 0.6212 0.0
H4133 H 0.86816 0.86295 0.62599 0.0
H4134 H 0.84502 0.86966 0.64368 0.0
H4135 H 0.76818 0.80484 0.71735 0.0
H4136 H 0.77259 0.81927 0.68981 0.0
H4137 H 0.8277 0.8409 0.70944 0.0
H4138 H 0.82333 0.82613 0.73706 0.0
H4139 H 0.82317 0.82729 0.67328 0.0
H4140 H 0.8006 0.86976 0.71168 0.0
H4141 H 0.78043 0.87935 0.73192 0.0
H4142 H 0.73851 0.86056 0.68685 0.0
H4143 H 0.75837 0.85026 0.6664 0.0
C4144 C 0.81121 0.89091 0.61387 0.0
C4145 C 0.81126 0.87965 0.59675 0.0
C4146 C 0.8098 0.88303 0.63002 0.0
C4147 C 0.80829 0.86359 0.62964 0.0
C4148 C 0.80801 0.85219 0.61249 0.0
C4149 C 0.80962 0.86013 0.59629 0.0
C4150 C 0.80688 0.85545 0.64718 0.0
C4151 C 0.79482 0.85974 0.65873 0.0
C4152 C 0.81747 0.84387 0.65282 0.0
C4153 C 0.8315 0.83999 0.6423 0.0
C4154 C 0.83178 0.82118 0.63603 0.0
C4155 C 0.845 0.81752 0.62609 0.0
C4156 C 0.85807 0.83257 0.62243 0.0
C4157 C 0.85798 0.85131 0.62877 0.0
C4158 C 0.84481 0.85505 0.63873 0.0
C4159 C 0.78125 0.81275 0.71589 0.0
C4160 C 0.79539 0.81437 0.72947 0.0
C4161 C 0.78376 0.82104 0.70008 0.0
C4162 C 0.80048 0.83136 0.69745 0.0
C4163 C 0.81467 0.83301 0.71103 0.0
C4164 C 0.81215 0.82468 0.72691 0.0
C4165 C 0.80297 0.84046 0.68061 0.0
C4166 C 0.81521 0.83636 0.66924 0.0
C4167 C 0.79295 0.85271 0.67541 0.0
C4168 C 0.78095 0.85906 0.68755 0.0
C4169 C 0.78705 0.86752 0.7061 0.0
C4170 C 0.77567 0.87311 0.71762 0.0
C4171 C 0.75818 0.87061 0.71069 0.0
C4172 C 0.75206 0.86248 0.6922 0.0
C4173 C 0.76337 0.85673 0.68064 0.0
H4174 H 0.7494 0.87499 0.71964 0.0
H4175 H 0.86828 0.8297 0.61473 0.0
H4176 H 0.7829 0.5139 0.51358 0.0
H4177 H 0.76075 0.53103 0.50955 0.0
H4178 H 0.72446 0.47977 0.47899 0.0
H4179 H 0.74691 0.46258 0.48251 0.0
H4180 H 0.71944 0.51265 0.46669 0.0
H4181 H 0.72378 0.48876 0.5233 0.0
H4182 H 0.73888 0.48321 0.55184 0.0
H4183 H 0.75635 0.54334 0.57175 0.0
H4184 H 0.74157 0.54926 0.54318 0.0
H4185 H 0.64289 0.53712 0.49685 0.0
H4186 H 0.66587 0.52306 0.48672 0.0
H4187 H 0.70505 0.57107 0.51899 0.0
H4188 H 0.68215 0.58505 0.52935 0.0
H4189 H 0.70759 0.53838 0.52864 0.0
H4190 H 0.70086 0.56144 0.4712 0.0
H4191 H 0.68422 0.56528 0.44279 0.0
H4192 H 0.66877 0.50483 0.42475 0.0
H4193 H 0.68512 0.50059 0.45319 0.0
C4194 C 0.77035 0.50637 0.50562 0.0
C4195 C 0.76649 0.48686 0.49863 0.0
C4196 C 0.75772 0.51618 0.50329 0.0
C4197 C 0.74086 0.50656 0.49433 0.0
C4198 C 0.73739 0.48742 0.486 0.0
C4199 C 0.75018 0.47762 0.48807 0.0
C4200 C 0.72651 0.51583 0.49608 0.0
C4201 C 0.7167 0.51817 0.48019 0.0
C4202 C 0.72294 0.52296 0.51373 0.0
C4203 C 0.73171 0.51945 0.53102 0.0
C4204 C 0.73095 0.5008 0.53371 0.0
C4205 C 0.73944 0.49759 0.54989 0.0
C4206 C 0.7486 0.51292 0.56358 0.0
C4207 C 0.74926 0.53149 0.56112 0.0
C4208 C 0.74083 0.53478 0.54494 0.0
C4209 C 0.65643 0.54494 0.50133 0.0
C4210 C 0.66078 0.56207 0.51408 0.0
C4211 C 0.66954 0.5369 0.4955 0.0
C4212 C 0.68716 0.54599 0.50215 0.0
C4213 C 0.69152 0.56377 0.51378 0.0
C4214 C 0.67845 0.57173 0.51972 0.0
C4215 C 0.70084 0.53591 0.49927 0.0
C4216 C 0.71038 0.53311 0.51507 0.0
C4217 C 0.70385 0.52817 0.48156 0.0
C4218 C 0.69414 0.5307 0.46439 0.0
C4219 C 0.69382 0.54895 0.46123 0.0
C4220 C 0.68447 0.55121 0.44511 0.0
C4221 C 0.67548 0.53531 0.43196 0.0
C4222 C 0.67581 0.51713 0.43491 0.0
C4223 C 0.68512 0.5148 0.45103 0.0
H4224 H 0.66821 0.53709 0.41952 0.0
H4225 H 0.75516 0.5104 0.57611 0.0
H4226 H 0.22378 0.17269 0.49635 0.0
H4227 H 0.19432 0.1529 0.49704 0.0
H4228 H 0.21532 0.10596 0.50563 0.0
H4229 H 0.24489 0.12567 0.50504 0.0
H4230 H 0.18483 0.09528 0.47976 0.0
H4231 H 0.20467 0.13228 0.54173 0.0
H4232 H 0.2159 0.1623 0.56395 0.0
H4233 H 0.17139 0.18086 0.54539 0.0
H4234 H 0.16 0.15102 0.52291 0.0
H4235 H 0.11856 0.03233 0.51237 0.0
H4236 H 0.14555 0.05469 0.50825 0.0
H4237 H 0.11986 0.0998 0.51204 0.0
H4238 H 0.09282 0.07728 0.51688 0.0
H4239 H 0.15114 0.11364 0.52919 0.0
H4240 H 0.12942 0.07792 0.46953 0.0
H4241 H 0.11715 0.04956 0.44544 0.0
H4242 H 0.1633 0.03079 0.45612 0.0
H4243 H 0.17576 0.05892 0.48048 0.0
C4244 C 0.22218 0.1581 0.4982 0.0
C4245 C 0.23682 0.15084 0.50068 0.0
C4246 C 0.20528 0.14682 0.4987 0.0
C4247 C 0.20257 0.12798 0.50161 0.0
C4248 C 0.21706 0.12046 0.50342 0.0
C4249 C 0.23399 0.13178 0.50309 0.0
C4250 C 0.18474 0.11619 0.50323 0.0
C4251 C 0.17753 0.09918 0.49068 0.0
C4252 C 0.17481 0.12168 0.51693 0.0
C4253 C 0.18157 0.1395 0.53055 0.0
C4254 C 0.19734 0.14282 0.54232 0.0
C4255 C 0.20372 0.15979 0.55497 0.0
C4256 C 0.19438 0.1735 0.55605 0.0
C4257 C 0.17861 0.17024 0.54453 0.0
C4258 C 0.17218 0.15329 0.53184 0.0
C4259 C 0.11866 0.04703 0.51237 0.0
C4260 C 0.10361 0.05309 0.51503 0.0
C4261 C 0.1341 0.05983 0.50985 0.0
C4262 C 0.1348 0.07897 0.50936 0.0
C4263 C 0.11976 0.08514 0.51229 0.0
C4264 C 0.10431 0.07231 0.51513 0.0
C4265 C 0.15132 0.09233 0.506 0.0
C4266 C 0.1583 0.10971 0.51815 0.0
C4267 C 0.16086 0.08741 0.49162 0.0
C4268 C 0.15347 0.07047 0.47694 0.0
C4269 C 0.1369 0.06768 0.46684 0.0
C4270 C 0.12992 0.05165 0.45312 0.0
C4271 C 0.13942 0.03836 0.44928 0.0
C4272 C 0.15595 0.0411 0.45912 0.0
C4273 C 0.16299 0.05709 0.47287 0.0
H4274 H 0.13399 0.02596 0.43865 0.0
H4275 H 0.19935 0.18663 0.56585 0.0
H4276 H 0.23833 0.98383 0.75596 0.0
H4277 H 0.25203 0.95765 0.75483 0.0
H4278 H 0.20959 0.92553 0.77888 0.0
H4279 H 0.19675 0.95257 0.78146 0.0
H4280 H 0.23206 0.91221 0.78969 0.0
H4281 H 0.22198 0.91872 0.72663 0.0
H4282 H 0.22313 0.93442 0.69928 0.0
H4283 H 0.27921 0.9489 0.70812 0.0
H4284 H 0.27838 0.93346 0.73564 0.0
H4285 H 0.25403 0.82263 0.75945 0.0
H4286 H 0.24068 0.84942 0.76144 0.0
H4287 H 0.291 0.88802 0.76165 0.0
H4288 H 0.30448 0.86139 0.7603 0.0
H4289 H 0.26443 0.89695 0.7381 0.0
H4290 H 0.2719 0.88702 0.80143 0.0
H4291 H 0.26784 0.86732 0.82579 0.0
H4292 H 0.21214 0.85471 0.81229 0.0
H4293 H 0.21588 0.87424 0.78775 0.0
C4294 C 0.23179 0.97123 0.76104 0.0
C4295 C 0.21611 0.97085 0.76875 0.0
C4296 C 0.23965 0.95573 0.76012 0.0
C4297 C 0.23198 0.93837 0.76609 0.0
C4298 C 0.21631 0.93813 0.77394 0.0
C4299 C 0.20873 0.95389 0.77538 0.0
C4300 C 0.24021 0.92095 0.76451 0.0
C4301 C 0.23885 0.90901 0.77811 0.0
C4302 C 0.24953 0.91575 0.74974 0.0
C4303 C 0.25011 0.92513 0.7333 0.0
C4304 C 0.23455 0.92536 0.7228 0.0
C4305 C 0.23515 0.9342 0.70726 0.0
C4306 C 0.25124 0.94271 0.702 0.0
C4307 C 0.26676 0.94235 0.71223 0.0
C4308 C 0.26624 0.93354 0.72779 0.0
C4309 C 0.2624 0.83677 0.75991 0.0
C4310 C 0.28062 0.8393 0.75967 0.0
C4311 C 0.25463 0.85236 0.76113 0.0
C4312 C 0.26453 0.87141 0.76179 0.0
C4313 C 0.28267 0.87387 0.76118 0.0
C4314 C 0.2905 0.85836 0.76042 0.0
C4315 C 0.25618 0.88853 0.76318 0.0
C4316 C 0.25757 0.90033 0.74958 0.0
C4317 C 0.24642 0.89321 0.77758 0.0
C4318 C 0.24417 0.88194 0.79265 0.0
C4319 C 0.25879 0.87998 0.80361 0.0
C4320 C 0.25655 0.86885 0.81745 0.0
C4321 C 0.23974 0.85967 0.8205 0.0
C4322 C 0.22515 0.86178 0.80987 0.0
C4323 C 0.22732 0.87291 0.79602 0.0
H4324 H 0.23801 0.85093 0.83111 0.0
H4325 H 0.25167 0.94954 0.68997 0.0
H4326 H 0.35752 0.96824 0.9826 0.0
H4327 H 0.38823 0.98452 0.99269 0.0
H4328 H 0.37452 0.01767 0.03912 0.0
H4329 H 0.34357 1.00121 0.02935 0.0
H4330 H 0.40703 0.03471 0.01611 0.0
H4331 H 0.38304 0.9885 0.05445 0.0
H4332 H 0.36403 0.95767 0.0582 0.0
H4333 H 0.39184 0.92842 0.02238 0.0
H4334 H 0.4108 0.95912 0.01815 0.0
H4335 H 0.49573 0.05102 0.054 0.0
H4336 H 0.4641 0.04575 0.05327 0.0
H4337 H 0.45567 0.99058 0.01977 0.0
H4338 H 0.48715 0.99578 0.02034 0.0
H4339 H 0.43307 0.98848 0.04302 0.0
H4340 H 0.45299 0.0315 1.00039 0.0
H4341 H 0.46967 0.06072 0.99086 0.0
H4342 H 0.44952 0.0946 0.03111 0.0
H4343 H 0.43269 0.06554 0.04083 0.0
C4344 C 0.3609 0.97941 0.99463 0.0
C4345 C 0.34813 0.98311 1.00542 0.0
C4346 C 0.37847 0.9887 1.00035 0.0
C4347 C 0.3835 1.00197 0.01677 0.0
C4348 C 0.37075 1.00736 0.02643 0.0
C4349 C 0.3531 0.99794 0.0208 0.0
C4350 C 0.40196 1.00765 0.02504 0.0
C4351 C 0.41276 0.02493 0.0225 0.0
C4352 C 0.40928 0.99458 0.03295 0.0
C4353 C 0.39823 0.9761 0.03587 0.0
C4354 C 0.38501 0.9755 0.04727 0.0
C4355 C 0.37426 0.95805 0.04949 0.0
C4356 C 0.3767 0.9411 0.0405 0.0
C4357 C 0.38995 0.94156 0.02933 0.0
C4358 C 0.40071 0.95898 0.02702 0.0
C4359 C 0.48713 0.0375 0.04708 0.0
C4360 C 0.49384 0.02378 0.03728 0.0
C4361 C 0.46909 0.03461 0.04653 0.0
C4362 C 0.45755 0.01789 0.03639 0.0
C4363 C 0.46432 1.00362 0.02769 0.0
C4364 C 0.48231 1.00658 0.02805 0.0
C4365 C 0.43844 0.01551 0.03378 0.0
C4366 C 0.42743 0.9987 0.03729 0.0
C4367 C 0.43098 0.02896 0.02658 0.0
C4368 C 0.44171 0.04641 0.0214 0.0
C4369 C 0.45223 0.0452 1.00728 0.0
C4370 C 0.4616 0.06171 1.00176 0.0
C4371 C 0.46056 0.07949 1.01029 0.0
C4372 C 0.45022 0.08081 0.02443 0.0
C4373 C 0.44075 0.06434 0.02994 0.0
H4374 H 0.46788 0.09226 1.00605 0.0
H4375 H 0.36835 0.92761 0.04222 0.0
H4376 H 0.92195 0.62412 0.82612 0.0
H4377 H 0.90373 0.6464 0.82572 0.0
H4378 H 0.858 0.59938 0.80658 0.0
H4379 H 0.87605 0.57723 0.80671 0.0
H4380 H 0.86533 0.62451 0.78225 0.0
H4381 H 0.86119 0.62638 0.8474 0.0
H4382 H 0.87297 0.63157 0.88037 0.0
H4383 H 0.89871 0.68964 0.87842 0.0
H4384 H 0.88728 0.68473 0.84534 0.0
H4385 H 0.79668 0.66665 0.77265 0.0
H4386 H 0.81546 0.64837 0.78485 0.0
H4387 H 0.85765 0.69957 0.80123 0.0
H4388 H 0.83889 0.718 0.78922 0.0
H4389 H 0.85411 0.6749 0.82788 0.0
H4390 H 0.85953 0.67411 0.76407 0.0
H4391 H 0.84907 0.67026 0.7309 0.0
H4392 H 0.82343 0.6115 0.72989 0.0
H4393 H 0.83339 0.61511 0.76319 0.0
C4394 C 0.90793 0.61856 0.82246 0.0
C4395 C 0.90039 0.59906 0.81611 0.0
C4396 C 0.89756 0.63126 0.82225 0.0
C4397 C 0.8796 0.62446 0.81592 0.0
C4398 C 0.87188 0.60485 0.81137 0.0
C4399 C 0.8822 0.59224 0.81143 0.0
C4400 C 0.86935 0.6375 0.81097 0.0
C4401 C 0.86266 0.63533 0.79229 0.0
C4402 C 0.86665 0.65218 0.82396 0.0
C4403 C 0.87353 0.65512 0.84384 0.0
C4404 C 0.8695 0.64021 0.85394 0.0
C4405 C 0.87609 0.64311 0.87267 0.0
C4406 C 0.88663 0.66091 0.88147 0.0
C4407 C 0.89057 0.67585 0.87158 0.0
C4408 C 0.88403 0.67302 0.85285 0.0
C4409 C 0.80989 0.67401 0.77903 0.0
C4410 C 0.81643 0.69364 0.77983 0.0
C4411 C 0.82057 0.6636 0.78596 0.0
C4412 C 0.8379 0.67269 0.79383 0.0
C4413 C 0.84429 0.69238 0.79523 0.0
C4414 C 0.83365 0.70279 0.78817 0.0
C4415 C 0.84962 0.66132 0.79934 0.0
C4416 C 0.85676 0.66399 0.81794 0.0
C4417 C 0.85302 0.64722 0.78626 0.0
C4418 C 0.84706 0.64494 0.76618 0.0
C4419 C 0.85152 0.66041 0.75682 0.0
C4420 C 0.84571 0.65826 0.73798 0.0
C4421 C 0.83558 0.64065 0.72829 0.0
C4422 C 0.83126 0.62514 0.73742 0.0
C4423 C 0.83698 0.62723 0.75628 0.0
H4424 H 0.83111 0.63901 0.71369 0.0
H4425 H 0.89171 0.66313 0.89597 0.0
H4426 H 0.83018 0.6367 0.03798 0.0
H4427 H 0.85593 0.62459 0.03722 0.0
H4428 H 0.87008 0.65307 0.99164 0.0
H4429 H 0.84409 0.66515 0.9922 0.0
H4430 H 0.87493 0.61764 0.98627 0.0
H4431 H 0.89139 0.67131 0.03533 0.0
H4432 H 0.88831 0.69131 0.06393 0.0
H4433 H 0.88927 0.64584 0.09395 0.0
H4434 H 0.89211 0.62547 0.06546 0.0
H4435 H 0.96052 0.60294 0.99361 0.0
H4436 H 0.93609 0.61748 0.99228 0.0
H4437 H 0.91941 0.5944 0.04006 0.0
H4438 H 0.94381 0.58004 0.04155 0.0
H4439 H 0.91685 0.62915 0.04341 0.0
H4440 H 0.8988 0.57491 0.99432 0.0
H4441 H 0.9015 0.55454 0.96577 0.0
H4442 H 0.90327 0.60063 0.93593 0.0
H4443 H 0.90081 0.62135 0.96437 0.0
C4444 C 0.83871 0.64038 0.02772 0.0
C4445 C 0.83504 0.65201 0.0152 0.0
C4446 C 0.85353 0.63349 0.02737 0.0
C4447 C 0.86519 0.63811 0.01456 0.0
C4448 C 0.86136 0.64934 1.00171 0.0
C4449 C 0.84649 0.65628 1.00207 0.0
C4450 C 0.88136 0.63129 0.01477 0.0
C4451 C 0.88424 0.62042 0.99869 0.0
C4452 C 0.89343 0.63456 0.03103 0.0
C4453 C 0.89181 0.64681 0.04822 0.0
C4454 C 0.89082 0.66553 0.048 0.0
C4455 C 0.88914 0.67694 0.0642 0.0
C4456 C 0.88856 0.66984 0.08074 0.0
C4457 C 0.8897 0.65132 0.08113 0.0
C4458 C 0.89137 0.63984 0.06496 0.0
C4459 C 0.95161 0.60091 1.0038 0.0
C4460 C 0.9542 0.59028 0.01769 0.0
C4461 C 0.93759 0.60922 1.00301 0.0
C4462 C 0.92565 0.60689 0.01592 0.0
C4463 C 0.92838 0.59651 0.02993 0.0
C4464 C 0.94243 0.58832 0.03081 0.0
C4465 C 0.91032 0.61521 0.01498 0.0
C4466 C 0.90761 0.62642 0.03094 0.0
C4467 C 0.8984 0.61219 0.99862 0.0
C4468 C 0.89981 0.59973 0.98151 0.0
C4469 C 0.8999 0.58074 0.9817 0.0
C4470 C 0.90137 0.56912 0.96553 0.0
C4471 C 0.90261 0.5763 0.94906 0.0
C4472 C 0.90234 0.5951 0.94871 0.0
C4473 C 0.90089 0.60678 0.96484 0.0
H4474 H 0.90375 0.56729 0.93656 0.0
H4475 H 0.88725 0.6787 0.09327 0.0
H4476 H 0.19709 0.09495 0.80351 0.0
H4477 H 0.21304 0.12728 0.80142 0.0
H4478 H 0.24995 0.10561 0.77199 0.0
H4479 H 0.23396 0.07297 0.77413 0.0
H4480 H 0.26765 0.13764 0.79448 0.0
H4481 H 0.21593 0.12315 0.75062 0.0
H4482 H 0.18426 0.11297 0.73982 0.0
H4483 H 0.17682 0.15885 0.77829 0.0
H4484 H 0.20844 0.16915 0.78949 0.0
H4485 H 0.30785 0.22372 0.76427 0.0
H4486 H 0.2915 0.19146 0.76611 0.0
H4487 H 0.25281 0.21345 0.79198 0.0
H4488 H 0.26921 0.24594 0.78984 0.0
H4489 H 0.2358 0.18125 0.77155 0.0
H4490 H 0.28695 0.19576 0.81581 0.0
H4491 H 0.31847 0.20604 0.82737 0.0
H4492 H 0.32683 0.16038 0.78935 0.0
H4493 H 0.29538 0.14997 0.77739 0.0
C4494 C 0.20867 0.09685 0.79667 0.0
C4495 C 0.21399 0.08077 0.78906 0.0
C4496 C 0.21782 0.11566 0.79531 0.0
C4497 C 0.23281 0.11951 0.78619 0.0
C4498 C 0.2385 0.10354 0.77906 0.0
C4499 C 0.22927 0.08463 0.78034 0.0
C4500 C 0.24233 0.13996 0.78412 0.0
C4501 C 0.26059 0.14697 0.78918 0.0
C4502 C 0.23351 0.15293 0.77774 0.0
C4503 C 0.21452 0.1468 0.77102 0.0
C4504 C 0.20752 0.13098 0.75687 0.0
C4505 C 0.18958 0.1252 0.75066 0.0
C4506 C 0.17853 0.13523 0.7584 0.0
C4507 C 0.1854 0.15108 0.77233 0.0
C4508 C 0.20333 0.1569 0.77861 0.0
C4509 C 0.29575 0.22181 0.77021 0.0
C4510 C 0.2899 0.23788 0.77651 0.0
C4511 C 0.28637 0.20309 0.77148 0.0
C4512 C 0.27078 0.19935 0.77961 0.0
C4513 C 0.26466 0.21539 0.7856 0.0
C4514 C 0.27404 0.23423 0.78417 0.0
C4515 C 0.26117 0.17896 0.78187 0.0
C4516 C 0.24288 0.17195 0.77685 0.0
C4517 C 0.26994 0.16602 0.78842 0.0
C4518 C 0.28884 0.1722 0.79558 0.0
C4519 C 0.29553 0.18799 0.80983 0.0
C4520 C 0.31338 0.19383 0.81646 0.0
C4521 C 0.32465 0.1839 0.80906 0.0
C4522 C 0.31809 0.16807 0.79504 0.0
C4523 C 0.30025 0.16219 0.78834 0.0
H4524 H 0.33847 0.18844 0.81422 0.0
H4525 H 0.16465 0.13073 0.75358 0.0
H4526 H 0.42189 1.00352 0.32364 0.0
H4527 H 0.40205 0.97181 0.31941 0.0
H4528 H 0.35835 0.99446 0.30641 0.0
H4529 H 0.37834 0.02625 0.30983 0.0
H4530 H 0.3765 0.95439 0.334 0.0
H4531 H 0.32801 0.96256 0.2744 0.0
H4532 H 0.32748 0.9816 0.24959 0.0
H4533 H 0.3826 0.98942 0.24915 0.0
H4534 H 0.38341 0.97025 0.27378 0.0
H4535 H 0.31153 0.86703 0.31298 0.0
H4536 H 0.32524 0.90125 0.32018 0.0
H4537 H 0.34654 0.8984 0.26851 0.0
H4538 H 0.33214 0.86442 0.26088 0.0
H4539 H 0.33766 0.92932 0.27438 0.0
H4540 H 0.37063 0.89828 0.31117 0.0
H4541 H 0.37516 0.87758 0.33352 0.0
H4542 H 0.35817 0.91285 0.37547 0.0
H4543 H 0.35333 0.93363 0.35328 0.0
C4544 C 0.40804 1.00181 0.32004 0.0
C4545 C 0.40169 0.01735 0.31686 0.0
C4546 C 0.39668 0.98365 0.31768 0.0
C4547 C 0.37872 0.98067 0.3123 0.0
C4548 C 0.37221 0.99634 0.31014 0.0
C4549 C 0.38363 0.01451 0.31218 0.0
C4550 C 0.36713 0.96101 0.30808 0.0
C4551 C 0.36791 0.94895 0.32102 0.0
C4552 C 0.35617 0.95377 0.291 0.0
C4553 C 0.3558 0.96518 0.27608 0.0
C4554 C 0.34 0.96832 0.26897 0.0
C4555 C 0.33965 0.97913 0.25495 0.0
C4556 C 0.35501 0.98678 0.24785 0.0
C4557 C 0.37073 0.98356 0.25471 0.0
C4558 C 0.37115 0.97274 0.26871 0.0
C4559 C 0.31903 0.87377 0.30311 0.0
C4560 C 0.32092 0.86308 0.28645 0.0
C4561 C 0.3269 0.8933 0.30726 0.0
C4562 C 0.33722 0.90235 0.29507 0.0
C4563 C 0.33864 0.89176 0.27815 0.0
C4564 C 0.33045 0.87232 0.27382 0.0
C4565 C 0.34722 0.92263 0.30019 0.0
C4566 C 0.34607 0.93482 0.28747 0.0
C4567 C 0.35844 0.92977 0.31713 0.0
C4568 C 0.36143 0.91737 0.33052 0.0
C4569 C 0.36775 0.90154 0.32513 0.0
C4570 C 0.37039 0.8898 0.33777 0.0
C4571 C 0.36691 0.89386 0.35589 0.0
C4572 C 0.36083 0.9097 0.36142 0.0
C4573 C 0.35814 0.92147 0.34883 0.0
H4574 H 0.36895 0.88476 0.36566 0.0
H4575 H 0.35471 0.99516 0.23701 0.0
H4576 H 0.61011 0.36835 0.58532 0.0
H4577 H 0.60437 0.39531 0.57249 0.0
H4578 H 0.56814 0.40089 0.61137 0.0
H4579 H 0.57397 0.37401 0.6244 0.0
H4580 H 0.57644 0.40199 0.5553 0.0
H4581 H 0.56872 0.44768 0.62285 0.0
H4582 H 0.5791 0.45325 0.65625 0.0
H4583 H 0.6252 0.43613 0.64489 0.0
H4584 H 0.6152 0.43069 0.61143 0.0
H4585 H 0.5406 0.47809 0.53515 0.0
H4586 H 0.5465 0.45059 0.54686 0.0
H4587 H 0.59803 0.4845 0.57134 0.0
H4588 H 0.59225 0.51203 0.55973 0.0
H4589 H 0.58305 0.46398 0.59547 0.0
H4590 H 0.592 0.45116 0.53223 0.0
H4591 H 0.58433 0.44661 0.49844 0.0
H4592 H 0.54049 0.39965 0.50045 0.0
H4593 H 0.54776 0.4041 0.53431 0.0
C4594 C 0.60091 0.37529 0.59119 0.0
C4595 C 0.59258 0.36895 0.60601 0.0
C4596 C 0.59758 0.39073 0.58375 0.0
C4597 C 0.58591 0.40041 0.59097 0.0
C4598 C 0.5774 0.39395 0.60564 0.0
C4599 C 0.5807 0.37847 0.61307 0.0
C4600 C 0.58283 0.4173 0.58326 0.0
C4601 C 0.57781 0.41549 0.56415 0.0
C4602 C 0.58488 0.43517 0.59458 0.0
C4603 C 0.59111 0.43859 0.61465 0.0
C4604 C 0.58109 0.44516 0.62749 0.0
C4605 C 0.58691 0.44829 0.64643 0.0
C4606 C 0.60277 0.44498 0.65269 0.0
C4607 C 0.61288 0.43861 0.64002 0.0
C4608 C 0.60714 0.43548 0.62107 0.0
C4609 C 0.55326 0.47971 0.54288 0.0
C4610 C 0.56594 0.49741 0.54636 0.0
C4611 C 0.55664 0.46389 0.54959 0.0
C4612 C 0.57277 0.4653 0.56001 0.0
C4613 C 0.58546 0.48293 0.56342 0.0
C4614 C 0.58214 0.4987 0.55663 0.0
C4615 C 0.57637 0.44857 0.56757 0.0
C4616 C 0.58152 0.45042 0.58665 0.0
C4617 C 0.5747 0.43083 0.55618 0.0
C4618 C 0.57032 0.42808 0.53583 0.0
C4619 C 0.58064 0.43996 0.52549 0.0
C4620 C 0.57638 0.43738 0.50632 0.0
C4621 C 0.5619 0.42288 0.49731 0.0
C4622 C 0.55168 0.4109 0.50745 0.0
C4623 C 0.55588 0.41343 0.52663 0.0
H4624 H 0.55863 0.42091 0.48247 0.0
H4625 H 0.60724 0.4474 0.66735 0.0
H4626 H 0.48624 0.80277 0.34867 0.0
H4627 H 0.45914 0.80608 0.3329 0.0
H4628 H 0.43002 0.77617 0.37099 0.0
H4629 H 0.45708 0.77187 0.38609 0.0
H4630 H 0.41133 0.76589 0.34053 0.0
H4631 H 0.44099 0.82735 0.3731 0.0
H4632 H 0.46545 0.85613 0.3836 0.0
H4633 H 0.46556 0.86691 0.328 0.0
H4634 H 0.44127 0.83803 0.31711 0.0
H4635 H 0.33477 0.79501 0.31129 0.0
H4636 H 0.36068 0.79315 0.3311 0.0
H4637 H 0.3928 0.81044 0.28949 0.0
H4638 H 0.36707 0.81254 0.26998 0.0
H4639 H 0.4089 0.82817 0.32443 0.0
H4640 H 0.37555 0.76414 0.29446 0.0
H4641 H 0.34945 0.73673 0.28872 0.0
H4642 H 0.35536 0.73208 0.34612 0.0
H4643 H 0.38064 0.76016 0.35245 0.0
C4644 C 0.47404 0.79673 0.35358 0.0
C4645 C 0.47386 0.78706 0.36866 0.0
C4646 C 0.4585 0.79883 0.34466 0.0
C4647 C 0.44238 0.79189 0.35097 0.0
C4648 C 0.44217 0.78179 0.36579 0.0
C4649 C 0.45769 0.7793 0.37444 0.0
C4650 C 0.42584 0.79503 0.34205 0.0
C4651 C 0.4108 0.77963 0.33732 0.0
C4652 C 0.42487 0.81293 0.33778 0.0
C4653 C 0.4394 0.83041 0.34426 0.0
C4654 C 0.4463 0.83579 0.36309 0.0
C4655 C 0.46013 0.85212 0.36912 0.0
C4656 C 0.46708 0.86331 0.35647 0.0
C4657 C 0.46018 0.85821 0.33778 0.0
C4658 C 0.44637 0.84187 0.33167 0.0
C4659 C 0.34742 0.79875 0.30661 0.0
C4660 C 0.34889 0.80405 0.28917 0.0
C4661 C 0.36222 0.79754 0.31784 0.0
C4662 C 0.37879 0.80152 0.31178 0.0
C4663 C 0.38025 0.80731 0.29456 0.0
C4664 C 0.3655 0.80844 0.28336 0.0
C4665 C 0.39455 0.79899 0.3228 0.0
C4666 C 0.40947 0.81451 0.32784 0.0
C4667 C 0.39518 0.78139 0.328 0.0
C4668 C 0.37984 0.76451 0.32399 0.0
C4669 C 0.37106 0.75751 0.30592 0.0
C4670 C 0.35634 0.74189 0.30258 0.0
C4671 C 0.35055 0.73288 0.31711 0.0
C4672 C 0.35956 0.73932 0.33495 0.0
C4673 C 0.37403 0.75515 0.33844 0.0
H4674 H 0.33915 0.72087 0.31455 0.0
H4675 H 0.47779 0.87595 0.36117 0.0
H4676 H 0.09215 0.77121 0.08501 0.0
H4677 H 0.08873 0.73795 0.07134 0.0
H4678 H 0.05656 0.71958 0.11256 0.0
H4679 H 0.06016 0.75256 0.12639 0.0
H4680 H 0.07937 0.70021 0.11025 0.0
H4681 H 0.03978 0.71602 0.06611 0.0
H4682 H 0.03062 0.73422 0.04334 0.0
H4683 H 0.0684 0.72114 1.00951 0.0
H4684 H 0.07795 0.70307 0.03221 0.0
H4685 H 0.03735 0.60633 0.03986 0.0
H4686 H 0.0405 0.64001 0.05054 0.0
H4687 H 0.09347 0.64691 0.07497 0.0
H4688 H 0.09031 0.61304 0.06462 0.0
H4689 H 0.06018 0.67199 0.04411 0.0
H4690 H 0.10382 0.68085 0.1136 0.0
H4691 H 0.10969 0.6616 0.13691 0.0
H4692 H 0.05815 0.62389 0.12114 0.0
H4693 H 0.0519 0.64304 0.09792 0.0
C4694 C 0.08413 0.76009 0.09099 0.0
C4695 C 0.07647 0.76468 0.10686 0.0
C4696 C 0.08217 0.74102 0.08315 0.0
C4697 C 0.07237 0.72609 0.09088 0.0
C4698 C 0.06431 0.73071 0.10637 0.0
C4699 C 0.06632 0.74968 0.11423 0.0
C4700 C 0.07098 0.70567 0.08345 0.0
C4701 C 0.07523 0.69412 0.09575 0.0
C4702 C 0.06538 0.69745 0.06458 0.0
C4703 C 0.05972 0.70838 0.05096 0.0
C4704 C 0.04624 0.71717 0.0539 0.0
C4705 C 0.04096 0.72743 0.04099 0.0
C4706 C 0.04896 0.72889 0.02502 0.0
C4707 C 0.06223 0.72003 0.02191 0.0
C4708 C 0.06759 0.70977 0.03478 0.0
C4709 C 0.04969 0.61494 0.04756 0.0
C4710 C 0.06353 0.6068 0.05152 0.0
C4711 C 0.0515 0.63431 0.05358 0.0
C4712 C 0.06716 0.64612 0.06379 0.0
C4713 C 0.08113 0.63813 0.06742 0.0
C4714 C 0.07932 0.61871 0.06144 0.0
C4715 C 0.06866 0.66661 0.07091 0.0
C4716 C 0.06446 0.67816 0.05857 0.0
C4717 C 0.07393 0.67476 0.08982 0.0
C4718 C 0.07748 0.66326 0.10389 0.0
C4719 C 0.09373 0.66848 0.11516 0.0
C4720 C 0.09712 0.65759 0.12834 0.0
C4721 C 0.08433 0.64149 0.13046 0.0
C4722 C 0.06808 0.63631 0.11944 0.0
C4723 C 0.06461 0.64717 0.10625 0.0
H4724 H 0.08699 0.63307 0.14066 0.0
H4725 H 0.04484 0.73683 0.01504 0.0
H4726 H 0.07523 0.29681 0.89262 0.0
H4727 H 0.10272 0.30197 0.87928 0.0
H4728 H 0.0829 0.24798 0.84275 0.0
H4729 H 0.05555 0.24271 0.85602 0.0
H4730 H 0.11551 0.25188 0.85884 0.0
H4731 H 0.08595 0.29007 0.82711 0.0
H4732 H 0.07092 0.31521 0.82485 0.0
H4733 H 0.1164 0.35709 0.85448 0.0
H4734 H 0.13163 0.33214 0.85713 0.0
H4735 H 0.17526 0.25673 0.79442 0.0
H4736 H 0.14907 0.25554 0.80928 0.0
H4737 H 0.17379 0.31063 0.84231 0.0
H4738 H 0.20021 0.31193 0.82741 0.0
H4739 H 0.14008 0.30786 0.83025 0.0
H4740 H 0.17018 0.27023 0.86094 0.0
H4741 H 0.18542 0.24531 0.8634 0.0
H4742 H 0.13924 0.20265 0.8365 0.0
H4743 H 0.12378 0.22736 0.83364 0.0
C4744 C 0.07669 0.2861 0.88167 0.0
C4745 C 0.06313 0.26935 0.8754 0.0
C4746 C 0.09241 0.28909 0.874 0.0
C4747 C 0.09491 0.27541 0.85991 0.0
C4748 C 0.08135 0.25875 0.85361 0.0
C4749 C 0.06565 0.25578 0.8612 0.0
C4750 C 0.11175 0.27807 0.85196 0.0
C4751 C 0.12076 0.26403 0.85241 0.0
C4752 C 0.11898 0.29421 0.84408 0.0
C4753 C 0.10985 0.30921 0.8425 0.0
C4754 C 0.09269 0.30462 0.83328 0.0
C4755 C 0.08415 0.31884 0.8319 0.0
C4756 C 0.09268 0.33773 0.83957 0.0
C4757 C 0.1098 0.34245 0.84858 0.0
C4758 C 0.11839 0.32828 0.85001 0.0
C4759 C 0.17524 0.26857 0.80495 0.0
C4760 C 0.19 0.28432 0.80986 0.0
C4761 C 0.16019 0.26787 0.81343 0.0
C4762 C 0.15949 0.28283 0.8272 0.0
C4763 C 0.17399 0.29887 0.83179 0.0
C4764 C 0.18909 0.2996 0.82322 0.0
C4765 C 0.14366 0.28149 0.83684 0.0
C4766 C 0.13488 0.29577 0.83677 0.0
C4767 C 0.13665 0.2656 0.84516 0.0
C4768 C 0.14587 0.25067 0.84694 0.0
C4769 C 0.16331 0.25555 0.85543 0.0
C4770 C 0.17198 0.24146 0.85691 0.0
C4771 C 0.16332 0.22241 0.85007 0.0
C4772 C 0.14594 0.21741 0.84178 0.0
C4773 C 0.13721 0.23145 0.84024 0.0
H4774 H 0.17006 0.21153 0.85123 0.0
H4775 H 0.08605 0.34872 0.83848 0.0
H4776 H 0.58487 0.7733 0.91741 0.0
H4777 H 0.57905 0.74427 0.93086 0.0
H4778 H 0.62008 0.77181 0.97601 0.0
H4779 H 0.62623 0.80062 0.96247 0.0
H4780 H 0.6221 0.7371 0.96418 0.0
H4781 H 0.57619 0.76549 0.98062 0.0
H4782 H 0.55126 0.77889 0.97463 0.0
H4783 H 0.52212 0.72608 0.94063 0.0
H4784 H 0.54698 0.71244 0.94624 0.0
H4785 H 0.60132 0.67737 0.02993 0.0
H4786 H 0.60563 0.70447 0.01372 0.0
H4787 H 0.56671 0.67102 0.96876 0.0
H4788 H 0.56202 0.64396 0.98513 0.0
H4789 H 0.56304 0.70709 0.97857 0.0
H4790 H 0.60867 0.67811 0.9643 0.0
H4791 H 0.63322 0.66469 0.9721 0.0
H4792 H 0.66289 0.71889 1.00306 0.0
H4793 H 0.63837 0.73256 0.99577 0.0
C4794 C 0.59262 0.77316 0.93021 0.0
C4795 C 0.60597 0.78927 0.9389 0.0
C4796 C 0.58926 0.75658 0.93791 0.0
C4797 C 0.59902 0.75591 0.95455 0.0
C4798 C 0.6124 0.77197 0.96316 0.0
C4799 C 0.61585 0.78846 0.95542 0.0
C4800 C 0.59538 0.73857 0.96311 0.0
C4801 C 0.60921 0.73066 0.96747 0.0
C4802 C 0.57848 0.72986 0.96703 0.0
C4803 C 0.56352 0.73802 0.96368 0.0
C4804 C 0.56452 0.75679 0.97175 0.0
C4805 C 0.55039 0.76441 0.96845 0.0
C4806 C 0.53513 0.75336 0.95721 0.0
C4807 C 0.53395 0.73463 0.9493 0.0
C4808 C 0.54805 0.72695 0.95255 0.0
C4809 C 0.59355 0.67585 0.01669 0.0
C4810 C 0.58134 0.65855 1.00878 0.0
C4811 C 0.59612 0.69129 1.00738 0.0
C4812 C 0.58661 0.68967 0.98996 0.0
C4813 C 0.57421 0.67252 0.98216 0.0
C4814 C 0.57166 0.65705 0.99145 0.0
C4815 C 0.58978 0.70586 0.97983 0.0
C4816 C 0.57588 0.71349 0.97515 0.0
C4817 C 0.60662 0.71436 0.97568 0.0
C4818 C 0.62162 0.70633 0.9796 0.0
C4819 C 0.62039 0.68715 0.97285 0.0
C4820 C 0.6343 0.67949 0.97719 0.0
C4821 C 0.64959 0.69092 0.98809 0.0
C4822 C 0.65103 0.71005 0.99462 0.0
C4823 C 0.63713 0.71777 0.99038 0.0
H4824 H 0.66033 0.68495 0.99146 0.0
H4825 H 0.52421 0.75929 0.95467 0.0
H4826 H 0.05425 0.77624 0.66399 0.0
H4827 H 0.08546 0.78414 0.67493 0.0
H4828 H 0.07473 0.75331 0.71975 0.0
H4829 H 0.0434 0.7454 0.70902 0.0
H4830 H 0.10207 0.7866 0.73012 0.0
H4831 H 0.08436 0.73116 0.68223 0.0
H4832 H 0.07061 0.71285 0.65151 0.0
H4833 H 0.10537 0.75252 0.62567 0.0
H4834 H 0.11918 0.77122 0.65627 0.0
H4835 H 0.17955 0.75728 0.74734 0.0
H4836 H 0.14986 0.76027 0.74063 0.0
H4837 H 0.16521 0.78961 0.69586 0.0
H4838 H 0.19486 0.78633 0.70228 0.0
H4839 H 0.13617 0.76016 0.68534 0.0
H4840 H 0.15627 0.81358 0.73418 0.0
H4841 H 0.17021 0.83078 0.76522 0.0
H4842 H 0.13133 0.79426 0.78974 0.0
H4843 H 0.1173 0.77663 0.75884 0.0
C4844 C 0.05847 0.77135 0.67634 0.0
C4845 C 0.04635 0.75994 0.68549 0.0
C4846 C 0.07631 0.7759 0.68256 0.0
C4847 C 0.08235 0.76908 0.69797 0.0
C4848 C 0.07028 0.75868 0.70781 0.0
C4849 C 0.0524 0.7541 0.70159 0.0
C4850 C 0.10123 0.77128 0.70278 0.0
C4851 C 0.10955 0.78075 0.72042 0.0
C4852 C 0.11096 0.7639 0.68994 0.0
C4853 C 0.10267 0.7527 0.67152 0.0
C4854 C 0.08896 0.73608 0.66999 0.0
C4855 C 0.08118 0.72561 0.6526 0.0
C4856 C 0.08708 0.73155 0.63664 0.0
C4857 C 0.10079 0.74796 0.63805 0.0
C4858 C 0.10861 0.75849 0.65541 0.0
C4859 C 0.1766 0.76443 0.73613 0.0
C4860 C 0.18946 0.77149 0.72526 0.0
C4861 C 0.15971 0.76631 0.73244 0.0
C4862 C 0.15542 0.7753 0.71785 0.0
C4863 C 0.16833 0.78272 0.70724 0.0
C4864 C 0.18524 0.78091 0.71097 0.0
C4865 C 0.13712 0.77549 0.71273 0.0
C4866 C 0.12883 0.76632 0.69501 0.0
C4867 C 0.12746 0.78306 0.72555 0.0
C4868 C 0.13581 0.79368 0.74417 0.0
C4869 C 0.15077 0.80911 0.74619 0.0
C4870 C 0.15868 0.81895 0.76376 0.0
C4871 C 0.15168 0.81359 0.77945 0.0
C4872 C 0.13674 0.79839 0.77758 0.0
C4873 C 0.12879 0.78848 0.76003 0.0
H4874 H 0.15782 0.82123 0.79304 0.0
H4875 H 0.08108 0.7234 0.6232 0.0
H4876 H 0.10382 0.38307 0.40661 0.0
H4877 H 0.10191 0.41453 0.42062 0.0
H4878 H 0.10402 0.39794 0.47435 0.0
H4879 H 0.10494 0.36629 0.46023 0.0
H4880 H 0.07741 0.40995 0.4692 0.0
H4881 H 0.1372 0.43344 0.46054 0.0
H4882 H 0.16274 0.43942 0.44369 0.0
H4883 H 0.1381 0.46997 0.40908 0.0
H4884 H 0.11227 0.4639 0.42551 0.0
H4885 H 0.09969 0.51524 0.51278 0.0
H4886 H 0.10872 0.48952 0.49507 0.0
H4887 H 0.05554 0.46464 0.46894 0.0
H4888 H 0.04632 0.48972 0.48745 0.0
H4889 H 0.10854 0.47443 0.46008 0.0
H4890 H 0.0457 0.41765 0.46587 0.0
H4891 H 0.02241 0.41261 0.48585 0.0
H4892 H 0.05785 0.44918 0.5316 0.0
H4893 H 0.08139 0.45423 0.51195 0.0
C4894 C 0.10433 0.38638 0.42146 0.0
C4895 C 0.10437 0.37229 0.43237 0.0
C4896 C 0.10328 0.40437 0.42948 0.0
C4897 C 0.10272 0.40862 0.44856 0.0
C4898 C 0.10422 0.39495 0.45958 0.0
C4899 C 0.10482 0.3769 0.45154 0.0
C4900 C 0.09835 0.42615 0.4568 0.0
C4901 C 0.08434 0.42402 0.46721 0.0
C4902 C 0.10727 0.44458 0.45421 0.0
C4903 C 0.12269 0.448 0.44413 0.0
C4904 C 0.13713 0.44124 0.4492 0.0
C4905 C 0.15168 0.44469 0.43975 0.0
C4906 C 0.15202 0.45501 0.42528 0.0
C4907 C 0.13781 0.46194 0.42025 0.0
C4908 C 0.12321 0.4585 0.42963 0.0
C4909 C 0.08996 0.50432 0.50317 0.0
C4910 C 0.07229 0.50433 0.50154 0.0
C4911 C 0.09516 0.48976 0.49293 0.0
C4912 C 0.08277 0.47504 0.48088 0.0
C4913 C 0.06528 0.47572 0.47838 0.0
C4914 C 0.06003 0.49012 0.48884 0.0
C4915 C 0.08781 0.45805 0.47247 0.0
C4916 C 0.10175 0.46028 0.46198 0.0
C4917 C 0.07919 0.43969 0.47535 0.0
C4918 C 0.06523 0.43645 0.48739 0.0
C4919 C 0.04853 0.42454 0.48021 0.0
C4920 C 0.03529 0.4217 0.49147 0.0
C4921 C 0.03864 0.43062 0.50996 0.0
C4922 C 0.05526 0.44233 0.51726 0.0
C4923 C 0.06855 0.4452 0.50607 0.0
H4924 H 0.02836 0.42843 0.51865 0.0
H4925 H 0.16331 0.45769 0.418 0.0
H4926 H 0.44912 0.21388 0.21614 0.0
H4927 H 0.42617 0.22086 0.23364 0.0
H4928 H 0.42972 0.27183 0.2104 0.0
H4929 H 0.45248 0.26492 0.1928 0.0
H4930 H 0.43081 0.27685 0.24964 0.0
H4931 H 0.39781 0.23371 0.19395 0.0
H4932 H 0.38889 0.20298 0.17263 0.0
H4933 H 0.37076 0.17458 0.21674 0.0
H4934 H 0.37997 0.20511 0.23844 0.0
H4935 H 0.35881 0.31172 0.25771 0.0
H4936 H 0.38238 0.29852 0.24866 0.0
H4937 H 0.35895 0.24682 0.26813 0.0
H4938 H 0.33477 0.2598 0.27662 0.0
H4939 H 0.36911 0.23798 0.23692 0.0
H4940 H 0.39752 0.27941 0.29179 0.0
H4941 H 0.40663 0.30882 0.31497 0.0
H4942 H 0.43396 0.33861 0.27608 0.0
H4943 H 0.42481 0.30946 0.25255 0.0
C4944 C 0.44495 0.22653 0.21471 0.0
C4945 C 0.45259 0.23887 0.20309 0.0
C4946 C 0.43186 0.23047 0.2247 0.0
C4947 C 0.42633 0.24686 0.22329 0.0
C4948 C 0.43389 0.25914 0.21169 0.0
C4949 C 0.44682 0.25512 0.20157 0.0
C4950 C 0.41273 0.25153 0.23393 0.0
C4951 C 0.41729 0.26843 0.24686 0.0
C4952 C 0.39533 0.23995 0.23097 0.0
C4953 C 0.38984 0.22165 0.21789 0.0
C4954 C 0.39214 0.22088 0.19917 0.0
C4955 C 0.38701 0.20351 0.18701 0.0
C4956 C 0.37937 0.18682 0.19336 0.0
C4957 C 0.37679 0.1875 0.21188 0.0
C4958 C 0.38198 0.20482 0.22411 0.0
C4959 C 0.35874 0.29762 0.26027 0.0
C4960 C 0.34499 0.28683 0.26795 0.0
C4961 C 0.37231 0.29011 0.25519 0.0
C4962 C 0.3727 0.27183 0.25811 0.0
C4963 C 0.359 0.26101 0.26588 0.0
C4964 C 0.34522 0.26844 0.27073 0.0
C4965 C 0.387 0.26389 0.25204 0.0
C4966 C 0.38265 0.2463 0.24007 0.0
C4967 C 0.40471 0.27462 0.25622 0.0
C4968 C 0.4104 0.29222 0.27036 0.0
C4969 C 0.40539 0.29225 0.28813 0.0
C4970 C 0.41057 0.30888 0.30135 0.0
C4971 C 0.42085 0.32558 0.297 0.0
C4972 C 0.426 0.32567 0.27943 0.0
C4973 C 0.42085 0.30908 0.26616 0.0
H4974 H 0.42484 0.33844 0.30724 0.0
H4975 H 0.37538 0.17339 0.18392 0.0
H4976 H 0.61958 0.54914 0.33512 0.0
H4977 H 0.60615 0.54923 0.36353 0.0
H4978 H 0.64782 0.53025 0.38932 0.0
H4979 H 0.66037 0.52864 0.36023 0.0
H4980 H 0.62523 0.51723 0.40631 0.0
H4981 H 0.6377 0.58136 0.39759 0.0
H4982 H 0.63795 0.60882 0.38204 0.0
H4983 H 0.58191 0.59478 0.37623 0.0
H4984 H 0.58132 0.5671 0.39156 0.0
H4985 H 0.59657 0.53724 0.4969 0.0
H4986 H 0.61297 0.53855 0.47012 0.0
H4987 H 0.56824 0.54486 0.43679 0.0
H4988 H 0.55225 0.544 0.46343 0.0
H4989 H 0.59455 0.56585 0.42557 0.0
H4990 H 0.585 0.49995 0.43567 0.0
H4991 H 0.58831 0.47575 0.45457 0.0
H4992 H 0.64409 0.49834 0.46196 0.0
H4993 H 0.64104 0.52286 0.4434 0.0
C4994 C 0.62599 0.54496 0.34679 0.0
C4995 C 0.64135 0.53896 0.34484 0.0
C4996 C 0.61831 0.5453 0.36354 0.0
C4997 C 0.62591 0.54047 0.37978 0.0
C4998 C 0.64123 0.53427 0.37768 0.0
C4999 C 0.64862 0.53339 0.36073 0.0
C5000 C 0.6179 0.54152 0.39846 0.0
C5001 C 0.61877 0.52815 0.41034 0.0
C5002 C 0.60921 0.55554 0.40488 0.0
C5003 C 0.60947 0.57204 0.39552 0.0
C5004 C 0.62543 0.58406 0.39288 0.0
C5005 C 0.62563 0.59967 0.38412 0.0
C5006 C 0.60996 0.6035 0.3781 0.0
C5007 C 0.59404 0.59176 0.38087 0.0
C5008 C 0.59376 0.57612 0.3896 0.0
C5009 C 0.59036 0.53945 0.48405 0.0
C5010 C 0.57298 0.54106 0.48293 0.0
C5011 C 0.59972 0.5398 0.46833 0.0
C5012 C 0.59214 0.54158 0.45062 0.0
C5013 C 0.57489 0.5435 0.44979 0.0
C5014 C 0.5656 0.54303 0.46533 0.0
C5015 C 0.6016 0.5414 0.43299 0.0
C5016 C 0.60101 0.55495 0.42136 0.0
C5017 C 0.61105 0.528 0.42717 0.0
C5018 C 0.6128 0.5132 0.43818 0.0
C5019 C 0.59795 0.49976 0.44138 0.0
C5020 C 0.59978 0.48602 0.45206 0.0
C5021 C 0.6164 0.48552 0.45948 0.0
C5022 C 0.63123 0.49875 0.45623 0.0
C5023 C 0.62946 0.51254 0.44561 0.0
H5024 H 0.61778 0.47488 0.46774 0.0
H5025 H 0.61014 0.6156 0.37133 0.0
H5026 H 0.31466 0.88301 0.02166 0.0
H5027 H 0.32399 0.86576 0.04495 0.0
H5028 H 0.32031 0.90999 0.08821 0.0
H5029 H 0.3108 0.92722 0.06513 0.0
H5030 H 0.3523 0.89825 0.09194 0.0
H5031 H 0.28892 0.87211 0.07967 0.0
H5032 H 0.26119 0.85605 0.05944 0.0
H5033 H 0.28069 0.80781 0.04324 0.0
H5034 H 0.30864 0.82373 0.06321 0.0
H5035 H 0.33677 0.86852 0.17528 0.0
H5036 H 0.34094 0.88048 0.14655 0.0
H5037 H 0.33661 0.82377 0.11822 0.0
H5038 H 0.33163 0.81158 0.14687 0.0
H5039 H 0.31374 0.83753 0.10206 0.0
H5040 H 0.37444 0.86056 0.12027 0.0
H5041 H 0.40214 0.87625 0.14063 0.0
H5042 H 0.38901 0.92953 0.14543 0.0
H5043 H 0.36111 0.91412 0.12534 0.0
C5044 C 0.31573 0.88899 0.03614 0.0
C5045 C 0.31192 0.90641 0.0416 0.0
C5046 C 0.32112 0.87917 0.04937 0.0
C5047 C 0.32293 0.88674 0.0682 0.0
C5048 C 0.31909 0.90406 0.07369 0.0
C5049 C 0.3135 0.91376 0.06051 0.0
C5050 C 0.32831 0.87643 0.08237 0.0
C5051 C 0.34395 0.88497 0.09426 0.0
C5052 C 0.31771 0.85874 0.08472 0.0
C5053 C 0.30094 0.84921 0.07271 0.0
C5054 C 0.28735 0.85816 0.07164 0.0
C5055 C 0.27159 0.84907 0.06026 0.0
C5056 C 0.26921 0.83095 0.05 0.0
C5057 C 0.28257 0.82186 0.05115 0.0
C5058 C 0.29837 0.83091 0.0625 0.0
C5059 C 0.33708 0.85867 0.16301 0.0
C5060 C 0.33358 0.8391 0.16323 0.0
C5061 C 0.3397 0.86555 0.14662 0.0
C5062 C 0.33913 0.85302 0.1302 0.0
C5063 C 0.33712 0.83367 0.13074 0.0
C5064 C 0.33438 0.82675 0.14714 0.0
C5065 C 0.33753 0.85968 0.11232 0.0
C5066 C 0.32252 0.85049 0.09959 0.0
C5067 C 0.34882 0.87671 0.10917 0.0
C5068 C 0.36561 0.88613 0.12131 0.0
C5069 C 0.37739 0.87559 0.12576 0.0
C5070 C 0.39315 0.88445 0.13725 0.0
C5071 C 0.39733 0.90387 0.14433 0.0
C5072 C 0.38576 0.91448 0.13992 0.0
C5073 C 0.36998 0.9057 0.12845 0.0
H5074 H 0.40953 0.9107 0.15322 0.0
H5075 H 0.25699 0.82392 0.0412 0.0
H5076 H 1.01001 0.59124 0.84874 0.0
H5077 H 0.02499 0.5952 0.88 0.0
H5078 H 0.97578 0.58862 0.90148 0.0
H5079 H 0.96074 0.58526 0.87019 0.0
H5080 H 1.00513 0.61085 0.92777 0.0
H5081 H 0.9851 0.55008 0.88749 0.0
H5082 H 0.98179 0.52819 0.858 0.0
H5083 H 0.03751 0.53816 0.86209 0.0
H5084 H 0.04115 0.56038 0.89146 0.0
H5085 H 0.03368 0.53644 0.98049 0.0
H5086 H 0.01748 0.54525 0.95494 0.0
H5087 H 0.05384 0.60102 0.96523 0.0
H5088 H 0.06985 0.59236 0.99122 0.0
H5089 H 0.02881 0.55451 0.92423 0.0
H5090 H 0.03113 0.63285 0.95309 0.0
H5091 H 0.03197 0.65256 0.98331 0.0
H5092 H 1.00652 0.60297 1.00429 0.0
H5093 H 1.00521 0.583 0.9741 0.0
C5094 C 1.00248 0.5914 0.86021 0.0
C5095 C 0.98421 0.58754 0.8571 0.0
C5096 C 0.01105 0.59375 0.87805 0.0
C5097 C 1.0014 0.59175 0.89292 0.0
C5098 C 0.98342 0.59017 0.89015 0.0
C5099 C 0.97485 0.58816 0.87226 0.0
C5100 C 1.00928 0.58704 0.90993 0.0
C5101 C 1.0104 0.59862 0.92708 0.0
C5102 C 0.01554 0.57066 0.90902 0.0
C5103 C 0.0134 0.55702 0.89156 0.0
C5104 C 0.99665 0.54769 0.88203 0.0
C5105 C 0.99471 0.53522 0.86535 0.0
C5106 C 1.00944 0.53182 0.85815 0.0
C5107 C 0.02612 0.54083 0.86767 0.0
C5108 C 0.02813 0.55336 0.88433 0.0
C5109 C 0.03808 0.55064 0.9774 0.0
C5110 C 0.05287 0.5638 0.9878 0.0
C5111 C 0.02888 0.55563 0.96281 0.0
C5112 C 0.03438 0.57384 0.95835 0.0
C5113 C 0.04925 0.587 0.96867 0.0
C5114 C 0.05846 0.582 0.98333 0.0
C5115 C 0.02513 0.57855 0.94215 0.0
C5116 C 0.02366 0.56684 0.92506 0.0
C5117 C 0.0181 0.59442 0.94333 0.0
C5118 C 0.01825 0.60641 0.96136 0.0
C5119 C 0.0256 0.62616 0.9641 0.0
C5120 C 0.02617 0.63738 0.98124 0.0
C5121 C 0.01935 0.62901 0.99572 0.0
C5122 C 0.01183 0.60941 0.99307 0.0
C5123 C 0.01119 0.59814 0.97595 0.0
H5124 H 0.01987 0.6377 1.009 0.0
H5125 H 1.00792 0.52216 0.84523 0.0
H5126 H 0.2781 0.23603 0.55635 0.0
H5127 H 0.27884 0.2493 0.58884 0.0
H5128 H 0.31843 0.22176 0.60423 0.0
H5129 H 0.31703 0.20772 0.57189 0.0
H5130 H 0.29678 0.21625 0.62661 0.0
H5131 H 0.32561 0.27286 0.60549 0.0
H5132 H 0.3295 0.29747 0.58578 0.0
H5133 H 0.28324 0.31163 0.6014 0.0
H5134 H 0.27894 0.28693 0.62104 0.0
H5135 H 0.3245 0.26747 0.71846 0.0
H5136 H 0.32316 0.25685 0.68532 0.0
H5137 H 0.27385 0.27009 0.67548 0.0
H5138 H 0.27493 0.28053 0.70883 0.0
H5139 H 0.29926 0.28328 0.65067 0.0
H5140 H 0.27202 0.22632 0.67298 0.0
H5141 H 0.27036 0.20272 0.69367 0.0
H5142 H 0.31682 0.19045 0.67636 0.0
H5143 H 0.31891 0.21421 0.65577 0.0
C5144 C 0.28719 0.23308 0.56662 0.0
C5145 C 0.29755 0.22084 0.56144 0.0
C5146 C 0.28764 0.24073 0.58529 0.0
C5147 C 0.29881 0.23676 0.59924 0.0
C5148 C 0.30959 0.22504 0.59393 0.0
C5149 C 0.30888 0.21709 0.57535 0.0
C5150 C 0.2987 0.24391 0.61936 0.0
C5151 C 0.29759 0.231 0.63178 0.0
C5152 C 0.29933 0.26307 0.62638 0.0
C5153 C 0.30186 0.27791 0.61458 0.0
C5154 C 0.31619 0.28113 0.60461 0.0
C5155 C 0.31848 0.29511 0.59347 0.0
C5156 C 0.3066 0.30607 0.5923 0.0
C5157 C 0.29242 0.3031 0.6023 0.0
C5158 C 0.29006 0.28913 0.61345 0.0
C5159 C 0.31334 0.26818 0.70931 0.0
C5160 C 0.29979 0.27485 0.71642 0.0
C5161 C 0.31259 0.26205 0.69031 0.0
C5162 C 0.29839 0.26262 0.67785 0.0
C5163 C 0.28495 0.26953 0.68481 0.0
C5164 C 0.28555 0.2754 0.7039 0.0
C5165 C 0.29756 0.25566 0.65766 0.0
C5166 C 0.29846 0.26857 0.64532 0.0
C5167 C 0.29705 0.23661 0.65073 0.0
C5168 C 0.29571 0.22217 0.66296 0.0
C5169 C 0.28196 0.2187 0.6737 0.0
C5170 C 0.28093 0.20528 0.68539 0.0
C5171 C 0.2935 0.19513 0.68637 0.0
C5172 C 0.3071 0.19834 0.67561 0.0
C5173 C 0.30821 0.21177 0.66391 0.0
H5174 H 0.29267 0.18474 0.69543 0.0
H5175 H 0.3084 0.31689 0.58367 0.0
H5176 H 0.6643 0.51096 0.21793 0.0
H5177 H 0.65001 0.51308 0.18783 0.0
H5178 H 0.61199 0.53555 0.2145 0.0
H5179 H 0.62659 0.53391 0.24477 0.0
H5180 H 0.62247 0.49922 0.16576 0.0
H5181 H 0.59341 0.56212 0.18863 0.0
H5182 H 0.60024 0.59096 0.21252 0.0
H5183 H 0.65457 0.59213 0.21808 0.0
H5184 H 0.6481 0.56346 0.19409 0.0
H5185 H 0.5665 0.5044 0.08573 0.0
H5186 H 0.57925 0.50198 0.11644 0.0
H5187 H 0.60996 0.5602 0.12382 0.0
H5188 H 0.5964 0.56289 0.09344 0.0
H5189 H 0.60427 0.5567 0.1554 0.0
H5190 H 0.62563 0.51483 0.11387 0.0
H5191 H 0.62402 0.4884 0.08859 0.0
H5192 H 0.59345 0.44902 0.11816 0.0
H5193 H 0.59472 0.47527 0.14353 0.0
C5194 C 0.65282 0.51627 0.21757 0.0
C5195 C 0.64684 0.52219 0.23434 0.0
C5196 C 0.64451 0.51749 0.20004 0.0
C5197 C 0.62978 0.52481 0.19819 0.0
C5198 C 0.62347 0.53027 0.21493 0.0
C5199 C 0.63183 0.52909 0.23251 0.0
C5200 C 0.62127 0.52672 0.179 0.0
C5201 C 0.61845 0.51183 0.16371 0.0
C5202 C 0.61621 0.54322 0.17537 0.0
C5203 C 0.62022 0.56052 0.18972 0.0
C5204 C 0.60681 0.56857 0.19493 0.0
C5205 C 0.61062 0.58488 0.20849 0.0
C5206 C 0.62782 0.59333 0.21686 0.0
C5207 C 0.64125 0.58553 0.21164 0.0
C5208 C 0.63751 0.56924 0.19808 0.0
C5209 C 0.57596 0.51678 0.09381 0.0
C5210 C 0.58026 0.53386 0.08658 0.0
C5211 C 0.58354 0.51532 0.11161 0.0
C5212 C 0.59626 0.5307 0.12303 0.0
C5213 C 0.60037 0.54787 0.11585 0.0
C5214 C 0.59255 0.54942 0.09817 0.0
C5215 C 0.6051 0.52901 0.14219 0.0
C5216 C 0.60809 0.54399 0.15746 0.0
C5217 C 0.61087 0.51284 0.14566 0.0
C5218 C 0.61012 0.49703 0.1305 0.0
C5219 C 0.61848 0.50054 0.11493 0.0
C5220 C 0.61764 0.4856 0.10059 0.0
C5221 C 0.60859 0.46705 0.10174 0.0
C5222 C 0.60042 0.4634 0.11727 0.0
C5223 C 0.60121 0.4783 0.13164 0.0
H5224 H 0.60795 0.4555 0.09063 0.0
H5225 H 0.63074 0.60594 0.22736 0.0
H5226 H 0.3262 0.89387 0.94383 0.0
H5227 H 0.32066 0.87044 0.91575 0.0
H5228 H 0.26583 0.86821 0.91084 0.0
H5229 H 0.27138 0.89217 0.93907 0.0
H5230 H 0.30157 0.83467 0.90799 0.0
H5231 H 0.25015 0.85764 0.86501 0.0
H5232 H 0.24001 0.88603 0.86127 0.0
H5233 H 0.29178 0.92183 0.88095 0.0
H5234 H 0.30223 0.89361 0.88452 0.0
H5235 H 0.28039 0.77278 0.81841 0.0
H5236 H 0.27751 0.79006 0.84852 0.0
H5237 H 0.30747 0.84233 0.83467 0.0
H5238 H 0.31015 0.82537 0.80477 0.0
H5239 H 0.27799 0.84662 0.84762 0.0
H5240 H 0.32551 0.81914 0.86415 0.0
H5241 H 0.3387 0.79259 0.86658 0.0
H5242 H 0.29972 0.76897 0.89927 0.0
H5243 H 0.28617 0.79528 0.89683 0.0
C5244 C 0.31294 0.88849 0.9368 0.0
C5245 C 0.29921 0.89488 0.94366 0.0
C5246 C 0.30979 0.87498 0.92079 0.0
C5247 C 0.29284 0.8675 0.91126 0.0
C5248 C 0.27903 0.87389 0.91796 0.0
C5249 C 0.28222 0.88757 0.93404 0.0
C5250 C 0.29007 0.85333 0.89414 0.0
C5251 C 0.2962 0.83715 0.89481 0.0
C5252 C 0.28304 0.85652 0.87697 0.0
C5253 C 0.27689 0.87357 0.87517 0.0
C5254 C 0.25934 0.87159 0.86851 0.0
C5255 C 0.25355 0.88763 0.86642 0.0
C5256 C 0.26523 0.90572 0.87092 0.0
C5257 C 0.28273 0.90781 0.87751 0.0
C5258 C 0.28859 0.8918 0.87958 0.0
C5259 C 0.28654 0.78791 0.82197 0.0
C5260 C 0.29552 0.79775 0.80932 0.0
C5261 C 0.28483 0.79775 0.83908 0.0
C5262 C 0.29216 0.81749 0.84371 0.0
C5263 C 0.30155 0.82714 0.83127 0.0
C5264 C 0.30324 0.81738 0.81427 0.0
C5265 C 0.29016 0.82844 0.86141 0.0
C5266 C 0.28295 0.84388 0.86085 0.0
C5267 C 0.29655 0.8248 0.87863 0.0
C5268 C 0.3047 0.80902 0.88011 0.0
C5269 C 0.31967 0.80819 0.87172 0.0
C5270 C 0.32722 0.79321 0.87313 0.0
C5271 C 0.32001 0.77906 0.88302 0.0
C5272 C 0.30526 0.77991 0.89157 0.0
C5273 C 0.29764 0.79485 0.89019 0.0
H5274 H 0.32589 0.76748 0.88409 0.0
H5275 H 0.26073 0.91813 0.86928 0.0
H5276 H 0.93186 0.56485 0.74081 0.0
H5277 H 0.94095 0.56529 0.71008 0.0
H5278 H 0.99424 0.59183 0.73484 0.0
H5279 H 0.98537 0.59115 0.7656 0.0
H5280 H 0.98193 0.60449 0.7001 0.0
H5281 H 0.98481 0.54786 0.72736 0.0
H5282 H 0.97119 0.52024 0.74122 0.0
H5283 H 0.93237 0.4991 0.69335 0.0
H5284 H 0.94564 0.52679 0.67935 0.0
H5285 H 0.0427 0.58027 0.64654 0.0
H5286 H 0.02479 0.58506 0.67084 0.0
H5287 H 0.98012 0.54427 0.63762 0.0
H5288 H 0.99819 0.53869 0.61354 0.0
H5289 H 0.9821 0.5391 0.67246 0.0
H5290 H 0.98409 0.59029 0.6413 0.0
H5291 H 0.99795 0.61674 0.62628 0.0
H5292 H 0.02479 0.64861 0.6788 0.0
H5293 H 0.01187 0.62186 0.69407 0.0
C5294 C 0.94544 0.57122 0.73971 0.0
C5295 C 0.95798 0.57771 0.75555 0.0
C5296 C 0.95057 0.5715 0.72217 0.0
C5297 C 0.96823 0.57854 0.72031 0.0
C5298 C 0.98053 0.58645 0.73609 0.0
C5299 C 0.97548 0.58589 0.75361 0.0
C5300 C 0.97441 0.57489 0.70232 0.0
C5301 C 0.982 0.59026 0.69395 0.0
C5302 C 0.97388 0.5562 0.69412 0.0
C5303 C 0.96606 0.53948 0.70244 0.0
C5304 C 0.97328 0.5374 0.71988 0.0
C5305 C 0.96565 0.52172 0.72774 0.0
C5306 C 0.95089 0.50795 0.7182 0.0
C5307 C 0.94378 0.5098 0.70075 0.0
C5308 C 0.95135 0.52548 0.69284 0.0
C5309 C 0.02914 0.57208 0.6445 0.0
C5310 C 0.02186 0.55912 0.62812 0.0
C5311 C 0.01887 0.57503 0.65829 0.0
C5312 C 1.00107 0.56528 0.65584 0.0
C5313 C 0.99381 0.55204 0.63968 0.0
C5314 C 1.00412 0.54898 0.62591 0.0
C5315 C 0.99023 0.56878 0.67042 0.0
C5316 C 0.98173 0.55335 0.67819 0.0
C5317 C 0.98969 0.58741 0.67781 0.0
C5318 C 0.99707 0.60393 0.66886 0.0
C5319 C 0.99307 0.60285 0.64968 0.0
C5320 C 1.0008 0.6179 0.64109 0.0
C5321 C 0.01219 0.63441 0.65158 0.0
C5322 C 0.01595 0.63582 0.67069 0.0
C5323 C 1.00848 0.62066 0.67932 0.0
H5324 H 0.01809 0.6461 0.64491 0.0
H5325 H 0.945 0.49582 0.7243 0.0
H5326 H 0.28168 0.25015 0.46745 0.0
H5327 H 0.28548 0.26316 0.43904 0.0
H5328 H 0.2995 0.21321 0.41461 0.0
H5329 H 0.29687 0.20085 0.44355 0.0
H5330 H 0.31789 0.23918 0.40255 0.0
H5331 H 0.25685 0.22351 0.40442 0.0
H5332 H 0.22918 0.2228 0.417 0.0
H5333 H 0.23971 0.28329 0.4209 0.0
H5334 H 0.26757 0.2844 0.40857 0.0
H5335 H 0.27901 0.27723 0.31658 0.0
H5336 H 0.27466 0.26018 0.34269 0.0
H5337 H 0.32834 0.28676 0.36626 0.0
H5338 H 0.33287 0.30289 0.33983 0.0
H5339 H 0.27424 0.26919 0.37651 0.0
H5340 H 0.34548 0.26391 0.39266 0.0
H5341 H 0.36918 0.25727 0.37578 0.0
H5342 H 0.33148 0.22616 0.3293 0.0
H5343 H 0.30768 0.23306 0.34563 0.0
C5344 C 0.28567 0.24198 0.45605 0.0
C5345 C 0.28894 0.22442 0.45782 0.0
C5346 C 0.28767 0.24936 0.43963 0.0
C5347 C 0.29236 0.23908 0.4242 0.0
C5348 C 0.29585 0.22159 0.42611 0.0
C5349 C 0.29432 0.21446 0.44272 0.0
C5350 C 0.2938 0.24658 0.40626 0.0
C5351 C 0.30827 0.24571 0.39696 0.0
C5352 C 0.28108 0.2546 0.39824 0.0
C5353 C 0.26438 0.25405 0.40574 0.0
C5354 C 0.25333 0.23668 0.40809 0.0
C5355 C 0.2376 0.2362 0.41515 0.0
C5356 C 0.23271 0.253 0.41979 0.0
C5357 C 0.24353 0.2703 0.41733 0.0
C5358 C 0.25928 0.27086 0.41029 0.0
C5359 C 0.28993 0.27919 0.32721 0.0
C5360 C 0.30632 0.29134 0.326 0.0
C5361 C 0.28742 0.2695 0.34225 0.0
C5362 C 0.30121 0.27181 0.35656 0.0
C5363 C 0.31754 0.28412 0.35533 0.0
C5364 C 0.32009 0.29355 0.34021 0.0
C5365 C 0.29847 0.26209 0.37309 0.0
C5366 C 0.2838 0.2626 0.38214 0.0
C5367 C 0.31049 0.25283 0.38036 0.0
C5368 C 0.32485 0.2492 0.37028 0.0
C5369 C 0.34229 0.25578 0.37877 0.0
C5370 C 0.35575 0.25208 0.36924 0.0
C5371 C 0.35187 0.24159 0.35132 0.0
C5372 C 0.33453 0.23472 0.34294 0.0
C5373 C 0.32106 0.23857 0.3523 0.0
H5374 H 0.36228 0.23859 0.34401 0.0
H5375 H 0.22053 0.2526 0.42525 0.0
H5376 H 0.31486 0.58377 0.54965 0.0
H5377 H 0.33896 0.569 0.54759 0.0
H5378 H 0.36453 0.61168 0.5176 0.0
H5379 H 0.34022 0.62616 0.51911 0.0
H5380 H 0.36692 0.57843 0.50239 0.0
H5381 H 0.37728 0.61313 0.56439 0.0
H5382 H 0.37015 0.62266 0.59553 0.0
H5383 H 0.36233 0.56539 0.60533 0.0
H5384 H 0.36919 0.55546 0.57414 0.0
H5385 H 0.45351 0.57072 0.51596 0.0
H5386 H 0.42734 0.58203 0.51775 0.0
H5387 H 0.40243 0.53251 0.53968 0.0
H5388 H 0.42874 0.52114 0.53806 0.0
H5389 H 0.39876 0.56705 0.55884 0.0
H5390 H 0.39054 0.53345 0.49651 0.0
H5391 H 0.39909 0.52544 0.46575 0.0
H5392 H 0.40444 0.58276 0.45704 0.0
H5393 H 0.39617 0.59118 0.48788 0.0
C5394 C 0.3256 0.58998 0.54259 0.0
C5395 C 0.32569 0.60617 0.53461 0.0
C5396 C 0.33941 0.58158 0.54149 0.0
C5397 C 0.35369 0.58941 0.53269 0.0
C5398 C 0.35366 0.6054 0.52448 0.0
C5399 C 0.33977 0.61369 0.52539 0.0
C5400 C 0.3687 0.58098 0.532 0.0
C5401 C 0.37398 0.57614 0.51476 0.0
C5402 C 0.37769 0.57759 0.5481 0.0
C5403 C 0.37355 0.58352 0.56686 0.0
C5404 C 0.37389 0.60254 0.57313 0.0
C5405 C 0.36993 0.60801 0.5908 0.0
C5406 C 0.36574 0.59462 0.60238 0.0
C5407 C 0.36555 0.57574 0.59633 0.0
C5408 C 0.36948 0.57018 0.57867 0.0
C5409 C 0.44252 0.56232 0.52132 0.0
C5410 C 0.44314 0.54506 0.5269 0.0
C5411 C 0.42755 0.56872 0.52219 0.0
C5412 C 0.41294 0.558 0.52868 0.0
C5413 C 0.41358 0.54092 0.53457 0.0
C5414 C 0.42854 0.53441 0.53355 0.0
C5415 C 0.39702 0.56475 0.52929 0.0
C5416 C 0.39158 0.56925 0.54648 0.0
C5417 C 0.38802 0.56805 0.51319 0.0
C5418 C 0.39287 0.56298 0.49458 0.0
C5419 C 0.39367 0.54438 0.4881 0.0
C5420 C 0.39844 0.53976 0.47064 0.0
C5421 C 0.40234 0.55359 0.45946 0.0
C5422 C 0.40143 0.57206 0.46571 0.0
C5423 C 0.39668 0.57676 0.48318 0.0
H5424 H 0.40603 0.54999 0.44594 0.0
H5425 H 0.36268 0.59889 0.61606 0.0
H5426 H 0.87298 0.92009 0.52452 0.0
H5427 H 0.90335 0.93676 0.52355 0.0
H5428 H 0.90229 0.97705 0.5717 0.0
H5429 H 0.87145 0.96095 0.57201 0.0
H5430 H 0.92041 0.99529 0.5502 0.0
H5431 H 0.92203 0.93764 0.57241 0.0
H5432 H 0.91292 0.90292 0.57095 0.0
H5433 H 0.93324 0.89474 0.51945 0.0
H5434 H 0.94226 0.92942 0.52048 0.0
H5435 H 0.01248 0.03083 0.57278 0.0
H5436 H 0.98237 0.01299 0.57396 0.0
H5437 H 0.98039 0.98118 0.51968 0.0
H5438 H 1.01042 0.9993 0.51827 0.0
H5439 H 0.96439 0.95841 0.54473 0.0
H5440 H 0.96257 0.01652 0.52312 0.0
H5441 H 0.97068 0.05125 0.52462 0.0
H5442 H 0.95073 0.05845 0.57645 0.0
H5443 H 0.94273 0.02374 0.57538 0.0
C5444 C 0.87918 0.93255 0.53487 0.0
C5445 C 0.86979 0.9391 0.54843 0.0
C5446 C 0.89666 0.94202 0.5344 0.0
C5447 C 0.90547 0.95792 0.54789 0.0
C5448 C 0.89595 0.96477 0.56118 0.0
C5449 C 0.87829 0.95555 0.56137 0.0
C5450 C 0.92452 0.96735 0.5481 0.0
C5451 C 0.93 0.98718 0.54931 0.0
C5452 C 0.93721 0.9569 0.54659 0.0
C5453 C 0.93265 0.93612 0.54643 0.0
C5454 C 0.92451 0.92843 0.56075 0.0
C5455 C 0.9193 0.90876 0.55996 0.0
C5456 C 0.92233 0.89662 0.54501 0.0
C5457 C 0.93079 0.90415 0.53095 0.0
C5458 C 0.93599 0.92382 0.53165 0.0
C5459 C 1.00571 0.01991 0.56115 0.0
C5460 C 0.0139 0.01649 0.54543 0.0
C5461 C 0.98846 1.00973 0.56184 0.0
C5462 C 0.979 0.99582 0.54685 0.0
C5463 C 0.98739 0.99181 0.53143 0.0
C5464 C 1.0046 1.00215 0.53066 0.0
C5465 C 0.96013 0.98625 0.54692 0.0
C5466 C 0.95474 0.96644 0.54575 0.0
C5467 C 0.94754 0.9967 0.54866 0.0
C5468 C 0.95222 0.01755 0.54926 0.0
C5469 C 0.96004 0.02552 0.53491 0.0
C5470 C 0.96459 0.0452 0.53567 0.0
C5471 C 0.96127 0.05705 0.55065 0.0
C5472 C 0.95333 0.04925 0.56487 0.0
C5473 C 0.94877 0.02957 0.56419 0.0
H5474 H 0.9648 0.07229 0.55121 0.0
H5475 H 0.9183 0.8814 0.54443 0.0
H5476 H 0.87232 0.10252 0.23152 0.0
H5477 H 0.85873 0.12889 0.23365 0.0
H5478 H 0.89798 0.16007 0.27906 0.0
H5479 H 0.91108 0.13318 0.27744 0.0
H5480 H 0.87221 0.17088 0.28705 0.0
H5481 H 0.89236 0.16901 0.228 0.0
H5482 H 0.89555 0.15512 0.19648 0.0
H5483 H 0.84004 0.14175 0.18084 0.0
H5484 H 0.83651 0.15537 0.21234 0.0
H5485 H 0.85161 0.26136 0.28141 0.0
H5486 H 0.86521 0.23479 0.27999 0.0
H5487 H 0.82042 0.19886 0.24332 0.0
H5488 H 0.80667 0.22523 0.24502 0.0
H5489 H 0.84918 0.19108 0.23091 0.0
H5490 H 0.8299 0.19496 0.29023 0.0
H5491 H 0.82753 0.20984 0.32165 0.0
H5492 H 0.88284 0.22054 0.33674 0.0
H5493 H 0.88566 0.20623 0.30524 0.0
C5494 C 0.87821 0.11495 0.242 0.0
C5495 C 0.89314 0.11518 0.2542 0.0
C5496 C 0.87039 0.13048 0.24313 0.0
C5497 C 0.87719 0.14755 0.25626 0.0
C5498 C 0.89203 0.14764 0.26861 0.0
C5499 C 0.89972 0.13198 0.26763 0.0
C5500 C 0.86892 0.16486 0.25731 0.0
C5501 C 0.86752 0.17529 0.2746 0.0
C5502 C 0.8621 0.17128 0.24148 0.0
C5503 C 0.86416 0.16302 0.22257 0.0
C5504 C 0.88083 0.16299 0.21787 0.0
C5505 C 0.88269 0.15518 0.20001 0.0
C5506 C 0.868 0.1475 0.18668 0.0
C5507 C 0.85141 0.14767 0.19118 0.0
C5508 C 0.84946 0.15544 0.20903 0.0
C5509 C 0.84449 0.24783 0.27308 0.0
C5510 C 0.8277 0.24597 0.26347 0.0
C5511 C 0.85239 0.23233 0.27228 0.0
C5512 C 0.84412 0.21408 0.26159 0.0
C5513 C 0.82748 0.21235 0.25176 0.0
C5514 C 0.81946 0.22771 0.25283 0.0
C5515 C 0.8526 0.19703 0.26057 0.0
C5516 C 0.85398 0.18666 0.24331 0.0
C5517 C 0.85959 0.19084 0.27642 0.0
C5518 C 0.85802 0.19974 0.29528 0.0
C5519 C 0.8416 0.20072 0.30017 0.0
C5520 C 0.84018 0.20905 0.318 0.0
C5521 C 0.85505 0.21625 0.33115 0.0
C5522 C 0.87137 0.2151 0.3265 0.0
C5523 C 0.87289 0.2069 0.30865 0.0
H5524 H 0.85392 0.22264 0.34497 0.0
H5525 H 0.86948 0.14147 0.17286 0.0
H5526 H 0.73781 0.13279 0.9921 0.0
H5527 H 0.70646 0.12051 0.9816 0.0
H5528 H 0.70239 0.08204 0.02076 0.0
H5529 H 0.7337 0.09389 0.03105 0.0
H5530 H 0.68042 0.06571 0.98965 0.0
H5531 H 0.6962 0.12634 0.03214 0.0
H5532 H 0.71144 0.16037 0.04181 0.0
H5533 H 0.68638 0.17286 0.99286 0.0
H5534 H 0.67115 0.13883 0.98281 0.0
H5535 H 0.60396 0.08675 0.03491 0.0
H5536 H 0.63359 0.09668 0.02744 0.0
H5537 H 0.61741 0.06125 0.97361 0.0
H5538 H 0.5878 0.05057 0.98135 0.0
H5539 H 0.64853 0.11472 1.00321 0.0
H5540 H 0.64642 0.04578 0.95971 0.0
H5541 H 0.63167 1.01143 0.95526 0.0
H5542 H 0.63056 0.01551 0.01376 0.0
H5543 H 0.64478 0.04988 0.01838 0.0
C5544 C 0.73029 0.12149 0.99827 0.0
C5545 C 0.73818 0.11453 0.01265 0.0
C5546 C 0.71239 0.11448 0.99221 0.0
C5547 C 0.70208 0.10057 1.00059 0.0
C5548 C 0.71012 0.09276 0.01409 0.0
C5549 C 0.72801 0.09966 0.02006 0.0
C5550 C 0.68279 0.09566 0.99708 0.0
C5551 C 0.67341 0.07645 0.99226 0.0
C5552 C 0.67363 0.10964 1.00058 0.0
C5553 C 0.68274 0.13006 1.00662 0.0
C5554 C 0.69405 0.13634 0.02339 0.0
C5555 C 0.70267 0.15562 0.02894 0.0
C5556 C 0.69993 0.16876 0.01792 0.0
C5557 C 0.68853 0.16266 1.00135 0.0
C5558 C 0.6799 0.14339 0.99572 0.0
C5559 C 0.60666 0.08116 0.02143 0.0
C5560 C 0.5936 0.0678 1.00877 0.0
C5561 C 0.6236 0.08689 0.01714 0.0
C5562 C 0.6278 0.07954 1.00004 0.0
C5563 C 0.61459 0.06679 0.98704 0.0
C5564 C 0.59766 0.06079 0.99145 0.0
C5565 C 0.64623 0.08473 0.99653 0.0
C5566 C 0.65545 0.10402 0.99989 0.0
C5567 C 0.65528 0.07082 0.99214 0.0
C5568 C 0.64653 0.05029 0.98936 0.0
C5569 C 0.64294 0.03928 0.97157 0.0
C5570 C 0.63458 0.01985 0.96901 0.0
C5571 C 0.63001 1.01129 0.98418 0.0
C5572 C 0.63385 0.02214 1.00196 0.0
C5573 C 0.64197 0.04161 1.00455 0.0
H5574 H 0.62356 0.99625 0.98217 0.0
H5575 H 0.70661 0.18368 0.02224 0.0
H5576 H 0.1844 0.48192 0.27131 0.0
H5577 H 0.19947 0.46188 0.28644 0.0
H5578 H 0.24546 0.48411 0.26147 0.0
H5579 H 0.22992 0.50283 0.24525 0.0
H5580 H 0.24291 0.44982 0.26133 0.0
H5581 H 0.2372 0.50042 0.30897 0.0
H5582 H 0.22013 0.51822 0.32704 0.0
H5583 H 0.19395 0.46736 0.34564 0.0
H5584 H 0.21064 0.44922 0.32744 0.0
H5585 H 0.31288 0.44268 0.31695 0.0
H5586 H 0.29088 0.4598 0.31181 0.0
H5587 H 0.25054 0.41135 0.31915 0.0
H5588 H 0.27225 0.39378 0.32347 0.0
H5589 H 0.24675 0.45449 0.32945 0.0
H5590 H 0.25543 0.40497 0.28186 0.0
H5591 H 0.27514 0.38981 0.26539 0.0
H5592 H 0.29838 0.44217 0.24761 0.0
H5593 H 0.27901 0.45779 0.26437 0.0
C5594 C 0.19765 0.48225 0.26891 0.0
C5595 C 0.20607 0.49387 0.25719 0.0
C5596 C 0.20631 0.47095 0.27768 0.0
C5597 C 0.22379 0.47181 0.27551 0.0
C5598 C 0.232 0.48314 0.26341 0.0
C5599 C 0.22314 0.49387 0.25415 0.0
C5600 C 0.23388 0.46136 0.28597 0.0
C5601 C 0.24371 0.45096 0.27622 0.0
C5602 C 0.23472 0.46238 0.30542 0.0
C5603 C 0.22503 0.47344 0.31671 0.0
C5604 C 0.22775 0.49304 0.31687 0.0
C5605 C 0.21812 0.50318 0.32711 0.0
C5606 C 0.20591 0.49392 0.33743 0.0
C5607 C 0.20336 0.47452 0.3376 0.0
C5608 C 0.2129 0.4643 0.32733 0.0
C5609 C 0.2994 0.43583 0.318 0.0
C5610 C 0.29424 0.41662 0.31991 0.0
C5611 C 0.28689 0.44573 0.31531 0.0
C5612 C 0.26913 0.43664 0.31479 0.0
C5613 C 0.26421 0.41854 0.31951 0.0
C5614 C 0.2767 0.4085 0.32194 0.0
C5615 C 0.25606 0.44385 0.30478 0.0
C5616 C 0.24567 0.45335 0.31455 0.0
C5617 C 0.25485 0.44231 0.28537 0.0
C5618 C 0.26583 0.4326 0.27449 0.0
C5619 C 0.26475 0.41329 0.2745 0.0
C5620 C 0.2759 0.40461 0.26514 0.0
C5621 C 0.28805 0.41504 0.2555 0.0
C5622 C 0.28898 0.43412 0.25511 0.0
C5623 C 0.27792 0.4429 0.26454 0.0
H5624 H 0.29671 0.40832 0.24831 0.0
H5625 H 0.19844 0.50177 0.34533 0.0
H5626 H 0.26307 0.42193 0.02267 0.0
H5627 H 0.23724 0.43403 0.01878 0.0
H5628 H 0.25937 0.47846 0.06584 0.0
H5629 H 0.28497 0.46629 0.06995 0.0
H5630 H 0.2262 0.46336 0.06808 0.0
H5631 H 0.25815 0.48651 0.02006 0.0
H5632 H 0.27299 0.48367 0.99237 0.0
H5633 H 0.22543 0.44707 0.96112 0.0
H5634 H 0.21035 0.44951 0.9887 0.0
H5635 H 0.17618 0.5282 0.05875 0.0
H5636 H 0.19944 0.51228 0.05944 0.0
H5637 H 0.17023 0.46955 0.01361 0.0
H5638 H 0.14691 0.48585 0.01246 0.0
H5639 H 0.20489 0.48078 1.00945 0.0
H5640 H 0.17237 0.45969 0.05698 0.0
H5641 H 0.15746 0.46331 0.08452 0.0
H5642 H 0.20604 0.49614 0.11671 0.0
H5643 H 0.2212 0.49299 0.08927 0.0
C5644 C 0.26248 0.43435 0.03212 0.0
C5645 C 0.27618 0.44313 0.04661 0.0
C5646 C 0.24769 0.44131 0.02985 0.0
C5647 C 0.24629 0.45731 0.04193 0.0
C5648 C 0.26001 0.4661 0.05633 0.0
C5649 C 0.27474 0.45914 0.05863 0.0
C5650 C 0.23052 0.4648 0.0399 0.0
C5651 C 0.22169 0.46733 0.05529 0.0
C5652 C 0.22415 0.46948 0.02308 0.0
C5653 C 0.23318 0.46802 1.0065 0.0
C5654 C 0.25089 0.47773 1.00732 0.0
C5655 C 0.25934 0.47622 0.99164 0.0
C5656 C 0.25017 0.46515 0.97501 0.0
C5657 C 0.23252 0.45561 0.97402 0.0
C5658 C 0.22402 0.45706 0.98967 0.0
C5659 C 0.17471 0.51556 0.04861 0.0
C5660 C 0.15965 0.50848 0.03541 0.0
C5661 C 0.18801 0.50631 0.04917 0.0
C5662 C 0.18661 0.48956 0.0367 0.0
C5663 C 0.17165 0.48243 0.02342 0.0
C5664 C 0.15825 0.4917 0.02285 0.0
C5665 C 0.20084 0.47967 0.03773 0.0
C5666 C 0.20934 0.47665 0.02218 0.0
C5667 C 0.20692 0.47453 0.0544 0.0
C5668 C 0.1979 0.47621 0.07102 0.0
C5669 C 0.17986 0.46778 0.0699 0.0
C5670 C 0.17136 0.46974 0.08549 0.0
C5671 C 0.18079 0.47998 0.10234 0.0
C5672 C 0.19875 0.48822 0.10364 0.0
C5673 C 0.20731 0.48634 0.08807 0.0
H5674 H 0.17419 0.48149 0.1144 0.0
H5675 H 0.25673 0.46399 0.96288 0.0
H5676 H 0.91592 1.00313 0.28457 0.0
H5677 H 0.89908 0.97094 0.28534 0.0
H5678 H 0.8575 0.9775 0.24742 0.0
H5679 H 0.87438 1.01037 0.24695 0.0
H5680 H 0.84259 0.95664 0.27016 0.0
H5681 H 0.88867 0.94988 0.23537 0.0
H5682 H 0.91895 0.95471 0.22842 0.0
H5683 H 0.93212 0.93059 0.27557 0.0
H5684 H 0.90196 0.92586 0.28295 0.0
H5685 H 0.80059 0.85664 0.24639 0.0
H5686 H 0.81691 0.88942 0.24638 0.0
H5687 H 0.85566 0.88525 0.28909 0.0
H5688 H 0.83907 0.85218 0.28928 0.0
H5689 H 0.87182 0.90464 0.26369 0.0
H5690 H 0.82494 0.91108 0.2978 0.0
H5691 H 0.79428 0.9056 0.30355 0.0
H5692 H 0.78224 0.92968 0.256 0.0
H5693 H 0.8128 0.93507 0.24982 0.0
C5694 C 0.90317 0.99795 0.27633 0.0
C5695 C 0.89682 1.00987 0.2656 0.0
C5696 C 0.89347 0.97914 0.27667 0.0
C5697 C 0.87691 0.97094 0.26607 0.0
C5698 C 0.8702 0.98296 0.25572 0.0
C5699 C 0.87994 1.00199 0.25546 0.0
C5700 C 0.86688 0.95009 0.26595 0.0
C5701 C 0.84906 0.94535 0.26844 0.0
C5702 C 0.87493 0.93479 0.26414 0.0
C5703 C 0.8931 0.9377 0.25982 0.0
C5704 C 0.89806 0.94575 0.24434 0.0
C5705 C 0.91519 0.94844 0.24031 0.0
C5706 C 0.92746 0.94301 0.25158 0.0
C5707 C 0.92261 0.93483 0.26688 0.0
C5708 C 0.90549 0.93213 0.27098 0.0
C5709 C 0.81257 0.86257 0.25587 0.0
C5710 C 0.81828 0.85135 0.26787 0.0
C5711 C 0.82197 0.8816 0.25591 0.0
C5712 C 0.83766 0.89047 0.26789 0.0
C5713 C 0.84366 0.87917 0.27966 0.0
C5714 C 0.83409 0.86007 0.27978 0.0
C5715 C 0.84761 0.91128 0.26795 0.0
C5716 C 0.8654 0.91598 0.26542 0.0
C5717 C 0.83949 0.92649 0.26956 0.0
C5718 C 0.82113 0.9233 0.27324 0.0
C5719 C 0.81573 0.91507 0.28849 0.0
C5720 C 0.79837 0.91201 0.29184 0.0
C5721 C 0.7863 0.91725 0.28012 0.0
C5722 C 0.79159 0.92561 0.26505 0.0
C5723 C 0.80893 0.92868 0.26162 0.0
H5724 H 0.77287 0.91487 0.28274 0.0
H5725 H 0.94072 0.94509 0.24843 0.0
H5726 H 0.72112 0.08122 0.7335 0.0
H5727 H 0.73846 0.11408 0.73653 0.0
H5728 H 0.69895 0.13337 0.76371 0.0
H5729 H 0.68133 0.10052 0.76048 0.0
H5730 H 0.71013 0.15476 0.73882 0.0
H5731 H 0.73631 0.13122 0.78845 0.0
H5732 H 0.74996 0.10921 0.80258 0.0
H5733 H 0.79208 0.12135 0.77019 0.0
H5734 H 0.77855 0.14325 0.75568 0.0
H5735 H 0.7838 0.23974 0.7939 0.0
H5736 H 0.76638 0.20681 0.78898 0.0
H5737 H 0.75861 0.20622 0.73025 0.0
H5738 H 0.77593 0.23941 0.73507 0.0
H5739 H 0.77107 0.17537 0.77074 0.0
H5740 H 0.71759 0.17665 0.7127 0.0
H5741 H 0.70097 0.19803 0.70198 0.0
H5742 H 0.71097 0.23126 0.75652 0.0
H5743 H 0.72754 0.21002 0.76759 0.0
C5744 C 0.71608 0.09243 0.74011 0.0
C5745 C 0.69986 0.08825 0.74683 0.0
C5746 C 0.72605 0.1112 0.74187 0.0
C5747 C 0.72007 0.12611 0.75053 0.0
C5748 C 0.70378 0.12203 0.75699 0.0
C5749 C 0.69376 0.10326 0.75518 0.0
C5750 C 0.73082 0.146 0.7529 0.0
C5751 C 0.72349 0.15928 0.74573 0.0
C5752 C 0.74815 0.15187 0.76212 0.0
C5753 C 0.75632 0.13872 0.77084 0.0
C5754 C 0.74841 0.12908 0.78423 0.0
C5755 C 0.75614 0.11664 0.79233 0.0
C5756 C 0.77185 0.11384 0.78725 0.0
C5757 C 0.77989 0.12351 0.77409 0.0
C5758 C 0.77221 0.13595 0.76593 0.0
C5759 C 0.77844 0.23264 0.77991 0.0
C5760 C 0.78124 0.24221 0.76486 0.0
C5761 C 0.7685 0.21379 0.77713 0.0
C5762 C 0.76109 0.20414 0.75928 0.0
C5763 C 0.76404 0.21352 0.74417 0.0
C5764 C 0.77403 0.23243 0.74693 0.0
C5765 C 0.75039 0.18419 0.75663 0.0
C5766 C 0.75777 0.17085 0.76368 0.0
C5767 C 0.73298 0.17835 0.74763 0.0
C5768 C 0.72394 0.19185 0.74091 0.0
C5769 C 0.7163 0.18858 0.72238 0.0
C5770 C 0.70686 0.20063 0.71625 0.0
C5771 C 0.70486 0.21593 0.72858 0.0
C5772 C 0.71252 0.21938 0.74699 0.0
C5773 C 0.72201 0.20739 0.75318 0.0
H5774 H 0.69737 0.22511 0.72385 0.0
H5775 H 0.77782 0.10421 0.79353 0.0
loop_
_geom_bond_atom_site_label_1
_geom_bond_atom_site_label_2
_geom_bond_distance
_geom_bond_site_symmetry_2
_ccdc_geom_bond_type
O0 Cd1 2.223 . S
O0 C8 1.315 . S
Cd1 O0 2.223 . S
Cd1 O4 2.297 . S
Cd1 O5 2.439 . S
Cd1 O11 2.240 . S
Cd2 O3 2.240 . S
Cd2 O10 2.223 . S
Cd2 O12 2.297 . S
Cd2 O13 2.439 . S
O3 Cd2 2.240 . S
O3 C8 1.279 . S
O4 Cd1 2.297 . S
O4 C6 1.247 . S
O5 Cd1 2.439 . S
O5 C6 1.208 . S
C6 O4 1.247 . S
C6 O5 1.208 . S
C7 O12 1.247 . S
C7 O13 1.208 . S
C8 O0 1.315 . S
C8 O3 1.279 . S
C9 O10 1.315 . S
C9 O11 1.279 . S
O10 Cd2 2.223 . S
O10 C9 1.315 . S
O11 Cd1 2.240 . S
O11 C9 1.279 . S
O12 Cd2 2.297 . S
O12 C7 1.247 . S
O13 Cd2 2.439 . S
O13 C7 1.208 . S
O14 Cd15 2.248 . S
O14 C22 1.322 . S
Cd15 O14 2.248 . S
Cd15 O18 2.297 . S
Cd15 O19 2.439 . S
Cd15 O25 2.240 1_655 S
Cd16 O17 2.240 1_455 S
Cd16 O24 2.223 . S
Cd16 O26 2.297 . S
Cd16 O27 2.444 . S
O17 Cd16 2.240 1_655 S
O17 C22 1.279 . S
O18 Cd15 2.297 . S
O18 C20 1.247 . S
O19 Cd15 2.439 . S
O19 C20 1.208 . S
C20 O18 1.247 . S
C20 O19 1.208 . S
C21 O26 1.247 . S
C21 O27 1.214 . S
C22 O14 1.322 . S
C22 O17 1.279 . S
C23 O24 1.315 . S
C23 O25 1.279 . S
O24 Cd16 2.223 . S
O24 C23 1.315 . S
O25 Cd15 2.240 1_455 S
O25 C23 1.279 . S
O26 Cd16 2.297 . S
O26 C21 1.247 . S
O27 Cd16 2.444 . S
O27 C21 1.214 . S
O28 Cd29 2.223 . S
O28 C36 1.315 . S
Cd29 O28 2.223 . S
Cd29 O32 2.297 . S
Cd29 O33 2.439 . S
Cd29 O39 2.240 . S
Cd30 O31 2.240 . S
Cd30 O38 2.223 . S
Cd30 O40 2.297 . S
Cd30 O41 2.439 . S
O31 Cd30 2.240 . S
O31 C36 1.279 . S
O32 Cd29 2.297 . S
O32 C34 1.247 . S
O33 Cd29 2.439 . S
O33 C34 1.208 . S
C34 O32 1.247 . S
C34 O33 1.208 . S
C35 O40 1.247 . S
C35 O41 1.208 . S
C36 O28 1.315 . S
C36 O31 1.279 . S
C37 O38 1.315 . S
C37 O39 1.279 . S
O38 Cd30 2.223 . S
O38 C37 1.315 . S
O39 Cd29 2.240 . S
O39 C37 1.279 . S
O40 Cd30 2.297 . S
O40 C35 1.247 . S
O41 Cd30 2.439 . S
O41 C35 1.208 . S
O42 Cd43 2.223 . S
O42 C50 1.315 . S
Cd43 O42 2.223 . S
Cd43 O46 2.297 . S
Cd43 O47 2.439 . S
Cd43 O53 2.240 . S
Cd44 O45 2.240 . S
Cd44 O52 2.223 . S
Cd44 O54 2.297 . S
Cd44 O55 2.439 . S
O45 Cd44 2.240 . S
O45 C50 1.279 . S
O46 Cd43 2.297 . S
O46 C48 1.247 . S
O47 Cd43 2.439 . S
O47 C48 1.208 . S
C48 O46 1.247 . S
C48 O47 1.208 . S
C49 O54 1.247 . S
C49 O55 1.208 . S
C50 O42 1.315 . S
C50 O45 1.279 . S
C51 O52 1.315 . S
C51 O53 1.279 . S
O52 Cd44 2.223 . S
O52 C51 1.315 . S
O53 Cd43 2.240 . S
O53 C51 1.279 . S
O54 Cd44 2.297 . S
O54 C49 1.247 . S
O55 Cd44 2.439 . S
O55 C49 1.208 . S
O56 Cd57 2.223 . S
O56 C64 1.315 . S
Cd57 O56 2.223 . S
Cd57 O60 2.297 . S
Cd57 O61 2.439 . S
Cd57 O67 2.240 . S
Cd58 O59 2.240 . S
Cd58 O66 2.223 . S
Cd58 O68 2.297 . S
Cd58 O69 2.439 . S
O59 Cd58 2.240 . S
O59 C64 1.279 . S
O60 Cd57 2.297 . S
O60 C62 1.247 . S
O61 Cd57 2.439 . S
O61 C62 1.208 . S
C62 O60 1.247 . S
C62 O61 1.208 . S
C63 O68 1.247 . S
C63 O69 1.208 . S
C64 O56 1.315 . S
C64 O59 1.279 . S
C65 O66 1.315 . S
C65 O67 1.279 . S
O66 Cd58 2.223 . S
O66 C65 1.315 . S
O67 Cd57 2.240 . S
O67 C65 1.279 . S
O68 Cd58 2.297 . S
O68 C63 1.247 . S
O69 Cd58 2.439 . S
O69 C63 1.208 . S
O70 Cd71 2.223 . S
O70 C78 1.315 . S
Cd71 O70 2.223 . S
Cd71 O74 2.297 . S
Cd71 O75 2.439 . S
Cd71 O81 2.240 . S
Cd72 O73 2.240 . S
Cd72 O80 2.223 . S
Cd72 O82 2.297 . S
Cd72 O83 2.439 . S
O73 Cd72 2.240 . S
O73 C78 1.279 . S
O74 Cd71 2.297 . S
O74 C76 1.247 . S
O75 Cd71 2.439 . S
O75 C76 1.208 . S
C76 O74 1.247 . S
C76 O75 1.208 . S
C77 O82 1.247 . S
C77 O83 1.208 . S
C78 O70 1.315 . S
C78 O73 1.279 . S
C79 O80 1.315 . S
C79 O81 1.279 . S
O80 Cd72 2.223 . S
O80 C79 1.315 . S
O81 Cd71 2.240 . S
O81 C79 1.279 . S
O82 Cd72 2.297 . S
O82 C77 1.247 . S
O83 Cd72 2.439 . S
O83 C77 1.208 . S
O84 Cd85 2.223 . S
O84 C92 1.315 . S
Cd85 O84 2.223 . S
Cd85 O88 2.297 . S
Cd85 O89 2.439 . S
Cd85 O95 2.240 . S
Cd86 O87 2.240 . S
Cd86 O94 2.223 . S
Cd86 O96 2.297 . S
Cd86 O97 2.439 . S
O87 Cd86 2.240 . S
O87 C92 1.279 . S
O88 Cd85 2.297 . S
O88 C90 1.247 . S
O89 Cd85 2.439 . S
O89 C90 1.208 . S
C90 O88 1.247 . S
C90 O89 1.208 . S
C91 O96 1.247 . S
C91 O97 1.208 . S
C92 O84 1.315 . S
C92 O87 1.279 . S
C93 O94 1.315 . S
C93 O95 1.279 . S
O94 Cd86 2.223 . S
O94 C93 1.315 . S
O95 Cd85 2.240 . S
O95 C93 1.279 . S
O96 Cd86 2.297 . S
O96 C91 1.247 . S
O97 Cd86 2.439 . S
O97 C91 1.208 . S
O98 Cd99 2.223 . S
O98 C106 1.315 . S
Cd99 O98 2.223 . S
Cd99 O102 2.297 . S
Cd99 O103 2.439 . S
Cd99 O109 2.240 . S
Cd100 O101 2.240 . S
Cd100 O108 2.223 1_455 S
Cd100 O110 2.297 . S
Cd100 O111 2.439 . S
O101 Cd100 2.240 . S
O101 C106 1.279 . S
O102 Cd99 2.297 . S
O102 C104 1.247 . S
O103 Cd99 2.439 . S
O103 C104 1.208 . S
C104 O102 1.247 . S
C104 O103 1.208 . S
C105 O110 1.247 . S
C105 O111 1.208 . S
C106 O98 1.315 . S
C106 O101 1.279 . S
C107 O108 1.315 . S
C107 O109 1.279 1_655 S
O108 Cd100 2.223 1_655 S
O108 C107 1.315 . S
O109 Cd99 2.240 . S
O109 C107 1.279 1_455 S
O110 Cd100 2.297 . S
O110 C105 1.247 . S
O111 Cd100 2.439 . S
O111 C105 1.208 . S
O112 Cd113 2.223 . S
O112 C120 1.315 . S
Cd113 O112 2.223 . S
Cd113 O116 2.297 . S
Cd113 O117 2.439 . S
Cd113 O123 2.240 1_545 S
Cd114 O115 2.240 . S
Cd114 O122 2.223 1_545 S
Cd114 O124 2.297 . S
Cd114 O125 2.439 . S
O115 Cd114 2.240 . S
O115 C120 1.279 . S
O116 Cd113 2.297 . S
O116 C118 1.247 . S
O117 Cd113 2.439 . S
O117 C118 1.208 . S
C118 O116 1.247 . S
C118 O117 1.208 . S
C119 O124 1.247 . S
C119 O125 1.208 . S
C120 O112 1.315 . S
C120 O115 1.279 . S
C121 O122 1.315 . S
C121 O123 1.279 . S
O122 Cd114 2.223 1_565 S
O122 C121 1.315 . S
O123 Cd113 2.240 1_565 S
O123 C121 1.279 . S
O124 Cd114 2.297 . S
O124 C119 1.247 . S
O125 Cd114 2.439 . S
O125 C119 1.208 . S
O126 Cd127 2.223 . S
O126 C134 1.315 . S
Cd127 O126 2.223 . S
Cd127 O130 2.297 . S
Cd127 O131 2.439 . S
Cd127 O137 2.240 . S
Cd128 O129 2.240 . S
Cd128 O136 2.223 . S
Cd128 O138 2.297 . S
Cd128 O139 2.439 . S
O129 Cd128 2.240 . S
O129 C134 1.279 . S
O130 Cd127 2.297 . S
O130 C132 1.247 . S
O131 Cd127 2.439 . S
O131 C132 1.208 . S
C132 O130 1.247 . S
C132 O131 1.208 . S
C133 O138 1.247 . S
C133 O139 1.208 . S
C134 O126 1.315 . S
C134 O129 1.279 . S
C135 O136 1.315 . S
C135 O137 1.279 . S
O136 Cd128 2.223 . S
O136 C135 1.315 . S
O137 Cd127 2.240 . S
O137 C135 1.279 . S
O138 Cd128 2.297 . S
O138 C133 1.247 . S
O139 Cd128 2.439 . S
O139 C133 1.208 . S
O140 Cd141 2.223 1_545 S
O140 C148 1.315 1_545 S
Cd141 O140 2.223 1_565 S
Cd141 O144 2.297 . S
Cd141 O145 2.439 . S
Cd141 O151 2.240 1_565 S
Cd142 O143 2.240 1_545 S
Cd142 O150 2.223 . S
Cd142 O152 2.297 . S
Cd142 O153 2.439 1_545 S
O143 Cd142 2.240 1_565 S
O143 C148 1.279 . S
O144 Cd141 2.297 . S
O144 C146 1.247 . S
O145 Cd141 2.439 . S
O145 C146 1.208 . S
C146 O144 1.247 . S
C146 O145 1.208 . S
C147 O152 1.247 . S
C147 O153 1.208 1_545 S
C148 O140 1.315 1_565 S
C148 O143 1.279 . S
C149 O150 1.315 . S
C149 O151 1.279 . S
O150 Cd142 2.223 . S
O150 C149 1.315 . S
O151 Cd141 2.240 1_545 S
O151 C149 1.279 . S
O152 Cd142 2.297 . S
O152 C147 1.247 . S
O153 Cd142 2.439 1_565 S
O153 C147 1.208 1_565 S
O154 Cd155 2.223 . S
O154 C162 1.315 . S
Cd155 O154 2.223 . S
Cd155 O158 2.297 . S
Cd155 O159 2.439 1_554 S
Cd155 O165 2.276 . S
Cd156 O157 2.240 1_556 S
Cd156 O164 2.223 1_556 S
Cd156 O166 2.297 . S
Cd156 O167 2.439 . S
O157 Cd156 2.240 1_554 S
O157 C162 1.279 . S
O158 Cd155 2.297 . S
O158 C160 1.247 . S
O159 Cd155 2.439 1_556 S
O159 C160 1.208 1_556 S
C160 O158 1.247 . S
C160 O159 1.208 1_554 S
C161 O166 1.247 . S
C161 O167 1.208 . S
C162 O154 1.315 . S
C162 O157 1.279 . S
C163 O164 1.315 . S
C163 O165 1.302 . S
O164 Cd156 2.223 1_554 S
O164 C163 1.315 . S
O165 Cd155 2.276 . S
O165 C163 1.302 . S
O166 Cd156 2.297 . S
O166 C161 1.247 . S
O167 Cd156 2.439 . S
O167 C161 1.208 . S
O168 Cd169 2.223 . S
O168 C176 1.315 . S
Cd169 O168 2.223 . S
Cd169 O172 2.297 . S
Cd169 O173 2.439 . S
Cd169 O179 2.240 . S
Cd170 O171 2.240 . S
Cd170 O178 2.223 . S
Cd170 O180 2.297 1_554 S
Cd170 O181 2.439 1_554 S
O171 Cd170 2.240 . S
O171 C176 1.279 . S
O172 Cd169 2.297 . S
O172 C174 1.247 . S
O173 Cd169 2.439 . S
O173 C174 1.208 . S
C174 O172 1.247 . S
C174 O173 1.208 . S
C175 O180 1.247 . S
C175 O181 1.208 . S
C176 O168 1.315 . S
C176 O171 1.279 . S
C177 O178 1.315 . S
C177 O179 1.279 . S
O178 Cd170 2.223 . S
O178 C177 1.315 . S
O179 Cd169 2.240 . S
O179 C177 1.279 . S
O180 Cd170 2.297 1_556 S
O180 C175 1.247 . S
O181 Cd170 2.439 1_556 S
O181 C175 1.208 . S
O182 Cd183 2.223 . S
O182 C190 1.315 . S
Cd183 O182 2.223 . S
Cd183 O186 2.297 . S
Cd183 O187 2.439 . S
Cd183 O193 2.240 . S
Cd184 O185 2.240 . S
Cd184 O192 2.223 . S
Cd184 O194 2.297 1_554 S
Cd184 O195 2.439 1_554 S
O185 Cd184 2.240 . S
O185 C190 1.279 . S
O186 Cd183 2.297 . S
O186 C188 1.247 . S
O187 Cd183 2.439 . S
O187 C188 1.208 . S
C188 O186 1.247 . S
C188 O187 1.208 . S
C189 O194 1.247 . S
C189 O195 1.208 . S
C190 O182 1.315 . S
C190 O185 1.279 . S
C191 O192 1.315 . S
C191 O193 1.279 . S
O192 Cd184 2.223 . S
O192 C191 1.315 . S
O193 Cd183 2.240 . S
O193 C191 1.279 . S
O194 Cd184 2.297 1_556 S
O194 C189 1.247 . S
O195 Cd184 2.439 1_556 S
O195 C189 1.208 . S
O196 Cd197 2.223 . S
O196 C204 1.315 . S
Cd197 O196 2.223 . S
Cd197 O200 2.297 . S
Cd197 O201 2.439 . S
Cd197 O207 2.240 . S
Cd198 O199 2.240 . S
Cd198 O206 2.223 . S
Cd198 O208 2.297 . S
Cd198 O209 2.439 . S
O199 Cd198 2.240 . S
O199 C204 1.279 . S
O200 Cd197 2.297 . S
O200 C202 1.247 . S
O201 Cd197 2.439 . S
O201 C202 1.208 . S
C202 O200 1.247 . S
C202 O201 1.208 . S
C203 O208 1.247 . S
C203 O209 1.208 . S
C204 O196 1.315 . S
C204 O199 1.279 . S
C205 O206 1.315 . S
C205 O207 1.279 . S
O206 Cd198 2.223 . S
O206 C205 1.315 . S
O207 Cd197 2.240 . S
O207 C205 1.279 . S
O208 Cd198 2.297 . S
O208 C203 1.247 . S
O209 Cd198 2.439 . S
O209 C203 1.208 . S
O210 Cd211 2.223 . S
O210 C218 1.315 . S
Cd211 O210 2.223 . S
Cd211 O214 2.297 . S
Cd211 O215 2.439 . S
Cd211 O221 2.240 . S
Cd212 O213 2.240 . S
Cd212 O220 2.223 . S
Cd212 O222 2.297 . S
Cd212 O223 2.439 . S
O213 Cd212 2.240 . S
O213 C218 1.279 . S
O214 Cd211 2.297 . S
O214 C216 1.247 . S
O215 Cd211 2.439 . S
O215 C216 1.208 . S
C216 O214 1.247 . S
C216 O215 1.208 . S
C217 O222 1.247 . S
C217 O223 1.208 . S
C218 O210 1.315 . S
C218 O213 1.279 . S
C219 O220 1.315 . S
C219 O221 1.279 . S
O220 Cd212 2.223 . S
O220 C219 1.315 . S
O221 Cd211 2.240 . S
O221 C219 1.279 . S
O222 Cd212 2.297 . S
O222 C217 1.247 . S
O223 Cd212 2.439 . S
O223 C217 1.208 . S
O224 Cd225 2.223 . S
O224 C232 1.315 . S
Cd225 O224 2.223 . S
Cd225 O228 2.297 . S
Cd225 O229 2.439 . S
Cd225 O235 2.240 . S
Cd226 O227 2.240 . S
Cd226 O234 2.223 . S
Cd226 O236 2.297 . S
Cd226 O237 2.439 . S
O227 Cd226 2.240 . S
O227 C232 1.279 . S
O228 Cd225 2.297 . S
O228 C230 1.247 . S
O229 Cd225 2.439 . S
O229 C230 1.208 . S
C230 O228 1.247 . S
C230 O229 1.208 . S
C231 O236 1.247 . S
C231 O237 1.208 . S
C232 O224 1.315 . S
C232 O227 1.279 . S
C233 O234 1.315 . S
C233 O235 1.279 . S
O234 Cd226 2.223 . S
O234 C233 1.315 . S
O235 Cd225 2.240 . S
O235 C233 1.279 . S
O236 Cd226 2.297 . S
O236 C231 1.247 . S
O237 Cd226 2.439 . S
O237 C231 1.208 . S
O238 Cd239 2.223 . S
O238 C246 1.315 . S
Cd239 O238 2.223 . S
Cd239 O242 2.297 . S
Cd239 O243 2.439 . S
Cd239 O249 2.240 . S
Cd240 O241 2.240 . S
Cd240 O248 2.223 . S
Cd240 O250 2.297 . S
Cd240 O251 2.439 . S
O241 Cd240 2.240 . S
O241 C246 1.279 . S
O242 Cd239 2.297 . S
O242 C244 1.247 . S
O243 Cd239 2.439 . S
O243 C244 1.208 . S
C244 O242 1.247 . S
C244 O243 1.208 . S
C245 O250 1.247 . S
C245 O251 1.208 . S
C246 O238 1.315 . S
C246 O241 1.279 . S
C247 O248 1.315 . S
C247 O249 1.279 . S
O248 Cd240 2.223 . S
O248 C247 1.315 . S
O249 Cd239 2.240 . S
O249 C247 1.279 . S
O250 Cd240 2.297 . S
O250 C245 1.247 . S
O251 Cd240 2.439 . S
O251 C245 1.208 . S
O252 Cd253 2.223 . S
O252 C260 1.315 . S
Cd253 O252 2.223 . S
Cd253 O256 2.297 . S
Cd253 O257 2.439 . S
Cd253 O263 2.240 . S
Cd254 O255 2.240 . S
Cd254 O262 2.223 . S
Cd254 O264 2.297 . S
Cd254 O265 2.439 . S
O255 Cd254 2.240 . S
O255 C260 1.279 . S
O256 Cd253 2.297 . S
O256 C258 1.247 . S
O257 Cd253 2.439 . S
O257 C258 1.208 . S
C258 O256 1.247 . S
C258 O257 1.208 . S
C259 O264 1.247 . S
C259 O265 1.208 . S
C260 O252 1.315 . S
C260 O255 1.279 . S
C261 O262 1.315 . S
C261 O263 1.279 . S
O262 Cd254 2.223 . S
O262 C261 1.315 . S
O263 Cd253 2.240 . S
O263 C261 1.279 . S
O264 Cd254 2.297 . S
O264 C259 1.247 . S
O265 Cd254 2.439 . S
O265 C259 1.208 . S
O266 Cd267 2.223 . S
O266 C274 1.315 . S
Cd267 O266 2.223 . S
Cd267 O270 2.297 . S
Cd267 O271 2.439 . S
Cd267 O277 2.240 . S
Cd268 O269 2.240 . S
Cd268 O276 2.223 . S
Cd268 O278 2.297 . S
Cd268 O279 2.439 . S
O269 Cd268 2.240 . S
O269 C274 1.279 . S
O270 Cd267 2.297 . S
O270 C272 1.247 . S
O271 Cd267 2.439 . S
O271 C272 1.208 . S
C272 O270 1.247 . S
C272 O271 1.208 . S
C273 O278 1.247 . S
C273 O279 1.208 . S
C274 O266 1.315 . S
C274 O269 1.279 . S
C275 O276 1.315 . S
C275 O277 1.279 . S
O276 Cd268 2.223 . S
O276 C275 1.315 . S
O277 Cd267 2.240 . S
O277 C275 1.279 . S
O278 Cd268 2.297 . S
O278 C273 1.247 . S
O279 Cd268 2.439 . S
O279 C273 1.208 . S
O280 Cd281 2.223 . S
O280 C288 1.315 . S
Cd281 O280 2.223 . S
Cd281 O284 2.297 . S
Cd281 O285 2.439 . S
Cd281 O291 2.240 . S
Cd282 O283 2.240 . S
Cd282 O290 2.223 . S
Cd282 O292 2.297 1_554 S
Cd282 O293 2.439 1_554 S
O283 Cd282 2.240 . S
O283 C288 1.279 . S
O284 Cd281 2.297 . S
O284 C286 1.247 . S
O285 Cd281 2.439 . S
O285 C286 1.208 . S
C286 O284 1.247 . S
C286 O285 1.208 . S
C287 O292 1.247 . S
C287 O293 1.208 . S
C288 O280 1.315 . S
C288 O283 1.279 . S
C289 O290 1.315 . S
C289 O291 1.279 . S
O290 Cd282 2.223 . S
O290 C289 1.315 . S
O291 Cd281 2.240 . S
O291 C289 1.279 . S
O292 Cd282 2.297 1_556 S
O292 C287 1.247 . S
O293 Cd282 2.439 1_556 S
O293 C287 1.208 . S
O294 Cd295 2.223 . S
O294 C302 1.315 . S
Cd295 O294 2.223 . S
Cd295 O298 2.297 . S
Cd295 O299 2.439 . S
Cd295 O305 2.240 . S
Cd296 O297 2.240 . S
Cd296 O304 2.223 . S
Cd296 O306 2.297 . S
Cd296 O307 2.439 . S
O297 Cd296 2.240 . S
O297 C302 1.279 . S
O298 Cd295 2.297 . S
O298 C300 1.247 . S
O299 Cd295 2.439 . S
O299 C300 1.208 . S
C300 O298 1.247 . S
C300 O299 1.208 . S
C301 O306 1.247 . S
C301 O307 1.208 . S
C302 O294 1.315 . S
C302 O297 1.279 . S
C303 O304 1.315 . S
C303 O305 1.279 . S
O304 Cd296 2.223 . S
O304 C303 1.315 . S
O305 Cd295 2.240 . S
O305 C303 1.279 . S
O306 Cd296 2.297 . S
O306 C301 1.247 . S
O307 Cd296 2.439 . S
O307 C301 1.208 . S
O308 Cd309 2.223 . S
O308 C316 1.315 . S
Cd309 O308 2.223 . S
Cd309 O312 2.297 . S
Cd309 O313 2.439 . S
Cd309 O319 2.240 . S
Cd310 O311 2.240 . S
Cd310 O318 2.223 . S
Cd310 O320 2.297 . S
Cd310 O321 2.439 . S
O311 Cd310 2.240 . S
O311 C316 1.279 . S
O312 Cd309 2.297 . S
O312 C314 1.247 . S
O313 Cd309 2.439 . S
O313 C314 1.208 . S
C314 O312 1.247 . S
C314 O313 1.208 . S
C315 O320 1.247 . S
C315 O321 1.208 . S
C316 O308 1.315 . S
C316 O311 1.279 . S
C317 O318 1.315 . S
C317 O319 1.279 . S
O318 Cd310 2.223 . S
O318 C317 1.315 . S
O319 Cd309 2.240 . S
O319 C317 1.279 . S
O320 Cd310 2.297 . S
O320 C315 1.247 . S
O321 Cd310 2.439 . S
O321 C315 1.208 . S
O322 Cd323 2.223 . S
O322 C330 1.315 . S
Cd323 O322 2.223 . S
Cd323 O326 2.297 . S
Cd323 O327 2.439 . S
Cd323 O333 2.240 . S
Cd324 O325 2.240 . S
Cd324 O332 2.223 . S
Cd324 O334 2.297 . S
Cd324 O335 2.439 . S
O325 Cd324 2.240 . S
O325 C330 1.279 . S
O326 Cd323 2.297 . S
O326 C328 1.247 . S
O327 Cd323 2.439 . S
O327 C328 1.208 . S
C328 O326 1.247 . S
C328 O327 1.208 . S
C329 O334 1.247 . S
C329 O335 1.208 . S
C330 O322 1.315 . S
C330 O325 1.279 . S
C331 O332 1.315 . S
C331 O333 1.279 . S
O332 Cd324 2.223 . S
O332 C331 1.315 . S
O333 Cd323 2.240 . S
O333 C331 1.279 . S
O334 Cd324 2.297 . S
O334 C329 1.247 . S
O335 Cd324 2.439 . S
O335 C329 1.208 . S
La336 C338 2.928 1_455 S
La336 O356 2.521 1_454 S
La336 O357 2.628 1_455 S
La336 O358 2.554 1_554 S
La336 O359 2.756 1_554 S
La336 O360 2.470 . S
La336 O365 2.482 . S
La336 O367 2.503 . S
La337 C347 2.928 . S
La337 O359 2.480 1_554 S
La337 O361 2.503 . S
La337 O362 2.521 . S
La337 O363 2.628 . S
La337 O364 2.554 . S
La337 O365 2.757 . S
La337 O366 2.470 . S
C338 La336 2.928 1_655 S
C338 C339 1.503 1_554 S
C338 O356 1.261 1_554 S
C338 O357 1.243 . S
C339 C338 1.503 1_556 S
C339 C340 1.394 . S
C339 C344 1.373 1_556 S
C340 C339 1.394 . S
C340 C341 1.380 . S
C340 H368 0.930 . S
C341 C340 1.380 . S
C341 C342 1.376 . S
C341 H369 0.930 . S
C342 C341 1.376 . S
C342 C343 1.370 1_556 S
C343 C342 1.370 1_554 S
C343 C344 1.396 . S
C343 H370 0.929 . S
C344 C339 1.373 1_554 S
C344 C343 1.396 . S
C344 H371 0.929 . S
C345 O358 1.240 . S
C345 O359 1.292 . S
C346 O360 1.258 . S
C346 O361 1.256 . S
C347 La337 2.928 . S
C347 C348 1.503 . S
C347 O362 1.261 . S
C347 O363 1.243 . S
C348 C347 1.503 . S
C348 C349 1.394 . S
C348 C353 1.373 . S
C349 C348 1.394 . S
C349 C350 1.380 . S
C349 H372 0.930 . S
C350 C349 1.380 . S
C350 C351 1.376 . S
C350 H373 0.930 . S
C351 C350 1.376 . S
C351 C352 1.370 . S
C352 C351 1.370 . S
C352 C353 1.396 . S
C352 H374 0.929 1_545 S
C353 C348 1.373 . S
C353 C352 1.396 . S
C353 H375 0.929 . S
C354 O364 1.240 . S
C354 O365 1.289 . S
C355 O366 1.258 . S
C355 O367 1.256 . S
O356 La336 2.521 1_656 S
O356 C338 1.261 1_556 S
O357 La336 2.628 1_655 S
O357 C338 1.243 . S
O358 La336 2.554 1_556 S
O358 C345 1.240 . S
O359 La336 2.756 1_556 S
O359 La337 2.480 1_556 S
O359 C345 1.292 . S
O360 La336 2.470 . S
O360 C346 1.258 . S
O361 La337 2.503 . S
O361 C346 1.256 . S
O362 La337 2.521 . S
O362 C347 1.261 . S
O363 La337 2.628 . S
O363 C347 1.243 . S
O364 La337 2.554 . S
O364 C354 1.240 . S
O365 La336 2.482 . S
O365 La337 2.757 . S
O365 C354 1.289 . S
O366 La337 2.470 . S
O366 C355 1.258 . S
O367 La336 2.503 . S
O367 C355 1.256 . S
H368 C340 0.930 . S
H369 C341 0.930 . S
H370 C343 0.929 . S
H371 C344 0.929 . S
H372 C349 0.930 . S
H373 C350 0.930 . S
H374 C352 0.929 1_565 S
H375 C353 0.929 . S
La376 C378 2.928 . S
La376 O396 2.521 . S
La376 O397 2.628 . S
La376 O398 2.554 . S
La376 O399 2.757 . S
La376 O400 2.470 . S
La376 O405 2.482 . S
La376 O407 2.503 . S
La377 C387 2.928 . S
La377 O399 2.482 . S
La377 O401 2.503 . S
La377 O402 2.521 . S
La377 O403 2.628 . S
La377 O404 2.554 . S
La377 O405 2.757 . S
La377 O406 2.470 . S
C378 La376 2.928 . S
C378 C379 1.503 . S
C378 O396 1.261 . S
C378 O397 1.243 . S
C379 C378 1.503 . S
C379 C380 1.394 . S
C379 C384 1.373 . S
C380 C379 1.394 . S
C380 C381 1.380 . S
C380 H408 0.930 . S
C381 C380 1.380 . S
C381 C382 1.376 . S
C381 H409 0.930 . S
C382 C381 1.376 . S
C382 C383 1.370 . S
C383 C382 1.370 . S
C383 C384 1.396 . S
C383 H410 0.929 . S
C384 C379 1.373 . S
C384 C383 1.396 . S
C384 H411 0.929 . S
C385 O398 1.240 . S
C385 O399 1.289 . S
C386 O400 1.258 . S
C386 O401 1.256 . S
C387 La377 2.928 . S
C387 C388 1.503 . S
C387 O402 1.261 . S
C387 O403 1.243 . S
C388 C387 1.503 . S
C388 C389 1.394 . S
C388 C393 1.373 . S
C389 C388 1.394 . S
C389 C390 1.380 . S
C389 H412 0.930 . S
C390 C389 1.380 . S
C390 C391 1.376 . S
C390 H413 0.930 . S
C391 C390 1.376 . S
C391 C392 1.370 . S
C392 C391 1.370 . S
C392 C393 1.396 . S
C392 H414 0.929 . S
C393 C388 1.373 . S
C393 C392 1.396 . S
C393 H415 0.929 . S
C394 O404 1.240 . S
C394 O405 1.289 . S
C395 O406 1.258 . S
C395 O407 1.256 . S
O396 La376 2.521 . S
O396 C378 1.261 . S
O397 La376 2.628 . S
O397 C378 1.243 . S
O398 La376 2.554 . S
O398 C385 1.240 . S
O399 La376 2.757 . S
O399 La377 2.482 . S
O399 C385 1.289 . S
O400 La376 2.470 . S
O400 C386 1.258 . S
O401 La377 2.503 . S
O401 C386 1.256 . S
O402 La377 2.521 . S
O402 C387 1.261 . S
O403 La377 2.628 . S
O403 C387 1.243 . S
O404 La377 2.554 . S
O404 C394 1.240 . S
O405 La376 2.482 . S
O405 La377 2.757 . S
O405 C394 1.289 . S
O406 La377 2.470 . S
O406 C395 1.258 . S
O407 La376 2.503 . S
O407 C395 1.256 . S
H408 C380 0.930 . S
H409 C381 0.930 . S
H410 C383 0.929 . S
H411 C384 0.929 . S
H412 C389 0.930 . S
H413 C390 0.930 . S
H414 C392 0.929 . S
H415 C393 0.929 . S
La416 C418 2.928 . S
La416 O436 2.521 . S
La416 O437 2.628 . S
La416 O438 2.554 . S
La416 O439 2.757 . S
La416 O440 2.470 . S
La416 O445 2.482 . S
La416 O447 2.503 . S
La417 C427 2.928 . S
La417 O439 2.482 . S
La417 O441 2.503 1_545 S
La417 O442 2.521 . S
La417 O443 2.628 . S
La417 O444 2.554 . S
La417 O445 2.757 . S
La417 O446 2.470 . S
C418 La416 2.928 . S
C418 C419 1.503 . S
C418 O436 1.261 . S
C418 O437 1.243 . S
C419 C418 1.503 . S
C419 C420 1.394 . S
C419 C424 1.373 1_545 S
C420 C419 1.394 . S
C420 C421 1.380 1_545 S
C420 H448 0.930 . S
C421 C420 1.380 1_565 S
C421 C422 1.376 . S
C421 H449 0.930 . S
C422 C421 1.376 . S
C422 C423 1.370 . S
C423 C422 1.370 . S
C423 C424 1.396 . S
C423 H450 0.929 . S
C424 C419 1.373 1_565 S
C424 C423 1.396 . S
C424 H451 0.929 . S
C425 O438 1.240 . S
C425 O439 1.289 . S
C426 O440 1.258 1_565 S
C426 O441 1.256 . S
C427 La417 2.928 . S
C427 C428 1.503 . S
C427 O442 1.261 . S
C427 O443 1.243 . S
C428 C427 1.503 . S
C428 C429 1.394 . S
C428 C433 1.373 . S
C429 C428 1.394 . S
C429 C430 1.380 . S
C429 H452 0.930 . S
C430 C429 1.380 . S
C430 C431 1.376 . S
C430 H453 0.930 . S
C431 C430 1.376 . S
C431 C432 1.370 . S
C432 C431 1.370 . S
C432 C433 1.396 . S
C432 H454 0.929 . S
C433 C428 1.373 . S
C433 C432 1.396 . S
C433 H455 0.929 . S
C434 O444 1.240 . S
C434 O445 1.289 . S
C435 O446 1.258 . S
C435 O447 1.256 . S
O436 La416 2.521 . S
O436 C418 1.261 . S
O437 La416 2.628 . S
O437 C418 1.243 . S
O438 La416 2.554 . S
O438 C425 1.240 . S
O439 La416 2.757 . S
O439 La417 2.482 . S
O439 C425 1.289 . S
O440 La416 2.470 . S
O440 C426 1.258 1_545 S
O441 La417 2.503 1_565 S
O441 C426 1.256 . S
O442 La417 2.521 . S
O442 C427 1.261 . S
O443 La417 2.628 . S
O443 C427 1.243 . S
O444 La417 2.554 . S
O444 C434 1.240 . S
O445 La416 2.482 . S
O445 La417 2.757 . S
O445 C434 1.289 . S
O446 La417 2.470 . S
O446 C435 1.258 . S
O447 La416 2.503 . S
O447 C435 1.256 . S
H448 C420 0.930 . S
H449 C421 0.930 . S
H450 C423 0.929 . S
H451 C424 0.929 . S
H452 C429 0.930 . S
H453 C430 0.930 . S
H454 C432 0.929 . S
H455 C433 0.929 . S
La456 C458 2.928 . S
La456 O476 2.521 . S
La456 O477 2.628 . S
La456 O478 2.554 . S
La456 O479 2.757 . S
La456 O480 2.470 . S
La456 O485 2.482 . S
La456 O487 2.503 . S
La457 C467 2.928 . S
La457 O479 2.482 . S
La457 O481 2.503 . S
La457 O482 2.521 . S
La457 O483 2.628 . S
La457 O484 2.554 . S
La457 O485 2.757 . S
La457 O486 2.470 . S
C458 La456 2.928 . S
C458 C459 1.503 . S
C458 O476 1.261 . S
C458 O477 1.243 . S
C459 C458 1.503 . S
C459 C460 1.394 . S
C459 C464 1.373 . S
C460 C459 1.394 . S
C460 C461 1.380 . S
C460 H488 0.930 . S
C461 C460 1.380 . S
C461 C462 1.376 . S
C461 H489 0.930 . S
C462 C461 1.376 . S
C462 C463 1.370 . S
C463 C462 1.370 . S
C463 C464 1.396 . S
C463 H490 0.929 . S
C464 C459 1.373 . S
C464 C463 1.396 . S
C464 H491 0.929 . S
C465 O478 1.240 . S
C465 O479 1.289 . S
C466 O480 1.258 . S
C466 O481 1.256 . S
C467 La457 2.928 . S
C467 C468 1.503 . S
C467 O482 1.261 . S
C467 O483 1.243 . S
C468 C467 1.503 . S
C468 C469 1.394 . S
C468 C473 1.373 . S
C469 C468 1.394 . S
C469 C470 1.380 . S
C469 H492 0.930 . S
C470 C469 1.380 . S
C470 C471 1.376 . S
C470 H493 0.930 . S
C471 C470 1.376 . S
C471 C472 1.370 . S
C472 C471 1.370 . S
C472 C473 1.396 . S
C472 H494 0.929 . S
C473 C468 1.373 . S
C473 C472 1.396 . S
C473 H495 0.929 . S
C474 O484 1.240 . S
C474 O485 1.289 . S
C475 O486 1.258 . S
C475 O487 1.256 . S
O476 La456 2.521 . S
O476 C458 1.261 . S
O477 La456 2.628 . S
O477 C458 1.243 . S
O478 La456 2.554 . S
O478 C465 1.240 . S
O479 La456 2.757 . S
O479 La457 2.482 . S
O479 C465 1.289 . S
O480 La456 2.470 . S
O480 C466 1.258 . S
O481 La457 2.503 . S
O481 C466 1.256 . S
O482 La457 2.521 . S
O482 C467 1.261 . S
O483 La457 2.628 . S
O483 C467 1.243 . S
O484 La457 2.554 . S
O484 C474 1.240 . S
O485 La456 2.482 . S
O485 La457 2.757 . S
O485 C474 1.289 . S
O486 La457 2.470 . S
O486 C475 1.258 . S
O487 La456 2.503 . S
O487 C475 1.256 . S
H488 C460 0.930 . S
H489 C461 0.930 . S
H490 C463 0.929 . S
H491 C464 0.929 . S
H492 C469 0.930 . S
H493 C470 0.930 . S
H494 C472 0.929 . S
H495 C473 0.929 . S
La496 C498 2.928 . S
La496 O516 2.521 . S
La496 O517 2.628 . S
La496 O518 2.554 . S
La496 O519 2.757 . S
La496 O520 2.470 . S
La496 O525 2.482 . S
La496 O527 2.503 . S
La497 C507 2.928 1_545 S
La497 O519 2.482 . S
La497 O521 2.503 . S
La497 O522 2.521 1_545 S
La497 O523 2.628 1_545 S
La497 O524 2.554 . S
La497 O525 2.757 . S
La497 O526 2.470 . S
C498 La496 2.928 . S
C498 C499 1.503 . S
C498 O516 1.261 . S
C498 O517 1.243 . S
C499 C498 1.503 . S
C499 C500 1.394 . S
C499 C504 1.373 . S
C500 C499 1.394 . S
C500 C501 1.380 . S
C500 H528 0.930 . S
C501 C500 1.380 . S
C501 C502 1.376 . S
C501 H529 0.930 . S
C502 C501 1.376 . S
C502 C503 1.370 . S
C503 C502 1.370 . S
C503 C504 1.396 . S
C503 H530 0.929 . S
C504 C499 1.373 . S
C504 C503 1.396 . S
C504 H531 0.929 . S
C505 O518 1.240 . S
C505 O519 1.289 . S
C506 O520 1.258 . S
C506 O521 1.256 . S
C507 La497 2.928 1_565 S
C507 C508 1.503 . S
C507 O522 1.261 . S
C507 O523 1.243 . S
C508 C507 1.503 . S
C508 C509 1.394 . S
C508 C513 1.373 . S
C509 C508 1.394 . S
C509 C510 1.380 . S
C509 H532 0.930 . S
C510 C509 1.380 . S
C510 C511 1.376 . S
C510 H533 0.930 . S
C511 C510 1.376 . S
C511 C512 1.370 . S
C512 C511 1.370 . S
C512 C513 1.396 . S
C512 H534 0.929 . S
C513 C508 1.373 . S
C513 C512 1.396 . S
C513 H535 0.929 . S
C514 O524 1.240 . S
C514 O525 1.289 . S
C515 O526 1.258 . S
C515 O527 1.256 . S
O516 La496 2.521 . S
O516 C498 1.261 . S
O517 La496 2.628 . S
O517 C498 1.243 . S
O518 La496 2.554 . S
O518 C505 1.240 . S
O519 La496 2.757 . S
O519 La497 2.482 . S
O519 C505 1.289 . S
O520 La496 2.470 . S
O520 C506 1.258 . S
O521 La497 2.503 . S
O521 C506 1.256 . S
O522 La497 2.521 1_565 S
O522 C507 1.261 . S
O523 La497 2.628 1_565 S
O523 C507 1.243 . S
O524 La497 2.554 . S
O524 C514 1.240 . S
O525 La496 2.482 . S
O525 La497 2.757 . S
O525 C514 1.289 . S
O526 La497 2.470 . S
O526 C515 1.258 . S
O527 La496 2.503 . S
O527 C515 1.256 . S
H528 C500 0.930 . S
H529 C501 0.930 . S
H530 C503 0.929 . S
H531 C504 0.929 . S
H532 C509 0.930 . S
H533 C510 0.930 . S
H534 C512 0.929 . S
H535 C513 0.929 . S
La536 C538 2.928 . S
La536 O556 2.521 . S
La536 O557 2.628 . S
La536 O558 2.554 . S
La536 O559 2.757 . S
La536 O560 2.470 . S
La536 O565 2.482 . S
La536 O567 2.503 . S
La537 C547 2.928 . S
La537 O559 2.482 . S
La537 O561 2.503 . S
La537 O562 2.521 . S
La537 O563 2.628 . S
La537 O564 2.554 . S
La537 O565 2.757 . S
La537 O566 2.470 . S
C538 La536 2.928 . S
C538 C539 1.503 . S
C538 O556 1.261 . S
C538 O557 1.243 . S
C539 C538 1.503 . S
C539 C540 1.394 . S
C539 C544 1.373 . S
C540 C539 1.394 . S
C540 C541 1.380 . S
C540 H568 0.930 . S
C541 C540 1.380 . S
C541 C542 1.376 . S
C541 H569 0.930 . S
C542 C541 1.376 . S
C542 C543 1.370 . S
C543 C542 1.370 . S
C543 C544 1.396 . S
C543 H570 0.929 . S
C544 C539 1.373 . S
C544 C543 1.396 . S
C544 H571 0.929 . S
C545 O558 1.240 . S
C545 O559 1.289 . S
C546 O560 1.258 . S
C546 O561 1.256 . S
C547 La537 2.928 . S
C547 C548 1.503 . S
C547 O562 1.261 . S
C547 O563 1.243 . S
C548 C547 1.503 . S
C548 C549 1.394 . S
C548 C553 1.373 . S
C549 C548 1.394 . S
C549 C550 1.380 . S
C549 H572 0.930 . S
C550 C549 1.380 . S
C550 C551 1.376 . S
C550 H573 0.930 . S
C551 C550 1.376 . S
C551 C552 1.370 . S
C552 C551 1.370 . S
C552 C553 1.396 . S
C552 H574 0.929 . S
C553 C548 1.373 . S
C553 C552 1.396 . S
C553 H575 0.929 . S
C554 O564 1.240 . S
C554 O565 1.289 . S
C555 O566 1.258 . S
C555 O567 1.256 . S
O556 La536 2.521 . S
O556 C538 1.261 . S
O557 La536 2.628 . S
O557 C538 1.243 . S
O558 La536 2.554 . S
O558 C545 1.240 . S
O559 La536 2.757 . S
O559 La537 2.482 . S
O559 C545 1.289 . S
O560 La536 2.470 . S
O560 C546 1.258 . S
O561 La537 2.503 . S
O561 C546 1.256 . S
O562 La537 2.521 . S
O562 C547 1.261 . S
O563 La537 2.628 . S
O563 C547 1.243 . S
O564 La537 2.554 . S
O564 C554 1.240 . S
O565 La536 2.482 . S
O565 La537 2.757 . S
O565 C554 1.289 . S
O566 La537 2.470 . S
O566 C555 1.258 . S
O567 La536 2.503 . S
O567 C555 1.256 . S
H568 C540 0.930 . S
H569 C541 0.930 . S
H570 C543 0.929 . S
H571 C544 0.929 . S
H572 C549 0.930 . S
H573 C550 0.930 . S
H574 C552 0.929 . S
H575 C553 0.929 . S
La576 C578 2.928 . S
La576 O596 2.521 . S
La576 O597 2.628 . S
La576 O598 2.554 1_545 S
La576 O599 2.757 . S
La576 O600 2.470 . S
La576 O605 2.482 . S
La576 O607 2.503 . S
La577 C587 2.928 . S
La577 O599 2.482 1_556 S
La577 O601 2.503 1_556 S
La577 O602 2.521 . S
La577 O603 2.628 . S
La577 O604 2.554 1_556 S
La577 O605 2.757 1_556 S
La577 O606 2.470 1_556 S
C578 La576 2.928 . S
C578 C579 1.503 . S
C578 O596 1.261 . S
C578 O597 1.243 . S
C579 C578 1.503 . S
C579 C580 1.394 1_545 S
C579 C584 1.373 . S
C580 C579 1.394 1_565 S
C580 C581 1.380 . S
C580 H608 0.930 . S
C581 C580 1.380 . S
C581 C582 1.376 . S
C581 H609 0.930 . S
C582 C581 1.376 . S
C582 C583 1.370 1_565 S
C583 C582 1.370 1_545 S
C583 C584 1.396 . S
C583 H610 0.929 . S
C584 C579 1.373 . S
C584 C583 1.396 . S
C584 H611 0.929 . S
C585 O598 1.241 1_545 S
C585 O599 1.288 . S
C586 O600 1.258 . S
C586 O601 1.256 . S
C587 La577 2.928 . S
C587 C588 1.503 . S
C587 O602 1.261 . S
C587 O603 1.243 . S
C588 C587 1.503 . S
C588 C589 1.394 . S
C588 C593 1.373 . S
C589 C588 1.394 . S
C589 C590 1.380 . S
C589 H612 0.930 . S
C590 C589 1.380 . S
C590 C591 1.376 . S
C590 H613 0.930 . S
C591 C590 1.376 . S
C591 C592 1.370 . S
C592 C591 1.370 . S
C592 C593 1.396 . S
C592 H614 0.929 . S
C593 C588 1.373 . S
C593 C592 1.396 . S
C593 H615 0.929 . S
C594 O604 1.240 . S
C594 O605 1.289 . S
C595 O606 1.258 . S
C595 O607 1.256 . S
O596 La576 2.521 . S
O596 C578 1.261 . S
O597 La576 2.628 . S
O597 C578 1.243 . S
O598 La576 2.554 1_565 S
O598 C585 1.241 1_565 S
O599 La576 2.757 . S
O599 La577 2.482 1_554 S
O599 C585 1.288 . S
O600 La576 2.470 . S
O600 C586 1.258 . S
O601 La577 2.503 1_554 S
O601 C586 1.256 . S
O602 La577 2.521 . S
O602 C587 1.261 . S
O603 La577 2.628 . S
O603 C587 1.243 . S
O604 La577 2.554 1_554 S
O604 C594 1.240 . S
O605 La576 2.482 . S
O605 La577 2.757 1_554 S
O605 C594 1.289 . S
O606 La577 2.470 1_554 S
O606 C595 1.258 . S
O607 La576 2.503 . S
O607 C595 1.256 . S
H608 C580 0.930 . S
H609 C581 0.930 . S
H610 C583 0.929 . S
H611 C584 0.929 . S
H612 C589 0.930 . S
H613 C590 0.930 . S
H614 C592 0.929 . S
H615 C593 0.929 . S
La616 C618 2.928 . S
La616 O636 2.521 . S
La616 O637 2.628 . S
La616 O638 2.554 . S
La616 O639 2.757 . S
La616 O640 2.470 . S
La616 O645 2.482 . S
La616 O647 2.503 . S
La617 C627 2.928 . S
La617 O639 2.482 . S
La617 O641 2.503 . S
La617 O642 2.521 . S
La617 O643 2.628 . S
La617 O644 2.554 . S
La617 O645 2.757 . S
La617 O646 2.470 . S
C618 La616 2.928 . S
C618 C619 1.503 . S
C618 O636 1.261 . S
C618 O637 1.243 . S
C619 C618 1.503 . S
C619 C620 1.394 . S
C619 C624 1.373 . S
C620 C619 1.394 . S
C620 C621 1.380 . S
C620 H648 0.930 . S
C621 C620 1.380 . S
C621 C622 1.376 . S
C621 H649 0.930 . S
C622 C621 1.376 . S
C622 C623 1.370 . S
C623 C622 1.370 . S
C623 C624 1.396 . S
C623 H650 0.929 . S
C624 C619 1.373 . S
C624 C623 1.396 . S
C624 H651 0.929 . S
C625 O638 1.240 . S
C625 O639 1.289 . S
C626 O640 1.258 . S
C626 O641 1.256 . S
C627 La617 2.928 . S
C627 C628 1.503 . S
C627 O642 1.261 . S
C627 O643 1.243 . S
C628 C627 1.503 . S
C628 C629 1.394 . S
C628 C633 1.373 . S
C629 C628 1.394 . S
C629 C630 1.380 . S
C629 H652 0.930 . S
C630 C629 1.380 . S
C630 C631 1.376 . S
C630 H653 0.930 . S
C631 C630 1.376 . S
C631 C632 1.370 . S
C632 C631 1.370 . S
C632 C633 1.396 . S
C632 H654 0.929 . S
C633 C628 1.373 . S
C633 C632 1.396 . S
C633 H655 0.929 . S
C634 O644 1.240 . S
C634 O645 1.289 . S
C635 O646 1.258 . S
C635 O647 1.256 . S
O636 La616 2.521 . S
O636 C618 1.261 . S
O637 La616 2.628 . S
O637 C618 1.243 . S
O638 La616 2.554 . S
O638 C625 1.240 . S
O639 La616 2.757 . S
O639 La617 2.482 . S
O639 C625 1.289 . S
O640 La616 2.470 . S
O640 C626 1.258 . S
O641 La617 2.503 . S
O641 C626 1.256 . S
O642 La617 2.521 . S
O642 C627 1.261 . S
O643 La617 2.628 . S
O643 C627 1.243 . S
O644 La617 2.554 . S
O644 C634 1.240 . S
O645 La616 2.482 . S
O645 La617 2.757 . S
O645 C634 1.289 . S
O646 La617 2.470 . S
O646 C635 1.258 . S
O647 La616 2.503 . S
O647 C635 1.256 . S
H648 C620 0.930 . S
H649 C621 0.930 . S
H650 C623 0.929 . S
H651 C624 0.929 . S
H652 C629 0.930 . S
H653 C630 0.930 . S
H654 C632 0.929 . S
H655 C633 0.929 . S
La656 C658 2.928 . S
La656 O676 2.521 . S
La656 O677 2.628 . S
La656 O678 2.554 . S
La656 O679 2.757 . S
La656 O680 2.470 1_554 S
La656 O685 2.482 . S
La656 O687 2.503 . S
La657 C667 2.928 . S
La657 O679 2.482 . S
La657 O681 2.503 1_554 S
La657 O682 2.521 . S
La657 O683 2.628 . S
La657 O684 2.554 . S
La657 O685 2.757 . S
La657 O686 2.470 . S
C658 La656 2.928 . S
C658 C659 1.470 1_554 S
C658 O676 1.261 . S
C658 O677 1.243 . S
C659 C658 1.470 1_556 S
C659 C660 1.384 1_556 S
C659 C664 1.418 . S
C660 C659 1.384 1_554 S
C660 C661 1.380 1_554 S
C660 H688 0.930 . S
C661 C660 1.380 1_556 S
C661 C662 1.376 . S
C661 H689 0.930 . S
C662 C661 1.376 . S
C662 C663 1.370 . S
C663 C662 1.370 . S
C663 C664 1.396 . S
C663 H690 0.929 . S
C664 C659 1.418 . S
C664 C663 1.396 . S
C664 H691 0.929 . S
C665 O678 1.240 . S
C665 O679 1.289 . S
C666 O680 1.258 . S
C666 O681 1.256 . S
C667 La657 2.928 . S
C667 C668 1.503 . S
C667 O682 1.261 . S
C667 O683 1.243 . S
C668 C667 1.503 . S
C668 C669 1.394 . S
C668 C673 1.373 . S
C669 C668 1.394 . S
C669 C670 1.380 . S
C669 H692 0.930 . S
C670 C669 1.380 . S
C670 C671 1.376 . S
C670 H693 0.930 . S
C671 C670 1.376 . S
C671 C672 1.370 . S
C672 C671 1.370 . S
C672 C673 1.396 . S
C672 H694 0.929 . S
C673 C668 1.373 . S
C673 C672 1.396 . S
C673 H695 0.929 . S
C674 O684 1.240 . S
C674 O685 1.289 . S
C675 O686 1.258 . S
C675 O687 1.256 . S
O676 La656 2.521 . S
O676 C658 1.261 . S
O677 La656 2.628 . S
O677 C658 1.243 . S
O678 La656 2.554 . S
O678 C665 1.240 . S
O679 La656 2.757 . S
O679 La657 2.482 . S
O679 C665 1.289 . S
O680 La656 2.470 1_556 S
O680 C666 1.258 . S
O681 La657 2.503 1_556 S
O681 C666 1.256 . S
O682 La657 2.521 . S
O682 C667 1.261 . S
O683 La657 2.628 . S
O683 C667 1.243 . S
O684 La657 2.554 . S
O684 C674 1.240 . S
O685 La656 2.482 . S
O685 La657 2.757 . S
O685 C674 1.289 . S
O686 La657 2.470 . S
O686 C675 1.258 . S
O687 La656 2.503 . S
O687 C675 1.256 . S
H688 C660 0.930 . S
H689 C661 0.930 . S
H690 C663 0.929 . S
H691 C664 0.929 . S
H692 C669 0.930 . S
H693 C670 0.930 . S
H694 C672 0.929 . S
H695 C673 0.929 . S
La696 C698 2.928 . S
La696 O716 2.521 . S
La696 O717 2.628 . S
La696 O718 2.554 . S
La696 O719 2.757 . S
La696 O720 2.470 . S
La696 O725 2.482 . S
La696 O727 2.503 . S
La697 C707 2.928 . S
La697 O719 2.482 . S
La697 O721 2.503 . S
La697 O722 2.521 . S
La697 O723 2.628 . S
La697 O724 2.554 . S
La697 O725 2.757 . S
La697 O726 2.470 . S
C698 La696 2.928 . S
C698 C699 1.503 . S
C698 O716 1.261 . S
C698 O717 1.243 . S
C699 C698 1.503 . S
C699 C700 1.394 . S
C699 C704 1.373 . S
C700 C699 1.394 . S
C700 C701 1.380 . S
C700 H728 0.930 . S
C701 C700 1.380 . S
C701 C702 1.376 . S
C701 H729 0.930 . S
C702 C701 1.376 . S
C702 C703 1.370 . S
C703 C702 1.370 . S
C703 C704 1.396 . S
C703 H730 0.929 . S
C704 C699 1.373 . S
C704 C703 1.396 . S
C704 H731 0.929 . S
C705 O718 1.240 . S
C705 O719 1.289 . S
C706 O720 1.258 . S
C706 O721 1.256 . S
C707 La697 2.928 . S
C707 C708 1.503 . S
C707 O722 1.261 . S
C707 O723 1.243 . S
C708 C707 1.503 . S
C708 C709 1.394 . S
C708 C713 1.373 . S
C709 C708 1.394 . S
C709 C710 1.380 . S
C709 H732 0.930 . S
C710 C709 1.380 . S
C710 C711 1.376 . S
C710 H733 0.930 . S
C711 C710 1.376 . S
C711 C712 1.370 . S
C712 C711 1.370 . S
C712 C713 1.396 . S
C712 H734 0.929 . S
C713 C708 1.373 . S
C713 C712 1.396 . S
C713 H735 0.929 . S
C714 O724 1.240 . S
C714 O725 1.289 . S
C715 O726 1.258 . S
C715 O727 1.256 . S
O716 La696 2.521 . S
O716 C698 1.261 . S
O717 La696 2.628 . S
O717 C698 1.243 . S
O718 La696 2.554 . S
O718 C705 1.240 . S
O719 La696 2.757 . S
O719 La697 2.482 . S
O719 C705 1.289 . S
O720 La696 2.470 . S
O720 C706 1.258 . S
O721 La697 2.503 . S
O721 C706 1.256 . S
O722 La697 2.521 . S
O722 C707 1.261 . S
O723 La697 2.628 . S
O723 C707 1.243 . S
O724 La697 2.554 . S
O724 C714 1.240 . S
O725 La696 2.482 . S
O725 La697 2.757 . S
O725 C714 1.289 . S
O726 La697 2.470 . S
O726 C715 1.258 . S
O727 La696 2.503 . S
O727 C715 1.256 . S
H728 C700 0.930 . S
H729 C701 0.930 . S
H730 C703 0.929 . S
H731 C704 0.929 . S
H732 C709 0.930 . S
H733 C710 0.930 . S
H734 C712 0.929 . S
H735 C713 0.929 . S
La736 C738 2.928 . S
La736 O756 2.521 . S
La736 O757 2.628 . S
La736 O758 2.554 . S
La736 O759 2.757 . S
La736 O760 2.470 . S
La736 O765 2.482 . S
La736 O767 2.503 . S
La737 C747 2.928 . S
La737 O759 2.482 . S
La737 O761 2.503 . S
La737 O762 2.521 . S
La737 O763 2.628 . S
La737 O764 2.554 . S
La737 O765 2.757 . S
La737 O766 2.470 . S
C738 La736 2.928 . S
C738 C739 1.503 . S
C738 O756 1.261 . S
C738 O757 1.243 . S
C739 C738 1.503 . S
C739 C740 1.394 . S
C739 C744 1.373 . S
C740 C739 1.394 . S
C740 C741 1.380 . S
C740 H768 0.930 . S
C741 C740 1.380 . S
C741 C742 1.376 1_455 S
C741 H769 0.930 . S
C742 C741 1.376 1_655 S
C742 C743 1.370 . S
C743 C742 1.370 . S
C743 C744 1.396 1_655 S
C743 H770 0.929 . S
C744 C739 1.373 . S
C744 C743 1.396 1_455 S
C744 H771 0.929 . S
C745 O758 1.240 . S
C745 O759 1.289 . S
C746 O760 1.258 . S
C746 O761 1.256 . S
C747 La737 2.928 . S
C747 C748 1.503 . S
C747 O762 1.261 . S
C747 O763 1.243 . S
C748 C747 1.503 . S
C748 C749 1.394 . S
C748 C753 1.373 . S
C749 C748 1.394 . S
C749 C750 1.380 . S
C749 H772 0.930 . S
C750 C749 1.380 . S
C750 C751 1.376 . S
C750 H773 0.930 . S
C751 C750 1.376 . S
C751 C752 1.370 . S
C752 C751 1.370 . S
C752 C753 1.396 . S
C752 H774 0.929 . S
C753 C748 1.373 . S
C753 C752 1.396 . S
C753 H775 0.929 . S
C754 O764 1.240 . S
C754 O765 1.289 . S
C755 O766 1.258 . S
C755 O767 1.256 . S
O756 La736 2.521 . S
O756 C738 1.261 . S
O757 La736 2.628 . S
O757 C738 1.243 . S
O758 La736 2.554 . S
O758 C745 1.240 . S
O759 La736 2.757 . S
O759 La737 2.482 . S
O759 C745 1.289 . S
O760 La736 2.470 . S
O760 C746 1.258 . S
O761 La737 2.503 . S
O761 C746 1.256 . S
O762 La737 2.521 . S
O762 C747 1.261 . S
O763 La737 2.628 . S
O763 C747 1.243 . S
O764 La737 2.554 . S
O764 C754 1.240 . S
O765 La736 2.482 . S
O765 La737 2.757 . S
O765 C754 1.289 . S
O766 La737 2.470 . S
O766 C755 1.258 . S
O767 La736 2.503 . S
O767 C755 1.256 . S
H768 C740 0.930 . S
H769 C741 0.930 . S
H770 C743 0.929 . S
H771 C744 0.929 . S
H772 C749 0.930 . S
H773 C750 0.930 . S
H774 C752 0.929 . S
H775 C753 0.929 . S
La776 C778 2.928 . S
La776 O796 2.521 . S
La776 O797 2.628 . S
La776 O798 2.554 . S
La776 O799 2.757 . S
La776 O800 2.470 . S
La776 O805 2.482 . S
La776 O807 2.503 . S
La777 C787 2.928 . S
La777 O799 2.482 . S
La777 O801 2.503 . S
La777 O802 2.521 . S
La777 O803 2.628 . S
La777 O804 2.554 . S
La777 O805 2.757 . S
La777 O806 2.470 . S
C778 La776 2.928 . S
C778 C779 1.503 . S
C778 O796 1.261 . S
C778 O797 1.243 . S
C779 C778 1.503 . S
C779 C780 1.394 . S
C779 C784 1.373 . S
C780 C779 1.394 . S
C780 C781 1.380 . S
C780 H808 0.930 . S
C781 C780 1.380 . S
C781 C782 1.376 . S
C781 H809 0.930 . S
C782 C781 1.376 . S
C782 C783 1.370 . S
C783 C782 1.370 . S
C783 C784 1.396 . S
C783 H810 0.929 . S
C784 C779 1.373 . S
C784 C783 1.396 . S
C784 H811 0.929 . S
C785 O798 1.240 . S
C785 O799 1.289 . S
C786 O800 1.258 . S
C786 O801 1.256 . S
C787 La777 2.928 . S
C787 C788 1.503 . S
C787 O802 1.261 . S
C787 O803 1.243 . S
C788 C787 1.503 . S
C788 C789 1.394 . S
C788 C793 1.373 . S
C789 C788 1.394 . S
C789 C790 1.380 . S
C789 H812 0.930 . S
C790 C789 1.380 . S
C790 C791 1.376 . S
C790 H813 0.930 . S
C791 C790 1.376 . S
C791 C792 1.370 . S
C792 C791 1.370 . S
C792 C793 1.396 . S
C792 H814 0.929 . S
C793 C788 1.373 . S
C793 C792 1.396 . S
C793 H815 0.929 . S
C794 O804 1.240 . S
C794 O805 1.289 . S
C795 O806 1.258 . S
C795 O807 1.256 . S
O796 La776 2.521 . S
O796 C778 1.261 . S
O797 La776 2.628 . S
O797 C778 1.243 . S
O798 La776 2.554 . S
O798 C785 1.240 . S
O799 La776 2.757 . S
O799 La777 2.482 . S
O799 C785 1.289 . S
O800 La776 2.470 . S
O800 C786 1.258 . S
O801 La777 2.503 . S
O801 C786 1.256 . S
O802 La777 2.521 . S
O802 C787 1.261 . S
O803 La777 2.628 . S
O803 C787 1.243 . S
O804 La777 2.554 . S
O804 C794 1.240 . S
O805 La776 2.482 . S
O805 La777 2.757 . S
O805 C794 1.289 . S
O806 La777 2.470 . S
O806 C795 1.258 . S
O807 La776 2.503 . S
O807 C795 1.256 . S
H808 C780 0.930 . S
H809 C781 0.930 . S
H810 C783 0.929 . S
H811 C784 0.929 . S
H812 C789 0.930 . S
H813 C790 0.930 . S
H814 C792 0.929 . S
H815 C793 0.929 . S
La816 C818 2.928 . S
La816 O836 2.521 . S
La816 O837 2.628 . S
La816 O838 2.554 . S
La816 O839 2.757 . S
La816 O840 2.470 . S
La816 O845 2.482 . S
La816 O847 2.503 . S
La817 C827 2.928 . S
La817 O839 2.482 . S
La817 O841 2.503 . S
La817 O842 2.521 . S
La817 O843 2.628 . S
La817 O844 2.554 . S
La817 O845 2.757 . S
La817 O846 2.470 . S
C818 La816 2.928 . S
C818 C819 1.503 . S
C818 O836 1.261 . S
C818 O837 1.243 . S
C819 C818 1.503 . S
C819 C820 1.394 . S
C819 C824 1.373 . S
C820 C819 1.394 . S
C820 C821 1.380 . S
C820 H848 0.930 . S
C821 C820 1.380 . S
C821 C822 1.376 . S
C821 H849 0.930 . S
C822 C821 1.376 . S
C822 C823 1.370 . S
C823 C822 1.370 . S
C823 C824 1.396 . S
C823 H850 0.929 . S
C824 C819 1.373 . S
C824 C823 1.396 . S
C824 H851 0.929 . S
C825 O838 1.240 . S
C825 O839 1.289 . S
C826 O840 1.258 . S
C826 O841 1.256 . S
C827 La817 2.928 . S
C827 C828 1.503 . S
C827 O842 1.261 . S
C827 O843 1.243 . S
C828 C827 1.503 . S
C828 C829 1.394 . S
C828 C833 1.373 . S
C829 C828 1.394 . S
C829 C830 1.380 . S
C829 H852 0.930 . S
C830 C829 1.380 . S
C830 C831 1.376 . S
C830 H853 0.930 . S
C831 C830 1.376 . S
C831 C832 1.370 . S
C832 C831 1.370 . S
C832 C833 1.396 . S
C832 H854 0.929 . S
C833 C828 1.373 . S
C833 C832 1.396 . S
C833 H855 0.929 . S
C834 O844 1.240 . S
C834 O845 1.289 . S
C835 O846 1.258 . S
C835 O847 1.256 . S
O836 La816 2.521 . S
O836 C818 1.261 . S
O837 La816 2.628 . S
O837 C818 1.243 . S
O838 La816 2.554 . S
O838 C825 1.240 . S
O839 La816 2.757 . S
O839 La817 2.482 . S
O839 C825 1.289 . S
O840 La816 2.470 . S
O840 C826 1.258 . S
O841 La817 2.503 . S
O841 C826 1.256 . S
O842 La817 2.521 . S
O842 C827 1.261 . S
O843 La817 2.628 . S
O843 C827 1.243 . S
O844 La817 2.554 . S
O844 C834 1.240 . S
O845 La816 2.482 . S
O845 La817 2.757 . S
O845 C834 1.289 . S
O846 La817 2.470 . S
O846 C835 1.258 . S
O847 La816 2.503 . S
O847 C835 1.256 . S
H848 C820 0.930 . S
H849 C821 0.930 . S
H850 C823 0.929 . S
H851 C824 0.929 . S
H852 C829 0.930 . S
H853 C830 0.930 . S
H854 C832 0.929 . S
H855 C833 0.929 . S
La856 C858 2.928 . S
La856 O876 2.521 . S
La856 O877 2.628 . S
La856 O878 2.554 . S
La856 O879 2.757 . S
La856 O880 2.470 . S
La856 O885 2.482 . S
La856 O887 2.503 . S
La857 C867 2.928 . S
La857 O879 2.482 . S
La857 O881 2.503 . S
La857 O882 2.521 . S
La857 O883 2.628 . S
La857 O884 2.554 . S
La857 O885 2.757 . S
La857 O886 2.470 . S
C858 La856 2.928 . S
C858 C859 1.503 . S
C858 O876 1.261 . S
C858 O877 1.243 . S
C859 C858 1.503 . S
C859 C860 1.394 . S
C859 C864 1.373 . S
C860 C859 1.394 . S
C860 C861 1.380 . S
C860 H888 0.930 . S
C861 C860 1.380 . S
C861 C862 1.376 . S
C861 H889 0.930 . S
C862 C861 1.376 . S
C862 C863 1.370 . S
C863 C862 1.370 . S
C863 C864 1.396 . S
C863 H890 0.929 . S
C864 C859 1.373 . S
C864 C863 1.396 . S
C864 H891 0.929 . S
C865 O878 1.240 . S
C865 O879 1.289 . S
C866 O880 1.258 . S
C866 O881 1.256 . S
C867 La857 2.928 . S
C867 C868 1.503 . S
C867 O882 1.261 . S
C867 O883 1.243 . S
C868 C867 1.503 . S
C868 C869 1.394 . S
C868 C873 1.373 . S
C869 C868 1.394 . S
C869 C870 1.380 . S
C869 H892 0.930 . S
C870 C869 1.380 . S
C870 C871 1.376 . S
C870 H893 0.930 . S
C871 C870 1.376 . S
C871 C872 1.370 . S
C872 C871 1.370 . S
C872 C873 1.396 . S
C872 H894 0.929 . S
C873 C868 1.373 . S
C873 C872 1.396 . S
C873 H895 0.929 . S
C874 O884 1.240 . S
C874 O885 1.289 . S
C875 O886 1.258 . S
C875 O887 1.256 . S
O876 La856 2.521 . S
O876 C858 1.261 . S
O877 La856 2.628 . S
O877 C858 1.243 . S
O878 La856 2.554 . S
O878 C865 1.240 . S
O879 La856 2.757 . S
O879 La857 2.482 . S
O879 C865 1.289 . S
O880 La856 2.470 . S
O880 C866 1.258 . S
O881 La857 2.503 . S
O881 C866 1.256 . S
O882 La857 2.521 . S
O882 C867 1.261 . S
O883 La857 2.628 . S
O883 C867 1.243 . S
O884 La857 2.554 . S
O884 C874 1.240 . S
O885 La856 2.482 . S
O885 La857 2.757 . S
O885 C874 1.289 . S
O886 La857 2.470 . S
O886 C875 1.258 . S
O887 La856 2.503 . S
O887 C875 1.256 . S
H888 C860 0.930 . S
H889 C861 0.930 . S
H890 C863 0.929 . S
H891 C864 0.929 . S
H892 C869 0.930 . S
H893 C870 0.930 . S
H894 C872 0.929 . S
H895 C873 0.929 . S
La896 C898 2.928 . S
La896 O916 2.521 . S
La896 O917 2.628 . S
La896 O918 2.554 . S
La896 O919 2.757 . S
La896 O920 2.470 . S
La896 O925 2.482 . S
La896 O927 2.503 . S
La897 C907 2.928 . S
La897 O919 2.482 . S
La897 O921 2.503 . S
La897 O922 2.521 . S
La897 O923 2.628 . S
La897 O924 2.554 . S
La897 O925 2.757 . S
La897 O926 2.470 . S
C898 La896 2.928 . S
C898 C899 1.503 . S
C898 O916 1.261 . S
C898 O917 1.243 . S
C899 C898 1.503 . S
C899 C900 1.394 . S
C899 C904 1.373 . S
C900 C899 1.394 . S
C900 C901 1.380 . S
C900 H928 0.930 . S
C901 C900 1.380 . S
C901 C902 1.376 . S
C901 H929 0.930 . S
C902 C901 1.376 . S
C902 C903 1.370 . S
C903 C902 1.370 . S
C903 C904 1.396 . S
C903 H930 0.929 . S
C904 C899 1.373 . S
C904 C903 1.396 . S
C904 H931 0.929 . S
C905 O918 1.240 . S
C905 O919 1.289 . S
C906 O920 1.258 . S
C906 O921 1.256 . S
C907 La897 2.928 . S
C907 C908 1.503 . S
C907 O922 1.261 . S
C907 O923 1.243 . S
C908 C907 1.503 . S
C908 C909 1.394 . S
C908 C913 1.373 . S
C909 C908 1.394 . S
C909 C910 1.380 . S
C909 H932 0.930 . S
C910 C909 1.380 . S
C910 C911 1.376 . S
C910 H933 0.930 . S
C911 C910 1.376 . S
C911 C912 1.370 . S
C912 C911 1.370 . S
C912 C913 1.396 . S
C912 H934 0.929 . S
C913 C908 1.373 . S
C913 C912 1.396 . S
C913 H935 0.929 . S
C914 O924 1.240 . S
C914 O925 1.289 . S
C915 O926 1.258 . S
C915 O927 1.256 . S
O916 La896 2.521 . S
O916 C898 1.261 . S
O917 La896 2.628 . S
O917 C898 1.243 . S
O918 La896 2.554 . S
O918 C905 1.240 . S
O919 La896 2.757 . S
O919 La897 2.482 . S
O919 C905 1.289 . S
O920 La896 2.470 . S
O920 C906 1.258 . S
O921 La897 2.503 . S
O921 C906 1.256 . S
O922 La897 2.521 . S
O922 C907 1.261 . S
O923 La897 2.628 . S
O923 C907 1.243 . S
O924 La897 2.554 . S
O924 C914 1.240 . S
O925 La896 2.482 . S
O925 La897 2.757 . S
O925 C914 1.289 . S
O926 La897 2.470 . S
O926 C915 1.258 . S
O927 La896 2.503 . S
O927 C915 1.256 . S
H928 C900 0.930 . S
H929 C901 0.930 . S
H930 C903 0.929 . S
H931 C904 0.929 . S
H932 C909 0.930 . S
H933 C910 0.930 . S
H934 C912 0.929 . S
H935 C913 0.929 . S
La936 C938 2.928 . S
La936 O956 2.521 . S
La936 O957 2.628 . S
La936 O958 2.554 1_554 S
La936 O959 2.757 . S
La936 O960 2.470 . S
La936 O965 2.482 . S
La936 O967 2.503 . S
La937 C947 2.928 1_455 S
La937 O959 2.482 . S
La937 O961 2.503 . S
La937 O962 2.521 1_455 S
La937 O963 2.605 1_455 S
La937 O964 2.554 . S
La937 O965 2.757 . S
La937 O966 2.470 . S
C938 La936 2.928 . S
C938 C939 1.503 . S
C938 O956 1.261 . S
C938 O957 1.243 . S
C939 C938 1.503 . S
C939 C940 1.394 . S
C939 C944 1.373 . S
C940 C939 1.394 . S
C940 C941 1.380 1_554 S
C940 H968 0.930 1_554 S
C941 C940 1.380 1_556 S
C941 C942 1.376 1_556 S
C941 H969 0.930 . S
C942 C941 1.376 1_554 S
C942 C943 1.370 . S
C943 C942 1.370 . S
C943 C944 1.396 . S
C943 H970 0.929 . S
C944 C939 1.373 . S
C944 C943 1.396 . S
C944 H971 0.929 . S
C945 O958 1.228 1_554 S
C945 O959 1.328 . S
C946 O960 1.258 . S
C946 O961 1.256 . S
C947 La937 2.928 1_655 S
C947 C948 1.503 . S
C947 O962 1.261 . S
C947 O963 1.258 . S
C948 C947 1.503 . S
C948 C949 1.394 . S
C948 C953 1.373 . S
C949 C948 1.394 . S
C949 C950 1.380 . S
C949 H972 0.930 . S
C950 C949 1.380 . S
C950 C951 1.376 . S
C950 H973 0.930 . S
C951 C950 1.376 . S
C951 C952 1.370 . S
C952 C951 1.370 . S
C952 C953 1.396 . S
C952 H974 0.929 . S
C953 C948 1.373 . S
C953 C952 1.396 . S
C953 H975 0.929 . S
C954 O964 1.240 . S
C954 O965 1.289 . S
C955 O966 1.258 . S
C955 O967 1.256 . S
O956 La936 2.521 . S
O956 C938 1.261 . S
O957 La936 2.628 . S
O957 C938 1.243 . S
O958 La936 2.554 1_556 S
O958 C945 1.228 1_556 S
O959 La936 2.757 . S
O959 La937 2.482 . S
O959 C945 1.328 . S
O960 La936 2.470 . S
O960 C946 1.258 . S
O961 La937 2.503 . S
O961 C946 1.256 . S
O962 La937 2.521 1_655 S
O962 C947 1.261 . S
O963 La937 2.605 1_655 S
O963 C947 1.258 . S
O964 La937 2.554 . S
O964 C954 1.240 . S
O965 La936 2.482 . S
O965 La937 2.757 . S
O965 C954 1.289 . S
O966 La937 2.470 . S
O966 C955 1.258 . S
O967 La936 2.503 . S
O967 C955 1.256 . S
H968 C940 0.930 1_556 S
H969 C941 0.930 . S
H970 C943 0.929 . S
H971 C944 0.929 . S
H972 C949 0.930 . S
H973 C950 0.930 . S
H974 C952 0.929 . S
H975 C953 0.929 . S
H976 C994 0.951 1_655 S
H977 C996 0.951 . S
H978 C998 0.950 . S
H979 C999 0.950 . S
H980 C1001 0.950 . S
H981 C1004 0.937 1_455 S
H982 C1005 0.950 . S
H983 C1007 0.950 . S
H984 C1008 0.950 . S
H985 C1009 0.951 . S
H986 C1011 0.947 1_554 S
H987 C1013 0.950 . S
H988 C1014 0.950 . S
H989 C1016 0.950 . S
H990 C1019 0.950 . S
H991 C1020 0.950 . S
H992 C1022 0.950 . S
H993 C1023 0.950 . S
C994 H976 0.951 1_455 S
C994 C995 1.366 . S
C994 C996 1.388 . S
C995 C994 1.366 . S
C995 C999 1.385 . S
C996 H977 0.951 . S
C996 C994 1.388 . S
C996 C997 1.366 . S
C997 C996 1.366 . S
C997 C998 1.414 . S
C997 C1000 1.499 . S
C998 H978 0.950 . S
C998 C997 1.414 . S
C998 C999 1.374 . S
C999 H979 0.950 . S
C999 C995 1.385 . S
C999 C998 1.374 . S
C1000 C997 1.499 . S
C1000 C1001 1.373 . S
C1000 C1002 1.389 . S
C1001 H980 0.950 . S
C1001 C1000 1.373 . S
C1001 C1017 1.377 . S
C1002 C1000 1.389 . S
C1002 C1003 1.524 1_455 S
C1002 C1016 1.377 . S
C1003 C1002 1.524 1_655 S
C1003 C1004 1.397 . S
C1003 C1008 1.363 . S
C1004 H981 0.937 1_655 S
C1004 C1003 1.397 . S
C1004 C1005 1.334 . S
C1005 H982 0.950 . S
C1005 C1004 1.334 . S
C1005 C1006 1.287 . S
C1006 C1005 1.287 . S
C1006 C1007 1.524 . S
C1006 H1025 0.913 . S
C1007 H983 0.950 . S
C1007 C1006 1.524 . S
C1007 C1008 1.415 . S
C1008 H984 0.950 . S
C1008 C1003 1.363 . S
C1008 C1007 1.415 . S
C1009 H985 0.951 . S
C1009 C1010 1.366 . S
C1009 C1011 1.373 1_554 S
C1010 C1009 1.366 . S
C1010 C1014 1.385 1_554 S
C1011 H986 0.947 1_556 S
C1011 C1009 1.373 1_556 S
C1011 C1012 1.384 . S
C1012 C1011 1.384 . S
C1012 C1013 1.414 . S
C1012 C1015 1.499 . S
C1013 H987 0.950 . S
C1013 C1012 1.414 . S
C1013 C1014 1.374 . S
C1014 H988 0.950 . S
C1014 C1010 1.385 1_556 S
C1014 C1013 1.374 . S
C1015 C1012 1.499 . S
C1015 C1016 1.373 . S
C1015 C1017 1.389 . S
C1016 H989 0.950 . S
C1016 C1002 1.377 . S
C1016 C1015 1.373 . S
C1017 C1001 1.377 . S
C1017 C1015 1.389 . S
C1017 C1018 1.524 . S
C1018 C1017 1.524 . S
C1018 C1019 1.397 . S
C1018 C1023 1.363 . S
C1019 H990 0.950 . S
C1019 C1018 1.397 . S
C1019 C1020 1.334 . S
C1020 H991 0.950 . S
C1020 C1019 1.334 . S
C1020 C1021 1.287 . S
C1021 C1020 1.287 . S
C1021 C1022 1.524 . S
C1021 H1024 0.999 . S
C1022 H992 0.950 . S
C1022 C1021 1.524 . S
C1022 C1023 1.415 . S
C1023 H993 0.950 . S
C1023 C1018 1.363 . S
C1023 C1022 1.415 . S
H1024 C1021 0.999 . S
H1025 C1006 0.913 . S
H1026 C1044 0.951 . S
H1027 C1046 0.951 . S
H1028 C1048 0.950 . S
H1029 C1049 0.950 . S
H1030 C1051 0.950 . S
H1031 C1054 0.950 . S
H1032 C1055 0.950 . S
H1033 C1057 0.950 . S
H1034 C1058 0.950 . S
H1035 C1059 0.951 . S
H1036 C1061 0.951 . S
H1037 C1063 0.950 . S
H1038 C1064 0.950 . S
H1039 C1066 0.950 . S
H1040 C1069 0.950 . S
H1041 C1070 0.950 . S
H1042 C1072 0.950 . S
H1043 C1073 0.950 . S
C1044 H1026 0.951 . S
C1044 C1045 1.366 . S
C1044 C1046 1.388 . S
C1045 C1044 1.366 . S
C1045 C1049 1.385 . S
C1046 H1027 0.951 . S
C1046 C1044 1.388 . S
C1046 C1047 1.366 . S
C1047 C1046 1.366 . S
C1047 C1048 1.414 . S
C1047 C1050 1.499 . S
C1048 H1028 0.950 . S
C1048 C1047 1.414 . S
C1048 C1049 1.374 . S
C1049 H1029 0.950 . S
C1049 C1045 1.385 . S
C1049 C1048 1.374 . S
C1050 C1047 1.499 . S
C1050 C1051 1.373 . S
C1050 C1052 1.389 . S
C1051 H1030 0.950 . S
C1051 C1050 1.373 . S
C1051 C1067 1.377 . S
C1052 C1050 1.389 . S
C1052 C1053 1.524 . S
C1052 C1066 1.377 . S
C1053 C1052 1.524 . S
C1053 C1054 1.397 . S
C1053 C1058 1.363 . S
C1054 H1031 0.950 . S
C1054 C1053 1.397 . S
C1054 C1055 1.334 . S
C1055 H1032 0.950 . S
C1055 C1054 1.334 . S
C1055 C1056 1.287 . S
C1056 C1055 1.287 . S
C1056 C1057 1.524 . S
C1056 H1075 0.913 . S
C1057 H1033 0.950 . S
C1057 C1056 1.524 . S
C1057 C1058 1.415 . S
C1058 H1034 0.950 . S
C1058 C1053 1.363 . S
C1058 C1057 1.415 . S
C1059 H1035 0.951 . S
C1059 C1060 1.366 . S
C1059 C1061 1.388 . S
C1060 C1059 1.366 . S
C1060 C1064 1.385 . S
C1061 H1036 0.951 . S
C1061 C1059 1.388 . S
C1061 C1062 1.366 . S
C1062 C1061 1.366 . S
C1062 C1063 1.414 . S
C1062 C1065 1.499 . S
C1063 H1037 0.950 . S
C1063 C1062 1.414 . S
C1063 C1064 1.374 . S
C1064 H1038 0.950 . S
C1064 C1060 1.385 . S
C1064 C1063 1.374 . S
C1065 C1062 1.499 . S
C1065 C1066 1.373 . S
C1065 C1067 1.389 . S
C1066 H1039 0.950 . S
C1066 C1052 1.377 . S
C1066 C1065 1.373 . S
C1067 C1051 1.377 . S
C1067 C1065 1.389 . S
C1067 C1068 1.524 . S
C1068 C1067 1.524 . S
C1068 C1069 1.397 . S
C1068 C1073 1.363 . S
C1069 H1040 0.950 . S
C1069 C1068 1.397 . S
C1069 C1070 1.334 . S
C1070 H1041 0.950 . S
C1070 C1069 1.334 . S
C1070 C1071 1.287 . S
C1071 C1070 1.287 . S
C1071 C1072 1.524 . S
C1071 H1074 0.999 . S
C1072 H1042 0.950 . S
C1072 C1071 1.524 . S
C1072 C1073 1.415 . S
C1073 H1043 0.950 . S
C1073 C1068 1.363 . S
C1073 C1072 1.415 . S
H1074 C1071 0.999 . S
H1075 C1056 0.913 . S
H1076 C1094 0.951 . S
H1077 C1096 0.951 . S
H1078 C1098 0.950 . S
H1079 C1099 0.950 . S
H1080 C1101 0.950 . S
H1081 C1104 0.950 . S
H1082 C1105 0.950 . S
H1083 C1107 0.950 . S
H1084 C1108 0.950 . S
H1085 C1109 0.951 . S
H1086 C1111 0.951 . S
H1087 C1113 0.950 . S
H1088 C1114 0.950 . S
H1089 C1116 0.950 . S
H1090 C1119 0.950 . S
H1091 C1120 0.950 . S
H1092 C1122 0.950 . S
H1093 C1123 0.950 . S
C1094 H1076 0.951 . S
C1094 C1095 1.366 . S
C1094 C1096 1.388 . S
C1095 C1094 1.366 . S
C1095 C1099 1.385 . S
C1096 H1077 0.951 . S
C1096 C1094 1.388 . S
C1096 C1097 1.366 . S
C1097 C1096 1.366 . S
C1097 C1098 1.414 . S
C1097 C1100 1.499 . S
C1098 H1078 0.950 . S
C1098 C1097 1.414 . S
C1098 C1099 1.374 . S
C1099 H1079 0.950 . S
C1099 C1095 1.385 . S
C1099 C1098 1.374 . S
C1100 C1097 1.499 . S
C1100 C1101 1.373 . S
C1100 C1102 1.389 . S
C1101 H1080 0.950 . S
C1101 C1100 1.373 . S
C1101 C1117 1.377 . S
C1102 C1100 1.389 . S
C1102 C1103 1.524 . S
C1102 C1116 1.377 . S
C1103 C1102 1.524 . S
C1103 C1104 1.397 . S
C1103 C1108 1.363 . S
C1104 H1081 0.950 . S
C1104 C1103 1.397 . S
C1104 C1105 1.334 . S
C1105 H1082 0.950 . S
C1105 C1104 1.334 . S
C1105 C1106 1.287 . S
C1106 C1105 1.287 . S
C1106 C1107 1.524 . S
C1106 H1125 0.913 . S
C1107 H1083 0.950 . S
C1107 C1106 1.524 . S
C1107 C1108 1.415 . S
C1108 H1084 0.950 . S
C1108 C1103 1.363 . S
C1108 C1107 1.415 . S
C1109 H1085 0.951 . S
C1109 C1110 1.366 . S
C1109 C1111 1.388 . S
C1110 C1109 1.366 . S
C1110 C1114 1.385 . S
C1111 H1086 0.951 . S
C1111 C1109 1.388 . S
C1111 C1112 1.366 . S
C1112 C1111 1.366 . S
C1112 C1113 1.414 . S
C1112 C1115 1.499 . S
C1113 H1087 0.950 . S
C1113 C1112 1.414 . S
C1113 C1114 1.374 . S
C1114 H1088 0.950 . S
C1114 C1110 1.385 . S
C1114 C1113 1.374 . S
C1115 C1112 1.499 . S
C1115 C1116 1.373 . S
C1115 C1117 1.389 . S
C1116 H1089 0.950 . S
C1116 C1102 1.377 . S
C1116 C1115 1.373 . S
C1117 C1101 1.377 . S
C1117 C1115 1.389 . S
C1117 C1118 1.524 . S
C1118 C1117 1.524 . S
C1118 C1119 1.397 . S
C1118 C1123 1.363 . S
C1119 H1090 0.950 . S
C1119 C1118 1.397 . S
C1119 C1120 1.334 . S
C1120 H1091 0.950 . S
C1120 C1119 1.334 . S
C1120 C1121 1.287 . S
C1121 C1120 1.287 . S
C1121 C1122 1.524 . S
C1121 H1124 0.999 . S
C1122 H1092 0.950 . S
C1122 C1121 1.524 . S
C1122 C1123 1.415 . S
C1123 H1093 0.950 . S
C1123 C1118 1.363 . S
C1123 C1122 1.415 . S
H1124 C1121 0.999 . S
H1125 C1106 0.913 . S
H1126 C1144 0.951 . S
H1127 C1146 0.951 . S
H1128 C1148 0.950 . S
H1129 C1149 0.950 . S
H1130 C1151 0.950 . S
H1131 C1154 0.950 . S
H1132 C1155 0.950 . S
H1133 C1157 0.950 . S
H1134 C1158 0.950 . S
H1135 C1159 0.951 . S
H1136 C1161 0.951 . S
H1137 C1163 0.950 . S
H1138 C1164 0.950 . S
H1139 C1166 0.950 . S
H1140 C1169 0.950 . S
H1141 C1170 0.950 . S
H1142 C1172 0.950 . S
H1143 C1173 0.950 . S
C1144 H1126 0.951 . S
C1144 C1145 1.366 . S
C1144 C1146 1.388 . S
C1145 C1144 1.366 . S
C1145 C1149 1.385 . S
C1146 H1127 0.951 . S
C1146 C1144 1.388 . S
C1146 C1147 1.366 . S
C1147 C1146 1.366 . S
C1147 C1148 1.414 . S
C1147 C1150 1.499 . S
C1148 H1128 0.950 . S
C1148 C1147 1.414 . S
C1148 C1149 1.374 . S
C1149 H1129 0.950 . S
C1149 C1145 1.385 . S
C1149 C1148 1.374 . S
C1150 C1147 1.499 . S
C1150 C1151 1.373 . S
C1150 C1152 1.389 . S
C1151 H1130 0.950 . S
C1151 C1150 1.373 . S
C1151 C1167 1.377 . S
C1152 C1150 1.389 . S
C1152 C1153 1.524 . S
C1152 C1166 1.377 . S
C1153 C1152 1.524 . S
C1153 C1154 1.397 . S
C1153 C1158 1.363 . S
C1154 H1131 0.950 . S
C1154 C1153 1.397 . S
C1154 C1155 1.334 . S
C1155 H1132 0.950 . S
C1155 C1154 1.334 . S
C1155 C1156 1.287 . S
C1156 C1155 1.287 . S
C1156 C1157 1.524 . S
C1156 H1175 0.913 . S
C1157 H1133 0.950 . S
C1157 C1156 1.524 . S
C1157 C1158 1.415 . S
C1158 H1134 0.950 . S
C1158 C1153 1.363 . S
C1158 C1157 1.415 . S
C1159 H1135 0.951 . S
C1159 C1160 1.366 . S
C1159 C1161 1.388 . S
C1160 C1159 1.366 . S
C1160 C1164 1.385 . S
C1161 H1136 0.951 . S
C1161 C1159 1.388 . S
C1161 C1162 1.366 . S
C1162 C1161 1.366 . S
C1162 C1163 1.414 . S
C1162 C1165 1.499 . S
C1163 H1137 0.950 . S
C1163 C1162 1.414 . S
C1163 C1164 1.374 . S
C1164 H1138 0.950 . S
C1164 C1160 1.385 . S
C1164 C1163 1.374 . S
C1165 C1162 1.499 . S
C1165 C1166 1.373 . S
C1165 C1167 1.389 . S
C1166 H1139 0.950 . S
C1166 C1152 1.377 . S
C1166 C1165 1.373 . S
C1167 C1151 1.377 . S
C1167 C1165 1.389 . S
C1167 C1168 1.524 . S
C1168 C1167 1.524 . S
C1168 C1169 1.397 . S
C1168 C1173 1.363 . S
C1169 H1140 0.950 . S
C1169 C1168 1.397 . S
C1169 C1170 1.334 . S
C1170 H1141 0.950 . S
C1170 C1169 1.334 . S
C1170 C1171 1.287 . S
C1171 C1170 1.287 . S
C1171 C1172 1.524 . S
C1171 H1174 0.999 . S
C1172 H1142 0.950 . S
C1172 C1171 1.524 . S
C1172 C1173 1.415 . S
C1173 H1143 0.950 . S
C1173 C1168 1.363 . S
C1173 C1172 1.415 . S
H1174 C1171 0.999 . S
H1175 C1156 0.913 . S
H1176 C1194 0.951 1_655 S
H1177 C1196 0.951 . S
H1178 C1198 0.950 . S
H1179 C1199 0.950 . S
H1180 C1201 0.950 . S
H1181 C1204 0.950 . S
H1182 C1205 0.950 . S
H1183 C1207 0.950 . S
H1184 C1208 0.950 . S
H1185 C1209 0.951 . S
H1186 C1211 0.951 . S
H1187 C1213 0.950 . S
H1188 C1214 0.950 . S
H1189 C1216 0.950 . S
H1190 C1219 0.950 . S
H1191 C1220 0.950 . S
H1192 C1222 0.950 . S
H1193 C1223 0.950 . S
C1194 H1176 0.951 1_455 S
C1194 C1195 1.366 . S
C1194 C1196 1.388 . S
C1195 C1194 1.366 . S
C1195 C1199 1.385 . S
C1196 H1177 0.951 . S
C1196 C1194 1.388 . S
C1196 C1197 1.366 . S
C1197 C1196 1.366 . S
C1197 C1198 1.414 . S
C1197 C1200 1.499 . S
C1198 H1178 0.950 . S
C1198 C1197 1.414 . S
C1198 C1199 1.374 . S
C1199 H1179 0.950 . S
C1199 C1195 1.385 . S
C1199 C1198 1.374 . S
C1200 C1197 1.499 . S
C1200 C1201 1.373 . S
C1200 C1202 1.389 . S
C1201 H1180 0.950 . S
C1201 C1200 1.373 . S
C1201 C1217 1.377 . S
C1202 C1200 1.389 . S
C1202 C1203 1.524 . S
C1202 C1216 1.377 . S
C1203 C1202 1.524 . S
C1203 C1204 1.397 . S
C1203 C1208 1.363 . S
C1204 H1181 0.950 . S
C1204 C1203 1.397 . S
C1204 C1205 1.334 . S
C1205 H1182 0.950 . S
C1205 C1204 1.334 . S
C1205 C1206 1.287 . S
C1206 C1205 1.287 . S
C1206 C1207 1.524 . S
C1206 H1225 0.913 . S
C1207 H1183 0.950 . S
C1207 C1206 1.524 . S
C1207 C1208 1.415 . S
C1208 H1184 0.950 . S
C1208 C1203 1.363 . S
C1208 C1207 1.415 . S
C1209 H1185 0.951 . S
C1209 C1210 1.366 . S
C1209 C1211 1.388 . S
C1210 C1209 1.366 . S
C1210 C1214 1.385 . S
C1211 H1186 0.951 . S
C1211 C1209 1.388 . S
C1211 C1212 1.366 . S
C1212 C1211 1.366 . S
C1212 C1213 1.414 . S
C1212 C1215 1.499 . S
C1213 H1187 0.950 . S
C1213 C1212 1.414 . S
C1213 C1214 1.374 . S
C1214 H1188 0.950 . S
C1214 C1210 1.385 . S
C1214 C1213 1.374 . S
C1215 C1212 1.499 . S
C1215 C1216 1.373 . S
C1215 C1217 1.389 . S
C1216 H1189 0.950 . S
C1216 C1202 1.377 . S
C1216 C1215 1.373 . S
C1217 C1201 1.377 . S
C1217 C1215 1.389 . S
C1217 C1218 1.524 . S
C1218 C1217 1.524 . S
C1218 C1219 1.397 . S
C1218 C1223 1.363 . S
C1219 H1190 0.950 . S
C1219 C1218 1.397 . S
C1219 C1220 1.334 . S
C1220 H1191 0.950 . S
C1220 C1219 1.334 . S
C1220 C1221 1.287 . S
C1221 C1220 1.287 . S
C1221 C1222 1.524 . S
C1221 H1224 0.999 . S
C1222 H1192 0.950 . S
C1222 C1221 1.524 . S
C1222 C1223 1.415 . S
C1223 H1193 0.950 . S
C1223 C1218 1.363 . S
C1223 C1222 1.415 . S
H1224 C1221 0.999 . S
H1225 C1206 0.913 . S
H1226 C1244 0.951 . S
H1227 C1246 0.951 . S
H1228 C1248 0.950 . S
H1229 C1249 0.950 . S
H1230 C1251 0.950 . S
H1231 C1254 0.950 . S
H1232 C1255 0.950 . S
H1233 C1257 0.950 . S
H1234 C1258 0.950 . S
H1235 C1259 0.951 . S
H1236 C1261 0.951 . S
H1237 C1263 0.950 . S
H1238 C1264 0.950 . S
H1239 C1266 0.950 . S
H1240 C1269 0.950 . S
H1241 C1270 0.950 . S
H1242 C1272 0.950 . S
H1243 C1273 0.950 . S
C1244 H1226 0.951 . S
C1244 C1245 1.366 . S
C1244 C1246 1.388 . S
C1245 C1244 1.366 . S
C1245 C1249 1.385 . S
C1246 H1227 0.951 . S
C1246 C1244 1.388 . S
C1246 C1247 1.366 . S
C1247 C1246 1.366 . S
C1247 C1248 1.414 . S
C1247 C1250 1.499 . S
C1248 H1228 0.950 . S
C1248 C1247 1.414 . S
C1248 C1249 1.374 . S
C1249 H1229 0.950 . S
C1249 C1245 1.385 . S
C1249 C1248 1.374 . S
C1250 C1247 1.499 . S
C1250 C1251 1.373 . S
C1250 C1252 1.389 . S
C1251 H1230 0.950 . S
C1251 C1250 1.373 . S
C1251 C1267 1.377 . S
C1252 C1250 1.389 . S
C1252 C1253 1.524 . S
C1252 C1266 1.377 . S
C1253 C1252 1.524 . S
C1253 C1254 1.397 . S
C1253 C1258 1.363 . S
C1254 H1231 0.950 . S
C1254 C1253 1.397 . S
C1254 C1255 1.334 . S
C1255 H1232 0.950 . S
C1255 C1254 1.334 . S
C1255 C1256 1.287 . S
C1256 C1255 1.287 . S
C1256 C1257 1.524 . S
C1256 H1275 0.913 . S
C1257 H1233 0.950 . S
C1257 C1256 1.524 . S
C1257 C1258 1.415 . S
C1258 H1234 0.950 . S
C1258 C1253 1.363 . S
C1258 C1257 1.415 . S
C1259 H1235 0.951 . S
C1259 C1260 1.366 . S
C1259 C1261 1.388 . S
C1260 C1259 1.366 . S
C1260 C1264 1.385 . S
C1261 H1236 0.951 . S
C1261 C1259 1.388 . S
C1261 C1262 1.366 . S
C1262 C1261 1.366 . S
C1262 C1263 1.414 . S
C1262 C1265 1.499 . S
C1263 H1237 0.950 . S
C1263 C1262 1.414 . S
C1263 C1264 1.374 . S
C1264 H1238 0.950 . S
C1264 C1260 1.385 . S
C1264 C1263 1.374 . S
C1265 C1262 1.499 . S
C1265 C1266 1.373 . S
C1265 C1267 1.389 . S
C1266 H1239 0.950 . S
C1266 C1252 1.377 . S
C1266 C1265 1.373 . S
C1267 C1251 1.377 . S
C1267 C1265 1.389 . S
C1267 C1268 1.524 . S
C1268 C1267 1.524 . S
C1268 C1269 1.397 . S
C1268 C1273 1.363 . S
C1269 H1240 0.950 . S
C1269 C1268 1.397 . S
C1269 C1270 1.334 . S
C1270 H1241 0.950 . S
C1270 C1269 1.334 . S
C1270 C1271 1.287 . S
C1271 C1270 1.287 . S
C1271 C1272 1.524 . S
C1271 H1274 0.999 . S
C1272 H1242 0.950 . S
C1272 C1271 1.524 . S
C1272 C1273 1.415 . S
C1273 H1243 0.950 . S
C1273 C1268 1.363 . S
C1273 C1272 1.415 . S
H1274 C1271 0.999 . S
H1275 C1256 0.913 . S
H1276 C1294 0.951 . S
H1277 C1296 0.951 . S
H1278 C1298 0.950 . S
H1279 C1299 0.950 . S
H1280 C1301 0.950 . S
H1281 C1304 0.950 . S
H1282 C1305 0.950 . S
H1283 C1307 0.950 . S
H1284 C1308 0.950 . S
H1285 C1309 0.951 . S
H1286 C1311 0.951 . S
H1287 C1313 0.950 . S
H1288 C1314 0.950 . S
H1289 C1316 0.950 . S
H1290 C1319 0.950 . S
H1291 C1320 0.950 . S
H1292 C1322 0.950 . S
H1293 C1323 0.950 . S
C1294 H1276 0.951 . S
C1294 C1295 1.366 . S
C1294 C1296 1.388 . S
C1295 C1294 1.366 . S
C1295 C1299 1.385 . S
C1296 H1277 0.951 . S
C1296 C1294 1.388 . S
C1296 C1297 1.366 . S
C1297 C1296 1.366 . S
C1297 C1298 1.414 . S
C1297 C1300 1.499 . S
C1298 H1278 0.950 . S
C1298 C1297 1.414 . S
C1298 C1299 1.374 . S
C1299 H1279 0.950 . S
C1299 C1295 1.385 . S
C1299 C1298 1.374 . S
C1300 C1297 1.499 . S
C1300 C1301 1.373 . S
C1300 C1302 1.389 . S
C1301 H1280 0.950 . S
C1301 C1300 1.373 . S
C1301 C1317 1.377 . S
C1302 C1300 1.389 . S
C1302 C1303 1.524 . S
C1302 C1316 1.377 . S
C1303 C1302 1.524 . S
C1303 C1304 1.397 . S
C1303 C1308 1.363 . S
C1304 H1281 0.950 . S
C1304 C1303 1.397 . S
C1304 C1305 1.334 . S
C1305 H1282 0.950 . S
C1305 C1304 1.334 . S
C1305 C1306 1.287 . S
C1306 C1305 1.287 . S
C1306 C1307 1.524 . S
C1306 H1325 0.913 . S
C1307 H1283 0.950 . S
C1307 C1306 1.524 . S
C1307 C1308 1.415 . S
C1308 H1284 0.950 . S
C1308 C1303 1.363 . S
C1308 C1307 1.415 . S
C1309 H1285 0.951 . S
C1309 C1310 1.366 . S
C1309 C1311 1.388 . S
C1310 C1309 1.366 . S
C1310 C1314 1.385 . S
C1311 H1286 0.951 . S
C1311 C1309 1.388 . S
C1311 C1312 1.366 . S
C1312 C1311 1.366 . S
C1312 C1313 1.414 . S
C1312 C1315 1.499 . S
C1313 H1287 0.950 . S
C1313 C1312 1.414 . S
C1313 C1314 1.374 . S
C1314 H1288 0.950 . S
C1314 C1310 1.385 . S
C1314 C1313 1.374 . S
C1315 C1312 1.499 . S
C1315 C1316 1.373 . S
C1315 C1317 1.389 . S
C1316 H1289 0.950 . S
C1316 C1302 1.377 . S
C1316 C1315 1.373 . S
C1317 C1301 1.377 . S
C1317 C1315 1.389 . S
C1317 C1318 1.524 . S
C1318 C1317 1.524 . S
C1318 C1319 1.397 . S
C1318 C1323 1.363 . S
C1319 H1290 0.950 . S
C1319 C1318 1.397 . S
C1319 C1320 1.334 . S
C1320 H1291 0.950 . S
C1320 C1319 1.334 . S
C1320 C1321 1.287 . S
C1321 C1320 1.287 . S
C1321 C1322 1.524 . S
C1321 H1324 0.999 . S
C1322 H1292 0.950 . S
C1322 C1321 1.524 . S
C1322 C1323 1.415 . S
C1323 H1293 0.950 . S
C1323 C1318 1.363 . S
C1323 C1322 1.415 . S
H1324 C1321 0.999 . S
H1325 C1306 0.913 . S
H1326 C1344 0.951 . S
H1327 C1346 0.951 . S
H1328 C1348 0.950 . S
H1329 C1349 0.950 . S
H1330 C1351 0.950 . S
H1331 C1354 0.950 . S
H1332 C1355 0.950 . S
H1333 C1357 0.950 . S
H1334 C1358 0.950 . S
H1335 C1359 0.951 . S
H1336 C1361 0.951 . S
H1337 C1363 0.950 . S
H1338 C1364 0.950 . S
H1339 C1366 0.950 . S
H1340 C1369 0.950 . S
H1341 C1370 0.950 . S
H1342 C1372 0.950 . S
H1343 C1373 0.950 . S
C1344 H1326 0.951 . S
C1344 C1345 1.366 . S
C1344 C1346 1.388 . S
C1345 C1344 1.366 . S
C1345 C1349 1.385 . S
C1346 H1327 0.951 . S
C1346 C1344 1.388 . S
C1346 C1347 1.366 . S
C1347 C1346 1.366 . S
C1347 C1348 1.414 . S
C1347 C1350 1.499 . S
C1348 H1328 0.950 . S
C1348 C1347 1.414 . S
C1348 C1349 1.374 . S
C1349 H1329 0.950 . S
C1349 C1345 1.385 . S
C1349 C1348 1.374 . S
C1350 C1347 1.499 . S
C1350 C1351 1.373 . S
C1350 C1352 1.389 . S
C1351 H1330 0.950 . S
C1351 C1350 1.373 . S
C1351 C1367 1.377 . S
C1352 C1350 1.389 . S
C1352 C1353 1.524 . S
C1352 C1366 1.377 . S
C1353 C1352 1.524 . S
C1353 C1354 1.397 . S
C1353 C1358 1.363 . S
C1354 H1331 0.950 . S
C1354 C1353 1.397 . S
C1354 C1355 1.334 . S
C1355 H1332 0.950 . S
C1355 C1354 1.334 . S
C1355 C1356 1.287 . S
C1356 C1355 1.287 . S
C1356 C1357 1.524 . S
C1356 H1375 0.913 . S
C1357 H1333 0.950 . S
C1357 C1356 1.524 . S
C1357 C1358 1.415 . S
C1358 H1334 0.950 . S
C1358 C1353 1.363 . S
C1358 C1357 1.415 . S
C1359 H1335 0.951 . S
C1359 C1360 1.366 . S
C1359 C1361 1.388 . S
C1360 C1359 1.366 . S
C1360 C1364 1.385 . S
C1361 H1336 0.951 . S
C1361 C1359 1.388 . S
C1361 C1362 1.366 . S
C1362 C1361 1.366 . S
C1362 C1363 1.414 . S
C1362 C1365 1.499 . S
C1363 H1337 0.950 . S
C1363 C1362 1.414 . S
C1363 C1364 1.374 . S
C1364 H1338 0.950 . S
C1364 C1360 1.385 . S
C1364 C1363 1.374 . S
C1365 C1362 1.499 . S
C1365 C1366 1.373 . S
C1365 C1367 1.389 . S
C1366 H1339 0.950 . S
C1366 C1352 1.377 . S
C1366 C1365 1.373 . S
C1367 C1351 1.377 . S
C1367 C1365 1.389 . S
C1367 C1368 1.524 . S
C1368 C1367 1.524 . S
C1368 C1369 1.397 . S
C1368 C1373 1.363 . S
C1369 H1340 0.950 . S
C1369 C1368 1.397 . S
C1369 C1370 1.334 . S
C1370 H1341 0.950 . S
C1370 C1369 1.334 . S
C1370 C1371 1.287 . S
C1371 C1370 1.287 . S
C1371 C1372 1.524 . S
C1371 H1374 0.999 . S
C1372 H1342 0.950 . S
C1372 C1371 1.524 . S
C1372 C1373 1.415 . S
C1373 H1343 0.950 . S
C1373 C1368 1.363 . S
C1373 C1372 1.415 . S
H1374 C1371 0.999 . S
H1375 C1356 0.913 . S
H1376 C1394 0.951 . S
H1377 C1396 0.951 . S
H1378 C1398 0.950 . S
H1379 C1399 0.950 . S
H1380 C1401 0.950 . S
H1381 C1404 0.950 . S
H1382 C1405 0.950 . S
H1383 C1407 0.950 . S
H1384 C1408 0.950 . S
H1385 C1409 0.951 . S
H1386 C1411 0.951 . S
H1387 C1413 0.950 . S
H1388 C1414 0.950 . S
H1389 C1416 0.950 . S
H1390 C1419 0.950 . S
H1391 C1420 0.950 . S
H1392 C1422 0.950 . S
H1393 C1423 0.950 . S
C1394 H1376 0.951 . S
C1394 C1395 1.366 . S
C1394 C1396 1.388 . S
C1395 C1394 1.366 . S
C1395 C1399 1.385 . S
C1396 H1377 0.951 . S
C1396 C1394 1.388 . S
C1396 C1397 1.366 . S
C1397 C1396 1.366 . S
C1397 C1398 1.414 . S
C1397 C1400 1.499 . S
C1398 H1378 0.950 . S
C1398 C1397 1.414 . S
C1398 C1399 1.374 . S
C1399 H1379 0.950 . S
C1399 C1395 1.385 . S
C1399 C1398 1.374 . S
C1400 C1397 1.499 . S
C1400 C1401 1.373 . S
C1400 C1402 1.389 . S
C1401 H1380 0.950 . S
C1401 C1400 1.373 . S
C1401 C1417 1.377 1_655 S
C1402 C1400 1.389 . S
C1402 C1403 1.524 . S
C1402 C1416 1.377 . S
C1403 C1402 1.524 . S
C1403 C1404 1.397 . S
C1403 C1408 1.363 . S
C1404 H1381 0.950 . S
C1404 C1403 1.397 . S
C1404 C1405 1.334 . S
C1405 H1382 0.950 . S
C1405 C1404 1.334 . S
C1405 C1406 1.287 . S
C1406 C1405 1.287 . S
C1406 C1407 1.524 . S
C1406 H1425 0.913 . S
C1407 H1383 0.950 . S
C1407 C1406 1.524 . S
C1407 C1408 1.415 . S
C1408 H1384 0.950 . S
C1408 C1403 1.363 . S
C1408 C1407 1.415 . S
C1409 H1385 0.951 . S
C1409 C1410 1.366 . S
C1409 C1411 1.388 . S
C1410 C1409 1.366 . S
C1410 C1414 1.385 . S
C1411 H1386 0.951 . S
C1411 C1409 1.388 . S
C1411 C1412 1.366 . S
C1412 C1411 1.366 . S
C1412 C1413 1.414 . S
C1412 C1415 1.501 1_455 S
C1413 H1387 0.950 . S
C1413 C1412 1.414 . S
C1413 C1414 1.374 . S
C1414 H1388 0.950 . S
C1414 C1410 1.385 . S
C1414 C1413 1.374 . S
C1415 C1412 1.501 1_655 S
C1415 C1416 1.369 . S
C1415 C1417 1.391 1_655 S
C1416 H1389 0.950 . S
C1416 C1402 1.377 . S
C1416 C1415 1.369 . S
C1417 C1401 1.377 1_455 S
C1417 C1415 1.391 1_455 S
C1417 C1418 1.524 . S
C1418 C1417 1.524 . S
C1418 C1419 1.397 . S
C1418 C1423 1.363 . S
C1419 H1390 0.950 . S
C1419 C1418 1.397 . S
C1419 C1420 1.334 . S
C1420 H1391 0.950 . S
C1420 C1419 1.334 . S
C1420 C1421 1.287 . S
C1421 C1420 1.287 . S
C1421 C1422 1.524 . S
C1421 H1424 0.999 . S
C1422 H1392 0.950 . S
C1422 C1421 1.524 . S
C1422 C1423 1.415 . S
C1423 H1393 0.950 . S
C1423 C1418 1.363 . S
C1423 C1422 1.415 . S
H1424 C1421 0.999 . S
H1425 C1406 0.913 . S
H1426 C1444 0.951 . S
H1427 C1446 0.951 . S
H1428 C1448 0.950 . S
H1429 C1449 0.950 . S
H1430 C1451 0.950 . S
H1431 C1454 0.950 . S
H1432 C1455 0.950 . S
H1433 C1457 0.950 . S
H1434 C1458 0.950 . S
H1435 C1459 0.951 . S
H1436 C1461 0.951 . S
H1437 C1463 0.950 . S
H1438 C1464 0.950 . S
H1439 C1466 0.950 . S
H1440 C1469 0.950 . S
H1441 C1470 0.950 . S
H1442 C1472 0.950 . S
H1443 C1473 0.950 . S
C1444 H1426 0.951 . S
C1444 C1445 1.366 . S
C1444 C1446 1.388 . S
C1445 C1444 1.366 . S
C1445 C1449 1.385 . S
C1446 H1427 0.951 . S
C1446 C1444 1.388 . S
C1446 C1447 1.366 . S
C1447 C1446 1.366 . S
C1447 C1448 1.414 . S
C1447 C1450 1.499 . S
C1448 H1428 0.950 . S
C1448 C1447 1.414 . S
C1448 C1449 1.374 . S
C1449 H1429 0.950 . S
C1449 C1445 1.385 . S
C1449 C1448 1.374 . S
C1450 C1447 1.499 . S
C1450 C1451 1.373 . S
C1450 C1452 1.389 . S
C1451 H1430 0.950 . S
C1451 C1450 1.373 . S
C1451 C1467 1.377 . S
C1452 C1450 1.389 . S
C1452 C1453 1.524 . S
C1452 C1466 1.377 . S
C1453 C1452 1.524 . S
C1453 C1454 1.397 . S
C1453 C1458 1.363 . S
C1454 H1431 0.950 . S
C1454 C1453 1.397 . S
C1454 C1455 1.334 . S
C1455 H1432 0.950 . S
C1455 C1454 1.334 . S
C1455 C1456 1.287 . S
C1456 C1455 1.287 . S
C1456 C1457 1.524 . S
C1456 H1475 0.913 . S
C1457 H1433 0.950 . S
C1457 C1456 1.524 . S
C1457 C1458 1.415 . S
C1458 H1434 0.950 . S
C1458 C1453 1.363 . S
C1458 C1457 1.415 . S
C1459 H1435 0.951 . S
C1459 C1460 1.366 . S
C1459 C1461 1.388 . S
C1460 C1459 1.366 . S
C1460 C1464 1.385 . S
C1461 H1436 0.951 . S
C1461 C1459 1.388 . S
C1461 C1462 1.366 . S
C1462 C1461 1.366 . S
C1462 C1463 1.414 . S
C1462 C1465 1.499 . S
C1463 H1437 0.950 . S
C1463 C1462 1.414 . S
C1463 C1464 1.374 . S
C1464 H1438 0.950 . S
C1464 C1460 1.385 . S
C1464 C1463 1.374 . S
C1465 C1462 1.499 . S
C1465 C1466 1.373 . S
C1465 C1467 1.389 . S
C1466 H1439 0.950 . S
C1466 C1452 1.377 . S
C1466 C1465 1.373 . S
C1467 C1451 1.377 . S
C1467 C1465 1.389 . S
C1467 C1468 1.524 . S
C1468 C1467 1.524 . S
C1468 C1469 1.397 . S
C1468 C1473 1.363 . S
C1469 H1440 0.950 . S
C1469 C1468 1.397 . S
C1469 C1470 1.334 . S
C1470 H1441 0.950 . S
C1470 C1469 1.334 . S
C1470 C1471 1.287 . S
C1471 C1470 1.287 . S
C1471 C1472 1.524 . S
C1471 H1474 0.999 . S
C1472 H1442 0.950 . S
C1472 C1471 1.524 . S
C1472 C1473 1.415 . S
C1473 H1443 0.950 . S
C1473 C1468 1.363 . S
C1473 C1472 1.415 . S
H1474 C1471 0.999 . S
H1475 C1456 0.913 . S
H1476 C1494 0.951 . S
H1477 C1496 0.951 . S
H1478 C1498 0.950 . S
H1479 C1499 0.950 . S
H1480 C1501 0.950 . S
H1481 C1504 0.950 . S
H1482 C1505 0.950 1_565 S
H1483 C1507 0.950 . S
H1484 C1508 0.950 . S
H1485 C1509 0.951 . S
H1486 C1511 0.951 . S
H1487 C1513 0.950 . S
H1488 C1514 0.950 . S
H1489 C1516 0.950 . S
H1490 C1519 0.950 . S
H1491 C1520 0.950 . S
H1492 C1522 0.950 . S
H1493 C1523 0.950 . S
C1494 H1476 0.951 . S
C1494 C1495 1.366 . S
C1494 C1496 1.388 . S
C1495 C1494 1.366 . S
C1495 C1499 1.385 . S
C1496 H1477 0.951 . S
C1496 C1494 1.388 . S
C1496 C1497 1.366 . S
C1497 C1496 1.366 . S
C1497 C1498 1.414 . S
C1497 C1500 1.499 . S
C1498 H1478 0.950 . S
C1498 C1497 1.414 . S
C1498 C1499 1.374 . S
C1499 H1479 0.950 . S
C1499 C1495 1.385 . S
C1499 C1498 1.374 . S
C1500 C1497 1.499 . S
C1500 C1501 1.373 . S
C1500 C1502 1.389 . S
C1501 H1480 0.950 . S
C1501 C1500 1.373 . S
C1501 C1517 1.377 . S
C1502 C1500 1.389 . S
C1502 C1503 1.524 . S
C1502 C1516 1.377 . S
C1503 C1502 1.524 . S
C1503 C1504 1.397 . S
C1503 C1508 1.363 . S
C1504 H1481 0.950 . S
C1504 C1503 1.397 . S
C1504 C1505 1.334 . S
C1505 H1482 0.950 1_545 S
C1505 C1504 1.334 . S
C1505 C1506 1.287 . S
C1506 C1505 1.287 . S
C1506 C1507 1.524 . S
C1506 H1525 0.913 1_545 S
C1507 H1483 0.950 . S
C1507 C1506 1.524 . S
C1507 C1508 1.415 . S
C1508 H1484 0.950 . S
C1508 C1503 1.363 . S
C1508 C1507 1.415 . S
C1509 H1485 0.951 . S
C1509 C1510 1.366 . S
C1509 C1511 1.388 . S
C1510 C1509 1.366 . S
C1510 C1514 1.385 . S
C1511 H1486 0.951 . S
C1511 C1509 1.388 . S
C1511 C1512 1.366 . S
C1512 C1511 1.366 . S
C1512 C1513 1.414 . S
C1512 C1515 1.499 . S
C1513 H1487 0.950 . S
C1513 C1512 1.414 . S
C1513 C1514 1.374 . S
C1514 H1488 0.950 . S
C1514 C1510 1.385 . S
C1514 C1513 1.374 . S
C1515 C1512 1.499 . S
C1515 C1516 1.373 . S
C1515 C1517 1.389 . S
C1516 H1489 0.950 . S
C1516 C1502 1.377 . S
C1516 C1515 1.373 . S
C1517 C1501 1.377 . S
C1517 C1515 1.389 . S
C1517 C1518 1.524 . S
C1518 C1517 1.524 . S
C1518 C1519 1.397 . S
C1518 C1523 1.363 . S
C1519 H1490 0.950 . S
C1519 C1518 1.397 . S
C1519 C1520 1.334 . S
C1520 H1491 0.950 . S
C1520 C1519 1.334 . S
C1520 C1521 1.287 . S
C1521 C1520 1.287 . S
C1521 C1522 1.524 . S
C1521 H1524 0.999 . S
C1522 H1492 0.950 . S
C1522 C1521 1.524 . S
C1522 C1523 1.415 . S
C1523 H1493 0.950 . S
C1523 C1518 1.363 . S
C1523 C1522 1.415 . S
H1524 C1521 0.999 . S
H1525 C1506 0.913 1_565 S
H1526 C1544 0.951 . S
H1527 C1546 0.951 . S
H1528 C1548 0.950 . S
H1529 C1549 0.950 . S
H1530 C1551 0.950 . S
H1531 C1554 0.950 . S
H1532 C1555 0.950 . S
H1533 C1557 0.950 . S
H1534 C1558 0.950 . S
H1535 C1559 0.951 . S
H1536 C1561 0.951 . S
H1537 C1563 0.950 . S
H1538 C1564 0.950 . S
H1539 C1566 0.950 . S
H1540 C1569 0.950 . S
H1541 C1570 0.950 . S
H1542 C1572 0.950 . S
H1543 C1573 0.950 . S
C1544 H1526 0.951 . S
C1544 C1545 1.366 . S
C1544 C1546 1.388 . S
C1545 C1544 1.366 . S
C1545 C1549 1.385 . S
C1546 H1527 0.951 . S
C1546 C1544 1.388 . S
C1546 C1547 1.366 . S
C1547 C1546 1.366 . S
C1547 C1548 1.414 . S
C1547 C1550 1.499 . S
C1548 H1528 0.950 . S
C1548 C1547 1.414 . S
C1548 C1549 1.374 . S
C1549 H1529 0.950 . S
C1549 C1545 1.385 . S
C1549 C1548 1.374 . S
C1550 C1547 1.499 . S
C1550 C1551 1.373 . S
C1550 C1552 1.389 . S
C1551 H1530 0.950 . S
C1551 C1550 1.373 . S
C1551 C1567 1.377 . S
C1552 C1550 1.389 . S
C1552 C1553 1.524 . S
C1552 C1566 1.377 . S
C1553 C1552 1.524 . S
C1553 C1554 1.397 . S
C1553 C1558 1.363 . S
C1554 H1531 0.950 . S
C1554 C1553 1.397 . S
C1554 C1555 1.334 . S
C1555 H1532 0.950 . S
C1555 C1554 1.334 . S
C1555 C1556 1.287 . S
C1556 C1555 1.287 . S
C1556 C1557 1.524 . S
C1556 H1575 0.913 . S
C1557 H1533 0.950 . S
C1557 C1556 1.524 . S
C1557 C1558 1.415 . S
C1558 H1534 0.950 . S
C1558 C1553 1.363 . S
C1558 C1557 1.415 . S
C1559 H1535 0.951 . S
C1559 C1560 1.366 . S
C1559 C1561 1.388 . S
C1560 C1559 1.366 . S
C1560 C1564 1.385 . S
C1561 H1536 0.951 . S
C1561 C1559 1.388 . S
C1561 C1562 1.366 . S
C1562 C1561 1.366 . S
C1562 C1563 1.414 . S
C1562 C1565 1.499 . S
C1563 H1537 0.950 . S
C1563 C1562 1.414 . S
C1563 C1564 1.374 . S
C1564 H1538 0.950 . S
C1564 C1560 1.385 . S
C1564 C1563 1.374 . S
C1565 C1562 1.499 . S
C1565 C1566 1.373 . S
C1565 C1567 1.389 . S
C1566 H1539 0.950 . S
C1566 C1552 1.377 . S
C1566 C1565 1.373 . S
C1567 C1551 1.377 . S
C1567 C1565 1.389 . S
C1567 C1568 1.524 . S
C1568 C1567 1.524 . S
C1568 C1569 1.397 . S
C1568 C1573 1.363 . S
C1569 H1540 0.950 . S
C1569 C1568 1.397 . S
C1569 C1570 1.334 . S
C1570 H1541 0.950 . S
C1570 C1569 1.334 . S
C1570 C1571 1.287 . S
C1571 C1570 1.287 . S
C1571 C1572 1.524 . S
C1571 H1574 0.999 . S
C1572 H1542 0.950 . S
C1572 C1571 1.524 . S
C1572 C1573 1.415 . S
C1573 H1543 0.950 . S
C1573 C1568 1.363 . S
C1573 C1572 1.415 . S
H1574 C1571 0.999 . S
H1575 C1556 0.913 . S
H1576 C1594 0.951 . S
H1577 C1596 0.951 . S
H1578 C1598 0.950 . S
H1579 C1599 0.950 . S
H1580 C1601 0.950 . S
H1581 C1604 0.950 . S
H1582 C1605 0.950 . S
H1583 C1607 0.950 . S
H1584 C1608 0.950 . S
H1585 C1609 0.951 . S
H1586 C1611 0.951 . S
H1587 C1613 0.950 . S
H1588 C1614 0.950 . S
H1589 C1616 0.950 . S
H1590 C1619 0.950 . S
H1591 C1620 0.950 . S
H1592 C1622 0.950 . S
H1593 C1623 0.950 . S
C1594 H1576 0.951 . S
C1594 C1595 1.366 . S
C1594 C1596 1.388 . S
C1595 C1594 1.366 . S
C1595 C1599 1.385 . S
C1596 H1577 0.951 . S
C1596 C1594 1.388 . S
C1596 C1597 1.366 . S
C1597 C1596 1.366 . S
C1597 C1598 1.414 . S
C1597 C1600 1.499 . S
C1598 H1578 0.950 . S
C1598 C1597 1.414 . S
C1598 C1599 1.374 . S
C1599 H1579 0.950 . S
C1599 C1595 1.385 . S
C1599 C1598 1.374 . S
C1600 C1597 1.499 . S
C1600 C1601 1.373 1_655 S
C1600 C1602 1.389 . S
C1601 H1580 0.950 . S
C1601 C1600 1.373 1_455 S
C1601 C1617 1.377 . S
C1602 C1600 1.389 . S
C1602 C1603 1.524 . S
C1602 C1616 1.377 . S
C1603 C1602 1.524 . S
C1603 C1604 1.397 . S
C1603 C1608 1.363 . S
C1604 H1581 0.950 . S
C1604 C1603 1.397 . S
C1604 C1605 1.334 . S
C1605 H1582 0.950 . S
C1605 C1604 1.334 . S
C1605 C1606 1.287 . S
C1606 C1605 1.287 . S
C1606 C1607 1.524 1_545 S
C1606 H1625 0.913 . S
C1607 H1583 0.950 . S
C1607 C1606 1.524 1_565 S
C1607 C1608 1.415 1_565 S
C1608 H1584 0.950 . S
C1608 C1603 1.363 . S
C1608 C1607 1.415 1_545 S
C1609 H1585 0.951 . S
C1609 C1610 1.366 . S
C1609 C1611 1.388 . S
C1610 C1609 1.366 . S
C1610 C1614 1.385 . S
C1611 H1586 0.951 . S
C1611 C1609 1.388 . S
C1611 C1612 1.366 . S
C1612 C1611 1.366 . S
C1612 C1613 1.414 . S
C1612 C1615 1.499 . S
C1613 H1587 0.950 . S
C1613 C1612 1.414 . S
C1613 C1614 1.374 . S
C1614 H1588 0.950 . S
C1614 C1610 1.385 . S
C1614 C1613 1.374 . S
C1615 C1612 1.499 . S
C1615 C1616 1.373 1_455 S
C1615 C1617 1.389 . S
C1616 H1589 0.950 . S
C1616 C1602 1.377 . S
C1616 C1615 1.373 1_655 S
C1617 C1601 1.377 . S
C1617 C1615 1.389 . S
C1617 C1618 1.524 . S
C1618 C1617 1.524 . S
C1618 C1619 1.397 . S
C1618 C1623 1.363 . S
C1619 H1590 0.950 . S
C1619 C1618 1.397 . S
C1619 C1620 1.334 . S
C1620 H1591 0.950 . S
C1620 C1619 1.334 . S
C1620 C1621 1.287 . S
C1621 C1620 1.287 . S
C1621 C1622 1.524 . S
C1621 H1624 0.999 . S
C1622 H1592 0.950 . S
C1622 C1621 1.524 . S
C1622 C1623 1.415 . S
C1623 H1593 0.950 . S
C1623 C1618 1.363 . S
C1623 C1622 1.415 . S
H1624 C1621 0.999 . S
H1625 C1606 0.913 . S
H1626 C1644 0.951 . S
H1627 C1646 0.951 . S
H1628 C1648 0.950 . S
H1629 C1649 0.950 . S
H1630 C1651 0.950 . S
H1631 C1654 0.950 . S
H1632 C1655 0.950 . S
H1633 C1657 0.950 . S
H1634 C1658 0.950 . S
H1635 C1659 0.951 . S
H1636 C1661 0.951 . S
H1637 C1663 0.950 . S
H1638 C1664 0.950 . S
H1639 C1666 0.950 . S
H1640 C1669 0.950 . S
H1641 C1670 0.950 . S
H1642 C1672 0.950 . S
H1643 C1673 0.950 . S
C1644 H1626 0.951 . S
C1644 C1645 1.366 . S
C1644 C1646 1.388 . S
C1645 C1644 1.366 . S
C1645 C1649 1.385 . S
C1646 H1627 0.951 . S
C1646 C1644 1.388 . S
C1646 C1647 1.366 . S
C1647 C1646 1.366 . S
C1647 C1648 1.414 . S
C1647 C1650 1.499 . S
C1648 H1628 0.950 . S
C1648 C1647 1.414 . S
C1648 C1649 1.374 . S
C1649 H1629 0.950 . S
C1649 C1645 1.385 . S
C1649 C1648 1.374 . S
C1650 C1647 1.499 . S
C1650 C1651 1.373 . S
C1650 C1652 1.389 . S
C1651 H1630 0.950 . S
C1651 C1650 1.373 . S
C1651 C1667 1.377 . S
C1652 C1650 1.389 . S
C1652 C1653 1.524 . S
C1652 C1666 1.377 . S
C1653 C1652 1.524 . S
C1653 C1654 1.397 . S
C1653 C1658 1.363 . S
C1654 H1631 0.950 . S
C1654 C1653 1.397 . S
C1654 C1655 1.334 . S
C1655 H1632 0.950 . S
C1655 C1654 1.334 . S
C1655 C1656 1.287 . S
C1656 C1655 1.287 . S
C1656 C1657 1.524 . S
C1656 H1675 0.913 . S
C1657 H1633 0.950 . S
C1657 C1656 1.524 . S
C1657 C1658 1.415 . S
C1658 H1634 0.950 . S
C1658 C1653 1.363 . S
C1658 C1657 1.415 . S
C1659 H1635 0.951 . S
C1659 C1660 1.366 . S
C1659 C1661 1.388 . S
C1660 C1659 1.366 . S
C1660 C1664 1.385 . S
C1661 H1636 0.951 . S
C1661 C1659 1.388 . S
C1661 C1662 1.366 . S
C1662 C1661 1.366 . S
C1662 C1663 1.414 . S
C1662 C1665 1.499 . S
C1663 H1637 0.950 . S
C1663 C1662 1.414 . S
C1663 C1664 1.374 . S
C1664 H1638 0.950 . S
C1664 C1660 1.385 . S
C1664 C1663 1.374 . S
C1665 C1662 1.499 . S
C1665 C1666 1.373 . S
C1665 C1667 1.389 . S
C1666 H1639 0.950 . S
C1666 C1652 1.377 . S
C1666 C1665 1.373 . S
C1667 C1651 1.377 . S
C1667 C1665 1.389 . S
C1667 C1668 1.524 . S
C1668 C1667 1.524 . S
C1668 C1669 1.397 . S
C1668 C1673 1.363 . S
C1669 H1640 0.950 . S
C1669 C1668 1.397 . S
C1669 C1670 1.334 . S
C1670 H1641 0.950 . S
C1670 C1669 1.334 . S
C1670 C1671 1.287 . S
C1671 C1670 1.287 . S
C1671 C1672 1.524 . S
C1671 H1674 0.999 . S
C1672 H1642 0.950 . S
C1672 C1671 1.524 . S
C1672 C1673 1.415 . S
C1673 H1643 0.950 . S
C1673 C1668 1.363 . S
C1673 C1672 1.415 . S
H1674 C1671 0.999 . S
H1675 C1656 0.913 . S
H1676 C1694 0.951 . S
H1677 C1696 0.951 . S
H1678 C1698 0.950 . S
H1679 C1699 0.950 . S
H1680 C1701 0.950 . S
H1681 C1704 0.950 . S
H1682 C1705 0.950 . S
H1683 C1707 0.950 . S
H1684 C1708 0.950 . S
H1685 C1709 0.951 . S
H1686 C1711 0.951 . S
H1687 C1713 0.950 . S
H1688 C1714 0.950 . S
H1689 C1716 0.950 . S
H1690 C1719 0.950 . S
H1691 C1720 0.950 . S
H1692 C1722 0.950 . S
H1693 C1723 0.950 . S
C1694 H1676 0.951 . S
C1694 C1695 1.366 . S
C1694 C1696 1.388 . S
C1695 C1694 1.366 . S
C1695 C1699 1.385 . S
C1696 H1677 0.951 . S
C1696 C1694 1.388 . S
C1696 C1697 1.366 . S
C1697 C1696 1.366 . S
C1697 C1698 1.414 . S
C1697 C1700 1.499 . S
C1698 H1678 0.950 . S
C1698 C1697 1.414 . S
C1698 C1699 1.374 . S
C1699 H1679 0.950 . S
C1699 C1695 1.385 . S
C1699 C1698 1.374 . S
C1700 C1697 1.499 . S
C1700 C1701 1.373 . S
C1700 C1702 1.389 . S
C1701 H1680 0.950 . S
C1701 C1700 1.373 . S
C1701 C1717 1.377 . S
C1702 C1700 1.389 . S
C1702 C1703 1.524 . S
C1702 C1716 1.377 . S
C1703 C1702 1.524 . S
C1703 C1704 1.397 . S
C1703 C1708 1.363 . S
C1704 H1681 0.950 . S
C1704 C1703 1.397 . S
C1704 C1705 1.334 . S
C1705 H1682 0.950 . S
C1705 C1704 1.334 . S
C1705 C1706 1.287 . S
C1706 C1705 1.287 . S
C1706 C1707 1.524 . S
C1706 H1725 0.913 . S
C1707 H1683 0.950 . S
C1707 C1706 1.524 . S
C1707 C1708 1.415 . S
C1708 H1684 0.950 . S
C1708 C1703 1.363 . S
C1708 C1707 1.415 . S
C1709 H1685 0.951 . S
C1709 C1710 1.366 . S
C1709 C1711 1.388 . S
C1710 C1709 1.366 . S
C1710 C1714 1.385 . S
C1711 H1686 0.951 . S
C1711 C1709 1.388 . S
C1711 C1712 1.366 . S
C1712 C1711 1.366 . S
C1712 C1713 1.414 . S
C1712 C1715 1.499 . S
C1713 H1687 0.950 . S
C1713 C1712 1.414 . S
C1713 C1714 1.374 . S
C1714 H1688 0.950 . S
C1714 C1710 1.385 . S
C1714 C1713 1.374 . S
C1715 C1712 1.499 . S
C1715 C1716 1.373 . S
C1715 C1717 1.389 . S
C1716 H1689 0.950 . S
C1716 C1702 1.377 . S
C1716 C1715 1.373 . S
C1717 C1701 1.377 . S
C1717 C1715 1.389 . S
C1717 C1718 1.524 . S
C1718 C1717 1.524 . S
C1718 C1719 1.397 . S
C1718 C1723 1.363 . S
C1719 H1690 0.950 . S
C1719 C1718 1.397 . S
C1719 C1720 1.334 . S
C1720 H1691 0.950 . S
C1720 C1719 1.334 . S
C1720 C1721 1.287 . S
C1721 C1720 1.287 . S
C1721 C1722 1.524 . S
C1721 H1724 0.999 . S
C1722 H1692 0.950 . S
C1722 C1721 1.524 . S
C1722 C1723 1.415 . S
C1723 H1693 0.950 . S
C1723 C1718 1.363 . S
C1723 C1722 1.415 . S
H1724 C1721 0.999 . S
H1725 C1706 0.913 . S
H1726 C1744 0.951 . S
H1727 C1746 0.951 . S
H1728 C1748 0.950 . S
H1729 C1749 0.950 . S
H1730 C1751 0.950 . S
H1731 C1754 0.950 . S
H1732 C1755 0.950 . S
H1733 C1757 0.950 . S
H1734 C1758 0.950 . S
H1735 C1759 0.951 . S
H1736 C1761 0.951 . S
H1737 C1763 0.950 . S
H1738 C1764 0.950 . S
H1739 C1766 0.950 . S
H1740 C1769 0.950 . S
H1741 C1770 0.950 . S
H1742 C1772 0.950 . S
H1743 C1773 0.950 . S
C1744 H1726 0.951 . S
C1744 C1745 1.366 . S
C1744 C1746 1.388 . S
C1745 C1744 1.366 . S
C1745 C1749 1.385 . S
C1746 H1727 0.951 . S
C1746 C1744 1.388 . S
C1746 C1747 1.366 . S
C1747 C1746 1.366 . S
C1747 C1748 1.414 . S
C1747 C1750 1.499 . S
C1748 H1728 0.950 . S
C1748 C1747 1.414 . S
C1748 C1749 1.374 . S
C1749 H1729 0.950 . S
C1749 C1745 1.385 . S
C1749 C1748 1.374 . S
C1750 C1747 1.499 . S
C1750 C1751 1.373 . S
C1750 C1752 1.389 . S
C1751 H1730 0.950 . S
C1751 C1750 1.373 . S
C1751 C1767 1.377 . S
C1752 C1750 1.389 . S
C1752 C1753 1.524 . S
C1752 C1766 1.377 . S
C1753 C1752 1.524 . S
C1753 C1754 1.397 . S
C1753 C1758 1.363 . S
C1754 H1731 0.950 . S
C1754 C1753 1.397 . S
C1754 C1755 1.334 . S
C1755 H1732 0.950 . S
C1755 C1754 1.334 . S
C1755 C1756 1.287 . S
C1756 C1755 1.287 . S
C1756 C1757 1.524 . S
C1756 H1775 0.913 . S
C1757 H1733 0.950 . S
C1757 C1756 1.524 . S
C1757 C1758 1.415 . S
C1758 H1734 0.950 . S
C1758 C1753 1.363 . S
C1758 C1757 1.415 . S
C1759 H1735 0.951 . S
C1759 C1760 1.366 . S
C1759 C1761 1.388 . S
C1760 C1759 1.366 . S
C1760 C1764 1.385 . S
C1761 H1736 0.951 . S
C1761 C1759 1.388 . S
C1761 C1762 1.366 . S
C1762 C1761 1.366 . S
C1762 C1763 1.414 . S
C1762 C1765 1.499 . S
C1763 H1737 0.950 . S
C1763 C1762 1.414 . S
C1763 C1764 1.374 . S
C1764 H1738 0.950 . S
C1764 C1760 1.385 . S
C1764 C1763 1.374 . S
C1765 C1762 1.499 . S
C1765 C1766 1.373 . S
C1765 C1767 1.389 . S
C1766 H1739 0.950 . S
C1766 C1752 1.377 . S
C1766 C1765 1.373 . S
C1767 C1751 1.377 . S
C1767 C1765 1.389 . S
C1767 C1768 1.524 . S
C1768 C1767 1.524 . S
C1768 C1769 1.397 . S
C1768 C1773 1.363 . S
C1769 H1740 0.950 . S
C1769 C1768 1.397 . S
C1769 C1770 1.334 . S
C1770 H1741 0.950 . S
C1770 C1769 1.334 . S
C1770 C1771 1.287 . S
C1771 C1770 1.287 . S
C1771 C1772 1.524 . S
C1771 H1774 0.999 . S
C1772 H1742 0.950 . S
C1772 C1771 1.524 . S
C1772 C1773 1.415 . S
C1773 H1743 0.950 . S
C1773 C1768 1.363 . S
C1773 C1772 1.415 . S
H1774 C1771 0.999 . S
H1775 C1756 0.913 . S
H1776 C1794 0.951 . S
H1777 C1796 0.951 . S
H1778 C1798 0.950 . S
H1779 C1799 0.950 . S
H1780 C1801 0.950 . S
H1781 C1804 0.950 . S
H1782 C1805 0.950 . S
H1783 C1807 0.950 . S
H1784 C1808 0.950 . S
H1785 C1809 0.951 . S
H1786 C1811 0.951 . S
H1787 C1813 0.950 . S
H1788 C1814 0.950 . S
H1789 C1816 0.950 . S
H1790 C1819 0.950 . S
H1791 C1820 0.950 . S
H1792 C1822 0.950 . S
H1793 C1823 0.950 . S
C1794 H1776 0.951 . S
C1794 C1795 1.366 . S
C1794 C1796 1.388 . S
C1795 C1794 1.366 . S
C1795 C1799 1.385 . S
C1796 H1777 0.951 . S
C1796 C1794 1.388 . S
C1796 C1797 1.366 . S
C1797 C1796 1.366 . S
C1797 C1798 1.414 . S
C1797 C1800 1.499 . S
C1798 H1778 0.950 . S
C1798 C1797 1.414 . S
C1798 C1799 1.374 . S
C1799 H1779 0.950 . S
C1799 C1795 1.385 . S
C1799 C1798 1.374 . S
C1800 C1797 1.499 . S
C1800 C1801 1.373 . S
C1800 C1802 1.389 . S
C1801 H1780 0.950 . S
C1801 C1800 1.373 . S
C1801 C1817 1.377 . S
C1802 C1800 1.389 . S
C1802 C1803 1.524 1_554 S
C1802 C1816 1.377 . S
C1803 C1802 1.524 1_556 S
C1803 C1804 1.397 . S
C1803 C1808 1.363 . S
C1804 H1781 0.950 . S
C1804 C1803 1.397 . S
C1804 C1805 1.334 . S
C1805 H1782 0.950 . S
C1805 C1804 1.334 . S
C1805 C1806 1.287 . S
C1806 C1805 1.287 . S
C1806 C1807 1.524 . S
C1806 H1825 0.913 . S
C1807 H1783 0.950 . S
C1807 C1806 1.524 . S
C1807 C1808 1.415 . S
C1808 H1784 0.950 . S
C1808 C1803 1.363 . S
C1808 C1807 1.415 . S
C1809 H1785 0.951 . S
C1809 C1810 1.366 . S
C1809 C1811 1.388 . S
C1810 C1809 1.366 . S
C1810 C1814 1.385 1_545 S
C1811 H1786 0.951 . S
C1811 C1809 1.388 . S
C1811 C1812 1.366 1_545 S
C1812 C1811 1.366 1_565 S
C1812 C1813 1.414 . S
C1812 C1815 1.499 . S
C1813 H1787 0.950 . S
C1813 C1812 1.414 . S
C1813 C1814 1.374 . S
C1814 H1788 0.950 . S
C1814 C1810 1.385 1_565 S
C1814 C1813 1.374 . S
C1815 C1812 1.499 . S
C1815 C1816 1.373 . S
C1815 C1817 1.389 . S
C1816 H1789 0.950 . S
C1816 C1802 1.377 . S
C1816 C1815 1.373 . S
C1817 C1801 1.377 . S
C1817 C1815 1.389 . S
C1817 C1818 1.524 . S
C1818 C1817 1.524 . S
C1818 C1819 1.397 . S
C1818 C1823 1.363 1_565 S
C1819 H1790 0.950 . S
C1819 C1818 1.397 . S
C1819 C1820 1.334 . S
C1820 H1791 0.950 . S
C1820 C1819 1.334 . S
C1820 C1821 1.287 1_565 S
C1821 C1820 1.287 1_545 S
C1821 C1822 1.524 . S
C1821 H1824 0.999 . S
C1822 H1792 0.950 . S
C1822 C1821 1.524 . S
C1822 C1823 1.415 . S
C1823 H1793 0.950 . S
C1823 C1818 1.363 1_545 S
C1823 C1822 1.415 . S
H1824 C1821 0.999 . S
H1825 C1806 0.913 . S
H1826 C1844 0.951 . S
H1827 C1846 0.951 . S
H1828 C1848 0.950 1_556 S
H1829 C1849 0.950 1_556 S
H1830 C1851 0.950 . S
H1831 C1854 0.950 . S
H1832 C1855 0.950 . S
H1833 C1857 0.950 . S
H1834 C1858 0.950 . S
H1835 C1859 0.941 1_556 S
H1836 C1861 0.950 1_556 S
H1837 C1863 0.950 . S
H1838 C1864 0.950 . S
H1839 C1866 0.950 . S
H1840 C1869 0.950 . S
H1841 C1870 0.950 . S
H1842 C1872 0.950 . S
H1843 C1873 0.950 . S
C1844 H1826 0.951 . S
C1844 C1845 1.366 . S
C1844 C1846 1.388 . S
C1845 C1844 1.366 . S
C1845 C1849 1.385 . S
C1846 H1827 0.951 . S
C1846 C1844 1.388 . S
C1846 C1847 1.366 . S
C1847 C1846 1.366 . S
C1847 C1848 1.414 . S
C1847 C1850 1.499 . S
C1848 H1828 0.950 1_554 S
C1848 C1847 1.414 . S
C1848 C1849 1.374 . S
C1849 H1829 0.950 1_554 S
C1849 C1845 1.385 . S
C1849 C1848 1.374 . S
C1850 C1847 1.499 . S
C1850 C1851 1.373 . S
C1850 C1852 1.389 . S
C1851 H1830 0.950 . S
C1851 C1850 1.373 . S
C1851 C1867 1.377 . S
C1852 C1850 1.389 . S
C1852 C1853 1.524 1_554 S
C1852 C1866 1.377 . S
C1853 C1852 1.524 1_556 S
C1853 C1854 1.397 . S
C1853 C1858 1.363 1_556 S
C1854 H1831 0.950 . S
C1854 C1853 1.397 . S
C1854 C1855 1.334 . S
C1855 H1832 0.950 . S
C1855 C1854 1.334 . S
C1855 C1856 1.287 . S
C1856 C1855 1.287 . S
C1856 C1857 1.524 . S
C1856 H1875 0.913 . S
C1857 H1833 0.950 . S
C1857 C1856 1.524 . S
C1857 C1858 1.415 1_556 S
C1858 H1834 0.950 . S
C1858 C1853 1.363 1_554 S
C1858 C1857 1.415 1_554 S
C1859 H1835 0.941 1_554 S
C1859 C1860 1.366 . S
C1859 C1861 1.388 . S
C1860 C1859 1.366 . S
C1860 C1864 1.385 . S
C1861 H1836 0.950 1_554 S
C1861 C1859 1.388 . S
C1861 C1862 1.366 . S
C1862 C1861 1.366 . S
C1862 C1863 1.414 . S
C1862 C1865 1.499 . S
C1863 H1837 0.950 . S
C1863 C1862 1.414 . S
C1863 C1864 1.374 . S
C1864 H1838 0.950 . S
C1864 C1860 1.385 . S
C1864 C1863 1.374 . S
C1865 C1862 1.499 . S
C1865 C1866 1.373 . S
C1865 C1867 1.389 . S
C1866 H1839 0.950 . S
C1866 C1852 1.377 . S
C1866 C1865 1.373 . S
C1867 C1851 1.377 . S
C1867 C1865 1.389 . S
C1867 C1868 1.524 . S
C1868 C1867 1.524 . S
C1868 C1869 1.397 . S
C1868 C1873 1.363 . S
C1869 H1840 0.950 . S
C1869 C1868 1.397 . S
C1869 C1870 1.334 . S
C1870 H1841 0.950 . S
C1870 C1869 1.334 . S
C1870 C1871 1.287 . S
C1871 C1870 1.287 . S
C1871 C1872 1.524 . S
C1871 H1874 0.999 . S
C1872 H1842 0.950 . S
C1872 C1871 1.524 . S
C1872 C1873 1.415 . S
C1873 H1843 0.950 . S
C1873 C1868 1.363 . S
C1873 C1872 1.415 . S
H1874 C1871 0.999 . S
H1875 C1856 0.913 . S
H1876 C1894 0.951 . S
H1877 C1896 0.951 . S
H1878 C1898 0.950 . S
H1879 C1899 0.950 . S
H1880 C1901 0.950 . S
H1881 C1904 0.950 . S
H1882 C1905 0.950 . S
H1883 C1907 0.950 . S
H1884 C1908 0.950 . S
H1885 C1909 0.951 . S
H1886 C1911 0.951 . S
H1887 C1913 0.950 . S
H1888 C1914 0.950 . S
H1889 C1916 0.950 . S
H1890 C1919 0.950 . S
H1891 C1920 0.950 . S
H1892 C1922 0.950 . S
H1893 C1923 0.950 . S
C1894 H1876 0.951 . S
C1894 C1895 1.366 . S
C1894 C1896 1.388 . S
C1895 C1894 1.366 . S
C1895 C1899 1.385 . S
C1896 H1877 0.951 . S
C1896 C1894 1.388 . S
C1896 C1897 1.366 . S
C1897 C1896 1.366 . S
C1897 C1898 1.414 . S
C1897 C1900 1.499 . S
C1898 H1878 0.950 . S
C1898 C1897 1.414 . S
C1898 C1899 1.374 . S
C1899 H1879 0.950 . S
C1899 C1895 1.385 . S
C1899 C1898 1.374 . S
C1900 C1897 1.499 . S
C1900 C1901 1.373 . S
C1900 C1902 1.389 . S
C1901 H1880 0.950 . S
C1901 C1900 1.373 . S
C1901 C1917 1.377 . S
C1902 C1900 1.389 . S
C1902 C1903 1.524 . S
C1902 C1916 1.377 . S
C1903 C1902 1.524 . S
C1903 C1904 1.397 . S
C1903 C1908 1.363 . S
C1904 H1881 0.950 . S
C1904 C1903 1.397 . S
C1904 C1905 1.334 . S
C1905 H1882 0.950 . S
C1905 C1904 1.334 . S
C1905 C1906 1.287 . S
C1906 C1905 1.287 . S
C1906 C1907 1.524 . S
C1906 H1925 0.913 . S
C1907 H1883 0.950 . S
C1907 C1906 1.524 . S
C1907 C1908 1.415 . S
C1908 H1884 0.950 . S
C1908 C1903 1.363 . S
C1908 C1907 1.415 . S
C1909 H1885 0.951 . S
C1909 C1910 1.366 . S
C1909 C1911 1.388 . S
C1910 C1909 1.366 . S
C1910 C1914 1.385 . S
C1911 H1886 0.951 . S
C1911 C1909 1.388 . S
C1911 C1912 1.366 . S
C1912 C1911 1.366 . S
C1912 C1913 1.414 . S
C1912 C1915 1.499 . S
C1913 H1887 0.950 . S
C1913 C1912 1.414 . S
C1913 C1914 1.374 . S
C1914 H1888 0.950 . S
C1914 C1910 1.385 . S
C1914 C1913 1.374 . S
C1915 C1912 1.499 . S
C1915 C1916 1.373 . S
C1915 C1917 1.389 . S
C1916 H1889 0.950 . S
C1916 C1902 1.377 . S
C1916 C1915 1.373 . S
C1917 C1901 1.377 . S
C1917 C1915 1.389 . S
C1917 C1918 1.524 . S
C1918 C1917 1.524 . S
C1918 C1919 1.397 . S
C1918 C1923 1.363 . S
C1919 H1890 0.950 . S
C1919 C1918 1.397 . S
C1919 C1920 1.334 . S
C1920 H1891 0.950 . S
C1920 C1919 1.334 . S
C1920 C1921 1.287 . S
C1921 C1920 1.287 . S
C1921 C1922 1.524 . S
C1921 H1924 0.999 . S
C1922 H1892 0.950 . S
C1922 C1921 1.524 . S
C1922 C1923 1.415 . S
C1923 H1893 0.950 . S
C1923 C1918 1.363 . S
C1923 C1922 1.415 . S
H1924 C1921 0.999 . S
H1925 C1906 0.913 . S
H1926 C1944 0.951 . S
H1927 C1946 0.951 . S
H1928 C1948 0.950 . S
H1929 C1949 0.950 . S
H1930 C1951 0.950 . S
H1931 C1954 0.950 . S
H1932 C1955 0.950 . S
H1933 C1957 0.950 . S
H1934 C1958 0.950 . S
H1935 C1959 0.951 . S
H1936 C1961 0.951 . S
H1937 C1963 0.950 . S
H1938 C1964 0.950 . S
H1939 C1966 0.950 . S
H1940 C1969 0.950 . S
H1941 C1970 0.950 . S
H1942 C1972 0.950 . S
H1943 C1973 0.950 . S
C1944 H1926 0.951 . S
C1944 C1945 1.366 . S
C1944 C1946 1.388 . S
C1945 C1944 1.366 . S
C1945 C1949 1.385 . S
C1946 H1927 0.951 . S
C1946 C1944 1.388 . S
C1946 C1947 1.366 . S
C1947 C1946 1.366 . S
C1947 C1948 1.414 . S
C1947 C1950 1.499 . S
C1948 H1928 0.950 . S
C1948 C1947 1.414 . S
C1948 C1949 1.374 . S
C1949 H1929 0.950 . S
C1949 C1945 1.385 . S
C1949 C1948 1.374 . S
C1950 C1947 1.499 . S
C1950 C1951 1.373 . S
C1950 C1952 1.389 . S
C1951 H1930 0.950 . S
C1951 C1950 1.373 . S
C1951 C1967 1.377 . S
C1952 C1950 1.389 . S
C1952 C1953 1.524 . S
C1952 C1966 1.377 . S
C1953 C1952 1.524 . S
C1953 C1954 1.397 . S
C1953 C1958 1.363 . S
C1954 H1931 0.950 . S
C1954 C1953 1.397 . S
C1954 C1955 1.334 . S
C1955 H1932 0.950 . S
C1955 C1954 1.334 . S
C1955 C1956 1.287 . S
C1956 C1955 1.287 . S
C1956 C1957 1.524 . S
C1956 H1975 0.913 . S
C1957 H1933 0.950 . S
C1957 C1956 1.524 . S
C1957 C1958 1.415 . S
C1958 H1934 0.950 . S
C1958 C1953 1.363 . S
C1958 C1957 1.415 . S
C1959 H1935 0.951 . S
C1959 C1960 1.366 . S
C1959 C1961 1.388 . S
C1960 C1959 1.366 . S
C1960 C1964 1.385 . S
C1961 H1936 0.951 . S
C1961 C1959 1.388 . S
C1961 C1962 1.366 . S
C1962 C1961 1.366 . S
C1962 C1963 1.414 . S
C1962 C1965 1.499 . S
C1963 H1937 0.950 . S
C1963 C1962 1.414 . S
C1963 C1964 1.374 . S
C1964 H1938 0.950 . S
C1964 C1960 1.385 . S
C1964 C1963 1.374 . S
C1965 C1962 1.499 . S
C1965 C1966 1.373 . S
C1965 C1967 1.389 . S
C1966 H1939 0.950 . S
C1966 C1952 1.377 . S
C1966 C1965 1.373 . S
C1967 C1951 1.377 . S
C1967 C1965 1.389 . S
C1967 C1968 1.524 . S
C1968 C1967 1.524 . S
C1968 C1969 1.397 . S
C1968 C1973 1.363 . S
C1969 H1940 0.950 . S
C1969 C1968 1.397 . S
C1969 C1970 1.334 . S
C1970 H1941 0.950 . S
C1970 C1969 1.334 . S
C1970 C1971 1.287 . S
C1971 C1970 1.287 . S
C1971 C1972 1.524 . S
C1971 H1974 0.999 . S
C1972 H1942 0.950 . S
C1972 C1971 1.524 . S
C1972 C1973 1.415 . S
C1973 H1943 0.950 . S
C1973 C1968 1.363 . S
C1973 C1972 1.415 . S
H1974 C1971 0.999 . S
H1975 C1956 0.913 . S
H1976 C1994 0.951 . S
H1977 C1996 0.951 . S
H1978 C1998 0.950 . S
H1979 C1999 0.950 . S
H1980 C2001 0.950 . S
H1981 C2004 0.950 . S
H1982 C2005 0.950 . S
H1983 C2007 0.950 . S
H1984 C2008 0.950 . S
H1985 C2009 0.951 . S
H1986 C2011 0.951 . S
H1987 C2013 0.950 . S
H1988 C2014 0.950 . S
H1989 C2016 0.950 . S
H1990 C2019 0.950 . S
H1991 C2020 0.950 . S
H1992 C2022 0.950 . S
H1993 C2023 0.950 . S
C1994 H1976 0.951 . S
C1994 C1995 1.366 . S
C1994 C1996 1.388 . S
C1995 C1994 1.366 . S
C1995 C1999 1.385 . S
C1996 H1977 0.951 . S
C1996 C1994 1.388 . S
C1996 C1997 1.366 . S
C1997 C1996 1.366 . S
C1997 C1998 1.414 . S
C1997 C2000 1.499 . S
C1998 H1978 0.950 . S
C1998 C1997 1.414 . S
C1998 C1999 1.374 . S
C1999 H1979 0.950 . S
C1999 C1995 1.385 . S
C1999 C1998 1.374 . S
C2000 C1997 1.499 . S
C2000 C2001 1.373 . S
C2000 C2002 1.389 . S
C2001 H1980 0.950 . S
C2001 C2000 1.373 . S
C2001 C2017 1.377 . S
C2002 C2000 1.389 . S
C2002 C2003 1.524 . S
C2002 C2016 1.377 . S
C2003 C2002 1.524 . S
C2003 C2004 1.397 . S
C2003 C2008 1.363 . S
C2004 H1981 0.950 . S
C2004 C2003 1.397 . S
C2004 C2005 1.334 . S
C2005 H1982 0.950 . S
C2005 C2004 1.334 . S
C2005 C2006 1.287 . S
C2006 C2005 1.287 . S
C2006 C2007 1.524 . S
C2006 H2025 0.913 . S
C2007 H1983 0.950 . S
C2007 C2006 1.524 . S
C2007 C2008 1.415 . S
C2008 H1984 0.950 . S
C2008 C2003 1.363 . S
C2008 C2007 1.415 . S
C2009 H1985 0.951 . S
C2009 C2010 1.366 . S
C2009 C2011 1.388 . S
C2010 C2009 1.366 . S
C2010 C2014 1.385 . S
C2011 H1986 0.951 . S
C2011 C2009 1.388 . S
C2011 C2012 1.366 . S
C2012 C2011 1.366 . S
C2012 C2013 1.414 . S
C2012 C2015 1.499 . S
C2013 H1987 0.950 . S
C2013 C2012 1.414 . S
C2013 C2014 1.374 . S
C2014 H1988 0.950 . S
C2014 C2010 1.385 . S
C2014 C2013 1.374 . S
C2015 C2012 1.499 . S
C2015 C2016 1.373 . S
C2015 C2017 1.389 . S
C2016 H1989 0.950 . S
C2016 C2002 1.377 . S
C2016 C2015 1.373 . S
C2017 C2001 1.377 . S
C2017 C2015 1.389 . S
C2017 C2018 1.524 . S
C2018 C2017 1.524 . S
C2018 C2019 1.397 . S
C2018 C2023 1.363 . S
C2019 H1990 0.950 . S
C2019 C2018 1.397 . S
C2019 C2020 1.334 . S
C2020 H1991 0.950 . S
C2020 C2019 1.334 . S
C2020 C2021 1.287 . S
C2021 C2020 1.287 . S
C2021 C2022 1.524 . S
C2021 H2024 0.999 . S
C2022 H1992 0.950 . S
C2022 C2021 1.524 . S
C2022 C2023 1.415 . S
C2023 H1993 0.950 . S
C2023 C2018 1.363 . S
C2023 C2022 1.415 . S
H2024 C2021 0.999 . S
H2025 C2006 0.913 . S
H2026 C2044 0.951 . S
H2027 C2046 0.951 . S
H2028 C2048 0.950 . S
H2029 C2049 0.950 . S
H2030 C2051 0.950 . S
H2031 C2054 0.950 . S
H2032 C2055 0.950 . S
H2033 C2057 0.950 . S
H2034 C2058 0.950 . S
H2035 C2059 0.951 . S
H2036 C2061 0.951 . S
H2037 C2063 0.950 . S
H2038 C2064 0.950 . S
H2039 C2066 0.950 . S
H2040 C2069 0.950 . S
H2041 C2070 0.950 . S
H2042 C2072 0.950 . S
H2043 C2073 0.950 . S
C2044 H2026 0.951 . S
C2044 C2045 1.366 . S
C2044 C2046 1.388 . S
C2045 C2044 1.366 . S
C2045 C2049 1.385 . S
C2046 H2027 0.951 . S
C2046 C2044 1.388 . S
C2046 C2047 1.366 . S
C2047 C2046 1.366 . S
C2047 C2048 1.414 . S
C2047 C2050 1.499 . S
C2048 H2028 0.950 . S
C2048 C2047 1.414 . S
C2048 C2049 1.374 . S
C2049 H2029 0.950 . S
C2049 C2045 1.385 . S
C2049 C2048 1.374 . S
C2050 C2047 1.499 . S
C2050 C2051 1.373 . S
C2050 C2052 1.389 . S
C2051 H2030 0.950 . S
C2051 C2050 1.373 . S
C2051 C2067 1.377 . S
C2052 C2050 1.389 . S
C2052 C2053 1.524 . S
C2052 C2066 1.377 . S
C2053 C2052 1.524 . S
C2053 C2054 1.397 . S
C2053 C2058 1.363 . S
C2054 H2031 0.950 . S
C2054 C2053 1.397 . S
C2054 C2055 1.334 . S
C2055 H2032 0.950 . S
C2055 C2054 1.334 . S
C2055 C2056 1.287 . S
C2056 C2055 1.287 . S
C2056 C2057 1.524 . S
C2056 H2075 0.913 . S
C2057 H2033 0.950 . S
C2057 C2056 1.524 . S
C2057 C2058 1.415 . S
C2058 H2034 0.950 . S
C2058 C2053 1.363 . S
C2058 C2057 1.415 . S
C2059 H2035 0.951 . S
C2059 C2060 1.366 . S
C2059 C2061 1.388 . S
C2060 C2059 1.366 . S
C2060 C2064 1.385 . S
C2061 H2036 0.951 . S
C2061 C2059 1.388 . S
C2061 C2062 1.366 . S
C2062 C2061 1.366 . S
C2062 C2063 1.414 . S
C2062 C2065 1.499 . S
C2063 H2037 0.950 . S
C2063 C2062 1.414 . S
C2063 C2064 1.374 . S
C2064 H2038 0.950 . S
C2064 C2060 1.385 . S
C2064 C2063 1.374 . S
C2065 C2062 1.499 . S
C2065 C2066 1.373 . S
C2065 C2067 1.389 . S
C2066 H2039 0.950 . S
C2066 C2052 1.377 . S
C2066 C2065 1.373 . S
C2067 C2051 1.377 . S
C2067 C2065 1.389 . S
C2067 C2068 1.524 . S
C2068 C2067 1.524 . S
C2068 C2069 1.397 . S
C2068 C2073 1.363 . S
C2069 H2040 0.950 . S
C2069 C2068 1.397 . S
C2069 C2070 1.334 . S
C2070 H2041 0.950 . S
C2070 C2069 1.334 . S
C2070 C2071 1.287 . S
C2071 C2070 1.287 . S
C2071 C2072 1.524 . S
C2071 H2074 0.999 . S
C2072 H2042 0.950 . S
C2072 C2071 1.524 . S
C2072 C2073 1.415 . S
C2073 H2043 0.950 . S
C2073 C2068 1.363 . S
C2073 C2072 1.415 . S
H2074 C2071 0.999 . S
H2075 C2056 0.913 . S
H2076 C2094 0.951 . S
H2077 C2096 0.951 . S
H2078 C2098 0.950 . S
H2079 C2099 0.950 . S
H2080 C2101 0.950 . S
H2081 C2104 0.950 . S
H2082 C2105 0.950 . S
H2083 C2107 0.950 . S
H2084 C2108 0.950 . S
H2085 C2109 0.951 . S
H2086 C2111 0.951 . S
H2087 C2113 0.950 . S
H2088 C2114 0.950 . S
H2089 C2116 0.950 . S
H2090 C2119 0.950 . S
H2091 C2120 0.950 . S
H2092 C2122 0.950 . S
H2093 C2123 0.950 . S
C2094 H2076 0.951 . S
C2094 C2095 1.366 . S
C2094 C2096 1.388 . S
C2095 C2094 1.366 . S
C2095 C2099 1.385 . S
C2096 H2077 0.951 . S
C2096 C2094 1.388 . S
C2096 C2097 1.366 . S
C2097 C2096 1.366 . S
C2097 C2098 1.414 . S
C2097 C2100 1.499 . S
C2098 H2078 0.950 . S
C2098 C2097 1.414 . S
C2098 C2099 1.374 . S
C2099 H2079 0.950 . S
C2099 C2095 1.385 . S
C2099 C2098 1.374 . S
C2100 C2097 1.499 . S
C2100 C2101 1.373 . S
C2100 C2102 1.389 . S
C2101 H2080 0.950 . S
C2101 C2100 1.373 . S
C2101 C2117 1.377 . S
C2102 C2100 1.389 . S
C2102 C2103 1.524 . S
C2102 C2116 1.377 . S
C2103 C2102 1.524 . S
C2103 C2104 1.397 . S
C2103 C2108 1.363 . S
C2104 H2081 0.950 . S
C2104 C2103 1.397 . S
C2104 C2105 1.334 . S
C2105 H2082 0.950 . S
C2105 C2104 1.334 . S
C2105 C2106 1.287 . S
C2106 C2105 1.287 . S
C2106 C2107 1.524 . S
C2106 H2125 0.913 . S
C2107 H2083 0.950 . S
C2107 C2106 1.524 . S
C2107 C2108 1.415 . S
C2108 H2084 0.950 . S
C2108 C2103 1.363 . S
C2108 C2107 1.415 . S
C2109 H2085 0.951 . S
C2109 C2110 1.366 . S
C2109 C2111 1.388 . S
C2110 C2109 1.366 . S
C2110 C2114 1.385 . S
C2111 H2086 0.951 . S
C2111 C2109 1.388 . S
C2111 C2112 1.366 . S
C2112 C2111 1.366 . S
C2112 C2113 1.414 . S
C2112 C2115 1.499 . S
C2113 H2087 0.950 . S
C2113 C2112 1.414 . S
C2113 C2114 1.374 . S
C2114 H2088 0.950 . S
C2114 C2110 1.385 . S
C2114 C2113 1.374 . S
C2115 C2112 1.499 . S
C2115 C2116 1.373 . S
C2115 C2117 1.389 . S
C2116 H2089 0.950 . S
C2116 C2102 1.377 . S
C2116 C2115 1.373 . S
C2117 C2101 1.377 . S
C2117 C2115 1.389 . S
C2117 C2118 1.524 . S
C2118 C2117 1.524 . S
C2118 C2119 1.397 . S
C2118 C2123 1.363 . S
C2119 H2090 0.950 . S
C2119 C2118 1.397 . S
C2119 C2120 1.334 . S
C2120 H2091 0.950 . S
C2120 C2119 1.334 . S
C2120 C2121 1.287 . S
C2121 C2120 1.287 . S
C2121 C2122 1.524 . S
C2121 H2124 0.999 . S
C2122 H2092 0.950 . S
C2122 C2121 1.524 . S
C2122 C2123 1.415 . S
C2123 H2093 0.950 . S
C2123 C2118 1.363 . S
C2123 C2122 1.415 . S
H2124 C2121 0.999 . S
H2125 C2106 0.913 . S
H2126 C2144 0.951 . S
H2127 C2146 0.951 . S
H2128 C2148 0.950 . S
H2129 C2149 0.950 . S
H2130 C2151 0.950 . S
H2131 C2154 0.950 . S
H2132 C2155 0.950 . S
H2133 C2157 0.950 . S
H2134 C2158 0.950 . S
H2135 C2159 0.951 . S
H2136 C2161 0.951 . S
H2137 C2163 0.950 . S
H2138 C2164 0.950 . S
H2139 C2166 0.950 . S
H2140 C2169 0.950 . S
H2141 C2170 0.950 . S
H2142 C2172 0.950 . S
H2143 C2173 0.950 . S
C2144 H2126 0.951 . S
C2144 C2145 1.366 . S
C2144 C2146 1.388 . S
C2145 C2144 1.366 . S
C2145 C2149 1.385 . S
C2146 H2127 0.951 . S
C2146 C2144 1.388 . S
C2146 C2147 1.366 . S
C2147 C2146 1.366 . S
C2147 C2148 1.414 . S
C2147 C2150 1.499 . S
C2148 H2128 0.950 . S
C2148 C2147 1.414 . S
C2148 C2149 1.374 . S
C2149 H2129 0.950 . S
C2149 C2145 1.385 . S
C2149 C2148 1.374 . S
C2150 C2147 1.499 . S
C2150 C2151 1.373 . S
C2150 C2152 1.389 . S
C2151 H2130 0.950 . S
C2151 C2150 1.373 . S
C2151 C2167 1.377 . S
C2152 C2150 1.389 . S
C2152 C2153 1.524 . S
C2152 C2166 1.377 . S
C2153 C2152 1.524 . S
C2153 C2154 1.397 . S
C2153 C2158 1.363 . S
C2154 H2131 0.950 . S
C2154 C2153 1.397 . S
C2154 C2155 1.334 . S
C2155 H2132 0.950 . S
C2155 C2154 1.334 . S
C2155 C2156 1.287 . S
C2156 C2155 1.287 . S
C2156 C2157 1.524 . S
C2156 H2175 0.913 . S
C2157 H2133 0.950 . S
C2157 C2156 1.524 . S
C2157 C2158 1.415 . S
C2158 H2134 0.950 . S
C2158 C2153 1.363 . S
C2158 C2157 1.415 . S
C2159 H2135 0.951 . S
C2159 C2160 1.366 . S
C2159 C2161 1.388 . S
C2160 C2159 1.366 . S
C2160 C2164 1.385 . S
C2161 H2136 0.951 . S
C2161 C2159 1.388 . S
C2161 C2162 1.366 . S
C2162 C2161 1.366 . S
C2162 C2163 1.414 . S
C2162 C2165 1.499 . S
C2163 H2137 0.950 . S
C2163 C2162 1.414 . S
C2163 C2164 1.374 . S
C2164 H2138 0.950 . S
C2164 C2160 1.385 . S
C2164 C2163 1.374 . S
C2165 C2162 1.499 . S
C2165 C2166 1.373 . S
C2165 C2167 1.389 . S
C2166 H2139 0.950 . S
C2166 C2152 1.377 . S
C2166 C2165 1.373 . S
C2167 C2151 1.377 . S
C2167 C2165 1.389 . S
C2167 C2168 1.524 . S
C2168 C2167 1.524 . S
C2168 C2169 1.397 . S
C2168 C2173 1.363 . S
C2169 H2140 0.950 . S
C2169 C2168 1.397 . S
C2169 C2170 1.334 . S
C2170 H2141 0.950 . S
C2170 C2169 1.334 . S
C2170 C2171 1.287 . S
C2171 C2170 1.287 . S
C2171 C2172 1.524 . S
C2171 H2174 0.999 . S
C2172 H2142 0.950 . S
C2172 C2171 1.524 . S
C2172 C2173 1.415 . S
C2173 H2143 0.950 . S
C2173 C2168 1.363 . S
C2173 C2172 1.415 . S
H2174 C2171 0.999 . S
H2175 C2156 0.913 . S
H2176 C2194 0.951 . S
H2177 C2196 0.951 . S
H2178 C2198 0.950 . S
H2179 C2199 0.950 . S
H2180 C2201 0.950 . S
H2181 C2204 0.950 . S
H2182 C2205 0.950 . S
H2183 C2207 0.950 . S
H2184 C2208 0.950 . S
H2185 C2209 0.951 . S
H2186 C2211 0.951 . S
H2187 C2213 0.950 . S
H2188 C2214 0.950 . S
H2189 C2216 0.950 . S
H2190 C2219 0.950 . S
H2191 C2220 0.950 1_655 S
H2192 C2222 0.950 . S
H2193 C2223 0.950 . S
C2194 H2176 0.951 . S
C2194 C2195 1.366 . S
C2194 C2196 1.388 . S
C2195 C2194 1.366 . S
C2195 C2199 1.385 . S
C2196 H2177 0.951 . S
C2196 C2194 1.388 . S
C2196 C2197 1.366 . S
C2197 C2196 1.366 . S
C2197 C2198 1.414 . S
C2197 C2200 1.499 . S
C2198 H2178 0.950 . S
C2198 C2197 1.414 . S
C2198 C2199 1.374 . S
C2199 H2179 0.950 . S
C2199 C2195 1.385 . S
C2199 C2198 1.374 . S
C2200 C2197 1.499 . S
C2200 C2201 1.373 . S
C2200 C2202 1.389 . S
C2201 H2180 0.950 . S
C2201 C2200 1.373 . S
C2201 C2217 1.377 . S
C2202 C2200 1.389 . S
C2202 C2203 1.524 . S
C2202 C2216 1.377 . S
C2203 C2202 1.524 . S
C2203 C2204 1.397 . S
C2203 C2208 1.363 . S
C2204 H2181 0.950 . S
C2204 C2203 1.397 . S
C2204 C2205 1.334 . S
C2205 H2182 0.950 . S
C2205 C2204 1.334 . S
C2205 C2206 1.287 . S
C2206 C2205 1.287 . S
C2206 C2207 1.524 . S
C2206 H2225 0.913 . S
C2207 H2183 0.950 . S
C2207 C2206 1.524 . S
C2207 C2208 1.415 . S
C2208 H2184 0.950 . S
C2208 C2203 1.363 . S
C2208 C2207 1.415 . S
C2209 H2185 0.951 . S
C2209 C2210 1.366 . S
C2209 C2211 1.388 . S
C2210 C2209 1.366 . S
C2210 C2214 1.385 . S
C2211 H2186 0.951 . S
C2211 C2209 1.388 . S
C2211 C2212 1.366 . S
C2212 C2211 1.366 . S
C2212 C2213 1.414 . S
C2212 C2215 1.499 . S
C2213 H2187 0.950 . S
C2213 C2212 1.414 . S
C2213 C2214 1.374 . S
C2214 H2188 0.950 . S
C2214 C2210 1.385 . S
C2214 C2213 1.374 . S
C2215 C2212 1.499 . S
C2215 C2216 1.373 . S
C2215 C2217 1.389 . S
C2216 H2189 0.950 . S
C2216 C2202 1.377 . S
C2216 C2215 1.373 . S
C2217 C2201 1.377 . S
C2217 C2215 1.389 . S
C2217 C2218 1.524 . S
C2218 C2217 1.524 . S
C2218 C2219 1.397 . S
C2218 C2223 1.363 . S
C2219 H2190 0.950 . S
C2219 C2218 1.397 . S
C2219 C2220 1.334 . S
C2220 H2191 0.950 1_455 S
C2220 C2219 1.334 . S
C2220 C2221 1.287 1_455 S
C2221 C2220 1.287 1_655 S
C2221 C2222 1.524 1_655 S
C2221 H2224 0.999 . S
C2222 H2192 0.950 . S
C2222 C2221 1.524 1_455 S
C2222 C2223 1.415 . S
C2223 H2193 0.950 . S
C2223 C2218 1.363 . S
C2223 C2222 1.415 . S
H2224 C2221 0.999 . S
H2225 C2206 0.913 . S
H2226 C2244 0.951 . S
H2227 C2246 0.951 . S
H2228 C2248 0.950 . S
H2229 C2249 0.950 . S
H2230 C2251 0.950 . S
H2231 C2254 0.950 . S
H2232 C2255 0.950 . S
H2233 C2257 0.950 . S
H2234 C2258 0.950 . S
H2235 C2259 0.951 . S
H2236 C2261 0.951 . S
H2237 C2263 0.950 . S
H2238 C2264 0.950 . S
H2239 C2266 0.950 . S
H2240 C2269 0.950 . S
H2241 C2270 0.950 . S
H2242 C2272 0.950 . S
H2243 C2273 0.950 . S
C2244 H2226 0.951 . S
C2244 C2245 1.366 . S
C2244 C2246 1.388 . S
C2245 C2244 1.366 . S
C2245 C2249 1.385 . S
C2246 H2227 0.951 . S
C2246 C2244 1.388 . S
C2246 C2247 1.366 . S
C2247 C2246 1.366 . S
C2247 C2248 1.414 . S
C2247 C2250 1.499 . S
C2248 H2228 0.950 . S
C2248 C2247 1.414 . S
C2248 C2249 1.374 . S
C2249 H2229 0.950 . S
C2249 C2245 1.385 . S
C2249 C2248 1.374 . S
C2250 C2247 1.499 . S
C2250 C2251 1.373 . S
C2250 C2252 1.389 . S
C2251 H2230 0.950 . S
C2251 C2250 1.373 . S
C2251 C2267 1.377 . S
C2252 C2250 1.389 . S
C2252 C2253 1.524 . S
C2252 C2266 1.377 . S
C2253 C2252 1.524 . S
C2253 C2254 1.397 . S
C2253 C2258 1.363 . S
C2254 H2231 0.950 . S
C2254 C2253 1.397 . S
C2254 C2255 1.334 . S
C2255 H2232 0.950 . S
C2255 C2254 1.334 . S
C2255 C2256 1.287 . S
C2256 C2255 1.287 . S
C2256 C2257 1.524 . S
C2256 H2275 0.913 . S
C2257 H2233 0.950 . S
C2257 C2256 1.524 . S
C2257 C2258 1.415 . S
C2258 H2234 0.950 . S
C2258 C2253 1.363 . S
C2258 C2257 1.415 . S
C2259 H2235 0.951 . S
C2259 C2260 1.366 . S
C2259 C2261 1.388 . S
C2260 C2259 1.366 . S
C2260 C2264 1.385 . S
C2261 H2236 0.951 . S
C2261 C2259 1.388 . S
C2261 C2262 1.366 . S
C2262 C2261 1.366 . S
C2262 C2263 1.414 . S
C2262 C2265 1.499 . S
C2263 H2237 0.950 . S
C2263 C2262 1.414 . S
C2263 C2264 1.374 . S
C2264 H2238 0.950 . S
C2264 C2260 1.385 . S
C2264 C2263 1.374 . S
C2265 C2262 1.499 . S
C2265 C2266 1.373 . S
C2265 C2267 1.389 . S
C2266 H2239 0.950 . S
C2266 C2252 1.377 . S
C2266 C2265 1.373 . S
C2267 C2251 1.377 . S
C2267 C2265 1.389 . S
C2267 C2268 1.524 . S
C2268 C2267 1.524 . S
C2268 C2269 1.397 . S
C2268 C2273 1.363 . S
C2269 H2240 0.950 . S
C2269 C2268 1.397 . S
C2269 C2270 1.334 . S
C2270 H2241 0.950 . S
C2270 C2269 1.334 . S
C2270 C2271 1.287 . S
C2271 C2270 1.287 . S
C2271 C2272 1.524 . S
C2271 H2274 0.999 . S
C2272 H2242 0.950 . S
C2272 C2271 1.524 . S
C2272 C2273 1.415 . S
C2273 H2243 0.950 . S
C2273 C2268 1.363 . S
C2273 C2272 1.415 . S
H2274 C2271 0.999 . S
H2275 C2256 0.913 . S
H2276 C2294 0.951 . S
H2277 C2296 0.951 . S
H2278 C2298 0.950 . S
H2279 C2299 0.950 . S
H2280 C2301 0.950 . S
H2281 C2304 0.950 . S
H2282 C2305 0.950 . S
H2283 C2307 0.950 . S
H2284 C2308 0.950 . S
H2285 C2309 0.951 . S
H2286 C2311 0.951 . S
H2287 C2313 0.950 . S
H2288 C2314 0.950 . S
H2289 C2316 0.950 . S
H2290 C2319 0.950 . S
H2291 C2320 0.950 . S
H2292 C2322 0.950 . S
H2293 C2323 0.950 . S
C2294 H2276 0.951 . S
C2294 C2295 1.366 . S
C2294 C2296 1.388 . S
C2295 C2294 1.366 . S
C2295 C2299 1.385 . S
C2296 H2277 0.951 . S
C2296 C2294 1.388 . S
C2296 C2297 1.366 . S
C2297 C2296 1.366 . S
C2297 C2298 1.414 . S
C2297 C2300 1.499 . S
C2298 H2278 0.950 . S
C2298 C2297 1.414 . S
C2298 C2299 1.374 . S
C2299 H2279 0.950 . S
C2299 C2295 1.385 . S
C2299 C2298 1.374 . S
C2300 C2297 1.499 . S
C2300 C2301 1.373 . S
C2300 C2302 1.389 . S
C2301 H2280 0.950 . S
C2301 C2300 1.373 . S
C2301 C2317 1.377 . S
C2302 C2300 1.389 . S
C2302 C2303 1.524 . S
C2302 C2316 1.377 . S
C2303 C2302 1.524 . S
C2303 C2304 1.397 . S
C2303 C2308 1.363 . S
C2304 H2281 0.950 . S
C2304 C2303 1.397 . S
C2304 C2305 1.334 . S
C2305 H2282 0.950 . S
C2305 C2304 1.334 . S
C2305 C2306 1.287 . S
C2306 C2305 1.287 . S
C2306 C2307 1.524 . S
C2306 H2325 0.913 . S
C2307 H2283 0.950 . S
C2307 C2306 1.524 . S
C2307 C2308 1.415 . S
C2308 H2284 0.950 . S
C2308 C2303 1.363 . S
C2308 C2307 1.415 . S
C2309 H2285 0.951 . S
C2309 C2310 1.366 . S
C2309 C2311 1.388 . S
C2310 C2309 1.366 . S
C2310 C2314 1.385 . S
C2311 H2286 0.951 . S
C2311 C2309 1.388 . S
C2311 C2312 1.366 . S
C2312 C2311 1.366 . S
C2312 C2313 1.414 . S
C2312 C2315 1.499 . S
C2313 H2287 0.950 . S
C2313 C2312 1.414 . S
C2313 C2314 1.374 . S
C2314 H2288 0.950 . S
C2314 C2310 1.385 . S
C2314 C2313 1.374 . S
C2315 C2312 1.499 . S
C2315 C2316 1.373 . S
C2315 C2317 1.389 . S
C2316 H2289 0.950 . S
C2316 C2302 1.377 . S
C2316 C2315 1.373 . S
C2317 C2301 1.377 . S
C2317 C2315 1.389 . S
C2317 C2318 1.524 . S
C2318 C2317 1.524 . S
C2318 C2319 1.397 . S
C2318 C2323 1.363 . S
C2319 H2290 0.950 . S
C2319 C2318 1.397 . S
C2319 C2320 1.334 . S
C2320 H2291 0.950 . S
C2320 C2319 1.334 . S
C2320 C2321 1.287 . S
C2321 C2320 1.287 . S
C2321 C2322 1.524 . S
C2321 H2324 0.999 . S
C2322 H2292 0.950 . S
C2322 C2321 1.524 . S
C2322 C2323 1.415 . S
C2323 H2293 0.950 . S
C2323 C2318 1.363 . S
C2323 C2322 1.415 . S
H2324 C2321 0.999 . S
H2325 C2306 0.913 . S
H2326 C2344 0.951 . S
H2327 C2346 0.951 . S
H2328 C2348 0.950 . S
H2329 C2349 0.950 . S
H2330 C2351 0.950 . S
H2331 C2354 0.950 . S
H2332 C2355 0.950 . S
H2333 C2357 0.950 . S
H2334 C2358 0.950 . S
H2335 C2359 0.951 . S
H2336 C2361 0.951 . S
H2337 C2363 0.950 . S
H2338 C2364 0.950 . S
H2339 C2366 0.950 . S
H2340 C2369 0.950 . S
H2341 C2370 0.950 . S
H2342 C2372 0.950 . S
H2343 C2373 0.950 . S
C2344 H2326 0.951 . S
C2344 C2345 1.366 . S
C2344 C2346 1.388 . S
C2345 C2344 1.366 . S
C2345 C2349 1.385 . S
C2346 H2327 0.951 . S
C2346 C2344 1.388 . S
C2346 C2347 1.366 . S
C2347 C2346 1.366 . S
C2347 C2348 1.414 . S
C2347 C2350 1.499 . S
C2348 H2328 0.950 . S
C2348 C2347 1.414 . S
C2348 C2349 1.374 . S
C2349 H2329 0.950 . S
C2349 C2345 1.385 . S
C2349 C2348 1.374 . S
C2350 C2347 1.499 . S
C2350 C2351 1.373 . S
C2350 C2352 1.389 . S
C2351 H2330 0.950 . S
C2351 C2350 1.373 . S
C2351 C2367 1.377 . S
C2352 C2350 1.389 . S
C2352 C2353 1.524 . S
C2352 C2366 1.377 . S
C2353 C2352 1.524 . S
C2353 C2354 1.397 . S
C2353 C2358 1.363 . S
C2354 H2331 0.950 . S
C2354 C2353 1.397 . S
C2354 C2355 1.334 . S
C2355 H2332 0.950 . S
C2355 C2354 1.334 . S
C2355 C2356 1.287 . S
C2356 C2355 1.287 . S
C2356 C2357 1.524 . S
C2356 H2375 0.913 . S
C2357 H2333 0.950 . S
C2357 C2356 1.524 . S
C2357 C2358 1.415 . S
C2358 H2334 0.950 . S
C2358 C2353 1.363 . S
C2358 C2357 1.415 . S
C2359 H2335 0.951 . S
C2359 C2360 1.366 . S
C2359 C2361 1.388 . S
C2360 C2359 1.366 . S
C2360 C2364 1.385 . S
C2361 H2336 0.951 . S
C2361 C2359 1.388 . S
C2361 C2362 1.366 . S
C2362 C2361 1.366 . S
C2362 C2363 1.414 . S
C2362 C2365 1.499 . S
C2363 H2337 0.950 . S
C2363 C2362 1.414 . S
C2363 C2364 1.374 . S
C2364 H2338 0.950 . S
C2364 C2360 1.385 . S
C2364 C2363 1.374 . S
C2365 C2362 1.499 . S
C2365 C2366 1.373 . S
C2365 C2367 1.389 . S
C2366 H2339 0.950 . S
C2366 C2352 1.377 . S
C2366 C2365 1.373 . S
C2367 C2351 1.377 . S
C2367 C2365 1.389 . S
C2367 C2368 1.524 . S
C2368 C2367 1.524 . S
C2368 C2369 1.397 . S
C2368 C2373 1.363 . S
C2369 H2340 0.950 . S
C2369 C2368 1.397 . S
C2369 C2370 1.334 . S
C2370 H2341 0.950 . S
C2370 C2369 1.334 . S
C2370 C2371 1.287 . S
C2371 C2370 1.287 . S
C2371 C2372 1.524 . S
C2371 H2374 0.999 . S
C2372 H2342 0.950 . S
C2372 C2371 1.524 . S
C2372 C2373 1.415 . S
C2373 H2343 0.950 . S
C2373 C2368 1.363 . S
C2373 C2372 1.415 . S
H2374 C2371 0.999 . S
H2375 C2356 0.913 . S
H2376 C2394 0.951 . S
H2377 C2396 0.951 . S
H2378 C2398 0.950 . S
H2379 C2399 0.950 . S
H2380 C2401 0.950 . S
H2381 C2404 0.950 . S
H2382 C2405 0.950 . S
H2383 C2407 0.941 1_655 S
H2384 C2408 0.950 . S
H2385 C2409 0.951 . S
H2386 C2411 0.951 . S
H2387 C2413 0.950 . S
H2388 C2414 0.950 . S
H2389 C2416 0.950 . S
H2390 C2419 0.950 . S
H2391 C2420 0.950 . S
H2392 C2422 0.950 . S
H2393 C2423 0.950 . S
C2394 H2376 0.951 . S
C2394 C2395 1.366 . S
C2394 C2396 1.388 . S
C2395 C2394 1.366 . S
C2395 C2399 1.385 . S
C2396 H2377 0.951 . S
C2396 C2394 1.388 . S
C2396 C2397 1.366 . S
C2397 C2396 1.366 . S
C2397 C2398 1.414 . S
C2397 C2400 1.499 . S
C2398 H2378 0.950 . S
C2398 C2397 1.414 . S
C2398 C2399 1.374 . S
C2399 H2379 0.950 . S
C2399 C2395 1.385 . S
C2399 C2398 1.374 . S
C2400 C2397 1.499 . S
C2400 C2401 1.373 . S
C2400 C2402 1.389 . S
C2401 H2380 0.950 . S
C2401 C2400 1.373 . S
C2401 C2417 1.377 . S
C2402 C2400 1.389 . S
C2402 C2403 1.524 . S
C2402 C2416 1.377 . S
C2403 C2402 1.524 . S
C2403 C2404 1.397 . S
C2403 C2408 1.363 . S
C2404 H2381 0.950 . S
C2404 C2403 1.397 . S
C2404 C2405 1.334 . S
C2405 H2382 0.950 . S
C2405 C2404 1.334 . S
C2405 C2406 1.287 . S
C2406 C2405 1.287 . S
C2406 C2407 1.525 . S
C2406 H2425 0.900 1_455 S
C2407 H2383 0.941 1_455 S
C2407 C2406 1.525 . S
C2407 C2408 1.424 . S
C2408 H2384 0.950 . S
C2408 C2403 1.363 . S
C2408 C2407 1.424 . S
C2409 H2385 0.951 . S
C2409 C2410 1.366 . S
C2409 C2411 1.388 . S
C2410 C2409 1.366 . S
C2410 C2414 1.385 . S
C2411 H2386 0.951 . S
C2411 C2409 1.388 . S
C2411 C2412 1.366 . S
C2412 C2411 1.366 . S
C2412 C2413 1.414 . S
C2412 C2415 1.499 . S
C2413 H2387 0.950 . S
C2413 C2412 1.414 . S
C2413 C2414 1.374 . S
C2414 H2388 0.950 . S
C2414 C2410 1.385 . S
C2414 C2413 1.374 . S
C2415 C2412 1.499 . S
C2415 C2416 1.373 . S
C2415 C2417 1.389 . S
C2416 H2389 0.950 . S
C2416 C2402 1.377 . S
C2416 C2415 1.373 . S
C2417 C2401 1.377 . S
C2417 C2415 1.389 . S
C2417 C2418 1.524 . S
C2418 C2417 1.524 . S
C2418 C2419 1.397 . S
C2418 C2423 1.363 . S
C2419 H2390 0.950 . S
C2419 C2418 1.397 . S
C2419 C2420 1.334 . S
C2420 H2391 0.950 . S
C2420 C2419 1.334 . S
C2420 C2421 1.287 . S
C2421 C2420 1.287 . S
C2421 C2422 1.524 . S
C2421 H2424 0.999 . S
C2422 H2392 0.950 . S
C2422 C2421 1.524 . S
C2422 C2423 1.415 . S
C2423 H2393 0.950 . S
C2423 C2418 1.363 . S
C2423 C2422 1.415 . S
H2424 C2421 0.999 . S
H2425 C2406 0.900 1_655 S
H2426 C2444 0.951 . S
H2427 C2446 0.951 . S
H2428 C2448 0.950 . S
H2429 C2449 0.950 . S
H2430 C2451 0.950 . S
H2431 C2454 0.950 . S
H2432 C2455 0.950 . S
H2433 C2457 0.950 . S
H2434 C2458 0.950 . S
H2435 C2459 0.951 . S
H2436 C2461 0.951 . S
H2437 C2463 0.950 . S
H2438 C2464 0.950 . S
H2439 C2466 0.950 . S
H2440 C2469 0.950 . S
H2441 C2470 0.950 . S
H2442 C2472 0.950 . S
H2443 C2473 0.950 . S
C2444 H2426 0.951 . S
C2444 C2445 1.366 . S
C2444 C2446 1.388 . S
C2445 C2444 1.366 . S
C2445 C2449 1.385 . S
C2446 H2427 0.951 . S
C2446 C2444 1.388 . S
C2446 C2447 1.366 . S
C2447 C2446 1.366 . S
C2447 C2448 1.414 . S
C2447 C2450 1.499 . S
C2448 H2428 0.950 . S
C2448 C2447 1.414 . S
C2448 C2449 1.374 . S
C2449 H2429 0.950 . S
C2449 C2445 1.385 . S
C2449 C2448 1.374 . S
C2450 C2447 1.499 . S
C2450 C2451 1.373 . S
C2450 C2452 1.389 . S
C2451 H2430 0.950 . S
C2451 C2450 1.373 . S
C2451 C2467 1.377 . S
C2452 C2450 1.389 . S
C2452 C2453 1.524 . S
C2452 C2466 1.377 . S
C2453 C2452 1.524 . S
C2453 C2454 1.397 . S
C2453 C2458 1.363 . S
C2454 H2431 0.950 . S
C2454 C2453 1.397 . S
C2454 C2455 1.334 . S
C2455 H2432 0.950 . S
C2455 C2454 1.334 . S
C2455 C2456 1.287 . S
C2456 C2455 1.287 . S
C2456 C2457 1.524 . S
C2456 H2475 0.913 . S
C2457 H2433 0.950 . S
C2457 C2456 1.524 . S
C2457 C2458 1.415 . S
C2458 H2434 0.950 . S
C2458 C2453 1.363 . S
C2458 C2457 1.415 . S
C2459 H2435 0.951 . S
C2459 C2460 1.366 . S
C2459 C2461 1.388 . S
C2460 C2459 1.366 . S
C2460 C2464 1.385 . S
C2461 H2436 0.951 . S
C2461 C2459 1.388 . S
C2461 C2462 1.366 . S
C2462 C2461 1.366 . S
C2462 C2463 1.414 . S
C2462 C2465 1.499 . S
C2463 H2437 0.950 . S
C2463 C2462 1.414 . S
C2463 C2464 1.374 . S
C2464 H2438 0.950 . S
C2464 C2460 1.385 . S
C2464 C2463 1.374 . S
C2465 C2462 1.499 . S
C2465 C2466 1.373 . S
C2465 C2467 1.389 . S
C2466 H2439 0.950 . S
C2466 C2452 1.377 . S
C2466 C2465 1.373 . S
C2467 C2451 1.377 . S
C2467 C2465 1.389 . S
C2467 C2468 1.524 . S
C2468 C2467 1.524 . S
C2468 C2469 1.397 . S
C2468 C2473 1.363 . S
C2469 H2440 0.950 . S
C2469 C2468 1.397 . S
C2469 C2470 1.334 . S
C2470 H2441 0.950 . S
C2470 C2469 1.334 . S
C2470 C2471 1.287 . S
C2471 C2470 1.287 . S
C2471 C2472 1.524 . S
C2471 H2474 0.999 . S
C2472 H2442 0.950 . S
C2472 C2471 1.524 . S
C2472 C2473 1.415 . S
C2473 H2443 0.950 . S
C2473 C2468 1.363 . S
C2473 C2472 1.415 . S
H2474 C2471 0.999 . S
H2475 C2456 0.913 . S
H2476 C2494 0.951 . S
H2477 C2496 0.951 . S
H2478 C2498 0.950 . S
H2479 C2499 0.950 . S
H2480 C2501 0.950 . S
H2481 C2504 0.950 . S
H2482 C2505 0.950 . S
H2483 C2507 0.950 . S
H2484 C2508 0.950 . S
H2485 C2509 0.951 . S
H2486 C2511 0.951 . S
H2487 C2513 0.950 . S
H2488 C2514 0.950 . S
H2489 C2516 0.950 . S
H2490 C2519 0.944 . S
H2491 C2520 0.950 . S
H2492 C2522 0.950 . S
H2493 C2523 0.950 . S
C2494 H2476 0.951 . S
C2494 C2495 1.366 . S
C2494 C2496 1.388 . S
C2495 C2494 1.366 . S
C2495 C2499 1.385 . S
C2496 H2477 0.951 . S
C2496 C2494 1.388 . S
C2496 C2497 1.366 . S
C2497 C2496 1.366 . S
C2497 C2498 1.414 . S
C2497 C2500 1.499 . S
C2498 H2478 0.950 . S
C2498 C2497 1.414 . S
C2498 C2499 1.374 . S
C2499 H2479 0.950 . S
C2499 C2495 1.385 . S
C2499 C2498 1.374 . S
C2500 C2497 1.499 . S
C2500 C2501 1.373 . S
C2500 C2502 1.389 . S
C2501 H2480 0.950 . S
C2501 C2500 1.373 . S
C2501 C2517 1.377 . S
C2502 C2500 1.389 . S
C2502 C2503 1.524 . S
C2502 C2516 1.377 . S
C2503 C2502 1.524 . S
C2503 C2504 1.397 . S
C2503 C2508 1.363 . S
C2504 H2481 0.950 . S
C2504 C2503 1.397 . S
C2504 C2505 1.334 . S
C2505 H2482 0.950 . S
C2505 C2504 1.334 . S
C2505 C2506 1.287 . S
C2506 C2505 1.287 . S
C2506 C2507 1.524 . S
C2506 H2525 0.913 . S
C2507 H2483 0.950 . S
C2507 C2506 1.524 . S
C2507 C2508 1.415 . S
C2508 H2484 0.950 . S
C2508 C2503 1.363 . S
C2508 C2507 1.415 . S
C2509 H2485 0.951 . S
C2509 C2510 1.366 . S
C2509 C2511 1.388 . S
C2510 C2509 1.366 . S
C2510 C2514 1.385 . S
C2511 H2486 0.951 . S
C2511 C2509 1.388 . S
C2511 C2512 1.366 . S
C2512 C2511 1.366 . S
C2512 C2513 1.414 . S
C2512 C2515 1.499 . S
C2513 H2487 0.950 . S
C2513 C2512 1.414 . S
C2513 C2514 1.374 . S
C2514 H2488 0.950 . S
C2514 C2510 1.385 . S
C2514 C2513 1.374 . S
C2515 C2512 1.499 . S
C2515 C2516 1.373 . S
C2515 C2517 1.389 . S
C2516 H2489 0.950 . S
C2516 C2502 1.377 . S
C2516 C2515 1.373 . S
C2517 C2501 1.377 . S
C2517 C2515 1.389 . S
C2517 C2518 1.524 . S
C2518 C2517 1.524 . S
C2518 C2519 1.399 1_556 S
C2518 C2523 1.363 . S
C2519 H2490 0.944 . S
C2519 C2518 1.399 1_554 S
C2519 C2520 1.333 . S
C2520 H2491 0.950 . S
C2520 C2519 1.333 . S
C2520 C2521 1.287 . S
C2521 C2520 1.287 . S
C2521 C2522 1.524 1_554 S
C2521 H2524 0.999 . S
C2522 H2492 0.950 . S
C2522 C2521 1.524 1_556 S
C2522 C2523 1.415 . S
C2523 H2493 0.950 . S
C2523 C2518 1.363 . S
C2523 C2522 1.415 . S
H2524 C2521 0.999 . S
H2525 C2506 0.913 . S
H2526 C2544 0.951 . S
H2527 C2546 0.951 . S
H2528 C2548 0.950 . S
H2529 C2549 0.950 . S
H2530 C2551 0.950 . S
H2531 C2554 0.950 . S
H2532 C2555 0.950 . S
H2533 C2557 0.950 . S
H2534 C2558 0.950 . S
H2535 C2559 0.951 . S
H2536 C2561 0.951 . S
H2537 C2563 0.950 . S
H2538 C2564 0.950 . S
H2539 C2566 0.950 . S
H2540 C2569 0.950 . S
H2541 C2570 0.950 . S
H2542 C2572 0.950 . S
H2543 C2573 0.950 . S
C2544 H2526 0.951 . S
C2544 C2545 1.366 . S
C2544 C2546 1.388 . S
C2545 C2544 1.366 . S
C2545 C2549 1.385 . S
C2546 H2527 0.951 . S
C2546 C2544 1.388 . S
C2546 C2547 1.366 . S
C2547 C2546 1.366 . S
C2547 C2548 1.414 . S
C2547 C2550 1.499 . S
C2548 H2528 0.950 . S
C2548 C2547 1.414 . S
C2548 C2549 1.374 . S
C2549 H2529 0.950 . S
C2549 C2545 1.385 . S
C2549 C2548 1.374 . S
C2550 C2547 1.499 . S
C2550 C2551 1.373 . S
C2550 C2552 1.389 . S
C2551 H2530 0.950 . S
C2551 C2550 1.373 . S
C2551 C2567 1.377 . S
C2552 C2550 1.389 . S
C2552 C2553 1.524 . S
C2552 C2566 1.377 . S
C2553 C2552 1.524 . S
C2553 C2554 1.397 . S
C2553 C2558 1.363 . S
C2554 H2531 0.950 . S
C2554 C2553 1.397 . S
C2554 C2555 1.334 . S
C2555 H2532 0.950 . S
C2555 C2554 1.334 . S
C2555 C2556 1.287 . S
C2556 C2555 1.287 . S
C2556 C2557 1.524 . S
C2556 H2575 0.913 . S
C2557 H2533 0.950 . S
C2557 C2556 1.524 . S
C2557 C2558 1.415 . S
C2558 H2534 0.950 . S
C2558 C2553 1.363 . S
C2558 C2557 1.415 . S
C2559 H2535 0.951 . S
C2559 C2560 1.366 . S
C2559 C2561 1.388 . S
C2560 C2559 1.366 . S
C2560 C2564 1.385 . S
C2561 H2536 0.951 . S
C2561 C2559 1.388 . S
C2561 C2562 1.366 . S
C2562 C2561 1.366 . S
C2562 C2563 1.414 . S
C2562 C2565 1.499 . S
C2563 H2537 0.950 . S
C2563 C2562 1.414 . S
C2563 C2564 1.374 . S
C2564 H2538 0.950 . S
C2564 C2560 1.385 . S
C2564 C2563 1.374 . S
C2565 C2562 1.499 . S
C2565 C2566 1.373 . S
C2565 C2567 1.389 . S
C2566 H2539 0.950 . S
C2566 C2552 1.377 . S
C2566 C2565 1.373 . S
C2567 C2551 1.377 . S
C2567 C2565 1.389 . S
C2567 C2568 1.524 . S
C2568 C2567 1.524 . S
C2568 C2569 1.397 . S
C2568 C2573 1.363 . S
C2569 H2540 0.950 . S
C2569 C2568 1.397 . S
C2569 C2570 1.334 . S
C2570 H2541 0.950 . S
C2570 C2569 1.334 . S
C2570 C2571 1.287 . S
C2571 C2570 1.287 . S
C2571 C2572 1.524 . S
C2571 H2574 0.999 . S
C2572 H2542 0.950 . S
C2572 C2571 1.524 . S
C2572 C2573 1.415 . S
C2573 H2543 0.950 . S
C2573 C2568 1.363 . S
C2573 C2572 1.415 . S
H2574 C2571 0.999 . S
H2575 C2556 0.913 . S
H2576 C2594 0.951 . S
H2577 C2596 0.951 . S
H2578 C2598 0.950 . S
H2579 C2599 0.950 . S
H2580 C2601 0.950 1_565 S
H2581 C2604 0.950 . S
H2582 C2605 0.950 . S
H2583 C2607 0.950 . S
H2584 C2608 0.950 . S
H2585 C2609 0.951 1_565 S
H2586 C2611 0.951 1_565 S
H2587 C2613 0.950 . S
H2588 C2614 0.950 . S
H2589 C2616 0.950 . S
H2590 C2619 0.950 . S
H2591 C2620 0.950 . S
H2592 C2622 0.950 . S
H2593 C2623 0.950 . S
C2594 H2576 0.951 . S
C2594 C2595 1.366 . S
C2594 C2596 1.388 . S
C2595 C2594 1.366 . S
C2595 C2599 1.385 1_545 S
C2596 H2577 0.951 . S
C2596 C2594 1.388 . S
C2596 C2597 1.366 . S
C2597 C2596 1.366 . S
C2597 C2598 1.414 1_545 S
C2597 C2600 1.499 . S
C2598 H2578 0.950 . S
C2598 C2597 1.414 1_565 S
C2598 C2599 1.374 . S
C2599 H2579 0.950 . S
C2599 C2595 1.385 1_565 S
C2599 C2598 1.374 . S
C2600 C2597 1.499 . S
C2600 C2601 1.373 . S
C2600 C2602 1.389 . S
C2601 H2580 0.950 1_545 S
C2601 C2600 1.373 . S
C2601 C2617 1.377 . S
C2602 C2600 1.389 . S
C2602 C2603 1.524 . S
C2602 C2616 1.377 . S
C2603 C2602 1.524 . S
C2603 C2604 1.397 . S
C2603 C2608 1.363 . S
C2604 H2581 0.950 . S
C2604 C2603 1.397 . S
C2604 C2605 1.334 . S
C2605 H2582 0.950 . S
C2605 C2604 1.334 . S
C2605 C2606 1.287 . S
C2606 C2605 1.287 . S
C2606 C2607 1.524 . S
C2606 H2625 0.913 . S
C2607 H2583 0.950 . S
C2607 C2606 1.524 . S
C2607 C2608 1.415 . S
C2608 H2584 0.950 . S
C2608 C2603 1.363 . S
C2608 C2607 1.415 . S
C2609 H2585 0.951 1_545 S
C2609 C2610 1.366 . S
C2609 C2611 1.388 . S
C2610 C2609 1.366 . S
C2610 C2614 1.385 . S
C2611 H2586 0.951 1_545 S
C2611 C2609 1.388 . S
C2611 C2612 1.366 . S
C2612 C2611 1.366 . S
C2612 C2613 1.414 . S
C2612 C2615 1.499 . S
C2613 H2587 0.950 . S
C2613 C2612 1.414 . S
C2613 C2614 1.374 . S
C2614 H2588 0.950 . S
C2614 C2610 1.385 . S
C2614 C2613 1.374 . S
C2615 C2612 1.499 . S
C2615 C2616 1.373 . S
C2615 C2617 1.389 . S
C2616 H2589 0.950 . S
C2616 C2602 1.377 . S
C2616 C2615 1.373 . S
C2617 C2601 1.377 . S
C2617 C2615 1.389 . S
C2617 C2618 1.516 1_545 S
C2618 C2617 1.516 1_565 S
C2618 C2619 1.349 1_565 S
C2618 C2623 1.417 . S
C2619 H2590 0.950 . S
C2619 C2618 1.349 1_545 S
C2619 C2620 1.334 . S
C2620 H2591 0.950 . S
C2620 C2619 1.334 . S
C2620 C2621 1.287 1_545 S
C2621 C2620 1.287 1_565 S
C2621 C2622 1.524 . S
C2621 H2624 0.999 . S
C2622 H2592 0.950 . S
C2622 C2621 1.524 . S
C2622 C2623 1.415 . S
C2623 H2593 0.950 . S
C2623 C2618 1.417 . S
C2623 C2622 1.415 . S
H2624 C2621 0.999 . S
H2625 C2606 0.913 . S
H2626 C2644 0.951 . S
H2627 C2646 0.951 . S
H2628 C2648 0.950 . S
H2629 C2649 0.950 . S
H2630 C2651 0.950 . S
H2631 C2654 0.950 . S
H2632 C2655 0.950 . S
H2633 C2657 0.950 . S
H2634 C2658 0.950 . S
H2635 C2659 0.951 . S
H2636 C2661 0.951 . S
H2637 C2663 0.950 . S
H2638 C2664 0.950 . S
H2639 C2666 0.950 . S
H2640 C2669 0.950 . S
H2641 C2670 0.950 . S
H2642 C2672 0.950 . S
H2643 C2673 0.950 . S
C2644 H2626 0.951 . S
C2644 C2645 1.366 . S
C2644 C2646 1.388 . S
C2645 C2644 1.366 . S
C2645 C2649 1.385 . S
C2646 H2627 0.951 . S
C2646 C2644 1.388 . S
C2646 C2647 1.366 . S
C2647 C2646 1.366 . S
C2647 C2648 1.414 . S
C2647 C2650 1.499 . S
C2648 H2628 0.950 . S
C2648 C2647 1.414 . S
C2648 C2649 1.374 . S
C2649 H2629 0.950 . S
C2649 C2645 1.385 . S
C2649 C2648 1.374 . S
C2650 C2647 1.499 . S
C2650 C2651 1.373 . S
C2650 C2652 1.389 . S
C2651 H2630 0.950 . S
C2651 C2650 1.373 . S
C2651 C2667 1.377 . S
C2652 C2650 1.389 . S
C2652 C2653 1.524 . S
C2652 C2666 1.377 . S
C2653 C2652 1.524 . S
C2653 C2654 1.397 . S
C2653 C2658 1.363 . S
C2654 H2631 0.950 . S
C2654 C2653 1.397 . S
C2654 C2655 1.334 . S
C2655 H2632 0.950 . S
C2655 C2654 1.334 . S
C2655 C2656 1.287 . S
C2656 C2655 1.287 . S
C2656 C2657 1.524 . S
C2656 H2675 0.913 . S
C2657 H2633 0.950 . S
C2657 C2656 1.524 . S
C2657 C2658 1.415 . S
C2658 H2634 0.950 . S
C2658 C2653 1.363 . S
C2658 C2657 1.415 . S
C2659 H2635 0.951 . S
C2659 C2660 1.366 . S
C2659 C2661 1.388 . S
C2660 C2659 1.366 . S
C2660 C2664 1.385 . S
C2661 H2636 0.951 . S
C2661 C2659 1.388 . S
C2661 C2662 1.366 . S
C2662 C2661 1.366 . S
C2662 C2663 1.414 . S
C2662 C2665 1.499 . S
C2663 H2637 0.950 . S
C2663 C2662 1.414 . S
C2663 C2664 1.374 . S
C2664 H2638 0.950 . S
C2664 C2660 1.385 . S
C2664 C2663 1.374 . S
C2665 C2662 1.499 . S
C2665 C2666 1.373 . S
C2665 C2667 1.389 . S
C2666 H2639 0.950 . S
C2666 C2652 1.377 . S
C2666 C2665 1.373 . S
C2667 C2651 1.377 . S
C2667 C2665 1.389 . S
C2667 C2668 1.524 . S
C2668 C2667 1.524 . S
C2668 C2669 1.397 . S
C2668 C2673 1.363 . S
C2669 H2640 0.950 . S
C2669 C2668 1.397 . S
C2669 C2670 1.334 . S
C2670 H2641 0.950 . S
C2670 C2669 1.334 . S
C2670 C2671 1.287 . S
C2671 C2670 1.287 . S
C2671 C2672 1.524 . S
C2671 H2674 0.999 . S
C2672 H2642 0.950 . S
C2672 C2671 1.524 . S
C2672 C2673 1.415 . S
C2673 H2643 0.950 . S
C2673 C2668 1.363 . S
C2673 C2672 1.415 . S
H2674 C2671 0.999 . S
H2675 C2656 0.913 . S
H2676 C2694 0.951 1_565 S
H2677 C2696 0.972 . S
H2678 C2698 0.950 . S
H2679 C2699 0.950 . S
H2680 C2701 0.950 . S
H2681 C2704 0.950 . S
H2682 C2705 0.950 . S
H2683 C2707 0.950 . S
H2684 C2708 0.950 . S
H2685 C2709 0.951 . S
H2686 C2711 0.951 . S
H2687 C2713 0.950 . S
H2688 C2714 0.950 . S
H2689 C2716 0.950 . S
H2690 C2719 0.950 . S
H2691 C2720 0.950 . S
H2692 C2722 0.950 . S
H2693 C2723 0.950 . S
C2694 H2676 0.951 1_545 S
C2694 C2695 1.366 . S
C2694 C2696 1.388 . S
C2695 C2694 1.366 . S
C2695 C2699 1.385 . S
C2696 H2677 0.972 . S
C2696 C2694 1.388 . S
C2696 C2697 1.366 . S
C2697 C2696 1.366 . S
C2697 C2698 1.414 . S
C2697 C2700 1.499 . S
C2698 H2678 0.950 . S
C2698 C2697 1.414 . S
C2698 C2699 1.374 . S
C2699 H2679 0.950 . S
C2699 C2695 1.385 . S
C2699 C2698 1.374 . S
C2700 C2697 1.499 . S
C2700 C2701 1.373 . S
C2700 C2702 1.389 . S
C2701 H2680 0.950 . S
C2701 C2700 1.373 . S
C2701 C2717 1.377 . S
C2702 C2700 1.389 . S
C2702 C2703 1.524 . S
C2702 C2716 1.377 . S
C2703 C2702 1.524 . S
C2703 C2704 1.397 . S
C2703 C2708 1.363 . S
C2704 H2681 0.950 . S
C2704 C2703 1.397 . S
C2704 C2705 1.334 . S
C2705 H2682 0.950 . S
C2705 C2704 1.334 . S
C2705 C2706 1.287 . S
C2706 C2705 1.287 . S
C2706 C2707 1.524 . S
C2706 H2725 0.913 . S
C2707 H2683 0.950 . S
C2707 C2706 1.524 . S
C2707 C2708 1.415 . S
C2708 H2684 0.950 . S
C2708 C2703 1.363 . S
C2708 C2707 1.415 . S
C2709 H2685 0.951 . S
C2709 C2710 1.366 . S
C2709 C2711 1.388 . S
C2710 C2709 1.366 . S
C2710 C2714 1.385 . S
C2711 H2686 0.951 . S
C2711 C2709 1.388 . S
C2711 C2712 1.366 . S
C2712 C2711 1.366 . S
C2712 C2713 1.414 . S
C2712 C2715 1.499 . S
C2713 H2687 0.950 . S
C2713 C2712 1.414 . S
C2713 C2714 1.374 . S
C2714 H2688 0.950 . S
C2714 C2710 1.385 . S
C2714 C2713 1.374 . S
C2715 C2712 1.499 . S
C2715 C2716 1.373 . S
C2715 C2717 1.389 . S
C2716 H2689 0.950 . S
C2716 C2702 1.377 . S
C2716 C2715 1.373 . S
C2717 C2701 1.377 . S
C2717 C2715 1.389 . S
C2717 C2718 1.524 . S
C2718 C2717 1.524 . S
C2718 C2719 1.397 . S
C2718 C2723 1.363 . S
C2719 H2690 0.950 . S
C2719 C2718 1.397 . S
C2719 C2720 1.334 . S
C2720 H2691 0.950 . S
C2720 C2719 1.334 . S
C2720 C2721 1.287 . S
C2721 C2720 1.287 . S
C2721 C2722 1.524 . S
C2721 H2724 0.999 . S
C2722 H2692 0.950 . S
C2722 C2721 1.524 . S
C2722 C2723 1.415 . S
C2723 H2693 0.950 . S
C2723 C2718 1.363 . S
C2723 C2722 1.415 . S
H2724 C2721 0.999 . S
H2725 C2706 0.913 . S
H2726 C2744 0.951 . S
H2727 C2746 0.951 . S
H2728 C2748 0.950 . S
H2729 C2749 0.950 . S
H2730 C2751 0.950 . S
H2731 C2754 0.950 . S
H2732 C2755 0.950 . S
H2733 C2757 0.950 . S
H2734 C2758 0.950 . S
H2735 C2759 0.951 . S
H2736 C2761 0.951 . S
H2737 C2763 0.950 . S
H2738 C2764 0.950 . S
H2739 C2766 0.950 . S
H2740 C2769 0.950 . S
H2741 C2770 0.950 . S
H2742 C2772 0.950 . S
H2743 C2773 0.950 . S
C2744 H2726 0.951 . S
C2744 C2745 1.366 . S
C2744 C2746 1.388 . S
C2745 C2744 1.366 . S
C2745 C2749 1.385 . S
C2746 H2727 0.951 . S
C2746 C2744 1.388 . S
C2746 C2747 1.366 . S
C2747 C2746 1.366 . S
C2747 C2748 1.414 . S
C2747 C2750 1.499 . S
C2748 H2728 0.950 . S
C2748 C2747 1.414 . S
C2748 C2749 1.374 . S
C2749 H2729 0.950 . S
C2749 C2745 1.385 . S
C2749 C2748 1.374 . S
C2750 C2747 1.499 . S
C2750 C2751 1.373 . S
C2750 C2752 1.389 . S
C2751 H2730 0.950 . S
C2751 C2750 1.373 . S
C2751 C2767 1.377 . S
C2752 C2750 1.389 . S
C2752 C2753 1.524 . S
C2752 C2766 1.377 . S
C2753 C2752 1.524 . S
C2753 C2754 1.397 . S
C2753 C2758 1.363 . S
C2754 H2731 0.950 . S
C2754 C2753 1.397 . S
C2754 C2755 1.334 . S
C2755 H2732 0.950 . S
C2755 C2754 1.334 . S
C2755 C2756 1.287 . S
C2756 C2755 1.287 . S
C2756 C2757 1.524 . S
C2756 H2775 0.913 . S
C2757 H2733 0.950 . S
C2757 C2756 1.524 . S
C2757 C2758 1.415 . S
C2758 H2734 0.950 . S
C2758 C2753 1.363 . S
C2758 C2757 1.415 . S
C2759 H2735 0.951 . S
C2759 C2760 1.366 . S
C2759 C2761 1.388 . S
C2760 C2759 1.366 . S
C2760 C2764 1.385 . S
C2761 H2736 0.951 . S
C2761 C2759 1.388 . S
C2761 C2762 1.366 . S
C2762 C2761 1.366 . S
C2762 C2763 1.414 . S
C2762 C2765 1.499 . S
C2763 H2737 0.950 . S
C2763 C2762 1.414 . S
C2763 C2764 1.374 . S
C2764 H2738 0.950 . S
C2764 C2760 1.385 . S
C2764 C2763 1.374 . S
C2765 C2762 1.499 . S
C2765 C2766 1.373 . S
C2765 C2767 1.389 . S
C2766 H2739 0.950 . S
C2766 C2752 1.377 . S
C2766 C2765 1.373 . S
C2767 C2751 1.377 . S
C2767 C2765 1.389 . S
C2767 C2768 1.524 . S
C2768 C2767 1.524 . S
C2768 C2769 1.397 . S
C2768 C2773 1.363 . S
C2769 H2740 0.950 . S
C2769 C2768 1.397 . S
C2769 C2770 1.334 . S
C2770 H2741 0.950 . S
C2770 C2769 1.334 . S
C2770 C2771 1.287 . S
C2771 C2770 1.287 . S
C2771 C2772 1.524 . S
C2771 H2774 0.999 . S
C2772 H2742 0.950 . S
C2772 C2771 1.524 . S
C2772 C2773 1.415 . S
C2773 H2743 0.950 . S
C2773 C2768 1.363 . S
C2773 C2772 1.415 . S
H2774 C2771 0.999 . S
H2775 C2756 0.913 . S
H2776 C2794 0.951 . S
H2777 C2796 0.951 . S
H2778 C2798 0.950 . S
H2779 C2799 0.950 . S
H2780 C2801 0.950 . S
H2781 C2804 0.946 . S
H2782 C2805 0.950 . S
H2783 C2807 0.950 . S
H2784 C2808 0.950 . S
H2785 C2809 0.951 . S
H2786 C2811 0.951 . S
H2787 C2813 0.950 1_565 S
H2788 C2814 0.975 . S
H2789 C2816 0.950 1_565 S
H2790 C2819 0.950 . S
H2791 C2820 0.950 . S
H2792 C2822 0.950 . S
H2793 C2823 0.950 . S
C2794 H2776 0.951 . S
C2794 C2795 1.338 1_565 S
C2794 C2796 1.388 . S
C2795 C2794 1.338 1_545 S
C2795 C2799 1.441 . S
C2796 H2777 0.951 . S
C2796 C2794 1.388 . S
C2796 C2797 1.366 1_565 S
C2797 C2796 1.366 1_545 S
C2797 C2798 1.414 . S
C2797 C2800 1.499 . S
C2798 H2778 0.950 . S
C2798 C2797 1.414 . S
C2798 C2799 1.374 . S
C2799 H2779 0.950 . S
C2799 C2795 1.441 . S
C2799 C2798 1.374 . S
C2800 C2797 1.499 . S
C2800 C2801 1.373 . S
C2800 C2802 1.375 1_545 S
C2801 H2780 0.950 . S
C2801 C2800 1.373 . S
C2801 C2817 1.377 . S
C2802 C2800 1.375 1_565 S
C2802 C2803 1.553 . S
C2802 C2816 1.363 1_565 S
C2803 C2802 1.553 . S
C2803 C2804 1.397 . S
C2803 C2808 1.363 . S
C2804 H2781 0.946 . S
C2804 C2803 1.397 . S
C2804 C2805 1.334 . S
C2805 H2782 0.950 . S
C2805 C2804 1.334 . S
C2805 C2806 1.287 . S
C2806 C2805 1.287 . S
C2806 C2807 1.524 . S
C2806 H2825 0.913 . S
C2807 H2783 0.950 . S
C2807 C2806 1.524 . S
C2807 C2808 1.415 . S
C2808 H2784 0.950 . S
C2808 C2803 1.363 . S
C2808 C2807 1.415 . S
C2809 H2785 0.951 . S
C2809 C2810 1.366 . S
C2809 C2811 1.388 . S
C2810 C2809 1.366 . S
C2810 C2814 1.385 . S
C2811 H2786 0.951 . S
C2811 C2809 1.388 . S
C2811 C2812 1.366 . S
C2812 C2811 1.366 . S
C2812 C2813 1.414 . S
C2812 C2815 1.499 . S
C2813 H2787 0.950 1_545 S
C2813 C2812 1.414 . S
C2813 C2814 1.374 . S
C2814 H2788 0.975 . S
C2814 C2810 1.385 . S
C2814 C2813 1.374 . S
C2815 C2812 1.499 . S
C2815 C2816 1.373 . S
C2815 C2817 1.389 . S
C2816 H2789 0.950 1_545 S
C2816 C2802 1.363 1_545 S
C2816 C2815 1.373 . S
C2817 C2801 1.377 . S
C2817 C2815 1.389 . S
C2817 C2818 1.524 . S
C2818 C2817 1.524 . S
C2818 C2819 1.397 . S
C2818 C2823 1.363 . S
C2819 H2790 0.950 . S
C2819 C2818 1.397 . S
C2819 C2820 1.334 . S
C2820 H2791 0.950 . S
C2820 C2819 1.334 . S
C2820 C2821 1.287 . S
C2821 C2820 1.287 . S
C2821 C2822 1.524 . S
C2821 H2824 0.999 . S
C2822 H2792 0.950 . S
C2822 C2821 1.524 . S
C2822 C2823 1.415 . S
C2823 H2793 0.950 . S
C2823 C2818 1.363 . S
C2823 C2822 1.415 . S
H2824 C2821 0.999 . S
H2825 C2806 0.913 . S
H2826 C2844 0.951 . S
H2827 C2846 0.951 . S
H2828 C2848 0.950 . S
H2829 C2849 0.950 . S
H2830 C2851 0.950 . S
H2831 C2854 0.950 . S
H2832 C2855 0.950 . S
H2833 C2857 0.950 . S
H2834 C2858 0.950 . S
H2835 C2859 0.951 . S
H2836 C2861 0.951 . S
H2837 C2863 0.950 . S
H2838 C2864 0.950 . S
H2839 C2866 0.950 . S
H2840 C2869 0.950 . S
H2841 C2870 0.950 . S
H2842 C2872 0.950 . S
H2843 C2873 0.950 . S
C2844 H2826 0.951 . S
C2844 C2845 1.366 . S
C2844 C2846 1.388 . S
C2845 C2844 1.366 . S
C2845 C2849 1.385 . S
C2846 H2827 0.951 . S
C2846 C2844 1.388 . S
C2846 C2847 1.366 . S
C2847 C2846 1.366 . S
C2847 C2848 1.414 . S
C2847 C2850 1.499 . S
C2848 H2828 0.950 . S
C2848 C2847 1.414 . S
C2848 C2849 1.374 . S
C2849 H2829 0.950 . S
C2849 C2845 1.385 . S
C2849 C2848 1.374 . S
C2850 C2847 1.499 . S
C2850 C2851 1.373 . S
C2850 C2852 1.389 . S
C2851 H2830 0.950 . S
C2851 C2850 1.373 . S
C2851 C2867 1.377 . S
C2852 C2850 1.389 . S
C2852 C2853 1.524 . S
C2852 C2866 1.377 . S
C2853 C2852 1.524 . S
C2853 C2854 1.397 . S
C2853 C2858 1.363 . S
C2854 H2831 0.950 . S
C2854 C2853 1.397 . S
C2854 C2855 1.334 . S
C2855 H2832 0.950 . S
C2855 C2854 1.334 . S
C2855 C2856 1.287 . S
C2856 C2855 1.287 . S
C2856 C2857 1.524 . S
C2856 H2875 0.913 . S
C2857 H2833 0.950 . S
C2857 C2856 1.524 . S
C2857 C2858 1.415 . S
C2858 H2834 0.950 . S
C2858 C2853 1.363 . S
C2858 C2857 1.415 . S
C2859 H2835 0.951 . S
C2859 C2860 1.366 . S
C2859 C2861 1.388 . S
C2860 C2859 1.366 . S
C2860 C2864 1.385 . S
C2861 H2836 0.951 . S
C2861 C2859 1.388 . S
C2861 C2862 1.366 . S
C2862 C2861 1.366 . S
C2862 C2863 1.414 . S
C2862 C2865 1.499 . S
C2863 H2837 0.950 . S
C2863 C2862 1.414 . S
C2863 C2864 1.374 . S
C2864 H2838 0.950 . S
C2864 C2860 1.385 . S
C2864 C2863 1.374 . S
C2865 C2862 1.499 . S
C2865 C2866 1.373 . S
C2865 C2867 1.389 . S
C2866 H2839 0.950 . S
C2866 C2852 1.377 . S
C2866 C2865 1.373 . S
C2867 C2851 1.377 . S
C2867 C2865 1.389 . S
C2867 C2868 1.524 . S
C2868 C2867 1.524 . S
C2868 C2869 1.397 . S
C2868 C2873 1.363 . S
C2869 H2840 0.950 . S
C2869 C2868 1.397 . S
C2869 C2870 1.334 . S
C2870 H2841 0.950 . S
C2870 C2869 1.334 . S
C2870 C2871 1.287 . S
C2871 C2870 1.287 . S
C2871 C2872 1.524 . S
C2871 H2874 0.999 . S
C2872 H2842 0.950 . S
C2872 C2871 1.524 . S
C2872 C2873 1.415 . S
C2873 H2843 0.950 . S
C2873 C2868 1.363 . S
C2873 C2872 1.415 . S
H2874 C2871 0.999 . S
H2875 C2856 0.913 . S
H2876 C2894 0.951 . S
H2877 C2896 0.951 . S
H2878 C2898 0.950 . S
H2879 C2899 0.950 . S
H2880 C2901 0.956 . S
H2881 C2904 0.892 1_565 S
H2882 C2905 0.950 1_565 S
H2883 C2907 0.950 . S
H2884 C2908 0.950 . S
H2885 C2909 0.951 . S
H2886 C2911 0.951 . S
H2887 C2913 0.950 . S
H2888 C2914 0.950 . S
H2889 C2916 0.950 . S
H2890 C2919 0.950 . S
H2891 C2920 0.950 . S
H2892 C2922 0.950 . S
H2893 C2923 0.950 . S
C2894 H2876 0.951 . S
C2894 C2895 1.366 . S
C2894 C2896 1.388 . S
C2895 C2894 1.366 . S
C2895 C2899 1.385 1_545 S
C2896 H2877 0.951 . S
C2896 C2894 1.388 . S
C2896 C2897 1.366 . S
C2897 C2896 1.366 . S
C2897 C2898 1.414 1_545 S
C2897 C2900 1.499 . S
C2898 H2878 0.950 . S
C2898 C2897 1.414 1_565 S
C2898 C2899 1.374 . S
C2899 H2879 0.950 . S
C2899 C2895 1.385 1_565 S
C2899 C2898 1.374 . S
C2900 C2897 1.499 . S
C2900 C2901 1.367 1_545 S
C2900 C2902 1.389 . S
C2901 H2880 0.956 . S
C2901 C2900 1.367 1_565 S
C2901 C2917 1.377 . S
C2902 C2900 1.389 . S
C2902 C2903 1.524 . S
C2902 C2916 1.377 . S
C2903 C2902 1.524 . S
C2903 C2904 1.429 . S
C2903 C2908 1.363 . S
C2904 H2881 0.892 1_545 S
C2904 C2903 1.429 . S
C2904 C2905 1.361 . S
C2905 H2882 0.950 1_545 S
C2905 C2904 1.361 . S
C2905 C2906 1.287 . S
C2906 C2905 1.287 . S
C2906 C2907 1.524 . S
C2906 H2925 0.913 . S
C2907 H2883 0.950 . S
C2907 C2906 1.524 . S
C2907 C2908 1.415 . S
C2908 H2884 0.950 . S
C2908 C2903 1.363 . S
C2908 C2907 1.415 . S
C2909 H2885 0.951 . S
C2909 C2910 1.366 . S
C2909 C2911 1.388 . S
C2910 C2909 1.366 . S
C2910 C2914 1.385 1_565 S
C2911 H2886 0.951 . S
C2911 C2909 1.388 . S
C2911 C2912 1.360 . S
C2912 C2911 1.360 . S
C2912 C2913 1.419 1_565 S
C2912 C2915 1.499 1_565 S
C2913 H2887 0.950 . S
C2913 C2912 1.419 1_545 S
C2913 C2914 1.374 . S
C2914 H2888 0.950 . S
C2914 C2910 1.385 1_545 S
C2914 C2913 1.374 . S
C2915 C2912 1.499 1_545 S
C2915 C2916 1.373 . S
C2915 C2917 1.389 1_545 S
C2916 H2889 0.950 . S
C2916 C2902 1.377 . S
C2916 C2915 1.373 . S
C2917 C2901 1.377 . S
C2917 C2915 1.389 1_565 S
C2917 C2918 1.524 . S
C2918 C2917 1.524 . S
C2918 C2919 1.397 1_565 S
C2918 C2923 1.363 . S
C2919 H2890 0.950 . S
C2919 C2918 1.397 1_545 S
C2919 C2920 1.334 . S
C2920 H2891 0.950 . S
C2920 C2919 1.334 . S
C2920 C2921 1.287 1_545 S
C2921 C2920 1.287 1_565 S
C2921 C2922 1.524 . S
C2921 H2924 0.999 . S
C2922 H2892 0.950 . S
C2922 C2921 1.524 . S
C2922 C2923 1.415 . S
C2923 H2893 0.950 . S
C2923 C2918 1.363 . S
C2923 C2922 1.415 . S
H2924 C2921 0.999 . S
H2925 C2906 0.913 . S
H2926 C2944 0.951 . S
H2927 C2946 0.951 . S
H2928 C2948 0.950 . S
H2929 C2949 0.950 . S
H2930 C2951 0.950 . S
H2931 C2954 0.950 . S
H2932 C2955 0.950 . S
H2933 C2957 0.950 . S
H2934 C2958 0.950 . S
H2935 C2959 0.951 . S
H2936 C2961 0.951 . S
H2937 C2963 0.950 . S
H2938 C2964 0.950 . S
H2939 C2966 0.950 . S
H2940 C2969 0.950 . S
H2941 C2970 0.950 . S
H2942 C2972 0.950 . S
H2943 C2973 0.950 . S
C2944 H2926 0.951 . S
C2944 C2945 1.366 . S
C2944 C2946 1.388 . S
C2945 C2944 1.366 . S
C2945 C2949 1.385 . S
C2946 H2927 0.951 . S
C2946 C2944 1.388 . S
C2946 C2947 1.366 . S
C2947 C2946 1.366 . S
C2947 C2948 1.414 . S
C2947 C2950 1.499 . S
C2948 H2928 0.950 . S
C2948 C2947 1.414 . S
C2948 C2949 1.374 . S
C2949 H2929 0.950 . S
C2949 C2945 1.385 . S
C2949 C2948 1.374 . S
C2950 C2947 1.499 . S
C2950 C2951 1.373 . S
C2950 C2952 1.389 . S
C2951 H2930 0.950 . S
C2951 C2950 1.373 . S
C2951 C2967 1.377 . S
C2952 C2950 1.389 . S
C2952 C2953 1.524 . S
C2952 C2966 1.377 . S
C2953 C2952 1.524 . S
C2953 C2954 1.397 . S
C2953 C2958 1.363 . S
C2954 H2931 0.950 . S
C2954 C2953 1.397 . S
C2954 C2955 1.334 . S
C2955 H2932 0.950 . S
C2955 C2954 1.334 . S
C2955 C2956 1.287 . S
C2956 C2955 1.287 . S
C2956 C2957 1.524 . S
C2956 H2975 0.913 . S
C2957 H2933 0.950 . S
C2957 C2956 1.524 . S
C2957 C2958 1.415 . S
C2958 H2934 0.950 . S
C2958 C2953 1.363 . S
C2958 C2957 1.415 . S
C2959 H2935 0.951 . S
C2959 C2960 1.366 . S
C2959 C2961 1.388 . S
C2960 C2959 1.366 . S
C2960 C2964 1.385 . S
C2961 H2936 0.951 . S
C2961 C2959 1.388 . S
C2961 C2962 1.366 . S
C2962 C2961 1.366 . S
C2962 C2963 1.414 . S
C2962 C2965 1.499 . S
C2963 H2937 0.950 . S
C2963 C2962 1.414 . S
C2963 C2964 1.374 . S
C2964 H2938 0.950 . S
C2964 C2960 1.385 . S
C2964 C2963 1.374 . S
C2965 C2962 1.499 . S
C2965 C2966 1.373 . S
C2965 C2967 1.389 . S
C2966 H2939 0.950 . S
C2966 C2952 1.377 . S
C2966 C2965 1.373 . S
C2967 C2951 1.377 . S
C2967 C2965 1.389 . S
C2967 C2968 1.524 . S
C2968 C2967 1.524 . S
C2968 C2969 1.397 . S
C2968 C2973 1.363 . S
C2969 H2940 0.950 . S
C2969 C2968 1.397 . S
C2969 C2970 1.334 . S
C2970 H2941 0.950 . S
C2970 C2969 1.334 . S
C2970 C2971 1.287 . S
C2971 C2970 1.287 . S
C2971 C2972 1.524 . S
C2971 H2974 0.999 . S
C2972 H2942 0.950 . S
C2972 C2971 1.524 . S
C2972 C2973 1.415 . S
C2973 H2943 0.950 . S
C2973 C2968 1.363 . S
C2973 C2972 1.415 . S
H2974 C2971 0.999 . S
H2975 C2956 0.913 . S
H2976 C2994 0.952 1_556 S
H2977 C2996 0.951 1_556 S
H2978 C2998 0.950 . S
H2979 C2999 0.950 . S
H2980 C3001 0.964 . S
H2981 C3004 0.950 . S
H2982 C3005 0.950 . S
H2983 C3007 0.950 . S
H2984 C3008 0.950 1_556 S
H2985 C3009 0.951 1_554 S
H2986 C3011 0.947 1_554 S
H2987 C3013 0.950 . S
H2988 C3014 0.950 . S
H2989 C3016 0.950 . S
H2990 C3019 0.950 . S
H2991 C3020 0.950 . S
H2992 C3022 0.950 . S
H2993 C3023 0.950 1_554 S
C2994 H2976 0.952 1_554 S
C2994 C2995 1.366 . S
C2994 C2996 1.388 . S
C2995 C2994 1.366 . S
C2995 C2999 1.385 . S
C2996 H2977 0.951 1_554 S
C2996 C2994 1.388 . S
C2996 C2997 1.366 . S
C2997 C2996 1.366 . S
C2997 C2998 1.414 . S
C2997 C3000 1.499 . S
C2998 H2978 0.950 . S
C2998 C2997 1.414 . S
C2998 C2999 1.374 . S
C2999 H2979 0.950 . S
C2999 C2995 1.385 . S
C2999 C2998 1.374 . S
C3000 C2997 1.499 . S
C3000 C3001 1.347 1_554 S
C3000 C3002 1.389 . S
C3001 H2980 0.964 . S
C3001 C3000 1.347 1_556 S
C3001 C3017 1.392 . S
C3002 C3000 1.389 . S
C3002 C3003 1.524 . S
C3002 C3016 1.377 . S
C3003 C3002 1.524 . S
C3003 C3004 1.397 . S
C3003 C3008 1.363 . S
C3004 H2981 0.950 . S
C3004 C3003 1.397 . S
C3004 C3005 1.334 . S
C3005 H2982 0.950 . S
C3005 C3004 1.334 . S
C3005 C3006 1.287 . S
C3006 C3005 1.287 . S
C3006 C3007 1.524 . S
C3006 H3025 0.913 . S
C3007 H2983 0.950 . S
C3007 C3006 1.524 . S
C3007 C3008 1.415 . S
C3008 H2984 0.950 1_554 S
C3008 C3003 1.363 . S
C3008 C3007 1.415 . S
C3009 H2985 0.951 1_556 S
C3009 C3010 1.366 . S
C3009 C3011 1.389 . S
C3010 C3009 1.366 . S
C3010 C3014 1.385 . S
C3011 H2986 0.947 1_556 S
C3011 C3009 1.389 . S
C3011 C3012 1.367 . S
C3012 C3011 1.367 . S
C3012 C3013 1.414 . S
C3012 C3015 1.499 . S
C3013 H2987 0.950 . S
C3013 C3012 1.414 . S
C3013 C3014 1.374 . S
C3014 H2988 0.950 . S
C3014 C3010 1.385 . S
C3014 C3013 1.374 . S
C3015 C3012 1.499 . S
C3015 C3016 1.373 1_556 S
C3015 C3017 1.389 . S
C3016 H2989 0.950 . S
C3016 C3002 1.377 . S
C3016 C3015 1.373 1_554 S
C3017 C3001 1.392 . S
C3017 C3015 1.389 . S
C3017 C3018 1.524 . S
C3018 C3017 1.524 . S
C3018 C3019 1.397 . S
C3018 C3023 1.363 . S
C3019 H2990 0.950 . S
C3019 C3018 1.397 . S
C3019 C3020 1.334 . S
C3020 H2991 0.950 . S
C3020 C3019 1.334 . S
C3020 C3021 1.287 . S
C3021 C3020 1.287 . S
C3021 C3022 1.524 . S
C3021 H3024 0.999 . S
C3022 H2992 0.950 . S
C3022 C3021 1.524 . S
C3022 C3023 1.415 . S
C3023 H2993 0.950 1_556 S
C3023 C3018 1.363 . S
C3023 C3022 1.415 . S
H3024 C3021 0.999 . S
H3025 C3006 0.913 . S
H3026 C3044 0.951 . S
H3027 C3046 0.951 . S
H3028 C3048 0.950 . S
H3029 C3049 0.950 . S
H3030 C3051 0.950 . S
H3031 C3054 0.965 . S
H3032 C3055 0.950 . S
H3033 C3057 0.950 . S
H3034 C3058 0.950 . S
H3035 C3059 0.951 . S
H3036 C3061 0.951 . S
H3037 C3063 0.950 . S
H3038 C3064 0.950 . S
H3039 C3066 0.950 1_556 S
H3040 C3069 0.950 . S
H3041 C3070 0.950 . S
H3042 C3072 0.950 . S
H3043 C3073 0.950 . S
C3044 H3026 0.951 . S
C3044 C3045 1.366 . S
C3044 C3046 1.388 . S
C3045 C3044 1.366 . S
C3045 C3049 1.385 . S
C3046 H3027 0.951 . S
C3046 C3044 1.388 . S
C3046 C3047 1.366 . S
C3047 C3046 1.366 . S
C3047 C3048 1.414 . S
C3047 C3050 1.499 . S
C3048 H3028 0.950 . S
C3048 C3047 1.414 . S
C3048 C3049 1.374 . S
C3049 H3029 0.950 . S
C3049 C3045 1.385 . S
C3049 C3048 1.374 . S
C3050 C3047 1.499 . S
C3050 C3051 1.373 . S
C3050 C3052 1.389 . S
C3051 H3030 0.950 . S
C3051 C3050 1.373 . S
C3051 C3067 1.377 . S
C3052 C3050 1.389 . S
C3052 C3053 1.524 1_554 S
C3052 C3066 1.377 . S
C3053 C3052 1.524 1_556 S
C3053 C3054 1.397 . S
C3053 C3058 1.363 . S
C3054 H3031 0.965 . S
C3054 C3053 1.397 . S
C3054 C3055 1.334 . S
C3055 H3032 0.950 . S
C3055 C3054 1.334 . S
C3055 C3056 1.287 . S
C3056 C3055 1.287 . S
C3056 C3057 1.524 . S
C3056 H3075 0.913 . S
C3057 H3033 0.950 . S
C3057 C3056 1.524 . S
C3057 C3058 1.415 . S
C3058 H3034 0.950 . S
C3058 C3053 1.363 . S
C3058 C3057 1.415 . S
C3059 H3035 0.951 . S
C3059 C3060 1.366 . S
C3059 C3061 1.388 . S
C3060 C3059 1.366 . S
C3060 C3064 1.385 . S
C3061 H3036 0.951 . S
C3061 C3059 1.388 . S
C3061 C3062 1.366 . S
C3062 C3061 1.366 . S
C3062 C3063 1.414 . S
C3062 C3065 1.499 . S
C3063 H3037 0.950 . S
C3063 C3062 1.414 . S
C3063 C3064 1.374 . S
C3064 H3038 0.950 . S
C3064 C3060 1.385 . S
C3064 C3063 1.374 . S
C3065 C3062 1.499 . S
C3065 C3066 1.373 . S
C3065 C3067 1.389 . S
C3066 H3039 0.950 1_554 S
C3066 C3052 1.377 . S
C3066 C3065 1.373 . S
C3067 C3051 1.377 . S
C3067 C3065 1.389 . S
C3067 C3068 1.524 . S
C3068 C3067 1.524 . S
C3068 C3069 1.397 . S
C3068 C3073 1.363 . S
C3069 H3040 0.950 . S
C3069 C3068 1.397 . S
C3069 C3070 1.334 . S
C3070 H3041 0.950 . S
C3070 C3069 1.334 . S
C3070 C3071 1.287 . S
C3071 C3070 1.287 . S
C3071 C3072 1.524 . S
C3071 H3074 0.999 . S
C3072 H3042 0.950 . S
C3072 C3071 1.524 . S
C3072 C3073 1.415 . S
C3073 H3043 0.950 . S
C3073 C3068 1.363 . S
C3073 C3072 1.415 . S
H3074 C3071 0.999 . S
H3075 C3056 0.913 . S
H3076 C3094 0.951 . S
H3077 C3096 0.951 . S
H3078 C3098 0.950 . S
H3079 C3099 0.950 . S
H3080 C3101 0.950 . S
H3081 C3104 0.950 . S
H3082 C3105 0.950 . S
H3083 C3107 0.950 . S
H3084 C3108 0.950 . S
H3085 C3109 0.951 . S
H3086 C3111 0.951 . S
H3087 C3113 0.950 . S
H3088 C3114 0.950 . S
H3089 C3116 0.950 . S
H3090 C3119 0.950 . S
H3091 C3120 0.950 . S
H3092 C3122 0.950 . S
H3093 C3123 0.950 . S
C3094 H3076 0.951 . S
C3094 C3095 1.366 . S
C3094 C3096 1.388 . S
C3095 C3094 1.366 . S
C3095 C3099 1.385 . S
C3096 H3077 0.951 . S
C3096 C3094 1.388 . S
C3096 C3097 1.366 . S
C3097 C3096 1.366 . S
C3097 C3098 1.414 . S
C3097 C3100 1.499 . S
C3098 H3078 0.950 . S
C3098 C3097 1.414 . S
C3098 C3099 1.374 . S
C3099 H3079 0.950 . S
C3099 C3095 1.385 . S
C3099 C3098 1.374 . S
C3100 C3097 1.499 . S
C3100 C3101 1.373 . S
C3100 C3102 1.389 . S
C3101 H3080 0.950 . S
C3101 C3100 1.373 . S
C3101 C3117 1.377 . S
C3102 C3100 1.389 . S
C3102 C3103 1.524 . S
C3102 C3116 1.377 . S
C3103 C3102 1.524 . S
C3103 C3104 1.397 . S
C3103 C3108 1.363 . S
C3104 H3081 0.950 . S
C3104 C3103 1.397 . S
C3104 C3105 1.334 . S
C3105 H3082 0.950 . S
C3105 C3104 1.334 . S
C3105 C3106 1.287 . S
C3106 C3105 1.287 . S
C3106 C3107 1.524 . S
C3106 H3125 0.913 . S
C3107 H3083 0.950 . S
C3107 C3106 1.524 . S
C3107 C3108 1.415 . S
C3108 H3084 0.950 . S
C3108 C3103 1.363 . S
C3108 C3107 1.415 . S
C3109 H3085 0.951 . S
C3109 C3110 1.366 . S
C3109 C3111 1.388 . S
C3110 C3109 1.366 . S
C3110 C3114 1.385 . S
C3111 H3086 0.951 . S
C3111 C3109 1.388 . S
C3111 C3112 1.366 . S
C3112 C3111 1.366 . S
C3112 C3113 1.414 . S
C3112 C3115 1.499 . S
C3113 H3087 0.950 . S
C3113 C3112 1.414 . S
C3113 C3114 1.374 . S
C3114 H3088 0.950 . S
C3114 C3110 1.385 . S
C3114 C3113 1.374 . S
C3115 C3112 1.499 . S
C3115 C3116 1.373 . S
C3115 C3117 1.389 . S
C3116 H3089 0.950 . S
C3116 C3102 1.377 . S
C3116 C3115 1.373 . S
C3117 C3101 1.377 . S
C3117 C3115 1.389 . S
C3117 C3118 1.524 . S
C3118 C3117 1.524 . S
C3118 C3119 1.397 . S
C3118 C3123 1.363 . S
C3119 H3090 0.950 . S
C3119 C3118 1.397 . S
C3119 C3120 1.334 . S
C3120 H3091 0.950 . S
C3120 C3119 1.334 . S
C3120 C3121 1.287 . S
C3121 C3120 1.287 . S
C3121 C3122 1.524 . S
C3121 H3124 0.999 . S
C3122 H3092 0.950 . S
C3122 C3121 1.524 . S
C3122 C3123 1.415 . S
C3123 H3093 0.950 . S
C3123 C3118 1.363 . S
C3123 C3122 1.415 . S
H3124 C3121 0.999 . S
H3125 C3106 0.913 . S
H3126 C3144 0.951 . S
H3127 C3146 0.951 . S
H3128 C3148 0.950 . S
H3129 C3149 0.950 . S
H3130 C3151 0.950 . S
H3131 C3154 0.950 . S
H3132 C3155 0.950 . S
H3133 C3157 0.950 . S
H3134 C3158 0.950 . S
H3135 C3159 0.951 . S
H3136 C3161 0.951 . S
H3137 C3163 0.950 . S
H3138 C3164 0.950 . S
H3139 C3166 0.950 . S
H3140 C3169 0.950 . S
H3141 C3170 0.950 . S
H3142 C3172 0.950 . S
H3143 C3173 0.950 . S
C3144 H3126 0.951 . S
C3144 C3145 1.366 . S
C3144 C3146 1.388 . S
C3145 C3144 1.366 . S
C3145 C3149 1.385 . S
C3146 H3127 0.951 . S
C3146 C3144 1.388 . S
C3146 C3147 1.366 . S
C3147 C3146 1.366 . S
C3147 C3148 1.414 . S
C3147 C3150 1.499 . S
C3148 H3128 0.950 . S
C3148 C3147 1.414 . S
C3148 C3149 1.374 . S
C3149 H3129 0.950 . S
C3149 C3145 1.385 . S
C3149 C3148 1.374 . S
C3150 C3147 1.499 . S
C3150 C3151 1.373 . S
C3150 C3152 1.389 . S
C3151 H3130 0.950 . S
C3151 C3150 1.373 . S
C3151 C3167 1.377 . S
C3152 C3150 1.389 . S
C3152 C3153 1.524 . S
C3152 C3166 1.377 . S
C3153 C3152 1.524 . S
C3153 C3154 1.397 . S
C3153 C3158 1.363 . S
C3154 H3131 0.950 . S
C3154 C3153 1.397 . S
C3154 C3155 1.334 . S
C3155 H3132 0.950 . S
C3155 C3154 1.334 . S
C3155 C3156 1.287 . S
C3156 C3155 1.287 . S
C3156 C3157 1.524 . S
C3156 H3175 0.913 . S
C3157 H3133 0.950 . S
C3157 C3156 1.524 . S
C3157 C3158 1.415 . S
C3158 H3134 0.950 . S
C3158 C3153 1.363 . S
C3158 C3157 1.415 . S
C3159 H3135 0.951 . S
C3159 C3160 1.366 . S
C3159 C3161 1.388 . S
C3160 C3159 1.366 . S
C3160 C3164 1.385 . S
C3161 H3136 0.951 . S
C3161 C3159 1.388 . S
C3161 C3162 1.366 . S
C3162 C3161 1.366 . S
C3162 C3163 1.414 . S
C3162 C3165 1.499 . S
C3163 H3137 0.950 . S
C3163 C3162 1.414 . S
C3163 C3164 1.374 . S
C3164 H3138 0.950 . S
C3164 C3160 1.385 . S
C3164 C3163 1.374 . S
C3165 C3162 1.499 . S
C3165 C3166 1.373 . S
C3165 C3167 1.389 . S
C3166 H3139 0.950 . S
C3166 C3152 1.377 . S
C3166 C3165 1.373 . S
C3167 C3151 1.377 . S
C3167 C3165 1.389 . S
C3167 C3168 1.524 . S
C3168 C3167 1.524 . S
C3168 C3169 1.397 . S
C3168 C3173 1.363 . S
C3169 H3140 0.950 . S
C3169 C3168 1.397 . S
C3169 C3170 1.334 . S
C3170 H3141 0.950 . S
C3170 C3169 1.334 . S
C3170 C3171 1.287 . S
C3171 C3170 1.287 . S
C3171 C3172 1.524 . S
C3171 H3174 0.999 . S
C3172 H3142 0.950 . S
C3172 C3171 1.524 . S
C3172 C3173 1.415 . S
C3173 H3143 0.950 . S
C3173 C3168 1.363 . S
C3173 C3172 1.415 . S
H3174 C3171 0.999 . S
H3175 C3156 0.913 . S
H3176 C3194 0.951 . S
H3177 C3196 0.951 . S
H3178 C3198 0.950 1_545 S
H3179 C3199 0.950 . S
H3180 C3201 0.950 . S
H3181 C3204 0.950 . S
H3182 C3205 0.950 . S
H3183 C3207 0.950 . S
H3184 C3208 0.950 . S
H3185 C3209 0.951 . S
H3186 C3211 0.951 . S
H3187 C3213 0.950 . S
H3188 C3214 0.950 . S
H3189 C3216 0.950 . S
H3190 C3219 0.950 . S
H3191 C3220 0.950 . S
H3192 C3222 0.950 . S
H3193 C3223 0.950 . S
C3194 H3176 0.951 . S
C3194 C3195 1.366 1_565 S
C3194 C3196 1.388 . S
C3195 C3194 1.366 1_545 S
C3195 C3199 1.385 . S
C3196 H3177 0.951 . S
C3196 C3194 1.388 . S
C3196 C3197 1.366 . S
C3197 C3196 1.366 . S
C3197 C3198 1.414 . S
C3197 C3200 1.499 . S
C3198 H3178 0.950 1_565 S
C3198 C3197 1.414 . S
C3198 C3199 1.374 1_565 S
C3199 H3179 0.950 . S
C3199 C3195 1.385 . S
C3199 C3198 1.374 1_545 S
C3200 C3197 1.499 . S
C3200 C3201 1.373 . S
C3200 C3202 1.389 . S
C3201 H3180 0.950 . S
C3201 C3200 1.373 . S
C3201 C3217 1.377 . S
C3202 C3200 1.389 . S
C3202 C3203 1.524 . S
C3202 C3216 1.377 . S
C3203 C3202 1.524 . S
C3203 C3204 1.397 . S
C3203 C3208 1.363 . S
C3204 H3181 0.950 . S
C3204 C3203 1.397 . S
C3204 C3205 1.334 . S
C3205 H3182 0.950 . S
C3205 C3204 1.334 . S
C3205 C3206 1.287 . S
C3206 C3205 1.287 . S
C3206 C3207 1.524 . S
C3206 H3225 0.913 . S
C3207 H3183 0.950 . S
C3207 C3206 1.524 . S
C3207 C3208 1.415 . S
C3208 H3184 0.950 . S
C3208 C3203 1.363 . S
C3208 C3207 1.415 . S
C3209 H3185 0.951 . S
C3209 C3210 1.366 . S
C3209 C3211 1.388 . S
C3210 C3209 1.366 . S
C3210 C3214 1.385 . S
C3211 H3186 0.951 . S
C3211 C3209 1.388 . S
C3211 C3212 1.366 . S
C3212 C3211 1.366 . S
C3212 C3213 1.414 . S
C3212 C3215 1.499 . S
C3213 H3187 0.950 . S
C3213 C3212 1.414 . S
C3213 C3214 1.374 . S
C3214 H3188 0.950 . S
C3214 C3210 1.385 . S
C3214 C3213 1.374 . S
C3215 C3212 1.499 . S
C3215 C3216 1.373 . S
C3215 C3217 1.389 . S
C3216 H3189 0.950 . S
C3216 C3202 1.377 . S
C3216 C3215 1.373 . S
C3217 C3201 1.377 . S
C3217 C3215 1.389 . S
C3217 C3218 1.524 . S
C3218 C3217 1.524 . S
C3218 C3219 1.397 . S
C3218 C3223 1.363 . S
C3219 H3190 0.950 . S
C3219 C3218 1.397 . S
C3219 C3220 1.334 . S
C3220 H3191 0.950 . S
C3220 C3219 1.334 . S
C3220 C3221 1.287 . S
C3221 C3220 1.287 . S
C3221 C3222 1.524 . S
C3221 H3224 0.999 . S
C3222 H3192 0.950 . S
C3222 C3221 1.524 . S
C3222 C3223 1.415 . S
C3223 H3193 0.950 . S
C3223 C3218 1.363 . S
C3223 C3222 1.415 . S
H3224 C3221 0.999 . S
H3225 C3206 0.913 . S
H3226 C3244 0.951 . S
H3227 C3246 0.951 . S
H3228 C3248 0.950 . S
H3229 C3249 0.950 . S
H3230 C3251 0.950 . S
H3231 C3254 0.950 . S
H3232 C3255 0.950 . S
H3233 C3257 0.950 . S
H3234 C3258 0.950 . S
H3235 C3259 0.951 . S
H3236 C3261 0.951 . S
H3237 C3263 0.950 . S
H3238 C3264 0.950 . S
H3239 C3266 0.950 . S
H3240 C3269 0.950 . S
H3241 C3270 0.950 . S
H3242 C3272 0.950 . S
H3243 C3273 0.950 . S
C3244 H3226 0.951 . S
C3244 C3245 1.366 . S
C3244 C3246 1.388 . S
C3245 C3244 1.366 . S
C3245 C3249 1.385 . S
C3246 H3227 0.951 . S
C3246 C3244 1.388 . S
C3246 C3247 1.366 . S
C3247 C3246 1.366 . S
C3247 C3248 1.414 . S
C3247 C3250 1.499 . S
C3248 H3228 0.950 . S
C3248 C3247 1.414 . S
C3248 C3249 1.374 . S
C3249 H3229 0.950 . S
C3249 C3245 1.385 . S
C3249 C3248 1.374 . S
C3250 C3247 1.499 . S
C3250 C3251 1.373 . S
C3250 C3252 1.389 . S
C3251 H3230 0.950 . S
C3251 C3250 1.373 . S
C3251 C3267 1.377 . S
C3252 C3250 1.389 . S
C3252 C3253 1.524 . S
C3252 C3266 1.377 . S
C3253 C3252 1.524 . S
C3253 C3254 1.397 . S
C3253 C3258 1.363 . S
C3254 H3231 0.950 . S
C3254 C3253 1.397 . S
C3254 C3255 1.334 . S
C3255 H3232 0.950 . S
C3255 C3254 1.334 . S
C3255 C3256 1.287 . S
C3256 C3255 1.287 . S
C3256 C3257 1.524 . S
C3256 H3275 0.913 . S
C3257 H3233 0.950 . S
C3257 C3256 1.524 . S
C3257 C3258 1.415 . S
C3258 H3234 0.950 . S
C3258 C3253 1.363 . S
C3258 C3257 1.415 . S
C3259 H3235 0.951 . S
C3259 C3260 1.366 . S
C3259 C3261 1.388 . S
C3260 C3259 1.366 . S
C3260 C3264 1.385 . S
C3261 H3236 0.951 . S
C3261 C3259 1.388 . S
C3261 C3262 1.366 . S
C3262 C3261 1.366 . S
C3262 C3263 1.414 . S
C3262 C3265 1.499 . S
C3263 H3237 0.950 . S
C3263 C3262 1.414 . S
C3263 C3264 1.374 . S
C3264 H3238 0.950 . S
C3264 C3260 1.385 . S
C3264 C3263 1.374 . S
C3265 C3262 1.499 . S
C3265 C3266 1.373 . S
C3265 C3267 1.389 . S
C3266 H3239 0.950 . S
C3266 C3252 1.377 . S
C3266 C3265 1.373 . S
C3267 C3251 1.377 . S
C3267 C3265 1.389 . S
C3267 C3268 1.524 . S
C3268 C3267 1.524 . S
C3268 C3269 1.397 . S
C3268 C3273 1.363 . S
C3269 H3240 0.950 . S
C3269 C3268 1.397 . S
C3269 C3270 1.334 . S
C3270 H3241 0.950 . S
C3270 C3269 1.334 . S
C3270 C3271 1.287 . S
C3271 C3270 1.287 . S
C3271 C3272 1.524 . S
C3271 H3274 0.999 . S
C3272 H3242 0.950 . S
C3272 C3271 1.524 . S
C3272 C3273 1.415 . S
C3273 H3243 0.950 . S
C3273 C3268 1.363 . S
C3273 C3272 1.415 . S
H3274 C3271 0.999 . S
H3275 C3256 0.913 . S
H3276 C3294 0.951 . S
H3277 C3296 0.951 . S
H3278 C3298 0.950 . S
H3279 C3299 0.950 . S
H3280 C3301 0.950 . S
H3281 C3304 0.950 . S
H3282 C3305 0.950 . S
H3283 C3307 0.950 . S
H3284 C3308 0.950 . S
H3285 C3309 0.951 . S
H3286 C3311 0.951 . S
H3287 C3313 0.950 . S
H3288 C3314 0.950 . S
H3289 C3316 0.950 . S
H3290 C3319 0.950 . S
H3291 C3320 0.950 . S
H3292 C3322 0.950 . S
H3293 C3323 0.950 . S
C3294 H3276 0.951 . S
C3294 C3295 1.366 . S
C3294 C3296 1.388 . S
C3295 C3294 1.366 . S
C3295 C3299 1.385 . S
C3296 H3277 0.951 . S
C3296 C3294 1.388 . S
C3296 C3297 1.366 . S
C3297 C3296 1.366 . S
C3297 C3298 1.414 . S
C3297 C3300 1.499 . S
C3298 H3278 0.950 . S
C3298 C3297 1.414 . S
C3298 C3299 1.374 . S
C3299 H3279 0.950 . S
C3299 C3295 1.385 . S
C3299 C3298 1.374 . S
C3300 C3297 1.499 . S
C3300 C3301 1.373 . S
C3300 C3302 1.389 . S
C3301 H3280 0.950 . S
C3301 C3300 1.373 . S
C3301 C3317 1.377 . S
C3302 C3300 1.389 . S
C3302 C3303 1.524 . S
C3302 C3316 1.377 . S
C3303 C3302 1.524 . S
C3303 C3304 1.397 . S
C3303 C3308 1.363 . S
C3304 H3281 0.950 . S
C3304 C3303 1.397 . S
C3304 C3305 1.334 . S
C3305 H3282 0.950 . S
C3305 C3304 1.334 . S
C3305 C3306 1.287 . S
C3306 C3305 1.287 . S
C3306 C3307 1.524 . S
C3306 H3325 0.913 . S
C3307 H3283 0.950 . S
C3307 C3306 1.524 . S
C3307 C3308 1.415 . S
C3308 H3284 0.950 . S
C3308 C3303 1.363 . S
C3308 C3307 1.415 . S
C3309 H3285 0.951 . S
C3309 C3310 1.366 . S
C3309 C3311 1.388 . S
C3310 C3309 1.366 . S
C3310 C3314 1.385 . S
C3311 H3286 0.951 . S
C3311 C3309 1.388 . S
C3311 C3312 1.366 . S
C3312 C3311 1.366 . S
C3312 C3313 1.414 . S
C3312 C3315 1.499 . S
C3313 H3287 0.950 . S
C3313 C3312 1.414 . S
C3313 C3314 1.374 . S
C3314 H3288 0.950 . S
C3314 C3310 1.385 . S
C3314 C3313 1.374 . S
C3315 C3312 1.499 . S
C3315 C3316 1.373 . S
C3315 C3317 1.389 . S
C3316 H3289 0.950 . S
C3316 C3302 1.377 . S
C3316 C3315 1.373 . S
C3317 C3301 1.377 . S
C3317 C3315 1.389 . S
C3317 C3318 1.524 . S
C3318 C3317 1.524 . S
C3318 C3319 1.397 . S
C3318 C3323 1.363 . S
C3319 H3290 0.950 . S
C3319 C3318 1.397 . S
C3319 C3320 1.334 . S
C3320 H3291 0.950 . S
C3320 C3319 1.334 . S
C3320 C3321 1.287 . S
C3321 C3320 1.287 . S
C3321 C3322 1.524 . S
C3321 H3324 0.999 . S
C3322 H3292 0.950 . S
C3322 C3321 1.524 . S
C3322 C3323 1.415 . S
C3323 H3293 0.950 . S
C3323 C3318 1.363 . S
C3323 C3322 1.415 . S
H3324 C3321 0.999 . S
H3325 C3306 0.913 . S
H3326 C3344 0.951 . S
H3327 C3346 0.951 . S
H3328 C3348 0.950 . S
H3329 C3349 0.950 . S
H3330 C3351 0.950 . S
H3331 C3354 0.950 . S
H3332 C3355 0.950 . S
H3333 C3357 0.950 . S
H3334 C3358 0.950 . S
H3335 C3359 0.951 . S
H3336 C3361 0.951 . S
H3337 C3363 0.950 . S
H3338 C3364 0.950 . S
H3339 C3366 0.950 . S
H3340 C3369 0.950 . S
H3341 C3370 0.950 . S
H3342 C3372 0.950 . S
H3343 C3373 0.950 . S
C3344 H3326 0.951 . S
C3344 C3345 1.366 . S
C3344 C3346 1.388 . S
C3345 C3344 1.366 . S
C3345 C3349 1.385 . S
C3346 H3327 0.951 . S
C3346 C3344 1.388 . S
C3346 C3347 1.366 . S
C3347 C3346 1.366 . S
C3347 C3348 1.414 . S
C3347 C3350 1.499 . S
C3348 H3328 0.950 . S
C3348 C3347 1.414 . S
C3348 C3349 1.374 . S
C3349 H3329 0.950 . S
C3349 C3345 1.385 . S
C3349 C3348 1.374 . S
C3350 C3347 1.499 . S
C3350 C3351 1.373 . S
C3350 C3352 1.389 . S
C3351 H3330 0.950 . S
C3351 C3350 1.373 . S
C3351 C3367 1.377 . S
C3352 C3350 1.389 . S
C3352 C3353 1.524 . S
C3352 C3366 1.377 . S
C3353 C3352 1.524 . S
C3353 C3354 1.397 . S
C3353 C3358 1.363 . S
C3354 H3331 0.950 . S
C3354 C3353 1.397 . S
C3354 C3355 1.334 . S
C3355 H3332 0.950 . S
C3355 C3354 1.334 . S
C3355 C3356 1.287 . S
C3356 C3355 1.287 . S
C3356 C3357 1.524 . S
C3356 H3375 0.913 . S
C3357 H3333 0.950 . S
C3357 C3356 1.524 . S
C3357 C3358 1.415 . S
C3358 H3334 0.950 . S
C3358 C3353 1.363 . S
C3358 C3357 1.415 . S
C3359 H3335 0.951 . S
C3359 C3360 1.366 . S
C3359 C3361 1.388 . S
C3360 C3359 1.366 . S
C3360 C3364 1.385 . S
C3361 H3336 0.951 . S
C3361 C3359 1.388 . S
C3361 C3362 1.366 . S
C3362 C3361 1.366 . S
C3362 C3363 1.414 . S
C3362 C3365 1.499 . S
C3363 H3337 0.950 . S
C3363 C3362 1.414 . S
C3363 C3364 1.374 . S
C3364 H3338 0.950 . S
C3364 C3360 1.385 . S
C3364 C3363 1.374 . S
C3365 C3362 1.499 . S
C3365 C3366 1.373 . S
C3365 C3367 1.389 . S
C3366 H3339 0.950 . S
C3366 C3352 1.377 . S
C3366 C3365 1.373 . S
C3367 C3351 1.377 . S
C3367 C3365 1.389 . S
C3367 C3368 1.524 . S
C3368 C3367 1.524 . S
C3368 C3369 1.397 . S
C3368 C3373 1.363 . S
C3369 H3340 0.950 . S
C3369 C3368 1.397 . S
C3369 C3370 1.334 . S
C3370 H3341 0.950 . S
C3370 C3369 1.334 . S
C3370 C3371 1.287 . S
C3371 C3370 1.287 . S
C3371 C3372 1.524 . S
C3371 H3374 0.999 . S
C3372 H3342 0.950 . S
C3372 C3371 1.524 . S
C3372 C3373 1.415 . S
C3373 H3343 0.950 . S
C3373 C3368 1.363 . S
C3373 C3372 1.415 . S
H3374 C3371 0.999 . S
H3375 C3356 0.913 . S
H3376 C3394 0.951 . S
H3377 C3396 0.951 . S
H3378 C3398 0.950 . S
H3379 C3399 0.950 . S
H3380 C3401 0.950 . S
H3381 C3404 0.950 . S
H3382 C3405 0.950 . S
H3383 C3407 0.950 . S
H3384 C3408 0.950 . S
H3385 C3409 0.951 . S
H3386 C3411 0.951 . S
H3387 C3413 0.950 . S
H3388 C3414 0.950 . S
H3389 C3416 0.950 . S
H3390 C3419 0.950 . S
H3391 C3420 0.950 . S
H3392 C3422 0.950 . S
H3393 C3423 0.950 . S
C3394 H3376 0.951 . S
C3394 C3395 1.366 . S
C3394 C3396 1.388 . S
C3395 C3394 1.366 . S
C3395 C3399 1.385 . S
C3396 H3377 0.951 . S
C3396 C3394 1.388 . S
C3396 C3397 1.366 . S
C3397 C3396 1.366 . S
C3397 C3398 1.414 . S
C3397 C3400 1.499 . S
C3398 H3378 0.950 . S
C3398 C3397 1.414 . S
C3398 C3399 1.374 . S
C3399 H3379 0.950 . S
C3399 C3395 1.385 . S
C3399 C3398 1.374 . S
C3400 C3397 1.499 . S
C3400 C3401 1.373 . S
C3400 C3402 1.389 . S
C3401 H3380 0.950 . S
C3401 C3400 1.373 . S
C3401 C3417 1.377 . S
C3402 C3400 1.389 . S
C3402 C3403 1.524 . S
C3402 C3416 1.377 . S
C3403 C3402 1.524 . S
C3403 C3404 1.397 . S
C3403 C3408 1.363 . S
C3404 H3381 0.950 . S
C3404 C3403 1.397 . S
C3404 C3405 1.334 . S
C3405 H3382 0.950 . S
C3405 C3404 1.334 . S
C3405 C3406 1.287 . S
C3406 C3405 1.287 . S
C3406 C3407 1.524 . S
C3406 H3425 0.913 . S
C3407 H3383 0.950 . S
C3407 C3406 1.524 . S
C3407 C3408 1.415 . S
C3408 H3384 0.950 . S
C3408 C3403 1.363 . S
C3408 C3407 1.415 . S
C3409 H3385 0.951 . S
C3409 C3410 1.366 . S
C3409 C3411 1.388 . S
C3410 C3409 1.366 . S
C3410 C3414 1.385 . S
C3411 H3386 0.951 . S
C3411 C3409 1.388 . S
C3411 C3412 1.366 . S
C3412 C3411 1.366 . S
C3412 C3413 1.414 . S
C3412 C3415 1.499 . S
C3413 H3387 0.950 . S
C3413 C3412 1.414 . S
C3413 C3414 1.374 . S
C3414 H3388 0.950 . S
C3414 C3410 1.385 . S
C3414 C3413 1.374 . S
C3415 C3412 1.499 . S
C3415 C3416 1.373 . S
C3415 C3417 1.389 . S
C3416 H3389 0.950 . S
C3416 C3402 1.377 . S
C3416 C3415 1.373 . S
C3417 C3401 1.377 . S
C3417 C3415 1.389 . S
C3417 C3418 1.524 . S
C3418 C3417 1.524 . S
C3418 C3419 1.397 . S
C3418 C3423 1.363 . S
C3419 H3390 0.950 . S
C3419 C3418 1.397 . S
C3419 C3420 1.334 . S
C3420 H3391 0.950 . S
C3420 C3419 1.334 . S
C3420 C3421 1.287 . S
C3421 C3420 1.287 . S
C3421 C3422 1.524 . S
C3421 H3424 0.999 . S
C3422 H3392 0.950 . S
C3422 C3421 1.524 . S
C3422 C3423 1.415 . S
C3423 H3393 0.950 . S
C3423 C3418 1.363 . S
C3423 C3422 1.415 . S
H3424 C3421 0.999 . S
H3425 C3406 0.913 . S
H3426 C3444 0.951 . S
H3427 C3446 0.951 . S
H3428 C3448 0.950 . S
H3429 C3449 0.950 . S
H3430 C3451 0.950 . S
H3431 C3454 0.950 . S
H3432 C3455 0.950 . S
H3433 C3457 0.950 . S
H3434 C3458 0.950 . S
H3435 C3459 0.951 . S
H3436 C3461 0.951 . S
H3437 C3463 0.950 . S
H3438 C3464 0.950 . S
H3439 C3466 0.950 . S
H3440 C3469 0.950 . S
H3441 C3470 0.950 . S
H3442 C3472 0.950 . S
H3443 C3473 0.950 . S
C3444 H3426 0.951 . S
C3444 C3445 1.366 . S
C3444 C3446 1.388 . S
C3445 C3444 1.366 . S
C3445 C3449 1.385 . S
C3446 H3427 0.951 . S
C3446 C3444 1.388 . S
C3446 C3447 1.366 . S
C3447 C3446 1.366 . S
C3447 C3448 1.414 . S
C3447 C3450 1.499 . S
C3448 H3428 0.950 . S
C3448 C3447 1.414 . S
C3448 C3449 1.374 . S
C3449 H3429 0.950 . S
C3449 C3445 1.385 . S
C3449 C3448 1.374 . S
C3450 C3447 1.499 . S
C3450 C3451 1.373 . S
C3450 C3452 1.389 . S
C3451 H3430 0.950 . S
C3451 C3450 1.373 . S
C3451 C3467 1.377 . S
C3452 C3450 1.389 . S
C3452 C3453 1.524 . S
C3452 C3466 1.377 . S
C3453 C3452 1.524 . S
C3453 C3454 1.397 . S
C3453 C3458 1.363 . S
C3454 H3431 0.950 . S
C3454 C3453 1.397 . S
C3454 C3455 1.334 . S
C3455 H3432 0.950 . S
C3455 C3454 1.334 . S
C3455 C3456 1.287 . S
C3456 C3455 1.287 . S
C3456 C3457 1.524 . S
C3456 H3475 0.913 . S
C3457 H3433 0.950 . S
C3457 C3456 1.524 . S
C3457 C3458 1.415 . S
C3458 H3434 0.950 . S
C3458 C3453 1.363 . S
C3458 C3457 1.415 . S
C3459 H3435 0.951 . S
C3459 C3460 1.366 . S
C3459 C3461 1.388 . S
C3460 C3459 1.366 . S
C3460 C3464 1.385 . S
C3461 H3436 0.951 . S
C3461 C3459 1.388 . S
C3461 C3462 1.366 . S
C3462 C3461 1.366 . S
C3462 C3463 1.414 . S
C3462 C3465 1.499 . S
C3463 H3437 0.950 . S
C3463 C3462 1.414 . S
C3463 C3464 1.374 . S
C3464 H3438 0.950 . S
C3464 C3460 1.385 . S
C3464 C3463 1.374 . S
C3465 C3462 1.499 . S
C3465 C3466 1.373 . S
C3465 C3467 1.389 . S
C3466 H3439 0.950 . S
C3466 C3452 1.377 . S
C3466 C3465 1.373 . S
C3467 C3451 1.377 . S
C3467 C3465 1.389 . S
C3467 C3468 1.524 . S
C3468 C3467 1.524 . S
C3468 C3469 1.397 . S
C3468 C3473 1.363 . S
C3469 H3440 0.950 . S
C3469 C3468 1.397 . S
C3469 C3470 1.334 . S
C3470 H3441 0.950 . S
C3470 C3469 1.334 . S
C3470 C3471 1.287 . S
C3471 C3470 1.287 . S
C3471 C3472 1.524 . S
C3471 H3474 0.999 . S
C3472 H3442 0.950 . S
C3472 C3471 1.524 . S
C3472 C3473 1.415 . S
C3473 H3443 0.950 . S
C3473 C3468 1.363 . S
C3473 C3472 1.415 . S
H3474 C3471 0.999 . S
H3475 C3456 0.913 . S
H3476 C3494 0.951 . S
H3477 C3496 0.951 . S
H3478 C3498 0.950 . S
H3479 C3499 0.950 . S
H3480 C3501 0.950 . S
H3481 C3504 0.950 . S
H3482 C3505 0.950 . S
H3483 C3507 0.950 . S
H3484 C3508 0.950 . S
H3485 C3509 0.951 . S
H3486 C3511 0.951 1_556 S
H3487 C3513 0.950 . S
H3488 C3514 0.950 . S
H3489 C3516 0.950 . S
H3490 C3519 0.950 . S
H3491 C3520 0.950 . S
H3492 C3522 0.950 . S
H3493 C3523 0.950 1_556 S
C3494 H3476 0.951 . S
C3494 C3495 1.366 . S
C3494 C3496 1.388 . S
C3495 C3494 1.366 . S
C3495 C3499 1.385 . S
C3496 H3477 0.951 . S
C3496 C3494 1.388 . S
C3496 C3497 1.366 . S
C3497 C3496 1.366 . S
C3497 C3498 1.414 . S
C3497 C3500 1.499 . S
C3498 H3478 0.950 . S
C3498 C3497 1.414 . S
C3498 C3499 1.374 . S
C3499 H3479 0.950 . S
C3499 C3495 1.385 . S
C3499 C3498 1.374 . S
C3500 C3497 1.499 . S
C3500 C3501 1.373 . S
C3500 C3502 1.389 . S
C3501 H3480 0.950 . S
C3501 C3500 1.373 . S
C3501 C3517 1.377 . S
C3502 C3500 1.389 . S
C3502 C3503 1.521 1_455 S
C3502 C3516 1.377 . S
C3503 C3502 1.521 1_655 S
C3503 C3504 1.396 1_655 S
C3503 C3508 1.367 . S
C3504 H3481 0.950 . S
C3504 C3503 1.396 1_455 S
C3504 C3505 1.334 1_455 S
C3505 H3482 0.950 . S
C3505 C3504 1.334 1_655 S
C3505 C3506 1.287 . S
C3506 C3505 1.287 . S
C3506 C3507 1.524 . S
C3506 H3525 0.913 . S
C3507 H3483 0.950 . S
C3507 C3506 1.524 . S
C3507 C3508 1.415 . S
C3508 H3484 0.950 . S
C3508 C3503 1.367 . S
C3508 C3507 1.415 . S
C3509 H3485 0.951 . S
C3509 C3510 1.366 . S
C3509 C3511 1.388 . S
C3510 C3509 1.366 . S
C3510 C3514 1.385 . S
C3511 H3486 0.951 1_554 S
C3511 C3509 1.388 . S
C3511 C3512 1.366 . S
C3512 C3511 1.366 . S
C3512 C3513 1.414 . S
C3512 C3515 1.499 1_554 S
C3513 H3487 0.950 . S
C3513 C3512 1.414 . S
C3513 C3514 1.374 . S
C3514 H3488 0.950 . S
C3514 C3510 1.385 . S
C3514 C3513 1.374 . S
C3515 C3512 1.499 1_556 S
C3515 C3516 1.373 . S
C3515 C3517 1.389 . S
C3516 H3489 0.950 . S
C3516 C3502 1.377 . S
C3516 C3515 1.373 . S
C3517 C3501 1.377 . S
C3517 C3515 1.389 . S
C3517 C3518 1.524 1_556 S
C3518 C3517 1.524 1_554 S
C3518 C3519 1.397 . S
C3518 C3523 1.363 . S
C3519 H3490 0.950 . S
C3519 C3518 1.397 . S
C3519 C3520 1.334 . S
C3520 H3491 0.950 . S
C3520 C3519 1.334 . S
C3520 C3521 1.287 . S
C3521 C3520 1.287 . S
C3521 C3522 1.524 . S
C3521 H3524 0.999 . S
C3522 H3492 0.950 . S
C3522 C3521 1.524 . S
C3522 C3523 1.415 . S
C3523 H3493 0.950 1_554 S
C3523 C3518 1.363 . S
C3523 C3522 1.415 . S
H3524 C3521 0.999 . S
H3525 C3506 0.913 . S
H3526 C3544 0.951 . S
H3527 C3546 0.962 1_455 S
H3528 C3548 0.950 . S
H3529 C3549 0.950 . S
H3530 C3551 0.950 . S
H3531 C3554 0.950 . S
H3532 C3555 0.945 1_455 S
H3533 C3557 0.943 1_455 S
H3534 C3558 0.950 . S
H3535 C3559 0.951 . S
H3536 C3561 0.951 . S
H3537 C3563 0.950 . S
H3538 C3564 0.950 . S
H3539 C3566 0.950 . S
H3540 C3569 0.950 . S
H3541 C3570 0.950 . S
H3542 C3572 0.950 . S
H3543 C3573 0.950 . S
C3544 H3526 0.951 . S
C3544 C3545 1.366 . S
C3544 C3546 1.358 1_455 S
C3545 C3544 1.366 . S
C3545 C3549 1.385 1_455 S
C3546 H3527 0.962 1_655 S
C3546 C3544 1.358 1_655 S
C3546 C3547 1.393 . S
C3547 C3546 1.393 . S
C3547 C3548 1.414 . S
C3547 C3550 1.499 . S
C3548 H3528 0.950 . S
C3548 C3547 1.414 . S
C3548 C3549 1.374 . S
C3549 H3529 0.950 . S
C3549 C3545 1.385 1_655 S
C3549 C3548 1.374 . S
C3550 C3547 1.499 . S
C3550 C3551 1.373 . S
C3550 C3552 1.389 . S
C3551 H3530 0.950 . S
C3551 C3550 1.373 . S
C3551 C3567 1.377 . S
C3552 C3550 1.389 . S
C3552 C3553 1.524 . S
C3552 C3566 1.377 . S
C3553 C3552 1.524 . S
C3553 C3554 1.397 . S
C3553 C3558 1.363 . S
C3554 H3531 0.950 . S
C3554 C3553 1.397 . S
C3554 C3555 1.334 . S
C3555 H3532 0.945 1_655 S
C3555 C3554 1.334 . S
C3555 C3556 1.287 1_655 S
C3556 C3555 1.287 1_455 S
C3556 C3557 1.515 1_455 S
C3556 H3575 0.913 . S
C3557 H3533 0.943 1_655 S
C3557 C3556 1.515 1_655 S
C3557 C3558 1.432 . S
C3558 H3534 0.950 . S
C3558 C3553 1.363 . S
C3558 C3557 1.432 . S
C3559 H3535 0.951 . S
C3559 C3560 1.366 . S
C3559 C3561 1.388 . S
C3560 C3559 1.366 . S
C3560 C3564 1.385 . S
C3561 H3536 0.951 . S
C3561 C3559 1.388 . S
C3561 C3562 1.366 . S
C3562 C3561 1.366 . S
C3562 C3563 1.414 . S
C3562 C3565 1.499 . S
C3563 H3537 0.950 . S
C3563 C3562 1.414 . S
C3563 C3564 1.374 . S
C3564 H3538 0.950 . S
C3564 C3560 1.385 . S
C3564 C3563 1.374 . S
C3565 C3562 1.499 . S
C3565 C3566 1.373 . S
C3565 C3567 1.389 . S
C3566 H3539 0.950 . S
C3566 C3552 1.377 . S
C3566 C3565 1.373 . S
C3567 C3551 1.377 . S
C3567 C3565 1.389 . S
C3567 C3568 1.524 . S
C3568 C3567 1.524 . S
C3568 C3569 1.397 . S
C3568 C3573 1.363 . S
C3569 H3540 0.950 . S
C3569 C3568 1.397 . S
C3569 C3570 1.334 . S
C3570 H3541 0.950 . S
C3570 C3569 1.334 . S
C3570 C3571 1.287 . S
C3571 C3570 1.287 . S
C3571 C3572 1.524 . S
C3571 H3574 0.999 . S
C3572 H3542 0.950 . S
C3572 C3571 1.524 . S
C3572 C3573 1.415 . S
C3573 H3543 0.950 . S
C3573 C3568 1.363 . S
C3573 C3572 1.415 . S
H3574 C3571 0.999 . S
H3575 C3556 0.913 . S
H3576 C3594 0.951 . S
H3577 C3596 0.951 . S
H3578 C3598 0.950 . S
H3579 C3599 0.950 . S
H3580 C3601 0.950 . S
H3581 C3604 0.950 . S
H3582 C3605 0.950 . S
H3583 C3607 0.950 . S
H3584 C3608 0.950 . S
H3585 C3609 0.951 . S
H3586 C3611 0.951 . S
H3587 C3613 0.950 . S
H3588 C3614 0.950 . S
H3589 C3616 0.950 . S
H3590 C3619 0.950 . S
H3591 C3620 0.950 . S
H3592 C3622 0.950 . S
H3593 C3623 0.950 . S
C3594 H3576 0.951 . S
C3594 C3595 1.366 . S
C3594 C3596 1.388 . S
C3595 C3594 1.366 . S
C3595 C3599 1.385 . S
C3596 H3577 0.951 . S
C3596 C3594 1.388 . S
C3596 C3597 1.366 . S
C3597 C3596 1.366 . S
C3597 C3598 1.414 . S
C3597 C3600 1.499 . S
C3598 H3578 0.950 . S
C3598 C3597 1.414 . S
C3598 C3599 1.374 . S
C3599 H3579 0.950 . S
C3599 C3595 1.385 . S
C3599 C3598 1.374 . S
C3600 C3597 1.499 . S
C3600 C3601 1.373 . S
C3600 C3602 1.389 . S
C3601 H3580 0.950 . S
C3601 C3600 1.373 . S
C3601 C3617 1.377 . S
C3602 C3600 1.389 . S
C3602 C3603 1.524 . S
C3602 C3616 1.377 . S
C3603 C3602 1.524 . S
C3603 C3604 1.397 . S
C3603 C3608 1.363 . S
C3604 H3581 0.950 . S
C3604 C3603 1.397 . S
C3604 C3605 1.334 . S
C3605 H3582 0.950 . S
C3605 C3604 1.334 . S
C3605 C3606 1.287 . S
C3606 C3605 1.287 . S
C3606 C3607 1.524 . S
C3606 H3625 0.913 . S
C3607 H3583 0.950 . S
C3607 C3606 1.524 . S
C3607 C3608 1.415 . S
C3608 H3584 0.950 . S
C3608 C3603 1.363 . S
C3608 C3607 1.415 . S
C3609 H3585 0.951 . S
C3609 C3610 1.366 . S
C3609 C3611 1.388 . S
C3610 C3609 1.366 . S
C3610 C3614 1.385 . S
C3611 H3586 0.951 . S
C3611 C3609 1.388 . S
C3611 C3612 1.366 . S
C3612 C3611 1.366 . S
C3612 C3613 1.414 . S
C3612 C3615 1.499 . S
C3613 H3587 0.950 . S
C3613 C3612 1.414 . S
C3613 C3614 1.374 . S
C3614 H3588 0.950 . S
C3614 C3610 1.385 . S
C3614 C3613 1.374 . S
C3615 C3612 1.499 . S
C3615 C3616 1.373 . S
C3615 C3617 1.389 . S
C3616 H3589 0.950 . S
C3616 C3602 1.377 . S
C3616 C3615 1.373 . S
C3617 C3601 1.377 . S
C3617 C3615 1.389 . S
C3617 C3618 1.524 . S
C3618 C3617 1.524 . S
C3618 C3619 1.397 . S
C3618 C3623 1.363 . S
C3619 H3590 0.950 . S
C3619 C3618 1.397 . S
C3619 C3620 1.334 . S
C3620 H3591 0.950 . S
C3620 C3619 1.334 . S
C3620 C3621 1.287 . S
C3621 C3620 1.287 . S
C3621 C3622 1.524 . S
C3621 H3624 0.999 . S
C3622 H3592 0.950 . S
C3622 C3621 1.524 . S
C3622 C3623 1.415 . S
C3623 H3593 0.950 . S
C3623 C3618 1.363 . S
C3623 C3622 1.415 . S
H3624 C3621 0.999 . S
H3625 C3606 0.913 . S
H3626 C3644 0.951 . S
H3627 C3646 0.951 . S
H3628 C3648 0.950 . S
H3629 C3649 0.950 . S
H3630 C3651 0.950 . S
H3631 C3654 0.950 . S
H3632 C3655 0.950 . S
H3633 C3657 0.950 . S
H3634 C3658 0.950 1_655 S
H3635 C3659 0.951 . S
H3636 C3661 0.951 . S
H3637 C3663 0.950 . S
H3638 C3664 0.950 . S
H3639 C3666 0.950 . S
H3640 C3669 0.950 . S
H3641 C3670 0.950 . S
H3642 C3672 0.950 . S
H3643 C3673 0.950 . S
C3644 H3626 0.951 . S
C3644 C3645 1.366 . S
C3644 C3646 1.388 . S
C3645 C3644 1.366 . S
C3645 C3649 1.385 . S
C3646 H3627 0.951 . S
C3646 C3644 1.388 . S
C3646 C3647 1.366 . S
C3647 C3646 1.366 . S
C3647 C3648 1.414 . S
C3647 C3650 1.499 1_455 S
C3648 H3628 0.950 . S
C3648 C3647 1.414 . S
C3648 C3649 1.374 . S
C3649 H3629 0.950 . S
C3649 C3645 1.385 . S
C3649 C3648 1.374 . S
C3650 C3647 1.499 1_655 S
C3650 C3651 1.373 . S
C3650 C3652 1.389 . S
C3651 H3630 0.950 . S
C3651 C3650 1.373 . S
C3651 C3667 1.377 . S
C3652 C3650 1.389 . S
C3652 C3653 1.524 1_655 S
C3652 C3666 1.377 . S
C3653 C3652 1.524 1_455 S
C3653 C3654 1.397 . S
C3653 C3658 1.363 . S
C3654 H3631 0.950 . S
C3654 C3653 1.397 . S
C3654 C3655 1.334 . S
C3655 H3632 0.950 . S
C3655 C3654 1.334 . S
C3655 C3656 1.287 . S
C3656 C3655 1.287 . S
C3656 C3657 1.524 . S
C3656 H3675 0.913 . S
C3657 H3633 0.950 . S
C3657 C3656 1.524 . S
C3657 C3658 1.415 . S
C3658 H3634 0.950 1_455 S
C3658 C3653 1.363 . S
C3658 C3657 1.415 . S
C3659 H3635 0.951 . S
C3659 C3660 1.366 . S
C3659 C3661 1.388 . S
C3660 C3659 1.366 . S
C3660 C3664 1.385 . S
C3661 H3636 0.951 . S
C3661 C3659 1.388 . S
C3661 C3662 1.366 . S
C3662 C3661 1.366 . S
C3662 C3663 1.414 . S
C3662 C3665 1.499 . S
C3663 H3637 0.950 . S
C3663 C3662 1.414 . S
C3663 C3664 1.374 . S
C3664 H3638 0.950 . S
C3664 C3660 1.385 . S
C3664 C3663 1.374 . S
C3665 C3662 1.499 . S
C3665 C3666 1.373 . S
C3665 C3667 1.389 . S
C3666 H3639 0.950 . S
C3666 C3652 1.377 . S
C3666 C3665 1.373 . S
C3667 C3651 1.377 . S
C3667 C3665 1.389 . S
C3667 C3668 1.524 . S
C3668 C3667 1.524 . S
C3668 C3669 1.397 . S
C3668 C3673 1.363 . S
C3669 H3640 0.950 . S
C3669 C3668 1.397 . S
C3669 C3670 1.334 . S
C3670 H3641 0.950 . S
C3670 C3669 1.334 . S
C3670 C3671 1.287 . S
C3671 C3670 1.287 . S
C3671 C3672 1.524 . S
C3671 H3674 0.999 . S
C3672 H3642 0.950 . S
C3672 C3671 1.524 . S
C3672 C3673 1.415 . S
C3673 H3643 0.950 . S
C3673 C3668 1.363 . S
C3673 C3672 1.415 . S
H3674 C3671 0.999 . S
H3675 C3656 0.913 . S
H3676 C3694 0.951 . S
H3677 C3696 0.951 . S
H3678 C3698 0.950 . S
H3679 C3699 0.950 . S
H3680 C3701 0.950 . S
H3681 C3704 0.950 . S
H3682 C3705 0.950 . S
H3683 C3707 0.950 . S
H3684 C3708 0.950 . S
H3685 C3709 0.951 . S
H3686 C3711 0.951 . S
H3687 C3713 0.950 . S
H3688 C3714 0.950 . S
H3689 C3716 0.950 . S
H3690 C3719 0.950 1_455 S
H3691 C3720 0.950 . S
H3692 C3722 0.950 . S
H3693 C3723 0.950 . S
C3694 H3676 0.951 . S
C3694 C3695 1.366 1_455 S
C3694 C3696 1.388 . S
C3695 C3694 1.366 1_655 S
C3695 C3699 1.385 . S
C3696 H3677 0.951 . S
C3696 C3694 1.388 . S
C3696 C3697 1.366 . S
C3697 C3696 1.366 . S
C3697 C3698 1.414 1_455 S
C3697 C3700 1.499 . S
C3698 H3678 0.950 . S
C3698 C3697 1.414 1_655 S
C3698 C3699 1.374 . S
C3699 H3679 0.950 . S
C3699 C3695 1.385 . S
C3699 C3698 1.374 . S
C3700 C3697 1.499 . S
C3700 C3701 1.373 1_455 S
C3700 C3702 1.389 . S
C3701 H3680 0.950 . S
C3701 C3700 1.373 1_655 S
C3701 C3717 1.377 1_655 S
C3702 C3700 1.389 . S
C3702 C3703 1.524 . S
C3702 C3716 1.377 . S
C3703 C3702 1.524 . S
C3703 C3704 1.397 . S
C3703 C3708 1.363 . S
C3704 H3681 0.950 . S
C3704 C3703 1.397 . S
C3704 C3705 1.334 . S
C3705 H3682 0.950 . S
C3705 C3704 1.334 . S
C3705 C3706 1.287 . S
C3706 C3705 1.287 . S
C3706 C3707 1.524 . S
C3706 H3725 0.913 . S
C3707 H3683 0.950 . S
C3707 C3706 1.524 . S
C3707 C3708 1.415 . S
C3708 H3684 0.950 . S
C3708 C3703 1.363 . S
C3708 C3707 1.415 . S
C3709 H3685 0.951 . S
C3709 C3710 1.366 . S
C3709 C3711 1.388 . S
C3710 C3709 1.366 . S
C3710 C3714 1.385 . S
C3711 H3686 0.951 . S
C3711 C3709 1.388 . S
C3711 C3712 1.366 . S
C3712 C3711 1.366 . S
C3712 C3713 1.414 . S
C3712 C3715 1.499 . S
C3713 H3687 0.950 . S
C3713 C3712 1.414 . S
C3713 C3714 1.374 . S
C3714 H3688 0.950 . S
C3714 C3710 1.385 . S
C3714 C3713 1.374 . S
C3715 C3712 1.499 . S
C3715 C3716 1.373 . S
C3715 C3717 1.389 . S
C3716 H3689 0.950 . S
C3716 C3702 1.377 . S
C3716 C3715 1.373 . S
C3717 C3701 1.377 1_455 S
C3717 C3715 1.389 . S
C3717 C3718 1.524 1_455 S
C3718 C3717 1.524 1_655 S
C3718 C3719 1.397 . S
C3718 C3723 1.363 . S
C3719 H3690 0.950 1_655 S
C3719 C3718 1.397 . S
C3719 C3720 1.334 . S
C3720 H3691 0.950 . S
C3720 C3719 1.334 . S
C3720 C3721 1.287 . S
C3721 C3720 1.287 . S
C3721 C3722 1.524 . S
C3721 H3724 0.999 . S
C3722 H3692 0.950 . S
C3722 C3721 1.524 . S
C3722 C3723 1.415 . S
C3723 H3693 0.950 . S
C3723 C3718 1.363 . S
C3723 C3722 1.415 . S
H3724 C3721 0.999 . S
H3725 C3706 0.913 . S
H3726 C3744 0.951 . S
H3727 C3746 0.951 . S
H3728 C3748 0.950 . S
H3729 C3749 0.950 . S
H3730 C3751 0.950 . S
H3731 C3754 0.950 . S
H3732 C3755 0.950 . S
H3733 C3757 0.950 . S
H3734 C3758 0.950 . S
H3735 C3759 0.951 . S
H3736 C3761 0.951 . S
H3737 C3763 0.950 . S
H3738 C3764 0.950 . S
H3739 C3766 0.950 . S
H3740 C3769 0.950 . S
H3741 C3770 0.950 . S
H3742 C3772 0.950 . S
H3743 C3773 0.950 . S
C3744 H3726 0.951 . S
C3744 C3745 1.366 . S
C3744 C3746 1.388 . S
C3745 C3744 1.366 . S
C3745 C3749 1.385 . S
C3746 H3727 0.951 . S
C3746 C3744 1.388 . S
C3746 C3747 1.366 . S
C3747 C3746 1.366 . S
C3747 C3748 1.414 . S
C3747 C3750 1.499 . S
C3748 H3728 0.950 . S
C3748 C3747 1.414 . S
C3748 C3749 1.374 . S
C3749 H3729 0.950 . S
C3749 C3745 1.385 . S
C3749 C3748 1.374 . S
C3750 C3747 1.499 . S
C3750 C3751 1.373 . S
C3750 C3752 1.389 . S
C3751 H3730 0.950 . S
C3751 C3750 1.373 . S
C3751 C3767 1.377 . S
C3752 C3750 1.389 . S
C3752 C3753 1.524 . S
C3752 C3766 1.377 . S
C3753 C3752 1.524 . S
C3753 C3754 1.397 . S
C3753 C3758 1.363 . S
C3754 H3731 0.950 . S
C3754 C3753 1.397 . S
C3754 C3755 1.334 . S
C3755 H3732 0.950 . S
C3755 C3754 1.334 . S
C3755 C3756 1.287 . S
C3756 C3755 1.287 . S
C3756 C3757 1.524 . S
C3756 H3775 0.913 . S
C3757 H3733 0.950 . S
C3757 C3756 1.524 . S
C3757 C3758 1.415 . S
C3758 H3734 0.950 . S
C3758 C3753 1.363 . S
C3758 C3757 1.415 . S
C3759 H3735 0.951 . S
C3759 C3760 1.366 . S
C3759 C3761 1.388 . S
C3760 C3759 1.366 . S
C3760 C3764 1.385 . S
C3761 H3736 0.951 . S
C3761 C3759 1.388 . S
C3761 C3762 1.366 . S
C3762 C3761 1.366 . S
C3762 C3763 1.414 . S
C3762 C3765 1.499 . S
C3763 H3737 0.950 . S
C3763 C3762 1.414 . S
C3763 C3764 1.374 . S
C3764 H3738 0.950 . S
C3764 C3760 1.385 . S
C3764 C3763 1.374 . S
C3765 C3762 1.499 . S
C3765 C3766 1.373 . S
C3765 C3767 1.389 . S
C3766 H3739 0.950 . S
C3766 C3752 1.377 . S
C3766 C3765 1.373 . S
C3767 C3751 1.377 . S
C3767 C3765 1.389 . S
C3767 C3768 1.524 . S
C3768 C3767 1.524 . S
C3768 C3769 1.397 . S
C3768 C3773 1.363 . S
C3769 H3740 0.950 . S
C3769 C3768 1.397 . S
C3769 C3770 1.334 . S
C3770 H3741 0.950 . S
C3770 C3769 1.334 . S
C3770 C3771 1.287 . S
C3771 C3770 1.287 . S
C3771 C3772 1.524 . S
C3771 H3774 0.999 . S
C3772 H3742 0.950 . S
C3772 C3771 1.524 . S
C3772 C3773 1.415 . S
C3773 H3743 0.950 . S
C3773 C3768 1.363 . S
C3773 C3772 1.415 . S
H3774 C3771 0.999 . S
H3775 C3756 0.913 . S
H3776 C3794 0.951 . S
H3777 C3796 0.951 . S
H3778 C3798 0.950 . S
H3779 C3799 0.950 . S
H3780 C3801 0.950 . S
H3781 C3804 0.950 . S
H3782 C3805 0.950 . S
H3783 C3807 0.950 . S
H3784 C3808 0.950 . S
H3785 C3809 0.951 . S
H3786 C3811 0.951 . S
H3787 C3813 0.950 . S
H3788 C3814 0.950 . S
H3789 C3816 0.950 . S
H3790 C3819 0.950 . S
H3791 C3820 0.950 . S
H3792 C3822 0.950 . S
H3793 C3823 0.950 . S
C3794 H3776 0.951 . S
C3794 C3795 1.366 . S
C3794 C3796 1.388 . S
C3795 C3794 1.366 . S
C3795 C3799 1.385 . S
C3796 H3777 0.951 . S
C3796 C3794 1.388 . S
C3796 C3797 1.366 . S
C3797 C3796 1.366 . S
C3797 C3798 1.414 . S
C3797 C3800 1.499 . S
C3798 H3778 0.950 . S
C3798 C3797 1.414 . S
C3798 C3799 1.374 . S
C3799 H3779 0.950 . S
C3799 C3795 1.385 . S
C3799 C3798 1.374 . S
C3800 C3797 1.499 . S
C3800 C3801 1.373 . S
C3800 C3802 1.389 . S
C3801 H3780 0.950 . S
C3801 C3800 1.373 . S
C3801 C3817 1.377 . S
C3802 C3800 1.389 . S
C3802 C3803 1.524 . S
C3802 C3816 1.377 . S
C3803 C3802 1.524 . S
C3803 C3804 1.397 . S
C3803 C3808 1.363 . S
C3804 H3781 0.950 . S
C3804 C3803 1.397 . S
C3804 C3805 1.334 . S
C3805 H3782 0.950 . S
C3805 C3804 1.334 . S
C3805 C3806 1.287 . S
C3806 C3805 1.287 . S
C3806 C3807 1.524 . S
C3806 H3825 0.913 . S
C3807 H3783 0.950 . S
C3807 C3806 1.524 . S
C3807 C3808 1.415 . S
C3808 H3784 0.950 . S
C3808 C3803 1.363 . S
C3808 C3807 1.415 . S
C3809 H3785 0.951 . S
C3809 C3810 1.366 . S
C3809 C3811 1.388 . S
C3810 C3809 1.366 . S
C3810 C3814 1.385 . S
C3811 H3786 0.951 . S
C3811 C3809 1.388 . S
C3811 C3812 1.366 . S
C3812 C3811 1.366 . S
C3812 C3813 1.414 . S
C3812 C3815 1.499 . S
C3813 H3787 0.950 . S
C3813 C3812 1.414 . S
C3813 C3814 1.374 . S
C3814 H3788 0.950 . S
C3814 C3810 1.385 . S
C3814 C3813 1.374 . S
C3815 C3812 1.499 . S
C3815 C3816 1.373 . S
C3815 C3817 1.389 . S
C3816 H3789 0.950 . S
C3816 C3802 1.377 . S
C3816 C3815 1.373 . S
C3817 C3801 1.377 . S
C3817 C3815 1.389 . S
C3817 C3818 1.524 . S
C3818 C3817 1.524 . S
C3818 C3819 1.397 . S
C3818 C3823 1.363 . S
C3819 H3790 0.950 . S
C3819 C3818 1.397 . S
C3819 C3820 1.334 . S
C3820 H3791 0.950 . S
C3820 C3819 1.334 . S
C3820 C3821 1.287 . S
C3821 C3820 1.287 . S
C3821 C3822 1.524 . S
C3821 H3824 0.999 . S
C3822 H3792 0.950 . S
C3822 C3821 1.524 . S
C3822 C3823 1.415 . S
C3823 H3793 0.950 . S
C3823 C3818 1.363 . S
C3823 C3822 1.415 . S
H3824 C3821 0.999 . S
H3825 C3806 0.913 . S
H3826 C3844 0.951 . S
H3827 C3846 0.951 . S
H3828 C3848 0.950 . S
H3829 C3849 0.950 . S
H3830 C3851 0.950 . S
H3831 C3854 0.950 . S
H3832 C3855 0.950 . S
H3833 C3857 0.950 . S
H3834 C3858 0.950 . S
H3835 C3859 0.951 . S
H3836 C3861 0.951 . S
H3837 C3863 0.950 . S
H3838 C3864 0.950 . S
H3839 C3866 0.950 . S
H3840 C3869 0.950 . S
H3841 C3870 0.950 . S
H3842 C3872 0.950 . S
H3843 C3873 0.950 . S
C3844 H3826 0.951 . S
C3844 C3845 1.366 . S
C3844 C3846 1.388 . S
C3845 C3844 1.366 . S
C3845 C3849 1.385 . S
C3846 H3827 0.951 . S
C3846 C3844 1.388 . S
C3846 C3847 1.366 . S
C3847 C3846 1.366 . S
C3847 C3848 1.414 . S
C3847 C3850 1.499 . S
C3848 H3828 0.950 . S
C3848 C3847 1.414 . S
C3848 C3849 1.374 . S
C3849 H3829 0.950 . S
C3849 C3845 1.385 . S
C3849 C3848 1.374 . S
C3850 C3847 1.499 . S
C3850 C3851 1.373 . S
C3850 C3852 1.389 . S
C3851 H3830 0.950 . S
C3851 C3850 1.373 . S
C3851 C3867 1.377 . S
C3852 C3850 1.389 . S
C3852 C3853 1.524 . S
C3852 C3866 1.377 . S
C3853 C3852 1.524 . S
C3853 C3854 1.397 . S
C3853 C3858 1.363 . S
C3854 H3831 0.950 . S
C3854 C3853 1.397 . S
C3854 C3855 1.334 . S
C3855 H3832 0.950 . S
C3855 C3854 1.334 . S
C3855 C3856 1.287 . S
C3856 C3855 1.287 . S
C3856 C3857 1.524 . S
C3856 H3875 0.913 . S
C3857 H3833 0.950 . S
C3857 C3856 1.524 . S
C3857 C3858 1.415 . S
C3858 H3834 0.950 . S
C3858 C3853 1.363 . S
C3858 C3857 1.415 . S
C3859 H3835 0.951 . S
C3859 C3860 1.366 . S
C3859 C3861 1.388 . S
C3860 C3859 1.366 . S
C3860 C3864 1.385 . S
C3861 H3836 0.951 . S
C3861 C3859 1.388 . S
C3861 C3862 1.366 . S
C3862 C3861 1.366 . S
C3862 C3863 1.414 . S
C3862 C3865 1.499 . S
C3863 H3837 0.950 . S
C3863 C3862 1.414 . S
C3863 C3864 1.374 . S
C3864 H3838 0.950 . S
C3864 C3860 1.385 . S
C3864 C3863 1.374 . S
C3865 C3862 1.499 . S
C3865 C3866 1.373 . S
C3865 C3867 1.389 . S
C3866 H3839 0.950 . S
C3866 C3852 1.377 . S
C3866 C3865 1.373 . S
C3867 C3851 1.377 . S
C3867 C3865 1.389 . S
C3867 C3868 1.524 . S
C3868 C3867 1.524 . S
C3868 C3869 1.397 . S
C3868 C3873 1.363 . S
C3869 H3840 0.950 . S
C3869 C3868 1.397 . S
C3869 C3870 1.334 . S
C3870 H3841 0.950 . S
C3870 C3869 1.334 . S
C3870 C3871 1.287 . S
C3871 C3870 1.287 . S
C3871 C3872 1.524 . S
C3871 H3874 0.999 . S
C3872 H3842 0.950 . S
C3872 C3871 1.524 . S
C3872 C3873 1.415 . S
C3873 H3843 0.950 . S
C3873 C3868 1.363 . S
C3873 C3872 1.415 . S
H3874 C3871 0.999 . S
H3875 C3856 0.913 . S
H3876 C3894 0.951 . S
H3877 C3896 0.951 . S
H3878 C3898 0.950 . S
H3879 C3899 0.950 . S
H3880 C3901 0.950 . S
H3881 C3904 0.950 . S
H3882 C3905 0.950 . S
H3883 C3907 0.950 . S
H3884 C3908 0.950 . S
H3885 C3909 0.951 . S
H3886 C3911 0.951 . S
H3887 C3913 0.950 . S
H3888 C3914 0.950 . S
H3889 C3916 0.950 . S
H3890 C3919 0.950 . S
H3891 C3920 0.950 . S
H3892 C3922 0.950 . S
H3893 C3923 0.950 . S
C3894 H3876 0.951 . S
C3894 C3895 1.366 . S
C3894 C3896 1.388 . S
C3895 C3894 1.366 . S
C3895 C3899 1.385 . S
C3896 H3877 0.951 . S
C3896 C3894 1.388 . S
C3896 C3897 1.366 . S
C3897 C3896 1.366 . S
C3897 C3898 1.414 . S
C3897 C3900 1.499 . S
C3898 H3878 0.950 . S
C3898 C3897 1.414 . S
C3898 C3899 1.374 . S
C3899 H3879 0.950 . S
C3899 C3895 1.385 . S
C3899 C3898 1.374 . S
C3900 C3897 1.499 . S
C3900 C3901 1.373 . S
C3900 C3902 1.389 . S
C3901 H3880 0.950 . S
C3901 C3900 1.373 . S
C3901 C3917 1.377 . S
C3902 C3900 1.389 . S
C3902 C3903 1.524 . S
C3902 C3916 1.377 . S
C3903 C3902 1.524 . S
C3903 C3904 1.397 . S
C3903 C3908 1.363 . S
C3904 H3881 0.950 . S
C3904 C3903 1.397 . S
C3904 C3905 1.334 . S
C3905 H3882 0.950 . S
C3905 C3904 1.334 . S
C3905 C3906 1.287 . S
C3906 C3905 1.287 . S
C3906 C3907 1.524 . S
C3906 H3925 0.913 . S
C3907 H3883 0.950 . S
C3907 C3906 1.524 . S
C3907 C3908 1.415 . S
C3908 H3884 0.950 . S
C3908 C3903 1.363 . S
C3908 C3907 1.415 . S
C3909 H3885 0.951 . S
C3909 C3910 1.366 . S
C3909 C3911 1.388 . S
C3910 C3909 1.366 . S
C3910 C3914 1.385 . S
C3911 H3886 0.951 . S
C3911 C3909 1.388 . S
C3911 C3912 1.366 . S
C3912 C3911 1.366 . S
C3912 C3913 1.414 . S
C3912 C3915 1.499 . S
C3913 H3887 0.950 . S
C3913 C3912 1.414 . S
C3913 C3914 1.374 . S
C3914 H3888 0.950 . S
C3914 C3910 1.385 . S
C3914 C3913 1.374 . S
C3915 C3912 1.499 . S
C3915 C3916 1.373 . S
C3915 C3917 1.389 . S
C3916 H3889 0.950 . S
C3916 C3902 1.377 . S
C3916 C3915 1.373 . S
C3917 C3901 1.377 . S
C3917 C3915 1.389 . S
C3917 C3918 1.524 . S
C3918 C3917 1.524 . S
C3918 C3919 1.397 . S
C3918 C3923 1.363 . S
C3919 H3890 0.950 . S
C3919 C3918 1.397 . S
C3919 C3920 1.334 . S
C3920 H3891 0.950 . S
C3920 C3919 1.334 . S
C3920 C3921 1.287 . S
C3921 C3920 1.287 . S
C3921 C3922 1.524 . S
C3921 H3924 0.999 . S
C3922 H3892 0.950 . S
C3922 C3921 1.524 . S
C3922 C3923 1.415 . S
C3923 H3893 0.950 . S
C3923 C3918 1.363 . S
C3923 C3922 1.415 . S
H3924 C3921 0.999 . S
H3925 C3906 0.913 . S
H3926 C3944 0.951 . S
H3927 C3946 0.951 . S
H3928 C3948 0.950 . S
H3929 C3949 0.950 . S
H3930 C3951 0.950 . S
H3931 C3954 0.950 . S
H3932 C3955 0.950 . S
H3933 C3957 0.950 . S
H3934 C3958 0.950 . S
H3935 C3959 0.951 . S
H3936 C3961 0.951 . S
H3937 C3963 0.950 . S
H3938 C3964 0.950 . S
H3939 C3966 0.950 . S
H3940 C3969 0.950 . S
H3941 C3970 0.950 . S
H3942 C3972 0.950 . S
H3943 C3973 0.950 . S
C3944 H3926 0.951 . S
C3944 C3945 1.366 . S
C3944 C3946 1.388 . S
C3945 C3944 1.366 . S
C3945 C3949 1.385 . S
C3946 H3927 0.951 . S
C3946 C3944 1.388 . S
C3946 C3947 1.366 . S
C3947 C3946 1.366 . S
C3947 C3948 1.414 . S
C3947 C3950 1.499 . S
C3948 H3928 0.950 . S
C3948 C3947 1.414 . S
C3948 C3949 1.374 . S
C3949 H3929 0.950 . S
C3949 C3945 1.385 . S
C3949 C3948 1.374 . S
C3950 C3947 1.499 . S
C3950 C3951 1.373 . S
C3950 C3952 1.389 . S
C3951 H3930 0.950 . S
C3951 C3950 1.373 . S
C3951 C3967 1.377 . S
C3952 C3950 1.389 . S
C3952 C3953 1.524 . S
C3952 C3966 1.377 . S
C3953 C3952 1.524 . S
C3953 C3954 1.397 . S
C3953 C3958 1.363 . S
C3954 H3931 0.950 . S
C3954 C3953 1.397 . S
C3954 C3955 1.334 . S
C3955 H3932 0.950 . S
C3955 C3954 1.334 . S
C3955 C3956 1.287 . S
C3956 C3955 1.287 . S
C3956 C3957 1.524 . S
C3956 H3975 0.913 . S
C3957 H3933 0.950 . S
C3957 C3956 1.524 . S
C3957 C3958 1.415 . S
C3958 H3934 0.950 . S
C3958 C3953 1.363 . S
C3958 C3957 1.415 . S
C3959 H3935 0.951 . S
C3959 C3960 1.366 . S
C3959 C3961 1.388 . S
C3960 C3959 1.366 . S
C3960 C3964 1.385 . S
C3961 H3936 0.951 . S
C3961 C3959 1.388 . S
C3961 C3962 1.366 . S
C3962 C3961 1.366 . S
C3962 C3963 1.414 . S
C3962 C3965 1.499 . S
C3963 H3937 0.950 . S
C3963 C3962 1.414 . S
C3963 C3964 1.374 . S
C3964 H3938 0.950 . S
C3964 C3960 1.385 . S
C3964 C3963 1.374 . S
C3965 C3962 1.499 . S
C3965 C3966 1.373 . S
C3965 C3967 1.389 . S
C3966 H3939 0.950 . S
C3966 C3952 1.377 . S
C3966 C3965 1.373 . S
C3967 C3951 1.377 . S
C3967 C3965 1.389 . S
C3967 C3968 1.524 . S
C3968 C3967 1.524 . S
C3968 C3969 1.397 . S
C3968 C3973 1.363 . S
C3969 H3940 0.950 . S
C3969 C3968 1.397 . S
C3969 C3970 1.334 . S
C3970 H3941 0.950 . S
C3970 C3969 1.334 . S
C3970 C3971 1.287 . S
C3971 C3970 1.287 . S
C3971 C3972 1.524 . S
C3971 H3974 0.999 . S
C3972 H3942 0.950 . S
C3972 C3971 1.524 . S
C3972 C3973 1.415 . S
C3973 H3943 0.950 . S
C3973 C3968 1.363 . S
C3973 C3972 1.415 . S
H3974 C3971 0.999 . S
H3975 C3956 0.913 . S
H3976 C3994 0.951 . S
H3977 C3996 0.951 . S
H3978 C3998 0.950 . S
H3979 C3999 0.950 . S
H3980 C4001 0.950 . S
H3981 C4004 0.950 . S
H3982 C4005 0.950 . S
H3983 C4007 0.950 . S
H3984 C4008 0.950 . S
H3985 C4009 0.951 . S
H3986 C4011 0.951 . S
H3987 C4013 0.950 . S
H3988 C4014 0.950 . S
H3989 C4016 0.950 . S
H3990 C4019 0.950 . S
H3991 C4020 0.950 . S
H3992 C4022 0.950 . S
H3993 C4023 0.950 . S
C3994 H3976 0.951 . S
C3994 C3995 1.366 . S
C3994 C3996 1.388 . S
C3995 C3994 1.366 . S
C3995 C3999 1.385 . S
C3996 H3977 0.951 . S
C3996 C3994 1.388 . S
C3996 C3997 1.366 . S
C3997 C3996 1.366 . S
C3997 C3998 1.414 . S
C3997 C4000 1.499 . S
C3998 H3978 0.950 . S
C3998 C3997 1.414 . S
C3998 C3999 1.374 . S
C3999 H3979 0.950 . S
C3999 C3995 1.385 . S
C3999 C3998 1.374 . S
C4000 C3997 1.499 . S
C4000 C4001 1.373 . S
C4000 C4002 1.389 . S
C4001 H3980 0.950 . S
C4001 C4000 1.373 . S
C4001 C4017 1.377 . S
C4002 C4000 1.389 . S
C4002 C4003 1.524 . S
C4002 C4016 1.377 . S
C4003 C4002 1.524 . S
C4003 C4004 1.397 . S
C4003 C4008 1.363 . S
C4004 H3981 0.950 . S
C4004 C4003 1.397 . S
C4004 C4005 1.334 . S
C4005 H3982 0.950 . S
C4005 C4004 1.334 . S
C4005 C4006 1.287 . S
C4006 C4005 1.287 . S
C4006 C4007 1.524 . S
C4006 H4025 0.913 . S
C4007 H3983 0.950 . S
C4007 C4006 1.524 . S
C4007 C4008 1.415 . S
C4008 H3984 0.950 . S
C4008 C4003 1.363 . S
C4008 C4007 1.415 . S
C4009 H3985 0.951 . S
C4009 C4010 1.366 . S
C4009 C4011 1.388 . S
C4010 C4009 1.366 . S
C4010 C4014 1.385 . S
C4011 H3986 0.951 . S
C4011 C4009 1.388 . S
C4011 C4012 1.366 . S
C4012 C4011 1.366 . S
C4012 C4013 1.414 . S
C4012 C4015 1.499 . S
C4013 H3987 0.950 . S
C4013 C4012 1.414 . S
C4013 C4014 1.374 . S
C4014 H3988 0.950 . S
C4014 C4010 1.385 . S
C4014 C4013 1.374 . S
C4015 C4012 1.499 . S
C4015 C4016 1.373 . S
C4015 C4017 1.389 . S
C4016 H3989 0.950 . S
C4016 C4002 1.377 . S
C4016 C4015 1.373 . S
C4017 C4001 1.377 . S
C4017 C4015 1.389 . S
C4017 C4018 1.524 . S
C4018 C4017 1.524 . S
C4018 C4019 1.397 . S
C4018 C4023 1.363 . S
C4019 H3990 0.950 . S
C4019 C4018 1.397 . S
C4019 C4020 1.334 . S
C4020 H3991 0.950 . S
C4020 C4019 1.334 . S
C4020 C4021 1.287 . S
C4021 C4020 1.287 . S
C4021 C4022 1.524 . S
C4021 H4024 0.999 . S
C4022 H3992 0.950 . S
C4022 C4021 1.524 . S
C4022 C4023 1.415 . S
C4023 H3993 0.950 . S
C4023 C4018 1.363 . S
C4023 C4022 1.415 . S
H4024 C4021 0.999 . S
H4025 C4006 0.913 . S
H4026 C4044 0.951 . S
H4027 C4046 0.951 . S
H4028 C4048 0.950 . S
H4029 C4049 0.950 . S
H4030 C4051 0.950 . S
H4031 C4054 0.950 . S
H4032 C4055 0.950 . S
H4033 C4057 0.950 . S
H4034 C4058 0.950 . S
H4035 C4059 0.951 . S
H4036 C4061 0.951 . S
H4037 C4063 0.950 . S
H4038 C4064 0.950 . S
H4039 C4066 0.950 . S
H4040 C4069 0.950 . S
H4041 C4070 0.950 . S
H4042 C4072 0.950 . S
H4043 C4073 0.950 . S
C4044 H4026 0.951 . S
C4044 C4045 1.366 . S
C4044 C4046 1.388 . S
C4045 C4044 1.366 . S
C4045 C4049 1.385 . S
C4046 H4027 0.951 . S
C4046 C4044 1.388 . S
C4046 C4047 1.366 . S
C4047 C4046 1.366 . S
C4047 C4048 1.414 . S
C4047 C4050 1.499 . S
C4048 H4028 0.950 . S
C4048 C4047 1.414 . S
C4048 C4049 1.374 . S
C4049 H4029 0.950 . S
C4049 C4045 1.385 . S
C4049 C4048 1.374 . S
C4050 C4047 1.499 . S
C4050 C4051 1.373 . S
C4050 C4052 1.389 . S
C4051 H4030 0.950 . S
C4051 C4050 1.373 . S
C4051 C4067 1.377 . S
C4052 C4050 1.389 . S
C4052 C4053 1.524 . S
C4052 C4066 1.377 . S
C4053 C4052 1.524 . S
C4053 C4054 1.397 . S
C4053 C4058 1.363 . S
C4054 H4031 0.950 . S
C4054 C4053 1.397 . S
C4054 C4055 1.334 . S
C4055 H4032 0.950 . S
C4055 C4054 1.334 . S
C4055 C4056 1.287 . S
C4056 C4055 1.287 . S
C4056 C4057 1.524 . S
C4056 H4075 0.913 . S
C4057 H4033 0.950 . S
C4057 C4056 1.524 . S
C4057 C4058 1.415 . S
C4058 H4034 0.950 . S
C4058 C4053 1.363 . S
C4058 C4057 1.415 . S
C4059 H4035 0.951 . S
C4059 C4060 1.366 . S
C4059 C4061 1.388 . S
C4060 C4059 1.366 . S
C4060 C4064 1.385 . S
C4061 H4036 0.951 . S
C4061 C4059 1.388 . S
C4061 C4062 1.366 . S
C4062 C4061 1.366 . S
C4062 C4063 1.414 . S
C4062 C4065 1.499 . S
C4063 H4037 0.950 . S
C4063 C4062 1.414 . S
C4063 C4064 1.374 . S
C4064 H4038 0.950 . S
C4064 C4060 1.385 . S
C4064 C4063 1.374 . S
C4065 C4062 1.499 . S
C4065 C4066 1.373 . S
C4065 C4067 1.389 . S
C4066 H4039 0.950 . S
C4066 C4052 1.377 . S
C4066 C4065 1.373 . S
C4067 C4051 1.377 . S
C4067 C4065 1.389 . S
C4067 C4068 1.524 . S
C4068 C4067 1.524 . S
C4068 C4069 1.397 . S
C4068 C4073 1.363 . S
C4069 H4040 0.950 . S
C4069 C4068 1.397 . S
C4069 C4070 1.334 . S
C4070 H4041 0.950 . S
C4070 C4069 1.334 . S
C4070 C4071 1.287 . S
C4071 C4070 1.287 . S
C4071 C4072 1.524 . S
C4071 H4074 0.999 . S
C4072 H4042 0.950 . S
C4072 C4071 1.524 . S
C4072 C4073 1.415 . S
C4073 H4043 0.950 . S
C4073 C4068 1.363 . S
C4073 C4072 1.415 . S
H4074 C4071 0.999 . S
H4075 C4056 0.913 . S
H4076 C4094 0.951 . S
H4077 C4096 0.951 . S
H4078 C4098 0.950 . S
H4079 C4099 0.950 . S
H4080 C4101 0.950 . S
H4081 C4104 0.950 . S
H4082 C4105 0.950 . S
H4083 C4107 0.950 . S
H4084 C4108 0.950 . S
H4085 C4109 0.951 . S
H4086 C4111 0.951 . S
H4087 C4113 0.950 . S
H4088 C4114 0.950 . S
H4089 C4116 0.950 . S
H4090 C4119 0.950 . S
H4091 C4120 0.950 . S
H4092 C4122 0.950 . S
H4093 C4123 0.950 . S
C4094 H4076 0.951 . S
C4094 C4095 1.366 . S
C4094 C4096 1.388 . S
C4095 C4094 1.366 . S
C4095 C4099 1.385 . S
C4096 H4077 0.951 . S
C4096 C4094 1.388 . S
C4096 C4097 1.366 . S
C4097 C4096 1.366 . S
C4097 C4098 1.414 . S
C4097 C4100 1.499 . S
C4098 H4078 0.950 . S
C4098 C4097 1.414 . S
C4098 C4099 1.374 . S
C4099 H4079 0.950 . S
C4099 C4095 1.385 . S
C4099 C4098 1.374 . S
C4100 C4097 1.499 . S
C4100 C4101 1.373 . S
C4100 C4102 1.389 . S
C4101 H4080 0.950 . S
C4101 C4100 1.373 . S
C4101 C4117 1.377 . S
C4102 C4100 1.389 . S
C4102 C4103 1.524 . S
C4102 C4116 1.377 . S
C4103 C4102 1.524 . S
C4103 C4104 1.397 . S
C4103 C4108 1.363 . S
C4104 H4081 0.950 . S
C4104 C4103 1.397 . S
C4104 C4105 1.334 . S
C4105 H4082 0.950 . S
C4105 C4104 1.334 . S
C4105 C4106 1.287 . S
C4106 C4105 1.287 . S
C4106 C4107 1.524 . S
C4106 H4125 0.913 . S
C4107 H4083 0.950 . S
C4107 C4106 1.524 . S
C4107 C4108 1.415 . S
C4108 H4084 0.950 . S
C4108 C4103 1.363 . S
C4108 C4107 1.415 . S
C4109 H4085 0.951 . S
C4109 C4110 1.366 . S
C4109 C4111 1.388 . S
C4110 C4109 1.366 . S
C4110 C4114 1.385 . S
C4111 H4086 0.951 . S
C4111 C4109 1.388 . S
C4111 C4112 1.366 . S
C4112 C4111 1.366 . S
C4112 C4113 1.414 . S
C4112 C4115 1.499 . S
C4113 H4087 0.950 . S
C4113 C4112 1.414 . S
C4113 C4114 1.374 . S
C4114 H4088 0.950 . S
C4114 C4110 1.385 . S
C4114 C4113 1.374 . S
C4115 C4112 1.499 . S
C4115 C4116 1.373 . S
C4115 C4117 1.389 . S
C4116 H4089 0.950 . S
C4116 C4102 1.377 . S
C4116 C4115 1.373 . S
C4117 C4101 1.377 . S
C4117 C4115 1.389 . S
C4117 C4118 1.524 . S
C4118 C4117 1.524 . S
C4118 C4119 1.397 . S
C4118 C4123 1.363 . S
C4119 H4090 0.950 . S
C4119 C4118 1.397 . S
C4119 C4120 1.334 . S
C4120 H4091 0.950 . S
C4120 C4119 1.334 . S
C4120 C4121 1.287 . S
C4121 C4120 1.287 . S
C4121 C4122 1.524 . S
C4121 H4124 0.999 . S
C4122 H4092 0.950 . S
C4122 C4121 1.524 . S
C4122 C4123 1.415 . S
C4123 H4093 0.950 . S
C4123 C4118 1.363 . S
C4123 C4122 1.415 . S
H4124 C4121 0.999 . S
H4125 C4106 0.913 . S
H4126 C4144 0.951 . S
H4127 C4146 0.951 . S
H4128 C4148 0.950 . S
H4129 C4149 0.950 . S
H4130 C4151 0.950 . S
H4131 C4154 0.950 . S
H4132 C4155 0.950 . S
H4133 C4157 0.950 . S
H4134 C4158 0.950 . S
H4135 C4159 0.951 . S
H4136 C4161 0.951 . S
H4137 C4163 0.950 . S
H4138 C4164 0.950 . S
H4139 C4166 0.950 . S
H4140 C4169 0.950 . S
H4141 C4170 0.950 . S
H4142 C4172 0.950 . S
H4143 C4173 0.950 . S
C4144 H4126 0.951 . S
C4144 C4145 1.366 . S
C4144 C4146 1.388 . S
C4145 C4144 1.366 . S
C4145 C4149 1.385 . S
C4146 H4127 0.951 . S
C4146 C4144 1.388 . S
C4146 C4147 1.366 . S
C4147 C4146 1.366 . S
C4147 C4148 1.414 . S
C4147 C4150 1.499 . S
C4148 H4128 0.950 . S
C4148 C4147 1.414 . S
C4148 C4149 1.374 . S
C4149 H4129 0.950 . S
C4149 C4145 1.385 . S
C4149 C4148 1.374 . S
C4150 C4147 1.499 . S
C4150 C4151 1.373 . S
C4150 C4152 1.389 . S
C4151 H4130 0.950 . S
C4151 C4150 1.373 . S
C4151 C4167 1.377 . S
C4152 C4150 1.389 . S
C4152 C4153 1.524 . S
C4152 C4166 1.377 . S
C4153 C4152 1.524 . S
C4153 C4154 1.397 . S
C4153 C4158 1.363 . S
C4154 H4131 0.950 . S
C4154 C4153 1.397 . S
C4154 C4155 1.334 . S
C4155 H4132 0.950 . S
C4155 C4154 1.334 . S
C4155 C4156 1.287 . S
C4156 C4155 1.287 . S
C4156 C4157 1.524 . S
C4156 H4175 0.913 . S
C4157 H4133 0.950 . S
C4157 C4156 1.524 . S
C4157 C4158 1.415 . S
C4158 H4134 0.950 . S
C4158 C4153 1.363 . S
C4158 C4157 1.415 . S
C4159 H4135 0.951 . S
C4159 C4160 1.366 . S
C4159 C4161 1.388 . S
C4160 C4159 1.366 . S
C4160 C4164 1.385 . S
C4161 H4136 0.951 . S
C4161 C4159 1.388 . S
C4161 C4162 1.366 . S
C4162 C4161 1.366 . S
C4162 C4163 1.414 . S
C4162 C4165 1.499 . S
C4163 H4137 0.950 . S
C4163 C4162 1.414 . S
C4163 C4164 1.374 . S
C4164 H4138 0.950 . S
C4164 C4160 1.385 . S
C4164 C4163 1.374 . S
C4165 C4162 1.499 . S
C4165 C4166 1.373 . S
C4165 C4167 1.389 . S
C4166 H4139 0.950 . S
C4166 C4152 1.377 . S
C4166 C4165 1.373 . S
C4167 C4151 1.377 . S
C4167 C4165 1.389 . S
C4167 C4168 1.524 . S
C4168 C4167 1.524 . S
C4168 C4169 1.397 . S
C4168 C4173 1.363 . S
C4169 H4140 0.950 . S
C4169 C4168 1.397 . S
C4169 C4170 1.334 . S
C4170 H4141 0.950 . S
C4170 C4169 1.334 . S
C4170 C4171 1.287 . S
C4171 C4170 1.287 . S
C4171 C4172 1.524 . S
C4171 H4174 0.999 . S
C4172 H4142 0.950 . S
C4172 C4171 1.524 . S
C4172 C4173 1.415 . S
C4173 H4143 0.950 . S
C4173 C4168 1.363 . S
C4173 C4172 1.415 . S
H4174 C4171 0.999 . S
H4175 C4156 0.913 . S
H4176 C4194 0.951 . S
H4177 C4196 0.951 . S
H4178 C4198 0.950 . S
H4179 C4199 0.950 . S
H4180 C4201 0.950 . S
H4181 C4204 0.950 . S
H4182 C4205 0.950 . S
H4183 C4207 0.950 . S
H4184 C4208 0.950 . S
H4185 C4209 0.951 . S
H4186 C4211 0.951 . S
H4187 C4213 0.950 . S
H4188 C4214 0.950 . S
H4189 C4216 0.950 . S
H4190 C4219 0.950 . S
H4191 C4220 0.950 . S
H4192 C4222 0.950 . S
H4193 C4223 0.950 . S
C4194 H4176 0.951 . S
C4194 C4195 1.366 . S
C4194 C4196 1.388 . S
C4195 C4194 1.366 . S
C4195 C4199 1.385 . S
C4196 H4177 0.951 . S
C4196 C4194 1.388 . S
C4196 C4197 1.366 . S
C4197 C4196 1.366 . S
C4197 C4198 1.414 . S
C4197 C4200 1.499 . S
C4198 H4178 0.950 . S
C4198 C4197 1.414 . S
C4198 C4199 1.374 . S
C4199 H4179 0.950 . S
C4199 C4195 1.385 . S
C4199 C4198 1.374 . S
C4200 C4197 1.499 . S
C4200 C4201 1.373 . S
C4200 C4202 1.389 . S
C4201 H4180 0.950 . S
C4201 C4200 1.373 . S
C4201 C4217 1.377 . S
C4202 C4200 1.389 . S
C4202 C4203 1.524 . S
C4202 C4216 1.377 . S
C4203 C4202 1.524 . S
C4203 C4204 1.397 . S
C4203 C4208 1.363 . S
C4204 H4181 0.950 . S
C4204 C4203 1.397 . S
C4204 C4205 1.334 . S
C4205 H4182 0.950 . S
C4205 C4204 1.334 . S
C4205 C4206 1.287 . S
C4206 C4205 1.287 . S
C4206 C4207 1.524 . S
C4206 H4225 0.913 . S
C4207 H4183 0.950 . S
C4207 C4206 1.524 . S
C4207 C4208 1.415 . S
C4208 H4184 0.950 . S
C4208 C4203 1.363 . S
C4208 C4207 1.415 . S
C4209 H4185 0.951 . S
C4209 C4210 1.366 . S
C4209 C4211 1.388 . S
C4210 C4209 1.366 . S
C4210 C4214 1.385 . S
C4211 H4186 0.951 . S
C4211 C4209 1.388 . S
C4211 C4212 1.366 . S
C4212 C4211 1.366 . S
C4212 C4213 1.414 . S
C4212 C4215 1.499 . S
C4213 H4187 0.950 . S
C4213 C4212 1.414 . S
C4213 C4214 1.374 . S
C4214 H4188 0.950 . S
C4214 C4210 1.385 . S
C4214 C4213 1.374 . S
C4215 C4212 1.499 . S
C4215 C4216 1.373 . S
C4215 C4217 1.389 . S
C4216 H4189 0.950 . S
C4216 C4202 1.377 . S
C4216 C4215 1.373 . S
C4217 C4201 1.377 . S
C4217 C4215 1.389 . S
C4217 C4218 1.524 . S
C4218 C4217 1.524 . S
C4218 C4219 1.397 . S
C4218 C4223 1.363 . S
C4219 H4190 0.950 . S
C4219 C4218 1.397 . S
C4219 C4220 1.334 . S
C4220 H4191 0.950 . S
C4220 C4219 1.334 . S
C4220 C4221 1.287 . S
C4221 C4220 1.287 . S
C4221 C4222 1.524 . S
C4221 H4224 0.999 . S
C4222 H4192 0.950 . S
C4222 C4221 1.524 . S
C4222 C4223 1.415 . S
C4223 H4193 0.950 . S
C4223 C4218 1.363 . S
C4223 C4222 1.415 . S
H4224 C4221 0.999 . S
H4225 C4206 0.913 . S
H4226 C4244 0.951 . S
H4227 C4246 0.951 . S
H4228 C4248 0.950 . S
H4229 C4249 0.950 . S
H4230 C4251 0.950 . S
H4231 C4254 0.950 . S
H4232 C4255 0.950 . S
H4233 C4257 0.950 . S
H4234 C4258 0.950 . S
H4235 C4259 0.951 . S
H4236 C4261 0.951 . S
H4237 C4263 0.950 . S
H4238 C4264 0.950 . S
H4239 C4266 0.950 . S
H4240 C4269 0.950 . S
H4241 C4270 0.950 . S
H4242 C4272 0.950 . S
H4243 C4273 0.950 . S
C4244 H4226 0.951 . S
C4244 C4245 1.366 . S
C4244 C4246 1.388 . S
C4245 C4244 1.366 . S
C4245 C4249 1.385 . S
C4246 H4227 0.951 . S
C4246 C4244 1.388 . S
C4246 C4247 1.366 . S
C4247 C4246 1.366 . S
C4247 C4248 1.414 . S
C4247 C4250 1.499 . S
C4248 H4228 0.950 . S
C4248 C4247 1.414 . S
C4248 C4249 1.374 . S
C4249 H4229 0.950 . S
C4249 C4245 1.385 . S
C4249 C4248 1.374 . S
C4250 C4247 1.499 . S
C4250 C4251 1.373 . S
C4250 C4252 1.389 . S
C4251 H4230 0.950 . S
C4251 C4250 1.373 . S
C4251 C4267 1.377 . S
C4252 C4250 1.389 . S
C4252 C4253 1.524 . S
C4252 C4266 1.377 . S
C4253 C4252 1.524 . S
C4253 C4254 1.397 . S
C4253 C4258 1.363 . S
C4254 H4231 0.950 . S
C4254 C4253 1.397 . S
C4254 C4255 1.334 . S
C4255 H4232 0.950 . S
C4255 C4254 1.334 . S
C4255 C4256 1.287 . S
C4256 C4255 1.287 . S
C4256 C4257 1.524 . S
C4256 H4275 0.913 . S
C4257 H4233 0.950 . S
C4257 C4256 1.524 . S
C4257 C4258 1.415 . S
C4258 H4234 0.950 . S
C4258 C4253 1.363 . S
C4258 C4257 1.415 . S
C4259 H4235 0.951 . S
C4259 C4260 1.366 . S
C4259 C4261 1.388 . S
C4260 C4259 1.366 . S
C4260 C4264 1.385 . S
C4261 H4236 0.951 . S
C4261 C4259 1.388 . S
C4261 C4262 1.366 . S
C4262 C4261 1.366 . S
C4262 C4263 1.414 . S
C4262 C4265 1.499 . S
C4263 H4237 0.950 . S
C4263 C4262 1.414 . S
C4263 C4264 1.374 . S
C4264 H4238 0.950 . S
C4264 C4260 1.385 . S
C4264 C4263 1.374 . S
C4265 C4262 1.499 . S
C4265 C4266 1.373 . S
C4265 C4267 1.389 . S
C4266 H4239 0.950 . S
C4266 C4252 1.377 . S
C4266 C4265 1.373 . S
C4267 C4251 1.377 . S
C4267 C4265 1.389 . S
C4267 C4268 1.524 . S
C4268 C4267 1.524 . S
C4268 C4269 1.397 . S
C4268 C4273 1.363 . S
C4269 H4240 0.950 . S
C4269 C4268 1.397 . S
C4269 C4270 1.334 . S
C4270 H4241 0.950 . S
C4270 C4269 1.334 . S
C4270 C4271 1.287 . S
C4271 C4270 1.287 . S
C4271 C4272 1.524 . S
C4271 H4274 0.999 . S
C4272 H4242 0.950 . S
C4272 C4271 1.524 . S
C4272 C4273 1.415 . S
C4273 H4243 0.950 . S
C4273 C4268 1.363 . S
C4273 C4272 1.415 . S
H4274 C4271 0.999 . S
H4275 C4256 0.913 . S
H4276 C4294 0.951 . S
H4277 C4296 0.951 . S
H4278 C4298 0.950 . S
H4279 C4299 0.950 . S
H4280 C4301 0.950 . S
H4281 C4304 0.950 . S
H4282 C4305 0.950 . S
H4283 C4307 0.950 . S
H4284 C4308 0.950 . S
H4285 C4309 0.951 . S
H4286 C4311 0.951 . S
H4287 C4313 0.950 . S
H4288 C4314 0.950 . S
H4289 C4316 0.950 . S
H4290 C4319 0.950 . S
H4291 C4320 0.950 . S
H4292 C4322 0.950 . S
H4293 C4323 0.950 . S
C4294 H4276 0.951 . S
C4294 C4295 1.366 . S
C4294 C4296 1.388 . S
C4295 C4294 1.366 . S
C4295 C4299 1.385 . S
C4296 H4277 0.951 . S
C4296 C4294 1.388 . S
C4296 C4297 1.366 . S
C4297 C4296 1.366 . S
C4297 C4298 1.414 . S
C4297 C4300 1.499 . S
C4298 H4278 0.950 . S
C4298 C4297 1.414 . S
C4298 C4299 1.374 . S
C4299 H4279 0.950 . S
C4299 C4295 1.385 . S
C4299 C4298 1.374 . S
C4300 C4297 1.499 . S
C4300 C4301 1.373 . S
C4300 C4302 1.389 . S
C4301 H4280 0.950 . S
C4301 C4300 1.373 . S
C4301 C4317 1.377 . S
C4302 C4300 1.389 . S
C4302 C4303 1.524 . S
C4302 C4316 1.377 . S
C4303 C4302 1.524 . S
C4303 C4304 1.397 . S
C4303 C4308 1.363 . S
C4304 H4281 0.950 . S
C4304 C4303 1.397 . S
C4304 C4305 1.334 . S
C4305 H4282 0.950 . S
C4305 C4304 1.334 . S
C4305 C4306 1.287 . S
C4306 C4305 1.287 . S
C4306 C4307 1.524 . S
C4306 H4325 0.913 . S
C4307 H4283 0.950 . S
C4307 C4306 1.524 . S
C4307 C4308 1.415 . S
C4308 H4284 0.950 . S
C4308 C4303 1.363 . S
C4308 C4307 1.415 . S
C4309 H4285 0.951 . S
C4309 C4310 1.366 . S
C4309 C4311 1.388 . S
C4310 C4309 1.366 . S
C4310 C4314 1.385 . S
C4311 H4286 0.951 . S
C4311 C4309 1.388 . S
C4311 C4312 1.366 . S
C4312 C4311 1.366 . S
C4312 C4313 1.414 . S
C4312 C4315 1.499 . S
C4313 H4287 0.950 . S
C4313 C4312 1.414 . S
C4313 C4314 1.374 . S
C4314 H4288 0.950 . S
C4314 C4310 1.385 . S
C4314 C4313 1.374 . S
C4315 C4312 1.499 . S
C4315 C4316 1.373 . S
C4315 C4317 1.389 . S
C4316 H4289 0.950 . S
C4316 C4302 1.377 . S
C4316 C4315 1.373 . S
C4317 C4301 1.377 . S
C4317 C4315 1.389 . S
C4317 C4318 1.524 . S
C4318 C4317 1.524 . S
C4318 C4319 1.397 . S
C4318 C4323 1.363 . S
C4319 H4290 0.950 . S
C4319 C4318 1.397 . S
C4319 C4320 1.334 . S
C4320 H4291 0.950 . S
C4320 C4319 1.334 . S
C4320 C4321 1.287 . S
C4321 C4320 1.287 . S
C4321 C4322 1.524 . S
C4321 H4324 0.999 . S
C4322 H4292 0.950 . S
C4322 C4321 1.524 . S
C4322 C4323 1.415 . S
C4323 H4293 0.950 . S
C4323 C4318 1.363 . S
C4323 C4322 1.415 . S
H4324 C4321 0.999 . S
H4325 C4306 0.913 . S
H4326 C4344 0.925 1_556 S
H4327 C4346 0.951 1_556 S
H4328 C4348 0.950 . S
H4329 C4349 0.950 . S
H4330 C4351 0.950 . S
H4331 C4354 0.950 . S
H4332 C4355 0.950 . S
H4333 C4357 0.950 . S
H4334 C4358 0.950 . S
H4335 C4359 0.951 . S
H4336 C4361 0.951 . S
H4337 C4363 0.950 . S
H4338 C4364 0.950 . S
H4339 C4366 0.950 . S
H4340 C4369 0.950 . S
H4341 C4370 0.950 . S
H4342 C4372 0.950 . S
H4343 C4373 0.950 . S
C4344 H4326 0.925 1_554 S
C4344 C4345 1.399 . S
C4344 C4346 1.384 . S
C4345 C4344 1.399 . S
C4345 C4349 1.385 . S
C4346 H4327 0.951 1_554 S
C4346 C4344 1.384 . S
C4346 C4347 1.366 . S
C4347 C4346 1.366 . S
C4347 C4348 1.414 . S
C4347 C4350 1.499 . S
C4348 H4328 0.950 . S
C4348 C4347 1.414 . S
C4348 C4349 1.374 . S
C4349 H4329 0.950 . S
C4349 C4345 1.385 . S
C4349 C4348 1.374 . S
C4350 C4347 1.499 . S
C4350 C4351 1.373 . S
C4350 C4352 1.389 . S
C4351 H4330 0.950 . S
C4351 C4350 1.373 . S
C4351 C4367 1.377 . S
C4352 C4350 1.389 . S
C4352 C4353 1.524 . S
C4352 C4366 1.377 . S
C4353 C4352 1.524 . S
C4353 C4354 1.397 . S
C4353 C4358 1.363 . S
C4354 H4331 0.950 . S
C4354 C4353 1.397 . S
C4354 C4355 1.334 . S
C4355 H4332 0.950 . S
C4355 C4354 1.334 . S
C4355 C4356 1.287 . S
C4356 C4355 1.287 . S
C4356 C4357 1.524 . S
C4356 H4375 0.913 . S
C4357 H4333 0.950 . S
C4357 C4356 1.524 . S
C4357 C4358 1.415 . S
C4358 H4334 0.950 . S
C4358 C4353 1.363 . S
C4358 C4357 1.415 . S
C4359 H4335 0.951 . S
C4359 C4360 1.366 . S
C4359 C4361 1.388 . S
C4360 C4359 1.366 . S
C4360 C4364 1.385 1_545 S
C4361 H4336 0.951 . S
C4361 C4359 1.388 . S
C4361 C4362 1.366 1_545 S
C4362 C4361 1.366 1_565 S
C4362 C4363 1.414 . S
C4362 C4365 1.499 . S
C4363 H4337 0.950 . S
C4363 C4362 1.414 . S
C4363 C4364 1.374 . S
C4364 H4338 0.950 . S
C4364 C4360 1.385 1_565 S
C4364 C4363 1.374 . S
C4365 C4362 1.499 . S
C4365 C4366 1.373 . S
C4365 C4367 1.389 . S
C4366 H4339 0.950 . S
C4366 C4352 1.377 . S
C4366 C4365 1.373 . S
C4367 C4351 1.377 . S
C4367 C4365 1.389 . S
C4367 C4368 1.524 1_565 S
C4368 C4367 1.524 1_545 S
C4368 C4369 1.397 1_554 S
C4368 C4373 1.363 . S
C4369 H4340 0.950 . S
C4369 C4368 1.397 1_556 S
C4369 C4370 1.334 . S
C4370 H4341 0.950 . S
C4370 C4369 1.334 . S
C4370 C4371 1.287 . S
C4371 C4370 1.287 . S
C4371 C4372 1.524 1_556 S
C4371 H4374 0.999 . S
C4372 H4342 0.950 . S
C4372 C4371 1.524 1_554 S
C4372 C4373 1.415 . S
C4373 H4343 0.950 . S
C4373 C4368 1.363 . S
C4373 C4372 1.415 . S
H4374 C4371 0.999 . S
H4375 C4356 0.913 . S
H4376 C4394 0.951 . S
H4377 C4396 0.951 . S
H4378 C4398 0.950 . S
H4379 C4399 0.950 . S
H4380 C4401 0.950 . S
H4381 C4404 0.950 . S
H4382 C4405 0.950 . S
H4383 C4407 0.950 . S
H4384 C4408 0.950 . S
H4385 C4409 0.951 . S
H4386 C4411 0.951 . S
H4387 C4413 0.950 . S
H4388 C4414 0.950 . S
H4389 C4416 0.950 . S
H4390 C4419 0.950 . S
H4391 C4420 0.950 . S
H4392 C4422 0.950 . S
H4393 C4423 0.950 . S
C4394 H4376 0.951 . S
C4394 C4395 1.366 . S
C4394 C4396 1.388 . S
C4395 C4394 1.366 . S
C4395 C4399 1.385 . S
C4396 H4377 0.951 . S
C4396 C4394 1.388 . S
C4396 C4397 1.366 . S
C4397 C4396 1.366 . S
C4397 C4398 1.414 . S
C4397 C4400 1.499 . S
C4398 H4378 0.950 . S
C4398 C4397 1.414 . S
C4398 C4399 1.374 . S
C4399 H4379 0.950 . S
C4399 C4395 1.385 . S
C4399 C4398 1.374 . S
C4400 C4397 1.499 . S
C4400 C4401 1.373 . S
C4400 C4402 1.389 . S
C4401 H4380 0.950 . S
C4401 C4400 1.373 . S
C4401 C4417 1.377 . S
C4402 C4400 1.389 . S
C4402 C4403 1.524 . S
C4402 C4416 1.377 . S
C4403 C4402 1.524 . S
C4403 C4404 1.397 . S
C4403 C4408 1.363 . S
C4404 H4381 0.950 . S
C4404 C4403 1.397 . S
C4404 C4405 1.334 . S
C4405 H4382 0.950 . S
C4405 C4404 1.334 . S
C4405 C4406 1.287 . S
C4406 C4405 1.287 . S
C4406 C4407 1.524 . S
C4406 H4425 0.913 . S
C4407 H4383 0.950 . S
C4407 C4406 1.524 . S
C4407 C4408 1.415 . S
C4408 H4384 0.950 . S
C4408 C4403 1.363 . S
C4408 C4407 1.415 . S
C4409 H4385 0.951 . S
C4409 C4410 1.366 . S
C4409 C4411 1.388 . S
C4410 C4409 1.366 . S
C4410 C4414 1.385 . S
C4411 H4386 0.951 . S
C4411 C4409 1.388 . S
C4411 C4412 1.366 . S
C4412 C4411 1.366 . S
C4412 C4413 1.414 . S
C4412 C4415 1.499 . S
C4413 H4387 0.950 . S
C4413 C4412 1.414 . S
C4413 C4414 1.374 . S
C4414 H4388 0.950 . S
C4414 C4410 1.385 . S
C4414 C4413 1.374 . S
C4415 C4412 1.499 . S
C4415 C4416 1.373 . S
C4415 C4417 1.389 . S
C4416 H4389 0.950 . S
C4416 C4402 1.377 . S
C4416 C4415 1.373 . S
C4417 C4401 1.377 . S
C4417 C4415 1.389 . S
C4417 C4418 1.524 . S
C4418 C4417 1.524 . S
C4418 C4419 1.397 . S
C4418 C4423 1.363 . S
C4419 H4390 0.950 . S
C4419 C4418 1.397 . S
C4419 C4420 1.334 . S
C4420 H4391 0.950 . S
C4420 C4419 1.334 . S
C4420 C4421 1.287 . S
C4421 C4420 1.287 . S
C4421 C4422 1.524 . S
C4421 H4424 0.999 . S
C4422 H4392 0.950 . S
C4422 C4421 1.524 . S
C4422 C4423 1.415 . S
C4423 H4393 0.950 . S
C4423 C4418 1.363 . S
C4423 C4422 1.415 . S
H4424 C4421 0.999 . S
H4425 C4406 0.913 . S
H4426 C4444 0.951 . S
H4427 C4446 0.951 . S
H4428 C4448 0.950 . S
H4429 C4449 0.950 . S
H4430 C4451 0.950 . S
H4431 C4454 0.950 . S
H4432 C4455 0.950 . S
H4433 C4457 0.950 . S
H4434 C4458 0.950 . S
H4435 C4459 0.951 . S
H4436 C4461 0.951 . S
H4437 C4463 0.950 . S
H4438 C4464 0.950 . S
H4439 C4466 0.950 . S
H4440 C4469 0.950 . S
H4441 C4470 0.950 . S
H4442 C4472 0.950 . S
H4443 C4473 0.950 . S
C4444 H4426 0.951 . S
C4444 C4445 1.366 . S
C4444 C4446 1.388 . S
C4445 C4444 1.366 . S
C4445 C4449 1.385 . S
C4446 H4427 0.951 . S
C4446 C4444 1.388 . S
C4446 C4447 1.366 . S
C4447 C4446 1.366 . S
C4447 C4448 1.414 . S
C4447 C4450 1.499 . S
C4448 H4428 0.950 . S
C4448 C4447 1.414 . S
C4448 C4449 1.374 . S
C4449 H4429 0.950 . S
C4449 C4445 1.385 . S
C4449 C4448 1.374 . S
C4450 C4447 1.499 . S
C4450 C4451 1.373 . S
C4450 C4452 1.389 . S
C4451 H4430 0.950 . S
C4451 C4450 1.373 . S
C4451 C4467 1.377 . S
C4452 C4450 1.389 . S
C4452 C4453 1.524 . S
C4452 C4466 1.377 . S
C4453 C4452 1.524 . S
C4453 C4454 1.397 . S
C4453 C4458 1.363 . S
C4454 H4431 0.950 . S
C4454 C4453 1.397 . S
C4454 C4455 1.334 . S
C4455 H4432 0.950 . S
C4455 C4454 1.334 . S
C4455 C4456 1.287 . S
C4456 C4455 1.287 . S
C4456 C4457 1.524 . S
C4456 H4475 0.913 . S
C4457 H4433 0.950 . S
C4457 C4456 1.524 . S
C4457 C4458 1.415 . S
C4458 H4434 0.950 . S
C4458 C4453 1.363 . S
C4458 C4457 1.415 . S
C4459 H4435 0.951 . S
C4459 C4460 1.366 . S
C4459 C4461 1.388 . S
C4460 C4459 1.366 . S
C4460 C4464 1.385 . S
C4461 H4436 0.951 . S
C4461 C4459 1.388 . S
C4461 C4462 1.366 . S
C4462 C4461 1.366 . S
C4462 C4463 1.414 . S
C4462 C4465 1.499 . S
C4463 H4437 0.950 . S
C4463 C4462 1.414 . S
C4463 C4464 1.374 . S
C4464 H4438 0.950 . S
C4464 C4460 1.385 . S
C4464 C4463 1.374 . S
C4465 C4462 1.499 . S
C4465 C4466 1.373 . S
C4465 C4467 1.389 . S
C4466 H4439 0.950 . S
C4466 C4452 1.377 . S
C4466 C4465 1.373 . S
C4467 C4451 1.377 . S
C4467 C4465 1.389 . S
C4467 C4468 1.524 . S
C4468 C4467 1.524 . S
C4468 C4469 1.397 . S
C4468 C4473 1.363 . S
C4469 H4440 0.950 . S
C4469 C4468 1.397 . S
C4469 C4470 1.334 1_554 S
C4470 H4441 0.950 . S
C4470 C4469 1.334 1_556 S
C4470 C4471 1.287 . S
C4471 C4470 1.287 . S
C4471 C4472 1.524 . S
C4471 H4474 0.999 . S
C4472 H4442 0.950 . S
C4472 C4471 1.524 . S
C4472 C4473 1.415 1_556 S
C4473 H4443 0.950 . S
C4473 C4468 1.363 . S
C4473 C4472 1.415 1_554 S
H4474 C4471 0.999 . S
H4475 C4456 0.913 . S
H4476 C4494 0.951 . S
H4477 C4496 0.951 . S
H4478 C4498 0.950 . S
H4479 C4499 0.950 . S
H4480 C4501 0.950 . S
H4481 C4504 0.950 . S
H4482 C4505 0.950 . S
H4483 C4507 0.950 . S
H4484 C4508 0.950 . S
H4485 C4509 0.951 . S
H4486 C4511 0.951 . S
H4487 C4513 0.950 . S
H4488 C4514 0.950 . S
H4489 C4516 0.950 . S
H4490 C4519 0.950 . S
H4491 C4520 0.950 . S
H4492 C4522 0.950 . S
H4493 C4523 0.950 . S
C4494 H4476 0.951 . S
C4494 C4495 1.366 . S
C4494 C4496 1.388 . S
C4495 C4494 1.366 . S
C4495 C4499 1.385 . S
C4496 H4477 0.951 . S
C4496 C4494 1.388 . S
C4496 C4497 1.366 . S
C4497 C4496 1.366 . S
C4497 C4498 1.414 . S
C4497 C4500 1.499 . S
C4498 H4478 0.950 . S
C4498 C4497 1.414 . S
C4498 C4499 1.374 . S
C4499 H4479 0.950 . S
C4499 C4495 1.385 . S
C4499 C4498 1.374 . S
C4500 C4497 1.499 . S
C4500 C4501 1.373 . S
C4500 C4502 1.389 . S
C4501 H4480 0.950 . S
C4501 C4500 1.373 . S
C4501 C4517 1.377 . S
C4502 C4500 1.389 . S
C4502 C4503 1.524 . S
C4502 C4516 1.377 . S
C4503 C4502 1.524 . S
C4503 C4504 1.397 . S
C4503 C4508 1.363 . S
C4504 H4481 0.950 . S
C4504 C4503 1.397 . S
C4504 C4505 1.334 . S
C4505 H4482 0.950 . S
C4505 C4504 1.334 . S
C4505 C4506 1.287 . S
C4506 C4505 1.287 . S
C4506 C4507 1.524 . S
C4506 H4525 0.913 . S
C4507 H4483 0.950 . S
C4507 C4506 1.524 . S
C4507 C4508 1.415 . S
C4508 H4484 0.950 . S
C4508 C4503 1.363 . S
C4508 C4507 1.415 . S
C4509 H4485 0.951 . S
C4509 C4510 1.366 . S
C4509 C4511 1.388 . S
C4510 C4509 1.366 . S
C4510 C4514 1.385 . S
C4511 H4486 0.951 . S
C4511 C4509 1.388 . S
C4511 C4512 1.366 . S
C4512 C4511 1.366 . S
C4512 C4513 1.414 . S
C4512 C4515 1.499 . S
C4513 H4487 0.950 . S
C4513 C4512 1.414 . S
C4513 C4514 1.374 . S
C4514 H4488 0.950 . S
C4514 C4510 1.385 . S
C4514 C4513 1.374 . S
C4515 C4512 1.499 . S
C4515 C4516 1.373 . S
C4515 C4517 1.389 . S
C4516 H4489 0.950 . S
C4516 C4502 1.377 . S
C4516 C4515 1.373 . S
C4517 C4501 1.377 . S
C4517 C4515 1.389 . S
C4517 C4518 1.524 . S
C4518 C4517 1.524 . S
C4518 C4519 1.397 . S
C4518 C4523 1.363 . S
C4519 H4490 0.950 . S
C4519 C4518 1.397 . S
C4519 C4520 1.334 . S
C4520 H4491 0.950 . S
C4520 C4519 1.334 . S
C4520 C4521 1.287 . S
C4521 C4520 1.287 . S
C4521 C4522 1.524 . S
C4521 H4524 0.999 . S
C4522 H4492 0.950 . S
C4522 C4521 1.524 . S
C4522 C4523 1.415 . S
C4523 H4493 0.950 . S
C4523 C4518 1.363 . S
C4523 C4522 1.415 . S
H4524 C4521 0.999 . S
H4525 C4506 0.913 . S
H4526 C4544 0.951 . S
H4527 C4546 0.951 . S
H4528 C4548 0.950 . S
H4529 C4549 0.950 . S
H4530 C4551 0.950 . S
H4531 C4554 0.950 . S
H4532 C4555 0.950 . S
H4533 C4557 0.950 . S
H4534 C4558 0.950 . S
H4535 C4559 0.951 . S
H4536 C4561 0.951 . S
H4537 C4563 0.950 . S
H4538 C4564 0.950 . S
H4539 C4566 0.950 . S
H4540 C4569 0.950 . S
H4541 C4570 0.950 . S
H4542 C4572 0.950 . S
H4543 C4573 0.950 . S
C4544 H4526 0.951 . S
C4544 C4545 1.366 . S
C4544 C4546 1.388 . S
C4545 C4544 1.366 . S
C4545 C4549 1.385 . S
C4546 H4527 0.951 . S
C4546 C4544 1.388 . S
C4546 C4547 1.366 . S
C4547 C4546 1.366 . S
C4547 C4548 1.414 . S
C4547 C4550 1.499 . S
C4548 H4528 0.950 . S
C4548 C4547 1.414 . S
C4548 C4549 1.374 . S
C4549 H4529 0.950 . S
C4549 C4545 1.385 . S
C4549 C4548 1.374 . S
C4550 C4547 1.499 . S
C4550 C4551 1.373 . S
C4550 C4552 1.389 . S
C4551 H4530 0.950 . S
C4551 C4550 1.373 . S
C4551 C4567 1.377 . S
C4552 C4550 1.389 . S
C4552 C4553 1.524 . S
C4552 C4566 1.377 . S
C4553 C4552 1.524 . S
C4553 C4554 1.397 . S
C4553 C4558 1.363 . S
C4554 H4531 0.950 . S
C4554 C4553 1.397 . S
C4554 C4555 1.334 . S
C4555 H4532 0.950 . S
C4555 C4554 1.334 . S
C4555 C4556 1.287 . S
C4556 C4555 1.287 . S
C4556 C4557 1.524 . S
C4556 H4575 0.913 . S
C4557 H4533 0.950 . S
C4557 C4556 1.524 . S
C4557 C4558 1.415 . S
C4558 H4534 0.950 . S
C4558 C4553 1.363 . S
C4558 C4557 1.415 . S
C4559 H4535 0.951 . S
C4559 C4560 1.366 . S
C4559 C4561 1.388 . S
C4560 C4559 1.366 . S
C4560 C4564 1.385 . S
C4561 H4536 0.951 . S
C4561 C4559 1.388 . S
C4561 C4562 1.366 . S
C4562 C4561 1.366 . S
C4562 C4563 1.414 . S
C4562 C4565 1.499 . S
C4563 H4537 0.950 . S
C4563 C4562 1.414 . S
C4563 C4564 1.374 . S
C4564 H4538 0.950 . S
C4564 C4560 1.385 . S
C4564 C4563 1.374 . S
C4565 C4562 1.499 . S
C4565 C4566 1.373 . S
C4565 C4567 1.389 . S
C4566 H4539 0.950 . S
C4566 C4552 1.377 . S
C4566 C4565 1.373 . S
C4567 C4551 1.377 . S
C4567 C4565 1.389 . S
C4567 C4568 1.524 . S
C4568 C4567 1.524 . S
C4568 C4569 1.397 . S
C4568 C4573 1.363 . S
C4569 H4540 0.950 . S
C4569 C4568 1.397 . S
C4569 C4570 1.334 . S
C4570 H4541 0.950 . S
C4570 C4569 1.334 . S
C4570 C4571 1.287 . S
C4571 C4570 1.287 . S
C4571 C4572 1.524 . S
C4571 H4574 0.999 . S
C4572 H4542 0.950 . S
C4572 C4571 1.524 . S
C4572 C4573 1.415 . S
C4573 H4543 0.950 . S
C4573 C4568 1.363 . S
C4573 C4572 1.415 . S
H4574 C4571 0.999 . S
H4575 C4556 0.913 . S
H4576 C4594 0.951 . S
H4577 C4596 0.951 . S
H4578 C4598 0.950 . S
H4579 C4599 0.950 . S
H4580 C4601 0.950 . S
H4581 C4604 0.950 . S
H4582 C4605 0.950 . S
H4583 C4607 0.950 . S
H4584 C4608 0.950 . S
H4585 C4609 0.951 . S
H4586 C4611 0.951 . S
H4587 C4613 0.950 . S
H4588 C4614 0.950 . S
H4589 C4616 0.950 . S
H4590 C4619 0.950 . S
H4591 C4620 0.950 . S
H4592 C4622 0.950 . S
H4593 C4623 0.950 . S
C4594 H4576 0.951 . S
C4594 C4595 1.366 . S
C4594 C4596 1.388 . S
C4595 C4594 1.366 . S
C4595 C4599 1.385 . S
C4596 H4577 0.951 . S
C4596 C4594 1.388 . S
C4596 C4597 1.366 . S
C4597 C4596 1.366 . S
C4597 C4598 1.414 . S
C4597 C4600 1.499 . S
C4598 H4578 0.950 . S
C4598 C4597 1.414 . S
C4598 C4599 1.374 . S
C4599 H4579 0.950 . S
C4599 C4595 1.385 . S
C4599 C4598 1.374 . S
C4600 C4597 1.499 . S
C4600 C4601 1.373 . S
C4600 C4602 1.389 . S
C4601 H4580 0.950 . S
C4601 C4600 1.373 . S
C4601 C4617 1.377 . S
C4602 C4600 1.389 . S
C4602 C4603 1.524 . S
C4602 C4616 1.377 . S
C4603 C4602 1.524 . S
C4603 C4604 1.397 . S
C4603 C4608 1.363 . S
C4604 H4581 0.950 . S
C4604 C4603 1.397 . S
C4604 C4605 1.334 . S
C4605 H4582 0.950 . S
C4605 C4604 1.334 . S
C4605 C4606 1.287 . S
C4606 C4605 1.287 . S
C4606 C4607 1.524 . S
C4606 H4625 0.913 . S
C4607 H4583 0.950 . S
C4607 C4606 1.524 . S
C4607 C4608 1.415 . S
C4608 H4584 0.950 . S
C4608 C4603 1.363 . S
C4608 C4607 1.415 . S
C4609 H4585 0.951 . S
C4609 C4610 1.366 . S
C4609 C4611 1.388 . S
C4610 C4609 1.366 . S
C4610 C4614 1.385 . S
C4611 H4586 0.951 . S
C4611 C4609 1.388 . S
C4611 C4612 1.366 . S
C4612 C4611 1.366 . S
C4612 C4613 1.414 . S
C4612 C4615 1.499 . S
C4613 H4587 0.950 . S
C4613 C4612 1.414 . S
C4613 C4614 1.374 . S
C4614 H4588 0.950 . S
C4614 C4610 1.385 . S
C4614 C4613 1.374 . S
C4615 C4612 1.499 . S
C4615 C4616 1.373 . S
C4615 C4617 1.389 . S
C4616 H4589 0.950 . S
C4616 C4602 1.377 . S
C4616 C4615 1.373 . S
C4617 C4601 1.377 . S
C4617 C4615 1.389 . S
C4617 C4618 1.524 . S
C4618 C4617 1.524 . S
C4618 C4619 1.397 . S
C4618 C4623 1.363 . S
C4619 H4590 0.950 . S
C4619 C4618 1.397 . S
C4619 C4620 1.334 . S
C4620 H4591 0.950 . S
C4620 C4619 1.334 . S
C4620 C4621 1.287 . S
C4621 C4620 1.287 . S
C4621 C4622 1.524 . S
C4621 H4624 0.999 . S
C4622 H4592 0.950 . S
C4622 C4621 1.524 . S
C4622 C4623 1.415 . S
C4623 H4593 0.950 . S
C4623 C4618 1.363 . S
C4623 C4622 1.415 . S
H4624 C4621 0.999 . S
H4625 C4606 0.913 . S
H4626 C4644 0.951 . S
H4627 C4646 0.951 . S
H4628 C4648 0.950 . S
H4629 C4649 0.950 . S
H4630 C4651 0.950 . S
H4631 C4654 0.950 . S
H4632 C4655 0.950 . S
H4633 C4657 0.950 . S
H4634 C4658 0.950 . S
H4635 C4659 0.951 . S
H4636 C4661 0.951 . S
H4637 C4663 0.950 . S
H4638 C4664 0.950 . S
H4639 C4666 0.950 . S
H4640 C4669 0.950 . S
H4641 C4670 0.950 . S
H4642 C4672 0.950 . S
H4643 C4673 0.950 . S
C4644 H4626 0.951 . S
C4644 C4645 1.366 . S
C4644 C4646 1.388 . S
C4645 C4644 1.366 . S
C4645 C4649 1.385 . S
C4646 H4627 0.951 . S
C4646 C4644 1.388 . S
C4646 C4647 1.366 . S
C4647 C4646 1.366 . S
C4647 C4648 1.414 . S
C4647 C4650 1.499 . S
C4648 H4628 0.950 . S
C4648 C4647 1.414 . S
C4648 C4649 1.374 . S
C4649 H4629 0.950 . S
C4649 C4645 1.385 . S
C4649 C4648 1.374 . S
C4650 C4647 1.499 . S
C4650 C4651 1.373 . S
C4650 C4652 1.389 . S
C4651 H4630 0.950 . S
C4651 C4650 1.373 . S
C4651 C4667 1.377 . S
C4652 C4650 1.389 . S
C4652 C4653 1.524 . S
C4652 C4666 1.377 . S
C4653 C4652 1.524 . S
C4653 C4654 1.397 . S
C4653 C4658 1.363 . S
C4654 H4631 0.950 . S
C4654 C4653 1.397 . S
C4654 C4655 1.334 . S
C4655 H4632 0.950 . S
C4655 C4654 1.334 . S
C4655 C4656 1.287 . S
C4656 C4655 1.287 . S
C4656 C4657 1.524 . S
C4656 H4675 0.913 . S
C4657 H4633 0.950 . S
C4657 C4656 1.524 . S
C4657 C4658 1.415 . S
C4658 H4634 0.950 . S
C4658 C4653 1.363 . S
C4658 C4657 1.415 . S
C4659 H4635 0.951 . S
C4659 C4660 1.366 . S
C4659 C4661 1.388 . S
C4660 C4659 1.366 . S
C4660 C4664 1.385 . S
C4661 H4636 0.951 . S
C4661 C4659 1.388 . S
C4661 C4662 1.366 . S
C4662 C4661 1.366 . S
C4662 C4663 1.414 . S
C4662 C4665 1.499 . S
C4663 H4637 0.950 . S
C4663 C4662 1.414 . S
C4663 C4664 1.374 . S
C4664 H4638 0.950 . S
C4664 C4660 1.385 . S
C4664 C4663 1.374 . S
C4665 C4662 1.499 . S
C4665 C4666 1.373 . S
C4665 C4667 1.389 . S
C4666 H4639 0.950 . S
C4666 C4652 1.377 . S
C4666 C4665 1.373 . S
C4667 C4651 1.377 . S
C4667 C4665 1.389 . S
C4667 C4668 1.524 . S
C4668 C4667 1.524 . S
C4668 C4669 1.397 . S
C4668 C4673 1.363 . S
C4669 H4640 0.950 . S
C4669 C4668 1.397 . S
C4669 C4670 1.334 . S
C4670 H4641 0.950 . S
C4670 C4669 1.334 . S
C4670 C4671 1.287 . S
C4671 C4670 1.287 . S
C4671 C4672 1.524 . S
C4671 H4674 0.999 . S
C4672 H4642 0.950 . S
C4672 C4671 1.524 . S
C4672 C4673 1.415 . S
C4673 H4643 0.950 . S
C4673 C4668 1.363 . S
C4673 C4672 1.415 . S
H4674 C4671 0.999 . S
H4675 C4656 0.913 . S
H4676 C4694 0.951 . S
H4677 C4696 0.951 . S
H4678 C4698 0.950 . S
H4679 C4699 0.950 . S
H4680 C4701 0.950 . S
H4681 C4704 0.950 . S
H4682 C4705 0.950 . S
H4683 C4707 0.950 . S
H4684 C4708 0.950 . S
H4685 C4709 0.951 . S
H4686 C4711 0.951 . S
H4687 C4713 0.950 . S
H4688 C4714 0.950 . S
H4689 C4716 0.950 . S
H4690 C4719 0.950 . S
H4691 C4720 0.950 . S
H4692 C4722 0.950 . S
H4693 C4723 0.950 . S
C4694 H4676 0.951 . S
C4694 C4695 1.366 . S
C4694 C4696 1.388 . S
C4695 C4694 1.366 . S
C4695 C4699 1.385 . S
C4696 H4677 0.951 . S
C4696 C4694 1.388 . S
C4696 C4697 1.366 . S
C4697 C4696 1.366 . S
C4697 C4698 1.414 . S
C4697 C4700 1.499 . S
C4698 H4678 0.950 . S
C4698 C4697 1.414 . S
C4698 C4699 1.374 . S
C4699 H4679 0.950 . S
C4699 C4695 1.385 . S
C4699 C4698 1.374 . S
C4700 C4697 1.499 . S
C4700 C4701 1.373 . S
C4700 C4702 1.389 . S
C4701 H4680 0.950 . S
C4701 C4700 1.373 . S
C4701 C4717 1.377 . S
C4702 C4700 1.389 . S
C4702 C4703 1.524 . S
C4702 C4716 1.377 . S
C4703 C4702 1.524 . S
C4703 C4704 1.397 . S
C4703 C4708 1.363 . S
C4704 H4681 0.950 . S
C4704 C4703 1.397 . S
C4704 C4705 1.334 . S
C4705 H4682 0.950 . S
C4705 C4704 1.334 . S
C4705 C4706 1.287 . S
C4706 C4705 1.287 . S
C4706 C4707 1.524 . S
C4706 H4725 0.913 . S
C4707 H4683 0.950 . S
C4707 C4706 1.524 . S
C4707 C4708 1.415 . S
C4708 H4684 0.950 . S
C4708 C4703 1.363 . S
C4708 C4707 1.415 . S
C4709 H4685 0.951 . S
C4709 C4710 1.366 . S
C4709 C4711 1.388 . S
C4710 C4709 1.366 . S
C4710 C4714 1.385 . S
C4711 H4686 0.951 . S
C4711 C4709 1.388 . S
C4711 C4712 1.366 . S
C4712 C4711 1.366 . S
C4712 C4713 1.414 . S
C4712 C4715 1.499 . S
C4713 H4687 0.950 . S
C4713 C4712 1.414 . S
C4713 C4714 1.374 . S
C4714 H4688 0.950 . S
C4714 C4710 1.385 . S
C4714 C4713 1.374 . S
C4715 C4712 1.499 . S
C4715 C4716 1.373 . S
C4715 C4717 1.389 . S
C4716 H4689 0.950 . S
C4716 C4702 1.377 . S
C4716 C4715 1.373 . S
C4717 C4701 1.377 . S
C4717 C4715 1.389 . S
C4717 C4718 1.524 . S
C4718 C4717 1.524 . S
C4718 C4719 1.397 . S
C4718 C4723 1.363 . S
C4719 H4690 0.950 . S
C4719 C4718 1.397 . S
C4719 C4720 1.334 . S
C4720 H4691 0.950 . S
C4720 C4719 1.334 . S
C4720 C4721 1.287 . S
C4721 C4720 1.287 . S
C4721 C4722 1.524 . S
C4721 H4724 0.999 . S
C4722 H4692 0.950 . S
C4722 C4721 1.524 . S
C4722 C4723 1.415 . S
C4723 H4693 0.950 . S
C4723 C4718 1.363 . S
C4723 C4722 1.415 . S
H4724 C4721 0.999 . S
H4725 C4706 0.913 . S
H4726 C4744 0.951 . S
H4727 C4746 0.951 . S
H4728 C4748 0.950 . S
H4729 C4749 0.950 . S
H4730 C4751 0.950 . S
H4731 C4754 0.950 . S
H4732 C4755 0.950 . S
H4733 C4757 0.950 . S
H4734 C4758 0.950 . S
H4735 C4759 0.951 . S
H4736 C4761 0.951 . S
H4737 C4763 0.950 . S
H4738 C4764 0.950 . S
H4739 C4766 0.950 . S
H4740 C4769 0.950 . S
H4741 C4770 0.950 . S
H4742 C4772 0.950 . S
H4743 C4773 0.950 . S
C4744 H4726 0.951 . S
C4744 C4745 1.366 . S
C4744 C4746 1.388 . S
C4745 C4744 1.366 . S
C4745 C4749 1.385 . S
C4746 H4727 0.951 . S
C4746 C4744 1.388 . S
C4746 C4747 1.366 . S
C4747 C4746 1.366 . S
C4747 C4748 1.414 . S
C4747 C4750 1.499 . S
C4748 H4728 0.950 . S
C4748 C4747 1.414 . S
C4748 C4749 1.374 . S
C4749 H4729 0.950 . S
C4749 C4745 1.385 . S
C4749 C4748 1.374 . S
C4750 C4747 1.499 . S
C4750 C4751 1.373 . S
C4750 C4752 1.389 . S
C4751 H4730 0.950 . S
C4751 C4750 1.373 . S
C4751 C4767 1.377 . S
C4752 C4750 1.389 . S
C4752 C4753 1.524 . S
C4752 C4766 1.377 . S
C4753 C4752 1.524 . S
C4753 C4754 1.397 . S
C4753 C4758 1.363 . S
C4754 H4731 0.950 . S
C4754 C4753 1.397 . S
C4754 C4755 1.334 . S
C4755 H4732 0.950 . S
C4755 C4754 1.334 . S
C4755 C4756 1.287 . S
C4756 C4755 1.287 . S
C4756 C4757 1.524 . S
C4756 H4775 0.913 . S
C4757 H4733 0.950 . S
C4757 C4756 1.524 . S
C4757 C4758 1.415 . S
C4758 H4734 0.950 . S
C4758 C4753 1.363 . S
C4758 C4757 1.415 . S
C4759 H4735 0.951 . S
C4759 C4760 1.366 . S
C4759 C4761 1.388 . S
C4760 C4759 1.366 . S
C4760 C4764 1.385 . S
C4761 H4736 0.951 . S
C4761 C4759 1.388 . S
C4761 C4762 1.366 . S
C4762 C4761 1.366 . S
C4762 C4763 1.414 . S
C4762 C4765 1.499 . S
C4763 H4737 0.950 . S
C4763 C4762 1.414 . S
C4763 C4764 1.374 . S
C4764 H4738 0.950 . S
C4764 C4760 1.385 . S
C4764 C4763 1.374 . S
C4765 C4762 1.499 . S
C4765 C4766 1.373 . S
C4765 C4767 1.389 . S
C4766 H4739 0.950 . S
C4766 C4752 1.377 . S
C4766 C4765 1.373 . S
C4767 C4751 1.377 . S
C4767 C4765 1.389 . S
C4767 C4768 1.524 . S
C4768 C4767 1.524 . S
C4768 C4769 1.397 . S
C4768 C4773 1.363 . S
C4769 H4740 0.950 . S
C4769 C4768 1.397 . S
C4769 C4770 1.334 . S
C4770 H4741 0.950 . S
C4770 C4769 1.334 . S
C4770 C4771 1.287 . S
C4771 C4770 1.287 . S
C4771 C4772 1.524 . S
C4771 H4774 0.999 . S
C4772 H4742 0.950 . S
C4772 C4771 1.524 . S
C4772 C4773 1.415 . S
C4773 H4743 0.950 . S
C4773 C4768 1.363 . S
C4773 C4772 1.415 . S
H4774 C4771 0.999 . S
H4775 C4756 0.913 . S
H4776 C4794 0.951 . S
H4777 C4796 0.951 . S
H4778 C4798 0.950 . S
H4779 C4799 0.950 . S
H4780 C4801 0.950 . S
H4781 C4804 0.950 . S
H4782 C4805 0.950 . S
H4783 C4807 0.950 . S
H4784 C4808 0.950 . S
H4785 C4809 1.013 . S
H4786 C4811 0.951 . S
H4787 C4813 0.950 . S
H4788 C4814 0.950 . S
H4789 C4816 0.950 . S
H4790 C4819 0.950 . S
H4791 C4820 0.950 . S
H4792 C4822 0.950 1_554 S
H4793 C4823 0.950 . S
C4794 H4776 0.951 . S
C4794 C4795 1.366 . S
C4794 C4796 1.388 . S
C4795 C4794 1.366 . S
C4795 C4799 1.385 . S
C4796 H4777 0.951 . S
C4796 C4794 1.388 . S
C4796 C4797 1.366 . S
C4797 C4796 1.366 . S
C4797 C4798 1.414 . S
C4797 C4800 1.499 . S
C4798 H4778 0.950 . S
C4798 C4797 1.414 . S
C4798 C4799 1.374 . S
C4799 H4779 0.950 . S
C4799 C4795 1.385 . S
C4799 C4798 1.374 . S
C4800 C4797 1.499 . S
C4800 C4801 1.373 . S
C4800 C4802 1.389 . S
C4801 H4780 0.950 . S
C4801 C4800 1.373 . S
C4801 C4817 1.377 . S
C4802 C4800 1.389 . S
C4802 C4803 1.524 . S
C4802 C4816 1.377 . S
C4803 C4802 1.524 . S
C4803 C4804 1.397 . S
C4803 C4808 1.363 . S
C4804 H4781 0.950 . S
C4804 C4803 1.397 . S
C4804 C4805 1.334 . S
C4805 H4782 0.950 . S
C4805 C4804 1.334 . S
C4805 C4806 1.287 . S
C4806 C4805 1.287 . S
C4806 C4807 1.524 . S
C4806 H4825 0.913 . S
C4807 H4783 0.950 . S
C4807 C4806 1.524 . S
C4807 C4808 1.415 . S
C4808 H4784 0.950 . S
C4808 C4803 1.363 . S
C4808 C4807 1.415 . S
C4809 H4785 1.013 . S
C4809 C4810 1.366 . S
C4809 C4811 1.388 . S
C4810 C4809 1.366 . S
C4810 C4814 1.385 . S
C4811 H4786 0.951 . S
C4811 C4809 1.388 . S
C4811 C4812 1.366 . S
C4812 C4811 1.366 . S
C4812 C4813 1.414 . S
C4812 C4815 1.499 . S
C4813 H4787 0.950 . S
C4813 C4812 1.414 . S
C4813 C4814 1.374 . S
C4814 H4788 0.950 . S
C4814 C4810 1.385 . S
C4814 C4813 1.374 . S
C4815 C4812 1.499 . S
C4815 C4816 1.373 . S
C4815 C4817 1.389 . S
C4816 H4789 0.950 . S
C4816 C4802 1.377 . S
C4816 C4815 1.373 . S
C4817 C4801 1.377 . S
C4817 C4815 1.389 . S
C4817 C4818 1.524 . S
C4818 C4817 1.524 . S
C4818 C4819 1.397 . S
C4818 C4823 1.363 . S
C4819 H4790 0.950 . S
C4819 C4818 1.397 . S
C4819 C4820 1.334 . S
C4820 H4791 0.950 . S
C4820 C4819 1.334 . S
C4820 C4821 1.287 . S
C4821 C4820 1.287 . S
C4821 C4822 1.524 . S
C4821 H4824 0.999 1_556 S
C4822 H4792 0.950 1_556 S
C4822 C4821 1.524 . S
C4822 C4823 1.415 . S
C4823 H4793 0.950 . S
C4823 C4818 1.363 . S
C4823 C4822 1.415 . S
H4824 C4821 0.999 1_554 S
H4825 C4806 0.913 . S
H4826 C4844 0.951 . S
H4827 C4846 0.951 . S
H4828 C4848 0.950 . S
H4829 C4849 0.950 . S
H4830 C4851 0.950 . S
H4831 C4854 0.950 . S
H4832 C4855 0.950 . S
H4833 C4857 0.950 . S
H4834 C4858 0.950 . S
H4835 C4859 0.951 . S
H4836 C4861 0.951 . S
H4837 C4863 0.950 . S
H4838 C4864 0.950 . S
H4839 C4866 0.950 . S
H4840 C4869 0.950 . S
H4841 C4870 0.950 . S
H4842 C4872 0.950 . S
H4843 C4873 0.950 . S
C4844 H4826 0.951 . S
C4844 C4845 1.366 . S
C4844 C4846 1.388 . S
C4845 C4844 1.366 . S
C4845 C4849 1.385 . S
C4846 H4827 0.951 . S
C4846 C4844 1.388 . S
C4846 C4847 1.366 . S
C4847 C4846 1.366 . S
C4847 C4848 1.414 . S
C4847 C4850 1.499 . S
C4848 H4828 0.950 . S
C4848 C4847 1.414 . S
C4848 C4849 1.374 . S
C4849 H4829 0.950 . S
C4849 C4845 1.385 . S
C4849 C4848 1.374 . S
C4850 C4847 1.499 . S
C4850 C4851 1.373 . S
C4850 C4852 1.389 . S
C4851 H4830 0.950 . S
C4851 C4850 1.373 . S
C4851 C4867 1.377 . S
C4852 C4850 1.389 . S
C4852 C4853 1.524 . S
C4852 C4866 1.377 . S
C4853 C4852 1.524 . S
C4853 C4854 1.397 . S
C4853 C4858 1.363 . S
C4854 H4831 0.950 . S
C4854 C4853 1.397 . S
C4854 C4855 1.334 . S
C4855 H4832 0.950 . S
C4855 C4854 1.334 . S
C4855 C4856 1.287 . S
C4856 C4855 1.287 . S
C4856 C4857 1.524 . S
C4856 H4875 0.913 . S
C4857 H4833 0.950 . S
C4857 C4856 1.524 . S
C4857 C4858 1.415 . S
C4858 H4834 0.950 . S
C4858 C4853 1.363 . S
C4858 C4857 1.415 . S
C4859 H4835 0.951 . S
C4859 C4860 1.366 . S
C4859 C4861 1.388 . S
C4860 C4859 1.366 . S
C4860 C4864 1.385 . S
C4861 H4836 0.951 . S
C4861 C4859 1.388 . S
C4861 C4862 1.366 . S
C4862 C4861 1.366 . S
C4862 C4863 1.414 . S
C4862 C4865 1.499 . S
C4863 H4837 0.950 . S
C4863 C4862 1.414 . S
C4863 C4864 1.374 . S
C4864 H4838 0.950 . S
C4864 C4860 1.385 . S
C4864 C4863 1.374 . S
C4865 C4862 1.499 . S
C4865 C4866 1.373 . S
C4865 C4867 1.389 . S
C4866 H4839 0.950 . S
C4866 C4852 1.377 . S
C4866 C4865 1.373 . S
C4867 C4851 1.377 . S
C4867 C4865 1.389 . S
C4867 C4868 1.524 . S
C4868 C4867 1.524 . S
C4868 C4869 1.397 . S
C4868 C4873 1.363 . S
C4869 H4840 0.950 . S
C4869 C4868 1.397 . S
C4869 C4870 1.334 . S
C4870 H4841 0.950 . S
C4870 C4869 1.334 . S
C4870 C4871 1.287 . S
C4871 C4870 1.287 . S
C4871 C4872 1.524 . S
C4871 H4874 0.999 . S
C4872 H4842 0.950 . S
C4872 C4871 1.524 . S
C4872 C4873 1.415 . S
C4873 H4843 0.950 . S
C4873 C4868 1.363 . S
C4873 C4872 1.415 . S
H4874 C4871 0.999 . S
H4875 C4856 0.913 . S
H4876 C4894 0.951 . S
H4877 C4896 0.951 . S
H4878 C4898 0.950 . S
H4879 C4899 0.950 . S
H4880 C4901 0.950 . S
H4881 C4904 0.950 . S
H4882 C4905 0.950 . S
H4883 C4907 0.950 . S
H4884 C4908 0.950 . S
H4885 C4909 0.951 . S
H4886 C4911 0.951 . S
H4887 C4913 0.950 . S
H4888 C4914 0.950 . S
H4889 C4916 0.950 . S
H4890 C4919 0.950 . S
H4891 C4920 0.892 1_655 S
H4892 C4922 0.950 . S
H4893 C4923 0.950 . S
C4894 H4876 0.951 . S
C4894 C4895 1.366 . S
C4894 C4896 1.388 . S
C4895 C4894 1.366 . S
C4895 C4899 1.385 . S
C4896 H4877 0.951 . S
C4896 C4894 1.388 . S
C4896 C4897 1.366 . S
C4897 C4896 1.366 . S
C4897 C4898 1.414 . S
C4897 C4900 1.499 . S
C4898 H4878 0.950 . S
C4898 C4897 1.414 . S
C4898 C4899 1.374 . S
C4899 H4879 0.950 . S
C4899 C4895 1.385 . S
C4899 C4898 1.374 . S
C4900 C4897 1.499 . S
C4900 C4901 1.373 . S
C4900 C4902 1.389 . S
C4901 H4880 0.950 . S
C4901 C4900 1.373 . S
C4901 C4917 1.377 . S
C4902 C4900 1.389 . S
C4902 C4903 1.524 . S
C4902 C4916 1.377 . S
C4903 C4902 1.524 . S
C4903 C4904 1.397 . S
C4903 C4908 1.363 . S
C4904 H4881 0.950 . S
C4904 C4903 1.397 . S
C4904 C4905 1.334 . S
C4905 H4882 0.950 . S
C4905 C4904 1.334 . S
C4905 C4906 1.287 . S
C4906 C4905 1.287 . S
C4906 C4907 1.524 . S
C4906 H4925 0.913 . S
C4907 H4883 0.950 . S
C4907 C4906 1.524 . S
C4907 C4908 1.415 . S
C4908 H4884 0.950 . S
C4908 C4903 1.363 . S
C4908 C4907 1.415 . S
C4909 H4885 0.951 . S
C4909 C4910 1.366 . S
C4909 C4911 1.388 . S
C4910 C4909 1.366 . S
C4910 C4914 1.385 . S
C4911 H4886 0.951 . S
C4911 C4909 1.388 . S
C4911 C4912 1.366 . S
C4912 C4911 1.366 . S
C4912 C4913 1.414 . S
C4912 C4915 1.499 . S
C4913 H4887 0.950 . S
C4913 C4912 1.414 . S
C4913 C4914 1.374 . S
C4914 H4888 0.950 . S
C4914 C4910 1.385 . S
C4914 C4913 1.374 . S
C4915 C4912 1.499 . S
C4915 C4916 1.373 . S
C4915 C4917 1.389 . S
C4916 H4889 0.950 . S
C4916 C4902 1.377 . S
C4916 C4915 1.373 . S
C4917 C4901 1.377 . S
C4917 C4915 1.389 . S
C4917 C4918 1.524 . S
C4918 C4917 1.524 . S
C4918 C4919 1.397 . S
C4918 C4923 1.363 . S
C4919 H4890 0.950 . S
C4919 C4918 1.397 . S
C4919 C4920 1.334 . S
C4920 H4891 0.892 1_455 S
C4920 C4919 1.334 . S
C4920 C4921 1.287 . S
C4921 C4920 1.287 . S
C4921 C4922 1.524 . S
C4921 H4924 0.999 1_455 S
C4922 H4892 0.950 . S
C4922 C4921 1.524 . S
C4922 C4923 1.415 . S
C4923 H4893 0.950 . S
C4923 C4918 1.363 . S
C4923 C4922 1.415 . S
H4924 C4921 0.999 1_655 S
H4925 C4906 0.913 . S
H4926 C4944 0.951 . S
H4927 C4946 0.951 . S
H4928 C4948 0.950 . S
H4929 C4949 0.950 . S
H4930 C4951 0.950 . S
H4931 C4954 0.950 . S
H4932 C4955 0.950 . S
H4933 C4957 0.950 . S
H4934 C4958 0.950 . S
H4935 C4959 0.951 . S
H4936 C4961 0.951 . S
H4937 C4963 0.950 . S
H4938 C4964 0.950 . S
H4939 C4966 0.950 . S
H4940 C4969 0.950 . S
H4941 C4970 0.950 . S
H4942 C4972 0.950 . S
H4943 C4973 0.950 . S
C4944 H4926 0.951 . S
C4944 C4945 1.366 . S
C4944 C4946 1.388 . S
C4945 C4944 1.366 . S
C4945 C4949 1.385 . S
C4946 H4927 0.951 . S
C4946 C4944 1.388 . S
C4946 C4947 1.366 . S
C4947 C4946 1.366 . S
C4947 C4948 1.414 . S
C4947 C4950 1.499 . S
C4948 H4928 0.950 . S
C4948 C4947 1.414 . S
C4948 C4949 1.374 . S
C4949 H4929 0.950 . S
C4949 C4945 1.385 . S
C4949 C4948 1.374 . S
C4950 C4947 1.499 . S
C4950 C4951 1.373 . S
C4950 C4952 1.389 . S
C4951 H4930 0.950 . S
C4951 C4950 1.373 . S
C4951 C4967 1.377 . S
C4952 C4950 1.389 . S
C4952 C4953 1.524 . S
C4952 C4966 1.377 . S
C4953 C4952 1.524 . S
C4953 C4954 1.397 . S
C4953 C4958 1.363 . S
C4954 H4931 0.950 . S
C4954 C4953 1.397 . S
C4954 C4955 1.334 . S
C4955 H4932 0.950 . S
C4955 C4954 1.334 . S
C4955 C4956 1.287 . S
C4956 C4955 1.287 . S
C4956 C4957 1.524 . S
C4956 H4975 0.913 . S
C4957 H4933 0.950 . S
C4957 C4956 1.524 . S
C4957 C4958 1.415 . S
C4958 H4934 0.950 . S
C4958 C4953 1.363 . S
C4958 C4957 1.415 . S
C4959 H4935 0.951 . S
C4959 C4960 1.366 . S
C4959 C4961 1.388 . S
C4960 C4959 1.366 . S
C4960 C4964 1.385 . S
C4961 H4936 0.951 . S
C4961 C4959 1.388 . S
C4961 C4962 1.366 . S
C4962 C4961 1.366 . S
C4962 C4963 1.414 . S
C4962 C4965 1.499 . S
C4963 H4937 0.950 . S
C4963 C4962 1.414 . S
C4963 C4964 1.374 . S
C4964 H4938 0.950 . S
C4964 C4960 1.385 . S
C4964 C4963 1.374 . S
C4965 C4962 1.499 . S
C4965 C4966 1.373 . S
C4965 C4967 1.389 . S
C4966 H4939 0.950 . S
C4966 C4952 1.377 . S
C4966 C4965 1.373 . S
C4967 C4951 1.377 . S
C4967 C4965 1.389 . S
C4967 C4968 1.524 . S
C4968 C4967 1.524 . S
C4968 C4969 1.397 . S
C4968 C4973 1.363 . S
C4969 H4940 0.950 . S
C4969 C4968 1.397 . S
C4969 C4970 1.334 . S
C4970 H4941 0.950 . S
C4970 C4969 1.334 . S
C4970 C4971 1.287 . S
C4971 C4970 1.287 . S
C4971 C4972 1.524 . S
C4971 H4974 0.999 . S
C4972 H4942 0.950 . S
C4972 C4971 1.524 . S
C4972 C4973 1.415 . S
C4973 H4943 0.950 . S
C4973 C4968 1.363 . S
C4973 C4972 1.415 . S
H4974 C4971 0.999 . S
H4975 C4956 0.913 . S
H4976 C4994 0.951 . S
H4977 C4996 0.951 . S
H4978 C4998 0.950 . S
H4979 C4999 0.950 . S
H4980 C5001 0.950 . S
H4981 C5004 0.950 . S
H4982 C5005 0.950 . S
H4983 C5007 0.950 . S
H4984 C5008 0.950 . S
H4985 C5009 0.951 . S
H4986 C5011 0.951 . S
H4987 C5013 0.950 . S
H4988 C5014 0.950 . S
H4989 C5016 0.950 . S
H4990 C5019 0.950 . S
H4991 C5020 0.950 . S
H4992 C5022 0.950 . S
H4993 C5023 0.950 . S
C4994 H4976 0.951 . S
C4994 C4995 1.366 . S
C4994 C4996 1.388 . S
C4995 C4994 1.366 . S
C4995 C4999 1.385 . S
C4996 H4977 0.951 . S
C4996 C4994 1.388 . S
C4996 C4997 1.366 . S
C4997 C4996 1.366 . S
C4997 C4998 1.414 . S
C4997 C5000 1.499 . S
C4998 H4978 0.950 . S
C4998 C4997 1.414 . S
C4998 C4999 1.374 . S
C4999 H4979 0.950 . S
C4999 C4995 1.385 . S
C4999 C4998 1.374 . S
C5000 C4997 1.499 . S
C5000 C5001 1.373 . S
C5000 C5002 1.389 . S
C5001 H4980 0.950 . S
C5001 C5000 1.373 . S
C5001 C5017 1.377 . S
C5002 C5000 1.389 . S
C5002 C5003 1.524 . S
C5002 C5016 1.377 . S
C5003 C5002 1.524 . S
C5003 C5004 1.397 . S
C5003 C5008 1.363 . S
C5004 H4981 0.950 . S
C5004 C5003 1.397 . S
C5004 C5005 1.334 . S
C5005 H4982 0.950 . S
C5005 C5004 1.334 . S
C5005 C5006 1.287 . S
C5006 C5005 1.287 . S
C5006 C5007 1.524 . S
C5006 H5025 0.913 . S
C5007 H4983 0.950 . S
C5007 C5006 1.524 . S
C5007 C5008 1.415 . S
C5008 H4984 0.950 . S
C5008 C5003 1.363 . S
C5008 C5007 1.415 . S
C5009 H4985 0.951 . S
C5009 C5010 1.366 . S
C5009 C5011 1.388 . S
C5010 C5009 1.366 . S
C5010 C5014 1.385 . S
C5011 H4986 0.951 . S
C5011 C5009 1.388 . S
C5011 C5012 1.366 . S
C5012 C5011 1.366 . S
C5012 C5013 1.414 . S
C5012 C5015 1.499 . S
C5013 H4987 0.950 . S
C5013 C5012 1.414 . S
C5013 C5014 1.374 . S
C5014 H4988 0.950 . S
C5014 C5010 1.385 . S
C5014 C5013 1.374 . S
C5015 C5012 1.499 . S
C5015 C5016 1.373 . S
C5015 C5017 1.389 . S
C5016 H4989 0.950 . S
C5016 C5002 1.377 . S
C5016 C5015 1.373 . S
C5017 C5001 1.377 . S
C5017 C5015 1.389 . S
C5017 C5018 1.524 . S
C5018 C5017 1.524 . S
C5018 C5019 1.397 . S
C5018 C5023 1.363 . S
C5019 H4990 0.950 . S
C5019 C5018 1.397 . S
C5019 C5020 1.334 . S
C5020 H4991 0.950 . S
C5020 C5019 1.334 . S
C5020 C5021 1.287 . S
C5021 C5020 1.287 . S
C5021 C5022 1.524 . S
C5021 H5024 0.999 . S
C5022 H4992 0.950 . S
C5022 C5021 1.524 . S
C5022 C5023 1.415 . S
C5023 H4993 0.950 . S
C5023 C5018 1.363 . S
C5023 C5022 1.415 . S
H5024 C5021 0.999 . S
H5025 C5006 0.913 . S
H5026 C5044 0.951 . S
H5027 C5046 0.951 . S
H5028 C5048 0.950 . S
H5029 C5049 0.950 . S
H5030 C5051 0.950 . S
H5031 C5054 0.950 . S
H5032 C5055 0.950 . S
H5033 C5057 0.950 . S
H5034 C5058 0.950 . S
H5035 C5059 0.951 . S
H5036 C5061 0.951 . S
H5037 C5063 0.950 . S
H5038 C5064 0.950 . S
H5039 C5066 0.950 . S
H5040 C5069 0.950 . S
H5041 C5070 0.950 . S
H5042 C5072 0.950 . S
H5043 C5073 0.950 . S
C5044 H5026 0.951 . S
C5044 C5045 1.366 . S
C5044 C5046 1.388 . S
C5045 C5044 1.366 . S
C5045 C5049 1.385 . S
C5046 H5027 0.951 . S
C5046 C5044 1.388 . S
C5046 C5047 1.366 . S
C5047 C5046 1.366 . S
C5047 C5048 1.414 . S
C5047 C5050 1.499 . S
C5048 H5028 0.950 . S
C5048 C5047 1.414 . S
C5048 C5049 1.374 . S
C5049 H5029 0.950 . S
C5049 C5045 1.385 . S
C5049 C5048 1.374 . S
C5050 C5047 1.499 . S
C5050 C5051 1.373 . S
C5050 C5052 1.389 . S
C5051 H5030 0.950 . S
C5051 C5050 1.373 . S
C5051 C5067 1.377 . S
C5052 C5050 1.389 . S
C5052 C5053 1.524 . S
C5052 C5066 1.377 . S
C5053 C5052 1.524 . S
C5053 C5054 1.397 . S
C5053 C5058 1.363 . S
C5054 H5031 0.950 . S
C5054 C5053 1.397 . S
C5054 C5055 1.334 . S
C5055 H5032 0.950 . S
C5055 C5054 1.334 . S
C5055 C5056 1.287 . S
C5056 C5055 1.287 . S
C5056 C5057 1.524 . S
C5056 H5075 0.913 . S
C5057 H5033 0.950 . S
C5057 C5056 1.524 . S
C5057 C5058 1.415 . S
C5058 H5034 0.950 . S
C5058 C5053 1.363 . S
C5058 C5057 1.415 . S
C5059 H5035 0.951 . S
C5059 C5060 1.366 . S
C5059 C5061 1.388 . S
C5060 C5059 1.366 . S
C5060 C5064 1.385 . S
C5061 H5036 0.951 . S
C5061 C5059 1.388 . S
C5061 C5062 1.366 . S
C5062 C5061 1.366 . S
C5062 C5063 1.414 . S
C5062 C5065 1.499 . S
C5063 H5037 0.950 . S
C5063 C5062 1.414 . S
C5063 C5064 1.374 . S
C5064 H5038 0.950 . S
C5064 C5060 1.385 . S
C5064 C5063 1.374 . S
C5065 C5062 1.499 . S
C5065 C5066 1.373 . S
C5065 C5067 1.389 . S
C5066 H5039 0.950 . S
C5066 C5052 1.377 . S
C5066 C5065 1.373 . S
C5067 C5051 1.377 . S
C5067 C5065 1.389 . S
C5067 C5068 1.524 . S
C5068 C5067 1.524 . S
C5068 C5069 1.397 . S
C5068 C5073 1.363 . S
C5069 H5040 0.950 . S
C5069 C5068 1.397 . S
C5069 C5070 1.334 . S
C5070 H5041 0.950 . S
C5070 C5069 1.334 . S
C5070 C5071 1.287 . S
C5071 C5070 1.287 . S
C5071 C5072 1.524 . S
C5071 H5074 0.999 . S
C5072 H5042 0.950 . S
C5072 C5071 1.524 . S
C5072 C5073 1.415 . S
C5073 H5043 0.950 . S
C5073 C5068 1.363 . S
C5073 C5072 1.415 . S
H5074 C5071 0.999 . S
H5075 C5056 0.913 . S
H5076 C5094 0.951 . S
H5077 C5096 0.951 . S
H5078 C5098 0.950 . S
H5079 C5099 0.950 . S
H5080 C5101 0.950 . S
H5081 C5104 0.950 1_655 S
H5082 C5105 0.950 . S
H5083 C5107 0.950 . S
H5084 C5108 0.950 . S
H5085 C5109 0.951 . S
H5086 C5111 0.951 1_655 S
H5087 C5113 0.950 . S
H5088 C5114 0.950 . S
H5089 C5116 0.950 . S
H5090 C5119 0.950 . S
H5091 C5120 0.950 . S
H5092 C5122 0.950 . S
H5093 C5123 0.950 . S
C5094 H5076 0.951 . S
C5094 C5095 1.366 . S
C5094 C5096 1.388 . S
C5095 C5094 1.366 . S
C5095 C5099 1.385 . S
C5096 H5077 0.951 . S
C5096 C5094 1.388 . S
C5096 C5097 1.366 . S
C5097 C5096 1.366 . S
C5097 C5098 1.414 . S
C5097 C5100 1.499 . S
C5098 H5078 0.950 . S
C5098 C5097 1.414 . S
C5098 C5099 1.374 . S
C5099 H5079 0.950 . S
C5099 C5095 1.385 . S
C5099 C5098 1.374 . S
C5100 C5097 1.499 . S
C5100 C5101 1.373 . S
C5100 C5102 1.389 . S
C5101 H5080 0.950 . S
C5101 C5100 1.373 . S
C5101 C5117 1.377 . S
C5102 C5100 1.389 . S
C5102 C5103 1.524 1_655 S
C5102 C5116 1.377 1_655 S
C5103 C5102 1.524 1_455 S
C5103 C5104 1.397 . S
C5103 C5108 1.363 . S
C5104 H5081 0.950 1_455 S
C5104 C5103 1.397 . S
C5104 C5105 1.334 . S
C5105 H5082 0.950 . S
C5105 C5104 1.334 . S
C5105 C5106 1.287 . S
C5106 C5105 1.287 . S
C5106 C5107 1.524 . S
C5106 H5125 0.913 . S
C5107 H5083 0.950 . S
C5107 C5106 1.524 . S
C5107 C5108 1.415 . S
C5108 H5084 0.950 . S
C5108 C5103 1.363 . S
C5108 C5107 1.415 . S
C5109 H5085 0.951 . S
C5109 C5110 1.366 . S
C5109 C5111 1.388 . S
C5110 C5109 1.366 . S
C5110 C5114 1.385 . S
C5111 H5086 0.951 1_455 S
C5111 C5109 1.388 . S
C5111 C5112 1.366 . S
C5112 C5111 1.366 . S
C5112 C5113 1.414 . S
C5112 C5115 1.499 1_455 S
C5113 H5087 0.950 . S
C5113 C5112 1.414 . S
C5113 C5114 1.374 . S
C5114 H5088 0.950 . S
C5114 C5110 1.385 . S
C5114 C5113 1.374 . S
C5115 C5112 1.499 1_655 S
C5115 C5116 1.373 1_655 S
C5115 C5117 1.389 . S
C5116 H5089 0.950 . S
C5116 C5102 1.377 1_455 S
C5116 C5115 1.373 1_455 S
C5117 C5101 1.377 . S
C5117 C5115 1.389 . S
C5117 C5118 1.524 . S
C5118 C5117 1.524 . S
C5118 C5119 1.397 . S
C5118 C5123 1.363 . S
C5119 H5090 0.950 . S
C5119 C5118 1.397 . S
C5119 C5120 1.334 . S
C5120 H5091 0.950 . S
C5120 C5119 1.334 . S
C5120 C5121 1.287 . S
C5121 C5120 1.287 . S
C5121 C5122 1.524 . S
C5121 H5124 0.999 . S
C5122 H5092 0.950 . S
C5122 C5121 1.524 . S
C5122 C5123 1.415 . S
C5123 H5093 0.950 . S
C5123 C5118 1.363 . S
C5123 C5122 1.415 . S
H5124 C5121 0.999 . S
H5125 C5106 0.913 . S
H5126 C5144 0.951 . S
H5127 C5146 0.951 . S
H5128 C5148 0.950 . S
H5129 C5149 0.950 . S
H5130 C5151 0.950 . S
H5131 C5154 0.950 . S
H5132 C5155 0.950 . S
H5133 C5157 0.950 . S
H5134 C5158 0.950 . S
H5135 C5159 0.951 . S
H5136 C5161 0.951 . S
H5137 C5163 0.950 . S
H5138 C5164 0.950 . S
H5139 C5166 0.950 . S
H5140 C5169 0.950 . S
H5141 C5170 0.950 . S
H5142 C5172 0.950 . S
H5143 C5173 0.950 . S
C5144 H5126 0.951 . S
C5144 C5145 1.366 . S
C5144 C5146 1.388 . S
C5145 C5144 1.366 . S
C5145 C5149 1.385 . S
C5146 H5127 0.951 . S
C5146 C5144 1.388 . S
C5146 C5147 1.366 . S
C5147 C5146 1.366 . S
C5147 C5148 1.414 . S
C5147 C5150 1.499 . S
C5148 H5128 0.950 . S
C5148 C5147 1.414 . S
C5148 C5149 1.374 . S
C5149 H5129 0.950 . S
C5149 C5145 1.385 . S
C5149 C5148 1.374 . S
C5150 C5147 1.499 . S
C5150 C5151 1.373 . S
C5150 C5152 1.389 . S
C5151 H5130 0.950 . S
C5151 C5150 1.373 . S
C5151 C5167 1.377 . S
C5152 C5150 1.389 . S
C5152 C5153 1.524 . S
C5152 C5166 1.377 . S
C5153 C5152 1.524 . S
C5153 C5154 1.397 . S
C5153 C5158 1.363 . S
C5154 H5131 0.950 . S
C5154 C5153 1.397 . S
C5154 C5155 1.334 . S
C5155 H5132 0.950 . S
C5155 C5154 1.334 . S
C5155 C5156 1.287 . S
C5156 C5155 1.287 . S
C5156 C5157 1.524 . S
C5156 H5175 0.913 . S
C5157 H5133 0.950 . S
C5157 C5156 1.524 . S
C5157 C5158 1.415 . S
C5158 H5134 0.950 . S
C5158 C5153 1.363 . S
C5158 C5157 1.415 . S
C5159 H5135 0.951 . S
C5159 C5160 1.366 . S
C5159 C5161 1.388 . S
C5160 C5159 1.366 . S
C5160 C5164 1.385 . S
C5161 H5136 0.951 . S
C5161 C5159 1.388 . S
C5161 C5162 1.366 . S
C5162 C5161 1.366 . S
C5162 C5163 1.414 . S
C5162 C5165 1.499 . S
C5163 H5137 0.950 . S
C5163 C5162 1.414 . S
C5163 C5164 1.374 . S
C5164 H5138 0.950 . S
C5164 C5160 1.385 . S
C5164 C5163 1.374 . S
C5165 C5162 1.499 . S
C5165 C5166 1.373 . S
C5165 C5167 1.389 . S
C5166 H5139 0.950 . S
C5166 C5152 1.377 . S
C5166 C5165 1.373 . S
C5167 C5151 1.377 . S
C5167 C5165 1.389 . S
C5167 C5168 1.524 . S
C5168 C5167 1.524 . S
C5168 C5169 1.397 . S
C5168 C5173 1.363 . S
C5169 H5140 0.950 . S
C5169 C5168 1.397 . S
C5169 C5170 1.334 . S
C5170 H5141 0.950 . S
C5170 C5169 1.334 . S
C5170 C5171 1.287 . S
C5171 C5170 1.287 . S
C5171 C5172 1.524 . S
C5171 H5174 0.999 . S
C5172 H5142 0.950 . S
C5172 C5171 1.524 . S
C5172 C5173 1.415 . S
C5173 H5143 0.950 . S
C5173 C5168 1.363 . S
C5173 C5172 1.415 . S
H5174 C5171 0.999 . S
H5175 C5156 0.913 . S
H5176 C5194 0.951 . S
H5177 C5196 0.951 . S
H5178 C5198 0.950 . S
H5179 C5199 0.950 . S
H5180 C5201 0.950 . S
H5181 C5204 0.950 . S
H5182 C5205 0.950 . S
H5183 C5207 0.950 . S
H5184 C5208 0.950 . S
H5185 C5209 0.951 . S
H5186 C5211 0.951 . S
H5187 C5213 0.950 . S
H5188 C5214 0.950 . S
H5189 C5216 0.950 . S
H5190 C5219 0.950 . S
H5191 C5220 0.950 . S
H5192 C5222 0.950 . S
H5193 C5223 0.950 . S
C5194 H5176 0.951 . S
C5194 C5195 1.366 . S
C5194 C5196 1.388 . S
C5195 C5194 1.366 . S
C5195 C5199 1.385 . S
C5196 H5177 0.951 . S
C5196 C5194 1.388 . S
C5196 C5197 1.366 . S
C5197 C5196 1.366 . S
C5197 C5198 1.414 . S
C5197 C5200 1.499 . S
C5198 H5178 0.950 . S
C5198 C5197 1.414 . S
C5198 C5199 1.374 . S
C5199 H5179 0.950 . S
C5199 C5195 1.385 . S
C5199 C5198 1.374 . S
C5200 C5197 1.499 . S
C5200 C5201 1.373 . S
C5200 C5202 1.389 . S
C5201 H5180 0.950 . S
C5201 C5200 1.373 . S
C5201 C5217 1.377 . S
C5202 C5200 1.389 . S
C5202 C5203 1.524 . S
C5202 C5216 1.377 . S
C5203 C5202 1.524 . S
C5203 C5204 1.397 . S
C5203 C5208 1.363 . S
C5204 H5181 0.950 . S
C5204 C5203 1.397 . S
C5204 C5205 1.334 . S
C5205 H5182 0.950 . S
C5205 C5204 1.334 . S
C5205 C5206 1.287 . S
C5206 C5205 1.287 . S
C5206 C5207 1.524 . S
C5206 H5225 0.913 . S
C5207 H5183 0.950 . S
C5207 C5206 1.524 . S
C5207 C5208 1.415 . S
C5208 H5184 0.950 . S
C5208 C5203 1.363 . S
C5208 C5207 1.415 . S
C5209 H5185 0.951 . S
C5209 C5210 1.366 . S
C5209 C5211 1.388 . S
C5210 C5209 1.366 . S
C5210 C5214 1.385 . S
C5211 H5186 0.951 . S
C5211 C5209 1.388 . S
C5211 C5212 1.366 . S
C5212 C5211 1.366 . S
C5212 C5213 1.414 . S
C5212 C5215 1.499 . S
C5213 H5187 0.950 . S
C5213 C5212 1.414 . S
C5213 C5214 1.374 . S
C5214 H5188 0.950 . S
C5214 C5210 1.385 . S
C5214 C5213 1.374 . S
C5215 C5212 1.499 . S
C5215 C5216 1.373 . S
C5215 C5217 1.389 . S
C5216 H5189 0.950 . S
C5216 C5202 1.377 . S
C5216 C5215 1.373 . S
C5217 C5201 1.377 . S
C5217 C5215 1.389 . S
C5217 C5218 1.524 . S
C5218 C5217 1.524 . S
C5218 C5219 1.397 . S
C5218 C5223 1.363 . S
C5219 H5190 0.950 . S
C5219 C5218 1.397 . S
C5219 C5220 1.334 . S
C5220 H5191 0.950 . S
C5220 C5219 1.334 . S
C5220 C5221 1.287 . S
C5221 C5220 1.287 . S
C5221 C5222 1.524 . S
C5221 H5224 0.999 . S
C5222 H5192 0.950 . S
C5222 C5221 1.524 . S
C5222 C5223 1.415 . S
C5223 H5193 0.950 . S
C5223 C5218 1.363 . S
C5223 C5222 1.415 . S
H5224 C5221 0.999 . S
H5225 C5206 0.913 . S
H5226 C5244 0.951 . S
H5227 C5246 0.951 . S
H5228 C5248 0.950 . S
H5229 C5249 0.950 . S
H5230 C5251 0.950 . S
H5231 C5254 0.950 . S
H5232 C5255 0.950 . S
H5233 C5257 0.950 . S
H5234 C5258 0.950 . S
H5235 C5259 0.951 . S
H5236 C5261 0.951 . S
H5237 C5263 0.950 . S
H5238 C5264 0.950 . S
H5239 C5266 0.950 . S
H5240 C5269 0.950 . S
H5241 C5270 0.950 . S
H5242 C5272 0.950 . S
H5243 C5273 0.950 . S
C5244 H5226 0.951 . S
C5244 C5245 1.366 . S
C5244 C5246 1.388 . S
C5245 C5244 1.366 . S
C5245 C5249 1.385 . S
C5246 H5227 0.951 . S
C5246 C5244 1.388 . S
C5246 C5247 1.366 . S
C5247 C5246 1.366 . S
C5247 C5248 1.414 . S
C5247 C5250 1.499 . S
C5248 H5228 0.950 . S
C5248 C5247 1.414 . S
C5248 C5249 1.374 . S
C5249 H5229 0.950 . S
C5249 C5245 1.385 . S
C5249 C5248 1.374 . S
C5250 C5247 1.499 . S
C5250 C5251 1.373 . S
C5250 C5252 1.389 . S
C5251 H5230 0.950 . S
C5251 C5250 1.373 . S
C5251 C5267 1.377 . S
C5252 C5250 1.389 . S
C5252 C5253 1.524 . S
C5252 C5266 1.377 . S
C5253 C5252 1.524 . S
C5253 C5254 1.397 . S
C5253 C5258 1.363 . S
C5254 H5231 0.950 . S
C5254 C5253 1.397 . S
C5254 C5255 1.334 . S
C5255 H5232 0.950 . S
C5255 C5254 1.334 . S
C5255 C5256 1.287 . S
C5256 C5255 1.287 . S
C5256 C5257 1.524 . S
C5256 H5275 0.913 . S
C5257 H5233 0.950 . S
C5257 C5256 1.524 . S
C5257 C5258 1.415 . S
C5258 H5234 0.950 . S
C5258 C5253 1.363 . S
C5258 C5257 1.415 . S
C5259 H5235 0.951 . S
C5259 C5260 1.366 . S
C5259 C5261 1.388 . S
C5260 C5259 1.366 . S
C5260 C5264 1.385 . S
C5261 H5236 0.951 . S
C5261 C5259 1.388 . S
C5261 C5262 1.366 . S
C5262 C5261 1.366 . S
C5262 C5263 1.414 . S
C5262 C5265 1.499 . S
C5263 H5237 0.950 . S
C5263 C5262 1.414 . S
C5263 C5264 1.374 . S
C5264 H5238 0.950 . S
C5264 C5260 1.385 . S
C5264 C5263 1.374 . S
C5265 C5262 1.499 . S
C5265 C5266 1.373 . S
C5265 C5267 1.389 . S
C5266 H5239 0.950 . S
C5266 C5252 1.377 . S
C5266 C5265 1.373 . S
C5267 C5251 1.377 . S
C5267 C5265 1.389 . S
C5267 C5268 1.524 . S
C5268 C5267 1.524 . S
C5268 C5269 1.397 . S
C5268 C5273 1.363 . S
C5269 H5240 0.950 . S
C5269 C5268 1.397 . S
C5269 C5270 1.334 . S
C5270 H5241 0.950 . S
C5270 C5269 1.334 . S
C5270 C5271 1.287 . S
C5271 C5270 1.287 . S
C5271 C5272 1.524 . S
C5271 H5274 0.999 . S
C5272 H5242 0.950 . S
C5272 C5271 1.524 . S
C5272 C5273 1.415 . S
C5273 H5243 0.950 . S
C5273 C5268 1.363 . S
C5273 C5272 1.415 . S
H5274 C5271 0.999 . S
H5275 C5256 0.913 . S
H5276 C5294 0.951 . S
H5277 C5296 0.951 . S
H5278 C5298 0.950 . S
H5279 C5299 0.950 . S
H5280 C5301 0.950 . S
H5281 C5304 0.950 . S
H5282 C5305 0.950 . S
H5283 C5307 0.950 . S
H5284 C5308 0.950 . S
H5285 C5309 0.951 . S
H5286 C5311 0.951 1_455 S
H5287 C5313 0.950 . S
H5288 C5314 0.950 . S
H5289 C5316 0.950 . S
H5290 C5319 0.950 . S
H5291 C5320 0.950 . S
H5292 C5322 0.950 . S
H5293 C5323 0.950 . S
C5294 H5276 0.951 . S
C5294 C5295 1.366 . S
C5294 C5296 1.388 . S
C5295 C5294 1.366 . S
C5295 C5299 1.385 . S
C5296 H5277 0.951 . S
C5296 C5294 1.388 . S
C5296 C5297 1.366 . S
C5297 C5296 1.366 . S
C5297 C5298 1.414 . S
C5297 C5300 1.499 . S
C5298 H5278 0.950 . S
C5298 C5297 1.414 . S
C5298 C5299 1.374 . S
C5299 H5279 0.950 . S
C5299 C5295 1.385 . S
C5299 C5298 1.374 . S
C5300 C5297 1.499 . S
C5300 C5301 1.373 . S
C5300 C5302 1.389 . S
C5301 H5280 0.950 . S
C5301 C5300 1.373 . S
C5301 C5317 1.377 . S
C5302 C5300 1.389 . S
C5302 C5303 1.524 . S
C5302 C5316 1.377 . S
C5303 C5302 1.524 . S
C5303 C5304 1.397 . S
C5303 C5308 1.363 . S
C5304 H5281 0.950 . S
C5304 C5303 1.397 . S
C5304 C5305 1.334 . S
C5305 H5282 0.950 . S
C5305 C5304 1.334 . S
C5305 C5306 1.287 . S
C5306 C5305 1.287 . S
C5306 C5307 1.524 . S
C5306 H5325 0.913 . S
C5307 H5283 0.950 . S
C5307 C5306 1.524 . S
C5307 C5308 1.415 . S
C5308 H5284 0.950 . S
C5308 C5303 1.363 . S
C5308 C5307 1.415 . S
C5309 H5285 0.951 . S
C5309 C5310 1.366 1_455 S
C5309 C5311 1.388 1_455 S
C5310 C5309 1.366 1_655 S
C5310 C5314 1.385 . S
C5311 H5286 0.951 1_655 S
C5311 C5309 1.388 1_655 S
C5311 C5312 1.366 . S
C5312 C5311 1.366 . S
C5312 C5313 1.414 . S
C5312 C5315 1.499 . S
C5313 H5287 0.950 . S
C5313 C5312 1.414 . S
C5313 C5314 1.374 . S
C5314 H5288 0.950 . S
C5314 C5310 1.385 . S
C5314 C5313 1.374 . S
C5315 C5312 1.499 . S
C5315 C5316 1.373 . S
C5315 C5317 1.389 . S
C5316 H5289 0.950 . S
C5316 C5302 1.377 . S
C5316 C5315 1.373 . S
C5317 C5301 1.377 . S
C5317 C5315 1.389 . S
C5317 C5318 1.524 . S
C5318 C5317 1.524 . S
C5318 C5319 1.397 . S
C5318 C5323 1.363 1_655 S
C5319 H5290 0.950 . S
C5319 C5318 1.397 . S
C5319 C5320 1.334 1_655 S
C5320 H5291 0.950 . S
C5320 C5319 1.334 1_455 S
C5320 C5321 1.287 . S
C5321 C5320 1.287 . S
C5321 C5322 1.524 . S
C5321 H5324 0.999 . S
C5322 H5292 0.950 . S
C5322 C5321 1.524 . S
C5322 C5323 1.415 . S
C5323 H5293 0.950 . S
C5323 C5318 1.363 1_455 S
C5323 C5322 1.415 . S
H5324 C5321 0.999 . S
H5325 C5306 0.913 . S
H5326 C5344 0.951 . S
H5327 C5346 0.951 . S
H5328 C5348 0.950 . S
H5329 C5349 0.950 . S
H5330 C5351 0.950 . S
H5331 C5354 0.950 . S
H5332 C5355 0.950 . S
H5333 C5357 0.950 . S
H5334 C5358 0.950 . S
H5335 C5359 0.951 . S
H5336 C5361 0.951 . S
H5337 C5363 0.950 . S
H5338 C5364 0.950 . S
H5339 C5366 0.950 . S
H5340 C5369 0.950 . S
H5341 C5370 0.950 . S
H5342 C5372 0.950 . S
H5343 C5373 0.950 . S
C5344 H5326 0.951 . S
C5344 C5345 1.366 . S
C5344 C5346 1.388 . S
C5345 C5344 1.366 . S
C5345 C5349 1.385 . S
C5346 H5327 0.951 . S
C5346 C5344 1.388 . S
C5346 C5347 1.366 . S
C5347 C5346 1.366 . S
C5347 C5348 1.414 . S
C5347 C5350 1.499 . S
C5348 H5328 0.950 . S
C5348 C5347 1.414 . S
C5348 C5349 1.374 . S
C5349 H5329 0.950 . S
C5349 C5345 1.385 . S
C5349 C5348 1.374 . S
C5350 C5347 1.499 . S
C5350 C5351 1.373 . S
C5350 C5352 1.389 . S
C5351 H5330 0.950 . S
C5351 C5350 1.373 . S
C5351 C5367 1.377 . S
C5352 C5350 1.389 . S
C5352 C5353 1.524 . S
C5352 C5366 1.377 . S
C5353 C5352 1.524 . S
C5353 C5354 1.397 . S
C5353 C5358 1.363 . S
C5354 H5331 0.950 . S
C5354 C5353 1.397 . S
C5354 C5355 1.334 . S
C5355 H5332 0.950 . S
C5355 C5354 1.334 . S
C5355 C5356 1.287 . S
C5356 C5355 1.287 . S
C5356 C5357 1.524 . S
C5356 H5375 0.913 . S
C5357 H5333 0.950 . S
C5357 C5356 1.524 . S
C5357 C5358 1.415 . S
C5358 H5334 0.950 . S
C5358 C5353 1.363 . S
C5358 C5357 1.415 . S
C5359 H5335 0.951 . S
C5359 C5360 1.366 . S
C5359 C5361 1.388 . S
C5360 C5359 1.366 . S
C5360 C5364 1.385 . S
C5361 H5336 0.951 . S
C5361 C5359 1.388 . S
C5361 C5362 1.366 . S
C5362 C5361 1.366 . S
C5362 C5363 1.414 . S
C5362 C5365 1.499 . S
C5363 H5337 0.950 . S
C5363 C5362 1.414 . S
C5363 C5364 1.374 . S
C5364 H5338 0.950 . S
C5364 C5360 1.385 . S
C5364 C5363 1.374 . S
C5365 C5362 1.499 . S
C5365 C5366 1.373 . S
C5365 C5367 1.389 . S
C5366 H5339 0.950 . S
C5366 C5352 1.377 . S
C5366 C5365 1.373 . S
C5367 C5351 1.377 . S
C5367 C5365 1.389 . S
C5367 C5368 1.524 . S
C5368 C5367 1.524 . S
C5368 C5369 1.397 . S
C5368 C5373 1.363 . S
C5369 H5340 0.950 . S
C5369 C5368 1.397 . S
C5369 C5370 1.334 . S
C5370 H5341 0.950 . S
C5370 C5369 1.334 . S
C5370 C5371 1.287 . S
C5371 C5370 1.287 . S
C5371 C5372 1.524 . S
C5371 H5374 0.999 . S
C5372 H5342 0.950 . S
C5372 C5371 1.524 . S
C5372 C5373 1.415 . S
C5373 H5343 0.950 . S
C5373 C5368 1.363 . S
C5373 C5372 1.415 . S
H5374 C5371 0.999 . S
H5375 C5356 0.913 . S
H5376 C5394 0.951 . S
H5377 C5396 0.951 . S
H5378 C5398 0.950 . S
H5379 C5399 0.950 . S
H5380 C5401 0.950 . S
H5381 C5404 0.950 . S
H5382 C5405 0.950 . S
H5383 C5407 0.950 . S
H5384 C5408 0.950 . S
H5385 C5409 0.951 . S
H5386 C5411 0.951 . S
H5387 C5413 0.950 . S
H5388 C5414 0.950 . S
H5389 C5416 0.950 . S
H5390 C5419 0.950 . S
H5391 C5420 0.950 . S
H5392 C5422 0.950 . S
H5393 C5423 0.950 . S
C5394 H5376 0.951 . S
C5394 C5395 1.366 . S
C5394 C5396 1.388 . S
C5395 C5394 1.366 . S
C5395 C5399 1.385 . S
C5396 H5377 0.951 . S
C5396 C5394 1.388 . S
C5396 C5397 1.366 . S
C5397 C5396 1.366 . S
C5397 C5398 1.414 . S
C5397 C5400 1.499 . S
C5398 H5378 0.950 . S
C5398 C5397 1.414 . S
C5398 C5399 1.374 . S
C5399 H5379 0.950 . S
C5399 C5395 1.385 . S
C5399 C5398 1.374 . S
C5400 C5397 1.499 . S
C5400 C5401 1.373 . S
C5400 C5402 1.389 . S
C5401 H5380 0.950 . S
C5401 C5400 1.373 . S
C5401 C5417 1.377 . S
C5402 C5400 1.389 . S
C5402 C5403 1.524 . S
C5402 C5416 1.377 . S
C5403 C5402 1.524 . S
C5403 C5404 1.397 . S
C5403 C5408 1.363 . S
C5404 H5381 0.950 . S
C5404 C5403 1.397 . S
C5404 C5405 1.334 . S
C5405 H5382 0.950 . S
C5405 C5404 1.334 . S
C5405 C5406 1.287 . S
C5406 C5405 1.287 . S
C5406 C5407 1.524 . S
C5406 H5425 0.913 . S
C5407 H5383 0.950 . S
C5407 C5406 1.524 . S
C5407 C5408 1.415 . S
C5408 H5384 0.950 . S
C5408 C5403 1.363 . S
C5408 C5407 1.415 . S
C5409 H5385 0.951 . S
C5409 C5410 1.366 . S
C5409 C5411 1.388 . S
C5410 C5409 1.366 . S
C5410 C5414 1.385 . S
C5411 H5386 0.951 . S
C5411 C5409 1.388 . S
C5411 C5412 1.366 . S
C5412 C5411 1.366 . S
C5412 C5413 1.414 . S
C5412 C5415 1.499 . S
C5413 H5387 0.950 . S
C5413 C5412 1.414 . S
C5413 C5414 1.374 . S
C5414 H5388 0.950 . S
C5414 C5410 1.385 . S
C5414 C5413 1.374 . S
C5415 C5412 1.499 . S
C5415 C5416 1.373 . S
C5415 C5417 1.389 . S
C5416 H5389 0.950 . S
C5416 C5402 1.377 . S
C5416 C5415 1.373 . S
C5417 C5401 1.377 . S
C5417 C5415 1.389 . S
C5417 C5418 1.524 . S
C5418 C5417 1.524 . S
C5418 C5419 1.397 . S
C5418 C5423 1.363 . S
C5419 H5390 0.950 . S
C5419 C5418 1.397 . S
C5419 C5420 1.334 . S
C5420 H5391 0.950 . S
C5420 C5419 1.334 . S
C5420 C5421 1.287 . S
C5421 C5420 1.287 . S
C5421 C5422 1.524 . S
C5421 H5424 0.999 . S
C5422 H5392 0.950 . S
C5422 C5421 1.524 . S
C5422 C5423 1.415 . S
C5423 H5393 0.950 . S
C5423 C5418 1.363 . S
C5423 C5422 1.415 . S
H5424 C5421 0.999 . S
H5425 C5406 0.913 . S
H5426 C5444 0.951 . S
H5427 C5446 0.951 . S
H5428 C5448 0.950 . S
H5429 C5449 0.950 . S
H5430 C5451 0.950 . S
H5431 C5454 0.950 . S
H5432 C5455 0.950 . S
H5433 C5457 0.950 . S
H5434 C5458 0.950 . S
H5435 C5459 0.951 . S
H5436 C5461 0.963 . S
H5437 C5463 0.950 . S
H5438 C5464 0.950 . S
H5439 C5466 0.950 . S
H5440 C5469 0.950 1_565 S
H5441 C5470 0.950 . S
H5442 C5472 0.950 . S
H5443 C5473 0.950 1_565 S
C5444 H5426 0.951 . S
C5444 C5445 1.366 . S
C5444 C5446 1.388 . S
C5445 C5444 1.366 . S
C5445 C5449 1.385 . S
C5446 H5427 0.951 . S
C5446 C5444 1.388 . S
C5446 C5447 1.366 . S
C5447 C5446 1.366 . S
C5447 C5448 1.414 . S
C5447 C5450 1.499 . S
C5448 H5428 0.950 . S
C5448 C5447 1.414 . S
C5448 C5449 1.374 . S
C5449 H5429 0.950 . S
C5449 C5445 1.385 . S
C5449 C5448 1.374 . S
C5450 C5447 1.499 . S
C5450 C5451 1.373 . S
C5450 C5452 1.389 . S
C5451 H5430 0.950 . S
C5451 C5450 1.373 . S
C5451 C5467 1.377 . S
C5452 C5450 1.389 . S
C5452 C5453 1.524 . S
C5452 C5466 1.377 . S
C5453 C5452 1.524 . S
C5453 C5454 1.397 . S
C5453 C5458 1.363 . S
C5454 H5431 0.950 . S
C5454 C5453 1.397 . S
C5454 C5455 1.334 . S
C5455 H5432 0.950 . S
C5455 C5454 1.334 . S
C5455 C5456 1.287 . S
C5456 C5455 1.287 . S
C5456 C5457 1.524 . S
C5456 H5475 0.913 . S
C5457 H5433 0.950 . S
C5457 C5456 1.524 . S
C5457 C5458 1.415 . S
C5458 H5434 0.950 . S
C5458 C5453 1.363 . S
C5458 C5457 1.415 . S
C5459 H5435 0.951 . S
C5459 C5460 1.366 . S
C5459 C5461 1.388 1_545 S
C5460 C5459 1.366 . S
C5460 C5464 1.385 1_545 S
C5461 H5436 0.963 . S
C5461 C5459 1.388 1_565 S
C5461 C5462 1.366 . S
C5462 C5461 1.366 . S
C5462 C5463 1.414 . S
C5462 C5465 1.499 . S
C5463 H5437 0.950 . S
C5463 C5462 1.414 . S
C5463 C5464 1.374 . S
C5464 H5438 0.950 . S
C5464 C5460 1.385 1_565 S
C5464 C5463 1.374 . S
C5465 C5462 1.499 . S
C5465 C5466 1.373 . S
C5465 C5467 1.389 . S
C5466 H5439 0.950 . S
C5466 C5452 1.377 . S
C5466 C5465 1.373 . S
C5467 C5451 1.377 . S
C5467 C5465 1.389 . S
C5467 C5468 1.524 . S
C5468 C5467 1.524 . S
C5468 C5469 1.397 1_565 S
C5468 C5473 1.363 1_565 S
C5469 H5440 0.950 1_545 S
C5469 C5468 1.397 1_545 S
C5469 C5470 1.334 . S
C5470 H5441 0.950 . S
C5470 C5469 1.334 . S
C5470 C5471 1.287 . S
C5471 C5470 1.287 . S
C5471 C5472 1.524 . S
C5471 H5474 0.999 . S
C5472 H5442 0.950 . S
C5472 C5471 1.524 . S
C5472 C5473 1.415 . S
C5473 H5443 0.950 1_545 S
C5473 C5468 1.363 1_545 S
C5473 C5472 1.415 . S
H5474 C5471 0.999 . S
H5475 C5456 0.913 . S
H5476 C5494 0.951 . S
H5477 C5496 0.951 . S
H5478 C5498 0.950 . S
H5479 C5499 0.950 . S
H5480 C5501 0.950 . S
H5481 C5504 0.950 . S
H5482 C5505 0.950 . S
H5483 C5507 0.950 . S
H5484 C5508 0.950 . S
H5485 C5509 0.951 . S
H5486 C5511 0.951 . S
H5487 C5513 0.950 . S
H5488 C5514 0.950 . S
H5489 C5516 0.950 . S
H5490 C5519 0.950 . S
H5491 C5520 0.950 . S
H5492 C5522 0.950 . S
H5493 C5523 0.950 . S
C5494 H5476 0.951 . S
C5494 C5495 1.366 . S
C5494 C5496 1.388 . S
C5495 C5494 1.366 . S
C5495 C5499 1.385 . S
C5496 H5477 0.951 . S
C5496 C5494 1.388 . S
C5496 C5497 1.366 . S
C5497 C5496 1.366 . S
C5497 C5498 1.414 . S
C5497 C5500 1.499 . S
C5498 H5478 0.950 . S
C5498 C5497 1.414 . S
C5498 C5499 1.374 . S
C5499 H5479 0.950 . S
C5499 C5495 1.385 . S
C5499 C5498 1.374 . S
C5500 C5497 1.499 . S
C5500 C5501 1.373 . S
C5500 C5502 1.389 . S
C5501 H5480 0.950 . S
C5501 C5500 1.373 . S
C5501 C5517 1.377 . S
C5502 C5500 1.389 . S
C5502 C5503 1.524 . S
C5502 C5516 1.377 . S
C5503 C5502 1.524 . S
C5503 C5504 1.397 . S
C5503 C5508 1.363 . S
C5504 H5481 0.950 . S
C5504 C5503 1.397 . S
C5504 C5505 1.334 . S
C5505 H5482 0.950 . S
C5505 C5504 1.334 . S
C5505 C5506 1.287 . S
C5506 C5505 1.287 . S
C5506 C5507 1.524 . S
C5506 H5525 0.913 . S
C5507 H5483 0.950 . S
C5507 C5506 1.524 . S
C5507 C5508 1.415 . S
C5508 H5484 0.950 . S
C5508 C5503 1.363 . S
C5508 C5507 1.415 . S
C5509 H5485 0.951 . S
C5509 C5510 1.366 . S
C5509 C5511 1.388 . S
C5510 C5509 1.366 . S
C5510 C5514 1.385 . S
C5511 H5486 0.951 . S
C5511 C5509 1.388 . S
C5511 C5512 1.366 . S
C5512 C5511 1.366 . S
C5512 C5513 1.414 . S
C5512 C5515 1.499 . S
C5513 H5487 0.950 . S
C5513 C5512 1.414 . S
C5513 C5514 1.374 . S
C5514 H5488 0.950 . S
C5514 C5510 1.385 . S
C5514 C5513 1.374 . S
C5515 C5512 1.499 . S
C5515 C5516 1.373 . S
C5515 C5517 1.389 . S
C5516 H5489 0.950 . S
C5516 C5502 1.377 . S
C5516 C5515 1.373 . S
C5517 C5501 1.377 . S
C5517 C5515 1.389 . S
C5517 C5518 1.524 . S
C5518 C5517 1.524 . S
C5518 C5519 1.397 . S
C5518 C5523 1.363 . S
C5519 H5490 0.950 . S
C5519 C5518 1.397 . S
C5519 C5520 1.334 . S
C5520 H5491 0.950 . S
C5520 C5519 1.334 . S
C5520 C5521 1.287 . S
C5521 C5520 1.287 . S
C5521 C5522 1.524 . S
C5521 H5524 0.999 . S
C5522 H5492 0.950 . S
C5522 C5521 1.524 . S
C5522 C5523 1.415 . S
C5523 H5493 0.950 . S
C5523 C5518 1.363 . S
C5523 C5522 1.415 . S
H5524 C5521 0.999 . S
H5525 C5506 0.913 . S
H5526 C5544 0.951 1_556 S
H5527 C5546 0.941 1_556 S
H5528 C5548 0.950 . S
H5529 C5549 0.950 . S
H5530 C5551 0.950 . S
H5531 C5554 0.950 . S
H5532 C5555 0.950 . S
H5533 C5557 0.950 . S
H5534 C5558 0.950 . S
H5535 C5559 0.951 . S
H5536 C5561 0.951 . S
H5537 C5563 0.950 . S
H5538 C5564 0.950 . S
H5539 C5566 0.950 . S
H5540 C5569 0.950 . S
H5541 C5570 0.950 . S
H5542 C5572 0.942 1_554 S
H5543 C5573 0.950 . S
C5544 H5526 0.951 1_554 S
C5544 C5545 1.366 . S
C5544 C5546 1.388 . S
C5545 C5544 1.366 . S
C5545 C5549 1.385 . S
C5546 H5527 0.941 1_554 S
C5546 C5544 1.388 . S
C5546 C5547 1.366 . S
C5547 C5546 1.366 . S
C5547 C5548 1.414 . S
C5547 C5550 1.499 . S
C5548 H5528 0.950 . S
C5548 C5547 1.414 . S
C5548 C5549 1.374 . S
C5549 H5529 0.950 . S
C5549 C5545 1.385 . S
C5549 C5548 1.374 . S
C5550 C5547 1.499 . S
C5550 C5551 1.373 . S
C5550 C5552 1.389 . S
C5551 H5530 0.950 . S
C5551 C5550 1.373 . S
C5551 C5567 1.377 . S
C5552 C5550 1.389 . S
C5552 C5553 1.524 . S
C5552 C5566 1.377 . S
C5553 C5552 1.524 . S
C5553 C5554 1.397 . S
C5553 C5558 1.363 . S
C5554 H5531 0.950 . S
C5554 C5553 1.397 . S
C5554 C5555 1.334 . S
C5555 H5532 0.950 . S
C5555 C5554 1.334 . S
C5555 C5556 1.287 . S
C5556 C5555 1.287 . S
C5556 C5557 1.524 . S
C5556 H5575 0.913 . S
C5557 H5533 0.950 . S
C5557 C5556 1.524 . S
C5557 C5558 1.415 . S
C5558 H5534 0.950 . S
C5558 C5553 1.363 . S
C5558 C5557 1.415 . S
C5559 H5535 0.951 . S
C5559 C5560 1.366 . S
C5559 C5561 1.388 . S
C5560 C5559 1.366 . S
C5560 C5564 1.385 . S
C5561 H5536 0.951 . S
C5561 C5559 1.388 . S
C5561 C5562 1.366 . S
C5562 C5561 1.366 . S
C5562 C5563 1.414 . S
C5562 C5565 1.499 . S
C5563 H5537 0.950 . S
C5563 C5562 1.414 . S
C5563 C5564 1.374 . S
C5564 H5538 0.950 . S
C5564 C5560 1.385 . S
C5564 C5563 1.374 . S
C5565 C5562 1.499 . S
C5565 C5566 1.373 . S
C5565 C5567 1.389 . S
C5566 H5539 0.950 . S
C5566 C5552 1.377 . S
C5566 C5565 1.373 . S
C5567 C5551 1.377 . S
C5567 C5565 1.389 . S
C5567 C5568 1.524 . S
C5568 C5567 1.524 . S
C5568 C5569 1.397 1_554 S
C5568 C5573 1.363 . S
C5569 H5540 0.950 . S
C5569 C5568 1.397 1_556 S
C5569 C5570 1.334 . S
C5570 H5541 0.950 . S
C5570 C5569 1.334 . S
C5570 C5571 1.287 . S
C5571 C5570 1.287 . S
C5571 C5572 1.538 . S
C5571 H5574 1.031 . S
C5572 H5542 0.942 1_556 S
C5572 C5571 1.538 . S
C5572 C5573 1.410 1_556 S
C5573 H5543 0.950 . S
C5573 C5568 1.363 . S
C5573 C5572 1.410 1_554 S
H5574 C5571 1.031 . S
H5575 C5556 0.913 . S
H5576 C5594 0.951 . S
H5577 C5596 0.951 . S
H5578 C5598 0.950 . S
H5579 C5599 0.950 . S
H5580 C5601 0.950 . S
H5581 C5604 0.950 . S
H5582 C5605 0.950 . S
H5583 C5607 0.950 . S
H5584 C5608 0.950 . S
H5585 C5609 0.951 . S
H5586 C5611 0.951 . S
H5587 C5613 0.950 . S
H5588 C5614 0.950 . S
H5589 C5616 0.950 . S
H5590 C5619 0.950 . S
H5591 C5620 0.950 . S
H5592 C5622 0.950 . S
H5593 C5623 0.950 . S
C5594 H5576 0.951 . S
C5594 C5595 1.366 . S
C5594 C5596 1.388 . S
C5595 C5594 1.366 . S
C5595 C5599 1.385 . S
C5596 H5577 0.951 . S
C5596 C5594 1.388 . S
C5596 C5597 1.366 . S
C5597 C5596 1.366 . S
C5597 C5598 1.414 . S
C5597 C5600 1.499 . S
C5598 H5578 0.950 . S
C5598 C5597 1.414 . S
C5598 C5599 1.374 . S
C5599 H5579 0.950 . S
C5599 C5595 1.385 . S
C5599 C5598 1.374 . S
C5600 C5597 1.499 . S
C5600 C5601 1.373 . S
C5600 C5602 1.389 . S
C5601 H5580 0.950 . S
C5601 C5600 1.373 . S
C5601 C5617 1.377 . S
C5602 C5600 1.389 . S
C5602 C5603 1.524 . S
C5602 C5616 1.377 . S
C5603 C5602 1.524 . S
C5603 C5604 1.397 . S
C5603 C5608 1.363 . S
C5604 H5581 0.950 . S
C5604 C5603 1.397 . S
C5604 C5605 1.334 . S
C5605 H5582 0.950 . S
C5605 C5604 1.334 . S
C5605 C5606 1.287 . S
C5606 C5605 1.287 . S
C5606 C5607 1.524 . S
C5606 H5625 0.913 . S
C5607 H5583 0.950 . S
C5607 C5606 1.524 . S
C5607 C5608 1.415 . S
C5608 H5584 0.950 . S
C5608 C5603 1.363 . S
C5608 C5607 1.415 . S
C5609 H5585 0.951 . S
C5609 C5610 1.366 . S
C5609 C5611 1.388 . S
C5610 C5609 1.366 . S
C5610 C5614 1.385 . S
C5611 H5586 0.951 . S
C5611 C5609 1.388 . S
C5611 C5612 1.366 . S
C5612 C5611 1.366 . S
C5612 C5613 1.414 . S
C5612 C5615 1.499 . S
C5613 H5587 0.950 . S
C5613 C5612 1.414 . S
C5613 C5614 1.374 . S
C5614 H5588 0.950 . S
C5614 C5610 1.385 . S
C5614 C5613 1.374 . S
C5615 C5612 1.499 . S
C5615 C5616 1.373 . S
C5615 C5617 1.389 . S
C5616 H5589 0.950 . S
C5616 C5602 1.377 . S
C5616 C5615 1.373 . S
C5617 C5601 1.377 . S
C5617 C5615 1.389 . S
C5617 C5618 1.524 . S
C5618 C5617 1.524 . S
C5618 C5619 1.397 . S
C5618 C5623 1.363 . S
C5619 H5590 0.950 . S
C5619 C5618 1.397 . S
C5619 C5620 1.334 . S
C5620 H5591 0.950 . S
C5620 C5619 1.334 . S
C5620 C5621 1.287 . S
C5621 C5620 1.287 . S
C5621 C5622 1.524 . S
C5621 H5624 0.999 . S
C5622 H5592 0.950 . S
C5622 C5621 1.524 . S
C5622 C5623 1.415 . S
C5623 H5593 0.950 . S
C5623 C5618 1.363 . S
C5623 C5622 1.415 . S
H5624 C5621 0.999 . S
H5625 C5606 0.913 . S
H5626 C5644 0.951 . S
H5627 C5646 0.951 . S
H5628 C5648 0.950 . S
H5629 C5649 0.950 . S
H5630 C5651 0.950 . S
H5631 C5654 0.950 . S
H5632 C5655 0.950 . S
H5633 C5657 0.950 . S
H5634 C5658 0.950 . S
H5635 C5659 0.951 . S
H5636 C5661 0.951 . S
H5637 C5663 0.950 . S
H5638 C5664 0.950 . S
H5639 C5666 0.950 1_556 S
H5640 C5669 0.950 . S
H5641 C5670 0.950 . S
H5642 C5672 0.950 . S
H5643 C5673 0.950 . S
C5644 H5626 0.951 . S
C5644 C5645 1.366 . S
C5644 C5646 1.388 . S
C5645 C5644 1.366 . S
C5645 C5649 1.385 . S
C5646 H5627 0.951 . S
C5646 C5644 1.388 . S
C5646 C5647 1.366 . S
C5647 C5646 1.366 . S
C5647 C5648 1.414 . S
C5647 C5650 1.499 . S
C5648 H5628 0.950 . S
C5648 C5647 1.414 . S
C5648 C5649 1.374 . S
C5649 H5629 0.950 . S
C5649 C5645 1.385 . S
C5649 C5648 1.374 . S
C5650 C5647 1.499 . S
C5650 C5651 1.373 . S
C5650 C5652 1.389 . S
C5651 H5630 0.950 . S
C5651 C5650 1.373 . S
C5651 C5667 1.377 . S
C5652 C5650 1.389 . S
C5652 C5653 1.524 1_554 S
C5652 C5666 1.377 . S
C5653 C5652 1.524 1_556 S
C5653 C5654 1.397 . S
C5653 C5658 1.363 . S
C5654 H5631 0.950 . S
C5654 C5653 1.397 . S
C5654 C5655 1.334 . S
C5655 H5632 0.950 . S
C5655 C5654 1.334 . S
C5655 C5656 1.287 . S
C5656 C5655 1.287 . S
C5656 C5657 1.524 . S
C5656 H5675 0.913 . S
C5657 H5633 0.950 . S
C5657 C5656 1.524 . S
C5657 C5658 1.415 . S
C5658 H5634 0.950 . S
C5658 C5653 1.363 . S
C5658 C5657 1.415 . S
C5659 H5635 0.951 . S
C5659 C5660 1.366 . S
C5659 C5661 1.388 . S
C5660 C5659 1.366 . S
C5660 C5664 1.385 . S
C5661 H5636 0.951 . S
C5661 C5659 1.388 . S
C5661 C5662 1.366 . S
C5662 C5661 1.366 . S
C5662 C5663 1.414 . S
C5662 C5665 1.499 . S
C5663 H5637 0.950 . S
C5663 C5662 1.414 . S
C5663 C5664 1.374 . S
C5664 H5638 0.950 . S
C5664 C5660 1.385 . S
C5664 C5663 1.374 . S
C5665 C5662 1.499 . S
C5665 C5666 1.373 . S
C5665 C5667 1.389 . S
C5666 H5639 0.950 1_554 S
C5666 C5652 1.377 . S
C5666 C5665 1.373 . S
C5667 C5651 1.377 . S
C5667 C5665 1.389 . S
C5667 C5668 1.524 . S
C5668 C5667 1.524 . S
C5668 C5669 1.397 . S
C5668 C5673 1.363 . S
C5669 H5640 0.950 . S
C5669 C5668 1.397 . S
C5669 C5670 1.334 . S
C5670 H5641 0.950 . S
C5670 C5669 1.334 . S
C5670 C5671 1.287 . S
C5671 C5670 1.287 . S
C5671 C5672 1.524 . S
C5671 H5674 0.999 . S
C5672 H5642 0.950 . S
C5672 C5671 1.524 . S
C5672 C5673 1.415 . S
C5673 H5643 0.950 . S
C5673 C5668 1.363 . S
C5673 C5672 1.415 . S
H5674 C5671 0.999 . S
H5675 C5656 0.913 . S
H5676 C5694 0.951 . S
H5677 C5696 0.951 . S
H5678 C5698 0.950 . S
H5679 C5699 0.950 . S
H5680 C5701 0.950 . S
H5681 C5704 0.950 . S
H5682 C5705 0.950 . S
H5683 C5707 0.950 . S
H5684 C5708 0.950 . S
H5685 C5709 0.951 . S
H5686 C5711 0.951 . S
H5687 C5713 0.950 . S
H5688 C5714 0.950 . S
H5689 C5716 0.950 . S
H5690 C5719 0.950 . S
H5691 C5720 0.950 . S
H5692 C5722 0.950 . S
H5693 C5723 0.950 . S
C5694 H5676 0.951 . S
C5694 C5695 1.366 . S
C5694 C5696 1.388 . S
C5695 C5694 1.366 . S
C5695 C5699 1.385 . S
C5696 H5677 0.951 . S
C5696 C5694 1.388 . S
C5696 C5697 1.366 . S
C5697 C5696 1.366 . S
C5697 C5698 1.414 . S
C5697 C5700 1.499 . S
C5698 H5678 0.950 . S
C5698 C5697 1.414 . S
C5698 C5699 1.374 . S
C5699 H5679 0.950 . S
C5699 C5695 1.385 . S
C5699 C5698 1.374 . S
C5700 C5697 1.499 . S
C5700 C5701 1.373 . S
C5700 C5702 1.389 . S
C5701 H5680 0.950 . S
C5701 C5700 1.373 . S
C5701 C5717 1.377 . S
C5702 C5700 1.389 . S
C5702 C5703 1.524 . S
C5702 C5716 1.377 . S
C5703 C5702 1.524 . S
C5703 C5704 1.397 . S
C5703 C5708 1.363 . S
C5704 H5681 0.950 . S
C5704 C5703 1.397 . S
C5704 C5705 1.334 . S
C5705 H5682 0.950 . S
C5705 C5704 1.334 . S
C5705 C5706 1.287 . S
C5706 C5705 1.287 . S
C5706 C5707 1.524 . S
C5706 H5725 0.913 . S
C5707 H5683 0.950 . S
C5707 C5706 1.524 . S
C5707 C5708 1.415 . S
C5708 H5684 0.950 . S
C5708 C5703 1.363 . S
C5708 C5707 1.415 . S
C5709 H5685 0.951 . S
C5709 C5710 1.366 . S
C5709 C5711 1.388 . S
C5710 C5709 1.366 . S
C5710 C5714 1.385 . S
C5711 H5686 0.951 . S
C5711 C5709 1.388 . S
C5711 C5712 1.366 . S
C5712 C5711 1.366 . S
C5712 C5713 1.414 . S
C5712 C5715 1.499 . S
C5713 H5687 0.950 . S
C5713 C5712 1.414 . S
C5713 C5714 1.374 . S
C5714 H5688 0.950 . S
C5714 C5710 1.385 . S
C5714 C5713 1.374 . S
C5715 C5712 1.499 . S
C5715 C5716 1.373 . S
C5715 C5717 1.389 . S
C5716 H5689 0.950 . S
C5716 C5702 1.377 . S
C5716 C5715 1.373 . S
C5717 C5701 1.377 . S
C5717 C5715 1.389 . S
C5717 C5718 1.524 . S
C5718 C5717 1.524 . S
C5718 C5719 1.397 . S
C5718 C5723 1.363 . S
C5719 H5690 0.950 . S
C5719 C5718 1.397 . S
C5719 C5720 1.334 . S
C5720 H5691 0.950 . S
C5720 C5719 1.334 . S
C5720 C5721 1.287 . S
C5721 C5720 1.287 . S
C5721 C5722 1.524 . S
C5721 H5724 0.999 . S
C5722 H5692 0.950 . S
C5722 C5721 1.524 . S
C5722 C5723 1.415 . S
C5723 H5693 0.950 . S
C5723 C5718 1.363 . S
C5723 C5722 1.415 . S
H5724 C5721 0.999 . S
H5725 C5706 0.913 . S
H5726 C5744 0.951 . S
H5727 C5746 0.951 . S
H5728 C5748 0.950 . S
H5729 C5749 0.950 . S
H5730 C5751 0.950 . S
H5731 C5754 0.950 . S
H5732 C5755 0.950 . S
H5733 C5757 0.950 . S
H5734 C5758 0.950 . S
H5735 C5759 0.951 . S
H5736 C5761 0.951 . S
H5737 C5763 0.950 . S
H5738 C5764 0.950 . S
H5739 C5766 0.950 . S
H5740 C5769 0.950 . S
H5741 C5770 0.950 . S
H5742 C5772 0.950 . S
H5743 C5773 0.950 . S
C5744 H5726 0.951 . S
C5744 C5745 1.366 . S
C5744 C5746 1.388 . S
C5745 C5744 1.366 . S
C5745 C5749 1.385 . S
C5746 H5727 0.951 . S
C5746 C5744 1.388 . S
C5746 C5747 1.366 . S
C5747 C5746 1.366 . S
C5747 C5748 1.414 . S
C5747 C5750 1.499 . S
C5748 H5728 0.950 . S
C5748 C5747 1.414 . S
C5748 C5749 1.374 . S
C5749 H5729 0.950 . S
C5749 C5745 1.385 . S
C5749 C5748 1.374 . S
C5750 C5747 1.499 . S
C5750 C5751 1.373 . S
C5750 C5752 1.389 . S
C5751 H5730 0.950 . S
C5751 C5750 1.373 . S
C5751 C5767 1.377 . S
C5752 C5750 1.389 . S
C5752 C5753 1.524 . S
C5752 C5766 1.377 . S
C5753 C5752 1.524 . S
C5753 C5754 1.397 . S
C5753 C5758 1.363 . S
C5754 H5731 0.950 . S
C5754 C5753 1.397 . S
C5754 C5755 1.334 . S
C5755 H5732 0.950 . S
C5755 C5754 1.334 . S
C5755 C5756 1.287 . S
C5756 C5755 1.287 . S
C5756 C5757 1.524 . S
C5756 H5775 0.913 . S
C5757 H5733 0.950 . S
C5757 C5756 1.524 . S
C5757 C5758 1.415 . S
C5758 H5734 0.950 . S
C5758 C5753 1.363 . S
C5758 C5757 1.415 . S
C5759 H5735 0.951 . S
C5759 C5760 1.366 . S
C5759 C5761 1.388 . S
C5760 C5759 1.366 . S
C5760 C5764 1.385 . S
C5761 H5736 0.951 . S
C5761 C5759 1.388 . S
C5761 C5762 1.366 . S
C5762 C5761 1.366 . S
C5762 C5763 1.414 . S
C5762 C5765 1.499 . S
C5763 H5737 0.950 . S
C5763 C5762 1.414 . S
C5763 C5764 1.374 . S
C5764 H5738 0.950 . S
C5764 C5760 1.385 . S
C5764 C5763 1.374 . S
C5765 C5762 1.499 . S
C5765 C5766 1.373 . S
C5765 C5767 1.389 . S
C5766 H5739 0.950 . S
C5766 C5752 1.377 . S
C5766 C5765 1.373 . S
C5767 C5751 1.377 . S
C5767 C5765 1.389 . S
C5767 C5768 1.524 . S
C5768 C5767 1.524 . S
C5768 C5769 1.397 . S
C5768 C5773 1.363 . S
C5769 H5740 0.950 . S
C5769 C5768 1.397 . S
C5769 C5770 1.334 . S
C5770 H5741 0.950 . S
C5770 C5769 1.334 . S
C5770 C5771 1.287 . S
C5771 C5770 1.287 . S
C5771 C5772 1.524 . S
C5771 H5774 0.999 . S
C5772 H5742 0.950 . S
C5772 C5771 1.524 . S
C5772 C5773 1.415 . S
C5773 H5743 0.950 . S
C5773 C5768 1.363 . S
C5773 C5772 1.415 . S
H5774 C5771 0.999 . S
H5775 C5756 0.913 . S
C995 C106 2.561 . S
C1010 C346 2.534 . S
C1045 C65 2.004 . S
C1060 C394 1.993 . S
C1095 C79 1.445 . S
C1110 C426 1.400 . S
C1160 C471 1.144 . S
C1145 C90 1.129 . S
C1195 C21 0.947 . S
C1210 C511 0.958 . S
C1260 C542 0.381 . S
C1245 C35 0.435 . S
C1310 C594 1.161 . S
C1295 C50 1.168 . S
C1345 C6 1.757 . S
C1360 C626 1.744 . S
C1410 C354 2.661 . S
C1395 C232 2.663 . S
C1445 C245 0.453 . S
C1460 C391 0.376 . S
C1510 C434 1.381 . S
C1495 C274 1.387 . S
C1560 C466 1.166 . S
C1545 C175 1.177 . S
C1595 C231 1.497 . S
C1610 C506 1.507 . S
C1660 C545 1.393 . S
C1645 C246 1.415 . S
C1710 C591 0.290 . S
C1695 C273 0.380 . S
C1760 C634 2.163 . S
C1745 C176 2.152 . S
C1810 C351 1.436 . S
C1795 C160 1.430 . S
C1845 C289 1.967 . S
C1860 C674 1.961 . S
C1910 C715 2.666 . S
C1895 C328 2.662 . S
C1960 C746 0.753 1_655 S
C1945 C317 0.754 . S
C1995 C118 1.359 . S
C2010 C631 1.392 . S
C2045 C132 1.531 . S
C2060 C431 1.564 . S
C2095 C331 2.379 . S
C2110 C794 2.360 . S
C2160 C826 0.719 . S
C2145 C303 0.713 . S
C2210 C355 2.060 1_565 S
C2195 C63 2.088 . S
C2260 C825 2.494 . S
C2245 C107 2.460 . S
C2295 C92 1.203 . S
C2310 C435 1.192 . S
C2345 C78 1.718 . S
C2360 C782 1.721 . S
C2410 C502 1.436 . S
C2395 C8 1.464 . S
C2445 C51 0.502 . S
C2460 C711 0.500 . S
C2510 C585 1.670 1_566 S
C2495 C37 1.613 . S
C2560 C875 1.603 . S
C2545 C20 1.640 . S
C2610 C345 2.477 . S
C2595 C147 2.442 . S
C2660 C822 0.464 . S
C2645 C316 0.416 . S
C2695 C119 1.274 . S
C2710 C425 1.301 . S
C2745 C288 1.328 . S
C2760 C795 1.324 . S
C2795 C148 1.945 1_545 S
C2810 C515 1.926 . S
C2860 C714 1.398 . S
C2845 C315 1.383 . S
C2895 C120 0.298 . S
C2910 C582 0.359 . S
C2945 C287 2.003 . S
C2960 C865 2.009 . S
C2995 C188 1.299 . S
C3010 C342 1.287 . S
C3045 C177 2.329 . S
C3060 C665 2.342 . S
C3095 C258 2.773 . S
C3110 C546 2.793 . S
C3145 C247 0.783 . S
C3160 C755 0.784 . S
C3210 C862 1.150 . S
C3195 C272 1.145 . S
C3245 C216 1.311 . S
C3260 C422 1.330 . S
C3310 C465 2.620 . S
C3295 C261 2.621 . S
C3360 C395 0.688 . S
C3345 C205 0.680 . S
C3395 C76 2.144 . S
C3410 C906 2.137 . S
C3460 C834 2.101 . S
C3445 C93 2.111 . S
C3495 C105 1.000 . S
C3510 C946 0.982 . S
C3545 C62 1.159 . S
C3560 C791 1.178 . S
C3595 C49 0.938 . S
C3610 C671 0.946 . S
C3660 C702 0.732 . S
C3645 C9 0.731 . S
C3710 C754 1.062 . S
C3695 C22 1.066 . S
C3760 C866 2.116 . S
C3745 C36 2.180 . S
C3810 C914 2.586 . S
C3795 C260 2.588 . S
C3845 C189 0.412 . S
C3860 C831 0.320 . S
C3910 C954 1.251 . S
C3895 C204 1.255 . S
C3960 C786 0.980 . S
C3945 C217 0.991 . S
C4010 C666 1.808 . S
C3995 C259 1.789 . S
C4045 C190 1.528 . S
C4060 C705 1.509 . S
C4110 C751 0.295 . S
C4095 C203 0.381 . S
C4145 C218 2.255 . S
C4160 C874 2.266 . S
C4210 C911 1.407 . S
C4195 C314 1.399 . S
C4245 C135 2.060 . S
C4260 C514 2.050 . S
C4310 C555 2.538 . S
C4295 C146 2.534 . S
C4360 C586 0.776 . S
C4345 C163 0.778 . S
C4410 C871 1.407 . S
C4395 C300 1.374 . S
C4445 C286 1.478 . S
C4460 C951 1.516 . S
C4510 C474 2.259 . S
C4495 C149 2.269 . S
C4560 C386 0.680 . S
C4545 C121 0.659 . S
C4595 C91 2.070 . S
C4610 C915 2.049 . S
C4660 C385 2.071 . S
C4645 C77 1.983 . S
C4695 C64 1.170 . S
C4710 C955 1.169 . S
C4745 C104 1.335 . S
C4760 C462 1.363 . S
C4795 C34 1.043 . S
C4810 C662 1.053 . S
C4860 C551 0.457 . S
C4845 C23 0.471 . S
C4895 C7 1.169 . S
C4910 C745 1.245 . S
C4945 C48 1.617 . S
C4960 C635 1.593 . S
C5010 C905 2.439 . S
C4995 C329 2.410 . S
C5045 C162 0.429 . S
C5060 C382 0.466 . S
C5110 C945 1.275 1_556 S
C5095 C301 1.285 . S
C5145 C134 1.343 . S
C5160 C475 1.339 . S
C5195 C330 1.926 . S
C5210 C675 1.891 . S
C5260 C554 1.418 . S
C5245 C161 1.410 . S
C5295 C302 0.303 . S
C5310 C742 0.344 . S
C5360 C625 1.980 . S
C5345 C133 1.979 . S
C5410 C902 1.486 . S
C5395 C244 1.496 . S
C5460 C505 2.274 1_655 S
C5445 C219 2.252 . S
C5495 C230 2.405 . S
C5510 C706 2.414 . S
C5560 C595 0.772 . S
C5545 C191 0.774 . S
C5595 C202 1.325 . S
C5610 C622 1.333 . S
C5645 C174 1.542 . S
C5660 C942 1.570 . S
C5710 C785 2.589 . S
C5695 C233 2.581 1_565 S
C5760 C835 0.687 . S
C5745 C275 0.674 . S
