# Generated by pormake.
# Topology wbl, (4,4)-cn, num edge types: 1
# Building blocks:
#     Node 0, Type 0, BuildingBlock: MUDLON_clean_sbu_0, # of connection points: 4
#     Node 1, Type 0, BuildingBlock: MUDLON_clean_sbu_0, # of connection points: 4
#     Node 2, Type 0, BuildingBlock: MUDLON_clean_sbu_0, # of connection points: 4
#     Node 3, Type 0, BuildingBlock: MUDLON_clean_sbu_0, # of connection points: 4
#     Node 4, Type 0, BuildingBlock: MUDLON_clean_sbu_0, # of connection points: 4
#     Node 5, Type 0, BuildingBlock: MUDLON_clean_sbu_0, # of connection points: 4
#     Node 6, Type 0, BuildingBlock: MUDLON_clean_sbu_0, # of connection points: 4
#     Node 7, Type 0, BuildingBlock: MUDLON_clean_sbu_0, # of connection points: 4
#     Node 8, Type 1, BuildingBlock: CEKHIL_clean_sbu_0, # of connection points: 4
#     Node 9, Type 1, BuildingBlock: CEKHIL_clean_sbu_0, # of connection points: 4
#     Node 10, Type 1, BuildingBlock: CEKHIL_clean_sbu_0, # of connection points: 4
#     Node 11, Type 1, BuildingBlock: CEKHIL_clean_sbu_0, # of connection points: 4
#     Node 12, Type 1, BuildingBlock: CEKHIL_clean_sbu_0, # of connection points: 4
#     Node 13, Type 1, BuildingBlock: CEKHIL_clean_sbu_0, # of connection points: 4
#     Node 14, Type 1, BuildingBlock: CEKHIL_clean_sbu_0, # of connection points: 4
#     Node 15, Type 1, BuildingBlock: CEKHIL_clean_sbu_0, # of connection points: 4
#     Edge 16, Type (0, 1), BuildingBlock: ZUJKAS_clean_linker_0, # of connection points: 2
#     Edge 17, Type (0, 1), BuildingBlock: ZUJKAS_clean_linker_0, # of connection points: 2
#     Edge 18, Type (0, 1), BuildingBlock: ZUJKAS_clean_linker_0, # of connection points: 2
#     Edge 19, Type (0, 1), BuildingBlock: ZUJKAS_clean_linker_0, # of connection points: 2
#     Edge 20, Type (0, 1), BuildingBlock: ZUJKAS_clean_linker_0, # of connection points: 2
#     Edge 21, Type (0, 1), BuildingBlock: ZUJKAS_clean_linker_0, # of connection points: 2
#     Edge 22, Type (0, 1), BuildingBlock: ZUJKAS_clean_linker_0, # of connection points: 2
#     Edge 23, Type (0, 1), BuildingBlock: ZUJKAS_clean_linker_0, # of connection points: 2
#     Edge 24, Type (0, 1), BuildingBlock: ZUJKAS_clean_linker_0, # of connection points: 2
#     Edge 25, Type (0, 1), BuildingBlock: ZUJKAS_clean_linker_0, # of connection points: 2
#     Edge 26, Type (0, 1), BuildingBlock: ZUJKAS_clean_linker_0, # of connection points: 2
#     Edge 27, Type (0, 1), BuildingBlock: ZUJKAS_clean_linker_0, # of connection points: 2
#     Edge 28, Type (0, 1), BuildingBlock: ZUJKAS_clean_linker_0, # of connection points: 2
#     Edge 29, Type (0, 1), BuildingBlock: ZUJKAS_clean_linker_0, # of connection points: 2
#     Edge 30, Type (0, 1), BuildingBlock: ZUJKAS_clean_linker_0, # of connection points: 2
#     Edge 31, Type (0, 1), BuildingBlock: ZUJKAS_clean_linker_0, # of connection points: 2
#     Edge 32, Type (0, 1), BuildingBlock: ZUJKAS_clean_linker_0, # of connection points: 2
#     Edge 33, Type (0, 1), BuildingBlock: ZUJKAS_clean_linker_0, # of connection points: 2
#     Edge 34, Type (0, 1), BuildingBlock: ZUJKAS_clean_linker_0, # of connection points: 2
#     Edge 35, Type (0, 1), BuildingBlock: ZUJKAS_clean_linker_0, # of connection points: 2
#     Edge 36, Type (0, 1), BuildingBlock: ZUJKAS_clean_linker_0, # of connection points: 2
#     Edge 37, Type (0, 1), BuildingBlock: ZUJKAS_clean_linker_0, # of connection points: 2
#     Edge 38, Type (0, 1), BuildingBlock: ZUJKAS_clean_linker_0, # of connection points: 2
#     Edge 39, Type (0, 1), BuildingBlock: ZUJKAS_clean_linker_0, # of connection points: 2
#     Edge 40, Type (0, 1), BuildingBlock: ZUJKAS_clean_linker_0, # of connection points: 2
#     Edge 41, Type (0, 1), BuildingBlock: ZUJKAS_clean_linker_0, # of connection points: 2
#     Edge 42, Type (0, 1), BuildingBlock: ZUJKAS_clean_linker_0, # of connection points: 2
#     Edge 43, Type (0, 1), BuildingBlock: ZUJKAS_clean_linker_0, # of connection points: 2
#     Edge 44, Type (0, 1), BuildingBlock: ZUJKAS_clean_linker_0, # of connection points: 2
#     Edge 45, Type (0, 1), BuildingBlock: ZUJKAS_clean_linker_0, # of connection points: 2
#     Edge 46, Type (0, 1), BuildingBlock: ZUJKAS_clean_linker_0, # of connection points: 2
#     Edge 47, Type (0, 1), BuildingBlock: ZUJKAS_clean_linker_0, # of connection points: 2
# Relax obj value: 0.232
# Max RMSD: 0.218
# Mean RMSD: 0.171
data_MOF--net-wbl--node1-MUDLON_clean_sbu_0--node2-CEKHIL_clean_sbu_0--edge1-ZUJKAS_clean_linker_0
_symmetry_space_group_name_H-M    P1
_symmetry_Int_Tables_number       1
_symmetry_cell_setting            triclinic
loop_
_symmetry_equiv_pos_as_xyz
'x, y, z'
_cell_length_a     44.53132
_cell_length_b     44.796917
_cell_length_c     97.491791
_cell_angle_alpha  90.235934
_cell_angle_beta   90.096475
_cell_angle_gamma 89.954009
loop_
_atom_site_label
_atom_site_type_symbol
_atom_site_fract_x
_atom_site_fract_y
_atom_site_fract_z
_atom_type_partial_charge
Mg0 Mg 0.01416 0.02835 0.33913 0.0
C1 C 0.02801 0.96659 0.35021 0.0
O2 O 0.04586 0.96574 0.33951 0.0
C3 C 0.97839 0.0601 0.31808 0.0
O4 O 0.00466 0.07321 0.317 0.0
C5 C 0.05729 0.01098 0.31663 0.0
O6 O 0.03289 0.99805 0.31189 0.0
O7 O 0.05576 0.02611 0.32767 0.0
O8 O 0.01017 0.98856 0.35161 0.0
O9 O 0.01583 0.06359 0.35448 0.0
C10 C 0.99231 0.07896 0.35676 0.0
O11 O 0.96856 0.07474 0.34899 0.0
O12 O 0.97591 0.03788 0.32608 0.0
Mg13 Mg 0.15362 0.51298 0.59073 0.0
C14 C 0.21614 0.52622 0.6009 0.0
O15 O 0.21491 0.54557 0.59082 0.0
C16 C 0.14104 0.45025 0.58213 0.0
O17 O 0.15128 0.44614 0.59463 0.0
C18 C 0.16366 0.55948 0.56847 0.0
O19 O 0.16986 0.53586 0.56096 0.0
O20 O 0.15521 0.55608 0.58081 0.0
O21 O 0.19513 0.5072 0.60205 0.0
O22 O 0.12042 0.51386 0.60694 0.0
C23 C 0.09603 0.49917 0.60639 0.0
O24 O 0.08885 0.48498 0.59504 0.0
O25 O 0.14153 0.47644 0.57716 0.0
Mg26 Mg 0.66173 0.64012 0.84003 0.0
C27 C 0.67409 0.68642 0.86205 0.0
O28 O 0.69701 0.66876 0.86449 0.0
C29 C 0.70239 0.61635 0.81812 0.0
O30 O 0.67635 0.6074 0.81327 0.0
C31 C 0.61551 0.66095 0.82025 0.0
O32 O 0.63343 0.68421 0.82085 0.0
O33 O 0.62226 0.63777 0.82709 0.0
O34 O 0.65782 0.68141 0.85157 0.0
O35 O 0.66223 0.60573 0.85571 0.0
C36 C 0.68819 0.59791 0.85983 0.0
O37 O 0.71186 0.60923 0.85376 0.0
O38 O 0.70287 0.63353 0.82853 0.0
Mg39 Mg 0.53247 0.16724 0.0914 0.0
C40 C 0.58515 0.18059 0.11011 0.0
O41 O 0.58793 0.20306 0.10161 0.0
C42 C 0.52487 0.10306 0.08376 0.0
O43 O 0.52491 0.10118 0.09721 0.0
C44 C 0.56795 0.20227 0.07175 0.0
O45 O 0.57877 0.17515 0.07025 0.0
O46 O 0.54579 0.20619 0.07977 0.0
O47 O 0.56512 0.16097 0.10779 0.0
O48 O 0.49011 0.17034 0.10215 0.0
C49 C 0.49 0.18201 0.11405 0.0
O50 O 0.51387 0.19678 0.11816 0.0
O51 O 0.52879 0.12839 0.07823 0.0
Mg52 Mg 0.17533 0.52043 0.92926 0.0
C53 C 0.1533 0.55092 0.90367 0.0
O54 O 0.14032 0.52484 0.90197 0.0
C55 C 0.11284 0.52493 0.94045 0.0
O56 O 0.1094 0.53823 0.92857 0.0
C57 C 0.21786 0.54659 0.95007 0.0
O58 O 0.19264 0.54933 0.95693 0.0
O59 O 0.21766 0.53299 0.93861 0.0
O60 O 0.16745 0.55613 0.91476 0.0
O61 O 0.17709 0.48109 0.9162 0.0
C62 C 0.15586 0.46215 0.91669 0.0
O63 O 0.13667 0.46369 0.92688 0.0
O64 O 0.13884 0.51593 0.94389 0.0
Mg65 Mg 0.65308 0.66101 0.18126 0.0
C66 C 0.5945 0.66818 0.16521 0.0
O67 O 0.58602 0.68307 0.17616 0.0
C68 C 0.64588 0.59753 0.19059 0.0
O69 O 0.63384 0.59545 0.17831 0.0
C70 C 0.62234 0.70064 0.20158 0.0
O71 O 0.61325 0.67424 0.20567 0.0
O72 O 0.64135 0.70207 0.19188 0.0
O73 O 0.61993 0.65527 0.16517 0.0
O74 O 0.69433 0.6627 0.16942 0.0
C75 C 0.71157 0.64004 0.1693 0.0
O76 O 0.70708 0.61882 0.17832 0.0
O77 O 0.65484 0.62285 0.19485 0.0
Mg78 Mg 0.51844 0.13271 0.42943 0.0
C79 C 0.50036 0.17653 0.40787 0.0
O80 O 0.4858 0.15281 0.40352 0.0
C81 C 0.4548 0.12632 0.4401 0.0
O82 O 0.44911 0.14395 0.42967 0.0
C83 C 0.5628 0.15626 0.44967 0.0
O84 O 0.53923 0.17283 0.45252 0.0
O85 O 0.56046 0.13599 0.44056 0.0
O86 O 0.51327 0.17557 0.41949 0.0
O87 O 0.52088 0.10111 0.41243 0.0
C88 C 0.50083 0.08119 0.41074 0.0
O89 O 0.48038 0.07754 0.42027 0.0
O90 O 0.48189 0.1196 0.4428 0.0
Mg91 Mg 0.03709 0.01051 0.67864 0.0
C92 C 0.07352 0.03079 0.65403 0.0
O93 O 0.05134 0.04995 0.65285 0.0
C94 C 0.02107 0.07264 0.68735 0.0
O95 O 0.01295 0.07332 0.67439 0.0
C96 C 0.07211 0.97191 0.69638 0.0
O97 O 0.08684 0.99732 0.69622 0.0
O98 O 0.04714 0.97038 0.69007 0.0
O99 O 0.07447 0.01393 0.66448 0.0
O100 O 0.99789 0.00865 0.66544 0.0
C101 C 0.00103 0.99588 0.65387 0.0
O102 O 0.02534 0.97994 0.65166 0.0
O103 O 0.0327 0.04892 0.69212 0.0
Co104 Co 0.49343 0.7613 0.00868 0.0
O105 O 0.48001 0.72257 0.00303 0.0
O106 O 0.45715 0.76483 0.99766 0.0
C107 C 0.50127 0.7487 0.03075 0.0
O108 O 0.50042 0.80524 0.01348 0.0
Co109 Co 0.55872 0.76865 0.01933 0.0
O110 O 0.54399 0.80839 0.02514 0.0
C111 C 0.54783 0.76292 0.98963 0.0
C112 C 0.45768 0.73577 0.99706 0.0
C113 C 0.51981 0.82004 0.02062 0.0
O114 O 0.51933 0.76436 0.99174 0.0
O115 O 0.56717 0.76208 -0.00065 0.0
O116 O 0.47457 0.7559 0.02654 0.0
O117 O 0.52156 0.74682 0.02133 0.0
Co118 Co 0.39596 0.99329 0.24806 0.0
O119 O 0.36163 0.0146 0.25486 0.0
O120 O 0.36714 0.96551 0.25565 0.0
C121 C 0.39831 0.01804 0.22798 0.0
O122 O 0.4276 0.96337 0.24158 0.0
Co123 Co 0.45569 0.02601 0.24198 0.0
O124 O 0.46692 0.98812 0.23276 0.0
C125 C 0.43856 0.01366 0.27068 0.0
C126 C 0.35061 0.98885 0.2582 0.0
C127 C 0.45279 0.96395 0.23509 0.0
O128 O 0.41637 0.99765 0.26646 0.0
O129 O 0.45548 0.02848 0.26256 0.0
O130 O 0.38009 0.99562 0.22939 0.0
O131 O 0.41276 0.02593 0.2389 0.0
Co132 Co 0.17708 0.89558 0.49873 0.0
O133 O 0.15653 0.86095 0.50527 0.0
O134 O 0.20529 0.86903 0.50778 0.0
C135 C 0.15551 0.89508 0.47779 0.0
O136 O 0.206 0.92831 0.49264 0.0
Co137 Co 0.14063 0.95208 0.49096 0.0
O138 O 0.17909 0.96477 0.48264 0.0
C139 C 0.15103 0.93816 0.52012 0.0
C140 C 0.18231 0.85156 0.50968 0.0
C141 C 0.20414 0.95271 0.48571 0.0
O142 O 0.16899 0.91695 0.51661 0.0
O143 O 0.13576 0.95327 0.51143 0.0
O144 O 0.17865 0.87831 0.48033 0.0
O145 O 0.14481 0.9095 0.4882 0.0
Co146 Co 0.2595 0.6798 0.75435 0.0
O147 O 0.22227 0.69354 0.74667 0.0
O148 O 0.26591 0.71671 0.74452 0.0
C149 C 0.24113 0.66991 0.77536 0.0
O150 O 0.30217 0.67281 0.76134 0.0
Co151 Co 0.2656 0.61425 0.76424 0.0
O152 O 0.30374 0.62878 0.77232 0.0
C153 C 0.26701 0.62732 0.73463 0.0
C154 C 0.23717 0.71624 0.74207 0.0
C155 C 0.31587 0.65332 0.76877 0.0
O156 O 0.26766 0.6555 0.73728 0.0
O157 O 0.26383 0.60742 0.7439 0.0
O158 O 0.24881 0.69693 0.77211 0.0
O159 O 0.24222 0.65054 0.76551 0.0
Co160 Co 0.91876 0.19221 0.5139 0.0
O161 O 0.95776 0.20258 0.52082 0.0
O162 O 0.91634 0.22856 0.52474 0.0
C163 C 0.9339 0.18307 0.49227 0.0
O164 O 0.87482 0.1889 0.50778 0.0
Co165 Co 0.90638 0.12849 0.50263 0.0
O166 O 0.8716 0.14856 0.49407 0.0
C167 C 0.90797 0.13863 0.53254 0.0
C168 C 0.94524 0.2258 0.52637 0.0
C169 C 0.86071 0.1727 0.49889 0.0
O170 O 0.91138 0.16686 0.53066 0.0
O171 O 0.90667 0.11953 0.52275 0.0
O172 O 0.92845 0.21021 0.49629 0.0
O173 O 0.93256 0.16289 0.50168 0.0
Co174 Co 0.98986 0.41345 0.76318 0.0
O175 O 0.97473 0.45169 0.76864 0.0
O176 O 0.95332 0.40862 0.77384 0.0
C177 C 0.99818 0.42595 0.74116 0.0
O178 O 0.99879 0.36983 0.75847 0.0
Co179 Co 0.056 0.40869 0.75328 0.0
O180 O 0.04256 0.36881 0.74695 0.0
C181 C 0.04346 0.41409 0.78282 0.0
C182 C 0.95266 0.43768 0.77437 0.0
C183 C 0.01879 0.35607 0.75125 0.0
O184 O 0.01517 0.4112 0.78038 0.0
O185 O 0.06318 0.41607 0.77333 0.0
O186 O 0.97152 0.41813 0.74514 0.0
O187 O 0.01794 0.42873 0.7508 0.0
Co188 Co 0.77065 0.48494 0.01585 0.0
O189 O 0.73294 0.47149 0.02305 0.0
O190 O 0.77657 0.44882 0.02637 0.0
C191 C 0.75395 0.49305 0.99436 0.0
O192 O 0.81382 0.49172 0.00949 0.0
Co193 Co 0.77675 0.54986 0.00507 0.0
O194 O 0.81603 0.53548 0.99828 0.0
C195 C 0.77515 0.53895 0.03487 0.0
C196 C 0.74764 0.44925 0.02827 0.0
C197 C 0.82801 0.51115 0.00225 0.0
O198 O 0.777 0.51063 0.03269 0.0
O199 O 0.77238 0.55803 0.0252 0.0
O200 O 0.76152 0.46635 0.99819 0.0
O201 O 0.75408 0.51316 0.00389 0.0
Co202 Co 0.6778 0.27651 0.27229 0.0
O203 O 0.65505 0.30961 0.26542 0.0
O204 O 0.70451 0.30551 0.26409 0.0
C205 C 0.65401 0.27437 0.29267 0.0
O206 O 0.70901 0.24617 0.27869 0.0
Co207 Co 0.64654 0.2166 0.27907 0.0
O208 O 0.68554 0.20639 0.28766 0.0
C209 C 0.65773 0.23257 0.25019 0.0
C210 C 0.68041 0.32103 0.26158 0.0
C211 C 0.70937 0.22107 0.28511 0.0
O212 O 0.67324 0.25525 0.25414 0.0
O213 O 0.64348 0.21568 0.25851 0.0
O214 O 0.67591 0.29308 0.29084 0.0
O215 O 0.6459 0.25936 0.28195 0.0
H216 H 0.06915 0.9765 0.29403 0.0
H217 H 0.11818 0.96587 0.28379 0.0
H218 H 0.16077 0.02273 0.31384 0.0
H219 H 0.11202 0.03317 0.32426 0.0
H220 H 0.15865 0.00463 0.27239 0.0
H221 H 0.21022 0.94628 0.3165 0.0
H222 H 0.17034 0.95316 0.31528 0.0
H223 H 0.19529 0.98216 0.32111 0.0
C224 C 0.08895 0.98674 0.29847 0.0
C225 C 0.08668 0.00562 0.30999 0.0
C226 C 0.11694 0.98056 0.29263 0.0
C227 C 0.14316 0.993 0.29824 0.0
C228 C 0.1409 0.01227 0.30957 0.0
H229 H 0.31232 0.03448 0.26385 0.0
H230 H 0.26149 0.03157 0.27293 0.0
C231 C 0.11297 0.01844 0.31543 0.0
C232 C 0.17279 0.98703 0.29189 0.0
H233 H 0.24415 0.9639 0.29917 0.0
C234 C 0.17724 0.99535 0.27819 0.0
C235 C 0.19687 0.97439 0.29939 0.0
C236 C 0.19291 0.96318 0.31384 0.0
C237 C 0.20556 0.99289 0.27202 0.0
C238 C 0.23011 0.98227 0.27982 0.0
C239 C 0.22534 0.97239 0.29327 0.0
C240 C 0.26121 0.98343 0.27451 0.0
C241 C 0.20906 0.00212 0.25724 0.0
C242 C 0.27827 0.95731 0.27278 0.0
C243 C 0.30757 0.95888 0.26759 0.0
C244 C 0.32022 0.98664 0.26421 0.0
C245 C 0.30321 0.01272 0.26627 0.0
C246 C 0.27406 0.01112 0.27139 0.0
H247 H 0.18731 0.00116 0.25165 0.0
H248 H 0.2173 0.02547 0.25686 0.0
H249 H 0.22554 0.98766 0.25184 0.0
H250 H 0.26877 0.93574 0.27525 0.0
H251 H 0.32016 0.93843 0.26614 0.0
H252 H 0.16766 0.61149 0.583 0.0
H253 H 0.17614 0.66167 0.57414 0.0
H254 H 0.17872 0.62665 0.53288 0.0
H255 H 0.17125 0.57609 0.54172 0.0
H256 H 0.22225 0.66828 0.53717 0.0
H257 H 0.11257 0.71116 0.55571 0.0
H258 H 0.13579 0.6963 0.5691 0.0
H259 H 0.12184 0.67199 0.5558 0.0
C260 C 0.1699 0.61445 0.57202 0.0
C261 C 0.16839 0.58987 0.56303 0.0
C262 C 0.17471 0.64318 0.56698 0.0
C263 C 0.17746 0.648 0.55283 0.0
C264 C 0.17653 0.62344 0.54384 0.0
H265 H 0.14131 0.80716 0.50864 0.0
H266 H 0.14362 0.75838 0.5194 0.0
C267 C 0.17213 0.5946 0.54889 0.0
C268 C 0.18066 0.67868 0.54737 0.0
H269 H 0.14567 0.74638 0.54606 0.0
C270 C 0.20555 0.68542 0.5391 0.0
C271 C 0.15873 0.70092 0.54985 0.0
C272 C 0.13059 0.69472 0.55799 0.0
C273 C 0.20886 0.71368 0.53307 0.0
C274 C 0.187 0.73594 0.53565 0.0
C275 C 0.1625 0.72934 0.54416 0.0
C276 C 0.18726 0.76532 0.52868 0.0
C277 C 0.23504 0.71905 0.5236 0.0
C278 C 0.2112 0.78553 0.53022 0.0
C279 C 0.2101 0.81357 0.52387 0.0
C280 C 0.1848 0.82189 0.51614 0.0
C281 C 0.16103 0.80154 0.51463 0.0
C282 C 0.16231 0.77359 0.52077 0.0
H283 H 0.24579 0.69783 0.52029 0.0
H284 H 0.22782 0.7315 0.51434 0.0
H285 H 0.2522 0.73261 0.52904 0.0
H286 H 0.23043 0.77986 0.5365 0.0
H287 H 0.22867 0.8289 0.52525 0.0
H288 H 0.594 0.70774 0.80518 0.0
H289 H 0.54506 0.71175 0.79388 0.0
H290 H 0.52293 0.62263 0.80698 0.0
H291 H 0.57189 0.61822 0.81815 0.0
H292 H 0.50841 0.63463 0.77932 0.0
H293 H 0.46528 0.72297 0.81451 0.0
H294 H 0.50016 0.73077 0.806 0.0
H295 H 0.49838 0.70128 0.81839 0.0
C296 C 0.57879 0.68892 0.8056 0.0
C297 C 0.58677 0.66271 0.81265 0.0
C298 C 0.55077 0.69135 0.79921 0.0
C299 C 0.53022 0.66769 0.7998 0.0
C300 C 0.53845 0.6412 0.80647 0.0
H301 H 0.35225 0.61598 0.78333 0.0
H302 H 0.40482 0.62289 0.7893 0.0
C303 C 0.56644 0.63873 0.81285 0.0
C304 C 0.49992 0.67035 0.79364 0.0
H305 H 0.43225 0.70543 0.79742 0.0
C306 C 0.49185 0.6503 0.78318 0.0
C307 C 0.47845 0.69101 0.79864 0.0
C308 C 0.48578 0.71264 0.81007 0.0
C309 C 0.46258 0.64972 0.77787 0.0
C310 C 0.44076 0.6694 0.78331 0.0
C311 C 0.44912 0.6904 0.7933 0.0
C312 C 0.40862 0.66621 0.77977 0.0
C313 C 0.45502 0.62762 0.76667 0.0
C314 C 0.39309 0.68875 0.77275 0.0
C315 C 0.36277 0.68492 0.76928 0.0
C316 C 0.34753 0.65857 0.77291 0.0
C317 C 0.36316 0.63649 0.78027 0.0
C318 C 0.39333 0.6403 0.78366 0.0
H319 H 0.47542 0.62017 0.76107 0.0
H320 H 0.4444 0.60765 0.7713 0.0
H321 H 0.43892 0.63737 0.75921 0.0
H322 H 0.40455 0.70905 0.76979 0.0
H323 H 0.35141 0.70242 0.76366 0.0
H324 H 0.51053 0.1008 0.05645 0.0
H325 H 0.49951 0.05642 0.04261 0.0
H326 H 0.51567 0.00064 0.07784 0.0
H327 H 0.52564 0.04484 0.09181 0.0
H328 H 0.53404 0.01174 0.03579 0.0
H329 H 0.43851 0.96554 0.06459 0.0
H330 H 0.45231 0.00289 0.06756 0.0
H331 H 0.46972 0.97142 0.07589 0.0
C332 C 0.51155 0.07907 0.06126 0.0
C333 C 0.51886 0.07631 0.07524 0.0
C334 C 0.50513 0.05374 0.05335 0.0
C335 C 0.50601 0.0252 0.05924 0.0
C336 C 0.51377 0.02244 0.07315 0.0
H337 H 0.56047 0.86 0.03047 0.0
H338 H 0.55225 0.9115 0.0372 0.0
C339 C 0.51982 0.04774 0.08111 0.0
C340 C 0.50115 0.99809 0.05071 0.0
H341 H 0.46716 0.92978 0.05096 0.0
C342 C 0.51891 0.9941 0.03896 0.0
C343 C 0.48083 0.97529 0.05455 0.0
C344 C 0.45903 0.97918 0.06625 0.0
C345 C 0.5187 0.96708 0.03165 0.0
C346 C 0.50085 0.94318 0.03641 0.0
C347 C 0.48124 0.94795 0.04745 0.0
C348 C 0.50537 0.91227 0.03134 0.0
C349 C 0.53836 0.96407 0.01913 0.0
C350 C 0.48152 0.89523 0.02603 0.0
C351 C 0.48612 0.86535 0.02218 0.0
C352 C 0.51453 0.85202 0.02381 0.0
C353 C 0.53827 0.86938 0.02907 0.0
C354 C 0.5337 0.89904 0.03281 0.0
H355 H 0.54153 0.98599 0.01404 0.0
H356 H 0.56084 0.95584 0.02228 0.0
H357 H 0.5287 0.94809 0.01159 0.0
H358 H 0.45937 0.90498 0.02496 0.0
H359 H 0.46735 0.85255 0.01823 0.0
H360 H 0.26533 0.56394 0.93432 0.0
H361 H 0.3064 0.5971 0.94088 0.0
H362 H 0.27262 0.60043 0.98232 0.0
H363 H 0.23059 0.56834 0.97563 0.0
H364 H 0.28586 0.65436 0.97398 0.0
H365 H 0.38176 0.58052 0.96129 0.0
H366 H 0.35773 0.58683 0.94682 0.0
H367 H 0.34359 0.5672 0.96155 0.0
C368 C 0.26691 0.57132 0.94489 0.0
C369 C 0.24481 0.56338 0.95449 0.0
C370 C 0.29051 0.59024 0.94864 0.0
C371 C 0.29295 0.60095 0.96216 0.0
C372 C 0.27125 0.59246 0.97183 0.0
H373 H 0.44772 0.67675 0.00055 0.0
H374 H 0.40722 0.6465 0.9913 0.0
C375 C 0.24732 0.57399 0.96802 0.0
C376 C 0.3173 0.62201 0.96611 0.0
H377 H 0.39339 0.63107 0.96636 0.0
C378 C 0.3094 0.64922 0.97237 0.0
C379 C 0.34803 0.61529 0.96404 0.0
C380 C 0.35832 0.58575 0.95819 0.0
C381 C 0.33131 0.66964 0.97682 0.0
C382 C 0.36201 0.66316 0.97451 0.0
C383 C 0.36986 0.6362 0.96801 0.0
C384 C 0.38656 0.68244 0.97988 0.0
C385 C 0.32132 0.69731 0.98444 0.0
C386 C 0.3887 0.7129 0.97652 0.0
C387 C 0.41178 0.73058 0.98205 0.0
C388 C 0.4334 0.71785 0.99076 0.0
C389 C 0.43153 0.68727 0.99382 0.0
C390 C 0.40834 0.66986 0.98851 0.0
H391 H 0.29804 0.69509 0.98839 0.0
H392 H 0.33647 0.70223 0.99321 0.0
H393 H 0.32177 0.71663 0.97735 0.0
H394 H 0.37262 0.72298 0.9696 0.0
H395 H 0.41281 0.75404 0.97946 0.0
H396 H 0.57755 0.70463 0.22064 0.0
H397 H 0.54727 0.74845 0.22638 0.0
H398 H 0.601 0.80215 0.19925 0.0
H399 H 0.63117 0.75835 0.19327 0.0
H400 H 0.56199 0.80374 0.23745 0.0
H401 H 0.51572 0.81558 0.18488 0.0
H402 H 0.53557 0.7826 0.19042 0.0
H403 H 0.55601 0.81549 0.18555 0.0
C404 C 0.58314 0.7258 0.21597 0.0
C405 C 0.60665 0.72791 0.2064 0.0
C406 C 0.56575 0.75081 0.21925 0.0
C407 C 0.57145 0.77837 0.213 0.0
C408 C 0.59576 0.7809 0.20393 0.0
H409 H 0.50081 0.95636 0.21801 0.0
H410 H 0.52747 0.91013 0.21271 0.0
C411 C 0.61316 0.75589 0.20062 0.0
C412 C 0.55176 0.80437 0.21587 0.0
H413 H 0.50548 0.85519 0.20054 0.0
C414 C 0.54945 0.81488 0.22941 0.0
C415 C 0.53524 0.81869 0.20536 0.0
C416 C 0.53546 0.80738 0.19076 0.0
C417 C 0.53183 0.83994 0.23266 0.0
C418 C 0.51585 0.85461 0.2221 0.0
C419 C 0.51779 0.84386 0.20859 0.0
C420 C 0.49824 0.88209 0.22477 0.0
C421 C 0.53114 0.85112 0.24727 0.0
C422 C 0.47246 0.88149 0.23303 0.0
C423 C 0.45701 0.90794 0.23606 0.0
C424 C 0.46718 0.93544 0.23091 0.0
C425 C 0.49246 0.93567 0.22226 0.0
C426 C 0.50773 0.90925 0.21918 0.0
H427 H 0.54894 0.8407 0.25366 0.0
H428 H 0.53396 0.87574 0.24762 0.0
H429 H 0.50905 0.84572 0.25188 0.0
H430 H 0.46453 0.86062 0.23727 0.0
H431 H 0.4376 0.90692 0.24273 0.0
H432 H 0.39443 0.13316 0.43601 0.0
H433 H 0.35398 0.1026 0.4454 0.0
H434 H 0.41851 0.05232 0.46891 0.0
H435 H 0.45907 0.08302 0.45975 0.0
H436 H 0.34987 0.04105 0.44161 0.0
H437 H 0.3528 0.06958 0.49713 0.0
H438 H 0.37064 0.09242 0.48428 0.0
H439 H 0.38819 0.05847 0.48991 0.0
C440 C 0.4 0.11598 0.44337 0.0
C441 C 0.43 0.11053 0.44711 0.0
C442 C 0.37686 0.09848 0.4487 0.0
C443 C 0.38322 0.07532 0.45792 0.0
C444 C 0.41302 0.07041 0.46201 0.0
H445 H 0.26273 0.93997 0.49277 0.0
H446 H 0.30801 0.96744 0.48599 0.0
C447 C 0.4362 0.08793 0.45671 0.0
C448 C 0.35892 0.05497 0.46238 0.0
H449 H 0.32038 0.03025 0.49039 0.0
C450 C 0.34342 0.03871 0.45227 0.0
C451 C 0.35083 0.05165 0.47631 0.0
C452 C 0.36628 0.0691 0.48755 0.0
C453 C 0.3198 0.01947 0.4557 0.0
C454 C 0.31116 0.01676 0.46959 0.0
C455 C 0.32714 0.03237 0.47975 0.0
C456 C 0.28415 0.99962 0.47358 0.0
C457 C 0.30427 0.00219 0.44443 0.0
C458 C 0.25585 0.0088 0.46893 0.0
C459 C 0.23008 0.99329 0.47275 0.0
C460 C 0.23198 0.96825 0.48139 0.0
C461 C 0.26044 0.95904 0.48605 0.0
C462 C 0.28632 0.97474 0.48223 0.0
H463 H 0.31866 1.00009 0.43517 0.0
H464 H 0.29796 0.97949 0.44793 0.0
H465 H 0.28345 0.01413 0.44142 0.0
H466 H 0.25364 0.02824 0.46242 0.0
H467 H 0.20862 0.00114 0.46896 0.0
H468 H 0.05125 0.91419 0.69623 0.0
H469 H 0.07779 0.86955 0.70428 0.0
H470 H 0.15217 0.92431 0.71742 0.0
H471 H 0.12576 0.96881 0.70972 0.0
H472 H 0.13219 0.84854 0.69506 0.0
H473 H 0.13896 0.87259 0.75074 0.0
H474 H 0.11402 0.89262 0.73943 0.0
H475 H 0.15308 0.90266 0.74052 0.0
C476 C 0.07303 0.91674 0.70106 0.0
C477 C 0.08635 0.94507 0.70236 0.0
C478 C 0.0882 0.89122 0.7056 0.0
C479 C 0.1168 0.89365 0.7116 0.0
C480 C 0.12986 0.92194 0.7131 0.0
H481 H 0.25818 0.77264 0.73716 0.0
H482 H 0.22921 0.81546 0.7287 0.0
C483 C 0.11475 0.94738 0.70861 0.0
C484 C 0.13392 0.86661 0.71556 0.0
H485 H 0.17169 0.83446 0.74221 0.0
C486 C 0.14057 0.8453 0.7054 0.0
C487 C 0.1449 0.86246 0.72905 0.0
C488 C 0.13713 0.88365 0.74059 0.0
C489 C 0.15854 0.82033 0.7083 0.0
C490 C 0.17001 0.8166 0.7217 0.0
C491 C 0.16313 0.83768 0.7319 0.0
C492 C 0.18829 0.79035 0.72553 0.0
C493 C 0.16566 0.79836 0.697 0.0
C494 C 0.17487 0.76215 0.72639 0.0
C495 C 0.19123 0.73781 0.73127 0.0
C496 C 0.22135 0.74123 0.73535 0.0
C497 C 0.23508 0.7693 0.73402 0.0
C498 C 0.21856 0.79376 0.72925 0.0
H499 H 0.1598 0.80725 0.68671 0.0
H500 H 0.18988 0.79245 0.69714 0.0
H501 H 0.15265 0.77756 0.69865 0.0
H502 H 0.15144 0.75918 0.7237 0.0
H503 H 0.18002 0.71645 0.73218 0.0
H504 H 0.71286 0.5883 0.79367 0.0
H505 H 0.75629 0.55757 0.78753 0.0
H506 H 0.79691 0.57737 0.82675 0.0
H507 H 0.75455 0.60954 0.83253 0.0
H508 H 0.83796 0.57686 0.80885 0.0
H509 H 0.77079 0.475 0.80006 0.0
H510 H 0.75902 0.50418 0.78876 0.0
H511 H 0.75463 0.50868 0.80704 0.0
C512 C 0.73128 0.58641 0.80088 0.0
C513 C 0.73021 0.60121 0.8136 0.0
C514 C 0.7559 0.56846 0.79746 0.0
C515 C 0.77944 0.56419 0.80687 0.0
C516 C 0.77893 0.57998 0.81935 0.0
H517 H 0.91022 0.41907 0.79301 0.0
H518 H 0.86881 0.44898 0.80262 0.0
C519 C 0.75469 0.59849 0.82263 0.0
C520 C 0.8048 0.54362 0.80369 0.0
H521 H 0.82148 0.47378 0.79168 0.0
C522 C 0.83428 0.55422 0.80524 0.0
C523 C 0.80023 0.51368 0.79938 0.0
C524 C 0.76946 0.49963 0.79888 0.0
C525 C 0.85916 0.53624 0.80211 0.0
C526 C 0.85451 0.50725 0.79663 0.0
C527 C 0.82511 0.49616 0.79563 0.0
C528 C 0.87968 0.48891 0.79117 0.0
C529 C 0.89015 0.54853 0.80487 0.0
C530 C 0.89912 0.50113 0.7814 0.0
C531 C 0.92291 0.48442 0.77618 0.0
C532 C 0.92737 0.45471 0.7803 0.0
C533 C 0.90738 0.44198 0.78974 0.0
C534 C 0.88377 0.45904 0.7952 0.0
H535 H 0.88984 0.56473 0.81353 0.0
H536 H 0.90642 0.53053 0.80732 0.0
H537 H 0.89815 0.56064 0.79566 0.0
H538 H 0.89579 0.52363 0.77767 0.0
H539 H 0.93755 0.4947 0.7687 0.0
H540 H 0.55465 0.26182 0.07443 0.0
H541 H 0.5853 0.30415 0.06701 0.0
H542 H 0.65003 0.24332 0.04955 0.0
H543 H 0.61934 0.20107 0.05659 0.0
H544 H 0.64266 0.31703 0.07503 0.0
H545 H 0.63869 0.30184 0.0186 0.0
H546 H 0.61335 0.28274 0.03001 0.0
H547 H 0.65091 0.26896 0.02745 0.0
C548 C 0.57513 0.25748 0.06878 0.0
C549 C 0.58448 0.22806 0.06606 0.0
C550 C 0.59268 0.28168 0.06461 0.0
C551 C 0.61979 0.27691 0.05759 0.0
C552 C 0.62889 0.24759 0.05467 0.0
H553 H 0.7678 0.3926 0.03343 0.0
H554 H 0.73791 0.35025 0.04171 0.0
C555 C 0.61134 0.22342 0.05877 0.0
C556 C 0.63941 0.30243 0.05399 0.0
H557 H 0.67532 0.33593 0.02722 0.0
C558 C 0.64965 0.32126 0.06457 0.0
C559 C 0.64856 0.30789 0.04033 0.0
C560 C 0.63708 0.28947 0.02843 0.0
C561 C 0.66906 0.34519 0.06185 0.0
C562 C 0.67845 0.35031 0.04825 0.0
C563 C 0.66829 0.33158 0.03767 0.0
C564 C 0.6974 0.37613 0.04463 0.0
C565 C 0.67964 0.36483 0.07348 0.0
C566 C 0.68448 0.40456 0.04375 0.0
C567 C 0.70131 0.4286 0.03895 0.0
C568 C 0.73143 0.42463 0.03503 0.0
C569 C 0.74471 0.39633 0.03646 0.0
C570 C 0.72768 0.37216 0.04113 0.0
H571 H 0.67342 0.35568 0.08366 0.0
H572 H 0.70441 0.36756 0.07304 0.0
H573 H 0.66944 0.38732 0.07244 0.0
H574 H 0.66107 0.40794 0.04635 0.0
H575 H 0.69048 0.45015 0.03798 0.0
H576 H 0.9758 0.10904 0.30147 0.0
H577 H 0.93117 0.1378 0.29519 0.0
H578 H 0.87507 0.07356 0.31567 0.0
H579 H 0.91954 0.04473 0.32211 0.0
H580 H 0.87736 0.12229 0.28068 0.0
H581 H 0.85579 0.15397 0.3349 0.0
H582 H 0.89105 0.13828 0.32926 0.0
H583 H 0.85913 0.1145 0.33193 0.0
C584 C 0.95395 0.10078 0.30449 0.0
C585 C 0.95126 0.07473 0.31242 0.0
C586 C 0.92848 0.11728 0.3009 0.0
C587 C 0.89994 0.10812 0.30522 0.0
C588 C 0.897 0.08129 0.31247 0.0
H589 H 0.7188 0.17114 0.30054 0.0
H590 H 0.76626 0.14604 0.30521 0.0
C591 C 0.92243 0.06473 0.31605 0.0
C592 C 0.87336 0.12713 0.30256 0.0
H593 H 0.81812 0.16675 0.3187 0.0
C594 C 0.86448 0.1322 0.28896 0.0
C595 C 0.85683 0.14021 0.31342 0.0
C596 C 0.86627 0.13676 0.3282 0.0
C597 C 0.83874 0.14913 0.28593 0.0
C598 C 0.82185 0.16168 0.2968 0.0
C599 C 0.83112 0.15708 0.31039 0.0
C600 C 0.79348 0.17814 0.29435 0.0
C601 C 0.82926 0.15258 0.27115 0.0
C602 C 0.79311 0.20499 0.28697 0.0
C603 C 0.76589 0.21953 0.28427 0.0
C604 C 0.73859 0.20744 0.28892 0.0
C605 C 0.7393 0.18104 0.2967 0.0
C606 C 0.76644 0.16662 0.29941 0.0
H607 H 0.84104 0.13655 0.26429 0.0
H608 H 0.80466 0.14925 0.27003 0.0
H609 H 0.83465 0.17551 0.26768 0.0
H610 H 0.81384 0.21455 0.28321 0.0
H611 H 0.76622 0.23986 0.2783 0.0
H612 H 0.13381 0.39257 0.59047 0.0
H613 H 0.10054 0.35481 0.58057 0.0
H614 H 0.07524 0.41598 0.54853 0.0
H615 H 0.10878 0.45378 0.55823 0.0
H616 H 0.03867 0.36036 0.57735 0.0
H617 H 0.0944 0.3395 0.52729 0.0
H618 H 0.11297 0.35844 0.5413 0.0
H619 H 0.08628 0.37805 0.53082 0.0
C620 C 0.12158 0.39786 0.58118 0.0
C621 C 0.12402 0.4262 0.57513 0.0
C622 C 0.10247 0.37628 0.57558 0.0
C623 C 0.08553 0.38253 0.56379 0.0
C624 C 0.08846 0.41052 0.55751 0.0
H625 H 0.92806 0.28112 0.53585 0.0
H626 H 0.96077 0.32019 0.54538 0.0
C627 C 0.10763 0.43212 0.56308 0.0
C628 C 0.06377 0.36023 0.55849 0.0
H629 H 0.04679 0.31712 0.5306 0.0
C630 C 0.04042 0.35087 0.56713 0.0
C631 C 0.0662 0.34785 0.54517 0.0
C632 C 0.09144 0.35622 0.53563 0.0
C633 C 0.01945 0.32936 0.56283 0.0
C634 C 0.02171 0.31721 0.54946 0.0
C635 C 0.045 0.32666 0.54081 0.0
C636 C 0.00125 0.29344 0.54447 0.0
C637 C 0.99555 0.31925 0.57272 0.0
C638 C 0.01314 0.26556 0.5408 0.0
C639 C 0.99463 0.24339 0.53534 0.0
C640 C 0.96379 0.24863 0.53338 0.0
C641 C 0.95169 0.27636 0.53733 0.0
C642 C 0.97033 0.29866 0.54279 0.0
H643 H 0.00077 0.32597 0.58344 0.0
H644 H 0.97376 0.32948 0.56982 0.0
H645 H 0.99289 0.29461 0.57232 0.0
H646 H 0.0369 0.26106 0.54203 0.0
H647 H 0.00469 0.22227 0.53243 0.0
H648 H 0.57443 0.19474 0.47091 0.0
H649 H 0.62349 0.20769 0.4807 0.0
H650 H 0.66647 0.14617 0.45284 0.0
H651 H 0.61767 0.13298 0.44303 0.0
H652 H 0.66825 0.16694 0.49265 0.0
H653 H 0.71007 0.22833 0.44728 0.0
H654 H 0.67063 0.22134 0.45021 0.0
H655 H 0.69427 0.19238 0.44336 0.0
C656 C 0.59432 0.18389 0.46689 0.0
C657 C 0.59216 0.16287 0.45616 0.0
C658 C 0.62229 0.19136 0.47249 0.0
C659 C 0.64855 0.17824 0.46733 0.0
C660 C 0.64644 0.15689 0.4568 0.0
H661 H 0.83135 0.15252 0.47628 0.0
H662 H 0.77931 0.16074 0.46986 0.0
C663 C 0.61852 0.14923 0.45127 0.0
C664 C 0.67831 0.18623 0.47303 0.0
H665 H 0.74702 0.21264 0.4636 0.0
C666 C 0.68539 0.17747 0.48645 0.0
C667 C 0.70039 0.20025 0.46491 0.0
C668 C 0.69347 0.21141 0.45067 0.0
C669 C 0.71476 0.18029 0.4916 0.0
C670 C 0.73734 0.19266 0.48315 0.0
C671 C 0.72969 0.20315 0.47005 0.0
C672 C 0.7696 0.19057 0.48679 0.0
C673 C 0.72184 0.16818 0.50566 0.0
C674 C 0.78176 0.20528 0.49829 0.0
C675 C 0.81183 0.20053 0.50206 0.0
C676 C 0.83 0.18094 0.49439 0.0
C677 C 0.81794 0.16741 0.48255 0.0
C678 C 0.78817 0.17221 0.47881 0.0
H679 H 0.70266 0.15569 0.51011 0.0
H680 H 0.74164 0.15312 0.50521 0.0
H681 H 0.7274 0.18696 0.51267 0.0
H682 H 0.76789 0.21993 0.50447 0.0
H683 H 0.8205 0.21139 0.5112 0.0
H684 H 0.0209 0.07513 0.71542 0.0
H685 H 0.01223 0.11902 0.72995 0.0
H686 H 0.00302 0.17364 0.69383 0.0
H687 H 0.01037 0.12981 0.67932 0.0
H688 H 0.04369 0.16701 0.73293 0.0
H689 H 0.93207 0.20228 0.71472 0.0
H690 H 0.94782 0.16636 0.71033 0.0
H691 H 0.95712 0.19904 0.70045 0.0
C692 C 0.01675 0.09648 0.7106 0.0
C693 C 0.01617 0.09902 0.69623 0.0
C694 C 0.01171 0.12152 0.71891 0.0
C695 C 0.00619 0.14957 0.71301 0.0
C696 C 0.00607 0.15212 0.69865 0.0
H697 H 0.05728 0.32047 0.73692 0.0
H698 H 0.0509 0.26869 0.73031 0.0
C699 C 0.01063 0.12707 0.69035 0.0
C700 C 0.00302 0.17665 0.72174 0.0
H701 H 0.96311 0.24146 0.72485 0.0
C702 C 0.02569 0.18296 0.73135 0.0
C703 C 0.97915 0.19725 0.72003 0.0
C704 C 0.95252 0.19067 0.71093 0.0
C705 C 0.02638 0.21021 0.73847 0.0
C706 C 0.00433 0.23209 0.73561 0.0
C707 C 0.98035 0.22491 0.72685 0.0
C708 C 0.00784 0.26344 0.74026 0.0
C709 C 0.05122 0.21559 0.74872 0.0
C710 C 0.98525 0.27815 0.74774 0.0
C711 C 0.98869 0.30824 0.75149 0.0
C712 C 0.01467 0.32408 0.7477 0.0
C713 C 0.03703 0.30911 0.74014 0.0
C714 C 0.03357 0.27929 0.73642 0.0
H715 H 0.05884 0.19431 0.7534 0.0
H716 H 0.07076 0.22561 0.7434 0.0
H717 H 0.04396 0.23101 0.75703 0.0
H718 H 0.96503 0.26638 0.75066 0.0
H719 H 0.97097 0.31908 0.75725 0.0
H720 H 0.05501 0.54207 0.93592 0.0
H721 H 0.01074 0.52994 0.94947 0.0
H722 H 0.06577 0.48035 0.97781 0.0
H723 H 0.11054 0.49268 0.96433 0.0
H724 H 0.98852 0.47182 0.95611 0.0
H725 H 0.01794 0.53931 0.00239 0.0
H726 H 0.03628 0.54488 0.9861 0.0
H727 H 0.04516 0.51274 0.99625 0.0
C728 C 0.05783 0.52872 0.94507 0.0
C729 C 0.08634 0.51847 0.94908 0.0
C730 C 0.03246 0.52169 0.95277 0.0
C731 C 0.03501 0.50435 0.96465 0.0
C732 C 0.0634 0.49404 0.96874 0.0
H733 H 0.8603 0.45858 0.00336 0.0
H734 H 0.91265 0.45072 0.9961 0.0
C735 C 0.08891 0.50111 0.96103 0.0
C736 C 0.00764 0.49755 0.97264 0.0
H737 H 0.96987 0.51804 0.00162 0.0
C738 C 0.98458 0.48134 0.9662 0.0
C739 C 0.00272 0.51001 0.98579 0.0
C740 C 0.02668 0.52786 0.99308 0.0
C741 C 0.9561 0.47875 0.97222 0.0
C742 C 0.9507 0.49262 0.98502 0.0
C743 C 0.97426 0.5073 0.99184 0.0
C744 C 0.91982 0.4967 0.99025 0.0
C745 C 0.93136 0.46304 0.96445 0.0
C746 C 0.90685 0.52512 0.98949 0.0
C747 C 0.8772 0.52963 0.9935 0.0
C748 C 0.85981 0.50581 0.99848 0.0
C749 C 0.87308 0.47737 -0.00045 0.0
C750 C 0.9029 0.47282 0.9954 0.0
H751 H 0.93886 0.45494 0.95423 0.0
H752 H 0.92339 0.44363 0.97047 0.0
H753 H 0.912 0.47835 0.96302 0.0
H754 H 0.91955 0.5438 0.98552 0.0
H755 H 0.86791 0.55189 0.99263 0.0
H756 H 0.67886 0.59268 0.21419 0.0
H757 H 0.69123 0.5471 0.22673 0.0
H758 H 0.63852 0.49546 0.19806 0.0
H759 H 0.6266 0.54077 0.18529 0.0
H760 H 0.65549 0.50789 0.23965 0.0
H761 H 0.71686 0.4497 0.19811 0.0
H762 H 0.7074 0.48885 0.19728 0.0
H763 H 0.67996 0.46093 0.19282 0.0
C764 C 0.66988 0.57162 0.21055 0.0
C765 C 0.65185 0.57032 0.1987 0.0
C766 C 0.67706 0.54559 0.21771 0.0
C767 C 0.66638 0.5178 0.21315 0.0
C768 C 0.64775 0.51655 0.20153 0.0
H769 H 0.63301 0.35707 0.25584 0.0
H770 H 0.63354 0.40574 0.24484 0.0
C771 C 0.64071 0.54252 0.19432 0.0
C772 C 0.67368 0.49022 0.22083 0.0
H773 H 0.70036 0.4192 0.2169 0.0
C774 C 0.66566 0.48863 0.23472 0.0
C775 C 0.68757 0.4653 0.21448 0.0
C776 C 0.69875 0.46635 0.19989 0.0
C777 C 0.66966 0.46229 0.24223 0.0
C778 C 0.68143 0.43671 0.23559 0.0
C779 C 0.69097 0.43874 0.22192 0.0
C780 C 0.68177 0.40716 0.24234 0.0
C781 C 0.66092 0.46199 0.25717 0.0
C782 C 0.70871 0.39135 0.24422 0.0
C783 C 0.7085 0.36324 0.25048 0.0
C784 C 0.68129 0.3505 0.25482 0.0
C785 C 0.65439 0.36629 0.25271 0.0
C786 C 0.65464 0.39425 0.2465 0.0
H787 H 0.66153 0.48479 0.26169 0.0
H788 H 0.63763 0.45346 0.25813 0.0
H789 H 0.67601 0.44727 0.26321 0.0
H790 H 0.72987 0.40086 0.24095 0.0
H791 H 0.72955 0.35155 0.25193 0.0
H792 H 0.06804 0.92035 0.35171 0.0
H793 H 0.08664 0.89657 0.37258 0.0
H794 H 0.02178 0.94576 0.3965 0.0
H795 H 0.00266 0.96909 0.37573 0.0
H796 H 0.11276 0.92997 0.39219 0.0
H797 H 0.01997 0.86613 0.41551 0.0
H798 H 0.01933 0.87777 0.3978 0.0
H799 H 0.00855 0.90333 0.41123 0.0
C800 C 0.05707 0.92538 0.36135 0.0
C801 C 0.0341 0.94691 0.36206 0.0
C802 C 0.06777 0.91179 0.37328 0.0
C803 C 0.05558 0.91932 0.38611 0.0
C804 C 0.03118 0.93913 0.38671 0.0
H805 H 0.10678 0.92794 0.47015 0.0
H806 H 0.08346 0.93035 0.44744 0.0
C807 C 0.02038 0.95263 0.37479 0.0
C808 C 0.07115 0.91038 0.39891 0.0
H809 H 0.0594 0.88229 0.43095 0.0
C810 C 0.10128 0.91897 0.40057 0.0
C811 C 0.0561 0.89621 0.40985 0.0
C812 C 0.02429 0.88506 0.40846 0.0
C813 C 0.1163 0.91515 0.41309 0.0
C814 C 0.10086 0.90204 0.42419 0.0
C815 C 0.07109 0.89248 0.42241 0.0
C816 C 0.11475 0.89967 0.43793 0.0
C817 C 0.14807 0.92647 0.41455 0.0
C818 C 0.13998 0.8815 0.44009 0.0
C819 C 0.15345 0.88018 0.45304 0.0
C820 C 0.14177 0.89691 0.46404 0.0
C821 C 0.11635 0.91488 0.46186 0.0
C822 C 0.10292 0.91618 0.44892 0.0
H823 H 0.15466 0.94109 0.40588 0.0
H824 H 0.15082 0.93914 0.42428 0.0
H825 H 0.16374 0.9072 0.41479 0.0
H826 H 0.14922 0.86833 0.43176 0.0
H827 H 0.1729 0.86598 0.45444 0.0
H828 H 0.22005 0.49468 0.62484 0.0
H829 H 0.2416 0.51246 0.64643 0.0
H830 H 0.27818 0.58911 0.62578 0.0
H831 H 0.25662 0.57167 0.6041 0.0
H832 H 0.30177 0.53463 0.65619 0.0
H833 H 0.21158 0.62072 0.65295 0.0
H834 H 0.21139 0.58758 0.64236 0.0
H835 H 0.23675 0.61755 0.63861 0.0
C836 C 0.23342 0.51487 0.62477 0.0
C837 C 0.23603 0.5321 0.6128 0.0
C838 C 0.24576 0.52496 0.63713 0.0
C839 C 0.26091 0.55235 0.63769 0.0
C840 C 0.2662 0.56807 0.62553 0.0
H841 H 0.27975 0.66121 0.71196 0.0
H842 H 0.28386 0.64429 0.68814 0.0
C843 C 0.2539 0.558 0.61315 0.0
C844 C 0.26713 0.56629 0.65117 0.0
H845 H 0.24028 0.6196 0.67303 0.0
C846 C 0.28864 0.55343 0.65985 0.0
C847 C 0.24991 0.59082 0.65587 0.0
C848 C 0.22595 0.60498 0.64705 0.0
C849 C 0.29307 0.56425 0.67326 0.0
C850 C 0.27493 0.58799 0.67815 0.0
C851 C 0.25418 0.60145 0.66927 0.0
C852 C 0.27529 0.59783 0.69269 0.0
C853 C 0.31705 0.5501 0.68203 0.0
C854 C 0.26888 0.57738 0.70314 0.0
C855 C 0.26658 0.58693 0.71675 0.0
C856 C 0.27023 0.61725 0.72019 0.0
C857 C 0.27675 0.63771 0.70969 0.0
C858 C 0.27922 0.62807 0.69607 0.0
H859 H 0.33517 0.54024 0.67563 0.0
H860 H 0.32717 0.56656 0.68922 0.0
H861 H 0.30695 0.53181 0.68812 0.0
H862 H 0.26483 0.55411 0.70075 0.0
H863 H 0.26137 0.57053 0.72452 0.0
H864 H 0.70046 0.69908 0.88675 0.0
H865 H 0.67654 0.7225 0.90663 0.0
H866 H 0.59813 0.74193 0.88229 0.0
H867 H 0.62179 0.71867 0.8623 0.0
H868 H 0.6432 0.78313 0.91098 0.0
H869 H 0.57448 0.67931 0.91382 0.0
H870 H 0.60958 0.6806 0.9046 0.0
H871 H 0.57685 0.69825 0.8976 0.0
C872 C 0.67846 0.70902 0.8855 0.0
C873 C 0.66287 0.70658 0.87298 0.0
C874 C 0.66485 0.72243 0.89688 0.0
C875 C 0.63549 0.73353 0.89592 0.0
C876 C 0.62077 0.73328 0.8832 0.0
H877 H 0.51494 0.76147 0.96574 0.0
H878 H 0.53401 0.759 0.94222 0.0
C879 C 0.63438 0.72001 0.8718 0.0
C880 C 0.61911 0.74184 0.90854 0.0
H881 H 0.56845 0.7144 0.93146 0.0
C882 C 0.62662 0.76833 0.91542 0.0
C883 C 0.59744 0.72246 0.91422 0.0
C884 C 0.58906 0.69345 0.90728 0.0
C885 C 0.61328 0.77574 0.92804 0.0
C886 C 0.59254 0.75571 0.93402 0.0
C887 C 0.58433 0.72972 0.92686 0.0
C888 C 0.58087 0.75989 0.94813 0.0
C889 C 0.62158 0.80487 0.93486 0.0
C890 C 0.60087 0.76098 0.95924 0.0
C891 C 0.5901 0.76231 0.97266 0.0
C892 C 0.55903 0.76235 0.97529 0.0
C893 C 0.53899 0.7615 0.96411 0.0
C894 C 0.54984 0.76016 0.95066 0.0
H895 H 0.62928 0.82154 0.92723 0.0
H896 H 0.60231 0.81438 0.94063 0.0
H897 H 0.64029 0.80097 0.94216 0.0
H898 H 0.62488 0.75999 0.95756 0.0
H899 H 0.60625 0.7629 0.98098 0.0
H900 H 0.44229 0.14426 0.11006 0.0
H901 H 0.41342 0.11893 0.12786 0.0
H902 H 0.45914 0.17063 0.15892 0.0
H903 H 0.48757 0.19638 0.14126 0.0
H904 H 0.44109 0.08404 0.14627 0.0
H905 H 0.37534 0.16905 0.17425 0.0
H906 H 0.39084 0.17584 0.15744 0.0
H907 H 0.41372 0.18047 0.17257 0.0
C908 C 0.44549 0.15096 0.12065 0.0
C909 C 0.46749 0.17215 0.12425 0.0
C910 C 0.42899 0.13639 0.13082 0.0
C911 C 0.43399 0.14293 0.14473 0.0
C912 C 0.45439 0.16558 0.14826 0.0
H913 H 0.4337 0.06628 0.22311 0.0
H914 H 0.43756 0.09511 0.20198 0.0
C915 C 0.47083 0.1802 0.13812 0.0
C916 C 0.4217 0.12329 0.15557 0.0
H917 H 0.38906 0.12477 0.18721 0.0
C918 C 0.42903 0.09278 0.15508 0.0
C919 C 0.40598 0.1347 0.16704 0.0
C920 C 0.39575 0.16676 0.16779 0.0
C921 C 0.42292 0.07385 0.16616 0.0
C922 C 0.40888 0.08573 0.17796 0.0
C923 C 0.40006 0.11582 0.17817 0.0
C924 C 0.40577 0.06804 0.19066 0.0
C925 C 0.43311 0.04174 0.1655 0.0
C926 C 0.38661 0.04322 0.19126 0.0
C927 C 0.38441 0.02659 0.20335 0.0
C928 C 0.40131 0.03462 0.21499 0.0
C929 C 0.42046 0.05947 0.21431 0.0
C930 C 0.42259 0.07606 0.20227 0.0
H931 H 0.44746 0.03719 0.15642 0.0
H932 H 0.44585 0.03581 0.17491 0.0
H933 H 0.41317 0.02694 0.16492 0.0
H934 H 0.37326 0.03686 0.18243 0.0
H935 H 0.36934 0.00764 0.2036 0.0
H936 H 0.12808 0.54535 0.87824 0.0
H937 H 0.14114 0.57346 0.85767 0.0
H938 H 0.19905 0.63043 0.88167 0.0
H939 H 0.18625 0.60243 0.90235 0.0
H940 H 0.14077 0.63807 0.85069 0.0
H941 H 0.25417 0.58561 0.85313 0.0
H942 H 0.22267 0.57149 0.86275 0.0
H943 H 0.24135 0.60495 0.86824 0.0
C944 C 0.14311 0.56424 0.87922 0.0
C945 C 0.15646 0.57138 0.8919 0.0
C946 C 0.1505 0.58029 0.86745 0.0
C947 C 0.17136 0.60366 0.86817 0.0
C948 C 0.18313 0.61222 0.88093 0.0
H949 H 0.23164 0.70734 0.79711 0.0
H950 H 0.21479 0.6938 0.8202 0.0
C951 C 0.17571 0.59624 0.89273 0.0
C952 C 0.18292 0.6169 0.85537 0.0
H953 H 0.24409 0.61666 0.83432 0.0
C954 C 0.16344 0.63375 0.84715 0.0
C955 C 0.21243 0.61082 0.85079 0.0
C956 C 0.23393 0.59208 0.8591 0.0
C957 C 0.17268 0.64445 0.83431 0.0
C958 C 0.20205 0.63804 0.82968 0.0
C959 C 0.22164 0.62159 0.83799 0.0
C960 C 0.21227 0.6465 0.81584 0.0
C961 C 0.15076 0.66164 0.82556 0.0
C962 C 0.2168 0.62427 0.80588 0.0
C963 C 0.22632 0.63189 0.79272 0.0
C964 C 0.23174 0.66186 0.78936 0.0
C965 C 0.2276 0.68406 0.79942 0.0
C966 C 0.21788 0.67642 0.81257 0.0
H967 H 0.12769 0.66142 0.82988 0.0
H968 H 0.15828 0.68518 0.82477 0.0
H969 H 0.15007 0.65216 0.81502 0.0
H970 H 0.21269 0.60103 0.80828 0.0
H971 H 0.22939 0.6143 0.7852 0.0
H972 H 0.60991 0.64653 0.13994 0.0
H973 H 0.58713 0.65925 0.11796 0.0
H974 H 0.51807 0.70928 0.13885 0.0
H975 H 0.54115 0.69725 0.16096 0.0
H976 H 0.53122 0.65171 0.1062 0.0
H977 H 0.55674 0.77206 0.11442 0.0
H978 H 0.57181 0.74319 0.1253 0.0
H979 H 0.53357 0.75528 0.12733 0.0
C980 C 0.58963 0.65989 0.13991 0.0
C981 C 0.57761 0.67127 0.1522 0.0
C982 C 0.57663 0.66714 0.12732 0.0
C983 C 0.55136 0.6858 0.12678 0.0
C984 C 0.53803 0.69546 0.13905 0.0
H985 H 0.46301 0.75285 0.05254 0.0
H986 H 0.47283 0.73793 0.07632 0.0
C987 C 0.55113 0.68837 0.15167 0.0
C988 C 0.54029 0.69639 0.11331 0.0
H989 H 0.53316 0.75894 0.09361 0.0
C990 C 0.5314 0.67516 0.10349 0.0
C991 C 0.5408 0.72704 0.10977 0.0
C992 C 0.55147 0.75075 0.11969 0.0
C993 C 0.52336 0.68375 0.09016 0.0
C994 C 0.5243 0.71425 0.08662 0.0
C995 C 0.53242 0.73558 0.09647 0.0
C996 C 0.51858 0.72414 0.07245 0.0
C997 C 0.51441 0.66027 0.07981 0.0
C998 C 0.5413 0.72171 0.06259 0.0
C999 C 0.53588 0.73036 0.04906 0.0
C1000 C 0.50758 0.74143 0.04522 0.0
C1001 C 0.48502 0.74433 0.05521 0.0
C1002 C 0.49053 0.73582 0.06876 0.0
H1003 H 0.51165 0.63794 0.08455 0.0
H1004 H 0.49302 0.66668 0.07473 0.0
H1005 H 0.5319 0.65869 0.07174 0.0
H1006 H 0.56314 0.71286 0.06534 0.0
H1007 H 0.5537 0.72789 0.04159 0.0
H1008 H 0.4584 0.04016 0.40321 0.0
H1009 H 0.44865 0.02048 0.38021 0.0
H1010 H 0.52497 0.06894 0.36474 0.0
H1011 H 0.53512 0.08848 0.3877 0.0
H1012 H 0.43501 0.05582 0.35798 0.0
H1013 H 0.53562 0.98717 0.34688 0.0
H1014 H 0.52568 0.99879 0.36404 0.0
H1015 H 0.5447 0.02412 0.35273 0.0
C1016 C 0.47351 0.04616 0.39498 0.0
C1017 C 0.49754 0.06593 0.39731 0.0
C1018 C 0.46785 0.03492 0.38183 0.0
C1019 C 0.48623 0.043 0.37078 0.0
C1020 C 0.51085 0.0619 0.37316 0.0
H1021 H 0.48467 0.04306 0.28347 0.0
H1022 H 0.49464 0.04691 0.308 0.0
C1023 C 0.51654 0.07316 0.3863 0.0
C1024 C 0.47807 0.03412 0.35659 0.0
H1025 H 0.50569 0.00154 0.32751 0.0
C1026 C 0.45024 0.04353 0.35136 0.0
C1027 C 0.49801 0.01814 0.348 0.0
C1028 C 0.52755 0.0062 0.35322 0.0
C1029 C 0.44238 0.0386 0.33759 0.0
C1030 C 0.46272 0.02343 0.32889 0.0
C1031 C 0.49017 0.01322 0.33421 0.0
C1032 C 0.45681 0.01975 0.31401 0.0
C1033 C 0.41297 0.05084 0.33232 0.0
C1034 C 0.43239 0.00284 0.30924 0.0
C1035 C 0.42648 0.00062 0.29517 0.0
C1036 C 0.445 0.01521 0.28561 0.0
C1037 C 0.46979 0.03163 0.29049 0.0
C1038 C 0.47564 0.0338 0.30452 0.0
H1039 H 0.40273 0.06703 0.3396 0.0
H1040 H 0.41616 0.06204 0.32228 0.0
H1041 H 0.39692 0.03218 0.33079 0.0
H1042 H 0.41784 0.99144 0.31641 0.0
H1043 H 0.4073 0.98765 0.2918 0.0
H1044 H 0.11171 0.98343 0.65066 0.0
H1045 H 0.13492 0.96662 0.62927 0.0
H1046 H 0.10085 0.04459 0.60865 0.0
H1047 H 0.0774 0.06156 0.62995 0.0
H1048 H 0.09819 0.95519 0.6057 0.0
H1049 H 0.18875 0.03652 0.59459 0.0
H1050 H 0.17401 0.03075 0.61164 0.0
H1051 H 0.15368 0.05325 0.59956 0.0
C1052 C 0.10979 0.99744 0.64168 0.0
C1053 C 0.09255 0.0238 0.64199 0.0
C1054 C 0.12303 0.98773 0.62946 0.0
C1055 C 0.11972 0.00443 0.61742 0.0
C1056 C 0.10404 0.0316 0.61788 0.0
H1057 H 0.11273 0.97865 0.53183 0.0
H1058 H 0.10859 0.99226 0.55602 0.0
C1059 C 0.09056 0.04121 0.63006 0.0
C1060 C 0.12924 0.99186 0.60406 0.0
H1061 H 0.17132 0.00678 0.57566 0.0
C1062 C 0.11462 0.96611 0.59923 0.0
C1063 C 0.15066 0.00617 0.59567 0.0
C1064 C 0.16793 0.03306 0.60065 0.0
C1065 C 0.11978 0.95519 0.58594 0.0
C1066 C 0.14008 0.97035 0.57734 0.0
C1067 C 0.15568 0.99532 0.58233 0.0
C1068 C 0.14334 0.96198 0.56277 0.0
C1069 C 0.1026 0.9283 0.58088 0.0
C1070 C 0.16423 0.94034 0.55866 0.0
C1071 C 0.16667 0.93235 0.54481 0.0
C1072 C 0.14825 0.946 0.53487 0.0
C1073 C 0.12733 0.96769 0.53914 0.0
C1074 C 0.12493 0.97558 0.55296 0.0
H1075 H 0.08882 0.918 0.58908 0.0
H1076 H 0.08755 0.935 0.57234 0.0
H1077 H 0.11844 0.91131 0.5768 0.0
H1078 H 0.17855 0.92961 0.56616 0.0
H1079 H 0.18305 0.91562 0.5419 0.0
H1080 H 0.64518 0.56853 0.87484 0.0
H1081 H 0.65227 0.5432 0.89688 0.0
H1082 H 0.74704 0.56294 0.89541 0.0
H1083 H 0.74042 0.58694 0.87332 0.0
H1084 H 0.7383 0.50867 0.90503 0.0
H1085 H 0.66303 0.5883 0.93219 0.0
H1086 H 0.64522 0.56734 0.91873 0.0
H1087 H 0.67434 0.59364 0.91463 0.0
C1088 C 0.66755 0.56711 0.87916 0.0
C1089 C 0.69217 0.57999 0.8724 0.0
C1090 C 0.67154 0.55286 0.8918 0.0
C1091 C 0.70008 0.5518 0.89795 0.0
C1092 C 0.72479 0.56356 0.89091 0.0
H1093 H 0.751 0.54777 0.98238 0.0
H1094 H 0.737 0.55919 0.95873 0.0
C1095 C 0.72092 0.57737 0.87825 0.0
C1096 C 0.70458 0.53972 0.91195 0.0
H1097 H 0.686 0.55112 0.94551 0.0
C1098 C 0.72673 0.51779 0.91389 0.0
C1099 C 0.68973 0.55195 0.92351 0.0
C1100 C 0.66695 0.57679 0.92223 0.0
C1101 C 0.73517 0.50845 0.92707 0.0
C1102 C 0.72022 0.5206 0.93861 0.0
C1103 C 0.69738 0.54179 0.93665 0.0
C1104 C 0.72908 0.51316 0.95287 0.0
C1105 C 0.76102 0.48684 0.92846 0.0
C1106 C 0.72925 0.4835 0.95747 0.0
C1107 C 0.73786 0.4769 0.97092 0.0
C1108 C 0.74571 0.49991 0.98008 0.0
C1109 C 0.74506 0.52959 0.97554 0.0
C1110 C 0.73698 0.53613 0.96204 0.0
H1111 H 0.77512 0.48623 0.91907 0.0
H1112 H 0.77555 0.49278 0.93732 0.0
H1113 H 0.75205 0.46404 0.93011 0.0
H1114 H 0.72247 0.46547 0.95072 0.0
H1115 H 0.73784 0.45383 0.97421 0.0
H1116 H 0.57553 0.14539 0.13259 0.0
H1117 H 0.59592 0.15277 0.15567 0.0
H1118 H 0.6512 0.22474 0.14091 0.0
H1119 H 0.63069 0.21784 0.11784 0.0
H1120 H 0.65534 0.15432 0.16706 0.0
H1121 H 0.59734 0.26421 0.17018 0.0
H1122 H 0.58909 0.23718 0.15693 0.0
H1123 H 0.62246 0.25957 0.15593 0.0
C1124 C 0.59243 0.16244 0.13419 0.0
C1125 C 0.60119 0.18131 0.12342 0.0
C1126 C 0.60403 0.16663 0.14739 0.0
C1127 C 0.62457 0.18969 0.15002 0.0
C1128 C 0.6349 0.20721 0.13912 0.0
H1129 H 0.68258 0.26376 0.22884 0.0
H1130 H 0.67855 0.25268 0.20431 0.0
C1131 C 0.62324 0.20314 0.12594 0.0
C1132 C 0.63342 0.19673 0.16432 0.0
H1133 H 0.62577 0.24967 0.18936 0.0
C1134 C 0.64904 0.17521 0.17194 0.0
C1135 C 0.62516 0.22404 0.17062 0.0
C1136 C 0.60738 0.24754 0.16307 0.0
C1137 C 0.65651 0.18024 0.18576 0.0
C1138 C 0.64761 0.20725 0.19214 0.0
C1139 C 0.63263 0.22903 0.18442 0.0
C1140 C 0.65192 0.21276 0.207 0.0
C1141 C 0.67392 0.15665 0.19339 0.0
C1142 C 0.63809 0.19411 0.21662 0.0
C1143 C 0.64027 0.20037 0.23063 0.0
C1144 C 0.65618 0.22557 0.23531 0.0
C1145 C 0.67019 0.24414 0.22562 0.0
C1146 C 0.66795 0.23784 0.2116 0.0
H1147 H 0.68665 0.14197 0.18626 0.0
H1148 H 0.6899 0.16686 0.20081 0.0
H1149 H 0.65802 0.14244 0.19919 0.0
H1150 H 0.62499 0.17505 0.21328 0.0
H1151 H 0.62912 0.18559 0.23775 0.0
H1152 H 0.94735 0.11773 0.36334 0.0
H1153 H 0.93899 0.14242 0.38539 0.0
H1154 H 0.02227 0.10611 0.40066 0.0
H1155 H 0.03112 0.0818 0.37854 0.0
H1156 H 0.93152 0.11187 0.40898 0.0
H1157 H 0.02599 0.19134 0.41482 0.0
H1158 H 0.01605 0.17475 0.39852 0.0
H1159 H 0.03812 0.15415 0.41072 0.0
C1160 C 0.96424 0.11552 0.37129 0.0
C1161 C 0.98983 0.09768 0.36923 0.0
C1162 C 0.9594 0.12964 0.38388 0.0
C1163 C 0.98007 0.12625 0.39464 0.0
C1164 C 0.00631 0.10953 0.39242 0.0
H1165 H 0.94445 0.12802 0.48128 0.0
H1166 H 0.95503 0.11572 0.45731 0.0
C1167 C 0.01127 0.09553 0.37978 0.0
C1168 C 0.97255 0.13734 0.40855 0.0
H1169 H 0.99867 0.17949 0.43526 0.0
C1170 C 0.94606 0.12692 0.41467 0.0
C1171 C 0.9914 0.15713 0.41591 0.0
C1172 C 0.01933 0.17025 0.40961 0.0
C1173 C 0.93831 0.13507 0.42809 0.0
C1174 C 0.95788 0.1537 0.43568 0.0
C1175 C 0.9839 0.16491 0.42945 0.0
C1176 C 0.95189 0.16132 0.45019 0.0
C1177 C 0.90922 0.12372 0.43403 0.0
C1178 C 0.94727 0.1911 0.45415 0.0
C1179 C 0.94132 0.19821 0.46785 0.0
C1180 C 0.94011 0.17563 0.4778 0.0
C1181 C 0.94508 0.14587 0.47382 0.0
C1182 C 0.951 0.13879 0.46014 0.0
H1183 H 0.89327 0.11664 0.42587 0.0
H1184 H 0.91394 0.10406 0.44059 0.0
H1185 H 0.89825 0.14105 0.44048 0.0
H1186 H 0.94799 0.20879 0.44661 0.0
H1187 H 0.93766 0.22136 0.47063 0.0
H1188 H 0.10134 0.5289 0.63077 0.0
H1189 H 0.07852 0.51553 0.65269 0.0
H1190 H 0.02965 0.44428 0.63293 0.0
H1191 H 0.05227 0.45751 0.61089 0.0
H1192 H 0.01325 0.50674 0.66051 0.0
H1193 H 0.08628 0.40586 0.66356 0.0
H1194 H 0.09492 0.43689 0.65248 0.0
H1195 H 0.06526 0.4116 0.648 0.0
C1196 C 0.08537 0.51069 0.63103 0.0
C1197 C 0.07879 0.49412 0.61912 0.0
C1198 C 0.07234 0.50313 0.64355 0.0
C1199 C 0.05273 0.47876 0.64439 0.0
C1200 C 0.04493 0.46305 0.63244 0.0
H1201 H 0.9598 0.42423 0.71933 0.0
H1202 H 0.97121 0.43578 0.69536 0.0
C1203 C 0.05779 0.47073 0.61987 0.0
C1204 C 0.04222 0.46868 0.65795 0.0
H1205 H 0.05422 0.41529 0.68223 0.0
C1206 C 0.0219 0.48661 0.66524 0.0
C1207 C 0.05393 0.44259 0.66406 0.0
C1208 C 0.07645 0.42308 0.65672 0.0
C1209 C 0.01315 0.47922 0.67863 0.0
C1210 C 0.02503 0.45321 0.68477 0.0
C1211 C 0.04511 0.43513 0.67741 0.0
C1212 C 0.01814 0.44523 0.69912 0.0
C1213 C 0.99208 0.49974 0.68627 0.0
C1214 C 0.04095 0.44604 0.70905 0.0
C1215 C 0.03455 0.43943 0.72272 0.0
C1216 C 0.00524 0.43172 0.72664 0.0
C1217 C 0.98257 0.43025 0.71661 0.0
C1218 C 0.98899 0.43695 0.70294 0.0
H1219 H 0.9893 0.52154 0.68102 0.0
H1220 H 0.96968 0.48904 0.68702 0.0
H1221 H 0.00036 0.50386 0.69686 0.0
H1222 H 0.06363 0.45227 0.70625 0.0
H1223 H 0.05249 0.44064 0.73022 0.0
H1224 H 0.53735 0.22462 0.41212 0.0
H1225 H 0.56054 0.25548 0.39443 0.0
H1226 H 0.50667 0.21166 0.36355 0.0
H1227 H 0.48303 0.1813 0.3811 0.0
H1228 H 0.59449 0.23003 0.37508 0.0
H1229 H 0.50616 0.29574 0.34943 0.0
H1230 H 0.50067 0.27909 0.36608 0.0
H1231 H 0.49518 0.25737 0.35067 0.0
C1232 C 0.52968 0.22227 0.40162 0.0
C1233 C 0.50859 0.20021 0.398 0.0
C1234 C 0.54302 0.23991 0.39152 0.0
C1235 C 0.53531 0.23598 0.37766 0.0
C1236 C 0.5126 0.21558 0.37418 0.0
H1237 H 0.60637 0.23856 0.29832 0.0
H1238 H 0.57898 0.23449 0.31991 0.0
C1239 C 0.49921 0.19802 0.38426 0.0
C1240 C 0.55406 0.24921 0.36669 0.0
H1241 H 0.54964 0.28285 0.3354 0.0
C1242 C 0.58485 0.24229 0.36657 0.0
C1243 C 0.5415 0.2652 0.35559 0.0
C1244 C 0.50911 0.27504 0.35552 0.0
C1245 C 0.60291 0.24902 0.35522 0.0
C1246 C 0.58984 0.26322 0.34376 0.0
C1247 C 0.5595 0.27171 0.34419 0.0
C1248 C 0.60646 0.26668 0.33075 0.0
C1249 C 0.63535 0.23923 0.35518 0.0
C1250 C 0.63102 0.28614 0.32973 0.0
C1251 C 0.64683 0.28848 0.31738 0.0
C1252 C 0.63823 0.27138 0.30589 0.0
C1253 C 0.6136 0.25196 0.30699 0.0
C1254 C 0.59783 0.24971 0.31929 0.0
H1255 H 0.64096 0.22505 0.36415 0.0
H1256 H 0.6405 0.22658 0.34565 0.0
H1257 H 0.65006 0.2592 0.35544 0.0
H1258 H 0.63786 0.29957 0.33845 0.0
H1259 H 0.66562 0.30375 0.3168 0.0
H1260 H 0.01544 0.99317 0.62683 0.0
H1261 H 0.98937 0.01686 0.60785 0.0
H1262 H 0.9178 0.04352 0.63509 0.0
H1263 H 0.94484 0.02109 0.65442 0.0
H1264 H 0.9386 0.01033 0.59547 0.0
H1265 H 0.93925 0.12273 0.61976 0.0
H1266 H 0.95887 0.09143 0.62709 0.0
H1267 H 0.91889 0.09511 0.62921 0.0
C1268 C 0.99394 0.00368 0.6288 0.0
C1269 C 0.98227 0.00542 0.64216 0.0
C1270 C 0.97905 0.01733 0.61791 0.0
C1271 C 0.95193 0.03267 0.62006 0.0
C1272 C 0.93917 0.03271 0.63324 0.0
H1273 H 0.87155 0.09547 0.54282 0.0
H1274 H 0.87547 0.07139 0.56526 0.0
C1275 C 0.95444 0.01956 0.64424 0.0
C1276 C 0.93805 0.04924 0.60847 0.0
H1277 H 0.91794 0.11901 0.59775 0.0
C1278 C 0.93391 0.03408 0.59599 0.0
C1279 C 0.93216 0.08032 0.60912 0.0
C1280 C 0.93775 0.09846 0.62197 0.0
C1281 C 0.92556 0.0492 0.584 0.0
C1282 C 0.91955 0.08027 0.58464 0.0
C1283 C 0.92236 0.09521 0.59727 0.0
C1284 C 0.91321 0.09809 0.57211 0.0
C1285 C 0.92521 0.03189 0.57066 0.0
C1286 C 0.93131 0.12284 0.56896 0.0
C1287 C 0.92822 0.13742 0.55638 0.0
C1288 C 0.90739 0.12708 0.54666 0.0
C1289 C 0.8881 0.10351 0.55011 0.0
C1290 C 0.89054 0.08957 0.56286 0.0
H1291 H 0.93823 0.01079 0.57141 0.0
H1292 H 0.90172 0.0259 0.56803 0.0
H1293 H 0.93472 0.04528 0.56216 0.0
H1294 H 0.94881 0.13005 0.57595 0.0
H1295 H 0.94335 0.15555 0.55393 0.0
H1296 H 0.10721 0.42593 0.91273 0.0
H1297 H 0.08801 0.40754 0.89078 0.0
H1298 H 0.16655 0.4417 0.87038 0.0
H1299 H 0.18603 0.46004 0.89225 0.0
H1300 H 0.07578 0.44868 0.86998 0.0
H1301 H 0.15335 0.36065 0.8514 0.0
H1302 H 0.15121 0.37167 0.86923 0.0
H1303 H 0.17208 0.39386 0.85724 0.0
C1304 C 0.12088 0.42876 0.90365 0.0
C1305 C 0.14804 0.44474 0.90424 0.0
C1306 C 0.10981 0.41826 0.89111 0.0
C1307 C 0.12587 0.4232 0.87897 0.0
C1308 C 0.154 0.43723 0.87965 0.0
H1309 H 0.09917 0.42911 0.79242 0.0
H1310 H 0.11689 0.42891 0.8161 0.0
C1311 C 0.16507 0.44781 0.89218 0.0
C1312 C 0.11148 0.41774 0.86548 0.0
H1313 H 0.12149 0.38328 0.83455 0.0
C1314 C 0.08545 0.434 0.86229 0.0
C1315 C 0.1243 0.39876 0.85547 0.0
C1316 C 0.15163 0.38001 0.85852 0.0
C1317 C 0.07265 0.43289 0.84914 0.0
C1318 C 0.08589 0.41445 0.83899 0.0
C1319 C 0.1114 0.39744 0.84233 0.0
C1320 C 0.07475 0.4139 0.82465 0.0
C1321 C 0.04598 0.45261 0.84606 0.0
C1322 C 0.04515 0.40537 0.82156 0.0
C1323 C 0.03477 0.40582 0.80801 0.0
C1324 C 0.05397 0.41435 0.79726 0.0
C1325 C 0.08374 0.42244 0.80041 0.0
C1326 C 0.09397 0.42224 0.81395 0.0
H1327 H 0.04324 0.47056 0.85386 0.0
H1328 H 0.04817 0.46311 0.83582 0.0
H1329 H 0.02525 0.43889 0.84608 0.0
H1330 H 0.03011 0.39826 0.82962 0.0
H1331 H 0.01183 0.39911 0.80594 0.0
H1332 H 0.72413 0.67751 0.14789 0.0
H1333 H 0.7443 0.66305 0.1255 0.0
H1334 H 0.76011 0.57386 0.14034 0.0
H1335 H 0.74083 0.58824 0.16283 0.0
H1336 H 0.80362 0.59238 0.12165 0.0
H1337 H 0.68809 0.61208 0.10203 0.0
H1338 H 0.70519 0.6443 0.10975 0.0
H1339 H 0.69691 0.61218 0.12008 0.0
C1340 C 0.73263 0.65503 0.14651 0.0
C1341 C 0.73029 0.63386 0.15707 0.0
C1342 C 0.74398 0.64676 0.13368 0.0
C1343 C 0.75281 0.61715 0.13116 0.0
C1344 C 0.75312 0.59675 0.14203 0.0
H1345 H 0.77958 0.50673 0.05876 0.0
H1346 H 0.77757 0.52592 0.08231 0.0
C1347 C 0.74204 0.60505 0.15489 0.0
C1348 C 0.75854 0.60657 0.11698 0.0
H1349 H 0.72456 0.5977 0.08581 0.0
C1350 C 0.78641 0.59359 0.11379 0.0
C1351 C 0.73582 0.60774 0.10681 0.0
C1352 C 0.70472 0.61954 0.10983 0.0
C1353 C 0.79232 0.58228 0.10059 0.0
C1354 C 0.7697 0.58384 0.09044 0.0
C1355 C 0.7419 0.59675 0.09364 0.0
C1356 C 0.77408 0.57227 0.07635 0.0
C1357 C 0.82275 0.56907 0.09753 0.0
C1358 C 0.77264 0.59196 0.06524 0.0
C1359 C 0.77364 0.58114 0.05181 0.0
C1360 C 0.77584 0.55028 0.04919 0.0
C1361 C 0.77789 0.53059 0.06038 0.0
C1362 C 0.77696 0.54153 0.07385 0.0
H1363 H 0.83953 0.57489 0.10554 0.0
H1364 H 0.82083 0.54439 0.09704 0.0
H1365 H 0.83107 0.5769 0.08743 0.0
H1366 H 0.77023 0.61574 0.06697 0.0
H1367 H 0.77211 0.59703 0.0435 0.0
loop_
_geom_bond_atom_site_label_1
_geom_bond_atom_site_label_2
_geom_bond_distance
_geom_bond_site_symmetry_2
_ccdc_geom_bond_type
Mg0 O7 2.141 . S
Mg0 O8 2.048 . S
Mg0 O9 2.048 1_455 S
Mg0 O12 2.141 1_455 S
C1 O2 1.313 . S
C1 O8 1.195 1_565 S
O2 C1 1.313 . S
C3 O4 1.245 . S
C3 O12 1.289 . S
O4 C3 1.245 . S
C5 O6 1.245 . S
C5 O7 1.289 1_565 S
O6 C5 1.245 . S
O7 Mg0 2.141 . S
O7 C5 1.289 1_545 S
O8 Mg0 2.048 . S
O8 C1 1.195 1_545 S
O9 Mg0 2.048 1_655 S
O9 C10 1.195 . S
C10 O9 1.195 . S
C10 O11 1.313 . S
O11 C10 1.313 . S
O12 Mg0 2.141 1_655 S
O12 C3 1.289 . S
Mg13 O20 2.141 . S
Mg13 O21 2.048 . S
Mg13 O22 2.048 . S
Mg13 O25 2.141 . S
C14 O15 1.313 . S
C14 O21 1.195 . S
O15 C14 1.313 . S
C16 O17 1.245 . S
C16 O25 1.289 . S
O17 C16 1.245 . S
C18 O19 1.245 . S
C18 O20 1.289 . S
O19 C18 1.245 . S
O20 Mg13 2.141 . S
O20 C18 1.289 . S
O21 Mg13 2.048 . S
O21 C14 1.195 . S
O22 Mg13 2.048 . S
O22 C23 1.195 . S
C23 O22 1.195 . S
C23 O24 1.313 . S
O24 C23 1.313 . S
O25 Mg13 2.141 . S
O25 C16 1.289 . S
Mg26 O33 2.141 . S
Mg26 O34 2.048 . S
Mg26 O35 2.048 . S
Mg26 O38 2.141 . S
C27 O28 1.313 . S
C27 O34 1.195 . S
O28 C27 1.313 . S
C29 O30 1.245 . S
C29 O38 1.289 . S
O30 C29 1.245 . S
C31 O32 1.245 . S
C31 O33 1.289 . S
O32 C31 1.245 . S
O33 Mg26 2.141 . S
O33 C31 1.289 . S
O34 Mg26 2.048 . S
O34 C27 1.195 . S
O35 Mg26 2.048 . S
O35 C36 1.195 . S
C36 O35 1.195 . S
C36 O37 1.313 . S
O37 C36 1.313 . S
O38 Mg26 2.141 . S
O38 C29 1.289 . S
Mg39 O46 2.141 . S
Mg39 O47 2.048 . S
Mg39 O48 2.048 . S
Mg39 O51 2.141 . S
C40 O41 1.313 . S
C40 O47 1.195 . S
O41 C40 1.313 . S
C42 O43 1.245 . S
C42 O51 1.289 . S
O43 C42 1.245 . S
C44 O45 1.245 . S
C44 O46 1.289 . S
O45 C44 1.245 . S
O46 Mg39 2.141 . S
O46 C44 1.289 . S
O47 Mg39 2.048 . S
O47 C40 1.195 . S
O48 Mg39 2.048 . S
O48 C49 1.195 . S
C49 O48 1.195 . S
C49 O50 1.313 . S
O50 C49 1.313 . S
O51 Mg39 2.141 . S
O51 C42 1.289 . S
Mg52 O59 2.141 . S
Mg52 O60 2.048 . S
Mg52 O61 2.048 . S
Mg52 O64 2.141 . S
C53 O54 1.313 . S
C53 O60 1.195 . S
O54 C53 1.313 . S
C55 O56 1.245 . S
C55 O64 1.289 . S
O56 C55 1.245 . S
C57 O58 1.245 . S
C57 O59 1.289 . S
O58 C57 1.245 . S
O59 Mg52 2.141 . S
O59 C57 1.289 . S
O60 Mg52 2.048 . S
O60 C53 1.195 . S
O61 Mg52 2.048 . S
O61 C62 1.195 . S
C62 O61 1.195 . S
C62 O63 1.313 . S
O63 C62 1.313 . S
O64 Mg52 2.141 . S
O64 C55 1.289 . S
Mg65 O72 2.141 . S
Mg65 O73 2.048 . S
Mg65 O74 2.048 . S
Mg65 O77 2.141 . S
C66 O67 1.313 . S
C66 O73 1.195 . S
O67 C66 1.313 . S
C68 O69 1.245 . S
C68 O77 1.289 . S
O69 C68 1.245 . S
C70 O71 1.245 . S
C70 O72 1.289 . S
O71 C70 1.245 . S
O72 Mg65 2.141 . S
O72 C70 1.289 . S
O73 Mg65 2.048 . S
O73 C66 1.195 . S
O74 Mg65 2.048 . S
O74 C75 1.195 . S
C75 O74 1.195 . S
C75 O76 1.313 . S
O76 C75 1.313 . S
O77 Mg65 2.141 . S
O77 C68 1.289 . S
Mg78 O85 2.141 . S
Mg78 O86 2.048 . S
Mg78 O87 2.048 . S
Mg78 O90 2.141 . S
C79 O80 1.313 . S
C79 O86 1.195 . S
O80 C79 1.313 . S
C81 O82 1.245 . S
C81 O90 1.289 . S
O82 C81 1.245 . S
C83 O84 1.245 . S
C83 O85 1.289 . S
O84 C83 1.245 . S
O85 Mg78 2.141 . S
O85 C83 1.289 . S
O86 Mg78 2.048 . S
O86 C79 1.195 . S
O87 Mg78 2.048 . S
O87 C88 1.195 . S
C88 O87 1.195 . S
C88 O89 1.313 . S
O89 C88 1.313 . S
O90 Mg78 2.141 . S
O90 C81 1.289 . S
Mg91 O98 2.141 . S
Mg91 O99 2.048 . S
Mg91 O100 2.048 1_465 S
Mg91 O103 2.141 1_465 S
C92 O93 1.313 . S
C92 O99 1.195 . S
O93 C92 1.313 . S
C94 O95 1.245 . S
C94 O103 1.289 1_455 S
O95 C94 1.245 . S
C96 O97 1.245 . S
C96 O98 1.289 . S
O97 C96 1.245 . S
O98 Mg91 2.141 . S
O98 C96 1.289 . S
O99 Mg91 2.048 . S
O99 C92 1.195 . S
O100 Mg91 2.048 1_645 S
O100 C101 1.195 . S
C101 O100 1.195 . S
C101 O102 1.313 1_655 S
O102 C101 1.313 1_455 S
O103 Mg91 2.141 1_645 S
O103 C94 1.289 1_655 S
Co104 O105 2.216 1_554 S
Co104 O106 2.091 1_554 S
Co104 O108 2.004 . S
Co104 O114 2.021 1_554 S
Co104 O116 2.137 . S
Co104 O117 2.244 . S
O105 Co104 2.216 1_556 S
O105 C112 1.247 . S
O106 Co104 2.091 1_556 S
O106 C112 1.261 . S
C107 O116 1.247 . S
C107 O117 1.272 . S
O108 Co104 2.004 . S
O108 C113 1.259 . S
Co109 O110 2.061 . S
Co109 O115 2.052 1_554 S
Co109 O117 2.135 . S
O110 Co109 2.061 . S
O110 C113 1.235 . S
C111 O114 1.238 . S
C111 O115 1.241 . S
C112 O105 1.247 . S
C112 O106 1.261 . S
C113 O108 1.259 . S
C113 O110 1.235 . S
O114 Co104 2.021 1_556 S
O114 C111 1.238 . S
O115 Co109 2.052 1_556 S
O115 C111 1.241 . S
O116 Co104 2.137 . S
O116 C107 1.247 . S
O117 Co104 2.244 . S
O117 C107 1.272 . S
O117 Co109 2.135 . S
Co118 O119 2.216 . S
Co118 O120 2.091 . S
Co118 O122 2.004 . S
Co118 O128 2.021 . S
Co118 O130 2.137 . S
Co118 O131 2.244 . S
O119 Co118 2.216 . S
O119 C126 1.247 . S
O120 Co118 2.091 . S
O120 C126 1.261 . S
C121 O130 1.247 . S
C121 O131 1.272 . S
O122 Co118 2.004 . S
O122 C127 1.259 . S
Co123 O124 2.061 . S
Co123 O129 2.052 . S
Co123 O131 2.135 . S
O124 Co123 2.061 . S
O124 C127 1.235 . S
C125 O128 1.238 . S
C125 O129 1.241 . S
C126 O119 1.247 . S
C126 O120 1.261 . S
C127 O122 1.259 . S
C127 O124 1.235 . S
O128 Co118 2.021 . S
O128 C125 1.238 . S
O129 Co123 2.052 . S
O129 C125 1.241 . S
O130 Co118 2.137 . S
O130 C121 1.247 . S
O131 Co118 2.244 . S
O131 C121 1.272 . S
O131 Co123 2.135 . S
Co132 O133 2.216 . S
Co132 O134 2.091 . S
Co132 O136 2.004 . S
Co132 O142 2.021 . S
Co132 O144 2.137 . S
Co132 O145 2.244 . S
O133 Co132 2.216 . S
O133 C140 1.247 . S
O134 Co132 2.091 . S
O134 C140 1.261 . S
C135 O144 1.247 . S
C135 O145 1.272 . S
O136 Co132 2.004 . S
O136 C141 1.259 . S
Co137 O138 2.061 . S
Co137 O143 2.052 . S
Co137 O145 2.135 . S
O138 Co137 2.061 . S
O138 C141 1.235 . S
C139 O142 1.238 . S
C139 O143 1.241 . S
C140 O133 1.247 . S
C140 O134 1.261 . S
C141 O136 1.259 . S
C141 O138 1.235 . S
O142 Co132 2.021 . S
O142 C139 1.238 . S
O143 Co137 2.052 . S
O143 C139 1.241 . S
O144 Co132 2.137 . S
O144 C135 1.247 . S
O145 Co132 2.244 . S
O145 C135 1.272 . S
O145 Co137 2.135 . S
Co146 O147 2.216 . S
Co146 O148 2.091 . S
Co146 O150 2.004 . S
Co146 O156 2.021 . S
Co146 O158 2.137 . S
Co146 O159 2.244 . S
O147 Co146 2.216 . S
O147 C154 1.247 . S
O148 Co146 2.091 . S
O148 C154 1.261 . S
C149 O158 1.247 . S
C149 O159 1.272 . S
O150 Co146 2.004 . S
O150 C155 1.259 . S
Co151 O152 2.061 . S
Co151 O157 2.052 . S
Co151 O159 2.135 . S
O152 Co151 2.061 . S
O152 C155 1.235 . S
C153 O156 1.238 . S
C153 O157 1.241 . S
C154 O147 1.247 . S
C154 O148 1.261 . S
C155 O150 1.259 . S
C155 O152 1.235 . S
O156 Co146 2.021 . S
O156 C153 1.238 . S
O157 Co151 2.052 . S
O157 C153 1.241 . S
O158 Co146 2.137 . S
O158 C149 1.247 . S
O159 Co146 2.244 . S
O159 C149 1.272 . S
O159 Co151 2.135 . S
Co160 O161 2.216 . S
Co160 O162 2.091 . S
Co160 O164 2.004 . S
Co160 O170 2.021 . S
Co160 O172 2.137 . S
Co160 O173 2.244 . S
O161 Co160 2.216 . S
O161 C168 1.247 . S
O162 Co160 2.091 . S
O162 C168 1.261 . S
C163 O172 1.247 . S
C163 O173 1.272 . S
O164 Co160 2.004 . S
O164 C169 1.259 . S
Co165 O166 2.061 . S
Co165 O171 2.052 . S
Co165 O173 2.135 . S
O166 Co165 2.061 . S
O166 C169 1.235 . S
C167 O170 1.238 . S
C167 O171 1.241 . S
C168 O161 1.247 . S
C168 O162 1.261 . S
C169 O164 1.259 . S
C169 O166 1.235 . S
O170 Co160 2.021 . S
O170 C167 1.238 . S
O171 Co165 2.052 . S
O171 C167 1.241 . S
O172 Co160 2.137 . S
O172 C163 1.247 . S
O173 Co160 2.244 . S
O173 C163 1.272 . S
O173 Co165 2.135 . S
Co174 O175 2.216 . S
Co174 O176 2.091 . S
Co174 O178 2.004 . S
Co174 O184 2.021 . S
Co174 O186 2.137 . S
Co174 O187 2.244 . S
O175 Co174 2.216 . S
O175 C182 1.247 . S
O176 Co174 2.091 . S
O176 C182 1.261 . S
C177 O186 1.247 . S
C177 O187 1.272 . S
O178 Co174 2.004 . S
O178 C183 1.259 . S
Co179 O180 2.061 1_455 S
Co179 O185 2.052 . S
Co179 O187 2.135 1_455 S
O180 Co179 2.061 1_655 S
O180 C183 1.235 . S
C181 O184 1.238 . S
C181 O185 1.241 1_655 S
C182 O175 1.247 . S
C182 O176 1.261 . S
C183 O178 1.259 . S
C183 O180 1.235 . S
O184 Co174 2.021 . S
O184 C181 1.238 . S
O185 Co179 2.052 . S
O185 C181 1.241 1_455 S
O186 Co174 2.137 . S
O186 C177 1.247 . S
O187 Co174 2.244 . S
O187 C177 1.272 . S
O187 Co179 2.135 1_655 S
Co188 O189 2.216 . S
Co188 O190 2.091 . S
Co188 O192 2.004 . S
Co188 O198 2.021 . S
Co188 O200 2.137 1_554 S
Co188 O201 2.244 . S
O189 Co188 2.216 . S
O189 C196 1.247 . S
O190 Co188 2.091 . S
O190 C196 1.261 . S
C191 O200 1.247 . S
C191 O201 1.272 1_556 S
O192 Co188 2.004 . S
O192 C197 1.259 . S
Co193 O194 2.061 . S
Co193 O199 2.052 . S
Co193 O201 2.135 . S
O194 Co193 2.061 . S
O194 C197 1.235 . S
C195 O198 1.238 . S
C195 O199 1.241 . S
C196 O189 1.247 . S
C196 O190 1.261 . S
C197 O192 1.259 . S
C197 O194 1.235 . S
O198 Co188 2.021 . S
O198 C195 1.238 . S
O199 Co193 2.052 . S
O199 C195 1.241 . S
O200 Co188 2.137 1_556 S
O200 C191 1.247 . S
O201 Co188 2.244 . S
O201 C191 1.272 1_554 S
O201 Co193 2.135 . S
Co202 O203 2.216 . S
Co202 O204 2.091 . S
Co202 O206 2.004 . S
Co202 O212 2.021 . S
Co202 O214 2.137 . S
Co202 O215 2.244 . S
O203 Co202 2.216 . S
O203 C210 1.247 . S
O204 Co202 2.091 . S
O204 C210 1.261 . S
C205 O214 1.247 . S
C205 O215 1.272 . S
O206 Co202 2.004 . S
O206 C211 1.259 . S
Co207 O208 2.061 . S
Co207 O213 2.052 . S
Co207 O215 2.135 . S
O208 Co207 2.061 . S
O208 C211 1.235 . S
C209 O212 1.238 . S
C209 O213 1.241 . S
C210 O203 1.247 . S
C210 O204 1.261 . S
C211 O206 1.259 . S
C211 O208 1.235 . S
O212 Co202 2.021 . S
O212 C209 1.238 . S
O213 Co207 2.052 . S
O213 C209 1.241 . S
O214 Co202 2.137 . S
O214 C205 1.247 . S
O215 Co202 2.244 . S
O215 C205 1.272 . S
O215 Co207 2.135 . S
H216 C224 0.929 . S
H217 C226 0.930 . S
H218 C228 0.930 . S
H219 C231 0.929 . S
H220 C234 0.930 . S
H221 C236 0.960 . S
H222 C236 0.960 . S
H223 C236 0.960 . S
C224 H216 0.929 . S
C224 C225 1.377 . S
C224 C226 1.384 . S
C225 C224 1.377 . S
C225 C231 1.390 1_565 S
C226 H217 0.930 . S
C226 C224 1.384 . S
C226 C227 1.372 . S
C227 C226 1.372 . S
C227 C228 1.400 1_565 S
C227 C232 1.490 . S
C228 H218 0.930 . S
C228 C227 1.400 1_545 S
C228 C231 1.386 . S
H229 C245 0.930 . S
H230 C246 0.951 . S
C231 H219 0.929 . S
C231 C225 1.390 1_545 S
C231 C228 1.386 . S
C232 C227 1.490 . S
C232 C234 1.395 . S
C232 C235 1.403 . S
H233 C239 0.930 . S
C234 H220 0.930 . S
C234 C232 1.395 . S
C234 C237 1.403 . S
C235 C232 1.403 . S
C235 C236 1.524 . S
C235 C239 1.400 . S
C236 H221 0.960 . S
C236 H222 0.960 . S
C236 H223 0.960 . S
C236 C235 1.524 . S
C237 C234 1.403 . S
C237 C238 1.392 . S
C237 C241 1.495 . S
C238 C237 1.392 . S
C238 C239 1.385 . S
C238 C240 1.478 . S
C239 H233 0.930 . S
C239 C235 1.400 . S
C239 C238 1.385 . S
C240 C238 1.478 . S
C240 C242 1.381 . S
C240 C246 1.383 . S
C241 C237 1.495 . S
C241 H247 0.959 . S
C241 H248 0.961 . S
C241 H249 0.960 . S
C242 C240 1.381 . S
C242 C243 1.394 . S
C242 H250 0.930 . S
C243 C242 1.394 . S
C243 C244 1.383 . S
C243 H251 0.929 . S
C244 C243 1.383 . S
C244 C245 1.377 . S
C245 H229 0.930 . S
C245 C244 1.377 . S
C245 C246 1.379 . S
C246 H230 0.951 . S
C246 C240 1.383 . S
C246 C245 1.379 . S
H247 C241 0.959 . S
H248 C241 0.961 . S
H249 C241 0.960 . S
H250 C242 0.930 . S
H251 C243 0.929 . S
H252 C260 0.929 . S
H253 C262 0.930 . S
H254 C264 0.930 . S
H255 C267 0.929 . S
H256 C270 0.930 . S
H257 C272 0.960 . S
H258 C272 0.960 . S
H259 C272 0.960 . S
C260 H252 0.929 . S
C260 C261 1.377 . S
C260 C262 1.384 . S
C261 C260 1.377 . S
C261 C267 1.390 . S
C262 H253 0.930 . S
C262 C260 1.384 . S
C262 C263 1.372 . S
C263 C262 1.372 . S
C263 C264 1.400 . S
C263 C268 1.490 . S
C264 H254 0.930 . S
C264 C263 1.400 . S
C264 C267 1.386 . S
H265 C281 0.930 . S
H266 C282 0.931 . S
C267 H255 0.929 . S
C267 C261 1.390 . S
C267 C264 1.386 . S
C268 C263 1.490 . S
C268 C270 1.395 . S
C268 C271 1.403 . S
H269 C275 0.930 . S
C270 H256 0.930 . S
C270 C268 1.395 . S
C270 C273 1.403 . S
C271 C268 1.403 . S
C271 C272 1.524 . S
C271 C275 1.400 . S
C272 H257 0.960 . S
C272 H258 0.960 . S
C272 H259 0.960 . S
C272 C271 1.524 . S
C273 C270 1.403 . S
C273 C274 1.392 . S
C273 C277 1.495 . S
C274 C273 1.392 . S
C274 C275 1.385 . S
C274 C276 1.478 . S
C275 H269 0.930 . S
C275 C271 1.400 . S
C275 C274 1.385 . S
C276 C274 1.478 . S
C276 C278 1.381 . S
C276 C282 1.383 . S
C277 C273 1.495 . S
C277 H283 0.959 . S
C277 H284 0.961 . S
C277 H285 0.960 . S
C278 C276 1.381 . S
C278 C279 1.394 . S
C278 H286 0.930 . S
C279 C278 1.394 . S
C279 C280 1.383 . S
C279 H287 0.929 . S
C280 C279 1.383 . S
C280 C281 1.377 . S
C281 H265 0.930 . S
C281 C280 1.377 . S
C281 C282 1.379 . S
C282 H266 0.931 . S
C282 C276 1.383 . S
C282 C281 1.379 . S
H283 C277 0.959 . S
H284 C277 0.961 . S
H285 C277 0.960 . S
H286 C278 0.930 . S
H287 C279 0.929 . S
H288 C296 0.929 . S
H289 C298 0.930 . S
H290 C300 0.930 . S
H291 C303 0.929 . S
H292 C306 0.930 . S
H293 C308 0.960 . S
H294 C308 0.960 . S
H295 C308 0.960 . S
C296 H288 0.929 . S
C296 C297 1.377 . S
C296 C298 1.384 . S
C297 C296 1.377 . S
C297 C303 1.390 . S
C298 H289 0.930 . S
C298 C296 1.384 . S
C298 C299 1.372 . S
C299 C298 1.372 . S
C299 C300 1.400 . S
C299 C304 1.490 . S
C300 H290 0.930 . S
C300 C299 1.400 . S
C300 C303 1.386 . S
H301 C317 0.930 . S
H302 C318 0.931 . S
C303 H291 0.929 . S
C303 C297 1.390 . S
C303 C300 1.386 . S
C304 C299 1.490 . S
C304 C306 1.395 . S
C304 C307 1.403 . S
H305 C311 0.930 . S
C306 H292 0.930 . S
C306 C304 1.395 . S
C306 C309 1.403 . S
C307 C304 1.403 . S
C307 C308 1.524 . S
C307 C311 1.400 . S
C308 H293 0.960 . S
C308 H294 0.960 . S
C308 H295 0.960 . S
C308 C307 1.524 . S
C309 C306 1.403 . S
C309 C310 1.392 . S
C309 C313 1.495 . S
C310 C309 1.392 . S
C310 C311 1.385 . S
C310 C312 1.478 . S
C311 H305 0.930 . S
C311 C307 1.400 . S
C311 C310 1.385 . S
C312 C310 1.478 . S
C312 C314 1.381 . S
C312 C318 1.383 . S
C313 C309 1.495 . S
C313 H319 0.959 . S
C313 H320 0.961 . S
C313 H321 0.960 . S
C314 C312 1.381 . S
C314 C315 1.394 . S
C314 H322 0.930 . S
C315 C314 1.394 . S
C315 C316 1.383 . S
C315 H323 0.929 . S
C316 C315 1.383 . S
C316 C317 1.377 . S
C317 H301 0.930 . S
C317 C316 1.377 . S
C317 C318 1.379 . S
C318 H302 0.931 . S
C318 C312 1.383 . S
C318 C317 1.379 . S
H319 C313 0.959 . S
H320 C313 0.961 . S
H321 C313 0.960 . S
H322 C314 0.930 . S
H323 C315 0.929 . S
H324 C332 0.929 . S
H325 C334 0.930 . S
H326 C336 0.930 . S
H327 C339 0.929 . S
H328 C342 0.930 . S
H329 C344 0.960 . S
H330 C344 0.960 1_545 S
H331 C344 0.952 1_545 S
C332 H324 0.929 . S
C332 C333 1.377 . S
C332 C334 1.384 . S
C333 C332 1.377 . S
C333 C339 1.390 . S
C334 H325 0.930 . S
C334 C332 1.384 . S
C334 C335 1.372 . S
C335 C334 1.372 . S
C335 C336 1.400 . S
C335 C340 1.490 . S
C336 H326 0.930 . S
C336 C335 1.400 . S
C336 C339 1.386 . S
H337 C353 0.930 . S
H338 C354 0.931 . S
C339 H327 0.929 . S
C339 C333 1.390 . S
C339 C336 1.386 . S
C340 C335 1.490 . S
C340 C342 1.395 . S
C340 C343 1.403 1_545 S
H341 C347 0.930 . S
C342 H328 0.930 . S
C342 C340 1.395 . S
C342 C345 1.403 . S
C343 C340 1.403 1_565 S
C343 C344 1.524 . S
C343 C347 1.400 . S
C344 H329 0.960 . S
C344 H330 0.960 1_565 S
C344 H331 0.952 1_565 S
C344 C343 1.524 . S
C345 C342 1.403 . S
C345 C346 1.392 1_545 S
C345 C349 1.495 . S
C346 C345 1.392 1_565 S
C346 C347 1.385 . S
C346 C348 1.478 . S
C347 H341 0.930 . S
C347 C343 1.400 . S
C347 C346 1.385 . S
C348 C346 1.478 . S
C348 C350 1.381 . S
C348 C354 1.383 . S
C349 C345 1.495 . S
C349 H355 0.959 . S
C349 H356 0.961 1_545 S
C349 H357 0.960 1_545 S
C350 C348 1.381 . S
C350 C351 1.394 . S
C350 H358 0.930 . S
C351 C350 1.394 . S
C351 C352 1.383 . S
C351 H359 0.929 . S
C352 C351 1.383 . S
C352 C353 1.377 . S
C353 H337 0.930 . S
C353 C352 1.377 . S
C353 C354 1.379 . S
C354 H338 0.931 . S
C354 C348 1.383 . S
C354 C353 1.379 . S
H355 C349 0.959 . S
H356 C349 0.961 1_565 S
H357 C349 0.960 1_565 S
H358 C350 0.930 . S
H359 C351 0.929 . S
H360 C368 0.929 . S
H361 C370 0.930 . S
H362 C372 0.930 . S
H363 C375 0.929 . S
H364 C378 0.930 . S
H365 C380 0.960 . S
H366 C380 0.960 . S
H367 C380 0.960 . S
C368 H360 0.929 . S
C368 C369 1.377 . S
C368 C370 1.384 . S
C369 C368 1.377 . S
C369 C375 1.390 . S
C370 H361 0.930 . S
C370 C368 1.384 . S
C370 C371 1.372 . S
C371 C370 1.372 . S
C371 C372 1.400 . S
C371 C376 1.490 . S
C372 H362 0.930 . S
C372 C371 1.400 . S
C372 C375 1.386 . S
H373 C389 0.846 1_554 S
H374 C390 0.931 . S
C375 H363 0.929 . S
C375 C369 1.390 . S
C375 C372 1.386 . S
C376 C371 1.490 . S
C376 C378 1.395 . S
C376 C379 1.403 . S
H377 C383 0.930 . S
C378 H364 0.930 . S
C378 C376 1.395 . S
C378 C381 1.403 . S
C379 C376 1.403 . S
C379 C380 1.524 . S
C379 C383 1.400 . S
C380 H365 0.960 . S
C380 H366 0.960 . S
C380 H367 0.960 . S
C380 C379 1.524 . S
C381 C378 1.403 . S
C381 C382 1.392 . S
C381 C385 1.495 . S
C382 C381 1.392 . S
C382 C383 1.385 . S
C382 C384 1.478 . S
C383 H377 0.930 . S
C383 C379 1.400 . S
C383 C382 1.385 . S
C384 C382 1.478 . S
C384 C386 1.381 . S
C384 C390 1.383 . S
C385 C381 1.495 . S
C385 H391 0.959 . S
C385 H392 0.961 . S
C385 H393 0.960 . S
C386 C384 1.381 . S
C386 C387 1.394 . S
C386 H394 0.930 . S
C387 C386 1.394 . S
C387 C388 1.383 . S
C387 H395 0.929 . S
C388 C387 1.383 . S
C388 C389 1.426 . S
C389 H373 0.846 1_556 S
C389 C388 1.426 . S
C389 C390 1.416 . S
C390 H374 0.931 . S
C390 C384 1.383 . S
C390 C389 1.416 . S
H391 C385 0.959 . S
H392 C385 0.961 . S
H393 C385 0.960 . S
H394 C386 0.930 . S
H395 C387 0.929 . S
H396 C404 0.929 . S
H397 C406 0.930 . S
H398 C408 0.930 . S
H399 C411 0.929 . S
H400 C414 0.930 . S
H401 C416 0.960 . S
H402 C416 0.960 . S
H403 C416 0.960 . S
C404 H396 0.929 . S
C404 C405 1.377 . S
C404 C406 1.384 . S
C405 C404 1.377 . S
C405 C411 1.390 . S
C406 H397 0.930 . S
C406 C404 1.384 . S
C406 C407 1.372 . S
C407 C406 1.372 . S
C407 C408 1.400 . S
C407 C412 1.490 . S
C408 H398 0.930 . S
C408 C407 1.400 . S
C408 C411 1.386 . S
H409 C425 0.930 . S
H410 C426 0.931 . S
C411 H399 0.929 . S
C411 C405 1.390 . S
C411 C408 1.386 . S
C412 C407 1.490 . S
C412 C414 1.395 . S
C412 C415 1.403 . S
H413 C419 0.930 . S
C414 H400 0.930 . S
C414 C412 1.395 . S
C414 C417 1.403 . S
C415 C412 1.403 . S
C415 C416 1.524 . S
C415 C419 1.400 . S
C416 H401 0.960 . S
C416 H402 0.960 . S
C416 H403 0.960 . S
C416 C415 1.524 . S
C417 C414 1.403 . S
C417 C418 1.392 . S
C417 C421 1.495 . S
C418 C417 1.392 . S
C418 C419 1.385 . S
C418 C420 1.478 . S
C419 H413 0.930 . S
C419 C415 1.400 . S
C419 C418 1.385 . S
C420 C418 1.478 . S
C420 C422 1.381 . S
C420 C426 1.383 . S
C421 C417 1.495 . S
C421 H427 0.959 . S
C421 H428 0.961 . S
C421 H429 0.960 . S
C422 C420 1.381 . S
C422 C423 1.394 . S
C422 H430 0.930 . S
C423 C422 1.394 . S
C423 C424 1.383 . S
C423 H431 0.929 . S
C424 C423 1.383 . S
C424 C425 1.377 . S
C425 H409 0.930 . S
C425 C424 1.377 . S
C425 C426 1.379 . S
C426 H410 0.931 . S
C426 C420 1.383 . S
C426 C425 1.379 . S
H427 C421 0.959 . S
H428 C421 0.961 . S
H429 C421 0.960 . S
H430 C422 0.930 . S
H431 C423 0.929 . S
H432 C440 0.929 . S
H433 C442 0.930 . S
H434 C444 0.930 . S
H435 C447 0.929 . S
H436 C450 0.930 . S
H437 C452 0.960 1_565 S
H438 C452 0.960 . S
H439 C452 0.960 . S
C440 H432 0.929 . S
C440 C441 1.377 . S
C440 C442 1.384 . S
C441 C440 1.377 . S
C441 C447 1.390 . S
C442 H433 0.930 . S
C442 C440 1.384 . S
C442 C443 1.372 . S
C443 C442 1.372 . S
C443 C444 1.400 . S
C443 C448 1.490 . S
C444 H434 0.930 . S
C444 C443 1.400 . S
C444 C447 1.386 . S
H445 C461 0.930 . S
H446 C462 0.931 . S
C447 H435 0.929 . S
C447 C441 1.390 . S
C447 C444 1.386 . S
C448 C443 1.490 . S
C448 C450 1.395 . S
C448 C451 1.403 . S
H449 C455 0.930 . S
C450 H436 0.930 . S
C450 C448 1.395 . S
C450 C453 1.403 . S
C451 C448 1.403 . S
C451 C452 1.524 . S
C451 C455 1.400 1_545 S
C452 H437 0.960 1_545 S
C452 H438 0.960 . S
C452 H439 0.960 . S
C452 C451 1.524 . S
C453 C450 1.403 . S
C453 C454 1.392 1_545 S
C453 C457 1.495 . S
C454 C453 1.392 1_565 S
C454 C455 1.385 . S
C454 C456 1.478 . S
C455 H449 0.930 . S
C455 C451 1.400 1_565 S
C455 C454 1.385 . S
C456 C454 1.478 . S
C456 C458 1.381 . S
C456 C462 1.383 . S
C457 C453 1.495 . S
C457 H463 0.959 . S
C457 H464 0.961 1_545 S
C457 H465 0.960 . S
C458 C456 1.381 . S
C458 C459 1.394 . S
C458 H466 0.930 . S
C459 C458 1.394 . S
C459 C460 1.383 . S
C459 H467 0.929 . S
C460 C459 1.383 . S
C460 C461 1.377 . S
C461 H445 0.930 . S
C461 C460 1.377 . S
C461 C462 1.379 . S
C462 H446 0.931 . S
C462 C456 1.383 . S
C462 C461 1.379 . S
H463 C457 0.959 . S
H464 C457 0.961 1_565 S
H465 C457 0.960 . S
H466 C458 0.930 . S
H467 C459 0.929 . S
H468 C476 0.929 . S
H469 C478 0.930 . S
H470 C480 0.930 . S
H471 C483 0.929 . S
H472 C486 0.930 . S
H473 C488 0.960 . S
H474 C488 0.960 . S
H475 C488 0.960 . S
C476 H468 0.929 . S
C476 C477 1.377 . S
C476 C478 1.384 . S
C477 C476 1.377 . S
C477 C483 1.390 . S
C478 H469 0.930 . S
C478 C476 1.384 . S
C478 C479 1.372 . S
C479 C478 1.372 . S
C479 C480 1.400 . S
C479 C484 1.490 . S
C480 H470 0.930 . S
C480 C479 1.400 . S
C480 C483 1.386 . S
H481 C497 0.930 . S
H482 C498 0.931 . S
C483 H471 0.929 . S
C483 C477 1.390 . S
C483 C480 1.386 . S
C484 C479 1.490 . S
C484 C486 1.395 . S
C484 C487 1.403 . S
H485 C491 0.930 . S
C486 H472 0.930 . S
C486 C484 1.395 . S
C486 C489 1.403 . S
C487 C484 1.403 . S
C487 C488 1.524 . S
C487 C491 1.400 . S
C488 H473 0.960 . S
C488 H474 0.960 . S
C488 H475 0.960 . S
C488 C487 1.524 . S
C489 C486 1.403 . S
C489 C490 1.392 . S
C489 C493 1.495 . S
C490 C489 1.392 . S
C490 C491 1.385 . S
C490 C492 1.478 . S
C491 H485 0.930 . S
C491 C487 1.400 . S
C491 C490 1.385 . S
C492 C490 1.478 . S
C492 C494 1.381 . S
C492 C498 1.383 . S
C493 C489 1.495 . S
C493 H499 0.959 . S
C493 H500 0.961 . S
C493 H501 0.960 . S
C494 C492 1.381 . S
C494 C495 1.394 . S
C494 H502 0.930 . S
C495 C494 1.394 . S
C495 C496 1.383 . S
C495 H503 0.929 . S
C496 C495 1.383 . S
C496 C497 1.377 . S
C497 H481 0.930 . S
C497 C496 1.377 . S
C497 C498 1.379 . S
C498 H482 0.931 . S
C498 C492 1.383 . S
C498 C497 1.379 . S
H499 C493 0.959 . S
H500 C493 0.961 . S
H501 C493 0.960 . S
H502 C494 0.930 . S
H503 C495 0.929 . S
H504 C512 0.929 . S
H505 C514 0.930 . S
H506 C516 0.930 . S
H507 C519 0.929 . S
H508 C522 0.930 . S
H509 C524 0.960 . S
H510 C524 0.960 . S
H511 C524 0.960 . S
C512 H504 0.929 . S
C512 C513 1.377 . S
C512 C514 1.384 . S
C513 C512 1.377 . S
C513 C519 1.390 . S
C514 H505 0.930 . S
C514 C512 1.384 . S
C514 C515 1.372 . S
C515 C514 1.372 . S
C515 C516 1.400 . S
C515 C520 1.490 . S
C516 H506 0.930 . S
C516 C515 1.400 . S
C516 C519 1.386 . S
H517 C533 0.930 . S
H518 C534 0.931 . S
C519 H507 0.929 . S
C519 C513 1.390 . S
C519 C516 1.386 . S
C520 C515 1.490 . S
C520 C522 1.395 . S
C520 C523 1.403 . S
H521 C527 0.930 . S
C522 H508 0.930 . S
C522 C520 1.395 . S
C522 C525 1.403 . S
C523 C520 1.403 . S
C523 C524 1.524 . S
C523 C527 1.400 . S
C524 H509 0.960 . S
C524 H510 0.960 . S
C524 H511 0.960 . S
C524 C523 1.524 . S
C525 C522 1.403 . S
C525 C526 1.392 . S
C525 C529 1.495 . S
C526 C525 1.392 . S
C526 C527 1.385 . S
C526 C528 1.478 . S
C527 H521 0.930 . S
C527 C523 1.400 . S
C527 C526 1.385 . S
C528 C526 1.478 . S
C528 C530 1.381 . S
C528 C534 1.383 . S
C529 C525 1.495 . S
C529 H535 0.959 . S
C529 H536 0.961 . S
C529 H537 0.960 . S
C530 C528 1.381 . S
C530 C531 1.394 . S
C530 H538 0.930 . S
C531 C530 1.394 . S
C531 C532 1.383 . S
C531 H539 0.929 . S
C532 C531 1.383 . S
C532 C533 1.377 . S
C533 H517 0.930 . S
C533 C532 1.377 . S
C533 C534 1.379 . S
C534 H518 0.931 . S
C534 C528 1.383 . S
C534 C533 1.379 . S
H535 C529 0.959 . S
H536 C529 0.961 . S
H537 C529 0.960 . S
H538 C530 0.930 . S
H539 C531 0.929 . S
H540 C548 0.929 . S
H541 C550 0.930 . S
H542 C552 0.930 . S
H543 C555 0.929 . S
H544 C558 0.930 . S
H545 C560 0.960 . S
H546 C560 0.960 . S
H547 C560 0.960 . S
C548 H540 0.929 . S
C548 C549 1.377 . S
C548 C550 1.384 . S
C549 C548 1.377 . S
C549 C555 1.390 . S
C550 H541 0.930 . S
C550 C548 1.384 . S
C550 C551 1.372 . S
C551 C550 1.372 . S
C551 C552 1.400 . S
C551 C556 1.490 . S
C552 H542 0.930 . S
C552 C551 1.400 . S
C552 C555 1.386 . S
H553 C569 0.930 . S
H554 C570 0.931 . S
C555 H543 0.929 . S
C555 C549 1.390 . S
C555 C552 1.386 . S
C556 C551 1.490 . S
C556 C558 1.395 . S
C556 C559 1.403 . S
H557 C563 0.930 . S
C558 H544 0.930 . S
C558 C556 1.395 . S
C558 C561 1.403 . S
C559 C556 1.403 . S
C559 C560 1.524 . S
C559 C563 1.400 . S
C560 H545 0.960 . S
C560 H546 0.960 . S
C560 H547 0.960 . S
C560 C559 1.524 . S
C561 C558 1.403 . S
C561 C562 1.392 . S
C561 C565 1.495 . S
C562 C561 1.392 . S
C562 C563 1.385 . S
C562 C564 1.478 . S
C563 H557 0.930 . S
C563 C559 1.400 . S
C563 C562 1.385 . S
C564 C562 1.478 . S
C564 C566 1.381 . S
C564 C570 1.383 . S
C565 C561 1.495 . S
C565 H571 0.959 . S
C565 H572 0.961 . S
C565 H573 0.960 . S
C566 C564 1.381 . S
C566 C567 1.394 . S
C566 H574 0.930 . S
C567 C566 1.394 . S
C567 C568 1.383 . S
C567 H575 0.929 . S
C568 C567 1.383 . S
C568 C569 1.377 . S
C569 H553 0.930 . S
C569 C568 1.377 . S
C569 C570 1.379 . S
C570 H554 0.931 . S
C570 C564 1.383 . S
C570 C569 1.379 . S
H571 C565 0.959 . S
H572 C565 0.961 . S
H573 C565 0.960 . S
H574 C566 0.930 . S
H575 C567 0.929 . S
H576 C584 0.929 . S
H577 C586 0.930 . S
H578 C588 0.930 . S
H579 C591 0.929 . S
H580 C594 0.930 . S
H581 C596 0.960 . S
H582 C596 0.960 . S
H583 C596 0.960 . S
C584 H576 0.929 . S
C584 C585 1.377 . S
C584 C586 1.384 . S
C585 C584 1.377 . S
C585 C591 1.390 . S
C586 H577 0.930 . S
C586 C584 1.384 . S
C586 C587 1.372 . S
C587 C586 1.372 . S
C587 C588 1.400 . S
C587 C592 1.490 . S
C588 H578 0.930 . S
C588 C587 1.400 . S
C588 C591 1.386 . S
H589 C605 0.930 . S
H590 C606 0.931 . S
C591 H579 0.929 . S
C591 C585 1.390 . S
C591 C588 1.386 . S
C592 C587 1.490 . S
C592 C594 1.395 . S
C592 C595 1.403 . S
H593 C599 0.930 . S
C594 H580 0.930 . S
C594 C592 1.395 . S
C594 C597 1.403 . S
C595 C592 1.403 . S
C595 C596 1.524 . S
C595 C599 1.400 . S
C596 H581 0.960 . S
C596 H582 0.960 . S
C596 H583 0.960 . S
C596 C595 1.524 . S
C597 C594 1.403 . S
C597 C598 1.392 . S
C597 C601 1.495 . S
C598 C597 1.392 . S
C598 C599 1.385 . S
C598 C600 1.478 . S
C599 H593 0.930 . S
C599 C595 1.400 . S
C599 C598 1.385 . S
C600 C598 1.478 . S
C600 C602 1.381 . S
C600 C606 1.383 . S
C601 C597 1.495 . S
C601 H607 0.959 . S
C601 H608 0.961 . S
C601 H609 0.960 . S
C602 C600 1.381 . S
C602 C603 1.394 . S
C602 H610 0.930 . S
C603 C602 1.394 . S
C603 C604 1.383 . S
C603 H611 0.929 . S
C604 C603 1.383 . S
C604 C605 1.377 . S
C605 H589 0.930 . S
C605 C604 1.377 . S
C605 C606 1.379 . S
C606 H590 0.931 . S
C606 C600 1.383 . S
C606 C605 1.379 . S
H607 C601 0.959 . S
H608 C601 0.961 . S
H609 C601 0.960 . S
H610 C602 0.930 . S
H611 C603 0.929 . S
H612 C620 0.929 . S
H613 C622 0.930 . S
H614 C624 0.930 . S
H615 C627 0.929 . S
H616 C630 0.930 . S
H617 C632 0.960 . S
H618 C632 0.960 . S
H619 C632 0.960 . S
C620 H612 0.929 . S
C620 C621 1.377 . S
C620 C622 1.384 . S
C621 C620 1.377 . S
C621 C627 1.390 . S
C622 H613 0.930 . S
C622 C620 1.384 . S
C622 C623 1.372 . S
C623 C622 1.372 . S
C623 C624 1.400 . S
C623 C628 1.490 . S
C624 H614 0.930 . S
C624 C623 1.400 . S
C624 C627 1.386 . S
H625 C641 0.930 . S
H626 C642 0.931 . S
C627 H615 0.929 . S
C627 C621 1.390 . S
C627 C624 1.386 . S
C628 C623 1.490 . S
C628 C630 1.395 . S
C628 C631 1.403 . S
H629 C635 0.930 . S
C630 H616 0.930 . S
C630 C628 1.395 . S
C630 C633 1.403 1_455 S
C631 C628 1.403 . S
C631 C632 1.524 . S
C631 C635 1.400 . S
C632 H617 0.960 . S
C632 H618 0.960 . S
C632 H619 0.960 . S
C632 C631 1.524 . S
C633 C630 1.403 1_655 S
C633 C634 1.392 . S
C633 C637 1.495 . S
C634 C633 1.392 . S
C634 C635 1.385 1_655 S
C634 C636 1.478 . S
C635 H629 0.930 . S
C635 C631 1.400 . S
C635 C634 1.385 1_455 S
C636 C634 1.478 . S
C636 C638 1.381 . S
C636 C642 1.383 . S
C637 C633 1.495 . S
C637 H643 0.959 . S
C637 H644 0.961 . S
C637 H645 0.960 . S
C638 C636 1.381 . S
C638 C639 1.394 . S
C638 H646 0.930 . S
C639 C638 1.394 . S
C639 C640 1.383 . S
C639 H647 0.929 . S
C640 C639 1.383 . S
C640 C641 1.377 . S
C641 H625 0.930 . S
C641 C640 1.377 . S
C641 C642 1.379 . S
C642 H626 0.931 . S
C642 C636 1.383 . S
C642 C641 1.379 . S
H643 C637 0.959 . S
H644 C637 0.961 . S
H645 C637 0.960 . S
H646 C638 0.930 . S
H647 C639 0.929 . S
H648 C656 0.929 . S
H649 C658 0.930 . S
H650 C660 0.930 . S
H651 C663 0.929 . S
H652 C666 0.930 . S
H653 C668 0.960 . S
H654 C668 0.960 . S
H655 C668 0.960 . S
C656 H648 0.929 . S
C656 C657 1.377 . S
C656 C658 1.384 . S
C657 C656 1.377 . S
C657 C663 1.390 . S
C658 H649 0.930 . S
C658 C656 1.384 . S
C658 C659 1.372 . S
C659 C658 1.372 . S
C659 C660 1.400 . S
C659 C664 1.490 . S
C660 H650 0.930 . S
C660 C659 1.400 . S
C660 C663 1.386 . S
H661 C677 0.930 . S
H662 C678 0.931 . S
C663 H651 0.929 . S
C663 C657 1.390 . S
C663 C660 1.386 . S
C664 C659 1.490 . S
C664 C666 1.395 . S
C664 C667 1.403 . S
H665 C671 0.930 . S
C666 H652 0.930 . S
C666 C664 1.395 . S
C666 C669 1.403 . S
C667 C664 1.403 . S
C667 C668 1.524 . S
C667 C671 1.400 . S
C668 H653 0.960 . S
C668 H654 0.960 . S
C668 H655 0.960 . S
C668 C667 1.524 . S
C669 C666 1.403 . S
C669 C670 1.392 . S
C669 C673 1.495 . S
C670 C669 1.392 . S
C670 C671 1.385 . S
C670 C672 1.478 . S
C671 H665 0.930 . S
C671 C667 1.400 . S
C671 C670 1.385 . S
C672 C670 1.478 . S
C672 C674 1.381 . S
C672 C678 1.383 . S
C673 C669 1.495 . S
C673 H679 0.959 . S
C673 H680 0.961 . S
C673 H681 0.960 . S
C674 C672 1.381 . S
C674 C675 1.394 . S
C674 H682 0.930 . S
C675 C674 1.394 . S
C675 C676 1.383 . S
C675 H683 0.929 . S
C676 C675 1.383 . S
C676 C677 1.377 . S
C677 H661 0.930 . S
C677 C676 1.377 . S
C677 C678 1.379 . S
C678 H662 0.931 . S
C678 C672 1.383 . S
C678 C677 1.379 . S
H679 C673 0.959 . S
H680 C673 0.961 . S
H681 C673 0.960 . S
H682 C674 0.930 . S
H683 C675 0.929 . S
H684 C692 0.929 . S
H685 C694 0.930 . S
H686 C696 0.930 . S
H687 C699 0.929 . S
H688 C702 0.930 . S
H689 C704 0.960 . S
H690 C704 0.960 . S
H691 C704 0.960 . S
C692 H684 0.929 . S
C692 C693 1.377 . S
C692 C694 1.384 . S
C693 C692 1.377 . S
C693 C699 1.390 1_655 S
C694 H685 0.930 . S
C694 C692 1.384 . S
C694 C695 1.372 . S
C695 C694 1.372 . S
C695 C696 1.400 1_655 S
C695 C700 1.490 . S
C696 H686 0.930 . S
C696 C695 1.400 1_455 S
C696 C699 1.386 . S
H697 C713 0.930 . S
H698 C714 0.931 1_455 S
C699 H687 0.929 . S
C699 C693 1.390 1_455 S
C699 C696 1.386 . S
C700 C695 1.490 . S
C700 C702 1.395 . S
C700 C703 1.403 . S
H701 C707 0.930 . S
C702 H688 0.930 . S
C702 C700 1.395 . S
C702 C705 1.403 . S
C703 C700 1.403 . S
C703 C704 1.524 . S
C703 C707 1.400 . S
C704 H689 0.960 . S
C704 H690 0.960 . S
C704 H691 0.960 . S
C704 C703 1.524 . S
C705 C702 1.403 . S
C705 C706 1.392 . S
C705 C709 1.495 . S
C706 C705 1.392 . S
C706 C707 1.385 . S
C706 C708 1.478 . S
C707 H701 0.930 . S
C707 C703 1.400 . S
C707 C706 1.385 . S
C708 C706 1.478 . S
C708 C710 1.381 . S
C708 C714 1.383 . S
C709 C705 1.495 . S
C709 H715 0.959 . S
C709 H716 0.961 1_655 S
C709 H717 0.960 . S
C710 C708 1.381 . S
C710 C711 1.394 . S
C710 H718 0.930 . S
C711 C710 1.394 . S
C711 C712 1.383 . S
C711 H719 0.929 . S
C712 C711 1.383 . S
C712 C713 1.377 . S
C713 H697 0.930 . S
C713 C712 1.377 . S
C713 C714 1.379 . S
C714 H698 0.931 1_655 S
C714 C708 1.383 . S
C714 C713 1.379 . S
H715 C709 0.959 . S
H716 C709 0.961 1_455 S
H717 C709 0.960 . S
H718 C710 0.930 . S
H719 C711 0.929 . S
H720 C728 0.929 . S
H721 C730 0.930 . S
H722 C732 0.930 . S
H723 C735 0.929 . S
H724 C738 0.930 . S
H725 C740 0.960 . S
H726 C740 0.960 . S
H727 C740 0.960 . S
C728 H720 0.929 . S
C728 C729 1.377 . S
C728 C730 1.384 . S
C729 C728 1.377 . S
C729 C735 1.390 . S
C730 H721 0.930 . S
C730 C728 1.384 . S
C730 C731 1.372 . S
C731 C730 1.372 . S
C731 C732 1.400 . S
C731 C736 1.490 . S
C732 H722 0.930 . S
C732 C731 1.400 . S
C732 C735 1.386 . S
H733 C749 0.930 . S
H734 C750 0.931 . S
C735 H723 0.929 . S
C735 C729 1.390 . S
C735 C732 1.386 . S
C736 C731 1.490 . S
C736 C738 1.395 . S
C736 C739 1.403 . S
H737 C743 0.933 . S
C738 H724 0.930 . S
C738 C736 1.395 . S
C738 C741 1.403 1_455 S
C739 C736 1.403 . S
C739 C740 1.524 . S
C739 C743 1.383 1_455 S
C740 H725 0.960 . S
C740 H726 0.960 . S
C740 H727 0.960 . S
C740 C739 1.524 . S
C741 C738 1.403 1_655 S
C741 C742 1.392 . S
C741 C745 1.495 . S
C742 C741 1.392 . S
C742 C743 1.400 . S
C742 C744 1.478 . S
C743 H737 0.933 . S
C743 C739 1.383 1_655 S
C743 C742 1.400 . S
C744 C742 1.478 . S
C744 C746 1.377 1_556 S
C744 C750 1.383 . S
C745 C741 1.495 . S
C745 H751 0.959 . S
C745 H752 0.961 . S
C745 H753 0.960 . S
C746 C744 1.377 1_554 S
C746 C747 1.398 . S
C746 H754 0.928 . S
C747 C746 1.398 . S
C747 C748 1.383 . S
C747 H755 0.929 . S
C748 C747 1.383 . S
C748 C749 1.377 1_554 S
C749 H733 0.930 . S
C749 C748 1.377 1_556 S
C749 C750 1.379 . S
C750 H734 0.931 . S
C750 C744 1.383 . S
C750 C749 1.379 . S
H751 C745 0.959 . S
H752 C745 0.961 . S
H753 C745 0.960 . S
H754 C746 0.928 . S
H755 C747 0.929 . S
H756 C764 0.929 . S
H757 C766 0.930 . S
H758 C768 0.930 . S
H759 C771 0.929 . S
H760 C774 0.930 . S
H761 C776 0.960 . S
H762 C776 0.960 . S
H763 C776 0.960 . S
C764 H756 0.929 . S
C764 C765 1.377 . S
C764 C766 1.384 . S
C765 C764 1.377 . S
C765 C771 1.390 . S
C766 H757 0.930 . S
C766 C764 1.384 . S
C766 C767 1.372 . S
C767 C766 1.372 . S
C767 C768 1.400 . S
C767 C772 1.490 . S
C768 H758 0.930 . S
C768 C767 1.400 . S
C768 C771 1.386 . S
H769 C785 0.930 . S
H770 C786 0.931 . S
C771 H759 0.929 . S
C771 C765 1.390 . S
C771 C768 1.386 . S
C772 C767 1.490 . S
C772 C774 1.395 . S
C772 C775 1.403 . S
H773 C779 0.930 . S
C774 H760 0.930 . S
C774 C772 1.395 . S
C774 C777 1.403 . S
C775 C772 1.403 . S
C775 C776 1.524 . S
C775 C779 1.400 . S
C776 H761 0.960 . S
C776 H762 0.960 . S
C776 H763 0.960 . S
C776 C775 1.524 . S
C777 C774 1.403 . S
C777 C778 1.392 . S
C777 C781 1.495 . S
C778 C777 1.392 . S
C778 C779 1.385 . S
C778 C780 1.478 . S
C779 H773 0.930 . S
C779 C775 1.400 . S
C779 C778 1.385 . S
C780 C778 1.478 . S
C780 C782 1.381 . S
C780 C786 1.383 . S
C781 C777 1.495 . S
C781 H787 0.959 . S
C781 H788 0.961 . S
C781 H789 0.960 . S
C782 C780 1.381 . S
C782 C783 1.394 . S
C782 H790 0.930 . S
C783 C782 1.394 . S
C783 C784 1.383 . S
C783 H791 0.929 . S
C784 C783 1.383 . S
C784 C785 1.377 . S
C785 H769 0.930 . S
C785 C784 1.377 . S
C785 C786 1.379 . S
C786 H770 0.931 . S
C786 C780 1.383 . S
C786 C785 1.379 . S
H787 C781 0.959 . S
H788 C781 0.961 . S
H789 C781 0.960 . S
H790 C782 0.930 . S
H791 C783 0.929 . S
H792 C800 0.929 . S
H793 C802 0.930 . S
H794 C804 0.930 . S
H795 C807 0.929 1_545 S
H796 C810 0.930 . S
H797 C812 0.960 . S
H798 C812 0.960 . S
H799 C812 0.960 . S
C800 H792 0.929 . S
C800 C801 1.377 . S
C800 C802 1.384 . S
C801 C800 1.377 . S
C801 C807 1.390 . S
C802 H793 0.930 . S
C802 C800 1.384 . S
C802 C803 1.372 . S
C803 C802 1.372 . S
C803 C804 1.400 . S
C803 C808 1.490 . S
C804 H794 0.930 . S
C804 C803 1.400 . S
C804 C807 1.386 . S
H805 C821 0.930 . S
H806 C822 0.931 . S
C807 H795 0.929 1_565 S
C807 C801 1.390 . S
C807 C804 1.386 . S
C808 C803 1.490 . S
C808 C810 1.395 . S
C808 C811 1.403 . S
H809 C815 0.930 . S
C810 H796 0.930 . S
C810 C808 1.395 . S
C810 C813 1.403 . S
C811 C808 1.403 . S
C811 C812 1.524 . S
C811 C815 1.400 . S
C812 H797 0.960 . S
C812 H798 0.960 . S
C812 H799 0.960 . S
C812 C811 1.524 . S
C813 C810 1.403 . S
C813 C814 1.392 . S
C813 C817 1.495 . S
C814 C813 1.392 . S
C814 C815 1.385 . S
C814 C816 1.478 . S
C815 H809 0.930 . S
C815 C811 1.400 . S
C815 C814 1.385 . S
C816 C814 1.478 . S
C816 C818 1.381 . S
C816 C822 1.383 . S
C817 C813 1.495 . S
C817 H823 0.959 . S
C817 H824 0.961 . S
C817 H825 0.960 . S
C818 C816 1.381 . S
C818 C819 1.394 . S
C818 H826 0.930 . S
C819 C818 1.394 . S
C819 C820 1.383 . S
C819 H827 0.929 . S
C820 C819 1.383 . S
C820 C821 1.377 . S
C821 H805 0.930 . S
C821 C820 1.377 . S
C821 C822 1.379 . S
C822 H806 0.931 . S
C822 C816 1.383 . S
C822 C821 1.379 . S
H823 C817 0.959 . S
H824 C817 0.961 . S
H825 C817 0.960 . S
H826 C818 0.930 . S
H827 C819 0.929 . S
H828 C836 0.929 . S
H829 C838 0.930 . S
H830 C840 0.930 . S
H831 C843 0.929 . S
H832 C846 0.930 . S
H833 C848 0.960 . S
H834 C848 0.960 . S
H835 C848 0.960 . S
C836 H828 0.929 . S
C836 C837 1.377 . S
C836 C838 1.384 . S
C837 C836 1.377 . S
C837 C843 1.390 . S
C838 H829 0.930 . S
C838 C836 1.384 . S
C838 C839 1.372 . S
C839 C838 1.372 . S
C839 C840 1.400 . S
C839 C844 1.490 . S
C840 H830 0.930 . S
C840 C839 1.400 . S
C840 C843 1.386 . S
H841 C857 0.930 . S
H842 C858 0.931 . S
C843 H831 0.929 . S
C843 C837 1.390 . S
C843 C840 1.386 . S
C844 C839 1.490 . S
C844 C846 1.395 . S
C844 C847 1.403 . S
H845 C851 0.930 . S
C846 H832 0.930 . S
C846 C844 1.395 . S
C846 C849 1.403 . S
C847 C844 1.403 . S
C847 C848 1.524 . S
C847 C851 1.400 . S
C848 H833 0.960 . S
C848 H834 0.960 . S
C848 H835 0.960 . S
C848 C847 1.524 . S
C849 C846 1.403 . S
C849 C850 1.392 . S
C849 C853 1.495 . S
C850 C849 1.392 . S
C850 C851 1.385 . S
C850 C852 1.478 . S
C851 H845 0.930 . S
C851 C847 1.400 . S
C851 C850 1.385 . S
C852 C850 1.478 . S
C852 C854 1.381 . S
C852 C858 1.383 . S
C853 C849 1.495 . S
C853 H859 0.959 . S
C853 H860 0.961 . S
C853 H861 0.960 . S
C854 C852 1.381 . S
C854 C855 1.394 . S
C854 H862 0.930 . S
C855 C854 1.394 . S
C855 C856 1.383 . S
C855 H863 0.929 . S
C856 C855 1.383 . S
C856 C857 1.377 . S
C857 H841 0.930 . S
C857 C856 1.377 . S
C857 C858 1.379 . S
C858 H842 0.931 . S
C858 C852 1.383 . S
C858 C857 1.379 . S
H859 C853 0.959 . S
H860 C853 0.961 . S
H861 C853 0.960 . S
H862 C854 0.930 . S
H863 C855 0.929 . S
H864 C872 0.929 . S
H865 C874 0.930 . S
H866 C876 0.930 . S
H867 C879 0.929 . S
H868 C882 0.930 . S
H869 C884 0.960 . S
H870 C884 0.960 . S
H871 C884 0.960 . S
C872 H864 0.929 . S
C872 C873 1.377 . S
C872 C874 1.384 . S
C873 C872 1.377 . S
C873 C879 1.390 . S
C874 H865 0.930 . S
C874 C872 1.384 . S
C874 C875 1.372 . S
C875 C874 1.372 . S
C875 C876 1.400 . S
C875 C880 1.490 . S
C876 H866 0.930 . S
C876 C875 1.400 . S
C876 C879 1.386 . S
H877 C893 0.930 . S
H878 C894 0.931 . S
C879 H867 0.929 . S
C879 C873 1.390 . S
C879 C876 1.386 . S
C880 C875 1.490 . S
C880 C882 1.395 . S
C880 C883 1.403 . S
H881 C887 0.930 . S
C882 H868 0.930 . S
C882 C880 1.395 . S
C882 C885 1.403 . S
C883 C880 1.403 . S
C883 C884 1.524 . S
C883 C887 1.400 . S
C884 H869 0.960 . S
C884 H870 0.960 . S
C884 H871 0.960 . S
C884 C883 1.524 . S
C885 C882 1.403 . S
C885 C886 1.392 . S
C885 C889 1.495 . S
C886 C885 1.392 . S
C886 C887 1.385 . S
C886 C888 1.478 . S
C887 H881 0.930 . S
C887 C883 1.400 . S
C887 C886 1.385 . S
C888 C886 1.478 . S
C888 C890 1.381 . S
C888 C894 1.383 . S
C889 C885 1.495 . S
C889 H895 0.959 . S
C889 H896 0.961 . S
C889 H897 0.960 . S
C890 C888 1.381 . S
C890 C891 1.394 . S
C890 H898 0.930 . S
C891 C890 1.394 . S
C891 C892 1.383 . S
C891 H899 0.929 . S
C892 C891 1.383 . S
C892 C893 1.377 . S
C893 H877 0.930 . S
C893 C892 1.377 . S
C893 C894 1.379 . S
C894 H878 0.931 . S
C894 C888 1.383 . S
C894 C893 1.379 . S
H895 C889 0.959 . S
H896 C889 0.961 . S
H897 C889 0.960 . S
H898 C890 0.930 . S
H899 C891 0.929 . S
H900 C908 0.929 . S
H901 C910 0.930 . S
H902 C912 0.930 . S
H903 C915 0.929 . S
H904 C918 0.930 . S
H905 C920 0.960 . S
H906 C920 0.960 . S
H907 C920 0.960 . S
C908 H900 0.929 . S
C908 C909 1.377 . S
C908 C910 1.384 . S
C909 C908 1.377 . S
C909 C915 1.390 . S
C910 H901 0.930 . S
C910 C908 1.384 . S
C910 C911 1.372 . S
C911 C910 1.372 . S
C911 C912 1.400 . S
C911 C916 1.490 . S
C912 H902 0.930 . S
C912 C911 1.400 . S
C912 C915 1.386 . S
H913 C929 0.930 . S
H914 C930 0.931 . S
C915 H903 0.929 . S
C915 C909 1.390 . S
C915 C912 1.386 . S
C916 C911 1.490 . S
C916 C918 1.395 . S
C916 C919 1.403 . S
H917 C923 0.930 . S
C918 H904 0.930 . S
C918 C916 1.395 . S
C918 C921 1.403 . S
C919 C916 1.403 . S
C919 C920 1.524 . S
C919 C923 1.400 . S
C920 H905 0.960 . S
C920 H906 0.960 . S
C920 H907 0.960 . S
C920 C919 1.524 . S
C921 C918 1.403 . S
C921 C922 1.392 . S
C921 C925 1.495 1_545 S
C922 C921 1.392 . S
C922 C923 1.385 . S
C922 C924 1.478 . S
C923 H917 0.930 . S
C923 C919 1.400 . S
C923 C922 1.385 . S
C924 C922 1.478 . S
C924 C926 1.381 . S
C924 C930 1.383 . S
C925 C921 1.495 1_565 S
C925 H931 0.959 . S
C925 H932 0.961 . S
C925 H933 0.960 . S
C926 C924 1.381 . S
C926 C927 1.394 1_545 S
C926 H934 0.930 . S
C927 C926 1.394 1_565 S
C927 C928 1.383 . S
C927 H935 0.929 . S
C928 C927 1.383 . S
C928 C929 1.377 . S
C929 H913 0.930 . S
C929 C928 1.377 . S
C929 C930 1.379 1_565 S
C930 H914 0.931 . S
C930 C924 1.383 . S
C930 C929 1.379 1_545 S
H931 C925 0.959 . S
H932 C925 0.961 . S
H933 C925 0.960 . S
H934 C926 0.930 . S
H935 C927 0.929 . S
H936 C944 0.929 . S
H937 C946 0.930 . S
H938 C948 0.930 . S
H939 C951 0.929 . S
H940 C954 0.930 . S
H941 C956 0.960 . S
H942 C956 0.960 . S
H943 C956 0.960 . S
C944 H936 0.929 . S
C944 C945 1.377 . S
C944 C946 1.384 . S
C945 C944 1.377 . S
C945 C951 1.390 . S
C946 H937 0.930 . S
C946 C944 1.384 . S
C946 C947 1.372 . S
C947 C946 1.372 . S
C947 C948 1.400 . S
C947 C952 1.490 . S
C948 H938 0.930 . S
C948 C947 1.400 . S
C948 C951 1.386 . S
H949 C965 0.930 . S
H950 C966 0.931 . S
C951 H939 0.929 . S
C951 C945 1.390 . S
C951 C948 1.386 . S
C952 C947 1.490 . S
C952 C954 1.395 . S
C952 C955 1.403 . S
H953 C959 0.930 . S
C954 H940 0.930 . S
C954 C952 1.395 . S
C954 C957 1.403 . S
C955 C952 1.403 . S
C955 C956 1.524 . S
C955 C959 1.400 . S
C956 H941 0.960 . S
C956 H942 0.960 . S
C956 H943 0.960 . S
C956 C955 1.524 . S
C957 C954 1.403 . S
C957 C958 1.392 . S
C957 C961 1.495 . S
C958 C957 1.392 . S
C958 C959 1.385 . S
C958 C960 1.478 . S
C959 H953 0.930 . S
C959 C955 1.400 . S
C959 C958 1.385 . S
C960 C958 1.478 . S
C960 C962 1.381 . S
C960 C966 1.383 . S
C961 C957 1.495 . S
C961 H967 0.959 . S
C961 H968 0.961 . S
C961 H969 0.960 . S
C962 C960 1.381 . S
C962 C963 1.394 . S
C962 H970 0.930 . S
C963 C962 1.394 . S
C963 C964 1.383 . S
C963 H971 0.929 . S
C964 C963 1.383 . S
C964 C965 1.377 . S
C965 H949 0.930 . S
C965 C964 1.377 . S
C965 C966 1.379 . S
C966 H950 0.931 . S
C966 C960 1.383 . S
C966 C965 1.379 . S
H967 C961 0.959 . S
H968 C961 0.961 . S
H969 C961 0.960 . S
H970 C962 0.930 . S
H971 C963 0.929 . S
H972 C980 0.929 . S
H973 C982 0.930 . S
H974 C984 0.930 . S
H975 C987 0.929 . S
H976 C990 0.930 . S
H977 C992 0.960 . S
H978 C992 0.960 . S
H979 C992 0.960 . S
C980 H972 0.929 . S
C980 C981 1.377 . S
C980 C982 1.384 . S
C981 C980 1.377 . S
C981 C987 1.390 . S
C982 H973 0.930 . S
C982 C980 1.384 . S
C982 C983 1.372 . S
C983 C982 1.372 . S
C983 C984 1.400 . S
C983 C988 1.490 . S
C984 H974 0.930 . S
C984 C983 1.400 . S
C984 C987 1.386 . S
H985 C1001 0.930 . S
H986 C1002 0.931 . S
C987 H975 0.929 . S
C987 C981 1.390 . S
C987 C984 1.386 . S
C988 C983 1.490 . S
C988 C990 1.395 . S
C988 C991 1.403 . S
H989 C995 0.930 . S
C990 H976 0.930 . S
C990 C988 1.395 . S
C990 C993 1.403 . S
C991 C988 1.403 . S
C991 C992 1.524 . S
C991 C995 1.400 . S
C992 H977 0.960 . S
C992 H978 0.960 . S
C992 H979 0.960 . S
C992 C991 1.524 . S
C993 C990 1.403 . S
C993 C994 1.392 . S
C993 C997 1.495 . S
C994 C993 1.392 . S
C994 C995 1.385 . S
C994 C996 1.478 . S
C995 H989 0.930 . S
C995 C991 1.400 . S
C995 C994 1.385 . S
C996 C994 1.478 . S
C996 C998 1.381 . S
C996 C1002 1.383 . S
C997 C993 1.495 . S
C997 H1003 0.959 . S
C997 H1004 0.961 . S
C997 H1005 0.960 . S
C998 C996 1.381 . S
C998 C999 1.394 . S
C998 H1006 0.930 . S
C999 C998 1.394 . S
C999 C1000 1.383 . S
C999 H1007 0.929 . S
C1000 C999 1.383 . S
C1000 C1001 1.377 . S
C1001 H985 0.930 . S
C1001 C1000 1.377 . S
C1001 C1002 1.379 . S
C1002 H986 0.931 . S
C1002 C996 1.383 . S
C1002 C1001 1.379 . S
H1003 C997 0.959 . S
H1004 C997 0.961 . S
H1005 C997 0.960 . S
H1006 C998 0.930 . S
H1007 C999 0.929 . S
H1008 C1016 0.929 . S
H1009 C1018 0.930 . S
H1010 C1020 0.930 . S
H1011 C1023 0.929 . S
H1012 C1026 0.930 . S
H1013 C1028 0.960 1_565 S
H1014 C1028 0.960 . S
H1015 C1028 0.960 . S
C1016 H1008 0.929 . S
C1016 C1017 1.377 . S
C1016 C1018 1.384 . S
C1017 C1016 1.377 . S
C1017 C1023 1.390 . S
C1018 H1009 0.930 . S
C1018 C1016 1.384 . S
C1018 C1019 1.372 . S
C1019 C1018 1.372 . S
C1019 C1020 1.400 . S
C1019 C1024 1.490 . S
C1020 H1010 0.930 . S
C1020 C1019 1.400 . S
C1020 C1023 1.386 . S
H1021 C1037 0.930 . S
H1022 C1038 0.931 . S
C1023 H1011 0.929 . S
C1023 C1017 1.390 . S
C1023 C1020 1.386 . S
C1024 C1019 1.490 . S
C1024 C1026 1.395 . S
C1024 C1027 1.403 . S
H1025 C1031 0.899 1_565 S
C1026 H1012 0.930 . S
C1026 C1024 1.395 . S
C1026 C1029 1.403 . S
C1027 C1024 1.403 . S
C1027 C1028 1.524 . S
C1027 C1031 1.400 . S
C1028 H1013 0.960 1_545 S
C1028 H1014 0.960 . S
C1028 H1015 0.960 . S
C1028 C1027 1.524 . S
C1029 C1026 1.403 . S
C1029 C1030 1.392 . S
C1029 C1033 1.495 . S
C1030 C1029 1.392 . S
C1030 C1031 1.385 . S
C1030 C1032 1.478 . S
C1031 H1025 0.899 1_545 S
C1031 C1027 1.400 . S
C1031 C1030 1.385 . S
C1032 C1030 1.478 . S
C1032 C1034 1.381 1_545 S
C1032 C1038 1.383 . S
C1033 C1029 1.495 . S
C1033 H1039 0.959 . S
C1033 H1040 0.961 . S
C1033 H1041 0.960 . S
C1034 C1032 1.381 1_565 S
C1034 C1035 1.394 . S
C1034 H1042 0.930 1_565 S
C1035 C1034 1.394 . S
C1035 C1036 1.383 . S
C1035 H1043 0.929 . S
C1036 C1035 1.383 . S
C1036 C1037 1.377 . S
C1037 H1021 0.930 . S
C1037 C1036 1.377 . S
C1037 C1038 1.379 1_565 S
C1038 H1022 0.931 . S
C1038 C1032 1.383 . S
C1038 C1037 1.379 1_545 S
H1039 C1033 0.959 . S
H1040 C1033 0.961 . S
H1041 C1033 0.960 . S
H1042 C1034 0.930 1_545 S
H1043 C1035 0.929 . S
H1044 C1052 0.929 . S
H1045 C1054 0.930 . S
H1046 C1056 0.930 . S
H1047 C1059 0.929 . S
H1048 C1062 0.930 . S
H1049 C1064 0.960 . S
H1050 C1064 0.960 . S
H1051 C1064 0.960 . S
C1052 H1044 0.929 . S
C1052 C1053 1.377 . S
C1052 C1054 1.384 . S
C1053 C1052 1.377 . S
C1053 C1059 1.390 . S
C1054 H1045 0.930 . S
C1054 C1052 1.384 . S
C1054 C1055 1.372 . S
C1055 C1054 1.372 . S
C1055 C1056 1.400 . S
C1055 C1060 1.490 . S
C1056 H1046 0.930 . S
C1056 C1055 1.400 . S
C1056 C1059 1.386 . S
H1057 C1073 0.930 . S
H1058 C1074 0.931 . S
C1059 H1047 0.929 . S
C1059 C1053 1.390 . S
C1059 C1056 1.386 . S
C1060 C1055 1.490 . S
C1060 C1062 1.395 . S
C1060 C1063 1.403 . S
H1061 C1067 0.930 . S
C1062 H1048 0.930 . S
C1062 C1060 1.395 . S
C1062 C1065 1.403 . S
C1063 C1060 1.403 . S
C1063 C1064 1.524 . S
C1063 C1067 1.400 . S
C1064 H1049 0.960 . S
C1064 H1050 0.960 . S
C1064 H1051 0.960 . S
C1064 C1063 1.524 . S
C1065 C1062 1.403 . S
C1065 C1066 1.392 . S
C1065 C1069 1.495 . S
C1066 C1065 1.392 . S
C1066 C1067 1.385 . S
C1066 C1068 1.478 . S
C1067 H1061 0.930 . S
C1067 C1063 1.400 . S
C1067 C1066 1.385 . S
C1068 C1066 1.478 . S
C1068 C1070 1.381 . S
C1068 C1074 1.383 . S
C1069 C1065 1.495 . S
C1069 H1075 0.959 . S
C1069 H1076 0.961 . S
C1069 H1077 0.960 . S
C1070 C1068 1.381 . S
C1070 C1071 1.394 . S
C1070 H1078 0.930 . S
C1071 C1070 1.394 . S
C1071 C1072 1.383 . S
C1071 H1079 0.929 . S
C1072 C1071 1.383 . S
C1072 C1073 1.377 . S
C1073 H1057 0.930 . S
C1073 C1072 1.377 . S
C1073 C1074 1.379 . S
C1074 H1058 0.931 . S
C1074 C1068 1.383 . S
C1074 C1073 1.379 . S
H1075 C1069 0.959 . S
H1076 C1069 0.961 . S
H1077 C1069 0.960 . S
H1078 C1070 0.930 . S
H1079 C1071 0.929 . S
H1080 C1088 0.929 . S
H1081 C1090 0.930 . S
H1082 C1092 0.930 . S
H1083 C1095 0.929 . S
H1084 C1098 0.930 . S
H1085 C1100 0.960 . S
H1086 C1100 0.960 . S
H1087 C1100 0.960 . S
C1088 H1080 0.929 . S
C1088 C1089 1.377 . S
C1088 C1090 1.384 . S
C1089 C1088 1.377 . S
C1089 C1095 1.390 . S
C1090 H1081 0.930 . S
C1090 C1088 1.384 . S
C1090 C1091 1.372 . S
C1091 C1090 1.372 . S
C1091 C1092 1.400 . S
C1091 C1096 1.490 . S
C1092 H1082 0.930 . S
C1092 C1091 1.400 . S
C1092 C1095 1.386 . S
H1093 C1109 0.930 . S
H1094 C1110 0.931 . S
C1095 H1083 0.929 . S
C1095 C1089 1.390 . S
C1095 C1092 1.386 . S
C1096 C1091 1.490 . S
C1096 C1098 1.395 . S
C1096 C1099 1.403 . S
H1097 C1103 0.930 . S
C1098 H1084 0.930 . S
C1098 C1096 1.395 . S
C1098 C1101 1.403 . S
C1099 C1096 1.403 . S
C1099 C1100 1.524 . S
C1099 C1103 1.400 . S
C1100 H1085 0.960 . S
C1100 H1086 0.960 . S
C1100 H1087 0.960 . S
C1100 C1099 1.524 . S
C1101 C1098 1.403 . S
C1101 C1102 1.392 . S
C1101 C1105 1.495 . S
C1102 C1101 1.392 . S
C1102 C1103 1.385 . S
C1102 C1104 1.478 . S
C1103 H1097 0.930 . S
C1103 C1099 1.400 . S
C1103 C1102 1.385 . S
C1104 C1102 1.478 . S
C1104 C1106 1.381 . S
C1104 C1110 1.383 . S
C1105 C1101 1.495 . S
C1105 H1111 0.959 . S
C1105 H1112 0.961 . S
C1105 H1113 0.960 . S
C1106 C1104 1.381 . S
C1106 C1107 1.394 . S
C1106 H1114 0.930 . S
C1107 C1106 1.394 . S
C1107 C1108 1.383 . S
C1107 H1115 0.929 . S
C1108 C1107 1.383 . S
C1108 C1109 1.377 . S
C1109 H1093 0.930 . S
C1109 C1108 1.377 . S
C1109 C1110 1.379 . S
C1110 H1094 0.931 . S
C1110 C1104 1.383 . S
C1110 C1109 1.379 . S
H1111 C1105 0.959 . S
H1112 C1105 0.961 . S
H1113 C1105 0.960 . S
H1114 C1106 0.930 . S
H1115 C1107 0.929 . S
H1116 C1124 0.929 . S
H1117 C1126 0.930 . S
H1118 C1128 0.930 . S
H1119 C1131 0.929 . S
H1120 C1134 0.930 . S
H1121 C1136 0.960 . S
H1122 C1136 0.960 . S
H1123 C1136 0.960 . S
C1124 H1116 0.929 . S
C1124 C1125 1.377 . S
C1124 C1126 1.384 . S
C1125 C1124 1.377 . S
C1125 C1131 1.390 . S
C1126 H1117 0.930 . S
C1126 C1124 1.384 . S
C1126 C1127 1.372 . S
C1127 C1126 1.372 . S
C1127 C1128 1.400 . S
C1127 C1132 1.490 . S
C1128 H1118 0.930 . S
C1128 C1127 1.400 . S
C1128 C1131 1.386 . S
H1129 C1145 0.930 . S
H1130 C1146 0.931 . S
C1131 H1119 0.929 . S
C1131 C1125 1.390 . S
C1131 C1128 1.386 . S
C1132 C1127 1.490 . S
C1132 C1134 1.395 . S
C1132 C1135 1.403 . S
H1133 C1139 0.930 . S
C1134 H1120 0.930 . S
C1134 C1132 1.395 . S
C1134 C1137 1.403 . S
C1135 C1132 1.403 . S
C1135 C1136 1.524 . S
C1135 C1139 1.400 . S
C1136 H1121 0.960 . S
C1136 H1122 0.960 . S
C1136 H1123 0.960 . S
C1136 C1135 1.524 . S
C1137 C1134 1.403 . S
C1137 C1138 1.392 . S
C1137 C1141 1.495 . S
C1138 C1137 1.392 . S
C1138 C1139 1.385 . S
C1138 C1140 1.478 . S
C1139 H1133 0.930 . S
C1139 C1135 1.400 . S
C1139 C1138 1.385 . S
C1140 C1138 1.478 . S
C1140 C1142 1.381 . S
C1140 C1146 1.383 . S
C1141 C1137 1.495 . S
C1141 H1147 0.959 . S
C1141 H1148 0.961 . S
C1141 H1149 0.960 . S
C1142 C1140 1.381 . S
C1142 C1143 1.394 . S
C1142 H1150 0.930 . S
C1143 C1142 1.394 . S
C1143 C1144 1.383 . S
C1143 H1151 0.929 . S
C1144 C1143 1.383 . S
C1144 C1145 1.377 . S
C1145 H1129 0.930 . S
C1145 C1144 1.377 . S
C1145 C1146 1.379 . S
C1146 H1130 0.931 . S
C1146 C1140 1.383 . S
C1146 C1145 1.379 . S
H1147 C1141 0.959 . S
H1148 C1141 0.961 . S
H1149 C1141 0.960 . S
H1150 C1142 0.930 . S
H1151 C1143 0.929 . S
H1152 C1160 0.929 . S
H1153 C1162 0.930 . S
H1154 C1164 0.930 . S
H1155 C1167 0.929 . S
H1156 C1170 0.930 . S
H1157 C1172 0.960 . S
H1158 C1172 0.960 . S
H1159 C1172 0.960 . S
C1160 H1152 0.929 . S
C1160 C1161 1.377 . S
C1160 C1162 1.384 . S
C1161 C1160 1.377 . S
C1161 C1167 1.390 . S
C1162 H1153 0.930 . S
C1162 C1160 1.384 . S
C1162 C1163 1.372 . S
C1163 C1162 1.372 . S
C1163 C1164 1.400 . S
C1163 C1168 1.490 . S
C1164 H1154 0.930 . S
C1164 C1163 1.400 . S
C1164 C1167 1.386 . S
H1165 C1181 0.930 . S
H1166 C1182 0.931 . S
C1167 H1155 0.929 . S
C1167 C1161 1.390 . S
C1167 C1164 1.386 . S
C1168 C1163 1.490 . S
C1168 C1170 1.395 . S
C1168 C1171 1.403 . S
H1169 C1175 0.930 . S
C1170 H1156 0.930 . S
C1170 C1168 1.395 . S
C1170 C1173 1.403 . S
C1171 C1168 1.403 . S
C1171 C1172 1.524 . S
C1171 C1175 1.400 . S
C1172 H1157 0.960 . S
C1172 H1158 0.960 . S
C1172 H1159 0.960 . S
C1172 C1171 1.524 . S
C1173 C1170 1.403 . S
C1173 C1174 1.392 . S
C1173 C1177 1.495 . S
C1174 C1173 1.392 . S
C1174 C1175 1.385 . S
C1174 C1176 1.478 . S
C1175 H1169 0.930 . S
C1175 C1171 1.400 . S
C1175 C1174 1.385 . S
C1176 C1174 1.478 . S
C1176 C1178 1.381 . S
C1176 C1182 1.383 . S
C1177 C1173 1.495 . S
C1177 H1183 0.959 . S
C1177 H1184 0.961 . S
C1177 H1185 0.960 . S
C1178 C1176 1.381 . S
C1178 C1179 1.394 . S
C1178 H1186 0.930 . S
C1179 C1178 1.394 . S
C1179 C1180 1.383 . S
C1179 H1187 0.929 . S
C1180 C1179 1.383 . S
C1180 C1181 1.377 . S
C1181 H1165 0.930 . S
C1181 C1180 1.377 . S
C1181 C1182 1.379 . S
C1182 H1166 0.931 . S
C1182 C1176 1.383 . S
C1182 C1181 1.379 . S
H1183 C1177 0.959 . S
H1184 C1177 0.961 . S
H1185 C1177 0.960 . S
H1186 C1178 0.930 . S
H1187 C1179 0.929 . S
H1188 C1196 0.929 . S
H1189 C1198 0.930 . S
H1190 C1200 0.930 . S
H1191 C1203 0.929 . S
H1192 C1206 0.930 . S
H1193 C1208 0.960 . S
H1194 C1208 0.960 . S
H1195 C1208 0.960 . S
C1196 H1188 0.929 . S
C1196 C1197 1.377 . S
C1196 C1198 1.384 . S
C1197 C1196 1.377 . S
C1197 C1203 1.390 . S
C1198 H1189 0.930 . S
C1198 C1196 1.384 . S
C1198 C1199 1.372 . S
C1199 C1198 1.372 . S
C1199 C1200 1.400 . S
C1199 C1204 1.490 . S
C1200 H1190 0.930 . S
C1200 C1199 1.400 . S
C1200 C1203 1.386 . S
H1201 C1217 0.930 . S
H1202 C1218 0.931 . S
C1203 H1191 0.929 . S
C1203 C1197 1.390 . S
C1203 C1200 1.386 . S
C1204 C1199 1.490 . S
C1204 C1206 1.395 . S
C1204 C1207 1.403 . S
H1205 C1211 0.930 . S
C1206 H1192 0.930 . S
C1206 C1204 1.395 . S
C1206 C1209 1.403 . S
C1207 C1204 1.403 . S
C1207 C1208 1.524 . S
C1207 C1211 1.400 . S
C1208 H1193 0.960 . S
C1208 H1194 0.960 . S
C1208 H1195 0.960 . S
C1208 C1207 1.524 . S
C1209 C1206 1.403 . S
C1209 C1210 1.392 . S
C1209 C1213 1.495 1_455 S
C1210 C1209 1.392 . S
C1210 C1211 1.385 . S
C1210 C1212 1.478 . S
C1211 H1205 0.930 . S
C1211 C1207 1.400 . S
C1211 C1210 1.385 . S
C1212 C1210 1.478 . S
C1212 C1214 1.371 1_455 S
C1212 C1218 1.383 . S
C1213 C1209 1.495 1_655 S
C1213 H1219 0.959 . S
C1213 H1220 0.961 . S
C1213 H1221 0.960 . S
C1214 C1212 1.371 1_655 S
C1214 C1215 1.409 . S
C1214 H1222 0.926 1_655 S
C1215 C1214 1.409 . S
C1215 C1216 1.383 . S
C1215 H1223 0.929 . S
C1216 C1215 1.383 . S
C1216 C1217 1.377 . S
C1217 H1201 0.930 . S
C1217 C1216 1.377 . S
C1217 C1218 1.379 1_655 S
C1218 H1202 0.931 . S
C1218 C1212 1.383 . S
C1218 C1217 1.379 1_455 S
H1219 C1213 0.959 . S
H1220 C1213 0.961 . S
H1221 C1213 0.960 . S
H1222 C1214 0.926 1_455 S
H1223 C1215 0.929 . S
H1224 C1232 0.929 . S
H1225 C1234 0.930 . S
H1226 C1236 0.930 . S
H1227 C1239 0.929 . S
H1228 C1242 0.930 . S
H1229 C1244 0.960 . S
H1230 C1244 0.960 . S
H1231 C1244 0.960 . S
C1232 H1224 0.929 . S
C1232 C1233 1.377 . S
C1232 C1234 1.384 . S
C1233 C1232 1.377 . S
C1233 C1239 1.390 . S
C1234 H1225 0.930 . S
C1234 C1232 1.384 . S
C1234 C1235 1.372 . S
C1235 C1234 1.372 . S
C1235 C1236 1.400 . S
C1235 C1240 1.490 . S
C1236 H1226 0.930 . S
C1236 C1235 1.400 . S
C1236 C1239 1.386 . S
H1237 C1253 0.930 . S
H1238 C1254 0.931 . S
C1239 H1227 0.929 . S
C1239 C1233 1.390 . S
C1239 C1236 1.386 . S
C1240 C1235 1.490 . S
C1240 C1242 1.395 . S
C1240 C1243 1.403 . S
H1241 C1247 0.930 . S
C1242 H1228 0.930 . S
C1242 C1240 1.395 . S
C1242 C1245 1.403 . S
C1243 C1240 1.403 . S
C1243 C1244 1.524 . S
C1243 C1247 1.400 . S
C1244 H1229 0.960 . S
C1244 H1230 0.960 . S
C1244 H1231 0.960 . S
C1244 C1243 1.524 . S
C1245 C1242 1.403 . S
C1245 C1246 1.392 . S
C1245 C1249 1.495 . S
C1246 C1245 1.392 . S
C1246 C1247 1.385 . S
C1246 C1248 1.478 . S
C1247 H1241 0.930 . S
C1247 C1243 1.400 . S
C1247 C1246 1.385 . S
C1248 C1246 1.478 . S
C1248 C1250 1.381 . S
C1248 C1254 1.383 . S
C1249 C1245 1.495 . S
C1249 H1255 0.959 . S
C1249 H1256 0.961 . S
C1249 H1257 0.960 . S
C1250 C1248 1.381 . S
C1250 C1251 1.394 . S
C1250 H1258 0.930 . S
C1251 C1250 1.394 . S
C1251 C1252 1.383 . S
C1251 H1259 0.929 . S
C1252 C1251 1.383 . S
C1252 C1253 1.377 . S
C1253 H1237 0.930 . S
C1253 C1252 1.377 . S
C1253 C1254 1.379 . S
C1254 H1238 0.931 . S
C1254 C1248 1.383 . S
C1254 C1253 1.379 . S
H1255 C1249 0.959 . S
H1256 C1249 0.961 . S
H1257 C1249 0.960 . S
H1258 C1250 0.930 . S
H1259 C1251 0.929 . S
H1260 C1268 0.929 1_455 S
H1261 C1270 0.930 . S
H1262 C1272 0.930 . S
H1263 C1275 0.929 . S
H1264 C1278 0.930 . S
H1265 C1280 0.960 . S
H1266 C1280 0.960 . S
H1267 C1280 0.960 . S
C1268 H1260 0.929 1_655 S
C1268 C1269 1.377 . S
C1268 C1270 1.384 . S
C1269 C1268 1.377 . S
C1269 C1275 1.390 . S
C1270 H1261 0.930 . S
C1270 C1268 1.384 . S
C1270 C1271 1.372 . S
C1271 C1270 1.372 . S
C1271 C1272 1.400 . S
C1271 C1276 1.490 . S
C1272 H1262 0.930 . S
C1272 C1271 1.400 . S
C1272 C1275 1.386 . S
H1273 C1289 0.930 . S
H1274 C1290 0.931 . S
C1275 H1263 0.929 . S
C1275 C1269 1.390 . S
C1275 C1272 1.386 . S
C1276 C1271 1.490 . S
C1276 C1278 1.395 . S
C1276 C1279 1.403 . S
H1277 C1283 0.930 . S
C1278 H1264 0.930 . S
C1278 C1276 1.395 . S
C1278 C1281 1.403 . S
C1279 C1276 1.403 . S
C1279 C1280 1.524 . S
C1279 C1283 1.400 . S
C1280 H1265 0.960 . S
C1280 H1266 0.960 . S
C1280 H1267 0.960 . S
C1280 C1279 1.524 . S
C1281 C1278 1.403 . S
C1281 C1282 1.392 . S
C1281 C1285 1.495 . S
C1282 C1281 1.392 . S
C1282 C1283 1.385 . S
C1282 C1284 1.478 . S
C1283 H1277 0.930 . S
C1283 C1279 1.400 . S
C1283 C1282 1.385 . S
C1284 C1282 1.478 . S
C1284 C1286 1.381 . S
C1284 C1290 1.383 . S
C1285 C1281 1.495 . S
C1285 H1291 0.959 . S
C1285 H1292 0.961 . S
C1285 H1293 0.960 . S
C1286 C1284 1.381 . S
C1286 C1287 1.394 . S
C1286 H1294 0.930 . S
C1287 C1286 1.394 . S
C1287 C1288 1.383 . S
C1287 H1295 0.929 . S
C1288 C1287 1.383 . S
C1288 C1289 1.377 . S
C1289 H1273 0.930 . S
C1289 C1288 1.377 . S
C1289 C1290 1.379 . S
C1290 H1274 0.931 . S
C1290 C1284 1.383 . S
C1290 C1289 1.379 . S
H1291 C1285 0.959 . S
H1292 C1285 0.961 . S
H1293 C1285 0.960 . S
H1294 C1286 0.930 . S
H1295 C1287 0.929 . S
H1296 C1304 0.929 . S
H1297 C1306 0.930 . S
H1298 C1308 0.930 . S
H1299 C1311 0.929 . S
H1300 C1314 0.930 . S
H1301 C1316 0.960 . S
H1302 C1316 0.960 . S
H1303 C1316 0.960 . S
C1304 H1296 0.929 . S
C1304 C1305 1.377 . S
C1304 C1306 1.384 . S
C1305 C1304 1.377 . S
C1305 C1311 1.390 . S
C1306 H1297 0.930 . S
C1306 C1304 1.384 . S
C1306 C1307 1.372 . S
C1307 C1306 1.372 . S
C1307 C1308 1.400 . S
C1307 C1312 1.490 . S
C1308 H1298 0.930 . S
C1308 C1307 1.400 . S
C1308 C1311 1.386 . S
H1309 C1325 0.931 . S
H1310 C1326 0.931 . S
C1311 H1299 0.929 . S
C1311 C1305 1.390 . S
C1311 C1308 1.386 . S
C1312 C1307 1.490 . S
C1312 C1314 1.395 . S
C1312 C1315 1.403 . S
H1313 C1319 0.930 . S
C1314 H1300 0.930 . S
C1314 C1312 1.395 . S
C1314 C1317 1.403 . S
C1315 C1312 1.403 . S
C1315 C1316 1.524 . S
C1315 C1319 1.400 . S
C1316 H1301 0.960 . S
C1316 H1302 0.960 . S
C1316 H1303 0.960 . S
C1316 C1315 1.524 . S
C1317 C1314 1.403 . S
C1317 C1318 1.392 . S
C1317 C1321 1.495 1_455 S
C1318 C1317 1.392 . S
C1318 C1319 1.385 . S
C1318 C1320 1.478 . S
C1319 H1313 0.930 . S
C1319 C1315 1.400 . S
C1319 C1318 1.385 . S
C1320 C1318 1.478 . S
C1320 C1322 1.381 . S
C1320 C1326 1.383 . S
C1321 C1317 1.495 1_655 S
C1321 H1327 0.959 . S
C1321 H1328 0.961 . S
C1321 H1329 0.960 . S
C1322 C1320 1.381 . S
C1322 C1323 1.394 1_455 S
C1322 H1330 0.930 . S
C1323 C1322 1.394 1_655 S
C1323 C1324 1.383 . S
C1323 H1331 0.929 . S
C1324 C1323 1.383 . S
C1324 C1325 1.380 . S
C1325 H1309 0.931 . S
C1325 C1324 1.380 . S
C1325 C1326 1.374 1_655 S
C1326 H1310 0.931 . S
C1326 C1320 1.383 . S
C1326 C1325 1.374 1_455 S
H1327 C1321 0.959 . S
H1328 C1321 0.961 . S
H1329 C1321 0.960 . S
H1330 C1322 0.930 . S
H1331 C1323 0.929 . S
H1332 C1340 0.929 . S
H1333 C1342 0.930 . S
H1334 C1344 0.930 . S
H1335 C1347 0.929 . S
H1336 C1350 0.930 . S
H1337 C1352 0.960 . S
H1338 C1352 0.960 . S
H1339 C1352 0.960 . S
C1340 H1332 0.929 . S
C1340 C1341 1.377 . S
C1340 C1342 1.384 . S
C1341 C1340 1.377 . S
C1341 C1347 1.390 . S
C1342 H1333 0.930 . S
C1342 C1340 1.384 . S
C1342 C1343 1.372 . S
C1343 C1342 1.372 . S
C1343 C1344 1.400 . S
C1343 C1348 1.490 . S
C1344 H1334 0.930 . S
C1344 C1343 1.400 . S
C1344 C1347 1.386 . S
H1345 C1361 0.930 . S
H1346 C1362 0.931 . S
C1347 H1335 0.929 . S
C1347 C1341 1.390 . S
C1347 C1344 1.386 . S
C1348 C1343 1.490 . S
C1348 C1350 1.395 . S
C1348 C1351 1.403 . S
H1349 C1355 0.930 . S
C1350 H1336 0.930 . S
C1350 C1348 1.395 . S
C1350 C1353 1.403 . S
C1351 C1348 1.403 . S
C1351 C1352 1.524 . S
C1351 C1355 1.400 . S
C1352 H1337 0.960 . S
C1352 H1338 0.960 . S
C1352 H1339 0.960 . S
C1352 C1351 1.524 . S
C1353 C1350 1.403 . S
C1353 C1354 1.392 . S
C1353 C1357 1.495 . S
C1354 C1353 1.392 . S
C1354 C1355 1.385 . S
C1354 C1356 1.478 . S
C1355 H1349 0.930 . S
C1355 C1351 1.400 . S
C1355 C1354 1.385 . S
C1356 C1354 1.478 . S
C1356 C1358 1.381 . S
C1356 C1362 1.383 . S
C1357 C1353 1.495 . S
C1357 H1363 0.959 . S
C1357 H1364 0.961 . S
C1357 H1365 0.960 . S
C1358 C1356 1.381 . S
C1358 C1359 1.394 . S
C1358 H1366 0.930 . S
C1359 C1358 1.394 . S
C1359 C1360 1.383 . S
C1359 H1367 0.929 . S
C1360 C1359 1.383 . S
C1360 C1361 1.377 . S
C1361 H1345 0.930 . S
C1361 C1360 1.377 . S
C1361 C1362 1.379 . S
C1362 H1346 0.931 . S
C1362 C1356 1.383 . S
C1362 C1361 1.379 . S
H1363 C1357 0.959 . S
H1364 C1357 0.961 . S
H1365 C1357 0.960 . S
H1366 C1358 0.930 . S
H1367 C1359 0.929 . S
C244 C126 1.144 . S
C225 C5 1.131 . S
C280 C140 1.153 . S
C261 C18 1.152 . S
C316 C155 1.117 . S
C297 C31 1.152 . S
C333 C42 1.076 . S
C352 C113 1.112 . S
C369 C57 1.364 . S
C388 C112 1.398 . S
C405 C70 1.392 . S
C424 C127 1.363 . S
C460 C141 1.369 . S
C441 C81 1.434 . S
C496 C154 1.398 . S
C477 C96 1.383 . S
C513 C29 1.388 . S
C532 C182 1.377 . S
C568 C196 1.401 . S
C549 C44 1.387 . S
C585 C3 1.414 . S
C604 C211 1.350 . S
C640 C168 1.396 . S
C621 C16 1.398 . S
C657 C83 1.131 . S
C676 C169 1.111 . S
C693 C94 1.103 1_655 S
C712 C183 1.127 . S
C748 C197 1.094 . S
C729 C55 1.115 . S
C765 C68 1.127 . S
C784 C210 1.184 . S
C820 C135 1.315 . S
C801 C1 1.315 . S
C856 C153 1.264 . S
C837 C14 1.313 . S
C873 C27 1.290 . S
C892 C111 1.291 . S
C909 C49 1.297 . S
C928 C121 1.298 . S
C945 C53 1.633 . S
C964 C149 1.700 . S
C1000 C107 1.694 . S
C981 C66 1.638 . S
C1036 C125 1.645 . S
C1017 C88 1.685 . S
C1072 C139 1.639 . S
C1053 C92 1.632 . S
C1108 C191 1.690 . S
C1089 C36 1.687 . S
C1144 C209 1.630 . S
C1125 C40 1.623 . S
C1161 C10 1.685 . S
C1180 C163 1.677 . S
C1216 C177 1.700 . S
C1197 C23 1.686 . S
C1252 C205 1.293 . S
C1233 C79 1.312 . S
C1269 C101 1.286 . S
C1288 C167 1.246 . S
C1324 C181 1.293 . S
C1305 C62 1.294 . S
C1360 C195 1.322 . S
C1341 C75 1.317 . S
