# Generated by pormake.
# Topology ocu, (6,8)-cn, num edge types: 1
# Building blocks:
#     Node 0, Type 0, BuildingBlock: PAMTOO_clean_sbu_0, # of connection points: 6
#     Node 1, Type 0, BuildingBlock: PAMTOO_clean_sbu_0, # of connection points: 6
#     Node 2, Type 0, BuildingBlock: PAMTOO_clean_sbu_0, # of connection points: 6
#     Node 3, Type 0, BuildingBlock: PAMTOO_clean_sbu_0, # of connection points: 6
#     Node 4, Type 0, BuildingBlock: PAMTOO_clean_sbu_0, # of connection points: 6
#     Node 5, Type 0, BuildingBlock: PAMTOO_clean_sbu_0, # of connection points: 6
#     Node 6, Type 0, BuildingBlock: PAMTOO_clean_sbu_0, # of connection points: 6
#     Node 7, Type 0, BuildingBlock: PAMTOO_clean_sbu_0, # of connection points: 6
#     Node 8, Type 1, BuildingBlock: VETTIZ_charged_sbu_0, # of connection points: 8
#     Node 9, Type 1, BuildingBlock: VETTIZ_charged_sbu_0, # of connection points: 8
#     Node 10, Type 1, BuildingBlock: VETTIZ_charged_sbu_0, # of connection points: 8
#     Node 11, Type 1, BuildingBlock: VETTIZ_charged_sbu_0, # of connection points: 8
#     Node 12, Type 1, BuildingBlock: VETTIZ_charged_sbu_0, # of connection points: 8
#     Node 13, Type 1, BuildingBlock: VETTIZ_charged_sbu_0, # of connection points: 8
#     Edge 14, Type (0, 1), BuildingBlock: TEMPAE_clean_linker_10, # of connection points: 2
#     Edge 15, Type (0, 1), BuildingBlock: TEMPAE_clean_linker_10, # of connection points: 2
#     Edge 16, Type (0, 1), BuildingBlock: TEMPAE_clean_linker_10, # of connection points: 2
#     Edge 17, Type (0, 1), BuildingBlock: TEMPAE_clean_linker_10, # of connection points: 2
#     Edge 18, Type (0, 1), BuildingBlock: TEMPAE_clean_linker_10, # of connection points: 2
#     Edge 19, Type (0, 1), BuildingBlock: TEMPAE_clean_linker_10, # of connection points: 2
#     Edge 20, Type (0, 1), BuildingBlock: TEMPAE_clean_linker_10, # of connection points: 2
#     Edge 21, Type (0, 1), BuildingBlock: TEMPAE_clean_linker_10, # of connection points: 2
#     Edge 22, Type (0, 1), BuildingBlock: TEMPAE_clean_linker_10, # of connection points: 2
#     Edge 23, Type (0, 1), BuildingBlock: TEMPAE_clean_linker_10, # of connection points: 2
#     Edge 24, Type (0, 1), BuildingBlock: TEMPAE_clean_linker_10, # of connection points: 2
#     Edge 25, Type (0, 1), BuildingBlock: TEMPAE_clean_linker_10, # of connection points: 2
#     Edge 26, Type (0, 1), BuildingBlock: TEMPAE_clean_linker_10, # of connection points: 2
#     Edge 27, Type (0, 1), BuildingBlock: TEMPAE_clean_linker_10, # of connection points: 2
#     Edge 28, Type (0, 1), BuildingBlock: TEMPAE_clean_linker_10, # of connection points: 2
#     Edge 29, Type (0, 1), BuildingBlock: TEMPAE_clean_linker_10, # of connection points: 2
#     Edge 30, Type (0, 1), BuildingBlock: TEMPAE_clean_linker_10, # of connection points: 2
#     Edge 31, Type (0, 1), BuildingBlock: TEMPAE_clean_linker_10, # of connection points: 2
#     Edge 32, Type (0, 1), BuildingBlock: TEMPAE_clean_linker_10, # of connection points: 2
#     Edge 33, Type (0, 1), BuildingBlock: TEMPAE_clean_linker_10, # of connection points: 2
#     Edge 34, Type (0, 1), BuildingBlock: TEMPAE_clean_linker_10, # of connection points: 2
#     Edge 35, Type (0, 1), BuildingBlock: TEMPAE_clean_linker_10, # of connection points: 2
#     Edge 36, Type (0, 1), BuildingBlock: TEMPAE_clean_linker_10, # of connection points: 2
#     Edge 37, Type (0, 1), BuildingBlock: TEMPAE_clean_linker_10, # of connection points: 2
#     Edge 38, Type (0, 1), BuildingBlock: TEMPAE_clean_linker_10, # of connection points: 2
#     Edge 39, Type (0, 1), BuildingBlock: TEMPAE_clean_linker_10, # of connection points: 2
#     Edge 40, Type (0, 1), BuildingBlock: TEMPAE_clean_linker_10, # of connection points: 2
#     Edge 41, Type (0, 1), BuildingBlock: TEMPAE_clean_linker_10, # of connection points: 2
#     Edge 42, Type (0, 1), BuildingBlock: TEMPAE_clean_linker_10, # of connection points: 2
#     Edge 43, Type (0, 1), BuildingBlock: TEMPAE_clean_linker_10, # of connection points: 2
#     Edge 44, Type (0, 1), BuildingBlock: TEMPAE_clean_linker_10, # of connection points: 2
#     Edge 45, Type (0, 1), BuildingBlock: TEMPAE_clean_linker_10, # of connection points: 2
#     Edge 46, Type (0, 1), BuildingBlock: TEMPAE_clean_linker_10, # of connection points: 2
#     Edge 47, Type (0, 1), BuildingBlock: TEMPAE_clean_linker_10, # of connection points: 2
#     Edge 48, Type (0, 1), BuildingBlock: TEMPAE_clean_linker_10, # of connection points: 2
#     Edge 49, Type (0, 1), BuildingBlock: TEMPAE_clean_linker_10, # of connection points: 2
#     Edge 50, Type (0, 1), BuildingBlock: TEMPAE_clean_linker_10, # of connection points: 2
#     Edge 51, Type (0, 1), BuildingBlock: TEMPAE_clean_linker_10, # of connection points: 2
#     Edge 52, Type (0, 1), BuildingBlock: TEMPAE_clean_linker_10, # of connection points: 2
#     Edge 53, Type (0, 1), BuildingBlock: TEMPAE_clean_linker_10, # of connection points: 2
#     Edge 54, Type (0, 1), BuildingBlock: TEMPAE_clean_linker_10, # of connection points: 2
#     Edge 55, Type (0, 1), BuildingBlock: TEMPAE_clean_linker_10, # of connection points: 2
#     Edge 56, Type (0, 1), BuildingBlock: TEMPAE_clean_linker_10, # of connection points: 2
#     Edge 57, Type (0, 1), BuildingBlock: TEMPAE_clean_linker_10, # of connection points: 2
#     Edge 58, Type (0, 1), BuildingBlock: TEMPAE_clean_linker_10, # of connection points: 2
#     Edge 59, Type (0, 1), BuildingBlock: TEMPAE_clean_linker_10, # of connection points: 2
#     Edge 60, Type (0, 1), BuildingBlock: TEMPAE_clean_linker_10, # of connection points: 2
#     Edge 61, Type (0, 1), BuildingBlock: TEMPAE_clean_linker_10, # of connection points: 2
# Relax obj value: 0.203
# Max RMSD: 0.259
# Mean RMSD: 0.143
data_MOF--net-ocu--node1-PAMTOO_clean_sbu_0--node2-VETTIZ_charged_sbu_0--edge1-TEMPAE_clean_linker_10
_symmetry_space_group_name_H-M    P1
_symmetry_Int_Tables_number       1
_symmetry_cell_setting            triclinic
loop_
_symmetry_equiv_pos_as_xyz
'x, y, z'
_cell_length_a     38.714837
_cell_length_b     41.50221
_cell_length_c     39.681628
_cell_angle_alpha  91.720151
_cell_angle_beta   92.713297
_cell_angle_gamma 96.636825
loop_
_atom_site_label
_atom_site_type_symbol
_atom_site_fract_x
_atom_site_fract_y
_atom_site_fract_z
_atom_type_partial_charge
Dy0 Dy 0.32725 0.30176 0.31938 0.0
Dy1 Dy 0.26294 0.28953 0.26697 0.0
C2 C 0.334 0.25632 0.24889 0.0
O3 O 0.34159 0.3399 0.28051 0.0
O4 O 0.29201 0.33502 0.2463 0.0
O5 O 0.36897 0.28139 0.34507 0.0
O6 O 0.36466 0.33312 0.35182 0.0
O7 O 0.24386 0.32514 0.30645 0.0
O8 O 0.28898 0.33063 0.34637 0.0
O9 O 0.25313 0.24671 0.301 0.0
O10 O 0.28769 0.26709 0.34645 0.0
O11 O 0.20779 0.27548 0.25786 0.0
O12 O 0.24004 0.28728 0.21614 0.0
C13 C 0.32387 0.34909 0.25392 0.0
O14 O 0.34791 0.26957 0.278 0.0
O15 O 0.30105 0.25957 0.24059 0.0
C16 C 0.39735 0.30785 0.39428 0.0
C17 C 0.44257 0.29531 0.4487 0.0
C18 C 0.41163 0.27447 0.4408 0.0
C19 C 0.38917 0.28075 0.4139 0.0
C20 C 0.42582 0.33063 0.40449 0.0
C21 C 0.44817 0.32454 0.43166 0.0
C22 C 0.38195 0.309 0.35983 0.0
C23 C 0.2572 0.33659 0.3366 0.0
C24 C 0.26133 0.2465 0.3336 0.0
C25 C 0.18688 0.30963 0.2175 0.0
C26 C 0.15713 0.368 0.2132 0.0
C27 C 0.18339 0.3615 0.19166 0.0
C28 C 0.19809 0.3325 0.1937 0.0
C29 C 0.15863 0.31508 0.23704 0.0
C30 C 0.14404 0.34414 0.23507 0.0
C31 C 0.20845 0.28387 0.22652 0.0
H32 H 0.40631 0.25162 0.45308 0.0
H33 H 0.36719 0.2629 0.40664 0.0
H34 H 0.43245 0.35181 0.38973 0.0
H35 H 0.47122 0.3415 0.4376 0.0
H36 H 0.1937 0.37944 0.17434 0.0
H37 H 0.21962 0.32895 0.17807 0.0
H38 H 0.14915 0.29774 0.25532 0.0
H39 H 0.12306 0.34827 0.25121 0.0
Dy40 Dy 0.82551 0.30831 0.26318 0.0
Dy41 Dy 0.76955 0.30944 0.31829 0.0
C42 C 0.84478 0.35234 0.3307 0.0
O43 O 0.84583 0.27385 0.30325 0.0
O44 O 0.80578 0.27525 0.34372 0.0
O45 O 0.86708 0.32986 0.23393 0.0
O46 O 0.84992 0.27833 0.22793 0.0
O47 O 0.74506 0.26764 0.28346 0.0
O48 O 0.7778 0.27968 0.23836 0.0
O49 O 0.75147 0.34651 0.28004 0.0
O50 O 0.78778 0.34075 0.23712 0.0
O51 O 0.72589 0.28941 0.34565 0.0
O52 O 0.74731 0.33967 0.35491 0.0
C53 C 0.83503 0.26496 0.33341 0.0
O54 O 0.84862 0.35044 0.29796 0.0
O55 O 0.81884 0.3348 0.34391 0.0
C56 C 0.85778 0.30878 0.17909 0.0
C57 C 0.83244 0.35019 0.13241 0.0
C58 C 0.86858 0.34941 0.13739 0.0
C59 C 0.88124 0.32901 0.16117 0.0
C60 C 0.82242 0.30422 0.16797 0.0
C61 C 0.80967 0.32518 0.14489 0.0
C62 C 0.86665 0.30366 0.21475 0.0
C63 C 0.75075 0.26358 0.25124 0.0
C64 C 0.76048 0.35344 0.24886 0.0
C65 C 0.733 0.30775 0.40143 0.0
C66 C 0.74799 0.26287 0.44905 0.0
C67 C 0.77488 0.28515 0.43837 0.0
C68 C 0.76739 0.30764 0.4145 0.0
C69 C 0.70572 0.29026 0.41739 0.0
C70 C 0.71322 0.26793 0.44146 0.0
C71 C 0.72745 0.31502 0.36586 0.0
H72 H 0.88678 0.36818 0.12754 0.0
H73 H 0.90863 0.33268 0.16908 0.0
H74 H 0.80385 0.28803 0.18072 0.0
H75 H 0.78178 0.32489 0.14077 0.0
H76 H 0.80181 0.28201 0.44452 0.0
H77 H 0.78891 0.3213 0.40285 0.0
H78 H 0.67905 0.29016 0.40775 0.0
H79 H 0.69198 0.2511 0.44965 0.0
Dy80 Dy 0.77893 0.75713 0.34078 0.0
Dy81 Dy 0.81387 0.80875 0.28671 0.0
C82 C 0.84917 0.80485 0.36102 0.0
O83 O 0.7615 0.80437 0.35575 0.0
O84 O 0.76666 0.82917 0.30486 0.0
O85 O 0.777 0.73479 0.38927 0.0
O86 O 0.73828 0.71851 0.34969 0.0
O87 O 0.77699 0.77245 0.25688 0.0
O88 O 0.73945 0.76028 0.29835 0.0
O89 O 0.84854 0.76959 0.29091 0.0
O90 O 0.80609 0.72942 0.3031 0.0
O91 O 0.83137 0.81924 0.23687 0.0
O92 O 0.83611 0.85716 0.276 0.0
C93 C 0.75514 0.82766 0.33552 0.0
O94 O 0.83094 0.77668 0.36576 0.0
O95 O 0.84329 0.82234 0.33493 0.0
C96 C 0.76144 0.67897 0.38229 0.0
C97 C 0.79943 0.62618 0.39197 0.0
C98 C 0.7843 0.64038 0.41941 0.0
C99 C 0.76548 0.66676 0.41458 0.0
C100 C 0.77299 0.66233 0.35438 0.0
C101 C 0.79175 0.63601 0.3592 0.0
C102 C 0.75245 0.71212 0.37875 0.0
C103 C 0.74705 0.75884 0.26649 0.0
C104 C 0.8356 0.73893 0.28951 0.0
C105 C 0.81694 0.87112 0.22242 0.0
C106 C 0.77083 0.91107 0.19318 0.0
C107 C 0.76552 0.87735 0.18696 0.0
C108 C 0.78827 0.8575 0.20158 0.0
C109 C 0.82333 0.90498 0.2271 0.0
C110 C 0.80032 0.92483 0.21273 0.0
C111 C 0.83646 0.85042 0.24376 0.0
H112 H 0.79009 0.63341 0.44498 0.0
H113 H 0.75688 0.67939 0.43638 0.0
H114 H 0.77022 0.67132 0.32916 0.0
H115 H 0.80302 0.6253 0.33768 0.0
H116 H 0.74284 0.86618 0.1721 0.0
H117 H 0.78236 0.83145 0.19784 0.0
H118 H 0.84514 0.91594 0.24328 0.0
H119 H 0.80513 0.95084 0.21748 0.0
Dy120 Dy 0.28124 0.82154 0.28623 0.0
Dy121 Dy 0.34315 0.7813 0.30676 0.0
C122 C 0.34284 0.85426 0.33512 0.0
O123 O 0.32381 0.84679 0.25555 0.0
O124 O 0.36307 0.80952 0.26003 0.0
O125 O 0.25279 0.8629 0.28032 0.0
O126 O 0.23195 0.81596 0.25801 0.0
O127 O 0.30153 0.74702 0.27982 0.0
O128 O 0.29027 0.78622 0.24514 0.0
O129 O 0.30505 0.76738 0.34822 0.0
O130 O 0.25662 0.78632 0.32472 0.0
O131 O 0.37632 0.74467 0.29563 0.0
O132 O 0.38315 0.77183 0.34372 0.0
C133 C 0.35311 0.83631 0.24647 0.0
O134 O 0.30883 0.85182 0.32985 0.0
O135 O 0.36075 0.83211 0.32322 0.0
C136 C 0.19293 0.84794 0.2805 0.0
C137 C 0.13524 0.86193 0.31543 0.0
C138 C 0.15975 0.84352 0.33039 0.0
C139 C 0.18842 0.8367 0.31304 0.0
C140 C 0.16688 0.86314 0.26398 0.0
C141 C 0.13788 0.8699 0.28133 0.0
C142 C 0.22591 0.84553 0.26517 0.0
C143 C 0.28749 0.75547 0.25146 0.0
C144 C 0.27097 0.76888 0.34788 0.0
C145 C 0.4329 0.76215 0.31525 0.0
C146 C 0.49026 0.76997 0.27511 0.0
C147 C 0.48507 0.74287 0.29558 0.0
C148 C 0.45608 0.73875 0.31524 0.0
C149 C 0.44168 0.79185 0.29987 0.0
C150 C 0.47035 0.79576 0.27976 0.0
C151 C 0.39661 0.75263 0.32262 0.0
H152 H 0.15891 0.8372 0.35664 0.0
H153 H 0.2083 0.82467 0.32595 0.0
H154 H 0.16991 0.87135 0.23852 0.0
H155 H 0.11904 0.88362 0.26903 0.0
H156 H 0.50003 0.72256 0.2924 0.0
H157 H 0.44968 0.71578 0.32707 0.0
H158 H 0.42409 0.81034 0.29993 0.0
H159 H 0.47399 0.81686 0.26433 0.0
Dy160 Dy 0.30971 0.80028 0.77304 0.0
Dy161 Dy 0.25821 0.81005 0.83098 0.0
C162 C 0.33015 0.85448 0.82819 0.0
O163 O 0.33619 0.775 0.81738 0.0
O164 O 0.29159 0.77184 0.85372 0.0
O165 O 0.35835 0.80578 0.74797 0.0
O166 O 0.31313 0.77564 0.72514 0.0
O167 O 0.23023 0.77516 0.79231 0.0
O168 O 0.27955 0.7537 0.78366 0.0
O169 O 0.24027 0.84585 0.79188 0.0
O170 O 0.26679 0.82704 0.74629 0.0
O171 O 0.21595 0.79203 0.86112 0.0
O172 O 0.241 0.84139 0.8697 0.0
C173 C 0.32279 0.76387 0.84585 0.0
O174 O 0.32894 0.84923 0.79553 0.0
O175 O 0.30979 0.83631 0.84706 0.0
C176 C 0.34942 0.80555 0.68886 0.0
C177 C 0.36173 0.84086 0.63037 0.0
C178 C 0.32965 0.84039 0.64559 0.0
C179 C 0.32359 0.82294 0.67468 0.0
C180 C 0.38072 0.80469 0.67292 0.0
C181 C 0.38688 0.82221 0.64395 0.0
C182 C 0.34456 0.78949 0.72096 0.0
C183 C 0.24584 0.7511 0.78107 0.0
C184 C 0.24421 0.84565 0.75874 0.0
C185 C 0.22691 0.81025 0.91677 0.0
C186 C 0.23409 0.77327 0.97398 0.0
C187 C 0.26339 0.78353 0.95588 0.0
C188 C 0.25982 0.80199 0.92737 0.0
C189 C 0.19879 0.80378 0.93729 0.0
C190 C 0.20241 0.78561 0.96596 0.0
C191 C 0.22032 0.81769 0.88143 0.0
H192 H 0.30976 0.85441 0.63572 0.0
H193 H 0.29912 0.82376 0.6866 0.0
H194 H 0.40089 0.79141 0.68356 0.0
H195 H 0.41221 0.8226 0.63339 0.0
H196 H 0.28807 0.77456 0.96173 0.0
H197 H 0.28191 0.80696 0.91179 0.0
H198 H 0.17324 0.80987 0.92937 0.0
H199 H 0.17925 0.77791 0.97928 0.0
Dy200 Dy 0.32147 0.30488 0.77671 0.0
Dy201 Dy 0.263 0.30344 0.8319 0.0
C202 C 0.24893 0.25752 0.76468 0.0
O203 O 0.28967 0.34642 0.76237 0.0
O204 O 0.23932 0.32838 0.78729 0.0
O205 O 0.33693 0.30346 0.72511 0.0
O206 O 0.37597 0.31149 0.76608 0.0
O207 O 0.29652 0.34992 0.84412 0.0
O208 O 0.34544 0.33649 0.82011 0.0
O209 O 0.30755 0.27782 0.85536 0.0
O210 O 0.33133 0.26092 0.80754 0.0
O211 O 0.239 0.27961 0.87423 0.0
O212 O 0.22196 0.32421 0.8563 0.0
C213 C 0.25575 0.34717 0.76533 0.0
O214 O 0.27914 0.26896 0.75359 0.0
O215 O 0.23884 0.26529 0.79465 0.0
C216 C 0.38819 0.27884 0.72032 0.0
C217 C 0.42535 0.22869 0.69775 0.0
C218 C 0.39347 0.22138 0.71296 0.0
C219 C 0.3751 0.24628 0.72428 0.0
C220 C 0.41981 0.28629 0.705 0.0
C221 C 0.43829 0.26139 0.69377 0.0
C222 C 0.36991 0.30493 0.73395 0.0
C223 C 0.33017 0.35456 0.84104 0.0
C224 C 0.3282 0.25908 0.84047 0.0
C225 C 0.22302 0.31762 0.91434 0.0
C226 C 0.22138 0.35677 0.9731 0.0
C227 C 0.25143 0.35884 0.95437 0.0
C228 C 0.25227 0.3393 0.92519 0.0
C229 C 0.19423 0.31356 0.9344 0.0
C230 C 0.19345 0.33288 0.96369 0.0
C231 C 0.22032 0.30319 0.88004 0.0
H232 H 0.38307 0.19644 0.71664 0.0
H233 H 0.35087 0.24015 0.73649 0.0
H234 H 0.43033 0.31132 0.70199 0.0
H235 H 0.46259 0.2677 0.68177 0.0
H236 H 0.27335 0.37693 0.96109 0.0
H237 H 0.27481 0.3426 0.90995 0.0
H238 H 0.17144 0.29701 0.92627 0.0
H239 H 0.16973 0.33098 0.97729 0.0
Dy240 Dy 0.76803 0.33122 0.78054 0.0
Dy241 Dy 0.82893 0.29589 0.81748 0.0
C242 C 0.81261 0.36598 0.84271 0.0
O243 O 0.81797 0.35272 0.75891 0.0
O244 O 0.85062 0.31088 0.76759 0.0
O245 O 0.74493 0.37422 0.76659 0.0
O246 O 0.72187 0.32682 0.74745 0.0
O247 O 0.80113 0.25684 0.78259 0.0
O248 O 0.77534 0.28946 0.74592 0.0
O249 O 0.7848 0.2899 0.85288 0.0
O250 O 0.73948 0.29733 0.81582 0.0
O251 O 0.84791 0.25494 0.84167 0.0
O252 O 0.88082 0.30063 0.84084 0.0
C253 C 0.84527 0.33781 0.75233 0.0
O254 O 0.78054 0.359 0.83013 0.0
O255 O 0.83679 0.34817 0.83419 0.0
C256 C 0.68427 0.36412 0.76311 0.0
C257 C 0.6291 0.38541 0.79735 0.0
C258 C 0.64194 0.35635 0.80604 0.0
C259 C 0.66943 0.34584 0.78907 0.0
C260 C 0.6693 0.3913 0.75212 0.0
C261 C 0.64163 0.40181 0.76904 0.0
C262 C 0.7179 0.35743 0.75111 0.0
C263 C 0.78358 0.26088 0.75422 0.0
C264 C 0.75114 0.28696 0.84474 0.0
C265 C 0.90673 0.2527 0.833 0.0
C266 C 0.94721 0.21224 0.79813 0.0
C267 C 0.9413 0.2425 0.78545 0.0
C268 C 0.92115 0.26249 0.80266 0.0
C269 C 0.91475 0.22375 0.84712 0.0
C270 C 0.93493 0.20358 0.82978 0.0
C271 C 0.8793 0.26983 0.84685 0.0
H272 H 0.63306 0.34336 0.82789 0.0
H273 H 0.68065 0.32471 0.79778 0.0
H274 H 0.68042 0.40554 0.732 0.0
H275 H 0.63183 0.42413 0.76167 0.0
H276 H 0.94982 0.24967 0.76087 0.0
H277 H 0.91501 0.28457 0.79106 0.0
H278 H 0.90368 0.21582 0.87048 0.0
H279 H 0.9393 0.18047 0.84016 0.0
Dy280 Dy 0.83564 0.81228 0.82564 0.0
Dy281 Dy 0.77641 0.79285 0.77091 0.0
C282 C 0.85195 0.76075 0.76016 0.0
O283 O 0.85051 0.84933 0.78662 0.0
O284 O 0.81239 0.82985 0.74313 0.0
O285 O 0.87885 0.80007 0.857 0.0
O286 O 0.86446 0.84892 0.85931 0.0
O287 O 0.7493 0.8292 0.80565 0.0
O288 O 0.79202 0.84127 0.84687 0.0
O289 O 0.76003 0.75783 0.8119 0.0
O290 O 0.80117 0.7746 0.8536 0.0
O291 O 0.73574 0.80485 0.73631 0.0
O292 O 0.74444 0.75449 0.74217 0.0
C293 C 0.83948 0.85014 0.75483 0.0
O294 O 0.86304 0.7773 0.78909 0.0
O295 O 0.81921 0.76326 0.74931 0.0
C296 C 0.8768 0.82392 0.91019 0.0
C297 C 0.86017 0.78448 0.96403 0.0
C298 C 0.89526 0.79371 0.95747 0.0
C299 C 0.90354 0.81313 0.93023 0.0
C300 C 0.84264 0.82032 0.9213 0.0
C301 C 0.83434 0.80059 0.94826 0.0
C302 C 0.88172 0.82767 0.87411 0.0
C303 C 0.75984 0.84486 0.83511 0.0
C304 C 0.77253 0.75594 0.84313 0.0
C305 C 0.72551 0.76945 0.68833 0.0
C306 C 0.70975 0.76757 0.61845 0.0
C307 C 0.73772 0.78916 0.63289 0.0
C308 C 0.74555 0.79004 0.66755 0.0
C309 C 0.70079 0.74512 0.67368 0.0
C310 C 0.69325 0.74388 0.63886 0.0
C311 C 0.728 0.77483 0.72508 0.0
H312 H 0.91572 0.78178 0.96961 0.0
H313 H 0.93003 0.81575 0.92214 0.0
H314 H 0.82157 0.82878 0.90641 0.0
H315 H 0.80725 0.79431 0.95351 0.0
H316 H 0.7512 0.80784 0.61827 0.0
H317 H 0.76546 0.80845 0.67834 0.0
H318 H 0.68572 0.72844 0.68939 0.0
H319 H 0.67223 0.72639 0.62844 0.0
Fe320 Fe 0.04398 0.09363 0.53771 0.0
O321 O 1.01196 0.05316 0.52324 0.0
Fe322 Fe 0.12211 0.05871 0.55804 0.0
Fe323 Fe 0.96029 0.0487 0.53064 0.0
O324 O 0.07177 0.06059 0.56059 0.0
O325 O 0.07078 0.05646 0.5659 0.0
O326 O 1.01071 0.04899 0.52895 0.0
Fe327 Fe 0.03841 1.01642 0.55225 0.0
C328 C 0.98684 0.09529 0.58716 0.0
O329 O 1.00653 0.12254 0.51036 0.0
O330 O 0.96131 0.0839 0.49247 0.0
O331 O 0.06309 1.01575 0.50893 0.0
O332 O 0.11854 1.0181 0.52505 0.0
O333 O 0.12594 0.08943 0.51695 0.0
O334 O 0.07379 0.09678 0.49394 0.0
O335 O 0.96028 1.00639 0.50138 0.0
O336 O 1.00145 0.97942 0.53007 0.0
C337 C 0.10735 0.10055 0.49347 0.0
O338 O 0.07502 0.98695 0.57963 0.0
O339 O 0.12063 1.0249 0.59715 0.0
O340 O 1.01855 0.09465 0.5813 0.0
O341 O 0.96249 0.08748 0.56481 0.0
C342 C 0.97713 0.11351 0.49182 0.0
C343 C 0.97525 0.98048 0.50811 0.0
C344 C 0.97636 1.00815 0.59562 0.0
O345 O 0.95713 1.01713 0.57131 0.0
O346 O 1.00968 1.0145 0.59593 0.0
C347 C 0.09273 1.00721 0.50522 0.0
O348 O 0.12277 0.10072 0.5872 0.0
O349 O 0.08108 0.12989 0.56171 0.0
C350 C 0.10431 0.99564 0.59821 0.0
C351 C 0.10659 0.12641 0.58387 0.0
Fe352 Fe 0.53959 1.02423 1.02631 0.0
O353 O 0.56365 0.0646 1.00656 0.0
Fe354 Fe 0.45934 0.05517 0.04629 0.0
Fe355 Fe 0.6149 0.07328 1.00791 0.0
O356 O 0.51126 0.05836 0.04677 0.0
O357 O 0.51044 0.06344 0.0473 0.0
O358 O 0.56256 0.07048 1.00674 0.0
Fe359 Fe 0.53632 0.10447 0.0309 0.0
C360 C 0.60549 0.03172 0.06881 0.0
O361 O 0.57664 0.99435 0.99818 0.0
O362 O 0.61183 0.03327 0.97196 0.0
O363 O 0.501 0.1076 0.9891 0.0
O364 O 0.45077 0.09202 1.01197 0.0
O365 O 0.45407 1.02195 1.00595 0.0
O366 O 0.50618 1.01773 0.9847 0.0
O367 O 0.60689 0.11103 0.97686 0.0
O368 O 0.57035 0.14111 1.00665 0.0
C369 C 0.47306 1.01384 0.98236 0.0
O370 O 0.50269 0.13251 0.06256 0.0
O371 O 0.46447 0.09225 0.08389 0.0
O372 O 0.57255 0.02957 0.06856 0.0
O373 O 0.62215 0.03922 0.04287 0.0
C374 C 0.60161 1.00251 0.97642 0.0
C375 C 0.59313 0.13764 0.98333 0.0
C376 C 0.60417 0.11524 0.07279 0.0
O377 O 0.62144 0.10867 0.04727 0.0
O378 O 0.57128 0.10719 0.07284 0.0
C379 C 0.46791 0.10802 0.9898 0.0
O380 O 0.46615 1.01614 0.07797 0.0
O381 O 0.50718 0.98733 0.05388 0.0
C382 C 0.4779 0.12252 0.08347 0.0
C383 C 0.48236 0.99036 0.07544 0.0
Fe384 Fe 1.01938 0.64812 0.0765 0.0
O385 O 1.00788 0.60256 0.0884 0.0
Fe386 Fe 0.0456 0.57098 0.08315 0.0
Fe387 Fe 0.96737 0.57358 0.06681 0.0
O388 O 1.01117 0.60269 0.08837 0.0
O389 O 1.00552 0.54233 0.06079 0.0
O390 O 1.00224 0.54248 0.05964 0.0
Fe391 Fe 0.99406 0.49705 0.07269 0.0
C392 C 0.94479 0.63652 0.09895 0.0
O393 O 0.98531 0.64407 0.03486 0.0
O394 O 0.97687 0.59169 1.02052 0.0
O395 O 0.03988 0.49185 0.04969 0.0
O396 O 0.07691 0.5338 0.07551 0.0
O397 O 0.0593 0.58746 0.0371 0.0
O398 O 0.05999 0.64081 0.04682 0.0
O399 O 0.92959 0.53827 0.04133 0.0
O400 O 0.96015 0.49444 0.03103 0.0
C401 C 0.07034 0.61667 0.03134 0.0
O402 O 1.02375 0.50212 0.11717 0.0
O403 O 0.03421 0.55502 0.12997 0.0
O404 O 0.97576 0.65245 0.10325 0.0
O405 O 0.93641 0.61036 0.07968 0.0
C406 C 0.97376 0.62091 1.01412 0.0
C407 C 0.93349 0.51047 1.0261 0.0
C408 C 0.94426 0.52719 0.11795 0.0
O409 O 0.95585 0.55626 0.11304 0.0
O410 O 0.95143 0.50368 0.09936 0.0
C411 C 0.07072 0.50623 0.0586 0.0
O412 O 0.08366 0.60499 0.10672 0.0
O413 O 0.05648 0.65069 0.11657 0.0
C414 C 1.03142 0.52572 0.13845 0.0
C415 C 0.08237 0.63352 0.1207 0.0
Fe416 Fe 0.53724 0.58583 0.97664 0.0
O417 O 0.54392 0.58183 1.02636 0.0
Fe418 Fe 0.49768 0.56144 0.05006 0.0
Fe419 Fe 0.58182 0.55769 0.04869 0.0
O420 O 0.5386 0.58176 1.02569 0.0
O421 O 0.53563 0.53813 0.07332 0.0
O422 O 0.54089 0.53807 0.07383 0.0
Fe423 Fe 0.54242 0.53544 0.12334 0.0
C424 C 0.56709 0.52245 0.98156 0.0
O425 O 0.58359 0.61583 0.9842 0.0
O426 O 0.61886 0.5853 1.01584 0.0
O427 O 0.51364 0.57379 0.13264 0.0
O428 O 0.50734 0.59909 0.08423 0.0
O429 O 0.46379 0.59176 1.01908 0.0
O430 O 0.50246 0.61998 0.98518 0.0
O431 O 0.59284 0.59547 0.08371 0.0
O432 O 0.58734 0.56758 0.13056 0.0
C433 C 0.47152 0.61471 0.99673 0.0
O434 O 0.49549 0.50577 0.11719 0.0
O435 O 0.46062 0.53407 0.08253 0.0
O436 O 0.56762 0.54964 0.96759 0.0
O437 O 0.57115 0.52015 1.01336 0.0
C438 C 0.61415 0.60919 0.99497 0.0
C439 C 0.59928 0.59251 0.11506 0.0
C440 C 0.60678 0.50395 0.10272 0.0
O441 O 0.61503 0.52623 0.07964 0.0
O442 O 0.576 0.50028 0.11497 0.0
C443 C 0.51052 0.59933 0.11614 0.0
O444 O 0.48756 0.52383 1.01498 0.0
O445 O 0.49338 0.55231 0.96849 0.0
C446 C 0.46526 0.51128 0.10461 0.0
C447 C 0.48145 0.527 0.98356 0.0
Fe448 Fe 0.06619 0.50068 0.55528 0.0
O449 O 0.04552 0.5361 0.58251 0.0
Fe450 Fe 0.08857 0.5426 0.48343 0.0
Fe451 Fe 0.0436 0.53808 0.6325 0.0
O452 O 0.0891 0.54055 0.53339 0.0
O453 O 0.08826 0.54644 0.53387 0.0
O454 O 0.04515 0.5415 0.58312 0.0
Fe455 Fe 0.06521 0.58161 0.55946 0.0
C456 C 1.01344 0.4693 0.60787 0.0
O457 O 0.10811 0.49874 0.59118 0.0
O458 O 0.08152 0.50554 0.63925 0.0
O459 O 0.0934 0.61779 0.52599 0.0
O460 O 0.12175 0.58552 0.49052 0.0
O461 O 0.12467 0.50938 0.48878 0.0
O462 O 0.09469 0.47056 0.52007 0.0
O463 O 0.08189 0.57575 0.64142 0.0
O464 O 0.10722 0.58901 0.59329 0.0
C465 C 0.11834 0.47936 0.49753 0.0
O466 O 1.02313 0.57502 0.52628 0.0
O467 O 0.04844 0.57092 0.47706 0.0
O468 O 0.03603 0.46547 0.58455 0.0
O469 O 1.0087 0.49689 0.62243 0.0
C470 C 0.10594 0.49457 0.62311 0.0
C471 C 0.10712 0.58898 0.62537 0.0
C472 C 1.01187 0.60437 0.61811 0.0
O473 O 1.00846 0.57477 0.62929 0.0
O474 O 0.034 0.61216 0.59361 0.0
C475 C 0.11582 0.61394 0.50189 0.0
O476 O 0.05258 0.50179 0.47419 0.0
O477 O 1.02307 0.49695 0.52043 0.0
C478 C 1.022 0.57405 0.49426 0.0
C479 C 1.02525 0.49134 0.48882 0.0
Fe480 Fe 0.59199 1.00427 0.5108 0.0
O481 O 0.62367 1.02625 0.54862 0.0
Fe482 Fe 0.59209 0.05986 0.44487 0.0
Fe483 Fe 0.61493 1.01542 0.59671 0.0
O484 O 0.58907 0.04875 0.4933 0.0
O485 O 0.59132 0.05127 0.49493 0.0
O486 O 0.62362 0.02934 0.55109 0.0
Fe487 Fe 0.61779 0.07415 0.53725 0.0
C488 C 0.54345 0.99307 0.56452 0.0
O489 O 0.60041 0.9606 0.53269 0.0
O490 O 0.6362 0.97434 0.58054 0.0
O491 O 0.66583 0.07617 0.51753 0.0
O492 O 0.62308 0.05832 0.48553 0.0
O493 O 0.61124 1.01657 0.43089 0.0
O494 O 0.63211 0.99744 0.47963 0.0
O495 O 0.65959 0.04761 0.60923 0.0
O496 O 0.64545 0.09265 0.58141 0.0
C497 C 0.63032 0.99831 0.44729 0.0
O498 O 0.60708 0.11799 0.51547 0.0
O499 O 0.57795 0.10407 0.46319 0.0
O500 O 0.54975 1.0092 0.53858 0.0
O501 O 0.56786 0.98771 0.5854 0.0
C502 C 0.62355 0.95434 0.55573 0.0
C503 C 0.66356 0.07863 0.60387 0.0
C504 C 0.5686 0.07057 0.59152 0.0
O505 O 0.58802 0.05413 0.60931 0.0
O506 O 0.57175 0.0734 0.56001 0.0
C507 C 0.65613 0.06686 0.48835 0.0
O508 O 0.54395 0.03084 0.44559 0.0
O509 O 0.55639 0.98528 0.47243 0.0
C510 C 0.58758 0.12403 0.48901 0.0
C511 C 0.53621 1.00086 0.45361 0.0
C512 C 0.23971 0.22887 0.39174 0.0
C513 C 0.23905 0.22376 0.35633 0.0
C514 C 0.21737 0.2093 0.41278 0.0
C515 C 0.19347 0.18294 0.39888 0.0
C516 C 0.19303 0.17742 0.3632 0.0
C517 C 0.21513 0.19778 0.34268 0.0
C518 C 0.21912 0.2172 0.4502 0.0
C519 C 0.16914 0.14965 0.34648 0.0
C520 C 0.16126 0.1139 0.45894 0.0
C521 C 0.12707 0.1198 0.46621 0.0
C522 C 0.18228 0.13338 0.4369 0.0
C523 C 0.16998 0.16076 0.42157 0.0
C524 C 0.13533 0.16679 0.42851 0.0
C525 C 0.11446 0.14636 0.45016 0.0
C526 C 0.21819 0.12469 0.43034 0.0
C527 C 0.12053 0.19563 0.41379 0.0
H528 H 0.25734 0.24881 0.40316 0.0
H529 H 0.21369 0.19312 0.31561 0.0
H530 H 0.19295 0.22143 0.45839 0.0
H531 H 0.22712 0.19634 0.46423 0.0
H532 H 0.23775 0.23901 0.45732 0.0
H533 H 0.172 0.14782 0.31879 0.0
H534 H 0.17466 0.12645 0.3576 0.0
H535 H 0.14167 0.15271 0.35117 0.0
H536 H 0.17196 0.09381 0.47084 0.0
H537 H 0.08862 0.15205 0.45557 0.0
H538 H 0.23809 0.14444 0.44039 0.0
H539 H 0.22131 0.12215 0.40276 0.0
H540 H 0.22347 0.10172 0.44219 0.0
H541 H 0.13686 0.21829 0.42275 0.0
H542 H 0.09333 0.19715 0.42085 0.0
H543 H 0.12109 0.19434 0.38587 0.0
C544 C 0.88332 0.22565 0.34469 0.0
C545 C 0.85684 0.24343 0.35673 0.0
C546 C 0.90338 0.206 0.36594 0.0
C547 C 0.89825 0.20313 0.40138 0.0
C548 C 0.87181 0.22132 0.41371 0.0
C549 C 0.8522 0.24077 0.39189 0.0
C550 C 0.93027 0.18779 0.35005 0.0
C551 C 0.86371 0.22009 0.45043 0.0
C552 C 0.92598 0.12695 0.45067 0.0
C553 C 0.95835 0.13754 0.46856 0.0
C554 C 0.90694 0.14736 0.42961 0.0
C555 C 0.91931 0.18065 0.42479 0.0
C556 C 0.95192 0.19176 0.44273 0.0
C557 C 0.97057 0.17069 0.46385 0.0
C558 C 0.87279 0.13297 0.41249 0.0
C559 C 0.96727 0.22651 0.43979 0.0
H560 H 0.88838 0.2268 0.31812 0.0
H561 H 0.83322 0.25456 0.40278 0.0
H562 H 0.95617 0.19496 0.36302 0.0
H563 H 0.92369 0.16135 0.35321 0.0
H564 H 0.93215 0.19233 0.32272 0.0
H565 H 0.84626 0.23831 0.45764 0.0
H566 H 0.85075 0.19561 0.45565 0.0
H567 H 0.88807 0.22426 0.46666 0.0
H568 H 0.91488 0.10203 0.4532 0.0
H569 H 0.99494 0.18048 0.47683 0.0
H570 H 0.87305 0.13674 0.38493 0.0
H571 H 0.85133 0.14549 0.42231 0.0
H572 H 0.86704 0.10658 0.41664 0.0
H573 H 0.97178 0.23158 0.41296 0.0
H574 H 0.99227 0.23224 0.45485 0.0
H575 H 0.9486 0.24298 0.44847 0.0
C576 C 0.87101 0.81838 0.42093 0.0
C577 C 0.87613 0.8196 0.38628 0.0
C578 C 0.89152 0.83999 0.44397 0.0
C579 C 0.91732 0.86332 0.43185 0.0
C580 C 0.92466 0.86225 0.39724 0.0
C581 C 0.9042 0.84019 0.37504 0.0
C582 C 0.8836 0.83969 0.48081 0.0
C583 C 0.95281 0.88541 0.38297 0.0
C584 C 0.92793 0.94808 0.47223 0.0
C585 C 0.96048 0.94977 0.48975 0.0
C586 C 0.91346 0.91983 0.45416 0.0
C587 C 0.93181 0.89222 0.45351 0.0
C588 C 0.96455 0.89349 0.47133 0.0
C589 C 0.97849 0.92224 0.48932 0.0
C590 C 0.87893 0.91997 0.43473 0.0
C591 C 0.98518 0.86483 0.47073 0.0
H592 H 0.84938 0.80242 0.42974 0.0
H593 H 0.90876 0.84053 0.34828 0.0
H594 H 0.90804 0.84276 0.49695 0.0
H595 H 0.86884 0.86031 0.48694 0.0
H596 H 0.86778 0.81683 0.48718 0.0
H597 H 0.94905 0.88712 0.35518 0.0
H598 H 0.95404 0.91018 0.39457 0.0
H599 H 0.97824 0.87627 0.3882 0.0
H600 H 0.9136 0.96902 0.47241 0.0
H601 H 1.00378 0.92328 0.50252 0.0
H602 H 0.85996 0.89988 0.44269 0.0
H603 H 0.88238 0.916 0.40737 0.0
H604 H 0.86764 0.94317 0.43841 0.0
H605 H 0.96846 0.84237 0.47668 0.0
H606 H 1.00815 0.86827 0.4889 0.0
H607 H 0.99447 0.8612 0.44504 0.0
C608 C 0.10095 0.86482 0.36686 0.0
C609 C 0.11378 0.87943 0.33783 0.0
C610 C 0.09361 0.88383 0.39473 0.0
C611 C 0.09837 0.91799 0.39281 0.0
C612 C 0.10658 0.93258 0.36204 0.0
C613 C 0.11432 0.91307 0.33484 0.0
C614 C 0.0842 0.86744 0.42706 0.0
C615 C 0.11037 0.969 0.35877 0.0
C616 C 0.06474 0.97204 0.45787 0.0
C617 C 0.09534 0.98372 0.47719 0.0
C618 C 0.06519 0.94979 0.43108 0.0
C619 C 0.09699 0.93881 0.42327 0.0
C620 C 0.12791 0.94965 0.44298 0.0
C621 C 0.12675 0.97217 0.46989 0.0
C622 C 0.03175 0.93853 0.41078 0.0
C623 C 0.16222 0.93787 0.43521 0.0
H624 H 0.09971 0.83871 0.3689 0.0
H625 H 0.12416 0.92469 0.31257 0.0
H626 H 0.07438 0.84138 0.42242 0.0
H627 H 0.10774 0.86907 0.44438 0.0
H628 H 0.06423 0.87953 0.44012 0.0
H629 H 0.11298 0.97612 0.33217 0.0
H630 H 0.08759 0.97933 0.3688 0.0
H631 H 0.13385 0.98006 0.37387 0.0
H632 H 0.04005 0.98039 0.46341 0.0
H633 H 0.15027 0.98081 0.48494 0.0
H634 H 1.02696 0.9117 0.41028 0.0
H635 H 0.03401 0.94598 0.38428 0.0
H636 H 1.00885 0.94848 0.42117 0.0
H637 H 0.15951 0.91094 0.43428 0.0
H638 H 0.18335 0.94702 0.45421 0.0
H639 H 0.17 0.94603 0.41 0.0
C640 C 0.22682 0.8683 0.69955 0.0
C641 C 0.22246 0.86658 0.73486 0.0
C642 C 0.20713 0.88744 0.67749 0.0
C643 C 0.18116 0.90622 0.68973 0.0
C644 C 0.17648 0.9044 0.72529 0.0
C645 C 0.19665 0.8852 0.74682 0.0
C646 C 0.2145 0.88768 0.64056 0.0
C647 C 0.14987 0.92312 0.74098 0.0
C648 C 0.15466 0.98216 0.63988 0.0
C649 C 0.12242 0.97165 0.62182 0.0
C650 C 0.17326 0.96174 0.6612 0.0
C651 C 0.16047 0.92861 0.66611 0.0
C652 C 0.12785 0.91763 0.64818 0.0
C653 C 0.10968 0.93869 0.62671 0.0
C654 C 0.20729 0.97601 0.67864 0.0
C655 C 0.1119 0.88313 0.65163 0.0
H656 H 0.24608 0.85463 0.68883 0.0
H657 H 0.192 0.88485 0.77351 0.0
H658 H 0.19028 0.87934 0.62514 0.0
H659 H 0.22329 0.91281 0.63335 0.0
H660 H 0.23476 0.87191 0.63421 0.0
H661 H 0.14782 0.91876 0.76833 0.0
H662 H 0.15689 0.94949 0.73772 0.0
H663 H 0.12395 0.91626 0.72795 0.0
H664 H 0.166 1.007 0.63729 0.0
H665 H 0.08529 0.92909 0.61366 0.0
H666 H 0.22849 0.96193 0.67097 0.0
H667 H 0.2057 0.97427 0.70638 0.0
H668 H 0.21437 1.00185 0.67271 0.0
H669 H 0.12995 0.86621 0.64264 0.0
H670 H 0.08654 0.87776 0.63711 0.0
H671 H 0.1079 0.87834 0.67862 0.0
C672 C 0.235 0.21737 0.7165 0.0
C673 C 0.22365 0.23856 0.74057 0.0
C674 C 0.21178 0.20179 0.69125 0.0
C675 C 0.17664 0.20849 0.68932 0.0
C676 C 0.16515 0.23021 0.71339 0.0
C677 C 0.1887 0.24463 0.73905 0.0
C678 C 0.22486 0.17804 0.66671 0.0
C679 C 0.12823 0.23872 0.71159 0.0
C680 C 0.13192 0.18252 0.60374 0.0
C681 C 0.11627 0.15152 0.61069 0.0
C682 C 0.14955 0.20273 0.62981 0.0
C683 C 0.15179 0.19123 0.66312 0.0
C684 C 0.13343 0.161 0.67044 0.0
C685 C 0.11577 0.14165 0.64415 0.0
C686 C 0.16781 0.23533 0.62127 0.0
C687 C 0.13504 0.14761 0.7054 0.0
H688 H 0.26208 0.21294 0.71749 0.0
H689 H 0.18011 0.26173 0.75714 0.0
H690 H 0.20923 0.15396 0.66779 0.0
H691 H 0.22172 0.18637 0.64057 0.0
H692 H 0.25271 0.17505 0.67208 0.0
H693 H 0.12359 0.25653 0.73185 0.0
H694 H 0.12245 0.24906 0.68676 0.0
H695 H 0.10957 0.21657 0.71363 0.0
H696 H 0.13239 0.19003 0.57782 0.0
H697 H 0.10343 0.11762 0.64942 0.0
H698 H 0.19624 0.23397 0.62091 0.0
H699 H 0.16366 0.25411 0.64069 0.0
H700 H 0.15863 0.2431 0.59617 0.0
H701 H 0.16169 0.14133 0.71142 0.0
H702 H 0.11628 0.12548 0.7076 0.0
H703 H 0.12953 0.166 0.72464 0.0
C704 C 0.9869 0.19812 0.75372 0.0
C705 C 0.96053 0.18817 0.77544 0.0
C706 C 0.9926 0.17879 0.7255 0.0
C707 C 0.97181 0.14863 0.71946 0.0
C708 C 0.94798 0.13685 0.74336 0.0
C709 C 0.94239 0.15693 0.77106 0.0
C710 C 1.01869 0.19193 0.70071 0.0
C711 C 0.9264 0.10421 0.73832 0.0
C712 C 0.95296 0.12503 0.62707 0.0
C713 C 0.97919 0.10538 0.62143 0.0
C714 C 0.94951 0.1385 0.65938 0.0
C715 C 0.97237 0.13134 0.68645 0.0
C716 C 0.99726 0.10964 0.68119 0.0
C717 C 1.00063 0.09719 0.64859 0.0
C718 C 0.92273 0.16176 0.66418 0.0
C719 C 1.02143 0.10074 0.70954 0.0
H720 H 1.00142 0.222 0.75751 0.0
H721 H 0.92189 0.14909 0.78771 0.0
H722 H 0.03652 0.17373 0.69472 0.0
H723 H 1.00474 0.1971 0.67675 0.0
H724 H 0.03453 0.21462 0.71046 0.0
H725 H 0.91397 0.09624 0.76182 0.0
H726 H 0.90555 0.10569 0.71845 0.0
H727 H 0.94261 0.08547 0.72976 0.0
H728 H 0.9365 0.13128 0.60596 0.0
H729 H 1.02063 0.08149 0.64417 0.0
H730 H 0.93603 0.18619 0.67185 0.0
H731 H 0.90557 0.15371 0.68467 0.0
H732 H 0.90626 0.16386 0.64083 0.0
H733 H 0.04202 0.12126 0.71548 0.0
H734 H 0.03428 0.07903 0.7027 0.0
H735 H 1.00713 0.09591 0.73278 0.0
C736 C 0.88136 0.9013 0.74538 0.0
C737 C 0.85905 0.87421 0.7318 0.0
C738 C 0.90072 0.92355 0.72468 0.0
C739 C 0.89905 0.9188 0.68893 0.0
C740 C 0.87676 0.89135 0.67504 0.0
C741 C 0.85697 0.86989 0.69632 0.0
C742 C 0.92291 0.9525 0.74127 0.0
C743 C 0.87411 0.88432 0.63745 0.0
C744 C 0.92377 0.99053 0.63016 0.0
C745 C 0.95841 0.98725 0.6223 0.0
C746 C 0.90482 0.96926 0.65206 0.0
C747 C 0.91992 0.94273 0.66627 0.0
C748 C 0.955 0.93935 0.65858 0.0
C749 C 0.97375 0.96161 0.6373 0.0
C750 C 0.86825 0.97515 0.65979 0.0
C751 C 0.97254 0.91145 0.67207 0.0
H752 H 0.88353 0.9054 0.77253 0.0
H753 H 0.84035 0.84918 0.68507 0.0
H754 H 0.95058 0.95166 0.73566 0.0
H755 H 0.91497 0.97522 0.73086 0.0
H756 H 0.92087 0.9536 0.7691 0.0
H757 H 0.85689 0.8616 0.63037 0.0
H758 H 0.86383 0.90471 0.62433 0.0
H759 H 0.90038 0.8822 0.62816 0.0
H760 H 0.91121 1.00994 0.61895 0.0
H761 H 1.00009 0.95808 0.63128 0.0
H762 H 0.86571 0.97675 0.68751 0.0
H763 H 0.84955 0.95448 0.64968 0.0
H764 H 0.8608 0.9978 0.64875 0.0
H765 H 0.97301 0.91217 0.70005 0.0
H766 H 0.99967 0.91181 0.664 0.0
H767 H 0.95746 0.88812 0.66316 0.0
C768 C 0.34307 0.22405 0.19276 0.0
C769 C 0.35643 0.23786 0.22455 0.0
C770 C 0.36366 0.20763 0.16988 0.0
C771 C 0.39948 0.20419 0.17782 0.0
C772 C 0.41316 0.21823 0.20977 0.0
C773 C 0.392 0.23453 0.23218 0.0
C774 C 0.34669 0.19363 0.13686 0.0
C775 C 0.45059 0.21589 0.22062 0.0
C776 C 0.44133 0.13193 0.13508 0.0
C777 C 0.46126 0.14553 0.10865 0.0
C778 C 0.42213 0.15033 0.15716 0.0
C779 C 0.4216 0.18438 0.15403 0.0
C780 C 0.4421 0.1987 0.12786 0.0
C781 C 0.46133 0.17953 0.10591 0.0
C782 C 0.40171 0.13281 0.18394 0.0
C783 C 0.44324 0.23456 0.12256 0.0
H784 H 0.3161 0.22604 0.1855 0.0
H785 H 0.40365 0.24478 0.25606 0.0
H786 H 0.36166 0.20353 0.11556 0.0
H787 H 0.34698 0.16692 0.13579 0.0
H788 H 0.31933 0.19899 0.13326 0.0
H789 H 0.45827 0.22879 0.24523 0.0
H790 H 0.4548 0.19002 0.22277 0.0
H791 H 0.46798 0.22625 0.20125 0.0
H792 H 0.44027 0.10606 0.13859 0.0
H793 H 0.47573 0.19123 0.086 0.0
H794 H 0.37362 0.1353 0.17972 0.0
H795 H 0.41008 0.14391 0.20922 0.0
H796 H 0.40495 0.10657 0.18411 0.0
H797 H 0.4167 0.24049 0.11545 0.0
H798 H 0.46098 0.2428 0.10254 0.0
H799 H 0.45193 0.24836 0.14643 0.0
C800 C 0.83247 0.40084 0.10081 0.0
C801 C 0.82044 0.38222 0.12746 0.0
C802 C 0.838 0.43474 0.1047 0.0
C803 C 0.83131 0.44972 0.13607 0.0
C804 C 0.81187 0.43147 0.15952 0.0
C805 C 0.80757 0.39763 0.15543 0.0
C806 C 0.8568 0.45343 0.07764 0.0
C807 C 0.80104 0.44678 0.19171 0.0
C808 C 0.91748 0.49367 0.16065 0.0
C809 C 0.91569 0.52012 0.14014 0.0
C810 C 0.88779 0.47201 0.16469 0.0
C811 C 0.85577 0.47817 0.14853 0.0
C812 C 0.8527 0.5091 0.13558 0.0
C813 C 0.88323 0.52983 0.13077 0.0
C814 C 0.89237 0.44029 0.18113 0.0
C815 C 0.81784 0.51857 0.1237 0.0
H816 H 0.842 0.38886 0.07904 0.0
H817 H 0.79931 0.38345 0.17662 0.0
H818 H 0.84586 0.47653 0.07319 0.0
H819 H 0.88474 0.45927 0.08567 0.0
H820 H 0.85491 0.43914 0.05339 0.0
H821 H 0.81561 0.43818 0.21378 0.0
H822 H 0.80493 0.4737 0.19183 0.0
H823 H 0.77319 0.43887 0.19499 0.0
H824 H 0.94281 0.48705 0.16865 0.0
H825 H 0.88192 0.55103 0.11566 0.0
H826 H 0.8879 0.42003 0.162 0.0
H827 H 0.87335 0.43557 0.20087 0.0
H828 H 0.91888 0.44015 0.19312 0.0
H829 H 0.80437 0.50036 0.10504 0.0
H830 H 0.82018 0.54282 0.11235 0.0
H831 H 0.80115 0.51914 0.14563 0.0
C832 C 0.73211 0.92763 0.14668 0.0
C833 C 0.7448 0.93154 0.18031 0.0
C834 C 0.70686 0.94627 0.13415 0.0
C835 C 0.69392 0.96924 0.15592 0.0
C836 C 0.70626 0.97299 0.19009 0.0
C837 C 0.73179 0.95412 0.20189 0.0
C838 C 0.69452 0.94176 0.09742 0.0
C839 C 0.69276 0.99705 0.21397 0.0
C840 C 0.66017 0.03366 0.10379 0.0
C841 C 0.62527 1.02081 0.09791 0.0
C842 C 0.6823 1.01891 0.12571 0.0
C843 C 0.66911 0.99045 0.14178 0.0
C844 C 0.63304 0.97942 0.13875 0.0
C845 C 0.61134 0.99491 0.11678 0.0
C846 C 0.72047 0.03181 0.1287 0.0
C847 C 0.61799 0.94943 0.15597 0.0
H848 H 0.74234 0.91025 0.13004 0.0
H849 H 0.74126 0.9567 0.2281 0.0
H850 H 0.66581 0.93578 0.09523 0.0
H851 H 0.70103 0.9647 0.0842 0.0
H852 H 0.7065 0.92218 0.08423 0.0
H853 H 0.7033 0.99538 0.2403 0.0
H854 H 0.69999 1.02209 0.20559 0.0
H855 H 0.66391 0.99299 0.21367 0.0
H856 H 0.67072 0.05415 0.08961 0.0
H857 H 0.58423 0.98514 0.1124 0.0
H858 H 0.73528 1.01603 0.11319 0.0
H859 H 0.73091 0.03154 0.15518 0.0
H860 H 0.72523 0.05697 0.11974 0.0
H861 H 0.62443 0.92757 0.14189 0.0
H862 H 0.58921 0.94799 0.15678 0.0
H863 H 0.62937 0.94881 0.1821 0.0
C864 C 0.24523 0.70513 0.24483 0.0
C865 C 0.26258 0.73258 0.23059 0.0
C866 C 0.21714 0.68645 0.22717 0.0
C867 C 0.20662 0.6952 0.19434 0.0
C868 C 0.22546 0.72172 0.17912 0.0
C869 C 0.25303 0.74025 0.19754 0.0
C870 C 0.19759 0.65845 0.24431 0.0
C871 C 0.21569 0.73125 0.14382 0.0
C872 C 0.14578 0.63594 0.13784 0.0
C873 C 0.11369 0.64819 0.14111 0.0
C874 C 0.17617 0.65065 0.15535 0.0
C875 C 0.17447 0.67819 0.17681 0.0
C876 C 0.14209 0.6903 0.18077 0.0
C877 C 0.11214 0.67527 0.16275 0.0
C878 C 0.21022 0.63721 0.15016 0.0
C879 C 0.13917 0.71951 0.20364 0.0
H880 H 0.25234 0.69925 0.27048 0.0
H881 H 0.26655 0.76135 0.18639 0.0
H882 H 0.17093 0.66419 0.24914 0.0
H883 H 0.19487 0.63623 0.22771 0.0
H884 H 0.21067 0.65321 0.26873 0.0
H885 H 0.23376 0.75174 0.13515 0.0
H886 H 0.21574 0.71022 0.12592 0.0
H887 H 0.18893 0.73841 0.14283 0.0
H888 H 0.14743 0.61525 0.12089 0.0
H889 H 0.08751 0.68486 0.16554 0.0
H890 H 0.22345 0.63315 0.17482 0.0
H891 H 0.2278 0.65504 0.13686 0.0
H892 H 0.20661 0.61397 0.13507 0.0
H893 H 0.14961 0.7154 0.22948 0.0
H894 H 0.11187 0.72502 0.20512 0.0
H895 H 0.15502 0.7411 0.1943 0.0
C896 C 0.3651 0.87683 0.87911 0.0
C897 C 0.35563 0.8797 0.84492 0.0
C898 C 0.38709 0.90123 0.89684 0.0
C899 C 0.39971 0.92946 0.88004 0.0
C900 C 0.39124 0.93215 0.84519 0.0
C901 C 0.36932 0.90701 0.82788 0.0
C902 C 0.39592 0.89715 0.93389 0.0
C903 C 0.40418 0.96201 0.82661 0.0
C904 C 0.42023 0.99828 0.94433 0.0
C905 C 0.4557 0.99667 0.95191 0.0
C906 C 0.40222 0.97857 0.91845 0.0
C907 C 0.42007 0.95651 0.90006 0.0
C908 C 0.45643 0.95665 0.90574 0.0
C909 C 0.4739 0.97689 0.93157 0.0
C910 C 0.36351 0.9795 0.91274 0.0
C911 C 0.47637 0.93347 0.88664 0.0
H912 H 0.35499 0.8555 0.89226 0.0
H913 H 0.36197 0.90923 0.80143 0.0
H914 H 0.42456 0.90048 0.93892 0.0
H915 H 0.38495 0.91594 0.94923 0.0
H916 H 0.38552 0.8729 0.94258 0.0
H917 H 0.39869 0.95874 0.79891 0.0
H918 H 0.39132 0.9829 0.8358 0.0
H919 H 0.43262 0.96833 0.83168 0.0
H920 H 0.40619 1.01409 0.95946 0.0
H921 H 0.50143 0.97574 0.93705 0.0
H922 H 0.34932 0.95766 0.92339 0.0
H923 H 0.35615 0.97912 0.88536 0.0
H924 H 0.35474 1.00136 0.92497 0.0
H925 H 0.47053 0.90874 0.89636 0.0
H926 H 0.50495 0.94055 0.88956 0.0
H927 H 0.46837 0.93221 0.85938 0.0
C928 C 0.22195 0.41543 0.98823 0.0
C929 C 0.21579 0.38304 0.99768 0.0
C930 C 0.20601 0.43976 1.00453 0.0
C931 C 0.18353 0.43134 0.03075 0.0
C932 C 0.18178 0.39986 0.0438 0.0
C933 C 0.19778 0.37588 1.02688 0.0
C934 C 0.20951 0.47339 0.99069 0.0
C935 C 0.15958 0.39054 0.07301 0.0
C936 C 0.13234 0.49477 0.06969 0.0
C937 C 0.10069 0.4889 0.0505 0.0
C938 C 0.15989 0.47641 0.06374 0.0
C939 C 0.1556 0.45188 0.03783 0.0
C940 C 0.12397 0.44649 1.01789 0.0
C941 C 0.09693 0.46496 1.02458 0.0
C942 C 0.1928 0.48258 0.08604 0.0
C943 C 0.11838 0.42085 0.98964 0.0
H944 H 0.23609 0.42127 0.96584 0.0
H945 H 0.1938 0.35101 0.03481 0.0
H946 H 0.18609 0.47619 0.97428 0.0
H947 H 0.21126 0.49216 1.0114 0.0
H948 H 0.23281 0.47783 0.97542 0.0
H949 H 0.16567 0.36732 0.08378 0.0
H950 H 0.16337 0.40985 0.09323 0.0
H951 H 0.1317 0.38772 0.06427 0.0
H952 H 0.13526 0.51302 0.09008 0.0
H953 H 0.07266 0.46048 1.0095 0.0
H954 H 0.21621 0.47919 0.07186 0.0
H955 H 0.19141 0.46507 0.10666 0.0
H956 H 0.19599 0.50747 0.09775 0.0
H957 H 0.13876 0.42537 0.97105 0.0
H958 H 0.0925 0.42028 0.97615 0.0
H959 H 0.12051 0.39655 0.99991 0.0
C960 C 0.73663 0.25037 0.8934 0.0
C961 C 0.72564 0.27048 0.86811 0.0
C962 C 0.71256 0.23244 0.91349 0.0
C963 C 0.67633 0.23486 0.90886 0.0
C964 C 0.66526 0.25633 0.88446 0.0
C965 C 0.68983 0.27348 0.86428 0.0
C966 C 0.72586 0.20972 0.93872 0.0
C967 C 0.62722 0.26044 0.87886 0.0
C968 C 0.6164 0.15892 0.92959 0.0
C969 C 0.60726 0.16558 0.96279 0.0
C970 C 0.63759 0.18157 0.9116 0.0
C971 C 0.65014 0.2123 0.92674 0.0
C972 C 0.63916 0.22014 0.95944 0.0
C973 C 0.61799 0.1967 0.97713 0.0
C974 C 0.64821 0.17171 0.87698 0.0
C975 C 0.65117 0.25274 0.97645 0.0
H976 H 0.76408 0.24766 0.89673 0.0
H977 H 0.68081 0.28908 0.84519 0.0
H978 H 0.71598 0.21453 0.96394 0.0
H979 H 0.71603 0.18427 0.93092 0.0
H980 H 0.75476 0.21203 0.94098 0.0
H981 H 0.62319 0.28104 0.86243 0.0
H982 H 0.6131 0.23794 0.86679 0.0
H983 H 0.6154 0.26452 0.90334 0.0
H984 H 0.60827 0.13505 0.9181 0.0
H985 H 0.61161 0.20211 1.00284 0.0
H986 H 0.67676 0.17077 0.87757 0.0
H987 H 0.64212 0.18992 0.85838 0.0
H988 H 0.63497 0.14759 0.86802 0.0
H989 H 0.6793 0.25414 0.98389 0.0
H990 H 0.63672 0.25696 0.9994 0.0
H991 H 0.64788 0.27251 0.95878 0.0
C992 C 0.83779 0.72759 0.95031 0.0
C993 C 0.85117 0.75119 0.9751 0.0
C994 C 0.84388 0.69522 0.95316 0.0
C995 C 0.86498 0.68699 0.98075 0.0
C996 C 0.87253 0.70925 1.0087 0.0
C997 C 0.86585 0.74149 1.00537 0.0
C998 C 0.83298 0.6716 0.92395 0.0
C999 C 0.89283 0.70064 0.03981 0.0
C1000 C 0.91124 0.61432 0.99786 0.0
C1001 C 0.94509 0.6276 0.99108 0.0
C1002 C 0.88283 0.6315 0.9906 0.0
C1003 C 0.88887 0.66203 0.97579 0.0
C1004 C 0.92198 0.67215 0.96318 0.0
C1005 C 0.94993 0.6549 0.97147 0.0
C1006 C 0.84775 0.61884 1.00294 0.0
C1007 C 0.92935 0.70375 0.94548 0.0
H1008 H 0.82715 0.73504 0.92649 0.0
H1009 H 0.8759 0.75973 1.02461 0.0
H1010 H 0.85321 0.67386 0.90498 0.0
H1011 H 0.82982 0.64617 0.93221 0.0
H1012 H 0.80812 0.67704 0.91143 0.0
H1013 H 0.89073 0.71814 0.06113 0.0
H1014 H 0.88335 0.67587 0.04761 0.0
H1015 H 0.92073 0.70108 0.03432 0.0
H1016 H 0.90748 0.59295 1.01291 0.0
H1017 H 0.97617 0.66484 0.96606 0.0
H1018 H 0.82619 0.62992 0.99009 0.0
H1019 H 0.84748 0.62429 0.03047 0.0
H1020 H 0.84301 0.59204 0.99902 0.0
H1021 H 0.95461 0.70546 0.9331 0.0
H1022 H 0.9304 0.72431 0.96418 0.0
H1023 H 0.90848 0.70651 0.92604 0.0
C1024 C 0.13467 0.41291 0.18223 0.0
C1025 C 0.14341 0.39964 0.21297 0.0
C1026 C 0.11886 0.44145 0.1814 0.0
C1027 C 0.11167 0.45705 0.21223 0.0
C1028 C 0.1228 0.44504 0.24337 0.0
C1029 C 0.13834 0.41619 0.24337 0.0
C1030 C 0.10807 0.45367 0.14737 0.0
C1031 C 0.11705 0.46144 0.27675 0.0
C1032 C 0.07981 0.53172 0.18165 0.0
C1033 C 0.04603 0.518 0.17144 0.0
C1034 C 0.10124 0.51408 0.20158 0.0
C1035 C 0.08807 0.48256 0.21084 0.0
C1036 C 0.0519 0.47236 0.20696 0.0
C1037 C 1.03118 0.49023 0.18678 0.0
C1038 C 0.13923 0.52664 0.20745 0.0
C1039 C 0.03641 0.43971 0.21839 0.0
H1040 H 0.13876 0.40016 0.15877 0.0
H1041 H 0.14607 0.40632 0.2672 0.0
H1042 H 0.07928 0.45244 0.14468 0.0
H1043 H 0.11899 0.47936 0.14513 0.0
H1044 H 0.11697 0.43934 0.12602 0.0
H1045 H 0.13892 0.45893 0.29529 0.0
H1046 H 0.11431 0.48759 0.2743 0.0
H1047 H 0.09297 0.44939 0.28717 0.0
H1048 H 0.09106 0.5537 0.17026 0.0
H1049 H 1.0047 0.48021 0.1794 0.0
H1050 H 0.154 0.51794 0.18636 0.0
H1051 H 0.15012 0.51768 0.23131 0.0
H1052 H 0.14313 0.55361 0.20831 0.0
H1053 H 0.04299 0.42042 0.20063 0.0
H1054 H 1.00759 0.43809 0.219 0.0
H1055 H 0.04725 0.43492 0.24386 0.0
C1056 C 0.21367 0.74078 1.02233 0.0
C1057 C 0.23292 0.74334 0.99337 0.0
C1058 C 0.19658 0.71072 0.03074 0.0
C1059 C 0.19905 0.68309 1.00948 0.0
C1060 C 0.22418 0.68458 0.98473 0.0
C1061 C 0.241 0.71495 0.97689 0.0
C1062 C 0.17127 0.70975 0.05861 0.0
C1063 C 0.22899 0.65538 0.96269 0.0
C1064 C 0.13336 0.61382 0.03171 0.0
C1065 C 0.10347 0.62329 1.01529 0.0
C1066 C 0.16616 0.63106 1.02764 0.0
C1067 C 0.1687 0.65773 1.0062 0.0
C1068 C 0.13918 0.66411 0.98594 0.0
C1069 C 0.1067 0.64706 0.9912 0.0
C1070 C 0.19691 0.62307 0.04925 0.0
C1071 C 0.14089 0.69167 0.9618 0.0
H1072 H 0.20822 0.76271 0.03562 0.0
H1073 H 0.25639 0.71667 0.95475 0.0
H1074 H 0.14429 0.70836 0.04741 0.0
H1075 H 0.17299 0.68797 0.07383 0.0
H1076 H 0.17605 0.73174 0.07559 0.0
H1077 H 0.25567 0.6574 0.95317 0.0
H1078 H 0.2242 0.63254 0.97643 0.0
H1079 H 0.2102 0.65395 0.94054 0.0
H1080 H 0.13063 0.59554 0.0507 0.0
H1081 H 0.0834 0.65433 0.97879 0.0
H1082 H 0.19885 0.63803 0.07304 0.0
H1083 H 0.22167 0.62845 0.03645 0.0
H1084 H 0.19377 0.59713 0.05599 0.0
H1085 H 0.14422 0.7152 0.97632 0.0
H1086 H 0.11686 0.69069 0.94515 0.0
H1087 H 0.16346 0.69111 0.9457 0.0
C1088 C 0.36504 0.21094 0.84645 0.0
C1089 C 0.34907 0.23638 0.86148 0.0
C1090 C 0.3843 0.18975 0.86581 0.0
C1091 C 0.38914 0.19386 0.90165 0.0
C1092 C 0.3735 0.21981 0.91687 0.0
C1093 C 0.35368 0.24012 0.89701 0.0
C1094 C 0.39921 0.16248 0.84769 0.0
C1095 C 0.37794 0.22643 0.95448 0.0
C1096 C 0.41187 0.12308 0.95916 0.0
C1097 C 0.44839 0.12889 0.96537 0.0
C1098 C 0.39285 0.14314 0.93825 0.0
C1099 C 0.40987 0.17102 0.92314 0.0
C1100 C 0.44676 0.17706 0.92931 0.0
C1101 C 0.46531 0.15607 0.94966 0.0
C1102 C 0.35409 0.13438 0.93241 0.0
C1103 C 0.46678 0.2064 0.91498 0.0
H1104 H 0.36211 0.20719 0.81928 0.0
H1105 H 0.3421 0.25949 0.90953 0.0
H1106 H 0.42793 0.16524 0.85195 0.0
H1107 H 0.38903 0.13891 0.85805 0.0
H1108 H 0.39279 0.16167 0.82007 0.0
H1109 H 0.36585 0.24818 0.96266 0.0
H1110 H 0.36603 0.2052 0.96789 0.0
H1111 H 0.40606 0.23009 0.96236 0.0
H1112 H 0.39787 0.10248 0.97071 0.0
H1113 H 0.49323 0.16163 0.95409 0.0
H1114 H 0.34704 0.13256 0.90493 0.0
H1115 H 0.34019 0.15377 0.94345 0.0
H1116 H 0.34471 0.11103 0.94376 0.0
H1117 H 0.46303 0.20552 0.88708 0.0
H1118 H 0.49511 0.20819 0.92184 0.0
H1119 H 0.45665 0.22876 0.92442 0.0
C1120 C 0.79989 0.4044 0.8901 0.0
C1121 C 0.82286 0.39404 0.86683 0.0
C1122 C 0.8118 0.42755 0.9162 0.0
C1123 C 0.84734 0.4409 0.91876 0.0
C1124 C 0.86982 0.43216 0.89374 0.0
C1125 C 0.85742 0.40879 0.8684 0.0
C1126 C 0.7869 0.43608 0.94224 0.0
C1127 C 0.90775 0.44592 0.89493 0.0
C1128 C 0.88842 0.51117 0.97778 0.0
C1129 C 0.9056 0.4942 1.00223 0.0
C1130 C 0.86722 0.49429 0.95138 0.0
C1131 C 0.86278 0.45977 0.94982 0.0
C1132 C 0.87783 0.44288 0.97615 0.0
C1133 C 0.89928 0.4602 1.00158 0.0
C1134 C 0.85164 0.51337 0.924 0.0
C1135 C 0.87335 0.40623 0.97632 0.0
H1136 H 0.77314 0.39314 0.88907 0.0
H1137 H 0.87525 0.40132 0.85022 0.0
H1138 H 0.79248 0.42368 0.96593 0.0
H1139 H 0.79031 0.46258 0.94824 0.0
H1140 H 0.75935 0.42849 0.93367 0.0
H1141 H 0.92066 0.43976 0.87157 0.0
H1142 H 0.91046 0.47271 0.89859 0.0
H1143 H 0.9217 0.43609 0.9167 0.0
H1144 H 0.89327 0.53742 0.97802 0.0
H1145 H 0.91213 0.4469 1.02063 0.0
H1146 H 0.82463 0.50274 0.9166 0.0
H1147 H 0.86721 0.5124 0.9013 0.0
H1148 H 0.85146 0.53924 0.932 0.0
H1149 H 0.84559 0.39655 0.97144 0.0
H1150 H 0.88272 0.39703 1.0007 0.0
H1151 H 0.88825 0.3965 0.95588 0.0
C1152 C 0.70109 0.87316 0.84447 0.0
C1153 C 0.73529 0.86697 0.85583 0.0
C1154 C 0.67899 0.89313 0.8632 0.0
C1155 C 0.68944 0.9088 0.8957 0.0
C1156 C 0.72382 0.90249 0.90736 0.0
C1157 C 0.74542 0.88254 0.88808 0.0
C1158 C 0.64372 0.8976 0.84768 0.0
C1159 C 0.7383 0.91713 0.94098 0.0
C1160 C 0.64683 0.98751 0.93113 0.0
C1161 C 0.62206 0.97684 0.95544 0.0
C1162 C 0.6676 0.96656 0.91234 0.0
C1163 C 0.66565 0.93207 0.91639 0.0
C1164 C 0.6407 0.92084 0.9408 0.0
C1165 C 0.61996 0.94247 0.95932 0.0
C1166 C 0.69236 0.98193 0.88769 0.0
C1167 C 0.63594 0.88523 0.94781 0.0
H1168 H 0.69117 0.86229 0.82027 0.0
H1169 H 0.77094 0.87912 0.89878 0.0
H1170 H 0.62323 0.88914 0.86508 0.0
H1171 H 0.64208 0.92378 0.84391 0.0
H1172 H 0.63817 0.88418 0.82302 0.0
H1173 H 0.76434 0.90985 0.94795 0.0
H1174 H 0.74046 0.944 0.94031 0.0
H1175 H 0.72024 0.90961 0.96096 0.0
H1176 H 0.65042 1.01323 0.92653 0.0
H1177 H 0.60215 0.9321 0.9774 0.0
H1178 H 0.6863 0.97032 0.86221 0.0
H1179 H 0.71941 0.97786 0.89535 0.0
H1180 H 0.69116 1.00845 0.88603 0.0
H1181 H 0.62816 0.87092 0.92404 0.0
H1182 H 0.61597 0.87919 0.96654 0.0
H1183 H 0.66104 0.87766 0.95746 0.0
C1184 C 0.82454 0.6999 0.24065 0.0
C1185 C 0.84844 0.7172 0.26418 0.0
C1186 C 0.83589 0.68355 0.21255 0.0
C1187 C 0.87202 0.68354 0.20863 0.0
C1188 C 0.8962 0.69917 0.23365 0.0
C1189 C 0.8841 0.71655 0.26073 0.0
C1190 C 0.80929 0.66826 0.186 0.0
C1191 C 0.9349 0.6985 0.23119 0.0
C1192 C 0.90635 0.62524 0.14625 0.0
C1193 C 0.91895 0.64657 0.1218 0.0
C1194 C 0.88981 0.63656 0.17428 0.0
C1195 C 0.88483 0.66981 0.17713 0.0
C1196 C 0.89508 0.6908 0.15096 0.0
C1197 C 0.91313 0.67915 0.12423 0.0
C1198 C 0.88058 0.61356 0.20209 0.0
C1199 C 0.88877 0.72604 0.15212 0.0
H1200 H 0.79688 0.70086 0.24305 0.0
H1201 H 0.9025 0.72997 0.27896 0.0
H1202 H 0.81105 0.6827 0.16292 0.0
H1203 H 0.81451 0.64333 0.17882 0.0
H1204 H 0.78233 0.6672 0.19465 0.0
H1205 H 0.94971 0.70772 0.25486 0.0
H1206 H 0.9407 0.67339 0.22545 0.0
H1207 H 0.94433 0.71376 0.21027 0.0
H1208 H 0.91218 0.60033 0.14505 0.0
H1209 H 0.92407 0.69582 0.10599 0.0
H1210 H 0.85439 0.61639 0.21111 0.0
H1211 H 0.89957 0.61933 0.22388 0.0
H1212 H 0.88121 0.58782 0.19385 0.0
H1213 H 0.86169 0.7284 0.15897 0.0
H1214 H 0.89326 0.73757 0.12755 0.0
H1215 H 0.90656 0.73962 0.17172 0.0
C1216 C 0.40981 0.85224 0.21438 0.0
C1217 C 0.3746 0.85572 0.22006 0.0
C1218 C 0.42968 0.87167 0.19097 0.0
C1219 C 0.4145 0.89543 0.17148 0.0
C1220 C 0.37877 0.89841 0.17666 0.0
C1221 C 0.35982 0.8792 0.20058 0.0
C1222 C 0.46746 0.86722 0.18773 0.0
C1223 C 0.36024 0.92228 0.15681 0.0
C1224 C 0.46775 0.97165 0.13473 0.0
C1225 C 0.47045 0.96354 0.10013 0.0
C1226 C 0.45152 0.94962 0.15793 0.0
C1227 C 0.43573 0.91805 0.14701 0.0
C1228 C 0.43871 0.90944 0.11211 0.0
C1229 C 0.45599 0.93181 0.08951 0.0
C1230 C 0.4505 0.96072 0.19436 0.0
C1231 C 0.42214 0.87686 0.09812 0.0
H1232 H 0.42227 0.83467 0.22882 0.0
H1233 H 0.33287 0.88266 0.20392 0.0
H1234 H 0.4727 0.86242 0.16092 0.0
H1235 H 0.48396 0.88992 0.19626 0.0
H1236 H 0.47535 0.84696 0.20288 0.0
H1237 H 0.33205 0.92048 0.16159 0.0
H1238 H 0.37217 0.94737 0.16356 0.0
H1239 H 0.36314 0.9181 0.12938 0.0
H1240 H 0.47802 0.99593 0.1438 0.0
H1241 H 0.45657 0.9249 0.06302 0.0
H1242 H 0.4597 0.94226 0.2112 0.0
H1243 H 0.4233 0.96348 0.20042 0.0
H1244 H 0.46678 0.98427 0.20003 0.0
H1245 H 0.43112 0.85717 0.11337 0.0
H1246 H 0.42815 0.87255 0.07137 0.0
H1247 H 0.39346 0.87536 0.09975 0.0
C1248 C 0.72285 0.2482 0.19325 0.0
C1249 C 0.72617 0.24135 0.22772 0.0
C1250 C 0.70142 0.22747 0.16988 0.0
C1251 C 0.68308 0.19823 0.18056 0.0
C1252 C 0.68615 0.19117 0.21541 0.0
C1253 C 0.70714 0.21291 0.23854 0.0
C1254 C 0.69864 0.2369 0.13349 0.0
C1255 C 0.66803 0.16012 0.22816 0.0
C1256 C 0.60691 0.15642 0.12215 0.0
C1257 C 0.62327 0.1345 0.10239 0.0
C1258 C 0.6257 0.17682 0.14781 0.0
C1259 C 0.66177 0.17489 0.15496 0.0
C1260 C 0.67796 0.15178 0.13598 0.0
C1261 C 0.65885 0.13247 0.1098 0.0
C1262 C 0.60717 0.2014 0.16643 0.0
C1263 C 0.71586 0.14777 0.14289 0.0
H1264 H 0.73698 0.27016 0.18441 0.0
H1265 H 0.70952 0.20708 0.26492 0.0
H1266 H 0.70975 0.21893 0.11721 0.0
H1267 H 0.67088 0.23675 0.12504 0.0
H1268 H 0.71255 0.26134 0.12951 0.0
H1269 H 0.67244 0.15817 0.25586 0.0
H1270 H 0.63961 0.15852 0.22209 0.0
H1271 H 0.67758 0.13901 0.21526 0.0
H1272 H 0.5796 0.15858 0.11666 0.0
H1273 H 0.67195 0.11567 0.09499 0.0
H1274 H 0.61895 0.22626 0.16105 0.0
H1275 H 0.61036 0.19857 0.19406 0.0
H1276 H 0.57892 0.19915 0.15911 0.0
H1277 H 0.73233 0.16989 0.13563 0.0
H1278 H 0.72372 0.12654 0.1287 0.0
H1279 H 0.72126 0.14476 0.17026 0.0
C1280 C 0.75848 0.73683 0.90265 0.0
C1281 C 0.75321 0.73271 0.8673 0.0
C1282 C 0.74016 0.71603 0.92554 0.0
C1283 C 0.71478 0.69013 0.91344 0.0
C1284 C 0.70925 0.68587 0.87772 0.0
C1285 C 0.72825 0.70686 0.85542 0.0
C1286 C 0.74787 0.72203 0.96296 0.0
C1287 C 0.6824 0.65941 0.86286 0.0
C1288 C 0.67585 0.62037 0.97059 0.0
C1289 C 0.64397 0.63082 0.97956 0.0
C1290 C 0.69957 0.63952 0.95021 0.0
C1291 C 0.69155 0.66994 0.93773 0.0
C1292 C 0.66012 0.68093 0.94789 0.0
C1293 C 0.63741 0.66176 0.96843 0.0
C1294 C 0.73304 0.62683 0.94137 0.0
C1295 C 0.64964 0.71283 0.93606 0.0
H1296 H 0.77653 0.75706 0.91257 0.0
H1297 H 0.72324 0.70307 0.82841 0.0
H1298 H 0.72352 0.72432 0.97602 0.0
H1299 H 0.75942 0.70101 0.97352 0.0
H1300 H 0.76625 0.74429 0.96876 0.0
H1301 H 0.68217 0.65781 0.83485 0.0
H1302 H 0.68746 0.63562 0.87283 0.0
H1303 H 0.65615 0.66404 0.87048 0.0
H1304 H 0.68173 0.59671 0.97832 0.0
H1305 H 0.61337 0.67088 0.97495 0.0
H1306 H 0.75551 0.64491 0.94952 0.0
H1307 H 0.73362 0.62325 0.91359 0.0
H1308 H 0.73637 0.60348 0.95339 0.0
H1309 H 0.67033 0.73287 0.94357 0.0
H1310 H 0.62485 0.71855 0.94651 0.0
H1311 H 0.64653 0.71209 0.90809 0.0
C1312 C 0.37222 0.7266 0.85898 0.0
C1313 C 0.34297 0.74141 0.86936 0.0
C1314 C 0.39065 0.70566 0.88008 0.0
C1315 C 0.38124 0.69887 0.91391 0.0
C1316 C 0.35191 0.71401 0.92465 0.0
C1317 C 0.33332 0.73409 0.90266 0.0
C1318 C 0.42043 0.69034 0.8657 0.0
C1319 C 0.33968 0.70902 0.9598 0.0
C1320 C 0.41333 0.62339 0.9623 0.0
C1321 C 0.44458 0.63622 0.98058 0.0
C1322 C 0.39281 0.64291 0.9413 0.0
C1323 C 0.40244 0.6771 0.93778 0.0
C1324 C 0.43331 0.69021 0.95708 0.0
C1325 C 0.45375 0.67008 0.97701 0.0
C1326 C 0.36101 0.62644 0.92177 0.0
C1327 C 0.44525 0.72605 0.95651 0.0
H1328 H 0.38071 0.73103 0.83374 0.0
H1329 H 0.31108 0.74449 0.912 0.0
H1330 H 0.44509 0.69962 0.87992 0.0
H1331 H 0.4164 0.66365 0.86852 0.0
H1332 H 0.42332 0.6954 0.83859 0.0
H1333 H 0.32344 0.72798 0.96774 0.0
H1334 H 0.32374 0.68508 0.96048 0.0
H1335 H 0.36203 0.70917 0.97841 0.0
H1336 H 0.40561 0.5975 0.96303 0.0
H1337 H 0.47777 0.68112 0.98977 0.0
H1338 H 0.36333 0.63063 0.89442 0.0
H1339 H 0.33758 0.63714 0.92969 0.0
H1340 H 0.35712 0.59989 0.92556 0.0
H1341 H 0.45348 0.73245 0.93093 0.0
H1342 H 0.46738 0.73359 0.97498 0.0
H1343 H 0.42341 0.74015 0.96223 0.0
C1344 C 0.33639 0.39994 0.88505 0.0
C1345 C 0.35179 0.37963 0.86275 0.0
C1346 C 0.35687 0.42338 0.906 0.0
C1347 C 0.39362 0.42648 0.90476 0.0
C1348 C 0.40927 0.40566 0.88272 0.0
C1349 C 0.38821 0.38274 0.86185 0.0
C1350 C 0.33915 0.44515 0.92909 0.0
C1351 C 0.44823 0.40809 0.87999 0.0
C1352 C 0.44633 0.50697 0.93095 0.0
C1353 C 0.45875 0.50116 0.96377 0.0
C1354 C 0.42484 0.48302 0.9117 0.0
C1355 C 0.41561 0.45234 0.92544 0.0
C1356 C 0.4282 0.44616 0.95844 0.0
C1357 C 0.44948 0.47069 0.9773 0.0
C1358 C 0.4123 0.49046 0.87649 0.0
C1359 C 0.41983 0.41338 0.97348 0.0
H1360 H 0.30829 0.39767 0.88607 0.0
H1361 H 0.40047 0.36718 0.84479 0.0
H1362 H 0.34927 0.44353 0.95553 0.0
H1363 H 0.34507 0.47077 0.92194 0.0
H1364 H 0.31042 0.43882 0.92804 0.0
H1365 H 0.45647 0.38464 0.87116 0.0
H1366 H 0.45591 0.42639 0.86114 0.0
H1367 H 0.46253 0.41573 0.90433 0.0
H1368 H 0.45331 0.53038 0.92019 0.0
H1369 H 0.45918 0.46585 1.00249 0.0
H1370 H 0.38349 0.48566 0.87376 0.0
H1371 H 0.42299 0.47432 0.85785 0.0
H1372 H 0.42029 0.51606 0.87017 0.0
H1373 H 0.39122 0.40684 0.97336 0.0
H1374 H 0.43082 0.41269 0.99979 0.0
H1375 H 0.43047 0.39459 0.95783 0.0
C1376 C 0.58234 0.38463 0.83906 0.0
C1377 C 0.60908 0.40187 0.82197 0.0
C1378 C 0.56805 0.39894 0.86684 0.0
C1379 C 0.58147 0.43085 0.87792 0.0
C1380 C 0.60755 0.44868 0.85993 0.0
C1381 C 0.62085 0.43401 0.8321 0.0
C1382 C 0.53985 0.37928 0.88492 0.0
C1383 C 0.62261 0.48287 0.8709 0.0
C1384 C 0.54289 0.49237 0.92972 0.0
C1385 C 0.56434 0.49343 0.95926 0.0
C1386 C 0.54456 0.46866 0.90441 0.0
C1387 C 0.56919 0.44633 0.90842 0.0
C1388 C 0.58802 0.44498 0.93976 0.0
C1389 C 0.58515 0.46862 0.96518 0.0
C1390 C 0.52307 0.47027 0.87191 0.0
C1391 C 0.614 0.42095 0.94503 0.0
H1392 H 0.5733 0.35969 0.83129 0.0
H1393 H 0.64207 0.44718 0.81948 0.0
H1394 H 0.5521 0.36523 0.90459 0.0
H1395 H 0.52247 0.39486 0.89742 0.0
H1396 H 0.52385 0.36169 0.8672 0.0
H1397 H 0.64321 0.49304 0.85435 0.0
H1398 H 0.60176 0.49909 0.8706 0.0
H1399 H 0.63397 0.4832 0.89713 0.0
H1400 H 0.52619 0.51126 0.92549 0.0
H1401 H 0.6013 0.46927 0.98833 0.0
H1402 H 0.51754 0.44612 0.8588 0.0
H1403 H 0.53764 0.48696 0.85483 0.0
H1404 H 0.49805 0.47989 0.87664 0.0
H1405 H 0.60269 0.39636 0.93564 0.0
H1406 H 0.62256 0.41982 0.97205 0.0
H1407 H 0.63724 0.42817 0.93043 0.0
C1408 C 0.72326 0.40236 0.23951 0.0
C1409 C 0.73902 0.37574 0.22625 0.0
C1410 C 0.7041 0.42317 0.2188 0.0
C1411 C 0.69915 0.41821 0.18283 0.0
C1412 C 0.71444 0.39097 0.16946 0.0
C1413 C 0.73335 0.37054 0.19077 0.0
C1414 C 0.68926 0.45109 0.23572 0.0
C1415 C 0.71105 0.38327 0.13204 0.0
C1416 C 0.61906 0.45226 0.13491 0.0
C1417 C 0.63263 0.48112 0.11912 0.0
C1418 C 0.63986 0.43216 0.15444 0.0
C1419 C 0.67664 0.43993 0.16 0.0
C1420 C 0.69092 0.46872 0.14371 0.0
C1421 C 0.66933 0.48849 0.12394 0.0
C1422 C 0.62187 0.40232 0.16975 0.0
C1423 C 0.72941 0.47927 0.1477 0.0
H1424 H 0.72631 0.40741 0.2665 0.0
H1425 H 0.74383 0.35 0.17932 0.0
H1426 H 0.69962 0.4742 0.22452 0.0
H1427 H 0.66055 0.44831 0.23126 0.0
H1428 H 0.69554 0.45282 0.26336 0.0
H1429 H 0.72358 0.36144 0.12499 0.0
H1430 H 0.68314 0.37926 0.12346 0.0
H1431 H 0.72327 0.40419 0.11835 0.0
H1432 H 0.59121 0.4452 0.13238 0.0
H1433 H 0.68132 0.51043 0.11315 0.0
H1434 H 0.62522 0.40459 0.19767 0.0
H1435 H 0.63392 0.38057 0.1616 0.0
H1436 H 0.59358 0.39834 0.16257 0.0
H1437 H 0.73712 0.48417 0.17482 0.0
H1438 H 0.73717 0.50145 0.13363 0.0
H1439 H 0.74397 0.45953 0.1385 0.0
C1440 C 0.69382 0.71959 0.25226 0.0
C1441 C 0.72421 0.73746 0.24197 0.0
C1442 C 0.6743 0.69632 0.23047 0.0
C1443 C 0.68541 0.69072 0.19744 0.0
C1444 C 0.71617 0.70861 0.18696 0.0
C1445 C 0.73489 0.73203 0.20914 0.0
C1446 C 0.64298 0.67677 0.24404 0.0
C1447 C 0.73027 0.70207 0.15289 0.0
C1448 C 0.64702 0.60894 0.15851 0.0
C1449 C 0.62283 0.61787 0.13418 0.0
C1450 C 0.66888 0.63247 0.17796 0.0
C1451 C 0.66522 0.66576 0.17419 0.0
C1452 C 0.64114 0.67492 0.14919 0.0
C1453 C 0.62069 0.65081 0.12901 0.0
C1454 C 0.69556 0.62149 0.20273 0.0
C1455 C 0.63668 0.71005 0.14354 0.0
H1456 H 0.68568 0.72306 0.27775 0.0
H1457 H 0.7587 0.74526 0.20107 0.0
H1458 H 0.62384 0.66632 0.22383 0.0
H1459 H 0.65181 0.65652 0.25852 0.0
H1460 H 0.62979 0.69182 0.26188 0.0
H1461 H 0.75712 0.7143 0.15076 0.0
H1462 H 0.73043 0.67558 0.14815 0.0
H1463 H 0.71339 0.71095 0.13276 0.0
H1464 H 0.64912 0.58342 0.16211 0.0
H1465 H 0.60214 0.65773 0.11001 0.0
H1466 H 0.68534 0.62139 0.22835 0.0
H1467 H 0.7202 0.63814 0.20357 0.0
H1468 H 0.70142 0.59653 0.19625 0.0
H1469 H 0.64097 0.72517 0.16724 0.0
H1470 H 0.61036 0.71251 0.13247 0.0
H1471 H 0.65565 0.71993 0.12534 0.0
C1472 C 0.4816 0.76149 0.2138 0.0
C1473 C 0.50501 0.76471 0.24213 0.0
C1474 C 0.48608 0.73994 0.18702 0.0
C1475 C 0.51547 0.72266 0.18823 0.0
C1476 C 0.54246 0.73111 0.21336 0.0
C1477 C 0.53668 0.75177 0.24054 0.0
C1478 C 0.45655 0.7318 0.16083 0.0
C1479 C 0.57504 0.71458 0.21459 0.0
C1480 C 0.5004 0.63235 0.1675 0.0
C1481 C 0.51105 0.6308 0.13441 0.0
C1482 C 0.50115 0.6623 0.18492 0.0
C1483 C 0.51399 0.69124 0.16916 0.0
C1484 C 0.52528 0.68975 0.13587 0.0
C1485 C 0.52316 0.65954 0.1187 0.0
C1486 C 0.48801 0.66292 0.22018 0.0
C1487 C 0.53935 0.71982 0.11815 0.0
H1488 H 0.4571 0.77172 0.21485 0.0
H1489 H 0.55499 0.7546 0.26227 0.0
H1490 H 0.46641 0.72781 0.13549 0.0
H1491 H 0.44087 0.70899 0.16752 0.0
H1492 H 0.43913 0.75126 0.15954 0.0
H1493 H 0.58129 0.70571 0.18925 0.0
H1494 H 0.59751 0.7313 0.22557 0.0
H1495 H 0.57108 0.69346 0.23104 0.0
H1496 H 0.49094 0.61019 0.17959 0.0
H1497 H 0.53177 0.65837 0.09313 0.0
H1498 H 0.46844 0.68035 0.22219 0.0
H1499 H 0.50989 0.67113 0.23864 0.0
H1500 H 0.47595 0.63869 0.22745 0.0
H1501 H 0.5174 0.73146 0.10685 0.0
H1502 H 0.55602 0.71385 0.09734 0.0
H1503 H 0.55464 0.73778 0.13596 0.0
C1504 C 0.37515 0.39039 0.23833 0.0
C1505 C 0.34093 0.37515 0.23115 0.0
C1506 C 0.3921 0.4133 0.21655 0.0
C1507 C 0.37504 0.42187 0.18603 0.0
C1508 C 0.34034 0.40689 0.17881 0.0
C1509 C 0.32394 0.38409 0.20111 0.0
C1510 C 0.4288 0.42811 0.22612 0.0
C1511 C 0.32052 0.41454 0.14698 0.0
C1512 C 0.4137 0.50094 0.14286 0.0
C1513 C 0.4353 0.48933 0.11872 0.0
C1514 C 0.39326 0.47957 0.16388 0.0
C1515 C 0.39404 0.44525 0.16137 0.0
C1516 C 0.41475 0.43347 0.13607 0.0
C1517 C 0.43506 0.45531 0.11571 0.0
C1518 C 0.37212 0.49401 0.19014 0.0
C1519 C 0.41686 0.39756 0.13147 0.0
H1520 H 0.38911 0.38414 0.26107 0.0
H1521 H 0.29771 0.37284 0.19461 0.0
H1522 H 0.4466 0.42109 0.20679 0.0
H1523 H 0.43026 0.45498 0.22678 0.0
H1524 H 0.43826 0.4203 0.2511 0.0
H1525 H 0.29341 0.40223 0.14532 0.0
H1526 H 0.31972 0.44112 0.14575 0.0
H1527 H 0.33411 0.40685 0.12464 0.0
H1528 H 0.41437 0.52696 0.14683 0.0
H1529 H 0.45226 0.44568 0.09818 0.0
H1530 H 0.38353 0.49013 0.21567 0.0
H1531 H 0.34506 0.48169 0.18866 0.0
H1532 H 0.37138 0.52046 0.18722 0.0
H1533 H 0.43009 0.38863 0.15417 0.0
H1534 H 0.43142 0.39176 0.10903 0.0
H1535 H 0.39034 0.38411 0.12873 0.0
C1536 C 0.86503 0.72192 0.70751 0.0
C1537 C 0.87634 0.73882 0.73886 0.0
C1538 C 0.88629 0.70207 0.68767 0.0
C1539 C 0.92159 0.69721 0.69771 0.0
C1540 C 0.93325 0.7142 0.7293 0.0
C1541 C 0.91144 0.73402 0.74865 0.0
C1542 C 0.8704 0.6859 0.65521 0.0
C1543 C 0.9696 0.71138 0.74315 0.0
C1544 C 0.96575 0.61907 0.66274 0.0
C1545 C 0.98872 0.6295 0.63678 0.0
C1546 C 0.94492 0.63986 0.6817 0.0
C1547 C 0.94509 0.67403 0.67639 0.0
C1548 C 0.96809 0.68502 0.6502 0.0
C1549 C 0.98888 0.66353 0.63147 0.0
C1550 C 0.92228 0.62471 0.7082 0.0
C1551 C 0.97099 0.72029 0.64178 0.0
H1552 H 0.83877 0.72417 0.69799 0.0
H1553 H 0.92233 0.74591 0.77208 0.0
H1554 H 0.88688 0.69331 0.63399 0.0
H1555 H 0.86947 0.65917 0.65678 0.0
H1556 H 0.84362 0.69202 0.64943 0.0
H1557 H 0.97608 0.72581 0.7671 0.0
H1558 H 0.9725 0.68556 0.74773 0.0
H1559 H 0.98869 0.71973 0.72434 0.0
H1560 H 0.96389 0.59368 0.66879 0.0
H1561 H 1.00562 0.67384 0.61248 0.0
H1562 H 0.8947 0.62822 0.70222 0.0
H1563 H 0.9299 0.63694 0.73314 0.0
H1564 H 0.92416 0.59833 0.7102 0.0
H1565 H 0.94489 0.72699 0.63412 0.0
H1566 H 0.98888 0.72603 0.62116 0.0
H1567 H 0.98057 0.7355 0.66454 0.0
C1568 C 0.3938 0.85646 0.57908 0.0
C1569 C 0.37165 0.86445 0.60419 0.0
C1570 C 0.41447 0.88085 0.56322 0.0
C1571 C 0.4124 0.9137 0.57266 0.0
C1572 C 0.38521 0.9217 0.59275 0.0
C1573 C 0.36525 0.89687 0.6087 0.0
C1574 C 0.44232 0.87127 0.54085 0.0
C1575 C 0.3809 0.95651 0.60179 0.0
C1576 C 0.50095 0.95836 0.59651 0.0
C1577 C 0.50816 0.97621 0.56783 0.0
C1578 C 0.46936 0.93876 0.59856 0.0
C1579 C 0.44406 0.93724 0.57133 0.0
C1580 C 0.45031 0.95658 0.54302 0.0
C1581 C 0.48248 0.97578 0.54152 0.0
C1582 C 0.46375 0.91872 0.6295 0.0
C1583 C 0.42387 0.95605 0.51376 0.0
H1584 H 0.39772 0.83128 0.57447 0.0
H1585 H 0.34763 0.90335 0.62754 0.0
H1586 H 0.44618 0.88807 0.51983 0.0
H1587 H 0.46735 0.8725 0.55596 0.0
H1588 H 0.43583 0.84612 0.53018 0.0
H1589 H 0.35398 0.95893 0.60923 0.0
H1590 H 0.3991 0.96514 0.62349 0.0
H1591 H 0.38703 0.97246 0.5804 0.0
H1592 H 0.52049 0.95888 0.61708 0.0
H1593 H 0.48782 0.98965 0.51925 0.0
H1594 H 0.45969 0.89251 0.62209 0.0
H1595 H 0.44013 0.92473 0.64194 0.0
H1596 H 0.48614 0.92284 0.6483 0.0
H1597 H 0.42522 0.93415 0.49745 0.0
H1598 H 0.42895 0.97765 0.49805 0.0
H1599 H 0.39702 0.9549 0.52261 0.0
C1600 C 0.19869 0.36285 0.73769 0.0
C1601 C 0.23519 0.36928 0.74343 0.0
C1602 C 0.17897 0.38279 0.71736 0.0
C1603 C 0.19531 0.41107 0.70242 0.0
C1604 C 0.23215 0.41783 0.70833 0.0
C1605 C 0.25141 0.39694 0.72803 0.0
C1606 C 0.14029 0.37332 0.71172 0.0
C1607 C 0.25138 0.44769 0.69419 0.0
C1608 C 0.14808 0.4504 0.62688 0.0
C1609 C 0.1312 0.4748 0.64263 0.0
C1610 C 0.16867 0.42984 0.64562 0.0
C1611 C 0.17388 0.43364 0.68147 0.0
C1612 C 0.15768 0.45886 0.69731 0.0
C1613 C 0.13652 0.47843 0.67812 0.0
C1614 C 0.18413 0.40324 0.62695 0.0
C1615 C 0.1625 0.46516 0.73496 0.0
H1616 H 0.18532 0.34168 0.74881 0.0
H1617 H 0.27935 0.40275 0.73194 0.0
H1618 H 0.12599 0.39231 0.72296 0.0
H1619 H 0.13309 0.37152 0.68426 0.0
H1620 H 0.1315 0.34977 0.72297 0.0
H1621 H 0.2797 0.45026 0.70125 0.0
H1622 H 0.24785 0.44676 0.66627 0.0
H1623 H 0.24043 0.46965 0.70354 0.0
H1624 H 0.14423 0.44653 0.59977 0.0
H1625 H 0.12401 0.49688 0.69116 0.0
H1626 H 0.17392 0.37932 0.63651 0.0
H1627 H 0.21281 0.40607 0.63163 0.0
H1628 H 0.17812 0.40314 0.59929 0.0
H1629 H 0.15041 0.44391 0.74822 0.0
H1630 H 0.15071 0.48699 0.74344 0.0
H1631 H 0.19065 0.46849 0.7427 0.0
C1632 C 0.73743 0.23144 0.71518 0.0
C1633 C 0.77029 0.23237 0.73187 0.0
C1634 C 0.72304 0.20431 0.69511 0.0
C1635 C 0.74244 0.17771 0.69052 0.0
C1636 C 0.77604 0.17878 0.70675 0.0
C1637 C 0.78929 0.20584 0.7278 0.0
C1638 C 0.68677 0.204 0.67916 0.0
C1639 C 0.7981 0.15152 0.70157 0.0
C1640 C 0.68829 0.09826 0.66126 0.0
C1641 C 0.68848 0.10039 0.6261 0.0
C1642 C 0.70699 0.12257 0.6827 0.0
C1643 C 0.72716 0.1491 0.66859 0.0
C1644 C 0.72931 0.14998 0.63306 0.0
C1645 C 0.70944 0.126 0.61227 0.0
C1646 C 0.70308 0.12105 0.7203 0.0
C1647 C 0.75122 0.17715 0.61685 0.0
H1648 H 0.72242 0.2517 0.71861 0.0
H1649 H 0.81476 0.20653 0.74058 0.0
H1650 H 0.68762 0.20274 0.65126 0.0
H1651 H 0.66995 0.18214 0.68663 0.0
H1652 H 0.67448 0.22588 0.68657 0.0
H1653 H 0.82416 0.15656 0.71489 0.0
H1654 H 0.78477 0.12862 0.71081 0.0
H1655 H 0.80164 0.14753 0.67423 0.0
H1656 H 0.67173 0.07873 0.67199 0.0
H1657 H 0.70966 0.12765 0.58505 0.0
H1658 H 0.68833 0.14094 0.72881 0.0
H1659 H 0.72893 0.12465 0.73401 0.0
H1660 H 0.68907 0.09757 0.7275 0.0
H1661 H 0.73863 0.19976 0.61889 0.0
H1662 H 0.75455 0.17161 0.5897 0.0
H1663 H 0.77732 0.1819 0.63006 0.0
C1664 C 0.88826 0.40259 0.34384 0.0
C1665 C 0.87075 0.3732 0.35398 0.0
C1666 C 0.91199 0.42246 0.36621 0.0
C1667 C 0.91933 0.41259 0.39963 0.0
C1668 C 0.90212 0.38255 0.40965 0.0
C1669 C 0.87781 0.36371 0.38712 0.0
C1670 C 0.92813 0.45456 0.35403 0.0
C1671 C 0.91001 0.3698 0.44406 0.0
C1672 C 1.00693 0.44806 0.44361 0.0
C1673 C 0.9973 0.47008 0.46813 0.0
C1674 C 0.98202 0.42908 0.42188 0.0
C1675 C 0.94609 0.43259 0.42352 0.0
C1676 C 0.93613 0.45491 0.4482 0.0
C1677 C 0.96167 0.473 0.47041 0.0
C1678 C 0.99431 0.40538 0.39682 0.0
C1679 C 0.89852 0.46053 0.4504 0.0
H1680 H 0.88281 0.41049 0.31855 0.0
H1681 H 0.86479 0.34094 0.3953 0.0
H1682 H 0.91239 0.47373 0.36239 0.0
H1683 H 0.95518 0.46103 0.36452 0.0
H1684 H 0.92824 0.45454 0.32604 0.0
H1685 H 0.89509 0.34579 0.44791 0.0
H1686 H 0.93823 0.36744 0.44731 0.0
H1687 H 0.90379 0.38715 0.46406 0.0
H1688 H 0.03432 0.44552 0.44147 0.0
H1689 H 0.95385 0.49034 0.48867 0.0
H1690 H 0.9884 0.41283 0.37075 0.0
H1691 H 0.98022 0.38081 0.39956 0.0
H1692 H 1.02273 0.40388 0.40004 0.0
H1693 H 0.8897 0.4716 0.42687 0.0
H1694 H 0.89449 0.47673 0.47229 0.0
H1695 H 0.88182 0.43719 0.45255 0.0
C1696 C 0.71174 0.84655 0.37375 0.0
C1697 C 0.73508 0.85328 0.34825 0.0
C1698 C 0.69428 0.87101 0.38796 0.0
C1699 C 0.70098 0.90319 0.37701 0.0
C1700 C 0.72426 0.91009 0.35098 0.0
C1701 C 0.74073 0.88492 0.33659 0.0
C1702 C 0.66905 0.86247 0.41507 0.0
C1703 C 0.73272 0.94422 0.3392 0.0
C1704 C 0.63545 0.96154 0.39733 0.0
C1705 C 0.64971 0.97595 0.42805 0.0
C1706 C 0.65207 0.93809 0.38017 0.0
C1707 C 0.68421 0.9296 0.39358 0.0
C1708 C 0.69937 0.94507 0.42395 0.0
C1709 C 0.68164 0.96769 0.44111 0.0
C1710 C 0.63452 0.92143 0.34847 0.0
C1711 C 0.73399 0.93726 0.43869 0.0
H1712 H 0.70714 0.82207 0.38268 0.0
H1713 H 0.75905 0.89026 0.3171 0.0
H1714 H 0.64362 0.87117 0.4085 0.0
H1715 H 0.6647 0.83592 0.41884 0.0
H1716 H 0.67916 0.87474 0.43935 0.0
H1717 H 0.75059 0.94537 0.31805 0.0
H1718 H 0.70854 0.95428 0.33088 0.0
H1719 H 0.7451 0.96006 0.3605 0.0
H1720 H 0.61054 0.96764 0.3874 0.0
H1721 H 0.69279 0.97898 0.46478 0.0
H1722 H 0.62814 0.89513 0.35265 0.0
H1723 H 0.65234 0.92368 0.32738 0.0
H1724 H 0.61014 0.93158 0.34074 0.0
H1725 H 0.73129 0.91204 0.44756 0.0
H1726 H 0.74395 0.95391 0.46033 0.0
H1727 H 0.7536 0.93878 0.41911 0.0
C1728 C 0.26119 0.72796 0.39622 0.0
C1729 C 0.24783 0.74967 0.37345 0.0
C1730 C 0.23978 0.70898 0.41878 0.0
C1731 C 0.20321 0.71107 0.41977 0.0
C1732 C 0.18972 0.73344 0.39732 0.0
C1733 C 0.21166 0.75195 0.37484 0.0
C1734 C 0.25643 0.68589 0.44126 0.0
C1735 C 0.15151 0.73751 0.39651 0.0
C1736 C 0.14256 0.6353 0.44783 0.0
C1737 C 0.1352 0.64191 0.48197 0.0
C1738 C 0.16364 0.65718 0.42805 0.0
C1739 C 0.17898 0.68792 0.44156 0.0
C1740 C 0.17112 0.69552 0.47575 0.0
C1741 C 0.14967 0.67284 0.49528 0.0
C1742 C 0.17005 0.64681 0.39231 0.0
C1743 C 0.18606 0.72763 0.49207 0.0
H1744 H 0.28868 0.72525 0.3961 0.0
H1745 H 0.20013 0.76821 0.35794 0.0
H1746 H 0.25039 0.69047 0.46792 0.0
H1747 H 0.24552 0.66056 0.43415 0.0
H1748 H 0.28515 0.68807 0.43951 0.0
H1749 H 0.14517 0.75779 0.38054 0.0
H1750 H 0.13607 0.71479 0.38644 0.0
H1751 H 0.14325 0.74209 0.42245 0.0
H1752 H 0.1319 0.61211 0.43616 0.0
H1753 H 0.14521 0.67906 0.5213 0.0
H1754 H 0.19833 0.64605 0.38956 0.0
H1755 H 0.16153 0.66473 0.37446 0.0
H1756 H 0.15612 0.62254 0.38487 0.0
H1757 H 0.21489 0.72908 0.49403 0.0
H1758 H 0.1765 0.73124 0.51771 0.0
H1759 H 0.17926 0.74776 0.47618 0.0
C1760 C 0.50541 0.28722 0.45803 0.0
C1761 C 0.47128 0.28309 0.46912 0.0
C1762 C 0.53007 0.26713 0.46916 0.0
C1763 C 0.51997 0.24173 0.49091 0.0
C1764 C 0.48725 0.24049 0.50568 0.0
C1765 C 0.46361 0.26178 0.49517 0.0
C1766 C 0.56537 0.27048 0.45421 0.0
C1767 C 0.47589 0.21516 0.53053 0.0
C1768 C 0.54782 0.16099 0.46353 0.0
C1769 C 0.5727 0.15554 0.48899 0.0
C1770 C 0.53067 0.18882 0.46423 0.0
C1771 C 0.53897 0.21252 0.49067 0.0
C1772 C 0.56466 0.20783 0.51607 0.0
C1773 C 0.58106 0.17923 0.5151 0.0
C1774 C 0.50292 0.19239 0.43688 0.0
C1775 C 0.5743 0.2326 0.54453 0.0
H1776 H 0.5121 0.30389 0.43823 0.0
H1777 H 0.4379 0.25968 0.50519 0.0
H1778 H 0.58587 0.26518 0.47306 0.0
H1779 H 0.56512 0.25282 0.43261 0.0
H1780 H 0.57229 0.29524 0.44483 0.0
H1781 H 0.49 0.22193 0.55511 0.0
H1782 H 0.44753 0.2135 0.53451 0.0
H1783 H 0.48209 0.19085 0.52212 0.0
H1784 H 0.54085 0.14302 0.44325 0.0
H1785 H 0.60009 0.17533 0.53503 0.0
H1786 H 0.5105 0.21424 0.42228 0.0
H1787 H 0.47791 0.19563 0.44836 0.0
H1788 H 0.49853 0.17103 0.41899 0.0
H1789 H 0.59809 0.22772 0.55935 0.0
H1790 H 0.55257 0.23217 0.5618 0.0
H1791 H 0.5786 0.25739 0.53463 0.0
C1792 C 0.65611 0.77851 0.58647 0.0
C1793 C 0.69208 0.77648 0.58657 0.0
C1794 C 0.64163 0.80278 0.56883 0.0
C1795 C 0.66374 0.82479 0.55079 0.0
C1796 C 0.69757 0.81751 0.54405 0.0
C1797 C 0.71149 0.79303 0.56207 0.0
C1798 C 0.6047 0.80863 0.57522 0.0
C1799 C 0.72106 0.83905 0.52272 0.0
C1800 C 0.6262 0.90126 0.52479 0.0
C1801 C 0.63553 0.92181 0.55344 0.0
C1802 C 0.63639 0.86996 0.5226 0.0
C1803 C 0.65611 0.85892 0.54982 0.0
C1804 C 0.66662 0.87995 0.57829 0.0
C1805 C 0.65625 0.91113 0.57967 0.0
C1806 C 0.62491 0.84858 0.49172 0.0
C1807 C 0.68797 0.86926 0.60796 0.0
H1808 H 0.64023 0.76503 0.60425 0.0
H1809 H 0.73888 0.79024 0.56054 0.0
H1810 H 0.60502 0.82721 0.59598 0.0
H1811 H 0.59179 0.8178 0.55254 0.0
H1812 H 0.589 0.78613 0.58279 0.0
H1813 H 0.74164 0.8257 0.51224 0.0
H1814 H 0.70605 0.84887 0.50166 0.0
H1815 H 0.73399 0.85987 0.53862 0.0
H1816 H 0.6106 0.90943 0.50403 0.0
H1817 H 0.66384 0.92688 0.6017 0.0
H1818 H 0.60097 0.83251 0.49688 0.0
H1819 H 0.64507 0.83293 0.48495 0.0
H1820 H 0.61872 0.86319 0.46971 0.0
H1821 H 0.67346 0.84815 0.6196 0.0
H1822 H 0.6944 0.88882 0.62774 0.0
H1823 H 0.71269 0.86156 0.59934 0.0
C1824 C 0.7684 0.21205 0.42897 0.0
C1825 C 0.75488 0.22939 0.45524 0.0
C1826 C 0.76293 0.17817 0.42663 0.0
C1827 C 0.74295 0.16156 0.45088 0.0
C1828 C 0.73345 0.17872 0.47995 0.0
C1829 C 0.73936 0.21266 0.48161 0.0
C1830 C 0.77478 0.16102 0.39594 0.0
C1831 C 0.7133 0.16171 0.50731 0.0
C1832 C 0.66708 0.09921 0.43861 0.0
C1833 C 0.67844 0.0769 0.46097 0.0
C1834 C 0.69041 0.12544 0.42945 0.0
C1835 C 0.72523 0.12849 0.44309 0.0
C1836 C 0.73811 0.10179 0.45847 0.0
C1837 C 0.71426 0.07575 0.46702 0.0
C1838 C 0.67624 0.15262 0.4108 0.0
C1839 C 0.77551 0.1032 0.47146 0.0
H1840 H 0.77951 0.22492 0.40798 0.0
H1841 H 0.7289 0.22617 0.5018 0.0
H1842 H 0.77747 0.13514 0.40029 0.0
H1843 H 0.75546 0.1622 0.37458 0.0
H1844 H 0.80013 0.17327 0.38828 0.0
H1845 H 0.71205 0.17785 0.52997 0.0
H1846 H 0.68626 0.15352 0.49755 0.0
H1847 H 0.72537 0.13996 0.51515 0.0
H1848 H 0.63946 0.09945 0.43304 0.0
H1849 H 0.72301 0.05758 0.48348 0.0
H1850 H 0.69524 0.16331 0.393 0.0
H1851 H 0.67137 0.17206 0.42921 0.0
H1852 H 0.65131 0.1441 0.39651 0.0
H1853 H 0.79327 0.11833 0.45554 0.0
H1854 H 0.78375 0.07847 0.47248 0.0
H1855 H 0.77816 0.11412 0.49747 0.0
C1856 C 0.82806 0.58326 0.42188 0.0
C1857 C 0.82943 0.60791 0.39848 0.0
C1858 C 0.85872 0.57174 0.43424 0.0
C1859 C 0.89124 0.58606 0.42369 0.0
C1860 C 0.89244 0.60909 0.39811 0.0
C1861 C 0.86142 0.6195 0.38557 0.0
C1862 C 0.85642 0.54609 0.46043 0.0
C1863 C 0.92658 0.62528 0.38647 0.0
C1864 C 0.96652 0.59833 0.48872 0.0
C1865 C 0.9886 0.57691 0.47631 0.0
C1866 C 0.93446 0.60117 0.47195 0.0
C1867 C 0.92384 0.58115 0.44287 0.0
C1868 C 0.94551 0.55847 0.43112 0.0
C1869 C 0.97811 0.55716 0.44758 0.0
C1870 C 0.91244 0.62621 0.48485 0.0
C1871 C 0.93463 0.53591 0.40102 0.0
H1872 H 0.80327 0.57418 0.4317 0.0
H1873 H 0.86261 0.63888 0.36777 0.0
H1874 H 0.87636 0.52932 0.45691 0.0
H1875 H 0.86132 0.55787 0.48594 0.0
H1876 H 0.83026 0.53181 0.45942 0.0
H1877 H 0.9229 0.64039 0.36423 0.0
H1878 H 0.93998 0.6411 0.40732 0.0
H1879 H 0.94399 0.60692 0.37986 0.0
H1880 H 0.97476 0.61346 0.51107 0.0
H1881 H 0.9951 0.54017 0.43842 0.0
H1882 H 0.88662 0.61426 0.49136 0.0
H1883 H 0.90793 0.64359 0.46483 0.0
H1884 H 0.92476 0.64008 0.50754 0.0
H1885 H 0.9066 0.52659 0.4012 0.0
H1886 H 0.95014 0.51501 0.40041 0.0
H1887 H 0.9387 0.54925 0.37747 0.0
C1888 C 0.39615 0.89333 0.33962 0.0
C1889 C 0.36352 0.88304 0.35206 0.0
C1890 C 0.4205 0.91552 0.35791 0.0
C1891 C 0.41215 0.92816 0.38963 0.0
C1892 C 0.37828 0.91964 0.40138 0.0
C1893 C 0.35427 0.89701 0.38242 0.0
C1894 C 0.45603 0.92384 0.34407 0.0
C1895 C 0.36789 0.93265 0.43482 0.0
C1896 C 0.49371 0.95011 0.44652 0.0
C1897 C 0.50232 0.98313 0.44018 0.0
C1898 C 0.4631 0.93246 0.43211 0.0
C1899 C 0.44023 0.94808 0.41091 0.0
C1900 C 0.44753 0.98183 0.40624 0.0
C1901 C 0.4785 0.9989 0.42073 0.0
C1902 C 0.45611 0.89663 0.43828 0.0
C1903 C 0.4233 0.99963 0.38473 0.0
H1904 H 0.40331 0.88284 0.31594 0.0
H1905 H 0.32921 0.88896 0.39228 0.0
H1906 H 0.46247 0.95054 0.34333 0.0
H1907 H 0.4761 0.91457 0.36088 0.0
H1908 H 0.45771 0.91325 0.31823 0.0
H1909 H 0.33932 0.93352 0.43479 0.0
H1910 H 0.37493 0.91621 0.45491 0.0
H1911 H 0.38137 0.95728 0.44127 0.0
H1912 H 0.51137 0.93766 0.46204 0.0
H1913 H 0.48432 1.02452 0.41616 0.0
H1914 H 0.45838 0.88254 0.41443 0.0
H1915 H 0.4292 0.89061 0.44647 0.0
H1916 H 0.47458 0.88872 0.45777 0.0
H1917 H 0.42454 0.99192 0.35784 0.0
H1918 H 0.43009 0.02637 0.38713 0.0
H1919 H 0.39601 0.99346 0.39188 0.0
C1920 C 0.24691 0.36341 0.39505 0.0
C1921 C 0.23578 0.35612 0.36081 0.0
C1922 C 0.22749 0.38076 0.41811 0.0
C1923 C 0.19539 0.39232 0.40773 0.0
C1924 C 0.18396 0.38505 0.37317 0.0
C1925 C 0.20369 0.36721 0.35071 0.0
C1926 C 0.24171 0.38691 0.45403 0.0
C1927 C 0.15074 0.39664 0.35952 0.0
C1928 C 0.13067 0.42095 0.47498 0.0
C1929 C 0.13874 0.45518 0.47734 0.0
C1930 C 0.14851 0.40046 0.45311 0.0
C1931 C 0.17549 0.41364 0.43206 0.0
C1932 C 0.18377 0.44798 0.43469 0.0
C1933 C 0.16594 0.46766 0.45671 0.0
C1934 C 0.13808 0.36435 0.45225 0.0
C1935 C 0.2116 0.46443 0.41359 0.0
H1936 H 0.27113 0.35527 0.40419 0.0
H1937 H 0.19393 0.36225 0.32481 0.0
H1938 H 0.24793 0.4134 0.45932 0.0
H1939 H 0.22176 0.37783 0.47173 0.0
H1940 H 0.2656 0.37506 0.45928 0.0
H1941 H 0.14407 0.38818 0.33293 0.0
H1942 H 0.12886 0.38793 0.37526 0.0
H1943 H 0.15336 0.42356 0.36082 0.0
H1944 H 0.1099 0.41003 0.48978 0.0
H1945 H 0.1734 0.49365 0.45728 0.0
H1946 H 0.16122 0.3516 0.45795 0.0
H1947 H 0.12767 0.35606 0.42652 0.0
H1948 H 0.11801 0.35716 0.47057 0.0
H1949 H 0.23677 0.45497 0.41946 0.0
H1950 H 0.21526 0.4912 0.41787 0.0
H1951 H 0.2047 0.45886 0.38641 0.0
C1952 C 0.48113 0.20447 0.69235 0.0
C1953 C 0.44502 0.20233 0.68585 0.0
C1954 C 0.50039 0.18067 0.67958 0.0
C1955 C 0.48307 0.15419 0.65975 0.0
C1956 C 0.44646 0.15129 0.6541 0.0
C1957 C 0.42784 0.17542 0.66726 0.0
C1958 C 0.53943 0.18458 0.68612 0.0
C1959 C 0.42715 0.12348 0.63293 0.0
C1960 C 0.53529 0.11816 0.59306 0.0
C1961 C 0.54486 0.09038 0.60847 0.0
C1962 C 0.51521 0.13898 0.60961 0.0
C1963 C 0.50366 0.13152 0.64204 0.0
C1964 C 0.51247 0.10307 0.65749 0.0
C1965 C 0.53331 0.0829 0.6406 0.0
C1966 C 0.50695 0.16931 0.59253 0.0
C1967 C 0.50034 0.09425 0.69197 0.0
H1968 H 0.49439 0.22498 0.7072 0.0
H1969 H 0.39994 0.1738 0.662 0.0
H1970 H 0.548 0.16195 0.69608 0.0
H1971 H 0.55236 0.18916 0.66208 0.0
H1972 H 0.5485 0.20499 0.70434 0.0
H1973 H 0.43472 0.09999 0.64157 0.0
H1974 H 0.39845 0.12294 0.63384 0.0
H1975 H 0.43426 0.12572 0.60626 0.0
H1976 H 0.54446 0.12429 0.56838 0.0
H1977 H 0.54063 0.06137 0.65254 0.0
H1978 H 0.51634 0.19107 0.6088 0.0
H1979 H 0.47834 0.16876 0.58843 0.0
H1980 H 0.51914 0.17195 0.56785 0.0
H1981 H 0.51139 0.11331 0.71094 0.0
H1982 H 0.50817 0.07056 0.69983 0.0
H1983 H 0.47158 0.0931 0.69214 0.0
C1984 C 0.89751 0.33569 0.71585 0.0
C1985 C 0.8707 0.35248 0.72779 0.0
C1986 C 0.92171 0.34994 0.69328 0.0
C1987 C 0.91967 0.38208 0.68258 0.0
C1988 C 0.89244 0.39893 0.69432 0.0
C1989 C 0.86837 0.38398 0.71638 0.0
C1990 C 0.94981 0.33073 0.68124 0.0
C1991 C 0.88924 0.43333 0.68435 0.0
C1992 C 0.99999 0.43779 0.65882 0.0
C1993 C 0.99439 0.44072 0.62384 0.0
C1994 C 0.97705 0.41755 0.67773 0.0
C1995 C 0.94732 0.39933 0.66152 0.0
C1996 C 0.94267 0.40056 0.62576 0.0
C1997 C 0.96607 0.42139 0.60738 0.0
C1998 C 0.9834 0.41757 0.71558 0.0
C1999 C 0.91184 0.38128 0.60713 0.0
H2000 H 0.89967 0.31134 0.72417 0.0
H2001 H 0.848 0.39742 0.72527 0.0
H2002 H 0.94992 0.33051 0.65328 0.0
H2003 H 0.97567 0.34241 0.69111 0.0
H2004 H 0.94638 0.30528 0.68955 0.0
H2005 H 0.86605 0.44283 0.69462 0.0
H2006 H 0.91284 0.44944 0.69372 0.0
H2007 H 0.88749 0.43464 0.65646 0.0
H2008 H 1.02152 0.45297 0.67184 0.0
H2009 H 0.96103 0.42394 0.58054 0.0
H2010 H 0.98198 0.39237 0.72439 0.0
H2011 H 0.96284 0.42944 0.72798 0.0
H2012 H 1.00915 0.43067 0.72404 0.0
H2013 H 0.90847 0.35597 0.61576 0.0
H2014 H 0.91457 0.38079 0.57938 0.0
H2015 H 0.88781 0.39223 0.61263 0.0
C2016 C 0.19149 0.72269 0.75268 0.0
C2017 C 0.22724 0.72398 0.76047 0.0
C2018 C 0.1747 0.69891 0.72984 0.0
C2019 C 0.19433 0.67624 0.71454 0.0
C2020 C 0.23022 0.67694 0.72293 0.0
C2021 C 0.24623 0.70072 0.74601 0.0
C2022 C 0.13612 0.69836 0.72167 0.0
C2023 C 0.25182 0.65307 0.70701 0.0
C2024 C 0.14116 0.60015 0.67944 0.0
C2025 C 0.13526 0.60807 0.64573 0.0
C2026 C 0.16181 0.62157 0.70188 0.0
C2027 C 0.17701 0.65143 0.6901 0.0
C2028 C 0.17355 0.65841 0.65547 0.0
C2029 C 0.15259 0.63647 0.6335 0.0
C2030 C 0.16529 0.61321 0.7386 0.0
C2031 C 0.19006 0.68992 0.64211 0.0
H2032 H 0.17681 0.74064 0.76381 0.0
H2033 H 0.27394 0.70155 0.75199 0.0
H2034 H 0.1314 0.70204 0.69433 0.0
H2035 H 0.12233 0.67431 0.72726 0.0
H2036 H 0.1246 0.7174 0.7362 0.0
H2037 H 0.27941 0.65667 0.71679 0.0
H2038 H 0.24079 0.62784 0.71177 0.0
H2039 H 0.25114 0.65563 0.67924 0.0
H2040 H 0.12817 0.57782 0.68871 0.0
H2041 H 0.14803 0.64254 0.6074 0.0
H2042 H 0.15091 0.62947 0.75397 0.0
H2043 H 0.19295 0.61706 0.74796 0.0
H2044 H 0.15478 0.58768 0.74286 0.0
H2045 H 0.17696 0.71032 0.65218 0.0
H2046 H 0.18806 0.69001 0.61409 0.0
H2047 H 0.21793 0.69449 0.65072 0.0
loop_
_geom_bond_atom_site_label_1
_geom_bond_atom_site_label_2
_geom_bond_distance
_geom_bond_site_symmetry_2
_ccdc_geom_bond_type
Dy0 O3 2.307 . S
Dy0 O5 2.395 . S
Dy0 O6 2.379 . S
Dy0 O8 2.339 . S
Dy0 O10 2.298 . S
Dy0 O14 2.275 . S
Dy0 C22 2.738 . S
Dy1 O4 2.298 . S
Dy1 O7 2.275 . S
Dy1 O9 2.307 . S
Dy1 O11 2.395 . S
Dy1 O12 2.379 . S
Dy1 O15 2.339 . S
Dy1 C31 2.738 . S
C2 O14 1.254 . S
C2 O15 1.257 . S
O3 Dy0 2.307 . S
O3 C13 1.266 . S
O4 Dy1 2.298 . S
O4 C13 1.236 . S
O5 Dy0 2.395 . S
O5 C22 1.255 . S
O6 Dy0 2.379 . S
O6 C22 1.249 . S
O7 Dy1 2.275 . S
O7 C23 1.254 . S
O8 Dy0 2.339 . S
O8 C23 1.257 . S
O9 Dy1 2.307 . S
O9 C24 1.266 . S
O10 Dy0 2.298 . S
O10 C24 1.236 . S
O11 Dy1 2.395 . S
O11 C31 1.255 . S
O12 Dy1 2.379 . S
O12 C31 1.249 . S
C13 O3 1.266 . S
C13 O4 1.236 . S
O14 Dy0 2.275 . S
O14 C2 1.254 . S
O15 Dy1 2.339 . S
O15 C2 1.257 . S
C16 C19 1.344 . S
C16 C20 1.328 . S
C16 C22 1.516 . S
C17 C18 1.304 . S
C17 C21 1.323 . S
C18 C17 1.304 . S
C18 C19 1.371 . S
C18 H32 0.930 . S
C19 C16 1.344 . S
C19 C18 1.371 . S
C19 H33 0.931 . S
C20 C16 1.328 . S
C20 C21 1.433 . S
C20 H34 0.931 . S
C21 C17 1.323 . S
C21 C20 1.433 . S
C21 H35 0.933 . S
C22 Dy0 2.738 . S
C22 O5 1.255 . S
C22 O6 1.249 . S
C22 C16 1.516 . S
C23 O7 1.254 . S
C23 O8 1.257 . S
C24 O9 1.266 . S
C24 O10 1.236 . S
C25 C28 1.344 . S
C25 C29 1.328 . S
C25 C31 1.516 . S
C26 C27 1.304 . S
C26 C30 1.323 . S
C27 C26 1.304 . S
C27 C28 1.371 . S
C27 H36 0.930 . S
C28 C25 1.344 . S
C28 C27 1.371 . S
C28 H37 0.931 . S
C29 C25 1.328 . S
C29 C30 1.433 . S
C29 H38 0.931 . S
C30 C26 1.323 . S
C30 C29 1.433 . S
C30 H39 0.933 . S
C31 Dy1 2.738 . S
C31 O11 1.255 . S
C31 O12 1.249 . S
C31 C25 1.516 . S
H32 C18 0.930 . S
H33 C19 0.931 . S
H34 C20 0.931 . S
H35 C21 0.933 . S
H36 C27 0.930 . S
H37 C28 0.931 . S
H38 C29 0.931 . S
H39 C30 0.933 . S
Dy40 O43 2.307 . S
Dy40 O45 2.395 . S
Dy40 O46 2.379 . S
Dy40 O48 2.339 . S
Dy40 O50 2.298 . S
Dy40 O54 2.275 . S
Dy40 C62 2.738 . S
Dy41 O44 2.298 . S
Dy41 O47 2.275 . S
Dy41 O49 2.307 . S
Dy41 O51 2.395 . S
Dy41 O52 2.379 . S
Dy41 O55 2.339 . S
Dy41 C71 2.738 . S
C42 O54 1.254 . S
C42 O55 1.257 . S
O43 Dy40 2.307 . S
O43 C53 1.266 . S
O44 Dy41 2.298 . S
O44 C53 1.236 . S
O45 Dy40 2.395 . S
O45 C62 1.255 . S
O46 Dy40 2.379 . S
O46 C62 1.249 . S
O47 Dy41 2.275 . S
O47 C63 1.254 . S
O48 Dy40 2.339 . S
O48 C63 1.257 . S
O49 Dy41 2.307 . S
O49 C64 1.266 . S
O50 Dy40 2.298 . S
O50 C64 1.236 . S
O51 Dy41 2.395 . S
O51 C71 1.255 . S
O52 Dy41 2.379 . S
O52 C71 1.249 . S
C53 O43 1.266 . S
C53 O44 1.236 . S
O54 Dy40 2.275 . S
O54 C42 1.254 . S
O55 Dy41 2.339 . S
O55 C42 1.257 . S
C56 C59 1.344 . S
C56 C60 1.328 . S
C56 C62 1.516 . S
C57 C58 1.304 . S
C57 C61 1.323 . S
C58 C57 1.304 . S
C58 C59 1.371 . S
C58 H72 0.930 . S
C59 C56 1.344 . S
C59 C58 1.371 . S
C59 H73 0.931 . S
C60 C56 1.328 . S
C60 C61 1.433 . S
C60 H74 0.931 . S
C61 C57 1.323 . S
C61 C60 1.433 . S
C61 H75 0.933 . S
C62 Dy40 2.738 . S
C62 O45 1.255 . S
C62 O46 1.249 . S
C62 C56 1.516 . S
C63 O47 1.254 . S
C63 O48 1.257 . S
C64 O49 1.266 . S
C64 O50 1.236 . S
C65 C68 1.344 . S
C65 C69 1.328 . S
C65 C71 1.516 . S
C66 C67 1.304 . S
C66 C70 1.323 . S
C67 C66 1.304 . S
C67 C68 1.371 . S
C67 H76 0.930 . S
C68 C65 1.344 . S
C68 C67 1.371 . S
C68 H77 0.931 . S
C69 C65 1.328 . S
C69 C70 1.433 . S
C69 H78 0.931 . S
C70 C66 1.323 . S
C70 C69 1.433 . S
C70 H79 0.933 . S
C71 Dy41 2.738 . S
C71 O51 1.255 . S
C71 O52 1.249 . S
C71 C65 1.516 . S
H72 C58 0.930 . S
H73 C59 0.931 . S
H74 C60 0.931 . S
H75 C61 0.933 . S
H76 C67 0.930 . S
H77 C68 0.931 . S
H78 C69 0.931 . S
H79 C70 0.933 . S
Dy80 O83 2.307 . S
Dy80 O85 2.395 . S
Dy80 O86 2.379 . S
Dy80 O88 2.339 . S
Dy80 O90 2.298 . S
Dy80 O94 2.275 . S
Dy80 C102 2.738 . S
Dy81 O84 2.298 . S
Dy81 O87 2.275 . S
Dy81 O89 2.307 . S
Dy81 O91 2.395 . S
Dy81 O92 2.379 . S
Dy81 O95 2.339 . S
Dy81 C111 2.738 . S
C82 O94 1.254 . S
C82 O95 1.257 . S
O83 Dy80 2.307 . S
O83 C93 1.266 . S
O84 Dy81 2.298 . S
O84 C93 1.236 . S
O85 Dy80 2.395 . S
O85 C102 1.255 . S
O86 Dy80 2.379 . S
O86 C102 1.249 . S
O87 Dy81 2.275 . S
O87 C103 1.254 . S
O88 Dy80 2.339 . S
O88 C103 1.257 . S
O89 Dy81 2.307 . S
O89 C104 1.266 . S
O90 Dy80 2.298 . S
O90 C104 1.236 . S
O91 Dy81 2.395 . S
O91 C111 1.255 . S
O92 Dy81 2.379 . S
O92 C111 1.249 . S
C93 O83 1.266 . S
C93 O84 1.236 . S
O94 Dy80 2.275 . S
O94 C82 1.254 . S
O95 Dy81 2.339 . S
O95 C82 1.257 . S
C96 C99 1.344 . S
C96 C100 1.328 . S
C96 C102 1.516 . S
C97 C98 1.304 . S
C97 C101 1.323 . S
C98 C97 1.304 . S
C98 C99 1.371 . S
C98 H112 0.930 . S
C99 C96 1.344 . S
C99 C98 1.371 . S
C99 H113 0.931 . S
C100 C96 1.328 . S
C100 C101 1.433 . S
C100 H114 0.931 . S
C101 C97 1.323 . S
C101 C100 1.433 . S
C101 H115 0.933 . S
C102 Dy80 2.738 . S
C102 O85 1.255 . S
C102 O86 1.249 . S
C102 C96 1.516 . S
C103 O87 1.254 . S
C103 O88 1.257 . S
C104 O89 1.266 . S
C104 O90 1.236 . S
C105 C108 1.344 . S
C105 C109 1.328 . S
C105 C111 1.516 . S
C106 C107 1.304 . S
C106 C110 1.323 . S
C107 C106 1.304 . S
C107 C108 1.371 . S
C107 H116 0.930 . S
C108 C105 1.344 . S
C108 C107 1.371 . S
C108 H117 0.931 . S
C109 C105 1.328 . S
C109 C110 1.433 . S
C109 H118 0.931 . S
C110 C106 1.323 . S
C110 C109 1.433 . S
C110 H119 0.933 . S
C111 Dy81 2.738 . S
C111 O91 1.255 . S
C111 O92 1.249 . S
C111 C105 1.516 . S
H112 C98 0.930 . S
H113 C99 0.931 . S
H114 C100 0.931 . S
H115 C101 0.933 . S
H116 C107 0.930 . S
H117 C108 0.931 . S
H118 C109 0.931 . S
H119 C110 0.933 . S
Dy120 O123 2.307 . S
Dy120 O125 2.395 . S
Dy120 O126 2.379 . S
Dy120 O128 2.339 . S
Dy120 O130 2.298 . S
Dy120 O134 2.275 . S
Dy120 C142 2.738 . S
Dy121 O124 2.298 . S
Dy121 O127 2.275 . S
Dy121 O129 2.307 . S
Dy121 O131 2.395 . S
Dy121 O132 2.379 . S
Dy121 O135 2.339 . S
Dy121 C151 2.738 . S
C122 O134 1.254 . S
C122 O135 1.257 . S
O123 Dy120 2.307 . S
O123 C133 1.266 . S
O124 Dy121 2.298 . S
O124 C133 1.236 . S
O125 Dy120 2.395 . S
O125 C142 1.255 . S
O126 Dy120 2.379 . S
O126 C142 1.249 . S
O127 Dy121 2.275 . S
O127 C143 1.254 . S
O128 Dy120 2.339 . S
O128 C143 1.257 . S
O129 Dy121 2.307 . S
O129 C144 1.266 . S
O130 Dy120 2.298 . S
O130 C144 1.236 . S
O131 Dy121 2.395 . S
O131 C151 1.255 . S
O132 Dy121 2.379 . S
O132 C151 1.249 . S
C133 O123 1.266 . S
C133 O124 1.236 . S
O134 Dy120 2.275 . S
O134 C122 1.254 . S
O135 Dy121 2.339 . S
O135 C122 1.257 . S
C136 C139 1.344 . S
C136 C140 1.328 . S
C136 C142 1.516 . S
C137 C138 1.304 . S
C137 C141 1.323 . S
C138 C137 1.304 . S
C138 C139 1.371 . S
C138 H152 0.930 . S
C139 C136 1.344 . S
C139 C138 1.371 . S
C139 H153 0.931 . S
C140 C136 1.328 . S
C140 C141 1.433 . S
C140 H154 0.931 . S
C141 C137 1.323 . S
C141 C140 1.433 . S
C141 H155 0.933 . S
C142 Dy120 2.738 . S
C142 O125 1.255 . S
C142 O126 1.249 . S
C142 C136 1.516 . S
C143 O127 1.254 . S
C143 O128 1.257 . S
C144 O129 1.266 . S
C144 O130 1.236 . S
C145 C148 1.344 . S
C145 C149 1.328 . S
C145 C151 1.516 . S
C146 C147 1.304 . S
C146 C150 1.323 . S
C147 C146 1.304 . S
C147 C148 1.371 . S
C147 H156 0.930 . S
C148 C145 1.344 . S
C148 C147 1.371 . S
C148 H157 0.931 . S
C149 C145 1.328 . S
C149 C150 1.433 . S
C149 H158 0.931 . S
C150 C146 1.323 . S
C150 C149 1.433 . S
C150 H159 0.933 . S
C151 Dy121 2.738 . S
C151 O131 1.255 . S
C151 O132 1.249 . S
C151 C145 1.516 . S
H152 C138 0.930 . S
H153 C139 0.931 . S
H154 C140 0.931 . S
H155 C141 0.933 . S
H156 C147 0.930 . S
H157 C148 0.931 . S
H158 C149 0.931 . S
H159 C150 0.933 . S
Dy160 O163 2.307 . S
Dy160 O165 2.395 . S
Dy160 O166 2.379 . S
Dy160 O168 2.339 . S
Dy160 O170 2.298 . S
Dy160 O174 2.275 . S
Dy160 C182 2.738 . S
Dy161 O164 2.298 . S
Dy161 O167 2.275 . S
Dy161 O169 2.307 . S
Dy161 O171 2.395 . S
Dy161 O172 2.379 . S
Dy161 O175 2.339 . S
Dy161 C191 2.738 . S
C162 O174 1.254 . S
C162 O175 1.257 . S
O163 Dy160 2.307 . S
O163 C173 1.266 . S
O164 Dy161 2.298 . S
O164 C173 1.236 . S
O165 Dy160 2.395 . S
O165 C182 1.255 . S
O166 Dy160 2.379 . S
O166 C182 1.249 . S
O167 Dy161 2.275 . S
O167 C183 1.254 . S
O168 Dy160 2.339 . S
O168 C183 1.257 . S
O169 Dy161 2.307 . S
O169 C184 1.266 . S
O170 Dy160 2.298 . S
O170 C184 1.236 . S
O171 Dy161 2.395 . S
O171 C191 1.255 . S
O172 Dy161 2.379 . S
O172 C191 1.249 . S
C173 O163 1.266 . S
C173 O164 1.236 . S
O174 Dy160 2.275 . S
O174 C162 1.254 . S
O175 Dy161 2.339 . S
O175 C162 1.257 . S
C176 C179 1.344 . S
C176 C180 1.328 . S
C176 C182 1.516 . S
C177 C178 1.304 . S
C177 C181 1.323 . S
C178 C177 1.304 . S
C178 C179 1.371 . S
C178 H192 0.930 . S
C179 C176 1.344 . S
C179 C178 1.371 . S
C179 H193 0.931 . S
C180 C176 1.328 . S
C180 C181 1.433 . S
C180 H194 0.931 . S
C181 C177 1.323 . S
C181 C180 1.433 . S
C181 H195 0.933 . S
C182 Dy160 2.738 . S
C182 O165 1.255 . S
C182 O166 1.249 . S
C182 C176 1.516 . S
C183 O167 1.254 . S
C183 O168 1.257 . S
C184 O169 1.266 . S
C184 O170 1.236 . S
C185 C188 1.344 . S
C185 C189 1.328 . S
C185 C191 1.516 . S
C186 C187 1.304 . S
C186 C190 1.323 . S
C187 C186 1.304 . S
C187 C188 1.371 . S
C187 H196 0.930 . S
C188 C185 1.344 . S
C188 C187 1.371 . S
C188 H197 0.931 . S
C189 C185 1.328 . S
C189 C190 1.433 . S
C189 H198 0.931 . S
C190 C186 1.323 . S
C190 C189 1.433 . S
C190 H199 0.933 . S
C191 Dy161 2.738 . S
C191 O171 1.255 . S
C191 O172 1.249 . S
C191 C185 1.516 . S
H192 C178 0.930 . S
H193 C179 0.931 . S
H194 C180 0.931 . S
H195 C181 0.933 . S
H196 C187 0.930 . S
H197 C188 0.931 . S
H198 C189 0.931 . S
H199 C190 0.933 . S
Dy200 O203 2.307 . S
Dy200 O205 2.395 . S
Dy200 O206 2.379 . S
Dy200 O208 2.339 . S
Dy200 O210 2.298 . S
Dy200 O214 2.275 . S
Dy200 C222 2.738 . S
Dy201 O204 2.298 . S
Dy201 O207 2.275 . S
Dy201 O209 2.307 . S
Dy201 O211 2.395 . S
Dy201 O212 2.379 . S
Dy201 O215 2.339 . S
Dy201 C231 2.738 . S
C202 O214 1.254 . S
C202 O215 1.257 . S
O203 Dy200 2.307 . S
O203 C213 1.266 . S
O204 Dy201 2.298 . S
O204 C213 1.236 . S
O205 Dy200 2.395 . S
O205 C222 1.255 . S
O206 Dy200 2.379 . S
O206 C222 1.249 . S
O207 Dy201 2.275 . S
O207 C223 1.254 . S
O208 Dy200 2.339 . S
O208 C223 1.257 . S
O209 Dy201 2.307 . S
O209 C224 1.266 . S
O210 Dy200 2.298 . S
O210 C224 1.236 . S
O211 Dy201 2.395 . S
O211 C231 1.255 . S
O212 Dy201 2.379 . S
O212 C231 1.249 . S
C213 O203 1.266 . S
C213 O204 1.236 . S
O214 Dy200 2.275 . S
O214 C202 1.254 . S
O215 Dy201 2.339 . S
O215 C202 1.257 . S
C216 C219 1.344 . S
C216 C220 1.328 . S
C216 C222 1.516 . S
C217 C218 1.304 . S
C217 C221 1.323 . S
C218 C217 1.304 . S
C218 C219 1.371 . S
C218 H232 0.930 . S
C219 C216 1.344 . S
C219 C218 1.371 . S
C219 H233 0.931 . S
C220 C216 1.328 . S
C220 C221 1.433 . S
C220 H234 0.931 . S
C221 C217 1.323 . S
C221 C220 1.433 . S
C221 H235 0.933 . S
C222 Dy200 2.738 . S
C222 O205 1.255 . S
C222 O206 1.249 . S
C222 C216 1.516 . S
C223 O207 1.254 . S
C223 O208 1.257 . S
C224 O209 1.266 . S
C224 O210 1.236 . S
C225 C228 1.344 . S
C225 C229 1.328 . S
C225 C231 1.516 . S
C226 C227 1.304 . S
C226 C230 1.323 . S
C227 C226 1.304 . S
C227 C228 1.371 . S
C227 H236 0.930 . S
C228 C225 1.344 . S
C228 C227 1.371 . S
C228 H237 0.931 . S
C229 C225 1.328 . S
C229 C230 1.433 . S
C229 H238 0.931 . S
C230 C226 1.323 . S
C230 C229 1.433 . S
C230 H239 0.933 . S
C231 Dy201 2.738 . S
C231 O211 1.255 . S
C231 O212 1.249 . S
C231 C225 1.516 . S
H232 C218 0.930 . S
H233 C219 0.931 . S
H234 C220 0.931 . S
H235 C221 0.933 . S
H236 C227 0.930 . S
H237 C228 0.931 . S
H238 C229 0.931 . S
H239 C230 0.933 . S
Dy240 O243 2.307 . S
Dy240 O245 2.395 . S
Dy240 O246 2.379 . S
Dy240 O248 2.339 . S
Dy240 O250 2.298 . S
Dy240 O254 2.275 . S
Dy240 C262 2.738 . S
Dy241 O244 2.298 . S
Dy241 O247 2.275 . S
Dy241 O249 2.307 . S
Dy241 O251 2.395 . S
Dy241 O252 2.379 . S
Dy241 O255 2.339 . S
Dy241 C271 2.738 . S
C242 O254 1.254 . S
C242 O255 1.257 . S
O243 Dy240 2.307 . S
O243 C253 1.266 . S
O244 Dy241 2.298 . S
O244 C253 1.236 . S
O245 Dy240 2.395 . S
O245 C262 1.255 . S
O246 Dy240 2.379 . S
O246 C262 1.249 . S
O247 Dy241 2.275 . S
O247 C263 1.254 . S
O248 Dy240 2.339 . S
O248 C263 1.257 . S
O249 Dy241 2.307 . S
O249 C264 1.266 . S
O250 Dy240 2.298 . S
O250 C264 1.236 . S
O251 Dy241 2.395 . S
O251 C271 1.255 . S
O252 Dy241 2.379 . S
O252 C271 1.249 . S
C253 O243 1.266 . S
C253 O244 1.236 . S
O254 Dy240 2.275 . S
O254 C242 1.254 . S
O255 Dy241 2.339 . S
O255 C242 1.257 . S
C256 C259 1.344 . S
C256 C260 1.328 . S
C256 C262 1.516 . S
C257 C258 1.304 . S
C257 C261 1.323 . S
C258 C257 1.304 . S
C258 C259 1.371 . S
C258 H272 0.930 . S
C259 C256 1.344 . S
C259 C258 1.371 . S
C259 H273 0.931 . S
C260 C256 1.328 . S
C260 C261 1.433 . S
C260 H274 0.931 . S
C261 C257 1.323 . S
C261 C260 1.433 . S
C261 H275 0.933 . S
C262 Dy240 2.738 . S
C262 O245 1.255 . S
C262 O246 1.249 . S
C262 C256 1.516 . S
C263 O247 1.254 . S
C263 O248 1.257 . S
C264 O249 1.266 . S
C264 O250 1.236 . S
C265 C268 1.344 . S
C265 C269 1.328 . S
C265 C271 1.516 . S
C266 C267 1.304 . S
C266 C270 1.323 . S
C267 C266 1.304 . S
C267 C268 1.371 . S
C267 H276 0.930 . S
C268 C265 1.344 . S
C268 C267 1.371 . S
C268 H277 0.931 . S
C269 C265 1.328 . S
C269 C270 1.433 . S
C269 H278 0.931 . S
C270 C266 1.323 . S
C270 C269 1.433 . S
C270 H279 0.933 . S
C271 Dy241 2.738 . S
C271 O251 1.255 . S
C271 O252 1.249 . S
C271 C265 1.516 . S
H272 C258 0.930 . S
H273 C259 0.931 . S
H274 C260 0.931 . S
H275 C261 0.933 . S
H276 C267 0.930 . S
H277 C268 0.931 . S
H278 C269 0.931 . S
H279 C270 0.933 . S
Dy280 O283 2.307 . S
Dy280 O285 2.395 . S
Dy280 O286 2.379 . S
Dy280 O288 2.339 . S
Dy280 O290 2.298 . S
Dy280 O294 2.275 . S
Dy280 C302 2.738 . S
Dy281 O284 2.298 . S
Dy281 O287 2.275 . S
Dy281 O289 2.307 . S
Dy281 O291 2.395 . S
Dy281 O292 2.379 . S
Dy281 O295 2.339 . S
Dy281 C311 2.738 . S
C282 O294 1.254 . S
C282 O295 1.257 . S
O283 Dy280 2.307 . S
O283 C293 1.266 . S
O284 Dy281 2.298 . S
O284 C293 1.236 . S
O285 Dy280 2.395 . S
O285 C302 1.255 . S
O286 Dy280 2.379 . S
O286 C302 1.249 . S
O287 Dy281 2.275 . S
O287 C303 1.254 . S
O288 Dy280 2.339 . S
O288 C303 1.257 . S
O289 Dy281 2.307 . S
O289 C304 1.266 . S
O290 Dy280 2.298 . S
O290 C304 1.236 . S
O291 Dy281 2.395 . S
O291 C311 1.255 . S
O292 Dy281 2.379 . S
O292 C311 1.249 . S
C293 O283 1.266 . S
C293 O284 1.236 . S
O294 Dy280 2.275 . S
O294 C282 1.254 . S
O295 Dy281 2.339 . S
O295 C282 1.257 . S
C296 C299 1.344 . S
C296 C300 1.328 . S
C296 C302 1.516 . S
C297 C298 1.304 . S
C297 C301 1.323 . S
C298 C297 1.304 . S
C298 C299 1.371 . S
C298 H312 0.930 . S
C299 C296 1.344 . S
C299 C298 1.371 . S
C299 H313 0.931 . S
C300 C296 1.328 . S
C300 C301 1.433 . S
C300 H314 0.931 . S
C301 C297 1.323 . S
C301 C300 1.433 . S
C301 H315 0.933 . S
C302 Dy280 2.738 . S
C302 O285 1.255 . S
C302 O286 1.249 . S
C302 C296 1.516 . S
C303 O287 1.254 . S
C303 O288 1.257 . S
C304 O289 1.266 . S
C304 O290 1.236 . S
C305 C308 1.344 . S
C305 C309 1.328 . S
C305 C311 1.516 . S
C306 C307 1.304 . S
C306 C310 1.323 . S
C307 C306 1.304 . S
C307 C308 1.371 . S
C307 H316 0.930 . S
C308 C305 1.344 . S
C308 C307 1.371 . S
C308 H317 0.931 . S
C309 C305 1.328 . S
C309 C310 1.433 . S
C309 H318 0.931 . S
C310 C306 1.323 . S
C310 C309 1.433 . S
C310 H319 0.933 . S
C311 Dy281 2.738 . S
C311 O291 1.255 . S
C311 O292 1.249 . S
C311 C305 1.516 . S
H312 C298 0.930 . S
H313 C299 0.931 . S
H314 C300 0.931 . S
H315 C301 0.933 . S
H316 C307 0.930 . S
H317 C308 0.931 . S
H318 C309 0.931 . S
H319 C310 0.933 . S
Fe320 O321 1.886 1_455 S
Fe320 O324 1.715 . S
Fe320 O329 2.077 1_455 S
Fe320 O334 1.935 . S
Fe320 O340 2.077 1_455 S
Fe320 O349 1.935 . S
O321 Fe320 1.886 1_655 S
O321 Fe323 1.715 . S
Fe322 O324 1.886 . S
Fe322 O325 1.715 1_545 S
Fe322 O332 1.935 . S
Fe322 O333 2.077 . S
Fe322 O339 1.935 . S
Fe322 O348 2.077 . S
Fe323 O321 1.715 . S
Fe323 O326 1.886 1_545 S
Fe323 O330 1.935 . S
Fe323 O335 2.077 1_545 S
Fe323 O341 1.935 . S
Fe323 O345 2.077 1_545 S
O324 Fe320 1.715 . S
O324 Fe322 1.886 . S
O325 Fe322 1.715 1_565 S
O325 Fe327 1.886 . S
O326 Fe323 1.886 1_565 S
O326 Fe327 1.715 1_655 S
Fe327 O325 1.886 . S
Fe327 O326 1.715 1_455 S
Fe327 O331 2.077 . S
Fe327 O336 1.935 1_455 S
Fe327 O338 2.077 . S
Fe327 O346 1.935 1_455 S
C328 O340 1.381 . S
C328 O341 1.421 . S
O329 Fe320 2.077 1_655 S
O329 C342 1.381 . S
O330 Fe323 1.935 . S
O330 C342 1.421 . S
O331 Fe327 2.077 . S
O331 C347 1.381 . S
O332 Fe322 1.935 . S
O332 C347 1.421 1_545 S
O333 Fe322 2.077 . S
O333 C337 1.381 . S
O334 Fe320 1.935 . S
O334 C337 1.421 . S
O335 Fe323 2.077 1_565 S
O335 C343 1.381 . S
O336 Fe327 1.935 1_655 S
O336 C343 1.421 . S
C337 O333 1.381 . S
C337 O334 1.421 . S
O338 Fe327 2.077 . S
O338 C350 1.381 . S
O339 Fe322 1.935 . S
O339 C350 1.421 1_545 S
O340 Fe320 2.077 1_655 S
O340 C328 1.381 . S
O341 Fe323 1.935 . S
O341 C328 1.421 . S
C342 O329 1.381 . S
C342 O330 1.421 . S
C343 O335 1.381 . S
C343 O336 1.421 . S
C344 O345 1.381 . S
C344 O346 1.421 . S
O345 Fe323 2.077 1_565 S
O345 C344 1.381 . S
O346 Fe327 1.935 1_655 S
O346 C344 1.421 . S
C347 O331 1.381 . S
C347 O332 1.421 1_565 S
O348 Fe322 2.077 . S
O348 C351 1.381 . S
O349 Fe320 1.935 . S
O349 C351 1.421 . S
C350 O338 1.381 . S
C350 O339 1.421 1_565 S
C351 O348 1.381 . S
C351 O349 1.421 . S
Fe352 O353 1.888 1_566 S
Fe352 O356 1.715 1_565 S
Fe352 O361 2.077 . S
Fe352 O366 1.935 . S
Fe352 O372 2.077 1_556 S
Fe352 O381 1.935 1_556 S
O353 Fe352 1.888 1_544 S
O353 Fe355 1.713 . S
Fe354 O356 1.886 . S
Fe354 O357 1.717 1_556 S
Fe354 O364 1.935 . S
Fe354 O365 2.077 1_545 S
Fe354 O371 1.935 1_556 S
Fe354 O380 2.068 1_546 S
Fe355 O353 1.713 . S
Fe355 O358 1.886 . S
Fe355 O362 1.935 1_554 S
Fe355 O367 2.077 1_554 S
Fe355 O373 1.935 . S
Fe355 O377 2.077 . S
O356 Fe352 1.715 1_545 S
O356 Fe354 1.886 . S
O357 Fe354 1.717 1_554 S
O357 Fe359 1.884 . S
O358 Fe355 1.886 . S
O358 Fe359 1.715 . S
Fe359 O357 1.884 . S
Fe359 O358 1.715 . S
Fe359 O363 2.077 1_554 S
Fe359 O368 1.935 1_554 S
Fe359 O370 2.077 . S
Fe359 O378 1.935 . S
C360 O372 1.381 . S
C360 O373 1.421 1_565 S
O361 Fe352 2.077 . S
O361 C374 1.381 . S
O362 Fe355 1.935 1_556 S
O362 C374 1.421 1_545 S
O363 Fe359 2.077 1_556 S
O363 C379 1.381 . S
O364 Fe354 1.935 . S
O364 C379 1.421 . S
O365 Fe354 2.077 1_565 S
O365 C369 1.381 . S
O366 Fe352 1.935 . S
O366 C369 1.421 . S
O367 Fe355 2.077 1_556 S
O367 C375 1.381 . S
O368 Fe359 1.935 1_556 S
O368 C375 1.421 . S
C369 O365 1.381 . S
C369 O366 1.421 . S
O370 Fe359 2.077 . S
O370 C382 1.381 . S
O371 Fe354 1.935 1_554 S
O371 C382 1.421 . S
O372 Fe352 2.077 1_554 S
O372 C360 1.381 . S
O373 Fe355 1.935 . S
O373 C360 1.421 1_545 S
C374 O361 1.381 . S
C374 O362 1.421 1_565 S
C375 O367 1.381 . S
C375 O368 1.421 . S
C376 O377 1.381 . S
C376 O378 1.421 . S
O377 Fe355 2.077 . S
O377 C376 1.381 . S
O378 Fe359 1.935 . S
O378 C376 1.421 . S
C379 O363 1.381 . S
C379 O364 1.421 . S
O380 Fe354 2.068 1_564 S
O380 C383 1.393 . S
O381 Fe352 1.935 1_554 S
O381 C383 1.421 . S
C382 O370 1.381 . S
C382 O371 1.421 . S
C383 O380 1.393 . S
C383 O381 1.421 . S
Fe384 O385 1.886 1_455 S
Fe384 O388 1.715 . S
Fe384 O393 2.077 1_455 S
Fe384 O398 1.935 . S
Fe384 O404 2.077 1_455 S
Fe384 O413 1.935 . S
O385 Fe384 1.886 1_655 S
O385 Fe387 1.715 . S
Fe386 O388 1.886 . S
Fe386 O389 1.715 . S
Fe386 O396 1.935 . S
Fe386 O397 2.077 . S
Fe386 O403 1.935 . S
Fe386 O412 2.077 . S
Fe387 O385 1.715 . S
Fe387 O390 1.886 . S
Fe387 O394 1.935 . S
Fe387 O399 2.077 . S
Fe387 O405 1.935 . S
Fe387 O409 2.077 . S
O388 Fe384 1.715 . S
O388 Fe386 1.886 . S
O389 Fe386 1.715 . S
O389 Fe391 1.886 1_455 S
O390 Fe387 1.886 . S
O390 Fe391 1.715 . S
Fe391 O389 1.886 1_655 S
Fe391 O390 1.715 . S
Fe391 O395 2.077 1_655 S
Fe391 O400 1.935 . S
Fe391 O402 2.077 1_655 S
Fe391 O410 1.935 . S
C392 O404 1.381 . S
C392 O405 1.421 . S
O393 Fe384 2.077 1_655 S
O393 C406 1.391 . S
O394 Fe387 1.935 . S
O394 C406 1.432 . S
O395 Fe391 2.077 1_455 S
O395 C411 1.394 . S
O396 Fe386 1.935 . S
O396 C411 1.426 . S
O397 Fe386 2.077 . S
O397 C401 1.381 . S
O398 Fe384 1.935 . S
O398 C401 1.421 . S
O399 Fe387 2.077 . S
O399 C407 1.381 1_554 S
O400 Fe391 1.935 . S
O400 C407 1.421 1_554 S
C401 O397 1.381 . S
C401 O398 1.421 . S
O402 Fe391 2.077 1_455 S
O402 C414 1.381 . S
O403 Fe386 1.935 . S
O403 C414 1.421 . S
O404 Fe384 2.077 1_655 S
O404 C392 1.381 . S
O405 Fe387 1.935 . S
O405 C392 1.421 . S
C406 O393 1.391 . S
C406 O394 1.432 . S
C407 O399 1.381 1_556 S
C407 O400 1.421 1_556 S
C408 O409 1.381 . S
C408 O410 1.421 . S
O409 Fe387 2.077 . S
O409 C408 1.381 . S
O410 Fe391 1.935 . S
O410 C408 1.421 . S
C411 O395 1.394 . S
C411 O396 1.426 . S
O412 Fe386 2.077 . S
O412 C415 1.381 . S
O413 Fe384 1.935 . S
O413 C415 1.421 . S
C414 O402 1.381 . S
C414 O403 1.421 . S
C415 O412 1.381 . S
C415 O413 1.421 . S
Fe416 O417 1.886 . S
Fe416 O420 1.715 . S
Fe416 O425 2.077 . S
Fe416 O430 1.935 . S
Fe416 O436 2.077 . S
Fe416 O445 1.935 . S
O417 Fe416 1.886 . S
O417 Fe419 1.715 1_556 S
Fe418 O420 1.886 1_554 S
Fe418 O421 1.715 . S
Fe418 O428 1.935 . S
Fe418 O429 2.077 1_554 S
Fe418 O435 1.935 . S
Fe418 O444 2.077 1_554 S
Fe419 O417 1.715 1_554 S
Fe419 O422 1.886 . S
Fe419 O426 1.935 . S
Fe419 O431 2.077 . S
Fe419 O437 1.935 1_554 S
Fe419 O441 2.077 . S
O420 Fe416 1.715 . S
O420 Fe418 1.886 1_556 S
O421 Fe418 1.715 . S
O421 Fe423 1.886 . S
O422 Fe419 1.886 . S
O422 Fe423 1.715 . S
Fe423 O421 1.886 . S
Fe423 O422 1.715 . S
Fe423 O427 2.077 . S
Fe423 O432 1.935 . S
Fe423 O434 2.077 . S
Fe423 O442 1.935 . S
C424 O436 1.381 . S
C424 O437 1.421 . S
O425 Fe416 2.077 . S
O425 C438 1.381 . S
O426 Fe419 1.935 . S
O426 C438 1.421 1_554 S
O427 Fe423 2.077 . S
O427 C443 1.381 . S
O428 Fe418 1.935 . S
O428 C443 1.421 . S
O429 Fe418 2.077 1_556 S
O429 C433 1.381 . S
O430 Fe416 1.935 . S
O430 C433 1.421 . S
O431 Fe419 2.077 . S
O431 C439 1.381 . S
O432 Fe423 1.935 . S
O432 C439 1.421 . S
C433 O429 1.381 . S
C433 O430 1.421 . S
O434 Fe423 2.077 . S
O434 C446 1.381 . S
O435 Fe418 1.935 . S
O435 C446 1.421 . S
O436 Fe416 2.077 . S
O436 C424 1.381 . S
O437 Fe419 1.935 1_556 S
O437 C424 1.421 . S
C438 O425 1.381 . S
C438 O426 1.421 1_556 S
C439 O431 1.381 . S
C439 O432 1.421 . S
C440 O441 1.381 . S
C440 O442 1.421 . S
O441 Fe419 2.077 . S
O441 C440 1.381 . S
O442 Fe423 1.935 . S
O442 C440 1.421 . S
C443 O427 1.381 . S
C443 O428 1.421 . S
O444 Fe418 2.077 1_556 S
O444 C447 1.381 . S
O445 Fe416 1.935 . S
O445 C447 1.421 . S
C446 O434 1.381 . S
C446 O435 1.421 . S
C447 O444 1.381 . S
C447 O445 1.421 . S
Fe448 O449 1.886 . S
Fe448 O452 1.715 . S
Fe448 O457 2.077 . S
Fe448 O462 1.935 . S
Fe448 O468 2.077 1_455 S
Fe448 O477 1.935 1_455 S
O449 Fe448 1.886 . S
O449 Fe451 1.715 . S
Fe450 O452 1.886 . S
Fe450 O453 1.715 . S
Fe450 O460 1.935 . S
Fe450 O461 2.077 . S
Fe450 O467 1.935 1_455 S
Fe450 O476 2.077 1_455 S
Fe451 O449 1.715 . S
Fe451 O454 1.886 . S
Fe451 O458 1.935 . S
Fe451 O463 2.077 . S
Fe451 O469 1.944 . S
Fe451 O473 2.077 . S
O452 Fe448 1.715 . S
O452 Fe450 1.886 . S
O453 Fe450 1.715 . S
O453 Fe455 1.886 . S
O454 Fe451 1.886 . S
O454 Fe455 1.715 . S
Fe455 O453 1.886 . S
Fe455 O454 1.715 . S
Fe455 O459 2.077 . S
Fe455 O464 1.935 . S
Fe455 O466 2.077 . S
Fe455 O474 1.935 . S
C456 O468 1.381 . S
C456 O469 1.419 1_655 S
O457 Fe448 2.077 . S
O457 C470 1.381 . S
O458 Fe451 1.935 . S
O458 C470 1.421 . S
O459 Fe455 2.077 . S
O459 C475 1.381 . S
O460 Fe450 1.935 . S
O460 C475 1.421 . S
O461 Fe450 2.077 . S
O461 C465 1.381 . S
O462 Fe448 1.935 . S
O462 C465 1.421 . S
O463 Fe451 2.077 . S
O463 C471 1.381 . S
O464 Fe455 1.935 . S
O464 C471 1.421 . S
C465 O461 1.381 . S
C465 O462 1.421 . S
O466 Fe455 2.077 . S
O466 C478 1.381 1_455 S
O467 Fe450 1.935 1_655 S
O467 C478 1.421 . S
O468 Fe448 2.077 1_655 S
O468 C456 1.381 . S
O469 Fe451 1.944 . S
O469 C456 1.419 1_455 S
C470 O457 1.381 . S
C470 O458 1.421 . S
C471 O463 1.381 . S
C471 O464 1.421 . S
C472 O473 1.381 1_655 S
C472 O474 1.421 1_655 S
O473 Fe451 2.077 . S
O473 C472 1.381 1_455 S
O474 Fe455 1.935 . S
O474 C472 1.421 1_455 S
C475 O459 1.381 . S
C475 O460 1.421 . S
O476 Fe450 2.077 1_655 S
O476 C479 1.381 . S
O477 Fe448 1.935 1_655 S
O477 C479 1.421 . S
C478 O466 1.381 1_655 S
C478 O467 1.421 . S
C479 O476 1.381 . S
C479 O477 1.421 . S
Fe480 O481 1.886 . S
Fe480 O484 1.715 . S
Fe480 O489 2.077 . S
Fe480 O494 1.935 . S
Fe480 O500 2.077 . S
Fe480 O509 1.935 . S
O481 Fe480 1.886 . S
O481 Fe483 1.715 1_565 S
Fe482 O484 1.886 . S
Fe482 O485 1.715 1_565 S
Fe482 O492 1.935 1_565 S
Fe482 O493 2.077 . S
Fe482 O499 1.935 1_565 S
Fe482 O508 2.077 . S
Fe483 O481 1.715 1_545 S
Fe483 O486 1.886 . S
Fe483 O490 1.935 1_545 S
Fe483 O495 2.077 . S
Fe483 O501 1.935 1_545 S
Fe483 O505 2.077 . S
O484 Fe480 1.715 . S
O484 Fe482 1.886 . S
O485 Fe482 1.715 1_545 S
O485 Fe487 1.886 . S
O486 Fe483 1.886 . S
O486 Fe487 1.715 . S
Fe487 O485 1.886 . S
Fe487 O486 1.715 . S
Fe487 O491 2.077 . S
Fe487 O496 1.935 . S
Fe487 O498 2.077 . S
Fe487 O506 1.935 . S
C488 O500 1.381 . S
C488 O501 1.421 . S
O489 Fe480 2.077 . S
O489 C502 1.381 . S
O490 Fe483 1.935 1_565 S
O490 C502 1.421 . S
O491 Fe487 2.077 . S
O491 C507 1.381 . S
O492 Fe482 1.935 1_545 S
O492 C507 1.421 . S
O493 Fe482 2.077 . S
O493 C497 1.381 . S
O494 Fe480 1.935 . S
O494 C497 1.421 . S
O495 Fe483 2.077 . S
O495 C503 1.381 . S
O496 Fe487 1.935 . S
O496 C503 1.421 . S
C497 O493 1.381 . S
C497 O494 1.421 . S
O498 Fe487 2.077 . S
O498 C510 1.381 . S
O499 Fe482 1.935 1_545 S
O499 C510 1.421 . S
O500 Fe480 2.077 . S
O500 C488 1.381 . S
O501 Fe483 1.935 1_565 S
O501 C488 1.421 . S
C502 O489 1.381 . S
C502 O490 1.421 . S
C503 O495 1.381 . S
C503 O496 1.421 . S
C504 O505 1.381 . S
C504 O506 1.421 . S
O505 Fe483 2.077 . S
O505 C504 1.381 . S
O506 Fe487 1.935 . S
O506 C504 1.421 . S
C507 O491 1.381 . S
C507 O492 1.421 . S
O508 Fe482 2.077 . S
O508 C511 1.381 . S
O509 Fe480 1.935 . S
O509 C511 1.421 . S
C510 O498 1.381 . S
C510 O499 1.421 . S
C511 O508 1.381 . S
C511 O509 1.421 . S
C512 C513 1.391 . S
C512 C514 1.394 . S
C512 H528 0.931 . S
C513 C512 1.391 . S
C513 C517 1.376 . S
C514 C512 1.394 . S
C514 C515 1.369 . S
C514 C518 1.531 . S
C515 C514 1.369 . S
C515 C516 1.410 . S
C515 C523 1.503 . S
C516 C515 1.410 . S
C516 C517 1.392 . S
C516 C519 1.511 . S
C517 C513 1.376 . S
C517 C516 1.392 . S
C517 H529 0.929 . S
C518 C514 1.531 . S
C518 H530 0.960 . S
C518 H531 0.962 . S
C518 H532 0.960 . S
C519 C516 1.511 . S
C519 H533 0.961 . S
C519 H534 0.961 . S
C519 H535 0.961 . S
C520 C521 1.370 . S
C520 C522 1.363 . S
C520 H536 0.931 . S
C521 C520 1.370 . S
C521 C525 1.408 . S
C522 C520 1.363 . S
C522 C523 1.370 . S
C522 C526 1.524 . S
C523 C515 1.503 . S
C523 C522 1.370 . S
C523 C524 1.403 . S
C524 C523 1.403 . S
C524 C525 1.404 . S
C524 C527 1.539 . S
C525 C521 1.408 . S
C525 C524 1.404 . S
C525 H537 0.930 . S
C526 C522 1.524 . S
C526 H538 0.956 . S
C526 H539 0.961 . S
C526 H540 0.961 . S
C527 C524 1.539 . S
C527 H541 0.958 . S
C527 H542 0.961 . S
C527 H543 0.960 . S
H528 C512 0.931 . S
H529 C517 0.929 . S
H530 C518 0.960 . S
H531 C518 0.962 . S
H532 C518 0.960 . S
H533 C519 0.961 . S
H534 C519 0.961 . S
H535 C519 0.961 . S
H536 C520 0.931 . S
H537 C525 0.930 . S
H538 C526 0.956 . S
H539 C526 0.961 . S
H540 C526 0.961 . S
H541 C527 0.958 . S
H542 C527 0.961 . S
H543 C527 0.960 . S
C544 C545 1.391 . S
C544 C546 1.394 . S
C544 H560 0.931 . S
C545 C544 1.391 . S
C545 C549 1.376 . S
C546 C544 1.394 . S
C546 C547 1.369 . S
C546 C550 1.531 . S
C547 C546 1.369 . S
C547 C548 1.410 . S
C547 C555 1.503 . S
C548 C547 1.410 . S
C548 C549 1.392 . S
C548 C551 1.511 . S
C549 C545 1.376 . S
C549 C548 1.392 . S
C549 H561 0.929 . S
C550 C546 1.531 . S
C550 H562 0.960 . S
C550 H563 0.962 . S
C550 H564 0.960 . S
C551 C548 1.511 . S
C551 H565 0.961 . S
C551 H566 0.961 . S
C551 H567 0.961 . S
C552 C553 1.370 . S
C552 C554 1.363 . S
C552 H568 0.931 . S
C553 C552 1.370 . S
C553 C557 1.408 . S
C554 C552 1.363 . S
C554 C555 1.370 . S
C554 C558 1.524 . S
C555 C547 1.503 . S
C555 C554 1.370 . S
C555 C556 1.403 . S
C556 C555 1.403 . S
C556 C557 1.404 . S
C556 C559 1.539 . S
C557 C553 1.408 . S
C557 C556 1.404 . S
C557 H569 0.930 . S
C558 C554 1.524 . S
C558 H570 0.956 . S
C558 H571 0.961 . S
C558 H572 0.961 . S
C559 C556 1.539 . S
C559 H573 0.958 . S
C559 H574 0.961 . S
C559 H575 0.960 . S
H560 C544 0.931 . S
H561 C549 0.929 . S
H562 C550 0.960 . S
H563 C550 0.962 . S
H564 C550 0.960 . S
H565 C551 0.961 . S
H566 C551 0.961 . S
H567 C551 0.961 . S
H568 C552 0.931 . S
H569 C557 0.930 . S
H570 C558 0.956 . S
H571 C558 0.961 . S
H572 C558 0.961 . S
H573 C559 0.958 . S
H574 C559 0.961 . S
H575 C559 0.960 . S
C576 C577 1.391 . S
C576 C578 1.394 . S
C576 H592 0.931 . S
C577 C576 1.391 . S
C577 C581 1.376 . S
C578 C576 1.394 . S
C578 C579 1.369 . S
C578 C582 1.531 . S
C579 C578 1.369 . S
C579 C580 1.410 . S
C579 C587 1.503 . S
C580 C579 1.410 . S
C580 C581 1.392 . S
C580 C583 1.511 . S
C581 C577 1.376 . S
C581 C580 1.392 . S
C581 H593 0.929 . S
C582 C578 1.531 . S
C582 H594 0.960 . S
C582 H595 0.962 . S
C582 H596 0.960 . S
C583 C580 1.511 . S
C583 H597 0.961 . S
C583 H598 0.961 . S
C583 H599 0.961 . S
C584 C585 1.370 . S
C584 C586 1.363 . S
C584 H600 0.931 . S
C585 C584 1.370 . S
C585 C589 1.408 . S
C586 C584 1.363 . S
C586 C587 1.370 . S
C586 C590 1.524 . S
C587 C579 1.503 . S
C587 C586 1.370 . S
C587 C588 1.403 . S
C588 C587 1.403 . S
C588 C589 1.404 . S
C588 C591 1.539 . S
C589 C585 1.408 . S
C589 C588 1.404 . S
C589 H601 0.930 . S
C590 C586 1.524 . S
C590 H602 0.956 . S
C590 H603 0.961 . S
C590 H604 0.961 . S
C591 C588 1.539 . S
C591 H605 0.958 . S
C591 H606 0.961 . S
C591 H607 0.960 . S
H592 C576 0.931 . S
H593 C581 0.929 . S
H594 C582 0.960 . S
H595 C582 0.962 . S
H596 C582 0.960 . S
H597 C583 0.961 . S
H598 C583 0.961 . S
H599 C583 0.961 . S
H600 C584 0.931 . S
H601 C589 0.930 . S
H602 C590 0.956 . S
H603 C590 0.961 . S
H604 C590 0.961 . S
H605 C591 0.958 . S
H606 C591 0.961 . S
H607 C591 0.960 . S
C608 C609 1.391 . S
C608 C610 1.394 . S
C608 H624 0.931 . S
C609 C608 1.391 . S
C609 C613 1.376 . S
C610 C608 1.394 . S
C610 C611 1.369 . S
C610 C614 1.531 . S
C611 C610 1.369 . S
C611 C612 1.410 . S
C611 C619 1.503 . S
C612 C611 1.410 . S
C612 C613 1.392 . S
C612 C615 1.511 . S
C613 C609 1.376 . S
C613 C612 1.392 . S
C613 H625 0.929 . S
C614 C610 1.531 . S
C614 H626 0.960 . S
C614 H627 0.962 . S
C614 H628 0.960 . S
C615 C612 1.511 . S
C615 H629 0.961 . S
C615 H630 0.961 . S
C615 H631 0.961 . S
C616 C617 1.370 . S
C616 C618 1.363 . S
C616 H632 0.931 . S
C617 C616 1.370 . S
C617 C621 1.408 . S
C618 C616 1.363 . S
C618 C619 1.370 . S
C618 C622 1.524 . S
C619 C611 1.503 . S
C619 C618 1.370 . S
C619 C620 1.403 . S
C620 C619 1.403 . S
C620 C621 1.404 . S
C620 C623 1.539 . S
C621 C617 1.408 . S
C621 C620 1.404 . S
C621 H633 0.930 . S
C622 C618 1.524 . S
C622 H634 0.956 . S
C622 H635 0.961 . S
C622 H636 0.961 . S
C623 C620 1.539 . S
C623 H637 0.958 . S
C623 H638 0.961 . S
C623 H639 0.960 . S
H624 C608 0.931 . S
H625 C613 0.929 . S
H626 C614 0.960 . S
H627 C614 0.962 . S
H628 C614 0.960 . S
H629 C615 0.961 . S
H630 C615 0.961 . S
H631 C615 0.961 . S
H632 C616 0.931 . S
H633 C621 0.930 . S
H634 C622 0.956 . S
H635 C622 0.961 . S
H636 C622 0.961 . S
H637 C623 0.958 . S
H638 C623 0.961 . S
H639 C623 0.960 . S
C640 C641 1.391 . S
C640 C642 1.394 . S
C640 H656 0.931 . S
C641 C640 1.391 . S
C641 C645 1.376 . S
C642 C640 1.394 . S
C642 C643 1.369 . S
C642 C646 1.531 . S
C643 C642 1.369 . S
C643 C644 1.410 . S
C643 C651 1.503 . S
C644 C643 1.410 . S
C644 C645 1.392 . S
C644 C647 1.511 . S
C645 C641 1.376 . S
C645 C644 1.392 . S
C645 H657 0.929 . S
C646 C642 1.531 . S
C646 H658 0.960 . S
C646 H659 0.962 . S
C646 H660 0.960 . S
C647 C644 1.511 . S
C647 H661 0.961 . S
C647 H662 0.961 . S
C647 H663 0.961 . S
C648 C649 1.370 . S
C648 C650 1.363 . S
C648 H664 0.931 . S
C649 C648 1.370 . S
C649 C653 1.408 . S
C650 C648 1.363 . S
C650 C651 1.370 . S
C650 C654 1.524 . S
C651 C643 1.503 . S
C651 C650 1.370 . S
C651 C652 1.403 . S
C652 C651 1.403 . S
C652 C653 1.404 . S
C652 C655 1.539 . S
C653 C649 1.408 . S
C653 C652 1.404 . S
C653 H665 0.930 . S
C654 C650 1.524 . S
C654 H666 0.956 . S
C654 H667 0.961 . S
C654 H668 0.961 . S
C655 C652 1.539 . S
C655 H669 0.958 . S
C655 H670 0.961 . S
C655 H671 0.960 . S
H656 C640 0.931 . S
H657 C645 0.929 . S
H658 C646 0.960 . S
H659 C646 0.962 . S
H660 C646 0.960 . S
H661 C647 0.961 . S
H662 C647 0.961 . S
H663 C647 0.961 . S
H664 C648 0.931 . S
H665 C653 0.930 . S
H666 C654 0.956 . S
H667 C654 0.961 . S
H668 C654 0.961 . S
H669 C655 0.958 . S
H670 C655 0.961 . S
H671 C655 0.960 . S
C672 C673 1.391 . S
C672 C674 1.394 . S
C672 H688 0.931 . S
C673 C672 1.391 . S
C673 C677 1.376 . S
C674 C672 1.394 . S
C674 C675 1.369 . S
C674 C678 1.531 . S
C675 C674 1.369 . S
C675 C676 1.410 . S
C675 C683 1.503 . S
C676 C675 1.410 . S
C676 C677 1.392 . S
C676 C679 1.511 . S
C677 C673 1.376 . S
C677 C676 1.392 . S
C677 H689 0.929 . S
C678 C674 1.531 . S
C678 H690 0.960 . S
C678 H691 0.962 . S
C678 H692 0.960 . S
C679 C676 1.511 . S
C679 H693 0.961 . S
C679 H694 0.961 . S
C679 H695 0.961 . S
C680 C681 1.370 . S
C680 C682 1.363 . S
C680 H696 0.931 . S
C681 C680 1.370 . S
C681 C685 1.408 . S
C682 C680 1.363 . S
C682 C683 1.370 . S
C682 C686 1.524 . S
C683 C675 1.503 . S
C683 C682 1.370 . S
C683 C684 1.403 . S
C684 C683 1.403 . S
C684 C685 1.404 . S
C684 C687 1.539 . S
C685 C681 1.408 . S
C685 C684 1.404 . S
C685 H697 0.930 . S
C686 C682 1.524 . S
C686 H698 0.956 . S
C686 H699 0.961 . S
C686 H700 0.961 . S
C687 C684 1.539 . S
C687 H701 0.958 . S
C687 H702 0.961 . S
C687 H703 0.960 . S
H688 C672 0.931 . S
H689 C677 0.929 . S
H690 C678 0.960 . S
H691 C678 0.962 . S
H692 C678 0.960 . S
H693 C679 0.961 . S
H694 C679 0.961 . S
H695 C679 0.961 . S
H696 C680 0.931 . S
H697 C685 0.930 . S
H698 C686 0.956 . S
H699 C686 0.961 . S
H700 C686 0.961 . S
H701 C687 0.958 . S
H702 C687 0.961 . S
H703 C687 0.960 . S
C704 C705 1.391 . S
C704 C706 1.394 . S
C704 H720 0.931 . S
C705 C704 1.391 . S
C705 C709 1.376 . S
C706 C704 1.394 . S
C706 C707 1.369 . S
C706 C710 1.527 . S
C707 C706 1.369 . S
C707 C708 1.410 . S
C707 C715 1.503 . S
C708 C707 1.410 . S
C708 C709 1.392 . S
C708 C711 1.511 . S
C709 C705 1.376 . S
C709 C708 1.392 . S
C709 H721 0.929 . S
C710 C706 1.527 . S
C710 H722 0.961 1_655 S
C710 H723 0.963 1_655 S
C710 H724 0.962 1_655 S
C711 C708 1.511 . S
C711 H725 0.961 . S
C711 H726 0.961 . S
C711 H727 0.961 . S
C712 C713 1.370 . S
C712 C714 1.363 . S
C712 H728 0.931 . S
C713 C712 1.370 . S
C713 C717 1.408 . S
C714 C712 1.363 . S
C714 C715 1.370 . S
C714 C718 1.524 . S
C715 C707 1.503 . S
C715 C714 1.370 . S
C715 C716 1.403 . S
C716 C715 1.403 . S
C716 C717 1.404 . S
C716 C719 1.539 . S
C717 C713 1.408 . S
C717 C716 1.404 . S
C717 H729 0.930 . S
C718 C714 1.524 . S
C718 H730 0.956 . S
C718 H731 0.961 . S
C718 H732 0.961 . S
C719 C716 1.539 . S
C719 H733 0.958 . S
C719 H734 0.961 . S
C719 H735 0.960 . S
H720 C704 0.931 . S
H721 C709 0.929 . S
H722 C710 0.961 1_455 S
H723 C710 0.963 1_455 S
H724 C710 0.962 1_455 S
H725 C711 0.961 . S
H726 C711 0.961 . S
H727 C711 0.961 . S
H728 C712 0.931 . S
H729 C717 0.930 . S
H730 C718 0.956 . S
H731 C718 0.961 . S
H732 C718 0.961 . S
H733 C719 0.958 . S
H734 C719 0.961 . S
H735 C719 0.960 . S
C736 C737 1.391 . S
C736 C738 1.394 . S
C736 H752 0.931 . S
C737 C736 1.391 . S
C737 C741 1.376 . S
C738 C736 1.394 . S
C738 C739 1.369 . S
C738 C742 1.531 . S
C739 C738 1.369 . S
C739 C740 1.410 . S
C739 C747 1.503 . S
C740 C739 1.410 . S
C740 C741 1.392 . S
C740 C743 1.511 . S
C741 C737 1.376 . S
C741 C740 1.392 . S
C741 H753 0.929 . S
C742 C738 1.531 . S
C742 H754 0.960 . S
C742 H755 0.962 . S
C742 H756 0.960 . S
C743 C740 1.511 . S
C743 H757 0.961 . S
C743 H758 0.961 . S
C743 H759 0.961 . S
C744 C745 1.370 . S
C744 C746 1.363 . S
C744 H760 0.931 . S
C745 C744 1.370 . S
C745 C749 1.408 . S
C746 C744 1.363 . S
C746 C747 1.370 . S
C746 C750 1.524 . S
C747 C739 1.503 . S
C747 C746 1.370 . S
C747 C748 1.403 . S
C748 C747 1.403 . S
C748 C749 1.404 . S
C748 C751 1.539 . S
C749 C745 1.408 . S
C749 C748 1.404 . S
C749 H761 0.930 . S
C750 C746 1.524 . S
C750 H762 0.956 . S
C750 H763 0.961 . S
C750 H764 0.961 . S
C751 C748 1.539 . S
C751 H765 0.958 . S
C751 H766 0.961 . S
C751 H767 0.960 . S
H752 C736 0.931 . S
H753 C741 0.929 . S
H754 C742 0.960 . S
H755 C742 0.962 . S
H756 C742 0.960 . S
H757 C743 0.961 . S
H758 C743 0.961 . S
H759 C743 0.961 . S
H760 C744 0.931 . S
H761 C749 0.930 . S
H762 C750 0.956 . S
H763 C750 0.961 . S
H764 C750 0.961 . S
H765 C751 0.958 . S
H766 C751 0.961 . S
H767 C751 0.960 . S
C768 C769 1.391 . S
C768 C770 1.394 . S
C768 H784 0.931 . S
C769 C768 1.391 . S
C769 C773 1.376 . S
C770 C768 1.394 . S
C770 C771 1.369 . S
C770 C774 1.531 . S
C771 C770 1.369 . S
C771 C772 1.410 . S
C771 C779 1.503 . S
C772 C771 1.410 . S
C772 C773 1.392 . S
C772 C775 1.511 . S
C773 C769 1.376 . S
C773 C772 1.392 . S
C773 H785 0.929 . S
C774 C770 1.531 . S
C774 H786 0.960 . S
C774 H787 0.962 . S
C774 H788 0.960 . S
C775 C772 1.511 . S
C775 H789 0.961 . S
C775 H790 0.961 . S
C775 H791 0.961 . S
C776 C777 1.370 . S
C776 C778 1.363 . S
C776 H792 0.931 . S
C777 C776 1.370 . S
C777 C781 1.408 . S
C778 C776 1.363 . S
C778 C779 1.370 . S
C778 C782 1.524 . S
C779 C771 1.503 . S
C779 C778 1.370 . S
C779 C780 1.403 . S
C780 C779 1.403 . S
C780 C781 1.404 . S
C780 C783 1.539 . S
C781 C777 1.408 . S
C781 C780 1.404 . S
C781 H793 0.930 . S
C782 C778 1.524 . S
C782 H794 0.956 . S
C782 H795 0.961 . S
C782 H796 0.961 . S
C783 C780 1.539 . S
C783 H797 0.958 . S
C783 H798 0.961 . S
C783 H799 0.960 . S
H784 C768 0.931 . S
H785 C773 0.929 . S
H786 C774 0.960 . S
H787 C774 0.962 . S
H788 C774 0.960 . S
H789 C775 0.961 . S
H790 C775 0.961 . S
H791 C775 0.961 . S
H792 C776 0.931 . S
H793 C781 0.930 . S
H794 C782 0.956 . S
H795 C782 0.961 . S
H796 C782 0.961 . S
H797 C783 0.958 . S
H798 C783 0.961 . S
H799 C783 0.960 . S
C800 C801 1.391 . S
C800 C802 1.394 . S
C800 H816 0.931 . S
C801 C800 1.391 . S
C801 C805 1.376 . S
C802 C800 1.394 . S
C802 C803 1.369 . S
C802 C806 1.531 . S
C803 C802 1.369 . S
C803 C804 1.410 . S
C803 C811 1.503 . S
C804 C803 1.410 . S
C804 C805 1.392 . S
C804 C807 1.511 . S
C805 C801 1.376 . S
C805 C804 1.392 . S
C805 H817 0.929 . S
C806 C802 1.531 . S
C806 H818 0.960 . S
C806 H819 0.962 . S
C806 H820 0.960 . S
C807 C804 1.511 . S
C807 H821 0.961 . S
C807 H822 0.961 . S
C807 H823 0.961 . S
C808 C809 1.370 . S
C808 C810 1.363 . S
C808 H824 0.931 . S
C809 C808 1.370 . S
C809 C813 1.408 . S
C810 C808 1.363 . S
C810 C811 1.370 . S
C810 C814 1.524 . S
C811 C803 1.503 . S
C811 C810 1.370 . S
C811 C812 1.403 . S
C812 C811 1.403 . S
C812 C813 1.404 . S
C812 C815 1.539 . S
C813 C809 1.408 . S
C813 C812 1.404 . S
C813 H825 0.930 . S
C814 C810 1.524 . S
C814 H826 0.956 . S
C814 H827 0.961 . S
C814 H828 0.961 . S
C815 C812 1.539 . S
C815 H829 0.958 . S
C815 H830 0.961 . S
C815 H831 0.960 . S
H816 C800 0.931 . S
H817 C805 0.929 . S
H818 C806 0.960 . S
H819 C806 0.962 . S
H820 C806 0.960 . S
H821 C807 0.961 . S
H822 C807 0.961 . S
H823 C807 0.961 . S
H824 C808 0.931 . S
H825 C813 0.930 . S
H826 C814 0.956 . S
H827 C814 0.961 . S
H828 C814 0.961 . S
H829 C815 0.958 . S
H830 C815 0.961 . S
H831 C815 0.960 . S
C832 C833 1.391 . S
C832 C834 1.394 . S
C832 H848 0.931 . S
C833 C832 1.391 . S
C833 C837 1.376 . S
C834 C832 1.394 . S
C834 C835 1.369 . S
C834 C838 1.531 . S
C835 C834 1.369 . S
C835 C836 1.410 . S
C835 C843 1.503 . S
C836 C835 1.410 . S
C836 C837 1.392 . S
C836 C839 1.511 . S
C837 C833 1.376 . S
C837 C836 1.392 . S
C837 H849 0.929 . S
C838 C834 1.531 . S
C838 H850 0.960 . S
C838 H851 0.962 . S
C838 H852 0.960 . S
C839 C836 1.511 . S
C839 H853 0.961 . S
C839 H854 0.961 . S
C839 H855 0.961 . S
C840 C841 1.370 . S
C840 C842 1.363 . S
C840 H856 0.931 1_565 S
C841 C840 1.370 . S
C841 C845 1.408 . S
C842 C840 1.363 . S
C842 C843 1.370 . S
C842 C846 1.521 1_565 S
C843 C835 1.503 . S
C843 C842 1.370 . S
C843 C844 1.403 . S
C844 C843 1.403 . S
C844 C845 1.404 . S
C844 C847 1.539 . S
C845 C841 1.408 . S
C845 C844 1.404 . S
C845 H857 0.930 . S
C846 C842 1.521 1_545 S
C846 H858 0.951 1_545 S
C846 H859 0.959 1_545 S
C846 H860 0.971 . S
C847 C844 1.539 . S
C847 H861 0.958 . S
C847 H862 0.961 . S
C847 H863 0.960 . S
H848 C832 0.931 . S
H849 C837 0.929 . S
H850 C838 0.960 . S
H851 C838 0.962 . S
H852 C838 0.960 . S
H853 C839 0.961 . S
H854 C839 0.961 . S
H855 C839 0.961 . S
H856 C840 0.931 1_545 S
H857 C845 0.930 . S
H858 C846 0.951 1_565 S
H859 C846 0.959 1_565 S
H860 C846 0.971 . S
H861 C847 0.958 . S
H862 C847 0.961 . S
H863 C847 0.960 . S
C864 C865 1.391 . S
C864 C866 1.394 . S
C864 H880 0.931 . S
C865 C864 1.391 . S
C865 C869 1.376 . S
C866 C864 1.394 . S
C866 C867 1.369 . S
C866 C870 1.531 . S
C867 C866 1.369 . S
C867 C868 1.410 . S
C867 C875 1.503 . S
C868 C867 1.410 . S
C868 C869 1.392 . S
C868 C871 1.511 . S
C869 C865 1.376 . S
C869 C868 1.392 . S
C869 H881 0.929 . S
C870 C866 1.531 . S
C870 H882 0.960 . S
C870 H883 0.962 . S
C870 H884 0.960 . S
C871 C868 1.511 . S
C871 H885 0.961 . S
C871 H886 0.961 . S
C871 H887 0.961 . S
C872 C873 1.370 . S
C872 C874 1.363 . S
C872 H888 0.931 . S
C873 C872 1.370 . S
C873 C877 1.408 . S
C874 C872 1.363 . S
C874 C875 1.370 . S
C874 C878 1.524 . S
C875 C867 1.503 . S
C875 C874 1.370 . S
C875 C876 1.403 . S
C876 C875 1.403 . S
C876 C877 1.404 . S
C876 C879 1.539 . S
C877 C873 1.408 . S
C877 C876 1.404 . S
C877 H889 0.930 . S
C878 C874 1.524 . S
C878 H890 0.956 . S
C878 H891 0.961 . S
C878 H892 0.961 . S
C879 C876 1.539 . S
C879 H893 0.958 . S
C879 H894 0.961 . S
C879 H895 0.960 . S
H880 C864 0.931 . S
H881 C869 0.929 . S
H882 C870 0.960 . S
H883 C870 0.962 . S
H884 C870 0.960 . S
H885 C871 0.961 . S
H886 C871 0.961 . S
H887 C871 0.961 . S
H888 C872 0.931 . S
H889 C877 0.930 . S
H890 C878 0.956 . S
H891 C878 0.961 . S
H892 C878 0.961 . S
H893 C879 0.958 . S
H894 C879 0.961 . S
H895 C879 0.960 . S
C896 C897 1.391 . S
C896 C898 1.394 . S
C896 H912 0.931 . S
C897 C896 1.391 . S
C897 C901 1.376 . S
C898 C896 1.394 . S
C898 C899 1.369 . S
C898 C902 1.531 . S
C899 C898 1.369 . S
C899 C900 1.410 . S
C899 C907 1.503 . S
C900 C899 1.410 . S
C900 C901 1.392 . S
C900 C903 1.511 . S
C901 C897 1.376 . S
C901 C900 1.392 . S
C901 H913 0.929 . S
C902 C898 1.531 . S
C902 H914 0.960 . S
C902 H915 0.962 . S
C902 H916 0.960 . S
C903 C900 1.511 . S
C903 H917 0.961 . S
C903 H918 0.961 . S
C903 H919 0.961 . S
C904 C905 1.370 . S
C904 C906 1.363 . S
C904 H920 0.931 . S
C905 C904 1.370 . S
C905 C909 1.408 . S
C906 C904 1.363 . S
C906 C907 1.370 . S
C906 C910 1.524 . S
C907 C899 1.503 . S
C907 C906 1.370 . S
C907 C908 1.403 . S
C908 C907 1.403 . S
C908 C909 1.404 . S
C908 C911 1.539 . S
C909 C905 1.408 . S
C909 C908 1.404 . S
C909 H921 0.930 . S
C910 C906 1.524 . S
C910 H922 0.956 . S
C910 H923 0.961 . S
C910 H924 0.961 . S
C911 C908 1.539 . S
C911 H925 0.958 . S
C911 H926 0.961 . S
C911 H927 0.960 . S
H912 C896 0.931 . S
H913 C901 0.929 . S
H914 C902 0.960 . S
H915 C902 0.962 . S
H916 C902 0.960 . S
H917 C903 0.961 . S
H918 C903 0.961 . S
H919 C903 0.961 . S
H920 C904 0.931 . S
H921 C909 0.930 . S
H922 C910 0.956 . S
H923 C910 0.961 . S
H924 C910 0.961 . S
H925 C911 0.958 . S
H926 C911 0.961 . S
H927 C911 0.960 . S
C928 C929 1.391 . S
C928 C930 1.394 . S
C928 H944 0.931 . S
C929 C928 1.391 . S
C929 C933 1.376 . S
C930 C928 1.394 . S
C930 C931 1.369 . S
C930 C934 1.531 . S
C931 C930 1.369 . S
C931 C932 1.410 . S
C931 C939 1.503 . S
C932 C931 1.410 . S
C932 C933 1.392 . S
C932 C935 1.511 . S
C933 C929 1.376 . S
C933 C932 1.392 . S
C933 H945 0.929 . S
C934 C930 1.531 . S
C934 H946 0.960 . S
C934 H947 0.962 . S
C934 H948 0.960 . S
C935 C932 1.511 . S
C935 H949 0.961 . S
C935 H950 0.961 . S
C935 H951 0.961 . S
C936 C937 1.370 . S
C936 C938 1.363 . S
C936 H952 0.931 . S
C937 C936 1.370 . S
C937 C941 1.408 . S
C938 C936 1.363 . S
C938 C939 1.370 . S
C938 C942 1.524 . S
C939 C931 1.503 . S
C939 C938 1.370 . S
C939 C940 1.403 . S
C940 C939 1.403 . S
C940 C941 1.404 . S
C940 C943 1.539 . S
C941 C937 1.408 . S
C941 C940 1.404 . S
C941 H953 0.930 . S
C942 C938 1.524 . S
C942 H954 0.956 . S
C942 H955 0.961 . S
C942 H956 0.961 . S
C943 C940 1.539 . S
C943 H957 0.958 . S
C943 H958 0.961 1_455 S
C943 H959 0.960 . S
H944 C928 0.931 . S
H945 C933 0.929 . S
H946 C934 0.960 . S
H947 C934 0.962 . S
H948 C934 0.960 . S
H949 C935 0.961 . S
H950 C935 0.961 . S
H951 C935 0.961 . S
H952 C936 0.931 . S
H953 C941 0.930 . S
H954 C942 0.956 . S
H955 C942 0.961 . S
H956 C942 0.961 . S
H957 C943 0.958 . S
H958 C943 0.961 1_655 S
H959 C943 0.960 . S
C960 C961 1.391 . S
C960 C962 1.394 . S
C960 H976 0.931 . S
C961 C960 1.391 . S
C961 C965 1.376 . S
C962 C960 1.394 . S
C962 C963 1.369 . S
C962 C966 1.531 . S
C963 C962 1.369 . S
C963 C964 1.410 . S
C963 C971 1.503 . S
C964 C963 1.410 . S
C964 C965 1.392 . S
C964 C967 1.511 . S
C965 C961 1.376 . S
C965 C964 1.392 . S
C965 H977 0.929 . S
C966 C962 1.531 . S
C966 H978 0.960 . S
C966 H979 0.962 . S
C966 H980 0.960 . S
C967 C964 1.511 . S
C967 H981 0.961 . S
C967 H982 0.961 . S
C967 H983 0.961 . S
C968 C969 1.370 . S
C968 C970 1.363 . S
C968 H984 0.931 . S
C969 C968 1.370 . S
C969 C973 1.408 . S
C970 C968 1.363 . S
C970 C971 1.370 . S
C970 C974 1.524 . S
C971 C963 1.503 . S
C971 C970 1.370 . S
C971 C972 1.403 . S
C972 C971 1.403 . S
C972 C973 1.404 . S
C972 C975 1.539 . S
C973 C969 1.408 . S
C973 C972 1.404 . S
C973 H985 0.930 . S
C974 C970 1.524 . S
C974 H986 0.956 . S
C974 H987 0.961 . S
C974 H988 0.961 . S
C975 C972 1.539 . S
C975 H989 0.958 . S
C975 H990 0.961 . S
C975 H991 0.960 . S
H976 C960 0.931 . S
H977 C965 0.929 . S
H978 C966 0.960 . S
H979 C966 0.962 . S
H980 C966 0.960 . S
H981 C967 0.961 . S
H982 C967 0.961 . S
H983 C967 0.961 . S
H984 C968 0.931 . S
H985 C973 0.930 . S
H986 C974 0.956 . S
H987 C974 0.961 . S
H988 C974 0.961 . S
H989 C975 0.958 . S
H990 C975 0.961 . S
H991 C975 0.960 . S
C992 C993 1.391 . S
C992 C994 1.394 . S
C992 H1008 0.931 . S
C993 C992 1.391 . S
C993 C997 1.376 . S
C994 C992 1.394 . S
C994 C995 1.369 . S
C994 C998 1.531 . S
C995 C994 1.369 . S
C995 C996 1.410 . S
C995 C1003 1.503 . S
C996 C995 1.410 . S
C996 C997 1.392 . S
C996 C999 1.511 . S
C997 C993 1.376 . S
C997 C996 1.392 . S
C997 H1009 0.929 . S
C998 C994 1.531 . S
C998 H1010 0.960 . S
C998 H1011 0.962 . S
C998 H1012 0.960 . S
C999 C996 1.511 . S
C999 H1013 0.961 . S
C999 H1014 0.961 . S
C999 H1015 0.961 . S
C1000 C1001 1.370 1_554 S
C1000 C1002 1.363 1_554 S
C1000 H1016 0.931 . S
C1001 C1000 1.370 1_556 S
C1001 C1005 1.408 . S
C1002 C1000 1.363 1_556 S
C1002 C1003 1.370 . S
C1002 C1006 1.524 1_556 S
C1003 C995 1.503 . S
C1003 C1002 1.370 . S
C1003 C1004 1.403 . S
C1004 C1003 1.403 . S
C1004 C1005 1.404 . S
C1004 C1007 1.539 . S
C1005 C1001 1.408 . S
C1005 C1004 1.404 . S
C1005 H1017 0.930 . S
C1006 C1002 1.524 1_554 S
C1006 H1018 0.956 . S
C1006 H1019 0.961 . S
C1006 H1020 0.961 . S
C1007 C1004 1.539 . S
C1007 H1021 0.958 . S
C1007 H1022 0.961 . S
C1007 H1023 0.960 . S
H1008 C992 0.931 . S
H1009 C997 0.929 . S
H1010 C998 0.960 . S
H1011 C998 0.962 . S
H1012 C998 0.960 . S
H1013 C999 0.961 . S
H1014 C999 0.961 . S
H1015 C999 0.961 . S
H1016 C1000 0.931 . S
H1017 C1005 0.930 . S
H1018 C1006 0.956 . S
H1019 C1006 0.961 . S
H1020 C1006 0.961 . S
H1021 C1007 0.958 . S
H1022 C1007 0.961 . S
H1023 C1007 0.960 . S
C1024 C1025 1.391 . S
C1024 C1026 1.394 . S
C1024 H1040 0.931 . S
C1025 C1024 1.391 . S
C1025 C1029 1.376 . S
C1026 C1024 1.394 . S
C1026 C1027 1.369 . S
C1026 C1030 1.531 . S
C1027 C1026 1.369 . S
C1027 C1028 1.410 . S
C1027 C1035 1.503 . S
C1028 C1027 1.410 . S
C1028 C1029 1.392 . S
C1028 C1031 1.511 . S
C1029 C1025 1.376 . S
C1029 C1028 1.392 . S
C1029 H1041 0.929 . S
C1030 C1026 1.531 . S
C1030 H1042 0.960 . S
C1030 H1043 0.962 . S
C1030 H1044 0.960 . S
C1031 C1028 1.511 . S
C1031 H1045 0.961 . S
C1031 H1046 0.961 . S
C1031 H1047 0.961 . S
C1032 C1033 1.370 . S
C1032 C1034 1.363 . S
C1032 H1048 0.931 . S
C1033 C1032 1.370 . S
C1033 C1037 1.408 . S
C1034 C1032 1.363 . S
C1034 C1035 1.370 . S
C1034 C1038 1.524 . S
C1035 C1027 1.503 . S
C1035 C1034 1.370 . S
C1035 C1036 1.403 . S
C1036 C1035 1.403 . S
C1036 C1037 1.404 . S
C1036 C1039 1.539 . S
C1037 C1033 1.408 . S
C1037 C1036 1.404 . S
C1037 H1049 0.930 . S
C1038 C1034 1.524 . S
C1038 H1050 0.956 . S
C1038 H1051 0.961 . S
C1038 H1052 0.961 . S
C1039 C1036 1.539 . S
C1039 H1053 0.958 . S
C1039 H1054 0.961 . S
C1039 H1055 0.960 . S
H1040 C1024 0.931 . S
H1041 C1029 0.929 . S
H1042 C1030 0.960 . S
H1043 C1030 0.962 . S
H1044 C1030 0.960 . S
H1045 C1031 0.961 . S
H1046 C1031 0.961 . S
H1047 C1031 0.961 . S
H1048 C1032 0.931 . S
H1049 C1037 0.930 . S
H1050 C1038 0.956 . S
H1051 C1038 0.961 . S
H1052 C1038 0.961 . S
H1053 C1039 0.958 . S
H1054 C1039 0.961 . S
H1055 C1039 0.960 . S
C1056 C1057 1.391 . S
C1056 C1058 1.394 . S
C1056 H1072 0.931 . S
C1057 C1056 1.391 . S
C1057 C1061 1.376 . S
C1058 C1056 1.394 . S
C1058 C1059 1.369 . S
C1058 C1062 1.531 . S
C1059 C1058 1.369 . S
C1059 C1060 1.410 . S
C1059 C1067 1.503 . S
C1060 C1059 1.410 . S
C1060 C1061 1.392 . S
C1060 C1063 1.511 . S
C1061 C1057 1.376 . S
C1061 C1060 1.392 . S
C1061 H1073 0.929 . S
C1062 C1058 1.531 . S
C1062 H1074 0.960 1_556 S
C1062 H1075 0.962 . S
C1062 H1076 0.960 . S
C1063 C1060 1.511 . S
C1063 H1077 0.961 . S
C1063 H1078 0.961 . S
C1063 H1079 0.961 . S
C1064 C1065 1.370 1_556 S
C1064 C1066 1.363 . S
C1064 H1080 0.931 . S
C1065 C1064 1.370 1_554 S
C1065 C1069 1.408 . S
C1066 C1064 1.363 . S
C1066 C1067 1.370 . S
C1066 C1070 1.524 . S
C1067 C1059 1.503 . S
C1067 C1066 1.370 . S
C1067 C1068 1.403 . S
C1068 C1067 1.403 . S
C1068 C1069 1.404 1_556 S
C1068 C1071 1.539 1_556 S
C1069 C1065 1.408 . S
C1069 C1068 1.404 1_554 S
C1069 H1081 0.930 . S
C1070 C1066 1.524 . S
C1070 H1082 0.956 . S
C1070 H1083 0.961 . S
C1070 H1084 0.961 . S
C1071 C1068 1.539 1_554 S
C1071 H1085 0.958 . S
C1071 H1086 0.961 . S
C1071 H1087 0.960 1_554 S
H1072 C1056 0.931 . S
H1073 C1061 0.929 . S
H1074 C1062 0.960 1_554 S
H1075 C1062 0.962 . S
H1076 C1062 0.960 . S
H1077 C1063 0.961 . S
H1078 C1063 0.961 . S
H1079 C1063 0.961 . S
H1080 C1064 0.931 . S
H1081 C1069 0.930 . S
H1082 C1070 0.956 . S
H1083 C1070 0.961 . S
H1084 C1070 0.961 . S
H1085 C1071 0.958 . S
H1086 C1071 0.961 . S
H1087 C1071 0.960 1_556 S
C1088 C1089 1.391 . S
C1088 C1090 1.394 . S
C1088 H1104 0.931 . S
C1089 C1088 1.391 . S
C1089 C1093 1.376 . S
C1090 C1088 1.394 . S
C1090 C1091 1.369 . S
C1090 C1094 1.531 . S
C1091 C1090 1.369 . S
C1091 C1092 1.410 . S
C1091 C1099 1.503 . S
C1092 C1091 1.410 . S
C1092 C1093 1.392 . S
C1092 C1095 1.511 . S
C1093 C1089 1.376 . S
C1093 C1092 1.392 . S
C1093 H1105 0.929 . S
C1094 C1090 1.531 . S
C1094 H1106 0.960 . S
C1094 H1107 0.962 . S
C1094 H1108 0.960 . S
C1095 C1092 1.511 . S
C1095 H1109 0.961 . S
C1095 H1110 0.961 . S
C1095 H1111 0.961 . S
C1096 C1097 1.370 . S
C1096 C1098 1.363 . S
C1096 H1112 0.931 . S
C1097 C1096 1.370 . S
C1097 C1101 1.408 . S
C1098 C1096 1.363 . S
C1098 C1099 1.370 . S
C1098 C1102 1.524 . S
C1099 C1091 1.503 . S
C1099 C1098 1.370 . S
C1099 C1100 1.403 . S
C1100 C1099 1.403 . S
C1100 C1101 1.404 . S
C1100 C1103 1.539 . S
C1101 C1097 1.408 . S
C1101 C1100 1.404 . S
C1101 H1113 0.930 . S
C1102 C1098 1.524 . S
C1102 H1114 0.956 . S
C1102 H1115 0.961 . S
C1102 H1116 0.961 . S
C1103 C1100 1.539 . S
C1103 H1117 0.958 . S
C1103 H1118 0.961 . S
C1103 H1119 0.960 . S
H1104 C1088 0.931 . S
H1105 C1093 0.929 . S
H1106 C1094 0.960 . S
H1107 C1094 0.962 . S
H1108 C1094 0.960 . S
H1109 C1095 0.961 . S
H1110 C1095 0.961 . S
H1111 C1095 0.961 . S
H1112 C1096 0.931 . S
H1113 C1101 0.930 . S
H1114 C1102 0.956 . S
H1115 C1102 0.961 . S
H1116 C1102 0.961 . S
H1117 C1103 0.958 . S
H1118 C1103 0.961 . S
H1119 C1103 0.960 . S
C1120 C1121 1.391 . S
C1120 C1122 1.394 . S
C1120 H1136 0.931 . S
C1121 C1120 1.391 . S
C1121 C1125 1.376 . S
C1122 C1120 1.394 . S
C1122 C1123 1.369 . S
C1122 C1126 1.531 . S
C1123 C1122 1.369 . S
C1123 C1124 1.410 . S
C1123 C1131 1.503 . S
C1124 C1123 1.410 . S
C1124 C1125 1.392 . S
C1124 C1127 1.511 . S
C1125 C1121 1.376 . S
C1125 C1124 1.392 . S
C1125 H1137 0.929 . S
C1126 C1122 1.531 . S
C1126 H1138 0.960 . S
C1126 H1139 0.962 . S
C1126 H1140 0.960 . S
C1127 C1124 1.511 . S
C1127 H1141 0.961 . S
C1127 H1142 0.961 . S
C1127 H1143 0.961 . S
C1128 C1129 1.370 . S
C1128 C1130 1.363 . S
C1128 H1144 0.931 . S
C1129 C1128 1.370 . S
C1129 C1133 1.408 . S
C1130 C1128 1.363 . S
C1130 C1131 1.370 . S
C1130 C1134 1.524 . S
C1131 C1123 1.503 . S
C1131 C1130 1.370 . S
C1131 C1132 1.403 . S
C1132 C1131 1.403 . S
C1132 C1133 1.404 . S
C1132 C1135 1.539 . S
C1133 C1129 1.408 . S
C1133 C1132 1.404 . S
C1133 H1145 0.930 . S
C1134 C1130 1.524 . S
C1134 H1146 0.956 . S
C1134 H1147 0.961 . S
C1134 H1148 0.961 . S
C1135 C1132 1.539 . S
C1135 H1149 0.958 . S
C1135 H1150 0.961 . S
C1135 H1151 0.960 . S
H1136 C1120 0.931 . S
H1137 C1125 0.929 . S
H1138 C1126 0.960 . S
H1139 C1126 0.962 . S
H1140 C1126 0.960 . S
H1141 C1127 0.961 . S
H1142 C1127 0.961 . S
H1143 C1127 0.961 . S
H1144 C1128 0.931 . S
H1145 C1133 0.930 . S
H1146 C1134 0.956 . S
H1147 C1134 0.961 . S
H1148 C1134 0.961 . S
H1149 C1135 0.958 . S
H1150 C1135 0.961 . S
H1151 C1135 0.960 . S
C1152 C1153 1.391 . S
C1152 C1154 1.394 . S
C1152 H1168 0.931 . S
C1153 C1152 1.391 . S
C1153 C1157 1.376 . S
C1154 C1152 1.394 . S
C1154 C1155 1.369 . S
C1154 C1158 1.531 . S
C1155 C1154 1.369 . S
C1155 C1156 1.410 . S
C1155 C1163 1.503 . S
C1156 C1155 1.410 . S
C1156 C1157 1.392 . S
C1156 C1159 1.511 . S
C1157 C1153 1.376 . S
C1157 C1156 1.392 . S
C1157 H1169 0.929 . S
C1158 C1154 1.531 . S
C1158 H1170 0.960 . S
C1158 H1171 0.962 . S
C1158 H1172 0.960 . S
C1159 C1156 1.511 . S
C1159 H1173 0.961 . S
C1159 H1174 0.961 . S
C1159 H1175 0.961 . S
C1160 C1161 1.370 . S
C1160 C1162 1.363 . S
C1160 H1176 0.931 . S
C1161 C1160 1.370 . S
C1161 C1165 1.408 . S
C1162 C1160 1.363 . S
C1162 C1163 1.370 . S
C1162 C1166 1.524 . S
C1163 C1155 1.503 . S
C1163 C1162 1.370 . S
C1163 C1164 1.403 . S
C1164 C1163 1.403 . S
C1164 C1165 1.404 . S
C1164 C1167 1.539 . S
C1165 C1161 1.408 . S
C1165 C1164 1.404 . S
C1165 H1177 0.930 . S
C1166 C1162 1.524 . S
C1166 H1178 0.956 . S
C1166 H1179 0.961 . S
C1166 H1180 0.961 . S
C1167 C1164 1.539 . S
C1167 H1181 0.958 . S
C1167 H1182 0.961 . S
C1167 H1183 0.960 . S
H1168 C1152 0.931 . S
H1169 C1157 0.929 . S
H1170 C1158 0.960 . S
H1171 C1158 0.962 . S
H1172 C1158 0.960 . S
H1173 C1159 0.961 . S
H1174 C1159 0.961 . S
H1175 C1159 0.961 . S
H1176 C1160 0.931 . S
H1177 C1165 0.930 . S
H1178 C1166 0.956 . S
H1179 C1166 0.961 . S
H1180 C1166 0.961 . S
H1181 C1167 0.958 . S
H1182 C1167 0.961 . S
H1183 C1167 0.960 . S
C1184 C1185 1.391 . S
C1184 C1186 1.394 . S
C1184 H1200 0.931 . S
C1185 C1184 1.391 . S
C1185 C1189 1.376 . S
C1186 C1184 1.394 . S
C1186 C1187 1.369 . S
C1186 C1190 1.531 . S
C1187 C1186 1.369 . S
C1187 C1188 1.410 . S
C1187 C1195 1.503 . S
C1188 C1187 1.410 . S
C1188 C1189 1.392 . S
C1188 C1191 1.511 . S
C1189 C1185 1.376 . S
C1189 C1188 1.392 . S
C1189 H1201 0.929 . S
C1190 C1186 1.531 . S
C1190 H1202 0.960 . S
C1190 H1203 0.962 . S
C1190 H1204 0.960 . S
C1191 C1188 1.511 . S
C1191 H1205 0.961 . S
C1191 H1206 0.961 . S
C1191 H1207 0.961 . S
C1192 C1193 1.370 . S
C1192 C1194 1.363 . S
C1192 H1208 0.931 . S
C1193 C1192 1.370 . S
C1193 C1197 1.408 . S
C1194 C1192 1.363 . S
C1194 C1195 1.370 . S
C1194 C1198 1.524 . S
C1195 C1187 1.503 . S
C1195 C1194 1.370 . S
C1195 C1196 1.403 . S
C1196 C1195 1.403 . S
C1196 C1197 1.404 . S
C1196 C1199 1.539 . S
C1197 C1193 1.408 . S
C1197 C1196 1.404 . S
C1197 H1209 0.930 . S
C1198 C1194 1.524 . S
C1198 H1210 0.956 . S
C1198 H1211 0.961 . S
C1198 H1212 0.961 . S
C1199 C1196 1.539 . S
C1199 H1213 0.958 . S
C1199 H1214 0.961 . S
C1199 H1215 0.960 . S
H1200 C1184 0.931 . S
H1201 C1189 0.929 . S
H1202 C1190 0.960 . S
H1203 C1190 0.962 . S
H1204 C1190 0.960 . S
H1205 C1191 0.961 . S
H1206 C1191 0.961 . S
H1207 C1191 0.961 . S
H1208 C1192 0.931 . S
H1209 C1197 0.930 . S
H1210 C1198 0.956 . S
H1211 C1198 0.961 . S
H1212 C1198 0.961 . S
H1213 C1199 0.958 . S
H1214 C1199 0.961 . S
H1215 C1199 0.960 . S
C1216 C1217 1.391 . S
C1216 C1218 1.394 . S
C1216 H1232 0.931 . S
C1217 C1216 1.391 . S
C1217 C1221 1.376 . S
C1218 C1216 1.394 . S
C1218 C1219 1.369 . S
C1218 C1222 1.531 . S
C1219 C1218 1.369 . S
C1219 C1220 1.410 . S
C1219 C1227 1.503 . S
C1220 C1219 1.410 . S
C1220 C1221 1.392 . S
C1220 C1223 1.511 . S
C1221 C1217 1.376 . S
C1221 C1220 1.392 . S
C1221 H1233 0.929 . S
C1222 C1218 1.531 . S
C1222 H1234 0.960 . S
C1222 H1235 0.962 . S
C1222 H1236 0.960 . S
C1223 C1220 1.511 . S
C1223 H1237 0.961 . S
C1223 H1238 0.961 . S
C1223 H1239 0.961 . S
C1224 C1225 1.370 . S
C1224 C1226 1.363 . S
C1224 H1240 0.931 . S
C1225 C1224 1.370 . S
C1225 C1229 1.408 . S
C1226 C1224 1.363 . S
C1226 C1227 1.370 . S
C1226 C1230 1.524 . S
C1227 C1219 1.503 . S
C1227 C1226 1.370 . S
C1227 C1228 1.403 . S
C1228 C1227 1.403 . S
C1228 C1229 1.404 . S
C1228 C1231 1.539 . S
C1229 C1225 1.408 . S
C1229 C1228 1.404 . S
C1229 H1241 0.930 . S
C1230 C1226 1.524 . S
C1230 H1242 0.956 . S
C1230 H1243 0.961 . S
C1230 H1244 0.961 . S
C1231 C1228 1.539 . S
C1231 H1245 0.958 . S
C1231 H1246 0.961 . S
C1231 H1247 0.960 . S
H1232 C1216 0.931 . S
H1233 C1221 0.929 . S
H1234 C1222 0.960 . S
H1235 C1222 0.962 . S
H1236 C1222 0.960 . S
H1237 C1223 0.961 . S
H1238 C1223 0.961 . S
H1239 C1223 0.961 . S
H1240 C1224 0.931 . S
H1241 C1229 0.930 . S
H1242 C1230 0.956 . S
H1243 C1230 0.961 . S
H1244 C1230 0.961 . S
H1245 C1231 0.958 . S
H1246 C1231 0.961 . S
H1247 C1231 0.960 . S
C1248 C1249 1.391 . S
C1248 C1250 1.394 . S
C1248 H1264 0.931 . S
C1249 C1248 1.391 . S
C1249 C1253 1.376 . S
C1250 C1248 1.394 . S
C1250 C1251 1.369 . S
C1250 C1254 1.531 . S
C1251 C1250 1.369 . S
C1251 C1252 1.410 . S
C1251 C1259 1.503 . S
C1252 C1251 1.410 . S
C1252 C1253 1.392 . S
C1252 C1255 1.511 . S
C1253 C1249 1.376 . S
C1253 C1252 1.392 . S
C1253 H1265 0.929 . S
C1254 C1250 1.531 . S
C1254 H1266 0.960 . S
C1254 H1267 0.962 . S
C1254 H1268 0.960 . S
C1255 C1252 1.511 . S
C1255 H1269 0.961 . S
C1255 H1270 0.961 . S
C1255 H1271 0.961 . S
C1256 C1257 1.370 . S
C1256 C1258 1.363 . S
C1256 H1272 0.931 . S
C1257 C1256 1.370 . S
C1257 C1261 1.408 . S
C1258 C1256 1.363 . S
C1258 C1259 1.370 . S
C1258 C1262 1.524 . S
C1259 C1251 1.503 . S
C1259 C1258 1.370 . S
C1259 C1260 1.403 . S
C1260 C1259 1.403 . S
C1260 C1261 1.404 . S
C1260 C1263 1.539 . S
C1261 C1257 1.408 . S
C1261 C1260 1.404 . S
C1261 H1273 0.930 . S
C1262 C1258 1.524 . S
C1262 H1274 0.956 . S
C1262 H1275 0.961 . S
C1262 H1276 0.961 . S
C1263 C1260 1.539 . S
C1263 H1277 0.958 . S
C1263 H1278 0.961 . S
C1263 H1279 0.960 . S
H1264 C1248 0.931 . S
H1265 C1253 0.929 . S
H1266 C1254 0.960 . S
H1267 C1254 0.962 . S
H1268 C1254 0.960 . S
H1269 C1255 0.961 . S
H1270 C1255 0.961 . S
H1271 C1255 0.961 . S
H1272 C1256 0.931 . S
H1273 C1261 0.930 . S
H1274 C1262 0.956 . S
H1275 C1262 0.961 . S
H1276 C1262 0.961 . S
H1277 C1263 0.958 . S
H1278 C1263 0.961 . S
H1279 C1263 0.960 . S
C1280 C1281 1.391 . S
C1280 C1282 1.394 . S
C1280 H1296 0.931 . S
C1281 C1280 1.391 . S
C1281 C1285 1.376 . S
C1282 C1280 1.394 . S
C1282 C1283 1.369 . S
C1282 C1286 1.531 . S
C1283 C1282 1.369 . S
C1283 C1284 1.410 . S
C1283 C1291 1.503 . S
C1284 C1283 1.410 . S
C1284 C1285 1.392 . S
C1284 C1287 1.511 . S
C1285 C1281 1.376 . S
C1285 C1284 1.392 . S
C1285 H1297 0.929 . S
C1286 C1282 1.531 . S
C1286 H1298 0.960 . S
C1286 H1299 0.962 . S
C1286 H1300 0.960 . S
C1287 C1284 1.511 . S
C1287 H1301 0.961 . S
C1287 H1302 0.961 . S
C1287 H1303 0.961 . S
C1288 C1289 1.370 . S
C1288 C1290 1.363 . S
C1288 H1304 0.931 . S
C1289 C1288 1.370 . S
C1289 C1293 1.408 . S
C1290 C1288 1.363 . S
C1290 C1291 1.370 . S
C1290 C1294 1.524 . S
C1291 C1283 1.503 . S
C1291 C1290 1.370 . S
C1291 C1292 1.403 . S
C1292 C1291 1.403 . S
C1292 C1293 1.404 . S
C1292 C1295 1.539 . S
C1293 C1289 1.408 . S
C1293 C1292 1.404 . S
C1293 H1305 0.930 . S
C1294 C1290 1.524 . S
C1294 H1306 0.956 . S
C1294 H1307 0.961 . S
C1294 H1308 0.961 . S
C1295 C1292 1.539 . S
C1295 H1309 0.958 . S
C1295 H1310 0.961 . S
C1295 H1311 0.960 . S
H1296 C1280 0.931 . S
H1297 C1285 0.929 . S
H1298 C1286 0.960 . S
H1299 C1286 0.962 . S
H1300 C1286 0.960 . S
H1301 C1287 0.961 . S
H1302 C1287 0.961 . S
H1303 C1287 0.961 . S
H1304 C1288 0.931 . S
H1305 C1293 0.930 . S
H1306 C1294 0.956 . S
H1307 C1294 0.961 . S
H1308 C1294 0.961 . S
H1309 C1295 0.958 . S
H1310 C1295 0.961 . S
H1311 C1295 0.960 . S
C1312 C1313 1.391 . S
C1312 C1314 1.394 . S
C1312 H1328 0.931 . S
C1313 C1312 1.391 . S
C1313 C1317 1.376 . S
C1314 C1312 1.394 . S
C1314 C1315 1.369 . S
C1314 C1318 1.531 . S
C1315 C1314 1.369 . S
C1315 C1316 1.410 . S
C1315 C1323 1.503 . S
C1316 C1315 1.410 . S
C1316 C1317 1.392 . S
C1316 C1319 1.511 . S
C1317 C1313 1.376 . S
C1317 C1316 1.392 . S
C1317 H1329 0.929 . S
C1318 C1314 1.531 . S
C1318 H1330 0.960 . S
C1318 H1331 0.962 . S
C1318 H1332 0.960 . S
C1319 C1316 1.511 . S
C1319 H1333 0.961 . S
C1319 H1334 0.961 . S
C1319 H1335 0.961 . S
C1320 C1321 1.370 . S
C1320 C1322 1.363 . S
C1320 H1336 0.931 . S
C1321 C1320 1.370 . S
C1321 C1325 1.408 . S
C1322 C1320 1.363 . S
C1322 C1323 1.370 . S
C1322 C1326 1.524 . S
C1323 C1315 1.503 . S
C1323 C1322 1.370 . S
C1323 C1324 1.403 . S
C1324 C1323 1.403 . S
C1324 C1325 1.404 . S
C1324 C1327 1.539 . S
C1325 C1321 1.408 . S
C1325 C1324 1.404 . S
C1325 H1337 0.930 . S
C1326 C1322 1.524 . S
C1326 H1338 0.956 . S
C1326 H1339 0.961 . S
C1326 H1340 0.961 . S
C1327 C1324 1.539 . S
C1327 H1341 0.958 . S
C1327 H1342 0.961 . S
C1327 H1343 0.960 . S
H1328 C1312 0.931 . S
H1329 C1317 0.929 . S
H1330 C1318 0.960 . S
H1331 C1318 0.962 . S
H1332 C1318 0.960 . S
H1333 C1319 0.961 . S
H1334 C1319 0.961 . S
H1335 C1319 0.961 . S
H1336 C1320 0.931 . S
H1337 C1325 0.930 . S
H1338 C1326 0.956 . S
H1339 C1326 0.961 . S
H1340 C1326 0.961 . S
H1341 C1327 0.958 . S
H1342 C1327 0.961 . S
H1343 C1327 0.960 . S
C1344 C1345 1.391 . S
C1344 C1346 1.394 . S
C1344 H1360 0.931 . S
C1345 C1344 1.391 . S
C1345 C1349 1.376 . S
C1346 C1344 1.394 . S
C1346 C1347 1.369 . S
C1346 C1350 1.531 . S
C1347 C1346 1.369 . S
C1347 C1348 1.410 . S
C1347 C1355 1.503 . S
C1348 C1347 1.410 . S
C1348 C1349 1.392 . S
C1348 C1351 1.511 . S
C1349 C1345 1.376 . S
C1349 C1348 1.392 . S
C1349 H1361 0.929 . S
C1350 C1346 1.531 . S
C1350 H1362 0.960 . S
C1350 H1363 0.962 . S
C1350 H1364 0.960 . S
C1351 C1348 1.511 . S
C1351 H1365 0.961 . S
C1351 H1366 0.961 . S
C1351 H1367 0.961 . S
C1352 C1353 1.370 . S
C1352 C1354 1.363 . S
C1352 H1368 0.931 . S
C1353 C1352 1.370 . S
C1353 C1357 1.408 . S
C1354 C1352 1.363 . S
C1354 C1355 1.370 . S
C1354 C1358 1.524 . S
C1355 C1347 1.503 . S
C1355 C1354 1.370 . S
C1355 C1356 1.403 . S
C1356 C1355 1.403 . S
C1356 C1357 1.404 . S
C1356 C1359 1.539 . S
C1357 C1353 1.408 . S
C1357 C1356 1.404 . S
C1357 H1369 0.930 . S
C1358 C1354 1.524 . S
C1358 H1370 0.956 . S
C1358 H1371 0.961 . S
C1358 H1372 0.961 . S
C1359 C1356 1.539 . S
C1359 H1373 0.958 . S
C1359 H1374 0.961 . S
C1359 H1375 0.960 . S
H1360 C1344 0.931 . S
H1361 C1349 0.929 . S
H1362 C1350 0.960 . S
H1363 C1350 0.962 . S
H1364 C1350 0.960 . S
H1365 C1351 0.961 . S
H1366 C1351 0.961 . S
H1367 C1351 0.961 . S
H1368 C1352 0.931 . S
H1369 C1357 0.930 . S
H1370 C1358 0.956 . S
H1371 C1358 0.961 . S
H1372 C1358 0.961 . S
H1373 C1359 0.958 . S
H1374 C1359 0.961 . S
H1375 C1359 0.960 . S
C1376 C1377 1.391 . S
C1376 C1378 1.394 . S
C1376 H1392 0.931 . S
C1377 C1376 1.391 . S
C1377 C1381 1.376 . S
C1378 C1376 1.394 . S
C1378 C1379 1.369 . S
C1378 C1382 1.531 . S
C1379 C1378 1.369 . S
C1379 C1380 1.410 . S
C1379 C1387 1.503 . S
C1380 C1379 1.410 . S
C1380 C1381 1.392 . S
C1380 C1383 1.511 . S
C1381 C1377 1.376 . S
C1381 C1380 1.392 . S
C1381 H1393 0.929 . S
C1382 C1378 1.531 . S
C1382 H1394 0.960 . S
C1382 H1395 0.962 . S
C1382 H1396 0.960 . S
C1383 C1380 1.511 . S
C1383 H1397 0.961 . S
C1383 H1398 0.961 . S
C1383 H1399 0.961 . S
C1384 C1385 1.370 . S
C1384 C1386 1.363 . S
C1384 H1400 0.931 . S
C1385 C1384 1.370 . S
C1385 C1389 1.408 . S
C1386 C1384 1.363 . S
C1386 C1387 1.370 . S
C1386 C1390 1.524 . S
C1387 C1379 1.503 . S
C1387 C1386 1.370 . S
C1387 C1388 1.403 . S
C1388 C1387 1.403 . S
C1388 C1389 1.404 . S
C1388 C1391 1.539 . S
C1389 C1385 1.408 . S
C1389 C1388 1.404 . S
C1389 H1401 0.930 1_556 S
C1390 C1386 1.524 . S
C1390 H1402 0.956 . S
C1390 H1403 0.961 . S
C1390 H1404 0.961 . S
C1391 C1388 1.539 . S
C1391 H1405 0.958 . S
C1391 H1406 0.961 . S
C1391 H1407 0.960 . S
H1392 C1376 0.931 . S
H1393 C1381 0.929 . S
H1394 C1382 0.960 . S
H1395 C1382 0.962 . S
H1396 C1382 0.960 . S
H1397 C1383 0.961 . S
H1398 C1383 0.961 . S
H1399 C1383 0.961 . S
H1400 C1384 0.931 . S
H1401 C1389 0.930 1_554 S
H1402 C1390 0.956 . S
H1403 C1390 0.961 . S
H1404 C1390 0.961 . S
H1405 C1391 0.958 . S
H1406 C1391 0.961 . S
H1407 C1391 0.960 . S
C1408 C1409 1.391 . S
C1408 C1410 1.394 . S
C1408 H1424 0.931 . S
C1409 C1408 1.391 . S
C1409 C1413 1.376 . S
C1410 C1408 1.394 . S
C1410 C1411 1.369 . S
C1410 C1414 1.531 . S
C1411 C1410 1.369 . S
C1411 C1412 1.410 . S
C1411 C1419 1.503 . S
C1412 C1411 1.410 . S
C1412 C1413 1.392 . S
C1412 C1415 1.511 . S
C1413 C1409 1.376 . S
C1413 C1412 1.392 . S
C1413 H1425 0.929 . S
C1414 C1410 1.531 . S
C1414 H1426 0.960 . S
C1414 H1427 0.962 . S
C1414 H1428 0.960 . S
C1415 C1412 1.511 . S
C1415 H1429 0.961 . S
C1415 H1430 0.961 . S
C1415 H1431 0.961 . S
C1416 C1417 1.370 . S
C1416 C1418 1.363 . S
C1416 H1432 0.931 . S
C1417 C1416 1.370 . S
C1417 C1421 1.408 . S
C1418 C1416 1.363 . S
C1418 C1419 1.370 . S
C1418 C1422 1.524 . S
C1419 C1411 1.503 . S
C1419 C1418 1.370 . S
C1419 C1420 1.403 . S
C1420 C1419 1.403 . S
C1420 C1421 1.404 . S
C1420 C1423 1.539 . S
C1421 C1417 1.408 . S
C1421 C1420 1.404 . S
C1421 H1433 0.930 . S
C1422 C1418 1.524 . S
C1422 H1434 0.956 . S
C1422 H1435 0.961 . S
C1422 H1436 0.961 . S
C1423 C1420 1.539 . S
C1423 H1437 0.958 . S
C1423 H1438 0.961 . S
C1423 H1439 0.960 . S
H1424 C1408 0.931 . S
H1425 C1413 0.929 . S
H1426 C1414 0.960 . S
H1427 C1414 0.962 . S
H1428 C1414 0.960 . S
H1429 C1415 0.961 . S
H1430 C1415 0.961 . S
H1431 C1415 0.961 . S
H1432 C1416 0.931 . S
H1433 C1421 0.930 . S
H1434 C1422 0.956 . S
H1435 C1422 0.961 . S
H1436 C1422 0.961 . S
H1437 C1423 0.958 . S
H1438 C1423 0.961 . S
H1439 C1423 0.960 . S
C1440 C1441 1.391 . S
C1440 C1442 1.394 . S
C1440 H1456 0.931 . S
C1441 C1440 1.391 . S
C1441 C1445 1.376 . S
C1442 C1440 1.394 . S
C1442 C1443 1.369 . S
C1442 C1446 1.531 . S
C1443 C1442 1.369 . S
C1443 C1444 1.410 . S
C1443 C1451 1.503 . S
C1444 C1443 1.410 . S
C1444 C1445 1.392 . S
C1444 C1447 1.511 . S
C1445 C1441 1.376 . S
C1445 C1444 1.392 . S
C1445 H1457 0.929 . S
C1446 C1442 1.531 . S
C1446 H1458 0.960 . S
C1446 H1459 0.962 . S
C1446 H1460 0.960 . S
C1447 C1444 1.511 . S
C1447 H1461 0.961 . S
C1447 H1462 0.961 . S
C1447 H1463 0.961 . S
C1448 C1449 1.370 . S
C1448 C1450 1.363 . S
C1448 H1464 0.931 . S
C1449 C1448 1.370 . S
C1449 C1453 1.408 . S
C1450 C1448 1.363 . S
C1450 C1451 1.370 . S
C1450 C1454 1.524 . S
C1451 C1443 1.503 . S
C1451 C1450 1.370 . S
C1451 C1452 1.403 . S
C1452 C1451 1.403 . S
C1452 C1453 1.404 . S
C1452 C1455 1.539 . S
C1453 C1449 1.408 . S
C1453 C1452 1.404 . S
C1453 H1465 0.930 . S
C1454 C1450 1.524 . S
C1454 H1466 0.956 . S
C1454 H1467 0.961 . S
C1454 H1468 0.961 . S
C1455 C1452 1.539 . S
C1455 H1469 0.958 . S
C1455 H1470 0.961 . S
C1455 H1471 0.960 . S
H1456 C1440 0.931 . S
H1457 C1445 0.929 . S
H1458 C1446 0.960 . S
H1459 C1446 0.962 . S
H1460 C1446 0.960 . S
H1461 C1447 0.961 . S
H1462 C1447 0.961 . S
H1463 C1447 0.961 . S
H1464 C1448 0.931 . S
H1465 C1453 0.930 . S
H1466 C1454 0.956 . S
H1467 C1454 0.961 . S
H1468 C1454 0.961 . S
H1469 C1455 0.958 . S
H1470 C1455 0.961 . S
H1471 C1455 0.960 . S
C1472 C1473 1.391 . S
C1472 C1474 1.394 . S
C1472 H1488 0.931 . S
C1473 C1472 1.391 . S
C1473 C1477 1.376 . S
C1474 C1472 1.394 . S
C1474 C1475 1.369 . S
C1474 C1478 1.531 . S
C1475 C1474 1.369 . S
C1475 C1476 1.410 . S
C1475 C1483 1.503 . S
C1476 C1475 1.410 . S
C1476 C1477 1.392 . S
C1476 C1479 1.511 . S
C1477 C1473 1.376 . S
C1477 C1476 1.392 . S
C1477 H1489 0.929 . S
C1478 C1474 1.531 . S
C1478 H1490 0.960 . S
C1478 H1491 0.962 . S
C1478 H1492 0.960 . S
C1479 C1476 1.511 . S
C1479 H1493 0.961 . S
C1479 H1494 0.961 . S
C1479 H1495 0.961 . S
C1480 C1481 1.370 . S
C1480 C1482 1.363 . S
C1480 H1496 0.931 . S
C1481 C1480 1.370 . S
C1481 C1485 1.408 . S
C1482 C1480 1.363 . S
C1482 C1483 1.370 . S
C1482 C1486 1.524 . S
C1483 C1475 1.503 . S
C1483 C1482 1.370 . S
C1483 C1484 1.403 . S
C1484 C1483 1.403 . S
C1484 C1485 1.404 . S
C1484 C1487 1.539 . S
C1485 C1481 1.408 . S
C1485 C1484 1.404 . S
C1485 H1497 0.930 . S
C1486 C1482 1.524 . S
C1486 H1498 0.956 . S
C1486 H1499 0.961 . S
C1486 H1500 0.961 . S
C1487 C1484 1.539 . S
C1487 H1501 0.958 . S
C1487 H1502 0.961 . S
C1487 H1503 0.960 . S
H1488 C1472 0.931 . S
H1489 C1477 0.929 . S
H1490 C1478 0.960 . S
H1491 C1478 0.962 . S
H1492 C1478 0.960 . S
H1493 C1479 0.961 . S
H1494 C1479 0.961 . S
H1495 C1479 0.961 . S
H1496 C1480 0.931 . S
H1497 C1485 0.930 . S
H1498 C1486 0.956 . S
H1499 C1486 0.961 . S
H1500 C1486 0.961 . S
H1501 C1487 0.958 . S
H1502 C1487 0.961 . S
H1503 C1487 0.960 . S
C1504 C1505 1.391 . S
C1504 C1506 1.394 . S
C1504 H1520 0.931 . S
C1505 C1504 1.391 . S
C1505 C1509 1.376 . S
C1506 C1504 1.394 . S
C1506 C1507 1.369 . S
C1506 C1510 1.531 . S
C1507 C1506 1.369 . S
C1507 C1508 1.410 . S
C1507 C1515 1.503 . S
C1508 C1507 1.410 . S
C1508 C1509 1.392 . S
C1508 C1511 1.511 . S
C1509 C1505 1.376 . S
C1509 C1508 1.392 . S
C1509 H1521 0.929 . S
C1510 C1506 1.531 . S
C1510 H1522 0.960 . S
C1510 H1523 0.962 . S
C1510 H1524 0.960 . S
C1511 C1508 1.511 . S
C1511 H1525 0.961 . S
C1511 H1526 0.961 . S
C1511 H1527 0.961 . S
C1512 C1513 1.370 . S
C1512 C1514 1.363 . S
C1512 H1528 0.931 . S
C1513 C1512 1.370 . S
C1513 C1517 1.408 . S
C1514 C1512 1.363 . S
C1514 C1515 1.370 . S
C1514 C1518 1.524 . S
C1515 C1507 1.503 . S
C1515 C1514 1.370 . S
C1515 C1516 1.403 . S
C1516 C1515 1.403 . S
C1516 C1517 1.404 . S
C1516 C1519 1.539 . S
C1517 C1513 1.408 . S
C1517 C1516 1.404 . S
C1517 H1529 0.930 . S
C1518 C1514 1.524 . S
C1518 H1530 0.956 . S
C1518 H1531 0.961 . S
C1518 H1532 0.961 . S
C1519 C1516 1.539 . S
C1519 H1533 0.958 . S
C1519 H1534 0.961 . S
C1519 H1535 0.960 . S
H1520 C1504 0.931 . S
H1521 C1509 0.929 . S
H1522 C1510 0.960 . S
H1523 C1510 0.962 . S
H1524 C1510 0.960 . S
H1525 C1511 0.961 . S
H1526 C1511 0.961 . S
H1527 C1511 0.961 . S
H1528 C1512 0.931 . S
H1529 C1517 0.930 . S
H1530 C1518 0.956 . S
H1531 C1518 0.961 . S
H1532 C1518 0.961 . S
H1533 C1519 0.958 . S
H1534 C1519 0.961 . S
H1535 C1519 0.960 . S
C1536 C1537 1.391 . S
C1536 C1538 1.394 . S
C1536 H1552 0.931 . S
C1537 C1536 1.391 . S
C1537 C1541 1.376 . S
C1538 C1536 1.394 . S
C1538 C1539 1.369 . S
C1538 C1542 1.531 . S
C1539 C1538 1.369 . S
C1539 C1540 1.410 . S
C1539 C1547 1.503 . S
C1540 C1539 1.410 . S
C1540 C1541 1.392 . S
C1540 C1543 1.511 . S
C1541 C1537 1.376 . S
C1541 C1540 1.392 . S
C1541 H1553 0.929 . S
C1542 C1538 1.531 . S
C1542 H1554 0.960 . S
C1542 H1555 0.962 . S
C1542 H1556 0.960 . S
C1543 C1540 1.511 . S
C1543 H1557 0.961 . S
C1543 H1558 0.961 . S
C1543 H1559 0.961 . S
C1544 C1545 1.370 . S
C1544 C1546 1.363 . S
C1544 H1560 0.931 . S
C1545 C1544 1.370 . S
C1545 C1549 1.408 . S
C1546 C1544 1.363 . S
C1546 C1547 1.370 . S
C1546 C1550 1.524 . S
C1547 C1539 1.503 . S
C1547 C1546 1.370 . S
C1547 C1548 1.403 . S
C1548 C1547 1.403 . S
C1548 C1549 1.404 . S
C1548 C1551 1.539 . S
C1549 C1545 1.408 . S
C1549 C1548 1.404 . S
C1549 H1561 0.930 . S
C1550 C1546 1.524 . S
C1550 H1562 0.956 . S
C1550 H1563 0.961 . S
C1550 H1564 0.961 . S
C1551 C1548 1.539 . S
C1551 H1565 0.958 . S
C1551 H1566 0.961 . S
C1551 H1567 0.960 . S
H1552 C1536 0.931 . S
H1553 C1541 0.929 . S
H1554 C1542 0.960 . S
H1555 C1542 0.962 . S
H1556 C1542 0.960 . S
H1557 C1543 0.961 . S
H1558 C1543 0.961 . S
H1559 C1543 0.961 . S
H1560 C1544 0.931 . S
H1561 C1549 0.930 . S
H1562 C1550 0.956 . S
H1563 C1550 0.961 . S
H1564 C1550 0.961 . S
H1565 C1551 0.958 . S
H1566 C1551 0.961 . S
H1567 C1551 0.960 . S
C1568 C1569 1.391 . S
C1568 C1570 1.394 . S
C1568 H1584 0.931 . S
C1569 C1568 1.391 . S
C1569 C1573 1.376 . S
C1570 C1568 1.394 . S
C1570 C1571 1.369 . S
C1570 C1574 1.531 . S
C1571 C1570 1.369 . S
C1571 C1572 1.410 . S
C1571 C1579 1.503 . S
C1572 C1571 1.410 . S
C1572 C1573 1.392 . S
C1572 C1575 1.511 . S
C1573 C1569 1.376 . S
C1573 C1572 1.392 . S
C1573 H1585 0.929 . S
C1574 C1570 1.531 . S
C1574 H1586 0.960 . S
C1574 H1587 0.962 . S
C1574 H1588 0.960 . S
C1575 C1572 1.511 . S
C1575 H1589 0.961 . S
C1575 H1590 0.961 . S
C1575 H1591 0.961 . S
C1576 C1577 1.370 . S
C1576 C1578 1.363 . S
C1576 H1592 0.931 . S
C1577 C1576 1.370 . S
C1577 C1581 1.408 . S
C1578 C1576 1.363 . S
C1578 C1579 1.370 . S
C1578 C1582 1.524 . S
C1579 C1571 1.503 . S
C1579 C1578 1.370 . S
C1579 C1580 1.403 . S
C1580 C1579 1.403 . S
C1580 C1581 1.404 . S
C1580 C1583 1.539 . S
C1581 C1577 1.408 . S
C1581 C1580 1.404 . S
C1581 H1593 0.930 . S
C1582 C1578 1.524 . S
C1582 H1594 0.956 . S
C1582 H1595 0.961 . S
C1582 H1596 0.961 . S
C1583 C1580 1.539 . S
C1583 H1597 0.958 . S
C1583 H1598 0.961 . S
C1583 H1599 0.960 . S
H1584 C1568 0.931 . S
H1585 C1573 0.929 . S
H1586 C1574 0.960 . S
H1587 C1574 0.962 . S
H1588 C1574 0.960 . S
H1589 C1575 0.961 . S
H1590 C1575 0.961 . S
H1591 C1575 0.961 . S
H1592 C1576 0.931 . S
H1593 C1581 0.930 . S
H1594 C1582 0.956 . S
H1595 C1582 0.961 . S
H1596 C1582 0.961 . S
H1597 C1583 0.958 . S
H1598 C1583 0.961 . S
H1599 C1583 0.960 . S
C1600 C1601 1.391 . S
C1600 C1602 1.394 . S
C1600 H1616 0.931 . S
C1601 C1600 1.391 . S
C1601 C1605 1.376 . S
C1602 C1600 1.394 . S
C1602 C1603 1.369 . S
C1602 C1606 1.531 . S
C1603 C1602 1.369 . S
C1603 C1604 1.410 . S
C1603 C1611 1.503 . S
C1604 C1603 1.410 . S
C1604 C1605 1.392 . S
C1604 C1607 1.511 . S
C1605 C1601 1.376 . S
C1605 C1604 1.392 . S
C1605 H1617 0.929 . S
C1606 C1602 1.531 . S
C1606 H1618 0.960 . S
C1606 H1619 0.962 . S
C1606 H1620 0.960 . S
C1607 C1604 1.511 . S
C1607 H1621 0.961 . S
C1607 H1622 0.961 . S
C1607 H1623 0.961 . S
C1608 C1609 1.370 . S
C1608 C1610 1.363 . S
C1608 H1624 0.931 . S
C1609 C1608 1.370 . S
C1609 C1613 1.408 . S
C1610 C1608 1.363 . S
C1610 C1611 1.370 . S
C1610 C1614 1.524 . S
C1611 C1603 1.503 . S
C1611 C1610 1.370 . S
C1611 C1612 1.403 . S
C1612 C1611 1.403 . S
C1612 C1613 1.404 . S
C1612 C1615 1.539 . S
C1613 C1609 1.408 . S
C1613 C1612 1.404 . S
C1613 H1625 0.930 . S
C1614 C1610 1.524 . S
C1614 H1626 0.956 . S
C1614 H1627 0.961 . S
C1614 H1628 0.961 . S
C1615 C1612 1.539 . S
C1615 H1629 0.958 . S
C1615 H1630 0.961 . S
C1615 H1631 0.960 . S
H1616 C1600 0.931 . S
H1617 C1605 0.929 . S
H1618 C1606 0.960 . S
H1619 C1606 0.962 . S
H1620 C1606 0.960 . S
H1621 C1607 0.961 . S
H1622 C1607 0.961 . S
H1623 C1607 0.961 . S
H1624 C1608 0.931 . S
H1625 C1613 0.930 . S
H1626 C1614 0.956 . S
H1627 C1614 0.961 . S
H1628 C1614 0.961 . S
H1629 C1615 0.958 . S
H1630 C1615 0.961 . S
H1631 C1615 0.960 . S
C1632 C1633 1.391 . S
C1632 C1634 1.394 . S
C1632 H1648 0.931 . S
C1633 C1632 1.391 . S
C1633 C1637 1.376 . S
C1634 C1632 1.394 . S
C1634 C1635 1.369 . S
C1634 C1638 1.531 . S
C1635 C1634 1.369 . S
C1635 C1636 1.410 . S
C1635 C1643 1.503 . S
C1636 C1635 1.410 . S
C1636 C1637 1.392 . S
C1636 C1639 1.511 . S
C1637 C1633 1.376 . S
C1637 C1636 1.392 . S
C1637 H1649 0.929 . S
C1638 C1634 1.531 . S
C1638 H1650 0.960 . S
C1638 H1651 0.962 . S
C1638 H1652 0.960 . S
C1639 C1636 1.511 . S
C1639 H1653 0.961 . S
C1639 H1654 0.961 . S
C1639 H1655 0.961 . S
C1640 C1641 1.370 . S
C1640 C1642 1.363 . S
C1640 H1656 0.931 . S
C1641 C1640 1.370 . S
C1641 C1645 1.408 . S
C1642 C1640 1.363 . S
C1642 C1643 1.370 . S
C1642 C1646 1.524 . S
C1643 C1635 1.503 . S
C1643 C1642 1.370 . S
C1643 C1644 1.403 . S
C1644 C1643 1.403 . S
C1644 C1645 1.404 . S
C1644 C1647 1.539 . S
C1645 C1641 1.408 . S
C1645 C1644 1.404 . S
C1645 H1657 0.930 . S
C1646 C1642 1.524 . S
C1646 H1658 0.956 . S
C1646 H1659 0.961 . S
C1646 H1660 0.961 . S
C1647 C1644 1.539 . S
C1647 H1661 0.958 . S
C1647 H1662 0.961 . S
C1647 H1663 0.960 . S
H1648 C1632 0.931 . S
H1649 C1637 0.929 . S
H1650 C1638 0.960 . S
H1651 C1638 0.962 . S
H1652 C1638 0.960 . S
H1653 C1639 0.961 . S
H1654 C1639 0.961 . S
H1655 C1639 0.961 . S
H1656 C1640 0.931 . S
H1657 C1645 0.930 . S
H1658 C1646 0.956 . S
H1659 C1646 0.961 . S
H1660 C1646 0.961 . S
H1661 C1647 0.958 . S
H1662 C1647 0.961 . S
H1663 C1647 0.960 . S
C1664 C1665 1.391 . S
C1664 C1666 1.394 . S
C1664 H1680 0.931 . S
C1665 C1664 1.391 . S
C1665 C1669 1.376 . S
C1666 C1664 1.394 . S
C1666 C1667 1.369 . S
C1666 C1670 1.531 . S
C1667 C1666 1.369 . S
C1667 C1668 1.410 . S
C1667 C1675 1.503 . S
C1668 C1667 1.410 . S
C1668 C1669 1.392 . S
C1668 C1671 1.511 . S
C1669 C1665 1.376 . S
C1669 C1668 1.392 . S
C1669 H1681 0.929 . S
C1670 C1666 1.531 . S
C1670 H1682 0.960 . S
C1670 H1683 0.962 . S
C1670 H1684 0.960 . S
C1671 C1668 1.511 . S
C1671 H1685 0.961 . S
C1671 H1686 0.961 . S
C1671 H1687 0.961 . S
C1672 C1673 1.370 . S
C1672 C1674 1.363 . S
C1672 H1688 0.931 . S
C1673 C1672 1.370 . S
C1673 C1677 1.408 . S
C1674 C1672 1.363 . S
C1674 C1675 1.370 . S
C1674 C1678 1.524 . S
C1675 C1667 1.503 . S
C1675 C1674 1.370 . S
C1675 C1676 1.403 . S
C1676 C1675 1.403 . S
C1676 C1677 1.404 . S
C1676 C1679 1.539 . S
C1677 C1673 1.408 . S
C1677 C1676 1.404 . S
C1677 H1689 0.930 . S
C1678 C1674 1.524 . S
C1678 H1690 0.956 . S
C1678 H1691 0.961 . S
C1678 H1692 0.961 . S
C1679 C1676 1.539 . S
C1679 H1693 0.958 . S
C1679 H1694 0.961 . S
C1679 H1695 0.960 . S
H1680 C1664 0.931 . S
H1681 C1669 0.929 . S
H1682 C1670 0.960 . S
H1683 C1670 0.962 . S
H1684 C1670 0.960 . S
H1685 C1671 0.961 . S
H1686 C1671 0.961 . S
H1687 C1671 0.961 . S
H1688 C1672 0.931 . S
H1689 C1677 0.930 . S
H1690 C1678 0.956 . S
H1691 C1678 0.961 . S
H1692 C1678 0.961 . S
H1693 C1679 0.958 . S
H1694 C1679 0.961 . S
H1695 C1679 0.960 . S
C1696 C1697 1.391 . S
C1696 C1698 1.394 . S
C1696 H1712 0.931 . S
C1697 C1696 1.391 . S
C1697 C1701 1.376 . S
C1698 C1696 1.394 . S
C1698 C1699 1.369 . S
C1698 C1702 1.531 . S
C1699 C1698 1.369 . S
C1699 C1700 1.410 . S
C1699 C1707 1.503 . S
C1700 C1699 1.410 . S
C1700 C1701 1.392 . S
C1700 C1703 1.511 . S
C1701 C1697 1.376 . S
C1701 C1700 1.392 . S
C1701 H1713 0.929 . S
C1702 C1698 1.531 . S
C1702 H1714 0.960 . S
C1702 H1715 0.962 . S
C1702 H1716 0.960 . S
C1703 C1700 1.511 . S
C1703 H1717 0.961 . S
C1703 H1718 0.961 . S
C1703 H1719 0.961 . S
C1704 C1705 1.370 . S
C1704 C1706 1.363 . S
C1704 H1720 0.931 . S
C1705 C1704 1.370 . S
C1705 C1709 1.408 . S
C1706 C1704 1.363 . S
C1706 C1707 1.370 . S
C1706 C1710 1.524 . S
C1707 C1699 1.503 . S
C1707 C1706 1.370 . S
C1707 C1708 1.403 . S
C1708 C1707 1.403 . S
C1708 C1709 1.404 . S
C1708 C1711 1.539 . S
C1709 C1705 1.408 . S
C1709 C1708 1.404 . S
C1709 H1721 0.930 . S
C1710 C1706 1.524 . S
C1710 H1722 0.956 . S
C1710 H1723 0.961 . S
C1710 H1724 0.961 . S
C1711 C1708 1.539 . S
C1711 H1725 0.958 . S
C1711 H1726 0.961 . S
C1711 H1727 0.960 . S
H1712 C1696 0.931 . S
H1713 C1701 0.929 . S
H1714 C1702 0.960 . S
H1715 C1702 0.962 . S
H1716 C1702 0.960 . S
H1717 C1703 0.961 . S
H1718 C1703 0.961 . S
H1719 C1703 0.961 . S
H1720 C1704 0.931 . S
H1721 C1709 0.930 . S
H1722 C1710 0.956 . S
H1723 C1710 0.961 . S
H1724 C1710 0.961 . S
H1725 C1711 0.958 . S
H1726 C1711 0.961 . S
H1727 C1711 0.960 . S
C1728 C1729 1.391 . S
C1728 C1730 1.394 . S
C1728 H1744 0.931 . S
C1729 C1728 1.391 . S
C1729 C1733 1.376 . S
C1730 C1728 1.394 . S
C1730 C1731 1.369 . S
C1730 C1734 1.531 . S
C1731 C1730 1.369 . S
C1731 C1732 1.410 . S
C1731 C1739 1.503 . S
C1732 C1731 1.410 . S
C1732 C1733 1.392 . S
C1732 C1735 1.511 . S
C1733 C1729 1.376 . S
C1733 C1732 1.392 . S
C1733 H1745 0.929 . S
C1734 C1730 1.531 . S
C1734 H1746 0.960 . S
C1734 H1747 0.962 . S
C1734 H1748 0.960 . S
C1735 C1732 1.511 . S
C1735 H1749 0.961 . S
C1735 H1750 0.961 . S
C1735 H1751 0.961 . S
C1736 C1737 1.370 . S
C1736 C1738 1.363 . S
C1736 H1752 0.931 . S
C1737 C1736 1.370 . S
C1737 C1741 1.408 . S
C1738 C1736 1.363 . S
C1738 C1739 1.370 . S
C1738 C1742 1.524 . S
C1739 C1731 1.503 . S
C1739 C1738 1.370 . S
C1739 C1740 1.403 . S
C1740 C1739 1.403 . S
C1740 C1741 1.404 . S
C1740 C1743 1.539 . S
C1741 C1737 1.408 . S
C1741 C1740 1.404 . S
C1741 H1753 0.930 . S
C1742 C1738 1.524 . S
C1742 H1754 0.956 . S
C1742 H1755 0.961 . S
C1742 H1756 0.961 . S
C1743 C1740 1.539 . S
C1743 H1757 0.958 . S
C1743 H1758 0.961 . S
C1743 H1759 0.960 . S
H1744 C1728 0.931 . S
H1745 C1733 0.929 . S
H1746 C1734 0.960 . S
H1747 C1734 0.962 . S
H1748 C1734 0.960 . S
H1749 C1735 0.961 . S
H1750 C1735 0.961 . S
H1751 C1735 0.961 . S
H1752 C1736 0.931 . S
H1753 C1741 0.930 . S
H1754 C1742 0.956 . S
H1755 C1742 0.961 . S
H1756 C1742 0.961 . S
H1757 C1743 0.958 . S
H1758 C1743 0.961 . S
H1759 C1743 0.960 . S
C1760 C1761 1.391 . S
C1760 C1762 1.394 . S
C1760 H1776 0.931 . S
C1761 C1760 1.391 . S
C1761 C1765 1.376 . S
C1762 C1760 1.394 . S
C1762 C1763 1.369 . S
C1762 C1766 1.531 . S
C1763 C1762 1.369 . S
C1763 C1764 1.410 . S
C1763 C1771 1.503 . S
C1764 C1763 1.410 . S
C1764 C1765 1.392 . S
C1764 C1767 1.511 . S
C1765 C1761 1.376 . S
C1765 C1764 1.392 . S
C1765 H1777 0.929 . S
C1766 C1762 1.531 . S
C1766 H1778 0.960 . S
C1766 H1779 0.962 . S
C1766 H1780 0.960 . S
C1767 C1764 1.511 . S
C1767 H1781 0.961 . S
C1767 H1782 0.961 . S
C1767 H1783 0.961 . S
C1768 C1769 1.370 . S
C1768 C1770 1.363 . S
C1768 H1784 0.931 . S
C1769 C1768 1.370 . S
C1769 C1773 1.408 . S
C1770 C1768 1.363 . S
C1770 C1771 1.370 . S
C1770 C1774 1.524 . S
C1771 C1763 1.503 . S
C1771 C1770 1.370 . S
C1771 C1772 1.403 . S
C1772 C1771 1.403 . S
C1772 C1773 1.404 . S
C1772 C1775 1.539 . S
C1773 C1769 1.408 . S
C1773 C1772 1.404 . S
C1773 H1785 0.930 . S
C1774 C1770 1.524 . S
C1774 H1786 0.956 . S
C1774 H1787 0.961 . S
C1774 H1788 0.961 . S
C1775 C1772 1.539 . S
C1775 H1789 0.958 . S
C1775 H1790 0.961 . S
C1775 H1791 0.960 . S
H1776 C1760 0.931 . S
H1777 C1765 0.929 . S
H1778 C1766 0.960 . S
H1779 C1766 0.962 . S
H1780 C1766 0.960 . S
H1781 C1767 0.961 . S
H1782 C1767 0.961 . S
H1783 C1767 0.961 . S
H1784 C1768 0.931 . S
H1785 C1773 0.930 . S
H1786 C1774 0.956 . S
H1787 C1774 0.961 . S
H1788 C1774 0.961 . S
H1789 C1775 0.958 . S
H1790 C1775 0.961 . S
H1791 C1775 0.960 . S
C1792 C1793 1.391 . S
C1792 C1794 1.394 . S
C1792 H1808 0.931 . S
C1793 C1792 1.391 . S
C1793 C1797 1.376 . S
C1794 C1792 1.394 . S
C1794 C1795 1.369 . S
C1794 C1798 1.531 . S
C1795 C1794 1.369 . S
C1795 C1796 1.410 . S
C1795 C1803 1.503 . S
C1796 C1795 1.410 . S
C1796 C1797 1.392 . S
C1796 C1799 1.511 . S
C1797 C1793 1.376 . S
C1797 C1796 1.392 . S
C1797 H1809 0.929 . S
C1798 C1794 1.531 . S
C1798 H1810 0.960 . S
C1798 H1811 0.962 . S
C1798 H1812 0.960 . S
C1799 C1796 1.511 . S
C1799 H1813 0.961 . S
C1799 H1814 0.961 . S
C1799 H1815 0.961 . S
C1800 C1801 1.370 . S
C1800 C1802 1.363 . S
C1800 H1816 0.931 . S
C1801 C1800 1.370 . S
C1801 C1805 1.408 . S
C1802 C1800 1.363 . S
C1802 C1803 1.370 . S
C1802 C1806 1.524 . S
C1803 C1795 1.503 . S
C1803 C1802 1.370 . S
C1803 C1804 1.403 . S
C1804 C1803 1.403 . S
C1804 C1805 1.404 . S
C1804 C1807 1.539 . S
C1805 C1801 1.408 . S
C1805 C1804 1.404 . S
C1805 H1817 0.930 . S
C1806 C1802 1.524 . S
C1806 H1818 0.956 . S
C1806 H1819 0.961 . S
C1806 H1820 0.961 . S
C1807 C1804 1.539 . S
C1807 H1821 0.958 . S
C1807 H1822 0.961 . S
C1807 H1823 0.960 . S
H1808 C1792 0.931 . S
H1809 C1797 0.929 . S
H1810 C1798 0.960 . S
H1811 C1798 0.962 . S
H1812 C1798 0.960 . S
H1813 C1799 0.961 . S
H1814 C1799 0.961 . S
H1815 C1799 0.961 . S
H1816 C1800 0.931 . S
H1817 C1805 0.930 . S
H1818 C1806 0.956 . S
H1819 C1806 0.961 . S
H1820 C1806 0.961 . S
H1821 C1807 0.958 . S
H1822 C1807 0.961 . S
H1823 C1807 0.960 . S
C1824 C1825 1.391 . S
C1824 C1826 1.394 . S
C1824 H1840 0.931 . S
C1825 C1824 1.391 . S
C1825 C1829 1.376 . S
C1826 C1824 1.394 . S
C1826 C1827 1.369 . S
C1826 C1830 1.531 . S
C1827 C1826 1.369 . S
C1827 C1828 1.410 . S
C1827 C1835 1.503 . S
C1828 C1827 1.410 . S
C1828 C1829 1.392 . S
C1828 C1831 1.511 . S
C1829 C1825 1.376 . S
C1829 C1828 1.392 . S
C1829 H1841 0.929 . S
C1830 C1826 1.531 . S
C1830 H1842 0.960 . S
C1830 H1843 0.962 . S
C1830 H1844 0.960 . S
C1831 C1828 1.511 . S
C1831 H1845 0.961 . S
C1831 H1846 0.961 . S
C1831 H1847 0.961 . S
C1832 C1833 1.370 . S
C1832 C1834 1.363 . S
C1832 H1848 0.931 . S
C1833 C1832 1.370 . S
C1833 C1837 1.408 . S
C1834 C1832 1.363 . S
C1834 C1835 1.370 . S
C1834 C1838 1.524 . S
C1835 C1827 1.503 . S
C1835 C1834 1.370 . S
C1835 C1836 1.403 . S
C1836 C1835 1.403 . S
C1836 C1837 1.404 . S
C1836 C1839 1.539 . S
C1837 C1833 1.408 . S
C1837 C1836 1.404 . S
C1837 H1849 0.930 . S
C1838 C1834 1.524 . S
C1838 H1850 0.956 . S
C1838 H1851 0.961 . S
C1838 H1852 0.961 . S
C1839 C1836 1.539 . S
C1839 H1853 0.958 . S
C1839 H1854 0.961 . S
C1839 H1855 0.960 . S
H1840 C1824 0.931 . S
H1841 C1829 0.929 . S
H1842 C1830 0.960 . S
H1843 C1830 0.962 . S
H1844 C1830 0.960 . S
H1845 C1831 0.961 . S
H1846 C1831 0.961 . S
H1847 C1831 0.961 . S
H1848 C1832 0.931 . S
H1849 C1837 0.930 . S
H1850 C1838 0.956 . S
H1851 C1838 0.961 . S
H1852 C1838 0.961 . S
H1853 C1839 0.958 . S
H1854 C1839 0.961 . S
H1855 C1839 0.960 . S
C1856 C1857 1.391 . S
C1856 C1858 1.394 . S
C1856 H1872 0.931 . S
C1857 C1856 1.391 . S
C1857 C1861 1.376 . S
C1858 C1856 1.394 . S
C1858 C1859 1.369 . S
C1858 C1862 1.531 . S
C1859 C1858 1.369 . S
C1859 C1860 1.410 . S
C1859 C1867 1.503 . S
C1860 C1859 1.410 . S
C1860 C1861 1.392 . S
C1860 C1863 1.511 . S
C1861 C1857 1.376 . S
C1861 C1860 1.392 . S
C1861 H1873 0.929 . S
C1862 C1858 1.531 . S
C1862 H1874 0.960 . S
C1862 H1875 0.962 . S
C1862 H1876 0.960 . S
C1863 C1860 1.511 . S
C1863 H1877 0.961 . S
C1863 H1878 0.961 . S
C1863 H1879 0.961 . S
C1864 C1865 1.370 . S
C1864 C1866 1.363 . S
C1864 H1880 0.931 . S
C1865 C1864 1.370 . S
C1865 C1869 1.408 . S
C1866 C1864 1.363 . S
C1866 C1867 1.370 . S
C1866 C1870 1.524 . S
C1867 C1859 1.503 . S
C1867 C1866 1.370 . S
C1867 C1868 1.403 . S
C1868 C1867 1.403 . S
C1868 C1869 1.404 . S
C1868 C1871 1.539 . S
C1869 C1865 1.408 . S
C1869 C1868 1.404 . S
C1869 H1881 0.930 . S
C1870 C1866 1.524 . S
C1870 H1882 0.956 . S
C1870 H1883 0.961 . S
C1870 H1884 0.961 . S
C1871 C1868 1.539 . S
C1871 H1885 0.958 . S
C1871 H1886 0.961 . S
C1871 H1887 0.960 . S
H1872 C1856 0.931 . S
H1873 C1861 0.929 . S
H1874 C1862 0.960 . S
H1875 C1862 0.962 . S
H1876 C1862 0.960 . S
H1877 C1863 0.961 . S
H1878 C1863 0.961 . S
H1879 C1863 0.961 . S
H1880 C1864 0.931 . S
H1881 C1869 0.930 . S
H1882 C1870 0.956 . S
H1883 C1870 0.961 . S
H1884 C1870 0.961 . S
H1885 C1871 0.958 . S
H1886 C1871 0.961 . S
H1887 C1871 0.960 . S
C1888 C1889 1.391 . S
C1888 C1890 1.394 . S
C1888 H1904 0.931 . S
C1889 C1888 1.391 . S
C1889 C1893 1.376 . S
C1890 C1888 1.394 . S
C1890 C1891 1.369 . S
C1890 C1894 1.531 . S
C1891 C1890 1.369 . S
C1891 C1892 1.410 . S
C1891 C1899 1.503 . S
C1892 C1891 1.410 . S
C1892 C1893 1.392 . S
C1892 C1895 1.511 . S
C1893 C1889 1.376 . S
C1893 C1892 1.392 . S
C1893 H1905 0.929 . S
C1894 C1890 1.531 . S
C1894 H1906 0.960 . S
C1894 H1907 0.962 . S
C1894 H1908 0.960 . S
C1895 C1892 1.511 . S
C1895 H1909 0.961 . S
C1895 H1910 0.961 . S
C1895 H1911 0.961 . S
C1896 C1897 1.370 . S
C1896 C1898 1.363 . S
C1896 H1912 0.931 . S
C1897 C1896 1.370 . S
C1897 C1901 1.408 . S
C1898 C1896 1.363 . S
C1898 C1899 1.370 . S
C1898 C1902 1.524 . S
C1899 C1891 1.503 . S
C1899 C1898 1.370 . S
C1899 C1900 1.403 . S
C1900 C1899 1.403 . S
C1900 C1901 1.404 . S
C1900 C1903 1.539 . S
C1901 C1897 1.408 . S
C1901 C1900 1.404 . S
C1901 H1913 0.930 . S
C1902 C1898 1.524 . S
C1902 H1914 0.956 . S
C1902 H1915 0.961 . S
C1902 H1916 0.961 . S
C1903 C1900 1.539 . S
C1903 H1917 0.958 . S
C1903 H1918 0.961 . S
C1903 H1919 0.960 . S
H1904 C1888 0.931 . S
H1905 C1893 0.929 . S
H1906 C1894 0.960 . S
H1907 C1894 0.962 . S
H1908 C1894 0.960 . S
H1909 C1895 0.961 . S
H1910 C1895 0.961 . S
H1911 C1895 0.961 . S
H1912 C1896 0.931 . S
H1913 C1901 0.930 . S
H1914 C1902 0.956 . S
H1915 C1902 0.961 . S
H1916 C1902 0.961 . S
H1917 C1903 0.958 . S
H1918 C1903 0.961 . S
H1919 C1903 0.960 . S
C1920 C1921 1.391 . S
C1920 C1922 1.394 . S
C1920 H1936 0.931 . S
C1921 C1920 1.391 . S
C1921 C1925 1.376 . S
C1922 C1920 1.394 . S
C1922 C1923 1.369 . S
C1922 C1926 1.531 . S
C1923 C1922 1.369 . S
C1923 C1924 1.410 . S
C1923 C1931 1.503 . S
C1924 C1923 1.410 . S
C1924 C1925 1.392 . S
C1924 C1927 1.511 . S
C1925 C1921 1.376 . S
C1925 C1924 1.392 . S
C1925 H1937 0.929 . S
C1926 C1922 1.531 . S
C1926 H1938 0.960 . S
C1926 H1939 0.962 . S
C1926 H1940 0.960 . S
C1927 C1924 1.511 . S
C1927 H1941 0.961 . S
C1927 H1942 0.961 . S
C1927 H1943 0.961 . S
C1928 C1929 1.370 . S
C1928 C1930 1.363 . S
C1928 H1944 0.931 . S
C1929 C1928 1.370 . S
C1929 C1933 1.408 . S
C1930 C1928 1.363 . S
C1930 C1931 1.370 . S
C1930 C1934 1.524 . S
C1931 C1923 1.503 . S
C1931 C1930 1.370 . S
C1931 C1932 1.403 . S
C1932 C1931 1.403 . S
C1932 C1933 1.404 . S
C1932 C1935 1.539 . S
C1933 C1929 1.408 . S
C1933 C1932 1.404 . S
C1933 H1945 0.930 . S
C1934 C1930 1.524 . S
C1934 H1946 0.956 . S
C1934 H1947 0.961 . S
C1934 H1948 0.961 . S
C1935 C1932 1.539 . S
C1935 H1949 0.958 . S
C1935 H1950 0.961 . S
C1935 H1951 0.960 . S
H1936 C1920 0.931 . S
H1937 C1925 0.929 . S
H1938 C1926 0.960 . S
H1939 C1926 0.962 . S
H1940 C1926 0.960 . S
H1941 C1927 0.961 . S
H1942 C1927 0.961 . S
H1943 C1927 0.961 . S
H1944 C1928 0.931 . S
H1945 C1933 0.930 . S
H1946 C1934 0.956 . S
H1947 C1934 0.961 . S
H1948 C1934 0.961 . S
H1949 C1935 0.958 . S
H1950 C1935 0.961 . S
H1951 C1935 0.960 . S
C1952 C1953 1.391 . S
C1952 C1954 1.394 . S
C1952 H1968 0.931 . S
C1953 C1952 1.391 . S
C1953 C1957 1.376 . S
C1954 C1952 1.394 . S
C1954 C1955 1.369 . S
C1954 C1958 1.531 . S
C1955 C1954 1.369 . S
C1955 C1956 1.410 . S
C1955 C1963 1.503 . S
C1956 C1955 1.410 . S
C1956 C1957 1.392 . S
C1956 C1959 1.511 . S
C1957 C1953 1.376 . S
C1957 C1956 1.392 . S
C1957 H1969 0.929 . S
C1958 C1954 1.531 . S
C1958 H1970 0.960 . S
C1958 H1971 0.962 . S
C1958 H1972 0.960 . S
C1959 C1956 1.511 . S
C1959 H1973 0.961 . S
C1959 H1974 0.961 . S
C1959 H1975 0.961 . S
C1960 C1961 1.370 . S
C1960 C1962 1.363 . S
C1960 H1976 0.931 . S
C1961 C1960 1.370 . S
C1961 C1965 1.408 . S
C1962 C1960 1.363 . S
C1962 C1963 1.370 . S
C1962 C1966 1.524 . S
C1963 C1955 1.503 . S
C1963 C1962 1.370 . S
C1963 C1964 1.403 . S
C1964 C1963 1.403 . S
C1964 C1965 1.404 . S
C1964 C1967 1.539 . S
C1965 C1961 1.408 . S
C1965 C1964 1.404 . S
C1965 H1977 0.930 . S
C1966 C1962 1.524 . S
C1966 H1978 0.956 . S
C1966 H1979 0.961 . S
C1966 H1980 0.961 . S
C1967 C1964 1.539 . S
C1967 H1981 0.958 . S
C1967 H1982 0.961 . S
C1967 H1983 0.960 . S
H1968 C1952 0.931 . S
H1969 C1957 0.929 . S
H1970 C1958 0.960 . S
H1971 C1958 0.962 . S
H1972 C1958 0.960 . S
H1973 C1959 0.961 . S
H1974 C1959 0.961 . S
H1975 C1959 0.961 . S
H1976 C1960 0.931 . S
H1977 C1965 0.930 . S
H1978 C1966 0.956 . S
H1979 C1966 0.961 . S
H1980 C1966 0.961 . S
H1981 C1967 0.958 . S
H1982 C1967 0.961 . S
H1983 C1967 0.960 . S
C1984 C1985 1.391 . S
C1984 C1986 1.394 . S
C1984 H2000 0.931 . S
C1985 C1984 1.391 . S
C1985 C1989 1.376 . S
C1986 C1984 1.394 . S
C1986 C1987 1.369 . S
C1986 C1990 1.531 . S
C1987 C1986 1.369 . S
C1987 C1988 1.410 . S
C1987 C1995 1.503 . S
C1988 C1987 1.410 . S
C1988 C1989 1.392 . S
C1988 C1991 1.511 . S
C1989 C1985 1.376 . S
C1989 C1988 1.392 . S
C1989 H2001 0.929 . S
C1990 C1986 1.531 . S
C1990 H2002 0.960 . S
C1990 H2003 0.962 . S
C1990 H2004 0.960 . S
C1991 C1988 1.511 . S
C1991 H2005 0.961 . S
C1991 H2006 0.961 . S
C1991 H2007 0.961 . S
C1992 C1993 1.370 . S
C1992 C1994 1.363 . S
C1992 H2008 0.931 . S
C1993 C1992 1.370 . S
C1993 C1997 1.408 . S
C1994 C1992 1.363 . S
C1994 C1995 1.370 . S
C1994 C1998 1.524 . S
C1995 C1987 1.503 . S
C1995 C1994 1.370 . S
C1995 C1996 1.403 . S
C1996 C1995 1.403 . S
C1996 C1997 1.404 . S
C1996 C1999 1.539 . S
C1997 C1993 1.408 . S
C1997 C1996 1.404 . S
C1997 H2009 0.930 . S
C1998 C1994 1.524 . S
C1998 H2010 0.956 . S
C1998 H2011 0.961 . S
C1998 H2012 0.961 . S
C1999 C1996 1.539 . S
C1999 H2013 0.958 . S
C1999 H2014 0.961 . S
C1999 H2015 0.960 . S
H2000 C1984 0.931 . S
H2001 C1989 0.929 . S
H2002 C1990 0.960 . S
H2003 C1990 0.962 . S
H2004 C1990 0.960 . S
H2005 C1991 0.961 . S
H2006 C1991 0.961 . S
H2007 C1991 0.961 . S
H2008 C1992 0.931 . S
H2009 C1997 0.930 . S
H2010 C1998 0.956 . S
H2011 C1998 0.961 . S
H2012 C1998 0.961 . S
H2013 C1999 0.958 . S
H2014 C1999 0.961 . S
H2015 C1999 0.960 . S
C2016 C2017 1.391 . S
C2016 C2018 1.394 . S
C2016 H2032 0.931 . S
C2017 C2016 1.391 . S
C2017 C2021 1.376 . S
C2018 C2016 1.394 . S
C2018 C2019 1.369 . S
C2018 C2022 1.531 . S
C2019 C2018 1.369 . S
C2019 C2020 1.410 . S
C2019 C2027 1.503 . S
C2020 C2019 1.410 . S
C2020 C2021 1.392 . S
C2020 C2023 1.511 . S
C2021 C2017 1.376 . S
C2021 C2020 1.392 . S
C2021 H2033 0.929 . S
C2022 C2018 1.531 . S
C2022 H2034 0.960 . S
C2022 H2035 0.962 . S
C2022 H2036 0.960 . S
C2023 C2020 1.511 . S
C2023 H2037 0.961 . S
C2023 H2038 0.961 . S
C2023 H2039 0.961 . S
C2024 C2025 1.370 . S
C2024 C2026 1.363 . S
C2024 H2040 0.931 . S
C2025 C2024 1.370 . S
C2025 C2029 1.408 . S
C2026 C2024 1.363 . S
C2026 C2027 1.370 . S
C2026 C2030 1.524 . S
C2027 C2019 1.503 . S
C2027 C2026 1.370 . S
C2027 C2028 1.403 . S
C2028 C2027 1.403 . S
C2028 C2029 1.404 . S
C2028 C2031 1.539 . S
C2029 C2025 1.408 . S
C2029 C2028 1.404 . S
C2029 H2041 0.930 . S
C2030 C2026 1.524 . S
C2030 H2042 0.956 . S
C2030 H2043 0.961 . S
C2030 H2044 0.961 . S
C2031 C2028 1.539 . S
C2031 H2045 0.958 . S
C2031 H2046 0.961 . S
C2031 H2047 0.960 . S
H2032 C2016 0.931 . S
H2033 C2021 0.929 . S
H2034 C2022 0.960 . S
H2035 C2022 0.962 . S
H2036 C2022 0.960 . S
H2037 C2023 0.961 . S
H2038 C2023 0.961 . S
H2039 C2023 0.961 . S
H2040 C2024 0.931 . S
H2041 C2029 0.930 . S
H2042 C2030 0.956 . S
H2043 C2030 0.961 . S
H2044 C2030 0.961 . S
H2045 C2031 0.958 . S
H2046 C2031 0.961 . S
H2047 C2031 0.960 . S
C521 C337 2.666 . S
C513 C24 2.615 . S
C553 C342 3.071 . S
C545 C53 3.081 . S
C585 C343 1.358 . S
C577 C82 1.380 . S
C609 C137 0.307 . S
C617 C347 0.452 . S
C641 C184 2.917 . S
C649 C350 2.886 . S
C681 C351 1.365 . S
C673 C202 1.374 . S
C705 C266 0.432 . S
C713 C328 0.354 . S
C737 C293 2.625 . S
C745 C344 2.665 . S
C777 C382 2.735 . S
C769 C2 2.741 . S
C801 C57 0.743 . S
C809 C408 0.890 . S
C841 C360 0.709 . S
C833 C106 0.656 . S
C873 C415 0.932 . S
C865 C143 0.989 . S
C897 C162 1.039 . S
C905 C369 1.021 . S
C937 C411 0.736 1_556 S
C929 C226 0.810 . S
C961 C264 2.423 . S
C969 C375 2.385 . S
C993 C297 0.380 . S
C1001 C406 0.554 1_556 S
C1025 C26 0.640 . S
C1033 C414 0.705 . S
C1057 C186 0.284 . S
C1065 C401 0.343 . S
C1097 C379 2.283 . S
C1089 C224 2.310 . S
C1129 C407 1.751 . S
C1121 C242 1.796 . S
C1153 C303 3.187 . S
C1161 C374 3.098 . S
C1185 C104 2.034 . S
C1193 C392 2.007 . S
C1225 C383 2.819 . S
C1217 C133 2.845 . S
C1249 C63 1.674 . S
C1257 C376 1.685 . S
C1281 C304 2.582 . S
C1289 C438 2.577 . S
C1313 C173 2.887 . S
C1321 C433 2.860 . S
C1353 C447 1.317 . S
C1345 C223 1.330 . S
C1385 C424 0.281 . S
C1377 C257 0.304 . S
C1409 C64 3.066 . S
C1417 C440 3.042 . S
C1449 C439 1.335 . S
C1441 C103 1.359 . S
C1473 C146 0.448 . S
C1481 C443 0.341 . S
C1505 C13 2.579 . S
C1513 C446 2.584 . S
C1537 C282 3.197 . S
C1545 C472 3.206 . S
C1577 C488 0.440 . S
C1569 C177 0.273 . S
C1601 C213 2.353 . S
C1609 C470 2.307 . S
C1633 C263 1.827 . S
C1641 C503 1.734 . S
C1673 C479 1.707 . S
C1665 C42 1.676 . S
C1697 C93 2.043 . S
C1705 C497 2.048 . S
C1737 C475 2.758 . S
C1729 C144 2.843 . S
C1769 C510 0.651 . S
C1761 C17 0.744 . S
C1801 C502 0.484 . S
C1793 C306 0.338 . S
C1825 C66 0.686 . S
C1833 C507 0.819 . S
C1857 C97 0.735 . S
C1865 C478 0.699 . S
C1897 C511 1.011 . S
C1889 C122 1.015 . S
C1921 C23 2.771 . S
C1929 C465 2.757 . S
C1953 C217 0.747 . S
C1961 C504 0.794 . S
C1993 C456 2.415 . S
C1985 C253 2.424 . S
C2025 C471 1.033 . S
C2017 C183 1.005 . S
