# Generated by pormake.
# Topology gar, (4,6)-cn, num edge types: 1
# Building blocks:
#     Node 0, Type 0, BuildingBlock: QUQFOY_clean_sbu_1, # of connection points: 4
#     Node 1, Type 0, BuildingBlock: QUQFOY_clean_sbu_1, # of connection points: 4
#     Node 2, Type 0, BuildingBlock: QUQFOY_clean_sbu_1, # of connection points: 4
#     Node 3, Type 0, BuildingBlock: QUQFOY_clean_sbu_1, # of connection points: 4
#     Node 4, Type 0, BuildingBlock: QUQFOY_clean_sbu_1, # of connection points: 4
#     Node 5, Type 0, BuildingBlock: QUQFOY_clean_sbu_1, # of connection points: 4
#     Node 6, Type 0, BuildingBlock: QUQFOY_clean_sbu_1, # of connection points: 4
#     Node 7, Type 0, BuildingBlock: QUQFOY_clean_sbu_1, # of connection points: 4
#     Node 8, Type 0, BuildingBlock: QUQFOY_clean_sbu_1, # of connection points: 4
#     Node 9, Type 0, BuildingBlock: QUQFOY_clean_sbu_1, # of connection points: 4
#     Node 10, Type 0, BuildingBlock: QUQFOY_clean_sbu_1, # of connection points: 4
#     Node 11, Type 0, BuildingBlock: QUQFOY_clean_sbu_1, # of connection points: 4
#     Node 12, Type 0, BuildingBlock: QUQFOY_clean_sbu_1, # of connection points: 4
#     Node 13, Type 0, BuildingBlock: QUQFOY_clean_sbu_1, # of connection points: 4
#     Node 14, Type 0, BuildingBlock: QUQFOY_clean_sbu_1, # of connection points: 4
#     Node 15, Type 0, BuildingBlock: QUQFOY_clean_sbu_1, # of connection points: 4
#     Node 16, Type 0, BuildingBlock: QUQFOY_clean_sbu_1, # of connection points: 4
#     Node 17, Type 0, BuildingBlock: QUQFOY_clean_sbu_1, # of connection points: 4
#     Node 18, Type 0, BuildingBlock: QUQFOY_clean_sbu_1, # of connection points: 4
#     Node 19, Type 0, BuildingBlock: QUQFOY_clean_sbu_1, # of connection points: 4
#     Node 20, Type 0, BuildingBlock: QUQFOY_clean_sbu_1, # of connection points: 4
#     Node 21, Type 0, BuildingBlock: QUQFOY_clean_sbu_1, # of connection points: 4
#     Node 22, Type 0, BuildingBlock: QUQFOY_clean_sbu_1, # of connection points: 4
#     Node 23, Type 0, BuildingBlock: QUQFOY_clean_sbu_1, # of connection points: 4
#     Node 24, Type 1, BuildingBlock: PAMTUU_clean_sbu_0, # of connection points: 6
#     Node 25, Type 1, BuildingBlock: PAMTUU_clean_sbu_0, # of connection points: 6
#     Node 26, Type 1, BuildingBlock: PAMTUU_clean_sbu_0, # of connection points: 6
#     Node 27, Type 1, BuildingBlock: PAMTUU_clean_sbu_0, # of connection points: 6
#     Node 28, Type 1, BuildingBlock: PAMTUU_clean_sbu_0, # of connection points: 6
#     Node 29, Type 1, BuildingBlock: PAMTUU_clean_sbu_0, # of connection points: 6
#     Node 30, Type 1, BuildingBlock: PAMTUU_clean_sbu_0, # of connection points: 6
#     Node 31, Type 1, BuildingBlock: PAMTUU_clean_sbu_0, # of connection points: 6
#     Node 32, Type 1, BuildingBlock: PAMTUU_clean_sbu_0, # of connection points: 6
#     Node 33, Type 1, BuildingBlock: PAMTUU_clean_sbu_0, # of connection points: 6
#     Node 34, Type 1, BuildingBlock: PAMTUU_clean_sbu_0, # of connection points: 6
#     Node 35, Type 1, BuildingBlock: PAMTUU_clean_sbu_0, # of connection points: 6
#     Node 36, Type 1, BuildingBlock: PAMTUU_clean_sbu_0, # of connection points: 6
#     Node 37, Type 1, BuildingBlock: PAMTUU_clean_sbu_0, # of connection points: 6
#     Node 38, Type 1, BuildingBlock: PAMTUU_clean_sbu_0, # of connection points: 6
#     Node 39, Type 1, BuildingBlock: PAMTUU_clean_sbu_0, # of connection points: 6
#     Edge 40, Type (0, 1), BuildingBlock: KIFKEQ_clean_linker_1, # of connection points: 2
#     Edge 41, Type (0, 1), BuildingBlock: KIFKEQ_clean_linker_1, # of connection points: 2
#     Edge 42, Type (0, 1), BuildingBlock: KIFKEQ_clean_linker_1, # of connection points: 2
#     Edge 43, Type (0, 1), BuildingBlock: KIFKEQ_clean_linker_1, # of connection points: 2
#     Edge 44, Type (0, 1), BuildingBlock: KIFKEQ_clean_linker_1, # of connection points: 2
#     Edge 45, Type (0, 1), BuildingBlock: KIFKEQ_clean_linker_1, # of connection points: 2
#     Edge 46, Type (0, 1), BuildingBlock: KIFKEQ_clean_linker_1, # of connection points: 2
#     Edge 47, Type (0, 1), BuildingBlock: KIFKEQ_clean_linker_1, # of connection points: 2
#     Edge 48, Type (0, 1), BuildingBlock: KIFKEQ_clean_linker_1, # of connection points: 2
#     Edge 49, Type (0, 1), BuildingBlock: KIFKEQ_clean_linker_1, # of connection points: 2
#     Edge 50, Type (0, 1), BuildingBlock: KIFKEQ_clean_linker_1, # of connection points: 2
#     Edge 51, Type (0, 1), BuildingBlock: KIFKEQ_clean_linker_1, # of connection points: 2
#     Edge 52, Type (0, 1), BuildingBlock: KIFKEQ_clean_linker_1, # of connection points: 2
#     Edge 53, Type (0, 1), BuildingBlock: KIFKEQ_clean_linker_1, # of connection points: 2
#     Edge 54, Type (0, 1), BuildingBlock: KIFKEQ_clean_linker_1, # of connection points: 2
#     Edge 55, Type (0, 1), BuildingBlock: KIFKEQ_clean_linker_1, # of connection points: 2
#     Edge 56, Type (0, 1), BuildingBlock: KIFKEQ_clean_linker_1, # of connection points: 2
#     Edge 57, Type (0, 1), BuildingBlock: KIFKEQ_clean_linker_1, # of connection points: 2
#     Edge 58, Type (0, 1), BuildingBlock: KIFKEQ_clean_linker_1, # of connection points: 2
#     Edge 59, Type (0, 1), BuildingBlock: KIFKEQ_clean_linker_1, # of connection points: 2
#     Edge 60, Type (0, 1), BuildingBlock: KIFKEQ_clean_linker_1, # of connection points: 2
#     Edge 61, Type (0, 1), BuildingBlock: KIFKEQ_clean_linker_1, # of connection points: 2
#     Edge 62, Type (0, 1), BuildingBlock: KIFKEQ_clean_linker_1, # of connection points: 2
#     Edge 63, Type (0, 1), BuildingBlock: KIFKEQ_clean_linker_1, # of connection points: 2
#     Edge 64, Type (0, 1), BuildingBlock: KIFKEQ_clean_linker_1, # of connection points: 2
#     Edge 65, Type (0, 1), BuildingBlock: KIFKEQ_clean_linker_1, # of connection points: 2
#     Edge 66, Type (0, 1), BuildingBlock: KIFKEQ_clean_linker_1, # of connection points: 2
#     Edge 67, Type (0, 1), BuildingBlock: KIFKEQ_clean_linker_1, # of connection points: 2
#     Edge 68, Type (0, 1), BuildingBlock: KIFKEQ_clean_linker_1, # of connection points: 2
#     Edge 69, Type (0, 1), BuildingBlock: KIFKEQ_clean_linker_1, # of connection points: 2
#     Edge 70, Type (0, 1), BuildingBlock: KIFKEQ_clean_linker_1, # of connection points: 2
#     Edge 71, Type (0, 1), BuildingBlock: KIFKEQ_clean_linker_1, # of connection points: 2
#     Edge 72, Type (0, 1), BuildingBlock: KIFKEQ_clean_linker_1, # of connection points: 2
#     Edge 73, Type (0, 1), BuildingBlock: KIFKEQ_clean_linker_1, # of connection points: 2
#     Edge 74, Type (0, 1), BuildingBlock: KIFKEQ_clean_linker_1, # of connection points: 2
#     Edge 75, Type (0, 1), BuildingBlock: KIFKEQ_clean_linker_1, # of connection points: 2
#     Edge 76, Type (0, 1), BuildingBlock: KIFKEQ_clean_linker_1, # of connection points: 2
#     Edge 77, Type (0, 1), BuildingBlock: KIFKEQ_clean_linker_1, # of connection points: 2
#     Edge 78, Type (0, 1), BuildingBlock: KIFKEQ_clean_linker_1, # of connection points: 2
#     Edge 79, Type (0, 1), BuildingBlock: KIFKEQ_clean_linker_1, # of connection points: 2
#     Edge 80, Type (0, 1), BuildingBlock: KIFKEQ_clean_linker_1, # of connection points: 2
#     Edge 81, Type (0, 1), BuildingBlock: KIFKEQ_clean_linker_1, # of connection points: 2
#     Edge 82, Type (0, 1), BuildingBlock: KIFKEQ_clean_linker_1, # of connection points: 2
#     Edge 83, Type (0, 1), BuildingBlock: KIFKEQ_clean_linker_1, # of connection points: 2
#     Edge 84, Type (0, 1), BuildingBlock: KIFKEQ_clean_linker_1, # of connection points: 2
#     Edge 85, Type (0, 1), BuildingBlock: KIFKEQ_clean_linker_1, # of connection points: 2
#     Edge 86, Type (0, 1), BuildingBlock: KIFKEQ_clean_linker_1, # of connection points: 2
#     Edge 87, Type (0, 1), BuildingBlock: KIFKEQ_clean_linker_1, # of connection points: 2
#     Edge 88, Type (0, 1), BuildingBlock: KIFKEQ_clean_linker_1, # of connection points: 2
#     Edge 89, Type (0, 1), BuildingBlock: KIFKEQ_clean_linker_1, # of connection points: 2
#     Edge 90, Type (0, 1), BuildingBlock: KIFKEQ_clean_linker_1, # of connection points: 2
#     Edge 91, Type (0, 1), BuildingBlock: KIFKEQ_clean_linker_1, # of connection points: 2
#     Edge 92, Type (0, 1), BuildingBlock: KIFKEQ_clean_linker_1, # of connection points: 2
#     Edge 93, Type (0, 1), BuildingBlock: KIFKEQ_clean_linker_1, # of connection points: 2
#     Edge 94, Type (0, 1), BuildingBlock: KIFKEQ_clean_linker_1, # of connection points: 2
#     Edge 95, Type (0, 1), BuildingBlock: KIFKEQ_clean_linker_1, # of connection points: 2
#     Edge 96, Type (0, 1), BuildingBlock: KIFKEQ_clean_linker_1, # of connection points: 2
#     Edge 97, Type (0, 1), BuildingBlock: KIFKEQ_clean_linker_1, # of connection points: 2
#     Edge 98, Type (0, 1), BuildingBlock: KIFKEQ_clean_linker_1, # of connection points: 2
#     Edge 99, Type (0, 1), BuildingBlock: KIFKEQ_clean_linker_1, # of connection points: 2
#     Edge 100, Type (0, 1), BuildingBlock: KIFKEQ_clean_linker_1, # of connection points: 2
#     Edge 101, Type (0, 1), BuildingBlock: KIFKEQ_clean_linker_1, # of connection points: 2
#     Edge 102, Type (0, 1), BuildingBlock: KIFKEQ_clean_linker_1, # of connection points: 2
#     Edge 103, Type (0, 1), BuildingBlock: KIFKEQ_clean_linker_1, # of connection points: 2
#     Edge 104, Type (0, 1), BuildingBlock: KIFKEQ_clean_linker_1, # of connection points: 2
#     Edge 105, Type (0, 1), BuildingBlock: KIFKEQ_clean_linker_1, # of connection points: 2
#     Edge 106, Type (0, 1), BuildingBlock: KIFKEQ_clean_linker_1, # of connection points: 2
#     Edge 107, Type (0, 1), BuildingBlock: KIFKEQ_clean_linker_1, # of connection points: 2
#     Edge 108, Type (0, 1), BuildingBlock: KIFKEQ_clean_linker_1, # of connection points: 2
#     Edge 109, Type (0, 1), BuildingBlock: KIFKEQ_clean_linker_1, # of connection points: 2
#     Edge 110, Type (0, 1), BuildingBlock: KIFKEQ_clean_linker_1, # of connection points: 2
#     Edge 111, Type (0, 1), BuildingBlock: KIFKEQ_clean_linker_1, # of connection points: 2
#     Edge 112, Type (0, 1), BuildingBlock: KIFKEQ_clean_linker_1, # of connection points: 2
#     Edge 113, Type (0, 1), BuildingBlock: KIFKEQ_clean_linker_1, # of connection points: 2
#     Edge 114, Type (0, 1), BuildingBlock: KIFKEQ_clean_linker_1, # of connection points: 2
#     Edge 115, Type (0, 1), BuildingBlock: KIFKEQ_clean_linker_1, # of connection points: 2
#     Edge 116, Type (0, 1), BuildingBlock: KIFKEQ_clean_linker_1, # of connection points: 2
#     Edge 117, Type (0, 1), BuildingBlock: KIFKEQ_clean_linker_1, # of connection points: 2
#     Edge 118, Type (0, 1), BuildingBlock: KIFKEQ_clean_linker_1, # of connection points: 2
#     Edge 119, Type (0, 1), BuildingBlock: KIFKEQ_clean_linker_1, # of connection points: 2
#     Edge 120, Type (0, 1), BuildingBlock: KIFKEQ_clean_linker_1, # of connection points: 2
#     Edge 121, Type (0, 1), BuildingBlock: KIFKEQ_clean_linker_1, # of connection points: 2
#     Edge 122, Type (0, 1), BuildingBlock: KIFKEQ_clean_linker_1, # of connection points: 2
#     Edge 123, Type (0, 1), BuildingBlock: KIFKEQ_clean_linker_1, # of connection points: 2
#     Edge 124, Type (0, 1), BuildingBlock: KIFKEQ_clean_linker_1, # of connection points: 2
#     Edge 125, Type (0, 1), BuildingBlock: KIFKEQ_clean_linker_1, # of connection points: 2
#     Edge 126, Type (0, 1), BuildingBlock: KIFKEQ_clean_linker_1, # of connection points: 2
#     Edge 127, Type (0, 1), BuildingBlock: KIFKEQ_clean_linker_1, # of connection points: 2
#     Edge 128, Type (0, 1), BuildingBlock: KIFKEQ_clean_linker_1, # of connection points: 2
#     Edge 129, Type (0, 1), BuildingBlock: KIFKEQ_clean_linker_1, # of connection points: 2
#     Edge 130, Type (0, 1), BuildingBlock: KIFKEQ_clean_linker_1, # of connection points: 2
#     Edge 131, Type (0, 1), BuildingBlock: KIFKEQ_clean_linker_1, # of connection points: 2
#     Edge 132, Type (0, 1), BuildingBlock: KIFKEQ_clean_linker_1, # of connection points: 2
#     Edge 133, Type (0, 1), BuildingBlock: KIFKEQ_clean_linker_1, # of connection points: 2
#     Edge 134, Type (0, 1), BuildingBlock: KIFKEQ_clean_linker_1, # of connection points: 2
#     Edge 135, Type (0, 1), BuildingBlock: KIFKEQ_clean_linker_1, # of connection points: 2
# Relax obj value: 0.190
# Max RMSD: 0.340
# Mean RMSD: 0.184
data_MOF--net-gar--node1-QUQFOY_clean_sbu_1--node2-PAMTUU_clean_sbu_0--edge1-KIFKEQ_clean_linker_1
_symmetry_space_group_name_H-M    P1
_symmetry_Int_Tables_number       1
_symmetry_cell_setting            triclinic
loop_
_symmetry_equiv_pos_as_xyz
'x, y, z'
_cell_length_a     61.391711
_cell_length_b     57.370728
_cell_length_c     61.581319
_cell_angle_alpha  93.87147
_cell_angle_beta   94.213322
_cell_angle_gamma 107.96396
loop_
_atom_site_label
_atom_site_type_symbol
_atom_site_fract_x
_atom_site_fract_y
_atom_site_fract_z
_atom_type_partial_charge
O0 O 0.06489 0.24685 0.4074 0.0
Cd1 Cd 0.06921 0.26927 0.37983 0.0
Cd2 Cd 0.04643 0.29809 0.42399 0.0
O3 O 0.05259 0.26459 0.43564 0.0
O4 O 0.08844 0.25501 0.35727 0.0
O5 O 0.10428 0.29038 0.3756 0.0
C6 C 0.10702 0.27354 0.36197 0.0
C7 C 0.05042 0.33773 0.44628 0.0
C8 C 0.05882 0.24657 0.42707 0.0
C9 C 1.0199 0.28333 0.37499 0.0
O10 O 1.02287 0.29182 0.39522 0.0
O11 O 0.03544 0.27508 0.36655 0.0
O12 O 0.03401 0.31759 0.44781 0.0
O13 O 0.06539 0.33545 0.43327 0.0
O14 O 0.034 0.75915 0.66902 0.0
Cd15 Cd 0.0372 0.78655 0.69664 0.0
Cd16 Cd 0.06706 0.81799 0.65792 0.0
O17 O 0.05363 0.78012 0.64337 0.0
O18 O 1.01117 0.77248 0.71867 0.0
O19 O 1.01139 0.80447 0.70216 0.0
C20 C 1.00112 0.78892 0.71534 0.0
C21 C 0.06643 0.85488 0.63753 0.0
C22 C 0.04228 0.75945 0.65025 0.0
C23 C 0.09392 0.8096 0.70234 0.0
O24 O 0.09343 0.81912 0.68391 0.0
O25 O 0.0746 0.79833 0.71015 0.0
O26 O 0.0805 0.84256 0.6342 0.0
O27 O 0.05269 0.8467 0.65221 0.0
O28 O 0.60121 0.78443 0.89741 0.0
Cd29 Cd 0.57933 0.77887 0.92445 0.0
Cd30 Cd 0.55288 0.80511 0.88096 0.0
O31 O 0.58575 0.79944 0.86942 0.0
O32 O 0.59247 0.76011 0.94831 0.0
O33 O 0.55992 0.74193 0.92902 0.0
C34 C 0.57525 0.74017 0.94384 0.0
C35 C 0.51345 0.80095 0.86088 0.0
C36 C 0.6024 0.79211 0.87808 0.0
C37 C 0.566 0.83005 0.93146 0.0
O38 O 0.55906 0.82857 0.91101 0.0
O39 O 0.573 0.81271 0.93914 0.0
O40 O 0.53191 0.81897 0.85913 0.0
O41 O 0.51721 0.78427 0.87242 0.0
O42 O 0.54673 0.24301 0.17027 0.0
Cd43 Cd 0.54956 0.27042 0.19759 0.0
Cd44 Cd 0.57979 0.30202 0.16027 0.0
O45 O 0.56669 0.26428 0.14501 0.0
O46 O 0.52311 0.25677 0.21914 0.0
O47 O 0.52377 0.28846 0.20191 0.0
C48 C 0.51319 0.27316 0.21513 0.0
C49 C 0.57883 0.33945 0.1409 0.0
C50 C 0.55526 0.24348 0.15164 0.0
C51 C 0.60602 0.29335 0.20477 0.0
O52 O 0.60601 0.30322 0.18649 0.0
O53 O 0.58648 0.28181 0.21199 0.0
O54 O 0.59306 0.32744 0.13716 0.0
O55 O 0.56505 0.33061 0.15538 0.0
O56 O 0.10225 0.77131 0.14857 0.0
Cd57 Cd 0.10612 0.8042 0.16681 0.0
Cd58 Cd 0.12503 0.82196 0.13087 0.0
O59 O 0.11218 0.78532 0.11706 0.0
O60 O 0.08826 0.79311 0.19207 0.0
O61 O 0.07927 0.81746 0.16923 0.0
C62 C 0.07485 0.8054 0.18619 0.0
C63 C 0.11336 0.85451 0.11776 0.0
C64 C 0.10494 0.76729 0.12854 0.0
C65 C 0.15689 0.83013 0.17217 0.0
O66 O 0.15561 0.83047 0.15146 0.0
O67 O 0.13869 0.82243 0.1817 0.0
O68 O 0.12833 0.84665 0.1085 0.0
O69 O 0.10453 0.84343 0.13416 0.0
O70 O 0.57604 0.7881 0.4483 0.0
Cd71 Cd 0.55231 0.78356 0.47114 0.0
Cd72 Cd 0.52465 0.79075 0.43257 0.0
O73 O 0.55287 0.78662 0.41869 0.0
O74 O 0.56548 0.76833 0.49514 0.0
O75 O 0.53319 0.74839 0.47468 0.0
C76 C 0.5489 0.74809 0.48975 0.0
C77 C 0.49107 0.78078 0.40797 0.0
C78 C 0.57249 0.78761 0.42765 0.0
C79 C 0.53782 0.82923 0.47287 0.0
O80 O 0.52957 0.82224 0.4531 0.0
O81 O 0.54636 0.81564 0.48407 0.0
O82 O 0.50885 0.79927 0.4062 0.0
O83 O 0.49213 0.76745 0.42382 0.0
O84 O 0.60523 0.27419 0.64967 0.0
Cd85 Cd 0.60821 0.30457 0.67094 0.0
Cd86 Cd 0.63042 0.32807 0.63857 0.0
O87 O 0.61945 0.29289 0.62129 0.0
O88 O 0.58634 0.29085 0.69276 0.0
O89 O 0.58272 0.31987 0.67234 0.0
C90 C 0.57503 0.30538 0.68712 0.0
C91 C 0.61957 0.36161 0.62646 0.0
C92 C 0.61043 0.27311 0.63011 0.0
C93 C 0.65866 0.33041 0.68165 0.0
O94 O 0.65904 0.33518 0.66172 0.0
O95 O 0.63965 0.31963 0.68896 0.0
O96 O 0.63589 0.35516 0.61833 0.0
O97 O 0.60906 0.34869 0.6412 0.0
O98 O 0.03082 0.23215 0.95123 0.0
Cd99 Cd 0.0308 0.26055 0.93241 0.0
Cd100 Cd 1.01215 0.27507 0.96909 0.0
O101 O 1.02008 0.24517 0.98194 0.0
O102 O 0.04717 0.25344 0.90735 0.0
O103 O 0.06043 0.28762 0.92961 0.0
C104 C 0.06288 0.27425 0.91282 0.0
C105 C 1.02551 0.3158 0.98548 0.0
C106 C 0.02675 0.22938 0.97099 0.0
C107 C 0.98306 0.26525 0.92585 0.0
O108 O 0.98354 0.26887 0.94652 0.0
O109 O 1.00036 0.2623 0.91732 0.0
O110 O 1.00919 0.29916 0.99302 0.0
O111 O 0.03536 0.3089 0.96951 0.0
O112 O 0.44307 0.07071 0.2951 0.0
Cd113 Cd 0.4361 0.066 0.32727 0.0
Cd114 Cd 0.47958 0.06618 0.33091 0.0
O115 O 0.48058 0.07815 0.30051 0.0
O116 O 0.40333 0.06426 0.32644 0.0
O117 O 0.43093 0.09324 0.34687 0.0
C118 C 0.40932 0.08317 0.34057 0.0
C119 C 0.50291 0.08931 0.36068 0.0
C120 C 0.46277 0.07661 0.28795 0.0
C121 C 0.4457 0.0192 0.33731 0.0
O122 O 0.46626 0.02878 0.33297 0.0
O123 O 0.43218 0.032 0.33775 0.0
O124 O 0.51087 0.07748 0.34632 0.0
O125 O 0.48168 0.08877 0.35747 0.0
O126 O 0.3208 0.23429 0.58428 0.0
Cd127 Cd 0.31594 0.20758 0.55852 0.0
Cd128 Cd 0.29834 0.24112 0.53605 0.0
O129 O 0.30705 0.26115 0.56856 0.0
O130 O 0.33157 0.18502 0.57133 0.0
O131 O 0.34171 0.20291 0.54148 0.0
C132 C 0.34473 0.18842 0.55574 0.0
C133 C 0.30836 0.25299 0.49988 0.0
C134 C 0.31543 0.25402 0.58577 0.0
C135 C 0.26546 0.19017 0.54178 0.0
O136 O 0.26837 0.21114 0.53461 0.0
O137 O 0.28235 0.18506 0.55116 0.0
O138 O 0.29324 0.25997 0.50978 0.0
O139 O 0.31929 0.24104 0.51108 0.0
O140 O 0.17611 0.06209 0.80331 0.0
Cd141 Cd 0.19708 0.06581 0.83202 0.0
Cd142 Cd 0.15898 0.06631 0.84723 0.0
O143 O 0.1428 0.05226 0.81699 0.0
O144 O 0.22549 0.06472 0.81938 0.0
O145 O 0.20705 0.03699 0.84042 0.0
C146 C 0.22374 0.04478 0.82845 0.0
C147 C 0.14864 0.04534 0.8772 0.0
C148 C 0.15428 0.05493 0.80057 0.0
C149 C 0.19632 0.11307 0.85357 0.0
O150 O 0.17457 0.10381 0.85141 0.0
O151 O 0.20881 0.09961 0.84973 0.0
O152 O 0.13587 0.05684 0.86812 0.0
O153 O 0.16753 0.0456 0.86904 0.0
O154 O 0.29175 0.90661 0.05511 0.0
Cd155 Cd 0.30311 0.93928 0.04158 0.0
Cd156 Cd 0.30658 0.91158 1.00498 0.0
O157 O 0.30088 0.88603 0.0277 0.0
O158 O 0.29421 0.96362 0.06001 0.0
O159 O 0.2822 0.95373 0.02472 0.0
C160 C 0.28279 0.96699 0.04272 0.0
C161 C 0.29467 0.89304 0.96948 0.0
C162 C 0.29406 0.88688 0.0466 0.0
C163 C 0.34795 0.95362 0.02348 0.0
O164 O 0.33764 0.93901 0.00692 0.0
O165 O 0.33777 0.95484 0.04049 0.0
O166 O 0.31165 0.88997 0.98103 0.0
O167 O 0.28406 0.90706 0.97801 0.0
O168 O 0.3143 0.36847 0.09222 0.0
Cd169 Cd 0.31602 0.39005 0.0662 0.0
Cd170 Cd 0.32851 0.35075 0.04603 0.0
O171 O 0.31755 0.3343 0.07596 0.0
O172 O 0.30349 0.41648 0.07734 0.0
O173 O 0.28728 0.39103 0.04808 0.0
C174 C 0.28738 0.40942 0.06145 0.0
C175 C 0.31822 0.33739 0.00746 0.0
C176 C 0.31457 0.34645 0.09327 0.0
C177 C 0.36441 0.40122 0.05351 0.0
O178 O 0.36041 0.37808 0.04998 0.0
O179 O 0.34842 0.40974 0.05848 0.0
O180 O 0.33072 0.32794 0.01966 0.0
O181 O 0.30942 0.35238 0.01751 0.0
O182 O 0.83969 0.15008 0.12002 0.0
Cd183 Cd 0.82524 0.12605 0.09287 0.0
Cd184 Cd 0.81838 0.16512 0.07488 0.0
O185 O 0.83613 0.18233 0.10433 0.0
O186 O 0.83922 0.09942 0.08986 0.0
O187 O 0.84168 0.12736 0.06603 0.0
C188 C 0.84618 0.10793 0.07181 0.0
C189 C 0.82294 0.18894 0.04515 0.0
C190 C 0.84252 0.17301 0.12081 0.0
C191 C 0.77693 0.12127 0.08161 0.0
O192 O 0.78499 0.14239 0.07486 0.0
O193 O 0.79031 0.1106 0.08996 0.0
O194 O 0.81261 0.19351 0.06155 0.0
O195 O 0.83146 0.17102 0.04577 0.0
O196 O 0.17431 0.50618 0.21403 0.0
Cd197 Cd 0.19997 0.52742 0.2368 0.0
Cd198 Cd 0.16646 0.53465 0.25906 0.0
O199 O 0.14696 0.51134 0.23315 0.0
O200 O 0.22653 0.515 0.23844 0.0
O201 O 0.20469 0.5152 0.26567 0.0
C202 C 0.22222 0.51052 0.25824 0.0
C203 C 0.14898 0.53197 0.29143 0.0
C204 C 0.15312 0.50194 0.21638 0.0
C205 C 0.20263 0.57904 0.24487 0.0
O206 O 0.18501 0.57047 0.25498 0.0
O207 O 0.21167 0.56462 0.23529 0.0
O208 O 0.14163 0.54078 0.2748 0.0
O209 O 0.16629 0.52395 0.28964 0.0
O210 O 0.80604 0.86697 0.59277 0.0
Cd211 Cd 0.81085 0.88977 0.56732 0.0
Cd212 Cd 0.82719 0.85161 0.54835 0.0
O213 O 0.81607 0.83581 0.57831 0.0
O214 O 0.79813 0.91647 0.57714 0.0
O215 O 0.78352 0.89128 0.54736 0.0
C216 C 0.78322 0.90987 0.56025 0.0
C217 C 0.81749 0.83677 0.51015 0.0
C218 C 0.80892 0.84605 0.59435 0.0
C219 C 0.86077 0.90298 0.55609 0.0
O220 O 0.85811 0.88017 0.55203 0.0
O221 O 0.84399 0.91003 0.56135 0.0
O222 O 0.83011 0.82805 0.52294 0.0
O223 O 0.80834 0.85191 0.51942 0.0
O224 O 0.93804 0.0711 0.20353 0.0
Cd225 Cd 0.9228 0.05334 0.22866 0.0
Cd226 Cd 0.96522 0.05879 0.24771 0.0
O227 O 0.97262 0.07502 0.21914 0.0
O228 O 0.89332 0.0593 0.23251 0.0
O229 O 0.92343 0.07102 0.25771 0.0
C230 C 0.90227 0.0693 0.25188 0.0
C231 C 0.99201 0.07592 0.27784 0.0
C232 C 0.95972 0.07837 0.20336 0.0
C233 C 0.93097 1.00729 0.23813 0.0
O234 O 0.95018 0.02104 0.24757 0.0
O235 O 0.91743 0.01654 0.22796 0.0
O236 O 0.99671 0.06372 0.26154 0.0
O237 O 0.972 0.07897 0.27694 0.0
O238 O 0.32506 0.65298 0.61918 0.0
Cd239 Cd 0.31368 0.63032 0.59043 0.0
Cd240 Cd 0.31229 0.67115 0.57326 0.0
O241 O 0.33018 0.68689 0.60274 0.0
O242 O 0.32478 0.60146 0.59093 0.0
O243 O 0.33539 0.63018 0.5679 0.0
C244 C 0.3364 0.60974 0.57489 0.0
C245 C 0.32142 0.69369 0.54324 0.0
C246 C 0.33185 0.67633 0.61994 0.0
C247 C 0.26739 0.63127 0.57565 0.0
O248 O 0.27748 0.65358 0.57278 0.0
O249 O 0.27894 0.6175 0.58158 0.0
O250 O 0.31206 0.70111 0.55918 0.0
O251 O 0.32634 0.67349 0.5445 0.0
O252 O 0.45339 0.59309 0.7216 0.0
Cd253 Cd 0.43371 0.57863 0.74593 0.0
Cd254 Cd 0.47455 0.57183 0.76542 0.0
O255 O 0.48467 0.58798 0.73764 0.0
O256 O 0.4068 0.59056 0.74431 0.0
O257 O 0.4323 0.59854 0.77351 0.0
C258 C 0.4134 0.60033 0.76415 0.0
C259 C 0.50581 0.57654 0.7913 0.0
C260 C 0.47457 0.59507 0.72191 0.0
C261 C 0.43081 0.52771 0.7546 0.0
O262 O 0.45126 0.53688 0.76361 0.0
O263 O 0.42064 0.54118 0.74545 0.0
O264 O 0.50277 0.56309 0.77313 0.0
O265 O 0.49104 0.58783 0.79495 0.0
O266 O 0.67971 0.01746 0.71187 0.0
Cd267 Cd 0.703 0.0361 0.73786 0.0
Cd268 Cd 0.66816 0.0473 0.75438 0.0
O269 O 0.6515 0.02747 0.72594 0.0
O270 O 0.72746 0.0209 0.74288 0.0
O271 O 0.70256 0.0226 0.76688 0.0
C272 C 0.72041 0.0167 0.76193 0.0
C273 C 0.6455 0.04091 0.78322 0.0
C274 C 0.65873 0.01654 0.71087 0.0
C275 C 0.71024 0.08913 0.74702 0.0
O276 O 0.69072 0.08235 0.75442 0.0
O277 O 0.71846 0.07332 0.73848 0.0
O278 O 0.64211 0.05379 0.76777 0.0
O279 O 0.66222 0.03178 0.7825 0.0
O280 O 0.8254 0.73656 0.08668 0.0
Cd281 Cd 0.82102 0.70968 0.06119 0.0
Cd282 Cd 0.79935 0.74166 0.03876 0.0
O283 O 0.80805 0.76094 0.07136 0.0
O284 O 0.83515 0.68675 0.07551 0.0
O285 O 0.84751 0.7037 0.04592 0.0
C286 C 0.84905 0.68912 0.0606 0.0
C287 C 0.80705 0.75534 1.00275 0.0
C288 C 0.81809 0.75502 0.08825 0.0
C289 C 0.76979 0.68994 0.04514 0.0
O290 O 0.77078 0.71042 0.03777 0.0
O291 O 0.78773 0.68648 0.05408 0.0
O292 O 0.79246 0.76161 0.01405 0.0
O293 O 0.81869 0.743 0.01246 0.0
O294 O 1.00186 0.59459 0.79177 0.0
Cd295 Cd 0.97385 0.58162 0.80938 0.0
Cd296 Cd 1.00757 0.5713 0.83585 0.0
O297 O 0.02822 0.58537 0.8125 0.0
O298 O 0.95864 0.60504 0.82242 0.0
O299 O 0.94915 0.58578 0.78914 0.0
C300 C 0.94545 0.60024 0.80428 0.0
C301 C 1.02067 0.58893 0.87089 0.0
C302 C 1.02244 0.59456 0.79577 0.0
C303 C 0.96631 0.52918 0.82228 0.0
O304 O 0.98656 0.53532 0.83178 0.0
O305 O 0.95896 0.54489 0.81324 0.0
O306 O 0.02963 0.57395 0.86128 0.0
O307 O 1.00374 0.59379 0.86053 0.0
O308 O 0.80379 0.42444 0.5451 0.0
Cd309 Cd 0.80089 0.44142 0.51694 0.0
Cd310 Cd 0.7993 0.39737 0.50112 0.0
O311 O 0.78988 0.38607 0.53078 0.0
O312 O 0.80369 0.47479 0.53006 0.0
O313 O 0.7728 0.45155 0.50923 0.0
C314 C 0.78346 0.47201 0.5209 0.0
C315 C 0.77998 0.37773 0.46823 0.0
C316 C 0.79678 0.40158 0.54746 0.0
C317 C 0.84137 0.43722 0.4967 0.0
O318 O 0.83387 0.41459 0.49969 0.0
O319 O 0.82853 0.45058 0.49902 0.0
O320 O 0.79143 0.36748 0.48067 0.0
O321 O 0.77829 0.39882 0.47518 0.0
O322 O 0.67556 0.52859 0.30941 0.0
Cd323 Cd 0.69862 0.54063 0.33715 0.0
Cd324 Cd 0.66284 0.55053 0.35227 0.0
O325 O 0.64492 0.53261 0.32361 0.0
O326 O 0.7265 0.5352 0.32668 0.0
O327 O 0.70913 0.51599 0.35361 0.0
C328 C 0.72572 0.52004 0.34123 0.0
C329 C 0.65135 0.53699 0.38514 0.0
C330 C 0.65422 0.52621 0.30752 0.0
C331 C 0.70249 0.59374 0.34947 0.0
O332 O 0.68114 0.58697 0.35166 0.0
O333 O 0.71253 0.57787 0.34543 0.0
O334 O 0.64009 0.54821 0.37356 0.0
O335 O 0.66928 0.53312 0.37783 0.0
Tb336 Tb 0.09075 0.06188 0.06295 0.0
Tb337 Tb 0.04336 0.02434 0.03673 0.0
C338 C 0.04354 0.05426 0.08111 0.0
C339 C 0.15213 0.09177 0.07488 0.0
C340 C 0.19185 0.0819 0.06276 0.0
C341 C 0.1877 0.08334 0.0849 0.0
C342 C 0.16794 0.08824 0.09091 0.0
C343 C 0.15741 0.09258 0.05304 0.0
C344 C 0.17712 0.08773 0.04706 0.0
C345 C 0.12884 0.09045 0.08027 0.0
O346 O 0.09306 0.02487 0.06552 0.0
O347 O 0.05456 1.00302 0.06084 0.0
O348 O 0.07115 0.01583 0.02188 0.0
O349 O 0.09822 0.05367 0.02992 0.0
O350 O 1.0105 0.99889 0.03744 0.0
O351 O 1.02415 1.00866 0.00677 0.0
O352 O 0.04983 0.05955 0.02243 0.0
O353 O 0.07093 0.08515 0.0518 0.0
O354 O 0.06509 0.05569 0.08607 0.0
O355 O 0.03321 0.04667 0.06134 0.0
C356 C 0.07598 1.00471 0.06728 0.0
O357 O 0.11602 0.09644 0.06525 0.0
O358 O 0.11753 0.07035 0.08845 0.0
C359 C 0.09053 0.03214 0.01845 0.0
C360 C 0.98501 1.00481 0.00973 0.0
C361 C 0.94778 0.02371 0.00602 0.0
C362 C 0.94575 1.0019 0.01604 0.0
C363 C 0.96418 0.9925 0.0178 0.0
C364 C 0.98648 0.02551 0.99822 0.0
C365 C 0.96797 0.03476 0.99627 0.0
C366 C 1.00579 0.99829 0.01636 0.0
C367 C 0.05812 0.08161 0.03311 0.0
H368 H 0.1987 0.07875 0.09734 0.0
H369 H 0.16419 0.08752 0.10782 0.0
H370 H 0.14561 0.09535 0.04026 0.0
H371 H 0.1801 0.08703 0.02993 0.0
H372 H 0.93056 0.993 0.02394 0.0
H373 H 0.96269 0.97656 0.02677 0.0
H374 H 1.00231 0.03542 0.99176 0.0
H375 H 0.96993 0.0513 0.98806 0.0
Tb376 Tb 0.30958 0.80245 0.31157 0.0
Tb377 Tb 0.3361 0.79994 0.26738 0.0
C378 C 0.29211 0.81757 0.26699 0.0
C379 C 0.29558 0.79449 0.36762 0.0
C380 C 0.30426 0.77384 0.40624 0.0
C381 C 0.28158 0.77175 0.39827 0.0
C382 C 0.27729 0.78199 0.37908 0.0
C383 C 0.31824 0.79683 0.37568 0.0
C384 C 0.32254 0.78665 0.39481 0.0
C385 C 0.29094 0.80348 0.34654 0.0
O386 O 0.3023 0.7642 0.29942 0.0
O387 O 0.30343 0.77091 0.26353 0.0
O388 O 0.35194 0.78175 0.29099 0.0
O389 O 0.34087 0.79534 0.32324 0.0
O390 O 0.34422 0.77773 0.24276 0.0
O391 O 0.35565 0.81738 0.24317 0.0
O392 O 0.35896 0.82981 0.28941 0.0
O393 O 0.33068 0.83936 0.30669 0.0
O394 O 0.28652 0.80725 0.28507 0.0
O395 O 0.31253 0.82085 0.26005 0.0
C396 C 0.29624 0.75636 0.27873 0.0
O397 O 0.30735 0.82192 0.34092 0.0
O398 O 0.28243 0.78654 0.3303 0.0
C399 C 0.35363 0.78482 0.31252 0.0
C400 C 0.34266 0.79449 0.20931 0.0
C401 C 0.32391 0.79479 0.16628 0.0
C402 C 0.34432 0.78869 0.17021 0.0
C403 C 0.35371 0.7887 0.19161 0.0
C404 C 0.32167 0.79914 0.2055 0.0
C405 C 0.31248 0.79952 0.18424 0.0
C406 C 0.35307 0.7965 0.2318 0.0
C407 C 0.35203 0.84499 0.30185 0.0
H408 H 0.26711 0.76173 0.40658 0.0
H409 H 0.25969 0.77977 0.37298 0.0
H410 H 0.33267 0.80632 0.36707 0.0
H411 H 0.3402 0.7889 0.40068 0.0
H412 H 0.35336 0.78451 0.15678 0.0
H413 H 0.36978 0.78473 0.19434 0.0
H414 H 0.31275 0.80332 0.21902 0.0
H415 H 0.297 0.80471 0.18204 0.0
Tb416 Tb 0.54159 0.04898 0.54851 0.0
Tb417 Tb 0.59529 0.05738 0.53693 0.0
C418 C 0.57639 0.0314 0.57744 0.0
C419 C 0.48659 0.06218 0.55446 0.0
C420 C 0.45787 0.09233 0.55133 0.0
C421 C 0.48155 0.10272 0.5579 0.0
C422 C 0.49579 0.08784 0.55932 0.0
C423 C 0.46305 0.05181 0.54755 0.0
C424 C 0.44884 0.06673 0.5459 0.0
C425 C 0.50119 0.04606 0.55686 0.0
O426 O 0.5586 0.08847 0.55189 0.0
O427 O 0.59568 0.08857 0.55985 0.0
O428 O 0.5821 0.07884 0.51494 0.0
O429 O 0.54377 0.05694 0.51465 0.0
O430 O 0.63017 0.06753 0.54893 0.0
O431 O 0.61935 0.05609 0.51463 0.0
O432 O 0.57368 0.02294 0.51866 0.0
O433 O 0.54309 1.0121 0.53952 0.0
O434 O 0.56084 0.04282 0.57757 0.0
O435 O 0.58836 0.03101 0.56081 0.0
C436 C 0.57994 0.09982 0.55989 0.0
O437 O 0.50592 0.03622 0.53882 0.0
O438 O 0.51923 0.0542 0.57115 0.0
C439 C 0.56067 0.07289 0.50639 0.0
C440 C 0.65063 0.04468 0.53084 0.0
C441 C 0.6785 1.01353 0.534 0.0
C442 C 0.65657 1.00512 0.52214 0.0
C443 C 0.64273 0.02049 0.52065 0.0
C444 C 0.67246 0.05312 0.5426 0.0
C445 C 0.68617 0.03775 0.54426 0.0
C446 C 0.63627 0.0612 0.53015 0.0
C447 C 0.55593 1.00625 0.52522 0.0
H448 H 0.48909 0.1224 0.56192 0.0
H449 H 0.51396 0.09641 0.56444 0.0
H450 H 0.4556 0.0321 0.54366 0.0
H451 H 0.43065 0.05814 0.54096 0.0
H452 H 0.65011 0.98673 0.51383 0.0
H453 H 0.62586 1.01339 0.5116 0.0
H454 H 0.67882 0.07161 0.55078 0.0
H455 H 0.70267 0.0448 0.55396 0.0
Tb456 Tb 0.33937 0.30388 0.7975 0.0
Tb457 Tb 0.29353 0.32163 0.79109 0.0
C458 C 0.29038 0.26918 0.80542 0.0
C459 C 0.39542 0.29473 0.78734 0.0
C460 C 0.43301 0.29893 0.76237 0.0
C461 C 0.41042 0.28628 0.7532 0.0
C462 C 0.39177 0.28431 0.76552 0.0
C463 C 0.41797 0.30737 0.79648 0.0
C464 C 0.43657 0.30955 0.7841 0.0
C465 C 0.37613 0.29288 0.80084 0.0
O466 O 0.32446 0.29066 0.76361 0.0
O467 O 0.30398 0.31741 0.75777 0.0
O468 O 0.32316 0.35442 0.79537 0.0
O469 O 0.34921 0.33783 0.78186 0.0
O470 O 0.26081 0.31695 0.77515 0.0
O471 O 0.27714 0.34777 0.79915 0.0
O472 O 0.29781 0.31835 0.82644 0.0
O473 O 0.33575 0.31967 0.83033 0.0
O474 O 0.31271 0.27551 0.81038 0.0
O475 O 0.28052 0.28254 0.79427 0.0
C476 C 0.31383 0.30147 0.75009 0.0
O477 O 0.37437 0.31373 0.80902 0.0
O478 O 0.35611 0.27724 0.79345 0.0
C479 C 0.34231 0.35684 0.78646 0.0
C480 C 0.23703 0.33 0.79885 0.0
C481 C 0.19822 0.32076 0.82276 0.0
C482 C 0.21323 0.34483 0.82266 0.0
C483 C 0.23237 0.34941 0.81071 0.0
C484 C 0.22194 0.30592 0.79885 0.0
C485 C 0.20267 0.30138 0.81061 0.0
C486 C 0.25811 0.33512 0.78741 0.0
C487 C 0.31687 0.32057 0.83898 0.0
H488 H 0.40716 0.2781 0.73643 0.0
H489 H 0.37456 0.27464 0.75794 0.0
H490 H 0.4212 0.31553 0.81326 0.0
H491 H 0.45379 0.31916 0.79169 0.0
H492 H 0.21009 0.36012 0.83175 0.0
H493 H 0.24373 0.36813 0.81095 0.0
H494 H 0.22513 0.2905 0.79003 0.0
H495 H 0.19152 0.28261 0.81059 0.0
Tb496 Tb 0.0565 0.06307 0.55439 0.0
Tb497 Tb 0.06007 0.03477 0.50874 0.0
C498 C 1.01356 0.02474 0.52938 0.0
C499 C 0.06196 0.07868 0.61333 0.0
C500 C 0.07909 0.06989 0.65448 0.0
C501 C 0.07496 0.09234 0.65152 0.0
C502 C 0.06646 0.09671 0.63101 0.0
C503 C 0.06572 0.05618 0.61638 0.0
C504 C 0.07407 0.05176 0.63675 0.0
C505 C 0.0544 0.08347 0.59144 0.0
O506 O 0.05621 0.026 0.5635 0.0
O507 O 0.06866 1.01079 0.53303 0.0
O508 O 0.09152 0.06532 0.51587 0.0
O509 O 0.09279 0.0666 0.55279 0.0
O510 O 0.04372 0.01681 0.47845 0.0
O511 O 0.07964 0.02128 0.48754 0.0
O512 O 0.0513 0.06786 0.4986 0.0
O513 O 0.05833 0.09177 0.53135 0.0
O514 O 1.02147 0.04733 0.53876 0.0
O515 O 0.02728 0.01488 0.5197 0.0
C516 C 0.06321 1.0088 0.55348 0.0
O517 O 0.07082 0.09211 0.57911 0.0
O518 O 0.03754 0.06567 0.58091 0.0
C519 C 0.10312 0.07219 0.53509 0.0
C520 C 0.06853 0.02743 0.45153 0.0
C521 C 0.06944 0.05155 0.41322 0.0
C522 C 0.06129 0.02566 0.4122 0.0
C523 C 0.06078 1.01371 0.43126 0.0
C524 C 0.07802 0.05315 0.45251 0.0
C525 C 0.0785 0.06513 0.43348 0.0
C526 C 0.06303 0.01564 0.47166 0.0
C527 C 0.05447 0.08953 0.50972 0.0
H528 H 0.07888 0.10673 0.66488 0.0
H529 H 0.06378 0.11425 0.62887 0.0
H530 H 0.06239 0.04206 0.60296 0.0
H531 H 0.07669 0.03413 0.63858 0.0
H532 H 0.05387 0.01467 0.3969 0.0
H533 H 0.0531 0.99389 0.43029 0.0
H534 H 0.08388 0.06407 0.46811 0.0
H535 H 0.08505 0.08504 0.43475 0.0
Tb536 Tb 0.3145 0.82848 0.77403 0.0
Tb537 Tb 0.29065 0.77511 0.78985 0.0
C538 C 0.31029 0.78059 0.74559 0.0
C539 C 0.32506 0.89305 0.7641 0.0
C540 C 0.30868 0.93238 0.7754 0.0
C541 C 0.29431 0.91137 0.76254 0.0
C542 C 0.30238 0.89172 0.75707 0.0
C543 C 0.33984 0.91473 0.77569 0.0
C544 C 0.33166 0.9342 0.78146 0.0
C545 C 0.33242 0.87099 0.76279 0.0
O546 O 0.27754 0.8191 0.76001 0.0
O547 O 0.26003 0.78661 0.77929 0.0
O548 O 0.29944 0.80156 0.81821 0.0
O549 O 0.2962 0.83455 0.80151 0.0
O550 O 0.28023 0.73674 0.78356 0.0
O551 O 0.27415 0.75349 0.81385 0.0
O552 O 0.32849 0.77973 0.79547 0.0
O553 O 0.34321 0.82147 0.79443 0.0
O554 O 0.3243 0.80225 0.75314 0.0
O555 O 0.29152 0.77093 0.75482 0.0
C556 C 0.25838 0.80337 0.76587 0.0
O557 O 0.33728 0.8641 0.7818 0.0
O558 O 0.32019 0.85234 0.74908 0.0
C559 C 0.29508 0.82245 0.8188 0.0
C560 C 0.28485 0.71747 0.8147 0.0
C561 C 0.30895 0.68445 0.82476 0.0
C562 C 0.28472 0.67621 0.82101 0.0
C563 C 0.2728 0.69257 0.81565 0.0
C564 C 0.3085 0.72629 0.82131 0.0
C565 C 0.3205 0.70995 0.82611 0.0
C566 C 0.27395 0.73308 0.8031 0.0
C567 C 0.34632 0.80032 0.79893 0.0
H568 H 0.27646 0.90954 0.75783 0.0
H569 H 0.29051 0.87509 0.74835 0.0
H570 H 0.35734 0.91603 0.78138 0.0
H571 H 0.34304 0.95035 0.79126 0.0
H572 H 0.27509 0.65686 0.82063 0.0
H573 H 0.25446 0.6855 0.81081 0.0
H574 H 0.31801 0.74555 0.82103 0.0
H575 H 0.33907 0.71727 0.82888 0.0
Tb576 Tb 0.55642 0.02116 0.06748 0.0
Tb577 Tb 0.56671 0.04896 0.02437 0.0
C578 C 0.60542 0.04916 0.05952 0.0
C579 C 0.53022 1.00859 0.11722 0.0
C580 C 0.50566 0.02584 0.14783 0.0
C581 C 0.51444 1.00648 0.1522 0.0
C582 C 0.52673 0.99794 0.13697 0.0
C583 C 0.5209 0.02739 0.11259 0.0
C584 C 0.50875 0.03595 0.12774 0.0
C585 C 0.5443 1.00126 0.10156 0.0
O586 O 0.56182 0.06053 0.07918 0.0
O587 O 0.55779 0.07632 0.0464 0.0
O588 O 0.53157 0.02472 0.01916 0.0
O589 O 0.52618 0.02948 0.05481 0.0
O590 O 0.59094 0.06512 1.00326 0.0
O591 O 0.55588 0.066 0.99836 0.0
O592 O 0.57178 1.01292 0.01493 0.0
O593 O 0.55492 0.9906 0.04229 0.0
O594 O 0.59268 0.02778 0.06447 0.0
O595 O 0.5963 0.06301 0.0484 0.0
C596 C 0.55925 0.07874 0.06808 0.0
O597 O 0.53362 0.99282 0.08215 0.0
O598 O 0.56439 0.01754 0.10055 0.0
C599 C 0.51788 0.02455 0.03436 0.0
C600 C 0.57446 0.06151 0.96703 0.0
C601 C 0.57566 0.04818 0.92251 0.0
C602 C 0.56618 0.06669 0.92894 0.0
C603 C 0.56573 0.0734 0.95106 0.0
C604 C 0.58262 0.04201 0.96069 0.0
C605 C 0.58337 0.03553 0.93863 0.0
C606 C 0.57556 0.07005 0.99017 0.0
C607 C 0.56377 0.99147 0.02319 0.0
H608 H 0.51251 0.99854 0.16769 0.0
H609 H 0.53388 0.98346 0.14078 0.0
H610 H 0.52338 0.0358 0.09738 0.0
H611 H 0.50199 0.05069 0.12384 0.0
H612 H 0.55966 0.07644 0.91691 0.0
H613 H 0.55906 0.08825 0.9557 0.0
H614 H 0.58915 0.03231 0.97277 0.0
H615 H 0.59102 0.02139 0.93433 0.0
Tb616 Tb 0.30243 0.25043 0.28455 0.0
Tb617 Tb 0.32422 0.30718 0.30003 0.0
C618 C 0.30574 0.28997 0.24988 0.0
C619 C 0.28032 0.18383 0.28893 0.0
C620 C 0.28755 0.15094 0.31827 0.0
C621 C 0.28549 0.14471 0.29551 0.0
C622 C 0.28195 0.16109 0.28097 0.0
C623 C 0.27908 0.18862 0.31139 0.0
C624 C 0.28263 0.17223 0.32601 0.0
C625 C 0.28732 0.20433 0.27535 0.0
O626 O 0.34006 0.25756 0.28051 0.0
O627 O 0.35392 0.29956 0.2852 0.0
O628 O 0.33409 0.28828 0.32721 0.0
O629 O 0.3041 0.25317 0.32054 0.0
O630 O 0.34068 0.34381 0.29414 0.0
O631 O 0.33309 0.33441 0.32654 0.0
O632 O 0.28771 0.29909 0.30882 0.0
O633 O 0.2709 0.26018 0.29185 0.0
O634 O 0.30452 0.26725 0.25344 0.0
O635 O 0.30863 0.30686 0.26645 0.0
C636 C 0.35707 0.27826 0.2792 0.0
O637 O 0.27449 0.21856 0.27351 0.0
O638 O 0.30894 0.21701 0.2795 0.0
C639 C 0.31977 0.26898 0.33449 0.0
C640 C 0.32958 0.37166 0.31675 0.0
C641 C 0.30929 0.40923 0.32053 0.0
C642 C 0.33239 0.4137 0.32864 0.0
C643 C 0.34247 0.39498 0.32676 0.0
C644 C 0.30642 0.36691 0.30918 0.0
C645 C 0.29636 0.38554 0.31103 0.0
C646 C 0.34016 0.35219 0.31419 0.0
C647 C 0.26899 0.27967 0.30352 0.0
H648 H 0.28926 0.12858 0.28885 0.0
H649 H 0.28314 0.1572 0.26371 0.0
H650 H 0.27777 0.20612 0.31784 0.0
H651 H 0.2836 0.1773 0.3434 0.0
H652 H 0.34272 0.43173 0.33614 0.0
H653 H 0.36035 0.39877 0.33285 0.0
H654 H 0.29625 0.34893 0.30144 0.0
H655 H 0.27869 0.38159 0.3042 0.0
Tb656 Tb 0.56818 0.55011 0.06343 0.0
Tb657 Tb 0.57125 0.52286 0.01712 0.0
C658 C 0.52474 0.51383 0.03712 0.0
C659 C 0.57504 0.56253 0.12213 0.0
C660 C 0.58924 0.54625 0.1611 0.0
C661 C 0.57183 0.55746 0.16064 0.0
C662 C 0.56477 0.56557 0.14123 0.0
C663 C 0.59241 0.55134 0.12257 0.0
C664 C 0.59952 0.54338 0.14191 0.0
C665 C 0.56614 0.56843 0.10121 0.0
O666 O 0.56832 0.51304 0.07197 0.0
O667 O 0.57981 0.49823 0.04076 0.0
O668 O 0.60235 0.55366 0.02416 0.0
O669 O 0.60452 0.55457 0.0611 0.0
O670 O 0.55542 0.5056 0.98646 0.0
O671 O 0.59113 0.50965 0.99605 0.0
O672 O 0.56248 0.55647 0.00813 0.0
O673 O 0.57052 0.57971 0.04131 0.0
O674 O 0.5333 0.53608 0.04714 0.0
O675 O 0.53814 0.50339 0.02759 0.0
C676 C 0.57489 0.49592 0.06132 0.0
O677 O 0.58159 0.5789 0.08845 0.0
O678 O 0.54956 0.55039 0.09064 0.0
C679 C 0.61429 0.56065 0.04319 0.0
C680 C 0.58096 0.5155 0.95982 0.0
C681 C 0.58518 0.53576 0.91939 0.0
C682 C 0.58616 0.51172 0.92129 0.0
C683 C 0.58378 0.50156 0.94134 0.0
C684 C 0.58216 0.54013 0.95847 0.0
C685 C 0.58399 0.55011 0.93846 0.0
C686 C 0.57477 0.50406 0.97998 0.0
C687 C 0.56631 0.57804 0.01974 0.0
H688 H 0.56377 0.56005 0.17529 0.0
H689 H 0.55109 0.57381 0.14104 0.0
H690 H 0.60017 0.54831 0.10783 0.0
H691 H 0.61275 0.53451 0.14174 0.0
H692 H 0.58775 0.50033 0.90712 0.0
H693 H 0.58323 0.4826 0.94221 0.0
H694 H 0.58039 0.5513 0.97268 0.0
H695 H 0.58293 0.56854 0.93784 0.0
Tb696 Tb 0.82462 0.31389 0.28284 0.0
Tb697 Tb 0.80053 0.26049 0.29848 0.0
C698 C 0.82505 0.26652 0.25519 0.0
C699 C 0.83838 0.3801 0.28331 0.0
C700 C 0.82338 0.4178 0.30227 0.0
C701 C 0.81984 0.41152 0.2795 0.0
C702 C 0.82734 0.39289 0.27011 0.0
C703 C 0.84299 0.38725 0.30593 0.0
C704 C 0.83561 0.40594 0.31528 0.0
C705 C 0.84223 0.35751 0.27396 0.0
O706 O 0.78685 0.30826 0.27545 0.0
O707 O 0.77198 0.26654 0.27695 0.0
O708 O 0.78764 0.28543 0.31745 0.0
O709 O 0.81746 0.32045 0.31628 0.0
O710 O 0.78165 0.22305 0.29186 0.0
O711 O 0.79274 0.23952 0.3251 0.0
O712 O 0.83699 0.27102 0.31421 0.0
O713 O 0.85476 0.30192 0.29371 0.0
O714 O 0.82362 0.28878 0.25462 0.0
O715 O 0.82002 0.25398 0.27213 0.0
C716 C 0.76906 0.28766 0.27188 0.0
O717 O 0.85243 0.34659 0.28728 0.0
O718 O 0.82462 0.34176 0.26228 0.0
C719 C 0.79897 0.30812 0.32481 0.0
C720 C 0.79525 0.20035 0.31652 0.0
C721 C 0.81683 0.16428 0.32232 0.0
C722 C 0.79407 0.16022 0.32749 0.0
C723 C 0.78334 0.17824 0.32463 0.0
C724 C 0.81808 0.2047 0.31194 0.0
C725 C 0.82878 0.18689 0.31481 0.0
C726 C 0.7842 0.21904 0.31239 0.0
C727 C 0.85628 0.28604 0.30799 0.0
H728 H 0.81025 0.42012 0.26901 0.0
H729 H 0.82351 0.38764 0.25268 0.0
H730 H 0.85149 0.37779 0.31663 0.0
H731 H 0.83895 0.41065 0.33281 0.0
H732 H 0.78447 0.14299 0.33331 0.0
H733 H 0.7657 0.17474 0.32834 0.0
H734 H 0.82747 0.22167 0.30556 0.0
H735 H 0.84608 0.19045 0.31011 0.0
Tb736 Tb 0.05 0.53935 0.56904 0.0
Tb737 Tb 0.0509 0.56278 0.52311 0.0
C738 C 0.09505 0.56724 0.55129 0.0
C739 C 0.06488 0.53779 0.62667 0.0
C740 C 0.08221 0.56625 0.66669 0.0
C741 C 0.08759 0.57646 0.64693 0.0
C742 C 0.0789 0.56235 0.62705 0.0
C743 C 0.06042 0.52711 0.64625 0.0
C744 C 0.06902 0.54124 0.66616 0.0
C745 C 0.05377 0.52405 0.60587 0.0
O746 O 0.04163 0.57373 0.57754 0.0
O747 O 0.0532 0.59421 0.54754 0.0
O748 O 1.01568 0.55191 0.53092 0.0
O749 O 1.01692 0.52045 0.5511 0.0
O750 O 0.0671 0.59131 0.50458 0.0
O751 O 0.03607 0.56245 0.49127 0.0
O752 O 0.04863 0.52408 0.51268 0.0
O753 O 0.05466 0.51006 0.54603 0.0
O754 O 0.08295 0.56708 0.56782 0.0
O755 O 0.08466 0.55979 0.5317 0.0
C756 C 0.04667 0.59427 0.56761 0.0
O757 O 0.03551 0.5291 0.59813 0.0
O758 O 0.06775 0.52366 0.59098 0.0
C759 C 1.00555 0.53069 0.53808 0.0
C760 C 0.06466 0.57624 0.46798 0.0
C761 C 0.08519 0.56525 0.43104 0.0
C762 C 0.06901 0.57807 0.42937 0.0
C763 C 0.05884 0.58355 0.44775 0.0
C764 C 0.08072 0.56342 0.46976 0.0
C765 C 0.09099 0.55804 0.45145 0.0
C766 C 0.05331 0.58096 0.48705 0.0
C767 C 0.05184 0.5066 0.52437 0.0
H768 H 0.09776 0.59559 0.64682 0.0
H769 H 0.08247 0.57086 0.61199 0.0
H770 H 0.04955 0.5082 0.64616 0.0
H771 H 0.06416 0.53293 0.68108 0.0
H772 H 0.06389 0.58349 0.41378 0.0
H773 H 0.04625 0.59321 0.44613 0.0
H774 H 0.08524 0.55747 0.48532 0.0
H775 H 0.10354 0.54839 0.45331 0.0
Tb776 Tb 0.84105 0.79347 0.3013 0.0
Tb777 Tb 0.79505 0.81146 0.29482 0.0
C778 C 0.79195 0.75889 0.3076 0.0
C779 C 0.89734 0.78492 0.2931 0.0
C780 C 0.93606 0.79177 0.26935 0.0
C781 C 0.93315 0.7771 0.28702 0.0
C782 C 0.91394 0.77369 0.29875 0.0
C783 C 0.90027 0.79992 0.27576 0.0
C784 C 0.9195 0.80335 0.26399 0.0
C785 C 0.87667 0.78019 0.30486 0.0
O786 O 0.83595 0.7957 0.26597 0.0
O787 O 0.79813 0.79489 0.26219 0.0
O788 O 0.82203 0.83975 0.28246 0.0
O789 O 0.85388 0.83289 0.29931 0.0
O790 O 0.76024 0.80233 0.28303 0.0
O791 O 0.77879 0.83846 0.29913 0.0
O792 O 0.80865 0.82268 0.32939 0.0
O793 O 0.83107 0.79754 0.33464 0.0
O794 O 0.81135 0.76059 0.29925 0.0
O795 O 0.7848 0.77795 0.31073 0.0
C796 C 0.81679 0.79327 0.25357 0.0
O797 O 0.87436 0.79906 0.31635 0.0
O798 O 0.85749 0.76735 0.29347 0.0
C799 C 0.84422 0.84645 0.28823 0.0
C800 C 0.74031 0.82063 0.30612 0.0
C801 C 0.70423 0.81343 0.33329 0.0
C802 C 0.70127 0.81934 0.31166 0.0
C803 C 0.71918 0.82293 0.29821 0.0
C804 C 0.74342 0.81477 0.32764 0.0
C805 C 0.72559 0.81133 0.34114 0.0
C806 C 0.75867 0.82309 0.29163 0.0
C807 C 0.81999 0.81214 0.34255 0.0
H808 H 0.94575 0.76825 0.29182 0.0
H809 H 0.91194 0.7621 0.31213 0.0
H810 H 0.88753 0.80869 0.27115 0.0
H811 H 0.92109 0.81457 0.25037 0.0
H812 H 0.68495 0.8207 0.30495 0.0
H813 H 0.71644 0.82716 0.28155 0.0
H814 H 0.75959 0.81268 0.33393 0.0
H815 H 0.72861 0.80713 0.35776 0.0
Tb816 Tb 0.81606 0.31382 0.8217 0.0
Tb817 Tb 0.84348 0.3096 0.77856 0.0
C818 C 0.79755 0.32406 0.77613 0.0
C819 C 0.79667 0.29997 0.87503 0.0
C820 C 0.80256 0.27512 0.91182 0.0
C821 C 0.79534 0.29614 0.91392 0.0
C822 C 0.7925 0.30851 0.89565 0.0
C823 C 0.80321 0.27861 0.87275 0.0
C824 C 0.80613 0.2663 0.89097 0.0
C825 C 0.79679 0.31463 0.85641 0.0
O826 O 0.7982 0.2786 0.80297 0.0
O827 O 0.82838 0.27238 0.78641 0.0
O828 O 0.86674 0.30822 0.80667 0.0
O829 O 0.83976 0.29393 0.83061 0.0
O830 O 0.84418 0.29142 0.74805 0.0
O831 O 0.87203 0.3238 0.76101 0.0
O832 O 0.84824 0.34811 0.78663 0.0
O833 O 0.84569 0.3469 0.82329 0.0
O834 O 0.80097 0.33137 0.79717 0.0
O835 O 0.80946 0.31112 0.76712 0.0
C836 C 0.80759 0.26408 0.79241 0.0
O837 O 0.81692 0.32961 0.85363 0.0
O838 O 0.78616 0.30255 0.83801 0.0
C839 C 0.8607 0.29819 0.82483 0.0
C840 C 0.85817 0.32093 0.72419 0.0
C841 C 0.84609 0.34072 0.68627 0.0
C842 C 0.8617 0.32712 0.68591 0.0
C843 C 0.8676 0.31715 0.70476 0.0
C844 C 0.84316 0.33502 0.72476 0.0
C845 C 0.83703 0.34464 0.70599 0.0
C846 C 0.86217 0.30892 0.74364 0.0
C847 C 0.85354 0.35874 0.80659 0.0
H848 H 0.79214 0.30318 0.92972 0.0
H849 H 0.78762 0.32508 0.8977 0.0
H850 H 0.80674 0.27188 0.85696 0.0
H851 H 0.81199 0.25039 0.8888 0.0
H852 H 0.86923 0.32404 0.67106 0.0
H853 H 0.87917 0.30624 0.70409 0.0
H854 H 0.83566 0.33806 0.73964 0.0
H855 H 0.82462 0.35452 0.70687 0.0
Tb856 Tb 0.79173 0.76609 0.7898 0.0
Tb857 Tb 0.81325 0.82324 0.80266 0.0
C858 C 0.79772 0.80277 0.7534 0.0
C859 C 0.7887 0.7023 0.77635 0.0
C860 C 0.81693 0.672 0.77845 0.0
C861 C 0.8231 0.69315 0.76712 0.0
C862 C 0.80916 0.70818 0.76611 0.0
C863 C 0.7819 0.68059 0.78678 0.0
C864 C 0.79594 0.66552 0.78785 0.0
C865 C 0.77632 0.72035 0.77888 0.0
O866 O 0.82773 0.77284 0.78035 0.0
O867 O 0.84457 0.8131 0.79416 0.0
O868 O 0.80889 0.80763 0.8341 0.0
O869 O 0.80851 0.76882 0.82337 0.0
O870 O 0.81549 0.85885 0.7955 0.0
O871 O 0.83545 0.85278 0.82383 0.0
O872 O 0.7752 0.81655 0.80576 0.0
O873 O 0.76257 0.77457 0.80475 0.0
O874 O 0.783 0.78383 0.76095 0.0
O875 O 0.8135 0.81857 0.76714 0.0
C876 C 0.84628 0.7927 0.78368 0.0
O877 O 0.77757 0.73018 0.79875 0.0
O878 O 0.7797 0.73689 0.76497 0.0
C879 C 0.80976 0.78608 0.83913 0.0
C880 C 0.82074 0.88632 0.82666 0.0
C881 C 0.80414 0.92464 0.84104 0.0
C882 C 0.828 0.9282 0.84238 0.0
C883 C 0.83622 0.90924 0.83487 0.0
C884 C 0.79717 0.88164 0.82834 0.0
C885 C 0.7889 0.90063 0.83531 0.0
C886 C 0.82868 0.86883 0.81348 0.0
C887 C 0.75877 0.79588 0.80895 0.0
H888 H 0.83932 0.69883 0.76 0.0
H889 H 0.81498 0.72497 0.75816 0.0
H890 H 0.76626 0.67587 0.79491 0.0
H891 H 0.7907 0.64919 0.79652 0.0
H892 H 0.84033 0.94613 0.84753 0.0
H893 H 0.85455 0.913 0.83411 0.0
H894 H 0.78493 0.86388 0.82243 0.0
H895 H 0.77044 0.89681 0.834 0.0
Tb896 Tb 0.59893 0.57086 0.57516 0.0
Tb897 Tb 0.54971 0.53443 0.5508 0.0
C898 C 0.55262 0.56554 0.5954 0.0
C899 C 0.66114 0.59658 0.58721 0.0
C900 C 0.69891 0.58417 0.5728 0.0
C901 C 0.69002 0.57602 0.59231 0.0
C902 C 0.67133 0.58223 0.59949 0.0
C903 C 0.67155 0.60676 0.56893 0.0
C904 C 0.6902 0.60049 0.56173 0.0
C905 C 0.63814 0.59786 0.59143 0.0
O906 O 0.60029 0.53352 0.57745 0.0
O907 O 0.56158 0.51267 0.5741 0.0
O908 O 0.57608 0.52482 0.5344 0.0
O909 O 0.60437 0.56197 0.54154 0.0
O910 O 0.51741 0.50852 0.55283 0.0
O911 O 0.52843 0.52 0.52163 0.0
O912 O 0.55627 0.56989 0.53672 0.0
O913 O 0.57967 0.59502 0.56528 0.0
O914 O 0.57446 0.56751 0.5993 0.0
O915 O 0.54088 0.55664 0.57639 0.0
C916 C 0.58303 0.51372 0.57963 0.0
O917 O 0.62648 0.6033 0.57505 0.0
O918 O 0.62524 0.57971 0.60105 0.0
C919 C 0.59545 0.54051 0.53011 0.0
C920 C 0.48965 0.51414 0.52757 0.0
C921 C 0.44932 0.52762 0.52701 0.0
C922 C 0.44864 0.50345 0.53054 0.0
C923 C 0.46868 0.49676 0.53077 0.0
C924 C 0.49015 0.53794 0.52295 0.0
C925 C 0.4701 0.54456 0.52252 0.0
C926 C 0.51117 0.50845 0.53212 0.0
C927 C 0.56592 0.5919 0.54725 0.0
H928 H 0.69637 0.56338 0.60118 0.0
H929 H 0.66391 0.57441 0.61382 0.0
H930 H 0.66442 0.61831 0.55935 0.0
H931 H 0.69707 0.60742 0.54689 0.0
H932 H 0.43278 0.49004 0.53394 0.0
H933 H 0.46802 0.47838 0.53451 0.0
H934 H 0.50622 0.5518 0.52076 0.0
H935 H 0.47119 0.56339 0.52006 0.0
Tb936 Tb 0.03466 0.53709 0.05916 0.0
Tb937 Tb 0.08934 0.54675 0.04992 0.0
C938 C 0.06803 0.51807 0.0884 0.0
C939 C 0.9793 0.54943 0.06395 0.0
C940 C 0.95299 0.58202 0.06155 0.0
C941 C 0.94871 0.56395 0.07645 0.0
C942 C 0.96173 0.54782 0.0776 0.0
C943 C 0.98357 0.56728 0.0489 0.0
C944 C 0.97042 0.58334 0.04761 0.0
C945 C 0.99384 0.53339 0.06656 0.0
O946 O 0.05137 0.57663 0.06385 0.0
O947 O 0.08848 0.57732 0.07296 0.0
O948 O 0.07672 0.56902 0.02835 0.0
O949 O 0.03817 0.54719 0.02603 0.0
O950 O 0.12375 0.55604 0.06308 0.0
O951 O 0.11451 0.54775 0.02824 0.0
O952 O 0.0692 0.51273 0.03024 0.0
O953 O 0.03651 0.50076 0.04835 0.0
O954 O 0.05254 0.52953 0.0884 0.0
O955 O 0.08122 0.51899 0.07256 0.0
C956 C 0.0725 0.58828 0.07234 0.0
O957 O 0.99928 0.52394 0.04867 0.0
O958 O 1.01151 0.54182 0.08121 0.0
C959 C 0.05562 0.56371 0.01907 0.0
C960 C 0.14545 0.53583 0.04361 0.0
C961 C 0.17486 0.50631 0.04457 0.0
C962 C 0.18212 0.53 0.03729 0.0
C963 C 0.16758 0.54459 0.03686 0.0
C964 C 0.13781 0.51201 0.05039 0.0
C965 C 0.15238 0.49739 0.05088 0.0
C966 C 0.13089 0.55202 0.04416 0.0
C967 C 0.05063 0.4957 0.035 0.0
H968 H 0.93524 0.56225 0.08722 0.0
H969 H 0.95825 0.53426 0.08939 0.0
H970 H 0.99728 0.56905 0.03838 0.0
H971 H 0.97428 0.59718 0.03611 0.0
H972 H 0.19911 0.53734 0.03193 0.0
H973 H 0.17373 0.56287 0.03147 0.0
H974 H 0.12074 0.5049 0.05565 0.0
H975 H 0.14624 0.47937 0.05677 0.0
H976 H 1.02456 0.218 0.01393 0.0
H977 H 0.03635 0.19066 0.95022 0.0
H978 H 0.03074 0.18195 0.02932 0.0
H979 H 0.04271 0.15516 0.96553 0.0
H980 H 0.03219 0.08231 0.9949 0.0
H981 H 1.02306 0.11732 0.98078 0.0
H982 H 0.06174 0.16423 0.03747 0.0
H983 H 0.07064 0.12925 0.05172 0.0
C984 C 0.02841 0.20435 1.0032 0.0
C985 C 0.02996 0.20739 0.98082 0.0
C986 C 0.03208 0.18372 0.01204 0.0
C987 C 0.03718 0.16551 0.99868 0.0
C988 C 0.03849 0.16851 0.9763 0.0
C989 C 0.03499 0.18909 0.96754 0.0
C990 C 0.03876 0.10007 1.00438 0.0
C991 C 0.05233 0.10287 0.0244 0.0
C992 C 0.03357 0.12022 0.99624 0.0
C993 C 0.04171 0.14373 0.00792 0.0
C994 C 0.05495 0.14642 0.02811 0.0
C995 C 0.06022 0.12631 0.0362 0.0
H996 H 0.19742 0.82681 0.15848 0.0
H997 H 0.16719 0.84527 0.21564 0.0
H998 H 0.23176 0.82749 0.18153 0.0
H999 H 0.20179 0.84713 0.23858 0.0
H1000 H 0.24737 0.8101 0.27465 0.0
H1001 H 0.21708 0.81755 0.25158 0.0
H1002 H 0.26556 0.84809 0.20548 0.0
H1003 H 0.29601 0.83975 0.22845 0.0
C1004 C 0.1984 0.83176 0.1759 0.0
C1005 C 0.17947 0.83569 0.18526 0.0
C1006 C 0.21814 0.83219 0.18916 0.0
C1007 C 0.21947 0.83686 0.21207 0.0
C1008 C 0.20117 0.84268 0.22113 0.0
C1009 C 0.18137 0.84186 0.20794 0.0
C1010 C 0.25175 0.81861 0.25971 0.0
C1011 C 0.27422 0.82426 0.25347 0.0
C1012 C 0.2343 0.82311 0.24647 0.0
C1013 C 0.23875 0.83362 0.22661 0.0
C1014 C 0.26137 0.83976 0.22052 0.0
C1015 C 0.2789 0.83511 0.23378 0.0
H1016 H 0.52833 0.86484 0.45043 0.0
H1017 H 0.5496 0.851 0.51549 0.0
H1018 H 0.53198 0.90683 0.4636 0.0
H1019 H 0.55298 0.89351 0.52875 0.0
H1020 H 0.53177 0.96535 0.54414 0.0
H1021 H 0.52693 0.92212 0.53275 0.0
H1022 H 0.56616 0.94436 0.47814 0.0
H1023 H 0.57125 0.98744 0.48956 0.0
C1024 C 0.53362 0.87062 0.46764 0.0
C1025 C 0.53873 0.85437 0.48188 0.0
C1026 C 0.53582 0.89484 0.47513 0.0
C1027 C 0.54292 0.90357 0.49716 0.0
C1028 C 0.5474 0.88726 0.51167 0.0
C1029 C 0.54553 0.86295 0.50407 0.0
C1030 C 0.53921 0.96101 0.5296 0.0
C1031 C 0.55172 0.9799 0.51764 0.0
C1032 C 0.53662 0.93626 0.52323 0.0
C1033 C 0.54615 0.92982 0.50455 0.0
C1034 C 0.55847 0.9487 0.49252 0.0
C1035 C 0.56139 0.97341 0.49908 0.0
H1036 H 0.55139 0.27177 0.71308 0.0
H1037 H 0.55056 0.33799 0.68396 0.0
H1038 H 0.51642 0.27067 0.72983 0.0
H1039 H 0.5154 0.33686 0.70091 0.0
H1040 H 0.46997 0.33943 0.7588 0.0
H1041 H 0.50384 0.3414 0.73947 0.0
H1042 H 0.47476 0.26403 0.7177 0.0
H1043 H 0.44103 0.26201 0.73716 0.0
C1044 C 0.54374 0.28611 0.71024 0.0
C1045 C 0.55377 0.30499 0.6972 0.0
C1046 C 0.52361 0.28537 0.71973 0.0
C1047 C 0.51313 0.30361 0.7166 0.0
C1048 C 0.52318 0.32262 0.70367 0.0
C1049 C 0.54324 0.3232 0.69393 0.0
C1050 C 0.47083 0.32288 0.74984 0.0
C1051 C 0.45291 0.30054 0.74956 0.0
C1052 C 0.4901 0.32406 0.73863 0.0
C1053 C 0.49197 0.30285 0.72716 0.0
C1054 C 0.47387 0.28062 0.72657 0.0
C1055 C 0.45449 0.27951 0.73756 0.0
H1056 H 0.03898 0.8856 0.64152 0.0
H1057 H 0.09306 0.87628 0.60469 0.0
H1058 H 0.03823 0.92102 0.62184 0.0
H1059 H 0.09274 0.91199 0.58517 0.0
H1060 H 0.0774 0.9683 0.54004 0.0
H1061 H 0.07806 0.93247 0.55928 0.0
H1062 H 0.05223 0.96163 0.61462 0.0
H1063 H 0.05113 0.99693 0.59517 0.0
C1064 C 0.05087 0.89104 0.62927 0.0
C1065 C 0.06608 0.87742 0.62507 0.0
C1066 C 0.05059 0.91184 0.61785 0.0
C1067 C 0.06547 0.92036 0.60143 0.0
C1068 C 0.08064 0.90657 0.59722 0.0
C1069 C 0.08095 0.88581 0.60871 0.0
C1070 C 0.07186 0.96723 0.55633 0.0
C1071 C 0.06428 0.98628 0.56568 0.0
C1072 C 0.07235 0.94638 0.56765 0.0
C1073 C 0.06518 0.94319 0.58902 0.0
C1074 C 0.05765 0.96237 0.59829 0.0
C1075 C 0.05722 0.98318 0.58701 0.0
H1076 H 0.47012 0.76565 0.86288 0.0
H1077 H 0.49975 0.83452 0.83634 0.0
H1078 H 0.43162 0.76523 0.84881 0.0
H1079 H 0.46146 0.83407 0.82184 0.0
H1080 H 0.38783 0.83907 0.80831 0.0
H1081 H 0.42601 0.83899 0.82239 0.0
H1082 H 0.4 0.76033 0.82425 0.0
H1083 H 0.36165 0.76068 0.8105 0.0
C1084 C 0.46866 0.78076 0.85388 0.0
C1085 C 0.48894 0.80009 0.85101 0.0
C1086 C 0.4461 0.78051 0.84554 0.0
C1087 C 0.44217 0.79964 0.83377 0.0
C1088 C 0.46262 0.8189 0.83086 0.0
C1089 C 0.48514 0.81911 0.83918 0.0
C1090 C 0.39002 0.8216 0.81167 0.0
C1091 C 0.37072 0.7999 0.80795 0.0
C1092 C 0.41248 0.82149 0.8198 0.0
C1093 C 0.41738 0.79964 0.82485 0.0
C1094 C 0.39794 0.77789 0.82114 0.0
C1095 C 0.37545 0.77802 0.81297 0.0
H1096 H 0.53633 0.19487 0.16159 0.0
H1097 H 0.57184 0.23562 0.11155 0.0
H1098 H 0.53678 0.15643 0.14215 0.0
H1099 H 0.57266 0.19731 0.09222 0.0
H1100 H 0.55778 0.12236 0.05145 0.0
H1101 H 0.55579 0.16036 0.07038 0.0
H1102 H 0.55606 0.12863 0.13188 0.0
H1103 H 0.5577 0.09047 0.11275 0.0
C1104 C 0.54414 0.19583 0.14634 0.0
C1105 C 0.55386 0.21905 0.13841 0.0
C1106 C 0.54464 0.17344 0.13511 0.0
C1107 C 0.55485 0.17286 0.1152 0.0
C1108 C 0.56428 0.19613 0.10715 0.0
C1109 C 0.56387 0.21852 0.11844 0.0
C1110 C 0.55741 0.12331 0.06903 0.0
C1111 C 0.558 0.1027 0.08023 0.0
C1112 C 0.55641 0.14553 0.08012 0.0
C1113 C 0.55579 0.14851 0.10312 0.0
C1114 C 0.55621 0.12774 0.11429 0.0
C1115 C 0.55735 0.10554 0.10318 0.0
H1116 H 0.11892 0.23936 0.33403 0.0
H1117 H 0.15011 0.31087 0.36871 0.0
H1118 H 0.1555 0.24081 0.32043 0.0
H1119 H 0.18691 0.31272 0.35526 0.0
H1120 H 0.2568 0.31526 0.32972 0.0
H1121 H 0.22005 0.31426 0.34284 0.0
H1122 H 0.18873 0.24186 0.30889 0.0
H1123 H 0.22556 0.24321 0.296 0.0
C1124 C 0.13354 0.25564 0.33883 0.0
C1125 C 0.13058 0.27497 0.35275 0.0
C1126 C 0.15522 0.25657 0.33087 0.0
C1127 C 0.17578 0.27696 0.33619 0.0
C1128 C 0.17258 0.29635 0.35014 0.0
C1129 C 0.15088 0.29537 0.3581 0.0
C1130 C 0.24211 0.29904 0.32489 0.0
C1131 C 0.24511 0.27939 0.31139 0.0
C1132 C 0.22038 0.29834 0.33264 0.0
C1133 C 0.19982 0.27789 0.32751 0.0
C1134 C 0.20303 0.2583 0.31385 0.0
C1135 C 0.22477 0.25902 0.30615 0.0
H1136 H 1.00281 0.10896 0.20004 0.0
H1137 H 0.94018 0.06495 0.16153 0.0
H1138 H 1.02372 0.11061 0.16775 0.0
H1139 H 0.96116 0.06541 0.12958 0.0
H1140 H 1.00437 0.06691 0.07429 0.0
H1141 H 0.98421 0.08237 0.10168 0.0
H1142 H 0.03492 0.07759 0.15236 0.0
H1143 H 0.05539 0.06312 0.12501 0.0
C1144 C 0.99341 0.10026 0.1845 0.0
C1145 C 0.97006 0.08637 0.18329 0.0
C1146 C 1.00539 0.10098 0.16607 0.0
C1147 C 0.99429 0.08734 0.14633 0.0
C1148 C 0.9703 0.07604 0.14453 0.0
C1149 C 0.95823 0.07574 0.16289 0.0
C1150 C 1.01122 0.06928 0.09131 0.0
C1151 C 0.03131 0.06354 0.09759 0.0
C1152 C 0.99972 0.07823 0.10696 0.0
C1153 C 1.00798 0.08137 0.1292 0.0
C1154 C 0.02834 0.07603 0.13534 0.0
C1155 C 0.03994 0.06736 0.11969 0.0
H1156 H 0.32704 0.67692 0.502 0.0
H1157 H 0.32215 0.74082 0.54014 0.0
H1158 H 0.3249 0.69718 0.46857 0.0
H1159 H 0.32066 0.76124 0.507 0.0
H1160 H 0.28383 0.77355 0.44416 0.0
H1161 H 0.29109 0.75497 0.47713 0.0
H1162 H 0.34316 0.73117 0.44729 0.0
H1163 H 0.33515 0.74887 0.41383 0.0
C1164 C 0.32608 0.6955 0.50327 0.0
C1165 C 0.32445 0.70718 0.52358 0.0
C1166 C 0.32487 0.70711 0.48416 0.0
C1167 C 0.32216 0.73063 0.48514 0.0
C1168 C 0.32211 0.74287 0.50565 0.0
C1169 C 0.32313 0.73123 0.52465 0.0
C1170 C 0.29667 0.76416 0.44454 0.0
C1171 C 0.30889 0.76268 0.42639 0.0
C1172 C 0.30108 0.75381 0.46355 0.0
C1173 C 0.31788 0.7418 0.46489 0.0
C1174 C 0.33007 0.74022 0.44672 0.0
C1175 C 0.32563 0.75057 0.42766 0.0
H1176 H 0.61204 0.99987 0.70782 0.0
H1177 H 0.66973 1.00913 0.66941 0.0
H1178 H 0.58617 0.99344 0.67449 0.0
H1179 H 0.64402 1.00332 0.63612 0.0
H1180 H 0.56797 0.03992 0.61969 0.0
H1181 H 0.58362 0.02566 0.65181 0.0
H1182 H 0.6116 0.98061 0.61018 0.0
H1183 H 0.59639 0.99532 0.57811 0.0
C1184 C 0.61909 0.99988 0.6922 0.0
C1185 C 0.64293 1.00561 0.69113 0.0
C1186 C 0.60428 0.99627 0.67315 0.0
C1187 C 0.61312 0.99851 0.65276 0.0
C1188 C 0.63663 1.00144 0.65159 0.0
C1189 C 0.65144 1.00486 0.67067 0.0
C1190 C 0.57697 0.02652 0.61743 0.0
C1191 C 0.58151 0.01923 0.59653 0.0
C1192 C 0.58581 0.01817 0.6358 0.0
C1193 C 0.59914 1.00224 0.63349 0.0
C1194 C 0.60179 0.99323 0.61245 0.0
C1195 C 0.59312 1.0017 0.59413 0.0
H1196 H 0.33782 0.30976 0.98151 0.0
H1197 H 0.29424 0.3558 0.97672 0.0
H1198 H 0.33716 0.30557 0.94171 0.0
H1199 H 0.29379 0.35195 0.93688 0.0
H1200 H 0.35166 0.32278 0.8712 0.0
H1201 H 0.35112 0.32606 0.9109 0.0
H1202 H 0.28095 0.32692 0.90309 0.0
H1203 H 0.28166 0.324 0.86341 0.0
C1204 C 0.32791 0.31889 0.97201 0.0
C1205 C 0.31598 0.33304 0.98269 0.0
C1206 C 0.32772 0.3167 0.94899 0.0
C1207 C 0.31555 0.32851 0.93556 0.0
C1208 C 0.30323 0.34227 0.94627 0.0
C1209 C 0.3035 0.34455 0.96933 0.0
C1210 C 0.33609 0.32375 0.87786 0.0
C1211 C 0.31675 0.32318 0.86369 0.0
C1212 C 0.33569 0.32544 0.90085 0.0
C1213 C 0.31595 0.32672 0.91073 0.0
C1214 C 0.29665 0.3263 0.8965 0.0
C1215 C 0.29702 0.3245 0.87352 0.0
H1216 H 0.98277 0.08605 0.31946 0.0
H1217 H 0.03797 0.08262 0.28103 0.0
H1218 H 1.00742 0.08813 0.35283 0.0
H1219 H 0.06296 0.08563 0.31439 0.0
H1220 H 0.07598 0.03991 0.37095 0.0
H1221 H 0.06175 0.05439 0.33838 0.0
H1222 H 0.04064 0.10667 0.37867 0.0
H1223 H 0.05394 0.09129 0.41134 0.0
C1224 C 1.00044 0.08664 0.31819 0.0
C1225 C 1.00832 0.08362 0.29771 0.0
C1226 C 1.01465 0.08795 0.33733 0.0
C1227 C 0.03705 0.08653 0.33626 0.0
C1228 C 0.04562 0.08612 0.31575 0.0
C1229 C 0.03133 0.0845 0.29665 0.0
C1230 C 0.06862 0.05474 0.37284 0.0
C1231 C 0.06573 0.06413 0.39369 0.0
C1232 C 0.0607 0.06331 0.35416 0.0
C1233 C 0.04981 0.08155 0.35591 0.0
C1234 C 0.04863 0.09235 0.37678 0.0
C1235 C 0.05649 0.0837 0.3955 0.0
H1236 H 0.3506 0.72619 0.62699 0.0
H1237 H 0.32546 0.66096 0.66082 0.0
H1238 H 0.34906 0.75169 0.65956 0.0
H1239 H 0.32445 0.68667 0.6937 0.0
H1240 H 0.28581 0.73446 0.72728 0.0
H1241 H 0.29711 0.70919 0.69984 0.0
H1242 H 0.36126 0.76729 0.69774 0.0
H1243 H 0.34977 0.7929 0.72504 0.0
C1244 C 0.34544 0.71732 0.64161 0.0
C1245 C 0.33762 0.69151 0.64117 0.0
C1246 C 0.34465 0.73199 0.66034 0.0
C1247 C 0.33609 0.72113 0.67901 0.0
C1248 C 0.33059 0.69548 0.67933 0.0
C1249 C 0.33139 0.68077 0.66056 0.0
C1250 C 0.30231 0.74192 0.72096 0.0
C1251 C 0.31679 0.76578 0.72819 0.0
C1252 C 0.30894 0.72727 0.70545 0.0
C1253 C 0.33021 0.73613 0.69683 0.0
C1254 C 0.34474 0.75999 0.70407 0.0
C1255 C 0.33811 0.77467 0.71962 0.0
H1256 H 0.60944 0.05812 0.78824 0.0
H1257 H 0.64839 0.01591 0.81907 0.0
H1258 H 0.58746 0.05613 0.81973 0.0
H1259 H 0.62631 0.01409 0.85073 0.0
H1260 H 0.57223 1.00433 0.89929 0.0
H1261 H 0.58555 0.99889 0.86339 0.0
H1262 H 0.60183 0.07691 0.85785 0.0
H1263 H 0.58945 0.08259 0.89372 0.0
C1264 C 0.61316 0.04819 0.80164 0.0
C1265 C 0.63088 0.03749 0.80138 0.0
C1266 C 0.60053 0.04705 0.81961 0.0
C1267 C 0.60532 0.0351 0.83761 0.0
C1268 C 0.62219 0.02324 0.83692 0.0
C1269 C 0.63493 0.02447 0.81892 0.0
C1270 C 0.57853 0.02028 0.89033 0.0
C1271 C 0.5799 0.04392 0.89944 0.0
C1272 C 0.58605 0.01712 0.86981 0.0
C1273 C 0.5947 0.03748 0.85798 0.0
C1274 C 0.59492 0.06085 0.86654 0.0
C1275 C 0.5877 0.06406 0.88709 0.0
H1276 H 0.3035 0.29766 0.10462 0.0
H1277 H 0.32141 0.37258 0.13326 0.0
H1278 H 0.29965 0.2833 0.14124 0.0
H1279 H 0.31893 0.35878 0.16936 0.0
H1280 H 0.2986 0.33141 0.23404 0.0
H1281 H 0.29905 0.34317 0.19681 0.0
H1282 H 0.31346 0.27671 0.17505 0.0
H1283 H 0.31159 0.26446 0.21217 0.0
C1284 C 0.30678 0.31113 0.11865 0.0
C1285 C 0.31256 0.33638 0.11555 0.0
C1286 C 0.3047 0.30291 0.13992 0.0
C1287 C 0.30866 0.31963 0.159 0.0
C1288 C 0.31489 0.34485 0.15564 0.0
C1289 C 0.31657 0.35294 0.13456 0.0
C1290 C 0.30168 0.31916 0.22131 0.0
C1291 C 0.30498 0.29687 0.22649 0.0
C1292 C 0.30224 0.32607 0.19967 0.0
C1293 C 0.30668 0.31128 0.18219 0.0
C1294 C 0.30971 0.28878 0.18746 0.0
C1295 C 0.30874 0.28169 0.20905 0.0
H1296 H 0.27709 0.99328 0.07899 0.0
H1297 H 0.26316 0.9842 0.00857 0.0
H1298 H 0.25844 0.02486 0.081 0.0
H1299 H 0.24501 0.01657 0.01052 0.0
H1300 H 0.18559 0.04612 0.02963 0.0
H1301 H 0.21018 0.0211 0.02259 0.0
H1302 H 0.26126 0.06601 0.07325 0.0
H1303 H 0.2362 0.09086 0.08063 0.0
C1304 C 0.2702 0.9982 0.0639 0.0
C1305 C 0.27139 0.98612 0.04363 0.0
C1306 C 0.25976 0.01655 0.06503 0.0
C1307 C 0.25041 0.0234 0.04591 0.0
C1308 C 0.2519 1.01156 0.02556 0.0
C1309 C 0.26225 0.99302 0.02444 0.0
C1310 C 0.20237 0.05115 0.03883 0.0
C1311 C 0.20896 0.07034 0.05579 0.0
C1312 C 0.21649 0.03677 0.03478 0.0
C1313 C 0.23754 0.04135 0.04756 0.0
C1314 C 0.24488 0.0617 0.06346 0.0
C1315 C 0.23064 0.07599 0.06763 0.0
H1316 H 0.76005 0.64819 0.06649 0.0
H1317 H 0.72859 0.6871 0.02273 0.0
H1318 H 0.72298 0.61639 0.06668 0.0
H1319 H 0.69152 0.65518 0.02295 0.0
H1320 H 0.63678 0.57978 0.00882 0.0
H1321 H 0.67432 0.61047 0.00953 0.0
H1322 H 0.68361 0.61186 0.07982 0.0
H1323 H 0.64561 0.58089 0.07924 0.0
C1324 C 0.74527 0.64993 0.05682 0.0
C1325 C 0.74735 0.67019 0.0445 0.0
C1326 C 0.724 0.63179 0.0571 0.0
C1327 C 0.70435 0.63329 0.04487 0.0
C1328 C 0.70642 0.65342 0.03242 0.0
C1329 C 0.72764 0.67174 0.03233 0.0
C1330 C 0.64678 0.58642 0.0245 0.0
C1331 C 0.63808 0.57785 0.04402 0.0
C1332 C 0.66828 0.60419 0.02486 0.0
C1333 C 0.68182 0.61376 0.04472 0.0
C1334 C 0.67354 0.60474 0.06425 0.0
C1335 C 0.6518 0.58704 0.06392 0.0
H1336 H 0.72005 0.47301 0.35126 0.0
H1337 H 0.77033 0.53843 0.33399 0.0
H1338 H 0.74688 0.44981 0.34572 0.0
H1339 H 0.7976 0.51583 0.32959 0.0
H1340 H 0.82061 0.4607 0.28743 0.0
H1341 H 0.79931 0.48667 0.30153 0.0
H1342 H 0.78199 0.44137 0.35503 0.0
H1343 H 0.80217 0.41441 0.34006 0.0
C1344 C 0.73712 0.48255 0.34698 0.0
C1345 C 0.74308 0.50729 0.34266 0.0
C1346 C 0.75255 0.46934 0.34387 0.0
C1347 C 0.77425 0.48087 0.33675 0.0
C1348 C 0.78079 0.50621 0.3344 0.0
C1349 C 0.76526 0.5192 0.33706 0.0
C1350 C 0.81228 0.45628 0.3022 0.0
C1351 C 0.81293 0.43539 0.31248 0.0
C1352 C 0.80033 0.4714 0.31052 0.0
C1353 C 0.78893 0.46614 0.32948 0.0
C1354 C 0.79037 0.44579 0.34029 0.0
C1355 C 0.80219 0.43053 0.33184 0.0
H1356 H 0.87601 0.41648 0.49849 0.0
H1357 H 0.86248 0.48527 0.49084 0.0
H1358 H 0.91714 0.4386 0.50468 0.0
H1359 H 0.90326 0.5073 0.49775 0.0
H1360 H 0.97744 0.48885 0.55207 0.0
H1361 H 0.93884 0.46484 0.53646 0.0
H1362 H 0.94178 0.51651 0.48793 0.0
H1363 H 0.98014 0.54097 0.50399 0.0
C1364 C 0.88182 0.43622 0.49764 0.0
C1365 C 0.866 0.44921 0.49468 0.0
C1366 C 0.90534 0.4489 0.5014 0.0
C1367 C 0.91335 0.47474 0.50228 0.0
C1368 C 0.89767 0.48741 0.49721 0.0
C1369 C 0.87423 0.47475 0.49334 0.0
C1370 C 0.96981 0.49514 0.53814 0.0
C1371 C 0.9817 0.51693 0.52942 0.0
C1372 C 0.94782 0.4812 0.52898 0.0
C1373 C 0.93736 0.48864 0.5108 0.0
C1374 C 0.94933 0.51039 0.50202 0.0
C1375 C 0.97125 0.52445 0.51129 0.0
H1376 H 0.41142 0.13123 0.34759 0.0
H1377 H 0.36727 0.05701 0.3508 0.0
H1378 H 0.37885 0.14641 0.35146 0.0
H1379 H 0.33489 0.07209 0.35624 0.0
H1380 H 0.28307 0.10177 0.31706 0.0
H1381 H 0.31219 0.08487 0.33116 0.0
H1382 H 0.34867 0.15473 0.36801 0.0
H1383 H 0.32038 0.17213 0.35249 0.0
C1384 C 0.39489 0.11833 0.35002 0.0
C1385 C 0.39161 0.093 0.34844 0.0
C1386 C 0.37616 0.12697 0.3524 0.0
C1387 C 0.35396 0.1104 0.35369 0.0
C1388 C 0.35148 0.0853 0.35457 0.0
C1389 C 0.37004 0.07665 0.35159 0.0
C1390 C 0.29703 0.11338 0.32854 0.0
C1391 C 0.29972 0.13849 0.33302 0.0
C1392 C 0.31374 0.10362 0.33689 0.0
C1393 C 0.33331 0.11865 0.35028 0.0
C1394 C 0.33426 0.14283 0.35717 0.0
C1395 C 0.31772 0.15271 0.34853 0.0
H1396 H 0.36911 0.18294 0.52106 0.0
H1397 H 0.36035 0.16518 0.58758 0.0
H1398 H 0.3974 0.16075 0.51916 0.0
H1399 H 0.38854 0.14331 0.5857 0.0
H1400 H 0.4571 0.12839 0.5823 0.0
H1401 H 0.43095 0.15297 0.58261 0.0
H1402 H 0.39749 0.11617 0.51993 0.0
H1403 H 0.42382 0.09161 0.51955 0.0
C1404 C 0.3733 0.17444 0.53528 0.0
C1405 C 0.36247 0.17582 0.55446 0.0
C1406 C 0.3894 0.16164 0.53416 0.0
C1407 C 0.39524 0.15033 0.55231 0.0
C1408 C 0.38461 0.15203 0.57152 0.0
C1409 C 0.36834 0.16447 0.57254 0.0
C1410 C 0.44435 0.12573 0.56847 0.0
C1411 C 0.44252 0.10801 0.55092 0.0
C1412 C 0.42925 0.13968 0.56872 0.0
C1413 C 0.4121 0.13647 0.55132 0.0
C1414 C 0.41061 0.11919 0.5335 0.0
C1415 C 0.42555 0.10498 0.53338 0.0
H1416 H 0.74889 0.61499 0.35537 0.0
H1417 H 0.68541 0.63138 0.34157 0.0
H1418 H 0.7707 0.6562 0.34747 0.0
H1419 H 0.70722 0.67242 0.33295 0.0
H1420 H 0.75531 0.75066 0.33185 0.0
H1421 H 0.73413 0.71229 0.34574 0.0
H1422 H 0.77666 0.6755 0.31399 0.0
H1423 H 0.7983 0.71401 0.30063 0.0
C1424 C 0.73962 0.62754 0.3509 0.0
C1425 C 0.71546 0.61993 0.34884 0.0
C1426 C 0.7521 0.65105 0.34619 0.0
C1427 C 0.74067 0.66735 0.3391 0.0
C1428 C 0.71654 0.6603 0.33842 0.0
C1429 C 0.70404 0.6368 0.34336 0.0
C1430 C 0.76012 0.73437 0.32778 0.0
C1431 C 0.77849 0.73535 0.31511 0.0
C1432 C 0.74794 0.71238 0.33574 0.0
C1433 C 0.75381 0.69091 0.33111 0.0
C1434 C 0.77203 0.69186 0.31825 0.0
C1435 C 0.7843 0.71387 0.31041 0.0
H1436 H 0.97712 0.4863 0.82262 0.0
H1437 H 0.91993 0.51524 0.82192 0.0
H1438 H 0.95003 0.44427 0.82038 0.0
H1439 H 0.89315 0.47348 0.82037 0.0
H1440 H 0.85883 0.39319 0.8412 0.0
H1441 H 0.88721 0.43454 0.84707 0.0
H1442 H 0.91478 0.42124 0.78669 0.0
H1443 H 0.88618 0.38038 0.78041 0.0
C1444 C 0.95885 0.48367 0.82226 0.0
C1445 C 0.95056 0.50391 0.82224 0.0
C1446 C 0.94343 0.45975 0.82098 0.0
C1447 C 0.91964 0.45587 0.82029 0.0
C1448 C 0.91145 0.47612 0.82104 0.0
C1449 C 0.92675 0.49992 0.82176 0.0
C1450 C 0.87093 0.39917 0.82919 0.0
C1451 C 0.8702 0.38373 0.81027 0.0
C1452 C 0.88712 0.42269 0.83258 0.0
C1453 C 0.90317 0.43077 0.81739 0.0
C1454 C 0.90268 0.41521 0.79869 0.0
C1455 C 0.88618 0.392 0.79504 0.0
H1456 H 0.13243 0.88448 0.0867 0.0
H1457 H 0.08024 0.87359 0.13169 0.0
H1458 H 0.12319 0.92042 0.07501 0.0
H1459 H 0.07106 0.90971 0.12005 0.0
H1460 H 0.04551 0.96093 0.0765 0.0
H1461 H 0.05407 0.92472 0.08859 0.0
H1462 H 0.12674 0.96256 0.08882 0.0
H1463 H 0.11824 0.99867 0.07661 0.0
C1464 C 0.11893 0.88969 0.09409 0.0
C1465 C 0.1071 0.87603 0.11017 0.0
C1466 C 0.11374 0.91047 0.08748 0.0
C1467 C 0.09642 0.91815 0.09661 0.0
C1468 C 0.08436 0.90429 0.11249 0.0
C1469 C 0.0897 0.88359 0.11925 0.0
C1470 C 0.06334 0.9616 0.07919 0.0
C1471 C 0.08115 0.98285 0.07551 0.0
C1472 C 0.06825 0.94081 0.08624 0.0
C1473 C 0.09112 0.94056 0.08964 0.0
C1474 C 0.10892 0.96188 0.08611 0.0
C1475 C 0.10402 0.98272 0.07924 0.0
H1476 H 0.97527 0.25498 0.88145 0.0
H1477 H 0.94585 0.27872 0.93714 0.0
H1478 H 0.94493 0.26106 0.85702 0.0
H1479 H 0.9157 0.28532 0.91258 0.0
H1480 H 0.85397 0.27596 0.86286 0.0
H1481 H 0.88208 0.26562 0.88706 0.0
H1482 H 0.93443 0.29524 0.84419 0.0
H1483 H 0.9062 0.30512 0.81971 0.0
C1484 C 0.96225 0.26137 0.88853 0.0
C1485 C 0.9631 0.26647 0.9113 0.0
C1486 C 0.94493 0.26505 0.87446 0.0
C1487 C 0.92799 0.27398 0.88277 0.0
C1488 C 0.92835 0.27826 0.9056 0.0
C1489 C 0.94569 0.27452 0.9197 0.0
C1490 C 0.87144 0.28018 0.8585 0.0
C1491 C 0.87779 0.29138 0.83927 0.0
C1492 C 0.88761 0.27436 0.87249 0.0
C1493 C 0.91055 0.27957 0.86763 0.0
C1494 C 0.91684 0.29061 0.84831 0.0
C1495 C 0.90066 0.29642 0.8343 0.0
H1496 H 0.60794 0.2307 0.64842 0.0
H1497 H 0.60557 0.25958 0.58563 0.0
H1498 H 0.6025 0.18994 0.63032 0.0
H1499 H 0.59953 0.21823 0.5674 0.0
H1500 H 0.55736 0.13271 0.55055 0.0
H1501 H 0.56632 0.17537 0.566 0.0
H1502 H 0.62513 0.16906 0.60509 0.0
H1503 H 0.61649 0.12641 0.58928 0.0
C1504 C 0.60618 0.22835 0.63071 0.0
C1505 C 0.60709 0.24845 0.61848 0.0
C1506 C 0.60324 0.20498 0.62036 0.0
C1507 C 0.60067 0.20088 0.59746 0.0
C1508 C 0.60144 0.22087 0.58511 0.0
C1509 C 0.60494 0.24451 0.59552 0.0
C1510 C 0.57232 0.14044 0.56232 0.0
C1511 C 0.58616 0.12607 0.56875 0.0
C1512 C 0.57752 0.16495 0.57104 0.0
C1513 C 0.59642 0.17557 0.58674 0.0
C1514 C 0.61041 0.16133 0.59305 0.0
C1515 C 0.6055 0.13694 0.58396 0.0
H1516 H 0.57209 0.79263 0.38384 0.0
H1517 H 0.61622 0.78718 0.44002 0.0
H1518 H 0.60399 0.79826 0.36137 0.0
H1519 H 0.64822 0.79296 0.4174 0.0
H1520 H 0.69197 0.77874 0.36255 0.0
H1521 H 0.66031 0.77171 0.3856 0.0
H1522 H 0.64112 0.83112 0.35897 0.0
H1523 H 0.67299 0.83855 0.33626 0.0
C1524 C 0.58857 0.7925 0.39142 0.0
C1525 C 0.59161 0.78952 0.4138 0.0
C1526 C 0.60686 0.7959 0.37852 0.0
C1527 C 0.62862 0.79624 0.38765 0.0
C1528 C 0.63158 0.79266 0.40989 0.0
C1529 C 0.61329 0.78943 0.42288 0.0
C1530 C 0.6812 0.79053 0.3618 0.0
C1531 C 0.68504 0.80921 0.34749 0.0
C1532 C 0.66303 0.78644 0.37497 0.0
C1533 C 0.64819 0.80079 0.37401 0.0
C1534 C 0.65206 0.8195 0.3598 0.0
C1535 C 0.6703 0.82372 0.34675 0.0
H1536 H 0.04629 0.23586 0.46939 0.0
H1537 H 0.07008 0.20452 0.41401 0.0
H1538 H 0.04467 0.19931 0.48846 0.0
H1539 H 0.06892 0.16832 0.43303 0.0
H1540 H 0.05014 0.09467 0.46469 0.0
H1541 H 0.05087 0.13099 0.44574 0.0
H1542 H 0.06015 0.17395 0.50792 0.0
H1543 H 0.05896 0.13746 0.5267 0.0
C1544 C 0.05137 0.22135 0.46117 0.0
C1545 C 0.05838 0.22393 0.43979 0.0
C1546 C 0.05053 0.20002 0.47231 0.0
C1547 C 0.05658 0.17984 0.46277 0.0
C1548 C 0.06365 0.18259 0.44139 0.0
C1549 C 0.06453 0.20388 0.43031 0.0
C1550 C 0.0522 0.11176 0.47447 0.0
C1551 C 0.05433 0.11236 0.4976 0.0
C1552 C 0.05285 0.13309 0.46343 0.0
C1553 C 0.05563 0.15643 0.47481 0.0
C1554 C 0.05765 0.15687 0.49799 0.0
C1555 C 0.05707 0.13558 0.50899 0.0
H1556 H 0.61642 0.26596 0.2385 0.0
H1557 H 0.65078 0.32074 0.19742 0.0
H1558 H 0.65392 0.26447 0.25422 0.0
H1559 H 0.68806 0.31935 0.21299 0.0
H1560 H 0.75641 0.32653 0.2551 0.0
H1561 H 0.7188 0.3283 0.2406 0.0
H1562 H 0.68785 0.25257 0.25235 0.0
H1563 H 0.72562 0.2509 0.26686 0.0
C1564 C 0.63184 0.27801 0.23285 0.0
C1565 C 0.62967 0.29369 0.21648 0.0
C1566 C 0.65378 0.27697 0.24185 0.0
C1567 C 0.67509 0.29176 0.23529 0.0
C1568 C 0.6728 0.30767 0.21916 0.0
C1569 C 0.65093 0.30847 0.21 0.0
C1570 C 0.74172 0.31008 0.25463 0.0
C1571 C 0.74497 0.28852 0.26242 0.0
C1572 C 0.71969 0.31105 0.24604 0.0
C1573 C 0.69921 0.29061 0.24485 0.0
C1574 C 0.70246 0.26907 0.25283 0.0
C1575 C 0.72458 0.26802 0.26119 0.0
H1576 H 0.5746 0.84193 0.97749 0.0
H1577 H 0.55736 0.87214 0.91894 0.0
H1578 H 0.57434 0.8794 0.99938 0.0
H1579 H 0.55703 0.90909 0.9405 0.0
H1580 H 0.57617 0.9843 0.98109 0.0
H1581 H 0.5772 0.94676 0.96056 0.0
H1582 H 0.55414 0.9055 0.01505 0.0
H1583 H 0.55323 0.9433 0.03564 0.0
C1584 C 0.57074 0.85639 0.96911 0.0
C1585 C 0.56603 0.85325 0.94602 0.0
C1586 C 0.57047 0.87817 0.98183 0.0
C1587 C 0.56578 0.8982 0.97216 0.0
C1588 C 0.56114 0.8949 0.94909 0.0
C1589 C 0.56117 0.87318 0.93649 0.0
C1590 C 0.57129 0.96733 0.98888 0.0
C1591 C 0.56457 0.96756 0.0104 0.0
C1592 C 0.57173 0.94535 0.97686 0.0
C1593 C 0.56566 0.92218 0.98563 0.0
C1594 C 0.5592 0.92248 0.0073 0.0
C1595 C 0.55854 0.94447 0.01927 0.0
H1596 H 0.97069 0.75397 0.73843 0.0
H1597 H 0.97898 0.8255 0.71664 0.0
H1598 H 0.93535 0.75473 0.75432 0.0
H1599 H 0.9438 0.82651 0.73273 0.0
H1600 H 0.88662 0.83153 0.77836 0.0
H1601 H 0.92213 0.83081 0.76277 0.0
H1602 H 0.89544 0.75181 0.75183 0.0
H1603 H 0.85991 0.75267 0.7672 0.0
C1604 C 0.96521 0.77005 0.73695 0.0
C1605 C 0.97864 0.78966 0.72586 0.0
C1606 C 0.94441 0.77047 0.74616 0.0
C1607 C 0.93561 0.79071 0.74532 0.0
C1608 C 0.94924 0.81043 0.73438 0.0
C1609 C 0.96983 0.80982 0.72485 0.0
C1610 C 0.88813 0.81384 0.77278 0.0
C1611 C 0.86949 0.79218 0.77458 0.0
C1612 C 0.90888 0.8134 0.76347 0.0
C1613 C 0.91277 0.79122 0.75555 0.0
C1614 C 0.89417 0.76953 0.7576 0.0
C1615 C 0.87327 0.77002 0.76657 0.0
H1616 H 0.10561 0.02496 0.88829 0.0
H1617 H 0.1772 0.04034 0.91145 0.0
H1618 H 0.09466 0.01414 0.92429 0.0
H1619 H 0.1662 0.02969 0.94791 0.0
H1620 H 0.13233 0.05997 0.00742 0.0
H1621 H 0.14933 0.0548 0.97365 0.0
H1622 H 0.09432 0.98687 0.95459 0.0
H1623 H 0.07713 0.99204 0.98826 0.0
C1624 C 0.11895 0.02537 0.90101 0.0
C1625 C 0.14222 0.03374 0.8973 0.0
C1626 C 0.11268 0.01898 0.92157 0.0
C1627 C 0.12962 0.02121 0.93889 0.0
C1628 C 0.15286 0.0279 0.93479 0.0
C1629 C 0.15912 0.0339 0.91399 0.0
C1630 C 0.1241 0.04368 0.99625 0.0
C1631 C 0.10304 0.0268 1.00018 0.0
C1632 C 0.134 0.04056 0.97704 0.0
C1633 C 0.12296 0.02057 0.96145 0.0
C1634 C 0.10302 1.00257 0.96629 0.0
C1635 C 0.09316 1.00561 0.98553 0.0
H1636 H 0.82135 0.4291 0.58407 0.0
H1637 H 0.78049 0.35483 0.55977 0.0
H1638 H 0.83273 0.41443 0.61768 0.0
H1639 H 0.79102 0.34019 0.59402 0.0
H1640 H 0.8375 0.31843 0.64434 0.0
H1641 H 0.8238 0.33338 0.6117 0.0
H1642 H 0.8218 0.39828 0.65045 0.0
H1643 H 0.83725 0.38433 0.68264 0.0
C1644 C 0.81429 0.40969 0.58614 0.0
C1645 C 0.80013 0.3931 0.56919 0.0
C1646 C 0.82079 0.40126 0.6055 0.0
C1647 C 0.813 0.37606 0.60852 0.0
C1648 C 0.7978 0.35963 0.59202 0.0
C1649 C 0.79154 0.36805 0.57249 0.0
C1650 C 0.83457 0.33612 0.64582 0.0
C1651 C 0.83851 0.35016 0.66615 0.0
C1652 C 0.82626 0.34447 0.62716 0.0
C1653 C 0.82146 0.36695 0.62843 0.0
C1654 C 0.82548 0.381 0.64877 0.0
C1655 C 0.8341 0.37283 0.66733 0.0
H1656 H 0.5464 0.08947 0.37341 0.0
H1657 H 0.49055 0.11284 0.39551 0.0
H1658 H 0.56385 0.09477 0.41076 0.0
H1659 H 0.5085 0.11894 0.43299 0.0
H1660 H 0.59053 0.10144 0.4804 0.0
H1661 H 0.58058 0.11681 0.44619 0.0
H1662 H 0.50836 0.08495 0.45422 0.0
H1663 H 0.51817 0.0702 0.48825 0.0
C1664 C 0.53827 0.09662 0.38615 0.0
C1665 C 0.51671 0.09994 0.38166 0.0
C1666 C 0.54841 0.09986 0.40761 0.0
C1667 C 0.53721 0.10663 0.42489 0.0
C1668 C 0.51719 0.11308 0.42001 0.0
C1669 C 0.50696 0.10967 0.39855 0.0
C1670 C 0.57255 0.09808 0.47497 0.0
C1671 C 0.55512 0.08416 0.48677 0.0
C1672 C 0.56688 0.10692 0.45543 0.0
C1673 C 0.5437 0.1021 0.44748 0.0
C1674 C 0.52639 0.08938 0.46 0.0
C1675 C 0.53203 0.08053 0.47939 0.0
H1676 H 0.78347 0.76591 0.10884 0.0
H1677 H 0.85441 0.76926 0.11993 0.0
H1678 H 0.78263 0.77534 0.14798 0.0
H1679 H 0.85447 0.7805 0.15865 0.0
H1680 H 0.84553 0.77499 0.23043 0.0
H1681 H 0.84589 0.76818 0.19123 0.0
H1682 H 0.78897 0.79698 0.18111 0.0
H1683 H 0.78783 0.80213 0.22063 0.0
C1684 C 0.7992 0.76965 0.11954 0.0
C1685 C 0.81909 0.76708 0.11099 0.0
C1686 C 0.79877 0.77499 0.14228 0.0
C1687 C 0.81836 0.77839 0.15735 0.0
C1688 C 0.8386 0.77723 0.14833 0.0
C1689 C 0.83881 0.77127 0.12577 0.0
C1690 C 0.83299 0.77981 0.21987 0.0
C1691 C 0.81661 0.78907 0.22902 0.0
C1692 C 0.83333 0.77617 0.19704 0.0
C1693 C 0.81766 0.78222 0.18215 0.0
C1694 C 0.80126 0.79161 0.19144 0.0
C1695 C 0.80062 0.79474 0.21437 0.0
H1696 H 0.17388 0.06393 0.76243 0.0
H1697 H 0.10793 0.04058 0.78867 0.0
H1698 H 0.15478 0.06555 0.72687 0.0
H1699 H 0.08875 0.04162 0.7528 0.0
H1700 H 0.0684 0.08106 0.69541 0.0
H1701 H 0.08588 0.07431 0.73034 0.0
H1702 H 0.12947 0.041 0.69616 0.0
H1703 H 0.11279 0.04875 0.66139 0.0
C1704 C 0.15527 0.05868 0.76051 0.0
C1705 C 0.14243 0.05235 0.77841 0.0
C1706 C 0.14431 0.05952 0.74009 0.0
C1707 C 0.12028 0.05392 0.73712 0.0
C1708 C 0.10734 0.04647 0.75475 0.0
C1709 C 0.11831 0.04569 0.77522 0.0
C1710 C 0.08182 0.07246 0.69542 0.0
C1711 C 0.08925 0.06547 0.67571 0.0
C1712 C 0.0916 0.06827 0.71537 0.0
C1713 C 0.10898 0.05704 0.71596 0.0
C1714 C 0.11623 0.04986 0.69622 0.0
C1715 C 0.10652 0.05409 0.67632 0.0
H1716 H 0.77557 0.40196 0.43237 0.0
H1717 H 0.7684 0.32971 0.45296 0.0
H1718 H 0.77445 0.38591 0.39429 0.0
H1719 H 0.76729 0.31375 0.41521 0.0
H1720 H 0.76091 0.28767 0.3456 0.0
H1721 H 0.74846 0.30523 0.37759 0.0
H1722 H 0.80507 0.37234 0.37738 0.0
H1723 H 0.81745 0.35494 0.34507 0.0
C1724 C 0.77287 0.38249 0.42867 0.0
C1725 C 0.77231 0.36707 0.44553 0.0
C1726 C 0.77246 0.37339 0.40694 0.0
C1727 C 0.77111 0.34869 0.40185 0.0
C1728 C 0.76823 0.33283 0.41858 0.0
C1729 C 0.76893 0.34197 0.44022 0.0
C1730 C 0.77061 0.30628 0.3522 0.0
C1731 C 0.79051 0.31973 0.3431 0.0
C1732 C 0.76339 0.31634 0.37048 0.0
C1733 C 0.77587 0.34004 0.38006 0.0
C1734 C 0.79498 0.35407 0.37022 0.0
C1735 C 0.80224 0.344 0.35189 0.0
H1736 H 0.42936 0.05542 0.2544 0.0
H1737 H 0.50101 0.09877 0.2682 0.0
H1738 H 0.43574 0.04664 0.21643 0.0
H1739 H 0.50732 0.09003 0.23042 0.0
H1740 H 0.51327 0.07445 0.16008 0.0
H1741 H 0.49836 0.09225 0.19048 0.0
H1742 H 0.45882 0.01928 0.20431 0.0
H1743 H 0.4734 1.00149 0.17366 0.0
C1744 C 0.44625 0.0638 0.24915 0.0
C1745 C 0.4648 0.07743 0.2643 0.0
C1746 C 0.44991 0.05862 0.22748 0.0
C1747 C 0.47207 0.06733 0.22062 0.0
C1748 C 0.49003 0.08311 0.23522 0.0
C1749 C 0.48645 0.08804 0.2569 0.0
C1750 C 0.50095 0.06225 0.16928 0.0
C1751 C 0.49463 0.03656 0.16468 0.0
C1752 C 0.49249 0.07245 0.1867 0.0
C1753 C 0.47747 0.05716 0.19973 0.0
C1754 C 0.47016 0.03153 0.19437 0.0
C1755 C 0.47874 0.02132 0.17704 0.0
H1756 H 0.78647 0.78312 0.97867 0.0
H1757 H 0.83184 0.73931 0.97239 0.0
H1758 H 0.78771 0.78988 0.94002 0.0
H1759 H 0.83329 0.74622 0.93358 0.0
H1760 H 0.81208 0.74402 0.85841 0.0
H1761 H 0.8123 0.73689 0.89732 0.0
H1762 H 0.81059 0.81061 0.91346 0.0
H1763 H 0.81019 0.81757 0.87496 0.0
C1764 C 0.79694 0.77507 0.96914 0.0
C1765 C 0.80916 0.76076 0.97905 0.0
C1766 C 0.79774 0.77903 0.94677 0.0
C1767 C 0.81066 0.76871 0.93319 0.0
C1768 C 0.82292 0.75438 0.94313 0.0
C1769 C 0.82226 0.75057 0.9656 0.0
C1770 C 0.81188 0.75878 0.87025 0.0
C1771 C 0.81111 0.78143 0.86314 0.0
C1772 C 0.81208 0.75471 0.89274 0.0
C1773 C 0.81129 0.77305 0.90899 0.0
C1774 C 0.81079 0.79573 0.90177 0.0
C1775 C 0.81075 0.79982 0.87944 0.0
H1776 H 0.87011 0.12494 0.03723 0.0
H1777 H 0.85038 0.06253 0.07538 0.0
H1778 H 0.89215 0.10443 0.01572 0.0
H1779 H 0.87222 0.04221 0.05397 0.0
H1780 H 0.90074 1.00353 1.00386 0.0
H1781 H 0.87357 0.02399 0.01576 0.0
H1782 H 0.9283 0.09339 0.0259 0.0
H1783 H 0.95551 0.07309 0.01463 0.0
C1784 C 0.87033 0.1068 0.04089 0.0
C1785 C 0.85872 0.09542 0.05811 0.0
C1786 C 0.88289 0.0951 0.02859 0.0
C1787 C 0.88375 0.07169 0.03312 0.0
C1788 C 0.87157 0.06007 0.0499 0.0
C1789 C 0.85928 0.07185 0.06232 0.0
C1790 C 0.90691 0.02321 0.00835 0.0
C1791 C 0.93037 0.03657 0.00854 0.0
C1792 C 0.89135 0.0349 0.0151 0.0
C1793 C 0.89892 0.0602 0.02195 0.0
C1794 C 0.92196 0.07391 0.02052 0.0
C1795 C 0.93754 0.06221 0.01397 0.0
H1796 H 0.40359 0.38984 0.04607 0.0
H1797 H 0.37814 0.45168 0.05592 0.0
H1798 H 0.44156 0.41791 0.04187 0.0
H1799 H 0.416 0.47977 0.05108 0.0
H1800 H 0.49369 0.52359 0.06344 0.0
H1801 H 0.4549 0.49689 0.0676 0.0
H1802 H 0.46163 0.44445 0.01686 0.0
H1803 H 0.50043 0.47069 0.01319 0.0
C1804 C 0.40604 0.40942 0.04726 0.0
C1805 C 0.38773 0.41843 0.05132 0.0
C1806 C 0.42783 0.42557 0.04468 0.0
C1807 C 0.43192 0.4512 0.04595 0.0
C1808 C 0.41363 0.46022 0.05021 0.0
C1809 C 0.39184 0.44405 0.05289 0.0
C1810 C 0.48677 0.50648 0.05303 0.0
C1811 C 0.50025 0.49925 0.03807 0.0
C1812 C 0.46449 0.49115 0.05538 0.0
C1813 C 0.45513 0.46829 0.04276 0.0
C1814 C 0.46839 0.46158 0.02726 0.0
C1815 C 0.49063 0.47678 0.02501 0.0
H1816 H 0.41611 0.61353 0.80822 0.0
H1817 H 0.37765 0.61343 0.74655 0.0
H1818 H 0.38954 0.62985 0.82742 0.0
H1819 H 0.35178 0.63018 0.76541 0.0
H1820 H 0.29671 0.64028 0.79959 0.0
H1821 H 0.32173 0.61739 0.78875 0.0
H1822 H 0.37765 0.66658 0.8325 0.0
H1823 H 0.35194 0.68848 0.84501 0.0
C1824 C 0.40215 0.61722 0.79878 0.0
C1825 C 0.39886 0.61209 0.7759 0.0
C1826 C 0.38694 0.6265 0.80976 0.0
C1827 C 0.36826 0.63081 0.798 0.0
C1828 C 0.36551 0.62631 0.77508 0.0
C1829 C 0.38052 0.61695 0.7642 0.0
C1830 C 0.31397 0.64576 0.80777 0.0
C1831 C 0.32234 0.66681 0.82285 0.0
C1832 C 0.32851 0.6328 0.80115 0.0
C1833 C 0.35191 0.6408 0.80907 0.0
C1834 C 0.35977 0.66015 0.82584 0.0
C1835 C 0.34505 0.6729 0.83281 0.0
H1836 H 0.23713 0.65728 0.57659 0.0
H1837 H 0.24069 0.58326 0.56677 0.0
H1838 H 0.19516 0.64121 0.57079 0.0
H1839 H 0.19863 0.56732 0.56055 0.0
H1840 H 0.1255 0.55926 0.5239 0.0
H1841 H 0.16759 0.57423 0.53006 0.0
H1842 H 0.16353 0.6108 0.59251 0.0
H1843 H 0.12154 0.59554 0.58667 0.0
C1844 C 0.22894 0.63761 0.57311 0.0
C1845 C 0.24212 0.62149 0.57214 0.0
C1846 C 0.205 0.62846 0.56989 0.0
C1847 C 0.19387 0.60311 0.56523 0.0
C1848 C 0.20696 0.58697 0.56403 0.0
C1849 C 0.23093 0.59607 0.56769 0.0
C1850 C 0.13362 0.57048 0.53894 0.0
C1851 C 0.12033 0.5763 0.5548 0.0
C1852 C 0.1576 0.57888 0.54248 0.0
C1853 C 0.16859 0.5936 0.56172 0.0
C1854 C 0.15533 0.59954 0.57751 0.0
C1855 C 0.13138 0.59076 0.57418 0.0
H1856 H 0.75707 1.00122 0.75516 0.0
H1857 H 0.71293 1.00936 0.80474 0.0
H1858 H 0.77912 0.98536 0.78106 0.0
H1859 H 0.73558 0.99375 0.83113 0.0
H1860 H 0.76257 0.92826 0.85305 0.0
H1861 H 0.74277 0.95494 0.83745 0.0
H1862 H 0.80583 0.99758 0.81348 0.0
H1863 H 0.82506 0.96993 0.82708 0.0
C1864 C 0.75216 0.99977 0.77168 0.0
C1865 C 0.73322 1.00646 0.77787 0.0
C1866 C 0.76503 0.99098 0.78667 0.0
C1867 C 0.75941 0.98877 0.80833 0.0
C1868 C 0.74037 0.99535 0.81459 0.0
C1869 C 0.72739 1.00419 0.79947 0.0
C1870 C 0.77234 0.94351 0.84469 0.0
C1871 C 0.79515 0.94599 0.8404 0.0
C1872 C 0.76101 0.95902 0.83599 0.0
C1873 C 0.77253 0.97766 0.82338 0.0
C1874 C 0.79628 0.98271 0.82238 0.0
C1875 C 0.80745 0.96693 0.8306 0.0
H1876 H 0.745 0.89734 0.53021 0.0
H1877 H 0.78471 0.95428 0.58003 0.0
H1878 H 0.71901 0.92154 0.52266 0.0
H1879 H 0.75903 0.9783 0.57237 0.0
H1880 H 0.72553 0.02641 0.53473 0.0
H1881 H 0.74997 1.00063 0.54046 0.0
H1882 H 0.6899 0.93758 0.54259 0.0
H1883 H 0.66526 0.96351 0.53762 0.0
C1884 C 0.74817 0.91495 0.53954 0.0
C1885 C 0.76694 0.92387 0.55571 0.0
C1886 C 0.73326 0.92874 0.53528 0.0
C1887 C 0.73708 0.95189 0.54683 0.0
C1888 C 0.75579 0.96069 0.56301 0.0
C1889 C 0.77043 0.94681 0.56748 0.0
C1890 C 0.71742 1.00713 0.53664 0.0
C1891 C 0.69332 0.99722 0.53597 0.0
C1892 C 0.73148 0.99232 0.53981 0.0
C1893 C 0.72187 0.96711 0.54212 0.0
C1894 C 0.69779 0.95692 0.54071 0.0
C1895 C 0.68368 0.97182 0.53779 0.0
H1896 H 0.38557 0.50269 0.74138 0.0
H1897 H 0.44791 0.4933 0.77133 0.0
H1898 H 0.36437 0.4604 0.74721 0.0
H1899 H 0.4266 0.45121 0.77738 0.0
H1900 H 0.3836 0.3697 0.7689 0.0
H1901 H 0.4051 0.41009 0.75848 0.0
H1902 H 0.35276 0.43953 0.78032 0.0
H1903 H 0.33115 0.39929 0.79047 0.0
C1904 C 0.3948 0.49157 0.74902 0.0
C1905 C 0.41838 0.50143 0.75607 0.0
C1906 C 0.38262 0.46741 0.75246 0.0
C1907 C 0.39381 0.45263 0.76293 0.0
C1908 C 0.41756 0.46214 0.76915 0.0
C1909 C 0.42973 0.4863 0.76578 0.0
C1910 C 0.37668 0.38479 0.77146 0.0
C1911 C 0.3557 0.3813 0.78056 0.0
C1912 C 0.38902 0.4079 0.76553 0.0
C1913 C 0.38052 0.42789 0.76848 0.0
C1914 C 0.35954 0.42436 0.77752 0.0
C1915 C 0.34727 0.40134 0.78353 0.0
H1916 H 0.18966 0.61464 0.26693 0.0
H1917 H 0.2411 0.60428 0.22628 0.0
H1918 H 0.21097 0.65834 0.27357 0.0
H1919 H 0.26245 0.64808 0.2331 0.0
H1920 H 0.27347 0.72291 0.30542 0.0
H1921 H 0.24897 0.68072 0.29487 0.0
H1922 H 0.26019 0.69029 0.22717 0.0
H1923 H 0.28484 0.73248 0.23765 0.0
C1924 C 0.20535 0.62171 0.25917 0.0
C1925 C 0.21382 0.60593 0.24625 0.0
C1926 C 0.21759 0.64671 0.2631 0.0
C1927 C 0.23846 0.65647 0.25407 0.0
C1928 C 0.24634 0.64101 0.2402 0.0
C1929 C 0.23415 0.61593 0.23636 0.0
C1930 C 0.27068 0.71605 0.28828 0.0
C1931 C 0.28112 0.73098 0.27238 0.0
C1932 C 0.25652 0.69197 0.28223 0.0
C1933 C 0.25265 0.68233 0.2602 0.0
C1934 C 0.26301 0.69726 0.24428 0.0
C1935 C 0.27704 0.72141 0.2503 0.0
H1936 H 0.58166 0.74188 0.51915 0.0
H1937 H 0.51705 0.70171 0.48182 0.0
H1938 H 0.58437 0.70401 0.53259 0.0
H1939 H 0.51933 0.66356 0.49595 0.0
H1940 H 0.5449 0.59643 0.50719 0.0
H1941 H 0.53929 0.63363 0.49385 0.0
H1942 H 0.5695 0.67409 0.55621 0.0
H1943 H 0.5758 0.63747 0.56909 0.0
C1944 C 0.56778 0.72499 0.51406 0.0
C1945 C 0.54909 0.72498 0.49943 0.0
C1946 C 0.56928 0.70314 0.5219 0.0
C1947 C 0.55204 0.68049 0.51551 0.0
C1948 C 0.53311 0.6805 0.50108 0.0
C1949 C 0.53167 0.70245 0.49312 0.0
C1950 C 0.55031 0.61329 0.51802 0.0
C1951 C 0.56111 0.61394 0.53912 0.0
C1952 C 0.54696 0.63465 0.51042 0.0
C1953 C 0.55417 0.65716 0.5238 0.0
C1954 C 0.56425 0.65743 0.54514 0.0
C1955 C 0.56777 0.63626 0.55261 0.0
H1956 H 0.66345 0.32499 0.72531 0.0
H1957 H 0.70323 0.34589 0.67068 0.0
H1958 H 0.69817 0.32687 0.74791 0.0
H1959 H 0.73826 0.34829 0.69359 0.0
H1960 H 0.78693 0.31382 0.73181 0.0
H1961 H 0.7549 0.31941 0.70944 0.0
H1962 H 0.73442 0.35245 0.76631 0.0
H1963 H 0.76623 0.34636 0.78886 0.0
C1964 C 0.67967 0.33042 0.71819 0.0
C1965 C 0.68043 0.33512 0.69607 0.0
C1966 C 0.69969 0.33164 0.73125 0.0
C1967 C 0.72109 0.33759 0.7226 0.0
C1968 C 0.72203 0.34329 0.70072 0.0
C1969 C 0.70196 0.34212 0.68762 0.0
C1970 C 0.77569 0.32241 0.73959 0.0
C1971 C 0.77907 0.32937 0.76225 0.0
C1972 C 0.75739 0.32582 0.72666 0.0
C1973 C 0.74192 0.33628 0.73602 0.0
C1974 C 0.74575 0.34398 0.75857 0.0
C1975 C 0.76409 0.3406 0.77151 0.0
H1976 H 1.01125 0.33527 0.02154 0.0
H1977 H 0.05225 0.35628 0.96781 0.0
H1978 H 1.01769 0.37847 0.03326 0.0
H1979 H 0.05802 0.39951 0.97896 0.0
H1980 H 1.01209 0.4557 0.03581 0.0
H1981 H 1.00689 0.41274 0.02406 0.0
H1982 H 0.07607 0.43336 1.00477 0.0
H1983 H 0.08089 0.47631 0.01575 0.0
C1984 C 1.02172 0.34913 0.01224 0.0
C1985 C 0.03127 0.34223 0.99374 0.0
C1986 C 1.02522 0.37399 0.01883 0.0
C1987 C 0.03819 0.39273 0.00698 0.0
C1988 C 0.04815 0.38578 0.98872 0.0
C1989 C 0.04481 0.36089 0.98225 0.0
C1990 C 1.02612 0.4511 0.02889 0.0
C1991 C 0.04684 0.4696 0.02664 0.0
C1992 C 1.02324 0.42635 0.02232 0.0
C1993 C 0.04109 0.4193 0.01352 0.0
C1994 C 0.06175 0.43791 0.01112 0.0
C1995 C 0.06455 0.46267 0.0175 0.0
H1996 H 0.04193 0.82785 0.17761 0.0
H1997 H 0.06248 0.78196 0.22247 0.0
H1998 H 1.00804 0.82517 0.19718 0.0
H1999 H 0.02907 0.77963 0.24206 0.0
H2000 H 0.95433 0.75609 0.25588 0.0
H2001 H 0.98765 0.76037 0.23557 0.0
H2002 H 0.99639 0.83771 0.23269 0.0
H2003 H 0.96292 0.83343 0.25317 0.0
C2004 C 0.03931 0.81735 0.1917 0.0
C2005 C 0.05483 0.80501 0.19839 0.0
C2006 C 1.01996 0.81589 0.20296 0.0
C2007 C 1.01574 0.80199 0.22106 0.0
C2008 C 0.03154 0.79009 0.22794 0.0
C2009 C 0.05081 0.79157 0.21676 0.0
C2010 C 0.96345 0.77408 0.2511 0.0
C2011 C 0.95608 0.79447 0.25637 0.0
C2012 C 0.98255 0.77653 0.23942 0.0
C2013 C 0.99482 0.79943 0.23267 0.0
C2014 C 0.9872 0.81977 0.23751 0.0
C2015 C 0.96804 0.81731 0.24924 0.0
H2016 H 0.5519 0.37048 0.1467 0.0
H2017 H 0.60471 0.3615 0.10787 0.0
H2018 H 0.5511 0.40665 0.12815 0.0
H2019 H 0.60423 0.39786 0.0894 0.0
H2020 H 0.58744 0.45497 0.04605 0.0
H2021 H 0.58829 0.41858 0.06434 0.0
H2022 H 0.56616 0.44792 0.12196 0.0
H2023 H 0.56508 0.48399 0.10354 0.0
C2024 C 0.56348 0.37613 0.13423 0.0
C2025 C 0.57837 0.36239 0.12913 0.0
C2026 C 0.56315 0.39735 0.12347 0.0
C2027 C 0.57762 0.40614 0.10682 0.0
C2028 C 0.59245 0.39223 0.1017 0.0
C2029 C 0.59286 0.37109 0.11256 0.0
C2030 C 0.58278 0.45384 0.06265 0.0
C2031 C 0.57617 0.47312 0.07294 0.0
C2032 C 0.58337 0.43266 0.0734 0.0
C2033 C 0.57725 0.42935 0.09509 0.0
C2034 C 0.57072 0.44878 0.10533 0.0
C2035 C 0.57024 0.46996 0.09463 0.0
H2036 H 0.99959 0.32028 0.37546 0.0
H2037 H 0.98652 0.24661 0.34592 0.0
H2038 H 0.96201 0.32055 0.35937 0.0
H2039 H 0.94819 0.24649 0.3303 0.0
H2040 H 0.86935 0.24766 0.32594 0.0
H2041 H 0.90773 0.24642 0.33955 0.0
H2042 H 0.93758 0.32136 0.32523 0.0
H2043 H 0.89947 0.32227 0.31097 0.0
C2044 C 0.98893 0.30408 0.36525 0.0
C2045 C 0.99717 0.28365 0.36193 0.0
C2046 C 0.96692 0.30421 0.35592 0.0
C2047 C 0.95111 0.28356 0.3432 0.0
C2048 C 0.95924 0.26295 0.3399 0.0
C2049 C 0.98168 0.26309 0.34875 0.0
C2050 C 0.884 0.26398 0.32558 0.0
C2051 C 0.88046 0.28513 0.3171 0.0
C2052 C 0.9064 0.26322 0.33339 0.0
C2053 C 0.92667 0.28378 0.33385 0.0
C2054 C 0.923 0.30496 0.32557 0.0
C2055 C 0.90076 0.30549 0.3172 0.0
H2056 H 0.06174 0.75166 0.61193 0.0
H2057 H 1.02042 0.71068 0.65858 0.0
H2058 H 0.06278 0.71344 0.59291 0.0
H2059 H 1.02072 0.6722 0.6392 0.0
H2060 H 0.03838 0.60415 0.61083 0.0
H2061 H 0.03677 0.64233 0.62973 0.0
H2062 H 0.04941 0.67797 0.57031 0.0
H2063 H 0.05174 0.63998 0.5518 0.0
C2064 C 0.05247 0.73451 0.61807 0.0
C2065 C 0.04085 0.73499 0.63706 0.0
C2066 C 0.053 0.71211 0.60693 0.0
C2067 C 0.04188 0.68869 0.61401 0.0
C2068 C 0.02997 0.68924 0.6329 0.0
C2069 C 0.02954 0.71168 0.6441 0.0
C2070 C 0.04082 0.62007 0.60167 0.0
C2071 C 0.04522 0.6183 0.57946 0.0
C2072 C 0.03974 0.64236 0.61264 0.0
C2073 C 0.04289 0.66426 0.60204 0.0
C2074 C 0.0472 0.66231 0.57973 0.0
C2075 C 0.04839 0.64007 0.56882 0.0
H2076 H 0.63431 0.7671 0.88613 0.0
H2077 H 0.62266 0.81885 0.84299 0.0
H2078 H 0.66972 0.76842 0.86986 0.0
H2079 H 0.65869 0.82056 0.82678 0.0
H2080 H 0.73805 0.83401 0.81398 0.0
H2081 H 0.70157 0.8333 0.82876 0.0
H2082 H 0.68908 0.75741 0.84044 0.0
H2083 H 0.72502 0.75804 0.82542 0.0
C2084 C 0.63903 0.77883 0.87305 0.0
C2085 C 0.62449 0.79266 0.86622 0.0
C2086 C 0.65982 0.77955 0.86345 0.0
C2087 C 0.66816 0.7946 0.8465 0.0
C2088 C 0.65375 0.80867 0.8397 0.0
C2089 C 0.63255 0.80754 0.84905 0.0
C2090 C 0.7276 0.817 0.81954 0.0
C2091 C 0.73541 0.79606 0.81801 0.0
C2092 C 0.7062 0.81654 0.82814 0.0
C2093 C 0.69132 0.79528 0.83632 0.0
C2094 C 0.69933 0.77448 0.83485 0.0
C2095 C 0.72038 0.7748 0.8259 0.0
H2096 H 0.45694 0.59832 0.68034 0.0
H2097 H 0.52061 0.60691 0.7198 0.0
H2098 H 0.47662 0.59827 0.6473 0.0
H2099 H 0.53982 0.6056 0.68721 0.0
H2100 H 0.50705 0.55149 0.60115 0.0
H2101 H 0.48874 0.567 0.63004 0.0
H2102 H 0.55449 0.61961 0.65517 0.0
H2103 H 0.57288 0.60296 0.627 0.0
C2104 C 0.47523 0.60083 0.68199 0.0
C2105 C 0.48711 0.60198 0.70261 0.0
C2106 C 0.48645 0.60051 0.66307 0.0
C2107 C 0.50965 0.60122 0.66453 0.0
C2108 C 0.52199 0.60504 0.6853 0.0
C2109 C 0.51088 0.60558 0.7041 0.0
C2110 C 0.51752 0.56639 0.61288 0.0
C2111 C 0.54141 0.5756 0.61227 0.0
C2112 C 0.507 0.57558 0.62925 0.0
C2113 C 0.52015 0.59452 0.64507 0.0
C2114 C 0.54391 0.60465 0.64359 0.0
C2115 C 0.55448 0.59507 0.62751 0.0
H2116 H 0.81166 0.2309 0.0423 0.0
H2117 H 0.83521 0.17876 1.0045 0.0
H2118 H 0.80849 0.25207 0.00993 0.0
H2119 H 0.83225 0.20029 0.97193 0.0
H2120 H 0.79203 0.22569 0.91589 0.0
H2121 H 0.8 0.20581 0.94798 0.0
H2122 H 0.83169 0.27709 0.98398 0.0
H2123 H 0.82392 0.29699 0.95188 0.0
C2124 C 0.81646 0.22413 0.02711 0.0
C2125 C 0.8236 0.20309 0.02592 0.0
C2126 C 0.81474 0.23637 0.00858 0.0
C2127 C 0.82005 0.2278 0.98838 0.0
C2128 C 0.82781 0.20714 0.98726 0.0
C2129 C 0.82968 0.19494 0.00591 0.0
C2130 C 0.8009 0.23712 0.93058 0.0
C2131 C 0.80719 0.26293 0.93137 0.0
C2132 C 0.80553 0.22573 0.94893 0.0
C2133 C 0.81648 0.23989 0.96849 0.0
C2134 C 0.82297 0.26568 0.96922 0.0
C2135 C 0.8184 0.27707 0.95086 0.0
H2136 H 0.15996 0.49006 0.17435 0.0
H2137 H 0.10642 0.48642 0.21705 0.0
H2138 H 0.13205 0.48312 0.14281 0.0
H2139 H 0.0782 0.47876 0.18532 0.0
H2140 H 0.06022 0.52617 0.13085 0.0
H2141 H 0.07498 0.51 0.16222 0.0
H2142 H 0.09834 0.46224 0.11879 0.0
H2143 H 0.08428 0.47917 0.08748 0.0
C2144 C 0.14206 0.48678 0.17701 0.0
C2145 C 0.13552 0.48966 0.19812 0.0
C2146 C 0.12593 0.48262 0.15887 0.0
C2147 C 0.10297 0.48107 0.16158 0.0
C2148 C 0.09589 0.48057 0.18275 0.0
C2149 C 0.11206 0.48489 0.20091 0.0
C2150 C 0.06795 0.51176 0.12805 0.0
C2151 C 0.07178 0.50444 0.1069 0.0
C2152 C 0.07625 0.50227 0.14601 0.0
C2153 C 0.08825 0.48513 0.14299 0.0
C2154 C 0.08967 0.47583 0.12164 0.0
C2155 C 0.08167 0.48556 0.10375 0.0
H2156 H 0.82977 0.80136 0.48583 0.0
H2157 H 0.80156 0.86072 0.47822 0.0
H2158 H 0.82953 0.79494 0.44629 0.0
H2159 H 0.80238 0.85537 0.43875 0.0
H2160 H 0.79138 0.83147 0.36546 0.0
H2161 H 0.78914 0.83579 0.40476 0.0
H2162 H 0.84575 0.80666 0.41514 0.0
H2163 H 0.84699 0.80118 0.37576 0.0
C2164 C 0.82345 0.81308 0.47573 0.0
C2165 C 0.81553 0.83147 0.48552 0.0
C2166 C 0.82358 0.80962 0.45279 0.0
C2167 C 0.81615 0.82469 0.43861 0.0
C2168 C 0.80795 0.84292 0.44855 0.0
C2169 C 0.80752 0.84612 0.47146 0.0
C2170 C 0.80339 0.82597 0.37609 0.0
C2171 C 0.81939 0.81594 0.36707 0.0
C2172 C 0.80222 0.82861 0.39893 0.0
C2173 C 0.81723 0.82165 0.41385 0.0
C2174 C 0.83341 0.81185 0.40469 0.0
C2175 C 0.83433 0.80889 0.38184 0.0
H2176 H 0.5386 0.55426 0.78697 0.0
H2177 H 0.51549 0.59969 0.83297 0.0
H2178 H 0.56498 0.54819 0.81588 0.0
H2179 H 0.54222 0.59365 0.86191 0.0
H2180 H 0.6 0.58331 0.9075 0.0
H2181 H 0.58623 0.59813 0.87456 0.0
H2182 H 0.55005 0.52323 0.84867 0.0
H2183 H 0.56229 0.50839 0.88173 0.0
C2184 C 0.5395 0.56341 0.80314 0.0
C2185 C 0.52463 0.57705 0.80784 0.0
C2186 C 0.55468 0.55997 0.81962 0.0
C2187 C 0.55544 0.5703 0.84104 0.0
C2188 C 0.54201 0.58564 0.84542 0.0
C2189 C 0.52663 0.58895 0.82892 0.0
C2190 C 0.58922 0.56995 0.89475 0.0
C2191 C 0.58197 0.54461 0.89758 0.0
C2192 C 0.58152 0.57849 0.87587 0.0
C2193 C 0.56705 0.5618 0.85925 0.0
C2194 C 0.56142 0.53646 0.86121 0.0
C2195 C 0.56863 0.52796 0.8802 0.0
H2196 H 0.85994 0.22309 0.12765 0.0
H2197 H 0.83967 0.15745 0.16159 0.0
H2198 H 0.86186 0.24823 0.16167 0.0
H2199 H 0.8403 0.18223 0.19521 0.0
H2200 H 0.84592 0.23104 0.25566 0.0
H2201 H 0.85792 0.21111 0.22466 0.0
H2202 H 0.83341 0.25609 0.18148 0.0
H2203 H 0.82267 0.27686 0.21269 0.0
C2204 C 0.85631 0.21408 0.14249 0.0
C2205 C 0.84936 0.18831 0.14192 0.0
C2206 C 0.85715 0.22845 0.16194 0.0
C2207 C 0.85062 0.21728 0.18112 0.0
C2208 C 0.84557 0.1916 0.18088 0.0
C2209 C 0.84515 0.17729 0.16151 0.0
C2210 C 0.84329 0.23676 0.23952 0.0
C2211 C 0.83312 0.25527 0.23648 0.0
C2212 C 0.85013 0.22531 0.22174 0.0
C2213 C 0.84652 0.23179 0.20046 0.0
C2214 C 0.83691 0.25086 0.19761 0.0
C2215 C 0.83048 0.26264 0.21547 0.0
H2216 H 0.11148 0.54588 0.2981 0.0
H2217 H 0.1629 0.52012 0.33148 0.0
H2218 H 0.09674 0.55252 0.33267 0.0
H2219 H 0.14785 0.52685 0.36641 0.0
H2220 H 0.09407 0.52239 0.41922 0.0
H2221 H 0.10991 0.51209 0.38591 0.0
H2222 H 0.11561 0.58404 0.36537 0.0
H2223 H 0.10039 0.59462 0.39873 0.0
C2224 C 0.11952 0.54141 0.3128 0.0
C2225 C 0.13855 0.53276 0.31213 0.0
C2226 C 0.11111 0.54533 0.33259 0.0
C2227 C 0.12145 0.54059 0.35213 0.0
C2228 C 0.13968 0.53068 0.35147 0.0
C2229 C 0.14825 0.52685 0.33156 0.0
C2230 C 0.09906 0.53614 0.40775 0.0
C2231 C 0.09577 0.55925 0.41147 0.0
C2232 C 0.10806 0.5302 0.38873 0.0
C2233 C 0.11367 0.54718 0.37308 0.0
C2234 C 0.11099 0.57048 0.37707 0.0
C2235 C 0.1022 0.57648 0.3961 0.0
H2236 H 0.83291 0.81943 0.61649 0.0
H2237 H 0.7764 0.84838 0.62197 0.0
H2238 H 0.82952 0.80719 0.65398 0.0
H2239 H 0.7725 0.83543 0.65898 0.0
H2240 H 0.7615 0.7886 0.72008 0.0
H2241 H 0.76285 0.7963 0.6812 0.0
H2242 H 0.83613 0.83163 0.69272 0.0
H2243 H 0.83468 0.82478 0.73143 0.0
C2244 C 0.81939 0.82265 0.62541 0.0
C2245 C 0.80486 0.83483 0.61589 0.0
C2246 C 0.81755 0.8158 0.64707 0.0
C2247 C 0.80069 0.82025 0.65977 0.0
C2248 C 0.78558 0.83146 0.64986 0.0
C2249 C 0.78784 0.83893 0.62852 0.0
C2250 C 0.7779 0.79797 0.71433 0.0
C2251 C 0.79793 0.80616 0.72919 0.0
C2252 C 0.77869 0.80247 0.69197 0.0
C2253 C 0.79965 0.81457 0.68354 0.0
C2254 C 0.81969 0.82212 0.69834 0.0
C2255 C 0.8188 0.81829 0.72071 0.0
H2256 H 0.73892 0.46999 0.50949 0.0
H2257 H 0.80408 0.51811 0.54087 0.0
H2258 H 0.72074 0.50092 0.51971 0.0
H2259 H 0.78604 0.54907 0.55068 0.0
H2260 H 0.73673 0.57576 0.59263 0.0
H2261 H 0.75873 0.55099 0.57716 0.0
H2262 H 0.71904 0.54256 0.51455 0.0
H2263 H 0.69655 0.56666 0.53021 0.0
C2264 C 0.74941 0.48731 0.51822 0.0
C2265 C 0.77281 0.49151 0.52464 0.0
C2266 C 0.73906 0.50508 0.52396 0.0
C2267 C 0.75197 0.52733 0.53615 0.0
C2268 C 0.7756 0.53194 0.54161 0.0
C2269 C 0.78591 0.51421 0.53593 0.0
C2270 C 0.73295 0.56888 0.5755 0.0
C2271 C 0.71492 0.57307 0.56266 0.0
C2272 C 0.74563 0.55486 0.56658 0.0
C2273 C 0.74048 0.54472 0.54466 0.0
C2274 C 0.7232 0.54992 0.53154 0.0
C2275 C 0.71055 0.56399 0.54045 0.0
H2276 H 0.2515 0.14759 0.56191 0.0
H2277 H 0.2261 0.19159 0.51852 0.0
H2278 H 0.21269 0.11856 0.56071 0.0
H2279 H 0.18733 0.16252 0.51737 0.0
H2280 H 0.12703 0.09148 0.50144 0.0
H2281 H 0.16619 0.1192 0.50306 0.0
H2282 H 0.17404 0.11714 0.57307 0.0
H2283 H 0.13452 0.08917 0.57153 0.0
C2284 C 0.23769 0.15103 0.55202 0.0
C2285 C 0.24199 0.17194 0.54024 0.0
C2286 C 0.21541 0.13447 0.55149 0.0
C2287 C 0.19691 0.13823 0.53898 0.0
C2288 C 0.20124 0.15897 0.52702 0.0
C2289 C 0.22347 0.17568 0.52773 0.0
C2290 C 0.13705 0.09676 0.51723 0.0
C2291 C 0.12754 0.08805 0.53639 0.0
C2292 C 0.15951 0.11284 0.51814 0.0
C2293 C 0.1732 0.12053 0.53818 0.0
C2294 C 0.16395 0.11144 0.55734 0.0
C2295 C 0.1413 0.09548 0.55647 0.0
H2296 H 0.2566 0.0548 0.80017 0.0
H2297 H 0.22615 1.0026 0.84552 0.0
H2298 H 0.27934 0.0291 0.78847 0.0
H2299 H 0.24929 0.97692 0.83378 0.0
H2300 H 0.31118 0.9501 0.81782 0.0
H2301 H 0.29266 0.97903 0.83276 0.0
H2302 H 0.26568 0.98548 0.76747 0.0
H2303 H 0.28404 0.95644 0.75257 0.0
C2304 C 0.25499 0.03801 0.80788 0.0
C2305 C 0.23943 0.03058 0.82365 0.0
C2306 C 0.26795 0.0233 0.80108 0.0
C2307 C 0.26585 1.00103 0.8101 0.0
C2308 C 0.2512 0.99411 0.82666 0.0
C2309 C 0.23796 1.00873 0.83331 0.0
C2310 C 0.30153 0.95801 0.8067 0.0
C2311 C 0.29906 0.95127 0.78407 0.0
C2312 C 0.29083 0.97432 0.81524 0.0
C2313 C 0.27784 0.9844 0.80123 0.0
C2314 C 0.2758 0.97806 0.77856 0.0
C2315 C 0.28618 0.96146 0.77006 0.0
H2316 H 0.37202 0.96397 0.98788 0.0
H2317 H 0.37862 0.97651 0.0584 0.0
H2318 H 0.41289 0.98597 0.98769 0.0
H2319 H 0.41947 0.99736 0.05837 0.0
H2320 H 0.48996 0.04458 0.05536 0.0
H2321 H 0.44817 0.03217 0.05006 0.0
H2322 H 0.4483 0.97898 0.9968 0.0
H2323 H 0.49031 0.99268 1.00139 0.0
C2324 C 0.38222 0.97147 1.00333 0.0
C2325 C 0.37221 0.96842 0.02318 0.0
C2326 C 0.40564 0.98398 1.00323 0.0
C2327 C 0.41952 0.99337 0.02299 0.0
C2328 C 0.40928 0.99083 0.04278 0.0
C2329 C 0.38585 0.97868 0.04285 0.0
C2330 C 0.48098 0.03056 0.04227 0.0
C2331 C 0.49312 0.01927 0.02894 0.0
C2332 C 0.45707 0.02333 0.03931 0.0
C2333 C 0.44483 1.00418 0.02335 0.0
C2334 C 0.45715 0.9939 0.00916 0.0
C2335 C 0.48118 1.0016 0.01182 0.0
H2336 H 0.91287 0.58846 0.76963 0.0
H2337 H 0.9339 0.63361 0.83132 0.0
H2338 H 0.88016 0.60333 0.76384 0.0
H2339 H 0.90127 0.64913 0.82515 0.0
H2340 H 0.82888 0.65478 0.81628 0.0
H2341 H 0.85917 0.63606 0.82295 0.0
H2342 H 0.87343 0.64099 0.75541 0.0
H2343 H 0.84257 0.65865 0.74856 0.0
C2344 C 0.91061 0.60175 0.78191 0.0
C2345 C 0.92605 0.61002 0.80089 0.0
C2346 C 0.89187 0.6103 0.77853 0.0
C2347 C 0.88819 0.62746 0.79398 0.0
C2348 C 0.90353 0.63567 0.81307 0.0
C2349 C 0.9223 0.62697 0.81652 0.0
C2350 C 0.83814 0.6513 0.80276 0.0
C2351 C 0.83339 0.65815 0.78189 0.0
C2352 C 0.8557 0.64095 0.80666 0.0
C2353 C 0.86879 0.63726 0.78976 0.0
C2354 C 0.86353 0.64342 0.76874 0.0
C2355 C 0.84598 0.6537 0.76484 0.0
H2356 H 0.88207 0.69025 0.0323 0.0
H2357 H 0.85331 0.65553 0.08836 0.0
H2358 H 0.90869 0.66601 0.03228 0.0
H2359 H 0.87917 0.63105 0.08798 0.0
H2360 H 0.94179 0.60676 0.09619 0.0
H2361 H 0.91842 0.63415 0.09567 0.0
H2362 H 0.91005 0.62446 0.02502 0.0
H2363 H 0.93393 0.59732 0.02561 0.0
C2364 C 0.88141 0.67747 0.04459 0.0
C2365 C 0.86562 0.67494 0.06038 0.0
C2366 C 0.89657 0.66346 0.04451 0.0
C2367 C 0.89623 0.64662 0.06021 0.0
C2368 C 0.88035 0.64415 0.07591 0.0
C2369 C 0.86534 0.65814 0.07603 0.0
C2370 C 0.93492 0.61042 0.08054 0.0
C2371 C 0.93951 0.59962 0.06096 0.0
C2372 C 0.92147 0.62613 0.08022 0.0
C2373 C 0.91204 0.63135 0.0603 0.0
C2374 C 0.91715 0.62107 0.04066 0.0
C2375 C 0.93079 0.60544 0.04099 0.0
H2376 H 0.23867 0.13933 0.87334 0.0
H2377 H 0.17892 0.14673 0.8366 0.0
H2378 H 0.26107 0.18056 0.86581 0.0
H2379 H 0.20146 0.18713 0.82777 0.0
H2380 H 0.24684 0.26217 0.81631 0.0
H2381 H 0.2233 0.2284 0.83465 0.0
H2382 H 0.27702 0.19417 0.83396 0.0
H2383 H 0.30091 0.22865 0.81679 0.0
C2384 C 0.23022 0.1501 0.86414 0.0
C2385 C 0.20721 0.13986 0.85534 0.0
C2386 C 0.24309 0.17354 0.8595 0.0
C2387 C 0.23334 0.18683 0.84548 0.0
C2388 C 0.20964 0.17752 0.8386 0.0
C2389 C 0.19662 0.15431 0.8437 0.0
C2390 C 0.25351 0.24732 0.82002 0.0
C2391 C 0.27558 0.24781 0.81494 0.0
C2392 C 0.24006 0.228 0.8306 0.0
C2393 C 0.24824 0.20855 0.83597 0.0
C2394 C 0.27033 0.2091 0.83069 0.0
C2395 C 0.28394 0.22866 0.82051 0.0
H2396 H 0.46522 0.9829 0.32816 0.0
H2397 H 0.40407 0.9951 0.35028 0.0
H2398 H 0.44545 0.93854 0.32407 0.0
H2399 H 0.38417 0.9515 0.34521 0.0
H2400 H 0.39055 0.87146 0.28447 0.0
H2401 H 0.41657 0.91206 0.29815 0.0
H2402 H 0.37795 0.91157 0.35424 0.0
H2403 H 0.35122 0.87165 0.33975 0.0
C2404 C 0.44775 0.97612 0.33253 0.0
C2405 C 0.43608 0.99252 0.33916 0.0
C2406 C 0.43633 0.95073 0.32997 0.0
C2407 C 0.41305 0.94139 0.33391 0.0
C2408 C 0.4021 0.95781 0.34217 0.0
C2409 C 0.41351 0.983 0.34489 0.0
C2410 C 0.38774 0.88007 0.29976 0.0
C2411 C 0.36863 0.86878 0.31081 0.0
C2412 C 0.40282 0.90321 0.30778 0.0
C2413 C 0.3993 0.91528 0.32726 0.0
C2414 C 0.38087 0.90316 0.33892 0.0
C2415 C 0.36553 0.8803 0.33063 0.0
H2416 H 0.64032 0.3938 0.59759 0.0
H2417 H 0.58519 0.3792 0.63948 0.0
H2418 H 0.6312 0.43008 0.58671 0.0
H2419 H 0.57621 0.41575 0.62878 0.0
H2420 H 0.5523 0.46926 0.58708 0.0
H2421 H 0.56066 0.43259 0.59823 0.0
H2422 H 0.63346 0.47116 0.60101 0.0
H2423 H 0.62516 0.50764 0.58963 0.0
C2424 C 0.62623 0.3983 0.6045 0.0
C2425 C 0.61352 0.38347 0.61945 0.0
C2426 C 0.62108 0.41928 0.59836 0.0
C2427 C 0.603 0.42607 0.6069 0.0
C2428 C 0.59011 0.41106 0.62167 0.0
C2429 C 0.59534 0.39011 0.6279 0.0
C2430 C 0.57011 0.46999 0.59014 0.0
C2431 C 0.58801 0.49154 0.58738 0.0
C2432 C 0.57491 0.44892 0.59665 0.0
C2433 C 0.59777 0.44873 0.60047 0.0
C2434 C 0.61565 0.47039 0.59791 0.0
C2435 C 0.61086 0.49146 0.59151 0.0
H2436 H 0.48778 0.79989 0.36918 0.0
H2437 H 0.44711 0.751 0.41189 0.0
H2438 H 0.45331 0.79569 0.3452 0.0
H2439 H 0.41229 0.74667 0.38759 0.0
H2440 H 0.39033 0.77303 0.29774 0.0
H2441 H 0.42249 0.76683 0.31972 0.0
H2442 H 0.39007 0.77499 0.37841 0.0
H2443 H 0.35783 0.78081 0.35652 0.0
C2444 C 0.47147 0.78797 0.37332 0.0
C2445 C 0.47015 0.77591 0.39253 0.0
C2446 C 0.4517 0.78541 0.35943 0.0
C2447 C 0.43004 0.77084 0.36446 0.0
C2448 C 0.42874 0.75815 0.38336 0.0
C2449 C 0.44865 0.76053 0.39721 0.0
C2450 C 0.38985 0.77307 0.31529 0.0
C2451 C 0.37164 0.77779 0.32537 0.0
C2452 C 0.40834 0.76964 0.32789 0.0
C2453 C 0.40895 0.77067 0.35083 0.0
C2454 C 0.3901 0.77395 0.36079 0.0
C2455 C 0.37169 0.77752 0.34821 0.0
H2456 H 0.10353 0.72771 0.15111 0.0
H2457 H 0.09732 0.74813 0.08526 0.0
H2458 H 0.09723 0.68524 0.13687 0.0
H2459 H 0.09055 0.70517 0.07099 0.0
H2460 H 0.04951 0.62005 0.06071 0.0
H2461 H 0.05851 0.66358 0.07314 0.0
H2462 H 0.11773 0.6606 0.11377 0.0
H2463 H 0.10896 0.61691 0.10103 0.0
C2464 C 0.10073 0.72315 0.13356 0.0
C2465 C 0.10082 0.7414 0.11933 0.0
C2466 C 0.09731 0.69879 0.12542 0.0
C2467 C 0.09347 0.69183 0.10282 0.0
C2468 C 0.09341 0.70998 0.08851 0.0
C2469 C 0.09732 0.73457 0.09667 0.0
C2470 C 0.0645 0.62862 0.07228 0.0
C2471 C 0.07845 0.61489 0.07999 0.0
C2472 C 0.06974 0.65365 0.07924 0.0
C2473 C 0.08883 0.66556 0.09442 0.0
C2474 C 0.10284 0.6519 0.10212 0.0
C2475 C 0.09786 0.62691 0.09481 0.0
H2476 H 0.0957 0.31969 0.91514 0.0
H2477 H 0.07544 0.24653 0.88161 0.0
H2478 H 0.12809 0.33242 0.893 0.0
H2479 H 0.10801 0.25884 0.86019 0.0
H2480 H 0.15401 0.29256 0.80966 0.0
H2481 H 0.12125 0.28285 0.8313 0.0
H2482 H 0.16459 0.32734 0.88713 0.0
H2483 H 0.19719 0.33759 0.86514 0.0
C2484 C 0.09826 0.30631 0.90317 0.0
C2485 C 0.08295 0.28216 0.90005 0.0
C2486 C 0.11686 0.31355 0.89053 0.0
C2487 C 0.12061 0.29671 0.87465 0.0
C2488 C 0.10541 0.27249 0.87186 0.0
C2489 C 0.08678 0.26536 0.88429 0.0
C2490 C 0.15649 0.30027 0.82655 0.0
C2491 C 0.17814 0.31572 0.83575 0.0
C2492 C 0.13775 0.29465 0.83901 0.0
C2493 C 0.14029 0.3041 0.86107 0.0
C2494 C 0.16191 0.31996 0.87014 0.0
C2495 C 0.18061 0.32579 0.85758 0.0
H2496 H 0.60227 0.73242 0.97952 0.0
H2497 H 0.54422 0.6925 0.93377 0.0
H2498 H 0.5999 0.69466 0.99691 0.0
H2499 H 0.54183 0.65457 0.95106 0.0
H2500 H 0.55484 0.58353 0.97562 0.0
H2501 H 0.55663 0.62107 0.95786 0.0
H2502 H 0.58113 0.6644 0.01979 0.0
H2503 H 0.57925 0.62701 0.03741 0.0
C2504 C 0.58887 0.71565 0.97306 0.0
C2505 C 0.57344 0.71624 0.95497 0.0
C2506 C 0.5874 0.69364 0.98326 0.0
C2507 C 0.57059 0.67068 0.97582 0.0
C2508 C 0.55526 0.67127 0.95757 0.0
C2509 C 0.55655 0.6934 0.94756 0.0
C2510 C 0.56051 0.60098 0.98561 0.0
C2511 C 0.56673 0.60148 0.00832 0.0
C2512 C 0.56149 0.62287 0.97529 0.0
C2513 C 0.56911 0.64666 0.98698 0.0
C2514 C 0.5754 0.64704 0.00968 0.0
C2515 C 0.57414 0.62518 0.02002 0.0
H2516 H 0.1058 0.7881 0.73997 0.0
H2517 H 0.13795 0.83125 0.6898 0.0
H2518 H 0.14354 0.78693 0.75508 0.0
H2519 H 0.17532 0.8297 0.70432 0.0
H2520 H 0.21384 0.77327 0.77238 0.0
H2521 H 0.17602 0.775 0.75856 0.0
H2522 H 0.20892 0.83873 0.72571 0.0
H2523 H 0.24655 0.83647 0.73916 0.0
C2524 C 0.1208 0.79758 0.73208 0.0
C2525 C 0.11789 0.81002 0.71343 0.0
C2526 C 0.14294 0.79671 0.74076 0.0
C2527 C 0.16376 0.80818 0.73139 0.0
C2528 C 0.16067 0.82074 0.71283 0.0
C2529 C 0.13865 0.8216 0.70422 0.0
C2530 C 0.2132 0.78773 0.76216 0.0
C2531 C 0.23417 0.80461 0.75713 0.0
C2532 C 0.19101 0.78887 0.75414 0.0
C2533 C 0.18813 0.80702 0.7405 0.0
C2534 C 0.20924 0.82398 0.73563 0.0
C2535 C 0.2314 0.8228 0.74362 0.0
H2536 H 1.02562 0.34739 0.48004 0.0
H2537 H 0.07711 0.38535 0.43976 0.0
H2538 H 0.02621 0.38694 0.49831 0.0
H2539 H 0.07752 0.425 0.4578 0.0
H2540 H 0.0564 0.49433 0.48053 0.0
H2541 H 0.05657 0.45493 0.46242 0.0
H2542 H 0.04759 0.4226 0.52361 0.0
H2543 H 0.04771 0.462 0.5417 0.0
C2544 C 0.0372 0.36411 0.47503 0.0
C2545 C 0.0514 0.36257 0.45824 0.0
C2546 C 0.0376 0.38709 0.48568 0.0
C2547 C 0.05191 0.40988 0.47984 0.0
C2548 C 0.06602 0.40831 0.46293 0.0
C2549 C 0.06592 0.38529 0.45256 0.0
C2550 C 0.05448 0.4789 0.49025 0.0
C2551 C 0.05205 0.48197 0.51286 0.0
C2552 C 0.05471 0.45605 0.47976 0.0
C2553 C 0.05205 0.43486 0.49122 0.0
C2554 C 0.04946 0.43795 0.51381 0.0
C2555 C 0.04967 0.46089 0.52436 0.0
H2556 H 0.48389 0.24026 0.24057 0.0
H2557 H 0.48951 0.30813 0.2124 0.0
H2558 H 0.44824 0.24136 0.25553 0.0
H2559 H 0.45385 0.30936 0.22726 0.0
H2560 H 0.39526 0.31685 0.26918 0.0
H2561 H 0.43111 0.31582 0.25467 0.0
H2562 H 0.40874 0.23684 0.25387 0.0
H2563 H 0.37293 0.23802 0.26841 0.0
C2564 C 0.47771 0.25558 0.23745 0.0
C2565 C 0.4905 0.2741 0.22495 0.0
C2566 C 0.45672 0.25619 0.24609 0.0
C2567 C 0.44702 0.27549 0.24308 0.0
C2568 C 0.45999 0.29409 0.23064 0.0
C2569 C 0.48085 0.29334 0.22182 0.0
C2570 C 0.3978 0.29912 0.26604 0.0
C2571 C 0.38031 0.27756 0.27043 0.0
C2572 C 0.41875 0.29846 0.25738 0.0
C2573 C 0.42396 0.27621 0.25262 0.0
C2574 C 0.40646 0.25465 0.25719 0.0
C2575 C 0.38539 0.2553 0.26565 0.0
H2576 H 0.67854 0.53371 0.42124 0.0
H2577 H 0.60831 0.52538 0.39754 0.0
H2578 H 0.6672 0.52923 0.45856 0.0
H2579 H 0.59702 0.52059 0.43443 0.0
H2580 H 0.63726 0.56628 0.51739 0.0
H2581 H 0.65274 0.55901 0.48308 0.0
H2582 H 0.59456 0.49349 0.46579 0.0
H2583 H 0.57896 0.50064 0.49992 0.0
C2584 C 0.66063 0.53028 0.42395 0.0
C2585 C 0.64428 0.53007 0.40668 0.0
C2586 C 0.6542 0.52783 0.44522 0.0
C2587 C 0.63128 0.52458 0.44928 0.0
C2588 C 0.61476 0.52281 0.43171 0.0
C2589 C 0.62123 0.52571 0.41064 0.0
C2590 C 0.62795 0.55011 0.50643 0.0
C2591 C 0.60662 0.53436 0.51111 0.0
C2592 C 0.63696 0.54582 0.48693 0.0
C2593 C 0.62469 0.52582 0.47179 0.0
C2594 C 0.60421 0.50916 0.47716 0.0
C2595 C 0.59529 0.51333 0.49668 0.0
H2596 H 0.30908 0.84741 0.03829 0.0
H2597 H 0.27404 0.87892 0.08479 0.0
H2598 H 0.31224 0.81733 0.06351 0.0
H2599 H 0.27701 0.84858 0.10981 0.0
H2600 H 0.27935 0.7853 0.14803 0.0
H2601 H 0.26707 0.80144 0.11523 0.0
H2602 H 0.3377 0.82931 0.10087 0.0
H2603 H 0.35021 0.81453 0.134 0.0
C2604 C 0.30148 0.8475 0.05361 0.0
C2605 C 0.29164 0.86579 0.05973 0.0
C2606 C 0.30333 0.83029 0.068 0.0
C2607 C 0.29499 0.83079 0.08857 0.0
C2608 C 0.28342 0.84771 0.09395 0.0
C2609 C 0.28188 0.86518 0.0797 0.0
C2610 C 0.29227 0.79468 0.1378 0.0
C2611 C 0.31585 0.79903 0.14397 0.0
C2612 C 0.28517 0.80371 0.11896 0.0
C2613 C 0.30146 0.81668 0.10568 0.0
C2614 C 0.32477 0.81912 0.11074 0.0
C2615 C 0.33192 0.81053 0.12976 0.0
H2616 H 0.99708 0.60481 0.90157 0.0
H2617 H 0.06239 0.5941 0.8917 0.0
H2618 H 1.00713 0.60951 0.94119 0.0
H2619 H 0.07225 0.59833 0.93084 0.0
H2620 H 1.01452 0.55717 0.99545 0.0
H2621 H 1.00788 0.57501 0.96206 0.0
H2622 H 0.07963 0.61894 0.96744 0.0
H2623 H 0.08649 0.60051 1.00076 0.0
C2624 C 1.01385 0.60427 0.90786 0.0
C2625 C 0.02873 0.59841 0.89376 0.0
C2626 C 1.01957 0.60688 0.93047 0.0
C2627 C 0.04025 0.60378 0.93911 0.0
C2628 C 0.0562 0.60089 0.92479 0.0
C2629 C 0.05045 0.59816 0.90231 0.0
C2630 C 0.02887 0.57084 0.9897 0.0
C2631 C 0.05119 0.57681 1.00032 0.0
C2632 C 1.02496 0.58142 0.97072 0.0
C2633 C 0.04329 0.59826 0.96202 0.0
C2634 C 0.06525 0.60576 0.97365 0.0
C2635 C 0.06919 0.59507 0.99262 0.0
H2636 H 0.2874 0.27874 0.604 0.0
H2637 H 0.34706 0.25651 0.62009 0.0
H2638 H 0.28659 0.29079 0.64291 0.0
H2639 H 0.34699 0.26929 0.65844 0.0
H2640 H 0.329 0.26678 0.72828 0.0
H2641 H 0.32964 0.25789 0.68928 0.0
H2642 H 0.29998 0.31533 0.67638 0.0
H2643 H 0.29858 0.32356 0.71573 0.0
C2644 C 0.30078 0.27709 0.6157 0.0
C2645 C 0.31734 0.26663 0.60859 0.0
C2646 C 0.30029 0.28392 0.63823 0.0
C2647 C 0.31643 0.28067 0.6545 0.0
C2648 C 0.33366 0.27146 0.64702 0.0
C2649 C 0.33396 0.26441 0.6247 0.0
C2650 C 0.32253 0.27757 0.71723 0.0
C2651 C 0.31374 0.29597 0.72558 0.0
C2652 C 0.32311 0.27261 0.69456 0.0
C2653 C 0.31517 0.28599 0.67902 0.0
C2654 C 0.30615 0.30431 0.68739 0.0
C2655 C 0.30543 0.30917 0.71018 0.0
H2656 H 0.61094 0.52783 0.29623 0.0
H2657 H 0.66773 0.51017 0.26948 0.0
H2658 H 0.59334 0.52718 0.25955 0.0
H2659 H 0.64959 0.5086 0.23262 0.0
H2660 H 0.63327 0.55389 0.17802 0.0
H2661 H 0.64637 0.54174 0.21235 0.0
H2662 H 0.57573 0.50682 0.22454 0.0
H2663 H 0.56265 0.51955 0.19017 0.0
C2664 C 0.61934 0.52305 0.28253 0.0
C2665 C 0.64101 0.51963 0.28575 0.0
C2666 C 0.60914 0.52254 0.26143 0.0
C2667 C 0.62031 0.51836 0.24315 0.0
C2668 C 0.64088 0.51254 0.24641 0.0
C2669 C 0.65119 0.51327 0.26752 0.0
C2670 C 0.62056 0.54333 0.1879 0.0
C2671 C 0.59697 0.5378 0.18155 0.0
C2672 C 0.62805 0.53617 0.20751 0.0
C2673 C 0.6121 0.52317 0.22116 0.0
C2674 C 0.58845 0.51704 0.21449 0.0
C2675 C 0.58095 0.52437 0.19489 0.0
H2676 H 0.30425 0.85286 0.95365 0.0
H2677 H 0.2713 0.90603 0.9349 0.0
H2678 H 0.29896 0.83522 0.91616 0.0
H2679 H 0.26564 0.88789 0.89673 0.0
H2680 H 0.29883 0.87023 0.83194 0.0
H2681 H 0.29261 0.88625 0.86805 0.0
H2682 H 0.26981 0.81215 0.88723 0.0
H2683 H 0.27677 0.79635 0.85168 0.0
C2684 C 0.29552 0.86054 0.94149 0.0
C2685 C 0.28833 0.88091 0.94711 0.0
C2686 C 0.29229 0.85027 0.91999 0.0
C2687 C 0.28179 0.86011 0.90352 0.0
C2688 C 0.27385 0.88003 0.90916 0.0
C2689 C 0.27694 0.89027 0.93092 0.0
C2690 C 0.29224 0.85743 0.84385 0.0
C2691 C 0.28889 0.83217 0.83933 0.0
C2692 C 0.28846 0.86654 0.86439 0.0
C2693 C 0.28105 0.85044 0.88052 0.0
C2694 C 0.276 0.82502 0.87526 0.0
C2695 C 0.28007 0.816 0.85496 0.0
H2696 H 0.06843 0.59996 0.80034 0.0
H2697 H 1.01475 0.60901 0.75541 0.0
H2698 H 0.09403 0.60547 0.77136 0.0
H2699 H 0.03994 0.6138 0.72648 0.0
H2700 H 0.07818 0.6122 0.67349 0.0
H2701 H 0.07347 0.63178 0.70827 0.0
H2702 H 0.09065 0.5749 0.74164 0.0
H2703 H 0.09659 0.55618 0.70704 0.0
C2704 C 0.06224 0.60362 0.7844 0.0
C2705 C 0.03933 0.60323 0.77991 0.0
C2706 C 0.07695 0.60685 0.76785 0.0
C2707 C 0.06892 0.60956 0.74652 0.0
C2708 C 0.04682 0.61188 0.74273 0.0
C2709 C 0.03219 0.60881 0.75929 0.0
C2710 C 0.0821 0.60457 0.68834 0.0
C2711 C 0.087 0.58216 0.68753 0.0
C2712 C 0.0792 0.61571 0.70828 0.0
C2713 C 0.08086 0.60443 0.7276 0.0
C2714 C 0.08905 0.58406 0.72708 0.0
C2715 C 0.09217 0.57306 0.70718 0.0
H2716 H 0.27894 0.26312 0.46861 0.0
H2717 H 0.34484 0.25102 0.47634 0.0
H2718 H 0.28243 0.26642 0.42949 0.0
H2719 H 0.34866 0.25514 0.43715 0.0
H2720 H 0.35396 0.2911 0.36857 0.0
H2721 H 0.3523 0.28761 0.40808 0.0
H2722 H 0.2831 0.23769 0.39555 0.0
H2723 H 0.28497 0.24052 0.35623 0.0
C2724 C 0.29437 0.26146 0.4621 0.0
C2725 C 0.31162 0.25686 0.476 0.0
C2726 C 0.2963 0.26321 0.43947 0.0
C2727 C 0.31583 0.26103 0.42982 0.0
C2728 C 0.33339 0.25706 0.4438 0.0
C2729 C 0.33118 0.25466 0.46639 0.0
C2730 C 0.33846 0.27914 0.37417 0.0
C2731 C 0.31967 0.26602 0.35885 0.0
C2732 C 0.33751 0.27712 0.39695 0.0
C2733 C 0.31749 0.26245 0.40533 0.0
C2734 C 0.29877 0.24934 0.38998 0.0
C2735 C 0.29993 0.25086 0.36725 0.0
H2736 H 0.33269 0.56162 0.57757 0.0
H2737 H 0.3717 0.6269 0.54966 0.0
H2738 H 0.35683 0.53918 0.56269 0.0
H2739 H 0.39668 0.60482 0.53562 0.0
H2740 H 0.43075 0.55552 0.50164 0.0
H2741 H 0.40084 0.57351 0.51053 0.0
H2742 H 0.39442 0.53804 0.5706 0.0
H2743 H 0.42356 0.51961 0.5613 0.0
C2744 C 0.34652 0.5712 0.56831 0.0
C2745 C 0.3505 0.59606 0.56495 0.0
C2746 C 0.36043 0.55836 0.55984 0.0
C2747 C 0.37889 0.57023 0.54815 0.0
C2748 C 0.38245 0.59498 0.54429 0.0
C2749 C 0.36827 0.60772 0.55249 0.0
C2750 C 0.42261 0.55134 0.51655 0.0
C2751 C 0.42935 0.5361 0.53074 0.0
C2752 C 0.40561 0.56175 0.52173 0.0
C2753 C 0.39526 0.55734 0.54134 0.0
C2754 C 0.40163 0.54149 0.55515 0.0
C2755 C 0.41838 0.53091 0.54985 0.0
H2756 H 0.90117 0.89507 0.5471 0.0
H2757 H 0.87132 0.95328 0.55865 0.0
H2758 H 0.93719 0.92535 0.54059 0.0
H2759 H 0.90718 0.98355 0.55151 0.0
H2760 H 0.98345 0.03293 0.55769 0.0
H2761 H 0.94666 1.00407 0.56489 0.0
H2762 H 0.95318 0.95185 0.51385 0.0
H2763 H 0.99004 0.98029 0.50713 0.0
C2764 C 0.90226 0.91433 0.54827 0.0
C2765 C 0.88324 0.92164 0.55338 0.0
C2766 C 0.92291 0.93174 0.54433 0.0
C2767 C 0.92514 0.95699 0.54525 0.0
C2768 C 0.90625 0.96435 0.5508 0.0
C2769 C 0.8856 0.94692 0.55484 0.0
C2770 C 0.97686 0.01541 0.54782 0.0
C2771 C 0.98978 1.00892 0.53189 0.0
C2772 C 0.95573 0.99882 0.55195 0.0
C2773 C 0.94699 0.97538 0.54018 0.0
C2774 C 0.95956 0.9694 0.52366 0.0
C2775 C 0.98066 0.98587 0.51964 0.0
H2776 H 0.85948 0.07262 0.24253 0.0
H2777 H 0.91366 0.08606 0.29521 0.0
H2778 H 0.83736 0.08965 0.26623 0.0
H2779 H 0.89099 0.10247 0.31943 0.0
H2780 H 0.79625 0.11568 0.30811 0.0
H2781 H 0.81577 0.08656 0.29687 0.0
H2782 H 0.88114 0.1394 0.32241 0.0
H2783 H 0.86145 0.16773 0.33503 0.0
C2784 C 0.86651 0.07887 0.25932 0.0
C2785 C 0.88845 0.07837 0.26691 0.0
C2786 C 0.85365 0.08834 0.27307 0.0
C2787 C 0.86231 0.09734 0.29484 0.0
C2788 C 0.88391 0.0959 0.30271 0.0
C2789 C 0.89691 0.08656 0.28884 0.0
C2790 C 0.81466 0.12064 0.31225 0.0
C2791 C 0.82742 0.1443 0.32183 0.0
C2792 C 0.8259 0.10406 0.30552 0.0
C2793 C 0.85008 0.11102 0.30797 0.0
C2794 C 0.86252 0.13345 0.32006 0.0
C2795 C 0.85125 0.14985 0.32709 0.0
H2796 H 0.7525 0.08082 0.10088 0.0
H2797 H 0.74458 0.13487 0.05794 0.0
H2798 H 0.71063 0.06256 0.09852 0.0
H2799 H 0.7032 0.11631 0.05504 0.0
H2800 H 0.63105 0.09668 0.06944 0.0
H2801 H 0.67255 0.11328 0.07737 0.0
H2802 H 0.67723 0.03945 0.07314 0.0
H2803 H 0.63523 0.02278 0.0661 0.0
C2804 C 0.74184 0.08868 0.09085 0.0
C2805 C 0.75179 0.1094 0.07975 0.0
C2806 C 0.71791 0.07819 0.08945 0.0
C2807 C 0.70361 0.08821 0.07685 0.0
C2808 C 0.71369 0.10856 0.06539 0.0
C2809 C 0.73746 0.11911 0.06692 0.0
C2810 C 0.64093 0.084 0.07045 0.0
C2811 C 0.6301 0.05851 0.06685 0.0
C2812 C 0.6647 0.09348 0.07487 0.0
C2813 C 0.67822 0.07769 0.07534 0.0
C2814 C 0.66726 0.05208 0.0729 0.0
C2815 C 0.64329 0.04253 0.06882 0.0
H2816 H 0.26089 0.50091 0.24743 0.0
H2817 H 0.21718 0.49708 0.2999 0.0
H2818 H 0.28415 0.48158 0.26858 0.0
H2819 H 0.24095 0.47798 0.32142 0.0
H2820 H 0.2658 0.40823 0.32865 0.0
H2821 H 0.24654 0.43756 0.31801 0.0
H2822 H 0.31085 0.48588 0.30069 0.0
H2823 H 0.32985 0.45599 0.31025 0.0
C2824 C 0.25641 0.49621 0.26362 0.0
C2825 C 0.23704 0.50023 0.27189 0.0
C2826 C 0.26995 0.4854 0.27589 0.0
C2827 C 0.26447 0.47837 0.29674 0.0
C2828 C 0.24551 0.4831 0.30535 0.0
C2829 C 0.23192 0.494 0.29303 0.0
C2830 C 0.27589 0.4253 0.32289 0.0
C2831 C 0.29919 0.42952 0.31975 0.0
C2832 C 0.26491 0.44225 0.31704 0.0
C2833 C 0.2771 0.46378 0.30808 0.0
C2834 C 0.30093 0.46917 0.30713 0.0
C2835 C 0.31187 0.45215 0.31284 0.0
H2836 H 0.28306 0.44713 0.08832 0.0
H2837 H 0.25227 0.40129 0.02852 0.0
H2838 H 0.25549 0.46948 0.08394 0.0
H2839 H 0.22478 0.42416 0.02385 0.0
H2840 H 0.16538 0.45633 0.03499 0.0
H2841 H 0.19179 0.4322 0.03897 0.0
H2842 H 0.24739 0.49868 0.06125 0.0
H2843 H 0.22095 0.52253 0.05819 0.0
C2844 C 0.27042 0.44183 0.07417 0.0
C2845 C 0.26997 0.42244 0.05872 0.0
C2846 C 0.25466 0.4548 0.07158 0.0
C2847 C 0.23799 0.44884 0.05343 0.0
C2848 C 0.23726 0.42916 0.03811 0.0
C2849 C 0.25309 0.41611 0.04073 0.0
C2850 C 0.18321 0.46577 0.0409 0.0
C2851 C 0.19097 0.49144 0.04628 0.0
C2852 C 0.19842 0.45195 0.04295 0.0
C2853 C 0.22175 0.46343 0.05051 0.0
C2854 C 0.2295 0.48911 0.05567 0.0
C2855 C 0.21435 0.50288 0.05363 0.0
H2856 H 0.89564 0.97128 0.21481 0.0
H2857 H 0.94735 0.98399 0.26965 0.0
H2858 H 0.87667 0.93038 0.22543 0.0
H2859 H 0.92795 0.94333 0.28067 0.0
H2860 H 0.89115 0.86196 0.28827 0.0
H2861 H 0.91491 0.89852 0.27314 0.0
H2862 H 0.85417 0.91892 0.25589 0.0
H2863 H 0.8305 0.88241 0.27049 0.0
C2864 C 0.90316 0.96517 0.22892 0.0
C2865 C 0.92273 0.98096 0.24162 0.0
C2866 C 0.89222 0.94183 0.2351 0.0
C2867 C 0.90049 0.93393 0.25421 0.0
C2868 C 0.92116 0.94891 0.26587 0.0
C2869 C 0.93225 0.97222 0.25956 0.0
C2870 C 0.88293 0.87436 0.28135 0.0
C2871 C 0.85895 0.86932 0.28059 0.0
C2872 C 0.89653 0.89523 0.27264 0.0
C2873 C 0.88637 0.91139 0.26304 0.0
C2874 C 0.86245 0.90649 0.26264 0.0
C2875 C 0.8489 0.88567 0.27124 0.0
H2876 H 0.69557 0.12865 0.75614 0.0
H2877 H 0.75665 0.1086 0.74609 0.0
H2878 H 0.7192 0.17122 0.76603 0.0
H2879 H 0.78038 0.15091 0.75689 0.0
H2880 H 0.81556 0.23333 0.76054 0.0
H2881 H 0.79163 0.19177 0.74736 0.0
H2882 H 0.74485 0.1948 0.79589 0.0
H2883 H 0.76836 0.23685 0.80843 0.0
C2884 C 0.71405 0.13338 0.75595 0.0
C2885 C 0.72427 0.1153 0.75041 0.0
C2886 C 0.72762 0.15773 0.76183 0.0
C2887 C 0.75173 0.16445 0.76258 0.0
C2888 C 0.76187 0.14647 0.7563 0.0
C2889 C 0.74826 0.12218 0.75013 0.0
C2890 C 0.80023 0.22506 0.76848 0.0
C2891 C 0.79382 0.23832 0.78554 0.0
C2892 C 0.78652 0.2012 0.76094 0.0
C2893 C 0.76625 0.18993 0.77048 0.0
C2894 C 0.76008 0.2031 0.78783 0.0
C2895 C 0.77365 0.22711 0.79517 0.0
loop_
_geom_bond_atom_site_label_1
_geom_bond_atom_site_label_2
_geom_bond_distance
_geom_bond_site_symmetry_2
_ccdc_geom_bond_type
O0 Cd1 2.223 . S
O0 C8 1.315 . S
Cd1 O0 2.223 . S
Cd1 O4 2.297 . S
Cd1 O5 2.439 . S
Cd1 O11 2.240 . S
Cd2 O3 2.240 . S
Cd2 O10 2.223 1_455 S
Cd2 O12 2.297 . S
Cd2 O13 2.439 . S
O3 Cd2 2.240 . S
O3 C8 1.279 . S
O4 Cd1 2.297 . S
O4 C6 1.247 . S
O5 Cd1 2.439 . S
O5 C6 1.208 . S
C6 O4 1.247 . S
C6 O5 1.208 . S
C7 O12 1.247 . S
C7 O13 1.208 . S
C8 O0 1.315 . S
C8 O3 1.279 . S
C9 O10 1.315 . S
C9 O11 1.279 1_655 S
O10 Cd2 2.223 1_655 S
O10 C9 1.315 . S
O11 Cd1 2.240 . S
O11 C9 1.279 1_455 S
O12 Cd2 2.297 . S
O12 C7 1.247 . S
O13 Cd2 2.439 . S
O13 C7 1.208 . S
O14 Cd15 2.223 . S
O14 C22 1.315 . S
Cd15 O14 2.223 . S
Cd15 O18 2.297 1_455 S
Cd15 O19 2.439 . S
Cd15 O25 2.240 . S
Cd16 O17 2.240 . S
Cd16 O24 2.223 . S
Cd16 O26 2.297 . S
Cd16 O27 2.439 . S
O17 Cd16 2.240 . S
O17 C22 1.279 . S
O18 Cd15 2.297 1_655 S
O18 C20 1.247 . S
O19 Cd15 2.439 . S
O19 C20 1.208 1_455 S
C20 O18 1.247 . S
C20 O19 1.208 1_655 S
C21 O26 1.247 . S
C21 O27 1.208 . S
C22 O14 1.315 . S
C22 O17 1.279 . S
C23 O24 1.315 . S
C23 O25 1.279 . S
O24 Cd16 2.223 . S
O24 C23 1.315 . S
O25 Cd15 2.240 . S
O25 C23 1.279 . S
O26 Cd16 2.297 . S
O26 C21 1.247 . S
O27 Cd16 2.439 . S
O27 C21 1.208 . S
O28 Cd29 2.223 . S
O28 C36 1.315 . S
Cd29 O28 2.223 . S
Cd29 O32 2.297 . S
Cd29 O33 2.439 . S
Cd29 O39 2.240 . S
Cd30 O31 2.240 . S
Cd30 O38 2.223 . S
Cd30 O40 2.297 . S
Cd30 O41 2.439 . S
O31 Cd30 2.240 . S
O31 C36 1.279 . S
O32 Cd29 2.297 . S
O32 C34 1.247 . S
O33 Cd29 2.439 . S
O33 C34 1.208 . S
C34 O32 1.247 . S
C34 O33 1.208 . S
C35 O40 1.247 . S
C35 O41 1.208 . S
C36 O28 1.315 . S
C36 O31 1.279 . S
C37 O38 1.315 . S
C37 O39 1.279 . S
O38 Cd30 2.223 . S
O38 C37 1.315 . S
O39 Cd29 2.240 . S
O39 C37 1.279 . S
O40 Cd30 2.297 . S
O40 C35 1.247 . S
O41 Cd30 2.439 . S
O41 C35 1.208 . S
O42 Cd43 2.223 . S
O42 C50 1.315 . S
Cd43 O42 2.223 . S
Cd43 O46 2.297 . S
Cd43 O47 2.439 . S
Cd43 O53 2.240 . S
Cd44 O45 2.240 . S
Cd44 O52 2.223 . S
Cd44 O54 2.297 . S
Cd44 O55 2.439 . S
O45 Cd44 2.240 . S
O45 C50 1.279 . S
O46 Cd43 2.297 . S
O46 C48 1.247 . S
O47 Cd43 2.439 . S
O47 C48 1.208 . S
C48 O46 1.247 . S
C48 O47 1.208 . S
C49 O54 1.247 . S
C49 O55 1.208 . S
C50 O42 1.315 . S
C50 O45 1.279 . S
C51 O52 1.315 . S
C51 O53 1.279 . S
O52 Cd44 2.223 . S
O52 C51 1.315 . S
O53 Cd43 2.240 . S
O53 C51 1.279 . S
O54 Cd44 2.297 . S
O54 C49 1.247 . S
O55 Cd44 2.439 . S
O55 C49 1.208 . S
O56 Cd57 2.223 . S
O56 C64 1.315 . S
Cd57 O56 2.223 . S
Cd57 O60 2.297 . S
Cd57 O61 2.439 . S
Cd57 O67 2.240 . S
Cd58 O59 2.240 . S
Cd58 O66 2.223 . S
Cd58 O68 2.297 . S
Cd58 O69 2.439 . S
O59 Cd58 2.240 . S
O59 C64 1.279 . S
O60 Cd57 2.297 . S
O60 C62 1.247 . S
O61 Cd57 2.439 . S
O61 C62 1.208 . S
C62 O60 1.247 . S
C62 O61 1.208 . S
C63 O68 1.247 . S
C63 O69 1.208 . S
C64 O56 1.315 . S
C64 O59 1.279 . S
C65 O66 1.315 . S
C65 O67 1.279 . S
O66 Cd58 2.223 . S
O66 C65 1.315 . S
O67 Cd57 2.240 . S
O67 C65 1.279 . S
O68 Cd58 2.297 . S
O68 C63 1.247 . S
O69 Cd58 2.439 . S
O69 C63 1.208 . S
O70 Cd71 2.223 . S
O70 C78 1.315 . S
Cd71 O70 2.223 . S
Cd71 O74 2.297 . S
Cd71 O75 2.439 . S
Cd71 O81 2.240 . S
Cd72 O73 2.240 . S
Cd72 O80 2.223 . S
Cd72 O82 2.297 . S
Cd72 O83 2.439 . S
O73 Cd72 2.240 . S
O73 C78 1.279 . S
O74 Cd71 2.297 . S
O74 C76 1.247 . S
O75 Cd71 2.439 . S
O75 C76 1.208 . S
C76 O74 1.247 . S
C76 O75 1.208 . S
C77 O82 1.247 . S
C77 O83 1.208 . S
C78 O70 1.315 . S
C78 O73 1.279 . S
C79 O80 1.315 . S
C79 O81 1.279 . S
O80 Cd72 2.223 . S
O80 C79 1.315 . S
O81 Cd71 2.240 . S
O81 C79 1.279 . S
O82 Cd72 2.297 . S
O82 C77 1.247 . S
O83 Cd72 2.439 . S
O83 C77 1.208 . S
O84 Cd85 2.223 . S
O84 C92 1.315 . S
Cd85 O84 2.223 . S
Cd85 O88 2.297 . S
Cd85 O89 2.439 . S
Cd85 O95 2.240 . S
Cd86 O87 2.240 . S
Cd86 O94 2.223 . S
Cd86 O96 2.297 . S
Cd86 O97 2.439 . S
O87 Cd86 2.240 . S
O87 C92 1.279 . S
O88 Cd85 2.297 . S
O88 C90 1.247 . S
O89 Cd85 2.439 . S
O89 C90 1.208 . S
C90 O88 1.247 . S
C90 O89 1.208 . S
C91 O96 1.247 . S
C91 O97 1.208 . S
C92 O84 1.315 . S
C92 O87 1.279 . S
C93 O94 1.315 . S
C93 O95 1.279 . S
O94 Cd86 2.223 . S
O94 C93 1.315 . S
O95 Cd85 2.240 . S
O95 C93 1.279 . S
O96 Cd86 2.297 . S
O96 C91 1.247 . S
O97 Cd86 2.439 . S
O97 C91 1.208 . S
O98 Cd99 2.223 1_655 S
O98 C106 1.315 . S
Cd99 O98 2.223 1_455 S
Cd99 O102 2.297 . S
Cd99 O103 2.439 . S
Cd99 O109 2.240 1_455 S
Cd100 O101 2.240 1_655 S
Cd100 O108 2.223 . S
Cd100 O110 2.297 . S
Cd100 O111 2.439 1_655 S
O101 Cd100 2.240 1_455 S
O101 C106 1.279 1_455 S
O102 Cd99 2.297 . S
O102 C104 1.247 . S
O103 Cd99 2.439 . S
O103 C104 1.208 . S
C104 O102 1.247 . S
C104 O103 1.208 . S
C105 O110 1.247 1_455 S
C105 O111 1.208 . S
C106 O98 1.315 . S
C106 O101 1.279 1_655 S
C107 O108 1.315 . S
C107 O109 1.279 . S
O108 Cd100 2.223 . S
O108 C107 1.315 . S
O109 Cd99 2.240 1_655 S
O109 C107 1.279 . S
O110 Cd100 2.297 . S
O110 C105 1.247 1_655 S
O111 Cd100 2.439 1_455 S
O111 C105 1.208 . S
O112 Cd113 2.223 . S
O112 C120 1.315 . S
Cd113 O112 2.223 . S
Cd113 O116 2.297 . S
Cd113 O117 2.439 . S
Cd113 O123 2.240 . S
Cd114 O115 2.240 . S
Cd114 O122 2.223 1_545 S
Cd114 O124 2.297 . S
Cd114 O125 2.439 . S
O115 Cd114 2.240 . S
O115 C120 1.279 . S
O116 Cd113 2.297 . S
O116 C118 1.247 . S
O117 Cd113 2.439 . S
O117 C118 1.208 . S
C118 O116 1.247 . S
C118 O117 1.208 . S
C119 O124 1.247 . S
C119 O125 1.208 . S
C120 O112 1.315 . S
C120 O115 1.279 . S
C121 O122 1.315 . S
C121 O123 1.279 1_565 S
O122 Cd114 2.223 1_565 S
O122 C121 1.315 . S
O123 Cd113 2.240 . S
O123 C121 1.279 1_545 S
O124 Cd114 2.297 . S
O124 C119 1.247 . S
O125 Cd114 2.439 . S
O125 C119 1.208 . S
O126 Cd127 2.223 . S
O126 C134 1.315 . S
Cd127 O126 2.223 . S
Cd127 O130 2.297 . S
Cd127 O131 2.439 . S
Cd127 O137 2.240 . S
Cd128 O129 2.240 . S
Cd128 O136 2.223 . S
Cd128 O138 2.297 . S
Cd128 O139 2.439 . S
O129 Cd128 2.240 . S
O129 C134 1.279 . S
O130 Cd127 2.297 . S
O130 C132 1.247 . S
O131 Cd127 2.439 . S
O131 C132 1.208 . S
C132 O130 1.247 . S
C132 O131 1.208 . S
C133 O138 1.247 . S
C133 O139 1.208 . S
C134 O126 1.315 . S
C134 O129 1.279 . S
C135 O136 1.315 . S
C135 O137 1.279 . S
O136 Cd128 2.223 . S
O136 C135 1.315 . S
O137 Cd127 2.240 . S
O137 C135 1.279 . S
O138 Cd128 2.297 . S
O138 C133 1.247 . S
O139 Cd128 2.439 . S
O139 C133 1.208 . S
O140 Cd141 2.223 . S
O140 C148 1.315 . S
Cd141 O140 2.223 . S
Cd141 O144 2.297 . S
Cd141 O145 2.439 . S
Cd141 O151 2.240 . S
Cd142 O143 2.240 . S
Cd142 O150 2.223 . S
Cd142 O152 2.297 . S
Cd142 O153 2.439 . S
O143 Cd142 2.240 . S
O143 C148 1.279 . S
O144 Cd141 2.297 . S
O144 C146 1.247 . S
O145 Cd141 2.439 . S
O145 C146 1.208 . S
C146 O144 1.247 . S
C146 O145 1.208 . S
C147 O152 1.247 . S
C147 O153 1.208 . S
C148 O140 1.315 . S
C148 O143 1.279 . S
C149 O150 1.315 . S
C149 O151 1.279 . S
O150 Cd142 2.223 . S
O150 C149 1.315 . S
O151 Cd141 2.240 . S
O151 C149 1.279 . S
O152 Cd142 2.297 . S
O152 C147 1.247 . S
O153 Cd142 2.439 . S
O153 C147 1.208 . S
O154 Cd155 2.223 . S
O154 C162 1.315 . S
Cd155 O154 2.223 . S
Cd155 O158 2.297 . S
Cd155 O159 2.439 1_554 S
Cd155 O165 2.240 1_554 S
Cd156 O157 2.240 1_556 S
Cd156 O164 2.223 1_556 S
Cd156 O166 2.297 . S
Cd156 O167 2.439 . S
O157 Cd156 2.240 1_554 S
O157 C162 1.279 . S
O158 Cd155 2.297 . S
O158 C160 1.247 . S
O159 Cd155 2.439 1_556 S
O159 C160 1.208 1_556 S
C160 O158 1.247 . S
C160 O159 1.208 1_554 S
C161 O166 1.247 . S
C161 O167 1.208 . S
C162 O154 1.315 . S
C162 O157 1.279 . S
C163 O164 1.315 . S
C163 O165 1.279 1_554 S
O164 Cd156 2.223 1_554 S
O164 C163 1.315 . S
O165 Cd155 2.240 1_556 S
O165 C163 1.279 1_556 S
O166 Cd156 2.297 . S
O166 C161 1.247 . S
O167 Cd156 2.439 . S
O167 C161 1.208 . S
O168 Cd169 2.223 . S
O168 C176 1.315 . S
Cd169 O168 2.223 . S
Cd169 O172 2.297 . S
Cd169 O173 2.439 . S
Cd169 O179 2.240 . S
Cd170 O171 2.240 . S
Cd170 O178 2.223 . S
Cd170 O180 2.297 1_554 S
Cd170 O181 2.439 1_554 S
O171 Cd170 2.240 . S
O171 C176 1.279 . S
O172 Cd169 2.297 . S
O172 C174 1.247 . S
O173 Cd169 2.439 . S
O173 C174 1.208 . S
C174 O172 1.247 . S
C174 O173 1.208 . S
C175 O180 1.247 . S
C175 O181 1.208 . S
C176 O168 1.315 . S
C176 O171 1.279 . S
C177 O178 1.315 . S
C177 O179 1.279 . S
O178 Cd170 2.223 . S
O178 C177 1.315 . S
O179 Cd169 2.240 . S
O179 C177 1.279 . S
O180 Cd170 2.297 1_556 S
O180 C175 1.247 . S
O181 Cd170 2.439 1_556 S
O181 C175 1.208 . S
O182 Cd183 2.223 . S
O182 C190 1.315 . S
Cd183 O182 2.223 . S
Cd183 O186 2.297 . S
Cd183 O187 2.439 . S
Cd183 O193 2.240 . S
Cd184 O185 2.240 . S
Cd184 O192 2.223 . S
Cd184 O194 2.297 . S
Cd184 O195 2.439 . S
O185 Cd184 2.240 . S
O185 C190 1.279 . S
O186 Cd183 2.297 . S
O186 C188 1.247 . S
O187 Cd183 2.439 . S
O187 C188 1.208 . S
C188 O186 1.247 . S
C188 O187 1.208 . S
C189 O194 1.247 . S
C189 O195 1.208 . S
C190 O182 1.315 . S
C190 O185 1.279 . S
C191 O192 1.315 . S
C191 O193 1.279 . S
O192 Cd184 2.223 . S
O192 C191 1.315 . S
O193 Cd183 2.240 . S
O193 C191 1.279 . S
O194 Cd184 2.297 . S
O194 C189 1.247 . S
O195 Cd184 2.439 . S
O195 C189 1.208 . S
O196 Cd197 2.223 . S
O196 C204 1.315 . S
Cd197 O196 2.223 . S
Cd197 O200 2.297 . S
Cd197 O201 2.439 . S
Cd197 O207 2.240 . S
Cd198 O199 2.240 . S
Cd198 O206 2.223 . S
Cd198 O208 2.297 . S
Cd198 O209 2.439 . S
O199 Cd198 2.240 . S
O199 C204 1.279 . S
O200 Cd197 2.297 . S
O200 C202 1.247 . S
O201 Cd197 2.439 . S
O201 C202 1.208 . S
C202 O200 1.247 . S
C202 O201 1.208 . S
C203 O208 1.247 . S
C203 O209 1.208 . S
C204 O196 1.315 . S
C204 O199 1.279 . S
C205 O206 1.315 . S
C205 O207 1.279 . S
O206 Cd198 2.223 . S
O206 C205 1.315 . S
O207 Cd197 2.240 . S
O207 C205 1.279 . S
O208 Cd198 2.297 . S
O208 C203 1.247 . S
O209 Cd198 2.439 . S
O209 C203 1.208 . S
O210 Cd211 2.223 . S
O210 C218 1.315 . S
Cd211 O210 2.223 . S
Cd211 O214 2.297 . S
Cd211 O215 2.439 . S
Cd211 O221 2.240 . S
Cd212 O213 2.240 . S
Cd212 O220 2.223 . S
Cd212 O222 2.297 . S
Cd212 O223 2.439 . S
O213 Cd212 2.240 . S
O213 C218 1.279 . S
O214 Cd211 2.297 . S
O214 C216 1.247 . S
O215 Cd211 2.439 . S
O215 C216 1.208 . S
C216 O214 1.247 . S
C216 O215 1.208 . S
C217 O222 1.247 . S
C217 O223 1.208 . S
C218 O210 1.315 . S
C218 O213 1.279 . S
C219 O220 1.315 . S
C219 O221 1.279 . S
O220 Cd212 2.223 . S
O220 C219 1.315 . S
O221 Cd211 2.240 . S
O221 C219 1.279 . S
O222 Cd212 2.297 . S
O222 C217 1.247 . S
O223 Cd212 2.439 . S
O223 C217 1.208 . S
O224 Cd225 2.223 1_565 S
O224 C232 1.315 1_565 S
Cd225 O224 2.223 1_545 S
Cd225 O228 2.297 . S
Cd225 O229 2.439 . S
Cd225 O235 2.240 1_545 S
Cd226 O227 2.227 1_565 S
Cd226 O234 2.240 . S
Cd226 O236 2.306 . S
Cd226 O237 2.429 1_565 S
O227 Cd226 2.227 1_545 S
O227 C232 1.279 . S
O228 Cd225 2.297 . S
O228 C230 1.247 . S
O229 Cd225 2.439 . S
O229 C230 1.208 . S
C230 O228 1.247 . S
C230 O229 1.208 . S
C231 O236 1.247 1_545 S
C231 O237 1.208 . S
C232 O224 1.315 1_545 S
C232 O227 1.279 . S
C233 O234 1.315 . S
C233 O235 1.279 . S
O234 Cd226 2.240 . S
O234 C233 1.315 . S
O235 Cd225 2.240 1_565 S
O235 C233 1.279 . S
O236 Cd226 2.306 . S
O236 C231 1.247 1_565 S
O237 Cd226 2.429 1_545 S
O237 C231 1.208 . S
O238 Cd239 2.223 . S
O238 C246 1.315 . S
Cd239 O238 2.223 . S
Cd239 O242 2.297 . S
Cd239 O243 2.439 . S
Cd239 O249 2.240 . S
Cd240 O241 2.240 . S
Cd240 O248 2.223 . S
Cd240 O250 2.297 . S
Cd240 O251 2.439 . S
O241 Cd240 2.240 . S
O241 C246 1.279 . S
O242 Cd239 2.297 . S
O242 C244 1.247 . S
O243 Cd239 2.439 . S
O243 C244 1.208 . S
C244 O242 1.247 . S
C244 O243 1.208 . S
C245 O250 1.247 . S
C245 O251 1.208 . S
C246 O238 1.315 . S
C246 O241 1.279 . S
C247 O248 1.315 . S
C247 O249 1.279 . S
O248 Cd240 2.223 . S
O248 C247 1.315 . S
O249 Cd239 2.240 . S
O249 C247 1.279 . S
O250 Cd240 2.297 . S
O250 C245 1.247 . S
O251 Cd240 2.439 . S
O251 C245 1.208 . S
O252 Cd253 2.223 . S
O252 C260 1.315 . S
Cd253 O252 2.223 . S
Cd253 O256 2.297 . S
Cd253 O257 2.439 . S
Cd253 O263 2.240 . S
Cd254 O255 2.240 . S
Cd254 O262 2.223 . S
Cd254 O264 2.297 . S
Cd254 O265 2.439 . S
O255 Cd254 2.240 . S
O255 C260 1.279 . S
O256 Cd253 2.297 . S
O256 C258 1.247 . S
O257 Cd253 2.439 . S
O257 C258 1.208 . S
C258 O256 1.247 . S
C258 O257 1.208 . S
C259 O264 1.247 . S
C259 O265 1.208 . S
C260 O252 1.315 . S
C260 O255 1.279 . S
C261 O262 1.315 . S
C261 O263 1.279 . S
O262 Cd254 2.223 . S
O262 C261 1.315 . S
O263 Cd253 2.240 . S
O263 C261 1.279 . S
O264 Cd254 2.297 . S
O264 C259 1.247 . S
O265 Cd254 2.439 . S
O265 C259 1.208 . S
O266 Cd267 2.223 . S
O266 C274 1.315 . S
Cd267 O266 2.223 . S
Cd267 O270 2.297 . S
Cd267 O271 2.439 . S
Cd267 O277 2.240 . S
Cd268 O269 2.240 . S
Cd268 O276 2.223 . S
Cd268 O278 2.297 . S
Cd268 O279 2.439 . S
O269 Cd268 2.240 . S
O269 C274 1.279 . S
O270 Cd267 2.297 . S
O270 C272 1.247 1_545 S
O271 Cd267 2.439 . S
O271 C272 1.208 1_545 S
C272 O270 1.247 1_565 S
C272 O271 1.208 1_565 S
C273 O278 1.247 . S
C273 O279 1.208 . S
C274 O266 1.315 . S
C274 O269 1.279 . S
C275 O276 1.315 . S
C275 O277 1.279 . S
O276 Cd268 2.223 . S
O276 C275 1.315 . S
O277 Cd267 2.240 . S
O277 C275 1.279 . S
O278 Cd268 2.297 . S
O278 C273 1.247 . S
O279 Cd268 2.439 . S
O279 C273 1.208 . S
O280 Cd281 2.223 . S
O280 C288 1.315 . S
Cd281 O280 2.223 . S
Cd281 O284 2.297 . S
Cd281 O285 2.439 . S
Cd281 O291 2.240 . S
Cd282 O283 2.240 . S
Cd282 O290 2.223 . S
Cd282 O292 2.293 1_554 S
Cd282 O293 2.439 . S
O283 Cd282 2.240 . S
O283 C288 1.279 . S
O284 Cd281 2.297 . S
O284 C286 1.247 . S
O285 Cd281 2.439 . S
O285 C286 1.208 . S
C286 O284 1.247 . S
C286 O285 1.208 . S
C287 O292 1.249 . S
C287 O293 1.208 1_556 S
C288 O280 1.315 . S
C288 O283 1.279 . S
C289 O290 1.315 . S
C289 O291 1.279 . S
O290 Cd282 2.223 . S
O290 C289 1.315 . S
O291 Cd281 2.240 . S
O291 C289 1.279 . S
O292 Cd282 2.293 1_556 S
O292 C287 1.249 . S
O293 Cd282 2.439 . S
O293 C287 1.208 1_554 S
O294 Cd295 2.223 . S
O294 C302 1.315 . S
Cd295 O294 2.223 . S
Cd295 O298 2.297 . S
Cd295 O299 2.439 . S
Cd295 O305 2.240 . S
Cd296 O297 2.240 . S
Cd296 O304 2.223 . S
Cd296 O306 2.297 . S
Cd296 O307 2.439 . S
O297 Cd296 2.240 . S
O297 C302 1.279 . S
O298 Cd295 2.297 . S
O298 C300 1.247 . S
O299 Cd295 2.439 . S
O299 C300 1.208 . S
C300 O298 1.247 . S
C300 O299 1.208 . S
C301 O306 1.247 . S
C301 O307 1.208 . S
C302 O294 1.315 . S
C302 O297 1.279 . S
C303 O304 1.315 . S
C303 O305 1.279 . S
O304 Cd296 2.223 . S
O304 C303 1.315 . S
O305 Cd295 2.240 . S
O305 C303 1.279 . S
O306 Cd296 2.297 . S
O306 C301 1.247 . S
O307 Cd296 2.439 . S
O307 C301 1.208 . S
O308 Cd309 2.223 . S
O308 C316 1.315 . S
Cd309 O308 2.223 . S
Cd309 O312 2.297 . S
Cd309 O313 2.439 . S
Cd309 O319 2.240 . S
Cd310 O311 2.240 . S
Cd310 O318 2.223 . S
Cd310 O320 2.297 . S
Cd310 O321 2.439 . S
O311 Cd310 2.240 . S
O311 C316 1.279 . S
O312 Cd309 2.297 . S
O312 C314 1.247 . S
O313 Cd309 2.439 . S
O313 C314 1.208 . S
C314 O312 1.247 . S
C314 O313 1.208 . S
C315 O320 1.247 . S
C315 O321 1.208 . S
C316 O308 1.315 . S
C316 O311 1.279 . S
C317 O318 1.315 . S
C317 O319 1.279 . S
O318 Cd310 2.223 . S
O318 C317 1.315 . S
O319 Cd309 2.240 . S
O319 C317 1.279 . S
O320 Cd310 2.297 . S
O320 C315 1.247 . S
O321 Cd310 2.439 . S
O321 C315 1.208 . S
O322 Cd323 2.223 . S
O322 C330 1.315 . S
Cd323 O322 2.223 . S
Cd323 O326 2.297 . S
Cd323 O327 2.439 . S
Cd323 O333 2.240 . S
Cd324 O325 2.240 . S
Cd324 O332 2.223 . S
Cd324 O334 2.297 . S
Cd324 O335 2.439 . S
O325 Cd324 2.240 . S
O325 C330 1.279 . S
O326 Cd323 2.297 . S
O326 C328 1.247 . S
O327 Cd323 2.439 . S
O327 C328 1.208 . S
C328 O326 1.247 . S
C328 O327 1.208 . S
C329 O334 1.247 . S
C329 O335 1.208 . S
C330 O322 1.315 . S
C330 O325 1.279 . S
C331 O332 1.315 . S
C331 O333 1.279 . S
O332 Cd324 2.223 . S
O332 C331 1.315 . S
O333 Cd323 2.240 . S
O333 C331 1.279 . S
O334 Cd324 2.297 . S
O334 C329 1.247 . S
O335 Cd324 2.439 . S
O335 C329 1.208 . S
Tb336 C345 2.764 . S
Tb336 O346 2.325 . S
Tb336 O349 2.303 . S
Tb336 O353 2.322 . S
Tb336 O354 2.349 . S
Tb336 O357 2.415 . S
Tb336 O358 2.399 . S
Tb337 O347 2.322 . S
Tb337 O348 2.349 . S
Tb337 O350 2.415 1_455 S
Tb337 O351 2.399 1_455 S
Tb337 O352 2.325 . S
Tb337 O355 2.303 . S
Tb337 C366 2.764 1_455 S
C338 O354 1.261 . S
C338 O355 1.257 . S
C339 C342 1.358 . S
C339 C343 1.332 . S
C339 C345 1.504 . S
C340 C341 1.373 . S
C340 C344 1.308 . S
C341 C340 1.373 . S
C341 C342 1.429 . S
C341 H368 0.932 . S
C342 C339 1.358 . S
C342 C341 1.429 . S
C342 H369 0.930 . S
C343 C339 1.332 . S
C343 C344 1.394 . S
C343 H370 0.932 . S
C344 C340 1.308 . S
C344 C343 1.394 . S
C344 H371 0.929 . S
C345 Tb336 2.764 . S
C345 C339 1.504 . S
C345 O357 1.239 . S
C345 O358 1.263 . S
O346 Tb336 2.325 . S
O346 C356 1.236 . S
O347 Tb337 2.322 . S
O347 C356 1.257 . S
O348 Tb337 2.349 . S
O348 C359 1.261 . S
O349 Tb336 2.303 . S
O349 C359 1.257 . S
O350 Tb337 2.415 1_655 S
O350 C366 1.239 . S
O351 Tb337 2.399 1_655 S
O351 C366 1.263 . S
O352 Tb337 2.325 . S
O352 C367 1.236 . S
O353 Tb336 2.322 . S
O353 C367 1.257 . S
O354 Tb336 2.349 . S
O354 C338 1.261 . S
O355 Tb337 2.303 . S
O355 C338 1.257 . S
C356 O346 1.236 . S
C356 O347 1.257 . S
O357 Tb336 2.415 . S
O357 C345 1.239 . S
O358 Tb336 2.399 . S
O358 C345 1.263 . S
C359 O348 1.261 . S
C359 O349 1.257 . S
C360 C363 1.358 . S
C360 C364 1.332 . S
C360 C366 1.504 . S
C361 C362 1.373 . S
C361 C365 1.308 . S
C362 C361 1.373 . S
C362 C363 1.429 . S
C362 H372 0.932 1_554 S
C363 C360 1.358 . S
C363 C362 1.429 . S
C363 H373 0.930 1_554 S
C364 C360 1.332 . S
C364 C365 1.394 . S
C364 H374 0.932 . S
C365 C361 1.308 . S
C365 C364 1.394 . S
C365 H375 0.929 . S
C366 Tb337 2.764 1_655 S
C366 O350 1.239 . S
C366 O351 1.263 . S
C366 C360 1.504 . S
C367 O352 1.236 . S
C367 O353 1.257 . S
H368 C341 0.932 . S
H369 C342 0.930 . S
H370 C343 0.932 . S
H371 C344 0.929 . S
H372 C362 0.932 1_556 S
H373 C363 0.930 1_556 S
H374 C364 0.932 . S
H375 C365 0.929 . S
Tb376 C385 2.764 . S
Tb376 O386 2.325 . S
Tb376 O389 2.303 . S
Tb376 O393 2.322 . S
Tb376 O394 2.349 . S
Tb376 O397 2.415 . S
Tb376 O398 2.399 . S
Tb377 O387 2.322 . S
Tb377 O388 2.349 . S
Tb377 O390 2.415 . S
Tb377 O391 2.399 . S
Tb377 O392 2.325 . S
Tb377 O395 2.303 . S
Tb377 C406 2.764 . S
C378 O394 1.261 . S
C378 O395 1.257 . S
C379 C382 1.358 . S
C379 C383 1.332 . S
C379 C385 1.504 . S
C380 C381 1.373 . S
C380 C384 1.308 . S
C381 C380 1.373 . S
C381 C382 1.429 . S
C381 H408 0.932 . S
C382 C379 1.358 . S
C382 C381 1.429 . S
C382 H409 0.930 . S
C383 C379 1.332 . S
C383 C384 1.394 . S
C383 H410 0.932 . S
C384 C380 1.308 . S
C384 C383 1.394 . S
C384 H411 0.929 . S
C385 Tb376 2.764 . S
C385 C379 1.504 . S
C385 O397 1.239 . S
C385 O398 1.263 . S
O386 Tb376 2.325 . S
O386 C396 1.236 . S
O387 Tb377 2.322 . S
O387 C396 1.257 . S
O388 Tb377 2.349 . S
O388 C399 1.261 . S
O389 Tb376 2.303 . S
O389 C399 1.257 . S
O390 Tb377 2.415 . S
O390 C406 1.239 . S
O391 Tb377 2.399 . S
O391 C406 1.263 . S
O392 Tb377 2.325 . S
O392 C407 1.236 . S
O393 Tb376 2.322 . S
O393 C407 1.257 . S
O394 Tb376 2.349 . S
O394 C378 1.261 . S
O395 Tb377 2.303 . S
O395 C378 1.257 . S
C396 O386 1.236 . S
C396 O387 1.257 . S
O397 Tb376 2.415 . S
O397 C385 1.239 . S
O398 Tb376 2.399 . S
O398 C385 1.263 . S
C399 O388 1.261 . S
C399 O389 1.257 . S
C400 C403 1.358 . S
C400 C404 1.332 . S
C400 C406 1.504 . S
C401 C402 1.373 . S
C401 C405 1.308 . S
C402 C401 1.373 . S
C402 C403 1.429 . S
C402 H412 0.932 . S
C403 C400 1.358 . S
C403 C402 1.429 . S
C403 H413 0.930 . S
C404 C400 1.332 . S
C404 C405 1.394 . S
C404 H414 0.932 . S
C405 C401 1.308 . S
C405 C404 1.394 . S
C405 H415 0.929 . S
C406 Tb377 2.764 . S
C406 O390 1.239 . S
C406 O391 1.263 . S
C406 C400 1.504 . S
C407 O392 1.236 . S
C407 O393 1.257 . S
H408 C381 0.932 . S
H409 C382 0.930 . S
H410 C383 0.932 . S
H411 C384 0.929 . S
H412 C402 0.932 . S
H413 C403 0.930 . S
H414 C404 0.932 . S
H415 C405 0.929 . S
Tb416 C425 2.764 . S
Tb416 O426 2.325 . S
Tb416 O429 2.303 . S
Tb416 O433 2.322 1_545 S
Tb416 O434 2.349 . S
Tb416 O437 2.415 . S
Tb416 O438 2.399 . S
Tb417 O427 2.322 . S
Tb417 O428 2.349 . S
Tb417 O430 2.415 . S
Tb417 O431 2.399 . S
Tb417 O432 2.359 . S
Tb417 O435 2.303 . S
Tb417 C446 2.764 . S
C418 O434 1.261 . S
C418 O435 1.257 . S
C419 C422 1.358 . S
C419 C423 1.332 . S
C419 C425 1.504 . S
C420 C421 1.373 . S
C420 C424 1.308 . S
C421 C420 1.373 . S
C421 C422 1.429 . S
C421 H448 0.932 . S
C422 C419 1.358 . S
C422 C421 1.429 . S
C422 H449 0.930 . S
C423 C419 1.332 . S
C423 C424 1.394 . S
C423 H450 0.932 . S
C424 C420 1.308 . S
C424 C423 1.394 . S
C424 H451 0.929 . S
C425 Tb416 2.764 . S
C425 C419 1.504 . S
C425 O437 1.239 . S
C425 O438 1.263 . S
O426 Tb416 2.325 . S
O426 C436 1.236 . S
O427 Tb417 2.322 . S
O427 C436 1.257 . S
O428 Tb417 2.349 . S
O428 C439 1.261 . S
O429 Tb416 2.303 . S
O429 C439 1.257 . S
O430 Tb417 2.415 . S
O430 C446 1.239 . S
O431 Tb417 2.399 . S
O431 C446 1.263 . S
O432 Tb417 2.359 . S
O432 C447 1.221 1_545 S
O433 Tb416 2.322 1_565 S
O433 C447 1.257 . S
O434 Tb416 2.349 . S
O434 C418 1.261 . S
O435 Tb417 2.303 . S
O435 C418 1.257 . S
C436 O426 1.236 . S
C436 O427 1.257 . S
O437 Tb416 2.415 . S
O437 C425 1.239 . S
O438 Tb416 2.399 . S
O438 C425 1.263 . S
C439 O428 1.261 . S
C439 O429 1.257 . S
C440 C443 1.358 . S
C440 C444 1.332 1_545 S
C440 C446 1.504 . S
C441 C442 1.373 . S
C441 C445 1.308 . S
C442 C441 1.373 . S
C442 C443 1.429 1_565 S
C442 H452 0.931 1_565 S
C443 C440 1.358 . S
C443 C442 1.429 1_545 S
C443 H453 0.930 . S
C444 C440 1.332 1_565 S
C444 C445 1.394 . S
C444 H454 0.932 . S
C445 C441 1.308 . S
C445 C444 1.394 . S
C445 H455 0.929 . S
C446 Tb417 2.764 . S
C446 O430 1.239 . S
C446 O431 1.263 . S
C446 C440 1.504 . S
C447 O432 1.221 1_565 S
C447 O433 1.257 . S
H448 C421 0.932 . S
H449 C422 0.930 . S
H450 C423 0.932 . S
H451 C424 0.929 . S
H452 C442 0.931 1_545 S
H453 C443 0.930 . S
H454 C444 0.932 . S
H455 C445 0.929 . S
Tb456 C465 2.764 . S
Tb456 O466 2.325 . S
Tb456 O469 2.303 . S
Tb456 O473 2.322 . S
Tb456 O474 2.349 . S
Tb456 O477 2.415 . S
Tb456 O478 2.399 . S
Tb457 O467 2.322 . S
Tb457 O468 2.349 . S
Tb457 O470 2.415 . S
Tb457 O471 2.399 . S
Tb457 O472 2.325 . S
Tb457 O475 2.303 . S
Tb457 C486 2.764 . S
C458 O474 1.261 . S
C458 O475 1.257 . S
C459 C462 1.358 . S
C459 C463 1.332 . S
C459 C465 1.504 . S
C460 C461 1.373 . S
C460 C464 1.308 . S
C461 C460 1.373 . S
C461 C462 1.429 . S
C461 H488 0.932 . S
C462 C459 1.358 . S
C462 C461 1.429 . S
C462 H489 0.930 . S
C463 C459 1.332 . S
C463 C464 1.394 . S
C463 H490 0.932 . S
C464 C460 1.308 . S
C464 C463 1.394 . S
C464 H491 0.929 . S
C465 Tb456 2.764 . S
C465 C459 1.504 . S
C465 O477 1.239 . S
C465 O478 1.263 . S
O466 Tb456 2.325 . S
O466 C476 1.236 . S
O467 Tb457 2.322 . S
O467 C476 1.257 . S
O468 Tb457 2.349 . S
O468 C479 1.261 . S
O469 Tb456 2.303 . S
O469 C479 1.257 . S
O470 Tb457 2.415 . S
O470 C486 1.239 . S
O471 Tb457 2.399 . S
O471 C486 1.263 . S
O472 Tb457 2.325 . S
O472 C487 1.236 . S
O473 Tb456 2.322 . S
O473 C487 1.257 . S
O474 Tb456 2.349 . S
O474 C458 1.261 . S
O475 Tb457 2.303 . S
O475 C458 1.257 . S
C476 O466 1.236 . S
C476 O467 1.257 . S
O477 Tb456 2.415 . S
O477 C465 1.239 . S
O478 Tb456 2.399 . S
O478 C465 1.263 . S
C479 O468 1.261 . S
C479 O469 1.257 . S
C480 C483 1.358 . S
C480 C484 1.332 . S
C480 C486 1.504 . S
C481 C482 1.373 . S
C481 C485 1.308 . S
C482 C481 1.373 . S
C482 C483 1.429 . S
C482 H492 0.932 . S
C483 C480 1.358 . S
C483 C482 1.429 . S
C483 H493 0.930 . S
C484 C480 1.332 . S
C484 C485 1.394 . S
C484 H494 0.932 . S
C485 C481 1.308 . S
C485 C484 1.394 . S
C485 H495 0.929 . S
C486 Tb457 2.764 . S
C486 O470 1.239 . S
C486 O471 1.263 . S
C486 C480 1.504 . S
C487 O472 1.236 . S
C487 O473 1.257 . S
H488 C461 0.932 . S
H489 C462 0.930 . S
H490 C463 0.932 . S
H491 C464 0.929 . S
H492 C482 0.932 . S
H493 C483 0.930 . S
H494 C484 0.932 . S
H495 C485 0.929 . S
Tb496 C505 2.764 . S
Tb496 O506 2.325 . S
Tb496 O509 2.303 . S
Tb496 O513 2.322 . S
Tb496 O514 2.349 . S
Tb496 O517 2.415 . S
Tb496 O518 2.399 . S
Tb497 O507 2.322 1_545 S
Tb497 O508 2.349 . S
Tb497 O510 2.415 . S
Tb497 O511 2.399 . S
Tb497 O512 2.325 . S
Tb497 O515 2.303 . S
Tb497 C526 2.764 . S
C498 O514 1.261 . S
C498 O515 1.257 . S
C499 C502 1.358 . S
C499 C503 1.332 . S
C499 C505 1.504 . S
C500 C501 1.373 . S
C500 C504 1.308 . S
C501 C500 1.373 . S
C501 C502 1.429 . S
C501 H528 0.932 . S
C502 C499 1.358 . S
C502 C501 1.429 . S
C502 H529 0.930 . S
C503 C499 1.332 . S
C503 C504 1.394 . S
C503 H530 0.932 . S
C504 C500 1.308 . S
C504 C503 1.394 . S
C504 H531 0.929 . S
C505 Tb496 2.764 . S
C505 C499 1.504 . S
C505 O517 1.239 . S
C505 O518 1.263 . S
O506 Tb496 2.325 . S
O506 C516 1.236 1_545 S
O507 Tb497 2.322 1_565 S
O507 C516 1.257 . S
O508 Tb497 2.349 . S
O508 C519 1.261 . S
O509 Tb496 2.303 . S
O509 C519 1.257 . S
O510 Tb497 2.415 . S
O510 C526 1.239 . S
O511 Tb497 2.399 . S
O511 C526 1.263 . S
O512 Tb497 2.325 . S
O512 C527 1.236 . S
O513 Tb496 2.322 . S
O513 C527 1.257 . S
O514 Tb496 2.349 . S
O514 C498 1.261 . S
O515 Tb497 2.303 . S
O515 C498 1.257 . S
C516 O506 1.236 1_565 S
C516 O507 1.257 . S
O517 Tb496 2.415 . S
O517 C505 1.239 . S
O518 Tb496 2.399 . S
O518 C505 1.263 . S
C519 O508 1.261 . S
C519 O509 1.257 . S
C520 C523 1.358 . S
C520 C524 1.340 . S
C520 C526 1.504 . S
C521 C522 1.373 . S
C521 C525 1.308 1_455 S
C522 C521 1.373 . S
C522 C523 1.429 . S
C522 H532 0.932 . S
C523 C520 1.358 . S
C523 C522 1.429 . S
C523 H533 0.930 . S
C524 C520 1.340 . S
C524 C525 1.392 1_455 S
C524 H534 0.926 1_455 S
C525 C521 1.308 1_655 S
C525 C524 1.392 1_655 S
C525 H535 0.929 . S
C526 Tb497 2.764 . S
C526 O510 1.239 . S
C526 O511 1.263 . S
C526 C520 1.504 . S
C527 O512 1.236 . S
C527 O513 1.257 . S
H528 C501 0.932 . S
H529 C502 0.930 . S
H530 C503 0.932 . S
H531 C504 0.929 . S
H532 C522 0.932 . S
H533 C523 0.930 . S
H534 C524 0.926 1_655 S
H535 C525 0.929 . S
Tb536 C545 2.764 . S
Tb536 O546 2.325 . S
Tb536 O549 2.303 . S
Tb536 O553 2.322 . S
Tb536 O554 2.349 . S
Tb536 O557 2.415 . S
Tb536 O558 2.399 . S
Tb537 O547 2.322 . S
Tb537 O548 2.349 . S
Tb537 O550 2.415 . S
Tb537 O551 2.399 . S
Tb537 O552 2.325 . S
Tb537 O555 2.303 . S
Tb537 C566 2.764 . S
C538 O554 1.261 . S
C538 O555 1.257 . S
C539 C542 1.358 . S
C539 C543 1.332 . S
C539 C545 1.504 . S
C540 C541 1.373 . S
C540 C544 1.308 . S
C541 C540 1.373 . S
C541 C542 1.429 . S
C541 H568 0.932 . S
C542 C539 1.358 . S
C542 C541 1.429 . S
C542 H569 0.930 . S
C543 C539 1.332 . S
C543 C544 1.394 . S
C543 H570 0.932 . S
C544 C540 1.308 . S
C544 C543 1.394 . S
C544 H571 0.929 . S
C545 Tb536 2.764 . S
C545 C539 1.504 . S
C545 O557 1.239 . S
C545 O558 1.263 . S
O546 Tb536 2.325 . S
O546 C556 1.236 . S
O547 Tb537 2.322 . S
O547 C556 1.257 . S
O548 Tb537 2.349 . S
O548 C559 1.261 . S
O549 Tb536 2.303 . S
O549 C559 1.257 . S
O550 Tb537 2.415 . S
O550 C566 1.239 . S
O551 Tb537 2.399 . S
O551 C566 1.263 . S
O552 Tb537 2.325 . S
O552 C567 1.236 . S
O553 Tb536 2.322 . S
O553 C567 1.257 . S
O554 Tb536 2.349 . S
O554 C538 1.261 . S
O555 Tb537 2.303 . S
O555 C538 1.257 . S
C556 O546 1.236 . S
C556 O547 1.257 . S
O557 Tb536 2.415 . S
O557 C545 1.239 . S
O558 Tb536 2.399 . S
O558 C545 1.263 . S
C559 O548 1.261 . S
C559 O549 1.257 . S
C560 C563 1.358 . S
C560 C564 1.332 . S
C560 C566 1.504 . S
C561 C562 1.373 . S
C561 C565 1.308 . S
C562 C561 1.373 . S
C562 C563 1.429 . S
C562 H572 0.932 . S
C563 C560 1.358 . S
C563 C562 1.429 . S
C563 H573 0.930 . S
C564 C560 1.332 . S
C564 C565 1.394 . S
C564 H574 0.932 . S
C565 C561 1.308 . S
C565 C564 1.394 . S
C565 H575 0.929 . S
C566 Tb537 2.764 . S
C566 O550 1.239 . S
C566 O551 1.263 . S
C566 C560 1.504 . S
C567 O552 1.236 . S
C567 O553 1.257 . S
H568 C541 0.932 . S
H569 C542 0.930 . S
H570 C543 0.932 . S
H571 C544 0.929 . S
H572 C562 0.932 . S
H573 C563 0.930 . S
H574 C564 0.932 . S
H575 C565 0.929 . S
Tb576 C585 2.764 . S
Tb576 O586 2.325 . S
Tb576 O589 2.303 . S
Tb576 O593 2.322 1_545 S
Tb576 O594 2.349 . S
Tb576 O597 2.415 . S
Tb576 O598 2.399 . S
Tb577 O587 2.322 . S
Tb577 O588 2.349 . S
Tb577 O590 2.415 1_554 S
Tb577 O591 2.399 1_554 S
Tb577 O592 2.325 . S
Tb577 O595 2.303 . S
Tb577 C606 2.764 1_554 S
C578 O594 1.261 . S
C578 O595 1.257 . S
C579 C582 1.358 . S
C579 C583 1.332 . S
C579 C585 1.504 . S
C580 C581 1.373 . S
C580 C584 1.308 . S
C581 C580 1.373 . S
C581 C582 1.429 . S
C581 H608 0.932 . S
C582 C579 1.358 . S
C582 C581 1.429 . S
C582 H609 0.930 . S
C583 C579 1.332 . S
C583 C584 1.394 . S
C583 H610 0.932 . S
C584 C580 1.308 . S
C584 C583 1.394 . S
C584 H611 0.929 . S
C585 Tb576 2.764 . S
C585 C579 1.504 . S
C585 O597 1.239 . S
C585 O598 1.263 . S
O586 Tb576 2.325 . S
O586 C596 1.236 . S
O587 Tb577 2.322 . S
O587 C596 1.257 . S
O588 Tb577 2.349 . S
O588 C599 1.261 . S
O589 Tb576 2.303 . S
O589 C599 1.257 . S
O590 Tb577 2.415 1_556 S
O590 C606 1.239 . S
O591 Tb577 2.399 1_556 S
O591 C606 1.263 . S
O592 Tb577 2.325 . S
O592 C607 1.236 1_545 S
O593 Tb576 2.322 1_565 S
O593 C607 1.257 . S
O594 Tb576 2.349 . S
O594 C578 1.261 . S
O595 Tb577 2.303 . S
O595 C578 1.257 . S
C596 O586 1.236 . S
C596 O587 1.257 . S
O597 Tb576 2.415 . S
O597 C585 1.239 . S
O598 Tb576 2.399 . S
O598 C585 1.263 . S
C599 O588 1.261 . S
C599 O589 1.257 . S
C600 C603 1.358 . S
C600 C604 1.332 . S
C600 C606 1.504 . S
C601 C602 1.373 . S
C601 C605 1.308 . S
C602 C601 1.373 . S
C602 C603 1.429 . S
C602 H612 0.932 . S
C603 C600 1.358 . S
C603 C602 1.429 . S
C603 H613 0.930 . S
C604 C600 1.332 . S
C604 C605 1.394 . S
C604 H614 0.932 . S
C605 C601 1.308 . S
C605 C604 1.394 . S
C605 H615 0.929 . S
C606 Tb577 2.764 1_556 S
C606 O590 1.239 . S
C606 O591 1.263 . S
C606 C600 1.504 . S
C607 O592 1.236 1_565 S
C607 O593 1.257 . S
H608 C581 0.932 . S
H609 C582 0.930 . S
H610 C583 0.932 . S
H611 C584 0.929 . S
H612 C602 0.932 . S
H613 C603 0.930 . S
H614 C604 0.932 . S
H615 C605 0.929 . S
Tb616 C625 2.764 . S
Tb616 O626 2.325 . S
Tb616 O629 2.303 . S
Tb616 O633 2.322 . S
Tb616 O634 2.349 . S
Tb616 O637 2.415 . S
Tb616 O638 2.399 . S
Tb617 O627 2.322 . S
Tb617 O628 2.349 . S
Tb617 O630 2.415 . S
Tb617 O631 2.399 . S
Tb617 O632 2.325 . S
Tb617 O635 2.303 . S
Tb617 C646 2.764 . S
C618 O634 1.261 . S
C618 O635 1.257 . S
C619 C622 1.358 . S
C619 C623 1.332 . S
C619 C625 1.504 . S
C620 C621 1.373 . S
C620 C624 1.308 . S
C621 C620 1.373 . S
C621 C622 1.429 . S
C621 H648 0.932 . S
C622 C619 1.358 . S
C622 C621 1.429 . S
C622 H649 0.930 . S
C623 C619 1.332 . S
C623 C624 1.394 . S
C623 H650 0.932 . S
C624 C620 1.308 . S
C624 C623 1.394 . S
C624 H651 0.929 . S
C625 Tb616 2.764 . S
C625 C619 1.504 . S
C625 O637 1.239 . S
C625 O638 1.263 . S
O626 Tb616 2.325 . S
O626 C636 1.236 . S
O627 Tb617 2.322 . S
O627 C636 1.257 . S
O628 Tb617 2.349 . S
O628 C639 1.261 . S
O629 Tb616 2.303 . S
O629 C639 1.257 . S
O630 Tb617 2.415 . S
O630 C646 1.239 . S
O631 Tb617 2.399 . S
O631 C646 1.263 . S
O632 Tb617 2.325 . S
O632 C647 1.236 . S
O633 Tb616 2.322 . S
O633 C647 1.257 . S
O634 Tb616 2.349 . S
O634 C618 1.261 . S
O635 Tb617 2.303 . S
O635 C618 1.257 . S
C636 O626 1.236 . S
C636 O627 1.257 . S
O637 Tb616 2.415 . S
O637 C625 1.239 . S
O638 Tb616 2.399 . S
O638 C625 1.263 . S
C639 O628 1.261 . S
C639 O629 1.257 . S
C640 C643 1.358 . S
C640 C644 1.332 . S
C640 C646 1.504 . S
C641 C642 1.373 . S
C641 C645 1.308 . S
C642 C641 1.373 . S
C642 C643 1.429 . S
C642 H652 0.932 . S
C643 C640 1.358 . S
C643 C642 1.429 . S
C643 H653 0.930 . S
C644 C640 1.332 . S
C644 C645 1.394 . S
C644 H654 0.932 . S
C645 C641 1.308 . S
C645 C644 1.394 . S
C645 H655 0.929 . S
C646 Tb617 2.764 . S
C646 O630 1.239 . S
C646 O631 1.263 . S
C646 C640 1.504 . S
C647 O632 1.236 . S
C647 O633 1.257 . S
H648 C621 0.932 . S
H649 C622 0.930 . S
H650 C623 0.932 . S
H651 C624 0.929 . S
H652 C642 0.932 . S
H653 C643 0.930 . S
H654 C644 0.932 . S
H655 C645 0.929 . S
Tb656 C665 2.764 . S
Tb656 O666 2.325 . S
Tb656 O669 2.303 . S
Tb656 O673 2.322 . S
Tb656 O674 2.349 . S
Tb656 O677 2.415 . S
Tb656 O678 2.399 . S
Tb657 O667 2.322 . S
Tb657 O668 2.349 . S
Tb657 O670 2.415 1_554 S
Tb657 O671 2.399 1_554 S
Tb657 O672 2.325 . S
Tb657 O675 2.303 . S
Tb657 C686 2.764 1_554 S
C658 O674 1.261 . S
C658 O675 1.257 . S
C659 C662 1.358 . S
C659 C663 1.332 . S
C659 C665 1.504 . S
C660 C661 1.373 . S
C660 C664 1.308 . S
C661 C660 1.373 . S
C661 C662 1.429 . S
C661 H688 0.932 . S
C662 C659 1.358 . S
C662 C661 1.429 . S
C662 H689 0.930 . S
C663 C659 1.332 . S
C663 C664 1.394 . S
C663 H690 0.932 . S
C664 C660 1.308 . S
C664 C663 1.394 . S
C664 H691 0.929 . S
C665 Tb656 2.764 . S
C665 C659 1.504 . S
C665 O677 1.239 . S
C665 O678 1.263 . S
O666 Tb656 2.325 . S
O666 C676 1.236 . S
O667 Tb657 2.322 . S
O667 C676 1.257 . S
O668 Tb657 2.349 . S
O668 C679 1.261 . S
O669 Tb656 2.303 . S
O669 C679 1.257 . S
O670 Tb657 2.415 1_556 S
O670 C686 1.239 . S
O671 Tb657 2.399 1_556 S
O671 C686 1.263 . S
O672 Tb657 2.325 . S
O672 C687 1.236 . S
O673 Tb656 2.322 . S
O673 C687 1.257 . S
O674 Tb656 2.349 . S
O674 C658 1.261 . S
O675 Tb657 2.303 . S
O675 C658 1.257 . S
C676 O666 1.236 . S
C676 O667 1.257 . S
O677 Tb656 2.415 . S
O677 C665 1.239 . S
O678 Tb656 2.399 . S
O678 C665 1.263 . S
C679 O668 1.261 . S
C679 O669 1.257 . S
C680 C683 1.358 . S
C680 C684 1.332 . S
C680 C686 1.504 . S
C681 C682 1.373 . S
C681 C685 1.308 . S
C682 C681 1.373 . S
C682 C683 1.429 . S
C682 H692 0.932 . S
C683 C680 1.358 . S
C683 C682 1.429 . S
C683 H693 0.930 . S
C684 C680 1.332 . S
C684 C685 1.394 . S
C684 H694 0.932 . S
C685 C681 1.308 . S
C685 C684 1.394 . S
C685 H695 0.929 . S
C686 Tb657 2.764 1_556 S
C686 O670 1.239 . S
C686 O671 1.263 . S
C686 C680 1.504 . S
C687 O672 1.236 . S
C687 O673 1.257 . S
H688 C661 0.932 . S
H689 C662 0.930 . S
H690 C663 0.932 . S
H691 C664 0.929 . S
H692 C682 0.932 . S
H693 C683 0.930 . S
H694 C684 0.932 . S
H695 C685 0.929 . S
Tb696 C705 2.764 . S
Tb696 O706 2.325 . S
Tb696 O709 2.303 . S
Tb696 O713 2.322 . S
Tb696 O714 2.349 . S
Tb696 O717 2.415 . S
Tb696 O718 2.399 . S
Tb697 O707 2.322 . S
Tb697 O708 2.349 . S
Tb697 O710 2.415 . S
Tb697 O711 2.399 . S
Tb697 O712 2.325 . S
Tb697 O715 2.303 . S
Tb697 C726 2.764 . S
C698 O714 1.261 . S
C698 O715 1.257 . S
C699 C702 1.358 . S
C699 C703 1.332 . S
C699 C705 1.504 . S
C700 C701 1.373 . S
C700 C704 1.308 . S
C701 C700 1.373 . S
C701 C702 1.429 . S
C701 H728 0.932 . S
C702 C699 1.358 . S
C702 C701 1.429 . S
C702 H729 0.930 . S
C703 C699 1.332 . S
C703 C704 1.394 . S
C703 H730 0.932 . S
C704 C700 1.308 . S
C704 C703 1.394 . S
C704 H731 0.929 . S
C705 Tb696 2.764 . S
C705 C699 1.504 . S
C705 O717 1.239 . S
C705 O718 1.263 . S
O706 Tb696 2.325 . S
O706 C716 1.236 . S
O707 Tb697 2.322 . S
O707 C716 1.257 . S
O708 Tb697 2.349 . S
O708 C719 1.261 . S
O709 Tb696 2.303 . S
O709 C719 1.257 . S
O710 Tb697 2.415 . S
O710 C726 1.239 . S
O711 Tb697 2.399 . S
O711 C726 1.263 . S
O712 Tb697 2.325 . S
O712 C727 1.236 . S
O713 Tb696 2.322 . S
O713 C727 1.257 . S
O714 Tb696 2.349 . S
O714 C698 1.261 . S
O715 Tb697 2.303 . S
O715 C698 1.257 . S
C716 O706 1.236 . S
C716 O707 1.257 . S
O717 Tb696 2.415 . S
O717 C705 1.239 . S
O718 Tb696 2.399 . S
O718 C705 1.263 . S
C719 O708 1.261 . S
C719 O709 1.257 . S
C720 C723 1.358 . S
C720 C724 1.332 . S
C720 C726 1.504 . S
C721 C722 1.373 . S
C721 C725 1.308 . S
C722 C721 1.373 . S
C722 C723 1.429 . S
C722 H732 0.932 . S
C723 C720 1.358 . S
C723 C722 1.429 . S
C723 H733 0.930 . S
C724 C720 1.332 . S
C724 C725 1.394 . S
C724 H734 0.932 . S
C725 C721 1.308 . S
C725 C724 1.394 . S
C725 H735 0.929 . S
C726 Tb697 2.764 . S
C726 O710 1.239 . S
C726 O711 1.263 . S
C726 C720 1.504 . S
C727 O712 1.236 . S
C727 O713 1.257 . S
H728 C701 0.932 . S
H729 C702 0.930 . S
H730 C703 0.932 . S
H731 C704 0.929 . S
H732 C722 0.932 . S
H733 C723 0.930 . S
H734 C724 0.932 . S
H735 C725 0.929 . S
Tb736 C745 2.764 . S
Tb736 O746 2.325 . S
Tb736 O749 2.303 . S
Tb736 O753 2.322 . S
Tb736 O754 2.349 . S
Tb736 O757 2.415 . S
Tb736 O758 2.399 . S
Tb737 O747 2.322 . S
Tb737 O748 2.349 1_455 S
Tb737 O750 2.415 . S
Tb737 O751 2.399 . S
Tb737 O752 2.325 . S
Tb737 O755 2.303 . S
Tb737 C766 2.764 . S
C738 O754 1.261 . S
C738 O755 1.257 . S
C739 C742 1.358 . S
C739 C743 1.332 1_455 S
C739 C745 1.504 . S
C740 C741 1.373 . S
C740 C744 1.308 1_455 S
C741 C740 1.373 . S
C741 C742 1.429 . S
C741 H768 0.932 . S
C742 C739 1.358 . S
C742 C741 1.429 . S
C742 H769 0.930 . S
C743 C739 1.332 1_655 S
C743 C744 1.394 . S
C743 H770 0.932 . S
C744 C740 1.308 1_655 S
C744 C743 1.394 . S
C744 H771 0.929 . S
C745 Tb736 2.764 . S
C745 C739 1.504 . S
C745 O757 1.239 . S
C745 O758 1.263 . S
O746 Tb736 2.325 . S
O746 C756 1.236 . S
O747 Tb737 2.322 . S
O747 C756 1.257 . S
O748 Tb737 2.349 1_655 S
O748 C759 1.261 . S
O749 Tb736 2.303 . S
O749 C759 1.257 1_455 S
O750 Tb737 2.415 . S
O750 C766 1.239 . S
O751 Tb737 2.399 . S
O751 C766 1.263 . S
O752 Tb737 2.325 . S
O752 C767 1.236 . S
O753 Tb736 2.322 . S
O753 C767 1.257 . S
O754 Tb736 2.349 . S
O754 C738 1.261 . S
O755 Tb737 2.303 . S
O755 C738 1.257 . S
C756 O746 1.236 . S
C756 O747 1.257 . S
O757 Tb736 2.415 . S
O757 C745 1.239 . S
O758 Tb736 2.399 . S
O758 C745 1.263 . S
C759 O748 1.261 . S
C759 O749 1.257 1_655 S
C760 C763 1.358 . S
C760 C764 1.332 . S
C760 C766 1.504 . S
C761 C762 1.373 . S
C761 C765 1.308 . S
C762 C761 1.373 . S
C762 C763 1.429 . S
C762 H772 0.932 . S
C763 C760 1.358 . S
C763 C762 1.429 . S
C763 H773 0.930 . S
C764 C760 1.332 . S
C764 C765 1.394 . S
C764 H774 0.932 . S
C765 C761 1.308 . S
C765 C764 1.394 . S
C765 H775 0.929 . S
C766 Tb737 2.764 . S
C766 O750 1.239 . S
C766 O751 1.263 . S
C766 C760 1.504 . S
C767 O752 1.236 . S
C767 O753 1.257 . S
H768 C741 0.932 . S
H769 C742 0.930 . S
H770 C743 0.932 . S
H771 C744 0.929 . S
H772 C762 0.932 . S
H773 C763 0.930 . S
H774 C764 0.932 . S
H775 C765 0.929 . S
Tb776 C785 2.764 . S
Tb776 O786 2.325 . S
Tb776 O789 2.303 . S
Tb776 O793 2.322 . S
Tb776 O794 2.349 . S
Tb776 O797 2.415 . S
Tb776 O798 2.399 . S
Tb777 O787 2.322 . S
Tb777 O788 2.349 . S
Tb777 O790 2.415 . S
Tb777 O791 2.399 . S
Tb777 O792 2.325 . S
Tb777 O795 2.303 . S
Tb777 C806 2.764 . S
C778 O794 1.261 . S
C778 O795 1.257 . S
C779 C782 1.358 . S
C779 C783 1.332 . S
C779 C785 1.504 . S
C780 C781 1.373 . S
C780 C784 1.308 . S
C781 C780 1.373 . S
C781 C782 1.429 . S
C781 H808 0.932 . S
C782 C779 1.358 . S
C782 C781 1.429 . S
C782 H809 0.930 . S
C783 C779 1.332 . S
C783 C784 1.394 . S
C783 H810 0.932 . S
C784 C780 1.308 . S
C784 C783 1.394 . S
C784 H811 0.929 . S
C785 Tb776 2.764 . S
C785 C779 1.504 . S
C785 O797 1.239 . S
C785 O798 1.263 . S
O786 Tb776 2.325 . S
O786 C796 1.236 . S
O787 Tb777 2.322 . S
O787 C796 1.257 . S
O788 Tb777 2.349 . S
O788 C799 1.261 . S
O789 Tb776 2.303 . S
O789 C799 1.257 . S
O790 Tb777 2.415 . S
O790 C806 1.239 . S
O791 Tb777 2.399 . S
O791 C806 1.263 . S
O792 Tb777 2.325 . S
O792 C807 1.236 . S
O793 Tb776 2.322 . S
O793 C807 1.257 . S
O794 Tb776 2.349 . S
O794 C778 1.261 . S
O795 Tb777 2.303 . S
O795 C778 1.257 . S
C796 O786 1.236 . S
C796 O787 1.257 . S
O797 Tb776 2.415 . S
O797 C785 1.239 . S
O798 Tb776 2.399 . S
O798 C785 1.263 . S
C799 O788 1.261 . S
C799 O789 1.257 . S
C800 C803 1.358 . S
C800 C804 1.332 . S
C800 C806 1.504 . S
C801 C802 1.373 . S
C801 C805 1.308 . S
C802 C801 1.373 . S
C802 C803 1.429 . S
C802 H812 0.932 . S
C803 C800 1.358 . S
C803 C802 1.429 . S
C803 H813 0.930 . S
C804 C800 1.332 . S
C804 C805 1.394 . S
C804 H814 0.932 . S
C805 C801 1.308 . S
C805 C804 1.394 . S
C805 H815 0.929 . S
C806 Tb777 2.764 . S
C806 O790 1.239 . S
C806 O791 1.263 . S
C806 C800 1.504 . S
C807 O792 1.236 . S
C807 O793 1.257 . S
H808 C781 0.932 . S
H809 C782 0.930 . S
H810 C783 0.932 . S
H811 C784 0.929 . S
H812 C802 0.932 . S
H813 C803 0.930 . S
H814 C804 0.932 . S
H815 C805 0.929 . S
Tb816 C825 2.764 . S
Tb816 O826 2.325 . S
Tb816 O829 2.303 . S
Tb816 O833 2.322 . S
Tb816 O834 2.349 . S
Tb816 O837 2.415 . S
Tb816 O838 2.399 . S
Tb817 O827 2.322 . S
Tb817 O828 2.349 . S
Tb817 O830 2.415 . S
Tb817 O831 2.399 . S
Tb817 O832 2.325 . S
Tb817 O835 2.303 . S
Tb817 C846 2.764 . S
C818 O834 1.261 . S
C818 O835 1.257 . S
C819 C822 1.358 . S
C819 C823 1.332 . S
C819 C825 1.504 . S
C820 C821 1.373 . S
C820 C824 1.308 . S
C821 C820 1.373 . S
C821 C822 1.429 . S
C821 H848 0.932 . S
C822 C819 1.358 . S
C822 C821 1.429 . S
C822 H849 0.930 . S
C823 C819 1.332 . S
C823 C824 1.394 . S
C823 H850 0.932 . S
C824 C820 1.308 . S
C824 C823 1.394 . S
C824 H851 0.929 . S
C825 Tb816 2.764 . S
C825 C819 1.504 . S
C825 O837 1.239 . S
C825 O838 1.263 . S
O826 Tb816 2.325 . S
O826 C836 1.236 . S
O827 Tb817 2.322 . S
O827 C836 1.257 . S
O828 Tb817 2.349 . S
O828 C839 1.261 . S
O829 Tb816 2.303 . S
O829 C839 1.257 . S
O830 Tb817 2.415 . S
O830 C846 1.239 . S
O831 Tb817 2.399 . S
O831 C846 1.263 . S
O832 Tb817 2.325 . S
O832 C847 1.236 . S
O833 Tb816 2.322 . S
O833 C847 1.257 . S
O834 Tb816 2.349 . S
O834 C818 1.261 . S
O835 Tb817 2.303 . S
O835 C818 1.257 . S
C836 O826 1.236 . S
C836 O827 1.257 . S
O837 Tb816 2.415 . S
O837 C825 1.239 . S
O838 Tb816 2.399 . S
O838 C825 1.263 . S
C839 O828 1.261 . S
C839 O829 1.257 . S
C840 C843 1.358 . S
C840 C844 1.332 . S
C840 C846 1.504 . S
C841 C842 1.373 . S
C841 C845 1.308 . S
C842 C841 1.373 . S
C842 C843 1.429 . S
C842 H852 0.932 . S
C843 C840 1.358 . S
C843 C842 1.429 . S
C843 H853 0.930 . S
C844 C840 1.332 . S
C844 C845 1.394 . S
C844 H854 0.932 . S
C845 C841 1.308 . S
C845 C844 1.394 . S
C845 H855 0.929 . S
C846 Tb817 2.764 . S
C846 O830 1.239 . S
C846 O831 1.263 . S
C846 C840 1.504 . S
C847 O832 1.236 . S
C847 O833 1.257 . S
H848 C821 0.932 . S
H849 C822 0.930 . S
H850 C823 0.932 . S
H851 C824 0.929 . S
H852 C842 0.932 . S
H853 C843 0.930 . S
H854 C844 0.932 . S
H855 C845 0.929 . S
Tb856 C865 2.764 . S
Tb856 O866 2.325 . S
Tb856 O869 2.303 . S
Tb856 O873 2.322 . S
Tb856 O874 2.349 . S
Tb856 O877 2.415 . S
Tb856 O878 2.399 . S
Tb857 O867 2.322 . S
Tb857 O868 2.349 . S
Tb857 O870 2.415 . S
Tb857 O871 2.399 . S
Tb857 O872 2.325 . S
Tb857 O875 2.303 . S
Tb857 C886 2.764 . S
C858 O874 1.261 . S
C858 O875 1.257 . S
C859 C862 1.358 . S
C859 C863 1.332 . S
C859 C865 1.504 . S
C860 C861 1.373 . S
C860 C864 1.308 . S
C861 C860 1.373 . S
C861 C862 1.429 . S
C861 H888 0.932 . S
C862 C859 1.358 . S
C862 C861 1.429 . S
C862 H889 0.930 . S
C863 C859 1.332 . S
C863 C864 1.394 . S
C863 H890 0.932 . S
C864 C860 1.308 . S
C864 C863 1.394 . S
C864 H891 0.929 . S
C865 Tb856 2.764 . S
C865 C859 1.504 . S
C865 O877 1.239 . S
C865 O878 1.263 . S
O866 Tb856 2.325 . S
O866 C876 1.236 . S
O867 Tb857 2.322 . S
O867 C876 1.257 . S
O868 Tb857 2.349 . S
O868 C879 1.261 . S
O869 Tb856 2.303 . S
O869 C879 1.257 . S
O870 Tb857 2.415 . S
O870 C886 1.239 . S
O871 Tb857 2.399 . S
O871 C886 1.263 . S
O872 Tb857 2.325 . S
O872 C887 1.236 . S
O873 Tb856 2.322 . S
O873 C887 1.257 . S
O874 Tb856 2.349 . S
O874 C858 1.261 . S
O875 Tb857 2.303 . S
O875 C858 1.257 . S
C876 O866 1.236 . S
C876 O867 1.257 . S
O877 Tb856 2.415 . S
O877 C865 1.239 . S
O878 Tb856 2.399 . S
O878 C865 1.263 . S
C879 O868 1.261 . S
C879 O869 1.257 . S
C880 C883 1.358 . S
C880 C884 1.332 . S
C880 C886 1.504 . S
C881 C882 1.373 . S
C881 C885 1.308 . S
C882 C881 1.373 . S
C882 C883 1.429 . S
C882 H892 0.932 . S
C883 C880 1.358 . S
C883 C882 1.429 . S
C883 H893 0.930 . S
C884 C880 1.332 . S
C884 C885 1.394 . S
C884 H894 0.932 . S
C885 C881 1.308 . S
C885 C884 1.394 . S
C885 H895 0.929 . S
C886 Tb857 2.764 . S
C886 O870 1.239 . S
C886 O871 1.263 . S
C886 C880 1.504 . S
C887 O872 1.236 . S
C887 O873 1.257 . S
H888 C861 0.932 . S
H889 C862 0.930 . S
H890 C863 0.932 . S
H891 C864 0.929 . S
H892 C882 0.932 . S
H893 C883 0.930 . S
H894 C884 0.932 . S
H895 C885 0.929 . S
Tb896 C905 2.764 . S
Tb896 O906 2.325 . S
Tb896 O909 2.303 . S
Tb896 O913 2.322 . S
Tb896 O914 2.349 . S
Tb896 O917 2.415 . S
Tb896 O918 2.399 . S
Tb897 O907 2.322 . S
Tb897 O908 2.349 . S
Tb897 O910 2.415 . S
Tb897 O911 2.399 . S
Tb897 O912 2.325 . S
Tb897 O915 2.303 . S
Tb897 C926 2.764 . S
C898 O914 1.261 . S
C898 O915 1.257 . S
C899 C902 1.358 . S
C899 C903 1.332 . S
C899 C905 1.504 . S
C900 C901 1.373 . S
C900 C904 1.308 . S
C901 C900 1.373 . S
C901 C902 1.429 . S
C901 H928 0.932 . S
C902 C899 1.358 . S
C902 C901 1.429 . S
C902 H929 0.930 . S
C903 C899 1.332 . S
C903 C904 1.394 . S
C903 H930 0.932 . S
C904 C900 1.308 . S
C904 C903 1.394 . S
C904 H931 0.929 . S
C905 Tb896 2.764 . S
C905 C899 1.504 . S
C905 O917 1.239 . S
C905 O918 1.263 . S
O906 Tb896 2.325 . S
O906 C916 1.236 . S
O907 Tb897 2.322 . S
O907 C916 1.257 . S
O908 Tb897 2.349 . S
O908 C919 1.261 . S
O909 Tb896 2.303 . S
O909 C919 1.257 . S
O910 Tb897 2.415 . S
O910 C926 1.239 . S
O911 Tb897 2.399 . S
O911 C926 1.263 . S
O912 Tb897 2.325 . S
O912 C927 1.236 . S
O913 Tb896 2.322 . S
O913 C927 1.257 . S
O914 Tb896 2.349 . S
O914 C898 1.261 . S
O915 Tb897 2.303 . S
O915 C898 1.257 . S
C916 O906 1.236 . S
C916 O907 1.257 . S
O917 Tb896 2.415 . S
O917 C905 1.239 . S
O918 Tb896 2.399 . S
O918 C905 1.263 . S
C919 O908 1.261 . S
C919 O909 1.257 . S
C920 C923 1.358 . S
C920 C924 1.332 . S
C920 C926 1.504 . S
C921 C922 1.373 . S
C921 C925 1.308 . S
C922 C921 1.373 . S
C922 C923 1.429 . S
C922 H932 0.932 . S
C923 C920 1.358 . S
C923 C922 1.429 . S
C923 H933 0.930 . S
C924 C920 1.332 . S
C924 C925 1.394 . S
C924 H934 0.932 . S
C925 C921 1.308 . S
C925 C924 1.394 . S
C925 H935 0.929 . S
C926 Tb897 2.764 . S
C926 O910 1.239 . S
C926 O911 1.263 . S
C926 C920 1.504 . S
C927 O912 1.236 . S
C927 O913 1.257 . S
H928 C901 0.932 . S
H929 C902 0.930 . S
H930 C903 0.932 . S
H931 C904 0.929 . S
H932 C922 0.932 . S
H933 C923 0.930 . S
H934 C924 0.932 . S
H935 C925 0.929 . S
Tb936 C945 2.764 1_455 S
Tb936 O946 2.325 . S
Tb936 O949 2.303 . S
Tb936 O953 2.322 . S
Tb936 O954 2.349 . S
Tb936 O957 2.415 1_455 S
Tb936 O958 2.399 1_455 S
Tb937 O947 2.322 . S
Tb937 O948 2.349 . S
Tb937 O950 2.415 . S
Tb937 O951 2.399 . S
Tb937 O952 2.325 . S
Tb937 O955 2.303 . S
Tb937 C966 2.764 . S
C938 O954 1.261 . S
C938 O955 1.257 . S
C939 C942 1.358 . S
C939 C943 1.332 . S
C939 C945 1.504 . S
C940 C941 1.373 . S
C940 C944 1.308 . S
C941 C940 1.373 . S
C941 C942 1.429 . S
C941 H968 0.932 . S
C942 C939 1.358 . S
C942 C941 1.429 . S
C942 H969 0.930 . S
C943 C939 1.332 . S
C943 C944 1.394 . S
C943 H970 0.932 . S
C944 C940 1.308 . S
C944 C943 1.394 . S
C944 H971 0.929 . S
C945 Tb936 2.764 1_655 S
C945 C939 1.504 . S
C945 O957 1.239 . S
C945 O958 1.263 . S
O946 Tb936 2.325 . S
O946 C956 1.236 . S
O947 Tb937 2.322 . S
O947 C956 1.257 . S
O948 Tb937 2.349 . S
O948 C959 1.261 . S
O949 Tb936 2.303 . S
O949 C959 1.257 . S
O950 Tb937 2.415 . S
O950 C966 1.239 . S
O951 Tb937 2.399 . S
O951 C966 1.263 . S
O952 Tb937 2.325 . S
O952 C967 1.236 . S
O953 Tb936 2.322 . S
O953 C967 1.257 . S
O954 Tb936 2.349 . S
O954 C938 1.261 . S
O955 Tb937 2.303 . S
O955 C938 1.257 . S
C956 O946 1.236 . S
C956 O947 1.257 . S
O957 Tb936 2.415 1_655 S
O957 C945 1.239 . S
O958 Tb936 2.399 1_655 S
O958 C945 1.263 . S
C959 O948 1.261 . S
C959 O949 1.257 . S
C960 C963 1.358 . S
C960 C964 1.332 . S
C960 C966 1.504 . S
C961 C962 1.373 . S
C961 C965 1.308 . S
C962 C961 1.373 . S
C962 C963 1.429 . S
C962 H972 0.932 . S
C963 C960 1.358 . S
C963 C962 1.429 . S
C963 H973 0.930 . S
C964 C960 1.332 . S
C964 C965 1.394 . S
C964 H974 0.932 . S
C965 C961 1.308 . S
C965 C964 1.394 . S
C965 H975 0.929 . S
C966 Tb937 2.764 . S
C966 O950 1.239 . S
C966 O951 1.263 . S
C966 C960 1.504 . S
C967 O952 1.236 . S
C967 O953 1.257 . S
H968 C941 0.932 . S
H969 C942 0.930 . S
H970 C943 0.932 . S
H971 C944 0.929 . S
H972 C962 0.932 . S
H973 C963 0.930 . S
H974 C964 0.932 . S
H975 C965 0.929 . S
H976 C984 0.950 . S
H977 C989 0.950 . S
H978 C986 0.950 . S
H979 C988 0.950 . S
H980 C990 0.950 . S
H981 C992 0.950 1_656 S
H982 C994 0.950 . S
H983 C995 0.950 . S
C984 H976 0.950 . S
C984 C985 1.386 1_455 S
C984 C986 1.391 . S
C985 C984 1.386 1_655 S
C985 C989 1.393 . S
C986 H978 0.950 . S
C986 C984 1.391 . S
C986 C987 1.400 . S
C987 C986 1.400 . S
C987 C988 1.398 1_455 S
C987 C993 1.491 1_556 S
C988 H979 0.950 . S
C988 C987 1.398 1_655 S
C988 C989 1.391 . S
C989 H977 0.950 . S
C989 C985 1.393 . S
C989 C988 1.391 . S
C990 H980 0.950 . S
C990 C991 1.386 . S
C990 C992 1.391 . S
C991 C990 1.386 . S
C991 C995 1.393 . S
C992 H981 0.950 1_454 S
C992 C990 1.391 . S
C992 C993 1.400 . S
C993 C987 1.491 1_554 S
C993 C992 1.400 . S
C993 C994 1.398 . S
C994 H982 0.950 . S
C994 C993 1.398 . S
C994 C995 1.391 . S
C995 H983 0.950 . S
C995 C991 1.393 . S
C995 C994 1.391 . S
H996 C1004 0.950 . S
H997 C1009 0.950 . S
H998 C1006 0.950 . S
H999 C1008 0.950 . S
H1000 C1010 0.950 . S
H1001 C1012 0.950 . S
H1002 C1014 0.950 . S
H1003 C1015 0.950 . S
C1004 H996 0.950 . S
C1004 C1005 1.386 . S
C1004 C1006 1.391 . S
C1005 C1004 1.386 . S
C1005 C1009 1.393 . S
C1006 H998 0.950 . S
C1006 C1004 1.391 . S
C1006 C1007 1.400 . S
C1007 C1006 1.400 . S
C1007 C1008 1.398 . S
C1007 C1013 1.491 . S
C1008 H999 0.950 . S
C1008 C1007 1.398 . S
C1008 C1009 1.391 . S
C1009 H997 0.950 . S
C1009 C1005 1.393 . S
C1009 C1008 1.391 . S
C1010 H1000 0.950 . S
C1010 C1011 1.386 . S
C1010 C1012 1.391 . S
C1011 C1010 1.386 . S
C1011 C1015 1.393 . S
C1012 H1001 0.950 . S
C1012 C1010 1.391 . S
C1012 C1013 1.400 . S
C1013 C1007 1.491 . S
C1013 C1012 1.400 . S
C1013 C1014 1.398 . S
C1014 H1002 0.950 . S
C1014 C1013 1.398 . S
C1014 C1015 1.391 . S
C1015 H1003 0.950 . S
C1015 C1011 1.393 . S
C1015 C1014 1.391 . S
H1016 C1024 0.950 . S
H1017 C1029 0.950 . S
H1018 C1026 0.950 . S
H1019 C1028 0.950 . S
H1020 C1030 0.950 . S
H1021 C1032 0.950 . S
H1022 C1034 0.950 . S
H1023 C1035 0.950 . S
C1024 H1016 0.950 . S
C1024 C1025 1.386 . S
C1024 C1026 1.391 . S
C1025 C1024 1.386 . S
C1025 C1029 1.393 . S
C1026 H1018 0.950 . S
C1026 C1024 1.391 . S
C1026 C1027 1.400 . S
C1027 C1026 1.400 . S
C1027 C1028 1.398 . S
C1027 C1033 1.491 . S
C1028 H1019 0.950 . S
C1028 C1027 1.398 . S
C1028 C1029 1.391 . S
C1029 H1017 0.950 . S
C1029 C1025 1.393 . S
C1029 C1028 1.391 . S
C1030 H1020 0.950 . S
C1030 C1031 1.386 . S
C1030 C1032 1.391 . S
C1031 C1030 1.386 . S
C1031 C1035 1.393 . S
C1032 H1021 0.950 . S
C1032 C1030 1.391 . S
C1032 C1033 1.400 . S
C1033 C1027 1.491 . S
C1033 C1032 1.400 . S
C1033 C1034 1.398 . S
C1034 H1022 0.950 . S
C1034 C1033 1.398 . S
C1034 C1035 1.391 . S
C1035 H1023 0.950 . S
C1035 C1031 1.393 . S
C1035 C1034 1.391 . S
H1036 C1044 0.950 . S
H1037 C1049 0.950 . S
H1038 C1046 0.950 . S
H1039 C1048 0.950 . S
H1040 C1050 0.950 . S
H1041 C1052 0.950 . S
H1042 C1054 0.950 . S
H1043 C1055 0.950 . S
C1044 H1036 0.950 . S
C1044 C1045 1.386 . S
C1044 C1046 1.391 . S
C1045 C1044 1.386 . S
C1045 C1049 1.393 . S
C1046 H1038 0.950 . S
C1046 C1044 1.391 . S
C1046 C1047 1.400 . S
C1047 C1046 1.400 . S
C1047 C1048 1.398 . S
C1047 C1053 1.491 . S
C1048 H1039 0.950 . S
C1048 C1047 1.398 . S
C1048 C1049 1.391 . S
C1049 H1037 0.950 . S
C1049 C1045 1.393 . S
C1049 C1048 1.391 . S
C1050 H1040 0.950 . S
C1050 C1051 1.386 . S
C1050 C1052 1.391 . S
C1051 C1050 1.386 . S
C1051 C1055 1.393 . S
C1052 H1041 0.950 . S
C1052 C1050 1.391 . S
C1052 C1053 1.400 . S
C1053 C1047 1.491 . S
C1053 C1052 1.400 . S
C1053 C1054 1.398 . S
C1054 H1042 0.950 . S
C1054 C1053 1.398 . S
C1054 C1055 1.391 . S
C1055 H1043 0.950 . S
C1055 C1051 1.393 . S
C1055 C1054 1.391 . S
H1056 C1064 0.950 . S
H1057 C1069 0.950 . S
H1058 C1066 0.950 . S
H1059 C1068 0.950 . S
H1060 C1070 0.950 . S
H1061 C1072 0.950 . S
H1062 C1074 0.950 . S
H1063 C1075 0.950 . S
C1064 H1056 0.950 . S
C1064 C1065 1.386 . S
C1064 C1066 1.391 . S
C1065 C1064 1.386 . S
C1065 C1069 1.393 . S
C1066 H1058 0.950 . S
C1066 C1064 1.391 . S
C1066 C1067 1.400 . S
C1067 C1066 1.400 . S
C1067 C1068 1.398 . S
C1067 C1073 1.491 . S
C1068 H1059 0.950 . S
C1068 C1067 1.398 . S
C1068 C1069 1.391 . S
C1069 H1057 0.950 . S
C1069 C1065 1.393 . S
C1069 C1068 1.391 . S
C1070 H1060 0.950 . S
C1070 C1071 1.386 . S
C1070 C1072 1.391 . S
C1071 C1070 1.386 . S
C1071 C1075 1.393 . S
C1072 H1061 0.950 . S
C1072 C1070 1.391 . S
C1072 C1073 1.400 . S
C1073 C1067 1.491 . S
C1073 C1072 1.400 . S
C1073 C1074 1.398 . S
C1074 H1062 0.950 . S
C1074 C1073 1.398 . S
C1074 C1075 1.391 . S
C1075 H1063 0.950 . S
C1075 C1071 1.393 . S
C1075 C1074 1.391 . S
H1076 C1084 0.950 . S
H1077 C1089 0.950 . S
H1078 C1086 0.950 . S
H1079 C1088 0.950 . S
H1080 C1090 0.950 . S
H1081 C1092 0.950 . S
H1082 C1094 0.950 . S
H1083 C1095 0.950 . S
C1084 H1076 0.950 . S
C1084 C1085 1.386 . S
C1084 C1086 1.391 . S
C1085 C1084 1.386 . S
C1085 C1089 1.393 . S
C1086 H1078 0.950 . S
C1086 C1084 1.391 . S
C1086 C1087 1.400 . S
C1087 C1086 1.400 . S
C1087 C1088 1.398 . S
C1087 C1093 1.491 . S
C1088 H1079 0.950 . S
C1088 C1087 1.398 . S
C1088 C1089 1.391 . S
C1089 H1077 0.950 . S
C1089 C1085 1.393 . S
C1089 C1088 1.391 . S
C1090 H1080 0.950 . S
C1090 C1091 1.386 . S
C1090 C1092 1.391 . S
C1091 C1090 1.386 . S
C1091 C1095 1.393 . S
C1092 H1081 0.950 . S
C1092 C1090 1.391 . S
C1092 C1093 1.400 . S
C1093 C1087 1.491 . S
C1093 C1092 1.400 . S
C1093 C1094 1.398 . S
C1094 H1082 0.950 . S
C1094 C1093 1.398 . S
C1094 C1095 1.391 . S
C1095 H1083 0.950 . S
C1095 C1091 1.393 . S
C1095 C1094 1.391 . S
H1096 C1104 0.950 . S
H1097 C1109 0.950 . S
H1098 C1106 0.950 . S
H1099 C1108 0.950 . S
H1100 C1110 0.950 . S
H1101 C1112 0.950 . S
H1102 C1114 0.950 . S
H1103 C1115 0.950 . S
C1104 H1096 0.950 . S
C1104 C1105 1.386 . S
C1104 C1106 1.391 . S
C1105 C1104 1.386 . S
C1105 C1109 1.393 . S
C1106 H1098 0.950 . S
C1106 C1104 1.391 . S
C1106 C1107 1.400 . S
C1107 C1106 1.400 . S
C1107 C1108 1.398 . S
C1107 C1113 1.491 . S
C1108 H1099 0.950 . S
C1108 C1107 1.398 . S
C1108 C1109 1.391 . S
C1109 H1097 0.950 . S
C1109 C1105 1.393 . S
C1109 C1108 1.391 . S
C1110 H1100 0.950 . S
C1110 C1111 1.386 . S
C1110 C1112 1.391 . S
C1111 C1110 1.386 . S
C1111 C1115 1.393 . S
C1112 H1101 0.950 . S
C1112 C1110 1.391 . S
C1112 C1113 1.400 . S
C1113 C1107 1.491 . S
C1113 C1112 1.400 . S
C1113 C1114 1.398 . S
C1114 H1102 0.950 . S
C1114 C1113 1.398 . S
C1114 C1115 1.391 . S
C1115 H1103 0.950 . S
C1115 C1111 1.393 . S
C1115 C1114 1.391 . S
H1116 C1124 0.950 . S
H1117 C1129 0.950 . S
H1118 C1126 0.950 . S
H1119 C1128 0.950 . S
H1120 C1130 0.950 . S
H1121 C1132 0.950 . S
H1122 C1134 0.950 . S
H1123 C1135 0.950 . S
C1124 H1116 0.950 . S
C1124 C1125 1.386 . S
C1124 C1126 1.391 . S
C1125 C1124 1.386 . S
C1125 C1129 1.393 . S
C1126 H1118 0.950 . S
C1126 C1124 1.391 . S
C1126 C1127 1.400 . S
C1127 C1126 1.400 . S
C1127 C1128 1.398 . S
C1127 C1133 1.491 . S
C1128 H1119 0.950 . S
C1128 C1127 1.398 . S
C1128 C1129 1.391 . S
C1129 H1117 0.950 . S
C1129 C1125 1.393 . S
C1129 C1128 1.391 . S
C1130 H1120 0.950 . S
C1130 C1131 1.386 . S
C1130 C1132 1.391 . S
C1131 C1130 1.386 . S
C1131 C1135 1.393 . S
C1132 H1121 0.950 . S
C1132 C1130 1.391 . S
C1132 C1133 1.400 . S
C1133 C1127 1.491 . S
C1133 C1132 1.400 . S
C1133 C1134 1.398 . S
C1134 H1122 0.950 . S
C1134 C1133 1.398 . S
C1134 C1135 1.391 . S
C1135 H1123 0.950 . S
C1135 C1131 1.393 . S
C1135 C1134 1.391 . S
H1136 C1144 0.985 . S
H1137 C1149 0.950 . S
H1138 C1146 0.950 . S
H1139 C1148 0.950 . S
H1140 C1150 0.950 . S
H1141 C1152 0.950 . S
H1142 C1154 0.950 . S
H1143 C1155 0.950 . S
C1144 H1136 0.985 . S
C1144 C1145 1.357 1_565 S
C1144 C1146 1.385 1_565 S
C1145 C1144 1.357 1_545 S
C1145 C1149 1.393 . S
C1146 H1138 0.950 . S
C1146 C1144 1.385 1_545 S
C1146 C1147 1.400 . S
C1147 C1146 1.400 . S
C1147 C1148 1.398 . S
C1147 C1153 1.491 . S
C1148 H1139 0.950 . S
C1148 C1147 1.398 . S
C1148 C1149 1.391 . S
C1149 H1137 0.950 . S
C1149 C1145 1.393 . S
C1149 C1148 1.391 . S
C1150 H1140 0.950 . S
C1150 C1151 1.386 . S
C1150 C1152 1.391 1_455 S
C1151 C1150 1.386 . S
C1151 C1155 1.393 . S
C1152 H1141 0.950 . S
C1152 C1150 1.391 1_655 S
C1152 C1153 1.400 . S
C1153 C1147 1.491 . S
C1153 C1152 1.400 . S
C1153 C1154 1.398 1_655 S
C1154 H1142 0.950 . S
C1154 C1153 1.398 1_455 S
C1154 C1155 1.391 . S
C1155 H1143 0.950 . S
C1155 C1151 1.393 . S
C1155 C1154 1.391 . S
H1156 C1164 0.950 . S
H1157 C1169 0.950 . S
H1158 C1166 0.950 . S
H1159 C1168 0.950 . S
H1160 C1170 0.950 . S
H1161 C1172 0.950 . S
H1162 C1174 0.950 . S
H1163 C1175 0.950 . S
C1164 H1156 0.950 . S
C1164 C1165 1.386 . S
C1164 C1166 1.391 . S
C1165 C1164 1.386 . S
C1165 C1169 1.393 . S
C1166 H1158 0.950 . S
C1166 C1164 1.391 . S
C1166 C1167 1.400 . S
C1167 C1166 1.400 . S
C1167 C1168 1.398 . S
C1167 C1173 1.491 . S
C1168 H1159 0.950 . S
C1168 C1167 1.398 . S
C1168 C1169 1.391 . S
C1169 H1157 0.950 . S
C1169 C1165 1.393 . S
C1169 C1168 1.391 . S
C1170 H1160 0.950 . S
C1170 C1171 1.386 . S
C1170 C1172 1.391 . S
C1171 C1170 1.386 . S
C1171 C1175 1.393 . S
C1172 H1161 0.950 . S
C1172 C1170 1.391 . S
C1172 C1173 1.400 . S
C1173 C1167 1.491 . S
C1173 C1172 1.400 . S
C1173 C1174 1.398 . S
C1174 H1162 0.950 . S
C1174 C1173 1.398 . S
C1174 C1175 1.391 . S
C1175 H1163 0.950 . S
C1175 C1171 1.393 . S
C1175 C1174 1.391 . S
H1176 C1184 0.950 . S
H1177 C1189 0.950 . S
H1178 C1186 0.952 1_565 S
H1179 C1188 0.950 . S
H1180 C1190 0.950 . S
H1181 C1192 0.950 . S
H1182 C1194 0.950 1_565 S
H1183 C1195 0.950 1_565 S
C1184 H1176 0.950 . S
C1184 C1185 1.386 . S
C1184 C1186 1.391 . S
C1185 C1184 1.386 . S
C1185 C1189 1.393 . S
C1186 H1178 0.952 1_545 S
C1186 C1184 1.391 . S
C1186 C1187 1.400 . S
C1187 C1186 1.400 . S
C1187 C1188 1.398 . S
C1187 C1193 1.491 . S
C1188 H1179 0.950 . S
C1188 C1187 1.398 . S
C1188 C1189 1.391 . S
C1189 H1177 0.950 . S
C1189 C1185 1.393 . S
C1189 C1188 1.391 . S
C1190 H1180 0.950 . S
C1190 C1191 1.386 . S
C1190 C1192 1.391 . S
C1191 C1190 1.386 . S
C1191 C1195 1.393 . S
C1192 H1181 0.950 . S
C1192 C1190 1.391 . S
C1192 C1193 1.400 . S
C1193 C1187 1.491 . S
C1193 C1192 1.400 . S
C1193 C1194 1.398 . S
C1194 H1182 0.950 1_545 S
C1194 C1193 1.398 . S
C1194 C1195 1.391 . S
C1195 H1183 0.950 1_545 S
C1195 C1191 1.393 . S
C1195 C1194 1.391 . S
H1196 C1204 0.950 . S
H1197 C1209 0.950 . S
H1198 C1206 0.950 . S
H1199 C1208 0.950 . S
H1200 C1210 0.950 . S
H1201 C1212 0.950 . S
H1202 C1214 0.950 . S
H1203 C1215 0.950 . S
C1204 H1196 0.950 . S
C1204 C1205 1.386 . S
C1204 C1206 1.391 . S
C1205 C1204 1.386 . S
C1205 C1209 1.393 . S
C1206 H1198 0.950 . S
C1206 C1204 1.391 . S
C1206 C1207 1.400 . S
C1207 C1206 1.400 . S
C1207 C1208 1.398 . S
C1207 C1213 1.491 . S
C1208 H1199 0.950 . S
C1208 C1207 1.398 . S
C1208 C1209 1.391 . S
C1209 H1197 0.950 . S
C1209 C1205 1.393 . S
C1209 C1208 1.391 . S
C1210 H1200 0.950 . S
C1210 C1211 1.386 . S
C1210 C1212 1.391 . S
C1211 C1210 1.386 . S
C1211 C1215 1.393 . S
C1212 H1201 0.950 . S
C1212 C1210 1.391 . S
C1212 C1213 1.400 . S
C1213 C1207 1.491 . S
C1213 C1212 1.400 . S
C1213 C1214 1.398 . S
C1214 H1202 0.950 . S
C1214 C1213 1.398 . S
C1214 C1215 1.391 . S
C1215 H1203 0.950 . S
C1215 C1211 1.393 . S
C1215 C1214 1.391 . S
H1216 C1224 0.950 . S
H1217 C1229 0.950 . S
H1218 C1226 0.950 . S
H1219 C1228 0.950 . S
H1220 C1230 0.950 . S
H1221 C1232 0.954 . S
H1222 C1234 0.950 . S
H1223 C1235 0.950 . S
C1224 H1216 0.950 . S
C1224 C1225 1.386 . S
C1224 C1226 1.391 . S
C1225 C1224 1.386 . S
C1225 C1229 1.393 . S
C1226 H1218 0.950 . S
C1226 C1224 1.391 . S
C1226 C1227 1.400 . S
C1227 C1226 1.400 . S
C1227 C1228 1.398 . S
C1227 C1233 1.491 . S
C1228 H1219 0.950 . S
C1228 C1227 1.398 . S
C1228 C1229 1.391 . S
C1229 H1217 0.950 . S
C1229 C1225 1.393 . S
C1229 C1228 1.391 . S
C1230 H1220 0.950 . S
C1230 C1231 1.386 . S
C1230 C1232 1.396 . S
C1231 C1230 1.386 . S
C1231 C1235 1.393 1_455 S
C1232 H1221 0.954 . S
C1232 C1230 1.396 . S
C1232 C1233 1.392 1_455 S
C1233 C1227 1.491 . S
C1233 C1232 1.392 1_655 S
C1233 C1234 1.398 . S
C1234 H1222 0.950 . S
C1234 C1233 1.398 . S
C1234 C1235 1.391 . S
C1235 H1223 0.950 . S
C1235 C1231 1.393 1_655 S
C1235 C1234 1.391 . S
H1236 C1244 0.950 . S
H1237 C1249 0.950 . S
H1238 C1246 0.950 . S
H1239 C1248 0.950 . S
H1240 C1250 0.950 . S
H1241 C1252 0.950 . S
H1242 C1254 0.950 . S
H1243 C1255 0.950 . S
C1244 H1236 0.950 . S
C1244 C1245 1.386 . S
C1244 C1246 1.391 . S
C1245 C1244 1.386 . S
C1245 C1249 1.393 . S
C1246 H1238 0.950 . S
C1246 C1244 1.391 . S
C1246 C1247 1.400 . S
C1247 C1246 1.400 . S
C1247 C1248 1.398 . S
C1247 C1253 1.491 . S
C1248 H1239 0.950 . S
C1248 C1247 1.398 . S
C1248 C1249 1.391 . S
C1249 H1237 0.950 . S
C1249 C1245 1.393 . S
C1249 C1248 1.391 . S
C1250 H1240 0.950 . S
C1250 C1251 1.386 . S
C1250 C1252 1.391 . S
C1251 C1250 1.386 . S
C1251 C1255 1.393 . S
C1252 H1241 0.950 . S
C1252 C1250 1.391 . S
C1252 C1253 1.400 . S
C1253 C1247 1.491 . S
C1253 C1252 1.400 . S
C1253 C1254 1.398 . S
C1254 H1242 0.950 . S
C1254 C1253 1.398 . S
C1254 C1255 1.391 . S
C1255 H1243 0.950 . S
C1255 C1251 1.393 . S
C1255 C1254 1.391 . S
H1256 C1264 0.950 . S
H1257 C1269 0.950 . S
H1258 C1266 0.950 . S
H1259 C1268 0.950 . S
H1260 C1270 0.950 . S
H1261 C1272 0.950 . S
H1262 C1274 0.950 . S
H1263 C1275 0.950 . S
C1264 H1256 0.950 . S
C1264 C1265 1.386 . S
C1264 C1266 1.391 . S
C1265 C1264 1.386 . S
C1265 C1269 1.393 . S
C1266 H1258 0.950 . S
C1266 C1264 1.391 . S
C1266 C1267 1.400 . S
C1267 C1266 1.400 . S
C1267 C1268 1.398 . S
C1267 C1273 1.491 . S
C1268 H1259 0.950 . S
C1268 C1267 1.398 . S
C1268 C1269 1.391 . S
C1269 H1257 0.950 . S
C1269 C1265 1.393 . S
C1269 C1268 1.391 . S
C1270 H1260 0.950 . S
C1270 C1271 1.386 . S
C1270 C1272 1.391 . S
C1271 C1270 1.386 . S
C1271 C1275 1.393 . S
C1272 H1261 0.950 . S
C1272 C1270 1.391 . S
C1272 C1273 1.400 . S
C1273 C1267 1.491 . S
C1273 C1272 1.400 . S
C1273 C1274 1.398 . S
C1274 H1262 0.950 . S
C1274 C1273 1.398 . S
C1274 C1275 1.391 . S
C1275 H1263 0.950 . S
C1275 C1271 1.393 . S
C1275 C1274 1.391 . S
H1276 C1284 0.950 . S
H1277 C1289 0.950 . S
H1278 C1286 0.950 . S
H1279 C1288 0.950 . S
H1280 C1290 0.950 . S
H1281 C1292 0.950 . S
H1282 C1294 0.950 . S
H1283 C1295 0.950 . S
C1284 H1276 0.950 . S
C1284 C1285 1.386 . S
C1284 C1286 1.391 . S
C1285 C1284 1.386 . S
C1285 C1289 1.393 . S
C1286 H1278 0.950 . S
C1286 C1284 1.391 . S
C1286 C1287 1.400 . S
C1287 C1286 1.400 . S
C1287 C1288 1.398 . S
C1287 C1293 1.491 . S
C1288 H1279 0.950 . S
C1288 C1287 1.398 . S
C1288 C1289 1.391 . S
C1289 H1277 0.950 . S
C1289 C1285 1.393 . S
C1289 C1288 1.391 . S
C1290 H1280 0.950 . S
C1290 C1291 1.386 . S
C1290 C1292 1.391 . S
C1291 C1290 1.386 . S
C1291 C1295 1.393 . S
C1292 H1281 0.950 . S
C1292 C1290 1.391 . S
C1292 C1293 1.400 . S
C1293 C1287 1.491 . S
C1293 C1292 1.400 . S
C1293 C1294 1.398 . S
C1294 H1282 0.950 . S
C1294 C1293 1.398 . S
C1294 C1295 1.391 . S
C1295 H1283 0.950 . S
C1295 C1291 1.393 . S
C1295 C1294 1.391 . S
H1296 C1304 0.950 . S
H1297 C1309 0.950 . S
H1298 C1306 0.950 1_545 S
H1299 C1308 0.950 . S
H1300 C1310 0.950 1_565 S
H1301 C1312 0.950 . S
H1302 C1314 0.950 . S
H1303 C1315 0.950 . S
C1304 H1296 0.950 . S
C1304 C1305 1.386 . S
C1304 C1306 1.391 . S
C1305 C1304 1.386 . S
C1305 C1309 1.393 . S
C1306 H1298 0.950 1_565 S
C1306 C1304 1.391 . S
C1306 C1307 1.400 . S
C1307 C1306 1.400 . S
C1307 C1308 1.398 . S
C1307 C1313 1.473 1_565 S
C1308 H1299 0.950 . S
C1308 C1307 1.398 . S
C1308 C1309 1.391 . S
C1309 H1297 0.950 . S
C1309 C1305 1.393 . S
C1309 C1308 1.391 . S
C1310 H1300 0.950 1_545 S
C1310 C1311 1.386 . S
C1310 C1312 1.391 1_545 S
C1311 C1310 1.386 . S
C1311 C1315 1.393 . S
C1312 H1301 0.950 . S
C1312 C1310 1.391 1_565 S
C1312 C1313 1.401 1_565 S
C1313 C1307 1.473 1_545 S
C1313 C1312 1.401 1_545 S
C1313 C1314 1.417 . S
C1314 H1302 0.950 . S
C1314 C1313 1.417 . S
C1314 C1315 1.391 . S
C1315 H1303 0.950 . S
C1315 C1311 1.393 . S
C1315 C1314 1.391 . S
H1316 C1324 0.950 . S
H1317 C1329 0.950 . S
H1318 C1326 0.950 . S
H1319 C1328 0.950 . S
H1320 C1330 0.950 . S
H1321 C1332 0.950 . S
H1322 C1334 0.950 . S
H1323 C1335 0.950 . S
C1324 H1316 0.950 . S
C1324 C1325 1.386 . S
C1324 C1326 1.391 . S
C1325 C1324 1.386 . S
C1325 C1329 1.393 . S
C1326 H1318 0.950 . S
C1326 C1324 1.391 . S
C1326 C1327 1.400 . S
C1327 C1326 1.400 . S
C1327 C1328 1.398 . S
C1327 C1333 1.491 . S
C1328 H1319 0.950 . S
C1328 C1327 1.398 . S
C1328 C1329 1.391 . S
C1329 H1317 0.950 . S
C1329 C1325 1.393 . S
C1329 C1328 1.391 . S
C1330 H1320 0.950 . S
C1330 C1331 1.386 . S
C1330 C1332 1.391 . S
C1331 C1330 1.386 . S
C1331 C1335 1.393 . S
C1332 H1321 0.950 . S
C1332 C1330 1.391 . S
C1332 C1333 1.400 . S
C1333 C1327 1.491 . S
C1333 C1332 1.400 . S
C1333 C1334 1.398 . S
C1334 H1322 0.950 . S
C1334 C1333 1.398 . S
C1334 C1335 1.391 . S
C1335 H1323 0.950 . S
C1335 C1331 1.393 . S
C1335 C1334 1.391 . S
H1336 C1344 0.950 . S
H1337 C1349 0.950 . S
H1338 C1346 0.950 . S
H1339 C1348 0.950 . S
H1340 C1350 0.950 . S
H1341 C1352 0.950 . S
H1342 C1354 0.950 . S
H1343 C1355 0.950 . S
C1344 H1336 0.950 . S
C1344 C1345 1.386 . S
C1344 C1346 1.391 . S
C1345 C1344 1.386 . S
C1345 C1349 1.393 . S
C1346 H1338 0.950 . S
C1346 C1344 1.391 . S
C1346 C1347 1.400 . S
C1347 C1346 1.400 . S
C1347 C1348 1.398 . S
C1347 C1353 1.491 . S
C1348 H1339 0.950 . S
C1348 C1347 1.398 . S
C1348 C1349 1.391 . S
C1349 H1337 0.950 . S
C1349 C1345 1.393 . S
C1349 C1348 1.391 . S
C1350 H1340 0.950 . S
C1350 C1351 1.386 . S
C1350 C1352 1.391 . S
C1351 C1350 1.386 . S
C1351 C1355 1.393 . S
C1352 H1341 0.950 . S
C1352 C1350 1.391 . S
C1352 C1353 1.400 . S
C1353 C1347 1.491 . S
C1353 C1352 1.400 . S
C1353 C1354 1.398 . S
C1354 H1342 0.950 . S
C1354 C1353 1.398 . S
C1354 C1355 1.391 . S
C1355 H1343 0.950 . S
C1355 C1351 1.393 . S
C1355 C1354 1.391 . S
H1356 C1364 0.950 . S
H1357 C1369 0.950 . S
H1358 C1366 0.950 . S
H1359 C1368 0.950 . S
H1360 C1370 0.950 . S
H1361 C1372 0.950 . S
H1362 C1374 0.950 . S
H1363 C1375 0.950 . S
C1364 H1356 0.950 . S
C1364 C1365 1.386 . S
C1364 C1366 1.391 . S
C1365 C1364 1.386 . S
C1365 C1369 1.393 . S
C1366 H1358 0.950 . S
C1366 C1364 1.391 . S
C1366 C1367 1.400 . S
C1367 C1366 1.400 . S
C1367 C1368 1.398 . S
C1367 C1373 1.491 . S
C1368 H1359 0.950 . S
C1368 C1367 1.398 . S
C1368 C1369 1.391 . S
C1369 H1357 0.950 . S
C1369 C1365 1.393 . S
C1369 C1368 1.391 . S
C1370 H1360 0.950 . S
C1370 C1371 1.386 . S
C1370 C1372 1.391 . S
C1371 C1370 1.386 . S
C1371 C1375 1.393 . S
C1372 H1361 0.950 . S
C1372 C1370 1.391 . S
C1372 C1373 1.400 . S
C1373 C1367 1.491 . S
C1373 C1372 1.400 . S
C1373 C1374 1.398 . S
C1374 H1362 0.950 . S
C1374 C1373 1.398 . S
C1374 C1375 1.391 . S
C1375 H1363 0.950 . S
C1375 C1371 1.393 . S
C1375 C1374 1.391 . S
H1376 C1384 0.950 . S
H1377 C1389 0.950 . S
H1378 C1386 0.950 . S
H1379 C1388 0.950 . S
H1380 C1390 0.950 . S
H1381 C1392 0.950 . S
H1382 C1394 0.950 . S
H1383 C1395 0.950 . S
C1384 H1376 0.950 . S
C1384 C1385 1.386 . S
C1384 C1386 1.391 . S
C1385 C1384 1.386 . S
C1385 C1389 1.393 . S
C1386 H1378 0.950 . S
C1386 C1384 1.391 . S
C1386 C1387 1.400 . S
C1387 C1386 1.400 . S
C1387 C1388 1.398 . S
C1387 C1393 1.491 . S
C1388 H1379 0.950 . S
C1388 C1387 1.398 . S
C1388 C1389 1.391 . S
C1389 H1377 0.950 . S
C1389 C1385 1.393 . S
C1389 C1388 1.391 . S
C1390 H1380 0.950 . S
C1390 C1391 1.386 . S
C1390 C1392 1.391 . S
C1391 C1390 1.386 . S
C1391 C1395 1.393 . S
C1392 H1381 0.950 . S
C1392 C1390 1.391 . S
C1392 C1393 1.400 . S
C1393 C1387 1.491 . S
C1393 C1392 1.400 . S
C1393 C1394 1.398 . S
C1394 H1382 0.950 . S
C1394 C1393 1.398 . S
C1394 C1395 1.391 . S
C1395 H1383 0.950 . S
C1395 C1391 1.393 . S
C1395 C1394 1.391 . S
H1396 C1404 0.950 . S
H1397 C1409 0.950 . S
H1398 C1406 0.950 . S
H1399 C1408 0.950 . S
H1400 C1410 0.950 . S
H1401 C1412 0.950 . S
H1402 C1414 0.950 . S
H1403 C1415 0.950 . S
C1404 H1396 0.950 . S
C1404 C1405 1.386 . S
C1404 C1406 1.391 . S
C1405 C1404 1.386 . S
C1405 C1409 1.393 . S
C1406 H1398 0.950 . S
C1406 C1404 1.391 . S
C1406 C1407 1.400 . S
C1407 C1406 1.400 . S
C1407 C1408 1.398 . S
C1407 C1413 1.491 . S
C1408 H1399 0.950 . S
C1408 C1407 1.398 . S
C1408 C1409 1.391 . S
C1409 H1397 0.950 . S
C1409 C1405 1.393 . S
C1409 C1408 1.391 . S
C1410 H1400 0.950 . S
C1410 C1411 1.386 . S
C1410 C1412 1.391 . S
C1411 C1410 1.386 . S
C1411 C1415 1.393 . S
C1412 H1401 0.950 . S
C1412 C1410 1.391 . S
C1412 C1413 1.400 . S
C1413 C1407 1.491 . S
C1413 C1412 1.400 . S
C1413 C1414 1.398 . S
C1414 H1402 0.950 . S
C1414 C1413 1.398 . S
C1414 C1415 1.391 . S
C1415 H1403 0.950 . S
C1415 C1411 1.393 . S
C1415 C1414 1.391 . S
H1416 C1424 0.950 . S
H1417 C1429 0.950 . S
H1418 C1426 0.950 . S
H1419 C1428 0.950 . S
H1420 C1430 0.950 . S
H1421 C1432 0.950 . S
H1422 C1434 0.950 . S
H1423 C1435 0.950 . S
C1424 H1416 0.950 . S
C1424 C1425 1.386 . S
C1424 C1426 1.391 . S
C1425 C1424 1.386 . S
C1425 C1429 1.393 . S
C1426 H1418 0.950 . S
C1426 C1424 1.391 . S
C1426 C1427 1.400 . S
C1427 C1426 1.400 . S
C1427 C1428 1.398 . S
C1427 C1433 1.491 . S
C1428 H1419 0.950 . S
C1428 C1427 1.398 . S
C1428 C1429 1.391 . S
C1429 H1417 0.950 . S
C1429 C1425 1.393 . S
C1429 C1428 1.391 . S
C1430 H1420 0.950 . S
C1430 C1431 1.386 . S
C1430 C1432 1.391 . S
C1431 C1430 1.386 . S
C1431 C1435 1.393 . S
C1432 H1421 0.950 . S
C1432 C1430 1.391 . S
C1432 C1433 1.400 . S
C1433 C1427 1.491 . S
C1433 C1432 1.400 . S
C1433 C1434 1.398 . S
C1434 H1422 0.950 . S
C1434 C1433 1.398 . S
C1434 C1435 1.391 . S
C1435 H1423 0.950 . S
C1435 C1431 1.393 . S
C1435 C1434 1.391 . S
H1436 C1444 0.950 . S
H1437 C1449 0.950 . S
H1438 C1446 0.950 . S
H1439 C1448 0.950 . S
H1440 C1450 0.950 . S
H1441 C1452 0.950 . S
H1442 C1454 0.950 . S
H1443 C1455 0.950 . S
C1444 H1436 0.950 . S
C1444 C1445 1.386 . S
C1444 C1446 1.391 . S
C1445 C1444 1.386 . S
C1445 C1449 1.393 . S
C1446 H1438 0.950 . S
C1446 C1444 1.391 . S
C1446 C1447 1.400 . S
C1447 C1446 1.400 . S
C1447 C1448 1.398 . S
C1447 C1453 1.491 . S
C1448 H1439 0.950 . S
C1448 C1447 1.398 . S
C1448 C1449 1.391 . S
C1449 H1437 0.950 . S
C1449 C1445 1.393 . S
C1449 C1448 1.391 . S
C1450 H1440 0.950 . S
C1450 C1451 1.386 . S
C1450 C1452 1.391 . S
C1451 C1450 1.386 . S
C1451 C1455 1.393 . S
C1452 H1441 0.950 . S
C1452 C1450 1.391 . S
C1452 C1453 1.400 . S
C1453 C1447 1.491 . S
C1453 C1452 1.400 . S
C1453 C1454 1.398 . S
C1454 H1442 0.950 . S
C1454 C1453 1.398 . S
C1454 C1455 1.391 . S
C1455 H1443 0.950 . S
C1455 C1451 1.393 . S
C1455 C1454 1.391 . S
H1456 C1464 0.950 . S
H1457 C1469 0.950 . S
H1458 C1466 0.950 . S
H1459 C1468 0.950 . S
H1460 C1470 0.950 . S
H1461 C1472 0.950 . S
H1462 C1474 0.950 . S
H1463 C1475 0.950 . S
C1464 H1456 0.950 . S
C1464 C1465 1.386 . S
C1464 C1466 1.391 . S
C1465 C1464 1.386 . S
C1465 C1469 1.393 . S
C1466 H1458 0.950 . S
C1466 C1464 1.391 . S
C1466 C1467 1.400 . S
C1467 C1466 1.400 . S
C1467 C1468 1.398 . S
C1467 C1473 1.491 . S
C1468 H1459 0.950 . S
C1468 C1467 1.398 . S
C1468 C1469 1.391 . S
C1469 H1457 0.950 . S
C1469 C1465 1.393 . S
C1469 C1468 1.391 . S
C1470 H1460 0.950 . S
C1470 C1471 1.386 . S
C1470 C1472 1.391 . S
C1471 C1470 1.386 . S
C1471 C1475 1.393 . S
C1472 H1461 0.950 . S
C1472 C1470 1.391 . S
C1472 C1473 1.400 . S
C1473 C1467 1.491 . S
C1473 C1472 1.400 . S
C1473 C1474 1.398 . S
C1474 H1462 0.950 . S
C1474 C1473 1.398 . S
C1474 C1475 1.391 . S
C1475 H1463 0.950 . S
C1475 C1471 1.393 . S
C1475 C1474 1.391 . S
H1476 C1484 0.950 . S
H1477 C1489 0.950 . S
H1478 C1486 0.950 . S
H1479 C1488 0.950 . S
H1480 C1490 0.950 . S
H1481 C1492 0.950 . S
H1482 C1494 0.950 . S
H1483 C1495 0.950 . S
C1484 H1476 0.950 . S
C1484 C1485 1.386 . S
C1484 C1486 1.391 . S
C1485 C1484 1.386 . S
C1485 C1489 1.393 . S
C1486 H1478 0.950 . S
C1486 C1484 1.391 . S
C1486 C1487 1.400 . S
C1487 C1486 1.400 . S
C1487 C1488 1.398 . S
C1487 C1493 1.491 . S
C1488 H1479 0.950 . S
C1488 C1487 1.398 . S
C1488 C1489 1.391 . S
C1489 H1477 0.950 . S
C1489 C1485 1.393 . S
C1489 C1488 1.391 . S
C1490 H1480 0.950 . S
C1490 C1491 1.386 . S
C1490 C1492 1.391 . S
C1491 C1490 1.386 . S
C1491 C1495 1.393 . S
C1492 H1481 0.950 . S
C1492 C1490 1.391 . S
C1492 C1493 1.400 . S
C1493 C1487 1.491 . S
C1493 C1492 1.400 . S
C1493 C1494 1.398 . S
C1494 H1482 0.950 . S
C1494 C1493 1.398 . S
C1494 C1495 1.391 . S
C1495 H1483 0.950 . S
C1495 C1491 1.393 . S
C1495 C1494 1.391 . S
H1496 C1504 0.950 . S
H1497 C1509 0.950 . S
H1498 C1506 0.950 . S
H1499 C1508 0.950 . S
H1500 C1510 0.950 . S
H1501 C1512 0.950 . S
H1502 C1514 0.950 . S
H1503 C1515 0.950 . S
C1504 H1496 0.950 . S
C1504 C1505 1.386 . S
C1504 C1506 1.391 . S
C1505 C1504 1.386 . S
C1505 C1509 1.393 . S
C1506 H1498 0.950 . S
C1506 C1504 1.391 . S
C1506 C1507 1.400 . S
C1507 C1506 1.400 . S
C1507 C1508 1.398 . S
C1507 C1513 1.491 . S
C1508 H1499 0.950 . S
C1508 C1507 1.398 . S
C1508 C1509 1.391 . S
C1509 H1497 0.950 . S
C1509 C1505 1.393 . S
C1509 C1508 1.391 . S
C1510 H1500 0.950 . S
C1510 C1511 1.386 . S
C1510 C1512 1.391 . S
C1511 C1510 1.386 . S
C1511 C1515 1.393 . S
C1512 H1501 0.950 . S
C1512 C1510 1.391 . S
C1512 C1513 1.400 . S
C1513 C1507 1.491 . S
C1513 C1512 1.400 . S
C1513 C1514 1.398 . S
C1514 H1502 0.950 . S
C1514 C1513 1.398 . S
C1514 C1515 1.391 . S
C1515 H1503 0.950 . S
C1515 C1511 1.393 . S
C1515 C1514 1.391 . S
H1516 C1524 0.950 . S
H1517 C1529 0.950 . S
H1518 C1526 0.950 . S
H1519 C1528 0.950 . S
H1520 C1530 0.950 . S
H1521 C1532 0.950 . S
H1522 C1534 0.950 . S
H1523 C1535 0.950 . S
C1524 H1516 0.950 . S
C1524 C1525 1.386 . S
C1524 C1526 1.391 . S
C1525 C1524 1.386 . S
C1525 C1529 1.393 . S
C1526 H1518 0.950 . S
C1526 C1524 1.391 . S
C1526 C1527 1.400 . S
C1527 C1526 1.400 . S
C1527 C1528 1.398 . S
C1527 C1533 1.491 . S
C1528 H1519 0.950 . S
C1528 C1527 1.398 . S
C1528 C1529 1.391 . S
C1529 H1517 0.950 . S
C1529 C1525 1.393 . S
C1529 C1528 1.391 . S
C1530 H1520 0.950 . S
C1530 C1531 1.386 . S
C1530 C1532 1.391 . S
C1531 C1530 1.386 . S
C1531 C1535 1.393 . S
C1532 H1521 0.950 . S
C1532 C1530 1.391 . S
C1532 C1533 1.400 . S
C1533 C1527 1.491 . S
C1533 C1532 1.400 . S
C1533 C1534 1.398 . S
C1534 H1522 0.950 . S
C1534 C1533 1.398 . S
C1534 C1535 1.391 . S
C1535 H1523 0.950 . S
C1535 C1531 1.393 . S
C1535 C1534 1.391 . S
H1536 C1544 0.950 1_655 S
H1537 C1549 0.950 . S
H1538 C1546 0.950 1_655 S
H1539 C1548 0.950 . S
H1540 C1550 0.950 . S
H1541 C1552 0.950 . S
H1542 C1554 0.950 1_655 S
H1543 C1555 0.934 1_655 S
C1544 H1536 0.950 1_455 S
C1544 C1545 1.386 . S
C1544 C1546 1.391 . S
C1545 C1544 1.386 . S
C1545 C1549 1.393 . S
C1546 H1538 0.950 1_455 S
C1546 C1544 1.391 . S
C1546 C1547 1.400 . S
C1547 C1546 1.400 . S
C1547 C1548 1.398 . S
C1547 C1553 1.491 . S
C1548 H1539 0.950 . S
C1548 C1547 1.398 . S
C1548 C1549 1.391 . S
C1549 H1537 0.950 . S
C1549 C1545 1.393 . S
C1549 C1548 1.391 . S
C1550 H1540 0.950 . S
C1550 C1551 1.386 . S
C1550 C1552 1.391 . S
C1551 C1550 1.386 . S
C1551 C1555 1.393 . S
C1552 H1541 0.950 . S
C1552 C1550 1.391 . S
C1552 C1553 1.400 . S
C1553 C1547 1.491 . S
C1553 C1552 1.400 . S
C1553 C1554 1.398 . S
C1554 H1542 0.950 1_455 S
C1554 C1553 1.398 . S
C1554 C1555 1.391 . S
C1555 H1543 0.934 1_455 S
C1555 C1551 1.393 . S
C1555 C1554 1.391 . S
H1556 C1564 0.950 . S
H1557 C1569 0.950 . S
H1558 C1566 0.950 . S
H1559 C1568 0.950 . S
H1560 C1570 0.950 . S
H1561 C1572 0.950 . S
H1562 C1574 0.950 . S
H1563 C1575 0.950 . S
C1564 H1556 0.950 . S
C1564 C1565 1.386 . S
C1564 C1566 1.391 . S
C1565 C1564 1.386 . S
C1565 C1569 1.393 . S
C1566 H1558 0.950 . S
C1566 C1564 1.391 . S
C1566 C1567 1.400 . S
C1567 C1566 1.400 . S
C1567 C1568 1.398 . S
C1567 C1573 1.491 . S
C1568 H1559 0.950 . S
C1568 C1567 1.398 . S
C1568 C1569 1.391 . S
C1569 H1557 0.950 . S
C1569 C1565 1.393 . S
C1569 C1568 1.391 . S
C1570 H1560 0.950 . S
C1570 C1571 1.386 . S
C1570 C1572 1.391 . S
C1571 C1570 1.386 . S
C1571 C1575 1.393 . S
C1572 H1561 0.950 . S
C1572 C1570 1.391 . S
C1572 C1573 1.400 . S
C1573 C1567 1.491 . S
C1573 C1572 1.400 . S
C1573 C1574 1.398 . S
C1574 H1562 0.950 . S
C1574 C1573 1.398 . S
C1574 C1575 1.391 . S
C1575 H1563 0.950 . S
C1575 C1571 1.393 . S
C1575 C1574 1.391 . S
H1576 C1584 0.950 . S
H1577 C1589 0.950 . S
H1578 C1586 0.950 . S
H1579 C1588 0.950 . S
H1580 C1590 0.950 . S
H1581 C1592 0.950 . S
H1582 C1594 0.950 . S
H1583 C1595 0.950 . S
C1584 H1576 0.950 . S
C1584 C1585 1.386 . S
C1584 C1586 1.391 . S
C1585 C1584 1.386 . S
C1585 C1589 1.393 . S
C1586 H1578 0.950 . S
C1586 C1584 1.391 . S
C1586 C1587 1.400 . S
C1587 C1586 1.400 . S
C1587 C1588 1.398 . S
C1587 C1593 1.491 . S
C1588 H1579 0.950 . S
C1588 C1587 1.398 . S
C1588 C1589 1.391 . S
C1589 H1577 0.950 . S
C1589 C1585 1.393 . S
C1589 C1588 1.391 . S
C1590 H1580 0.950 . S
C1590 C1591 1.389 1_556 S
C1590 C1592 1.391 . S
C1591 C1590 1.389 1_554 S
C1591 C1595 1.392 . S
C1592 H1581 0.950 . S
C1592 C1590 1.391 . S
C1592 C1593 1.400 . S
C1593 C1587 1.491 . S
C1593 C1592 1.400 . S
C1593 C1594 1.398 . S
C1594 H1582 0.950 . S
C1594 C1593 1.398 . S
C1594 C1595 1.391 1_556 S
C1595 H1583 0.950 . S
C1595 C1591 1.392 . S
C1595 C1594 1.391 1_554 S
H1596 C1604 0.950 . S
H1597 C1609 0.950 . S
H1598 C1606 0.950 . S
H1599 C1608 0.950 . S
H1600 C1610 0.950 . S
H1601 C1612 0.950 . S
H1602 C1614 0.950 . S
H1603 C1615 0.950 . S
C1604 H1596 0.950 . S
C1604 C1605 1.386 . S
C1604 C1606 1.391 . S
C1605 C1604 1.386 . S
C1605 C1609 1.393 . S
C1606 H1598 0.950 . S
C1606 C1604 1.391 . S
C1606 C1607 1.400 . S
C1607 C1606 1.400 . S
C1607 C1608 1.398 . S
C1607 C1613 1.491 . S
C1608 H1599 0.950 . S
C1608 C1607 1.398 . S
C1608 C1609 1.391 . S
C1609 H1597 0.950 . S
C1609 C1605 1.393 . S
C1609 C1608 1.391 . S
C1610 H1600 0.950 . S
C1610 C1611 1.386 . S
C1610 C1612 1.391 . S
C1611 C1610 1.386 . S
C1611 C1615 1.393 . S
C1612 H1601 0.950 . S
C1612 C1610 1.391 . S
C1612 C1613 1.400 . S
C1613 C1607 1.491 . S
C1613 C1612 1.400 . S
C1613 C1614 1.398 . S
C1614 H1602 0.950 . S
C1614 C1613 1.398 . S
C1614 C1615 1.391 . S
C1615 H1603 0.950 . S
C1615 C1611 1.393 . S
C1615 C1614 1.391 . S
H1616 C1624 0.950 . S
H1617 C1629 0.950 . S
H1618 C1626 0.950 . S
H1619 C1628 0.950 . S
H1620 C1630 0.950 1_554 S
H1621 C1632 0.950 . S
H1622 C1634 0.950 . S
H1623 C1635 0.950 . S
C1624 H1616 0.950 . S
C1624 C1625 1.386 . S
C1624 C1626 1.391 . S
C1625 C1624 1.386 . S
C1625 C1629 1.393 . S
C1626 H1618 0.950 . S
C1626 C1624 1.391 . S
C1626 C1627 1.400 . S
C1627 C1626 1.400 . S
C1627 C1628 1.398 . S
C1627 C1633 1.491 . S
C1628 H1619 0.950 . S
C1628 C1627 1.398 . S
C1628 C1629 1.391 . S
C1629 H1617 0.950 . S
C1629 C1625 1.393 . S
C1629 C1628 1.391 . S
C1630 H1620 0.950 1_556 S
C1630 C1631 1.386 . S
C1630 C1632 1.391 . S
C1631 C1630 1.386 . S
C1631 C1635 1.393 . S
C1632 H1621 0.950 . S
C1632 C1630 1.391 . S
C1632 C1633 1.400 . S
C1633 C1627 1.491 . S
C1633 C1632 1.400 . S
C1633 C1634 1.398 . S
C1634 H1622 0.950 . S
C1634 C1633 1.398 . S
C1634 C1635 1.391 . S
C1635 H1623 0.950 . S
C1635 C1631 1.393 . S
C1635 C1634 1.391 . S
H1636 C1644 0.950 . S
H1637 C1649 0.950 . S
H1638 C1646 0.950 . S
H1639 C1648 0.950 . S
H1640 C1650 0.950 . S
H1641 C1652 0.950 . S
H1642 C1654 0.950 . S
H1643 C1655 0.950 . S
C1644 H1636 0.950 . S
C1644 C1645 1.386 . S
C1644 C1646 1.391 . S
C1645 C1644 1.386 . S
C1645 C1649 1.393 . S
C1646 H1638 0.950 . S
C1646 C1644 1.391 . S
C1646 C1647 1.400 . S
C1647 C1646 1.400 . S
C1647 C1648 1.398 . S
C1647 C1653 1.491 . S
C1648 H1639 0.950 . S
C1648 C1647 1.398 . S
C1648 C1649 1.391 . S
C1649 H1637 0.950 . S
C1649 C1645 1.393 . S
C1649 C1648 1.391 . S
C1650 H1640 0.950 . S
C1650 C1651 1.386 . S
C1650 C1652 1.391 . S
C1651 C1650 1.386 . S
C1651 C1655 1.393 . S
C1652 H1641 0.950 . S
C1652 C1650 1.391 . S
C1652 C1653 1.400 . S
C1653 C1647 1.491 . S
C1653 C1652 1.400 . S
C1653 C1654 1.398 . S
C1654 H1642 0.950 . S
C1654 C1653 1.398 . S
C1654 C1655 1.391 . S
C1655 H1643 0.950 . S
C1655 C1651 1.393 . S
C1655 C1654 1.391 . S
H1656 C1664 0.950 . S
H1657 C1669 0.950 . S
H1658 C1666 0.950 . S
H1659 C1668 0.950 . S
H1660 C1670 0.950 . S
H1661 C1672 0.950 . S
H1662 C1674 0.950 . S
H1663 C1675 0.950 . S
C1664 H1656 0.950 . S
C1664 C1665 1.386 . S
C1664 C1666 1.391 . S
C1665 C1664 1.386 . S
C1665 C1669 1.393 . S
C1666 H1658 0.950 . S
C1666 C1664 1.391 . S
C1666 C1667 1.400 . S
C1667 C1666 1.400 . S
C1667 C1668 1.398 . S
C1667 C1673 1.491 . S
C1668 H1659 0.950 . S
C1668 C1667 1.398 . S
C1668 C1669 1.391 . S
C1669 H1657 0.950 . S
C1669 C1665 1.393 . S
C1669 C1668 1.391 . S
C1670 H1660 0.950 . S
C1670 C1671 1.386 . S
C1670 C1672 1.391 . S
C1671 C1670 1.386 . S
C1671 C1675 1.393 . S
C1672 H1661 0.950 . S
C1672 C1670 1.391 . S
C1672 C1673 1.400 . S
C1673 C1667 1.491 . S
C1673 C1672 1.400 . S
C1673 C1674 1.398 . S
C1674 H1662 0.950 . S
C1674 C1673 1.398 . S
C1674 C1675 1.391 . S
C1675 H1663 0.950 . S
C1675 C1671 1.393 . S
C1675 C1674 1.391 . S
H1676 C1684 0.950 . S
H1677 C1689 0.950 . S
H1678 C1686 0.950 . S
H1679 C1688 0.950 . S
H1680 C1690 0.950 . S
H1681 C1692 0.950 . S
H1682 C1694 0.950 . S
H1683 C1695 0.950 . S
C1684 H1676 0.950 . S
C1684 C1685 1.386 . S
C1684 C1686 1.391 . S
C1685 C1684 1.386 . S
C1685 C1689 1.393 . S
C1686 H1678 0.950 . S
C1686 C1684 1.391 . S
C1686 C1687 1.400 . S
C1687 C1686 1.400 . S
C1687 C1688 1.398 . S
C1687 C1693 1.491 . S
C1688 H1679 0.950 . S
C1688 C1687 1.398 . S
C1688 C1689 1.391 . S
C1689 H1677 0.950 . S
C1689 C1685 1.393 . S
C1689 C1688 1.391 . S
C1690 H1680 0.950 . S
C1690 C1691 1.386 . S
C1690 C1692 1.391 . S
C1691 C1690 1.386 . S
C1691 C1695 1.393 . S
C1692 H1681 0.950 . S
C1692 C1690 1.391 . S
C1692 C1693 1.400 . S
C1693 C1687 1.491 . S
C1693 C1692 1.400 . S
C1693 C1694 1.398 . S
C1694 H1682 0.950 . S
C1694 C1693 1.398 . S
C1694 C1695 1.391 . S
C1695 H1683 0.950 . S
C1695 C1691 1.393 . S
C1695 C1694 1.391 . S
H1696 C1704 0.950 . S
H1697 C1709 0.950 . S
H1698 C1706 0.950 . S
H1699 C1708 0.950 . S
H1700 C1710 0.950 . S
H1701 C1712 0.950 . S
H1702 C1714 0.950 . S
H1703 C1715 0.950 . S
C1704 H1696 0.950 . S
C1704 C1705 1.386 . S
C1704 C1706 1.391 . S
C1705 C1704 1.386 . S
C1705 C1709 1.393 . S
C1706 H1698 0.950 . S
C1706 C1704 1.391 . S
C1706 C1707 1.400 . S
C1707 C1706 1.400 . S
C1707 C1708 1.398 . S
C1707 C1713 1.491 . S
C1708 H1699 0.950 . S
C1708 C1707 1.398 . S
C1708 C1709 1.391 . S
C1709 H1697 0.950 . S
C1709 C1705 1.393 . S
C1709 C1708 1.391 . S
C1710 H1700 0.950 . S
C1710 C1711 1.386 . S
C1710 C1712 1.391 . S
C1711 C1710 1.386 . S
C1711 C1715 1.393 . S
C1712 H1701 0.950 . S
C1712 C1710 1.391 . S
C1712 C1713 1.400 . S
C1713 C1707 1.491 . S
C1713 C1712 1.400 . S
C1713 C1714 1.398 . S
C1714 H1702 0.950 . S
C1714 C1713 1.398 . S
C1714 C1715 1.391 . S
C1715 H1703 0.950 . S
C1715 C1711 1.393 . S
C1715 C1714 1.391 . S
H1716 C1724 0.950 . S
H1717 C1729 0.950 . S
H1718 C1726 0.950 . S
H1719 C1728 0.950 . S
H1720 C1730 0.950 . S
H1721 C1732 0.950 . S
H1722 C1734 0.950 . S
H1723 C1735 0.950 . S
C1724 H1716 0.950 . S
C1724 C1725 1.386 . S
C1724 C1726 1.391 . S
C1725 C1724 1.386 . S
C1725 C1729 1.393 . S
C1726 H1718 0.950 . S
C1726 C1724 1.391 . S
C1726 C1727 1.400 . S
C1727 C1726 1.400 . S
C1727 C1728 1.398 . S
C1727 C1733 1.491 . S
C1728 H1719 0.950 . S
C1728 C1727 1.398 . S
C1728 C1729 1.391 . S
C1729 H1717 0.950 . S
C1729 C1725 1.393 . S
C1729 C1728 1.391 . S
C1730 H1720 0.950 . S
C1730 C1731 1.386 . S
C1730 C1732 1.391 . S
C1731 C1730 1.386 . S
C1731 C1735 1.393 . S
C1732 H1721 0.950 . S
C1732 C1730 1.391 . S
C1732 C1733 1.400 . S
C1733 C1727 1.491 . S
C1733 C1732 1.400 . S
C1733 C1734 1.398 . S
C1734 H1722 0.950 . S
C1734 C1733 1.398 . S
C1734 C1735 1.391 . S
C1735 H1723 0.950 . S
C1735 C1731 1.393 . S
C1735 C1734 1.391 . S
H1736 C1744 0.950 . S
H1737 C1749 0.950 . S
H1738 C1746 0.950 . S
H1739 C1748 0.950 . S
H1740 C1750 0.950 . S
H1741 C1752 0.950 . S
H1742 C1754 0.950 . S
H1743 C1755 0.950 . S
C1744 H1736 0.950 . S
C1744 C1745 1.386 . S
C1744 C1746 1.391 . S
C1745 C1744 1.386 . S
C1745 C1749 1.393 . S
C1746 H1738 0.950 . S
C1746 C1744 1.391 . S
C1746 C1747 1.400 . S
C1747 C1746 1.400 . S
C1747 C1748 1.398 . S
C1747 C1753 1.491 . S
C1748 H1739 0.950 . S
C1748 C1747 1.398 . S
C1748 C1749 1.391 . S
C1749 H1737 0.950 . S
C1749 C1745 1.393 . S
C1749 C1748 1.391 . S
C1750 H1740 0.950 . S
C1750 C1751 1.386 . S
C1750 C1752 1.391 . S
C1751 C1750 1.386 . S
C1751 C1755 1.393 . S
C1752 H1741 0.950 . S
C1752 C1750 1.391 . S
C1752 C1753 1.400 . S
C1753 C1747 1.491 . S
C1753 C1752 1.400 . S
C1753 C1754 1.398 . S
C1754 H1742 0.950 . S
C1754 C1753 1.398 . S
C1754 C1755 1.391 . S
C1755 H1743 0.950 . S
C1755 C1751 1.393 . S
C1755 C1754 1.391 . S
H1756 C1764 0.950 . S
H1757 C1769 0.950 . S
H1758 C1766 0.950 . S
H1759 C1768 0.950 . S
H1760 C1770 0.950 . S
H1761 C1772 0.950 . S
H1762 C1774 0.950 . S
H1763 C1775 0.950 . S
C1764 H1756 0.950 . S
C1764 C1765 1.386 . S
C1764 C1766 1.391 . S
C1765 C1764 1.386 . S
C1765 C1769 1.393 . S
C1766 H1758 0.950 . S
C1766 C1764 1.391 . S
C1766 C1767 1.400 . S
C1767 C1766 1.400 . S
C1767 C1768 1.398 . S
C1767 C1773 1.491 . S
C1768 H1759 0.950 . S
C1768 C1767 1.398 . S
C1768 C1769 1.391 . S
C1769 H1757 0.950 . S
C1769 C1765 1.393 . S
C1769 C1768 1.391 . S
C1770 H1760 0.950 . S
C1770 C1771 1.386 . S
C1770 C1772 1.391 . S
C1771 C1770 1.386 . S
C1771 C1775 1.393 . S
C1772 H1761 0.950 . S
C1772 C1770 1.391 . S
C1772 C1773 1.400 . S
C1773 C1767 1.491 . S
C1773 C1772 1.400 . S
C1773 C1774 1.398 . S
C1774 H1762 0.950 . S
C1774 C1773 1.398 . S
C1774 C1775 1.391 . S
C1775 H1763 0.950 . S
C1775 C1771 1.393 . S
C1775 C1774 1.391 . S
H1776 C1784 0.950 . S
H1777 C1789 0.950 . S
H1778 C1786 0.950 . S
H1779 C1788 0.950 . S
H1780 C1790 0.950 1_556 S
H1781 C1792 0.950 . S
H1782 C1794 0.950 . S
H1783 C1795 0.950 . S
C1784 H1776 0.950 . S
C1784 C1785 1.386 . S
C1784 C1786 1.391 . S
C1785 C1784 1.386 . S
C1785 C1789 1.393 . S
C1786 H1778 0.950 . S
C1786 C1784 1.391 . S
C1786 C1787 1.400 . S
C1787 C1786 1.400 . S
C1787 C1788 1.398 . S
C1787 C1793 1.491 . S
C1788 H1779 0.950 . S
C1788 C1787 1.398 . S
C1788 C1789 1.391 . S
C1789 H1777 0.950 . S
C1789 C1785 1.393 . S
C1789 C1788 1.391 . S
C1790 H1780 0.950 1_554 S
C1790 C1791 1.386 . S
C1790 C1792 1.391 . S
C1791 C1790 1.386 . S
C1791 C1795 1.393 . S
C1792 H1781 0.950 . S
C1792 C1790 1.391 . S
C1792 C1793 1.400 . S
C1793 C1787 1.491 . S
C1793 C1792 1.400 . S
C1793 C1794 1.398 . S
C1794 H1782 0.950 . S
C1794 C1793 1.398 . S
C1794 C1795 1.391 . S
C1795 H1783 0.950 . S
C1795 C1791 1.393 . S
C1795 C1794 1.391 . S
H1796 C1804 0.950 . S
H1797 C1809 0.950 . S
H1798 C1806 0.950 . S
H1799 C1808 0.950 . S
H1800 C1810 0.950 . S
H1801 C1812 0.950 . S
H1802 C1814 0.950 . S
H1803 C1815 0.950 . S
C1804 H1796 0.950 . S
C1804 C1805 1.386 . S
C1804 C1806 1.391 . S
C1805 C1804 1.386 . S
C1805 C1809 1.393 . S
C1806 H1798 0.950 . S
C1806 C1804 1.391 . S
C1806 C1807 1.400 . S
C1807 C1806 1.400 . S
C1807 C1808 1.398 . S
C1807 C1813 1.491 . S
C1808 H1799 0.950 . S
C1808 C1807 1.398 . S
C1808 C1809 1.391 . S
C1809 H1797 0.950 . S
C1809 C1805 1.393 . S
C1809 C1808 1.391 . S
C1810 H1800 0.950 . S
C1810 C1811 1.386 . S
C1810 C1812 1.391 . S
C1811 C1810 1.386 . S
C1811 C1815 1.393 . S
C1812 H1801 0.950 . S
C1812 C1810 1.391 . S
C1812 C1813 1.400 . S
C1813 C1807 1.491 . S
C1813 C1812 1.400 . S
C1813 C1814 1.398 . S
C1814 H1802 0.950 . S
C1814 C1813 1.398 . S
C1814 C1815 1.391 . S
C1815 H1803 0.950 . S
C1815 C1811 1.393 . S
C1815 C1814 1.391 . S
H1816 C1824 0.950 . S
H1817 C1829 0.950 . S
H1818 C1826 0.950 . S
H1819 C1828 0.950 . S
H1820 C1830 0.950 . S
H1821 C1832 0.950 . S
H1822 C1834 0.950 . S
H1823 C1835 0.950 . S
C1824 H1816 0.950 . S
C1824 C1825 1.386 . S
C1824 C1826 1.391 . S
C1825 C1824 1.386 . S
C1825 C1829 1.393 . S
C1826 H1818 0.950 . S
C1826 C1824 1.391 . S
C1826 C1827 1.400 . S
C1827 C1826 1.400 . S
C1827 C1828 1.398 . S
C1827 C1833 1.491 . S
C1828 H1819 0.950 . S
C1828 C1827 1.398 . S
C1828 C1829 1.391 . S
C1829 H1817 0.950 . S
C1829 C1825 1.393 . S
C1829 C1828 1.391 . S
C1830 H1820 0.950 . S
C1830 C1831 1.386 . S
C1830 C1832 1.391 . S
C1831 C1830 1.386 . S
C1831 C1835 1.393 . S
C1832 H1821 0.950 . S
C1832 C1830 1.391 . S
C1832 C1833 1.400 . S
C1833 C1827 1.491 . S
C1833 C1832 1.400 . S
C1833 C1834 1.398 . S
C1834 H1822 0.950 . S
C1834 C1833 1.398 . S
C1834 C1835 1.391 . S
C1835 H1823 0.950 . S
C1835 C1831 1.393 . S
C1835 C1834 1.391 . S
H1836 C1844 0.950 . S
H1837 C1849 0.950 . S
H1838 C1846 0.950 . S
H1839 C1848 0.950 . S
H1840 C1850 0.950 . S
H1841 C1852 0.950 . S
H1842 C1854 0.950 . S
H1843 C1855 0.950 . S
C1844 H1836 0.950 . S
C1844 C1845 1.386 . S
C1844 C1846 1.391 . S
C1845 C1844 1.386 . S
C1845 C1849 1.393 . S
C1846 H1838 0.950 . S
C1846 C1844 1.391 . S
C1846 C1847 1.400 . S
C1847 C1846 1.400 . S
C1847 C1848 1.398 . S
C1847 C1853 1.491 . S
C1848 H1839 0.950 . S
C1848 C1847 1.398 . S
C1848 C1849 1.391 . S
C1849 H1837 0.950 . S
C1849 C1845 1.393 . S
C1849 C1848 1.391 . S
C1850 H1840 0.950 . S
C1850 C1851 1.386 . S
C1850 C1852 1.391 . S
C1851 C1850 1.386 . S
C1851 C1855 1.393 . S
C1852 H1841 0.950 . S
C1852 C1850 1.391 . S
C1852 C1853 1.400 . S
C1853 C1847 1.491 . S
C1853 C1852 1.400 . S
C1853 C1854 1.398 . S
C1854 H1842 0.950 . S
C1854 C1853 1.398 . S
C1854 C1855 1.391 . S
C1855 H1843 0.950 . S
C1855 C1851 1.393 . S
C1855 C1854 1.391 . S
H1856 C1864 0.950 . S
H1857 C1869 0.950 . S
H1858 C1866 0.950 . S
H1859 C1868 0.950 . S
H1860 C1870 0.950 . S
H1861 C1872 0.950 . S
H1862 C1874 0.950 . S
H1863 C1875 0.950 . S
C1864 H1856 0.950 . S
C1864 C1865 1.386 . S
C1864 C1866 1.391 . S
C1865 C1864 1.386 . S
C1865 C1869 1.393 . S
C1866 H1858 0.950 . S
C1866 C1864 1.391 . S
C1866 C1867 1.400 . S
C1867 C1866 1.400 . S
C1867 C1868 1.398 . S
C1867 C1873 1.491 . S
C1868 H1859 0.950 . S
C1868 C1867 1.398 . S
C1868 C1869 1.391 . S
C1869 H1857 0.950 . S
C1869 C1865 1.393 . S
C1869 C1868 1.391 . S
C1870 H1860 0.950 . S
C1870 C1871 1.386 . S
C1870 C1872 1.391 . S
C1871 C1870 1.386 . S
C1871 C1875 1.393 . S
C1872 H1861 0.950 . S
C1872 C1870 1.391 . S
C1872 C1873 1.400 . S
C1873 C1867 1.491 . S
C1873 C1872 1.400 . S
C1873 C1874 1.398 . S
C1874 H1862 0.950 . S
C1874 C1873 1.398 . S
C1874 C1875 1.391 . S
C1875 H1863 0.950 . S
C1875 C1871 1.393 . S
C1875 C1874 1.391 . S
H1876 C1884 0.950 . S
H1877 C1889 0.950 . S
H1878 C1886 0.950 . S
H1879 C1888 0.950 . S
H1880 C1890 0.950 . S
H1881 C1892 0.950 . S
H1882 C1894 0.950 . S
H1883 C1895 0.950 . S
C1884 H1876 0.950 . S
C1884 C1885 1.386 . S
C1884 C1886 1.391 . S
C1885 C1884 1.386 . S
C1885 C1889 1.393 . S
C1886 H1878 0.950 . S
C1886 C1884 1.391 . S
C1886 C1887 1.400 . S
C1887 C1886 1.400 . S
C1887 C1888 1.398 . S
C1887 C1893 1.491 . S
C1888 H1879 0.950 . S
C1888 C1887 1.398 . S
C1888 C1889 1.391 . S
C1889 H1877 0.950 . S
C1889 C1885 1.393 . S
C1889 C1888 1.391 . S
C1890 H1880 0.950 . S
C1890 C1891 1.386 . S
C1890 C1892 1.391 . S
C1891 C1890 1.386 . S
C1891 C1895 1.393 . S
C1892 H1881 0.950 . S
C1892 C1890 1.391 . S
C1892 C1893 1.400 . S
C1893 C1887 1.491 . S
C1893 C1892 1.400 . S
C1893 C1894 1.398 . S
C1894 H1882 0.950 . S
C1894 C1893 1.398 . S
C1894 C1895 1.391 . S
C1895 H1883 0.950 . S
C1895 C1891 1.393 . S
C1895 C1894 1.391 . S
H1896 C1904 0.950 . S
H1897 C1909 0.950 . S
H1898 C1906 0.950 . S
H1899 C1908 0.950 . S
H1900 C1910 0.950 . S
H1901 C1912 0.950 . S
H1902 C1914 0.950 . S
H1903 C1915 0.950 . S
C1904 H1896 0.950 . S
C1904 C1905 1.386 . S
C1904 C1906 1.391 . S
C1905 C1904 1.386 . S
C1905 C1909 1.393 . S
C1906 H1898 0.950 . S
C1906 C1904 1.391 . S
C1906 C1907 1.400 . S
C1907 C1906 1.400 . S
C1907 C1908 1.398 . S
C1907 C1913 1.491 . S
C1908 H1899 0.950 . S
C1908 C1907 1.398 . S
C1908 C1909 1.391 . S
C1909 H1897 0.950 . S
C1909 C1905 1.393 . S
C1909 C1908 1.391 . S
C1910 H1900 0.950 . S
C1910 C1911 1.386 . S
C1910 C1912 1.391 . S
C1911 C1910 1.386 . S
C1911 C1915 1.393 . S
C1912 H1901 0.950 . S
C1912 C1910 1.391 . S
C1912 C1913 1.400 . S
C1913 C1907 1.491 . S
C1913 C1912 1.400 . S
C1913 C1914 1.398 . S
C1914 H1902 0.950 . S
C1914 C1913 1.398 . S
C1914 C1915 1.391 . S
C1915 H1903 0.950 . S
C1915 C1911 1.393 . S
C1915 C1914 1.391 . S
H1916 C1924 0.950 . S
H1917 C1929 0.950 . S
H1918 C1926 0.950 . S
H1919 C1928 0.950 . S
H1920 C1930 0.950 . S
H1921 C1932 0.950 . S
H1922 C1934 0.950 . S
H1923 C1935 0.950 . S
C1924 H1916 0.950 . S
C1924 C1925 1.386 . S
C1924 C1926 1.391 . S
C1925 C1924 1.386 . S
C1925 C1929 1.393 . S
C1926 H1918 0.950 . S
C1926 C1924 1.391 . S
C1926 C1927 1.400 . S
C1927 C1926 1.400 . S
C1927 C1928 1.398 . S
C1927 C1933 1.491 . S
C1928 H1919 0.950 . S
C1928 C1927 1.398 . S
C1928 C1929 1.391 . S
C1929 H1917 0.950 . S
C1929 C1925 1.393 . S
C1929 C1928 1.391 . S
C1930 H1920 0.950 . S
C1930 C1931 1.386 . S
C1930 C1932 1.391 . S
C1931 C1930 1.386 . S
C1931 C1935 1.393 . S
C1932 H1921 0.950 . S
C1932 C1930 1.391 . S
C1932 C1933 1.400 . S
C1933 C1927 1.491 . S
C1933 C1932 1.400 . S
C1933 C1934 1.398 . S
C1934 H1922 0.950 . S
C1934 C1933 1.398 . S
C1934 C1935 1.391 . S
C1935 H1923 0.950 . S
C1935 C1931 1.393 . S
C1935 C1934 1.391 . S
H1936 C1944 0.950 . S
H1937 C1949 0.950 . S
H1938 C1946 0.950 . S
H1939 C1948 0.950 . S
H1940 C1950 0.950 . S
H1941 C1952 0.950 . S
H1942 C1954 0.950 . S
H1943 C1955 0.950 . S
C1944 H1936 0.950 . S
C1944 C1945 1.386 . S
C1944 C1946 1.391 . S
C1945 C1944 1.386 . S
C1945 C1949 1.393 . S
C1946 H1938 0.950 . S
C1946 C1944 1.391 . S
C1946 C1947 1.400 . S
C1947 C1946 1.400 . S
C1947 C1948 1.398 . S
C1947 C1953 1.491 . S
C1948 H1939 0.950 . S
C1948 C1947 1.398 . S
C1948 C1949 1.391 . S
C1949 H1937 0.950 . S
C1949 C1945 1.393 . S
C1949 C1948 1.391 . S
C1950 H1940 0.950 . S
C1950 C1951 1.386 . S
C1950 C1952 1.391 . S
C1951 C1950 1.386 . S
C1951 C1955 1.393 . S
C1952 H1941 0.950 . S
C1952 C1950 1.391 . S
C1952 C1953 1.400 . S
C1953 C1947 1.491 . S
C1953 C1952 1.400 . S
C1953 C1954 1.398 . S
C1954 H1942 0.950 . S
C1954 C1953 1.398 . S
C1954 C1955 1.391 . S
C1955 H1943 0.950 . S
C1955 C1951 1.393 . S
C1955 C1954 1.391 . S
H1956 C1964 0.950 . S
H1957 C1969 0.950 . S
H1958 C1966 0.950 . S
H1959 C1968 0.950 . S
H1960 C1970 0.950 . S
H1961 C1972 0.950 . S
H1962 C1974 0.950 . S
H1963 C1975 0.950 . S
C1964 H1956 0.950 . S
C1964 C1965 1.386 . S
C1964 C1966 1.391 . S
C1965 C1964 1.386 . S
C1965 C1969 1.393 . S
C1966 H1958 0.950 . S
C1966 C1964 1.391 . S
C1966 C1967 1.400 . S
C1967 C1966 1.400 . S
C1967 C1968 1.398 . S
C1967 C1973 1.491 . S
C1968 H1959 0.950 . S
C1968 C1967 1.398 . S
C1968 C1969 1.391 . S
C1969 H1957 0.950 . S
C1969 C1965 1.393 . S
C1969 C1968 1.391 . S
C1970 H1960 0.950 . S
C1970 C1971 1.386 . S
C1970 C1972 1.391 . S
C1971 C1970 1.386 . S
C1971 C1975 1.393 . S
C1972 H1961 0.950 . S
C1972 C1970 1.391 . S
C1972 C1973 1.400 . S
C1973 C1967 1.491 . S
C1973 C1972 1.400 . S
C1973 C1974 1.398 . S
C1974 H1962 0.950 . S
C1974 C1973 1.398 . S
C1974 C1975 1.391 . S
C1975 H1963 0.950 . S
C1975 C1971 1.393 . S
C1975 C1974 1.391 . S
H1976 C1984 0.950 . S
H1977 C1989 0.950 . S
H1978 C1986 0.950 . S
H1979 C1988 0.950 1_655 S
H1980 C1990 0.950 . S
H1981 C1992 0.950 1_656 S
H1982 C1994 0.950 . S
H1983 C1995 0.950 . S
C1984 H1976 0.950 . S
C1984 C1985 1.386 . S
C1984 C1986 1.391 1_556 S
C1985 C1984 1.386 . S
C1985 C1989 1.393 1_455 S
C1986 H1978 0.950 . S
C1986 C1984 1.391 1_554 S
C1986 C1987 1.400 1_554 S
C1987 C1986 1.400 1_556 S
C1987 C1988 1.398 . S
C1987 C1993 1.491 1_556 S
C1988 H1979 0.950 1_455 S
C1988 C1987 1.398 . S
C1988 C1989 1.391 1_455 S
C1989 H1977 0.950 . S
C1989 C1985 1.393 1_655 S
C1989 C1988 1.391 1_655 S
C1990 H1980 0.950 . S
C1990 C1991 1.386 . S
C1990 C1992 1.391 . S
C1991 C1990 1.386 . S
C1991 C1995 1.393 . S
C1992 H1981 0.950 1_454 S
C1992 C1990 1.391 . S
C1992 C1993 1.400 . S
C1993 C1987 1.491 1_554 S
C1993 C1992 1.400 . S
C1993 C1994 1.398 . S
C1994 H1982 0.950 . S
C1994 C1993 1.398 . S
C1994 C1995 1.391 . S
C1995 H1983 0.950 . S
C1995 C1991 1.393 . S
C1995 C1994 1.391 . S
H1996 C2004 0.950 . S
H1997 C2009 0.950 . S
H1998 C2006 0.950 . S
H1999 C2008 0.950 . S
H2000 C2010 0.950 . S
H2001 C2012 0.950 . S
H2002 C2014 0.950 . S
H2003 C2015 0.950 . S
C2004 H1996 0.950 . S
C2004 C2005 1.386 . S
C2004 C2006 1.391 1_455 S
C2005 C2004 1.386 . S
C2005 C2009 1.393 1_455 S
C2006 H1998 0.950 . S
C2006 C2004 1.391 1_655 S
C2006 C2007 1.400 . S
C2007 C2006 1.400 . S
C2007 C2008 1.398 . S
C2007 C2013 1.491 . S
C2008 H1999 0.950 . S
C2008 C2007 1.398 . S
C2008 C2009 1.391 . S
C2009 H1997 0.950 . S
C2009 C2005 1.393 1_655 S
C2009 C2008 1.391 . S
C2010 H2000 0.950 . S
C2010 C2011 1.386 . S
C2010 C2012 1.391 . S
C2011 C2010 1.386 . S
C2011 C2015 1.393 . S
C2012 H2001 0.950 . S
C2012 C2010 1.391 . S
C2012 C2013 1.400 . S
C2013 C2007 1.491 . S
C2013 C2012 1.400 . S
C2013 C2014 1.398 . S
C2014 H2002 0.950 . S
C2014 C2013 1.398 . S
C2014 C2015 1.391 . S
C2015 H2003 0.950 . S
C2015 C2011 1.393 . S
C2015 C2014 1.391 . S
H2016 C2024 0.950 . S
H2017 C2029 0.950 . S
H2018 C2026 0.950 . S
H2019 C2028 0.950 . S
H2020 C2030 0.950 . S
H2021 C2032 0.950 . S
H2022 C2034 0.950 . S
H2023 C2035 0.950 . S
C2024 H2016 0.950 . S
C2024 C2025 1.386 . S
C2024 C2026 1.391 . S
C2025 C2024 1.386 . S
C2025 C2029 1.393 . S
C2026 H2018 0.950 . S
C2026 C2024 1.391 . S
C2026 C2027 1.400 . S
C2027 C2026 1.400 . S
C2027 C2028 1.398 . S
C2027 C2033 1.491 . S
C2028 H2019 0.950 . S
C2028 C2027 1.398 . S
C2028 C2029 1.391 . S
C2029 H2017 0.950 . S
C2029 C2025 1.393 . S
C2029 C2028 1.391 . S
C2030 H2020 0.950 . S
C2030 C2031 1.386 . S
C2030 C2032 1.391 . S
C2031 C2030 1.386 . S
C2031 C2035 1.393 . S
C2032 H2021 0.950 . S
C2032 C2030 1.391 . S
C2032 C2033 1.400 . S
C2033 C2027 1.491 . S
C2033 C2032 1.400 . S
C2033 C2034 1.398 . S
C2034 H2022 0.950 . S
C2034 C2033 1.398 . S
C2034 C2035 1.391 . S
C2035 H2023 0.950 . S
C2035 C2031 1.393 . S
C2035 C2034 1.391 . S
H2036 C2044 0.950 . S
H2037 C2049 0.950 . S
H2038 C2046 0.950 . S
H2039 C2048 0.950 . S
H2040 C2050 0.950 . S
H2041 C2052 0.950 . S
H2042 C2054 0.950 . S
H2043 C2055 0.950 . S
C2044 H2036 0.950 . S
C2044 C2045 1.386 . S
C2044 C2046 1.391 . S
C2045 C2044 1.386 . S
C2045 C2049 1.393 . S
C2046 H2038 0.950 . S
C2046 C2044 1.391 . S
C2046 C2047 1.400 . S
C2047 C2046 1.400 . S
C2047 C2048 1.398 . S
C2047 C2053 1.491 . S
C2048 H2039 0.950 . S
C2048 C2047 1.398 . S
C2048 C2049 1.391 . S
C2049 H2037 0.950 . S
C2049 C2045 1.393 . S
C2049 C2048 1.391 . S
C2050 H2040 0.950 . S
C2050 C2051 1.386 . S
C2050 C2052 1.391 . S
C2051 C2050 1.386 . S
C2051 C2055 1.393 . S
C2052 H2041 0.950 . S
C2052 C2050 1.391 . S
C2052 C2053 1.400 . S
C2053 C2047 1.491 . S
C2053 C2052 1.400 . S
C2053 C2054 1.398 . S
C2054 H2042 0.950 . S
C2054 C2053 1.398 . S
C2054 C2055 1.391 . S
C2055 H2043 0.950 . S
C2055 C2051 1.393 . S
C2055 C2054 1.391 . S
H2056 C2064 0.950 . S
H2057 C2069 0.950 . S
H2058 C2066 0.950 . S
H2059 C2068 0.950 . S
H2060 C2070 0.950 . S
H2061 C2072 0.950 . S
H2062 C2074 0.950 . S
H2063 C2075 0.950 . S
C2064 H2056 0.950 . S
C2064 C2065 1.386 . S
C2064 C2066 1.391 . S
C2065 C2064 1.386 . S
C2065 C2069 1.393 . S
C2066 H2058 0.950 . S
C2066 C2064 1.391 . S
C2066 C2067 1.400 . S
C2067 C2066 1.400 . S
C2067 C2068 1.398 . S
C2067 C2073 1.491 . S
C2068 H2059 0.950 . S
C2068 C2067 1.398 . S
C2068 C2069 1.391 . S
C2069 H2057 0.950 . S
C2069 C2065 1.393 . S
C2069 C2068 1.391 . S
C2070 H2060 0.950 . S
C2070 C2071 1.386 . S
C2070 C2072 1.391 . S
C2071 C2070 1.386 . S
C2071 C2075 1.393 . S
C2072 H2061 0.950 . S
C2072 C2070 1.391 . S
C2072 C2073 1.400 . S
C2073 C2067 1.491 . S
C2073 C2072 1.400 . S
C2073 C2074 1.398 . S
C2074 H2062 0.950 . S
C2074 C2073 1.398 . S
C2074 C2075 1.391 . S
C2075 H2063 0.950 . S
C2075 C2071 1.393 . S
C2075 C2074 1.391 . S
H2076 C2084 0.950 . S
H2077 C2089 0.950 . S
H2078 C2086 0.950 . S
H2079 C2088 0.950 . S
H2080 C2090 0.950 . S
H2081 C2092 0.950 . S
H2082 C2094 0.950 . S
H2083 C2095 0.950 . S
C2084 H2076 0.950 . S
C2084 C2085 1.386 . S
C2084 C2086 1.391 . S
C2085 C2084 1.386 . S
C2085 C2089 1.393 . S
C2086 H2078 0.950 . S
C2086 C2084 1.391 . S
C2086 C2087 1.400 . S
C2087 C2086 1.400 . S
C2087 C2088 1.398 . S
C2087 C2093 1.491 . S
C2088 H2079 0.950 . S
C2088 C2087 1.398 . S
C2088 C2089 1.391 . S
C2089 H2077 0.950 . S
C2089 C2085 1.393 . S
C2089 C2088 1.391 . S
C2090 H2080 0.950 . S
C2090 C2091 1.386 . S
C2090 C2092 1.391 . S
C2091 C2090 1.386 . S
C2091 C2095 1.393 . S
C2092 H2081 0.950 . S
C2092 C2090 1.391 . S
C2092 C2093 1.400 . S
C2093 C2087 1.491 . S
C2093 C2092 1.400 . S
C2093 C2094 1.398 . S
C2094 H2082 0.950 . S
C2094 C2093 1.398 . S
C2094 C2095 1.391 . S
C2095 H2083 0.950 . S
C2095 C2091 1.393 . S
C2095 C2094 1.391 . S
H2096 C2104 0.950 . S
H2097 C2109 0.950 . S
H2098 C2106 0.950 . S
H2099 C2108 0.950 . S
H2100 C2110 0.950 . S
H2101 C2112 0.950 . S
H2102 C2114 0.950 . S
H2103 C2115 0.950 . S
C2104 H2096 0.950 . S
C2104 C2105 1.386 . S
C2104 C2106 1.391 . S
C2105 C2104 1.386 . S
C2105 C2109 1.393 . S
C2106 H2098 0.950 . S
C2106 C2104 1.391 . S
C2106 C2107 1.400 . S
C2107 C2106 1.400 . S
C2107 C2108 1.398 . S
C2107 C2113 1.491 . S
C2108 H2099 0.950 . S
C2108 C2107 1.398 . S
C2108 C2109 1.391 . S
C2109 H2097 0.950 . S
C2109 C2105 1.393 . S
C2109 C2108 1.391 . S
C2110 H2100 0.950 . S
C2110 C2111 1.386 . S
C2110 C2112 1.391 . S
C2111 C2110 1.386 . S
C2111 C2115 1.393 . S
C2112 H2101 0.950 . S
C2112 C2110 1.391 . S
C2112 C2113 1.400 . S
C2113 C2107 1.491 . S
C2113 C2112 1.400 . S
C2113 C2114 1.398 . S
C2114 H2102 0.950 . S
C2114 C2113 1.398 . S
C2114 C2115 1.391 . S
C2115 H2103 0.950 . S
C2115 C2111 1.393 . S
C2115 C2114 1.391 . S
H2116 C2124 0.950 . S
H2117 C2129 0.950 . S
H2118 C2126 0.950 . S
H2119 C2128 0.950 . S
H2120 C2130 0.950 . S
H2121 C2132 0.950 . S
H2122 C2134 0.950 . S
H2123 C2135 0.950 . S
C2124 H2116 0.950 . S
C2124 C2125 1.386 . S
C2124 C2126 1.391 1_554 S
C2125 C2124 1.386 . S
C2125 C2129 1.393 1_554 S
C2126 H2118 0.950 . S
C2126 C2124 1.391 1_556 S
C2126 C2127 1.400 . S
C2127 C2126 1.400 . S
C2127 C2128 1.398 . S
C2127 C2133 1.491 . S
C2128 H2119 0.950 . S
C2128 C2127 1.398 . S
C2128 C2129 1.391 . S
C2129 H2117 0.950 . S
C2129 C2125 1.393 1_556 S
C2129 C2128 1.391 . S
C2130 H2120 0.950 . S
C2130 C2131 1.386 . S
C2130 C2132 1.391 . S
C2131 C2130 1.386 . S
C2131 C2135 1.393 . S
C2132 H2121 0.950 . S
C2132 C2130 1.391 . S
C2132 C2133 1.400 . S
C2133 C2127 1.491 . S
C2133 C2132 1.400 . S
C2133 C2134 1.398 . S
C2134 H2122 0.950 . S
C2134 C2133 1.398 . S
C2134 C2135 1.391 . S
C2135 H2123 0.950 . S
C2135 C2131 1.393 . S
C2135 C2134 1.391 . S
H2136 C2144 0.950 . S
H2137 C2149 0.950 . S
H2138 C2146 0.950 . S
H2139 C2148 0.950 . S
H2140 C2150 0.950 . S
H2141 C2152 0.950 . S
H2142 C2154 0.950 . S
H2143 C2155 0.950 . S
C2144 H2136 0.950 . S
C2144 C2145 1.386 . S
C2144 C2146 1.391 . S
C2145 C2144 1.386 . S
C2145 C2149 1.393 . S
C2146 H2138 0.950 . S
C2146 C2144 1.391 . S
C2146 C2147 1.400 . S
C2147 C2146 1.400 . S
C2147 C2148 1.398 . S
C2147 C2153 1.491 . S
C2148 H2139 0.950 . S
C2148 C2147 1.398 . S
C2148 C2149 1.391 . S
C2149 H2137 0.950 . S
C2149 C2145 1.393 . S
C2149 C2148 1.391 . S
C2150 H2140 0.950 . S
C2150 C2151 1.386 . S
C2150 C2152 1.391 . S
C2151 C2150 1.386 . S
C2151 C2155 1.393 . S
C2152 H2141 0.950 . S
C2152 C2150 1.391 . S
C2152 C2153 1.400 . S
C2153 C2147 1.491 . S
C2153 C2152 1.400 . S
C2153 C2154 1.398 . S
C2154 H2142 0.950 . S
C2154 C2153 1.398 . S
C2154 C2155 1.391 . S
C2155 H2143 0.950 . S
C2155 C2151 1.393 . S
C2155 C2154 1.391 . S
H2156 C2164 0.950 . S
H2157 C2169 0.950 . S
H2158 C2166 0.950 . S
H2159 C2168 0.950 . S
H2160 C2170 0.950 . S
H2161 C2172 0.950 . S
H2162 C2174 0.950 . S
H2163 C2175 0.950 . S
C2164 H2156 0.950 . S
C2164 C2165 1.386 . S
C2164 C2166 1.391 . S
C2165 C2164 1.386 . S
C2165 C2169 1.393 . S
C2166 H2158 0.950 . S
C2166 C2164 1.391 . S
C2166 C2167 1.400 . S
C2167 C2166 1.400 . S
C2167 C2168 1.398 . S
C2167 C2173 1.491 . S
C2168 H2159 0.950 . S
C2168 C2167 1.398 . S
C2168 C2169 1.391 . S
C2169 H2157 0.950 . S
C2169 C2165 1.393 . S
C2169 C2168 1.391 . S
C2170 H2160 0.950 . S
C2170 C2171 1.386 . S
C2170 C2172 1.391 . S
C2171 C2170 1.386 . S
C2171 C2175 1.393 . S
C2172 H2161 0.950 . S
C2172 C2170 1.391 . S
C2172 C2173 1.400 . S
C2173 C2167 1.491 . S
C2173 C2172 1.400 . S
C2173 C2174 1.398 . S
C2174 H2162 0.950 . S
C2174 C2173 1.398 . S
C2174 C2175 1.391 . S
C2175 H2163 0.950 . S
C2175 C2171 1.393 . S
C2175 C2174 1.391 . S
H2176 C2184 0.950 . S
H2177 C2189 0.950 . S
H2178 C2186 0.950 . S
H2179 C2188 0.950 . S
H2180 C2190 0.950 . S
H2181 C2192 0.950 . S
H2182 C2194 0.950 . S
H2183 C2195 0.950 . S
C2184 H2176 0.950 . S
C2184 C2185 1.386 . S
C2184 C2186 1.391 . S
C2185 C2184 1.386 . S
C2185 C2189 1.393 . S
C2186 H2178 0.950 . S
C2186 C2184 1.391 . S
C2186 C2187 1.400 . S
C2187 C2186 1.400 . S
C2187 C2188 1.398 . S
C2187 C2193 1.491 . S
C2188 H2179 0.950 . S
C2188 C2187 1.398 . S
C2188 C2189 1.391 . S
C2189 H2177 0.950 . S
C2189 C2185 1.393 . S
C2189 C2188 1.391 . S
C2190 H2180 0.950 . S
C2190 C2191 1.386 . S
C2190 C2192 1.391 . S
C2191 C2190 1.386 . S
C2191 C2195 1.393 . S
C2192 H2181 0.950 . S
C2192 C2190 1.391 . S
C2192 C2193 1.400 . S
C2193 C2187 1.491 . S
C2193 C2192 1.400 . S
C2193 C2194 1.398 . S
C2194 H2182 0.950 . S
C2194 C2193 1.398 . S
C2194 C2195 1.391 . S
C2195 H2183 0.950 . S
C2195 C2191 1.393 . S
C2195 C2194 1.391 . S
H2196 C2204 0.950 . S
H2197 C2209 0.950 . S
H2198 C2206 0.950 . S
H2199 C2208 0.950 . S
H2200 C2210 0.950 . S
H2201 C2212 0.950 . S
H2202 C2214 0.950 . S
H2203 C2215 0.950 . S
C2204 H2196 0.950 . S
C2204 C2205 1.386 . S
C2204 C2206 1.391 . S
C2205 C2204 1.386 . S
C2205 C2209 1.393 . S
C2206 H2198 0.950 . S
C2206 C2204 1.391 . S
C2206 C2207 1.400 . S
C2207 C2206 1.400 . S
C2207 C2208 1.398 . S
C2207 C2213 1.491 . S
C2208 H2199 0.950 . S
C2208 C2207 1.398 . S
C2208 C2209 1.391 . S
C2209 H2197 0.950 . S
C2209 C2205 1.393 . S
C2209 C2208 1.391 . S
C2210 H2200 0.950 . S
C2210 C2211 1.386 . S
C2210 C2212 1.391 . S
C2211 C2210 1.386 . S
C2211 C2215 1.393 . S
C2212 H2201 0.950 . S
C2212 C2210 1.391 . S
C2212 C2213 1.400 . S
C2213 C2207 1.491 . S
C2213 C2212 1.400 . S
C2213 C2214 1.398 . S
C2214 H2202 0.950 . S
C2214 C2213 1.398 . S
C2214 C2215 1.391 . S
C2215 H2203 0.950 . S
C2215 C2211 1.393 . S
C2215 C2214 1.391 . S
H2216 C2224 0.950 . S
H2217 C2229 0.950 . S
H2218 C2226 0.950 . S
H2219 C2228 0.950 . S
H2220 C2230 0.950 . S
H2221 C2232 0.950 . S
H2222 C2234 0.950 . S
H2223 C2235 0.950 . S
C2224 H2216 0.950 . S
C2224 C2225 1.386 . S
C2224 C2226 1.391 . S
C2225 C2224 1.386 . S
C2225 C2229 1.393 . S
C2226 H2218 0.950 . S
C2226 C2224 1.391 . S
C2226 C2227 1.400 . S
C2227 C2226 1.400 . S
C2227 C2228 1.398 . S
C2227 C2233 1.491 . S
C2228 H2219 0.950 . S
C2228 C2227 1.398 . S
C2228 C2229 1.391 . S
C2229 H2217 0.950 . S
C2229 C2225 1.393 . S
C2229 C2228 1.391 . S
C2230 H2220 0.950 . S
C2230 C2231 1.386 . S
C2230 C2232 1.391 . S
C2231 C2230 1.386 . S
C2231 C2235 1.393 . S
C2232 H2221 0.950 . S
C2232 C2230 1.391 . S
C2232 C2233 1.400 . S
C2233 C2227 1.491 . S
C2233 C2232 1.400 . S
C2233 C2234 1.398 . S
C2234 H2222 0.950 . S
C2234 C2233 1.398 . S
C2234 C2235 1.391 . S
C2235 H2223 0.950 . S
C2235 C2231 1.393 . S
C2235 C2234 1.391 . S
H2236 C2244 0.950 . S
H2237 C2249 0.950 . S
H2238 C2246 0.950 . S
H2239 C2248 0.950 . S
H2240 C2250 0.950 . S
H2241 C2252 0.950 . S
H2242 C2254 0.950 . S
H2243 C2255 0.950 . S
C2244 H2236 0.950 . S
C2244 C2245 1.386 . S
C2244 C2246 1.391 . S
C2245 C2244 1.386 . S
C2245 C2249 1.393 . S
C2246 H2238 0.950 . S
C2246 C2244 1.391 . S
C2246 C2247 1.400 . S
C2247 C2246 1.400 . S
C2247 C2248 1.398 . S
C2247 C2253 1.491 . S
C2248 H2239 0.950 . S
C2248 C2247 1.398 . S
C2248 C2249 1.391 . S
C2249 H2237 0.950 . S
C2249 C2245 1.393 . S
C2249 C2248 1.391 . S
C2250 H2240 0.950 . S
C2250 C2251 1.386 . S
C2250 C2252 1.391 . S
C2251 C2250 1.386 . S
C2251 C2255 1.393 . S
C2252 H2241 0.950 . S
C2252 C2250 1.391 . S
C2252 C2253 1.400 . S
C2253 C2247 1.491 . S
C2253 C2252 1.400 . S
C2253 C2254 1.398 . S
C2254 H2242 0.950 . S
C2254 C2253 1.398 . S
C2254 C2255 1.391 . S
C2255 H2243 0.950 . S
C2255 C2251 1.393 . S
C2255 C2254 1.391 . S
H2256 C2264 0.950 . S
H2257 C2269 0.950 . S
H2258 C2266 0.950 . S
H2259 C2268 0.950 . S
H2260 C2270 0.950 . S
H2261 C2272 0.950 . S
H2262 C2274 0.950 . S
H2263 C2275 0.950 . S
C2264 H2256 0.950 . S
C2264 C2265 1.386 . S
C2264 C2266 1.391 . S
C2265 C2264 1.386 . S
C2265 C2269 1.393 . S
C2266 H2258 0.950 . S
C2266 C2264 1.391 . S
C2266 C2267 1.400 . S
C2267 C2266 1.400 . S
C2267 C2268 1.398 . S
C2267 C2273 1.491 . S
C2268 H2259 0.950 . S
C2268 C2267 1.398 . S
C2268 C2269 1.391 . S
C2269 H2257 0.950 . S
C2269 C2265 1.393 . S
C2269 C2268 1.391 . S
C2270 H2260 0.950 . S
C2270 C2271 1.386 . S
C2270 C2272 1.391 . S
C2271 C2270 1.386 . S
C2271 C2275 1.393 . S
C2272 H2261 0.950 . S
C2272 C2270 1.391 . S
C2272 C2273 1.400 . S
C2273 C2267 1.491 . S
C2273 C2272 1.400 . S
C2273 C2274 1.398 . S
C2274 H2262 0.950 . S
C2274 C2273 1.398 . S
C2274 C2275 1.391 . S
C2275 H2263 0.950 . S
C2275 C2271 1.393 . S
C2275 C2274 1.391 . S
H2276 C2284 0.950 . S
H2277 C2289 0.950 . S
H2278 C2286 0.950 . S
H2279 C2288 0.950 . S
H2280 C2290 0.950 . S
H2281 C2292 0.950 . S
H2282 C2294 0.950 . S
H2283 C2295 0.950 . S
C2284 H2276 0.950 . S
C2284 C2285 1.386 . S
C2284 C2286 1.391 . S
C2285 C2284 1.386 . S
C2285 C2289 1.393 . S
C2286 H2278 0.950 . S
C2286 C2284 1.391 . S
C2286 C2287 1.400 . S
C2287 C2286 1.400 . S
C2287 C2288 1.398 . S
C2287 C2293 1.491 . S
C2288 H2279 0.950 . S
C2288 C2287 1.398 . S
C2288 C2289 1.391 . S
C2289 H2277 0.950 . S
C2289 C2285 1.393 . S
C2289 C2288 1.391 . S
C2290 H2280 0.950 . S
C2290 C2291 1.386 . S
C2290 C2292 1.391 . S
C2291 C2290 1.386 . S
C2291 C2295 1.393 . S
C2292 H2281 0.950 . S
C2292 C2290 1.391 . S
C2292 C2293 1.400 . S
C2293 C2287 1.491 . S
C2293 C2292 1.400 . S
C2293 C2294 1.398 . S
C2294 H2282 0.950 . S
C2294 C2293 1.398 . S
C2294 C2295 1.391 . S
C2295 H2283 0.950 . S
C2295 C2291 1.393 . S
C2295 C2294 1.391 . S
H2296 C2304 0.950 1_545 S
H2297 C2309 0.950 . S
H2298 C2306 0.950 . S
H2299 C2308 0.950 . S
H2300 C2310 0.950 . S
H2301 C2312 0.950 . S
H2302 C2314 0.950 . S
H2303 C2315 0.950 . S
C2304 H2296 0.950 1_565 S
C2304 C2305 1.386 . S
C2304 C2306 1.391 . S
C2305 C2304 1.386 . S
C2305 C2309 1.393 . S
C2306 H2298 0.950 . S
C2306 C2304 1.391 . S
C2306 C2307 1.400 . S
C2307 C2306 1.400 . S
C2307 C2308 1.398 . S
C2307 C2313 1.491 . S
C2308 H2299 0.950 . S
C2308 C2307 1.398 . S
C2308 C2309 1.391 . S
C2309 H2297 0.950 . S
C2309 C2305 1.393 . S
C2309 C2308 1.391 . S
C2310 H2300 0.950 . S
C2310 C2311 1.386 . S
C2310 C2312 1.391 . S
C2311 C2310 1.386 . S
C2311 C2315 1.393 . S
C2312 H2301 0.950 . S
C2312 C2310 1.391 . S
C2312 C2313 1.400 . S
C2313 C2307 1.491 . S
C2313 C2312 1.400 . S
C2313 C2314 1.398 . S
C2314 H2302 0.950 . S
C2314 C2313 1.398 . S
C2314 C2315 1.391 . S
C2315 H2303 0.950 . S
C2315 C2311 1.393 . S
C2315 C2314 1.391 . S
H2316 C2324 0.950 . S
H2317 C2329 0.950 . S
H2318 C2326 0.950 . S
H2319 C2328 0.950 . S
H2320 C2330 0.950 . S
H2321 C2332 0.950 . S
H2322 C2334 0.950 1_556 S
H2323 C2335 0.954 . S
C2324 H2316 0.950 . S
C2324 C2325 1.386 1_556 S
C2324 C2326 1.391 . S
C2325 C2324 1.386 1_554 S
C2325 C2329 1.393 . S
C2326 H2318 0.950 . S
C2326 C2324 1.391 . S
C2326 C2327 1.400 1_556 S
C2327 C2326 1.400 1_554 S
C2327 C2328 1.398 . S
C2327 C2333 1.491 . S
C2328 H2319 0.950 . S
C2328 C2327 1.398 . S
C2328 C2329 1.391 . S
C2329 H2317 0.950 . S
C2329 C2325 1.393 . S
C2329 C2328 1.391 . S
C2330 H2320 0.950 . S
C2330 C2331 1.386 . S
C2330 C2332 1.391 . S
C2331 C2330 1.386 . S
C2331 C2335 1.386 1_545 S
C2332 H2321 0.950 . S
C2332 C2330 1.391 . S
C2332 C2333 1.400 1_545 S
C2333 C2327 1.491 . S
C2333 C2332 1.400 1_565 S
C2333 C2334 1.398 . S
C2334 H2322 0.950 1_554 S
C2334 C2333 1.398 . S
C2334 C2335 1.393 . S
C2335 H2323 0.954 . S
C2335 C2331 1.386 1_565 S
C2335 C2334 1.393 . S
H2336 C2344 0.950 . S
H2337 C2349 0.950 . S
H2338 C2346 0.950 . S
H2339 C2348 0.950 . S
H2340 C2350 0.950 . S
H2341 C2352 0.950 . S
H2342 C2354 0.950 . S
H2343 C2355 0.950 . S
C2344 H2336 0.950 . S
C2344 C2345 1.386 . S
C2344 C2346 1.391 . S
C2345 C2344 1.386 . S
C2345 C2349 1.393 . S
C2346 H2338 0.950 . S
C2346 C2344 1.391 . S
C2346 C2347 1.400 . S
C2347 C2346 1.400 . S
C2347 C2348 1.398 . S
C2347 C2353 1.491 . S
C2348 H2339 0.950 . S
C2348 C2347 1.398 . S
C2348 C2349 1.391 . S
C2349 H2337 0.950 . S
C2349 C2345 1.393 . S
C2349 C2348 1.391 . S
C2350 H2340 0.950 . S
C2350 C2351 1.386 . S
C2350 C2352 1.391 . S
C2351 C2350 1.386 . S
C2351 C2355 1.393 . S
C2352 H2341 0.950 . S
C2352 C2350 1.391 . S
C2352 C2353 1.400 . S
C2353 C2347 1.491 . S
C2353 C2352 1.400 . S
C2353 C2354 1.398 . S
C2354 H2342 0.950 . S
C2354 C2353 1.398 . S
C2354 C2355 1.391 . S
C2355 H2343 0.950 . S
C2355 C2351 1.393 . S
C2355 C2354 1.391 . S
H2356 C2364 0.950 . S
H2357 C2369 0.950 . S
H2358 C2366 0.950 . S
H2359 C2368 0.950 . S
H2360 C2370 0.950 . S
H2361 C2372 0.950 . S
H2362 C2374 0.950 . S
H2363 C2375 0.950 . S
C2364 H2356 0.950 . S
C2364 C2365 1.386 . S
C2364 C2366 1.391 . S
C2365 C2364 1.386 . S
C2365 C2369 1.393 . S
C2366 H2358 0.950 . S
C2366 C2364 1.391 . S
C2366 C2367 1.400 . S
C2367 C2366 1.400 . S
C2367 C2368 1.398 . S
C2367 C2373 1.491 . S
C2368 H2359 0.950 . S
C2368 C2367 1.398 . S
C2368 C2369 1.391 . S
C2369 H2357 0.950 . S
C2369 C2365 1.393 . S
C2369 C2368 1.391 . S
C2370 H2360 0.950 . S
C2370 C2371 1.386 . S
C2370 C2372 1.391 . S
C2371 C2370 1.386 . S
C2371 C2375 1.393 . S
C2372 H2361 0.950 . S
C2372 C2370 1.391 . S
C2372 C2373 1.400 . S
C2373 C2367 1.491 . S
C2373 C2372 1.400 . S
C2373 C2374 1.398 . S
C2374 H2362 0.950 . S
C2374 C2373 1.398 . S
C2374 C2375 1.391 . S
C2375 H2363 0.950 . S
C2375 C2371 1.393 . S
C2375 C2374 1.391 . S
H2376 C2384 0.950 . S
H2377 C2389 0.950 . S
H2378 C2386 0.950 . S
H2379 C2388 0.950 . S
H2380 C2390 0.950 . S
H2381 C2392 0.950 . S
H2382 C2394 0.950 . S
H2383 C2395 0.950 . S
C2384 H2376 0.950 . S
C2384 C2385 1.386 . S
C2384 C2386 1.391 . S
C2385 C2384 1.386 . S
C2385 C2389 1.393 . S
C2386 H2378 0.950 . S
C2386 C2384 1.391 . S
C2386 C2387 1.400 . S
C2387 C2386 1.400 . S
C2387 C2388 1.398 . S
C2387 C2393 1.491 . S
C2388 H2379 0.950 . S
C2388 C2387 1.398 . S
C2388 C2389 1.391 . S
C2389 H2377 0.950 . S
C2389 C2385 1.393 . S
C2389 C2388 1.391 . S
C2390 H2380 0.950 . S
C2390 C2391 1.386 . S
C2390 C2392 1.391 . S
C2391 C2390 1.386 . S
C2391 C2395 1.393 . S
C2392 H2381 0.950 . S
C2392 C2390 1.391 . S
C2392 C2393 1.400 . S
C2393 C2387 1.491 . S
C2393 C2392 1.400 . S
C2393 C2394 1.398 . S
C2394 H2382 0.950 . S
C2394 C2393 1.398 . S
C2394 C2395 1.391 . S
C2395 H2383 0.950 . S
C2395 C2391 1.393 . S
C2395 C2394 1.391 . S
H2396 C2404 0.950 . S
H2397 C2409 0.950 . S
H2398 C2406 0.950 . S
H2399 C2408 0.950 . S
H2400 C2410 0.950 . S
H2401 C2412 0.950 . S
H2402 C2414 0.950 . S
H2403 C2415 0.950 . S
C2404 H2396 0.950 . S
C2404 C2405 1.386 . S
C2404 C2406 1.391 . S
C2405 C2404 1.386 . S
C2405 C2409 1.393 . S
C2406 H2398 0.950 . S
C2406 C2404 1.391 . S
C2406 C2407 1.400 . S
C2407 C2406 1.400 . S
C2407 C2408 1.398 . S
C2407 C2413 1.491 . S
C2408 H2399 0.950 . S
C2408 C2407 1.398 . S
C2408 C2409 1.391 . S
C2409 H2397 0.950 . S
C2409 C2405 1.393 . S
C2409 C2408 1.391 . S
C2410 H2400 0.950 . S
C2410 C2411 1.386 . S
C2410 C2412 1.391 . S
C2411 C2410 1.386 . S
C2411 C2415 1.393 . S
C2412 H2401 0.950 . S
C2412 C2410 1.391 . S
C2412 C2413 1.400 . S
C2413 C2407 1.491 . S
C2413 C2412 1.400 . S
C2413 C2414 1.398 . S
C2414 H2402 0.950 . S
C2414 C2413 1.398 . S
C2414 C2415 1.391 . S
C2415 H2403 0.950 . S
C2415 C2411 1.393 . S
C2415 C2414 1.391 . S
H2416 C2424 0.950 . S
H2417 C2429 0.950 . S
H2418 C2426 0.950 . S
H2419 C2428 0.950 . S
H2420 C2430 0.950 . S
H2421 C2432 0.950 . S
H2422 C2434 0.950 . S
H2423 C2435 0.950 . S
C2424 H2416 0.950 . S
C2424 C2425 1.386 . S
C2424 C2426 1.391 . S
C2425 C2424 1.386 . S
C2425 C2429 1.393 . S
C2426 H2418 0.950 . S
C2426 C2424 1.391 . S
C2426 C2427 1.400 . S
C2427 C2426 1.400 . S
C2427 C2428 1.398 . S
C2427 C2433 1.491 . S
C2428 H2419 0.950 . S
C2428 C2427 1.398 . S
C2428 C2429 1.391 . S
C2429 H2417 0.950 . S
C2429 C2425 1.393 . S
C2429 C2428 1.391 . S
C2430 H2420 0.950 . S
C2430 C2431 1.386 . S
C2430 C2432 1.391 . S
C2431 C2430 1.386 . S
C2431 C2435 1.393 . S
C2432 H2421 0.950 . S
C2432 C2430 1.391 . S
C2432 C2433 1.400 . S
C2433 C2427 1.491 . S
C2433 C2432 1.400 . S
C2433 C2434 1.398 . S
C2434 H2422 0.950 . S
C2434 C2433 1.398 . S
C2434 C2435 1.391 . S
C2435 H2423 0.950 . S
C2435 C2431 1.393 . S
C2435 C2434 1.391 . S
H2436 C2444 0.950 . S
H2437 C2449 0.950 . S
H2438 C2446 0.950 . S
H2439 C2448 0.950 . S
H2440 C2450 0.950 . S
H2441 C2452 0.950 . S
H2442 C2454 0.950 . S
H2443 C2455 0.950 . S
C2444 H2436 0.950 . S
C2444 C2445 1.386 . S
C2444 C2446 1.391 . S
C2445 C2444 1.386 . S
C2445 C2449 1.393 . S
C2446 H2438 0.950 . S
C2446 C2444 1.391 . S
C2446 C2447 1.400 . S
C2447 C2446 1.400 . S
C2447 C2448 1.398 . S
C2447 C2453 1.491 . S
C2448 H2439 0.950 . S
C2448 C2447 1.398 . S
C2448 C2449 1.391 . S
C2449 H2437 0.950 . S
C2449 C2445 1.393 . S
C2449 C2448 1.391 . S
C2450 H2440 0.950 . S
C2450 C2451 1.386 . S
C2450 C2452 1.391 . S
C2451 C2450 1.386 . S
C2451 C2455 1.393 . S
C2452 H2441 0.950 . S
C2452 C2450 1.391 . S
C2452 C2453 1.400 . S
C2453 C2447 1.491 . S
C2453 C2452 1.400 . S
C2453 C2454 1.398 . S
C2454 H2442 0.950 . S
C2454 C2453 1.398 . S
C2454 C2455 1.391 . S
C2455 H2443 0.950 . S
C2455 C2451 1.393 . S
C2455 C2454 1.391 . S
H2456 C2464 0.950 . S
H2457 C2469 0.950 . S
H2458 C2466 0.950 . S
H2459 C2468 0.950 . S
H2460 C2470 0.950 . S
H2461 C2472 0.950 . S
H2462 C2474 0.950 . S
H2463 C2475 0.950 . S
C2464 H2456 0.950 . S
C2464 C2465 1.386 . S
C2464 C2466 1.391 . S
C2465 C2464 1.386 . S
C2465 C2469 1.393 . S
C2466 H2458 0.950 . S
C2466 C2464 1.391 . S
C2466 C2467 1.400 . S
C2467 C2466 1.400 . S
C2467 C2468 1.398 . S
C2467 C2473 1.491 . S
C2468 H2459 0.950 . S
C2468 C2467 1.398 . S
C2468 C2469 1.391 . S
C2469 H2457 0.950 . S
C2469 C2465 1.393 . S
C2469 C2468 1.391 . S
C2470 H2460 0.950 . S
C2470 C2471 1.386 . S
C2470 C2472 1.391 . S
C2471 C2470 1.386 . S
C2471 C2475 1.393 . S
C2472 H2461 0.950 . S
C2472 C2470 1.391 . S
C2472 C2473 1.400 . S
C2473 C2467 1.491 . S
C2473 C2472 1.400 . S
C2473 C2474 1.398 . S
C2474 H2462 0.950 . S
C2474 C2473 1.398 . S
C2474 C2475 1.391 . S
C2475 H2463 0.950 . S
C2475 C2471 1.393 . S
C2475 C2474 1.391 . S
H2476 C2484 0.950 . S
H2477 C2489 0.950 . S
H2478 C2486 0.950 . S
H2479 C2488 0.950 . S
H2480 C2490 0.950 . S
H2481 C2492 0.950 . S
H2482 C2494 0.950 . S
H2483 C2495 0.950 . S
C2484 H2476 0.950 . S
C2484 C2485 1.386 . S
C2484 C2486 1.391 . S
C2485 C2484 1.386 . S
C2485 C2489 1.393 . S
C2486 H2478 0.950 . S
C2486 C2484 1.391 . S
C2486 C2487 1.400 . S
C2487 C2486 1.400 . S
C2487 C2488 1.398 . S
C2487 C2493 1.491 . S
C2488 H2479 0.950 . S
C2488 C2487 1.398 . S
C2488 C2489 1.391 . S
C2489 H2477 0.950 . S
C2489 C2485 1.393 . S
C2489 C2488 1.391 . S
C2490 H2480 0.950 . S
C2490 C2491 1.386 . S
C2490 C2492 1.391 . S
C2491 C2490 1.386 . S
C2491 C2495 1.393 . S
C2492 H2481 0.950 . S
C2492 C2490 1.391 . S
C2492 C2493 1.400 . S
C2493 C2487 1.491 . S
C2493 C2492 1.400 . S
C2493 C2494 1.398 . S
C2494 H2482 0.950 . S
C2494 C2493 1.398 . S
C2494 C2495 1.391 . S
C2495 H2483 0.950 . S
C2495 C2491 1.393 . S
C2495 C2494 1.391 . S
H2496 C2504 0.950 . S
H2497 C2509 0.950 . S
H2498 C2506 0.950 . S
H2499 C2508 0.950 . S
H2500 C2510 0.950 . S
H2501 C2512 0.950 . S
H2502 C2514 0.950 . S
H2503 C2515 0.950 . S
C2504 H2496 0.950 . S
C2504 C2505 1.386 . S
C2504 C2506 1.391 . S
C2505 C2504 1.386 . S
C2505 C2509 1.393 . S
C2506 H2498 0.950 . S
C2506 C2504 1.391 . S
C2506 C2507 1.400 . S
C2507 C2506 1.400 . S
C2507 C2508 1.398 . S
C2507 C2513 1.491 . S
C2508 H2499 0.950 . S
C2508 C2507 1.398 . S
C2508 C2509 1.391 . S
C2509 H2497 0.950 . S
C2509 C2505 1.393 . S
C2509 C2508 1.391 . S
C2510 H2500 0.950 . S
C2510 C2511 1.386 1_556 S
C2510 C2512 1.391 . S
C2511 C2510 1.386 1_554 S
C2511 C2515 1.393 . S
C2512 H2501 0.950 . S
C2512 C2510 1.391 . S
C2512 C2513 1.400 . S
C2513 C2507 1.491 . S
C2513 C2512 1.400 . S
C2513 C2514 1.398 . S
C2514 H2502 0.950 . S
C2514 C2513 1.398 . S
C2514 C2515 1.391 1_556 S
C2515 H2503 0.950 . S
C2515 C2511 1.393 . S
C2515 C2514 1.391 1_554 S
H2516 C2524 0.950 . S
H2517 C2529 0.950 . S
H2518 C2526 0.950 . S
H2519 C2528 0.950 . S
H2520 C2530 0.950 . S
H2521 C2532 0.950 . S
H2522 C2534 0.950 . S
H2523 C2535 0.950 . S
C2524 H2516 0.950 . S
C2524 C2525 1.386 . S
C2524 C2526 1.391 . S
C2525 C2524 1.386 . S
C2525 C2529 1.393 . S
C2526 H2518 0.950 . S
C2526 C2524 1.391 . S
C2526 C2527 1.400 . S
C2527 C2526 1.400 . S
C2527 C2528 1.398 . S
C2527 C2533 1.491 . S
C2528 H2519 0.950 . S
C2528 C2527 1.398 . S
C2528 C2529 1.391 . S
C2529 H2517 0.950 . S
C2529 C2525 1.393 . S
C2529 C2528 1.391 . S
C2530 H2520 0.950 . S
C2530 C2531 1.386 . S
C2530 C2532 1.391 . S
C2531 C2530 1.386 . S
C2531 C2535 1.393 . S
C2532 H2521 0.950 . S
C2532 C2530 1.391 . S
C2532 C2533 1.400 . S
C2533 C2527 1.491 . S
C2533 C2532 1.400 . S
C2533 C2534 1.398 . S
C2534 H2522 0.950 . S
C2534 C2533 1.398 . S
C2534 C2535 1.391 . S
C2535 H2523 0.950 . S
C2535 C2531 1.393 . S
C2535 C2534 1.391 . S
H2536 C2544 0.950 . S
H2537 C2549 0.950 . S
H2538 C2546 0.950 . S
H2539 C2548 0.950 . S
H2540 C2550 0.950 . S
H2541 C2552 0.950 . S
H2542 C2554 0.950 . S
H2543 C2555 0.950 . S
C2544 H2536 0.950 . S
C2544 C2545 1.386 . S
C2544 C2546 1.391 . S
C2545 C2544 1.386 . S
C2545 C2549 1.393 . S
C2546 H2538 0.950 . S
C2546 C2544 1.391 . S
C2546 C2547 1.400 . S
C2547 C2546 1.400 . S
C2547 C2548 1.398 . S
C2547 C2553 1.491 . S
C2548 H2539 0.950 . S
C2548 C2547 1.398 . S
C2548 C2549 1.391 . S
C2549 H2537 0.950 . S
C2549 C2545 1.393 . S
C2549 C2548 1.391 . S
C2550 H2540 0.950 . S
C2550 C2551 1.386 . S
C2550 C2552 1.391 . S
C2551 C2550 1.386 . S
C2551 C2555 1.393 . S
C2552 H2541 0.950 . S
C2552 C2550 1.391 . S
C2552 C2553 1.400 . S
C2553 C2547 1.491 . S
C2553 C2552 1.400 . S
C2553 C2554 1.398 . S
C2554 H2542 0.950 . S
C2554 C2553 1.398 . S
C2554 C2555 1.391 . S
C2555 H2543 0.950 . S
C2555 C2551 1.393 . S
C2555 C2554 1.391 . S
H2556 C2564 0.950 . S
H2557 C2569 0.950 . S
H2558 C2566 0.950 . S
H2559 C2568 0.950 . S
H2560 C2570 0.950 . S
H2561 C2572 0.950 . S
H2562 C2574 0.950 . S
H2563 C2575 0.950 . S
C2564 H2556 0.950 . S
C2564 C2565 1.386 . S
C2564 C2566 1.391 . S
C2565 C2564 1.386 . S
C2565 C2569 1.393 . S
C2566 H2558 0.950 . S
C2566 C2564 1.391 . S
C2566 C2567 1.400 . S
C2567 C2566 1.400 . S
C2567 C2568 1.398 . S
C2567 C2573 1.491 . S
C2568 H2559 0.950 . S
C2568 C2567 1.398 . S
C2568 C2569 1.391 . S
C2569 H2557 0.950 . S
C2569 C2565 1.393 . S
C2569 C2568 1.391 . S
C2570 H2560 0.950 . S
C2570 C2571 1.386 . S
C2570 C2572 1.391 . S
C2571 C2570 1.386 . S
C2571 C2575 1.393 . S
C2572 H2561 0.950 . S
C2572 C2570 1.391 . S
C2572 C2573 1.400 . S
C2573 C2567 1.491 . S
C2573 C2572 1.400 . S
C2573 C2574 1.398 . S
C2574 H2562 0.950 . S
C2574 C2573 1.398 . S
C2574 C2575 1.391 . S
C2575 H2563 0.950 . S
C2575 C2571 1.393 . S
C2575 C2574 1.391 . S
H2576 C2584 0.950 . S
H2577 C2589 0.950 . S
H2578 C2586 0.950 . S
H2579 C2588 0.950 . S
H2580 C2590 0.950 . S
H2581 C2592 0.950 . S
H2582 C2594 0.950 . S
H2583 C2595 0.950 . S
C2584 H2576 0.950 . S
C2584 C2585 1.386 . S
C2584 C2586 1.391 . S
C2585 C2584 1.386 . S
C2585 C2589 1.393 . S
C2586 H2578 0.950 . S
C2586 C2584 1.391 . S
C2586 C2587 1.400 . S
C2587 C2586 1.400 . S
C2587 C2588 1.398 . S
C2587 C2593 1.491 . S
C2588 H2579 0.950 . S
C2588 C2587 1.398 . S
C2588 C2589 1.391 . S
C2589 H2577 0.950 . S
C2589 C2585 1.393 . S
C2589 C2588 1.391 . S
C2590 H2580 0.950 . S
C2590 C2591 1.386 . S
C2590 C2592 1.391 . S
C2591 C2590 1.386 . S
C2591 C2595 1.393 . S
C2592 H2581 0.950 . S
C2592 C2590 1.391 . S
C2592 C2593 1.400 . S
C2593 C2587 1.491 . S
C2593 C2592 1.400 . S
C2593 C2594 1.398 . S
C2594 H2582 0.950 . S
C2594 C2593 1.398 . S
C2594 C2595 1.391 . S
C2595 H2583 0.950 . S
C2595 C2591 1.393 . S
C2595 C2594 1.391 . S
H2596 C2604 0.950 . S
H2597 C2609 0.950 . S
H2598 C2606 0.950 . S
H2599 C2608 0.950 . S
H2600 C2610 0.950 . S
H2601 C2612 0.950 . S
H2602 C2614 0.950 . S
H2603 C2615 0.950 . S
C2604 H2596 0.950 . S
C2604 C2605 1.386 . S
C2604 C2606 1.391 . S
C2605 C2604 1.386 . S
C2605 C2609 1.393 . S
C2606 H2598 0.950 . S
C2606 C2604 1.391 . S
C2606 C2607 1.400 . S
C2607 C2606 1.400 . S
C2607 C2608 1.398 . S
C2607 C2613 1.491 . S
C2608 H2599 0.950 . S
C2608 C2607 1.398 . S
C2608 C2609 1.391 . S
C2609 H2597 0.950 . S
C2609 C2605 1.393 . S
C2609 C2608 1.391 . S
C2610 H2600 0.950 . S
C2610 C2611 1.386 . S
C2610 C2612 1.391 . S
C2611 C2610 1.386 . S
C2611 C2615 1.393 . S
C2612 H2601 0.950 . S
C2612 C2610 1.391 . S
C2612 C2613 1.400 . S
C2613 C2607 1.491 . S
C2613 C2612 1.400 . S
C2613 C2614 1.398 . S
C2614 H2602 0.950 . S
C2614 C2613 1.398 . S
C2614 C2615 1.391 . S
C2615 H2603 0.950 . S
C2615 C2611 1.393 . S
C2615 C2614 1.391 . S
H2616 C2624 0.950 . S
H2617 C2629 0.950 . S
H2618 C2626 0.950 1_455 S
H2619 C2628 0.950 . S
H2620 C2630 0.950 1_554 S
H2621 C2632 0.950 . S
H2622 C2634 0.950 . S
H2623 C2635 0.949 . S
C2624 H2616 0.950 . S
C2624 C2625 1.386 . S
C2624 C2626 1.391 . S
C2625 C2624 1.386 . S
C2625 C2629 1.393 . S
C2626 H2618 0.950 1_655 S
C2626 C2624 1.391 . S
C2626 C2627 1.400 . S
C2627 C2626 1.400 . S
C2627 C2628 1.398 . S
C2627 C2633 1.488 1_655 S
C2628 H2619 0.950 . S
C2628 C2627 1.398 . S
C2628 C2629 1.391 . S
C2629 H2617 0.950 . S
C2629 C2625 1.393 . S
C2629 C2628 1.391 . S
C2630 H2620 0.950 1_556 S
C2630 C2631 1.386 1_556 S
C2630 C2632 1.391 1_455 S
C2631 C2630 1.386 1_554 S
C2631 C2635 1.393 1_554 S
C2632 H2621 0.950 . S
C2632 C2630 1.391 1_655 S
C2632 C2633 1.400 1_655 S
C2633 C2627 1.488 1_455 S
C2633 C2632 1.400 1_455 S
C2633 C2634 1.401 . S
C2634 H2622 0.950 . S
C2634 C2633 1.401 . S
C2634 C2635 1.391 . S
C2635 H2623 0.949 . S
C2635 C2631 1.393 1_556 S
C2635 C2634 1.391 . S
H2636 C2644 0.950 . S
H2637 C2649 0.950 . S
H2638 C2646 0.950 . S
H2639 C2648 0.950 . S
H2640 C2650 0.950 . S
H2641 C2652 0.950 . S
H2642 C2654 0.950 . S
H2643 C2655 0.950 . S
C2644 H2636 0.950 . S
C2644 C2645 1.386 . S
C2644 C2646 1.391 . S
C2645 C2644 1.386 . S
C2645 C2649 1.393 . S
C2646 H2638 0.950 . S
C2646 C2644 1.391 . S
C2646 C2647 1.400 . S
C2647 C2646 1.400 . S
C2647 C2648 1.398 . S
C2647 C2653 1.491 . S
C2648 H2639 0.950 . S
C2648 C2647 1.398 . S
C2648 C2649 1.391 . S
C2649 H2637 0.950 . S
C2649 C2645 1.393 . S
C2649 C2648 1.391 . S
C2650 H2640 0.950 . S
C2650 C2651 1.386 . S
C2650 C2652 1.391 . S
C2651 C2650 1.386 . S
C2651 C2655 1.393 . S
C2652 H2641 0.950 . S
C2652 C2650 1.391 . S
C2652 C2653 1.400 . S
C2653 C2647 1.491 . S
C2653 C2652 1.400 . S
C2653 C2654 1.398 . S
C2654 H2642 0.950 . S
C2654 C2653 1.398 . S
C2654 C2655 1.391 . S
C2655 H2643 0.950 . S
C2655 C2651 1.393 . S
C2655 C2654 1.391 . S
H2656 C2664 0.950 . S
H2657 C2669 0.950 . S
H2658 C2666 0.950 . S
H2659 C2668 0.950 . S
H2660 C2670 0.950 . S
H2661 C2672 0.950 . S
H2662 C2674 0.950 . S
H2663 C2675 0.950 . S
C2664 H2656 0.950 . S
C2664 C2665 1.386 . S
C2664 C2666 1.391 . S
C2665 C2664 1.386 . S
C2665 C2669 1.393 . S
C2666 H2658 0.950 . S
C2666 C2664 1.391 . S
C2666 C2667 1.400 . S
C2667 C2666 1.400 . S
C2667 C2668 1.398 . S
C2667 C2673 1.491 . S
C2668 H2659 0.950 . S
C2668 C2667 1.398 . S
C2668 C2669 1.391 . S
C2669 H2657 0.950 . S
C2669 C2665 1.393 . S
C2669 C2668 1.391 . S
C2670 H2660 0.950 . S
C2670 C2671 1.386 . S
C2670 C2672 1.391 . S
C2671 C2670 1.386 . S
C2671 C2675 1.393 . S
C2672 H2661 0.950 . S
C2672 C2670 1.391 . S
C2672 C2673 1.400 . S
C2673 C2667 1.491 . S
C2673 C2672 1.400 . S
C2673 C2674 1.398 . S
C2674 H2662 0.950 . S
C2674 C2673 1.398 . S
C2674 C2675 1.391 . S
C2675 H2663 0.950 . S
C2675 C2671 1.393 . S
C2675 C2674 1.391 . S
H2676 C2684 0.950 . S
H2677 C2689 0.950 . S
H2678 C2686 0.950 . S
H2679 C2688 0.950 . S
H2680 C2690 0.950 . S
H2681 C2692 0.950 . S
H2682 C2694 0.950 . S
H2683 C2695 0.950 . S
C2684 H2676 0.950 . S
C2684 C2685 1.386 . S
C2684 C2686 1.391 . S
C2685 C2684 1.386 . S
C2685 C2689 1.393 . S
C2686 H2678 0.950 . S
C2686 C2684 1.391 . S
C2686 C2687 1.400 . S
C2687 C2686 1.400 . S
C2687 C2688 1.398 . S
C2687 C2693 1.491 . S
C2688 H2679 0.950 . S
C2688 C2687 1.398 . S
C2688 C2689 1.391 . S
C2689 H2677 0.950 . S
C2689 C2685 1.393 . S
C2689 C2688 1.391 . S
C2690 H2680 0.950 . S
C2690 C2691 1.386 . S
C2690 C2692 1.391 . S
C2691 C2690 1.386 . S
C2691 C2695 1.393 . S
C2692 H2681 0.950 . S
C2692 C2690 1.391 . S
C2692 C2693 1.400 . S
C2693 C2687 1.491 . S
C2693 C2692 1.400 . S
C2693 C2694 1.398 . S
C2694 H2682 0.950 . S
C2694 C2693 1.398 . S
C2694 C2695 1.391 . S
C2695 H2683 0.950 . S
C2695 C2691 1.393 . S
C2695 C2694 1.391 . S
H2696 C2704 0.950 . S
H2697 C2709 0.950 . S
H2698 C2706 0.950 . S
H2699 C2708 0.950 . S
H2700 C2710 0.950 . S
H2701 C2712 0.950 . S
H2702 C2714 0.940 1_455 S
H2703 C2715 0.950 . S
C2704 H2696 0.950 . S
C2704 C2705 1.386 . S
C2704 C2706 1.391 . S
C2705 C2704 1.386 . S
C2705 C2709 1.393 . S
C2706 H2698 0.950 . S
C2706 C2704 1.391 . S
C2706 C2707 1.400 . S
C2707 C2706 1.400 . S
C2707 C2708 1.398 . S
C2707 C2713 1.491 . S
C2708 H2699 0.950 . S
C2708 C2707 1.398 . S
C2708 C2709 1.391 . S
C2709 H2697 0.950 . S
C2709 C2705 1.393 . S
C2709 C2708 1.391 . S
C2710 H2700 0.950 . S
C2710 C2711 1.349 1_655 S
C2710 C2712 1.391 . S
C2711 C2710 1.349 1_455 S
C2711 C2715 1.410 . S
C2712 H2701 0.950 . S
C2712 C2710 1.391 . S
C2712 C2713 1.400 . S
C2713 C2707 1.491 . S
C2713 C2712 1.400 . S
C2713 C2714 1.419 . S
C2714 H2702 0.940 1_655 S
C2714 C2713 1.419 . S
C2714 C2715 1.380 1_655 S
C2715 H2703 0.950 . S
C2715 C2711 1.410 . S
C2715 C2714 1.380 1_455 S
H2716 C2724 0.950 . S
H2717 C2729 0.950 . S
H2718 C2726 0.950 . S
H2719 C2728 0.950 . S
H2720 C2730 0.950 . S
H2721 C2732 0.950 . S
H2722 C2734 0.950 . S
H2723 C2735 0.950 . S
C2724 H2716 0.950 . S
C2724 C2725 1.386 . S
C2724 C2726 1.391 . S
C2725 C2724 1.386 . S
C2725 C2729 1.393 . S
C2726 H2718 0.950 . S
C2726 C2724 1.391 . S
C2726 C2727 1.400 . S
C2727 C2726 1.400 . S
C2727 C2728 1.398 . S
C2727 C2733 1.491 . S
C2728 H2719 0.950 . S
C2728 C2727 1.398 . S
C2728 C2729 1.391 . S
C2729 H2717 0.950 . S
C2729 C2725 1.393 . S
C2729 C2728 1.391 . S
C2730 H2720 0.950 . S
C2730 C2731 1.386 . S
C2730 C2732 1.391 . S
C2731 C2730 1.386 . S
C2731 C2735 1.393 . S
C2732 H2721 0.950 . S
C2732 C2730 1.391 . S
C2732 C2733 1.400 . S
C2733 C2727 1.491 . S
C2733 C2732 1.400 . S
C2733 C2734 1.398 . S
C2734 H2722 0.950 . S
C2734 C2733 1.398 . S
C2734 C2735 1.391 . S
C2735 H2723 0.950 . S
C2735 C2731 1.393 . S
C2735 C2734 1.391 . S
H2736 C2744 0.950 . S
H2737 C2749 0.950 . S
H2738 C2746 0.950 . S
H2739 C2748 0.950 . S
H2740 C2750 0.950 . S
H2741 C2752 0.950 . S
H2742 C2754 0.950 . S
H2743 C2755 0.950 . S
C2744 H2736 0.950 . S
C2744 C2745 1.386 . S
C2744 C2746 1.391 . S
C2745 C2744 1.386 . S
C2745 C2749 1.393 . S
C2746 H2738 0.950 . S
C2746 C2744 1.391 . S
C2746 C2747 1.400 . S
C2747 C2746 1.400 . S
C2747 C2748 1.398 . S
C2747 C2753 1.491 . S
C2748 H2739 0.950 . S
C2748 C2747 1.398 . S
C2748 C2749 1.391 . S
C2749 H2737 0.950 . S
C2749 C2745 1.393 . S
C2749 C2748 1.391 . S
C2750 H2740 0.950 . S
C2750 C2751 1.386 . S
C2750 C2752 1.391 . S
C2751 C2750 1.386 . S
C2751 C2755 1.393 . S
C2752 H2741 0.950 . S
C2752 C2750 1.391 . S
C2752 C2753 1.400 . S
C2753 C2747 1.491 . S
C2753 C2752 1.400 . S
C2753 C2754 1.398 . S
C2754 H2742 0.950 . S
C2754 C2753 1.398 . S
C2754 C2755 1.391 . S
C2755 H2743 0.950 . S
C2755 C2751 1.393 . S
C2755 C2754 1.391 . S
H2756 C2764 0.950 . S
H2757 C2769 0.950 . S
H2758 C2766 0.950 . S
H2759 C2768 0.950 . S
H2760 C2770 0.950 . S
H2761 C2772 0.950 . S
H2762 C2774 0.950 . S
H2763 C2775 0.950 . S
C2764 H2756 0.950 . S
C2764 C2765 1.386 . S
C2764 C2766 1.391 . S
C2765 C2764 1.386 . S
C2765 C2769 1.393 . S
C2766 H2758 0.950 . S
C2766 C2764 1.391 . S
C2766 C2767 1.400 . S
C2767 C2766 1.400 . S
C2767 C2768 1.398 . S
C2767 C2773 1.491 . S
C2768 H2759 0.950 . S
C2768 C2767 1.398 . S
C2768 C2769 1.391 . S
C2769 H2757 0.950 . S
C2769 C2765 1.393 . S
C2769 C2768 1.391 . S
C2770 H2760 0.950 . S
C2770 C2771 1.386 1_545 S
C2770 C2772 1.391 1_545 S
C2771 C2770 1.386 1_565 S
C2771 C2775 1.393 . S
C2772 H2761 0.950 . S
C2772 C2770 1.391 1_565 S
C2772 C2773 1.400 . S
C2773 C2767 1.491 . S
C2773 C2772 1.400 . S
C2773 C2774 1.398 . S
C2774 H2762 0.950 . S
C2774 C2773 1.398 . S
C2774 C2775 1.391 . S
C2775 H2763 0.950 . S
C2775 C2771 1.393 . S
C2775 C2774 1.391 . S
H2776 C2784 0.950 . S
H2777 C2789 0.950 . S
H2778 C2786 0.950 . S
H2779 C2788 0.950 . S
H2780 C2790 0.950 . S
H2781 C2792 0.950 . S
H2782 C2794 0.950 . S
H2783 C2795 0.950 . S
C2784 H2776 0.950 . S
C2784 C2785 1.386 . S
C2784 C2786 1.391 . S
C2785 C2784 1.386 . S
C2785 C2789 1.393 . S
C2786 H2778 0.950 . S
C2786 C2784 1.391 . S
C2786 C2787 1.400 . S
C2787 C2786 1.400 . S
C2787 C2788 1.398 . S
C2787 C2793 1.491 . S
C2788 H2779 0.950 . S
C2788 C2787 1.398 . S
C2788 C2789 1.391 . S
C2789 H2777 0.950 . S
C2789 C2785 1.393 . S
C2789 C2788 1.391 . S
C2790 H2780 0.950 . S
C2790 C2791 1.386 . S
C2790 C2792 1.391 . S
C2791 C2790 1.386 . S
C2791 C2795 1.393 . S
C2792 H2781 0.950 . S
C2792 C2790 1.391 . S
C2792 C2793 1.400 . S
C2793 C2787 1.491 . S
C2793 C2792 1.400 . S
C2793 C2794 1.398 . S
C2794 H2782 0.950 . S
C2794 C2793 1.398 . S
C2794 C2795 1.391 . S
C2795 H2783 0.950 . S
C2795 C2791 1.393 . S
C2795 C2794 1.391 . S
H2796 C2804 0.950 . S
H2797 C2809 0.950 . S
H2798 C2806 0.950 . S
H2799 C2808 0.950 . S
H2800 C2810 0.950 . S
H2801 C2812 0.950 . S
H2802 C2814 0.950 . S
H2803 C2815 0.950 . S
C2804 H2796 0.950 . S
C2804 C2805 1.386 . S
C2804 C2806 1.391 . S
C2805 C2804 1.386 . S
C2805 C2809 1.393 . S
C2806 H2798 0.950 . S
C2806 C2804 1.391 . S
C2806 C2807 1.400 . S
C2807 C2806 1.400 . S
C2807 C2808 1.398 . S
C2807 C2813 1.491 . S
C2808 H2799 0.950 . S
C2808 C2807 1.398 . S
C2808 C2809 1.391 . S
C2809 H2797 0.950 . S
C2809 C2805 1.393 . S
C2809 C2808 1.391 . S
C2810 H2800 0.950 . S
C2810 C2811 1.386 . S
C2810 C2812 1.391 . S
C2811 C2810 1.386 . S
C2811 C2815 1.393 . S
C2812 H2801 0.950 . S
C2812 C2810 1.391 . S
C2812 C2813 1.400 . S
C2813 C2807 1.491 . S
C2813 C2812 1.400 . S
C2813 C2814 1.398 . S
C2814 H2802 0.950 . S
C2814 C2813 1.398 . S
C2814 C2815 1.391 . S
C2815 H2803 0.950 . S
C2815 C2811 1.393 . S
C2815 C2814 1.391 . S
H2816 C2824 0.950 . S
H2817 C2829 0.950 . S
H2818 C2826 0.950 . S
H2819 C2828 0.950 . S
H2820 C2830 0.950 . S
H2821 C2832 0.950 . S
H2822 C2834 0.950 . S
H2823 C2835 0.950 . S
C2824 H2816 0.950 . S
C2824 C2825 1.386 . S
C2824 C2826 1.391 . S
C2825 C2824 1.386 . S
C2825 C2829 1.393 . S
C2826 H2818 0.950 . S
C2826 C2824 1.391 . S
C2826 C2827 1.400 . S
C2827 C2826 1.400 . S
C2827 C2828 1.398 . S
C2827 C2833 1.491 . S
C2828 H2819 0.950 . S
C2828 C2827 1.398 . S
C2828 C2829 1.391 . S
C2829 H2817 0.950 . S
C2829 C2825 1.393 . S
C2829 C2828 1.391 . S
C2830 H2820 0.950 . S
C2830 C2831 1.386 . S
C2830 C2832 1.391 . S
C2831 C2830 1.386 . S
C2831 C2835 1.393 . S
C2832 H2821 0.950 . S
C2832 C2830 1.391 . S
C2832 C2833 1.400 . S
C2833 C2827 1.491 . S
C2833 C2832 1.400 . S
C2833 C2834 1.398 . S
C2834 H2822 0.950 . S
C2834 C2833 1.398 . S
C2834 C2835 1.391 . S
C2835 H2823 0.950 . S
C2835 C2831 1.393 . S
C2835 C2834 1.391 . S
H2836 C2844 0.950 . S
H2837 C2849 0.950 . S
H2838 C2846 0.950 . S
H2839 C2848 0.950 . S
H2840 C2850 0.950 . S
H2841 C2852 0.950 . S
H2842 C2854 0.950 . S
H2843 C2855 0.950 . S
C2844 H2836 0.950 . S
C2844 C2845 1.386 . S
C2844 C2846 1.391 . S
C2845 C2844 1.386 . S
C2845 C2849 1.393 . S
C2846 H2838 0.950 . S
C2846 C2844 1.391 . S
C2846 C2847 1.400 . S
C2847 C2846 1.400 . S
C2847 C2848 1.398 . S
C2847 C2853 1.491 . S
C2848 H2839 0.950 . S
C2848 C2847 1.398 . S
C2848 C2849 1.391 . S
C2849 H2837 0.950 . S
C2849 C2845 1.393 . S
C2849 C2848 1.391 . S
C2850 H2840 0.950 . S
C2850 C2851 1.386 . S
C2850 C2852 1.391 . S
C2851 C2850 1.386 . S
C2851 C2855 1.393 . S
C2852 H2841 0.950 . S
C2852 C2850 1.391 . S
C2852 C2853 1.400 . S
C2853 C2847 1.491 . S
C2853 C2852 1.400 . S
C2853 C2854 1.398 . S
C2854 H2842 0.950 . S
C2854 C2853 1.398 . S
C2854 C2855 1.391 . S
C2855 H2843 0.950 . S
C2855 C2851 1.393 . S
C2855 C2854 1.391 . S
H2856 C2864 0.950 . S
H2857 C2869 0.950 . S
H2858 C2866 0.950 . S
H2859 C2868 0.950 . S
H2860 C2870 0.950 . S
H2861 C2872 0.950 . S
H2862 C2874 0.950 . S
H2863 C2875 0.950 . S
C2864 H2856 0.950 . S
C2864 C2865 1.386 . S
C2864 C2866 1.391 . S
C2865 C2864 1.386 . S
C2865 C2869 1.393 . S
C2866 H2858 0.950 . S
C2866 C2864 1.391 . S
C2866 C2867 1.400 . S
C2867 C2866 1.400 . S
C2867 C2868 1.398 . S
C2867 C2873 1.491 . S
C2868 H2859 0.950 . S
C2868 C2867 1.398 . S
C2868 C2869 1.391 . S
C2869 H2857 0.950 . S
C2869 C2865 1.393 . S
C2869 C2868 1.391 . S
C2870 H2860 0.950 . S
C2870 C2871 1.386 . S
C2870 C2872 1.391 . S
C2871 C2870 1.386 . S
C2871 C2875 1.393 . S
C2872 H2861 0.950 . S
C2872 C2870 1.391 . S
C2872 C2873 1.400 . S
C2873 C2867 1.491 . S
C2873 C2872 1.400 . S
C2873 C2874 1.398 . S
C2874 H2862 0.950 . S
C2874 C2873 1.398 . S
C2874 C2875 1.391 . S
C2875 H2863 0.950 . S
C2875 C2871 1.393 . S
C2875 C2874 1.391 . S
H2876 C2884 0.950 . S
H2877 C2889 0.950 . S
H2878 C2886 0.950 . S
H2879 C2888 0.950 . S
H2880 C2890 0.950 . S
H2881 C2892 0.950 . S
H2882 C2894 0.950 . S
H2883 C2895 0.950 . S
C2884 H2876 0.950 . S
C2884 C2885 1.386 . S
C2884 C2886 1.391 . S
C2885 C2884 1.386 . S
C2885 C2889 1.393 . S
C2886 H2878 0.950 . S
C2886 C2884 1.391 . S
C2886 C2887 1.400 . S
C2887 C2886 1.400 . S
C2887 C2888 1.398 . S
C2887 C2893 1.491 . S
C2888 H2879 0.950 . S
C2888 C2887 1.398 . S
C2888 C2889 1.391 . S
C2889 H2877 0.950 . S
C2889 C2885 1.393 . S
C2889 C2888 1.391 . S
C2890 H2880 0.950 . S
C2890 C2891 1.386 . S
C2890 C2892 1.391 . S
C2891 C2890 1.386 . S
C2891 C2895 1.393 . S
C2892 H2881 0.950 . S
C2892 C2890 1.391 . S
C2892 C2893 1.400 . S
C2893 C2887 1.491 . S
C2893 C2892 1.400 . S
C2893 C2894 1.398 . S
C2894 H2882 0.950 . S
C2894 C2893 1.398 . S
C2894 C2895 1.391 . S
C2895 H2883 0.950 . S
C2895 C2891 1.393 . S
C2895 C2894 1.391 . S
C985 C106 2.554 . S
C991 C367 2.537 . S
C1005 C65 1.794 . S
C1011 C378 1.791 . S
C1025 C79 2.043 . S
C1031 C447 1.999 . S
C1051 C460 1.028 . S
C1045 C90 1.013 . S
C1065 C21 2.265 . S
C1071 C516 2.301 . S
C1091 C567 2.121 . S
C1085 C35 2.109 . S
C1111 C596 2.429 . S
C1105 C50 2.455 . S
C1125 C6 2.423 . S
C1131 C647 2.407 . S
C1151 C338 1.607 . S
C1145 C232 1.604 . S
C1165 C245 0.875 . S
C1171 C380 0.871 . S
C1191 C418 1.073 . S
C1185 C274 1.077 . S
C1211 C487 1.696 . S
C1205 C175 1.682 . S
C1225 C231 0.527 . S
C1231 C521 0.505 . S
C1251 C538 1.393 . S
C1245 C246 1.395 . S
C1271 C601 0.305 . S
C1265 C273 0.355 . S
C1291 C618 2.221 . S
C1285 C176 2.232 . S
C1311 C340 1.776 . S
C1305 C160 1.815 . S
C1325 C289 1.633 . S
C1331 C679 1.571 . S
C1351 C700 1.529 . S
C1345 C328 1.517 . S
C1371 C759 0.510 . S
C1365 C317 0.501 . S
C1385 C118 1.119 . S
C1391 C620 1.162 . S
C1405 C132 1.381 . S
C1411 C420 1.412 . S
C1425 C331 0.998 . S
C1431 C778 1.000 . S
C1451 C847 1.212 . S
C1445 C303 1.244 . S
C1471 C356 2.115 1_565 S
C1465 C63 2.108 . S
C1491 C839 2.282 . S
C1485 C107 2.232 . S
C1505 C92 1.836 . S
C1511 C436 1.834 . S
C1525 C78 1.465 . S
C1531 C801 1.464 . S
C1551 C527 2.947 . S
C1545 C8 2.944 . S
C1565 C51 2.262 . S
C1571 C716 2.242 . S
C1591 C607 2.776 . S
C1585 C37 2.751 . S
C1611 C876 2.361 . S
C1605 C20 2.390 . S
C1631 C359 1.271 1_556 S
C1625 C147 1.229 . S
C1651 C841 1.122 . S
C1645 C316 1.136 . S
C1665 C119 1.052 . S
C1671 C439 1.098 . S
C1685 C288 1.804 . S
C1691 C796 1.844 . S
C1705 C148 0.758 . S
C1711 C500 0.782 . S
C1731 C719 1.457 . S
C1725 C315 1.403 . S
C1745 C120 0.532 . S
C1751 C580 0.557 . S
C1765 C287 2.158 . S
C1771 C879 2.130 . S
C1785 C188 1.541 . S
C1791 C361 1.486 . S
C1805 C177 1.868 . S
C1811 C658 1.833 . S
C1825 C258 1.487 . S
C1831 C561 1.461 . S
C1845 C247 0.611 . S
C1851 C738 0.601 . S
C1871 C881 0.944 . S
C1865 C272 0.935 . S
C1885 C216 1.278 . S
C1891 C441 1.291 . S
C1911 C479 1.313 . S
C1905 C261 1.266 . S
C1931 C396 1.154 . S
C1925 C205 1.155 . S
C1945 C76 2.099 . S
C1951 C927 2.143 . S
C1971 C818 1.867 . S
C1965 C93 1.867 . S
C1985 C105 1.629 . S
C1991 C967 1.626 . S
C2005 C62 1.047 . S
C2011 C780 1.050 . S
C2025 C49 2.223 . S
C2031 C676 2.257 . S
C2051 C727 2.505 . S
C2045 C9 2.521 . S
C2071 C756 2.368 . S
C2065 C22 2.388 . S
C2091 C887 2.774 . S
C2085 C36 2.826 . S
C2111 C898 1.514 . S
C2105 C260 1.510 . S
C2125 C189 0.769 . S
C2131 C820 0.787 . S
C2151 C938 0.995 . S
C2145 C204 1.004 . S
C2171 C807 1.507 . S
C2165 C217 1.498 . S
C2191 C681 0.595 . S
C2185 C259 0.601 . S
C2205 C190 1.474 . S
C2211 C698 1.471 . S
C2231 C761 0.415 . S
C2225 C203 0.453 . S
C2245 C218 2.268 . S
C2251 C858 2.259 . S
C2271 C900 1.745 . S
C2265 C314 1.789 . S
C2285 C135 1.677 . S
C2291 C519 1.626 . S
C2311 C540 1.566 . S
C2305 C146 1.551 1_565 S
C2331 C599 0.618 . S
C2325 C163 0.605 . S
C2351 C860 1.182 . S
C2345 C300 1.140 . S
C2365 C286 1.407 . S
C2371 C940 1.432 . S
C2391 C458 0.903 . S
C2385 C149 0.902 . S
C2411 C407 1.155 . S
C2405 C121 1.216 . S
C2425 C91 2.104 . S
C2431 C916 2.116 . S
C2451 C399 1.875 . S
C2445 C77 1.729 . S
C2465 C64 1.808 . S
C2471 C956 1.821 . S
C2485 C104 1.155 . S
C2491 C481 1.167 . S
C2505 C34 2.479 . S
C2511 C687 2.543 . S
C2531 C556 2.209 . S
C2525 C23 2.231 . S
C2545 C7 2.317 . S
C2551 C767 2.384 . S
C2565 C48 2.361 . S
C2571 C636 2.339 . S
C2591 C919 1.240 . S
C2585 C329 1.221 . S
C2605 C162 1.111 . S
C2611 C401 1.094 . S
C2631 C959 1.083 . S
C2625 C301 1.093 . S
C2645 C134 1.797 . S
C2651 C476 1.844 . S
C2665 C330 0.779 . S
C2671 C660 0.773 . S
C2691 C559 1.414 . S
C2685 C161 1.362 . S
C2705 C302 0.571 . S
C2711 C740 0.587 . S
C2731 C639 2.115 . S
C2725 C133 2.128 . S
C2751 C921 1.594 . S
C2745 C244 1.658 . S
C2771 C498 1.816 1_665 S
C2765 C219 1.857 . S
C2785 C230 1.361 . S
C2791 C721 1.345 . S
C2811 C578 0.597 . S
C2805 C191 0.591 . S
C2825 C202 1.044 . S
C2831 C641 1.061 . S
C2845 C174 1.423 . S
C2851 C961 1.440 . S
C2871 C799 1.265 . S
C2865 C233 1.216 . S
C2891 C836 1.149 . S
C2885 C275 1.177 . S
