# Generated by pormake.
# Topology pth, (4,4)-cn, num edge types: 1
# Building blocks:
#     Node 0, Type 0, BuildingBlock: QUQFOY_clean_sbu_1, # of connection points: 4
#     Node 1, Type 0, BuildingBlock: QUQFOY_clean_sbu_1, # of connection points: 4
#     Node 2, Type 0, BuildingBlock: QUQFOY_clean_sbu_1, # of connection points: 4
#     Node 3, Type 1, BuildingBlock: NAWXER_clean_sbu_0, # of connection points: 4
#     Node 4, Type 1, BuildingBlock: NAWXER_clean_sbu_0, # of connection points: 4
#     Node 5, Type 1, BuildingBlock: NAWXER_clean_sbu_0, # of connection points: 4
#     Edge 6, Type (0, 1), BuildingBlock: TEMPAE_clean_linker_10, # of connection points: 2
#     Edge 7, Type (0, 1), BuildingBlock: TEMPAE_clean_linker_10, # of connection points: 2
#     Edge 8, Type (0, 1), BuildingBlock: TEMPAE_clean_linker_10, # of connection points: 2
#     Edge 9, Type (0, 1), BuildingBlock: TEMPAE_clean_linker_10, # of connection points: 2
#     Edge 10, Type (0, 1), BuildingBlock: TEMPAE_clean_linker_10, # of connection points: 2
#     Edge 11, Type (0, 1), BuildingBlock: TEMPAE_clean_linker_10, # of connection points: 2
#     Edge 12, Type (0, 1), BuildingBlock: TEMPAE_clean_linker_10, # of connection points: 2
#     Edge 13, Type (0, 1), BuildingBlock: TEMPAE_clean_linker_10, # of connection points: 2
#     Edge 14, Type (0, 1), BuildingBlock: TEMPAE_clean_linker_10, # of connection points: 2
#     Edge 15, Type (0, 1), BuildingBlock: TEMPAE_clean_linker_10, # of connection points: 2
#     Edge 16, Type (0, 1), BuildingBlock: TEMPAE_clean_linker_10, # of connection points: 2
#     Edge 17, Type (0, 1), BuildingBlock: TEMPAE_clean_linker_10, # of connection points: 2
# Relax obj value: 0.024
# Max RMSD: 0.121
# Mean RMSD: 0.064
data_MOF--net-pth--node1-QUQFOY_clean_sbu_1--node2-NAWXER_clean_sbu_0--edge1-TEMPAE_clean_linker_10
_symmetry_space_group_name_H-M    P1
_symmetry_Int_Tables_number       1
_symmetry_cell_setting            triclinic
loop_
_symmetry_equiv_pos_as_xyz
'x, y, z'
_cell_length_a     22.292782
_cell_length_b     24.004743
_cell_length_c     59.147188
_cell_angle_alpha  90.090254
_cell_angle_beta   89.90154
_cell_angle_gamma 120.06387
loop_
_atom_site_label
_atom_site_type_symbol
_atom_site_fract_x
_atom_site_fract_y
_atom_site_fract_z
_atom_type_partial_charge
O0 O 0.02798 0.09023 0.04163 0.0
Cd1 Cd 0.95565 0.03327 0.06487 0.0
Cd2 Cd 0.04104 0.99272 0.07029 0.0
O3 O 0.11232 0.08624 0.05941 0.0
O4 O 0.91505 0.08533 0.07691 0.0
O5 O 0.98643 0.06459 0.09638 0.0
C6 C 0.95325 0.09567 0.09463 0.0
C7 C 0.03775 0.93476 0.10228 0.0
C8 C 0.09233 0.11289 0.04492 0.0
C9 C 0.91377 0.90814 0.04488 0.0
O10 O 0.97847 0.92907 0.04614 0.0
O11 O 0.88792 0.93893 0.05452 0.0
O12 O 0.08184 0.94592 0.08623 0.0
O13 O 1.00167 0.96322 0.10132 0.0
O14 O 0.99543 0.07414 0.42371 0.0
Cd15 Cd 0.0664 0.092 0.39893 0.0
Cd16 Cd 0.99393 0.96838 0.39516 0.0
O17 O 0.91596 0.98038 0.41017 0.0
O18 O 0.09508 0.18013 0.38752 0.0
O19 O 0.03277 0.09131 0.36748 0.0
C20 C 0.05905 0.15283 0.36959 0.0
C21 C 0.99056 0.90848 0.36369 0.0
C22 C 0.9336 0.02743 0.42374 0.0
C23 C 0.13191 0.02426 0.41767 0.0
O24 O 0.0707 0.97673 0.41628 0.0
O25 O 0.14711 0.07815 0.40886 0.0
O26 O 0.95761 0.88064 0.38201 0.0
O27 O 0.01835 0.97029 0.36236 0.0
O28 O 0.90957 0.97118 0.71681 0.0
Cd29 Cd 0.98342 0.97085 0.73746 0.0
Cd30 Cd 0.03495 0.09518 0.73278 0.0
O31 O 0.93719 0.07242 0.72165 0.0
O32 O 0.93376 0.88341 0.75158 0.0
O33 O 0.96572 0.97326 0.77065 0.0
C34 C 0.93222 0.91115 0.77012 0.0
C35 C 0.09812 0.1585 0.76331 0.0
C36 C 0.89609 0.01623 0.71404 0.0
C37 C 0.10952 0.03837 0.7093 0.0
O38 O 0.09502 0.0832 0.70938 0.0
O39 O 0.07632 0.98958 0.72212 0.0
O40 O 0.0926 0.18451 0.74488 0.0
O41 O 0.06286 0.09655 0.76493 0.0
C42 C 0.06326 0.62152 0.25724 0.0
C43 C 0.04118 0.46043 0.20032 0.0
O44 O 0.11549 0.62209 0.24807 0.0
Zn45 Zn 0.06179 0.54482 0.22875 0.0
O46 O 1.00214 0.57567 0.25289 0.0
Zn47 Zn 0.94746 0.49228 0.2331 0.0
O48 O 0.90923 0.42307 0.25618 0.0
O49 O 0.0228 0.46958 0.25247 0.0
O50 O 0.98516 0.45208 0.20937 0.0
O51 O 0.0988 0.50993 0.2056 0.0
O52 O 1.00835 0.57892 0.20914 0.0
O53 O 0.89489 0.52094 0.21397 0.0
C54 C 0.96641 0.42638 0.2615 0.0
C55 C 0.94749 0.56863 0.20486 0.0
C56 C 0.53871 0.94193 0.59877 0.0
C57 C 0.40706 0.952 0.53458 0.0
O58 O 0.48969 0.89367 0.58875 0.0
Zn59 Zn 0.46972 0.94266 0.56685 0.0
O60 O 0.55768 0.99915 0.5922 0.0
Zn61 Zn 0.53109 0.04672 0.56732 0.0
O62 O 0.50053 0.09441 0.58628 0.0
O63 O 0.43021 0.98911 0.58759 0.0
O64 O 0.45447 1.00702 0.54162 0.0
O65 O 0.39613 0.9008 0.54455 0.0
O66 O 0.56051 0.9834 0.54635 0.0
O67 O 0.61439 0.08958 0.54883 0.0
C68 C 0.44576 0.04587 0.5938 0.0
C69 C 0.61065 0.03878 0.54069 0.0
C70 C 0.42402 0.46573 0.94121 0.0
C71 C 0.58693 0.62458 0.88671 0.0
O72 O 0.42525 0.51777 0.93589 0.0
Zn73 Zn 0.50035 0.54696 0.91359 0.0
O74 O 0.46711 0.452 0.93208 0.0
Zn75 Zn 0.54983 0.48899 0.90852 0.0
O76 O 0.62798 0.50493 0.9279 0.0
O77 O 0.58484 0.56853 0.93523 0.0
O78 O 0.59466 0.57601 0.89022 0.0
O79 O 0.53678 0.62716 0.89601 0.0
O80 O 0.4537 0.47423 0.8886 0.0
O81 O 0.51218 0.42297 0.88481 0.0
C82 C 0.62871 0.55036 0.9393 0.0
C83 C 0.4614 0.43022 0.87913 0.0
C84 C 0.94204 0.19041 0.10647 0.0
C85 C 0.96555 0.14723 0.11107 0.0
C86 C 0.95984 0.24373 0.12054 0.0
C87 C 1.00173 0.25401 0.13984 0.0
C88 C 0.02515 0.2103 0.14469 0.0
C89 C 1.00699 0.15764 0.13023 0.0
C90 C 0.9336 0.28903 0.11478 0.0
C91 C 0.06898 0.2189 0.16527 0.0
C92 C 0.08502 0.4193 0.16851 0.0
C93 C 0.03596 0.40849 0.18531 0.0
C94 C 0.07528 0.36929 0.15365 0.0
C95 C 0.01576 0.30719 0.15594 0.0
C96 C 0.96764 0.29585 0.1734 0.0
C97 C 0.97818 0.34643 0.18772 0.0
C98 C 0.12763 0.38317 0.13517 0.0
C99 C 0.90406 0.23041 0.17676 0.0
H100 H 0.91076 0.18334 0.09157 0.0
H101 H 0.02589 0.12487 0.13386 0.0
H102 H 0.89878 0.28802 0.1284 0.0
H103 H 0.97762 0.33912 0.11364 0.0
H104 H 0.90472 0.27637 0.09854 0.0
H105 H 0.08519 0.18211 0.16623 0.0
H106 H 0.11602 0.26735 0.1651 0.0
H107 H 0.03951 0.21571 0.18082 0.0
H108 H 0.12974 0.46701 0.16658 0.0
H109 H 0.94048 0.33713 0.20091 0.0
H110 H 0.10253 0.37649 0.11842 0.0
H111 H 0.14701 0.34874 0.13613 0.0
H112 H 0.17247 0.43296 0.13618 0.0
H113 H 0.87031 0.21723 0.16162 0.0
H114 H 0.87327 0.22888 0.19178 0.0
H115 H 0.91931 0.19324 0.17882 0.0
C116 C 0.91076 0.06607 0.45997 0.0
C117 C 0.88448 0.02851 0.44035 0.0
C118 C 0.86669 0.06945 0.47609 0.0
C119 C 0.79435 0.03539 0.47239 0.0
C120 C 0.76726 0.99784 0.45251 0.0
C121 C 0.81272 0.99421 0.4368 0.0
C122 C 0.89761 0.10868 0.4973 0.0
C123 C 0.69036 0.96168 0.44786 0.0
C124 C 0.67794 0.99232 0.52388 0.0
C125 C 0.66154 0.04156 0.52411 0.0
C126 C 0.72121 0.98992 0.50717 0.0
C127 C 0.74731 0.03703 0.48992 0.0
C128 C 0.7309 0.08699 0.49005 0.0
C129 C 0.68882 0.08916 0.50738 0.0
C130 C 0.73916 0.93705 0.50806 0.0
C131 C 0.75689 0.13743 0.47171 0.0
H132 H 0.9662 0.09232 0.46293 0.0
H133 H 0.79227 0.96553 0.4216 0.0
H134 H 0.88281 0.14628 0.49882 0.0
H135 H 0.87683 0.07724 0.51239 0.0
H136 H 0.95507 0.13244 0.49757 0.0
H137 H 0.67787 0.93735 0.43113 0.0
H138 H 0.66308 0.92486 0.46115 0.0
H139 H 0.66976 0.99524 0.44845 0.0
H140 H 0.65687 0.95552 0.53687 0.0
H141 H 0.67519 0.12664 0.50738 0.0
H142 H 0.79623 0.95832 0.50896 0.0
H143 H 0.72132 0.90767 0.49242 0.0
H144 H 0.71538 0.90474 0.52283 0.0
H145 H 0.81437 0.16494 0.4717 0.0
H146 H 0.73761 0.17176 0.47383 0.0
H147 H 0.74021 0.11392 0.45492 0.0
C148 C 0.88414 0.90361 0.80913 0.0
C149 C 0.88695 0.87309 0.78921 0.0
C150 C 0.83596 0.86895 0.82629 0.0
C151 C 0.78916 0.80229 0.8234 0.0
C152 C 0.79229 0.77115 0.80344 0.0
C153 C 0.84126 0.8068 0.78667 0.0
C154 C 0.83492 0.90366 0.84746 0.0
C155 C 0.74345 0.7001 0.79969 0.0
C156 C 0.70778 0.68917 0.87297 0.0
C157 C 0.6394 0.67726 0.87255 0.0
C158 C 0.75783 0.73235 0.85785 0.0
C159 C 0.73898 0.76394 0.8416 0.0
C160 C 0.67078 0.75447 0.84174 0.0
C161 C 0.62171 0.71146 0.85741 0.0
C162 C 0.83006 0.7417 0.85861 0.0
C163 C 0.64871 0.78717 0.82461 0.0
H164 H 0.91897 0.95488 0.8112 0.0
H165 H 0.84256 0.78284 0.77128 0.0
H166 H 0.78316 0.89901 0.8496 0.0
H167 H 0.84412 0.88136 0.86249 0.0
H168 H 0.87471 0.95561 0.84712 0.0
H169 H 0.75121 0.68352 0.78297 0.0
H170 H 0.75112 0.67192 0.81307 0.0
H171 H 0.68895 0.68924 0.80088 0.0
H172 H 0.72189 0.66341 0.8849 0.0
H173 H 0.56887 0.70217 0.85703 0.0
H174 H 0.86936 0.79371 0.85872 0.0
H175 H 0.83925 0.7204 0.84326 0.0
H176 H 0.83823 0.71881 0.87371 0.0
H177 H 0.68615 0.83964 0.82424 0.0
H178 H 0.59619 0.77953 0.82823 0.0
H179 H 0.6484 0.76798 0.80751 0.0
C180 C 0.05492 0.84738 0.11848 0.0
C181 C 0.0222 0.88428 0.11952 0.0
C182 C 0.03465 0.79412 0.13275 0.0
C183 C 0.98038 0.77723 0.14857 0.0
C184 C 0.94777 0.81479 0.14995 0.0
C185 C 0.969 0.86779 0.13542 0.0
C186 C 0.07132 0.75578 0.13085 0.0
C187 C 0.89033 0.79885 0.16675 0.0
C188 C 0.90258 0.60755 0.17303 0.0
C189 C 0.94335 0.61987 0.19239 0.0
C190 C 0.91154 0.65872 0.15898 0.0
C191 C 0.96176 0.72311 0.16469 0.0
C192 C 0.99933 0.73546 0.18507 0.0
C193 C 0.99008 0.68381 0.19848 0.0
C194 C 0.87036 0.64369 0.13739 0.0
C195 C 0.05274 0.80302 0.19208 0.0
H196 H 0.09559 0.85926 0.10615 0.0
H197 H 0.94294 0.89561 0.13625 0.0
H198 H 0.09745 0.75802 0.14706 0.0
H199 H 0.03315 0.70441 0.12754 0.0
H200 H 0.11072 0.77372 0.11714 0.0
H201 H 0.86919 0.83192 0.16539 0.0
H202 H 0.84753 0.74878 0.16408 0.0
H203 H 0.90977 0.80163 0.18421 0.0
H204 H 0.86702 0.55814 0.16819 0.0
H205 H 0.02194 0.69342 0.21342 0.0
H206 H 0.90533 0.65336 0.12272 0.0
H207 H 0.8475 0.67523 0.13565 0.0
H208 H 0.82812 0.59264 0.13664 0.0
H209 H 0.09783 0.82185 0.18045 0.0
H210 H 0.0715 0.8049 0.20962 0.0
H211 H 0.03104 0.83561 0.19093 0.0
C212 C 0.22386 0.0619 0.44715 0.0
C213 C 0.18272 0.01609 0.43097 0.0
C214 C 0.26203 0.04848 0.46291 0.0
C215 C 0.26033 0.98865 0.46191 0.0
C216 C 0.2222 0.94403 0.44464 0.0
C217 C 0.18287 0.95786 0.42961 0.0
C218 C 0.30115 0.09683 0.48132 0.0
C219 C 0.22103 0.8808 0.44251 0.0
C220 C 0.40198 0.98179 0.49498 0.0
C221 C 0.36678 0.9504 0.51476 0.0
C222 C 0.36717 0.99168 0.47711 0.0
C223 C 0.29607 0.97176 0.47952 0.0
C224 C 0.25985 0.9383 0.49929 0.0
C225 C 0.29566 0.92727 0.51663 0.0
C226 C 0.40707 0.02557 0.45604 0.0
C227 C 0.18431 0.91734 0.50265 0.0
H228 H 0.22281 0.10649 0.44836 0.0
H229 H 0.15093 0.92248 0.41702 0.0
H230 H 0.2793 0.07529 0.49806 0.0
H231 H 0.35635 0.10965 0.48128 0.0
H232 H 0.29857 0.14161 0.47942 0.0
H233 H 0.19479 0.85457 0.42679 0.0
H234 H 0.27463 0.88897 0.44263 0.0
H235 H 0.19342 0.84967 0.45719 0.0
H236 H 0.45731 1.00003 0.49375 0.0
H237 H 0.26909 0.90415 0.53219 0.0
H238 H 0.4123 0.07394 0.45497 0.0
H239 H 0.3787 0.99836 0.44074 0.0
H240 H 0.45978 0.03147 0.45583 0.0
H241 H 0.1778 0.96025 0.50293 0.0
H242 H 0.16328 0.89023 0.51866 0.0
H243 H 0.15305 0.88659 0.48836 0.0
C244 C 0.19842 0.26227 0.77683 0.0
C245 C 0.14843 0.19791 0.78112 0.0
C246 C 0.25081 0.29844 0.7926 0.0
C247 C 0.25285 0.26991 0.81331 0.0
C248 C 0.2019 0.20526 0.8179 0.0
C249 C 0.15055 0.16994 0.8017 0.0
C250 C 0.30429 0.36717 0.78703 0.0
C251 C 0.20157 0.17345 0.83994 0.0
C252 C 0.42113 0.34954 0.84724 0.0
C253 C 0.40854 0.38727 0.8625 0.0
C254 C 0.37079 0.31067 0.83115 0.0
C255 C 0.30622 0.30889 0.83061 0.0
C256 C 0.29287 0.34576 0.84634 0.0
C257 C 0.34417 0.38465 0.86193 0.0
C258 C 0.38706 0.27237 0.8145 0.0
C259 C 0.22446 0.34461 0.8466 0.0
H260 H 0.19767 0.28408 0.76088 0.0
H261 H 0.11228 0.12017 0.80512 0.0
H262 H 0.3016 0.40027 0.79957 0.0
H263 H 0.35709 0.37359 0.78806 0.0
H264 H 0.29692 0.38155 0.76988 0.0
H265 H 0.15871 0.12269 0.84084 0.0
H266 H 0.25149 0.17442 0.84214 0.0
H267 H 0.19628 0.20048 0.8543 0.0
H268 H 0.47067 0.35133 0.84758 0.0
H269 H 0.33348 0.41296 0.87384 0.0
H270 H 0.38502 0.28805 0.79701 0.0
H271 H 0.34753 0.22056 0.8157 0.0
H272 H 0.43906 0.27802 0.81737 0.0
H273 H 0.21683 0.363 0.8303 0.0
H274 H 0.22131 0.3742 0.86051 0.0
H275 H 0.1811 0.29444 0.84851 0.0
C276 C 0.77774 0.93988 0.69961 0.0
C277 C 0.83448 1.00278 0.70057 0.0
C278 C 0.7223 0.92378 0.68482 0.0
C279 C 0.72445 0.97141 0.67026 0.0
C280 C 0.78058 0.03553 0.67166 0.0
C281 C 0.83465 0.05063 0.68702 0.0
C282 C 0.66254 0.85538 0.68427 0.0
C283 C 0.78509 0.08753 0.65622 0.0
C284 C 0.63069 0.92355 0.61387 0.0
C285 C 0.57568 0.93451 0.6179 0.0
C286 C 0.67829 0.93316 0.63107 0.0
C287 C 0.66997 0.95372 0.65275 0.0
C288 C 0.61195 0.96121 0.65716 0.0
C289 C 0.56594 0.95236 0.63953 0.0
C290 C 0.73983 0.92528 0.62562 0.0
C291 C 0.6005 0.98186 0.68012 0.0
H292 H 0.77723 0.90284 0.71022 0.0
H293 H 0.87868 0.09914 0.68761 0.0
H294 H 0.61256 0.85473 0.6857 0.0
H295 H 0.66219 0.83277 0.66786 0.0
H296 H 0.66563 0.82564 0.69809 0.0
H297 H 0.83094 0.13533 0.65994 0.0
H298 H 0.78831 0.07486 0.63838 0.0
H299 H 0.73771 0.09135 0.65783 0.0
H300 H 0.63889 0.91141 0.59691 0.0
H301 H 0.52398 0.96211 0.64237 0.0
H302 H 0.74395 0.89283 0.63805 0.0
H303 H 0.78815 0.97266 0.62682 0.0
H304 H 0.73659 0.90552 0.60838 0.0
H305 H 0.60522 0.95216 0.69359 0.0
H306 H 0.54882 0.97796 0.6815 0.0
H307 H 0.64084 0.03262 0.68329 0.0
C308 C 0.89297 0.80336 0.02939 0.0
C309 C 0.8704 0.84813 0.03203 0.0
C310 C 0.85635 0.74843 0.01586 0.0
C311 C 0.79635 0.73853 1.0043 0.0
C312 C 0.77222 0.78268 1.00734 0.0
C313 C 0.80921 0.83671 0.02139 0.0
C314 C 0.88282 0.70181 0.01351 0.0
C315 C 0.70871 0.77406 0.99512 0.0
C316 C 0.74126 0.64373 0.94943 0.0
C317 C 0.68187 0.58726 0.95626 0.0
C318 C 0.78098 0.69233 0.96512 0.0
C319 C 0.76065 0.68385 0.98816 0.0
C320 C 0.70334 0.62479 0.99533 0.0
C321 C 0.66401 0.57742 0.97919 0.0
C322 C 0.84142 0.75464 0.95673 0.0
C323 C 0.68068 0.61336 0.01975 0.0
H324 H 0.93986 0.81155 0.03782 0.0
H325 H 0.79175 0.87125 0.02335 0.0
H326 H 0.84068 0.65207 0.01717 0.0
H327 H 0.89998 0.70231 0.99586 0.0
H328 H 0.92701 0.71374 0.02501 0.0
H329 H 0.69571 0.81166 0.99974 0.0
H330 H 0.71736 0.77593 0.97659 0.0
H331 H 0.66352 0.72616 0.99904 0.0
H332 H 0.75347 0.65199 0.93156 0.0
H333 H 0.61673 0.53442 0.98428 0.0
H334 H 0.88831 0.7679 0.96698 0.0
H335 H 0.82928 0.79396 0.9586 0.0
H336 H 0.85354 0.75175 0.93868 0.0
H337 H 0.72578 0.62746 0.03103 0.0
H338 H 0.64148 0.5622 0.02303 0.0
H339 H 0.65775 0.64358 0.0243 0.0
C340 C 0.05093 0.90343 0.32848 0.0
C341 C 1.00371 0.87152 0.34612 0.0
C342 C 0.0701 0.86966 0.31337 0.0
C343 C 0.0412 0.80234 0.31586 0.0
C344 C 0.99308 0.76986 0.3335 0.0
C345 C 0.975 0.80476 0.34837 0.0
C346 C 0.12119 0.90597 0.29471 0.0
C347 C 0.96027 0.69799 0.33661 0.0
C348 C 0.01799 0.69395 0.26624 0.0
C349 C 0.06828 0.67631 0.27031 0.0
C350 C 0.01164 0.73789 0.28013 0.0
C351 C 0.05601 0.76447 0.29897 0.0
C352 C 0.10953 0.74964 0.30256 0.0
C353 C 0.1154 0.7058 0.28802 0.0
C354 C 0.95444 0.75264 0.27537 0.0
C355 C 0.15798 0.77724 0.32244 0.0
H356 H 0.07409 0.95511 0.32674 0.0
H357 H 0.93891 0.77967 0.36202 0.0
H358 H 0.16579 0.89765 0.29569 0.0
H359 H 0.09629 0.88789 0.27801 0.0
H360 H 0.14096 0.95859 0.29555 0.0
H361 H 0.92615 0.68038 0.35174 0.0
H362 H 0.92897 0.67267 0.3215 0.0
H363 H 1.00105 0.68465 0.33831 0.0
H364 H 0.98149 0.67138 0.2525 0.0
H365 H 0.15403 0.69199 0.29127 0.0
H366 H 0.97486 0.80532 0.2757 0.0
H367 H 0.91414 0.73079 0.2887 0.0
H368 H 0.9295 0.73363 0.2587 0.0
H369 H 0.1794 0.83001 0.32351 0.0
H370 H 0.20157 0.76737 0.32141 0.0
H371 H 0.12885 0.75586 0.33831 0.0
C372 C 0.18311 0.08598 0.67508 0.0
C373 C 0.16339 0.04316 0.69341 0.0
C374 C 0.23216 0.0906 0.65923 0.0
C375 C 0.26339 0.0523 0.66192 0.0
C376 C 0.24529 1.01023 0.68071 0.0
C377 C 0.19485 1.00563 0.69614 0.0
C378 C 0.24872 0.13491 0.63918 0.0
C379 C 0.2784 0.96938 0.6843 0.0
C380 C 0.32845 1.00825 0.60945 0.0
C381 C 0.39972 0.05254 0.61014 0.0
C382 C 0.2836 1.00835 0.62604 0.0
C383 C 0.31093 0.05286 0.64411 0.0
C384 C 0.38291 0.09824 0.6448 0.0
C385 C 0.4265 0.09806 0.62759 0.0
C386 C 0.20699 0.9604 0.62428 0.0
C387 C 0.41398 0.14573 0.66401 0.0
H388 H 0.15883 0.11498 0.67274 0.0
H389 H 0.18025 0.97286 0.71034 0.0
H390 H 0.30535 0.16872 0.6381 0.0
H391 H 0.23297 0.10623 0.62334 0.0
H392 H 0.22189 0.16332 0.64004 0.0
H393 H 0.26306 0.94327 0.70068 0.0
H394 H 0.26308 0.93357 0.67046 0.0
H395 H 0.3357 0.99985 0.68379 0.0
H396 H 0.30771 0.97312 0.5959 0.0
H397 H 0.48178 0.13168 0.62828 0.0
H398 H 0.17706 0.98595 0.62429 0.0
H399 H 0.18981 0.92795 0.63916 0.0
H400 H 0.19388 0.93056 0.60872 0.0
H401 H 0.38926 0.17586 0.66508 0.0
H402 H 0.47083 0.17781 0.66207 0.0
H403 H 0.40376 0.11944 0.68027 0.0
C404 C 0.2131 0.20382 0.03679 0.0
C405 C 0.14218 0.17 0.03166 0.0
C406 C 0.25963 0.25747 0.02384 0.0
C407 C 0.23465 0.27704 1.0052 0.0
C408 C 0.16296 0.24393 1.00031 0.0
C409 C 0.11774 0.19119 0.01362 0.0
C410 C 0.33574 0.29206 0.02967 0.0
C411 C 0.13422 0.26236 0.98038 0.0
C412 C 0.346 0.43766 0.97526 0.0
C413 C 0.3731 0.4188 0.95735 0.0
C414 C 0.30188 0.39235 0.99138 0.0
C415 C 0.28377 0.32688 0.98917 0.0
C416 C 0.31012 0.30775 0.97083 0.0
C417 C 0.35465 0.3539 0.9553 0.0
C418 C 0.27517 0.41445 1.01086 0.0
C419 C 0.29092 0.23831 0.96747 0.0
H420 H 0.23231 0.18825 0.05082 0.0
H421 H 0.06302 0.16559 1.0095 0.0
H422 H 0.36495 0.28364 0.01618 0.0
H423 H 0.35627 0.34474 0.0306 0.0
H424 H 0.34587 0.27554 0.04601 0.0
H425 H 0.07667 0.23486 0.97989 0.0
H426 H 0.15167 0.31448 0.9809 0.0
H427 H 0.15411 0.25317 0.96443 0.0
H428 H 0.36068 0.48787 0.97699 0.0
H429 H 0.37495 0.3389 0.94135 0.0
H430 H 0.29031 0.40196 0.02712 0.0
H431 H 0.21772 0.38915 1.01047 0.0
H432 H 0.29533 0.46717 1.01049 0.0
H433 H 0.30631 0.22081 0.98249 0.0
H434 H 0.31605 0.23153 0.9523 0.0
H435 H 0.23392 0.20772 0.96562 0.0
C436 C 0.06368 0.25476 0.35731 0.0
C437 C 0.04289 0.19003 0.35306 0.0
C438 C 0.04442 0.28945 0.34282 0.0
C439 C 1.00364 0.25897 0.32347 0.0
C440 C 0.98228 0.19359 0.31909 0.0
C441 C 1.00203 0.15989 0.33395 0.0
C442 C 0.0686 0.35914 0.34807 0.0
C443 C 0.93947 0.15952 0.29852 0.0
C444 C 0.92065 0.34449 0.29324 0.0
C445 C 0.97073 0.37932 0.27672 0.0
C446 C 0.92964 0.30382 0.3084 0.0
C447 C 0.98955 0.29751 0.30673 0.0
C448 C 0.03863 0.33077 0.2895 0.0
C449 C 0.02872 0.37113 0.27485 0.0
C450 C 0.87619 0.26907 0.32658 0.0
C451 C 0.10284 0.3251 0.28686 0.0
H452 H 0.0946 0.27836 0.37214 0.0
H453 H 0.98517 0.10976 0.33061 0.0
H454 H 0.10419 0.39029 0.33458 0.0
H455 H 0.02376 0.36722 0.34844 0.0
H456 H 0.09607 0.37458 0.36454 0.0
H457 H 0.92356 0.10765 0.29822 0.0
H458 H 0.89229 0.16396 0.29799 0.0
H459 H 0.96968 0.18249 0.28297 0.0
H460 H 0.87572 0.35045 0.29475 0.0
H461 H 0.06722 0.39686 0.26187 0.0
H462 H 0.89984 0.28713 0.34344 0.0
H463 H 0.85823 0.21682 0.32609 0.0
H464 H 0.83059 0.27576 0.32481 0.0
H465 H 0.13584 0.3445 0.30212 0.0
H466 H 0.13414 0.35158 0.27185 0.0
H467 H 0.08834 0.27381 0.28524 0.0
loop_
_geom_bond_atom_site_label_1
_geom_bond_atom_site_label_2
_geom_bond_distance
_geom_bond_site_symmetry_2
_ccdc_geom_bond_type
O0 Cd1 2.223 1_455 S
O0 C8 1.315 . S
Cd1 O0 2.223 1_655 S
Cd1 O4 2.297 . S
Cd1 O5 2.439 . S
Cd1 O11 2.240 1_545 S
Cd2 O3 2.240 1_565 S
Cd2 O10 2.223 1_455 S
Cd2 O12 2.297 . S
Cd2 O13 2.439 . S
O3 Cd2 2.240 1_545 S
O3 C8 1.279 . S
O4 Cd1 2.297 . S
O4 C6 1.247 . S
O5 Cd1 2.439 . S
O5 C6 1.208 . S
C6 O4 1.247 . S
C6 O5 1.208 . S
C7 O12 1.247 . S
C7 O13 1.208 . S
C8 O0 1.315 . S
C8 O3 1.279 . S
C9 O10 1.315 . S
C9 O11 1.279 . S
O10 Cd2 2.223 1_655 S
O10 C9 1.315 . S
O11 Cd1 2.240 1_565 S
O11 C9 1.279 . S
O12 Cd2 2.297 . S
O12 C7 1.247 . S
O13 Cd2 2.439 . S
O13 C7 1.208 . S
O14 Cd15 2.223 1_655 S
O14 C22 1.315 . S
Cd15 O14 2.223 1_455 S
Cd15 O18 2.297 . S
Cd15 O19 2.439 . S
Cd15 O25 2.240 . S
Cd16 O17 2.240 . S
Cd16 O24 2.223 1_655 S
Cd16 O26 2.297 . S
Cd16 O27 2.439 . S
O17 Cd16 2.240 . S
O17 C22 1.279 1_565 S
O18 Cd15 2.297 . S
O18 C20 1.247 . S
O19 Cd15 2.439 . S
O19 C20 1.208 . S
C20 O18 1.247 . S
C20 O19 1.208 . S
C21 O26 1.247 . S
C21 O27 1.208 . S
C22 O14 1.315 . S
C22 O17 1.279 1_545 S
C23 O24 1.315 . S
C23 O25 1.279 1_565 S
O24 Cd16 2.223 1_455 S
O24 C23 1.315 . S
O25 Cd15 2.240 . S
O25 C23 1.279 1_545 S
O26 Cd16 2.297 . S
O26 C21 1.247 . S
O27 Cd16 2.439 . S
O27 C21 1.208 . S
O28 Cd29 2.223 . S
O28 C36 1.315 . S
Cd29 O28 2.223 . S
Cd29 O32 2.297 . S
Cd29 O33 2.439 . S
Cd29 O39 2.240 1_655 S
Cd30 O31 2.240 1_455 S
Cd30 O38 2.223 . S
Cd30 O40 2.297 . S
Cd30 O41 2.439 . S
O31 Cd30 2.240 1_655 S
O31 C36 1.279 1_545 S
O32 Cd29 2.297 . S
O32 C34 1.247 . S
O33 Cd29 2.439 . S
O33 C34 1.208 . S
C34 O32 1.247 . S
C34 O33 1.208 . S
C35 O40 1.247 . S
C35 O41 1.208 . S
C36 O28 1.315 . S
C36 O31 1.279 1_565 S
C37 O38 1.315 . S
C37 O39 1.279 1_545 S
O38 Cd30 2.223 . S
O38 C37 1.315 . S
O39 Cd29 2.240 1_455 S
O39 C37 1.279 1_565 S
O40 Cd30 2.297 . S
O40 C35 1.247 . S
O41 Cd30 2.439 . S
O41 C35 1.208 . S
C42 O44 1.252 . S
C42 O46 1.255 1_455 S
C43 O50 1.248 . S
C43 O51 1.258 1_655 S
O44 C42 1.252 . S
O44 Zn45 2.028 . S
Zn45 O44 2.028 . S
Zn45 O49 2.035 . S
Zn45 O51 2.035 . S
Zn45 O52 2.028 . S
O46 C42 1.255 1_655 S
O46 Zn47 2.035 . S
Zn47 O46 2.035 . S
Zn47 O48 2.028 . S
Zn47 O50 2.028 . S
Zn47 O53 2.035 . S
O48 Zn47 2.028 . S
O48 C54 1.248 . S
O49 Zn45 2.035 . S
O49 C54 1.258 1_455 S
O50 C43 1.248 . S
O50 Zn47 2.028 . S
O51 C43 1.258 1_455 S
O51 Zn45 2.035 . S
O52 Zn45 2.028 . S
O52 C55 1.252 . S
O53 Zn47 2.035 . S
O53 C55 1.255 1_655 S
C54 O48 1.248 . S
C54 O49 1.258 1_655 S
C55 O52 1.252 . S
C55 O53 1.255 1_455 S
C56 O58 1.247 . S
C56 O60 1.258 1_565 S
C57 O64 1.250 . S
C57 O65 1.253 1_545 S
O58 C56 1.247 . S
O58 Zn59 2.028 . S
Zn59 O58 2.028 . S
Zn59 O63 2.035 . S
Zn59 O65 2.035 . S
Zn59 O66 2.028 . S
O60 C56 1.258 1_545 S
O60 Zn61 2.035 . S
Zn61 O60 2.035 . S
Zn61 O62 2.028 . S
Zn61 O64 2.028 . S
Zn61 O67 2.035 . S
O62 Zn61 2.028 . S
O62 C68 1.250 . S
O63 Zn59 2.035 . S
O63 C68 1.253 1_565 S
O64 C57 1.250 . S
O64 Zn61 2.028 . S
O65 C57 1.253 1_565 S
O65 Zn59 2.035 . S
O66 Zn59 2.028 . S
O66 C69 1.247 . S
O67 Zn61 2.035 . S
O67 C69 1.258 1_545 S
C68 O62 1.250 . S
C68 O63 1.253 1_545 S
C69 O66 1.247 . S
C69 O67 1.258 1_565 S
C70 O72 1.247 . S
C70 O74 1.258 . S
C71 O78 1.247 . S
C71 O79 1.258 . S
O72 C70 1.247 . S
O72 Zn73 2.028 . S
Zn73 O72 2.028 . S
Zn73 O77 2.035 . S
Zn73 O79 2.035 . S
Zn73 O80 2.028 . S
O74 C70 1.258 . S
O74 Zn75 2.035 . S
Zn75 O74 2.035 . S
Zn75 O76 2.028 . S
Zn75 O78 2.028 . S
Zn75 O81 2.035 . S
O76 Zn75 2.028 . S
O76 C82 1.247 . S
O77 Zn73 2.035 . S
O77 C82 1.258 . S
O78 C71 1.247 . S
O78 Zn75 2.028 . S
O79 C71 1.258 . S
O79 Zn73 2.035 . S
O80 Zn73 2.028 . S
O80 C83 1.247 . S
O81 Zn75 2.035 . S
O81 C83 1.258 . S
C82 O76 1.247 . S
C82 O77 1.258 . S
C83 O80 1.247 . S
C83 O81 1.258 . S
C84 C85 1.391 1_455 S
C84 C86 1.394 . S
C84 H100 0.931 . S
C85 C84 1.391 1_655 S
C85 C89 1.376 . S
C86 C84 1.394 . S
C86 C87 1.369 1_455 S
C86 C90 1.531 . S
C87 C86 1.369 1_655 S
C87 C88 1.410 . S
C87 C95 1.503 . S
C88 C87 1.410 . S
C88 C89 1.392 . S
C88 C91 1.511 . S
C89 C85 1.376 . S
C89 C88 1.392 . S
C89 H101 0.929 . S
C90 C86 1.531 . S
C90 H102 0.960 . S
C90 H103 0.962 . S
C90 H104 0.960 . S
C91 C88 1.511 . S
C91 H105 0.961 . S
C91 H106 0.961 . S
C91 H107 0.961 . S
C92 C93 1.370 1_455 S
C92 C94 1.363 . S
C92 H108 0.931 . S
C93 C92 1.370 1_655 S
C93 C97 1.408 . S
C94 C92 1.363 . S
C94 C95 1.370 1_455 S
C94 C98 1.524 . S
C95 C87 1.503 . S
C95 C94 1.370 1_655 S
C95 C96 1.403 . S
C96 C95 1.403 . S
C96 C97 1.404 . S
C96 C99 1.539 . S
C97 C93 1.408 . S
C97 C96 1.404 . S
C97 H109 0.930 . S
C98 C94 1.524 . S
C98 H110 0.956 . S
C98 H111 0.961 . S
C98 H112 0.961 . S
C99 C96 1.539 . S
C99 H113 0.958 . S
C99 H114 0.961 . S
C99 H115 0.960 . S
H100 C84 0.931 . S
H101 C89 0.929 . S
H102 C90 0.960 . S
H103 C90 0.962 . S
H104 C90 0.960 . S
H105 C91 0.961 . S
H106 C91 0.961 . S
H107 C91 0.961 . S
H108 C92 0.931 . S
H109 C97 0.930 . S
H110 C98 0.956 . S
H111 C98 0.961 . S
H112 C98 0.961 . S
H113 C99 0.958 . S
H114 C99 0.961 . S
H115 C99 0.960 . S
C116 C117 1.391 . S
C116 C118 1.394 . S
C116 H132 0.931 . S
C117 C116 1.391 . S
C117 C121 1.376 1_545 S
C118 C116 1.394 . S
C118 C119 1.369 . S
C118 C122 1.531 . S
C119 C118 1.369 . S
C119 C120 1.410 1_545 S
C119 C127 1.503 . S
C120 C119 1.410 1_565 S
C120 C121 1.392 . S
C120 C123 1.511 . S
C121 C117 1.376 1_565 S
C121 C120 1.392 . S
C121 H133 0.929 . S
C122 C118 1.531 . S
C122 H134 0.960 . S
C122 H135 0.962 . S
C122 H136 0.960 . S
C123 C120 1.511 . S
C123 H137 0.961 . S
C123 H138 0.961 . S
C123 H139 0.961 . S
C124 C125 1.361 1_565 S
C124 C126 1.363 . S
C124 H140 0.931 . S
C125 C124 1.361 1_545 S
C125 C129 1.413 . S
C126 C124 1.363 . S
C126 C127 1.370 1_565 S
C126 C130 1.524 . S
C127 C119 1.503 . S
C127 C126 1.370 1_545 S
C127 C128 1.403 . S
C128 C127 1.403 . S
C128 C129 1.404 . S
C128 C131 1.539 . S
C129 C125 1.413 . S
C129 C128 1.404 . S
C129 H141 0.930 . S
C130 C126 1.524 . S
C130 H142 0.956 1_565 S
C130 H143 0.961 . S
C130 H144 0.961 . S
C131 C128 1.539 . S
C131 H145 0.958 . S
C131 H146 0.961 . S
C131 H147 0.960 . S
H132 C116 0.931 . S
H133 C121 0.929 . S
H134 C122 0.960 . S
H135 C122 0.962 . S
H136 C122 0.960 . S
H137 C123 0.961 . S
H138 C123 0.961 . S
H139 C123 0.961 . S
H140 C124 0.931 . S
H141 C129 0.930 . S
H142 C130 0.956 1_545 S
H143 C130 0.961 . S
H144 C130 0.961 . S
H145 C131 0.958 . S
H146 C131 0.961 . S
H147 C131 0.960 . S
C148 C149 1.391 . S
C148 C150 1.394 . S
C148 H164 0.931 . S
C149 C148 1.391 . S
C149 C153 1.376 . S
C150 C148 1.394 . S
C150 C151 1.369 . S
C150 C154 1.531 . S
C151 C150 1.369 . S
C151 C152 1.410 . S
C151 C159 1.503 . S
C152 C151 1.410 . S
C152 C153 1.392 . S
C152 C155 1.511 . S
C153 C149 1.376 . S
C153 C152 1.392 . S
C153 H165 0.929 . S
C154 C150 1.531 . S
C154 H166 0.960 . S
C154 H167 0.962 . S
C154 H168 0.960 . S
C155 C152 1.511 . S
C155 H169 0.961 . S
C155 H170 0.961 . S
C155 H171 0.961 . S
C156 C157 1.370 . S
C156 C158 1.363 . S
C156 H172 0.931 . S
C157 C156 1.370 . S
C157 C161 1.408 . S
C158 C156 1.363 . S
C158 C159 1.370 . S
C158 C162 1.524 . S
C159 C151 1.503 . S
C159 C158 1.370 . S
C159 C160 1.403 . S
C160 C159 1.403 . S
C160 C161 1.404 . S
C160 C163 1.539 . S
C161 C157 1.408 . S
C161 C160 1.404 . S
C161 H173 0.930 . S
C162 C158 1.524 . S
C162 H174 0.956 . S
C162 H175 0.961 . S
C162 H176 0.961 . S
C163 C160 1.539 . S
C163 H177 0.958 . S
C163 H178 0.961 . S
C163 H179 0.960 . S
H164 C148 0.931 . S
H165 C153 0.929 . S
H166 C154 0.960 . S
H167 C154 0.962 . S
H168 C154 0.960 . S
H169 C155 0.961 . S
H170 C155 0.961 . S
H171 C155 0.961 . S
H172 C156 0.931 . S
H173 C161 0.930 . S
H174 C162 0.956 . S
H175 C162 0.961 . S
H176 C162 0.961 . S
H177 C163 0.958 . S
H178 C163 0.961 . S
H179 C163 0.960 . S
C180 C181 1.391 . S
C180 C182 1.394 . S
C180 H196 0.931 . S
C181 C180 1.391 . S
C181 C185 1.376 . S
C182 C180 1.394 . S
C182 C183 1.369 . S
C182 C186 1.531 . S
C183 C182 1.369 . S
C183 C184 1.410 . S
C183 C191 1.503 . S
C184 C183 1.410 . S
C184 C185 1.392 . S
C184 C187 1.511 . S
C185 C181 1.376 . S
C185 C184 1.392 . S
C185 H197 0.929 . S
C186 C182 1.531 . S
C186 H198 0.960 . S
C186 H199 0.962 1_455 S
C186 H200 0.960 . S
C187 C184 1.511 . S
C187 H201 0.961 1_455 S
C187 H202 0.961 1_455 S
C187 H203 0.961 . S
C188 C189 1.370 1_655 S
C188 C190 1.363 . S
C188 H204 0.931 . S
C189 C188 1.370 1_455 S
C189 C193 1.408 . S
C190 C188 1.363 . S
C190 C191 1.370 1_655 S
C190 C194 1.524 . S
C191 C183 1.503 . S
C191 C190 1.370 1_455 S
C191 C192 1.403 . S
C192 C191 1.403 . S
C192 C193 1.404 . S
C192 C195 1.539 . S
C193 C189 1.408 . S
C193 C192 1.404 . S
C193 H205 0.930 . S
C194 C190 1.524 . S
C194 H206 0.956 . S
C194 H207 0.961 . S
C194 H208 0.961 . S
C195 C192 1.539 . S
C195 H209 0.958 . S
C195 H210 0.961 . S
C195 H211 0.960 . S
H196 C180 0.931 . S
H197 C185 0.929 . S
H198 C186 0.960 . S
H199 C186 0.962 1_655 S
H200 C186 0.960 . S
H201 C187 0.961 1_655 S
H202 C187 0.961 1_655 S
H203 C187 0.961 . S
H204 C188 0.931 . S
H205 C193 0.930 . S
H206 C194 0.956 . S
H207 C194 0.961 . S
H208 C194 0.961 . S
H209 C195 0.958 . S
H210 C195 0.961 . S
H211 C195 0.960 . S
C212 C213 1.391 1_545 S
C212 C214 1.394 . S
C212 H228 0.931 . S
C213 C212 1.391 1_565 S
C213 C217 1.376 . S
C214 C212 1.394 . S
C214 C215 1.369 1_545 S
C214 C218 1.531 . S
C215 C214 1.369 1_565 S
C215 C216 1.410 . S
C215 C223 1.503 . S
C216 C215 1.410 . S
C216 C217 1.392 . S
C216 C219 1.511 . S
C217 C213 1.376 . S
C217 C216 1.392 . S
C217 H229 0.929 . S
C218 C214 1.531 . S
C218 H230 0.960 . S
C218 H231 0.962 . S
C218 H232 0.960 . S
C219 C216 1.511 . S
C219 H233 0.961 . S
C219 H234 0.961 . S
C219 H235 0.961 . S
C220 C221 1.370 1_545 S
C220 C222 1.363 . S
C220 H236 0.931 . S
C221 C220 1.370 1_565 S
C221 C225 1.408 . S
C222 C220 1.363 . S
C222 C223 1.370 1_545 S
C222 C226 1.524 . S
C223 C215 1.503 . S
C223 C222 1.370 1_565 S
C223 C224 1.403 . S
C224 C223 1.403 . S
C224 C225 1.404 . S
C224 C227 1.539 . S
C225 C221 1.408 . S
C225 C224 1.404 . S
C225 H237 0.930 . S
C226 C222 1.524 . S
C226 H238 0.956 . S
C226 H239 0.961 . S
C226 H240 0.961 . S
C227 C224 1.539 . S
C227 H241 0.958 . S
C227 H242 0.961 . S
C227 H243 0.960 . S
H228 C212 0.931 . S
H229 C217 0.929 . S
H230 C218 0.960 . S
H231 C218 0.962 . S
H232 C218 0.960 . S
H233 C219 0.961 . S
H234 C219 0.961 . S
H235 C219 0.961 . S
H236 C220 0.931 . S
H237 C225 0.930 . S
H238 C226 0.956 . S
H239 C226 0.961 . S
H240 C226 0.961 . S
H241 C227 0.958 . S
H242 C227 0.961 . S
H243 C227 0.960 . S
C244 C245 1.391 . S
C244 C246 1.394 . S
C244 H260 0.931 . S
C245 C244 1.391 . S
C245 C249 1.376 . S
C246 C244 1.394 . S
C246 C247 1.369 . S
C246 C250 1.531 . S
C247 C246 1.369 . S
C247 C248 1.410 . S
C247 C255 1.503 . S
C248 C247 1.410 . S
C248 C249 1.392 . S
C248 C251 1.511 . S
C249 C245 1.376 . S
C249 C248 1.392 . S
C249 H261 0.929 . S
C250 C246 1.531 . S
C250 H262 0.960 . S
C250 H263 0.962 . S
C250 H264 0.960 . S
C251 C248 1.511 . S
C251 H265 0.961 . S
C251 H266 0.961 . S
C251 H267 0.961 . S
C252 C253 1.370 . S
C252 C254 1.363 . S
C252 H268 0.931 . S
C253 C252 1.370 . S
C253 C257 1.408 . S
C254 C252 1.363 . S
C254 C255 1.370 . S
C254 C258 1.524 . S
C255 C247 1.503 . S
C255 C254 1.370 . S
C255 C256 1.403 . S
C256 C255 1.403 . S
C256 C257 1.404 . S
C256 C259 1.539 . S
C257 C253 1.408 . S
C257 C256 1.404 . S
C257 H269 0.930 . S
C258 C254 1.524 . S
C258 H270 0.956 . S
C258 H271 0.961 . S
C258 H272 0.961 . S
C259 C256 1.539 . S
C259 H273 0.958 . S
C259 H274 0.961 . S
C259 H275 0.960 . S
H260 C244 0.931 . S
H261 C249 0.929 . S
H262 C250 0.960 . S
H263 C250 0.962 . S
H264 C250 0.960 . S
H265 C251 0.961 . S
H266 C251 0.961 . S
H267 C251 0.961 . S
H268 C252 0.931 . S
H269 C257 0.930 . S
H270 C258 0.956 . S
H271 C258 0.961 . S
H272 C258 0.961 . S
H273 C259 0.958 . S
H274 C259 0.961 . S
H275 C259 0.960 . S
C276 C277 1.391 . S
C276 C278 1.394 . S
C276 H292 0.931 . S
C277 C276 1.391 . S
C277 C281 1.376 1_565 S
C278 C276 1.394 . S
C278 C279 1.369 1_565 S
C278 C282 1.531 . S
C279 C278 1.369 1_545 S
C279 C280 1.410 . S
C279 C287 1.503 . S
C280 C279 1.410 . S
C280 C281 1.392 . S
C280 C283 1.511 . S
C281 C277 1.376 1_545 S
C281 C280 1.392 . S
C281 H293 0.929 . S
C282 C278 1.531 . S
C282 H294 0.960 . S
C282 H295 0.962 . S
C282 H296 0.960 . S
C283 C280 1.511 . S
C283 H297 0.961 . S
C283 H298 0.961 . S
C283 H299 0.961 . S
C284 C285 1.370 1_565 S
C284 C286 1.363 . S
C284 H300 0.931 . S
C285 C284 1.370 1_545 S
C285 C289 1.408 . S
C286 C284 1.363 . S
C286 C287 1.370 1_565 S
C286 C290 1.524 . S
C287 C279 1.503 . S
C287 C286 1.370 1_545 S
C287 C288 1.403 . S
C288 C287 1.403 . S
C288 C289 1.404 . S
C288 C291 1.539 . S
C289 C285 1.408 . S
C289 C288 1.404 . S
C289 H301 0.930 . S
C290 C286 1.524 . S
C290 H302 0.956 . S
C290 H303 0.961 . S
C290 H304 0.961 . S
C291 C288 1.539 . S
C291 H305 0.958 . S
C291 H306 0.961 . S
C291 H307 0.960 . S
H292 C276 0.931 . S
H293 C281 0.929 . S
H294 C282 0.960 . S
H295 C282 0.962 . S
H296 C282 0.960 . S
H297 C283 0.961 . S
H298 C283 0.961 . S
H299 C283 0.961 . S
H300 C284 0.931 . S
H301 C289 0.930 . S
H302 C290 0.956 . S
H303 C290 0.961 . S
H304 C290 0.961 . S
H305 C291 0.958 . S
H306 C291 0.961 . S
H307 C291 0.960 . S
C308 C309 1.391 . S
C308 C310 1.394 1_554 S
C308 H324 0.931 . S
C309 C308 1.391 . S
C309 C313 1.361 1_554 S
C310 C308 1.394 1_556 S
C310 C311 1.369 . S
C310 C314 1.532 . S
C311 C310 1.369 . S
C311 C312 1.410 . S
C311 C319 1.503 . S
C312 C311 1.410 . S
C312 C313 1.408 . S
C312 C315 1.511 . S
C313 C309 1.361 1_556 S
C313 C312 1.408 . S
C313 H325 0.929 . S
C314 C310 1.532 . S
C314 H326 0.971 . S
C314 H327 1.000 . S
C314 H328 0.914 1_556 S
C315 C312 1.511 . S
C315 H329 0.961 . S
C315 H330 0.961 . S
C315 H331 0.961 . S
C316 C317 1.370 . S
C316 C318 1.363 . S
C316 H332 0.931 . S
C317 C316 1.370 . S
C317 C321 1.408 . S
C318 C316 1.363 . S
C318 C319 1.370 . S
C318 C322 1.524 . S
C319 C311 1.503 . S
C319 C318 1.370 . S
C319 C320 1.403 . S
C320 C319 1.403 . S
C320 C321 1.404 . S
C320 C323 1.585 . S
C321 C317 1.408 . S
C321 C320 1.404 . S
C321 H333 0.930 . S
C322 C318 1.524 . S
C322 H334 0.956 . S
C322 H335 0.961 . S
C322 H336 0.961 . S
C323 C320 1.585 . S
C323 H337 0.927 1_556 S
C323 H338 0.967 . S
C323 H339 0.943 1_556 S
H324 C308 0.931 . S
H325 C313 0.929 . S
H326 C314 0.971 . S
H327 C314 1.000 . S
H328 C314 0.914 1_554 S
H329 C315 0.961 . S
H330 C315 0.961 . S
H331 C315 0.961 . S
H332 C316 0.931 . S
H333 C321 0.930 . S
H334 C322 0.956 . S
H335 C322 0.961 . S
H336 C322 0.961 . S
H337 C323 0.927 1_554 S
H338 C323 0.967 . S
H339 C323 0.943 1_554 S
C340 C341 1.391 . S
C340 C342 1.394 . S
C340 H356 0.931 . S
C341 C340 1.391 . S
C341 C345 1.376 1_455 S
C342 C340 1.394 . S
C342 C343 1.369 . S
C342 C346 1.531 . S
C343 C342 1.369 . S
C343 C344 1.410 1_455 S
C343 C351 1.497 . S
C344 C343 1.410 1_655 S
C344 C345 1.392 . S
C344 C347 1.511 . S
C345 C341 1.376 1_655 S
C345 C344 1.392 . S
C345 H357 0.929 . S
C346 C342 1.531 . S
C346 H358 0.960 . S
C346 H359 0.962 . S
C346 H360 0.960 . S
C347 C344 1.511 . S
C347 H361 0.961 . S
C347 H362 0.961 . S
C347 H363 0.961 . S
C348 C349 1.371 1_455 S
C348 C350 1.363 . S
C348 H364 0.931 . S
C349 C348 1.371 1_655 S
C349 C353 1.408 . S
C350 C348 1.363 . S
C350 C351 1.371 . S
C350 C354 1.524 . S
C351 C343 1.497 . S
C351 C350 1.371 . S
C351 C352 1.409 1_455 S
C352 C351 1.409 1_655 S
C352 C353 1.404 . S
C352 C355 1.539 . S
C353 C349 1.408 . S
C353 C352 1.404 . S
C353 H365 0.930 . S
C354 C350 1.524 . S
C354 H366 0.956 . S
C354 H367 0.961 1_455 S
C354 H368 0.961 . S
C355 C352 1.539 . S
C355 H369 0.958 1_655 S
C355 H370 0.961 . S
C355 H371 0.960 . S
H356 C340 0.931 . S
H357 C345 0.929 . S
H358 C346 0.960 . S
H359 C346 0.962 . S
H360 C346 0.960 . S
H361 C347 0.961 . S
H362 C347 0.961 . S
H363 C347 0.961 . S
H364 C348 0.931 . S
H365 C353 0.930 . S
H366 C354 0.956 . S
H367 C354 0.961 1_655 S
H368 C354 0.961 . S
H369 C355 0.958 1_455 S
H370 C355 0.961 . S
H371 C355 0.960 . S
C372 C373 1.391 . S
C372 C374 1.394 . S
C372 H388 0.931 . S
C373 C372 1.391 . S
C373 C377 1.376 1_545 S
C374 C372 1.394 . S
C374 C375 1.369 . S
C374 C378 1.531 . S
C375 C374 1.369 . S
C375 C376 1.410 1_545 S
C375 C383 1.503 . S
C376 C375 1.410 1_565 S
C376 C377 1.392 . S
C376 C379 1.511 . S
C377 C373 1.376 1_565 S
C377 C376 1.392 . S
C377 H389 0.929 . S
C378 C374 1.531 . S
C378 H390 0.960 . S
C378 H391 0.962 . S
C378 H392 0.960 . S
C379 C376 1.511 . S
C379 H393 0.961 . S
C379 H394 0.961 . S
C379 H395 0.961 . S
C380 C381 1.370 1_565 S
C380 C382 1.363 . S
C380 H396 0.931 . S
C381 C380 1.370 1_545 S
C381 C385 1.408 . S
C382 C380 1.363 . S
C382 C383 1.370 1_565 S
C382 C386 1.524 . S
C383 C375 1.503 . S
C383 C382 1.370 1_545 S
C383 C384 1.403 . S
C384 C383 1.403 . S
C384 C385 1.404 . S
C384 C387 1.539 . S
C385 C381 1.408 . S
C385 C384 1.404 . S
C385 H397 0.930 . S
C386 C382 1.524 . S
C386 H398 0.956 . S
C386 H399 0.961 . S
C386 H400 0.961 . S
C387 C384 1.539 . S
C387 H401 0.958 . S
C387 H402 0.961 . S
C387 H403 0.960 . S
H388 C372 0.931 . S
H389 C377 0.929 . S
H390 C378 0.960 . S
H391 C378 0.962 . S
H392 C378 0.960 . S
H393 C379 0.961 . S
H394 C379 0.961 . S
H395 C379 0.961 . S
H396 C380 0.931 . S
H397 C385 0.930 . S
H398 C386 0.956 . S
H399 C386 0.961 . S
H400 C386 0.961 . S
H401 C387 0.958 . S
H402 C387 0.961 . S
H403 C387 0.960 . S
C404 C405 1.391 . S
C404 C406 1.394 1_554 S
C404 H420 0.931 . S
C405 C404 1.391 . S
C405 C409 1.376 1_554 S
C406 C404 1.394 1_556 S
C406 C407 1.369 . S
C406 C410 1.531 . S
C407 C406 1.369 . S
C407 C408 1.410 . S
C407 C415 1.503 . S
C408 C407 1.410 . S
C408 C409 1.392 . S
C408 C411 1.511 . S
C409 C405 1.376 1_556 S
C409 C408 1.392 . S
C409 H421 0.929 . S
C410 C406 1.531 . S
C410 H422 0.960 . S
C410 H423 0.962 . S
C410 H424 0.960 . S
C411 C408 1.511 . S
C411 H425 0.961 . S
C411 H426 0.961 . S
C411 H427 0.961 . S
C412 C413 1.370 . S
C412 C414 1.363 . S
C412 H428 0.931 . S
C413 C412 1.370 . S
C413 C417 1.408 . S
C414 C412 1.363 . S
C414 C415 1.370 . S
C414 C418 1.524 . S
C415 C407 1.503 . S
C415 C414 1.370 . S
C415 C416 1.403 . S
C416 C415 1.403 . S
C416 C417 1.404 . S
C416 C419 1.539 . S
C417 C413 1.408 . S
C417 C416 1.404 . S
C417 H429 0.930 . S
C418 C414 1.524 . S
C418 H430 0.956 1_556 S
C418 H431 0.960 1_556 S
C418 H432 0.959 1_556 S
C419 C416 1.539 . S
C419 H433 0.958 . S
C419 H434 0.961 . S
C419 H435 0.960 . S
H420 C404 0.931 . S
H421 C409 0.929 . S
H422 C410 0.960 . S
H423 C410 0.962 . S
H424 C410 0.960 . S
H425 C411 0.961 . S
H426 C411 0.961 . S
H427 C411 0.961 . S
H428 C412 0.931 . S
H429 C417 0.930 . S
H430 C418 0.956 1_554 S
H431 C418 0.960 1_554 S
H432 C418 0.959 1_554 S
H433 C419 0.958 . S
H434 C419 0.961 . S
H435 C419 0.960 . S
C436 C437 1.398 . S
C436 C438 1.394 . S
C436 H452 0.931 . S
C437 C436 1.398 . S
C437 C441 1.371 1_655 S
C438 C436 1.394 . S
C438 C439 1.369 1_655 S
C438 C442 1.531 . S
C439 C438 1.369 1_455 S
C439 C440 1.410 . S
C439 C447 1.503 . S
C440 C439 1.410 . S
C440 C441 1.392 . S
C440 C443 1.511 . S
C441 C437 1.371 1_455 S
C441 C440 1.392 . S
C441 H453 0.929 . S
C442 C438 1.531 . S
C442 H454 0.960 . S
C442 H455 0.962 . S
C442 H456 0.960 . S
C443 C440 1.511 . S
C443 H457 0.961 . S
C443 H458 0.961 . S
C443 H459 0.961 . S
C444 C445 1.370 1_655 S
C444 C446 1.363 . S
C444 H460 0.931 . S
C445 C444 1.370 1_455 S
C445 C449 1.408 . S
C446 C444 1.363 . S
C446 C447 1.370 1_655 S
C446 C450 1.524 . S
C447 C439 1.503 . S
C447 C446 1.370 1_455 S
C447 C448 1.403 . S
C448 C447 1.403 . S
C448 C449 1.404 . S
C448 C451 1.539 . S
C449 C445 1.408 . S
C449 C448 1.404 . S
C449 H461 0.930 . S
C450 C446 1.524 . S
C450 H462 0.956 . S
C450 H463 0.961 . S
C450 H464 0.961 . S
C451 C448 1.539 . S
C451 H465 0.958 . S
C451 H466 0.961 . S
C451 H467 0.960 . S
H452 C436 0.931 . S
H453 C441 0.929 . S
H454 C442 0.960 . S
H455 C442 0.962 . S
H456 C442 0.960 . S
H457 C443 0.961 . S
H458 C443 0.961 . S
H459 C443 0.961 . S
H460 C444 0.931 . S
H461 C449 0.930 . S
H462 C450 0.956 . S
H463 C450 0.961 . S
H464 C450 0.961 . S
H465 C451 0.958 . S
H466 C451 0.961 . S
H467 C451 0.960 . S
C93 C43 1.468 . S
C85 C6 1.432 . S
C117 C22 1.519 . S
C125 C69 1.560 1_545 S
C149 C34 1.287 . S
C157 C71 1.289 . S
C181 C7 1.438 . S
C189 C55 1.470 . S
C221 C57 1.556 1_565 S
C213 C23 1.513 . S
C245 C35 1.244 . S
C253 C83 1.281 . S
C285 C56 1.553 1_545 S
C277 C36 1.546 . S
C309 C9 1.721 . S
C317 C82 1.760 . S
C349 C42 1.462 1_655 S
C341 C21 1.431 1_455 S
C381 C68 1.554 . S
C373 C37 1.519 . S
C413 C70 1.760 . S
C405 C8 1.732 . S
C437 C20 1.421 1_655 S
C445 C54 1.464 1_455 S
