# Generated by pormake.
# Topology pts, (4,4)-cn, num edge types: 1
# Building blocks:
#     Node 0, Type 0, BuildingBlock: KOZSID_clean_sbu_0, # of connection points: 4
#     Node 1, Type 0, BuildingBlock: KOZSID_clean_sbu_0, # of connection points: 4
#     Node 2, Type 1, BuildingBlock: UXUYUI_clean_sbu_0, # of connection points: 4
#     Node 3, Type 1, BuildingBlock: UXUYUI_clean_sbu_0, # of connection points: 4
#     Edge 4, Type (0, 1), BuildingBlock: XUDNAN_clean_linker_2, # of connection points: 2
#     Edge 5, Type (0, 1), BuildingBlock: XUDNAN_clean_linker_2, # of connection points: 2
#     Edge 6, Type (0, 1), BuildingBlock: XUDNAN_clean_linker_2, # of connection points: 2
#     Edge 7, Type (0, 1), BuildingBlock: XUDNAN_clean_linker_2, # of connection points: 2
#     Edge 8, Type (0, 1), BuildingBlock: XUDNAN_clean_linker_2, # of connection points: 2
#     Edge 9, Type (0, 1), BuildingBlock: XUDNAN_clean_linker_2, # of connection points: 2
#     Edge 10, Type (0, 1), BuildingBlock: XUDNAN_clean_linker_2, # of connection points: 2
#     Edge 11, Type (0, 1), BuildingBlock: XUDNAN_clean_linker_2, # of connection points: 2
# Relax obj value: 0.000
# Max RMSD: 0.022
# Mean RMSD: 0.015
data_MOF--net-pts--node1-KOZSID_clean_sbu_0--node2-UXUYUI_clean_sbu_0--edge1-XUDNAN_clean_linker_2
_symmetry_space_group_name_H-M    P1
_symmetry_Int_Tables_number       1
_symmetry_cell_setting            triclinic
loop_
_symmetry_equiv_pos_as_xyz
'x, y, z'
_cell_length_a     32.741313
_cell_length_b     32.843136
_cell_length_c     47.633568
_cell_angle_alpha  86.96772
_cell_angle_beta   93.115384
_cell_angle_gamma 90.038018
loop_
_atom_site_label
_atom_site_type_symbol
_atom_site_fract_x
_atom_site_fract_y
_atom_site_fract_z
_atom_type_partial_charge
C0 C 0.6182 0.08193 0.0545 0.0
C1 C 0.63054 0.11872 0.0652 0.0
C2 C 0.60512 0.14794 0.05257 0.0
C3 C 0.57885 0.12737 0.03498 0.0
N4 N 0.58524 0.08664 0.03608 0.0
Co5 Co 0.55636 0.04574 0.01228 0.0
N6 N 0.52232 0.08927 0.99108 0.0
C7 C 0.522 0.12942 0.99615 0.0
C8 C 0.49347 0.1516 0.97976 0.0
C9 C 0.47406 0.12399 0.96335 0.0
C10 C 0.49222 0.08636 0.9705 0.0
N11 N 0.52855 1.00494 0.98776 0.0
C12 C 0.49901 0.01008 0.96669 0.0
C13 C 0.48915 0.97345 0.95473 0.0
C14 C 0.5127 0.94408 0.96902 0.0
C15 C 0.53579 0.96433 0.98866 0.0
N16 N 0.58951 1.00213 0.03414 0.0
C17 C 0.5866 0.96145 0.03143 0.0
C18 C 0.61435 0.93924 0.04856 0.0
C19 C 0.63679 0.96744 0.06274 0.0
C20 C 0.62135 1.00538 0.05339 0.0
N21 N 0.51228 0.0389 0.03963 0.0
C22 C 0.44224 0.0305 0.0718 0.0
C23 C 0.45968 0.99685 0.06022 0.0
C24 C 0.4945 1.0016 0.04464 0.0
C25 C 0.46203 0.06801 0.06853 0.0
C26 C 0.49673 0.07151 0.05252 0.0
N27 N 0.60011 0.05253 0.98492 0.0
C28 C 0.65356 0.0239 0.95861 0.0
C29 C 0.66354 0.06239 0.94709 0.0
C30 C 0.64119 0.09588 0.9549 0.0
C31 C 0.61009 0.09038 0.97381 0.0
C32 C 0.62181 0.01964 0.97709 0.0
H33 H 0.59458 0.11718 0.97925 0.0
H34 H 0.61534 0.98937 0.98477 0.0
H35 H 0.5058 0.97466 0.03633 0.0
H36 H 0.50971 0.10113 0.05034 0.0
C37 C 0.54904 0.14548 0.01634 0.0
C38 C 0.63991 0.04369 0.06155 0.0
C39 C 0.47912 0.04876 0.95752 0.0
C40 C 0.56214 0.94573 0.00961 0.0
H41 H 0.65592 0.12391 0.08011 0.0
H42 H 0.60638 0.18044 0.05528 0.0
H43 H 0.48723 0.18395 0.97993 0.0
H44 H 0.44897 0.13082 0.94811 0.0
H45 H 0.46687 0.96835 0.93767 0.0
H46 H 0.5124 0.91169 0.96585 0.0
H47 H 0.61928 0.9066 0.04943 0.0
H48 H 0.66264 0.96089 0.07739 0.0
H49 H 0.44614 0.96686 0.06281 0.0
H50 H 0.44988 0.09497 0.07728 0.0
H51 H 0.66961 0.99696 0.95292 0.0
H52 H 0.64797 0.12639 0.9467 0.0
C53 C 0.08063 0.48937 0.55768 0.0
C54 C 0.11855 0.47587 0.5689 0.0
C55 C 0.14724 0.49644 0.55402 0.0
C56 C 0.12534 0.5213 0.53469 0.0
N57 N 0.08436 0.51825 0.53649 0.0
Co58 Co 0.04134 0.5477 0.51155 0.0
N59 N 0.08363 0.57712 0.48922 0.0
C60 C 0.12469 0.5729 0.49266 0.0
C61 C 0.14588 0.59912 0.47546 0.0
C62 C 0.11663 0.62218 0.46058 0.0
C63 C 0.0792 0.60855 0.46962 0.0
N64 N 0.99835 0.57697 0.48646 0.0
C65 C 1.0022 0.60834 0.46708 0.0
C66 C 0.96453 0.62151 0.45532 0.0
C67 C 0.93569 0.59824 0.4682 0.0
C68 C 0.95734 0.57228 0.48698 0.0
N69 N 0.9989 0.51877 0.5341 0.0
C70 C 0.95778 0.52237 0.53002 0.0
C71 C 0.93644 0.49799 0.54828 0.0
C72 C 0.96558 0.47729 0.5649 0.0
C73 C 1.00323 0.49032 0.55582 0.0
N74 N 0.04164 0.59367 0.53726 0.0
C75 C 0.04076 0.66571 0.56721 0.0
C76 C 1.00445 0.64675 0.55837 0.0
C77 C 1.00557 0.61104 0.5438 0.0
C78 C 0.07767 0.64659 0.56227 0.0
C79 C 0.07742 0.6108 0.54732 0.0
N80 N 0.04094 0.5016 0.48569 0.0
C81 C 1.00374 0.4479 0.46248 0.0
C82 C 0.03994 0.43039 0.45469 0.0
C83 C 0.07664 0.4503 0.46132 0.0
C84 C 0.07647 0.48552 0.47683 0.0
C85 C 1.00488 0.48333 0.47746 0.0
H86 H 0.10553 0.49857 0.48193 0.0
H87 H 0.97609 0.49474 0.48262 0.0
H88 H 0.97675 0.59864 0.53736 0.0
H89 H 0.10648 0.59808 0.54345 0.0
C90 C 0.14234 0.54688 0.51408 0.0
C91 C 0.04208 0.47341 0.56769 0.0
C92 C 0.04054 0.62833 0.46057 0.0
C93 C 0.94013 0.54712 0.50779 0.0
H94 H 0.12482 0.45313 0.58587 0.0
H95 H 0.18014 0.49319 0.5567 0.0
H96 H 0.17872 0.60236 0.47477 0.0
H97 H 0.1222 0.64715 0.44554 0.0
H98 H 0.95858 0.64637 0.43979 0.0
H99 H 0.9028 0.60135 0.46528 0.0
H100 H 0.90359 0.49486 0.54896 0.0
H101 H 0.95975 0.45448 0.58144 0.0
H102 H 0.97505 0.6598 0.56229 0.0
H103 H 0.10661 0.66002 0.56887 0.0
H104 H 0.97446 0.43395 0.45732 0.0
H105 H 0.10549 0.43786 0.4556 0.0
Li106 Li 0.05306 0.08125 0.27858 0.0
Li107 Li 0.04899 1.00125 0.28131 0.0
Li108 Li 0.08686 0.04049 0.24497 0.0
Li109 Li 0.01504 0.04192 0.24197 0.0
C110 C 0.13838 0.04113 0.28934 0.0
N111 N 0.22273 0.04492 0.29217 0.0
C112 C 0.16149 0.00564 0.28787 0.0
C113 C 0.15807 0.07852 0.29241 0.0
C114 C 0.20414 0.00821 0.28927 0.0
C115 C 0.20078 0.0798 0.2938 0.0
C116 C 0.96411 0.04983 0.2827 0.0
C117 C 0.8952 0.02492 0.2862 0.0
N118 N 0.88072 0.06332 0.2799 0.0
C119 C 0.9486 0.08906 0.27636 0.0
C120 C 0.93729 0.01747 0.28774 0.0
C121 C 0.90631 0.09525 0.275 0.0
C122 C 0.04262 0.16531 0.29249 0.0
N123 N 0.0534 0.1269 0.30229 0.0
C124 C 0.0617 0.14896 0.34935 0.0
C125 C 0.06319 0.11841 0.33008 0.0
C126 C 0.05026 0.18884 0.33999 0.0
C127 C 0.04125 0.19701 0.31104 0.0
H128 H 0.03423 0.17119 0.27037 0.0
H129 H 0.07145 0.0876 0.33735 0.0
C130 C 0.07016 0.92083 0.3039 0.0
N131 N 0.04725 0.95458 0.30734 0.0
C132 C 0.06923 0.88726 0.32331 0.0
C133 C 0.02092 0.92366 0.34925 0.0
C134 C 0.02293 0.95651 0.32946 0.0
C135 C 0.0445 0.88839 0.34653 0.0
H136 H 0.08935 0.92008 0.28615 0.0
H137 H 1.00514 0.98373 0.33182 0.0
C138 C 0.07167 0.11176 0.21725 0.0
N139 N 0.11344 0.15565 0.17689 0.0
C140 C 0.0702 0.09978 0.18949 0.0
C141 C 0.09416 0.14624 0.22445 0.0
C142 C 0.09163 0.12229 0.16941 0.0
C143 C 0.11508 0.16801 0.20373 0.0
C144 C 0.02905 0.96804 0.2234 0.0
C145 C 0.02877 0.97559 0.19423 0.0
C146 C 1.00726 0.93492 0.23455 0.0
C147 C 1.00607 0.95021 0.17668 0.0
C148 C 0.985 0.91019 0.21629 0.0
N149 N 0.98482 0.91833 0.18798 0.0
C150 C 0.13973 1.0018 0.20966 0.0
C151 C 0.16323 0.0675 0.22053 0.0
C152 C 0.17181 0.99717 0.1919 0.0
N153 N 0.13536 0.03689 0.22312 0.0
C154 C 0.19557 0.0644 0.20262 0.0
C155 C 0.19984 0.0291 0.18751 0.0
H156 H 0.11802 0.97735 0.2125 0.0
H157 H 0.16007 0.09476 0.23192 0.0
C158 C 0.96129 0.07677 0.19819 0.0
N159 N 0.9661 0.04396 0.21672 0.0
C160 C 0.92792 0.07924 0.17856 0.0
C161 C 0.90378 0.01488 0.19797 0.0
C162 C 0.9377 0.01364 0.21723 0.0
C163 C 0.89879 0.04776 0.17795 0.0
H164 H 0.98351 0.10108 0.19852 0.0
H165 H 0.94148 0.98815 0.23241 0.0
O166 O 0.09665 0.03943 0.28735 0.0
O167 O 1.00533 0.04307 0.28343 0.0
O168 O 0.05091 0.09009 0.23722 0.0
O169 O 0.05098 0.99261 0.24093 0.0
H170 H 0.1466 0.97652 0.28536 0.0
H171 H 0.14053 0.10628 0.29343 0.0
H172 H 0.22246 0.98104 0.28798 0.0
H173 H 0.21648 0.10853 0.29604 0.0
H174 H 0.87404 1.00015 0.28989 0.0
H175 H 0.96901 0.11435 0.27222 0.0
H176 H 0.94883 0.98684 0.29237 0.0
H177 H 0.89384 0.12541 0.26998 0.0
H178 H 0.06912 0.14138 0.37145 0.0
H179 H 0.0318 0.2272 0.303 0.0
H180 H 0.08833 0.86107 0.32042 0.0
H181 H 1.00084 0.92589 0.36643 0.0
H182 H 0.05283 0.07329 0.18355 0.0
H183 H 0.09601 0.15571 0.24587 0.0
H184 H 0.09093 0.11323 0.14788 0.0
H185 H 0.13281 0.1946 0.20903 0.0
H186 H 0.04583 1.00082 0.18526 0.0
H187 H 1.00709 0.92866 0.25706 0.0
H188 H 1.00537 0.95584 0.15408 0.0
H189 H 0.96776 0.88462 0.22462 0.0
H190 H 0.17436 0.96877 0.18158 0.0
H191 H 0.2162 0.08992 0.20007 0.0
H192 H 0.92495 0.10569 0.16402 0.0
H193 H 0.88227 0.98982 0.19833 0.0
Li194 Li 0.02497 0.05359 0.78024 0.0
Li195 Li 0.10065 0.0502 0.77966 0.0
Li196 Li 0.05952 0.0949 0.74278 0.0
Li197 Li 0.06103 0.01893 0.74161 0.0
C198 C 0.05142 0.12638 0.80249 0.0
N199 N 0.02302 0.18191 0.83855 0.0
C200 C 0.06599 0.12538 0.83065 0.0
C201 C 0.02295 0.15618 0.79259 0.0
C202 C 0.05111 0.15354 0.84858 0.0
C203 C 0.00881 0.18384 0.81115 0.0
C204 C 0.08033 0.98008 0.80401 0.0
C205 C 0.13383 0.93273 0.82026 0.0
N206 N 0.12084 0.93363 0.84686 0.0
C207 C 0.06734 0.98036 0.83146 0.0
C208 C 0.11366 0.95589 0.79829 0.0
C209 C 0.08827 0.95671 0.85285 0.0
C210 C 0.94037 0.04389 0.78888 0.0
N211 N 0.9767 0.05257 0.80248 0.0
C212 C 0.94235 0.06378 0.84472 0.0
C213 C 0.97833 0.06147 0.83015 0.0
C214 C 0.90429 0.05721 0.83062 0.0
C215 C 0.90372 0.04653 0.80245 0.0
H216 H 0.93966 0.03561 0.76721 0.0
H217 H 1.00746 0.06727 0.8409 0.0
C218 C 0.18683 0.04901 0.7873 0.0
N219 N 0.15233 0.04743 0.80194 0.0
C220 C 0.22544 0.04906 0.8013 0.0
C221 C 0.1929 0.046 0.84557 0.0
C222 C 0.15475 0.04532 0.83062 0.0
C223 C 0.22913 0.04847 0.83091 0.0
H224 H 0.1845 0.05082 0.76459 0.0
H225 H 0.12711 0.04368 0.84201 0.0
C226 C 0.98131 0.07416 0.72196 0.0
N227 N 0.91833 0.11047 0.68858 0.0
C228 C 0.97168 0.06073 0.69504 0.0
C229 C 0.95837 0.1056 0.73205 0.0
C230 C 0.93988 0.07959 0.67844 0.0
C231 C 0.92681 0.12368 0.71484 0.0
C232 C 0.12712 0.04557 0.71579 0.0
C233 C 0.12467 0.06838 0.69014 0.0
C234 C 0.14978 0.00937 0.71831 0.0
C235 C 0.14453 0.05429 0.66729 0.0
C236 C 0.16915 0.99628 0.69497 0.0
N237 N 0.16612 0.0188 0.67014 0.0
C238 C 0.07604 0.17902 0.73334 0.0
C239 C 0.04051 0.15061 0.69448 0.0
C240 C 0.07465 0.21772 0.71957 0.0
N241 N 0.05838 0.14652 0.72097 0.0
C242 C 0.03857 0.1888 0.67985 0.0
C243 C 0.05527 0.22322 0.69255 0.0
H244 H 0.09085 0.17499 0.75416 0.0
H245 H 0.0276 0.12431 0.68464 0.0
C246 C 0.05822 0.93486 0.72668 0.0
N247 N 0.05854 0.97434 0.7164 0.0
C248 C 0.05549 0.90283 0.70828 0.0
C249 C 0.05399 0.95259 0.66911 0.0
C250 C 0.05676 0.98351 0.68818 0.0
C251 C 0.05279 0.91151 0.679 0.0
H252 H 0.05948 0.92817 0.74918 0.0
H253 H 0.05722 0.015 0.68039 0.0
O254 O 0.06555 0.09885 0.78466 0.0
O255 O 0.06064 1.00353 0.78288 0.0
O256 O 0.01269 0.05632 0.73841 0.0
O257 O 0.10743 0.05864 0.7383 0.0
H258 H 0.08826 0.10289 0.83868 0.0
H259 H 0.01218 0.15832 0.77074 0.0
H260 H 0.0619 0.15283 0.87047 0.0
H261 H 0.98668 0.20694 0.80374 0.0
H262 H 0.15983 0.91406 0.81617 0.0
H263 H 0.04153 0.9988 0.83622 0.0
H264 H 0.12399 0.9552 0.77715 0.0
H265 H 0.07867 0.95677 0.87422 0.0
H266 H 0.94417 0.07198 0.86648 0.0
H267 H 0.8751 0.04049 0.79093 0.0
H268 H 0.25214 0.0498 0.78885 0.0
H269 H 0.19376 0.04572 0.86832 0.0
H270 H 0.98852 0.03605 0.68698 0.0
H271 H 0.96448 0.11555 0.75309 0.0
H272 H 0.9323 0.06964 0.6575 0.0
H273 H 0.90892 0.1481 0.7224 0.0
H274 H 0.10751 0.09656 0.68785 0.0
H275 H 0.15211 0.99142 0.73802 0.0
H276 H 0.14273 0.07153 0.64727 0.0
H277 H 0.18654 0.96818 0.69657 0.0
H278 H 0.08872 0.2431 0.73 0.0
H279 H 0.02331 0.19147 0.65909 0.0
H280 H 0.0543 0.87171 0.71692 0.0
H281 H 0.05268 0.96088 0.64677 0.0
H282 H 0.42 0.06213 0.12165 0.0
H283 H 0.37423 0.99035 0.0528 0.0
H284 H 0.3079 0.9831 0.07464 0.0
H285 H 0.37 1.00423 0.17639 0.0
H286 H 0.35867 0.04799 0.19592 0.0
H287 H 0.40258 0.04847 0.17471 0.0
H288 H 0.37598 0.11465 0.14784 0.0
H289 H 0.33194 0.11434 0.16896 0.0
H290 H 0.32523 0.11567 0.13111 0.0
H291 H 0.24629 0.98441 0.10305 0.0
H292 H 0.19367 0.99169 0.13728 0.0
H293 H 0.27918 0.05993 0.18961 0.0
C294 C 0.39591 0.04507 0.11115 0.0
C295 C 0.40245 0.02661 0.08553 0.0
C296 C 0.37022 1.00426 0.07258 0.0
C297 C 0.3323 1.00018 0.08474 0.0
C298 C 0.32692 0.01847 0.11 0.0
C299 C 0.3578 0.04032 0.12319 0.0
C300 C 0.34394 0.05611 0.15057 0.0
C301 C 0.37037 0.03812 0.17589 0.0
C302 C 0.34429 0.10298 0.14955 0.0
C303 C 0.30052 0.03969 0.15062 0.0
C304 C 0.2914 0.01832 0.1269 0.0
C305 C 0.25321 1.00071 0.12188 0.0
C306 C 0.22355 1.00474 0.14169 0.0
C307 C 0.23211 0.02584 0.16659 0.0
C308 C 0.27129 0.04373 0.17087 0.0
H309 H 0.05665 0.39172 0.56366 0.0
H310 H 0.02823 0.48174 0.62292 0.0
H311 H 0.02852 0.42766 0.66132 0.0
H312 H 0.99428 0.31093 0.59284 0.0
H313 H 0.02993 0.27095 0.58675 0.0
H314 H 0.02784 0.31671 0.56412 0.0
H315 H 0.10525 0.32828 0.57482 0.0
H316 H 0.10763 0.28253 0.59745 0.0
H317 H 0.12469 0.33031 0.61086 0.0
H318 H 0.03209 0.3639 0.69306 0.0
H319 H 0.03786 0.29501 0.71618 0.0
H320 H 0.0641 0.24562 0.63632 0.0
C321 C 0.05054 0.3998 0.58478 0.0
C322 C 0.0424 0.44066 0.59057 0.0
C323 C 0.03447 0.45048 0.61829 0.0
C324 C 0.0346 0.42002 0.64012 0.0
C325 C 0.04266 0.3799 0.63381 0.0
C326 C 0.05044 0.36968 0.60682 0.0
C327 C 0.05803 0.32421 0.60572 0.0
C328 C 0.02558 0.30455 0.5862 0.0
C329 C 0.10149 0.31585 0.59668 0.0
C330 C 0.0533 0.31042 0.6363 0.0
C331 C 0.04454 0.34308 0.65212 0.0
C332 C 0.03906 0.33813 0.68089 0.0
C333 C 0.04266 0.29884 0.69388 0.0
C334 C 0.05165 0.26474 0.67819 0.0
C335 C 0.05687 0.27086 0.64893 0.0
H336 H 0.66725 0.02168 0.11594 0.0
H337 H 0.70779 0.06901 0.03557 0.0
H338 H 0.77859 0.07419 0.05629 0.0
H339 H 0.73067 0.08513 0.1589 0.0
H340 H 0.7412 0.0463 0.18652 0.0
H341 H 0.69415 0.04501 0.16517 0.0
H342 H 0.71072 0.97159 0.15187 0.0
H343 H 0.7578 0.97261 0.17325 0.0
H344 H 0.75865 0.96145 0.13664 0.0
H345 H 0.84435 0.07556 0.08595 0.0
H346 H 0.90105 0.0727 0.12224 0.0
H347 H 0.81811 0.02505 0.184 0.0
C348 C 0.69128 0.03269 0.10277 0.0
C349 C 0.68252 0.04463 0.07415 0.0
C350 C 0.71428 0.0595 0.05749 0.0
C351 C 0.75443 0.06254 0.06908 0.0
C352 C 0.76223 0.05062 0.09741 0.0
C353 C 0.73161 0.03591 0.11405 0.0
C354 C 0.74818 0.02588 0.14401 0.0
C355 C 0.72731 0.05215 0.16488 0.0
C356 C 0.74356 0.98016 0.1519 0.0
C357 C 0.7928 0.03748 0.14166 0.0
C358 C 0.8002 0.05163 0.11457 0.0
C359 C 0.8389 0.06459 0.10724 0.0
C360 C 0.8709 0.06312 0.1281 0.0
C361 C 0.8642 0.04887 0.15611 0.0
C362 C 0.82447 0.03574 0.16279 0.0
H363 H 0.08377 0.69187 0.61479 0.0
H364 H 0.99463 0.73131 0.54815 0.0
H365 H 0.98892 0.79782 0.56926 0.0
H366 H 0.03589 0.74007 0.67047 0.0
H367 H 0.0831 0.75482 0.68836 0.0
H368 H 0.0817 0.71046 0.66765 0.0
H369 H 0.14007 0.74029 0.63834 0.0
H370 H 0.14178 0.78467 0.65905 0.0
H371 H 0.13435 0.79043 0.62127 0.0
H372 H 0.99128 0.85929 0.59761 0.0
H373 H 1.00173 0.91267 0.63163 0.0
H374 H 0.08957 0.8351 0.68065 0.0
C375 C 0.06338 0.71471 0.60456 0.0
C376 C 0.03941 0.70624 0.57988 0.0
C377 C 0.01283 0.73683 0.56725 0.0
C378 C 0.00951 0.77481 0.57901 0.0
C379 C 0.03295 0.782 0.6035 0.0
C380 C 0.05944 0.75295 0.61619 0.0
C381 C 0.08037 0.76858 0.64281 0.0
C382 C 0.06961 0.74189 0.66886 0.0
C383 C 0.12691 0.77115 0.6402 0.0
C384 C 0.06135 0.81079 0.64306 0.0
C385 C 0.03423 0.8178 0.62007 0.0
C386 C 0.01266 0.85429 0.61559 0.0
C387 C 0.01902 0.88458 0.63501 0.0
C388 C 0.04676 0.87845 0.65878 0.0
C389 C 0.06802 0.84079 0.66282 0.0
H390 H 0.40177 0.01558 0.95749 0.0
H391 H 0.48336 0.08605 0.90534 0.0
H392 H 0.42859 0.09328 0.86745 0.0
H393 H 0.35159 0.96101 0.90001 0.0
H394 H 0.30212 0.96148 0.91487 0.0
H395 H 0.34793 0.96135 0.93762 0.0
H396 H 0.32314 0.02671 0.9597 0.0
H397 H 0.27742 0.02724 0.93687 0.0
H398 H 0.31031 0.07126 0.93722 0.0
H399 H 0.36416 0.09638 0.83666 0.0
H400 H 0.29595 0.09145 0.81309 0.0
H401 H 0.25625 0.01456 0.88356 0.0
C402 C 0.40803 0.03214 0.93793 0.0
C403 C 0.44662 0.05045 0.93422 0.0
C404 C 0.45391 0.07199 0.90848 0.0
C405 C 0.42301 0.07624 0.88693 0.0
C406 C 0.38509 0.05834 0.89132 0.0
C407 C 0.37756 0.03631 0.91602 0.0
C408 C 0.33406 0.02007 0.91518 0.0
C409 C 0.33393 0.97319 0.91702 0.0
C410 C 0.30981 0.03736 0.93864 0.0
C411 C 0.3182 0.03683 0.88629 0.0
C412 C 0.34817 0.05893 0.87301 0.0
C413 C 0.34066 0.07853 0.84663 0.0
C414 C 0.30167 0.07518 0.83327 0.0
C415 C 0.27037 0.05191 0.84599 0.0
C416 C 0.27907 0.03267 0.87306 0.0
H417 H 0.07492 0.40907 0.40587 0.0
H418 H 1.00244 0.36138 0.47368 0.0
H419 H 0.99828 0.29475 0.45205 0.0
H420 H 0.01921 0.35776 0.35084 0.0
H421 H 0.06358 0.34777 0.33145 0.0
H422 H 0.06267 0.39143 0.35276 0.0
H423 H 0.12951 0.36668 0.37992 0.0
H424 H 0.13069 0.323 0.35862 0.0
H425 H 0.13185 0.31601 0.39645 0.0
H426 H 1.00187 0.23347 0.42358 0.0
H427 H 0.01072 0.18152 0.38884 0.0
H428 H 0.07852 0.2684 0.33779 0.0
C429 C 0.0585 0.38441 0.4162 0.0
C430 C 0.039 0.39031 0.44149 0.0
C431 C 0.01736 0.35755 0.45424 0.0
C432 C 0.01495 0.31957 0.44216 0.0
C433 C 0.03406 0.31478 0.41712 0.0
C434 C 0.05526 0.34626 0.40414 0.0
C435 C 0.07176 0.33309 0.37679 0.0
C436 C 0.05319 0.35906 0.35146 0.0
C437 C 0.11874 0.3348 0.37803 0.0
C438 C 0.05653 0.28937 0.37652 0.0
C439 C 0.03516 0.27947 0.40015 0.0
C440 C 0.01854 0.24084 0.40499 0.0
C441 C 0.02388 0.21147 0.38518 0.0
C442 C 0.04538 0.2208 0.36064 0.0
C443 C 0.06172 0.26045 0.35625 0.0
H444 H 0.74091 0.02835 0.9502 0.0
H445 H 0.65964 0.10762 0.89717 0.0
H446 H 0.71244 0.11522 0.86214 0.0
H447 H 0.83417 0.08348 0.93564 0.0
H448 H 0.86519 0.03813 0.93588 0.0
H449 H 0.82103 0.03876 0.95683 0.0
H450 H 0.79221 0.97535 0.93247 0.0
H451 H 0.83626 0.97453 0.91144 0.0
H452 H 0.78559 0.9767 0.89461 0.0
H453 H 0.77276 0.11207 0.83196 0.0
H454 H 0.83813 0.10159 0.80977 0.0
H455 H 0.88211 0.02652 0.88283 0.0
C456 C 0.73424 0.04723 0.93117 0.0
C457 C 0.69606 0.06742 0.92642 0.0
C458 C 0.68873 0.0922 0.9014 0.0
C459 C 0.71848 0.09654 0.88132 0.0
C460 C 0.7557 0.07622 0.88661 0.0
C461 C 0.76387 0.05232 0.91101 0.0
C462 C 0.80667 0.03429 0.91164 0.0
C463 C 0.83334 0.04959 0.93647 0.0
C464 C 0.80507 0.98744 0.91259 0.0
C465 C 0.82111 0.05148 0.88366 0.0
C466 C 0.79106 0.07537 0.86951 0.0
C467 C 0.79658 0.09361 0.84291 0.0
C468 C 0.83374 0.08733 0.83042 0.0
C469 C 0.86523 0.06329 0.84455 0.0
C470 C 0.85877 0.04537 0.87164 0.0
H471 H 0.04602 0.65385 0.40501 0.0
H472 H 0.03439 0.69784 0.48832 0.0
H473 H 0.0346 0.76917 0.46841 0.0
H474 H 0.11361 0.73311 0.37995 0.0
H475 H 0.0905 0.73639 0.34469 0.0
H476 H 0.08938 0.68898 0.36547 0.0
H477 H 0.01042 0.68702 0.35828 0.0
H478 H 0.01129 0.73434 0.33741 0.0
H479 H 0.98066 0.72988 0.36774 0.0
H480 H 0.03701 0.83539 0.43947 0.0
H481 H 0.03985 0.89219 0.40376 0.0
H482 H 0.04796 0.80545 0.33852 0.0
C483 C 0.04349 0.67868 0.4189 0.0
C484 C 0.04023 0.67081 0.44812 0.0
C485 C 0.03692 0.70365 0.46587 0.0
C486 C 0.03706 0.74409 0.45475 0.0
C487 C 0.04045 0.75105 0.42581 0.0
C488 C 0.04349 0.71929 0.40809 0.0
C489 C 0.04655 0.73522 0.37778 0.0
C490 C 0.08745 0.72268 0.3663 0.0
C491 C 0.01005 0.72076 0.35921 0.0
C492 C 0.04474 0.78086 0.38119 0.0
C493 C 0.04133 0.78927 0.40908 0.0
C494 C 0.03938 0.82914 0.41754 0.0
C495 C 0.04072 0.86127 0.39699 0.0
C496 C 0.04376 0.8536 0.36812 0.0
C497 C 0.04597 0.81262 0.36032 0.0
loop_
_geom_bond_atom_site_label_1
_geom_bond_atom_site_label_2
_geom_bond_distance
_geom_bond_site_symmetry_2
_ccdc_geom_bond_type
C0 C1 1.443 . S
C0 N4 1.376 . S
C0 C38 1.389 . S
C1 C0 1.443 . S
C1 C2 1.340 . S
C1 H41 0.951 . S
C2 C1 1.340 . S
C2 C3 1.439 . S
C2 H42 0.950 . S
C3 C2 1.439 . S
C3 N4 1.374 . S
C3 C37 1.395 1_554 S
N4 C0 1.376 . S
N4 C3 1.374 . S
N4 Co5 2.008 . S
Co5 N4 2.008 . S
Co5 N6 1.995 1_554 S
Co5 N11 2.008 1_554 S
Co5 N16 2.003 . S
Co5 N21 2.282 . S
Co5 N27 2.282 1_554 S
N6 Co5 1.995 1_556 S
N6 C7 1.376 . S
N6 C10 1.383 . S
C7 N6 1.376 . S
C7 C8 1.446 . S
C7 C37 1.391 . S
C8 C7 1.446 . S
C8 C9 1.339 . S
C8 H43 0.949 . S
C9 C8 1.339 . S
C9 C10 1.439 . S
C9 H44 0.950 . S
C10 N6 1.383 . S
C10 C9 1.439 . S
C10 C39 1.392 . S
N11 Co5 2.008 1_556 S
N11 C12 1.376 . S
N11 C15 1.374 1_545 S
C12 N11 1.376 . S
C12 C13 1.443 1_545 S
C12 C39 1.389 . S
C13 C12 1.443 1_565 S
C13 C14 1.340 . S
C13 H45 0.951 . S
C14 C13 1.340 . S
C14 C15 1.439 . S
C14 H46 0.950 . S
C15 N11 1.374 1_565 S
C15 C14 1.439 . S
C15 C40 1.395 1_556 S
N16 Co5 2.003 . S
N16 C17 1.364 1_545 S
N16 C20 1.385 . S
C17 N16 1.364 1_565 S
C17 C18 1.446 . S
C17 C40 1.391 . S
C18 C17 1.446 . S
C18 C19 1.339 . S
C18 H47 0.949 . S
C19 C18 1.339 . S
C19 C20 1.439 1_565 S
C19 H48 0.950 . S
C20 N16 1.385 . S
C20 C19 1.439 1_545 S
C20 C38 1.392 . S
N21 Co5 2.282 . S
N21 C24 1.332 . S
N21 C26 1.332 . S
C22 C23 1.386 . S
C22 C25 1.388 . S
C23 C22 1.386 . S
C23 C24 1.382 . S
C23 H49 0.950 1_545 S
C24 N21 1.332 . S
C24 C23 1.382 . S
C24 H35 0.952 1_545 S
C25 C22 1.388 . S
C25 C26 1.382 . S
C25 H50 0.950 . S
C26 N21 1.332 . S
C26 C25 1.382 . S
C26 H36 0.948 . S
N27 Co5 2.282 1_556 S
N27 C31 1.332 . S
N27 C32 1.332 . S
C28 C29 1.388 . S
C28 C32 1.382 . S
C28 H51 0.950 1_545 S
C29 C28 1.388 . S
C29 C30 1.386 . S
C30 C29 1.386 . S
C30 C31 1.382 . S
C30 H52 0.950 . S
C31 N27 1.332 . S
C31 C30 1.382 . S
C31 H33 0.952 . S
C32 N27 1.332 . S
C32 C28 1.382 . S
C32 H34 0.948 1_545 S
H33 C31 0.952 . S
H34 C32 0.948 1_565 S
H35 C24 0.952 1_565 S
H36 C26 0.948 . S
C37 C3 1.395 1_556 S
C37 C7 1.391 . S
C38 C0 1.389 . S
C38 C20 1.392 . S
C39 C10 1.392 . S
C39 C12 1.389 . S
C40 C15 1.395 1_554 S
C40 C17 1.391 . S
H41 C1 0.951 . S
H42 C2 0.950 . S
H43 C8 0.949 . S
H44 C9 0.950 . S
H45 C13 0.951 . S
H46 C14 0.950 . S
H47 C18 0.949 . S
H48 C19 0.950 . S
H49 C23 0.950 1_565 S
H50 C25 0.950 . S
H51 C28 0.950 1_565 S
H52 C30 0.950 . S
C53 C54 1.443 . S
C53 N57 1.376 . S
C53 C91 1.389 . S
C54 C53 1.443 . S
C54 C55 1.340 . S
C54 H94 0.951 . S
C55 C54 1.340 . S
C55 C56 1.439 . S
C55 H95 0.950 . S
C56 C55 1.439 . S
C56 N57 1.374 . S
C56 C90 1.395 . S
N57 C53 1.376 . S
N57 C56 1.374 . S
N57 Co58 2.008 . S
Co58 N57 2.008 . S
Co58 N59 1.995 . S
Co58 N64 2.002 1_455 S
Co58 N69 1.995 . S
Co58 N74 2.282 . S
Co58 N80 2.282 . S
N59 Co58 1.995 . S
N59 C60 1.376 . S
N59 C63 1.383 . S
C60 N59 1.376 . S
C60 C61 1.446 . S
C60 C90 1.391 . S
C61 C60 1.446 . S
C61 C62 1.339 . S
C61 H96 0.949 . S
C62 C61 1.339 . S
C62 C63 1.439 . S
C62 H97 0.950 . S
C63 N59 1.383 . S
C63 C62 1.439 . S
C63 C92 1.392 . S
N64 Co58 2.002 1_655 S
N64 C65 1.375 1_655 S
N64 C68 1.383 . S
C65 N64 1.375 1_455 S
C65 C66 1.443 1_455 S
C65 C92 1.389 . S
C66 C65 1.443 1_655 S
C66 C67 1.340 . S
C66 H98 0.951 . S
C67 C66 1.340 . S
C67 C68 1.439 . S
C67 H99 0.950 . S
C68 N64 1.383 . S
C68 C67 1.439 . S
C68 C93 1.395 . S
N69 Co58 1.995 . S
N69 C70 1.376 1_455 S
N69 C73 1.383 . S
C70 N69 1.376 1_655 S
C70 C71 1.446 . S
C70 C93 1.391 . S
C71 C70 1.446 . S
C71 C72 1.339 . S
C71 H100 0.949 . S
C72 C71 1.339 . S
C72 C73 1.439 1_655 S
C72 H101 0.950 . S
C73 N69 1.383 . S
C73 C72 1.439 1_455 S
C73 C91 1.392 . S
N74 Co58 2.282 . S
N74 C77 1.332 . S
N74 C79 1.332 . S
C75 C76 1.386 . S
C75 C78 1.388 . S
C76 C75 1.386 . S
C76 C77 1.382 . S
C76 H102 0.950 1_455 S
C77 N74 1.332 . S
C77 C76 1.382 . S
C77 H88 0.952 1_455 S
C78 C75 1.388 . S
C78 C79 1.382 . S
C78 H103 0.950 . S
C79 N74 1.332 . S
C79 C78 1.382 . S
C79 H89 0.948 . S
N80 Co58 2.282 . S
N80 C84 1.332 . S
N80 C85 1.332 . S
C81 C82 1.388 . S
C81 C85 1.382 . S
C81 H104 0.950 1_455 S
C82 C81 1.388 . S
C82 C83 1.386 . S
C83 C82 1.386 . S
C83 C84 1.382 . S
C83 H105 0.950 . S
C84 N80 1.332 . S
C84 C83 1.382 . S
C84 H86 0.952 . S
C85 N80 1.332 . S
C85 C81 1.382 . S
C85 H87 0.948 1_455 S
H86 C84 0.952 . S
H87 C85 0.948 1_655 S
H88 C77 0.952 1_655 S
H89 C79 0.948 . S
C90 C56 1.395 . S
C90 C60 1.391 . S
C91 C53 1.389 . S
C91 C73 1.392 . S
C92 C63 1.392 . S
C92 C65 1.389 . S
C93 C68 1.395 . S
C93 C70 1.391 . S
H94 C54 0.951 . S
H95 C55 0.950 . S
H96 C61 0.949 . S
H97 C62 0.950 . S
H98 C66 0.951 . S
H99 C67 0.950 . S
H100 C71 0.949 . S
H101 C72 0.950 . S
H102 C76 0.950 1_655 S
H103 C78 0.950 . S
H104 C81 0.950 1_655 S
H105 C83 0.950 . S
Li106 N123 1.990 . S
Li106 O166 1.956 . S
Li106 O167 1.970 1_455 S
Li106 O168 1.961 . S
Li107 N131 1.990 . S
Li107 O166 1.970 1_565 S
Li107 O167 1.956 1_465 S
Li107 O169 1.961 . S
Li108 N153 1.990 . S
Li108 O166 1.961 . S
Li108 O168 1.956 . S
Li108 O169 1.970 1_545 S
Li109 N159 1.990 . S
Li109 O167 1.961 . S
Li109 O168 1.970 1_655 S
Li109 O169 1.956 1_645 S
C110 C112 1.348 . S
C110 C113 1.356 . S
C110 O166 1.325 . S
N111 C114 1.314 . S
N111 C115 1.279 . S
C112 C110 1.348 . S
C112 C114 1.353 . S
C112 H170 0.929 1_545 S
C113 C110 1.356 . S
C113 C115 1.358 . S
C113 H171 0.930 . S
C114 N111 1.314 . S
C114 C112 1.353 . S
C114 H172 0.930 1_545 S
C115 N111 1.279 . S
C115 C113 1.358 . S
C115 H173 0.930 . S
C116 C119 1.348 . S
C116 C120 1.356 . S
C116 O167 1.325 . S
C117 N118 1.279 . S
C117 C120 1.358 . S
C117 H174 0.930 1_545 S
N118 C117 1.279 . S
N118 C121 1.314 . S
C119 C116 1.348 . S
C119 C121 1.353 . S
C119 H175 0.929 . S
C120 C116 1.356 . S
C120 C117 1.358 . S
C120 H176 0.930 1_545 S
C121 N118 1.314 . S
C121 C119 1.353 . S
C121 H177 0.930 . S
C122 N123 1.314 . S
C122 C127 1.353 . S
C122 H128 0.916 1_455 S
N123 Li106 1.990 . S
N123 C122 1.314 . S
N123 C125 1.279 . S
C124 C125 1.358 . S
C124 C126 1.356 . S
C124 H178 0.930 . S
C125 N123 1.279 . S
C125 C124 1.358 . S
C125 H129 0.930 . S
C126 C124 1.356 . S
C126 C127 1.348 . S
C127 C122 1.353 . S
C127 C126 1.348 . S
C127 H179 0.929 1_455 S
H128 C122 0.916 1_655 S
H129 C125 0.930 . S
C130 N131 1.314 . S
C130 C132 1.353 . S
C130 H136 0.930 . S
N131 Li107 1.990 . S
N131 C130 1.314 . S
N131 C134 1.279 . S
C132 C130 1.353 . S
C132 C135 1.348 . S
C132 H180 0.929 . S
C133 C134 1.358 . S
C133 C135 1.356 . S
C133 H181 0.930 1_455 S
C134 N131 1.279 . S
C134 C133 1.358 . S
C134 H137 0.930 1_455 S
C135 C132 1.348 . S
C135 C133 1.356 . S
H136 C130 0.930 . S
H137 C134 0.930 1_655 S
C138 C140 1.348 . S
C138 C141 1.356 . S
C138 O168 1.325 . S
N139 C142 1.314 . S
N139 C143 1.279 . S
C140 C138 1.348 . S
C140 C142 1.353 . S
C140 H182 0.929 1_455 S
C141 C138 1.356 . S
C141 C143 1.358 . S
C141 H183 0.930 . S
C142 N139 1.314 . S
C142 C140 1.353 . S
C142 H184 0.930 1_455 S
C143 N139 1.279 . S
C143 C141 1.358 . S
C143 H185 0.930 . S
C144 C145 1.348 . S
C144 C146 1.356 . S
C144 O169 1.325 . S
C145 C144 1.348 . S
C145 C147 1.353 . S
C145 H186 0.929 . S
C146 C144 1.356 . S
C146 C148 1.358 . S
C146 H187 0.930 1_455 S
C147 C145 1.353 . S
C147 N149 1.314 . S
C147 H188 0.930 . S
C148 C146 1.358 . S
C148 N149 1.279 . S
C148 H189 0.930 1_455 S
N149 C147 1.314 . S
N149 C148 1.279 . S
C150 C152 1.353 . S
C150 N153 1.314 . S
C150 H156 0.916 1_545 S
C151 N153 1.279 . S
C151 C154 1.358 . S
C151 H157 0.930 . S
C152 C150 1.353 . S
C152 C155 1.348 . S
C152 H190 0.929 1_545 S
N153 Li108 1.990 . S
N153 C150 1.314 . S
N153 C151 1.279 . S
C154 C151 1.358 . S
C154 C155 1.356 . S
C154 H191 0.930 . S
C155 C152 1.348 . S
C155 C154 1.356 . S
H156 C150 0.916 1_565 S
H157 C151 0.930 . S
C158 N159 1.314 . S
C158 C160 1.353 . S
C158 H164 0.930 . S
N159 Li109 1.990 . S
N159 C158 1.314 . S
N159 C162 1.279 . S
C160 C158 1.353 . S
C160 C163 1.348 . S
C160 H192 0.929 . S
C161 C162 1.358 . S
C161 C163 1.356 . S
C161 H193 0.930 1_545 S
C162 N159 1.279 . S
C162 C161 1.358 . S
C162 H165 0.930 1_545 S
C163 C160 1.348 . S
C163 C161 1.356 . S
H164 C158 0.930 . S
H165 C162 0.930 1_565 S
O166 Li106 1.956 . S
O166 Li107 1.970 1_545 S
O166 Li108 1.961 . S
O166 C110 1.325 . S
O167 Li106 1.970 1_655 S
O167 Li107 1.956 1_645 S
O167 Li109 1.961 . S
O167 C116 1.325 . S
O168 Li106 1.961 . S
O168 Li108 1.956 . S
O168 Li109 1.970 1_455 S
O168 C138 1.325 . S
O169 Li107 1.961 . S
O169 Li108 1.970 1_565 S
O169 Li109 1.956 1_465 S
O169 C144 1.325 . S
H170 C112 0.929 1_565 S
H171 C113 0.930 . S
H172 C114 0.930 1_565 S
H173 C115 0.930 . S
H174 C117 0.930 1_565 S
H175 C119 0.929 . S
H176 C120 0.930 1_565 S
H177 C121 0.930 . S
H178 C124 0.930 . S
H179 C127 0.929 1_655 S
H180 C132 0.929 . S
H181 C133 0.930 1_655 S
H182 C140 0.929 1_655 S
H183 C141 0.930 . S
H184 C142 0.930 1_655 S
H185 C143 0.930 . S
H186 C145 0.929 . S
H187 C146 0.930 1_655 S
H188 C147 0.930 . S
H189 C148 0.930 1_655 S
H190 C152 0.929 1_565 S
H191 C154 0.930 . S
H192 C160 0.929 . S
H193 C161 0.930 1_565 S
Li194 N211 1.990 1_455 S
Li194 O254 1.956 . S
Li194 O255 1.970 . S
Li194 O256 1.961 . S
Li195 N219 1.990 . S
Li195 O254 1.970 . S
Li195 O255 1.956 . S
Li195 O257 1.961 . S
Li196 N241 1.990 . S
Li196 O254 1.961 . S
Li196 O256 1.956 . S
Li196 O257 1.970 . S
Li197 N247 1.990 1_545 S
Li197 O255 1.961 . S
Li197 O256 1.970 . S
Li197 O257 1.956 . S
C198 C200 1.348 . S
C198 C201 1.356 . S
C198 O254 1.325 . S
N199 C202 1.314 . S
N199 C203 1.279 . S
C200 C198 1.348 . S
C200 C202 1.353 . S
C200 H258 0.929 . S
C201 C198 1.356 . S
C201 C203 1.358 . S
C201 H259 0.930 . S
C202 N199 1.314 . S
C202 C200 1.353 . S
C202 H260 0.930 . S
C203 N199 1.279 . S
C203 C201 1.358 . S
C203 H261 0.930 . S
C204 C207 1.348 . S
C204 C208 1.356 . S
C204 O255 1.325 1_565 S
C205 N206 1.279 . S
C205 C208 1.358 . S
C205 H262 0.930 . S
N206 C205 1.279 . S
N206 C209 1.314 . S
C207 C204 1.348 . S
C207 C209 1.353 . S
C207 H263 0.929 . S
C208 C204 1.356 . S
C208 C205 1.358 . S
C208 H264 0.930 . S
C209 N206 1.314 . S
C209 C207 1.353 . S
C209 H265 0.930 . S
C210 N211 1.314 . S
C210 C215 1.353 . S
C210 H216 0.930 . S
N211 Li194 1.990 1_655 S
N211 C210 1.314 . S
N211 C213 1.279 . S
C212 C213 1.358 . S
C212 C214 1.356 . S
C212 H266 0.930 . S
C213 N211 1.279 . S
C213 C212 1.358 . S
C213 H217 0.930 . S
C214 C212 1.356 . S
C214 C215 1.348 . S
C215 C210 1.353 . S
C215 C214 1.348 . S
C215 H267 0.929 . S
H216 C210 0.930 . S
H217 C213 0.930 . S
C218 N219 1.314 . S
C218 C220 1.353 . S
C218 H224 0.930 . S
N219 Li195 1.990 . S
N219 C218 1.314 . S
N219 C222 1.279 . S
C220 C218 1.353 . S
C220 C223 1.348 . S
C220 H268 0.929 . S
C221 C222 1.358 . S
C221 C223 1.356 . S
C221 H269 0.930 . S
C222 N219 1.279 . S
C222 C221 1.358 . S
C222 H225 0.930 . S
C223 C220 1.348 . S
C223 C221 1.356 . S
H224 C218 0.930 . S
H225 C222 0.930 . S
C226 C228 1.348 . S
C226 C229 1.356 . S
C226 O256 1.325 1_655 S
N227 C230 1.314 . S
N227 C231 1.279 . S
C228 C226 1.348 . S
C228 C230 1.353 . S
C228 H270 0.929 . S
C229 C226 1.356 . S
C229 C231 1.358 . S
C229 H271 0.930 . S
C230 N227 1.314 . S
C230 C228 1.353 . S
C230 H272 0.930 . S
C231 N227 1.279 . S
C231 C229 1.358 . S
C231 H273 0.930 . S
C232 C233 1.348 . S
C232 C234 1.356 . S
C232 O257 1.325 . S
C233 C232 1.348 . S
C233 C235 1.353 . S
C233 H274 0.929 . S
C234 C232 1.356 . S
C234 C236 1.358 . S
C234 H275 0.930 . S
C235 C233 1.353 . S
C235 N237 1.314 . S
C235 H276 0.930 . S
C236 C234 1.358 . S
C236 N237 1.279 . S
C236 H277 0.930 . S
N237 C235 1.314 . S
N237 C236 1.279 . S
C238 C240 1.353 . S
C238 N241 1.314 . S
C238 H244 0.930 . S
C239 N241 1.279 . S
C239 C242 1.358 . S
C239 H245 0.930 . S
C240 C238 1.353 . S
C240 C243 1.348 . S
C240 H278 0.929 . S
N241 Li196 1.990 . S
N241 C238 1.314 . S
N241 C239 1.279 . S
C242 C239 1.358 . S
C242 C243 1.356 . S
C242 H279 0.930 . S
C243 C240 1.348 . S
C243 C242 1.356 . S
H244 C238 0.930 . S
H245 C239 0.930 . S
C246 N247 1.314 . S
C246 C248 1.353 . S
C246 H252 0.930 . S
N247 Li197 1.990 1_565 S
N247 C246 1.314 . S
N247 C250 1.279 . S
C248 C246 1.353 . S
C248 C251 1.348 . S
C248 H280 0.929 . S
C249 C250 1.358 . S
C249 C251 1.356 . S
C249 H281 0.930 . S
C250 N247 1.279 . S
C250 C249 1.358 . S
C250 H253 0.930 . S
C251 C248 1.348 . S
C251 C249 1.356 . S
H252 C246 0.930 . S
H253 C250 0.930 . S
O254 Li194 1.956 . S
O254 Li195 1.970 . S
O254 Li196 1.961 . S
O254 C198 1.325 . S
O255 Li194 1.970 . S
O255 Li195 1.956 . S
O255 Li197 1.961 . S
O255 C204 1.325 1_545 S
O256 Li194 1.961 . S
O256 Li196 1.956 . S
O256 Li197 1.970 . S
O256 C226 1.325 1_455 S
O257 Li195 1.961 . S
O257 Li196 1.970 . S
O257 Li197 1.956 . S
O257 C232 1.325 . S
H258 C200 0.929 . S
H259 C201 0.930 . S
H260 C202 0.930 . S
H261 C203 0.930 . S
H262 C205 0.930 . S
H263 C207 0.929 . S
H264 C208 0.930 . S
H265 C209 0.930 . S
H266 C212 0.930 . S
H267 C215 0.929 . S
H268 C220 0.929 . S
H269 C221 0.930 . S
H270 C228 0.929 . S
H271 C229 0.930 . S
H272 C230 0.930 . S
H273 C231 0.930 . S
H274 C233 0.929 . S
H275 C234 0.930 . S
H276 C235 0.930 . S
H277 C236 0.930 . S
H278 C240 0.929 . S
H279 C242 0.930 . S
H280 C248 0.929 . S
H281 C249 0.930 . S
H282 C294 0.930 . S
H283 C296 0.939 . S
H284 C297 0.930 . S
H285 C301 0.959 . S
H286 C301 0.959 . S
H287 C301 0.961 . S
H288 C302 0.960 . S
H289 C302 0.961 . S
H290 C302 0.959 . S
H291 C305 0.929 . S
H292 C306 0.931 . S
H293 C308 0.930 . S
C294 H282 0.930 . S
C294 C295 1.399 . S
C294 C299 1.399 . S
C295 C294 1.399 . S
C295 C296 1.366 1_545 S
C296 H283 0.939 . S
C296 C295 1.366 1_565 S
C296 C297 1.391 . S
C297 H284 0.930 . S
C297 C296 1.391 . S
C297 C298 1.390 1_565 S
C298 C297 1.390 1_545 S
C298 C299 1.394 . S
C298 C304 1.465 . S
C299 C294 1.399 . S
C299 C298 1.394 . S
C299 C300 1.516 . S
C300 C299 1.516 . S
C300 C301 1.502 . S
C300 C302 1.561 . S
C300 C303 1.526 . S
C301 H285 0.959 . S
C301 H286 0.959 . S
C301 H287 0.961 . S
C301 C300 1.502 . S
C302 H288 0.960 . S
C302 H289 0.961 . S
C302 H290 0.959 . S
C302 C300 1.561 . S
C303 C300 1.526 . S
C303 C304 1.396 . S
C303 C308 1.390 . S
C304 C298 1.465 . S
C304 C303 1.396 . S
C304 C305 1.399 1_545 S
C305 H291 0.929 . S
C305 C304 1.399 1_565 S
C305 C306 1.385 . S
C306 H292 0.931 . S
C306 C305 1.385 . S
C306 C307 1.389 1_565 S
C307 C306 1.389 1_545 S
C307 C308 1.387 . S
C308 H293 0.930 . S
C308 C303 1.390 . S
C308 C307 1.387 . S
H309 C321 0.930 . S
H310 C323 0.930 . S
H311 C324 0.930 . S
H312 C328 0.959 1_655 S
H313 C328 0.959 . S
H314 C328 0.961 . S
H315 C329 0.960 . S
H316 C329 0.961 . S
H317 C329 0.959 . S
H318 C332 0.929 . S
H319 C333 0.931 . S
H320 C335 0.930 . S
C321 H309 0.930 . S
C321 C322 1.399 . S
C321 C326 1.399 . S
C322 C321 1.399 . S
C322 C323 1.376 . S
C323 H310 0.930 . S
C323 C322 1.376 . S
C323 C324 1.388 . S
C324 H311 0.930 . S
C324 C323 1.388 . S
C324 C325 1.390 . S
C325 C324 1.390 . S
C325 C326 1.394 . S
C325 C331 1.465 . S
C326 C321 1.399 . S
C326 C325 1.394 . S
C326 C327 1.516 . S
C327 C326 1.516 . S
C327 C328 1.502 . S
C327 C329 1.561 . S
C327 C330 1.526 . S
C328 H312 0.959 1_455 S
C328 H313 0.959 . S
C328 H314 0.961 . S
C328 C327 1.502 . S
C329 H315 0.960 . S
C329 H316 0.961 . S
C329 H317 0.959 . S
C329 C327 1.561 . S
C330 C327 1.526 . S
C330 C331 1.396 . S
C330 C335 1.390 . S
C331 C325 1.465 . S
C331 C330 1.396 . S
C331 C332 1.399 . S
C332 H318 0.929 . S
C332 C331 1.399 . S
C332 C333 1.385 . S
C333 H319 0.931 . S
C333 C332 1.385 . S
C333 C334 1.389 . S
C334 C333 1.389 . S
C334 C335 1.387 . S
C335 H320 0.930 . S
C335 C330 1.390 . S
C335 C334 1.387 . S
H336 C348 0.930 1_565 S
H337 C350 0.930 . S
H338 C351 0.930 . S
H339 C355 0.959 . S
H340 C355 0.959 . S
H341 C355 0.961 . S
H342 C356 0.960 . S
H343 C356 0.961 . S
H344 C356 0.959 . S
H345 C359 0.929 . S
H346 C360 0.931 . S
H347 C362 0.930 1_565 S
C348 H336 0.930 1_545 S
C348 C349 1.399 . S
C348 C353 1.399 . S
C349 C348 1.399 . S
C349 C350 1.376 . S
C350 H337 0.930 . S
C350 C349 1.376 . S
C350 C351 1.388 . S
C351 H338 0.930 . S
C351 C350 1.388 . S
C351 C352 1.390 . S
C352 C351 1.390 . S
C352 C353 1.394 . S
C352 C358 1.465 . S
C353 C348 1.399 . S
C353 C352 1.394 . S
C353 C354 1.516 1_545 S
C354 C353 1.516 1_565 S
C354 C355 1.502 . S
C354 C356 1.561 . S
C354 C357 1.526 1_565 S
C355 H339 0.959 . S
C355 H340 0.959 . S
C355 H341 0.961 . S
C355 C354 1.502 . S
C356 H342 0.960 . S
C356 H343 0.961 . S
C356 H344 0.959 . S
C356 C354 1.561 . S
C357 C354 1.526 1_545 S
C357 C358 1.396 . S
C357 C362 1.390 . S
C358 C352 1.465 . S
C358 C357 1.396 . S
C358 C359 1.399 . S
C359 H345 0.929 . S
C359 C358 1.399 . S
C359 C360 1.385 . S
C360 H346 0.931 . S
C360 C359 1.385 . S
C360 C361 1.389 . S
C361 C360 1.389 . S
C361 C362 1.387 . S
C362 H347 0.930 1_545 S
C362 C357 1.390 . S
C362 C361 1.387 . S
H363 C375 0.930 . S
H364 C377 0.930 . S
H365 C378 0.930 . S
H366 C382 0.959 . S
H367 C382 0.959 . S
H368 C382 0.961 . S
H369 C383 0.960 . S
H370 C383 0.961 . S
H371 C383 0.959 . S
H372 C386 0.929 . S
H373 C387 0.931 . S
H374 C389 0.930 . S
C375 H363 0.930 . S
C375 C376 1.399 . S
C375 C380 1.399 . S
C376 C375 1.399 . S
C376 C377 1.376 . S
C377 H364 0.930 . S
C377 C376 1.376 . S
C377 C378 1.388 . S
C378 H365 0.930 . S
C378 C377 1.388 . S
C378 C379 1.390 . S
C379 C378 1.390 . S
C379 C380 1.394 . S
C379 C385 1.465 . S
C380 C375 1.399 . S
C380 C379 1.394 . S
C380 C381 1.516 . S
C381 C380 1.516 . S
C381 C382 1.502 . S
C381 C383 1.561 . S
C381 C384 1.526 . S
C382 H366 0.959 . S
C382 H367 0.959 . S
C382 H368 0.961 . S
C382 C381 1.502 . S
C383 H369 0.960 . S
C383 H370 0.961 . S
C383 H371 0.959 . S
C383 C381 1.561 . S
C384 C381 1.526 . S
C384 C385 1.396 . S
C384 C389 1.390 . S
C385 C379 1.465 . S
C385 C384 1.396 . S
C385 C386 1.399 . S
C386 H372 0.929 . S
C386 C385 1.399 . S
C386 C387 1.385 . S
C387 H373 0.931 . S
C387 C386 1.385 . S
C387 C388 1.389 . S
C388 C387 1.389 . S
C388 C389 1.387 . S
C389 H374 0.930 . S
C389 C384 1.390 . S
C389 C388 1.387 . S
H390 C402 0.952 . S
H391 C404 0.930 . S
H392 C405 0.930 . S
H393 C409 0.959 . S
H394 C409 0.959 . S
H395 C409 0.961 . S
H396 C410 0.960 . S
H397 C410 0.963 . S
H398 C410 0.959 . S
H399 C413 0.929 . S
H400 C414 0.931 . S
H401 C416 0.930 . S
C402 H390 0.952 . S
C402 C403 1.399 . S
C402 C407 1.399 . S
C403 C402 1.399 . S
C403 C404 1.376 . S
C404 H391 0.930 . S
C404 C403 1.376 . S
C404 C405 1.388 . S
C405 H392 0.930 . S
C405 C404 1.388 . S
C405 C406 1.390 . S
C406 C405 1.390 . S
C406 C407 1.394 . S
C406 C412 1.465 . S
C407 C402 1.399 . S
C407 C406 1.394 . S
C407 C408 1.516 . S
C408 C407 1.516 . S
C408 C409 1.502 1_545 S
C408 C410 1.561 . S
C408 C411 1.526 . S
C409 H393 0.959 . S
C409 H394 0.959 . S
C409 H395 0.961 . S
C409 C408 1.502 1_565 S
C410 H396 0.960 . S
C410 H397 0.963 . S
C410 H398 0.959 . S
C410 C408 1.561 . S
C411 C408 1.526 . S
C411 C412 1.396 . S
C411 C416 1.390 . S
C412 C406 1.465 . S
C412 C411 1.396 . S
C412 C413 1.399 . S
C413 H399 0.929 . S
C413 C412 1.399 . S
C413 C414 1.385 . S
C414 H400 0.931 . S
C414 C413 1.385 . S
C414 C415 1.389 . S
C415 C414 1.389 . S
C415 C416 1.387 . S
C416 H401 0.930 . S
C416 C411 1.390 . S
C416 C415 1.387 . S
H417 C429 0.930 . S
H418 C431 0.930 . S
H419 C432 0.930 . S
H420 C436 0.959 . S
H421 C436 0.959 . S
H422 C436 0.961 . S
H423 C437 0.960 . S
H424 C437 0.961 . S
H425 C437 0.959 . S
H426 C440 0.932 . S
H427 C441 0.931 . S
H428 C443 0.930 . S
C429 H417 0.930 . S
C429 C430 1.399 . S
C429 C434 1.399 . S
C430 C429 1.399 . S
C430 C431 1.376 . S
C431 H418 0.930 . S
C431 C430 1.376 . S
C431 C432 1.388 . S
C432 H419 0.930 . S
C432 C431 1.388 . S
C432 C433 1.390 . S
C433 C432 1.390 . S
C433 C434 1.394 . S
C433 C439 1.465 . S
C434 C429 1.399 . S
C434 C433 1.394 . S
C434 C435 1.516 . S
C435 C434 1.516 . S
C435 C436 1.502 . S
C435 C437 1.561 . S
C435 C438 1.526 . S
C436 H420 0.959 . S
C436 H421 0.959 . S
C436 H422 0.961 . S
C436 C435 1.502 . S
C437 H423 0.960 . S
C437 H424 0.961 . S
C437 H425 0.959 . S
C437 C435 1.561 . S
C438 C435 1.526 . S
C438 C439 1.396 . S
C438 C443 1.390 . S
C439 C433 1.465 . S
C439 C438 1.396 . S
C439 C440 1.399 . S
C440 H426 0.932 . S
C440 C439 1.399 . S
C440 C441 1.385 . S
C441 H427 0.931 . S
C441 C440 1.385 . S
C441 C442 1.389 . S
C442 C441 1.389 . S
C442 C443 1.387 . S
C443 H428 0.930 . S
C443 C438 1.390 . S
C443 C442 1.387 . S
H444 C456 0.930 . S
H445 C458 0.930 . S
H446 C459 0.930 . S
H447 C463 0.959 . S
H448 C463 0.959 . S
H449 C463 0.961 . S
H450 C464 0.960 . S
H451 C464 0.961 . S
H452 C464 0.959 . S
H453 C467 0.929 . S
H454 C468 0.931 . S
H455 C470 0.930 . S
C456 H444 0.930 . S
C456 C457 1.399 . S
C456 C461 1.399 . S
C457 C456 1.399 . S
C457 C458 1.376 . S
C458 H445 0.930 . S
C458 C457 1.376 . S
C458 C459 1.388 . S
C459 H446 0.930 . S
C459 C458 1.388 . S
C459 C460 1.390 . S
C460 C459 1.390 . S
C460 C461 1.394 . S
C460 C466 1.465 . S
C461 C456 1.399 . S
C461 C460 1.394 . S
C461 C462 1.516 . S
C462 C461 1.516 . S
C462 C463 1.502 . S
C462 C464 1.561 1_545 S
C462 C465 1.526 . S
C463 H447 0.959 . S
C463 H448 0.959 . S
C463 H449 0.961 . S
C463 C462 1.502 . S
C464 H450 0.960 . S
C464 H451 0.961 . S
C464 H452 0.959 . S
C464 C462 1.561 1_565 S
C465 C462 1.526 . S
C465 C466 1.396 . S
C465 C470 1.390 . S
C466 C460 1.465 . S
C466 C465 1.396 . S
C466 C467 1.399 . S
C467 H453 0.929 . S
C467 C466 1.399 . S
C467 C468 1.385 . S
C468 H454 0.931 . S
C468 C467 1.385 . S
C468 C469 1.389 . S
C469 C468 1.389 . S
C469 C470 1.387 . S
C470 H455 0.930 . S
C470 C465 1.390 . S
C470 C469 1.387 . S
H471 C483 0.930 . S
H472 C485 0.930 . S
H473 C486 0.930 . S
H474 C490 0.959 . S
H475 C490 0.959 . S
H476 C490 0.961 . S
H477 C491 0.960 . S
H478 C491 0.961 . S
H479 C491 0.959 1_655 S
H480 C494 0.929 . S
H481 C495 0.931 . S
H482 C497 0.930 . S
C483 H471 0.930 . S
C483 C484 1.399 . S
C483 C488 1.399 . S
C484 C483 1.399 . S
C484 C485 1.376 . S
C485 H472 0.930 . S
C485 C484 1.376 . S
C485 C486 1.388 . S
C486 H473 0.930 . S
C486 C485 1.388 . S
C486 C487 1.390 . S
C487 C486 1.390 . S
C487 C488 1.394 . S
C487 C493 1.465 . S
C488 C483 1.399 . S
C488 C487 1.394 . S
C488 C489 1.516 . S
C489 C488 1.516 . S
C489 C490 1.502 . S
C489 C491 1.561 . S
C489 C492 1.526 . S
C490 H474 0.959 . S
C490 H475 0.959 . S
C490 H476 0.961 . S
C490 C489 1.502 . S
C491 H477 0.960 . S
C491 H478 0.961 . S
C491 H479 0.959 1_455 S
C491 C489 1.561 . S
C492 C489 1.526 . S
C492 C493 1.396 . S
C492 C497 1.390 . S
C493 C487 1.465 . S
C493 C492 1.396 . S
C493 C494 1.399 . S
C494 H480 0.929 . S
C494 C493 1.399 . S
C494 C495 1.385 . S
C495 H481 0.931 . S
C495 C494 1.385 . S
C495 C496 1.389 . S
C496 C495 1.389 . S
C496 C497 1.387 . S
C497 H482 0.930 . S
C497 C492 1.390 . S
C497 C496 1.387 . S
C307 C155 1.488 . S
C295 C22 1.488 . S
C334 C243 1.484 . S
C322 C91 1.478 . S
C361 C163 1.485 . S
C349 C38 1.483 . S
C388 C251 1.484 . S
C376 C75 1.487 . S
C415 C223 1.486 . S
C403 C39 1.483 . S
C442 C126 1.486 . S
C430 C82 1.487 . S
C469 C214 1.484 . S
C457 C29 1.481 . S
C484 C92 1.483 . S
C496 C135 1.480 . S
