# Generated by pormake.
# Topology bcu-b, (8,8)-cn, num edge types: 1
# Building blocks:
#     Node 0, Type 0, BuildingBlock: TAGTUT_clean_sbu_1, # of connection points: 8
#     Node 1, Type 1, BuildingBlock: GIZVER_clean_sbu_0, # of connection points: 8
#     Edge 2, Type (0, 1), BuildingBlock: MIFKUJ_clean_linker_0, # of connection points: 2
#     Edge 3, Type (0, 1), BuildingBlock: MIFKUJ_clean_linker_0, # of connection points: 2
#     Edge 4, Type (0, 1), BuildingBlock: MIFKUJ_clean_linker_0, # of connection points: 2
#     Edge 5, Type (0, 1), BuildingBlock: MIFKUJ_clean_linker_0, # of connection points: 2
#     Edge 6, Type (0, 1), BuildingBlock: MIFKUJ_clean_linker_0, # of connection points: 2
#     Edge 7, Type (0, 1), BuildingBlock: MIFKUJ_clean_linker_0, # of connection points: 2
#     Edge 8, Type (0, 1), BuildingBlock: MIFKUJ_clean_linker_0, # of connection points: 2
#     Edge 9, Type (0, 1), BuildingBlock: MIFKUJ_clean_linker_0, # of connection points: 2
# Relax obj value: 0.110
# Max RMSD: 0.178
# Mean RMSD: 0.172
data_MOF--net-bcu-b--node1-TAGTUT_clean_sbu_1--node2-GIZVER_clean_sbu_0--edge1-MIFKUJ_clean_linker_0
_symmetry_space_group_name_H-M    P1
_symmetry_Int_Tables_number       1
_symmetry_cell_setting            triclinic
loop_
_symmetry_equiv_pos_as_xyz
'x, y, z'
_cell_length_a     26.139763
_cell_length_b     27.907404
_cell_length_c     21.984485
_cell_angle_alpha  88.519947
_cell_angle_beta   93.763959
_cell_angle_gamma 105.40101
loop_
_atom_site_label
_atom_site_type_symbol
_atom_site_fract_x
_atom_site_fract_y
_atom_site_fract_z
_atom_type_partial_charge
C0 C 0.90292 0.1329 0.07627 0.0
C1 C 0.94604 0.11977 0.89548 0.0
C2 C 0.90134 0.92337 0.94145 0.0
Mg3 Mg 1.0049 0.1204 0.02048 0.0
O4 O 0.97078 0.05324 0.03611 0.0
Mg5 Mg 0.89702 0.02844 0.9971 0.0
Mg6 Mg 1.00354 1.00329 0.00257 0.0
O7 O 0.03662 0.9538 0.96823 0.0
Mg8 Mg 1.00482 0.88606 0.9821 0.0
Mg9 Mg 0.11167 0.97968 0.00236 0.0
C10 C 0.10613 0.08224 0.0674 0.0
C11 C 0.08822 0.06183 0.9048 0.0
O12 O 0.87652 0.09078 0.05339 0.0
O13 O 0.95296 0.15059 0.07054 0.0
O14 O 0.91126 0.08261 0.91578 0.0
O15 O 0.98947 0.13892 0.92628 0.0
O16 O 0.08444 0.11819 0.0566 0.0
O17 O 0.0814 0.03652 0.05736 0.0
C18 C 0.91595 0.94673 0.0984 0.0
O19 O 0.96257 0.9503 0.07975 0.0
O20 O 0.88656 0.97363 0.07549 0.0
O21 O 0.13107 0.91871 0.94196 0.0
O22 O 0.05456 0.85894 0.92527 0.0
O23 O 0.10146 0.92461 0.08289 0.0
C24 C 0.10418 0.87733 0.91753 0.0
O25 O 0.02493 0.86588 0.0745 0.0
O26 O 0.92373 0.88796 0.95316 0.0
C27 C 0.06875 0.88625 0.10389 0.0
O28 O 0.92655 0.96953 0.947 0.0
O29 O 0.04278 0.05691 0.92671 0.0
O30 O 0.11961 0.0357 0.92397 0.0
Co31 Co 0.57442 0.41691 0.48583 0.0
Co32 Co 0.5815 0.45455 0.5916 0.0
Co33 Co 0.50614 0.50268 0.50097 0.0
O34 O 0.57261 0.4802 0.51505 0.0
H35 H 0.60397 0.50609 0.5061 0.0
O36 O 0.44003 0.52613 0.4868 0.0
Co37 Co 0.43994 0.58993 0.51789 0.0
Co38 Co 0.43191 0.55401 0.41089 0.0
H39 H 0.40835 0.50052 0.49549 0.0
O40 O 0.64891 0.45841 0.62468 0.0
O41 O 0.59525 0.39583 0.56908 0.0
O42 O 0.5204 0.43862 0.63972 0.0
O43 O 0.4662 0.46046 0.56799 0.0
O44 O 0.53783 0.5575 0.55965 0.0
O45 O 0.43528 0.64583 0.54944 0.0
O46 O 0.37104 0.57416 0.53815 0.0
O47 O 0.51231 0.6143 0.50381 0.0
O48 O 0.54635 0.54472 0.43386 0.0
O49 O 0.4938 0.57063 0.36365 0.0
O50 O 0.42 0.613 0.43556 0.0
O51 O 0.36435 0.55276 0.37855 0.0
C52 C 0.62814 0.38806 0.44608 0.0
C53 C 0.47147 0.40165 0.45718 0.0
C54 C 0.47424 0.44001 0.61926 0.0
C55 C 0.63945 0.41429 0.60158 0.0
C56 C 0.38719 0.61972 0.55834 0.0
C57 C 0.54205 0.60306 0.54667 0.0
C58 C 0.53938 0.56699 0.38357 0.0
C59 C 0.37526 0.5963 0.40346 0.0
O60 O 0.58069 0.36099 0.45599 0.0
O61 O 0.64318 0.43395 0.46523 0.0
O62 O 0.47434 0.44693 0.44303 0.0
O63 O 0.50222 0.39172 0.49996 0.0
H64 H 0.20615 0.11318 0.02681 0.0
H65 H 0.2874 0.15209 0.08938 0.0
H66 H 0.19717 0.12375 0.25048 0.0
H67 H 0.11813 0.08226 0.18867 0.0
H68 H 0.30816 0.23091 0.14299 0.0
H69 H 0.26382 0.12718 0.37974 0.0
H70 H 0.23479 0.04061 0.41654 0.0
H71 H 0.28475 0.98932 0.25377 0.0
H72 H 0.31514 0.07563 0.21644 0.0
H73 H 0.3906 0.40402 0.37264 0.0
H74 H 0.34285 0.33793 0.30319 0.0
H75 H 0.43729 0.24266 0.37893 0.0
H76 H 0.48163 0.30685 0.45166 0.0
H77 H 0.34908 0.18787 0.35764 0.0
H78 H 0.45798 0.30396 0.23385 0.0
H79 H 0.50239 0.38509 0.18925 0.0
H80 H 0.35201 0.40089 0.11364 0.0
H81 H 0.30652 0.32014 0.15849 0.0
C82 C 0.20484 0.11341 0.07596 0.0
C83 C 0.15673 0.09413 0.10354 0.0
C84 C 0.25091 0.13604 0.11165 0.0
C85 C 0.24893 0.14066 0.17506 0.0
C86 C 0.20078 0.11942 0.20229 0.0
C87 C 0.15536 0.09587 0.16693 0.0
C88 C 0.29406 0.17325 0.21194 0.0
C89 C 0.31762 0.22113 0.18963 0.0
C90 C 0.30876 0.16014 0.27201 0.0
C91 C 0.29162 0.10809 0.29513 0.0
C92 C 0.26915 0.09756 0.352 0.0
C93 C 0.25233 0.04846 0.37291 0.0
C94 C 0.25785 0.00949 0.33747 0.0
C95 C 0.28041 0.01954 0.28113 0.0
C96 C 0.29741 0.06856 0.26006 0.0
C97 C 0.40088 0.36886 0.37467 0.0
C98 C 0.44049 0.36105 0.41702 0.0
C99 C 0.374 0.3312 0.33446 0.0
C100 C 0.3875 0.28559 0.33425 0.0
C101 C 0.42622 0.27744 0.37761 0.0
C102 C 0.4519 0.31448 0.41904 0.0
C103 C 0.36034 0.24626 0.28966 0.0
C104 C 0.34051 0.19719 0.31058 0.0
C105 C 0.35181 0.25733 0.22718 0.0
C106 C 0.37879 0.306 0.19981 0.0
C107 C 0.43431 0.32484 0.20798 0.0
C108 C 0.4597 0.37076 0.18263 0.0
C109 C 0.43004 0.39815 0.14868 0.0
C110 C 0.37493 0.37962 0.13993 0.0
C111 C 0.34933 0.33371 0.16523 0.0
H112 H 0.44976 0.43371 0.12909 0.0
H113 H 0.24466 0.97151 0.35368 0.0
H114 H 0.94004 0.23006 0.11003 0.0
H115 H 0.89636 0.27882 0.16872 0.0
H116 H 0.75963 0.15266 0.17938 0.0
H117 H 0.80276 0.10365 0.11918 0.0
H118 H 0.72895 0.23507 0.1585 0.0
H119 H 0.8527 0.18581 0.30067 0.0
H120 H 0.93984 0.17637 0.34084 0.0
H121 H 1.00344 0.33494 0.34019 0.0
H122 H 0.91679 0.34529 0.29922 0.0
H123 H 0.60888 0.29211 0.41066 0.0
H124 H 0.65919 0.25686 0.34353 0.0
H125 H 0.77628 0.39814 0.33376 0.0
H126 H 0.72554 0.43433 0.40167 0.0
H127 H 0.8207 0.31772 0.34769 0.0
H128 H 0.68927 0.36392 0.21593 0.0
H129 H 0.59934 0.36936 0.18125 0.0
H130 H 0.54613 0.21034 0.16931 0.0
H131 H 0.63557 0.20386 0.20479 0.0
C132 C 0.90068 0.21248 0.12484 0.0
C133 C 0.87517 0.16263 0.11046 0.0
C134 C 0.8758 0.24051 0.15858 0.0
C135 C 0.82512 0.2192 0.17953 0.0
C136 C 0.79887 0.16985 0.16392 0.0
C137 C 0.82361 0.14183 0.12963 0.0
C138 C 0.79984 0.24824 0.21824 0.0
C139 C 0.74872 0.25255 0.20031 0.0
C140 C 0.82622 0.27237 0.27193 0.0
C141 C 0.87847 0.26629 0.29612 0.0
C142 C 0.88541 0.21865 0.30853 0.0
C143 C 0.93468 0.21313 0.33157 0.0
C144 C 0.9772 0.25502 0.34286 0.0
C145 C 0.9705 0.30252 0.33129 0.0
C146 C 0.92132 0.30824 0.30818 0.0
C147 C 0.64543 0.31592 0.39465 0.0
C148 C 0.6629 0.3663 0.41109 0.0
C149 C 0.67397 0.29566 0.35582 0.0
C150 C 0.72074 0.32515 0.33242 0.0
C151 C 0.73987 0.37492 0.3508 0.0
C152 C 0.71101 0.39546 0.38975 0.0
C153 C 0.74915 0.30309 0.28912 0.0
C154 C 0.80099 0.30039 0.30583 0.0
C155 C 0.72302 0.27967 0.23498 0.0
C156 C 0.66914 0.28341 0.21337 0.0
C157 C 0.65832 0.33008 0.20635 0.0
C158 C 0.60743 0.33335 0.18649 0.0
C159 C 0.56705 0.29022 0.17312 0.0
C160 C 0.57747 0.24372 0.17965 0.0
C161 C 0.62828 0.24023 0.19955 0.0
H162 H 0.52775 0.29282 0.1575 0.0
H163 H 0.0153 0.25068 0.36074 0.0
H164 H 0.95833 0.87506 0.15641 0.0
H165 H 0.9107 0.80426 0.21767 0.0
H166 H 0.77033 0.85841 0.19895 0.0
H167 H 0.81725 0.92877 0.14049 0.0
H168 H 0.77869 0.82511 0.30785 0.0
H169 H 0.79396 0.76348 0.10344 0.0
H170 H 0.84824 0.74915 0.02146 0.0
H171 H 0.92353 0.66315 0.14474 0.0
H172 H 0.86985 0.67729 0.22749 0.0
H173 H 0.54423 0.63599 0.29188 0.0
H174 H 0.62382 0.69253 0.25333 0.0
H175 H 0.72256 0.6197 0.36541 0.0
H176 H 0.64298 0.56295 0.40518 0.0
H177 H 0.75247 0.65492 0.22818 0.0
H178 H 0.72657 0.71001 0.42949 0.0
H179 H 0.67273 0.72807 0.50936 0.0
H180 H 0.61628 0.82844 0.38781 0.0
H181 H 0.67013 0.81098 0.30719 0.0
C182 C 0.91757 0.87206 0.16607 0.0
C183 C 0.89161 0.90739 0.1426 0.0
C184 C 0.89027 0.83146 0.20087 0.0
C185 C 0.8365 0.82543 0.21215 0.0
C186 C 0.81169 0.86199 0.19108 0.0
C187 C 0.8388 0.90239 0.1572 0.0
C188 C 0.80399 0.78065 0.24318 0.0
C189 C 0.77341 0.78793 0.29054 0.0
C190 C 0.79766 0.73176 0.22189 0.0
C191 C 0.82821 0.72165 0.17161 0.0
C192 C 0.82208 0.74148 0.11296 0.0
C193 C 0.85276 0.73345 0.06641 0.0
C194 C 0.88937 0.70532 0.07793 0.0
C195 C 0.89516 0.68493 0.13591 0.0
C196 C 0.86457 0.69286 0.1826 0.0
C197 C 0.58269 0.63105 0.30747 0.0
C198 C 0.58704 0.59507 0.3521 0.0
C199 C 0.62818 0.66347 0.28532 0.0
C200 C 0.67895 0.6603 0.30669 0.0
C201 C 0.68367 0.62253 0.34821 0.0
C202 C 0.63809 0.5903 0.37101 0.0
C203 C 0.72614 0.70028 0.29066 0.0
C204 C 0.75908 0.69197 0.24638 0.0
C205 C 0.7346 0.74851 0.31426 0.0
C206 C 0.70203 0.75895 0.36234 0.0
C207 C 0.70236 0.73565 0.41972 0.0
C208 C 0.67191 0.74587 0.46515 0.0
C209 C 0.64084 0.77925 0.45362 0.0
C210 C 0.64032 0.80259 0.39667 0.0
C211 C 0.67095 0.79268 0.35117 0.0
H212 H 0.61732 0.78722 0.48881 0.0
H213 H 0.91321 0.69927 0.04191 0.0
H214 H 0.15512 0.92284 0.18191 0.0
H215 H 0.19951 0.87476 0.25075 0.0
H216 H 0.07 0.74394 0.21724 0.0
H217 H 0.02498 0.79181 0.14746 0.0
H218 H 0.12348 0.75469 0.34399 0.0
H219 H 0.15958 0.75264 0.13153 0.0
H220 H 0.18262 0.79249 0.03195 0.0
H221 H 0.33218 0.87829 0.11175 0.0
H222 H 0.30953 0.83958 0.21213 0.0
H223 H 0.26945 0.56735 0.36944 0.0
H224 H 0.21122 0.6204 0.33772 0.0
H225 H 0.34075 0.75079 0.37342 0.0
H226 H 0.39902 0.69792 0.407 0.0
H227 H 0.28627 0.74097 0.24912 0.0
H228 H 0.2514 0.74785 0.45947 0.0
H229 H 0.22807 0.71582 0.56201 0.0
H230 H 0.07982 0.62289 0.48819 0.0
H231 H 0.10191 0.6554 0.38483 0.0
C232 C 0.13517 0.88417 0.19027 0.0
C233 C 0.08701 0.86091 0.15796 0.0
C234 C 0.16068 0.85677 0.22979 0.0
C235 C 0.1385 0.80567 0.23807 0.0
C236 C 0.08781 0.78336 0.21116 0.0
C237 C 0.06217 0.81081 0.17125 0.0
C238 C 0.17181 0.77488 0.26697 0.0
C239 C 0.15864 0.75107 0.32293 0.0
C240 C 0.21831 0.7711 0.24001 0.0
C241 C 0.23264 0.79357 0.17945 0.0
C242 C 0.19721 0.78027 0.12793 0.0
C243 C 0.21021 0.80262 0.07135 0.0
C244 C 0.25879 0.83798 0.06556 0.0
C245 C 0.29454 0.85093 0.11633 0.0
C246 C 0.28166 0.82878 0.17308 0.0
C247 C 0.28537 0.60733 0.37135 0.0
C248 C 0.33895 0.62848 0.39016 0.0
C249 C 0.25198 0.63755 0.35349 0.0
C250 C 0.27174 0.68944 0.35315 0.0
C251 C 0.3248 0.71077 0.37348 0.0
C252 C 0.35796 0.68055 0.39266 0.0
C253 C 0.23818 0.72087 0.3264 0.0
C254 C 0.25114 0.74454 0.27031 0.0
C255 C 0.19164 0.72445 0.35322 0.0
C256 C 0.17858 0.70354 0.41451 0.0
C257 C 0.21405 0.7202 0.46504 0.0
C258 C 0.20096 0.70211 0.52336 0.0
C259 C 0.15275 0.66688 0.53174 0.0
C260 C 0.11726 0.65003 0.48167 0.0
C261 C 0.1299 0.6685 0.42321 0.0
H262 H 0.1428 0.65288 0.57704 0.0
H263 H 0.26876 0.85526 0.02172 0.0
H264 H 0.2101 0.89827 0.8943 0.0
H265 H 0.25266 0.85104 0.83092 0.0
H266 H 0.10125 0.74558 0.79061 0.0
H267 H 0.05851 0.79198 0.85409 0.0
H268 H 0.1776 0.69841 0.81507 0.0
H269 H 0.15452 0.83316 0.68604 0.0
H270 H 0.16211 0.9208 0.65799 0.0
H271 H 0.33234 0.95281 0.67729 0.0
H272 H 0.32575 0.86547 0.70628 0.0
H273 H 0.28015 0.5834 0.57721 0.0
H274 H 0.2256 0.62301 0.63539 0.0
H275 H 0.36254 0.74607 0.67554 0.0
H276 H 0.41612 0.70822 0.61621 0.0
H277 H 0.28462 0.78124 0.64536 0.0
H278 H 0.30782 0.64803 0.78196 0.0
H279 H 0.30046 0.56043 0.81026 0.0
H280 H 0.13098 0.52544 0.77648 0.0
H281 H 0.13743 0.61277 0.74731 0.0
C282 C 0.18581 0.86512 0.87188 0.0
C283 C 0.13079 0.84923 0.87915 0.0
C284 C 0.21018 0.83816 0.83555 0.0
C285 C 0.18002 0.79499 0.80545 0.0
C286 C 0.12532 0.77871 0.81333 0.0
C287 C 0.10095 0.80553 0.84959 0.0
C288 C 0.20537 0.767 0.76537 0.0
C289 C 0.20051 0.71634 0.77747 0.0
C290 C 0.23553 0.79037 0.71656 0.0
C291 C 0.2396 0.84287 0.69889 0.0
C292 C 0.19356 0.85897 0.68475 0.0
C293 C 0.19768 0.90858 0.66861 0.0
C294 C 0.24767 0.94238 0.66601 0.0
C295 C 0.29364 0.9266 0.6794 0.0
C296 C 0.28974 0.87704 0.69563 0.0
C297 C 0.29845 0.61894 0.59843 0.0
C298 C 0.35252 0.64255 0.59212 0.0
C299 C 0.26738 0.64138 0.63211 0.0
C300 C 0.29011 0.68747 0.66059 0.0
C301 C 0.34398 0.71078 0.65393 0.0
C302 C 0.37464 0.68886 0.61997 0.0
C303 C 0.25849 0.71288 0.69617 0.0
C304 C 0.26173 0.76313 0.6829 0.0
C305 C 0.22705 0.6891 0.74393 0.0
C306 C 0.22316 0.63677 0.7619 0.0
C307 C 0.26903 0.62157 0.78024 0.0
C308 C 0.26501 0.572 0.79647 0.0
C309 C 0.2153 0.53736 0.795 0.0
C310 C 0.16946 0.55228 0.7775 0.0
C311 C 0.17327 0.60181 0.76117 0.0
H312 H 0.21227 0.49899 0.80755 0.0
H313 H 0.25078 0.98077 0.6535 0.0
H314 H 0.10116 0.15953 0.92525 0.0
H315 H 0.15687 0.22913 0.87029 0.0
H316 H 0.17928 0.12746 0.73583 0.0
H317 H 0.12677 0.05762 0.79385 0.0
H318 H 0.26774 0.17902 0.76621 0.0
H319 H 0.10719 0.22571 0.70974 0.0
H320 H 0.02372 0.24926 0.72043 0.0
H321 H 0.10732 0.37219 0.83321 0.0
H322 H 0.19113 0.34912 0.82375 0.0
H323 H 0.36902 0.41997 0.5803 0.0
H324 H 0.2943 0.36053 0.62457 0.0
H325 H 0.39826 0.33492 0.77528 0.0
H326 H 0.47353 0.39353 0.73081 0.0
H327 H 0.2435 0.34765 0.72747 0.0
H328 H 0.36902 0.21239 0.80787 0.0
H329 H 0.45034 0.19105 0.78058 0.0
H330 H 0.42827 0.24143 0.59693 0.0
H331 H 0.34644 0.2623 0.62287 0.0
C332 C 0.11659 0.15242 0.88281 0.0
C333 C 0.10931 0.10348 0.86317 0.0
C334 C 0.14848 0.19229 0.85121 0.0
C335 C 0.17238 0.18403 0.79833 0.0
C336 C 0.16182 0.1351 0.77663 0.0
C337 C 0.13138 0.09516 0.80933 0.0
C338 C 0.21323 0.22492 0.77001 0.0
C339 C 0.26184 0.21566 0.75748 0.0
C340 C 0.20633 0.27312 0.75813 0.0
C341 C 0.15541 0.28546 0.76631 0.0
C342 C 0.10765 0.25738 0.73743 0.0
C343 C 0.0603 0.27076 0.74314 0.0
C344 C 0.06027 0.31222 0.77746 0.0
C345 C 0.10743 0.34011 0.80662 0.0
C346 C 0.15486 0.32694 0.80104 0.0
C347 C 0.37597 0.40239 0.62341 0.0
C348 C 0.42757 0.41108 0.65152 0.0
C349 C 0.33308 0.3684 0.6487 0.0
C350 C 0.34088 0.3425 0.70255 0.0
C351 C 0.39154 0.35372 0.73298 0.0
C352 C 0.43452 0.38744 0.70758 0.0
C353 C 0.29713 0.30132 0.72456 0.0
C354 C 0.24856 0.31068 0.73609 0.0
C355 C 0.30328 0.25278 0.73388 0.0
C356 C 0.3519 0.23936 0.71755 0.0
C357 C 0.3814 0.21867 0.76161 0.0
C358 C 0.42759 0.20669 0.74638 0.0
C359 C 0.44455 0.21503 0.68712 0.0
C360 C 0.4152 0.23513 0.64287 0.0
C361 C 0.36893 0.24707 0.65783 0.0
H362 H 0.48038 0.20582 0.67546 0.0
H363 H 0.02386 0.32306 0.78121 0.0
H364 H 0.98679 0.21719 0.86359 0.0
H365 H 0.94127 0.26657 0.7975 0.0
H366 H 0.82228 0.1338 0.74119 0.0
H367 H 0.8669 0.08395 0.80784 0.0
H368 H 0.84227 0.20475 0.64815 0.0
H369 H 0.8012 0.19388 0.85875 0.0
H370 H 0.82333 0.20008 0.9696 0.0
H371 H 0.89827 0.35595 0.94993 0.0
H372 H 0.87743 0.35048 0.83875 0.0
H373 H 0.62492 0.31457 0.58198 0.0
H374 H 0.68398 0.26329 0.61747 0.0
H375 H 0.79792 0.39343 0.69131 0.0
H376 H 0.7387 0.44444 0.65761 0.0
H377 H 0.78166 0.32242 0.77296 0.0
H378 H 0.81481 0.33236 0.55955 0.0
H379 H 0.79176 0.3227 0.44948 0.0
H380 H 0.72865 0.16538 0.47422 0.0
H381 H 0.75011 0.17429 0.58496 0.0
C382 C 0.95209 0.19817 0.8355 0.0
C383 C 0.92991 0.1467 0.84182 0.0
C384 C 0.92608 0.22655 0.79785 0.0
C385 C 0.87803 0.20396 0.76536 0.0
C386 C 0.85915 0.15202 0.76618 0.0
C387 C 0.88474 0.1236 0.80435 0.0
C388 C 0.84408 0.2347 0.73765 0.0
C389 C 0.82863 0.2303 0.67531 0.0
C390 C 0.8265 0.26806 0.7733 0.0
C391 C 0.83819 0.27167 0.84033 0.0
C392 C 0.82269 0.22941 0.878 0.0
C393 C 0.83499 0.23278 0.94089 0.0
C394 C 0.86227 0.27835 0.96676 0.0
C395 C 0.87719 0.32066 0.9298 0.0
C396 C 0.86514 0.31745 0.86685 0.0
C397 C 0.66277 0.3323 0.60531 0.0
C398 C 0.67684 0.38354 0.61751 0.0
C399 C 0.69665 0.30296 0.62533 0.0
C400 C 0.7456 0.32447 0.65697 0.0
C401 C 0.7603 0.37587 0.66733 0.0
C402 C 0.72635 0.40505 0.64791 0.0
C403 C 0.7803 0.29343 0.6827 0.0
C404 C 0.79554 0.29737 0.74525 0.0
C405 C 0.79709 0.25935 0.64722 0.0
C406 C 0.78367 0.25408 0.58069 0.0
C407 C 0.79552 0.29577 0.54166 0.0
C408 C 0.78279 0.29038 0.47905 0.0
C409 C 0.75882 0.24339 0.45476 0.0
C410 C 0.74724 0.20174 0.4931 0.0
C411 C 0.75962 0.20695 0.55581 0.0
H412 H 0.74929 0.23908 0.40628 0.0
H413 H 0.87174 0.2809 0.01545 0.0
H414 H 0.82291 0.84522 0.97631 0.0
H415 H 0.74573 0.80281 0.91144 0.0
H416 H 0.77949 0.92416 0.78198 0.0
H417 H 0.8568 0.96736 0.84752 0.0
H418 H 0.66074 0.85928 0.79158 0.0
H419 H 0.8418 0.85388 0.75282 0.0
H420 H 0.93066 0.84751 0.79108 0.0
H421 H 0.86068 0.7055 0.87212 0.0
H422 H 0.7713 0.71145 0.83502 0.0
H423 H 0.55811 0.70366 0.53402 0.0
H424 H 0.60925 0.76825 0.60352 0.0
H425 H 0.64529 0.65569 0.72445 0.0
H426 H 0.59653 0.59125 0.65385 0.0
H427 H 0.72961 0.7242 0.71439 0.0
H428 H 0.54957 0.72595 0.75293 0.0
H429 H 0.45885 0.73372 0.72698 0.0
H430 H 0.52284 0.87978 0.6531 0.0
H431 H 0.61394 0.87287 0.67876 0.0
C432 C 0.81234 0.86397 0.93548 0.0
C433 C 0.84611 0.90894 0.91606 0.0
C434 C 0.76819 0.83981 0.89861 0.0
C435 C 0.75776 0.86005 0.8416 0.0
C436 C 0.78707 0.90812 0.82596 0.0
C437 C 0.83119 0.9327 0.86335 0.0
C438 C 0.72642 0.82636 0.79407 0.0
C439 C 0.67575 0.83008 0.77381 0.0
C440 C 0.74613 0.78807 0.77188 0.0
C441 C 0.79996 0.78323 0.79144 0.0
C442 C 0.84541 0.82136 0.77889 0.0
C443 C 0.89584 0.81784 0.80039 0.0
C444 C 0.90132 0.77614 0.83406 0.0
C445 C 0.85638 0.73776 0.846 0.0
C446 C 0.80585 0.74114 0.82467 0.0
C447 C 0.57714 0.69271 0.57533 0.0
C448 C 0.57358 0.64232 0.58819 0.0
C449 C 0.60587 0.72969 0.6154 0.0
C450 C 0.63057 0.71694 0.66977 0.0
C451 C 0.62671 0.66658 0.68276 0.0
C452 C 0.59879 0.6297 0.6423 0.0
C453 C 0.66251 0.75578 0.71212 0.0
C454 C 0.71403 0.75332 0.73139 0.0
C455 C 0.64318 0.79489 0.73345 0.0
C456 C 0.58849 0.79869 0.71722 0.0
C457 C 0.54425 0.75955 0.73074 0.0
C458 C 0.49277 0.76387 0.71622 0.0
C459 C 0.4851 0.80715 0.68814 0.0
C460 C 0.52886 0.84626 0.67474 0.0
C461 C 0.58039 0.84223 0.68942 0.0
H462 H 0.4453 0.81056 0.67694 0.0
H463 H 0.94038 0.77357 0.85084 0.0
loop_
_geom_bond_atom_site_label_1
_geom_bond_atom_site_label_2
_geom_bond_distance
_geom_bond_site_symmetry_2
_ccdc_geom_bond_type
C0 O12 1.241 . S
C0 O13 1.280 . S
C1 O14 1.277 . S
C1 O15 1.245 . S
C2 O26 1.247 . S
C2 O28 1.289 . S
Mg3 O4 1.926 . S
Mg3 O13 1.984 . S
Mg3 O15 1.988 1_554 S
Mg3 O16 2.061 1_655 S
O4 Mg3 1.926 . S
O4 Mg5 1.986 1_554 S
O4 Mg6 1.917 1_655 S
Mg5 O4 1.986 1_556 S
Mg5 O12 2.042 1_556 S
Mg5 O14 2.041 . S
Mg5 O20 2.038 1_546 S
Mg5 O28 2.238 1_545 S
Mg6 O4 1.917 1_455 S
Mg6 O7 1.917 1_544 S
Mg6 O17 2.107 . S
Mg6 O19 2.079 1_445 S
Mg6 O28 2.106 1_444 S
Mg6 O29 2.079 1_554 S
O7 Mg6 1.917 1_566 S
O7 Mg8 1.926 . S
O7 Mg9 1.986 1_556 S
Mg8 O7 1.926 . S
Mg8 O22 1.984 . S
Mg8 O25 1.988 1_556 S
Mg8 O26 2.061 1_455 S
Mg9 O7 1.986 1_554 S
Mg9 O17 2.238 1_565 S
Mg9 O21 2.042 1_554 S
Mg9 O23 2.041 . S
Mg9 O30 2.038 1_564 S
C10 O16 1.247 . S
C10 O17 1.289 . S
C11 O29 1.245 . S
C11 O30 1.274 . S
O12 C0 1.241 . S
O12 Mg5 2.042 1_554 S
O13 C0 1.280 . S
O13 Mg3 1.984 . S
O14 C1 1.277 . S
O14 Mg5 2.041 . S
O15 C1 1.245 . S
O15 Mg3 1.988 1_556 S
O16 Mg3 2.061 1_455 S
O16 C10 1.247 . S
O17 Mg6 2.107 . S
O17 Mg9 2.238 1_545 S
O17 C10 1.289 . S
C18 O19 1.245 . S
C18 O20 1.274 . S
O19 Mg6 2.079 1_665 S
O19 C18 1.245 . S
O20 Mg5 2.038 1_564 S
O20 C18 1.274 . S
O21 Mg9 2.042 1_556 S
O21 C24 1.241 . S
O22 Mg8 1.984 . S
O22 C24 1.280 . S
O23 Mg9 2.041 . S
O23 C27 1.277 . S
C24 O21 1.241 . S
C24 O22 1.280 . S
O25 Mg8 1.988 1_554 S
O25 C27 1.245 . S
O26 C2 1.247 . S
O26 Mg8 2.061 1_655 S
C27 O23 1.277 . S
C27 O25 1.245 . S
O28 C2 1.289 . S
O28 Mg5 2.238 1_565 S
O28 Mg6 2.106 1_666 S
O29 Mg6 2.079 1_556 S
O29 C11 1.245 . S
O30 Mg9 2.038 1_546 S
O30 C11 1.274 . S
Co31 O34 2.042 . S
Co31 O41 2.264 . S
Co31 O60 2.286 . S
Co31 O61 2.069 . S
Co31 O63 2.015 . S
Co32 O34 2.122 . S
Co32 O40 2.073 . S
Co32 O41 2.327 . S
Co32 O42 1.976 . S
Co33 O34 2.087 . S
Co33 O36 2.087 . S
Co33 O43 2.111 . S
Co33 O44 2.143 . S
Co33 O48 2.111 . S
Co33 O62 2.143 . S
O34 Co31 2.042 . S
O34 Co32 2.122 . S
O34 Co33 2.087 . S
O34 H35 0.980 . S
H35 O34 0.980 . S
O36 Co33 2.087 . S
O36 Co37 2.042 . S
O36 Co38 2.122 . S
O36 H39 0.980 . S
Co37 O36 2.042 . S
Co37 O45 2.286 . S
Co37 O46 2.069 . S
Co37 O47 2.015 . S
Co37 O50 2.264 . S
Co38 O36 2.122 . S
Co38 O49 1.976 . S
Co38 O50 2.327 . S
Co38 O51 2.073 . S
H39 O36 0.980 . S
O40 Co32 2.073 . S
O40 C55 1.245 . S
O41 Co31 2.264 . S
O41 Co32 2.327 . S
O41 C55 1.257 . S
O42 Co32 1.976 . S
O42 C54 1.251 . S
O43 Co33 2.111 . S
O43 C54 1.274 . S
O44 Co33 2.143 . S
O44 C57 1.246 . S
O45 Co37 2.286 . S
O45 C56 1.259 . S
O46 Co37 2.069 . S
O46 C56 1.289 . S
O47 Co37 2.015 . S
O47 C57 1.257 . S
O48 Co33 2.111 . S
O48 C58 1.274 . S
O49 Co38 1.976 . S
O49 C58 1.251 . S
O50 Co37 2.264 . S
O50 Co38 2.327 . S
O50 C59 1.257 . S
O51 Co38 2.073 . S
O51 C59 1.245 . S
C52 O60 1.259 . S
C52 O61 1.289 . S
C53 O62 1.246 . S
C53 O63 1.257 . S
C54 O42 1.251 . S
C54 O43 1.274 . S
C55 O40 1.245 . S
C55 O41 1.257 . S
C56 O45 1.259 . S
C56 O46 1.289 . S
C57 O44 1.246 . S
C57 O47 1.257 . S
C58 O48 1.274 . S
C58 O49 1.251 . S
C59 O50 1.257 . S
C59 O51 1.245 . S
O60 Co31 2.286 . S
O60 C52 1.259 . S
O61 Co31 2.069 . S
O61 C52 1.289 . S
O62 Co33 2.143 . S
O62 C53 1.246 . S
O63 Co31 2.015 . S
O63 C53 1.257 . S
H64 C82 0.951 . S
H65 C84 0.951 . S
H66 C86 0.950 . S
H67 C87 0.950 . S
H68 C89 0.950 . S
H69 C92 0.950 . S
H70 C93 0.950 . S
H71 C95 0.950 . S
H72 C96 0.950 . S
H73 C97 0.951 . S
H74 C99 0.951 . S
H75 C101 0.950 . S
H76 C102 0.950 . S
H77 C104 0.950 . S
H78 C107 0.950 . S
H79 C108 0.950 . S
H80 C110 0.950 . S
H81 C111 0.950 . S
C82 H64 0.951 . S
C82 C83 1.366 . S
C82 C84 1.388 . S
C83 C82 1.366 . S
C83 C87 1.385 . S
C84 H65 0.951 . S
C84 C82 1.388 . S
C84 C85 1.366 . S
C85 C84 1.366 . S
C85 C86 1.414 . S
C85 C88 1.499 . S
C86 H66 0.950 . S
C86 C85 1.414 . S
C86 C87 1.374 . S
C87 H67 0.950 . S
C87 C83 1.385 . S
C87 C86 1.374 . S
C88 C85 1.499 . S
C88 C89 1.373 . S
C88 C90 1.389 . S
C89 H68 0.950 . S
C89 C88 1.373 . S
C89 C105 1.377 . S
C90 C88 1.389 . S
C90 C91 1.524 . S
C90 C104 1.377 . S
C91 C90 1.524 . S
C91 C92 1.397 . S
C91 C96 1.363 . S
C92 H69 0.950 . S
C92 C91 1.397 . S
C92 C93 1.334 . S
C93 H70 0.950 . S
C93 C92 1.334 . S
C93 C94 1.287 . S
C94 C93 1.287 . S
C94 C95 1.524 . S
C94 H113 0.913 . S
C95 H71 0.950 . S
C95 C94 1.524 . S
C95 C96 1.415 . S
C96 H72 0.950 . S
C96 C91 1.363 . S
C96 C95 1.415 . S
C97 H73 0.951 . S
C97 C98 1.366 . S
C97 C99 1.388 . S
C98 C97 1.366 . S
C98 C102 1.385 . S
C99 H74 0.951 . S
C99 C97 1.388 . S
C99 C100 1.366 . S
C100 C99 1.366 . S
C100 C101 1.414 . S
C100 C103 1.499 . S
C101 H75 0.950 . S
C101 C100 1.414 . S
C101 C102 1.374 . S
C102 H76 0.950 . S
C102 C98 1.385 . S
C102 C101 1.374 . S
C103 C100 1.499 . S
C103 C104 1.373 . S
C103 C105 1.389 . S
C104 H77 0.950 . S
C104 C90 1.377 . S
C104 C103 1.373 . S
C105 C89 1.377 . S
C105 C103 1.389 . S
C105 C106 1.524 . S
C106 C105 1.524 . S
C106 C107 1.397 . S
C106 C111 1.363 . S
C107 H78 0.950 . S
C107 C106 1.397 . S
C107 C108 1.334 . S
C108 H79 0.950 . S
C108 C107 1.334 . S
C108 C109 1.287 . S
C109 C108 1.287 . S
C109 C110 1.524 . S
C109 H112 0.999 . S
C110 H80 0.950 . S
C110 C109 1.524 . S
C110 C111 1.415 . S
C111 H81 0.950 . S
C111 C106 1.363 . S
C111 C110 1.415 . S
H112 C109 0.999 . S
H113 C94 0.913 . S
H114 C132 0.951 . S
H115 C134 0.951 . S
H116 C136 0.950 . S
H117 C137 0.950 . S
H118 C139 0.950 . S
H119 C142 0.950 . S
H120 C143 0.950 . S
H121 C145 0.950 . S
H122 C146 0.950 . S
H123 C147 0.951 . S
H124 C149 0.951 . S
H125 C151 0.950 . S
H126 C152 0.950 . S
H127 C154 0.950 . S
H128 C157 0.950 . S
H129 C158 0.950 . S
H130 C160 0.950 . S
H131 C161 0.950 . S
C132 H114 0.951 . S
C132 C133 1.366 . S
C132 C134 1.388 . S
C133 C132 1.366 . S
C133 C137 1.385 . S
C134 H115 0.951 . S
C134 C132 1.388 . S
C134 C135 1.366 . S
C135 C134 1.366 . S
C135 C136 1.414 . S
C135 C138 1.499 . S
C136 H116 0.950 . S
C136 C135 1.414 . S
C136 C137 1.374 . S
C137 H117 0.950 . S
C137 C133 1.385 . S
C137 C136 1.374 . S
C138 C135 1.499 . S
C138 C139 1.373 . S
C138 C140 1.389 . S
C139 H118 0.950 . S
C139 C138 1.373 . S
C139 C155 1.377 . S
C140 C138 1.389 . S
C140 C141 1.524 . S
C140 C154 1.377 . S
C141 C140 1.524 . S
C141 C142 1.397 . S
C141 C146 1.363 . S
C142 H119 0.950 . S
C142 C141 1.397 . S
C142 C143 1.334 . S
C143 H120 0.950 . S
C143 C142 1.334 . S
C143 C144 1.287 . S
C144 C143 1.287 . S
C144 C145 1.524 . S
C144 H163 0.913 . S
C145 H121 0.950 . S
C145 C144 1.524 . S
C145 C146 1.415 . S
C146 H122 0.950 . S
C146 C141 1.363 . S
C146 C145 1.415 . S
C147 H123 0.951 . S
C147 C148 1.366 . S
C147 C149 1.388 . S
C148 C147 1.366 . S
C148 C152 1.385 . S
C149 H124 0.951 . S
C149 C147 1.388 . S
C149 C150 1.366 . S
C150 C149 1.366 . S
C150 C151 1.414 . S
C150 C153 1.499 . S
C151 H125 0.950 . S
C151 C150 1.414 . S
C151 C152 1.374 . S
C152 H126 0.950 . S
C152 C148 1.385 . S
C152 C151 1.374 . S
C153 C150 1.499 . S
C153 C154 1.373 . S
C153 C155 1.389 . S
C154 H127 0.950 . S
C154 C140 1.377 . S
C154 C153 1.373 . S
C155 C139 1.377 . S
C155 C153 1.389 . S
C155 C156 1.524 . S
C156 C155 1.524 . S
C156 C157 1.397 . S
C156 C161 1.363 . S
C157 H128 0.950 . S
C157 C156 1.397 . S
C157 C158 1.334 . S
C158 H129 0.950 . S
C158 C157 1.334 . S
C158 C159 1.287 . S
C159 C158 1.287 . S
C159 C160 1.524 . S
C159 H162 0.999 . S
C160 H130 0.950 . S
C160 C159 1.524 . S
C160 C161 1.415 . S
C161 H131 0.950 . S
C161 C156 1.363 . S
C161 C160 1.415 . S
H162 C159 0.999 . S
H163 C144 0.913 . S
H164 C182 0.951 . S
H165 C184 0.951 . S
H166 C186 0.950 . S
H167 C187 0.950 . S
H168 C189 0.950 . S
H169 C192 0.950 . S
H170 C193 0.950 . S
H171 C195 0.950 . S
H172 C196 0.950 . S
H173 C197 0.951 . S
H174 C199 0.951 . S
H175 C201 0.950 . S
H176 C202 0.950 . S
H177 C204 0.950 . S
H178 C207 0.950 . S
H179 C208 0.950 . S
H180 C210 0.950 . S
H181 C211 0.950 . S
C182 H164 0.951 . S
C182 C183 1.366 . S
C182 C184 1.388 . S
C183 C182 1.366 . S
C183 C187 1.385 . S
C184 H165 0.951 . S
C184 C182 1.388 . S
C184 C185 1.366 . S
C185 C184 1.366 . S
C185 C186 1.414 . S
C185 C188 1.499 . S
C186 H166 0.950 . S
C186 C185 1.414 . S
C186 C187 1.374 . S
C187 H167 0.950 . S
C187 C183 1.385 . S
C187 C186 1.374 . S
C188 C185 1.499 . S
C188 C189 1.373 . S
C188 C190 1.389 . S
C189 H168 0.950 . S
C189 C188 1.373 . S
C189 C205 1.377 . S
C190 C188 1.389 . S
C190 C191 1.524 . S
C190 C204 1.377 . S
C191 C190 1.524 . S
C191 C192 1.397 . S
C191 C196 1.363 . S
C192 H169 0.950 . S
C192 C191 1.397 . S
C192 C193 1.334 . S
C193 H170 0.950 . S
C193 C192 1.334 . S
C193 C194 1.287 . S
C194 C193 1.287 . S
C194 C195 1.524 . S
C194 H213 0.913 . S
C195 H171 0.950 . S
C195 C194 1.524 . S
C195 C196 1.415 . S
C196 H172 0.950 . S
C196 C191 1.363 . S
C196 C195 1.415 . S
C197 H173 0.951 . S
C197 C198 1.366 . S
C197 C199 1.388 . S
C198 C197 1.366 . S
C198 C202 1.385 . S
C199 H174 0.951 . S
C199 C197 1.388 . S
C199 C200 1.366 . S
C200 C199 1.366 . S
C200 C201 1.414 . S
C200 C203 1.499 . S
C201 H175 0.950 . S
C201 C200 1.414 . S
C201 C202 1.374 . S
C202 H176 0.950 . S
C202 C198 1.385 . S
C202 C201 1.374 . S
C203 C200 1.499 . S
C203 C204 1.373 . S
C203 C205 1.389 . S
C204 H177 0.950 . S
C204 C190 1.377 . S
C204 C203 1.373 . S
C205 C189 1.377 . S
C205 C203 1.389 . S
C205 C206 1.524 . S
C206 C205 1.524 . S
C206 C207 1.397 . S
C206 C211 1.363 . S
C207 H178 0.950 . S
C207 C206 1.397 . S
C207 C208 1.334 . S
C208 H179 0.950 . S
C208 C207 1.334 . S
C208 C209 1.287 . S
C209 C208 1.287 . S
C209 C210 1.524 . S
C209 H212 0.999 . S
C210 H180 0.950 . S
C210 C209 1.524 . S
C210 C211 1.415 . S
C211 H181 0.950 . S
C211 C206 1.363 . S
C211 C210 1.415 . S
H212 C209 0.999 . S
H213 C194 0.913 . S
H214 C232 0.951 . S
H215 C234 0.951 . S
H216 C236 0.950 . S
H217 C237 0.950 . S
H218 C239 0.950 . S
H219 C242 0.950 . S
H220 C243 0.950 . S
H221 C245 0.950 . S
H222 C246 0.950 . S
H223 C247 0.951 . S
H224 C249 0.951 . S
H225 C251 0.950 . S
H226 C252 0.950 . S
H227 C254 0.950 . S
H228 C257 0.950 . S
H229 C258 0.950 . S
H230 C260 0.950 . S
H231 C261 0.950 . S
C232 H214 0.951 . S
C232 C233 1.366 . S
C232 C234 1.388 . S
C233 C232 1.366 . S
C233 C237 1.385 . S
C234 H215 0.951 . S
C234 C232 1.388 . S
C234 C235 1.366 . S
C235 C234 1.366 . S
C235 C236 1.414 . S
C235 C238 1.499 . S
C236 H216 0.950 . S
C236 C235 1.414 . S
C236 C237 1.374 . S
C237 H217 0.950 . S
C237 C233 1.385 . S
C237 C236 1.374 . S
C238 C235 1.499 . S
C238 C239 1.373 . S
C238 C240 1.389 . S
C239 H218 0.950 . S
C239 C238 1.373 . S
C239 C255 1.377 . S
C240 C238 1.389 . S
C240 C241 1.524 . S
C240 C254 1.377 . S
C241 C240 1.524 . S
C241 C242 1.397 . S
C241 C246 1.363 . S
C242 H219 0.950 . S
C242 C241 1.397 . S
C242 C243 1.334 . S
C243 H220 0.950 . S
C243 C242 1.334 . S
C243 C244 1.287 . S
C244 C243 1.287 . S
C244 C245 1.524 . S
C244 H263 0.913 1_554 S
C245 H221 0.950 . S
C245 C244 1.524 . S
C245 C246 1.415 . S
C246 H222 0.950 . S
C246 C241 1.363 . S
C246 C245 1.415 . S
C247 H223 0.951 . S
C247 C248 1.366 . S
C247 C249 1.388 . S
C248 C247 1.366 . S
C248 C252 1.385 . S
C249 H224 0.951 . S
C249 C247 1.388 . S
C249 C250 1.366 . S
C250 C249 1.366 . S
C250 C251 1.414 . S
C250 C253 1.499 . S
C251 H225 0.950 . S
C251 C250 1.414 . S
C251 C252 1.374 . S
C252 H226 0.950 . S
C252 C248 1.385 . S
C252 C251 1.374 . S
C253 C250 1.499 . S
C253 C254 1.373 . S
C253 C255 1.389 . S
C254 H227 0.950 . S
C254 C240 1.377 . S
C254 C253 1.373 . S
C255 C239 1.377 . S
C255 C253 1.389 . S
C255 C256 1.524 . S
C256 C255 1.524 . S
C256 C257 1.397 . S
C256 C261 1.363 . S
C257 H228 0.950 . S
C257 C256 1.397 . S
C257 C258 1.334 . S
C258 H229 0.950 . S
C258 C257 1.334 . S
C258 C259 1.287 . S
C259 C258 1.287 . S
C259 C260 1.524 . S
C259 H262 0.999 . S
C260 H230 0.950 . S
C260 C259 1.524 . S
C260 C261 1.415 . S
C261 H231 0.950 . S
C261 C256 1.363 . S
C261 C260 1.415 . S
H262 C259 0.999 . S
H263 C244 0.913 1_556 S
H264 C282 0.951 . S
H265 C284 0.951 . S
H266 C286 0.950 . S
H267 C287 0.950 . S
H268 C289 0.950 . S
H269 C292 0.950 . S
H270 C293 0.950 . S
H271 C295 0.950 . S
H272 C296 0.950 . S
H273 C297 0.951 . S
H274 C299 0.951 . S
H275 C301 0.950 . S
H276 C302 0.950 . S
H277 C304 0.950 . S
H278 C307 0.950 . S
H279 C308 0.950 . S
H280 C310 0.950 . S
H281 C311 0.950 . S
C282 H264 0.951 . S
C282 C283 1.366 . S
C282 C284 1.388 . S
C283 C282 1.366 . S
C283 C287 1.385 . S
C284 H265 0.951 . S
C284 C282 1.388 . S
C284 C285 1.366 . S
C285 C284 1.366 . S
C285 C286 1.414 . S
C285 C288 1.499 . S
C286 H266 0.950 . S
C286 C285 1.414 . S
C286 C287 1.374 . S
C287 H267 0.950 . S
C287 C283 1.385 . S
C287 C286 1.374 . S
C288 C285 1.499 . S
C288 C289 1.373 . S
C288 C290 1.389 . S
C289 H268 0.950 . S
C289 C288 1.373 . S
C289 C305 1.377 . S
C290 C288 1.389 . S
C290 C291 1.524 . S
C290 C304 1.377 . S
C291 C290 1.524 . S
C291 C292 1.397 . S
C291 C296 1.363 . S
C292 H269 0.950 . S
C292 C291 1.397 . S
C292 C293 1.334 . S
C293 H270 0.950 . S
C293 C292 1.334 . S
C293 C294 1.287 . S
C294 C293 1.287 . S
C294 C295 1.524 . S
C294 H313 0.913 1_565 S
C295 H271 0.950 . S
C295 C294 1.524 . S
C295 C296 1.415 . S
C296 H272 0.950 . S
C296 C291 1.363 . S
C296 C295 1.415 . S
C297 H273 0.951 . S
C297 C298 1.366 . S
C297 C299 1.388 . S
C298 C297 1.366 . S
C298 C302 1.385 . S
C299 H274 0.951 . S
C299 C297 1.388 . S
C299 C300 1.366 . S
C300 C299 1.366 . S
C300 C301 1.414 . S
C300 C303 1.499 . S
C301 H275 0.950 . S
C301 C300 1.414 . S
C301 C302 1.374 . S
C302 H276 0.950 . S
C302 C298 1.385 . S
C302 C301 1.374 . S
C303 C300 1.499 . S
C303 C304 1.373 . S
C303 C305 1.389 . S
C304 H277 0.950 . S
C304 C290 1.377 . S
C304 C303 1.373 . S
C305 C289 1.377 . S
C305 C303 1.389 . S
C305 C306 1.524 . S
C306 C305 1.524 . S
C306 C307 1.397 . S
C306 C311 1.363 . S
C307 H278 0.950 . S
C307 C306 1.397 . S
C307 C308 1.334 . S
C308 H279 0.950 . S
C308 C307 1.334 . S
C308 C309 1.287 . S
C309 C308 1.287 . S
C309 C310 1.524 . S
C309 H312 0.999 . S
C310 H280 0.950 . S
C310 C309 1.524 . S
C310 C311 1.415 . S
C311 H281 0.950 . S
C311 C306 1.363 . S
C311 C310 1.415 . S
H312 C309 0.999 . S
H313 C294 0.913 1_545 S
H314 C332 0.951 . S
H315 C334 0.951 . S
H316 C336 0.950 . S
H317 C337 0.950 . S
H318 C339 0.950 . S
H319 C342 0.950 . S
H320 C343 0.950 . S
H321 C345 0.950 . S
H322 C346 0.950 . S
H323 C347 0.951 . S
H324 C349 0.951 . S
H325 C351 0.950 . S
H326 C352 0.950 . S
H327 C354 0.950 . S
H328 C357 0.950 . S
H329 C358 0.950 . S
H330 C360 0.950 . S
H331 C361 0.950 . S
C332 H314 0.951 . S
C332 C333 1.366 . S
C332 C334 1.388 . S
C333 C332 1.366 . S
C333 C337 1.385 . S
C334 H315 0.951 . S
C334 C332 1.388 . S
C334 C335 1.366 . S
C335 C334 1.366 . S
C335 C336 1.414 . S
C335 C338 1.499 . S
C336 H316 0.950 . S
C336 C335 1.414 . S
C336 C337 1.374 . S
C337 H317 0.950 . S
C337 C333 1.385 . S
C337 C336 1.374 . S
C338 C335 1.499 . S
C338 C339 1.373 . S
C338 C340 1.389 . S
C339 H318 0.950 . S
C339 C338 1.373 . S
C339 C355 1.377 . S
C340 C338 1.389 . S
C340 C341 1.524 . S
C340 C354 1.377 . S
C341 C340 1.524 . S
C341 C342 1.397 . S
C341 C346 1.363 . S
C342 H319 0.950 . S
C342 C341 1.397 . S
C342 C343 1.334 . S
C343 H320 0.950 . S
C343 C342 1.334 . S
C343 C344 1.287 . S
C344 C343 1.287 . S
C344 C345 1.524 . S
C344 H363 0.913 . S
C345 H321 0.950 . S
C345 C344 1.524 . S
C345 C346 1.415 . S
C346 H322 0.950 . S
C346 C341 1.363 . S
C346 C345 1.415 . S
C347 H323 0.951 . S
C347 C348 1.366 . S
C347 C349 1.388 . S
C348 C347 1.366 . S
C348 C352 1.385 . S
C349 H324 0.951 . S
C349 C347 1.388 . S
C349 C350 1.366 . S
C350 C349 1.366 . S
C350 C351 1.414 . S
C350 C353 1.499 . S
C351 H325 0.950 . S
C351 C350 1.414 . S
C351 C352 1.374 . S
C352 H326 0.950 . S
C352 C348 1.385 . S
C352 C351 1.374 . S
C353 C350 1.499 . S
C353 C354 1.373 . S
C353 C355 1.389 . S
C354 H327 0.950 . S
C354 C340 1.377 . S
C354 C353 1.373 . S
C355 C339 1.377 . S
C355 C353 1.389 . S
C355 C356 1.524 . S
C356 C355 1.524 . S
C356 C357 1.397 . S
C356 C361 1.363 . S
C357 H328 0.950 . S
C357 C356 1.397 . S
C357 C358 1.334 . S
C358 H329 0.950 . S
C358 C357 1.334 . S
C358 C359 1.287 . S
C359 C358 1.287 . S
C359 C360 1.524 . S
C359 H362 0.999 . S
C360 H330 0.950 . S
C360 C359 1.524 . S
C360 C361 1.415 . S
C361 H331 0.950 . S
C361 C356 1.363 . S
C361 C360 1.415 . S
H362 C359 0.999 . S
H363 C344 0.913 . S
H364 C382 0.951 . S
H365 C384 0.951 . S
H366 C386 0.950 . S
H367 C387 0.950 . S
H368 C389 0.950 . S
H369 C392 0.950 . S
H370 C393 0.950 . S
H371 C395 0.950 . S
H372 C396 0.950 . S
H373 C397 0.951 . S
H374 C399 0.951 . S
H375 C401 0.950 . S
H376 C402 0.950 . S
H377 C404 0.950 . S
H378 C407 0.950 . S
H379 C408 0.950 . S
H380 C410 0.950 . S
H381 C411 0.950 . S
C382 H364 0.951 . S
C382 C383 1.366 . S
C382 C384 1.388 . S
C383 C382 1.366 . S
C383 C387 1.385 . S
C384 H365 0.951 . S
C384 C382 1.388 . S
C384 C385 1.366 . S
C385 C384 1.366 . S
C385 C386 1.414 . S
C385 C388 1.499 . S
C386 H366 0.950 . S
C386 C385 1.414 . S
C386 C387 1.374 . S
C387 H367 0.950 . S
C387 C383 1.385 . S
C387 C386 1.374 . S
C388 C385 1.499 . S
C388 C389 1.373 . S
C388 C390 1.389 . S
C389 H368 0.950 . S
C389 C388 1.373 . S
C389 C405 1.377 . S
C390 C388 1.389 . S
C390 C391 1.524 . S
C390 C404 1.377 . S
C391 C390 1.524 . S
C391 C392 1.397 . S
C391 C396 1.363 . S
C392 H369 0.950 . S
C392 C391 1.397 . S
C392 C393 1.334 . S
C393 H370 0.950 . S
C393 C392 1.334 . S
C393 C394 1.287 . S
C394 C393 1.287 . S
C394 C395 1.524 . S
C394 H413 0.913 . S
C395 H371 0.950 . S
C395 C394 1.524 . S
C395 C396 1.415 . S
C396 H372 0.950 . S
C396 C391 1.363 . S
C396 C395 1.415 . S
C397 H373 0.951 . S
C397 C398 1.366 . S
C397 C399 1.388 . S
C398 C397 1.366 . S
C398 C402 1.385 . S
C399 H374 0.951 . S
C399 C397 1.388 . S
C399 C400 1.366 . S
C400 C399 1.366 . S
C400 C401 1.414 . S
C400 C403 1.499 . S
C401 H375 0.950 . S
C401 C400 1.414 . S
C401 C402 1.374 . S
C402 H376 0.950 . S
C402 C398 1.385 . S
C402 C401 1.374 . S
C403 C400 1.499 . S
C403 C404 1.373 . S
C403 C405 1.389 . S
C404 H377 0.950 . S
C404 C390 1.377 . S
C404 C403 1.373 . S
C405 C389 1.377 . S
C405 C403 1.389 . S
C405 C406 1.524 . S
C406 C405 1.524 . S
C406 C407 1.397 . S
C406 C411 1.363 . S
C407 H378 0.950 . S
C407 C406 1.397 . S
C407 C408 1.334 . S
C408 H379 0.950 . S
C408 C407 1.334 . S
C408 C409 1.287 . S
C409 C408 1.287 . S
C409 C410 1.524 . S
C409 H412 0.999 . S
C410 H380 0.950 . S
C410 C409 1.524 . S
C410 C411 1.415 . S
C411 H381 0.950 . S
C411 C406 1.363 . S
C411 C410 1.415 . S
H412 C409 0.999 . S
H413 C394 0.913 . S
H414 C432 0.951 . S
H415 C434 0.951 . S
H416 C436 0.950 . S
H417 C437 0.950 . S
H418 C439 0.950 . S
H419 C442 0.950 . S
H420 C443 0.950 . S
H421 C445 0.950 . S
H422 C446 0.950 . S
H423 C447 0.951 . S
H424 C449 0.951 . S
H425 C451 0.950 . S
H426 C452 0.950 . S
H427 C454 0.950 . S
H428 C457 0.950 . S
H429 C458 0.950 . S
H430 C460 0.950 . S
H431 C461 0.950 . S
C432 H414 0.951 . S
C432 C433 1.366 . S
C432 C434 1.388 . S
C433 C432 1.366 . S
C433 C437 1.385 . S
C434 H415 0.951 . S
C434 C432 1.388 . S
C434 C435 1.366 . S
C435 C434 1.366 . S
C435 C436 1.414 . S
C435 C438 1.499 . S
C436 H416 0.950 . S
C436 C435 1.414 . S
C436 C437 1.374 . S
C437 H417 0.950 . S
C437 C433 1.385 . S
C437 C436 1.374 . S
C438 C435 1.499 . S
C438 C439 1.373 . S
C438 C440 1.389 . S
C439 H418 0.950 . S
C439 C438 1.373 . S
C439 C455 1.377 . S
C440 C438 1.389 . S
C440 C441 1.524 . S
C440 C454 1.377 . S
C441 C440 1.524 . S
C441 C442 1.397 . S
C441 C446 1.363 . S
C442 H419 0.950 . S
C442 C441 1.397 . S
C442 C443 1.334 . S
C443 H420 0.950 . S
C443 C442 1.334 . S
C443 C444 1.287 . S
C444 C443 1.287 . S
C444 C445 1.524 . S
C444 H463 0.913 . S
C445 H421 0.950 . S
C445 C444 1.524 . S
C445 C446 1.415 . S
C446 H422 0.950 . S
C446 C441 1.363 . S
C446 C445 1.415 . S
C447 H423 0.951 . S
C447 C448 1.366 . S
C447 C449 1.388 . S
C448 C447 1.366 . S
C448 C452 1.385 . S
C449 H424 0.951 . S
C449 C447 1.388 . S
C449 C450 1.366 . S
C450 C449 1.366 . S
C450 C451 1.414 . S
C450 C453 1.499 . S
C451 H425 0.950 . S
C451 C450 1.414 . S
C451 C452 1.374 . S
C452 H426 0.950 . S
C452 C448 1.385 . S
C452 C451 1.374 . S
C453 C450 1.499 . S
C453 C454 1.373 . S
C453 C455 1.389 . S
C454 H427 0.950 . S
C454 C440 1.377 . S
C454 C453 1.373 . S
C455 C439 1.377 . S
C455 C453 1.389 . S
C455 C456 1.524 . S
C456 C455 1.524 . S
C456 C457 1.397 . S
C456 C461 1.363 . S
C457 H428 0.950 . S
C457 C456 1.397 . S
C457 C458 1.334 . S
C458 H429 0.950 . S
C458 C457 1.334 . S
C458 C459 1.287 . S
C459 C458 1.287 . S
C459 C460 1.524 . S
C459 H462 0.999 . S
C460 H430 0.950 . S
C460 C459 1.524 . S
C460 C461 1.415 . S
C461 H431 0.950 . S
C461 C456 1.363 . S
C461 C460 1.415 . S
H462 C459 0.999 . S
H463 C444 0.913 . S
C83 C10 1.031 . S
C98 C53 1.049 . S
C133 C0 1.744 . S
C148 C52 1.800 . S
C183 C18 1.439 . S
C198 C58 1.405 . S
C233 C27 1.630 . S
C248 C59 1.598 . S
C283 C24 1.744 . S
C298 C56 1.801 . S
C348 C54 1.406 . S
C333 C11 1.439 . S
C383 C1 1.630 . S
C398 C55 1.599 . S
C448 C57 1.050 . S
C433 C2 1.035 . S
