# Generated by pormake.
# Topology ssa, (4,4)-cn, num edge types: 1
# Building blocks:
#     Node 0, Type 0, BuildingBlock: KOZSID_clean_sbu_0, # of connection points: 4
#     Node 1, Type 0, BuildingBlock: KOZSID_clean_sbu_0, # of connection points: 4
#     Node 2, Type 0, BuildingBlock: KOZSID_clean_sbu_0, # of connection points: 4
#     Node 3, Type 0, BuildingBlock: KOZSID_clean_sbu_0, # of connection points: 4
#     Node 4, Type 0, BuildingBlock: KOZSID_clean_sbu_0, # of connection points: 4
#     Node 5, Type 0, BuildingBlock: KOZSID_clean_sbu_0, # of connection points: 4
#     Node 6, Type 1, BuildingBlock: NAWXER_clean_sbu_0, # of connection points: 4
#     Node 7, Type 1, BuildingBlock: NAWXER_clean_sbu_0, # of connection points: 4
#     Node 8, Type 1, BuildingBlock: NAWXER_clean_sbu_0, # of connection points: 4
#     Node 9, Type 1, BuildingBlock: NAWXER_clean_sbu_0, # of connection points: 4
#     Node 10, Type 1, BuildingBlock: NAWXER_clean_sbu_0, # of connection points: 4
#     Node 11, Type 1, BuildingBlock: NAWXER_clean_sbu_0, # of connection points: 4
#     Edge 12, Type (0, 1), BuildingBlock: OJICUG_clean_linker_0, # of connection points: 2
#     Edge 13, Type (0, 1), BuildingBlock: OJICUG_clean_linker_0, # of connection points: 2
#     Edge 14, Type (0, 1), BuildingBlock: OJICUG_clean_linker_0, # of connection points: 2
#     Edge 15, Type (0, 1), BuildingBlock: OJICUG_clean_linker_0, # of connection points: 2
#     Edge 16, Type (0, 1), BuildingBlock: OJICUG_clean_linker_0, # of connection points: 2
#     Edge 17, Type (0, 1), BuildingBlock: OJICUG_clean_linker_0, # of connection points: 2
#     Edge 18, Type (0, 1), BuildingBlock: OJICUG_clean_linker_0, # of connection points: 2
#     Edge 19, Type (0, 1), BuildingBlock: OJICUG_clean_linker_0, # of connection points: 2
#     Edge 20, Type (0, 1), BuildingBlock: OJICUG_clean_linker_0, # of connection points: 2
#     Edge 21, Type (0, 1), BuildingBlock: OJICUG_clean_linker_0, # of connection points: 2
#     Edge 22, Type (0, 1), BuildingBlock: OJICUG_clean_linker_0, # of connection points: 2
#     Edge 23, Type (0, 1), BuildingBlock: OJICUG_clean_linker_0, # of connection points: 2
#     Edge 24, Type (0, 1), BuildingBlock: OJICUG_clean_linker_0, # of connection points: 2
#     Edge 25, Type (0, 1), BuildingBlock: OJICUG_clean_linker_0, # of connection points: 2
#     Edge 26, Type (0, 1), BuildingBlock: OJICUG_clean_linker_0, # of connection points: 2
#     Edge 27, Type (0, 1), BuildingBlock: OJICUG_clean_linker_0, # of connection points: 2
#     Edge 28, Type (0, 1), BuildingBlock: OJICUG_clean_linker_0, # of connection points: 2
#     Edge 29, Type (0, 1), BuildingBlock: OJICUG_clean_linker_0, # of connection points: 2
#     Edge 30, Type (0, 1), BuildingBlock: OJICUG_clean_linker_0, # of connection points: 2
#     Edge 31, Type (0, 1), BuildingBlock: OJICUG_clean_linker_0, # of connection points: 2
#     Edge 32, Type (0, 1), BuildingBlock: OJICUG_clean_linker_0, # of connection points: 2
#     Edge 33, Type (0, 1), BuildingBlock: OJICUG_clean_linker_0, # of connection points: 2
#     Edge 34, Type (0, 1), BuildingBlock: OJICUG_clean_linker_0, # of connection points: 2
#     Edge 35, Type (0, 1), BuildingBlock: OJICUG_clean_linker_0, # of connection points: 2
# Relax obj value: 0.013
# Max RMSD: 0.031
# Mean RMSD: 0.019
data_MOF--net-ssa--node1-KOZSID_clean_sbu_0--node2-NAWXER_clean_sbu_0--edge1-OJICUG_clean_linker_0
_symmetry_space_group_name_H-M    P1
_symmetry_Int_Tables_number       1
_symmetry_cell_setting            triclinic
loop_
_symmetry_equiv_pos_as_xyz
'x, y, z'
_cell_length_a     37.123661
_cell_length_b     38.547068
_cell_length_c     31.488789
_cell_angle_alpha  85.788973
_cell_angle_beta   90.349697
_cell_angle_gamma 123.70405
loop_
_atom_site_label
_atom_site_type_symbol
_atom_site_fract_x
_atom_site_fract_y
_atom_site_fract_z
_atom_type_partial_charge
C0 C 0.94584 0.53454 0.99295 0.0
C1 C 0.90977 0.53009 0.01201 0.0
C2 C 0.89947 0.50408 0.04827 0.0
C3 C 0.9298 0.49427 0.04928 0.0
N4 N 0.95975 0.51361 0.01664 0.0
Co5 Co 0.00634 0.50441 1.00269 0.0
N6 N 0.98668 0.46016 0.05135 0.0
C7 C 0.95256 0.44579 0.07895 0.0
C8 C 0.94972 0.41873 0.11163 0.0
C9 C 0.98479 0.41659 0.10529 0.0
C10 C 0.00704 0.44245 0.06884 0.0
N11 N 0.05262 0.49488 0.98839 0.0
C12 C 0.06598 0.47309 0.01137 0.0
C13 C 0.10129 0.47673 0.99151 0.0
C14 C 0.11166 0.50303 0.95549 0.0
C15 C 0.08207 0.51376 0.95532 0.0
N16 N 0.02631 0.54895 0.95432 0.0
C17 C 0.06111 0.56413 0.92744 0.0
C18 C 0.06429 0.5916 0.89502 0.0
C19 C 0.02877 0.59312 0.90079 0.0
C20 C 0.0059 0.56649 0.93663 0.0
N21 N 0.0466 0.54703 0.04149 0.0
C22 C 0.10471 0.6012 0.10051 0.0
C23 C 0.11941 0.60115 0.05982 0.0
C24 C 0.08997 0.57434 0.03089 0.0
C25 C 0.06041 0.57408 0.11087 0.0
C26 C 0.03227 0.54767 0.08122 0.0
N27 N 0.96597 0.46194 0.96388 0.0
C28 C 0.94989 0.43935 0.89259 0.0
C29 C 0.90587 0.41146 0.90399 0.0
C30 C 0.89271 0.40828 0.94635 0.0
C31 C 0.92313 0.43327 0.97564 0.0
C32 C 0.97907 0.46374 0.92275 0.0
H33 H 0.91109 0.42927 0.00746 0.0
H34 H 0.01196 0.48455 0.91175 0.0
H35 H 0.10316 0.57609 1.00027 0.0
H36 H 0.99912 0.52764 0.0915 0.0
C37 C 0.92765 0.46287 0.0768 0.0
C38 C 0.96285 0.55523 0.95024 0.0
C39 C 0.04934 0.45239 0.05413 0.0
C40 C 0.08519 0.54619 0.92878 0.0
H41 H 0.89151 0.54254 0.99965 0.0
H42 H 0.87155 0.49163 0.06976 0.0
H43 H 0.92652 0.40438 0.13843 0.0
H44 H 0.99394 0.39949 0.12629 0.0
H45 H 0.1191 0.46356 1.00321 0.0
H46 H 0.13927 0.51513 0.93366 0.0
H47 H 0.08779 0.60627 0.86847 0.0
H48 H 0.01965 0.61015 0.87964 0.0
H49 H 0.15333 0.62224 0.05003 0.0
H50 H 0.04738 0.5729 0.14204 0.0
H51 H 0.96187 0.44287 0.86022 0.0
H52 H 0.8592 0.38623 0.95706 0.0
C53 C 0.56337 0.02946 0.57773 0.0
C54 C 0.56522 0.01498 0.61883 0.0
C55 C 0.52843 0.9758 0.62622 0.0
C56 C 0.50618 0.96868 0.58949 0.0
N57 N 0.52746 1.00027 0.55839 0.0
Co58 Co 0.5042 0.00668 0.50277 0.0
N59 N 0.44591 0.95406 0.51737 0.0
C60 C 0.43321 0.92878 0.55393 0.0
C61 C 0.39316 0.8922 0.55233 0.0
C62 C 0.38032 0.89348 0.51182 0.0
C63 C 0.41343 0.93087 0.49108 0.0
N64 N 0.48087 0.01344 0.4474 0.0
C65 C 0.44448 0.98477 0.42832 0.0
C66 C 0.44219 0.99982 0.38768 0.0
C67 C 0.47924 0.03885 0.38029 0.0
C68 C 0.50199 0.04536 0.41662 0.0
N69 N 0.56261 0.05906 0.488 0.0
C70 C 0.5757 0.08371 0.45101 0.0
C71 C 0.61597 0.12009 0.45239 0.0
C72 C 0.62852 0.11933 0.49315 0.0
C73 C 0.59501 0.08245 0.51426 0.0
N74 N 0.52071 0.97237 0.47514 0.0
C75 C 0.51896 0.91179 0.42893 0.0
C76 C 0.53257 0.95104 0.40921 0.0
C77 C 0.53432 0.9811 0.43304 0.0
C78 C 0.51046 0.90486 0.4729 0.0
C79 C 0.51169 0.93546 0.49528 0.0
N80 N 0.4877 0.04089 0.53048 0.0
C81 C 0.50243 0.10981 0.53617 0.0
C82 C 0.49177 0.10069 0.57978 0.0
C83 C 0.47427 0.0598 0.59716 0.0
C84 C 0.47138 0.03023 0.57173 0.0
C85 C 0.49995 0.0795 0.51216 0.0
H86 H 0.45805 0.99958 0.5867 0.0
H87 H 0.51043 0.08878 0.47948 0.0
H88 H 0.54492 0.01048 0.41633 0.0
H89 H 0.50325 0.92769 0.52844 0.0
C90 C 0.46251 0.93668 0.58597 0.0
C91 C 0.59308 0.07273 0.56013 0.0
C92 C 0.41477 0.94141 0.44546 0.0
C93 C 0.5461 0.07646 0.41947 0.0
H94 H 0.58908 0.0319 0.64212 0.0
H95 H 0.51748 0.95641 0.65607 0.0
H96 H 0.37682 0.86625 0.57657 0.0
H97 H 0.35118 0.86872 0.49826 0.0
H98 H 0.41785 0.98329 0.36464 0.0
H99 H 0.49001 0.05848 0.35059 0.0
H100 H 0.6325 0.14581 0.42792 0.0
H101 H 0.65764 0.14422 0.50662 0.0
H102 H 0.54134 0.95833 0.37545 0.0
H103 H 0.50097 0.87524 0.48966 0.0
H104 H 0.5149 0.14084 0.52115 0.0
H105 H 0.46368 0.05092 0.63046 0.0
C106 C 0.58646 0.55229 0.94201 0.0
C107 C 0.60081 0.57708 0.90371 0.0
C108 C 0.57016 0.58502 0.89318 0.0
C109 C 0.53886 0.56459 0.92538 0.0
N110 N 0.54852 0.54538 0.95666 0.0
Co111 Co 0.50986 0.50708 0.00623 0.0
N112 N 0.46047 0.51031 0.98565 0.0
C113 C 0.45967 0.53096 0.94939 0.0
C114 C 0.42298 0.53133 0.94654 0.0
C115 C 0.3998 0.51115 0.98393 0.0
C116 C 0.42387 0.4997 0.00739 0.0
N117 N 0.47126 0.46893 0.05591 0.0
C118 C 0.43351 0.46234 0.07066 0.0
C119 C 0.41912 0.43769 0.10902 0.0
C120 C 0.44964 0.42957 0.11958 0.0
C121 C 0.48087 0.44976 0.08727 0.0
N122 N 0.55918 0.50372 0.02677 0.0
C123 C 0.55982 0.48273 0.06284 0.0
C124 C 0.59652 0.48239 0.06569 0.0
C125 C 0.6199 0.50297 0.0285 0.0
C126 C 0.59593 0.5146 1.00513 0.0
N127 N 0.528 0.55537 0.04006 0.0
C128 C 0.53127 0.61155 0.0946 0.0
C129 C 0.5396 0.58175 0.10951 0.0
C130 C 0.53805 0.55434 0.08186 0.0
C131 C 0.52489 0.61511 0.05122 0.0
C132 C 0.52436 0.58743 0.02449 0.0
N133 N 0.49174 0.45875 0.9724 0.0
C134 C 0.49423 0.39852 0.96212 0.0
C135 C 0.48927 0.40253 0.91846 0.0
C136 C 0.48174 0.43272 0.90288 0.0
C137 C 0.48286 0.46016 0.93025 0.0
C138 C 0.4944 0.42623 0.9885 0.0
H139 H 0.47836 0.48337 0.91618 0.0
H140 H 0.49845 0.42175 0.0215 0.0
H141 H 0.54322 0.53145 0.0955 0.0
H142 H 0.51928 0.59156 0.9917 0.0
C143 C 0.49711 0.55625 0.92308 0.0
C144 C 0.6067 0.53168 0.96083 0.0
C145 C 0.4134 0.48304 0.0518 0.0
C146 C 0.52249 0.45773 0.08938 0.0
H147 H 0.62901 0.58633 0.88402 0.0
H148 H 0.5691 0.60081 0.86379 0.0
H149 H 0.41569 0.5474 0.9219 0.0
H150 H 0.37001 0.50758 0.99399 0.0
H151 H 0.39096 0.42869 0.12867 0.0
H152 H 0.45066 0.4138 0.149 0.0
H153 H 0.60379 0.46626 0.09028 0.0
H154 H 0.64982 0.50676 0.01848 0.0
H155 H 0.54553 0.5784 0.14282 0.0
H156 H 0.51991 0.63883 0.03805 0.0
H157 H 0.49847 0.37444 0.97578 0.0
H158 H 0.47679 0.43635 0.86933 0.0
C159 C 0.93795 0.40763 0.51774 0.0
C160 C 0.90106 0.37469 0.50106 0.0
C161 C 0.89238 0.39125 0.46578 0.0
C162 C 0.92438 0.43319 0.46297 0.0
N163 N 0.95385 0.44421 0.49343 0.0
Co164 Co 1.00209 0.5025 0.50469 0.0
N165 N 0.98635 0.528 0.4562 0.0
C166 C 0.9537 0.50715 0.42944 0.0
C167 C 0.95387 0.53227 0.3962 0.0
C168 C 0.98957 0.57132 0.40114 0.0
C169 C 0.00908 0.56782 0.43744 0.0
N170 N 0.04918 0.56077 0.51699 0.0
C171 C 0.06493 0.59764 0.49333 0.0
C172 C 0.09958 0.6308 0.51224 0.0
C173 C 0.10693 0.6141 0.54839 0.0
C174 C 0.0763 0.57184 0.54962 0.0
N175 N 0.019 0.47699 0.55194 0.0
C176 C 0.05337 0.4977 0.57679 0.0
C177 C 0.05504 0.47221 0.60839 0.0
C178 C 0.01903 0.43311 0.60411 0.0
C179 C 0.99737 0.43699 0.57 0.0
N180 N 0.04252 0.50165 0.46425 0.0
C181 C 0.10066 0.50791 0.40194 0.0
C182 C 0.1155 0.52582 0.44053 0.0
C183 C 0.08601 0.52196 0.47124 0.0
C184 C 0.05625 0.48639 0.39541 0.0
C185 C 0.02809 0.48354 0.42665 0.0
N186 N 0.9614 0.50309 0.54515 0.0
C187 C 0.93883 0.50107 0.61784 0.0
C188 C 0.89766 0.48935 0.60524 0.0
C189 C 0.88962 0.48653 0.56183 0.0
C190 C 0.92163 0.49349 0.53261 0.0
C191 C 0.97018 0.50838 0.58745 0.0
H192 H 0.91304 0.49007 0.50017 0.0
H193 H 1.00106 0.51762 0.59907 0.0
H194 H 0.09921 0.53594 0.50023 0.0
H195 H 0.99482 0.46696 0.4193 0.0
C196 C 0.92591 0.46347 0.43421 0.0
C197 C 0.95413 0.40323 0.55886 0.0
C198 C 0.05108 0.60209 0.45086 0.0
C199 C 0.07776 0.54145 0.57529 0.0
H200 H 0.88145 0.34244 0.51427 0.0
H201 H 0.86485 0.37502 0.44581 0.0
H202 H 0.93199 0.52291 0.37017 0.0
H203 H 1.00085 0.59877 0.37941 0.0
H204 H 0.119 0.66331 0.49981 0.0
H205 H 0.13351 0.63042 0.5694 0.0
H206 H 0.07779 0.48147 0.63365 0.0
H207 H 0.00868 0.40546 0.6252 0.0
H208 H 0.14954 0.54206 0.44736 0.0
H209 H 0.04315 0.47197 0.36599 0.0
H210 H 0.94707 0.50511 0.65097 0.0
H211 H 0.85839 0.47818 0.55045 0.0
C212 C 0.46008 0.97946 0.10062 0.0
C213 C 0.47036 0.99282 0.14137 0.0
C214 C 0.50646 0.03264 0.13727 0.0
C215 C 0.51816 0.04041 0.09482 0.0
N216 N 0.49227 0.00759 0.07179 0.0
Co217 Co 0.50862 0.99917 0.01459 0.0
N218 N 0.56253 0.05745 0.00822 0.0
C219 C 0.57584 0.08693 0.03615 0.0
C220 C 0.61309 0.12448 0.02296 0.0
C221 C 0.62411 0.11885 0.98401 0.0
C222 C 0.59283 0.07797 0.97564 0.0
N223 N 0.52589 0.9901 0.95815 0.0
C224 C 0.56047 0.0163 0.93087 0.0
C225 C 0.5596 0.99687 0.8951 0.0
C226 C 0.52345 0.95707 0.89996 0.0
C227 C 0.50429 0.95445 0.93818 0.0
N228 N 0.45378 0.94143 0.02042 0.0
C229 C 0.44134 0.91146 0.99322 0.0
C230 C 0.40913 0.87236 0.00992 0.0
C231 C 0.39957 0.87793 0.04952 0.0
C232 C 0.42441 0.92069 0.05391 0.0
N233 N 0.4768 0.02104 0.9851 0.0
C234 C 0.44722 0.06335 0.9346 0.0
C235 C 0.44132 0.02633 0.92248 0.0
C236 C 0.45579 0.00552 0.94831 0.0
C237 C 0.46439 0.07627 0.97452 0.0
C238 C 0.47877 0.05484 0.99906 0.0
N239 N 0.54111 0.97748 0.04443 0.0
C240 C 0.54833 0.91976 0.0649 0.0
C241 C 0.57726 0.94185 0.09637 0.0
C242 C 0.59024 0.98326 0.09905 0.0
C243 C 0.57237 1.00041 0.07273 0.0
C244 C 0.53137 0.93816 0.03923 0.0
H245 H 0.58418 0.03216 0.07639 0.0
H246 H 0.50992 0.91948 0.01593 0.0
H247 H 0.45116 0.9778 0.93723 0.0
H248 H 0.49289 0.06703 0.02856 0.0
C249 C 0.55497 0.077 0.07619 0.0
C250 C 0.41934 0.94065 0.08992 0.0
C251 C 0.59402 0.06005 0.93666 0.0
C252 C 0.46548 0.91948 0.95568 0.0
H253 H 0.45446 0.97537 0.17139 0.0
H254 H 0.52336 0.05275 0.16253 0.0
H255 H 0.63072 0.15233 0.04006 0.0
H256 H 0.65237 0.14204 0.96427 0.0
H257 H 0.58247 0.01018 0.86806 0.0
H258 H 0.51221 0.93303 0.87801 0.0
H259 H 0.3963 0.84291 0.99617 0.0
H260 H 0.37781 0.85283 0.07295 0.0
H261 H 0.42771 0.01456 0.89222 0.0
H262 H 0.4682 0.10379 0.98627 0.0
H263 H 0.5373 0.88768 0.06094 0.0
H264 H 0.61382 0.00242 0.12171 0.0
C265 C 0.51714 0.58297 0.4924 0.0
C266 C 0.50943 0.61075 0.50902 0.0
C267 C 0.48316 0.59038 0.54466 0.0
C268 C 0.47656 0.55158 0.54794 0.0
N269 N 0.49742 0.54604 0.5168 0.0
Co270 Co 0.49649 0.49428 0.50942 0.0
N271 N 0.45451 0.4629 0.5596 0.0
C272 C 0.43621 0.47719 0.58384 0.0
C273 C 0.40987 0.4492 0.61684 0.0
C274 C 0.4118 0.41513 0.61391 0.0
C275 C 0.43928 0.4243 0.57907 0.0
N276 N 0.49616 0.44279 0.50262 0.0
C277 C 0.47733 0.40633 0.52772 0.0
C278 C 0.48643 0.37909 0.51222 0.0
C279 C 0.51275 0.39939 0.47659 0.0
C280 C 0.51807 0.43763 0.47233 0.0
N281 N 0.53776 0.52539 0.45876 0.0
C282 C 0.5546 0.51047 0.43345 0.0
C283 C 0.58003 0.53801 0.3998 0.0
C284 C 0.57894 0.57247 0.40336 0.0
C285 C 0.55295 0.564 0.43931 0.0
N286 N 0.5462 0.51423 0.54794 0.0
C287 C 0.61389 0.53751 0.60517 0.0
C288 C 0.61667 0.52738 0.5641 0.0
C289 C 0.58264 0.51568 0.53632 0.0
C290 C 0.57727 0.53704 0.61648 0.0
C291 C 0.54441 0.52581 0.58763 0.0
N292 N 0.44679 0.47442 0.47085 0.0
C293 C 0.41233 0.44662 0.40457 0.0
C294 C 0.37994 0.45352 0.4131 0.0
C295 C 0.38064 0.46922 0.45197 0.0
C296 C 0.41381 0.47919 0.48005 0.0
C297 C 0.44517 0.45723 0.4336 0.0
H298 H 0.41246 0.49154 0.50867 0.0
H299 H 0.46943 0.45212 0.42474 0.0
H300 H 0.58618 0.50718 0.50591 0.0
H301 H 0.51755 0.52612 0.59854 0.0
C302 C 0.44811 0.5186 0.57762 0.0
C303 C 0.54167 0.59256 0.45229 0.0
C304 C 0.45249 0.39678 0.56762 0.0
C305 C 0.54457 0.46984 0.44121 0.0
H306 H 0.5208 0.64214 0.49606 0.0
H307 H 0.46941 0.60201 0.565 0.0
H308 H 0.39278 0.45373 0.64124 0.0
H309 H 0.39588 0.3873 0.63584 0.0
H310 H 0.47587 0.34811 0.52589 0.0
H311 H 0.52709 0.38799 0.45672 0.0
H312 H 0.5965 0.5332 0.37499 0.0
H313 H 0.5947 0.60023 0.38135 0.0
H314 H 0.64422 0.52692 0.55393 0.0
H315 H 0.57376 0.54505 0.64777 0.0
H316 H 0.41342 0.43467 0.37487 0.0
H317 H 0.35592 0.47446 0.46058 0.0
C318 C 0.26438 0.44233 0.281 0.0
C319 C 0.1694 0.4458 0.16975 0.0
O320 O 0.23169 0.40949 0.26727 0.0
Zn321 Zn 0.21516 0.43836 0.22399 0.0
O322 O 0.27533 0.47827 0.26422 0.0
Zn323 Zn 0.25765 0.50736 0.21701 0.0
O324 O 0.24424 0.53861 0.25395 0.0
O325 O 0.19903 0.46994 0.26374 0.0
O326 O 0.20291 0.48109 0.1782 0.0
O327 O 0.16344 0.41225 0.1882 0.0
O328 O 0.2664 0.46297 0.17839 0.0
O329 O 0.30709 0.53188 0.17515 0.0
C330 C 0.21082 0.50645 0.27312 0.0
C331 C 0.29924 0.49777 0.16236 0.0
C332 C 0.82681 0.27376 0.68443 0.0
C333 C 0.71865 0.17169 0.79913 0.0
O334 O 0.79471 0.27618 0.69319 0.0
Zn335 Zn 0.73792 0.24818 0.73284 0.0
O336 O 0.82902 0.24471 0.70388 0.0
Zn337 Zn 0.77535 0.21906 0.74127 0.0
O338 O 0.72736 0.19313 0.69612 0.0
O339 O 0.69222 0.22411 0.69018 0.0
O340 O 0.75155 0.17189 0.78699 0.0
O341 O 0.71209 0.1983 0.78078 0.0
O342 O 0.75482 0.2957 0.76783 0.0
O343 O 0.79468 0.26974 0.77738 0.0
C344 C 0.69802 0.19637 0.6788 0.0
C345 C 0.78642 0.29667 0.7855 0.0
C346 C 0.51324 0.79353 0.32334 0.0
C347 C 0.524 0.71373 0.21531 0.0
O348 O 0.55119 0.80137 0.31717 0.0
Zn349 Zn 0.58429 0.78443 0.27812 0.0
O350 O 0.48202 0.76713 0.30178 0.0
Zn351 Zn 0.51503 0.75209 0.26858 0.0
O352 O 0.53296 0.72199 0.31548 0.0
O353 O 0.60404 0.75923 0.3205 0.0
O354 O 0.48936 0.71087 0.22617 0.0
O355 O 0.55955 0.73957 0.23247 0.0
O356 O 0.62322 0.83718 0.24264 0.0
O357 O 0.55414 0.80793 0.229 0.0
C358 C 0.56686 0.72687 0.33232 0.0
C359 C 0.59391 0.83747 0.22169 0.0
C360 C 0.84125 0.55566 0.83234 0.0
C361 C 0.73871 0.55482 0.72837 0.0
O362 O 0.80617 0.52013 0.82797 0.0
Zn363 Zn 0.74862 0.49242 0.79368 0.0
O364 O 0.84737 0.58807 0.81097 0.0
Zn365 Zn 0.79264 0.56023 0.77962 0.0
O366 O 0.74491 0.54109 0.82894 0.0
O367 O 0.70358 0.47217 0.83908 0.0
O368 O 0.77532 0.58754 0.73589 0.0
O369 O 0.72682 0.51957 0.74798 0.0
O370 O 0.7564 0.4562 0.75906 0.0
O371 O 0.80189 0.52371 0.74015 0.0
C372 C 0.71304 0.50781 0.84871 0.0
C373 C 0.78723 0.4856 0.73472 0.0
C374 C 0.27575 0.84271 0.21081 0.0
C375 C 0.17639 0.73652 0.32735 0.0
O376 O 0.24293 0.84051 0.22668 0.0
Zn377 Zn 0.22426 0.79278 0.27014 0.0
O378 O 0.2857 0.81751 0.22592 0.0
Zn379 Zn 0.2646 0.76735 0.27365 0.0
O380 O 0.24988 0.72166 0.23732 0.0
O381 O 0.20645 0.74387 0.23114 0.0
O382 O 0.20909 0.73574 0.31637 0.0
O383 O 0.17205 0.76473 0.30937 0.0
O384 O 0.27457 0.82049 0.31311 0.0
O385 O 0.31269 0.79256 0.31348 0.0
C386 C 0.21706 0.71911 0.22081 0.0
C387 C 0.30595 0.81884 0.32736 0.0
C388 C 0.49719 0.29723 0.80255 0.0
C389 C 0.50499 0.21532 0.69503 0.0
O390 O 0.53219 0.30218 0.78897 0.0
Zn391 Zn 0.5052 0.25737 0.75046 0.0
O392 O 0.46071 0.26799 0.78954 0.0
Zn393 Zn 0.43429 0.2193 0.74793 0.0
O394 O 0.4031 0.16774 0.78807 0.0
O395 O 0.47382 0.20476 0.79467 0.0
O396 O 0.46673 0.20475 0.7053 0.0
O397 O 0.53742 0.24377 0.71378 0.0
O398 O 0.47891 0.28083 0.70598 0.0
O399 O 0.40751 0.2393 0.70724 0.0
C400 C 0.43622 0.17307 0.8067 0.0
C401 C 0.44265 0.27257 0.6922 0.0
C402 C 0.11632 0.48613 0.09619 0.0
C403 C 0.07893 0.4493 0.08443 0.0
H404 H 0.17365 0.51385 0.13168 0.0
C405 C 0.07126 0.41056 0.10042 0.0
H406 H 0.12312 0.51639 0.08424 0.0
C407 C 0.10036 0.40884 0.12807 0.0
C408 C 0.1379 0.44591 0.1399 0.0
H409 H 0.04289 0.38167 0.09133 0.0
H410 H 0.09353 0.37863 0.14006 0.0
C411 C 0.14532 0.4845 0.12342 0.0
C412 C 0.6117 0.13556 0.59837 0.0
C413 C 0.62104 0.10628 0.58849 0.0
H414 H 0.62832 0.18716 0.6351 0.0
C415 C 0.65662 0.10833 0.60643 0.0
H416 H 0.58465 0.13477 0.58423 0.0
C417 C 0.68155 0.13805 0.63503 0.0
C418 C 0.67169 0.16673 0.64643 0.0
H419 H 0.66469 0.08639 0.59883 0.0
H420 H 0.70842 0.13806 0.64863 0.0
C421 C 0.6367 0.1655 0.62732 0.0
C422 C 0.4944 0.64336 0.12488 0.0
C423 C 0.5293 0.6385 0.12439 0.0
H424 H 0.46461 0.67037 0.15475 0.0
C425 C 0.56179 0.65834 0.15377 0.0
H426 H 0.46878 0.62815 0.10264 0.0
C427 C 0.55962 0.68256 0.18303 0.0
C428 C 0.52461 0.6872 0.18406 0.0
H429 H 0.58912 0.65532 0.15396 0.0
H430 H 0.58541 0.69742 0.2052 0.0
C431 C 0.49184 0.66721 0.15481 0.0
C432 C 0.85606 0.45896 0.67606 0.0
C433 C 0.86427 0.48268 0.63678 0.0
H434 H 0.82344 0.43986 0.73799 0.0
C435 C 0.84196 0.50209 0.62855 0.0
H436 H 0.87257 0.44336 0.68307 0.0
C437 C 0.81419 0.50009 0.65974 0.0
C438 C 0.80739 0.47799 0.69959 0.0
H439 H 0.84777 0.52079 0.59881 0.0
H440 H 0.79949 0.51752 0.65343 0.0
C441 C 0.82753 0.45638 0.70718 0.0
C442 C 0.33726 0.88397 0.10493 0.0
C443 C 0.37592 0.92111 0.1157 0.0
H444 H 0.27596 0.82874 0.12732 0.0
C445 C 0.37165 0.93843 0.15211 0.0
H446 H 0.33311 0.87285 0.07375 0.0
C447 C 0.33686 0.91427 0.18217 0.0
C448 C 0.30345 0.87332 0.17493 0.0
H449 H 0.3947 0.97043 0.15837 0.0
H450 H 0.33728 0.92689 0.21194 0.0
C451 C 0.30264 0.8594 0.1349 0.0
C452 C 0.48595 0.3709 0.61823 0.0
C453 C 0.44848 0.36428 0.59974 0.0
H454 H 0.51341 0.34747 0.66135 0.0
C455 C 0.40831 0.32686 0.61136 0.0
H456 H 0.51724 0.39948 0.60971 0.0
C457 C 0.40577 0.29663 0.64143 0.0
C458 C 0.4435 0.30333 0.65998 0.0
H459 H 0.37901 0.32108 0.59713 0.0
H460 H 0.37449 0.26815 0.65001 0.0
C461 C 0.48355 0.3409 0.64784 0.0
C462 C 0.53392 0.85761 0.41613 0.0
C463 C 0.51377 0.87838 0.40382 0.0
H464 H 0.54924 0.81409 0.39995 0.0
C465 C 0.48929 0.86754 0.36701 0.0
H466 H 0.55297 0.8654 0.44431 0.0
C467 C 0.48604 0.83722 0.34228 0.0
C468 C 0.50816 0.81814 0.35349 0.0
H469 H 0.47323 0.88299 0.35703 0.0
H470 H 0.46838 0.83049 0.31322 0.0
C471 C 0.53161 0.82818 0.39089 0.0
C472 C 0.67662 0.55827 0.9208 0.0
C473 C 0.63487 0.52477 0.93431 0.0
H474 H 0.73399 0.57904 0.88355 0.0
C475 C 0.61977 0.4846 0.92227 0.0
H476 H 0.68912 0.58935 0.93031 0.0
C477 C 0.64549 0.47835 0.89557 0.0
C478 C 0.68679 0.5123 0.88058 0.0
H479 H 0.58772 0.45832 0.93285 0.0
H480 H 0.6326 0.44732 0.88575 0.0
C481 C 0.70222 0.55217 0.89413 0.0
C482 C 0.07655 0.66861 0.40325 0.0
C483 C 0.08275 0.63734 0.41949 0.0
H484 H 0.10096 0.72456 0.3613 0.0
C485 C 0.12002 0.63967 0.40611 0.0
H486 H 0.04827 0.66778 0.41351 0.0
C487 C 0.15015 0.67204 0.37676 0.0
C488 C 0.14402 0.70325 0.35977 0.0
H489 H 0.12569 0.6161 0.41819 0.0
H490 H 0.17826 0.67229 0.36715 0.0
C491 C 0.10679 0.70118 0.37353 0.0
C492 C 0.40576 0.07428 0.87609 0.0
C493 C 0.44011 0.09072 0.90442 0.0
H494 H 0.37663 0.08741 0.82321 0.0
C495 C 0.47015 0.13429 0.90203 0.0
H496 H 0.38189 0.04088 0.87713 0.0
C497 C 0.46699 0.16051 0.87162 0.0
C498 C 0.43373 0.14425 0.84238 0.0
H499 H 0.4975 0.14829 0.92251 0.0
H500 H 0.49167 0.19379 0.87023 0.0
C501 C 0.40243 0.10088 0.84549 0.0
C502 C 0.33879 0.4787 0.37355 0.0
C503 C 0.3478 0.4479 0.38068 0.0
H504 H 0.30539 0.50053 0.33731 0.0
C505 C 0.32688 0.41317 0.35595 0.0
H506 H 0.35461 0.50616 0.39137 0.0
C507 C 0.29792 0.40971 0.32463 0.0
C508 C 0.29011 0.44136 0.31699 0.0
H509 H 0.33299 0.3888 0.36073 0.0
H510 H 0.28294 0.38319 0.3055 0.0
C511 C 0.31062 0.47555 0.34222 0.0
C512 C 0.88741 0.3653 0.84486 0.0
C513 C 0.87486 0.38409 0.87238 0.0
H514 H 0.86982 0.3242 0.79587 0.0
C515 C 0.83286 0.3759 0.86955 0.0
H516 H 0.91917 0.37042 0.84636 0.0
C517 C 0.80393 0.34885 0.84011 0.0
C518 C 0.81651 0.32924 0.81361 0.0
H519 H 0.82242 0.3903 0.89012 0.0
H520 H 0.77156 0.34228 0.83905 0.0
C521 C 0.8588 0.33844 0.81601 0.0
C522 C 0.89683 0.5191 0.90704 0.0
C523 C 0.93314 0.55672 0.91889 0.0
H524 H 0.84002 0.48937 0.87079 0.0
C525 C 0.93969 0.59473 0.9019 0.0
H526 H 0.89098 0.48939 0.91968 0.0
C527 C 0.91042 0.59496 0.87334 0.0
C528 C 0.87378 0.55711 0.86172 0.0
H529 H 0.96719 0.6242 0.91104 0.0
H530 H 0.91615 0.62463 0.86086 0.0
C531 C 0.86761 0.51926 0.87896 0.0
C532 C 0.39622 0.88043 0.40404 0.0
C533 C 0.38624 0.90848 0.41679 0.0
H534 H 0.37892 0.82989 0.36541 0.0
C535 C 0.34941 0.90577 0.40151 0.0
H536 H 0.42445 0.88194 0.41592 0.0
C537 C 0.32347 0.87627 0.37307 0.0
C538 C 0.33363 0.84857 0.35914 0.0
H539 H 0.34103 0.92693 0.41119 0.0
H540 H 0.29552 0.8756 0.36166 0.0
C541 C 0.37019 0.85073 0.37528 0.0
C542 C 0.52653 0.3703 0.89015 0.0
C543 C 0.49188 0.37555 0.88918 0.0
H544 H 0.55627 0.34213 0.86259 0.0
C545 C 0.46004 0.35565 0.85921 0.0
H546 H 0.5516 0.38545 0.91293 0.0
C547 C 0.46239 0.33063 0.83111 0.0
C548 C 0.49701 0.32541 0.83178 0.0
H549 H 0.43294 0.35901 0.85785 0.0
H550 H 0.43699 0.31545 0.8086 0.0
C551 C 0.52939 0.34581 0.86127 0.0
C552 C 0.17047 0.54603 0.35645 0.0
C553 C 0.13027 0.50902 0.36947 0.0
H554 H 0.22773 0.57485 0.31505 0.0
C555 C 0.11754 0.47223 0.35064 0.0
H556 H 0.18098 0.57493 0.37037 0.0
C557 C 0.14382 0.4722 0.31944 0.0
C558 C 0.1839 0.50898 0.30589 0.0
H559 H 0.08717 0.44309 0.36031 0.0
H560 H 0.13236 0.4429 0.30591 0.0
C561 C 0.19703 0.54608 0.32465 0.0
C562 C 0.6221 0.11783 0.87839 0.0
C563 C 0.62621 0.08768 0.90108 0.0
H564 H 0.64751 0.16739 0.82905 0.0
C565 C 0.66098 0.08456 0.89003 0.0
H566 H 0.59561 0.12083 0.88623 0.0
C567 C 0.69127 0.11146 0.85689 0.0
C568 C 0.68723 0.14195 0.83424 0.0
H569 H 0.66478 0.06146 0.90721 0.0
H570 H 0.71777 0.1085 0.84916 0.0
C571 C 0.65206 0.1445 0.84554 0.0
C572 C 0.51362 0.6253 0.40314 0.0
C573 C 0.54912 0.62778 0.42205 0.0
H574 H 0.49135 0.65443 0.36047 0.0
C575 C 0.59096 0.66361 0.41228 0.0
H576 H 0.48108 0.59801 0.41031 0.0
C577 C 0.59714 0.69624 0.3834 0.0
C578 C 0.5615 0.6936 0.36409 0.0
H579 H 0.61877 0.66619 0.42683 0.0
H580 H 0.62973 0.72331 0.37608 0.0
C581 C 0.51967 0.65775 0.37459 0.0
C582 C 0.48322 0.15823 0.5966 0.0
C583 C 0.49954 0.13364 0.6072 0.0
H584 H 0.47245 0.2038 0.61671 0.0
C585 C 0.52254 0.14002 0.64472 0.0
H586 H 0.46537 0.15387 0.56793 0.0
C587 C 0.52792 0.16963 0.67186 0.0
C588 C 0.5094 0.19243 0.66233 0.0
H589 H 0.53564 0.12153 0.65341 0.0
H590 H 0.54412 0.1728 0.70146 0.0
C591 C 0.48753 0.18691 0.62428 0.0
C592 C 0.34105 0.45417 0.08728 0.0
C593 C 0.38362 0.48817 0.07782 0.0
H594 H 0.28112 0.43084 0.12079 0.0
C595 C 0.39791 0.5268 0.09364 0.0
H596 H 0.32932 0.42428 0.07499 0.0
C597 C 0.3703 0.53093 0.12001 0.0
C598 C 0.32797 0.49632 0.13084 0.0
H599 H 0.43072 0.55343 0.08632 0.0
H600 H 0.38246 0.56066 0.13286 0.0
C601 C 0.31358 0.45815 0.11349 0.0
C602 C 0.88874 0.37147 0.60761 0.0
C603 C 0.92311 0.37005 0.59209 0.0
H604 H 0.83219 0.34285 0.64837 0.0
C605 C 0.92639 0.33662 0.60726 0.0
H606 H 0.88547 0.39685 0.5965 0.0
C607 C 0.89559 0.30513 0.63752 0.0
C608 C 0.86081 0.30643 0.65278 0.0
H609 H 0.9525 0.3347 0.59541 0.0
H610 H 0.89875 0.27971 0.64858 0.0
C611 C 0.85813 0.34025 0.6374 0.0
C612 C 0.59735 0.88992 0.1155 0.0
C613 C 0.59132 0.92089 0.12766 0.0
H614 H 0.60407 0.83953 0.13629 0.0
C615 C 0.59452 0.92865 0.17103 0.0
H616 H 0.59578 0.8834 0.08243 0.0
C617 C 0.60036 0.90409 0.20163 0.0
C618 C 0.60347 0.87152 0.18957 0.0
H619 H 0.58942 0.95169 0.18185 0.0
H620 H 0.59911 0.90849 0.23506 0.0
C621 C 0.60297 0.86527 0.14619 0.0
C622 C 0.69184 0.57228 0.62721 0.0
C623 C 0.64698 0.54538 0.63721 0.0
H624 H 0.75655 0.59771 0.64876 0.0
C625 C 0.63339 0.52458 0.67824 0.0
H626 H 0.70331 0.58885 0.59588 0.0
C627 C 0.66358 0.52932 0.70798 0.0
C628 C 0.70833 0.5556 0.69799 0.0
H629 H 0.59921 0.50335 0.68692 0.0
H630 H 0.65179 0.51164 0.7388 0.0
C631 C 0.7223 0.57774 0.65754 0.0
C632 C 0.17532 0.63778 0.13898 0.0
C633 C 0.13443 0.63087 0.13131 0.0
H634 H 0.23374 0.67071 0.17399 0.0
C635 C 0.12143 0.65257 0.15359 0.0
H636 H 0.18606 0.62123 0.12238 0.0
C637 C 0.14833 0.68048 0.18266 0.0
C638 C 0.18923 0.68768 0.1906 0.0
H639 H 0.09048 0.64846 0.14811 0.0
H640 H 0.13679 0.69655 0.19895 0.0
C641 C 0.20243 0.66579 0.16867 0.0
loop_
_geom_bond_atom_site_label_1
_geom_bond_atom_site_label_2
_geom_bond_distance
_geom_bond_site_symmetry_2
_ccdc_geom_bond_type
C0 C1 1.443 . S
C0 N4 1.376 1_556 S
C0 C38 1.389 . S
C1 C0 1.443 . S
C1 C2 1.340 1_556 S
C1 H41 0.951 . S
C2 C1 1.340 1_554 S
C2 C3 1.439 . S
C2 H42 0.950 . S
C3 C2 1.439 . S
C3 N4 1.374 . S
C3 C37 1.395 . S
N4 C0 1.376 1_554 S
N4 C3 1.374 . S
N4 Co5 1.994 1_655 S
Co5 N4 1.994 1_455 S
Co5 N6 2.010 1_455 S
Co5 N11 2.023 1_554 S
Co5 N16 1.980 1_554 S
Co5 N21 2.294 . S
Co5 N27 2.271 1_454 S
N6 Co5 2.010 1_655 S
N6 C7 1.376 . S
N6 C10 1.383 1_655 S
C7 N6 1.376 . S
C7 C8 1.446 . S
C7 C37 1.391 . S
C8 C7 1.446 . S
C8 C9 1.339 . S
C8 H43 0.949 . S
C9 C8 1.339 . S
C9 C10 1.439 1_655 S
C9 H44 0.950 1_655 S
C10 N6 1.383 1_455 S
C10 C9 1.439 1_455 S
C10 C39 1.392 . S
N11 Co5 2.023 1_556 S
N11 C12 1.376 1_556 S
N11 C15 1.374 . S
C12 N11 1.376 1_554 S
C12 C13 1.443 . S
C12 C39 1.389 . S
C13 C12 1.443 . S
C13 C14 1.340 1_554 S
C13 H45 0.951 . S
C14 C13 1.340 1_556 S
C14 C15 1.439 . S
C14 H46 0.950 . S
C15 N11 1.374 . S
C15 C14 1.439 . S
C15 C40 1.395 . S
N16 Co5 1.980 1_556 S
N16 C17 1.376 . S
N16 C20 1.383 1_455 S
C17 N16 1.376 . S
C17 C18 1.446 . S
C17 C40 1.391 . S
C18 C17 1.446 . S
C18 C19 1.339 . S
C18 H47 0.949 . S
C19 C18 1.339 . S
C19 C20 1.439 1_455 S
C19 H48 0.950 1_455 S
C20 N16 1.383 1_655 S
C20 C19 1.439 1_655 S
C20 C38 1.392 . S
N21 Co5 2.294 . S
N21 C24 1.332 . S
N21 C26 1.332 . S
C22 C23 1.386 . S
C22 C25 1.388 . S
C23 C22 1.386 . S
C23 C24 1.382 . S
C23 H49 0.950 . S
C24 N21 1.332 . S
C24 C23 1.382 . S
C24 H35 0.952 . S
C25 C22 1.388 . S
C25 C26 1.382 . S
C25 H50 0.950 . S
C26 N21 1.332 . S
C26 C25 1.382 . S
C26 H36 0.948 1_455 S
N27 Co5 2.271 1_656 S
N27 C31 1.332 . S
N27 C32 1.332 . S
C28 C29 1.388 . S
C28 C32 1.382 . S
C28 H51 0.950 . S
C29 C28 1.388 . S
C29 C30 1.386 . S
C30 C29 1.386 . S
C30 C31 1.382 . S
C30 H52 0.950 . S
C31 N27 1.332 . S
C31 C30 1.382 . S
C31 H33 0.952 . S
C32 N27 1.332 . S
C32 C28 1.382 . S
C32 H34 0.948 1_655 S
H33 C31 0.952 . S
H34 C32 0.948 1_455 S
H35 C24 0.952 . S
H36 C26 0.948 1_655 S
C37 C3 1.395 . S
C37 C7 1.391 . S
C38 C0 1.389 . S
C38 C20 1.392 . S
C39 C10 1.392 . S
C39 C12 1.389 . S
C40 C15 1.395 . S
C40 C17 1.391 . S
H41 C1 0.951 . S
H42 C2 0.950 . S
H43 C8 0.949 . S
H44 C9 0.950 1_455 S
H45 C13 0.951 . S
H46 C14 0.950 . S
H47 C18 0.949 . S
H48 C19 0.950 1_655 S
H49 C23 0.950 . S
H50 C25 0.950 . S
H51 C28 0.950 . S
H52 C30 0.950 . S
C53 C54 1.439 1_545 S
C53 N57 1.376 1_545 S
C53 C91 1.389 . S
C54 C53 1.439 1_565 S
C54 C55 1.347 . S
C54 H94 0.949 1_565 S
C55 C54 1.347 . S
C55 C56 1.439 . S
C55 H95 0.950 . S
C56 C55 1.439 . S
C56 N57 1.374 . S
C56 C90 1.395 . S
N57 C53 1.376 1_565 S
N57 C56 1.374 . S
N57 Co58 2.008 1_565 S
Co58 N57 2.008 1_545 S
Co58 N59 1.995 1_545 S
Co58 N64 2.008 . S
Co58 N69 1.995 . S
Co58 N74 2.282 1_545 S
Co58 N80 2.282 . S
N59 Co58 1.995 1_565 S
N59 C60 1.376 . S
N59 C63 1.383 . S
C60 N59 1.376 . S
C60 C61 1.446 . S
C60 C90 1.391 . S
C61 C60 1.446 . S
C61 C62 1.339 . S
C61 H96 0.949 . S
C62 C61 1.339 . S
C62 C63 1.439 . S
C62 H97 0.950 . S
C63 N59 1.383 . S
C63 C62 1.439 . S
C63 C92 1.392 . S
N64 Co58 2.008 . S
N64 C65 1.376 1_545 S
N64 C68 1.374 . S
C65 N64 1.376 1_565 S
C65 C66 1.443 1_565 S
C65 C92 1.389 . S
C66 C65 1.443 1_545 S
C66 C67 1.340 . S
C66 H98 0.951 1_545 S
C67 C66 1.340 . S
C67 C68 1.439 . S
C67 H99 0.950 . S
C68 N64 1.374 . S
C68 C67 1.439 . S
C68 C93 1.395 . S
N69 Co58 1.995 . S
N69 C70 1.376 . S
N69 C73 1.383 . S
C70 N69 1.376 . S
C70 C71 1.446 . S
C70 C93 1.391 . S
C71 C70 1.446 . S
C71 C72 1.339 . S
C71 H100 0.949 . S
C72 C71 1.339 . S
C72 C73 1.439 . S
C72 H101 0.950 . S
C73 N69 1.383 . S
C73 C72 1.439 . S
C73 C91 1.392 . S
N74 Co58 2.282 1_565 S
N74 C77 1.332 . S
N74 C79 1.332 . S
C75 C76 1.386 . S
C75 C78 1.388 . S
C76 C75 1.386 . S
C76 C77 1.382 . S
C76 H102 0.950 . S
C77 N74 1.332 . S
C77 C76 1.382 . S
C77 H88 0.952 1_565 S
C78 C75 1.388 . S
C78 C79 1.382 . S
C78 H103 0.950 . S
C79 N74 1.332 . S
C79 C78 1.382 . S
C79 H89 0.948 . S
N80 Co58 2.282 . S
N80 C84 1.332 . S
N80 C85 1.332 . S
C81 C82 1.388 . S
C81 C85 1.382 . S
C81 H104 0.950 . S
C82 C81 1.388 . S
C82 C83 1.386 . S
C83 C82 1.386 . S
C83 C84 1.382 . S
C83 H105 0.950 . S
C84 N80 1.332 . S
C84 C83 1.382 . S
C84 H86 0.952 1_545 S
C85 N80 1.332 . S
C85 C81 1.382 . S
C85 H87 0.948 . S
H86 C84 0.952 1_565 S
H87 C85 0.948 . S
H88 C77 0.952 1_545 S
H89 C79 0.948 . S
C90 C56 1.395 . S
C90 C60 1.391 . S
C91 C53 1.389 . S
C91 C73 1.392 . S
C92 C63 1.392 . S
C92 C65 1.389 . S
C93 C68 1.395 . S
C93 C70 1.391 . S
H94 C54 0.949 1_545 S
H95 C55 0.950 . S
H96 C61 0.949 . S
H97 C62 0.950 . S
H98 C66 0.951 1_565 S
H99 C67 0.950 . S
H100 C71 0.949 . S
H101 C72 0.950 . S
H102 C76 0.950 . S
H103 C78 0.950 . S
H104 C81 0.950 . S
H105 C83 0.950 . S
C106 C107 1.443 . S
C106 N110 1.376 . S
C106 C144 1.389 . S
C107 C106 1.443 . S
C107 C108 1.340 . S
C107 H147 0.951 . S
C108 C107 1.340 . S
C108 C109 1.439 . S
C108 H148 0.950 . S
C109 C108 1.439 . S
C109 N110 1.374 . S
C109 C143 1.395 . S
N110 C106 1.376 . S
N110 C109 1.374 . S
N110 Co111 1.994 1_556 S
Co111 N110 1.994 1_554 S
Co111 N112 1.993 1_554 S
Co111 N117 2.022 . S
Co111 N122 1.997 . S
Co111 N127 2.292 . S
Co111 N133 2.273 1_554 S
N112 Co111 1.993 1_556 S
N112 C113 1.376 . S
N112 C116 1.383 1_556 S
C113 N112 1.376 . S
C113 C114 1.446 . S
C113 C143 1.391 . S
C114 C113 1.446 . S
C114 C115 1.339 1_556 S
C114 H149 0.949 . S
C115 C114 1.339 1_554 S
C115 C116 1.439 . S
C115 H150 0.950 . S
C116 N112 1.383 1_554 S
C116 C115 1.439 . S
C116 C145 1.392 . S
N117 Co111 2.022 . S
N117 C118 1.376 . S
N117 C121 1.374 . S
C118 N117 1.376 . S
C118 C119 1.443 . S
C118 C145 1.389 . S
C119 C118 1.443 . S
C119 C120 1.340 . S
C119 H151 0.951 . S
C120 C119 1.340 . S
C120 C121 1.439 . S
C120 H152 0.950 . S
C121 N117 1.374 . S
C121 C120 1.439 . S
C121 C146 1.395 . S
N122 Co111 1.997 . S
N122 C123 1.376 . S
N122 C126 1.383 1_554 S
C123 N122 1.376 . S
C123 C124 1.446 . S
C123 C146 1.391 . S
C124 C123 1.446 . S
C124 C125 1.339 1_554 S
C124 H153 0.949 . S
C125 C124 1.339 1_556 S
C125 C126 1.439 . S
C125 H154 0.950 . S
C126 N122 1.383 1_556 S
C126 C125 1.439 . S
C126 C144 1.392 . S
N127 Co111 2.292 . S
N127 C130 1.332 . S
N127 C132 1.332 . S
C128 C129 1.386 . S
C128 C131 1.388 . S
C129 C128 1.386 . S
C129 C130 1.382 . S
C129 H155 0.950 . S
C130 N127 1.332 . S
C130 C129 1.382 . S
C130 H141 0.952 . S
C131 C128 1.388 . S
C131 C132 1.382 . S
C131 H156 0.950 . S
C132 N127 1.332 . S
C132 C131 1.382 . S
C132 H142 0.948 . S
N133 Co111 2.273 1_556 S
N133 C137 1.332 . S
N133 C138 1.332 . S
C134 C135 1.388 . S
C134 C138 1.382 . S
C134 H157 0.950 . S
C135 C134 1.388 . S
C135 C136 1.386 . S
C136 C135 1.386 . S
C136 C137 1.382 . S
C136 H158 0.950 . S
C137 N133 1.332 . S
C137 C136 1.382 . S
C137 H139 0.952 . S
C138 N133 1.332 . S
C138 C134 1.382 . S
C138 H140 0.948 . S
H139 C137 0.952 . S
H140 C138 0.948 . S
H141 C130 0.952 . S
H142 C132 0.948 . S
C143 C109 1.395 . S
C143 C113 1.391 . S
C144 C106 1.389 . S
C144 C126 1.392 . S
C145 C116 1.392 . S
C145 C118 1.389 . S
C146 C121 1.395 . S
C146 C123 1.391 . S
H147 C107 0.951 . S
H148 C108 0.950 . S
H149 C114 0.949 . S
H150 C115 0.950 . S
H151 C119 0.951 . S
H152 C120 0.950 . S
H153 C124 0.949 . S
H154 C125 0.950 . S
H155 C129 0.950 . S
H156 C131 0.950 . S
H157 C134 0.950 . S
H158 C136 0.950 . S
C159 C160 1.443 . S
C159 N163 1.376 . S
C159 C197 1.389 . S
C160 C159 1.443 . S
C160 C161 1.340 . S
C160 H200 0.951 . S
C161 C160 1.340 . S
C161 C162 1.439 . S
C161 H201 0.950 . S
C162 C161 1.439 . S
C162 N163 1.374 . S
C162 C196 1.395 . S
N163 C159 1.376 . S
N163 C162 1.374 . S
N163 Co164 1.999 1_655 S
Co164 N163 1.999 1_455 S
Co164 N165 1.987 1_455 S
Co164 N170 2.018 . S
Co164 N175 2.002 . S
Co164 N180 2.293 . S
Co164 N186 2.272 1_455 S
N165 Co164 1.987 1_655 S
N165 C166 1.376 . S
N165 C169 1.383 1_655 S
C166 N165 1.376 . S
C166 C167 1.446 . S
C166 C196 1.391 . S
C167 C166 1.446 . S
C167 C168 1.337 1_655 S
C167 H202 0.949 . S
C168 C167 1.337 1_455 S
C168 C169 1.440 . S
C168 H203 0.950 . S
C169 N165 1.383 1_455 S
C169 C168 1.440 . S
C169 C198 1.392 . S
N170 Co164 2.018 . S
N170 C171 1.376 . S
N170 C174 1.374 . S
C171 N170 1.376 . S
C171 C172 1.443 . S
C171 C198 1.389 . S
C172 C171 1.443 . S
C172 C173 1.340 . S
C172 H204 0.951 . S
C173 C172 1.340 . S
C173 C174 1.439 . S
C173 H205 0.950 . S
C174 N170 1.374 . S
C174 C173 1.439 . S
C174 C199 1.395 . S
N175 Co164 2.002 . S
N175 C176 1.376 . S
N175 C179 1.383 1_455 S
C176 N175 1.376 . S
C176 C177 1.446 . S
C176 C199 1.391 . S
C177 C176 1.446 . S
C177 C178 1.358 . S
C177 H206 0.949 . S
C178 C177 1.358 . S
C178 C179 1.421 1_455 S
C178 H207 0.949 1_455 S
C179 N175 1.383 1_655 S
C179 C178 1.421 1_655 S
C179 C197 1.392 . S
N180 Co164 2.293 . S
N180 C183 1.332 . S
N180 C185 1.332 . S
C181 C182 1.386 . S
C181 C184 1.388 . S
C182 C181 1.386 . S
C182 C183 1.382 . S
C182 H208 0.950 . S
C183 N180 1.332 . S
C183 C182 1.382 . S
C183 H194 0.952 . S
C184 C181 1.388 . S
C184 C185 1.382 . S
C184 H209 0.950 . S
C185 N180 1.332 . S
C185 C184 1.382 . S
C185 H195 0.948 1_455 S
N186 Co164 2.272 1_655 S
N186 C190 1.332 . S
N186 C191 1.332 . S
C187 C188 1.388 . S
C187 C191 1.382 . S
C187 H210 0.950 . S
C188 C187 1.388 . S
C188 C189 1.386 . S
C189 C188 1.386 . S
C189 C190 1.382 . S
C189 H211 0.950 . S
C190 N186 1.332 . S
C190 C189 1.382 . S
C190 H192 0.952 . S
C191 N186 1.332 . S
C191 C187 1.382 . S
C191 H193 0.948 1_655 S
H192 C190 0.952 . S
H193 C191 0.948 1_455 S
H194 C183 0.952 . S
H195 C185 0.948 1_655 S
C196 C162 1.395 . S
C196 C166 1.391 . S
C197 C159 1.389 . S
C197 C179 1.392 . S
C198 C169 1.392 . S
C198 C171 1.389 . S
C199 C174 1.395 . S
C199 C176 1.391 . S
H200 C160 0.951 . S
H201 C161 0.950 . S
H202 C167 0.949 . S
H203 C168 0.950 . S
H204 C172 0.951 . S
H205 C173 0.950 . S
H206 C177 0.949 . S
H207 C178 0.949 1_655 S
H208 C182 0.950 . S
H209 C184 0.950 . S
H210 C187 0.950 . S
H211 C189 0.950 . S
C212 C213 1.430 1_565 S
C212 N216 1.376 1_565 S
C212 C250 1.389 . S
C213 C212 1.430 1_545 S
C213 C214 1.357 . S
C213 H253 0.950 1_545 S
C214 C213 1.357 . S
C214 C215 1.439 . S
C214 H254 0.950 . S
C215 C214 1.439 . S
C215 N216 1.374 . S
C215 C249 1.395 . S
N216 C212 1.376 1_545 S
N216 C215 1.374 . S
N216 Co217 2.024 . S
Co217 N216 2.024 . S
Co217 N218 1.995 1_554 S
Co217 N223 1.993 1_544 S
Co217 N228 1.994 1_545 S
Co217 N233 2.274 1_554 S
Co217 N239 2.291 1_545 S
N218 Co217 1.995 1_556 S
N218 C219 1.376 1_556 S
N218 C222 1.383 . S
C219 N218 1.376 1_554 S
C219 C220 1.446 . S
C219 C249 1.391 . S
C220 C219 1.446 . S
C220 C221 1.339 1_554 S
C220 H255 0.949 . S
C221 C220 1.339 1_556 S
C221 C222 1.439 . S
C221 H256 0.950 . S
C222 N218 1.383 . S
C222 C221 1.439 . S
C222 C251 1.392 . S
N223 Co217 1.993 1_566 S
N223 C224 1.376 1_565 S
N223 C227 1.374 . S
C224 N223 1.376 1_545 S
C224 C225 1.443 . S
C224 C251 1.389 . S
C225 C224 1.443 . S
C225 C226 1.340 1_545 S
C225 H257 0.951 . S
C226 C225 1.340 1_565 S
C226 C227 1.439 . S
C226 H258 0.950 . S
C227 N223 1.374 . S
C227 C226 1.439 . S
C227 C252 1.395 . S
N228 Co217 1.994 1_565 S
N228 C229 1.376 1_554 S
N228 C232 1.383 . S
C229 N228 1.376 1_556 S
C229 C230 1.446 . S
C229 C252 1.391 . S
C230 C229 1.446 . S
C230 C231 1.339 1_556 S
C230 H259 0.949 . S
C231 C230 1.339 1_554 S
C231 C232 1.439 . S
C231 H260 0.950 . S
C232 N228 1.383 . S
C232 C231 1.439 . S
C232 C250 1.392 . S
N233 Co217 2.274 1_556 S
N233 C236 1.332 . S
N233 C238 1.332 . S
C234 C235 1.386 . S
C234 C237 1.388 . S
C235 C234 1.386 . S
C235 C236 1.382 . S
C235 H261 0.950 . S
C236 N233 1.332 . S
C236 C235 1.382 . S
C236 H247 0.952 1_545 S
C237 C234 1.388 . S
C237 C238 1.382 . S
C237 H262 0.950 . S
C238 N233 1.332 . S
C238 C237 1.382 . S
C238 H248 0.948 . S
N239 Co217 2.291 1_565 S
N239 C243 1.332 . S
N239 C244 1.332 . S
C240 C241 1.388 . S
C240 C244 1.382 . S
C240 H263 0.950 . S
C241 C240 1.388 . S
C241 C242 1.386 . S
C242 C241 1.386 . S
C242 C243 1.382 . S
C242 H264 0.950 . S
C243 N239 1.332 . S
C243 C242 1.382 . S
C243 H245 0.952 1_565 S
C244 N239 1.332 . S
C244 C240 1.382 . S
C244 H246 0.948 . S
H245 C243 0.952 1_545 S
H246 C244 0.948 . S
H247 C236 0.952 1_565 S
H248 C238 0.948 . S
C249 C215 1.395 . S
C249 C219 1.391 . S
C250 C212 1.389 . S
C250 C232 1.392 . S
C251 C222 1.392 . S
C251 C224 1.389 . S
C252 C227 1.395 . S
C252 C229 1.391 . S
H253 C213 0.950 1_565 S
H254 C214 0.950 . S
H255 C220 0.949 . S
H256 C221 0.950 . S
H257 C225 0.951 . S
H258 C226 0.950 . S
H259 C230 0.949 . S
H260 C231 0.950 . S
H261 C235 0.950 . S
H262 C237 0.950 . S
H263 C240 0.950 . S
H264 C242 0.950 . S
C265 C266 1.443 . S
C265 N269 1.376 . S
C265 C303 1.389 . S
C266 C265 1.443 . S
C266 C267 1.340 . S
C266 H306 0.951 . S
C267 C266 1.340 . S
C267 C268 1.439 . S
C267 H307 0.950 . S
C268 C267 1.439 . S
C268 N269 1.374 . S
C268 C302 1.395 . S
N269 C265 1.376 . S
N269 C268 1.374 . S
N269 Co270 2.008 . S
Co270 N269 2.008 . S
Co270 N271 1.995 . S
Co270 N276 2.008 . S
Co270 N281 1.995 . S
Co270 N286 2.282 . S
Co270 N292 2.282 . S
N271 Co270 1.995 . S
N271 C272 1.376 . S
N271 C275 1.383 . S
C272 N271 1.376 . S
C272 C273 1.446 . S
C272 C302 1.391 . S
C273 C272 1.446 . S
C273 C274 1.339 . S
C273 H308 0.949 . S
C274 C273 1.339 . S
C274 C275 1.439 . S
C274 H309 0.950 . S
C275 N271 1.383 . S
C275 C274 1.439 . S
C275 C304 1.392 . S
N276 Co270 2.008 . S
N276 C277 1.376 . S
N276 C280 1.374 . S
C277 N276 1.376 . S
C277 C278 1.443 . S
C277 C304 1.389 . S
C278 C277 1.443 . S
C278 C279 1.340 . S
C278 H310 0.951 . S
C279 C278 1.340 . S
C279 C280 1.439 . S
C279 H311 0.950 . S
C280 N276 1.374 . S
C280 C279 1.439 . S
C280 C305 1.395 . S
N281 Co270 1.995 . S
N281 C282 1.376 . S
N281 C285 1.383 . S
C282 N281 1.376 . S
C282 C283 1.446 . S
C282 C305 1.391 . S
C283 C282 1.446 . S
C283 C284 1.339 . S
C283 H312 0.949 . S
C284 C283 1.339 . S
C284 C285 1.439 . S
C284 H313 0.950 . S
C285 N281 1.383 . S
C285 C284 1.439 . S
C285 C303 1.392 . S
N286 Co270 2.282 . S
N286 C289 1.332 . S
N286 C291 1.332 . S
C287 C288 1.386 . S
C287 C290 1.388 . S
C288 C287 1.386 . S
C288 C289 1.382 . S
C288 H314 0.950 . S
C289 N286 1.332 . S
C289 C288 1.382 . S
C289 H300 0.952 . S
C290 C287 1.388 . S
C290 C291 1.382 . S
C290 H315 0.950 . S
C291 N286 1.332 . S
C291 C290 1.382 . S
C291 H301 0.948 . S
N292 Co270 2.282 . S
N292 C296 1.332 . S
N292 C297 1.332 . S
C293 C294 1.388 . S
C293 C297 1.382 . S
C293 H316 0.950 . S
C294 C293 1.388 . S
C294 C295 1.386 . S
C295 C294 1.386 . S
C295 C296 1.382 . S
C295 H317 0.950 . S
C296 N292 1.332 . S
C296 C295 1.382 . S
C296 H298 0.952 . S
C297 N292 1.332 . S
C297 C293 1.382 . S
C297 H299 0.948 . S
H298 C296 0.952 . S
H299 C297 0.948 . S
H300 C289 0.952 . S
H301 C291 0.948 . S
C302 C268 1.395 . S
C302 C272 1.391 . S
C303 C265 1.389 . S
C303 C285 1.392 . S
C304 C275 1.392 . S
C304 C277 1.389 . S
C305 C280 1.395 . S
C305 C282 1.391 . S
H306 C266 0.951 . S
H307 C267 0.950 . S
H308 C273 0.949 . S
H309 C274 0.950 . S
H310 C278 0.951 . S
H311 C279 0.950 . S
H312 C283 0.949 . S
H313 C284 0.950 . S
H314 C288 0.950 . S
H315 C290 0.950 . S
H316 C293 0.950 . S
H317 C295 0.950 . S
C318 O320 1.247 . S
C318 O322 1.258 . S
C319 O326 1.247 . S
C319 O327 1.258 . S
O320 C318 1.247 . S
O320 Zn321 2.028 . S
Zn321 O320 2.028 . S
Zn321 O325 2.035 . S
Zn321 O327 2.035 . S
Zn321 O328 2.028 . S
O322 C318 1.258 . S
O322 Zn323 2.035 . S
Zn323 O322 2.035 . S
Zn323 O324 2.028 . S
Zn323 O326 2.028 . S
Zn323 O329 2.035 . S
O324 Zn323 2.028 . S
O324 C330 1.247 . S
O325 Zn321 2.035 . S
O325 C330 1.258 . S
O326 C319 1.247 . S
O326 Zn323 2.028 . S
O327 C319 1.258 . S
O327 Zn321 2.035 . S
O328 Zn321 2.028 . S
O328 C331 1.247 . S
O329 Zn323 2.035 . S
O329 C331 1.258 . S
C330 O324 1.247 . S
C330 O325 1.258 . S
C331 O328 1.247 . S
C331 O329 1.258 . S
C332 O334 1.247 . S
C332 O336 1.258 . S
C333 O340 1.247 . S
C333 O341 1.258 . S
O334 C332 1.247 . S
O334 Zn335 2.028 . S
Zn335 O334 2.028 . S
Zn335 O339 2.035 . S
Zn335 O341 2.035 . S
Zn335 O342 2.028 . S
O336 C332 1.258 . S
O336 Zn337 2.035 . S
Zn337 O336 2.035 . S
Zn337 O338 2.028 . S
Zn337 O340 2.028 . S
Zn337 O343 2.035 . S
O338 Zn337 2.028 . S
O338 C344 1.247 . S
O339 Zn335 2.035 . S
O339 C344 1.258 . S
O340 C333 1.247 . S
O340 Zn337 2.028 . S
O341 C333 1.258 . S
O341 Zn335 2.035 . S
O342 Zn335 2.028 . S
O342 C345 1.247 . S
O343 Zn337 2.035 . S
O343 C345 1.258 . S
C344 O338 1.247 . S
C344 O339 1.258 . S
C345 O342 1.247 . S
C345 O343 1.258 . S
C346 O348 1.247 . S
C346 O350 1.258 . S
C347 O354 1.247 . S
C347 O355 1.258 . S
O348 C346 1.247 . S
O348 Zn349 2.028 . S
Zn349 O348 2.028 . S
Zn349 O353 2.035 . S
Zn349 O355 2.035 . S
Zn349 O356 2.028 . S
O350 C346 1.258 . S
O350 Zn351 2.035 . S
Zn351 O350 2.035 . S
Zn351 O352 2.028 . S
Zn351 O354 2.028 . S
Zn351 O357 2.035 . S
O352 Zn351 2.028 . S
O352 C358 1.247 . S
O353 Zn349 2.035 . S
O353 C358 1.258 . S
O354 C347 1.247 . S
O354 Zn351 2.028 . S
O355 C347 1.258 . S
O355 Zn349 2.035 . S
O356 Zn349 2.028 . S
O356 C359 1.247 . S
O357 Zn351 2.035 . S
O357 C359 1.258 . S
C358 O352 1.247 . S
C358 O353 1.258 . S
C359 O356 1.247 . S
C359 O357 1.258 . S
C360 O362 1.247 . S
C360 O364 1.258 . S
C361 O368 1.247 . S
C361 O369 1.258 . S
O362 C360 1.247 . S
O362 Zn363 2.028 . S
Zn363 O362 2.028 . S
Zn363 O367 2.035 . S
Zn363 O369 2.035 . S
Zn363 O370 2.028 . S
O364 C360 1.258 . S
O364 Zn365 2.035 . S
Zn365 O364 2.035 . S
Zn365 O366 2.028 . S
Zn365 O368 2.028 . S
Zn365 O371 2.035 . S
O366 Zn365 2.028 . S
O366 C372 1.247 . S
O367 Zn363 2.035 . S
O367 C372 1.258 . S
O368 C361 1.247 . S
O368 Zn365 2.028 . S
O369 C361 1.258 . S
O369 Zn363 2.035 . S
O370 Zn363 2.028 . S
O370 C373 1.247 . S
O371 Zn365 2.035 . S
O371 C373 1.258 . S
C372 O366 1.247 . S
C372 O367 1.258 . S
C373 O370 1.247 . S
C373 O371 1.258 . S
C374 O376 1.247 . S
C374 O378 1.258 . S
C375 O382 1.247 . S
C375 O383 1.258 . S
O376 C374 1.247 . S
O376 Zn377 2.028 . S
Zn377 O376 2.028 . S
Zn377 O381 2.035 . S
Zn377 O383 2.035 . S
Zn377 O384 2.028 . S
O378 C374 1.258 . S
O378 Zn379 2.035 . S
Zn379 O378 2.035 . S
Zn379 O380 2.028 . S
Zn379 O382 2.028 . S
Zn379 O385 2.035 . S
O380 Zn379 2.028 . S
O380 C386 1.247 . S
O381 Zn377 2.035 . S
O381 C386 1.258 . S
O382 C375 1.247 . S
O382 Zn379 2.028 . S
O383 C375 1.258 . S
O383 Zn377 2.035 . S
O384 Zn377 2.028 . S
O384 C387 1.247 . S
O385 Zn379 2.035 . S
O385 C387 1.258 . S
C386 O380 1.247 . S
C386 O381 1.258 . S
C387 O384 1.247 . S
C387 O385 1.258 . S
C388 O390 1.247 . S
C388 O392 1.258 . S
C389 O396 1.247 . S
C389 O397 1.258 . S
O390 C388 1.247 . S
O390 Zn391 2.028 . S
Zn391 O390 2.028 . S
Zn391 O395 2.035 . S
Zn391 O397 2.035 . S
Zn391 O398 2.028 . S
O392 C388 1.258 . S
O392 Zn393 2.035 . S
Zn393 O392 2.035 . S
Zn393 O394 2.028 . S
Zn393 O396 2.028 . S
Zn393 O399 2.035 . S
O394 Zn393 2.028 . S
O394 C400 1.247 . S
O395 Zn391 2.035 . S
O395 C400 1.258 . S
O396 C389 1.247 . S
O396 Zn393 2.028 . S
O397 C389 1.258 . S
O397 Zn391 2.035 . S
O398 Zn391 2.028 . S
O398 C401 1.247 . S
O399 Zn393 2.035 . S
O399 C401 1.258 . S
C400 O394 1.247 . S
C400 O395 1.258 . S
C401 O398 1.247 . S
C401 O399 1.258 . S
C402 C403 1.387 . S
C402 H406 0.950 . S
C402 C411 1.390 . S
C403 C402 1.387 . S
C403 C405 1.387 . S
H404 C411 0.950 . S
C405 C403 1.387 . S
C405 C407 1.390 . S
C405 H409 0.950 . S
H406 C402 0.950 . S
C407 C405 1.390 . S
C407 C408 1.387 . S
C407 H410 0.950 . S
C408 C407 1.387 . S
C408 C411 1.387 . S
H409 C405 0.950 . S
H410 C407 0.950 . S
C411 C402 1.390 . S
C411 H404 0.950 . S
C411 C408 1.387 . S
C412 C413 1.387 . S
C412 H416 0.950 . S
C412 C421 1.390 . S
C413 C412 1.387 . S
C413 C415 1.387 . S
H414 C421 0.950 . S
C415 C413 1.387 . S
C415 C417 1.390 . S
C415 H419 0.950 . S
H416 C412 0.950 . S
C417 C415 1.390 . S
C417 C418 1.387 . S
C417 H420 0.950 . S
C418 C417 1.387 . S
C418 C421 1.387 . S
H419 C415 0.950 . S
H420 C417 0.950 . S
C421 C412 1.390 . S
C421 H414 0.950 . S
C421 C418 1.387 . S
C422 C423 1.387 . S
C422 H426 0.950 . S
C422 C431 1.390 . S
C423 C422 1.387 . S
C423 C425 1.387 . S
H424 C431 0.950 . S
C425 C423 1.387 . S
C425 C427 1.390 . S
C425 H429 0.950 . S
H426 C422 0.950 . S
C427 C425 1.390 . S
C427 C428 1.387 . S
C427 H430 0.950 . S
C428 C427 1.387 . S
C428 C431 1.387 . S
H429 C425 0.950 . S
H430 C427 0.950 . S
C431 C422 1.390 . S
C431 H424 0.950 . S
C431 C428 1.387 . S
C432 C433 1.387 . S
C432 H436 0.950 . S
C432 C441 1.390 . S
C433 C432 1.387 . S
C433 C435 1.387 . S
H434 C441 0.950 . S
C435 C433 1.387 . S
C435 C437 1.390 . S
C435 H439 0.950 . S
H436 C432 0.950 . S
C437 C435 1.390 . S
C437 C438 1.387 . S
C437 H440 0.950 . S
C438 C437 1.387 . S
C438 C441 1.387 . S
H439 C435 0.950 . S
H440 C437 0.950 . S
C441 C432 1.390 . S
C441 H434 0.950 . S
C441 C438 1.387 . S
C442 C443 1.387 . S
C442 H446 0.950 . S
C442 C451 1.390 . S
C443 C442 1.387 . S
C443 C445 1.387 . S
H444 C451 0.950 . S
C445 C443 1.387 . S
C445 C447 1.390 . S
C445 H449 0.950 . S
H446 C442 0.950 . S
C447 C445 1.390 . S
C447 C448 1.387 . S
C447 H450 0.950 . S
C448 C447 1.387 . S
C448 C451 1.387 . S
H449 C445 0.950 . S
H450 C447 0.950 . S
C451 C442 1.390 . S
C451 H444 0.950 . S
C451 C448 1.387 . S
C452 C453 1.387 . S
C452 H456 0.950 . S
C452 C461 1.390 . S
C453 C452 1.387 . S
C453 C455 1.387 . S
H454 C461 0.950 . S
C455 C453 1.387 . S
C455 C457 1.390 . S
C455 H459 0.950 . S
H456 C452 0.950 . S
C457 C455 1.390 . S
C457 C458 1.387 . S
C457 H460 0.950 . S
C458 C457 1.387 . S
C458 C461 1.387 . S
H459 C455 0.950 . S
H460 C457 0.950 . S
C461 C452 1.390 . S
C461 H454 0.950 . S
C461 C458 1.387 . S
C462 C463 1.387 . S
C462 H466 0.950 . S
C462 C471 1.390 . S
C463 C462 1.387 . S
C463 C465 1.387 . S
H464 C471 0.950 . S
C465 C463 1.387 . S
C465 C467 1.390 . S
C465 H469 0.950 . S
H466 C462 0.950 . S
C467 C465 1.390 . S
C467 C468 1.387 . S
C467 H470 0.950 . S
C468 C467 1.387 . S
C468 C471 1.387 . S
H469 C465 0.950 . S
H470 C467 0.950 . S
C471 C462 1.390 . S
C471 H464 0.950 . S
C471 C468 1.387 . S
C472 C473 1.387 . S
C472 H476 0.950 . S
C472 C481 1.390 . S
C473 C472 1.387 . S
C473 C475 1.387 . S
H474 C481 0.950 . S
C475 C473 1.387 . S
C475 C477 1.390 . S
C475 H479 0.950 . S
H476 C472 0.950 . S
C477 C475 1.390 . S
C477 C478 1.387 . S
C477 H480 0.950 . S
C478 C477 1.387 . S
C478 C481 1.387 . S
H479 C475 0.950 . S
H480 C477 0.950 . S
C481 C472 1.390 . S
C481 H474 0.950 . S
C481 C478 1.387 . S
C482 C483 1.387 . S
C482 H486 0.950 . S
C482 C491 1.390 . S
C483 C482 1.387 . S
C483 C485 1.387 . S
H484 C491 0.950 . S
C485 C483 1.387 . S
C485 C487 1.390 . S
C485 H489 0.950 . S
H486 C482 0.950 . S
C487 C485 1.390 . S
C487 C488 1.387 . S
C487 H490 0.950 . S
C488 C487 1.387 . S
C488 C491 1.387 . S
H489 C485 0.950 . S
H490 C487 0.950 . S
C491 C482 1.390 . S
C491 H484 0.950 . S
C491 C488 1.387 . S
C492 C493 1.387 . S
C492 H496 0.950 . S
C492 C501 1.390 . S
C493 C492 1.387 . S
C493 C495 1.387 . S
H494 C501 0.950 . S
C495 C493 1.387 . S
C495 C497 1.390 . S
C495 H499 0.950 . S
H496 C492 0.950 . S
C497 C495 1.390 . S
C497 C498 1.387 . S
C497 H500 0.950 . S
C498 C497 1.387 . S
C498 C501 1.387 . S
H499 C495 0.950 . S
H500 C497 0.950 . S
C501 C492 1.390 . S
C501 H494 0.950 . S
C501 C498 1.387 . S
C502 C503 1.387 . S
C502 H506 0.950 . S
C502 C511 1.390 . S
C503 C502 1.387 . S
C503 C505 1.387 . S
H504 C511 0.950 . S
C505 C503 1.387 . S
C505 C507 1.390 . S
C505 H509 0.950 . S
H506 C502 0.950 . S
C507 C505 1.390 . S
C507 C508 1.387 . S
C507 H510 0.950 . S
C508 C507 1.387 . S
C508 C511 1.387 . S
H509 C505 0.950 . S
H510 C507 0.950 . S
C511 C502 1.390 . S
C511 H504 0.950 . S
C511 C508 1.387 . S
C512 C513 1.387 . S
C512 H516 0.950 . S
C512 C521 1.390 . S
C513 C512 1.387 . S
C513 C515 1.387 . S
H514 C521 0.950 . S
C515 C513 1.387 . S
C515 C517 1.390 . S
C515 H519 0.950 . S
H516 C512 0.950 . S
C517 C515 1.390 . S
C517 C518 1.387 . S
C517 H520 0.950 . S
C518 C517 1.387 . S
C518 C521 1.387 . S
H519 C515 0.950 . S
H520 C517 0.950 . S
C521 C512 1.390 . S
C521 H514 0.950 . S
C521 C518 1.387 . S
C522 C523 1.387 . S
C522 H526 0.950 . S
C522 C531 1.390 . S
C523 C522 1.387 . S
C523 C525 1.387 . S
H524 C531 0.950 . S
C525 C523 1.387 . S
C525 C527 1.390 . S
C525 H529 0.950 . S
H526 C522 0.950 . S
C527 C525 1.390 . S
C527 C528 1.387 . S
C527 H530 0.950 . S
C528 C527 1.387 . S
C528 C531 1.387 . S
H529 C525 0.950 . S
H530 C527 0.950 . S
C531 C522 1.390 . S
C531 H524 0.950 . S
C531 C528 1.387 . S
C532 C533 1.387 . S
C532 H536 0.950 . S
C532 C541 1.390 . S
C533 C532 1.387 . S
C533 C535 1.387 . S
H534 C541 0.950 . S
C535 C533 1.387 . S
C535 C537 1.390 . S
C535 H539 0.950 . S
H536 C532 0.950 . S
C537 C535 1.390 . S
C537 C538 1.387 . S
C537 H540 0.950 . S
C538 C537 1.387 . S
C538 C541 1.387 . S
H539 C535 0.950 . S
H540 C537 0.950 . S
C541 C532 1.390 . S
C541 H534 0.950 . S
C541 C538 1.387 . S
C542 C543 1.387 . S
C542 H546 0.950 . S
C542 C551 1.390 . S
C543 C542 1.387 . S
C543 C545 1.387 . S
H544 C551 0.950 . S
C545 C543 1.387 . S
C545 C547 1.390 . S
C545 H549 0.950 . S
H546 C542 0.950 . S
C547 C545 1.390 . S
C547 C548 1.387 . S
C547 H550 0.950 . S
C548 C547 1.387 . S
C548 C551 1.387 . S
H549 C545 0.950 . S
H550 C547 0.950 . S
C551 C542 1.390 . S
C551 H544 0.950 . S
C551 C548 1.387 . S
C552 C553 1.387 . S
C552 H556 0.950 . S
C552 C561 1.390 . S
C553 C552 1.387 . S
C553 C555 1.387 . S
H554 C561 0.950 . S
C555 C553 1.387 . S
C555 C557 1.390 . S
C555 H559 0.950 . S
H556 C552 0.950 . S
C557 C555 1.390 . S
C557 C558 1.387 . S
C557 H560 0.950 . S
C558 C557 1.387 . S
C558 C561 1.387 . S
H559 C555 0.950 . S
H560 C557 0.950 . S
C561 C552 1.390 . S
C561 H554 0.950 . S
C561 C558 1.387 . S
C562 C563 1.387 . S
C562 H566 0.950 . S
C562 C571 1.390 . S
C563 C562 1.387 . S
C563 C565 1.387 . S
H564 C571 0.950 . S
C565 C563 1.387 . S
C565 C567 1.390 . S
C565 H569 0.950 . S
H566 C562 0.950 . S
C567 C565 1.390 . S
C567 C568 1.387 . S
C567 H570 0.950 . S
C568 C567 1.387 . S
C568 C571 1.387 . S
H569 C565 0.950 . S
H570 C567 0.950 . S
C571 C562 1.390 . S
C571 H564 0.950 . S
C571 C568 1.387 . S
C572 C573 1.387 . S
C572 H576 0.950 . S
C572 C581 1.390 . S
C573 C572 1.387 . S
C573 C575 1.387 . S
H574 C581 0.950 . S
C575 C573 1.387 . S
C575 C577 1.390 . S
C575 H579 0.950 . S
H576 C572 0.950 . S
C577 C575 1.390 . S
C577 C578 1.387 . S
C577 H580 0.950 . S
C578 C577 1.387 . S
C578 C581 1.387 . S
H579 C575 0.950 . S
H580 C577 0.950 . S
C581 C572 1.390 . S
C581 H574 0.950 . S
C581 C578 1.387 . S
C582 C583 1.387 . S
C582 H586 0.950 . S
C582 C591 1.390 . S
C583 C582 1.387 . S
C583 C585 1.387 . S
H584 C591 0.950 . S
C585 C583 1.387 . S
C585 C587 1.390 . S
C585 H589 0.950 . S
H586 C582 0.950 . S
C587 C585 1.390 . S
C587 C588 1.387 . S
C587 H590 0.950 . S
C588 C587 1.387 . S
C588 C591 1.387 . S
H589 C585 0.950 . S
H590 C587 0.950 . S
C591 C582 1.390 . S
C591 H584 0.950 . S
C591 C588 1.387 . S
C592 C593 1.387 . S
C592 H596 0.950 . S
C592 C601 1.390 . S
C593 C592 1.387 . S
C593 C595 1.387 . S
H594 C601 0.950 . S
C595 C593 1.387 . S
C595 C597 1.390 . S
C595 H599 0.950 . S
H596 C592 0.950 . S
C597 C595 1.390 . S
C597 C598 1.387 . S
C597 H600 0.950 . S
C598 C597 1.387 . S
C598 C601 1.387 . S
H599 C595 0.950 . S
H600 C597 0.950 . S
C601 C592 1.390 . S
C601 H594 0.950 . S
C601 C598 1.387 . S
C602 C603 1.387 . S
C602 H606 0.950 . S
C602 C611 1.390 . S
C603 C602 1.387 . S
C603 C605 1.387 . S
H604 C611 0.950 . S
C605 C603 1.387 . S
C605 C607 1.390 . S
C605 H609 0.950 . S
H606 C602 0.950 . S
C607 C605 1.390 . S
C607 C608 1.387 . S
C607 H610 0.950 . S
C608 C607 1.387 . S
C608 C611 1.387 . S
H609 C605 0.950 . S
H610 C607 0.950 . S
C611 C602 1.390 . S
C611 H604 0.950 . S
C611 C608 1.387 . S
C612 C613 1.387 . S
C612 H616 0.950 . S
C612 C621 1.390 . S
C613 C612 1.387 . S
C613 C615 1.387 . S
H614 C621 0.950 . S
C615 C613 1.387 . S
C615 C617 1.390 . S
C615 H619 0.950 . S
H616 C612 0.950 . S
C617 C615 1.390 . S
C617 C618 1.387 . S
C617 H620 0.950 . S
C618 C617 1.387 . S
C618 C621 1.387 . S
H619 C615 0.950 . S
H620 C617 0.950 . S
C621 C612 1.390 . S
C621 H614 0.950 . S
C621 C618 1.387 . S
C622 C623 1.387 . S
C622 H626 0.950 . S
C622 C631 1.390 . S
C623 C622 1.387 . S
C623 C625 1.387 . S
H624 C631 0.950 . S
C625 C623 1.387 . S
C625 C627 1.390 . S
C625 H629 0.950 . S
H626 C622 0.950 . S
C627 C625 1.390 . S
C627 C628 1.387 . S
C627 H630 0.950 . S
C628 C627 1.387 . S
C628 C631 1.387 . S
H629 C625 0.950 . S
H630 C627 0.950 . S
C631 C622 1.390 . S
C631 H624 0.950 . S
C631 C628 1.387 . S
C632 C633 1.387 . S
C632 H636 0.950 . S
C632 C641 1.390 . S
C633 C632 1.387 . S
C633 C635 1.387 . S
H634 C641 0.950 . S
C635 C633 1.387 . S
C635 C637 1.390 . S
C635 H639 0.950 . S
H636 C632 0.950 . S
C637 C635 1.390 . S
C637 C638 1.387 . S
C637 H640 0.950 . S
C638 C637 1.387 . S
C638 C641 1.387 . S
H639 C635 0.950 . S
H640 C637 0.950 . S
C641 C632 1.390 . S
C641 H634 0.950 . S
C641 C638 1.387 . S
C403 C39 1.710 . S
C408 C319 1.683 . S
C413 C91 1.707 . S
C418 C344 1.685 . S
C428 C347 1.525 . S
C423 C128 1.557 . S
C438 C373 1.495 . S
C433 C188 1.521 . S
C448 C374 1.610 . S
C443 C250 1.639 . S
C458 C401 1.640 . S
C453 C304 1.678 . S
C463 C75 1.581 . S
C468 C346 1.554 . S
C473 C144 1.699 . S
C478 C372 1.674 . S
C488 C375 1.634 . S
C483 C198 1.657 . S
C498 C400 1.482 . S
C493 C234 1.509 . S
C503 C294 1.507 . S
C508 C318 1.482 . S
C518 C345 1.518 . S
C513 C29 1.537 . S
C528 C360 1.683 . S
C523 C38 1.711 . S
C533 C92 1.708 . S
C538 C387 1.686 . S
C548 C388 1.525 . S
C543 C135 1.557 . S
C553 C181 1.521 . S
C558 C330 1.494 . S
C563 C251 1.640 . S
C568 C333 1.612 . S
C573 C303 1.679 . S
C578 C358 1.641 . S
C583 C82 1.582 . S
C588 C389 1.556 . S
C598 C331 1.675 . S
C593 C145 1.700 . S
C603 C197 1.657 . S
C608 C332 1.634 . S
C613 C241 1.509 . S
C618 C359 1.482 . S
C623 C287 1.508 . S
C628 C361 1.484 . S
C633 C22 1.537 . S
C638 C386 1.517 . S
