# Generated by pormake.
# Topology pto, (3,4)-cn, num edge types: 1
# Building blocks:
#     Node 0, Type 0, BuildingBlock: WUSLED_clean_sbu_0, # of connection points: 3
#     Node 1, Type 0, BuildingBlock: WUSLED_clean_sbu_0, # of connection points: 3
#     Node 2, Type 0, BuildingBlock: WUSLED_clean_sbu_0, # of connection points: 3
#     Node 3, Type 0, BuildingBlock: WUSLED_clean_sbu_0, # of connection points: 3
#     Node 4, Type 0, BuildingBlock: WUSLED_clean_sbu_0, # of connection points: 3
#     Node 5, Type 0, BuildingBlock: WUSLED_clean_sbu_0, # of connection points: 3
#     Node 6, Type 0, BuildingBlock: WUSLED_clean_sbu_0, # of connection points: 3
#     Node 7, Type 0, BuildingBlock: WUSLED_clean_sbu_0, # of connection points: 3
#     Node 8, Type 1, BuildingBlock: KOZSID_clean_sbu_0, # of connection points: 4
#     Node 9, Type 1, BuildingBlock: KOZSID_clean_sbu_0, # of connection points: 4
#     Node 10, Type 1, BuildingBlock: KOZSID_clean_sbu_0, # of connection points: 4
#     Node 11, Type 1, BuildingBlock: KOZSID_clean_sbu_0, # of connection points: 4
#     Node 12, Type 1, BuildingBlock: KOZSID_clean_sbu_0, # of connection points: 4
#     Node 13, Type 1, BuildingBlock: KOZSID_clean_sbu_0, # of connection points: 4
#     Edge 14, Type (0, 1), BuildingBlock: XIVTED_clean_linker_0, # of connection points: 2
#     Edge 15, Type (0, 1), BuildingBlock: XIVTED_clean_linker_0, # of connection points: 2
#     Edge 16, Type (0, 1), BuildingBlock: XIVTED_clean_linker_0, # of connection points: 2
#     Edge 17, Type (0, 1), BuildingBlock: XIVTED_clean_linker_0, # of connection points: 2
#     Edge 18, Type (0, 1), BuildingBlock: XIVTED_clean_linker_0, # of connection points: 2
#     Edge 19, Type (0, 1), BuildingBlock: XIVTED_clean_linker_0, # of connection points: 2
#     Edge 20, Type (0, 1), BuildingBlock: XIVTED_clean_linker_0, # of connection points: 2
#     Edge 21, Type (0, 1), BuildingBlock: XIVTED_clean_linker_0, # of connection points: 2
#     Edge 22, Type (0, 1), BuildingBlock: XIVTED_clean_linker_0, # of connection points: 2
#     Edge 23, Type (0, 1), BuildingBlock: XIVTED_clean_linker_0, # of connection points: 2
#     Edge 24, Type (0, 1), BuildingBlock: XIVTED_clean_linker_0, # of connection points: 2
#     Edge 25, Type (0, 1), BuildingBlock: XIVTED_clean_linker_0, # of connection points: 2
#     Edge 26, Type (0, 1), BuildingBlock: XIVTED_clean_linker_0, # of connection points: 2
#     Edge 27, Type (0, 1), BuildingBlock: XIVTED_clean_linker_0, # of connection points: 2
#     Edge 28, Type (0, 1), BuildingBlock: XIVTED_clean_linker_0, # of connection points: 2
#     Edge 29, Type (0, 1), BuildingBlock: XIVTED_clean_linker_0, # of connection points: 2
#     Edge 30, Type (0, 1), BuildingBlock: XIVTED_clean_linker_0, # of connection points: 2
#     Edge 31, Type (0, 1), BuildingBlock: XIVTED_clean_linker_0, # of connection points: 2
#     Edge 32, Type (0, 1), BuildingBlock: XIVTED_clean_linker_0, # of connection points: 2
#     Edge 33, Type (0, 1), BuildingBlock: XIVTED_clean_linker_0, # of connection points: 2
#     Edge 34, Type (0, 1), BuildingBlock: XIVTED_clean_linker_0, # of connection points: 2
#     Edge 35, Type (0, 1), BuildingBlock: XIVTED_clean_linker_0, # of connection points: 2
#     Edge 36, Type (0, 1), BuildingBlock: XIVTED_clean_linker_0, # of connection points: 2
#     Edge 37, Type (0, 1), BuildingBlock: XIVTED_clean_linker_0, # of connection points: 2
# Relax obj value: 0.000
# Max RMSD: 0.023
# Mean RMSD: 0.010
data_MOF--net-pto--node1-WUSLED_clean_sbu_0--node2-KOZSID_clean_sbu_0--edge1-XIVTED_clean_linker_0
_symmetry_space_group_name_H-M    P1
_symmetry_Int_Tables_number       1
_symmetry_cell_setting            triclinic
loop_
_symmetry_equiv_pos_as_xyz
'x, y, z'
_cell_length_a     49.664087
_cell_length_b     66.399569
_cell_length_c     58.154559
_cell_angle_alpha  87.538355
_cell_angle_beta   88.223879
_cell_angle_gamma 92.837039
loop_
_atom_site_label
_atom_site_type_symbol
_atom_site_fract_x
_atom_site_fract_y
_atom_site_fract_z
_atom_type_partial_charge
C0 C 0.24816 0.22802 0.3578 0.0
C1 C 0.26892 0.215 0.35327 0.0
C2 C 0.25214 0.19195 0.38498 0.0
C3 C 0.2709 0.19713 0.36674 0.0
C4 C 0.23129 0.20507 0.38926 0.0
C5 C 0.22937 0.2229 0.37582 0.0
U6 U 0.26878 0.2641 0.30628 0.0
O7 O 0.24356 0.28196 0.2834 0.0
O8 O 0.27384 0.29723 0.3042 0.0
C9 C 0.25395 0.29927 0.29001 0.0
C10 C 0.24571 0.24694 0.34397 0.0
C11 C 0.2346 0.31479 0.29517 0.0
C12 C 0.2097 0.33484 0.3219 0.0
C13 C 0.2272 0.3193 0.31782 0.0
C14 C 0.20655 0.34125 0.2808 0.0
C15 C 0.1992 0.34604 0.30341 0.0
C16 C 0.22403 0.32583 0.27676 0.0
C17 C 0.32405 0.24951 0.26332 0.0
C18 C 0.33684 0.26912 0.22803 0.0
C19 C 0.36059 0.23923 0.23841 0.0
C20 C 0.34422 0.23618 0.25837 0.0
C21 C 0.35712 0.25572 0.22293 0.0
C22 C 0.32047 0.26605 0.24808 0.0
C23 C 0.30682 0.24569 0.28428 0.0
O24 O 0.26647 0.26001 0.34407 0.0
O25 O 0.23598 0.24492 0.32339 0.0
O26 O 0.28096 0.24236 0.28092 0.0
O27 O 0.31161 0.2577 0.30122 0.0
H28 H 0.28363 0.21871 0.3394 0.0
H29 H 0.28736 0.18754 0.36307 0.0
H30 H 0.21621 0.20146 0.40284 0.0
H31 H 0.21311 0.2327 0.37949 0.0
H32 H 0.20426 0.33797 0.33952 0.0
H33 H 0.23505 0.31094 0.33232 0.0
H34 H 0.19926 0.34972 0.26613 0.0
H35 H 0.2296 0.32268 0.25916 0.0
H36 H 0.33378 0.28209 0.21665 0.0
H37 H 0.37567 0.22843 0.23491 0.0
H38 H 0.3472 0.22328 0.2699 0.0
H39 H 0.305 0.27653 0.25167 0.0
C40 C 0.24184 0.81841 0.69335 0.0
C41 C 0.24072 0.83719 0.70355 0.0
C42 C 0.24793 0.85486 0.66596 0.0
C43 C 0.24367 0.85519 0.69001 0.0
C44 C 0.24958 0.836 0.65593 0.0
C45 C 0.24648 0.81803 0.66946 0.0
U46 U 0.25542 0.78205 0.74469 0.0
O47 O 0.22701 0.76253 0.76657 0.0
O48 O 0.25876 0.74909 0.74606 0.0
C49 C 0.23709 0.74582 0.75956 0.0
C50 C 0.23728 0.79909 0.70698 0.0
C51 C 0.21736 0.7295 0.75359 0.0
C52 C 0.20298 0.70199 0.72957 0.0
C53 C 0.22052 0.71859 0.73355 0.0
C54 C 0.17849 0.70717 0.76527 0.0
C55 C 0.18188 0.69595 0.74549 0.0
C56 C 0.19606 0.72367 0.76928 0.0
C57 C 0.3075 0.7985 0.78887 0.0
C58 C 0.32747 0.77651 0.81752 0.0
C59 C 0.33437 0.81279 0.81895 0.0
C60 C 0.31872 0.8153 0.79956 0.0
C61 C 0.33924 0.79337 0.82806 0.0
C62 C 0.31173 0.77905 0.79809 0.0
C63 C 0.2921 0.80172 0.76788 0.0
O64 O 0.25736 0.7869 0.70689 0.0
O65 O 0.22525 0.79992 0.72737 0.0
O66 O 0.26607 0.8037 0.77104 0.0
O67 O 0.29796 0.79039 0.7506 0.0
H68 H 0.2372 0.838 0.72196 0.0
H69 H 0.24196 0.86935 0.69837 0.0
H70 H 0.25336 0.83507 0.63758 0.0
H71 H 0.24749 0.80376 0.66118 0.0
H72 H 0.20601 0.69384 0.71404 0.0
H73 H 0.23679 0.72262 0.72111 0.0
H74 H 0.16275 0.70281 0.77808 0.0
H75 H 0.19335 0.73161 0.78501 0.0
H76 H 0.33093 0.76134 0.82395 0.0
H77 H 0.34261 0.82613 0.82683 0.0
H78 H 0.31555 0.83042 0.79279 0.0
H79 H 0.30316 0.76587 0.7901 0.0
C80 C 0.73313 0.7971 0.26483 0.0
C81 C 0.72864 0.77773 0.25645 0.0
C82 C 0.70269 0.79163 0.22507 0.0
C83 C 0.71345 0.77501 0.23679 0.0
C84 C 0.70746 0.81099 0.23353 0.0
C85 C 0.72249 0.81367 0.2532 0.0
U86 U 0.78486 0.78102 0.30875 0.0
O87 O 0.81671 0.79916 0.3249 0.0
O88 O 0.78425 0.78375 0.34644 0.0
C89 C 0.80513 0.79676 0.34555 0.0
C90 C 0.74876 0.80038 0.2856 0.0
C91 C 0.80198 0.81528 0.35848 0.0
C92 C 0.79851 0.8517 0.35991 0.0
C93 C 0.80047 0.83433 0.3472 0.0
C94 C 0.79886 0.83123 0.39534 0.0
C95 C 0.79776 0.85037 0.38415 0.0
C96 C 0.80103 0.81391 0.38263 0.0
C97 C 0.81843 0.72999 0.29916 0.0
C98 C 0.83998 0.70695 0.32576 0.0
C99 C 0.8451 0.70328 0.28464 0.0
C100 C 0.82935 0.71985 0.2807 0.0
C101 C 0.85028 0.69638 0.3072 0.0
C102 C 0.82411 0.72361 0.32178 0.0
C103 C 0.80008 0.74631 0.29402 0.0
O104 O 0.7426 0.78797 0.30342 0.0
O105 O 0.77488 0.80378 0.28208 0.0
O106 O 0.81144 0.76381 0.28671 0.0
O107 O 0.77941 0.74795 0.30839 0.0
H108 H 0.73685 0.76474 0.26511 0.0
H109 H 0.71042 0.75994 0.23061 0.0
H110 H 0.69919 0.82408 0.22514 0.0
H111 H 0.72572 0.82872 0.25942 0.0
H112 H 0.79735 0.86616 0.35074 0.0
H113 H 0.80095 0.83584 0.32857 0.0
H114 H 0.79862 0.82965 0.41396 0.0
H115 H 0.80221 0.7994 0.39171 0.0
H116 H 0.8435 0.702 0.34335 0.0
H117 H 0.85313 0.69578 0.26993 0.0
H118 H 0.82529 0.72456 0.26312 0.0
H119 H 0.81589 0.73123 0.33632 0.0
C120 C 0.76772 0.22463 0.72834 0.0
C121 C 0.79357 0.21971 0.7206 0.0
C122 C 0.7739 0.1939 0.6965 0.0
C123 C 0.79663 0.2045 0.70482 0.0
C124 C 0.7481 0.19935 0.70386 0.0
C125 C 0.74508 0.21448 0.71961 0.0
U126 U 0.78136 0.27514 0.7585 0.0
O127 O 0.75173 0.29428 0.77462 0.0
O128 O 0.78243 0.28036 0.79557 0.0
C129 C 0.76065 0.29086 0.7954 0.0
C130 C 0.76353 0.23928 0.74644 0.0
C131 C 0.73989 0.2859 0.81384 0.0
C132 C 0.71987 0.26382 0.845 0.0
C133 C 0.73867 0.26738 0.82661 0.0
C134 C 0.70285 0.29696 0.83777 0.0
C135 C 0.70184 0.27863 0.85091 0.0
C136 C 0.72169 0.30054 0.81951 0.0
C137 C 0.83352 0.31614 0.73519 0.0
C138 C 0.85991 0.34103 0.75584 0.0
C139 C 0.84895 0.34823 0.71616 0.0
C140 C 0.83516 0.32935 0.71564 0.0
C141 C 0.86164 0.35426 0.73622 0.0
C142 C 0.84591 0.32221 0.75537 0.0
C143 C 0.81916 0.29612 0.73398 0.0
O144 O 0.7831 0.24208 0.76089 0.0
O145 O 0.7523 0.25606 0.74008 0.0
O146 O 0.79343 0.29637 0.72937 0.0
O147 O 0.82431 0.28237 0.75 0.0
H148 H 0.81141 0.22731 0.72705 0.0
H149 H 0.8168 0.20065 0.69966 0.0
H150 H 0.73012 0.19186 0.69752 0.0
H151 H 0.72494 0.21803 0.72529 0.0
H152 H 0.71943 0.24945 0.85459 0.0
H153 H 0.7524 0.25576 0.82258 0.0
H154 H 0.68956 0.3088 0.84199 0.0
H155 H 0.72237 0.31498 0.81002 0.0
H156 H 0.86917 0.3453 0.77165 0.0
H157 H 0.85012 0.35795 0.70068 0.0
H158 H 0.82585 0.32501 0.69987 0.0
H159 H 0.84486 0.31243 0.7708 0.0
C160 C 0.80716 0.73412 0.76396 0.0
C161 C 0.81488 0.73003 0.74124 0.0
C162 C 0.83974 0.70131 0.75516 0.0
C163 C 0.83107 0.71378 0.73688 0.0
C164 C 0.83245 0.70588 0.77785 0.0
C165 C 0.81634 0.72206 0.78216 0.0
U166 U 0.77441 0.78562 0.75351 0.0
O167 O 0.73187 0.79256 0.75916 0.0
O168 O 0.76319 0.80732 0.77926 0.0
C169 C 0.73722 0.80444 0.77611 0.0
C170 C 0.78864 0.75013 0.76935 0.0
C171 C 0.72 0.8009 0.79713 0.0
C172 C 0.70697 0.78174 0.83268 0.0
C173 C 0.72357 0.78461 0.81273 0.0
C174 C 0.68306 0.81134 0.82149 0.0
C175 C 0.68645 0.79507 0.83729 0.0
C176 C 0.69966 0.8142 0.80164 0.0
C177 C 0.79418 0.82175 0.70187 0.0
C178 C 0.7797 0.8562 0.69806 0.0
C179 C 0.80278 0.84158 0.66602 0.0
C180 C 0.80469 0.82359 0.67919 0.0
C181 C 0.79032 0.85816 0.67527 0.0
C182 C 0.78154 0.83814 0.71121 0.0
C183 C 0.79675 0.8027 0.71548 0.0
O184 O 0.7998 0.76727 0.77574 0.0
O185 O 0.7685 0.75254 0.7555 0.0
O186 O 0.77578 0.78982 0.71567 0.0
O187 O 0.80713 0.80444 0.73587 0.0
H188 H 0.80803 0.73917 0.7269 0.0
H189 H 0.83618 0.71065 0.7192 0.0
H190 H 0.83917 0.69692 0.79237 0.0
H191 H 0.81071 0.725 0.79981 0.0
H192 H 0.70998 0.76895 0.84433 0.0
H193 H 0.73916 0.77414 0.80948 0.0
H194 H 0.6678 0.8221 0.82461 0.0
H195 H 0.69667 0.8269 0.78983 0.0
H196 H 0.76969 0.86855 0.70566 0.0
H197 H 0.8115 0.84259 0.64868 0.0
H198 H 0.81456 0.81112 0.67169 0.0
H199 H 0.77314 0.83698 0.72866 0.0
C200 C 0.73602 0.24987 0.27213 0.0
C201 C 0.73164 0.26921 0.2627 0.0
C202 C 0.70331 0.25456 0.23347 0.0
C203 C 0.71542 0.27154 0.24353 0.0
C204 C 0.70825 0.23524 0.24283 0.0
C205 C 0.72438 0.23295 0.26195 0.0
U206 U 0.78827 0.26746 0.31564 0.0
O207 O 0.78781 0.26202 0.35324 0.0
O208 O 0.82007 0.25029 0.33182 0.0
C209 C 0.80885 0.25077 0.35254 0.0
C210 C 0.75223 0.24687 0.2927 0.0
C211 C 0.80594 0.2313 0.36582 0.0
C212 C 0.7825 0.19874 0.375 0.0
C213 C 0.78512 0.21694 0.36175 0.0
C214 C 0.8216 0.20902 0.3963 0.0
C215 C 0.80063 0.19458 0.39257 0.0
C216 C 0.82418 0.22716 0.38308 0.0
C217 C 0.82207 0.3216 0.30807 0.0
C218 C 0.86701 0.33817 0.30856 0.0
C219 C 0.82797 0.35644 0.31937 0.0
C220 C 0.81121 0.33942 0.31557 0.0
C221 C 0.85608 0.35618 0.31556 0.0
C222 C 0.85023 0.3211 0.30482 0.0
C223 C 0.80361 0.30459 0.30166 0.0
O224 O 0.77836 0.24601 0.28889 0.0
O225 O 0.74605 0.2576 0.31041 0.0
O226 O 0.78244 0.30017 0.31542 0.0
O227 O 0.81466 0.28851 0.29386 0.0
H228 H 0.74053 0.28248 0.27031 0.0
H229 H 0.71192 0.28665 0.23692 0.0
H230 H 0.69975 0.2218 0.23531 0.0
H231 H 0.72767 0.21789 0.26889 0.0
H232 H 0.76597 0.1881 0.37175 0.0
H233 H 0.77081 0.21987 0.34848 0.0
H234 H 0.83624 0.20624 0.40934 0.0
H235 H 0.84046 0.23802 0.3864 0.0
H236 H 0.88849 0.33743 0.30518 0.0
H237 H 0.81881 0.3699 0.3251 0.0
H238 H 0.7896 0.34035 0.31804 0.0
H239 H 0.85933 0.30772 0.29881 0.0
C240 C 0.24825 0.23654 0.69638 0.0
C241 C 0.25555 0.21834 0.70713 0.0
C242 C 0.25081 0.20114 0.67101 0.0
C243 C 0.25681 0.20081 0.69456 0.0
C244 C 0.24405 0.21957 0.66033 0.0
C245 C 0.24276 0.23701 0.67288 0.0
U246 U 0.26484 0.27137 0.74615 0.0
O247 O 0.27128 0.3045 0.74518 0.0
O248 O 0.23792 0.28977 0.7663 0.0
C249 C 0.24985 0.30693 0.75841 0.0
C250 C 0.24554 0.25509 0.70924 0.0
C251 C 0.23238 0.3234 0.75132 0.0
C252 C 0.1882 0.3364 0.74404 0.0
C253 C 0.20457 0.32007 0.74815 0.0
C254 C 0.22726 0.35953 0.74548 0.0
C255 C 0.19928 0.35638 0.7431 0.0
C256 C 0.24355 0.34326 0.7496 0.0
C257 C 0.31549 0.25645 0.79205 0.0
C258 C 0.31785 0.261 0.83335 0.0
C259 C 0.35899 0.25998 0.81013 0.0
C260 C 0.3438 0.25729 0.79052 0.0
C261 C 0.34622 0.26172 0.83184 0.0
C262 C 0.30264 0.25844 0.81369 0.0
C263 C 0.29997 0.25267 0.77112 0.0
O264 O 0.23353 0.25288 0.72973 0.0
O265 O 0.26682 0.2677 0.70864 0.0
O266 O 0.30687 0.26428 0.75278 0.0
O267 O 0.27371 0.24938 0.77394 0.0
H268 H 0.25995 0.21764 0.72527 0.0
H269 H 0.2619 0.1869 0.70343 0.0
H270 H 0.23984 0.22057 0.64217 0.0
H271 H 0.23724 0.25092 0.66422 0.0
H272 H 0.16673 0.33339 0.74244 0.0
H273 H 0.19533 0.30493 0.74944 0.0
H274 H 0.2366 0.37464 0.74444 0.0
H275 H 0.2649 0.34625 0.75201 0.0
H276 H 0.30736 0.2625 0.84975 0.0
H277 H 0.38078 0.2602 0.80836 0.0
H278 H 0.35424 0.25562 0.77412 0.0
H279 H 0.28085 0.25788 0.81552 0.0
C280 C 0.20749 0.73485 0.3241 0.0
C281 C 0.22126 0.71683 0.32467 0.0
C282 C 0.17862 0.69686 0.32419 0.0
C283 C 0.20699 0.69808 0.32477 0.0
C284 C 0.16497 0.71496 0.32347 0.0
C285 C 0.17922 0.73368 0.32353 0.0
U286 U 0.25932 0.77519 0.29861 0.0
O287 O 0.25672 0.8082 0.29431 0.0
O288 O 0.28824 0.79551 0.31536 0.0
C289 C 0.27658 0.81189 0.30819 0.0
C290 C 0.222 0.75493 0.32441 0.0
C291 C 0.27215 0.82728 0.32537 0.0
C292 C 0.26317 0.83719 0.36463 0.0
C293 C 0.26552 0.82209 0.34861 0.0
C294 C 0.27343 0.86277 0.33429 0.0
C295 C 0.26743 0.85775 0.35772 0.0
C296 C 0.27579 0.84772 0.31836 0.0
C297 C 0.29826 0.76234 0.24275 0.0
C298 C 0.33552 0.78232 0.22361 0.0
C299 C 0.31606 0.75307 0.2055 0.0
C300 C 0.29786 0.74956 0.22422 0.0
C301 C 0.33512 0.7695 0.20489 0.0
C302 C 0.31717 0.77879 0.24237 0.0
C303 C 0.27875 0.758 0.26214 0.0
O304 O 0.24783 0.75518 0.32884 0.0
O305 O 0.21643 0.76799 0.30781 0.0
O306 O 0.25698 0.76846 0.26195 0.0
O307 O 0.28881 0.75589 0.2827 0.0
H308 H 0.24305 0.71716 0.32516 0.0
H309 H 0.21824 0.68453 0.32566 0.0
H310 H 0.14321 0.71473 0.32262 0.0
H311 H 0.1681 0.74732 0.32307 0.0
H312 H 0.2587 0.83273 0.38252 0.0
H313 H 0.26259 0.8064 0.35443 0.0
H314 H 0.27631 0.8784 0.3282 0.0
H315 H 0.28082 0.85207 0.30051 0.0
H316 H 0.34976 0.7952 0.22362 0.0
H317 H 0.31542 0.74269 0.19165 0.0
H318 H 0.28347 0.73675 0.22425 0.0
H319 H 0.31772 0.78888 0.25653 0.0
C320 C 0.06642 0.55159 0.344 0.0
C321 C 0.076 0.55692 0.36518 0.0
C322 C 0.06229 0.54466 0.38145 0.0
C323 C 0.04532 0.53249 0.36933 0.0
N324 N 0.04763 0.53601 0.34626 0.0
Co325 Co 0.02647 0.52192 0.32228 0.0
N326 N 1.00406 0.50555 0.34636 0.0
C327 C 0.00551 0.50668 0.36946 0.0
C328 C 0.98771 0.49353 0.38165 0.0
C329 C 0.97423 0.48322 0.3654 0.0
C330 C 0.98476 0.49062 0.34413 0.0
N331 N 0.00558 0.50757 0.29827 0.0
C332 C 0.98645 0.49221 0.30056 0.0
C333 C 0.97833 0.48589 0.27928 0.0
C334 C 0.99284 0.49758 0.26299 0.0
C335 C 0.00904 0.51026 0.27514 0.0
N336 N 0.04859 0.53859 0.29821 0.0
C337 C 0.04664 0.53788 0.2751 0.0
C338 C 0.06305 0.55199 0.26294 0.0
C339 C 0.07601 0.56262 0.27921 0.0
C340 C 0.06686 0.55424 0.3005 0.0
N341 N 0.05307 0.50036 0.32174 0.0
C342 C 0.08646 0.46707 0.32035 0.0
C343 C 0.08006 0.47778 0.30021 0.0
C344 C 0.06365 0.49424 0.3013 0.0
C345 C 0.07675 0.47388 0.34132 0.0
C346 C 0.06026 0.49041 0.34161 0.0
N347 N 0.99986 0.5434 0.32279 0.0
C348 C 0.97256 0.56705 0.30239 0.0
C349 C 0.96445 0.5755 0.32293 0.0
C350 C 0.97413 0.56735 0.34348 0.0
C351 C 0.99155 0.55138 0.34303 0.0
C352 C 0.99003 0.55119 0.30271 0.0
H353 H 0.9982 0.54585 0.35925 0.0
H354 H 0.99556 0.54566 0.28642 0.0
H355 H 0.05952 0.50156 0.28528 0.0
H356 H 0.05318 0.49459 0.35812 0.0
C357 C 0.02521 0.51909 0.37917 0.0
C358 C 0.07499 0.56234 0.32237 0.0
C359 C 0.97624 0.48257 0.32238 0.0
C360 C 0.02815 0.52449 0.26536 0.0
H361 H 0.09088 0.56881 0.36855 0.0
H362 H 0.06381 0.54507 0.39996 0.0
H363 H 0.98533 0.49133 0.40017 0.0
H364 H 0.95874 0.47133 0.36881 0.0
H365 H 0.96382 0.4738 0.27581 0.0
H366 H 0.99205 0.49668 0.24448 0.0
H367 H 0.06476 0.55466 0.24444 0.0
H368 H 0.09005 0.57543 0.27571 0.0
H369 H 0.08764 0.47349 0.28355 0.0
H370 H 0.08113 0.46614 0.35744 0.0
H371 H 0.96597 0.57292 0.28595 0.0
H372 H 0.96816 0.57313 0.3599 0.0
C373 C 0.05635 0.55825 0.75714 0.0
C374 C 0.06517 0.56439 0.77827 0.0
C375 C 0.05115 0.55257 0.79474 0.0
C376 C 0.0347 0.53988 0.7828 0.0
N377 N 0.03764 0.54263 0.75965 0.0
Co378 Co 0.01684 0.52795 0.73586 0.0
N379 N 0.99529 0.51119 0.76017 0.0
C380 C 0.9973 0.51208 0.78326 0.0
C381 C 0.98057 0.49827 0.79559 0.0
C382 C 0.96739 0.48763 0.77944 0.0
C383 C 0.97699 0.49555 0.75809 0.0
N384 N 0.99564 0.51353 0.71211 0.0
C385 C 0.97706 0.4978 0.71458 0.0
C386 C 0.96808 0.49187 0.6934 0.0
C387 C 0.98148 0.50419 0.67702 0.0
C388 C 0.99791 0.51684 0.68901 0.0
N389 N 0.03882 0.54441 0.71157 0.0
C390 C 0.03714 0.54319 0.68849 0.0
C391 C 0.05425 0.55669 0.67611 0.0
C392 C 0.06754 0.56734 0.6922 0.0
C393 C 0.05776 0.55964 0.71359 0.0
N394 N 0.04387 0.50674 0.7353 0.0
C395 C 0.07989 0.47501 0.73506 0.0
C396 C 0.0698 0.48292 0.71457 0.0
C397 C 0.05211 0.49872 0.71506 0.0
C398 C 0.07188 0.4835 0.7556 0.0
C399 C 0.05406 0.49915 0.75533 0.0
N400 N 0.98979 0.54919 0.73647 0.0
C401 C 0.96457 0.57482 0.71694 0.0
C402 C 0.95395 0.58103 0.73788 0.0
C403 C 0.9613 0.57076 0.75803 0.0
C404 C 0.979 0.55508 0.75694 0.0
C405 C 0.98216 0.55894 0.71662 0.0
H406 H 0.98391 0.54817 0.77299 0.0
H407 H 0.98949 0.55495 0.70011 0.0
H408 H 0.04523 0.50409 0.69886 0.0
H409 H 0.04858 0.50467 0.77163 0.0
C410 C 0.01582 0.52558 0.79283 0.0
C411 C 0.06594 0.56805 0.73524 0.0
C412 C 0.96866 0.48727 0.7364 0.0
C413 C 0.01765 0.53046 0.67901 0.0
H414 H 0.07998 0.57638 0.78145 0.0
H415 H 0.05247 0.55335 0.81323 0.0
H416 H 0.9786 0.49594 0.81411 0.0
H417 H 0.9527 0.4752 0.78296 0.0
H418 H 0.95397 0.47952 0.69 0.0
H419 H 0.98024 0.50343 0.65852 0.0
H420 H 0.05616 0.559 0.65757 0.0
H421 H 0.08222 0.57974 0.68854 0.0
H422 H 0.07569 0.47708 0.69815 0.0
H423 H 0.07884 0.47781 0.77199 0.0
H424 H 0.95921 0.58205 0.70079 0.0
H425 H 0.95394 0.57508 0.77475 0.0
C426 C 0.2833 0.99319 0.55801 0.0
C427 C 0.30805 0.98711 0.56544 0.0
C428 C 0.32736 0.99915 0.55374 0.0
C429 C 0.31343 0.01178 0.53977 0.0
N430 N 0.28631 1.00872 0.542 0.0
Co431 Co 0.25861 0.02295 0.52379 0.0
N432 N 0.28719 0.03967 0.50538 0.0
C433 C 0.3142 0.03901 0.50738 0.0
C434 C 0.32875 0.0528 0.49316 0.0
C435 C 0.30994 0.0631 0.48154 0.0
C436 C 0.28487 0.0549 0.48932 0.0
N437 N 0.23089 0.03707 0.50553 0.0
C438 C 0.23391 0.05246 0.48937 0.0
C439 C 0.20926 0.05795 0.48114 0.0
C440 C 0.18992 0.0459 0.49281 0.0
C441 C 0.2038 0.03372 0.50737 0.0
N442 N 0.23001 1.00636 0.54226 0.0
C443 C 0.20299 1.00734 0.54062 0.0
C444 C 0.18841 0.99404 0.5554 0.0
C445 C 0.2072 0.98372 0.56701 0.0
C446 C 0.23229 0.99127 0.55848 0.0
N447 N 0.25757 0.04439 0.54679 0.0
C448 C 0.25619 0.07695 0.57668 0.0
C449 C 0.23243 0.06765 0.569 0.0
C450 C 0.23356 0.05156 0.55427 0.0
C451 C 0.28063 0.0692 0.56961 0.0
C452 C 0.28085 0.05305 0.55488 0.0
N453 N 0.25965 1.00156 0.50074 0.0
C454 C 0.23674 0.97674 0.47783 0.0
C455 C 0.26128 0.97024 0.4692 0.0
C456 C 0.28497 0.97986 0.47658 0.0
C457 C 0.28371 0.9953 0.49216 0.0
C458 C 0.23639 0.99228 0.49337 0.0
H459 H 0.30252 1.00181 0.49715 0.0
H460 H 0.21702 0.99648 0.49922 0.0
H461 H 0.21472 0.04534 0.54897 0.0
H462 H 0.30016 0.04808 0.54999 0.0
C463 C 0.32524 0.02591 0.52354 0.0
C464 C 0.25758 0.98313 0.56583 0.0
C465 C 0.2595 0.06275 0.48177 0.0
C466 C 0.19193 0.02002 0.52402 0.0
H467 H 0.31188 0.97492 0.57766 0.0
H468 H 0.34901 0.99841 0.55481 0.0
H469 H 0.35045 0.0554 0.49183 0.0
H470 H 0.31422 0.07554 0.46912 0.0
H471 H 0.20561 0.06971 0.46832 0.0
H472 H 0.16829 0.04632 0.49131 0.0
H473 H 0.16669 0.99177 0.55714 0.0
H474 H 0.20293 0.97173 0.58 0.0
H475 H 0.21289 0.07272 0.57432 0.0
H476 H 0.29967 0.07586 0.57489 0.0
H477 H 0.21775 0.97005 0.47244 0.0
H478 H 0.30456 0.97529 0.47069 0.0
C479 C 0.48056 0.80114 0.06121 0.0
C480 C 0.47221 0.81956 0.06845 0.0
C481 C 0.48712 0.83417 0.05585 0.0
C482 C 0.50358 0.82391 0.04165 0.0
N483 N 0.49997 0.80359 0.04422 0.0
Co484 Co 0.52016 0.78297 0.02729 0.0
N485 N 0.54264 0.80453 0.00924 0.0
C486 C 0.54149 0.82474 0.01094 0.0
C487 C 0.55892 0.83576 0.99598 0.0
C488 C 0.57177 0.8218 0.98376 0.0
C489 C 0.56131 0.80298 0.99195 0.0
N490 N 0.54051 0.76238 0.01046 0.0
C491 C 0.55955 0.76482 0.99317 0.0
C492 C 0.56784 0.74639 0.98591 0.0
C493 C 0.55348 0.7318 0.99897 0.0
C494 C 0.53725 0.74207 0.01335 0.0
N495 N 0.49751 0.76142 0.04519 0.0
C496 C 0.49881 0.74123 0.04355 0.0
C497 C 0.4812 0.73016 0.0583 0.0
C498 C 0.4679 0.74409 0.07021 0.0
C499 C 0.47815 0.76296 0.06194 0.0
N500 N 0.4932 0.78326 1.00264 0.0
C501 C 0.4582 0.78412 0.96522 0.0
C502 C 0.46595 0.76581 0.97509 0.0
C503 C 0.48331 0.76573 0.99364 0.0
C504 C 0.46756 0.80191 0.97497 0.0
C505 C 0.48477 0.80114 0.99349 0.0
N506 N 0.54721 0.78272 0.05192 0.0
C507 C 0.57358 0.76461 0.07966 0.0
C508 C 0.58428 0.78268 0.08793 0.0
C509 C 0.57621 0.80073 0.07769 0.0
C510 C 0.55792 0.8004 0.05992 0.0
C511 C 0.55531 0.76497 0.06177 0.0
H512 H 0.55259 0.81471 0.05312 0.0
H513 H 0.54797 0.75069 0.05628 0.0
H514 H 0.48878 0.75131 1.00017 0.0
H515 H 0.49122 0.81526 0.99992 0.0
C516 C 0.52304 0.83292 0.02609 0.0
C517 C 0.46953 0.7818 0.07116 0.0
C518 C 0.56942 0.78415 0.98238 0.0
C519 C 0.5176 0.73309 0.02871 0.0
H520 H 0.45704 0.82216 0.0816 0.0
H521 H 0.48625 0.85034 0.05708 0.0
H522 H 0.5616 0.85202 0.99392 0.0
H523 H 0.58689 0.82509 0.97013 0.0
H524 H 0.58233 0.74373 0.97223 0.0
H525 H 0.55424 0.71562 0.99769 0.0
H526 H 0.47871 0.7139 0.06046 0.0
H527 H 0.45269 0.74071 0.08374 0.0
H528 H 0.45929 0.75159 0.96817 0.0
H529 H 0.46166 0.81648 0.96834 0.0
H530 H 0.57941 0.75019 0.08678 0.0
H531 H 0.58354 0.81517 0.08362 0.0
C532 C 0.81255 0.99663 0.56877 0.0
C533 C 0.83723 0.99066 0.5765 0.0
C534 C 0.85663 1.0026 0.56475 0.0
C535 C 0.84279 0.01508 0.55052 0.0
N536 N 0.81567 0.01203 0.55262 0.0
Co537 Co 0.78807 0.0263 0.53435 0.0
N538 N 0.81676 0.0429 0.51598 0.0
C539 C 0.84376 0.04194 0.51775 0.0
C540 C 0.85842 0.05542 0.50321 0.0
C541 C 0.83968 0.06582 0.49163 0.0
C542 C 0.81456 0.05811 0.49989 0.0
N543 N 0.76046 0.04057 0.51607 0.0
C544 C 0.76359 0.056 0.49994 0.0
C545 C 0.73892 0.06197 0.49221 0.0
C546 C 0.71952 0.05001 0.50392 0.0
C547 C 0.73333 0.03751 0.51814 0.0
N548 N 0.75937 1.00969 0.55272 0.0
C549 C 0.73236 0.01062 0.55092 0.0
C550 C 0.71772 0.99709 0.56541 0.0
C551 C 0.73647 0.98668 0.57698 0.0
C552 C 0.76158 0.99446 0.56878 0.0
N553 N 0.78711 0.04766 0.55742 0.0
C554 C 0.7856 0.07892 0.589 0.0
C555 C 0.76187 0.0697 0.58119 0.0
C556 C 0.76308 0.05429 0.56559 0.0
C557 C 0.81012 0.07208 0.58078 0.0
C558 C 0.81041 0.05655 0.56522 0.0
N559 N 0.78901 1.00489 0.51133 0.0
C560 C 0.76567 0.97972 0.48922 0.0
C561 C 0.79006 0.97234 0.48148 0.0
C562 C 0.81394 0.98198 0.48842 0.0
C563 C 0.81296 0.99804 0.50322 0.0
C564 C 0.76561 0.9959 0.50386 0.0
H565 H 0.83187 1.00446 0.50814 0.0
H566 H 0.74634 1.0007 0.5091 0.0
H567 H 0.74424 0.04812 0.56025 0.0
H568 H 0.82976 0.05203 0.55971 0.0
C569 C 0.85472 0.02896 0.53408 0.0
C570 C 0.78685 0.98651 0.57643 0.0
C571 C 0.78931 0.06613 0.49231 0.0
C572 C 0.72139 0.02361 0.53459 0.0
H573 H 0.84092 0.97861 0.58894 0.0
H574 H 0.87826 1.00188 0.56597 0.0
H575 H 0.88014 0.0577 0.50159 0.0
H576 H 0.84399 0.07794 0.4788 0.0
H577 H 0.73525 0.07404 0.47978 0.0
H578 H 0.69788 0.05074 0.5027 0.0
H579 H 0.696 0.99476 0.56699 0.0
H580 H 0.73218 0.97451 0.58975 0.0
H581 H 0.74231 0.07457 0.58674 0.0
H582 H 0.8291 0.0785 0.58651 0.0
H583 H 0.74659 0.97308 0.48398 0.0
H584 H 0.83338 0.97681 0.483 0.0
C585 C 0.48428 0.28533 0.06705 0.0
C586 C 0.47597 0.30382 0.07406 0.0
C587 C 0.49048 0.3183 0.06095 0.0
C588 C 0.50681 0.3079 0.04677 0.0
N589 N 0.50344 0.28761 0.04984 0.0
Co590 Co 0.52377 0.26684 0.03331 0.0
N591 N 0.54683 0.28821 0.01556 0.0
C592 C 0.54616 0.30842 0.01748 0.0
C593 C 0.56438 0.31932 1.00311 0.0
C594 C 0.57735 0.30527 0.99112 0.0
C595 C 0.5661 0.28653 0.99879 0.0
N596 N 0.54383 0.24606 0.01654 0.0
C597 C 0.5631 0.24835 0.9994 0.0
C598 C 0.57063 0.22985 0.99176 0.0
C599 C 0.55561 0.21537 1.00444 0.0
C600 C 0.53971 0.22576 0.01896 0.0
N601 N 0.501 0.24546 0.05136 0.0
C602 C 0.50203 0.22523 0.04983 0.0
C603 C 0.48456 0.21434 0.06487 0.0
C604 C 0.47184 0.22843 0.07701 0.0
C605 C 0.4824 0.24717 0.06867 0.0
N606 N 0.497 0.26723 0.00844 0.0
C607 C 0.46108 0.26756 0.9716 0.0
C608 C 0.46751 0.24947 0.98281 0.0
C609 C 0.48533 0.24965 1.00096 0.0
C610 C 0.47264 0.28552 0.97943 0.0
C611 C 0.49024 0.28502 0.99778 0.0
N612 N 0.55049 0.26643 0.05817 0.0
C613 C 0.57638 0.24768 0.08561 0.0
C614 C 0.58556 0.26542 0.09557 0.0
C615 C 0.57744 0.28374 0.08603 0.0
C616 C 0.56004 0.2839 0.06752 0.0
C617 C 0.55914 0.24852 0.06708 0.0
H618 H 0.5543 0.29832 0.06129 0.0
H619 H 0.55287 0.23443 0.06042 0.0
H620 H 0.48957 0.23532 0.00844 0.0
H621 H 0.49826 0.29924 1.00292 0.0
C622 C 0.52704 0.31673 0.03187 0.0
C623 C 0.47452 0.26609 0.07814 0.0
C624 C 0.57398 0.26765 0.98917 0.0
C625 C 0.52023 0.21692 0.03459 0.0
H626 H 0.46145 0.3066 0.08767 0.0
H627 H 0.48988 0.3345 0.06217 0.0
H628 H 0.56746 0.33557 1.00124 0.0
H629 H 0.59303 0.30848 0.97795 0.0
H630 H 0.58511 0.22707 0.97813 0.0
H631 H 0.55586 0.19919 1.00293 0.0
H632 H 0.48174 0.19809 0.06703 0.0
H633 H 0.45674 0.22527 0.09069 0.0
H634 H 0.45934 0.23511 0.97728 0.0
H635 H 0.468 0.29996 0.97157 0.0
H636 H 0.58251 0.2331 0.09201 0.0
H637 H 0.58386 0.29792 0.09316 0.0
H638 H 0.15427 0.35569 0.27979 0.0
H639 H 0.12655 0.45501 0.34893 0.0
H640 H 0.20246 0.37485 0.33613 0.0
H641 H 0.08297 0.43709 0.28947 0.0
H642 H 0.15288 0.42487 0.34626 0.0
H643 H 0.12641 0.38451 0.28476 0.0
C644 C 0.15906 0.36597 0.2932 0.0
C645 C 0.18097 0.36286 0.30742 0.0
C646 C 0.13754 0.42755 0.33381 0.0
C647 C 0.14882 0.39601 0.31336 0.0
C648 C 0.1224 0.44472 0.33539 0.0
C649 C 0.10258 0.44873 0.3193 0.0
C650 C 0.13275 0.41419 0.3161 0.0
C651 C 0.09832 0.43488 0.30201 0.0
C652 C 0.14303 0.38243 0.2961 0.0
C653 C 0.18572 0.37653 0.32485 0.0
N654 N 0.11324 0.4183 0.30088 0.0
N655 N 0.16988 0.39254 0.32724 0.0
H656 H 0.12715 0.69063 0.75388 0.0
H657 H 0.11965 0.57371 0.72347 0.0
H658 H 0.19587 0.65939 0.72945 0.0
H659 H 0.05113 0.60531 0.74709 0.0
H660 H 0.14778 0.60515 0.72441 0.0
H661 H 0.09881 0.65983 0.75041 0.0
C662 C 0.13631 0.6773 0.74779 0.0
C663 C 0.16403 0.67765 0.74206 0.0
C664 C 0.12658 0.60527 0.72931 0.0
C665 C 0.13154 0.64222 0.73792 0.0
C666 C 0.1106 0.58736 0.72875 0.0
C667 C 0.08315 0.58708 0.73514 0.0
C668 C 0.115 0.62299 0.73643 0.0
C669 C 0.07226 0.60503 0.742 0.0
C670 C 0.12007 0.65971 0.74572 0.0
C671 C 0.1746 0.65994 0.73388 0.0
N672 N 0.08821 0.62225 0.7425 0.0
N673 N 0.1584 0.64296 0.73217 0.0
H674 H 0.84622 0.66117 0.28446 0.0
H675 H 0.96655 0.60902 0.34934 0.0
H676 H 0.88943 0.68925 0.33885 0.0
H677 H 0.9209 0.5815 0.29596 0.0
H678 H 0.93774 0.6379 0.34714 0.0
H679 H 0.87279 0.63153 0.28951 0.0
C680 C 0.8614 0.66115 0.29743 0.0
C681 C 0.86575 0.67789 0.31107 0.0
C682 C 0.93399 0.62551 0.33597 0.0
C683 C 0.89627 0.64367 0.31715 0.0
C684 C 0.95034 0.60893 0.3373 0.0
C685 C 0.94632 0.59278 0.32271 0.0
C686 C 0.9134 0.62598 0.31994 0.0
C687 C 0.92515 0.5937 0.30727 0.0
C688 C 0.8765 0.64412 0.30041 0.0
C689 C 0.8853 0.6767 0.32798 0.0
N690 N 0.90962 0.60999 0.30627 0.0
N691 N 0.89994 0.65995 0.33045 0.0
H692 H 0.84722 0.39101 0.71832 0.0
H693 H 0.98518 0.45008 0.74944 0.0
H694 H 0.91078 0.36295 0.75487 0.0
H695 H 0.91626 0.48001 0.72428 0.0
H696 H 0.95902 0.41769 0.74994 0.0
H697 H 0.87295 0.42341 0.71849 0.0
C698 C 0.86663 0.39164 0.72632 0.0
C699 C 0.87683 0.37418 0.73659 0.0
C700 C 0.94957 0.43131 0.7443 0.0
C701 C 0.90643 0.41132 0.7369 0.0
C702 C 0.96449 0.44974 0.744 0.0
C703 C 0.95283 0.46759 0.73664 0.0
C704 C 0.92278 0.43073 0.7371 0.0
C705 C 0.92597 0.46648 0.72986 0.0
C706 C 0.88125 0.41018 0.72653 0.0
C707 C 0.90197 0.37601 0.74696 0.0
N708 N 0.91187 0.44835 0.73014 0.0
N709 N 0.91592 0.39419 0.74676 0.0
H710 H 0.24285 0.18621 0.43171 0.0
H711 H 0.27341 0.0685 0.43596 0.0
H712 H 0.26619 0.15441 0.37164 0.0
H713 H 0.24529 0.09985 0.49464 0.0
H714 H 0.27247 0.1 0.41221 0.0
H715 H 0.24501 0.15498 0.45512 0.0
C716 C 0.24831 0.17266 0.42337 0.0
C717 C 0.25419 0.17302 0.39955 0.0
C718 C 0.26655 0.10003 0.43028 0.0
C719 C 0.25705 0.13706 0.42649 0.0
C720 C 0.26713 0.0821 0.44377 0.0
C721 C 0.25952 0.08175 0.46719 0.0
C722 C 0.25825 0.11771 0.44032 0.0
C723 C 0.25137 0.09963 0.47661 0.0
C724 C 0.24968 0.15481 0.43682 0.0
C725 C 0.26172 0.15497 0.38993 0.0
N726 N 0.25096 0.11689 0.46317 0.0
N727 N 0.26286 0.13776 0.40339 0.0
H728 H 0.33317 0.76592 0.86511 0.0
H729 H 0.46345 0.81046 0.92762 0.0
H730 H 0.38596 0.81504 0.83687 0.0
H731 H 0.41404 0.75938 0.9556 0.0
H732 H 0.43491 0.81213 0.89433 0.0
H733 H 0.36238 0.7628 0.89814 0.0
C734 C 0.35095 0.77598 0.86575 0.0
C735 C 0.35694 0.79087 0.84816 0.0
C736 C 0.43026 0.80053 0.90771 0.0
C737 C 0.39037 0.78747 0.8861 0.0
C738 C 0.44648 0.79964 0.92685 0.0
C739 C 0.44107 0.78485 0.94461 0.0
C740 C 0.40829 0.78654 0.90616 0.0
C741 C 0.4191 0.77097 0.9423 0.0
C742 C 0.36755 0.77424 0.8847 0.0
C743 C 0.38015 0.80359 0.85015 0.0
N744 N 0.40346 0.77221 0.9235 0.0
N745 N 0.39591 0.80162 0.86872 0.0
H746 H 0.82484 0.88724 0.37603 0.0
H747 H 0.75762 0.9376 0.48533 0.0
H748 H 0.76711 0.85568 0.42338 0.0
H749 H 0.82357 0.96627 0.44404 0.0
H750 H 0.75879 0.90836 0.46128 0.0
H751 H 0.82258 0.91714 0.3991 0.0
C752 C 0.81153 0.88663 0.39118 0.0
C753 C 0.79616 0.86886 0.39776 0.0
C754 C 0.77301 0.92104 0.45745 0.0
C755 C 0.79361 0.90308 0.42439 0.0
C756 C 0.77224 0.93783 0.4711 0.0
C757 C 0.7905 0.9545 0.46673 0.0
C758 C 0.79209 0.92085 0.43912 0.0
C759 C 0.80928 0.95371 0.44823 0.0
C760 C 0.8104 0.90368 0.40444 0.0
C761 C 0.77957 0.86892 0.41777 0.0
N762 N 0.80954 0.93722 0.4351 0.0
N763 N 0.7787 0.88573 0.43032 0.0
H764 H 0.71077 0.26111 0.8935 0.0
H765 H 0.563 0.28025 0.94541 0.0
H766 H 0.64894 0.28878 0.85436 0.0
H767 H 0.62629 0.25655 0.98593 0.0
H768 H 0.59354 0.28191 0.91131 0.0
H769 H 0.67943 0.25737 0.92688 0.0
C770 C 0.69053 0.26622 0.89183 0.0
C771 C 0.68256 0.27533 0.87105 0.0
C772 C 0.60079 0.27629 0.92761 0.0
C773 C 0.64658 0.27129 0.90937 0.0
C774 C 0.58337 0.27535 0.94701 0.0
C775 C 0.59225 0.26821 0.96834 0.0
C776 C 0.62731 0.27004 0.92959 0.0
C777 C 0.61877 0.26206 0.96968 0.0
C778 C 0.67269 0.26421 0.91097 0.0
C779 C 0.65614 0.28193 0.87008 0.0
N780 N 0.63539 0.26311 0.95056 0.0
N781 N 0.63916 0.2798 0.88893 0.0
H782 H 0.27209 0.8917 0.67583 0.0
H783 H 0.24117 0.94535 0.55387 0.0
H784 H 0.22871 0.86193 0.6226 0.0
H785 H 0.27215 0.97779 0.61073 0.0
H786 H 0.23911 0.91408 0.57808 0.0
H787 H 0.27471 0.92287 0.65172 0.0
C788 C 0.26299 0.89167 0.65915 0.0
C789 C 0.25014 0.87401 0.65134 0.0
C790 C 0.24642 0.928 0.5853 0.0
C791 C 0.25347 0.90975 0.62341 0.0
C792 C 0.24762 0.94579 0.57148 0.0
C793 C 0.25697 0.96403 0.58036 0.0
C794 C 0.25472 0.92844 0.60819 0.0
C795 C 0.26501 0.96393 0.60327 0.0
C796 C 0.26463 0.9095 0.64532 0.0
C797 C 0.23921 0.87497 0.62931 0.0
N798 N 0.26376 0.9464 0.6164 0.0
N799 N 0.24113 0.89247 0.61618 0.0
H800 H 0.66394 0.76181 0.21742 0.0
H801 H 0.62883 0.80813 0.09291 0.0
H802 H 0.70427 0.81524 0.18509 0.0
H803 H 0.58351 0.75768 0.12705 0.0
H804 H 0.65844 0.80949 0.12556 0.0
H805 H 0.63639 0.75845 0.18346 0.0
C806 C 0.66718 0.77274 0.20312 0.0
C807 C 0.68641 0.7889 0.20421 0.0
C808 C 0.64207 0.79808 0.12592 0.0
C809 C 0.65474 0.78522 0.16529 0.0
C810 C 0.62502 0.79735 0.10729 0.0
C811 C 0.60342 0.78287 0.10722 0.0
C812 C 0.63762 0.78422 0.14475 0.0
C813 C 0.59998 0.76902 0.1262 0.0
C814 C 0.65131 0.77088 0.18378 0.0
C815 C 0.68944 0.80272 0.18522 0.0
N816 N 0.61679 0.7701 0.14421 0.0
N817 N 0.67379 0.80058 0.16661 0.0
H818 H 0.81063 0.19083 0.66033 0.0
H819 H 0.75066 0.08212 0.62607 0.0
H820 H 0.7441 0.15794 0.69677 0.0
H821 H 0.8183 0.11367 0.58971 0.0
H822 H 0.7484 0.10981 0.6522 0.0
H823 H 0.81449 0.16272 0.63467 0.0
C824 C 0.79691 0.1777 0.66304 0.0
C825 C 0.77688 0.1769 0.68074 0.0
C826 C 0.76378 0.1107 0.63853 0.0
C827 C 0.78109 0.14465 0.65123 0.0
C828 C 0.76499 0.0949 0.62348 0.0
C829 C 0.78462 0.09552 0.60551 0.0
C830 C 0.78229 0.12739 0.63569 0.0
C831 C 0.80297 0.11239 0.6034 0.0
C832 C 0.79905 0.16168 0.64829 0.0
C833 C 0.75953 0.15949 0.68317 0.0
N834 N 0.8013 0.12766 0.61823 0.0
N835 N 0.76202 0.14415 0.66862 0.0
H836 H 0.34246 0.2679 0.17942 0.0
H837 H 0.48947 0.25622 0.12164 0.0
H838 H 0.41141 0.25029 0.21746 0.0
H839 H 0.42138 0.27468 0.08337 0.0
H840 H 0.46126 0.25464 0.15714 0.0
H841 H 0.37107 0.27149 0.14433 0.0
C842 C 0.36365 0.26495 0.18047 0.0
C843 C 0.37445 0.2587 0.2015 0.0
C844 C 0.45243 0.25911 0.14103 0.0
C845 C 0.40733 0.26256 0.16121 0.0
C846 C 0.46853 0.26 0.12084 0.0
C847 C 0.45763 0.26565 0.09976 0.0
C848 C 0.42518 0.26384 0.14008 0.0
C849 C 0.43044 0.27035 0.09942 0.0
C850 C 0.37995 0.26688 0.16037 0.0
C851 C 0.40202 0.25482 0.20164 0.0
N852 N 0.4151 0.26932 0.1193 0.0
N853 N 0.41744 0.25678 0.18185 0.0
H854 H 0.88124 0.69757 0.72314 0.0
H855 H 0.90901 0.58418 0.76594 0.0
H856 H 0.83481 0.66387 0.77714 0.0
H857 H 0.95697 0.61704 0.71225 0.0
H858 H 0.88071 0.61298 0.76904 0.0
H859 H 0.90799 0.66801 0.71744 0.0
C860 C 0.87653 0.68395 0.7337 0.0
C861 C 0.85582 0.68334 0.7508 0.0
C862 C 0.89737 0.61392 0.75652 0.0
C863 C 0.88653 0.64943 0.74445 0.0
C864 C 0.91367 0.59747 0.75481 0.0
C865 C 0.93561 0.59816 0.73892 0.0
C866 C 0.90295 0.63136 0.74227 0.0
C867 C 0.94019 0.61572 0.72464 0.0
C868 C 0.89191 0.6671 0.73051 0.0
C869 C 0.85086 0.66526 0.76407 0.0
N870 N 0.92412 0.63163 0.72673 0.0
N871 N 0.86609 0.64913 0.76065 0.0
H872 H 0.90713 0.35956 0.33286 0.0
H873 H 0.92351 0.47981 0.3102 0.0
H874 H 0.84551 0.39547 0.30362 0.0
H875 H 0.98725 0.44379 0.33487 0.0
H876 H 0.8938 0.44918 0.30948 0.0
H877 H 0.93609 0.39023 0.33532 0.0
C878 C 0.89966 0.37385 0.32691 0.0
C879 C 0.87373 0.37482 0.318 0.0
C880 C 0.91426 0.44792 0.31509 0.0
C881 C 0.90684 0.41014 0.32099 0.0
C882 C 0.93114 0.46538 0.31549 0.0
C883 C 0.95777 0.46418 0.32247 0.0
C884 C 0.92409 0.42911 0.3218 0.0
C885 C 0.96679 0.44523 0.32932 0.0
C886 C 0.9162 0.3914 0.32843 0.0
C887 C 0.86512 0.39391 0.31092 0.0
N888 N 0.95001 0.42843 0.32877 0.0
N889 N 0.88161 0.41073 0.31252 0.0
H890 H 0.15526 0.36084 0.71578 0.0
H891 H 0.12451 0.47014 0.76102 0.0
H892 H 0.203 0.392 0.76526 0.0
H893 H 0.07765 0.441 0.7095 0.0
H894 H 0.15352 0.44156 0.76239 0.0
H895 H 0.12656 0.3898 0.71298 0.0
C896 C 0.15971 0.37372 0.72608 0.0
C897 C 0.18172 0.37394 0.74072 0.0
C898 C 0.13694 0.44139 0.75073 0.0
C899 C 0.14898 0.40723 0.73749 0.0
C900 C 0.12025 0.4577 0.75002 0.0
C901 C 0.09845 0.458 0.7352 0.0
C902 C 0.13188 0.42507 0.73658 0.0
C903 C 0.09432 0.44154 0.72105 0.0
C904 C 0.14339 0.39031 0.72438 0.0
C905 C 0.1866 0.3912 0.75345 0.0
N906 N 0.11077 0.42573 0.72217 0.0
N907 N 0.17038 0.40705 0.75157 0.0
H908 H 0.12962 0.68569 0.34574 0.0
H909 H 0.12747 0.57094 0.30775 0.0
H910 H 0.19254 0.66214 0.30327 0.0
H911 H 0.05871 0.59796 0.33829 0.0
H912 H 0.15307 0.60355 0.30835 0.0
H913 H 0.10463 0.65312 0.3454 0.0
C914 C 0.13818 0.67376 0.3362 0.0
C915 C 0.16331 0.67685 0.32443 0.0
C916 C 0.13237 0.60239 0.31489 0.0
C917 C 0.1348 0.63919 0.32435 0.0
C918 C 0.11782 0.58382 0.31452 0.0
C919 C 0.09095 0.58194 0.32276 0.0
C920 C 0.12002 0.61913 0.32382 0.0
C921 C 0.07937 0.59892 0.33167 0.0
C922 C 0.12391 0.65508 0.33614 0.0
C923 C 0.17348 0.66051 0.31286 0.0
N924 N 0.09395 0.6168 0.33197 0.0
N925 N 0.15923 0.64244 0.31312 0.0
H926 H 0.79758 0.89715 0.68905 0.0
H927 H 0.77503 0.94812 0.56378 0.0
H928 H 0.77935 0.86317 0.62937 0.0
H929 H 0.79745 0.98207 0.62225 0.0
H930 H 0.77485 0.91686 0.58794 0.0
H931 H 0.79577 0.92842 0.66544 0.0
C932 C 0.793 0.89624 0.67103 0.0
C933 C 0.78867 0.87741 0.66123 0.0
C934 C 0.77981 0.93111 0.59555 0.0
C935 C 0.7868 0.91329 0.63396 0.0
C936 C 0.77988 0.9489 0.58177 0.0
C937 C 0.78639 0.96754 0.59112 0.0
C938 C 0.78622 0.932 0.6189 0.0
C939 C 0.79246 0.9679 0.61448 0.0
C940 C 0.79213 0.91413 0.65751 0.0
C941 C 0.7832 0.87726 0.63766 0.0
N942 N 0.79227 0.95039 0.62758 0.0
N943 N 0.78242 0.89487 0.62488 0.0
H944 H 0.65637 0.23281 0.22543 0.0
H945 H 0.62933 0.29055 0.105 0.0
H946 H 0.7089 0.28156 0.19597 0.0
H947 H 0.58144 0.23869 0.13294 0.0
H948 H 0.65758 0.28872 0.13877 0.0
H949 H 0.62785 0.23581 0.19223 0.0
C950 C 0.66205 0.24409 0.21192 0.0
C951 C 0.68531 0.25683 0.21351 0.0
C952 C 0.64089 0.27774 0.13749 0.0
C953 C 0.65229 0.26055 0.17534 0.0
C954 C 0.62466 0.27884 0.11826 0.0
C955 C 0.60299 0.26469 0.11601 0.0
C956 C 0.63538 0.26246 0.15471 0.0
C957 C 0.59814 0.24973 0.13368 0.0
C958 C 0.64561 0.24588 0.19298 0.0
C959 C 0.69112 0.2715 0.19563 0.0
N960 N 0.61414 0.24903 0.15222 0.0
N961 N 0.67479 0.27291 0.17729 0.0
H962 H 0.21594 0.18898 0.63795 0.0
H963 H 0.2887 0.08665 0.61267 0.0
H964 H 0.2862 0.17035 0.67349 0.0
H965 H 0.22209 0.10832 0.57435 0.0
H966 H 0.28749 0.11648 0.63592 0.0
H967 H 0.21722 0.15888 0.61547 0.0
C968 C 0.23178 0.17865 0.64097 0.0
C969 C 0.25112 0.18241 0.65762 0.0
C970 C 0.27312 0.11467 0.62245 0.0
C971 C 0.25246 0.1475 0.63196 0.0
C972 C 0.27387 0.09767 0.60905 0.0
C973 C 0.25545 0.09484 0.59144 0.0
C974 C 0.25381 0.12905 0.61827 0.0
C975 C 0.23645 0.10958 0.5879 0.0
C976 C 0.23239 0.16134 0.62818 0.0
C977 C 0.27072 0.16808 0.66103 0.0
N978 N 0.23616 0.12598 0.60113 0.0
N979 N 0.27093 0.15133 0.6483 0.0
H980 H 0.32533 0.76572 0.15904 0.0
H981 H 0.479 0.79011 0.11584 0.0
H982 H 0.38914 0.78125 0.20481 0.0
H983 H 0.41539 0.77233 0.07116 0.0
H984 H 0.44622 0.78848 0.1485 0.0
H985 H 0.3577 0.76954 0.12654 0.0
C986 C 0.34617 0.76989 0.1623 0.0
C987 C 0.35449 0.773 0.18481 0.0
C988 C 0.43937 0.78497 0.13157 0.0
C989 C 0.3918 0.7776 0.14743 0.0
C990 C 0.45805 0.78592 0.11301 0.0
C991 C 0.44974 0.78128 0.09096 0.0
C992 C 0.41218 0.77935 0.128 0.0
C993 C 0.42247 0.77594 0.08799 0.0
C994 C 0.36466 0.77216 0.14367 0.0
C995 C 0.38171 0.77882 0.18779 0.0
N996 N 0.40466 0.77508 0.1063 0.0
N997 N 0.39939 0.78083 0.16936 0.0
H998 H 0.78631 0.1562 0.37938 0.0
H999 H 0.8023 0.10424 0.5052 0.0
H1000 H 0.80827 0.1891 0.439 0.0
H1001 H 0.7781 0.0711 0.44661 0.0
H1002 H 0.80433 0.13557 0.4811 0.0
H1003 H 0.78252 0.12502 0.40353 0.0
C1004 C 0.79017 0.15693 0.39755 0.0
C1005 C 0.79774 0.1754 0.40707 0.0
C1006 C 0.79848 0.12149 0.47346 0.0
C1007 C 0.79369 0.13958 0.43486 0.0
C1008 C 0.79733 0.10366 0.48722 0.0
C1009 C 0.78991 0.08522 0.47781 0.0
C1010 C 0.79225 0.12085 0.45005 0.0
C1011 C 0.78376 0.08512 0.45444 0.0
C1012 C 0.78815 0.13907 0.41133 0.0
C1013 C 0.80283 0.17525 0.43073 0.0
N1014 N 0.78508 0.10267 0.44134 0.0
N1015 N 0.80074 0.15768 0.44374 0.0
H1016 H 0.39284 0.28498 0.83687 0.0
H1017 H 0.41444 0.24438 0.96648 0.0
H1018 H 0.3368 0.24317 0.87468 0.0
H1019 H 0.4662 0.29067 0.93118 0.0
H1020 H 0.38591 0.24362 0.93298 0.0
H1021 H 0.42008 0.28717 0.8711 0.0
C1022 C 0.38627 0.27622 0.85236 0.0
C1023 C 0.36248 0.26382 0.85282 0.0
C1024 C 0.40345 0.25401 0.93257 0.0
C1025 C 0.3936 0.26633 0.89221 0.0
C1026 C 0.41985 0.25437 0.95167 0.0
C1027 C 0.44286 0.26756 0.95167 0.0
C1028 C 0.41011 0.26684 0.91317 0.0
C1029 C 0.44856 0.28038 0.93208 0.0
C1030 C 0.40177 0.27757 0.87195 0.0
C1031 C 0.35481 0.25308 0.87353 0.0
N1032 N 0.43241 0.27962 0.91361 0.0
N1033 N 0.37037 0.2545 0.89231 0.0
H1034 H 0.23216 0.86028 0.39501 0.0
H1035 H 0.29581 0.9672 0.43175 0.0
H1036 H 0.30007 0.89224 0.3595 0.0
H1037 H 0.2289 0.9353 0.46877 0.0
H1038 H 0.2975 0.93975 0.40524 0.0
H1039 H 0.23059 0.88731 0.42233 0.0
C1040 C 0.24683 0.8729 0.39298 0.0
C1041 C 0.2662 0.87394 0.37477 0.0
C1042 C 0.28243 0.93872 0.41915 0.0
C1043 C 0.26434 0.90512 0.40596 0.0
C1044 C 0.28155 0.95438 0.43443 0.0
C1045 C 0.26222 0.95364 0.45266 0.0
C1046 C 0.26387 0.92205 0.422 0.0
C1047 C 0.24396 0.93672 0.45486 0.0
C1048 C 0.24582 0.8884 0.40854 0.0
C1049 C 0.28446 0.89086 0.37295 0.0
N1050 N 0.24526 0.92163 0.43978 0.0
N1051 N 0.28307 0.90571 0.38828 0.0
H1052 H 0.632 0.80011 0.8417 0.0
H1053 H 0.62263 0.77557 0.97819 0.0
H1054 H 0.70022 0.78354 0.88129 0.0
H1055 H 0.55575 0.79428 0.93853 0.0
H1056 H 0.65121 0.77722 0.9428 0.0
H1057 H 0.60357 0.79692 0.87678 0.0
C1058 C 0.64107 0.79586 0.85778 0.0
C1059 C 0.66867 0.79223 0.85848 0.0
C1060 C 0.63028 0.78093 0.94179 0.0
C1061 C 0.63599 0.78835 0.89889 0.0
C1062 C 0.61404 0.77996 0.96194 0.0
C1063 C 0.58692 0.78474 0.96108 0.0
C1064 C 0.61926 0.78676 0.92067 0.0
C1065 C 0.57662 0.79046 0.93976 0.0
C1066 C 0.62475 0.79394 0.87783 0.0
C1067 C 0.67905 0.78634 0.87983 0.0
N1068 N 0.59279 0.79131 0.92039 0.0
N1069 N 0.66275 0.78467 0.89916 0.0
loop_
_geom_bond_atom_site_label_1
_geom_bond_atom_site_label_2
_geom_bond_distance
_geom_bond_site_symmetry_2
_ccdc_geom_bond_type
C0 C1 1.264 . S
C0 C5 1.479 . S
C0 C10 1.465 . S
C1 C0 1.264 . S
C1 C3 1.339 . S
C1 H28 0.931 . S
C2 C3 1.395 . S
C2 C4 1.320 . S
C3 C1 1.339 . S
C3 C2 1.395 . S
C3 H29 0.929 . S
C4 C2 1.320 . S
C4 C5 1.405 . S
C4 H30 0.930 . S
C5 C0 1.479 . S
C5 C4 1.405 . S
C5 H31 0.931 . S
U6 O7 2.454 . S
U6 O8 2.458 . S
U6 C9 2.984 . S
U6 C10 2.847 . S
U6 C23 2.882 . S
U6 O24 2.441 . S
U6 O25 2.420 . S
U6 O26 2.455 . S
U6 O27 2.449 . S
O7 U6 2.454 . S
O7 C9 1.353 . S
O8 U6 2.458 . S
O8 C9 1.286 . S
C9 U6 2.984 . S
C9 O7 1.353 . S
C9 O8 1.286 . S
C9 C11 1.363 . S
C10 C0 1.465 . S
C10 U6 2.847 . S
C10 O24 1.249 . S
C10 O25 1.202 . S
C11 C9 1.363 . S
C11 C13 1.408 . S
C11 C16 1.342 . S
C12 C13 1.310 . S
C12 C15 1.461 . S
C12 H32 0.932 . S
C13 C11 1.408 . S
C13 C12 1.310 . S
C13 H33 0.930 . S
C14 C15 1.474 . S
C14 C16 1.285 . S
C14 H34 0.929 . S
C15 C12 1.461 . S
C15 C14 1.474 . S
C16 C11 1.342 . S
C16 C14 1.285 . S
C16 H35 0.930 . S
C17 C20 1.424 . S
C17 C22 1.245 . S
C17 C23 1.428 . S
C18 C21 1.260 . S
C18 C22 1.477 . S
C18 H36 0.932 . S
C19 C20 1.384 . S
C19 C21 1.479 . S
C19 H37 0.929 . S
C20 C17 1.424 . S
C20 C19 1.384 . S
C20 H38 0.928 . S
C21 C18 1.260 . S
C21 C19 1.479 . S
C22 C17 1.245 . S
C22 C18 1.477 . S
C22 H39 0.932 . S
C23 U6 2.882 . S
C23 C17 1.428 . S
C23 O26 1.301 . S
C23 O27 1.282 . S
O24 U6 2.441 . S
O24 C10 1.249 . S
O25 U6 2.420 . S
O25 C10 1.202 . S
O26 U6 2.455 . S
O26 C23 1.301 . S
O27 U6 2.449 . S
O27 C23 1.282 . S
H28 C1 0.931 . S
H29 C3 0.929 . S
H30 C4 0.930 . S
H31 C5 0.931 . S
H32 C12 0.932 . S
H33 C13 0.930 . S
H34 C14 0.929 . S
H35 C16 0.930 . S
H36 C18 0.932 . S
H37 C19 0.929 . S
H38 C20 0.928 . S
H39 C22 0.932 . S
C40 C41 1.264 . S
C40 C45 1.479 . S
C40 C50 1.465 . S
C41 C40 1.264 . S
C41 C43 1.339 . S
C41 H68 0.931 . S
C42 C43 1.395 . S
C42 C44 1.320 . S
C43 C41 1.339 . S
C43 C42 1.395 . S
C43 H69 0.929 . S
C44 C42 1.320 . S
C44 C45 1.405 . S
C44 H70 0.930 . S
C45 C40 1.479 . S
C45 C44 1.405 . S
C45 H71 0.931 . S
U46 O47 2.454 . S
U46 O48 2.458 . S
U46 C49 2.984 . S
U46 C50 2.847 . S
U46 C63 2.882 . S
U46 O64 2.441 . S
U46 O65 2.420 . S
U46 O66 2.455 . S
U46 O67 2.449 . S
O47 U46 2.454 . S
O47 C49 1.353 . S
O48 U46 2.458 . S
O48 C49 1.286 . S
C49 U46 2.984 . S
C49 O47 1.353 . S
C49 O48 1.286 . S
C49 C51 1.363 . S
C50 C40 1.465 . S
C50 U46 2.847 . S
C50 O64 1.249 . S
C50 O65 1.202 . S
C51 C49 1.363 . S
C51 C53 1.408 . S
C51 C56 1.342 . S
C52 C53 1.310 . S
C52 C55 1.461 . S
C52 H72 0.932 . S
C53 C51 1.408 . S
C53 C52 1.310 . S
C53 H73 0.930 . S
C54 C55 1.474 . S
C54 C56 1.285 . S
C54 H74 0.929 . S
C55 C52 1.461 . S
C55 C54 1.474 . S
C56 C51 1.342 . S
C56 C54 1.285 . S
C56 H75 0.930 . S
C57 C60 1.424 . S
C57 C62 1.245 . S
C57 C63 1.428 . S
C58 C61 1.260 . S
C58 C62 1.477 . S
C58 H76 0.932 . S
C59 C60 1.384 . S
C59 C61 1.479 . S
C59 H77 0.929 . S
C60 C57 1.424 . S
C60 C59 1.384 . S
C60 H78 0.928 . S
C61 C58 1.260 . S
C61 C59 1.479 . S
C62 C57 1.245 . S
C62 C58 1.477 . S
C62 H79 0.932 . S
C63 U46 2.882 . S
C63 C57 1.428 . S
C63 O66 1.301 . S
C63 O67 1.282 . S
O64 U46 2.441 . S
O64 C50 1.249 . S
O65 U46 2.420 . S
O65 C50 1.202 . S
O66 U46 2.455 . S
O66 C63 1.301 . S
O67 U46 2.449 . S
O67 C63 1.282 . S
H68 C41 0.931 . S
H69 C43 0.929 . S
H70 C44 0.930 . S
H71 C45 0.931 . S
H72 C52 0.932 . S
H73 C53 0.930 . S
H74 C54 0.929 . S
H75 C56 0.930 . S
H76 C58 0.932 . S
H77 C59 0.929 . S
H78 C60 0.928 . S
H79 C62 0.932 . S
C80 C81 1.264 . S
C80 C85 1.479 . S
C80 C90 1.465 . S
C81 C80 1.264 . S
C81 C83 1.339 . S
C81 H108 0.931 . S
C82 C83 1.395 . S
C82 C84 1.320 . S
C83 C81 1.339 . S
C83 C82 1.395 . S
C83 H109 0.929 . S
C84 C82 1.320 . S
C84 C85 1.405 . S
C84 H110 0.930 . S
C85 C80 1.479 . S
C85 C84 1.405 . S
C85 H111 0.931 . S
U86 O87 2.454 . S
U86 O88 2.458 . S
U86 C89 2.984 . S
U86 C90 2.847 . S
U86 C103 2.882 . S
U86 O104 2.441 . S
U86 O105 2.420 . S
U86 O106 2.455 . S
U86 O107 2.449 . S
O87 U86 2.454 . S
O87 C89 1.353 . S
O88 U86 2.458 . S
O88 C89 1.286 . S
C89 U86 2.984 . S
C89 O87 1.353 . S
C89 O88 1.286 . S
C89 C91 1.363 . S
C90 C80 1.465 . S
C90 U86 2.847 . S
C90 O104 1.249 . S
C90 O105 1.202 . S
C91 C89 1.363 . S
C91 C93 1.408 . S
C91 C96 1.342 . S
C92 C93 1.310 . S
C92 C95 1.461 . S
C92 H112 0.932 . S
C93 C91 1.408 . S
C93 C92 1.310 . S
C93 H113 0.930 . S
C94 C95 1.474 . S
C94 C96 1.285 . S
C94 H114 0.929 . S
C95 C92 1.461 . S
C95 C94 1.474 . S
C96 C91 1.342 . S
C96 C94 1.285 . S
C96 H115 0.930 . S
C97 C100 1.424 . S
C97 C102 1.245 . S
C97 C103 1.428 . S
C98 C101 1.260 . S
C98 C102 1.477 . S
C98 H116 0.932 . S
C99 C100 1.384 . S
C99 C101 1.479 . S
C99 H117 0.929 . S
C100 C97 1.424 . S
C100 C99 1.384 . S
C100 H118 0.928 . S
C101 C98 1.260 . S
C101 C99 1.479 . S
C102 C97 1.245 . S
C102 C98 1.477 . S
C102 H119 0.932 . S
C103 U86 2.882 . S
C103 C97 1.428 . S
C103 O106 1.301 . S
C103 O107 1.282 . S
O104 U86 2.441 . S
O104 C90 1.249 . S
O105 U86 2.420 . S
O105 C90 1.202 . S
O106 U86 2.455 . S
O106 C103 1.301 . S
O107 U86 2.449 . S
O107 C103 1.282 . S
H108 C81 0.931 . S
H109 C83 0.929 . S
H110 C84 0.930 . S
H111 C85 0.931 . S
H112 C92 0.932 . S
H113 C93 0.930 . S
H114 C94 0.929 . S
H115 C96 0.930 . S
H116 C98 0.932 . S
H117 C99 0.929 . S
H118 C100 0.928 . S
H119 C102 0.932 . S
C120 C121 1.264 . S
C120 C125 1.479 . S
C120 C130 1.465 . S
C121 C120 1.264 . S
C121 C123 1.339 . S
C121 H148 0.931 . S
C122 C123 1.395 . S
C122 C124 1.320 . S
C123 C121 1.339 . S
C123 C122 1.395 . S
C123 H149 0.929 . S
C124 C122 1.320 . S
C124 C125 1.405 . S
C124 H150 0.930 . S
C125 C120 1.479 . S
C125 C124 1.405 . S
C125 H151 0.931 . S
U126 O127 2.454 . S
U126 O128 2.458 . S
U126 C129 2.984 . S
U126 C130 2.847 . S
U126 C143 2.882 . S
U126 O144 2.441 . S
U126 O145 2.420 . S
U126 O146 2.455 . S
U126 O147 2.449 . S
O127 U126 2.454 . S
O127 C129 1.353 . S
O128 U126 2.458 . S
O128 C129 1.286 . S
C129 U126 2.984 . S
C129 O127 1.353 . S
C129 O128 1.286 . S
C129 C131 1.363 . S
C130 C120 1.465 . S
C130 U126 2.847 . S
C130 O144 1.249 . S
C130 O145 1.202 . S
C131 C129 1.363 . S
C131 C133 1.408 . S
C131 C136 1.342 . S
C132 C133 1.310 . S
C132 C135 1.461 . S
C132 H152 0.932 . S
C133 C131 1.408 . S
C133 C132 1.310 . S
C133 H153 0.930 . S
C134 C135 1.474 . S
C134 C136 1.285 . S
C134 H154 0.929 . S
C135 C132 1.461 . S
C135 C134 1.474 . S
C136 C131 1.342 . S
C136 C134 1.285 . S
C136 H155 0.930 . S
C137 C140 1.424 . S
C137 C142 1.245 . S
C137 C143 1.428 . S
C138 C141 1.260 . S
C138 C142 1.477 . S
C138 H156 0.932 . S
C139 C140 1.384 . S
C139 C141 1.479 . S
C139 H157 0.929 . S
C140 C137 1.424 . S
C140 C139 1.384 . S
C140 H158 0.928 . S
C141 C138 1.260 . S
C141 C139 1.479 . S
C142 C137 1.245 . S
C142 C138 1.477 . S
C142 H159 0.932 . S
C143 U126 2.882 . S
C143 C137 1.428 . S
C143 O146 1.301 . S
C143 O147 1.282 . S
O144 U126 2.441 . S
O144 C130 1.249 . S
O145 U126 2.420 . S
O145 C130 1.202 . S
O146 U126 2.455 . S
O146 C143 1.301 . S
O147 U126 2.449 . S
O147 C143 1.282 . S
H148 C121 0.931 . S
H149 C123 0.929 . S
H150 C124 0.930 . S
H151 C125 0.931 . S
H152 C132 0.932 . S
H153 C133 0.930 . S
H154 C134 0.929 . S
H155 C136 0.930 . S
H156 C138 0.932 . S
H157 C139 0.929 . S
H158 C140 0.928 . S
H159 C142 0.932 . S
C160 C161 1.264 . S
C160 C165 1.479 . S
C160 C170 1.465 . S
C161 C160 1.264 . S
C161 C163 1.339 . S
C161 H188 0.931 . S
C162 C163 1.395 . S
C162 C164 1.320 . S
C163 C161 1.339 . S
C163 C162 1.395 . S
C163 H189 0.929 . S
C164 C162 1.320 . S
C164 C165 1.405 . S
C164 H190 0.930 . S
C165 C160 1.479 . S
C165 C164 1.405 . S
C165 H191 0.931 . S
U166 O167 2.454 . S
U166 O168 2.458 . S
U166 C169 2.984 . S
U166 C170 2.847 . S
U166 C183 2.882 . S
U166 O184 2.441 . S
U166 O185 2.420 . S
U166 O186 2.455 . S
U166 O187 2.449 . S
O167 U166 2.454 . S
O167 C169 1.353 . S
O168 U166 2.458 . S
O168 C169 1.286 . S
C169 U166 2.984 . S
C169 O167 1.353 . S
C169 O168 1.286 . S
C169 C171 1.363 . S
C170 C160 1.465 . S
C170 U166 2.847 . S
C170 O184 1.249 . S
C170 O185 1.202 . S
C171 C169 1.363 . S
C171 C173 1.408 . S
C171 C176 1.342 . S
C172 C173 1.310 . S
C172 C175 1.461 . S
C172 H192 0.932 . S
C173 C171 1.408 . S
C173 C172 1.310 . S
C173 H193 0.930 . S
C174 C175 1.474 . S
C174 C176 1.285 . S
C174 H194 0.929 . S
C175 C172 1.461 . S
C175 C174 1.474 . S
C176 C171 1.342 . S
C176 C174 1.285 . S
C176 H195 0.930 . S
C177 C180 1.424 . S
C177 C182 1.245 . S
C177 C183 1.428 . S
C178 C181 1.260 . S
C178 C182 1.477 . S
C178 H196 0.932 . S
C179 C180 1.384 . S
C179 C181 1.479 . S
C179 H197 0.929 . S
C180 C177 1.424 . S
C180 C179 1.384 . S
C180 H198 0.928 . S
C181 C178 1.260 . S
C181 C179 1.479 . S
C182 C177 1.245 . S
C182 C178 1.477 . S
C182 H199 0.932 . S
C183 U166 2.882 . S
C183 C177 1.428 . S
C183 O186 1.301 . S
C183 O187 1.282 . S
O184 U166 2.441 . S
O184 C170 1.249 . S
O185 U166 2.420 . S
O185 C170 1.202 . S
O186 U166 2.455 . S
O186 C183 1.301 . S
O187 U166 2.449 . S
O187 C183 1.282 . S
H188 C161 0.931 . S
H189 C163 0.929 . S
H190 C164 0.930 . S
H191 C165 0.931 . S
H192 C172 0.932 . S
H193 C173 0.930 . S
H194 C174 0.929 . S
H195 C176 0.930 . S
H196 C178 0.932 . S
H197 C179 0.929 . S
H198 C180 0.928 . S
H199 C182 0.932 . S
C200 C201 1.264 . S
C200 C205 1.479 . S
C200 C210 1.465 . S
C201 C200 1.264 . S
C201 C203 1.339 . S
C201 H228 0.931 . S
C202 C203 1.395 . S
C202 C204 1.320 . S
C203 C201 1.339 . S
C203 C202 1.395 . S
C203 H229 0.929 . S
C204 C202 1.320 . S
C204 C205 1.405 . S
C204 H230 0.930 . S
C205 C200 1.479 . S
C205 C204 1.405 . S
C205 H231 0.931 . S
U206 O207 2.454 . S
U206 O208 2.458 . S
U206 C209 2.984 . S
U206 C210 2.847 . S
U206 C223 2.882 . S
U206 O224 2.441 . S
U206 O225 2.420 . S
U206 O226 2.455 . S
U206 O227 2.449 . S
O207 U206 2.454 . S
O207 C209 1.353 . S
O208 U206 2.458 . S
O208 C209 1.286 . S
C209 U206 2.984 . S
C209 O207 1.353 . S
C209 O208 1.286 . S
C209 C211 1.363 . S
C210 C200 1.465 . S
C210 U206 2.847 . S
C210 O224 1.249 . S
C210 O225 1.202 . S
C211 C209 1.363 . S
C211 C213 1.408 . S
C211 C216 1.342 . S
C212 C213 1.310 . S
C212 C215 1.461 . S
C212 H232 0.932 . S
C213 C211 1.408 . S
C213 C212 1.310 . S
C213 H233 0.930 . S
C214 C215 1.474 . S
C214 C216 1.285 . S
C214 H234 0.929 . S
C215 C212 1.461 . S
C215 C214 1.474 . S
C216 C211 1.342 . S
C216 C214 1.285 . S
C216 H235 0.930 . S
C217 C220 1.424 . S
C217 C222 1.245 . S
C217 C223 1.428 . S
C218 C221 1.260 . S
C218 C222 1.477 . S
C218 H236 0.932 . S
C219 C220 1.384 . S
C219 C221 1.479 . S
C219 H237 0.929 . S
C220 C217 1.424 . S
C220 C219 1.384 . S
C220 H238 0.928 . S
C221 C218 1.260 . S
C221 C219 1.479 . S
C222 C217 1.245 . S
C222 C218 1.477 . S
C222 H239 0.932 . S
C223 U206 2.882 . S
C223 C217 1.428 . S
C223 O226 1.301 . S
C223 O227 1.282 . S
O224 U206 2.441 . S
O224 C210 1.249 . S
O225 U206 2.420 . S
O225 C210 1.202 . S
O226 U206 2.455 . S
O226 C223 1.301 . S
O227 U206 2.449 . S
O227 C223 1.282 . S
H228 C201 0.931 . S
H229 C203 0.929 . S
H230 C204 0.930 . S
H231 C205 0.931 . S
H232 C212 0.932 . S
H233 C213 0.930 . S
H234 C214 0.929 . S
H235 C216 0.930 . S
H236 C218 0.932 . S
H237 C219 0.929 . S
H238 C220 0.928 . S
H239 C222 0.932 . S
C240 C241 1.264 . S
C240 C245 1.479 . S
C240 C250 1.465 . S
C241 C240 1.264 . S
C241 C243 1.339 . S
C241 H268 0.931 . S
C242 C243 1.395 . S
C242 C244 1.320 . S
C243 C241 1.339 . S
C243 C242 1.395 . S
C243 H269 0.929 . S
C244 C242 1.320 . S
C244 C245 1.405 . S
C244 H270 0.930 . S
C245 C240 1.479 . S
C245 C244 1.405 . S
C245 H271 0.931 . S
U246 O247 2.454 . S
U246 O248 2.458 . S
U246 C249 2.984 . S
U246 C250 2.847 . S
U246 C263 2.882 . S
U246 O264 2.441 . S
U246 O265 2.420 . S
U246 O266 2.455 . S
U246 O267 2.449 . S
O247 U246 2.454 . S
O247 C249 1.353 . S
O248 U246 2.458 . S
O248 C249 1.286 . S
C249 U246 2.984 . S
C249 O247 1.353 . S
C249 O248 1.286 . S
C249 C251 1.363 . S
C250 C240 1.465 . S
C250 U246 2.847 . S
C250 O264 1.249 . S
C250 O265 1.202 . S
C251 C249 1.363 . S
C251 C253 1.408 . S
C251 C256 1.342 . S
C252 C253 1.310 . S
C252 C255 1.461 . S
C252 H272 0.932 . S
C253 C251 1.408 . S
C253 C252 1.310 . S
C253 H273 0.930 . S
C254 C255 1.474 . S
C254 C256 1.285 . S
C254 H274 0.929 . S
C255 C252 1.461 . S
C255 C254 1.474 . S
C256 C251 1.342 . S
C256 C254 1.285 . S
C256 H275 0.930 . S
C257 C260 1.424 . S
C257 C262 1.245 . S
C257 C263 1.428 . S
C258 C261 1.260 . S
C258 C262 1.477 . S
C258 H276 0.932 . S
C259 C260 1.384 . S
C259 C261 1.479 . S
C259 H277 0.929 . S
C260 C257 1.424 . S
C260 C259 1.384 . S
C260 H278 0.928 . S
C261 C258 1.260 . S
C261 C259 1.479 . S
C262 C257 1.245 . S
C262 C258 1.477 . S
C262 H279 0.932 . S
C263 U246 2.882 . S
C263 C257 1.428 . S
C263 O266 1.301 . S
C263 O267 1.282 . S
O264 U246 2.441 . S
O264 C250 1.249 . S
O265 U246 2.420 . S
O265 C250 1.202 . S
O266 U246 2.455 . S
O266 C263 1.301 . S
O267 U246 2.449 . S
O267 C263 1.282 . S
H268 C241 0.931 . S
H269 C243 0.929 . S
H270 C244 0.930 . S
H271 C245 0.931 . S
H272 C252 0.932 . S
H273 C253 0.930 . S
H274 C254 0.929 . S
H275 C256 0.930 . S
H276 C258 0.932 . S
H277 C259 0.929 . S
H278 C260 0.928 . S
H279 C262 0.932 . S
C280 C281 1.264 . S
C280 C285 1.479 . S
C280 C290 1.465 . S
C281 C280 1.264 . S
C281 C283 1.339 . S
C281 H308 0.931 . S
C282 C283 1.395 . S
C282 C284 1.320 . S
C283 C281 1.339 . S
C283 C282 1.395 . S
C283 H309 0.929 . S
C284 C282 1.320 . S
C284 C285 1.405 . S
C284 H310 0.930 . S
C285 C280 1.479 . S
C285 C284 1.405 . S
C285 H311 0.931 . S
U286 O287 2.454 . S
U286 O288 2.458 . S
U286 C289 2.984 . S
U286 C290 2.847 . S
U286 C303 2.882 . S
U286 O304 2.441 . S
U286 O305 2.420 . S
U286 O306 2.455 . S
U286 O307 2.449 . S
O287 U286 2.454 . S
O287 C289 1.353 . S
O288 U286 2.458 . S
O288 C289 1.286 . S
C289 U286 2.984 . S
C289 O287 1.353 . S
C289 O288 1.286 . S
C289 C291 1.363 . S
C290 C280 1.465 . S
C290 U286 2.847 . S
C290 O304 1.249 . S
C290 O305 1.202 . S
C291 C289 1.363 . S
C291 C293 1.408 . S
C291 C296 1.342 . S
C292 C293 1.310 . S
C292 C295 1.461 . S
C292 H312 0.932 . S
C293 C291 1.408 . S
C293 C292 1.310 . S
C293 H313 0.930 . S
C294 C295 1.474 . S
C294 C296 1.285 . S
C294 H314 0.929 . S
C295 C292 1.461 . S
C295 C294 1.474 . S
C296 C291 1.342 . S
C296 C294 1.285 . S
C296 H315 0.930 . S
C297 C300 1.424 . S
C297 C302 1.245 . S
C297 C303 1.428 . S
C298 C301 1.260 . S
C298 C302 1.477 . S
C298 H316 0.932 . S
C299 C300 1.384 . S
C299 C301 1.479 . S
C299 H317 0.929 . S
C300 C297 1.424 . S
C300 C299 1.384 . S
C300 H318 0.928 . S
C301 C298 1.260 . S
C301 C299 1.479 . S
C302 C297 1.245 . S
C302 C298 1.477 . S
C302 H319 0.932 . S
C303 U286 2.882 . S
C303 C297 1.428 . S
C303 O306 1.301 . S
C303 O307 1.282 . S
O304 U286 2.441 . S
O304 C290 1.249 . S
O305 U286 2.420 . S
O305 C290 1.202 . S
O306 U286 2.455 . S
O306 C303 1.301 . S
O307 U286 2.449 . S
O307 C303 1.282 . S
H308 C281 0.931 . S
H309 C283 0.929 . S
H310 C284 0.930 . S
H311 C285 0.931 . S
H312 C292 0.932 . S
H313 C293 0.930 . S
H314 C294 0.929 . S
H315 C296 0.930 . S
H316 C298 0.932 . S
H317 C299 0.929 . S
H318 C300 0.928 . S
H319 C302 0.932 . S
C320 C321 1.443 . S
C320 N324 1.376 . S
C320 C358 1.389 . S
C321 C320 1.443 . S
C321 C322 1.340 . S
C321 H361 0.951 . S
C322 C321 1.340 . S
C322 C323 1.439 . S
C322 H362 0.950 . S
C323 C322 1.439 . S
C323 N324 1.374 . S
C323 C357 1.395 . S
N324 C320 1.376 . S
N324 C323 1.374 . S
N324 Co325 2.008 . S
Co325 N324 2.008 . S
Co325 N326 1.980 1_455 S
Co325 N331 2.008 . S
Co325 N336 1.995 . S
Co325 N341 2.282 . S
Co325 N347 2.282 1_455 S
N326 Co325 1.980 1_655 S
N326 C327 1.375 . S
N326 C330 1.401 . S
C327 N326 1.375 . S
C327 C328 1.448 . S
C327 C357 1.389 1_655 S
C328 C327 1.448 . S
C328 C329 1.339 . S
C328 H363 0.949 . S
C329 C328 1.339 . S
C329 C330 1.439 . S
C329 H364 0.950 . S
C330 N326 1.401 . S
C330 C329 1.439 . S
C330 C359 1.392 . S
N331 Co325 2.008 . S
N331 C332 1.376 1_455 S
N331 C335 1.374 . S
C332 N331 1.376 1_655 S
C332 C333 1.443 . S
C332 C359 1.389 . S
C333 C332 1.443 . S
C333 C334 1.340 . S
C333 H365 0.951 . S
C334 C333 1.340 . S
C334 C335 1.439 1_655 S
C334 H366 0.950 . S
C335 N331 1.374 . S
C335 C334 1.439 1_455 S
C335 C360 1.395 . S
N336 Co325 1.995 . S
N336 C337 1.376 . S
N336 C340 1.383 . S
C337 N336 1.376 . S
C337 C338 1.446 . S
C337 C360 1.391 . S
C338 C337 1.446 . S
C338 C339 1.339 . S
C338 H367 0.949 . S
C339 C338 1.339 . S
C339 C340 1.439 . S
C339 H368 0.950 . S
C340 N336 1.383 . S
C340 C339 1.439 . S
C340 C358 1.392 . S
N341 Co325 2.282 . S
N341 C344 1.332 . S
N341 C346 1.332 . S
C342 C343 1.386 . S
C342 C345 1.388 . S
C343 C342 1.386 . S
C343 C344 1.382 . S
C343 H369 0.950 . S
C344 N341 1.332 . S
C344 C343 1.382 . S
C344 H355 0.952 . S
C345 C342 1.388 . S
C345 C346 1.382 . S
C345 H370 0.950 . S
C346 N341 1.332 . S
C346 C345 1.382 . S
C346 H356 0.948 . S
N347 Co325 2.282 1_655 S
N347 C351 1.332 . S
N347 C352 1.332 . S
C348 C349 1.388 . S
C348 C352 1.382 . S
C348 H371 0.950 . S
C349 C348 1.388 . S
C349 C350 1.386 . S
C350 C349 1.386 . S
C350 C351 1.382 . S
C350 H372 0.950 . S
C351 N347 1.332 . S
C351 C350 1.382 . S
C351 H353 0.952 . S
C352 N347 1.332 . S
C352 C348 1.382 . S
C352 H354 0.948 . S
H353 C351 0.952 . S
H354 C352 0.948 . S
H355 C344 0.952 . S
H356 C346 0.948 . S
C357 C323 1.395 . S
C357 C327 1.389 1_455 S
C358 C320 1.389 . S
C358 C340 1.392 . S
C359 C330 1.392 . S
C359 C332 1.389 . S
C360 C335 1.395 . S
C360 C337 1.391 . S
H361 C321 0.951 . S
H362 C322 0.950 . S
H363 C328 0.949 . S
H364 C329 0.950 . S
H365 C333 0.951 . S
H366 C334 0.950 . S
H367 C338 0.949 . S
H368 C339 0.950 . S
H369 C343 0.950 . S
H370 C345 0.950 . S
H371 C348 0.950 . S
H372 C350 0.950 . S
C373 C374 1.443 . S
C373 N377 1.376 . S
C373 C411 1.389 . S
C374 C373 1.443 . S
C374 C375 1.340 . S
C374 H414 0.951 . S
C375 C374 1.340 . S
C375 C376 1.439 . S
C375 H415 0.950 . S
C376 C375 1.439 . S
C376 N377 1.374 . S
C376 C410 1.395 . S
N377 C373 1.376 . S
N377 C376 1.374 . S
N377 Co378 2.008 . S
Co378 N377 2.008 . S
Co378 N379 1.995 1_455 S
Co378 N384 2.008 1_455 S
Co378 N389 1.995 . S
Co378 N394 2.282 . S
Co378 N400 2.282 1_455 S
N379 Co378 1.995 1_655 S
N379 C380 1.376 . S
N379 C383 1.383 . S
C380 N379 1.376 . S
C380 C381 1.446 . S
C380 C410 1.391 1_655 S
C381 C380 1.446 . S
C381 C382 1.339 . S
C381 H416 0.949 . S
C382 C381 1.339 . S
C382 C383 1.439 . S
C382 H417 0.950 . S
C383 N379 1.383 . S
C383 C382 1.439 . S
C383 C412 1.392 . S
N384 Co378 2.008 1_655 S
N384 C385 1.376 . S
N384 C388 1.374 . S
C385 N384 1.376 . S
C385 C386 1.443 . S
C385 C412 1.389 . S
C386 C385 1.443 . S
C386 C387 1.340 . S
C386 H418 0.951 . S
C387 C386 1.340 . S
C387 C388 1.439 . S
C387 H419 0.950 . S
C388 N384 1.374 . S
C388 C387 1.439 . S
C388 C413 1.395 1_655 S
N389 Co378 1.995 . S
N389 C390 1.376 . S
N389 C393 1.383 . S
C390 N389 1.376 . S
C390 C391 1.446 . S
C390 C413 1.391 . S
C391 C390 1.446 . S
C391 C392 1.339 . S
C391 H420 0.949 . S
C392 C391 1.339 . S
C392 C393 1.439 . S
C392 H421 0.950 . S
C393 N389 1.383 . S
C393 C392 1.439 . S
C393 C411 1.392 . S
N394 Co378 2.282 . S
N394 C397 1.332 . S
N394 C399 1.332 . S
C395 C396 1.386 . S
C395 C398 1.388 . S
C396 C395 1.386 . S
C396 C397 1.382 . S
C396 H422 0.950 . S
C397 N394 1.332 . S
C397 C396 1.382 . S
C397 H408 0.952 . S
C398 C395 1.388 . S
C398 C399 1.382 . S
C398 H423 0.950 . S
C399 N394 1.332 . S
C399 C398 1.382 . S
C399 H409 0.948 . S
N400 Co378 2.282 1_655 S
N400 C404 1.332 . S
N400 C405 1.332 . S
C401 C402 1.388 . S
C401 C405 1.382 . S
C401 H424 0.950 . S
C402 C401 1.388 . S
C402 C403 1.386 . S
C403 C402 1.386 . S
C403 C404 1.382 . S
C403 H425 0.950 . S
C404 N400 1.332 . S
C404 C403 1.382 . S
C404 H406 0.952 . S
C405 N400 1.332 . S
C405 C401 1.382 . S
C405 H407 0.948 . S
H406 C404 0.952 . S
H407 C405 0.948 . S
H408 C397 0.952 . S
H409 C399 0.948 . S
C410 C376 1.395 . S
C410 C380 1.391 1_455 S
C411 C373 1.389 . S
C411 C393 1.392 . S
C412 C383 1.392 . S
C412 C385 1.389 . S
C413 C388 1.395 1_455 S
C413 C390 1.391 . S
H414 C374 0.951 . S
H415 C375 0.950 . S
H416 C381 0.949 . S
H417 C382 0.950 . S
H418 C386 0.951 . S
H419 C387 0.950 . S
H420 C391 0.949 . S
H421 C392 0.950 . S
H422 C396 0.950 . S
H423 C398 0.950 . S
H424 C401 0.950 . S
H425 C403 0.950 . S
C426 C427 1.443 . S
C426 N430 1.376 . S
C426 C464 1.389 . S
C427 C426 1.443 . S
C427 C428 1.340 . S
C427 H467 0.951 . S
C428 C427 1.340 . S
C428 C429 1.439 . S
C428 H468 0.950 . S
C429 C428 1.439 . S
C429 N430 1.374 . S
C429 C463 1.395 1_565 S
N430 C426 1.376 . S
N430 C429 1.374 . S
N430 Co431 2.008 1_565 S
Co431 N430 2.008 1_545 S
Co431 N432 1.995 . S
Co431 N437 2.008 . S
Co431 N442 1.995 1_545 S
Co431 N447 2.282 . S
Co431 N453 2.282 1_545 S
N432 Co431 1.995 . S
N432 C433 1.376 . S
N432 C436 1.383 . S
C433 N432 1.376 . S
C433 C434 1.446 . S
C433 C463 1.391 . S
C434 C433 1.446 . S
C434 C435 1.339 . S
C434 H469 0.949 . S
C435 C434 1.339 . S
C435 C436 1.439 . S
C435 H470 0.950 . S
C436 N432 1.383 . S
C436 C435 1.439 . S
C436 C465 1.392 . S
N437 Co431 2.008 . S
N437 C438 1.376 . S
N437 C441 1.374 . S
C438 N437 1.376 . S
C438 C439 1.443 . S
C438 C465 1.389 . S
C439 C438 1.443 . S
C439 C440 1.340 . S
C439 H471 0.951 . S
C440 C439 1.340 . S
C440 C441 1.439 . S
C440 H472 0.950 . S
C441 N437 1.374 . S
C441 C440 1.439 . S
C441 C466 1.395 . S
N442 Co431 1.995 1_565 S
N442 C443 1.376 . S
N442 C446 1.383 . S
C443 N442 1.376 . S
C443 C444 1.446 . S
C443 C466 1.391 1_565 S
C444 C443 1.446 . S
C444 C445 1.339 . S
C444 H473 0.949 . S
C445 C444 1.339 . S
C445 C446 1.439 . S
C445 H474 0.950 . S
C446 N442 1.383 . S
C446 C445 1.439 . S
C446 C464 1.392 . S
N447 Co431 2.282 . S
N447 C450 1.332 . S
N447 C452 1.332 . S
C448 C449 1.386 . S
C448 C451 1.388 . S
C449 C448 1.386 . S
C449 C450 1.382 . S
C449 H475 0.950 . S
C450 N447 1.332 . S
C450 C449 1.382 . S
C450 H461 0.952 . S
C451 C448 1.388 . S
C451 C452 1.382 . S
C451 H476 0.950 . S
C452 N447 1.332 . S
C452 C451 1.382 . S
C452 H462 0.948 . S
N453 Co431 2.282 1_565 S
N453 C457 1.332 . S
N453 C458 1.332 . S
C454 C455 1.388 . S
C454 C458 1.382 . S
C454 H477 0.950 . S
C455 C454 1.388 . S
C455 C456 1.386 . S
C456 C455 1.386 . S
C456 C457 1.382 . S
C456 H478 0.950 . S
C457 N453 1.332 . S
C457 C456 1.382 . S
C457 H459 0.952 . S
C458 N453 1.332 . S
C458 C454 1.382 . S
C458 H460 0.948 . S
H459 C457 0.952 . S
H460 C458 0.948 . S
H461 C450 0.952 . S
H462 C452 0.948 . S
C463 C429 1.395 1_545 S
C463 C433 1.391 . S
C464 C426 1.389 . S
C464 C446 1.392 . S
C465 C436 1.392 . S
C465 C438 1.389 . S
C466 C441 1.395 . S
C466 C443 1.391 1_545 S
H467 C427 0.951 . S
H468 C428 0.950 . S
H469 C434 0.949 . S
H470 C435 0.950 . S
H471 C439 0.951 . S
H472 C440 0.950 . S
H473 C444 0.949 . S
H474 C445 0.950 . S
H475 C449 0.950 . S
H476 C451 0.950 . S
H477 C454 0.950 . S
H478 C456 0.950 . S
C479 C480 1.443 . S
C479 N483 1.376 . S
C479 C517 1.389 . S
C480 C479 1.443 . S
C480 C481 1.340 . S
C480 H520 0.951 . S
C481 C480 1.340 . S
C481 C482 1.439 . S
C481 H521 0.950 . S
C482 C481 1.439 . S
C482 N483 1.374 . S
C482 C516 1.395 . S
N483 C479 1.376 . S
N483 C482 1.374 . S
N483 Co484 2.008 . S
Co484 N483 2.008 . S
Co484 N485 1.994 . S
Co484 N490 1.980 1_554 S
Co484 N495 1.995 . S
Co484 N500 2.282 1_554 S
Co484 N506 2.282 . S
N485 Co484 1.994 . S
N485 C486 1.376 . S
N485 C489 1.384 1_554 S
C486 N485 1.376 . S
C486 C487 1.446 1_554 S
C486 C516 1.391 . S
C487 C486 1.446 1_556 S
C487 C488 1.339 . S
C487 H522 0.949 . S
C488 C487 1.339 . S
C488 C489 1.439 . S
C488 H523 0.950 . S
C489 N485 1.384 1_556 S
C489 C488 1.439 . S
C489 C518 1.392 . S
N490 Co484 1.980 1_556 S
N490 C491 1.417 . S
N490 C494 1.375 1_556 S
C491 N490 1.417 . S
C491 C492 1.443 . S
C491 C518 1.389 . S
C492 C491 1.443 . S
C492 C493 1.340 . S
C492 H524 0.951 . S
C493 C492 1.340 . S
C493 C494 1.429 1_556 S
C493 H525 0.950 . S
C494 N490 1.375 1_554 S
C494 C493 1.429 1_554 S
C494 C519 1.404 . S
N495 Co484 1.995 . S
N495 C496 1.376 . S
N495 C499 1.383 . S
C496 N495 1.376 . S
C496 C497 1.446 . S
C496 C519 1.391 . S
C497 C496 1.446 . S
C497 C498 1.339 . S
C497 H526 0.949 . S
C498 C497 1.339 . S
C498 C499 1.439 . S
C498 H527 0.950 . S
C499 N495 1.383 . S
C499 C498 1.439 . S
C499 C517 1.392 . S
N500 Co484 2.282 1_556 S
N500 C503 1.332 . S
N500 C505 1.332 . S
C501 C502 1.386 . S
C501 C504 1.388 . S
C502 C501 1.386 . S
C502 C503 1.382 . S
C502 H528 0.950 . S
C503 N500 1.332 . S
C503 C502 1.382 . S
C503 H514 0.952 . S
C504 C501 1.388 . S
C504 C505 1.382 . S
C504 H529 0.950 . S
C505 N500 1.332 . S
C505 C504 1.382 . S
C505 H515 0.948 . S
N506 Co484 2.282 . S
N506 C510 1.332 . S
N506 C511 1.332 . S
C507 C508 1.388 . S
C507 C511 1.382 . S
C507 H530 0.950 . S
C508 C507 1.388 . S
C508 C509 1.386 . S
C509 C508 1.386 . S
C509 C510 1.382 . S
C509 H531 0.950 . S
C510 N506 1.332 . S
C510 C509 1.382 . S
C510 H512 0.952 . S
C511 N506 1.332 . S
C511 C507 1.382 . S
C511 H513 0.948 . S
H512 C510 0.952 . S
H513 C511 0.948 . S
H514 C503 0.952 . S
H515 C505 0.948 . S
C516 C482 1.395 . S
C516 C486 1.391 . S
C517 C479 1.389 . S
C517 C499 1.392 . S
C518 C489 1.392 . S
C518 C491 1.389 . S
C519 C494 1.404 . S
C519 C496 1.391 . S
H520 C480 0.951 . S
H521 C481 0.950 . S
H522 C487 0.949 . S
H523 C488 0.950 . S
H524 C492 0.951 . S
H525 C493 0.950 . S
H526 C497 0.949 . S
H527 C498 0.950 . S
H528 C502 0.950 . S
H529 C504 0.950 . S
H530 C507 0.950 . S
H531 C509 0.950 . S
C532 C533 1.443 . S
C532 N536 1.376 1_565 S
C532 C570 1.389 . S
C533 C532 1.443 . S
C533 C534 1.340 . S
C533 H573 0.951 . S
C534 C533 1.340 . S
C534 C535 1.439 1_565 S
C534 H574 0.950 . S
C535 C534 1.439 1_545 S
C535 N536 1.374 . S
C535 C569 1.395 . S
N536 C532 1.376 1_545 S
N536 C535 1.374 . S
N536 Co537 2.008 . S
Co537 N536 2.008 . S
Co537 N538 1.995 . S
Co537 N543 2.008 . S
Co537 N548 1.995 . S
Co537 N553 2.282 . S
Co537 N559 2.282 1_545 S
N538 Co537 1.995 . S
N538 C539 1.376 . S
N538 C542 1.383 . S
C539 N538 1.376 . S
C539 C540 1.446 . S
C539 C569 1.391 . S
C540 C539 1.446 . S
C540 C541 1.339 . S
C540 H575 0.949 . S
C541 C540 1.339 . S
C541 C542 1.439 . S
C541 H576 0.950 . S
C542 N538 1.383 . S
C542 C541 1.439 . S
C542 C571 1.392 . S
N543 Co537 2.008 . S
N543 C544 1.376 . S
N543 C547 1.374 . S
C544 N543 1.376 . S
C544 C545 1.443 . S
C544 C571 1.389 . S
C545 C544 1.443 . S
C545 C546 1.340 . S
C545 H577 0.951 . S
C546 C545 1.340 . S
C546 C547 1.439 . S
C546 H578 0.950 . S
C547 N543 1.374 . S
C547 C546 1.439 . S
C547 C572 1.395 . S
N548 Co537 1.995 . S
N548 C549 1.376 . S
N548 C552 1.383 1_545 S
C549 N548 1.376 . S
C549 C550 1.446 1_545 S
C549 C572 1.391 . S
C550 C549 1.446 1_565 S
C550 C551 1.339 . S
C550 H579 0.949 . S
C551 C550 1.339 . S
C551 C552 1.439 . S
C551 H580 0.950 . S
C552 N548 1.383 1_565 S
C552 C551 1.439 . S
C552 C570 1.392 . S
N553 Co537 2.282 . S
N553 C556 1.332 . S
N553 C558 1.332 . S
C554 C555 1.386 . S
C554 C557 1.388 . S
C555 C554 1.386 . S
C555 C556 1.382 . S
C555 H581 0.950 . S
C556 N553 1.332 . S
C556 C555 1.382 . S
C556 H567 0.952 . S
C557 C554 1.388 . S
C557 C558 1.382 . S
C557 H582 0.950 . S
C558 N553 1.332 . S
C558 C557 1.382 . S
C558 H568 0.948 . S
N559 Co537 2.282 1_565 S
N559 C563 1.332 . S
N559 C564 1.332 . S
C560 C561 1.388 . S
C560 C564 1.382 . S
C560 H583 0.950 . S
C561 C560 1.388 . S
C561 C562 1.386 . S
C562 C561 1.386 . S
C562 C563 1.382 . S
C562 H584 0.950 . S
C563 N559 1.332 . S
C563 C562 1.382 . S
C563 H565 0.952 . S
C564 N559 1.332 . S
C564 C560 1.382 . S
C564 H566 0.948 . S
H565 C563 0.952 . S
H566 C564 0.948 . S
H567 C556 0.952 . S
H568 C558 0.948 . S
C569 C535 1.395 . S
C569 C539 1.391 . S
C570 C532 1.389 . S
C570 C552 1.392 . S
C571 C542 1.392 . S
C571 C544 1.389 . S
C572 C547 1.395 . S
C572 C549 1.391 . S
H573 C533 0.951 . S
H574 C534 0.950 . S
H575 C540 0.949 . S
H576 C541 0.950 . S
H577 C545 0.951 . S
H578 C546 0.950 . S
H579 C550 0.949 . S
H580 C551 0.950 . S
H581 C555 0.950 . S
H582 C557 0.950 . S
H583 C560 0.950 . S
H584 C562 0.950 . S
C585 C586 1.443 . S
C585 N589 1.376 . S
C585 C623 1.389 . S
C586 C585 1.443 . S
C586 C587 1.340 . S
C586 H626 0.951 . S
C587 C586 1.340 . S
C587 C588 1.439 . S
C587 H627 0.950 . S
C588 C587 1.439 . S
C588 N589 1.374 . S
C588 C622 1.395 . S
N589 C585 1.376 . S
N589 C588 1.374 . S
N589 Co590 2.008 . S
Co590 N589 2.008 . S
Co590 N591 1.995 . S
Co590 N596 2.008 . S
Co590 N601 1.995 . S
Co590 N606 2.287 . S
Co590 N612 2.282 . S
N591 Co590 1.995 . S
N591 C592 1.376 . S
N591 C595 1.383 1_554 S
C592 N591 1.376 . S
C592 C593 1.446 1_554 S
C592 C622 1.391 . S
C593 C592 1.446 1_556 S
C593 C594 1.339 . S
C593 H628 0.949 . S
C594 C593 1.339 . S
C594 C595 1.439 . S
C594 H629 0.950 . S
C595 N591 1.383 1_556 S
C595 C594 1.439 . S
C595 C624 1.392 . S
N596 Co590 2.008 . S
N596 C597 1.376 1_554 S
N596 C600 1.374 . S
C597 N596 1.376 1_556 S
C597 C598 1.443 . S
C597 C624 1.389 . S
C598 C597 1.443 . S
C598 C599 1.340 . S
C598 H630 0.951 . S
C599 C598 1.340 . S
C599 C600 1.439 1_556 S
C599 H631 0.950 . S
C600 N596 1.374 . S
C600 C599 1.439 1_554 S
C600 C625 1.395 . S
N601 Co590 1.995 . S
N601 C602 1.376 . S
N601 C605 1.383 . S
C602 N601 1.376 . S
C602 C603 1.446 . S
C602 C625 1.391 . S
C603 C602 1.446 . S
C603 C604 1.339 . S
C603 H632 0.949 . S
C604 C603 1.339 . S
C604 C605 1.439 . S
C604 H633 0.950 . S
C605 N601 1.383 . S
C605 C604 1.439 . S
C605 C623 1.392 . S
N606 Co590 2.287 . S
N606 C609 1.330 1_554 S
N606 C611 1.329 1_554 S
C607 C608 1.386 . S
C607 C610 1.388 . S
C608 C607 1.386 . S
C608 C609 1.382 . S
C608 H634 0.950 . S
C609 N606 1.330 1_556 S
C609 C608 1.382 . S
C609 H620 0.952 1_556 S
C610 C607 1.388 . S
C610 C611 1.382 . S
C610 H635 0.950 . S
C611 N606 1.329 1_556 S
C611 C610 1.382 . S
C611 H621 0.948 . S
N612 Co590 2.282 . S
N612 C616 1.332 . S
N612 C617 1.332 . S
C613 C614 1.388 . S
C613 C617 1.382 . S
C613 H636 0.950 . S
C614 C613 1.388 . S
C614 C615 1.386 . S
C615 C614 1.386 . S
C615 C616 1.382 . S
C615 H637 0.950 . S
C616 N612 1.332 . S
C616 C615 1.382 . S
C616 H618 0.952 . S
C617 N612 1.332 . S
C617 C613 1.382 . S
C617 H619 0.948 . S
H618 C616 0.952 . S
H619 C617 0.948 . S
H620 C609 0.952 1_554 S
H621 C611 0.948 . S
C622 C588 1.395 . S
C622 C592 1.391 . S
C623 C585 1.389 . S
C623 C605 1.392 . S
C624 C595 1.392 . S
C624 C597 1.389 . S
C625 C600 1.395 . S
C625 C602 1.391 . S
H626 C586 0.951 . S
H627 C587 0.950 . S
H628 C593 0.949 . S
H629 C594 0.950 . S
H630 C598 0.951 . S
H631 C599 0.950 . S
H632 C603 0.949 . S
H633 C604 0.950 . S
H634 C608 0.950 . S
H635 C610 0.950 . S
H636 C613 0.950 . S
H637 C615 0.950 . S
H638 C644 0.930 . S
H639 C648 0.930 . S
H640 C653 0.929 . S
H641 C651 0.929 . S
H642 C646 0.929 . S
H643 C652 0.929 . S
C644 H638 0.930 . S
C644 C645 1.367 . S
C644 C652 1.378 . S
C645 C644 1.367 . S
C645 C653 1.433 . S
C646 H642 0.929 . S
C646 C648 1.378 . S
C646 C650 1.350 . S
C647 C650 1.463 . S
C647 C652 1.350 . S
C647 N655 1.427 . S
C648 H639 0.930 . S
C648 C646 1.378 . S
C648 C649 1.367 . S
C649 C648 1.367 . S
C649 C651 1.433 . S
C650 C646 1.350 . S
C650 C647 1.463 . S
C650 N654 1.427 . S
C651 H641 0.929 . S
C651 C649 1.433 . S
C651 N654 1.384 . S
C652 H643 0.929 . S
C652 C644 1.378 . S
C652 C647 1.350 . S
C653 H640 0.929 . S
C653 C645 1.433 . S
C653 N655 1.384 . S
N654 C650 1.427 . S
N654 C651 1.384 . S
N655 C647 1.427 . S
N655 C653 1.384 . S
H656 C662 0.930 . S
H657 C666 0.930 . S
H658 C671 0.929 . S
H659 C669 0.929 . S
H660 C664 0.929 . S
H661 C670 0.929 . S
C662 H656 0.930 . S
C662 C663 1.367 . S
C662 C670 1.378 . S
C663 C662 1.367 . S
C663 C671 1.433 . S
C664 H660 0.929 . S
C664 C666 1.378 . S
C664 C668 1.350 . S
C665 C668 1.463 . S
C665 C670 1.350 . S
C665 N673 1.427 . S
C666 H657 0.930 . S
C666 C664 1.378 . S
C666 C667 1.367 . S
C667 C666 1.367 . S
C667 C669 1.433 . S
C668 C664 1.350 . S
C668 C665 1.463 . S
C668 N672 1.427 . S
C669 H659 0.929 . S
C669 C667 1.433 . S
C669 N672 1.384 . S
C670 H661 0.929 . S
C670 C662 1.378 . S
C670 C665 1.350 . S
C671 H658 0.929 . S
C671 C663 1.433 . S
C671 N673 1.384 . S
N672 C668 1.427 . S
N672 C669 1.384 . S
N673 C665 1.427 . S
N673 C671 1.384 . S
H674 C680 0.930 . S
H675 C684 0.930 . S
H676 C689 0.929 . S
H677 C687 0.929 . S
H678 C682 0.929 . S
H679 C688 0.929 . S
C680 H674 0.930 . S
C680 C681 1.367 . S
C680 C688 1.378 . S
C681 C680 1.367 . S
C681 C689 1.433 . S
C682 H678 0.929 . S
C682 C684 1.378 . S
C682 C686 1.350 . S
C683 C686 1.463 . S
C683 C688 1.350 . S
C683 N691 1.427 . S
C684 H675 0.930 . S
C684 C682 1.378 . S
C684 C685 1.367 . S
C685 C684 1.367 . S
C685 C687 1.433 . S
C686 C682 1.350 . S
C686 C683 1.463 . S
C686 N690 1.427 . S
C687 H677 0.929 . S
C687 C685 1.433 . S
C687 N690 1.384 . S
C688 H679 0.929 . S
C688 C680 1.378 . S
C688 C683 1.350 . S
C689 H676 0.929 . S
C689 C681 1.433 . S
C689 N691 1.384 . S
N690 C686 1.427 . S
N690 C687 1.384 . S
N691 C683 1.427 . S
N691 C689 1.384 . S
H692 C698 0.930 . S
H693 C702 0.930 . S
H694 C707 0.929 . S
H695 C705 0.929 . S
H696 C700 0.929 . S
H697 C706 0.929 . S
C698 H692 0.930 . S
C698 C699 1.367 . S
C698 C706 1.378 . S
C699 C698 1.367 . S
C699 C707 1.433 . S
C700 H696 0.929 . S
C700 C702 1.378 . S
C700 C704 1.350 . S
C701 C704 1.463 . S
C701 C706 1.350 . S
C701 N709 1.427 . S
C702 H693 0.930 . S
C702 C700 1.378 . S
C702 C703 1.367 . S
C703 C702 1.367 . S
C703 C705 1.433 . S
C704 C700 1.350 . S
C704 C701 1.463 . S
C704 N708 1.427 . S
C705 H695 0.929 . S
C705 C703 1.433 . S
C705 N708 1.384 . S
C706 H697 0.929 . S
C706 C698 1.378 . S
C706 C701 1.350 . S
C707 H694 0.929 . S
C707 C699 1.433 . S
C707 N709 1.384 . S
N708 C704 1.427 . S
N708 C705 1.384 . S
N709 C701 1.427 . S
N709 C707 1.384 . S
H710 C716 0.930 . S
H711 C720 0.930 . S
H712 C725 0.929 . S
H713 C723 0.929 . S
H714 C718 0.929 . S
H715 C724 0.929 . S
C716 H710 0.930 . S
C716 C717 1.367 . S
C716 C724 1.378 . S
C717 C716 1.367 . S
C717 C725 1.433 . S
C718 H714 0.929 . S
C718 C720 1.378 . S
C718 C722 1.350 . S
C719 C722 1.463 . S
C719 C724 1.350 . S
C719 N727 1.427 . S
C720 H711 0.930 . S
C720 C718 1.378 . S
C720 C721 1.367 . S
C721 C720 1.367 . S
C721 C723 1.433 . S
C722 C718 1.350 . S
C722 C719 1.463 . S
C722 N726 1.427 . S
C723 H713 0.929 . S
C723 C721 1.433 . S
C723 N726 1.384 . S
C724 H715 0.929 . S
C724 C716 1.378 . S
C724 C719 1.350 . S
C725 H712 0.929 . S
C725 C717 1.433 . S
C725 N727 1.384 . S
N726 C722 1.427 . S
N726 C723 1.384 . S
N727 C719 1.427 . S
N727 C725 1.384 . S
H728 C734 0.930 . S
H729 C738 0.930 . S
H730 C743 0.929 . S
H731 C741 0.929 . S
H732 C736 0.929 . S
H733 C742 0.929 . S
C734 H728 0.930 . S
C734 C735 1.367 . S
C734 C742 1.378 . S
C735 C734 1.367 . S
C735 C743 1.433 . S
C736 H732 0.929 . S
C736 C738 1.378 . S
C736 C740 1.350 . S
C737 C740 1.463 . S
C737 C742 1.350 . S
C737 N745 1.427 . S
C738 H729 0.930 . S
C738 C736 1.378 . S
C738 C739 1.367 . S
C739 C738 1.367 . S
C739 C741 1.433 . S
C740 C736 1.350 . S
C740 C737 1.463 . S
C740 N744 1.427 . S
C741 H731 0.929 . S
C741 C739 1.433 . S
C741 N744 1.384 . S
C742 H733 0.929 . S
C742 C734 1.378 . S
C742 C737 1.350 . S
C743 H730 0.929 . S
C743 C735 1.433 . S
C743 N745 1.384 . S
N744 C740 1.427 . S
N744 C741 1.384 . S
N745 C737 1.427 . S
N745 C743 1.384 . S
H746 C752 0.930 . S
H747 C756 0.930 . S
H748 C761 0.929 . S
H749 C759 0.929 . S
H750 C754 0.929 . S
H751 C760 0.929 . S
C752 H746 0.930 . S
C752 C753 1.367 . S
C752 C760 1.378 . S
C753 C752 1.367 . S
C753 C761 1.433 . S
C754 H750 0.929 . S
C754 C756 1.378 . S
C754 C758 1.350 . S
C755 C758 1.463 . S
C755 C760 1.350 . S
C755 N763 1.427 . S
C756 H747 0.930 . S
C756 C754 1.378 . S
C756 C757 1.367 . S
C757 C756 1.367 . S
C757 C759 1.433 . S
C758 C754 1.350 . S
C758 C755 1.463 . S
C758 N762 1.427 . S
C759 H749 0.929 . S
C759 C757 1.433 . S
C759 N762 1.384 . S
C760 H751 0.929 . S
C760 C752 1.378 . S
C760 C755 1.350 . S
C761 H748 0.929 . S
C761 C753 1.433 . S
C761 N763 1.384 . S
N762 C758 1.427 . S
N762 C759 1.384 . S
N763 C755 1.427 . S
N763 C761 1.384 . S
H764 C770 0.930 . S
H765 C774 0.930 . S
H766 C779 0.929 . S
H767 C777 0.929 . S
H768 C772 0.929 . S
H769 C778 0.929 . S
C770 H764 0.930 . S
C770 C771 1.367 . S
C770 C778 1.378 . S
C771 C770 1.367 . S
C771 C779 1.433 . S
C772 H768 0.929 . S
C772 C774 1.378 . S
C772 C776 1.350 . S
C773 C776 1.463 . S
C773 C778 1.350 . S
C773 N781 1.427 . S
C774 H765 0.930 . S
C774 C772 1.378 . S
C774 C775 1.367 . S
C775 C774 1.367 . S
C775 C777 1.433 . S
C776 C772 1.350 . S
C776 C773 1.463 . S
C776 N780 1.427 . S
C777 H767 0.929 . S
C777 C775 1.433 . S
C777 N780 1.384 . S
C778 H769 0.929 . S
C778 C770 1.378 . S
C778 C773 1.350 . S
C779 H766 0.929 . S
C779 C771 1.433 . S
C779 N781 1.384 . S
N780 C776 1.427 . S
N780 C777 1.384 . S
N781 C773 1.427 . S
N781 C779 1.384 . S
H782 C788 0.930 . S
H783 C792 0.930 . S
H784 C797 0.929 . S
H785 C795 0.929 . S
H786 C790 0.929 . S
H787 C796 0.929 . S
C788 H782 0.930 . S
C788 C789 1.367 . S
C788 C796 1.378 . S
C789 C788 1.367 . S
C789 C797 1.433 . S
C790 H786 0.929 . S
C790 C792 1.378 . S
C790 C794 1.350 . S
C791 C794 1.463 . S
C791 C796 1.350 . S
C791 N799 1.427 . S
C792 H783 0.930 . S
C792 C790 1.378 . S
C792 C793 1.367 . S
C793 C792 1.367 . S
C793 C795 1.433 . S
C794 C790 1.350 . S
C794 C791 1.463 . S
C794 N798 1.427 . S
C795 H785 0.929 . S
C795 C793 1.433 . S
C795 N798 1.384 . S
C796 H787 0.929 . S
C796 C788 1.378 . S
C796 C791 1.350 . S
C797 H784 0.929 . S
C797 C789 1.433 . S
C797 N799 1.384 . S
N798 C794 1.427 . S
N798 C795 1.384 . S
N799 C791 1.427 . S
N799 C797 1.384 . S
H800 C806 0.930 . S
H801 C810 0.930 . S
H802 C815 0.929 . S
H803 C813 0.929 . S
H804 C808 0.929 . S
H805 C814 0.929 . S
C806 H800 0.930 . S
C806 C807 1.367 . S
C806 C814 1.378 . S
C807 C806 1.367 . S
C807 C815 1.433 . S
C808 H804 0.929 . S
C808 C810 1.378 . S
C808 C812 1.350 . S
C809 C812 1.463 . S
C809 C814 1.350 . S
C809 N817 1.427 . S
C810 H801 0.930 . S
C810 C808 1.378 . S
C810 C811 1.367 . S
C811 C810 1.367 . S
C811 C813 1.433 . S
C812 C808 1.350 . S
C812 C809 1.463 . S
C812 N816 1.427 . S
C813 H803 0.929 . S
C813 C811 1.433 . S
C813 N816 1.384 . S
C814 H805 0.929 . S
C814 C806 1.378 . S
C814 C809 1.350 . S
C815 H802 0.929 . S
C815 C807 1.433 . S
C815 N817 1.384 . S
N816 C812 1.427 . S
N816 C813 1.384 . S
N817 C809 1.427 . S
N817 C815 1.384 . S
H818 C824 0.930 . S
H819 C828 0.930 . S
H820 C833 0.929 . S
H821 C831 0.929 . S
H822 C826 0.929 . S
H823 C832 0.929 . S
C824 H818 0.930 . S
C824 C825 1.367 . S
C824 C832 1.378 . S
C825 C824 1.367 . S
C825 C833 1.433 . S
C826 H822 0.929 . S
C826 C828 1.378 . S
C826 C830 1.350 . S
C827 C830 1.463 . S
C827 C832 1.350 . S
C827 N835 1.427 . S
C828 H819 0.930 . S
C828 C826 1.378 . S
C828 C829 1.367 . S
C829 C828 1.367 . S
C829 C831 1.433 . S
C830 C826 1.350 . S
C830 C827 1.463 . S
C830 N834 1.427 . S
C831 H821 0.929 . S
C831 C829 1.433 . S
C831 N834 1.384 . S
C832 H823 0.929 . S
C832 C824 1.378 . S
C832 C827 1.350 . S
C833 H820 0.929 . S
C833 C825 1.433 . S
C833 N835 1.384 . S
N834 C830 1.427 . S
N834 C831 1.384 . S
N835 C827 1.427 . S
N835 C833 1.384 . S
H836 C842 0.930 . S
H837 C846 0.930 . S
H838 C851 0.929 . S
H839 C849 0.929 . S
H840 C844 0.929 . S
H841 C850 0.929 . S
C842 H836 0.930 . S
C842 C843 1.367 . S
C842 C850 1.378 . S
C843 C842 1.367 . S
C843 C851 1.433 . S
C844 H840 0.929 . S
C844 C846 1.378 . S
C844 C848 1.350 . S
C845 C848 1.463 . S
C845 C850 1.350 . S
C845 N853 1.427 . S
C846 H837 0.930 . S
C846 C844 1.378 . S
C846 C847 1.367 . S
C847 C846 1.367 . S
C847 C849 1.433 . S
C848 C844 1.350 . S
C848 C845 1.463 . S
C848 N852 1.427 . S
C849 H839 0.929 . S
C849 C847 1.433 . S
C849 N852 1.384 . S
C850 H841 0.929 . S
C850 C842 1.378 . S
C850 C845 1.350 . S
C851 H838 0.929 . S
C851 C843 1.433 . S
C851 N853 1.384 . S
N852 C848 1.427 . S
N852 C849 1.384 . S
N853 C845 1.427 . S
N853 C851 1.384 . S
H854 C860 0.930 . S
H855 C864 0.930 . S
H856 C869 0.929 . S
H857 C867 0.929 . S
H858 C862 0.929 . S
H859 C868 0.929 . S
C860 H854 0.930 . S
C860 C861 1.367 . S
C860 C868 1.378 . S
C861 C860 1.367 . S
C861 C869 1.433 . S
C862 H858 0.929 . S
C862 C864 1.378 . S
C862 C866 1.350 . S
C863 C866 1.463 . S
C863 C868 1.350 . S
C863 N871 1.427 . S
C864 H855 0.930 . S
C864 C862 1.378 . S
C864 C865 1.367 . S
C865 C864 1.367 . S
C865 C867 1.433 . S
C866 C862 1.350 . S
C866 C863 1.463 . S
C866 N870 1.427 . S
C867 H857 0.929 . S
C867 C865 1.433 . S
C867 N870 1.384 . S
C868 H859 0.929 . S
C868 C860 1.378 . S
C868 C863 1.350 . S
C869 H856 0.929 . S
C869 C861 1.433 . S
C869 N871 1.384 . S
N870 C866 1.427 . S
N870 C867 1.384 . S
N871 C863 1.427 . S
N871 C869 1.384 . S
H872 C878 0.930 . S
H873 C882 0.930 . S
H874 C887 0.929 . S
H875 C885 0.929 . S
H876 C880 0.929 . S
H877 C886 0.929 . S
C878 H872 0.930 . S
C878 C879 1.367 . S
C878 C886 1.378 . S
C879 C878 1.367 . S
C879 C887 1.433 . S
C880 H876 0.929 . S
C880 C882 1.378 . S
C880 C884 1.350 . S
C881 C884 1.463 . S
C881 C886 1.350 . S
C881 N889 1.427 . S
C882 H873 0.930 . S
C882 C880 1.378 . S
C882 C883 1.367 . S
C883 C882 1.367 . S
C883 C885 1.433 . S
C884 C880 1.350 . S
C884 C881 1.463 . S
C884 N888 1.427 . S
C885 H875 0.929 . S
C885 C883 1.433 . S
C885 N888 1.384 . S
C886 H877 0.929 . S
C886 C878 1.378 . S
C886 C881 1.350 . S
C887 H874 0.929 . S
C887 C879 1.433 . S
C887 N889 1.384 . S
N888 C884 1.427 . S
N888 C885 1.384 . S
N889 C881 1.427 . S
N889 C887 1.384 . S
H890 C896 0.930 . S
H891 C900 0.930 . S
H892 C905 0.929 . S
H893 C903 0.929 . S
H894 C898 0.929 . S
H895 C904 0.929 . S
C896 H890 0.930 . S
C896 C897 1.367 . S
C896 C904 1.378 . S
C897 C896 1.367 . S
C897 C905 1.433 . S
C898 H894 0.929 . S
C898 C900 1.378 . S
C898 C902 1.350 . S
C899 C902 1.463 . S
C899 C904 1.350 . S
C899 N907 1.427 . S
C900 H891 0.930 . S
C900 C898 1.378 . S
C900 C901 1.367 . S
C901 C900 1.367 . S
C901 C903 1.433 . S
C902 C898 1.350 . S
C902 C899 1.463 . S
C902 N906 1.427 . S
C903 H893 0.929 . S
C903 C901 1.433 . S
C903 N906 1.384 . S
C904 H895 0.929 . S
C904 C896 1.378 . S
C904 C899 1.350 . S
C905 H892 0.929 . S
C905 C897 1.433 . S
C905 N907 1.384 . S
N906 C902 1.427 . S
N906 C903 1.384 . S
N907 C899 1.427 . S
N907 C905 1.384 . S
H908 C914 0.930 . S
H909 C918 0.930 . S
H910 C923 0.929 . S
H911 C921 0.929 . S
H912 C916 0.929 . S
H913 C922 0.929 . S
C914 H908 0.930 . S
C914 C915 1.367 . S
C914 C922 1.378 . S
C915 C914 1.367 . S
C915 C923 1.433 . S
C916 H912 0.929 . S
C916 C918 1.378 . S
C916 C920 1.350 . S
C917 C920 1.463 . S
C917 C922 1.350 . S
C917 N925 1.427 . S
C918 H909 0.930 . S
C918 C916 1.378 . S
C918 C919 1.367 . S
C919 C918 1.367 . S
C919 C921 1.433 . S
C920 C916 1.350 . S
C920 C917 1.463 . S
C920 N924 1.427 . S
C921 H911 0.929 . S
C921 C919 1.433 . S
C921 N924 1.384 . S
C922 H913 0.929 . S
C922 C914 1.378 . S
C922 C917 1.350 . S
C923 H910 0.929 . S
C923 C915 1.433 . S
C923 N925 1.384 . S
N924 C920 1.427 . S
N924 C921 1.384 . S
N925 C917 1.427 . S
N925 C923 1.384 . S
H926 C932 0.930 . S
H927 C936 0.930 . S
H928 C941 0.929 . S
H929 C939 0.929 . S
H930 C934 0.929 . S
H931 C940 0.929 . S
C932 H926 0.930 . S
C932 C933 1.367 . S
C932 C940 1.378 . S
C933 C932 1.367 . S
C933 C941 1.433 . S
C934 H930 0.929 . S
C934 C936 1.378 . S
C934 C938 1.350 . S
C935 C938 1.463 . S
C935 C940 1.350 . S
C935 N943 1.427 . S
C936 H927 0.930 . S
C936 C934 1.378 . S
C936 C937 1.367 . S
C937 C936 1.367 . S
C937 C939 1.433 . S
C938 C934 1.350 . S
C938 C935 1.463 . S
C938 N942 1.427 . S
C939 H929 0.929 . S
C939 C937 1.433 . S
C939 N942 1.384 . S
C940 H931 0.929 . S
C940 C932 1.378 . S
C940 C935 1.350 . S
C941 H928 0.929 . S
C941 C933 1.433 . S
C941 N943 1.384 . S
N942 C938 1.427 . S
N942 C939 1.384 . S
N943 C935 1.427 . S
N943 C941 1.384 . S
H944 C950 0.930 . S
H945 C954 0.930 . S
H946 C959 0.929 . S
H947 C957 0.929 . S
H948 C952 0.929 . S
H949 C958 0.929 . S
C950 H944 0.930 . S
C950 C951 1.367 . S
C950 C958 1.378 . S
C951 C950 1.367 . S
C951 C959 1.433 . S
C952 H948 0.929 . S
C952 C954 1.378 . S
C952 C956 1.350 . S
C953 C956 1.463 . S
C953 C958 1.350 . S
C953 N961 1.427 . S
C954 H945 0.930 . S
C954 C952 1.378 . S
C954 C955 1.367 . S
C955 C954 1.367 . S
C955 C957 1.433 . S
C956 C952 1.350 . S
C956 C953 1.463 . S
C956 N960 1.427 . S
C957 H947 0.929 . S
C957 C955 1.433 . S
C957 N960 1.384 . S
C958 H949 0.929 . S
C958 C950 1.378 . S
C958 C953 1.350 . S
C959 H946 0.929 . S
C959 C951 1.433 . S
C959 N961 1.384 . S
N960 C956 1.427 . S
N960 C957 1.384 . S
N961 C953 1.427 . S
N961 C959 1.384 . S
H962 C968 0.930 . S
H963 C972 0.930 . S
H964 C977 0.929 . S
H965 C975 0.929 . S
H966 C970 0.929 . S
H967 C976 0.929 . S
C968 H962 0.930 . S
C968 C969 1.367 . S
C968 C976 1.378 . S
C969 C968 1.367 . S
C969 C977 1.433 . S
C970 H966 0.929 . S
C970 C972 1.378 . S
C970 C974 1.350 . S
C971 C974 1.463 . S
C971 C976 1.350 . S
C971 N979 1.427 . S
C972 H963 0.930 . S
C972 C970 1.378 . S
C972 C973 1.367 . S
C973 C972 1.367 . S
C973 C975 1.433 . S
C974 C970 1.350 . S
C974 C971 1.463 . S
C974 N978 1.427 . S
C975 H965 0.929 . S
C975 C973 1.433 . S
C975 N978 1.384 . S
C976 H967 0.929 . S
C976 C968 1.378 . S
C976 C971 1.350 . S
C977 H964 0.929 . S
C977 C969 1.433 . S
C977 N979 1.384 . S
N978 C974 1.427 . S
N978 C975 1.384 . S
N979 C971 1.427 . S
N979 C977 1.384 . S
H980 C986 0.930 . S
H981 C990 0.930 . S
H982 C995 0.929 . S
H983 C993 0.929 . S
H984 C988 0.929 . S
H985 C994 0.929 . S
C986 H980 0.930 . S
C986 C987 1.367 . S
C986 C994 1.378 . S
C987 C986 1.367 . S
C987 C995 1.433 . S
C988 H984 0.929 . S
C988 C990 1.378 . S
C988 C992 1.350 . S
C989 C992 1.463 . S
C989 C994 1.350 . S
C989 N997 1.427 . S
C990 H981 0.930 . S
C990 C988 1.378 . S
C990 C991 1.367 . S
C991 C990 1.367 . S
C991 C993 1.433 . S
C992 C988 1.350 . S
C992 C989 1.463 . S
C992 N996 1.427 . S
C993 H983 0.929 . S
C993 C991 1.433 . S
C993 N996 1.384 . S
C994 H985 0.929 . S
C994 C986 1.378 . S
C994 C989 1.350 . S
C995 H982 0.929 . S
C995 C987 1.433 . S
C995 N997 1.384 . S
N996 C992 1.427 . S
N996 C993 1.384 . S
N997 C989 1.427 . S
N997 C995 1.384 . S
H998 C1004 0.930 . S
H999 C1008 0.930 . S
H1000 C1013 0.929 . S
H1001 C1011 0.929 . S
H1002 C1006 0.929 . S
H1003 C1012 0.929 . S
C1004 H998 0.930 . S
C1004 C1005 1.367 . S
C1004 C1012 1.378 . S
C1005 C1004 1.367 . S
C1005 C1013 1.433 . S
C1006 H1002 0.929 . S
C1006 C1008 1.378 . S
C1006 C1010 1.350 . S
C1007 C1010 1.463 . S
C1007 C1012 1.350 . S
C1007 N1015 1.427 . S
C1008 H999 0.930 . S
C1008 C1006 1.378 . S
C1008 C1009 1.367 . S
C1009 C1008 1.367 . S
C1009 C1011 1.433 . S
C1010 C1006 1.350 . S
C1010 C1007 1.463 . S
C1010 N1014 1.427 . S
C1011 H1001 0.929 . S
C1011 C1009 1.433 . S
C1011 N1014 1.384 . S
C1012 H1003 0.929 . S
C1012 C1004 1.378 . S
C1012 C1007 1.350 . S
C1013 H1000 0.929 . S
C1013 C1005 1.433 . S
C1013 N1015 1.384 . S
N1014 C1010 1.427 . S
N1014 C1011 1.384 . S
N1015 C1007 1.427 . S
N1015 C1013 1.384 . S
H1016 C1022 0.930 . S
H1017 C1026 0.930 . S
H1018 C1031 0.929 . S
H1019 C1029 0.929 . S
H1020 C1024 0.929 . S
H1021 C1030 0.929 . S
C1022 H1016 0.930 . S
C1022 C1023 1.367 . S
C1022 C1030 1.378 . S
C1023 C1022 1.367 . S
C1023 C1031 1.433 . S
C1024 H1020 0.929 . S
C1024 C1026 1.378 . S
C1024 C1028 1.350 . S
C1025 C1028 1.463 . S
C1025 C1030 1.350 . S
C1025 N1033 1.427 . S
C1026 H1017 0.930 . S
C1026 C1024 1.378 . S
C1026 C1027 1.367 . S
C1027 C1026 1.367 . S
C1027 C1029 1.433 . S
C1028 C1024 1.350 . S
C1028 C1025 1.463 . S
C1028 N1032 1.427 . S
C1029 H1019 0.929 . S
C1029 C1027 1.433 . S
C1029 N1032 1.384 . S
C1030 H1021 0.929 . S
C1030 C1022 1.378 . S
C1030 C1025 1.350 . S
C1031 H1018 0.929 . S
C1031 C1023 1.433 . S
C1031 N1033 1.384 . S
N1032 C1028 1.427 . S
N1032 C1029 1.384 . S
N1033 C1025 1.427 . S
N1033 C1031 1.384 . S
H1034 C1040 0.930 . S
H1035 C1044 0.930 . S
H1036 C1049 0.929 . S
H1037 C1047 0.929 . S
H1038 C1042 0.929 . S
H1039 C1048 0.929 . S
C1040 H1034 0.930 . S
C1040 C1041 1.367 . S
C1040 C1048 1.378 . S
C1041 C1040 1.367 . S
C1041 C1049 1.433 . S
C1042 H1038 0.929 . S
C1042 C1044 1.378 . S
C1042 C1046 1.350 . S
C1043 C1046 1.463 . S
C1043 C1048 1.350 . S
C1043 N1051 1.427 . S
C1044 H1035 0.930 . S
C1044 C1042 1.378 . S
C1044 C1045 1.367 . S
C1045 C1044 1.367 . S
C1045 C1047 1.433 . S
C1046 C1042 1.350 . S
C1046 C1043 1.463 . S
C1046 N1050 1.427 . S
C1047 H1037 0.929 . S
C1047 C1045 1.433 . S
C1047 N1050 1.384 . S
C1048 H1039 0.929 . S
C1048 C1040 1.378 . S
C1048 C1043 1.350 . S
C1049 H1036 0.929 . S
C1049 C1041 1.433 . S
C1049 N1051 1.384 . S
N1050 C1046 1.427 . S
N1050 C1047 1.384 . S
N1051 C1043 1.427 . S
N1051 C1049 1.384 . S
H1052 C1058 0.930 . S
H1053 C1062 0.930 . S
H1054 C1067 0.929 . S
H1055 C1065 0.929 . S
H1056 C1060 0.929 . S
H1057 C1066 0.929 . S
C1058 H1052 0.930 . S
C1058 C1059 1.367 . S
C1058 C1066 1.378 . S
C1059 C1058 1.367 . S
C1059 C1067 1.433 . S
C1060 H1056 0.929 . S
C1060 C1062 1.378 . S
C1060 C1064 1.350 . S
C1061 C1064 1.463 . S
C1061 C1066 1.350 . S
C1061 N1069 1.427 . S
C1062 H1053 0.930 . S
C1062 C1060 1.378 . S
C1062 C1063 1.367 . S
C1063 C1062 1.367 . S
C1063 C1065 1.433 . S
C1064 C1060 1.350 . S
C1064 C1061 1.463 . S
C1064 N1068 1.427 . S
C1065 H1055 0.929 . S
C1065 C1063 1.433 . S
C1065 N1068 1.384 . S
C1066 H1057 0.929 . S
C1066 C1058 1.378 . S
C1066 C1061 1.350 . S
C1067 H1054 0.929 . S
C1067 C1059 1.433 . S
C1067 N1069 1.384 . S
N1068 C1064 1.427 . S
N1068 C1065 1.384 . S
N1069 C1061 1.427 . S
N1069 C1067 1.384 . S
C649 C342 1.537 . S
C645 C15 1.538 . S
C667 C411 1.536 . S
C663 C55 1.542 . S
C685 C349 1.570 . S
C681 C101 1.554 . S
C703 C412 1.578 . S
C699 C141 1.573 . S
C721 C465 1.519 . S
C717 C2 1.496 . S
C739 C501 1.520 . S
C735 C61 1.499 . S
C753 C95 1.602 . S
C757 C561 1.597 . S
C775 C624 1.515 . S
C771 C135 1.514 . S
C793 C464 1.505 . S
C789 C42 1.487 . S
C807 C82 1.515 . S
C811 C508 1.538 . S
C829 C554 1.593 . S
C825 C122 1.601 . S
C847 C623 1.533 . S
C843 C21 1.507 . S
C861 C162 1.578 . S
C865 C402 1.576 . S
C883 C359 1.557 . S
C879 C221 1.559 . S
C897 C255 1.547 . S
C901 C395 1.536 . S
C915 C282 1.511 . S
C919 C358 1.524 . S
C937 C570 1.600 . S
C933 C181 1.610 . S
C955 C614 1.526 . S
C951 C202 1.517 . S
C973 C448 1.509 . S
C969 C242 1.506 . S
C987 C301 1.506 . S
C991 C517 1.527 . S
C1009 C571 1.588 . S
C1005 C215 1.596 . S
C1027 C607 1.522 . S
C1023 C261 1.517 . S
C1045 C455 1.509 . S
C1041 C295 1.509 . S
C1059 C175 1.523 . S
C1063 C518 1.521 . S
