# Generated by pormake.
# Topology zzz, (3,6)-cn, num edge types: 1
# Building blocks:
#     Node 0, Type 0, BuildingBlock: OLANEW_clean_sbu_2, # of connection points: 3
#     Node 1, Type 0, BuildingBlock: OLANEW_clean_sbu_2, # of connection points: 3
#     Node 2, Type 0, BuildingBlock: OLANEW_clean_sbu_2, # of connection points: 3
#     Node 3, Type 0, BuildingBlock: OLANEW_clean_sbu_2, # of connection points: 3
#     Node 4, Type 0, BuildingBlock: OLANEW_clean_sbu_2, # of connection points: 3
#     Node 5, Type 0, BuildingBlock: OLANEW_clean_sbu_2, # of connection points: 3
#     Node 6, Type 0, BuildingBlock: OLANEW_clean_sbu_2, # of connection points: 3
#     Node 7, Type 0, BuildingBlock: OLANEW_clean_sbu_2, # of connection points: 3
#     Node 8, Type 1, BuildingBlock: NUHQIS_clean_sbu_0, # of connection points: 6
#     Node 9, Type 1, BuildingBlock: NUHQIS_clean_sbu_0, # of connection points: 6
#     Node 10, Type 1, BuildingBlock: NUHQIS_clean_sbu_0, # of connection points: 6
#     Node 11, Type 1, BuildingBlock: NUHQIS_clean_sbu_0, # of connection points: 6
#     Edge 12, Type (0, 1), BuildingBlock: CIFDUS_clean_linker_0, # of connection points: 2
#     Edge 13, Type (0, 1), BuildingBlock: CIFDUS_clean_linker_0, # of connection points: 2
#     Edge 14, Type (0, 1), BuildingBlock: CIFDUS_clean_linker_0, # of connection points: 2
#     Edge 15, Type (0, 1), BuildingBlock: CIFDUS_clean_linker_0, # of connection points: 2
#     Edge 16, Type (0, 1), BuildingBlock: CIFDUS_clean_linker_0, # of connection points: 2
#     Edge 17, Type (0, 1), BuildingBlock: CIFDUS_clean_linker_0, # of connection points: 2
#     Edge 18, Type (0, 1), BuildingBlock: CIFDUS_clean_linker_0, # of connection points: 2
#     Edge 19, Type (0, 1), BuildingBlock: CIFDUS_clean_linker_0, # of connection points: 2
#     Edge 20, Type (0, 1), BuildingBlock: CIFDUS_clean_linker_0, # of connection points: 2
#     Edge 21, Type (0, 1), BuildingBlock: CIFDUS_clean_linker_0, # of connection points: 2
#     Edge 22, Type (0, 1), BuildingBlock: CIFDUS_clean_linker_0, # of connection points: 2
#     Edge 23, Type (0, 1), BuildingBlock: CIFDUS_clean_linker_0, # of connection points: 2
#     Edge 24, Type (0, 1), BuildingBlock: CIFDUS_clean_linker_0, # of connection points: 2
#     Edge 25, Type (0, 1), BuildingBlock: CIFDUS_clean_linker_0, # of connection points: 2
#     Edge 26, Type (0, 1), BuildingBlock: CIFDUS_clean_linker_0, # of connection points: 2
#     Edge 27, Type (0, 1), BuildingBlock: CIFDUS_clean_linker_0, # of connection points: 2
#     Edge 28, Type (0, 1), BuildingBlock: CIFDUS_clean_linker_0, # of connection points: 2
#     Edge 29, Type (0, 1), BuildingBlock: CIFDUS_clean_linker_0, # of connection points: 2
#     Edge 30, Type (0, 1), BuildingBlock: CIFDUS_clean_linker_0, # of connection points: 2
#     Edge 31, Type (0, 1), BuildingBlock: CIFDUS_clean_linker_0, # of connection points: 2
#     Edge 32, Type (0, 1), BuildingBlock: CIFDUS_clean_linker_0, # of connection points: 2
#     Edge 33, Type (0, 1), BuildingBlock: CIFDUS_clean_linker_0, # of connection points: 2
#     Edge 34, Type (0, 1), BuildingBlock: CIFDUS_clean_linker_0, # of connection points: 2
#     Edge 35, Type (0, 1), BuildingBlock: CIFDUS_clean_linker_0, # of connection points: 2
# Relax obj value: 0.247
# Max RMSD: 0.165
# Mean RMSD: 0.149
data_MOF--net-zzz--node1-OLANEW_clean_sbu_2--node2-NUHQIS_clean_sbu_0--edge1-CIFDUS_clean_linker_0
_symmetry_space_group_name_H-M    P1
_symmetry_Int_Tables_number       1
_symmetry_cell_setting            triclinic
loop_
_symmetry_equiv_pos_as_xyz
'x, y, z'
_cell_length_a     49.919473
_cell_length_b     49.805581
_cell_length_c     14.157476
_cell_angle_alpha  88.738843
_cell_angle_beta   89.954453
_cell_angle_gamma 89.974806
loop_
_atom_site_label
_atom_site_type_symbol
_atom_site_fract_x
_atom_site_fract_y
_atom_site_fract_z
_atom_type_partial_charge
O0 O 0.73998 0.51895 0.23498 0.0
Cd1 Cd 0.69675 0.53766 0.28124 0.0
O2 O 0.73684 0.48755 0.34595 0.0
Cd3 Cd 0.75935 0.45833 0.42999 0.0
O4 O 0.79949 0.45808 0.48898 0.0
C5 C 0.80285 0.4653 0.57358 0.0
O6 O 0.78177 0.47031 0.62596 0.0
C7 C 0.74987 0.49879 0.27892 0.0
C8 C 0.65676 0.53029 0.14708 0.0
O9 O 0.67351 0.5497 0.13905 0.0
O10 O 0.65897 0.51415 0.21845 0.0
O11 O 0.95416 0.72774 0.2443 0.0
Cd12 Cd 0.94038 0.68659 0.32778 0.0
O13 O 0.98268 0.73364 0.35904 0.0
Cd14 Cd 0.00845 0.75956 0.44013 0.0
O15 O 0.01809 0.79917 0.48983 0.0
C16 C 0.0006 0.81728 0.47445 0.0
O17 O 0.97843 0.811 0.43012 0.0
C18 C 0.97228 0.74185 0.28167 0.0
C19 C 0.95805 0.64189 0.23201 0.0
O20 O 0.93623 0.65395 0.20915 0.0
O21 O 0.97152 0.65074 0.30177 0.0
O22 O 0.75695 0.97706 0.3084 0.0
Cd23 Cd 0.79935 0.96769 0.38765 0.0
O24 O 0.7434 0.99754 0.43489 0.0
Cd25 Cd 0.71943 0.02426 0.52222 0.0
O26 O 0.72134 0.05368 0.64343 0.0
C27 C 0.70632 0.05278 0.71669 0.0
O28 O 0.72213 0.05457 0.64348 0.0
C29 C 0.73914 0.99056 0.35039 0.0
C30 C 0.84127 0.9809 0.26529 0.0
O31 O 0.83261 0.95673 0.27288 0.0
O32 O 0.83039 0.99874 0.31673 0.0
O33 O 0.49518 0.76045 0.26848 0.0
Cd34 Cd 0.51372 0.79974 0.34492 0.0
O35 O 0.47919 0.74018 0.39649 0.0
Cd36 Cd 0.49717 0.76343 0.50862 0.0
O37 O 0.50792 0.7295 0.60216 0.0
C38 C 0.48945 0.71204 0.61046 0.0
O39 O 0.466 0.71708 0.57208 0.0
C40 C 0.4822 0.74124 0.30745 0.0
C41 C 0.50831 0.84468 0.22462 0.0
O42 O 0.52825 0.82866 0.2171 0.0
O43 O 0.49108 0.83969 0.28985 0.0
O44 O 0.26178 0.55727 0.1016 0.0
Cd45 Cd 0.30693 0.56211 0.03583 0.0
O46 O 0.25676 0.51934 0.02829 0.0
Cd47 Cd 0.23608 0.4828 0.98635 0.0
O48 O 0.22597 0.44049 0.96956 0.0
C49 C 0.20491 0.42763 0.94756 0.0
O50 O 0.20655 0.40131 0.94514 0.0
C51 C 0.24761 0.53676 0.08425 0.0
C52 C 0.34527 0.55333 0.17682 0.0
O53 O 0.33569 0.57682 0.15989 0.0
O54 O 0.33698 0.53401 0.12616 0.0
O55 O 0.95954 0.28093 0.12188 0.0
Cd56 Cd 0.97611 0.32206 0.04642 0.0
O57 O 0.00256 0.2738 0.13772 0.0
Cd58 Cd 0.03597 0.24625 0.16041 0.0
O59 O 0.046 0.2065 0.11175 0.0
C60 C 0.04547 0.20433 0.02257 0.0
O61 O 0.04152 0.22604 0.96997 0.0
C62 C 0.97855 0.26596 0.1509 0.0
C63 C 0.98695 0.3594 0.1836 0.0
O64 O 0.966 0.36169 0.13184 0.0
O65 O 0.00296 0.33979 0.16983 0.0
O66 O 0.2382 0.9446 0.22426 0.0
Cd67 Cd 0.19073 0.93798 0.19419 0.0
O68 O 0.23798 0.9808 0.13334 0.0
Cd69 Cd 0.2591 0.01188 0.05243 0.0
O70 O 0.29447 0.02263 0.97094 0.0
C71 C 0.29964 0.00788 0.90119 0.0
O72 O 0.28256 0.98892 0.87952 0.0
C73 C 0.25064 0.96439 0.18712 0.0
C74 C 0.16039 0.95839 0.34092 0.0
O75 O 0.17035 0.93469 0.34627 0.0
O76 O 0.16462 0.97249 0.26556 0.0
O77 O 0.56043 0.23766 0.1319 0.0
Cd78 Cd 0.56207 0.19271 0.06675 0.0
O79 O 0.52829 0.25091 0.03619 0.0
Cd80 Cd 0.49469 0.27639 0.99126 0.0
O81 O 0.45215 0.28245 0.96034 0.0
C82 C 0.4379 0.30158 0.92661 0.0
O83 O 0.41196 0.29753 0.91961 0.0
C84 C 0.54396 0.25567 0.10456 0.0
C85 C 0.55242 0.15506 0.21203 0.0
O86 O 0.5762 0.16334 0.19354 0.0
O87 O 0.53322 0.16421 0.16059 0.0
Tb88 Tb 0.02377 0.99088 0.86761 0.0
Eu89 Eu 0.98526 0.02487 0.71697 0.0
C90 C 0.04845 0.0142 0.67997 0.0
C91 C 0.02122 0.05388 0.86728 0.0
C92 C 0.04256 0.93608 0.03326 0.0
C93 C 0.05594 0.88988 0.06675 0.0
C94 C 0.06179 0.91558 0.03046 0.0
C95 C 0.01743 0.93053 0.07416 0.0
C96 C 0.01165 0.90494 0.11115 0.0
C97 C 0.03073 0.88419 0.10716 0.0
C98 C 0.04845 0.96263 0.98931 0.0
O99 O 0.98275 0.97857 0.8934 0.0
O100 O 0.96265 0.01823 0.85349 0.0
O101 O 0.97646 0.98118 0.69333 0.0
O102 O 0.01649 0.96478 0.75001 0.0
C103 C 0.96282 0.99542 0.90143 0.0
O104 O 0.95683 0.05761 0.69314 0.0
O105 O 0.96814 0.03235 0.57708 0.0
O106 O 0.02445 0.01762 0.64331 0.0
O107 O 0.05237 0.00945 0.77079 0.0
O108 O 0.02042 0.03169 0.91903 0.0
O109 O 0.01396 0.05419 0.77844 0.0
C110 C 0.99473 0.96221 0.69895 0.0
O111 O 0.05408 0.96269 0.89943 0.0
O112 O 0.03228 0.9822 0.01013 0.0
C113 C 0.96066 0.07834 0.54339 0.0
C114 C 0.97014 0.12695 0.44283 0.0
C115 C 0.94385 0.11888 0.4656 0.0
C116 C 0.93918 0.09478 0.51551 0.0
C117 C 0.98689 0.08599 0.51946 0.0
C118 C 0.99157 0.11 0.46926 0.0
C119 C 0.95577 0.05416 0.60217 0.0
H120 H 0.07099 0.87434 0.06119 0.0
H121 H 0.08122 0.91932 -0.00137 0.0
H122 H 0.00206 0.94586 0.07693 0.0
H123 H 0.99221 0.90148 0.1431 0.0
H124 H 0.92692 0.13159 0.4475 0.0
H125 H 0.91882 0.08926 0.53415 0.0
H126 H 0.00376 0.0736 0.54086 0.0
H127 H 0.01203 0.11538 0.45174 0.0
Tb128 Tb 0.51342 0.02358 0.80973 0.0
Eu129 Eu 0.49679 0.98757 0.62639 0.0
C130 C 0.50312 0.05002 0.60852 0.0
C131 C 0.4534 0.0164 0.75932 0.0
C132 C 0.5523 0.04084 0.01743 0.0
C133 C 0.57868 0.04881 0.15824 0.0
C134 C 0.55681 0.05528 0.09989 0.0
C135 C 0.56942 0.01956 0.99521 0.0
C136 C 0.59139 0.01342 0.05214 0.0
C137 C 0.5964 0.02813 0.13358 0.0
C138 C 0.53038 0.048 0.95244 0.0
O139 O 0.50156 0.98385 0.86248 0.0
O140 O 0.51387 0.95898 0.73588 0.0
O141 O 0.54027 0.99931 0.60943 0.0
O142 O 0.54826 1.00077 0.76756 0.0
C143 C 0.50854 0.96083 0.82623 0.0
O144 O 0.47913 0.95124 0.57031 0.0
O145 O 0.49415 0.98207 0.47402 0.0
O146 O 0.48666 0.03037 0.59011 0.0
O147 O 0.51877 0.04897 0.68317 0.0
O148 O 0.4717 0.03357 0.78611 0.0
O149 O 0.45965 0.99466 0.71297 0.0
C150 C 0.55709 1.00059 0.68045 0.0
O151 O 0.53783 0.05356 0.86604 0.0
O152 O 0.50987 0.03185 0.95442 0.0
C153 C 0.45446 0.95981 0.43241 0.0
C154 C 0.40387 0.95688 0.34493 0.0
C155 C 0.42516 0.94052 0.31522 0.0
C156 C 0.45027 0.942 0.35875 0.0
C157 C 0.43352 0.97658 0.46093 0.0
C158 C 0.40845 0.97514 0.41762 0.0
C159 C 0.48013 0.96005 0.48293 0.0
H160 H 0.5822 0.06041 0.2209 0.0
H161 H 0.54369 0.07169 0.11838 0.0
H162 H 0.56601 0.00787 0.93301 0.0
H163 H 0.60455 0.99716 0.03237 0.0
H164 H 0.42235 0.92644 0.25884 0.0
H165 H 0.46629 0.92899 0.33607 0.0
H166 H 0.43641 0.99038 0.51817 0.0
H167 H 0.39243 0.98771 0.44327 0.0
Tb168 Tb 0.46639 0.51326 0.78793 0.0
Eu169 Eu 0.50719 0.49082 0.62551 0.0
C170 C 0.44726 0.50413 0.57927 0.0
C171 C 0.47026 0.45196 0.75275 0.0
C172 C 0.43976 0.55423 0.97853 0.0
C173 C 0.4223 0.58382 0.09792 0.0
C174 C 0.41957 0.56099 0.0427 0.0
C175 C 0.46295 0.57 0.97181 0.0
C176 C 0.4656 0.59282 0.02613 0.0
C177 C 0.44514 0.60022 0.08865 0.0
C178 C 0.43621 0.53179 0.91443 0.0
O179 O 0.50304 0.50003 0.85946 0.0
O180 O 0.53319 0.50712 0.73969 0.0
O181 O 0.50251 0.5356 0.60142 0.0
O182 O 0.49229 0.547 0.75311 0.0
C183 C 0.52769 0.50419 0.82983 0.0
O184 O 0.54183 0.46734 0.58295 0.0
O185 O 0.51895 0.4895 0.47712 0.0
O186 O 0.46537 0.48528 0.5718 0.0
O187 O 0.44762 0.52062 0.65042 0.0
O188 O 0.45393 0.47234 0.76339 0.0
O189 O 0.49441 0.45534 0.71747 0.0
C190 C 0.49974 0.55372 0.66694 0.0
O191 O 0.43483 0.53871 0.8254 0.0
O192 O 0.45221 0.51141 0.92797 0.0
C193 C 0.53638 0.44773 0.43429 0.0
C194 C 0.53406 0.40178 0.32221 0.0
C195 C 0.548 0.42478 0.29028 0.0
C196 C 0.54921 0.44758 0.34618 0.0
C197 C 0.52186 0.42508 0.46519 0.0
C198 C 0.52082 0.40226 0.40985 0.0
C199 C 0.53764 0.47167 0.49284 0.0
H200 H 0.40625 0.5891 0.14555 0.0
H201 H 0.40153 0.54898 0.04867 0.0
H202 H 0.47883 0.56493 0.9232 0.0
H203 H 0.48363 0.60479 0.01884 0.0
H204 H 0.5585 0.4249 0.22326 0.0
H205 H 0.56029 0.46502 0.32093 0.0
H206 H 0.51144 0.42499 0.53239 0.0
H207 H 0.50963 0.38496 0.43558 0.0
Tb208 Tb 0.99328 0.46861 0.84115 0.0
Eu209 Eu 0.01892 0.50748 0.67121 0.0
C210 C 0.01038 0.4451 0.64185 0.0
C211 C 0.05523 0.47078 0.81112 0.0
C212 C 0.94785 0.45346 0.0345 0.0
C213 C 0.91136 0.44452 0.14438 0.0
C214 C 0.93432 0.43589 0.09667 0.0
C215 C 0.93854 0.47988 0.02202 0.0
C216 C 0.91554 0.48841 0.06865 0.0
C217 C 0.90138 0.47077 0.12956 0.0
C218 C 0.97022 0.44411 0.97612 0.0
O219 O 0.00357 0.5075 0.89936 0.0
O220 O 0.99557 0.5334 0.76826 0.0
O221 O 0.97671 0.49695 0.62899 0.0
O222 O 0.96026 0.49088 0.77844 0.0
C223 C 0.99647 0.53049 0.86009 0.0
O224 O 0.0429 0.54255 0.63156 0.0
O225 O 0.02278 0.52 0.52325 0.0
O226 O 0.02611 0.4657 0.62411 0.0
O227 O 0.99422 0.44369 0.71562 0.0
O228 O 0.03439 0.45552 0.83003 0.0
O229 O 0.05288 0.49448 0.76872 0.0
C230 C 0.95643 0.49391 0.68728 0.0
O231 O 0.9642 0.44088 0.88757 0.0
O232 O 0.9927 0.45715 0.9851 0.0
C233 C 0.0634 0.54094 0.48161 0.0
C234 C 0.1094 0.54471 0.36666 0.0
C235 C 0.08694 0.56104 0.34782 0.0
C236 C 0.06414 0.55915 0.40485 0.0
C237 C 0.08554 0.52432 0.50018 0.0
C238 C 0.10838 0.5262 0.44319 0.0
C239 C 0.03937 0.53944 0.54106 0.0
H240 H 0.90122 0.43048 0.19168 0.0
H241 H 0.94111 0.41537 0.10663 0.0
H242 H 0.94859 0.4937 0.97363 0.0
H243 H 0.90832 0.50856 0.05374 0.0
H244 H 0.08693 0.57521 0.28867 0.0
H245 H 0.04708 0.57195 0.38913 0.0
H246 H 0.08521 0.51006 0.55911 0.0
H247 H 0.12543 0.51355 0.46022 0.0
H248 H 0.12537 1.00019 0.33367 0.0
H249 H 0.15845 0.93968 0.52281 0.0
H250 H 0.12916 0.95459 0.64942 0.0
H251 H 0.09146 0.98194 0.70194 0.0
H252 H 0.05544 0.03965 0.50926 0.0
H253 H 0.08886 0.02912 0.38893 0.0
C254 C 0.12636 0.9905 0.40294 0.0
C255 C 0.14393 0.96879 0.41877 0.0
C256 C 0.10896 0.99872 0.47476 0.0
C257 C 0.14492 0.95629 0.50866 0.0
C258 C 0.12823 0.96484 0.58116 0.0
C259 C 0.09137 0.99269 0.63444 0.0
C260 C 0.07122 0.01166 0.6145 0.0
C261 C 0.10984 0.98568 0.56449 0.0
C262 C 0.07088 0.02502 0.52608 0.0
C263 C 0.08986 0.0189 0.45721 0.0
H264 H 0.5053 0.13069 0.25915 0.0
H265 H 0.58805 0.13665 0.34448 0.0
H266 H 0.57955 0.10619 0.47853 0.0
H267 H 0.54884 0.07732 0.57033 0.0
H268 H 0.46671 0.0694 0.48087 0.0
H269 H 0.47463 0.10147 0.35038 0.0
C270 C 0.52147 0.12536 0.30712 0.0
C271 C 0.54725 0.13602 0.29182 0.0
C272 C 0.51649 0.10768 0.38384 0.0
C273 C 0.56801 0.12874 0.35442 0.0
C274 C 0.56316 0.11139 0.43137 0.0
C275 C 0.53257 0.08298 0.52319 0.0
C276 C 0.50713 0.07135 0.53583 0.0
C277 C 0.53748 0.10078 0.44686 0.0
C278 C 0.48641 0.07828 0.47281 0.0
C279 C 0.49096 0.09651 0.39805 0.0
H280 H 0.37094 0.50665 0.22376 0.0
H281 H 0.36328 0.58939 0.30455 0.0
H282 H 0.39348 0.58121 0.43752 0.0
H283 H 0.42149 0.55046 0.53256 0.0
H284 H 0.43058 0.46816 0.44908 0.0
H285 H 0.40016 0.47621 0.31605 0.0
C286 C 0.37588 0.5229 0.2704 0.0
C287 C 0.36466 0.54853 0.25456 0.0
C288 C 0.39332 0.51808 0.34679 0.0
C289 C 0.3715 0.56942 0.31525 0.0
C290 C 0.38873 0.56476 0.39153 0.0
C291 C 0.41661 0.53421 0.48578 0.0
C292 C 0.42799 0.50866 0.50129 0.0
C293 C 0.39956 0.53912 0.40848 0.0
C294 C 0.42195 0.48797 0.43888 0.0
C295 C 0.40461 0.49257 0.36273 0.0
H296 H 0.99628 0.34797 0.36766 0.0
H297 H 0.98913 0.41352 0.16554 0.0
H298 H 0.99742 0.44584 0.29009 0.0
H299 H 0.00587 0.45528 0.45654 0.0
H300 H 0.0082 0.39042 0.66288 0.0
H301 H 0.00271 0.35769 0.53687 0.0
C302 C 0.9967 0.36936 0.35142 0.0
C303 C 0.99226 0.37859 0.25832 0.0
C304 C 0.00064 0.38774 0.42389 0.0
C305 C 0.99236 0.4062 0.23724 0.0
C306 C 0.9972 0.42458 0.30818 0.0
C307 C 0.00545 0.43393 0.47357 0.0
C308 C 0.0079 0.42503 0.56796 0.0
C309 C 0.00128 0.41556 0.40166 0.0
C310 C 0.00656 0.39751 0.59021 0.0
C311 C 0.00341 0.37891 0.51837 0.0
H312 H 0.87553 0.94705 0.17849 0.0
H313 H 0.85555 0.03097 0.20126 0.0
H314 H 0.89065 0.04284 0.08742 0.0
H315 H 0.92728 0.02937 0.98207 0.0
H316 H 0.94871 0.94562 0.96657 0.0
H317 H 0.91274 0.93371 0.07652 0.0
C318 C 0.87884 0.96794 0.15845 0.0
C319 C 0.86292 0.98808 0.19802 0.0
C320 C 0.89928 0.97465 0.09405 0.0
C321 C 0.86759 0.01507 0.17201 0.0
C322 C 0.88761 0.02188 0.10671 0.0
C323 C 0.92392 0.00851 0.0023 0.0
C324 C 0.94048 0.98841 0.96575 0.0
C325 C 0.90356 0.00184 0.06723 0.0
C326 C 0.9362 0.96149 0.99367 0.0
C327 C 0.91565 0.95464 0.05657 0.0
H328 H 0.53274 0.85328 0.055 0.0
H329 H 0.47644 0.88849 0.24758 0.0
H330 H 0.47177 0.92774 0.14198 0.0
H331 H 0.48399 0.95216 0.99535 0.0
H332 H 0.53807 0.91561 0.79797 0.0
H333 H 0.5432 0.87668 0.90468 0.0
C334 C 0.51951 0.86958 0.07394 0.0
C335 C 0.50522 0.86816 0.15961 0.0
C336 C 0.51647 0.89178 0.01187 0.0
C337 C 0.4878 0.88923 0.18241 0.0
C338 C 0.48511 0.91164 0.12202 0.0
C339 C 0.4969 0.93566 0.97573 0.0
C340 C 0.51076 0.93682 0.88914 0.0
C341 C 0.49941 0.91317 0.0367 0.0
C342 C 0.52713 0.91516 0.8641 0.0
C343 C 0.53014 0.89294 0.92522 0.0
H344 H 0.60996 0.50288 0.16883 0.0
H345 H 0.65545 0.5504 0.96695 0.0
H346 H 0.61992 0.54567 0.85007 0.0
H347 H 0.57566 0.52878 0.80601 0.0
H348 H 0.52878 0.48357 0.01025 0.0
H349 H 0.56508 0.48664 0.1255 0.0
C350 C 0.61212 0.51206 0.09906 0.0
C351 C 0.63533 0.52688 0.07639 0.0
C352 C 0.59135 0.50974 0.0328 0.0
C353 C 0.63774 0.53895 0.98615 0.0
C354 C 0.61746 0.53623 0.91925 0.0
C355 C 0.57345 0.51947 0.87557 0.0
C356 C 0.54965 0.50586 0.89942 0.0
C357 C 0.59414 0.52178 0.94192 0.0
C358 C 0.5469 0.49423 0.99028 0.0
C359 C 0.56766 0.49593 0.05612 0.0
H360 H 0.94465 0.63037 0.05332 0.0
H361 H 0.99344 0.60251 0.28691 0.0
H362 H 0.00937 0.56488 0.19326 0.0
H363 H 0.00942 0.54011 0.04349 0.0
H364 H 0.96257 0.57055 0.80833 0.0
H365 H 0.94588 0.60696 0.9041 0.0
C366 C 0.95866 0.61598 0.08396 0.0
C367 C 0.96769 0.61902 0.17693 0.0
C368 C 0.96814 0.59492 0.02925 0.0
C369 C 0.98619 0.60051 0.21531 0.0
C370 C 0.99527 0.57902 0.16187 0.0
C371 C 0.99558 0.55477 0.0135 0.0
C372 C 0.98728 0.55271 0.91906 0.0
C373 C 0.9864 0.57605 0.06857 0.0
C374 C 0.96946 0.57186 0.88063 0.0
C375 C 0.9598 0.59263 0.9354 0.0
H376 H 0.00602 0.24185 0.2936 0.0
H377 H 0.93792 0.2313 0.1113 0.0
H378 H 0.92936 0.18706 0.18449 0.0
H379 H 0.94189 0.15114 0.29887 0.0
H380 H 0.00996 0.16257 0.48168 0.0
H381 H 0.01853 0.20624 0.40699 0.0
C382 C 0.98966 0.22961 0.26848 0.0
C383 C 0.97303 0.23947 0.19568 0.0
C384 C 0.98499 0.20428 0.31049 0.0
C385 C 0.95111 0.224 0.16691 0.0
C386 C 0.94628 0.1987 0.20849 0.0
C387 C 0.95849 0.16325 0.32277 0.0
C388 C 0.97533 0.15342 0.39552 0.0
C389 C 0.96315 0.18861 0.28025 0.0
C390 C 0.99695 0.16933 0.42477 0.0
C391 C 0.00176 0.19445 0.38264 0.0
H392 H 0.28759 0.92513 0.21193 0.0
H393 H 0.27818 0.0112 0.20901 0.0
H394 H 0.3254 0.01658 0.24961 0.0
H395 H 0.36871 0.99668 0.29541 0.0
H396 H 0.37756 0.91046 0.30447 0.0
H397 H 0.33141 0.90529 0.25116 0.0
C398 C 0.29598 0.94506 0.21953 0.0
C399 C 0.27956 0.96775 0.20581 0.0
C400 C 0.32304 0.94796 0.24438 0.0
C401 C 0.2906 0.99345 0.21617 0.0
C402 C 0.31753 0.99653 0.24058 0.0
C403 C 0.36053 0.97676 0.28563 0.0
C404 C 0.37656 0.954 0.30441 0.0
C405 C 0.33385 0.97391 0.25605 0.0
C406 C 0.3658 0.92834 0.28974 0.0
C407 C 0.33931 0.92535 0.25995 0.0
H408 H 0.53219 0.30599 0.03584 0.0
H409 H 0.5523 0.26171 0.29144 0.0
H410 H 0.55044 0.3029 0.38123 0.0
H411 H 0.54393 0.35141 0.38713 0.0
H412 H 0.52484 0.39653 0.13263 0.0
H413 H 0.52536 0.35511 0.04217 0.0
C414 C 0.53571 0.30536 0.1114 0.0
C415 C 0.54204 0.28084 0.15725 0.0
C416 C 0.53494 0.32924 0.16255 0.0
C417 C 0.5474 0.28038 0.25465 0.0
C418 C 0.5463 0.30389 0.30608 0.0
C419 C 0.53962 0.35213 0.31202 0.0
C420 C 0.53419 0.3769 0.26667 0.0
C421 C 0.5402 0.32841 0.26075 0.0
C422 C 0.5292 0.37766 0.16894 0.0
C423 C 0.5294 0.354 0.11736 0.0
H424 H 0.21354 0.576 0.13557 0.0
H425 H 0.22328 0.48995 0.14264 0.0
H426 H 0.18052 0.48473 0.22427 0.0
H427 H 0.14127 0.50478 0.30071 0.0
H428 H 0.13293 0.59104 0.30179 0.0
H429 H 0.17414 0.59601 0.21038 0.0
C430 C 0.2062 0.5561 0.15455 0.0
C431 C 0.22122 0.53337 0.13054 0.0
C432 C 0.18191 0.5533 0.20383 0.0
C433 C 0.2116 0.50773 0.15626 0.0
C434 C 0.18732 0.50475 0.20454 0.0
C435 C 0.14854 0.52467 0.28127 0.0
C436 C 0.13403 0.54749 0.30827 0.0
C437 C 0.17243 0.52741 0.22947 0.0
C438 C 0.14351 0.57311 0.28111 0.0
C439 C 0.16718 0.57599 0.22931 0.0
H440 H 0.02107 0.76644 0.28143 0.0
H441 H 0.93989 0.77622 0.18281 0.0
H442 H 0.95089 0.82082 0.11831 0.0
H443 H 0.98325 0.85735 0.09341 0.0
H444 H 0.06353 0.84892 0.20356 0.0
H445 H 0.05302 0.80369 0.26194 0.0
C446 C 0.0056 0.77861 0.24816 0.0
C447 C 0.97949 0.76836 0.23956 0.0
C448 C 0.01191 0.80446 0.21325 0.0
C449 C 0.96009 0.78375 0.19105 0.0
C450 C 0.96633 0.80929 0.15456 0.0
C451 C 0.9984 0.84582 0.13124 0.0
C452 C 0.02418 0.85667 0.14382 0.0
C453 C 0.99211 0.81996 0.1661 0.0
C454 C 0.04365 0.84104 0.19139 0.0
C455 C 0.03762 0.81518 0.22534 0.0
H456 H 0.68861 0.99603 0.41986 0.0
H457 H 0.73534 0.00337 0.16421 0.0
H458 H 0.6954 0.01662 0.0752 0.0
H459 H 0.64713 0.02546 0.06953 0.0
H460 H 0.59969 0.01655 0.32279 0.0
H461 H 0.63989 0.00319 0.41215 0.0
C462 C 0.69002 0.00085 0.34494 0.0
C463 C 0.71484 0.99907 0.29875 0.0
C464 C 0.66687 0.00797 0.29376 0.0
C465 C 0.71639 0.00467 0.20119 0.0
C466 C 0.69361 0.01228 0.15031 0.0
C467 C 0.64569 0.02099 0.14475 0.0
C468 C 0.62068 0.02218 0.18996 0.0
C469 C 0.66876 0.01394 0.19586 0.0
C470 C 0.61889 0.01624 0.28713 0.0
C471 C 0.6418 0.00882 0.33828 0.0
H472 H 0.45892 0.695 0.37202 0.0
H473 H 0.48486 0.73591 0.11566 0.0
H474 H 0.47429 0.69614 0.02509 0.0
H475 H 0.46037 0.649 0.02018 0.0
H476 H 0.4355 0.60766 0.27648 0.0
H477 H 0.44287 0.64854 0.36587 0.0
C478 C 0.46199 0.69539 0.29616 0.0
C479 C 0.47282 0.71843 0.25083 0.0
C480 C 0.45624 0.67235 0.24474 0.0
C481 C 0.47662 0.71848 0.15245 0.0
C482 C 0.47066 0.69572 0.10062 0.0
C483 C 0.45656 0.64897 0.09565 0.0
C484 C 0.44768 0.62534 0.14198 0.0
C485 C 0.46096 0.67241 0.14632 0.0
C486 C 0.44228 0.62566 0.23934 0.0
C487 C 0.44658 0.64897 0.2904 0.0
H488 H 0.79558 0.52795 0.26778 0.0
H489 H 0.76446 0.4479 0.23921 0.0
H490 H 0.809 0.4316 0.19557 0.0
H491 H 0.85606 0.44082 0.15681 0.0
H492 H 0.88806 0.52029 0.19709 0.0
H493 H 0.84397 0.5361 0.24508 0.0
C494 C 0.79869 0.50696 0.25197 0.0
C495 C 0.77692 0.48914 0.25533 0.0
C496 C 0.82444 0.49767 0.22906 0.0
C497 C 0.78105 0.46191 0.23647 0.0
C498 C 0.80646 0.45263 0.21167 0.0
C499 C 0.85364 0.46146 0.17803 0.0
C500 C 0.87541 0.47938 0.17158 0.0
C501 C 0.82826 0.47038 0.20687 0.0
C502 C 0.8716 0.50615 0.19881 0.0
C503 C 0.84638 0.51522 0.22672 0.0
H504 H 0.04489 0.15536 0.11212 0.0
H505 H 0.04518 0.19337 0.83496 0.0
H506 H 0.0391 0.14987 0.76245 0.0
H507 H 0.03053 0.1017 0.77796 0.0
H508 H 0.02959 0.06342 0.05463 0.0
H509 H 0.03926 0.10643 0.12694 0.0
C510 C 0.044 0.15409 0.0358 0.0
C511 C 0.0453 0.17762 0.97913 0.0
C512 C 0.04016 0.12902 0.99445 0.0
C513 C 0.0441 0.17561 0.88034 0.0
C514 C 0.04055 0.15074 0.83872 0.0
C515 C 0.03256 0.10268 0.85409 0.0
C516 C 0.02906 0.07942 0.91081 0.0
C517 C 0.038 0.12742 0.89518 0.0
C518 C 0.03208 0.08104 0.00925 0.0
C519 C 0.03758 0.10563 0.05073 0.0
H520 H 0.34124 0.04094 0.9418 0.0
H521 H 0.31734 0.97808 0.75428 0.0
H522 H 0.36254 0.97649 0.68919 0.0
H523 H 0.40957 0.99028 0.69469 0.0
H524 H 0.43372 0.0527 0.8837 0.0
H525 H 0.38761 0.05721 0.93845 0.0
C526 C 0.34582 0.02711 0.8859 0.0
C527 C 0.326 0.00946 0.85372 0.0
C528 C 0.37194 0.02605 0.84955 0.0
C529 C 0.33225 0.99177 0.78088 0.0
C530 C 0.35812 0.99078 0.74373 0.0
C531 C 0.40476 0.00499 0.74749 0.0
C532 C 0.42513 0.02089 0.78585 0.0
C533 C 0.37826 0.00738 0.77912 0.0
C534 C 0.41845 0.04012 0.85319 0.0
C535 C 0.39209 0.04268 0.88478 0.0
H536 H 0.41011 0.34604 0.87689 0.0
H537 H 0.49112 0.31674 0.90545 0.0
H538 H 0.50833 0.36039 0.85237 0.0
H539 H 0.50017 0.40729 0.79684 0.0
H540 H 0.41869 0.43571 0.77139 0.0
H541 H 0.40198 0.39189 0.82273 0.0
C542 C 0.43158 0.34904 0.87156 0.0
C543 C 0.44922 0.32796 0.89588 0.0
C544 C 0.44129 0.37411 0.84063 0.0
C545 C 0.47697 0.33248 0.88857 0.0
C546 C 0.48686 0.3575 0.85747 0.0
C547 C 0.47877 0.40378 0.80202 0.0
C548 C 0.46071 0.42477 0.78027 0.0
C549 C 0.46918 0.37848 0.83309 0.0
C550 C 0.43305 0.42 0.78814 0.0
C551 C 0.42343 0.39492 0.81749 0.0
H552 H 0.15906 0.40332 0.89724 0.0
H553 H 0.19172 0.48198 0.94635 0.0
H554 H 0.14879 0.50241 0.90563 0.0
H555 H 0.10127 0.49782 0.85571 0.0
H556 H 0.06921 0.41845 0.81436 0.0
H557 H 0.11255 0.39859 0.85158 0.0
C558 C 0.15698 0.42498 0.89917 0.0
C559 C 0.17896 0.44097 0.92439 0.0
C560 C 0.13215 0.43655 0.87656 0.0
C561 C 0.17552 0.46899 0.92669 0.0
C562 C 0.1508 0.48077 0.90336 0.0
C563 C 0.1039 0.47621 0.85464 0.0
C564 C 0.08205 0.45963 0.83259 0.0
C565 C 0.12894 0.46474 0.87791 0.0
C566 C 0.08563 0.43165 0.83205 0.0
C567 C 0.11043 0.42024 0.85309 0.0
H568 H 0.96394 0.85769 0.47934 0.0
H569 H 0.04571 0.83794 0.55259 0.0
H570 H 0.05113 0.88159 0.62456 0.0
H571 H 0.03223 0.924 0.67354 0.0
H572 H 0.95031 0.94424 0.60451 0.0
H573 H 0.94542 0.90158 0.52331 0.0
C574 C 0.983 0.86301 0.51049 0.0
C575 C 0.00432 0.84449 0.51146 0.0
C576 C 0.9859 0.88806 0.55287 0.0
C577 C 0.02892 0.85172 0.55171 0.0
C578 C 0.03204 0.87667 0.5929 0.0
C579 C 0.01322 0.91919 0.64093 0.0
C580 C 0.99155 0.93716 0.64609 0.0
C581 C 0.01055 0.89475 0.5952 0.0
C582 C 0.96727 0.93069 0.60198 0.0
C583 C 0.96446 0.90631 0.55566 0.0
H584 H 0.67037 0.04766 0.57286 0.0
H585 H 0.68553 0.02507 0.86357 0.0
H586 H 0.64159 0.00341 0.87455 0.0
H587 H 0.59775 0.9942 0.80533 0.0
H588 H 0.58038 0.02152 0.52055 0.0
H589 H 0.62587 0.03912 0.50479 0.0
C590 C 0.6642 0.03747 0.63779 0.0
C591 C 0.68122 0.03733 0.71689 0.0
C592 C 0.63844 0.02621 0.64481 0.0
C593 C 0.67278 0.02496 0.80164 0.0
C594 C 0.64769 0.01269 0.80795 0.0
C595 C 0.60412 0.00337 0.73885 0.0
C596 C 0.58578 0.00629 0.66393 0.0
C597 C 0.63021 0.01357 0.73041 0.0
C598 C 0.59426 0.01846 0.57858 0.0
C599 C 0.62029 0.02852 0.56946 0.0
H600 H 0.49401 0.67101 0.49384 0.0
H601 H 0.49852 0.69118 0.78758 0.0
H602 H 0.50386 0.64342 0.83158 0.0
H603 H 0.50412 0.59589 0.78566 0.0
H604 H 0.50034 0.57643 0.49011 0.0
H605 H 0.49824 0.62406 0.44717 0.0
C606 C 0.49657 0.66485 0.56732 0.0
C607 C 0.49591 0.68422 0.6377 0.0
C608 C 0.49973 0.6376 0.59142 0.0
C609 C 0.49916 0.67638 0.73265 0.0
C610 C 0.5021 0.64917 0.75755 0.0
C611 C 0.50318 0.60208 0.71181 0.0
C612 C 0.50223 0.58258 0.64123 0.0
C613 C 0.50198 0.62957 0.68751 0.0
C614 C 0.50119 0.59096 0.54585 0.0
C615 C 0.49985 0.6182 0.52117 0.0
H616 H 0.84824 0.47331 0.47092 0.0
H617 H 0.81831 0.46954 0.75711 0.0
H618 H 0.863 0.47956 0.81705 0.0
H619 H 0.91046 0.48866 0.78842 0.0
H620 H 0.94053 0.49299 0.50229 0.0
H621 H 0.89566 0.48394 0.44197 0.0
C622 C 0.85154 0.4745 0.54646 0.0
C623 C 0.83007 0.47043 0.60964 0.0
C624 C 0.87718 0.48066 0.58032 0.0
C625 C 0.83454 0.4725 0.70714 0.0
C626 C 0.86006 0.47828 0.74142 0.0
C627 C 0.90723 0.48786 0.71276 0.0
C628 C 0.92888 0.49148 0.65002 0.0
C629 C 0.8815 0.4824 0.67866 0.0
C630 C 0.92424 0.4904 0.55222 0.0
C631 C 0.89861 0.48505 0.51766 0.0
loop_
_geom_bond_atom_site_label_1
_geom_bond_atom_site_label_2
_geom_bond_distance
_geom_bond_site_symmetry_2
_ccdc_geom_bond_type
O0 Cd1 2.300 . S
O0 C7 1.275 . S
Cd1 O0 2.300 . S
Cd1 O9 2.381 . S
Cd1 O10 2.378 . S
O2 Cd3 2.385 . S
O2 C7 1.255 . S
Cd3 O2 2.385 . S
Cd3 O4 2.317 . S
O4 Cd3 2.317 . S
O4 C5 1.232 . S
C5 O4 1.232 . S
C5 O6 1.218 . S
O6 C5 1.218 . S
C7 O0 1.275 . S
C7 O2 1.255 . S
C8 O9 1.258 . S
C8 O10 1.256 . S
O9 Cd1 2.381 . S
O9 C8 1.258 . S
O10 Cd1 2.378 . S
O10 C8 1.256 . S
O11 Cd12 2.300 1_655 S
O11 C18 1.275 1_655 S
Cd12 O11 2.300 1_455 S
Cd12 O20 2.381 1_455 S
Cd12 O21 2.378 . S
O13 Cd14 2.385 . S
O13 C18 1.255 . S
Cd14 O13 2.385 . S
Cd14 O15 2.317 . S
O15 Cd14 2.317 . S
O15 C16 1.232 . S
C16 O15 1.232 . S
C16 O17 1.218 . S
O17 C16 1.218 . S
C18 O11 1.275 1_455 S
C18 O13 1.255 . S
C19 O20 1.258 1_455 S
C19 O21 1.256 . S
O20 Cd12 2.381 1_655 S
O20 C19 1.258 1_655 S
O21 Cd12 2.378 . S
O21 C19 1.256 . S
O22 Cd23 2.300 1_565 S
O22 C29 1.275 1_565 S
Cd23 O22 2.300 1_545 S
Cd23 O31 2.381 1_545 S
Cd23 O32 2.378 . S
O24 Cd25 2.385 . S
O24 C29 1.255 . S
Cd25 O24 2.385 . S
Cd25 O26 2.317 . S
O26 Cd25 2.317 . S
O26 C27 1.232 . S
C27 O26 1.232 . S
C27 O28 1.218 . S
O28 C27 1.218 . S
C29 O22 1.275 1_545 S
C29 O24 1.255 . S
C30 O31 1.258 1_545 S
C30 O32 1.256 . S
O31 Cd23 2.381 1_565 S
O31 C30 1.258 1_565 S
O32 Cd23 2.378 . S
O32 C30 1.256 . S
O33 Cd34 2.300 . S
O33 C40 1.275 . S
Cd34 O33 2.300 . S
Cd34 O42 2.381 . S
Cd34 O43 2.378 . S
O35 Cd36 2.385 . S
O35 C40 1.255 . S
Cd36 O35 2.385 . S
Cd36 O37 2.317 . S
O37 Cd36 2.317 . S
O37 C38 1.232 . S
C38 O37 1.232 . S
C38 O39 1.218 . S
O39 C38 1.218 . S
C40 O33 1.275 . S
C40 O35 1.255 . S
C41 O42 1.258 . S
C41 O43 1.256 . S
O42 Cd34 2.381 . S
O42 C41 1.258 . S
O43 Cd34 2.378 . S
O43 C41 1.256 . S
O44 Cd45 2.300 . S
O44 C51 1.275 . S
Cd45 O44 2.300 . S
Cd45 O53 2.381 . S
Cd45 O54 2.378 . S
O46 Cd47 2.385 1_554 S
O46 C51 1.255 . S
Cd47 O46 2.385 1_556 S
Cd47 O48 2.317 . S
O48 Cd47 2.317 . S
O48 C49 1.232 . S
C49 O48 1.232 . S
C49 O50 1.218 . S
O50 C49 1.218 . S
C51 O44 1.275 . S
C51 O46 1.255 . S
C52 O53 1.258 . S
C52 O54 1.256 . S
O53 Cd45 2.381 . S
O53 C52 1.258 . S
O54 Cd45 2.378 . S
O54 C52 1.256 . S
O55 Cd56 2.300 1_655 S
O55 C62 1.275 1_655 S
Cd56 O55 2.300 1_455 S
Cd56 O64 2.381 1_455 S
Cd56 O65 2.378 . S
O57 Cd58 2.385 1_554 S
O57 C62 1.255 . S
Cd58 O57 2.385 1_556 S
Cd58 O59 2.317 . S
O59 Cd58 2.317 . S
O59 C60 1.232 . S
C60 O59 1.232 . S
C60 O61 1.218 . S
O61 C60 1.218 . S
C62 O55 1.275 1_455 S
C62 O57 1.255 . S
C63 O64 1.258 1_455 S
C63 O65 1.256 . S
O64 Cd56 2.381 1_655 S
O64 C63 1.258 1_655 S
O65 Cd56 2.378 . S
O65 C63 1.256 . S
O66 Cd67 2.300 1_565 S
O66 C73 1.275 1_565 S
Cd67 O66 2.300 1_545 S
Cd67 O75 2.381 1_545 S
Cd67 O76 2.378 . S
O68 Cd69 2.385 1_554 S
O68 C73 1.255 . S
Cd69 O68 2.385 1_556 S
Cd69 O70 2.317 . S
O70 Cd69 2.317 . S
O70 C71 1.232 . S
C71 O70 1.232 . S
C71 O72 1.218 . S
O72 C71 1.218 . S
C73 O66 1.275 1_545 S
C73 O68 1.255 . S
C74 O75 1.258 1_545 S
C74 O76 1.256 . S
O75 Cd67 2.381 1_565 S
O75 C74 1.258 1_565 S
O76 Cd67 2.378 . S
O76 C74 1.256 . S
O77 Cd78 2.300 . S
O77 C84 1.275 . S
Cd78 O77 2.300 . S
Cd78 O86 2.381 . S
Cd78 O87 2.378 . S
O79 Cd80 2.385 1_554 S
O79 C84 1.255 . S
Cd80 O79 2.385 1_556 S
Cd80 O81 2.317 . S
O81 Cd80 2.317 . S
O81 C82 1.232 . S
C82 O81 1.232 . S
C82 O83 1.218 . S
O83 C82 1.218 . S
C84 O77 1.275 . S
C84 O79 1.255 . S
C85 O86 1.258 . S
C85 O87 1.256 . S
O86 Cd78 2.381 . S
O86 C85 1.258 . S
O87 Cd78 2.378 . S
O87 C85 1.256 . S
Tb88 C98 2.825 . S
Tb88 O99 2.347 1_455 S
Tb88 O102 2.366 . S
Tb88 O107 2.418 . S
Tb88 O108 2.384 1_565 S
Tb88 O111 2.479 . S
Tb88 O112 2.471 . S
Eu89 O100 2.418 . S
Eu89 O101 2.384 1_545 S
Eu89 O104 2.479 . S
Eu89 O105 2.471 . S
Eu89 O106 2.347 1_655 S
Eu89 O109 2.366 . S
Eu89 C119 2.825 . S
C90 O106 1.259 1_565 S
C90 O107 1.265 . S
C91 O108 1.255 . S
C91 O109 1.265 1_455 S
C92 C94 1.380 1_556 S
C92 C95 1.374 1_556 S
C92 C98 1.507 . S
C93 C94 1.384 . S
C93 C97 1.387 . S
C93 H120 0.930 . S
C94 C92 1.380 1_554 S
C94 C93 1.384 . S
C94 H121 0.931 1_554 S
C95 C92 1.374 1_554 S
C95 C96 1.390 . S
C95 H122 0.930 1_455 S
C96 C95 1.390 . S
C96 C97 1.391 . S
C96 H123 0.930 1_455 S
C97 C93 1.387 . S
C97 C96 1.391 . S
C98 Tb88 2.825 . S
C98 C92 1.507 . S
C98 O111 1.238 . S
C98 O112 1.247 . S
O99 Tb88 2.347 1_655 S
O99 C103 1.259 1_565 S
O100 Eu89 2.418 . S
O100 C103 1.265 . S
O101 Eu89 2.384 1_565 S
O101 C110 1.255 . S
O102 Tb88 2.366 . S
O102 C110 1.265 1_455 S
C103 O99 1.259 1_545 S
C103 O100 1.265 . S
O104 Eu89 2.479 . S
O104 C119 1.238 . S
O105 Eu89 2.471 . S
O105 C119 1.247 . S
O106 Eu89 2.347 1_455 S
O106 C90 1.259 1_545 S
O107 Tb88 2.418 . S
O107 C90 1.265 . S
O108 Tb88 2.384 1_545 S
O108 C91 1.255 . S
O109 Eu89 2.366 . S
O109 C91 1.265 1_655 S
C110 O101 1.255 . S
C110 O102 1.265 1_655 S
O111 Tb88 2.479 . S
O111 C98 1.238 . S
O112 Tb88 2.471 . S
O112 C98 1.247 . S
C113 C116 1.380 . S
C113 C117 1.374 . S
C113 C119 1.507 . S
C114 C115 1.387 . S
C114 C118 1.391 . S
C115 C114 1.387 . S
C115 C116 1.384 . S
C115 H124 0.930 . S
C116 C113 1.380 . S
C116 C115 1.384 . S
C116 H125 0.931 . S
C117 C113 1.374 . S
C117 C118 1.390 . S
C117 H126 0.930 1_655 S
C118 C114 1.391 . S
C118 C117 1.390 . S
C118 H127 0.930 1_655 S
C119 Eu89 2.825 . S
C119 O104 1.238 . S
C119 O105 1.247 . S
C119 C113 1.507 . S
H120 C93 0.930 . S
H121 C94 0.931 1_556 S
H122 C95 0.930 1_655 S
H123 C96 0.930 1_655 S
H124 C115 0.930 . S
H125 C116 0.931 . S
H126 C117 0.930 1_455 S
H127 C118 0.930 1_455 S
Tb128 C138 2.825 . S
Tb128 O139 2.347 1_545 S
Tb128 O142 2.366 . S
Tb128 O147 2.418 . S
Tb128 O148 2.384 . S
Tb128 O151 2.479 . S
Tb128 O152 2.471 . S
Eu129 O140 2.418 . S
Eu129 O141 2.384 . S
Eu129 O144 2.479 . S
Eu129 O145 2.471 . S
Eu129 O146 2.347 1_565 S
Eu129 O149 2.366 . S
Eu129 C159 2.825 . S
C130 O146 1.259 . S
C130 O147 1.265 . S
C131 O148 1.255 . S
C131 O149 1.265 1_545 S
C132 C134 1.380 1_556 S
C132 C135 1.374 1_556 S
C132 C138 1.507 . S
C133 C134 1.384 . S
C133 C137 1.387 . S
C133 H160 0.930 . S
C134 C132 1.380 1_554 S
C134 C133 1.384 . S
C134 H161 0.931 1_554 S
C135 C132 1.374 1_554 S
C135 C136 1.390 . S
C135 H162 0.930 1_545 S
C136 C135 1.390 . S
C136 C137 1.391 . S
C136 H163 0.930 1_545 S
C137 C133 1.387 . S
C137 C136 1.391 . S
C138 Tb128 2.825 . S
C138 C132 1.507 . S
C138 O151 1.238 . S
C138 O152 1.247 . S
O139 Tb128 2.347 1_565 S
O139 C143 1.259 . S
O140 Eu129 2.418 . S
O140 C143 1.265 . S
O141 Eu129 2.384 . S
O141 C150 1.255 . S
O142 Tb128 2.366 . S
O142 C150 1.265 1_545 S
C143 O139 1.259 . S
C143 O140 1.265 . S
O144 Eu129 2.479 . S
O144 C159 1.238 . S
O145 Eu129 2.471 . S
O145 C159 1.247 . S
O146 Eu129 2.347 1_545 S
O146 C130 1.259 . S
O147 Tb128 2.418 . S
O147 C130 1.265 . S
O148 Tb128 2.384 . S
O148 C131 1.255 . S
O149 Eu129 2.366 . S
O149 C131 1.265 1_565 S
C150 O141 1.255 . S
C150 O142 1.265 1_565 S
O151 Tb128 2.479 . S
O151 C138 1.238 . S
O152 Tb128 2.471 . S
O152 C138 1.247 . S
C153 C156 1.380 . S
C153 C157 1.374 . S
C153 C159 1.507 . S
C154 C155 1.387 . S
C154 C158 1.391 . S
C155 C154 1.387 . S
C155 C156 1.384 . S
C155 H164 0.930 . S
C156 C153 1.380 . S
C156 C155 1.384 . S
C156 H165 0.931 . S
C157 C153 1.374 . S
C157 C158 1.390 . S
C157 H166 0.930 1_565 S
C158 C154 1.391 . S
C158 C157 1.390 . S
C158 H167 0.930 1_565 S
C159 Eu129 2.825 . S
C159 O144 1.238 . S
C159 O145 1.247 . S
C159 C153 1.507 . S
H160 C133 0.930 . S
H161 C134 0.931 1_556 S
H162 C135 0.930 1_565 S
H163 C136 0.930 1_565 S
H164 C155 0.930 . S
H165 C156 0.931 . S
H166 C157 0.930 1_545 S
H167 C158 0.930 1_545 S
Tb168 C178 2.825 . S
Tb168 O179 2.347 . S
Tb168 O182 2.366 . S
Tb168 O187 2.418 . S
Tb168 O188 2.384 . S
Tb168 O191 2.479 . S
Tb168 O192 2.471 . S
Eu169 O180 2.418 . S
Eu169 O181 2.384 . S
Eu169 O184 2.479 . S
Eu169 O185 2.471 . S
Eu169 O186 2.347 . S
Eu169 O189 2.366 . S
Eu169 C199 2.825 . S
C170 O186 1.259 . S
C170 O187 1.265 . S
C171 O188 1.255 . S
C171 O189 1.265 . S
C172 C174 1.380 1_556 S
C172 C175 1.374 1_556 S
C172 C178 1.507 . S
C173 C174 1.384 . S
C173 C177 1.387 . S
C173 H200 0.930 . S
C174 C172 1.380 1_554 S
C174 C173 1.384 . S
C174 H201 0.931 1_554 S
C175 C172 1.374 1_554 S
C175 C176 1.390 . S
C175 H202 0.930 . S
C176 C175 1.390 . S
C176 C177 1.391 . S
C176 H203 0.930 . S
C177 C173 1.387 . S
C177 C176 1.391 . S
C178 Tb168 2.825 . S
C178 C172 1.507 . S
C178 O191 1.238 . S
C178 O192 1.247 . S
O179 Tb168 2.347 . S
O179 C183 1.259 . S
O180 Eu169 2.418 . S
O180 C183 1.265 . S
O181 Eu169 2.384 . S
O181 C190 1.255 . S
O182 Tb168 2.366 . S
O182 C190 1.265 . S
C183 O179 1.259 . S
C183 O180 1.265 . S
O184 Eu169 2.479 . S
O184 C199 1.238 . S
O185 Eu169 2.471 . S
O185 C199 1.247 . S
O186 Eu169 2.347 . S
O186 C170 1.259 . S
O187 Tb168 2.418 . S
O187 C170 1.265 . S
O188 Tb168 2.384 . S
O188 C171 1.255 . S
O189 Eu169 2.366 . S
O189 C171 1.265 . S
C190 O181 1.255 . S
C190 O182 1.265 . S
O191 Tb168 2.479 . S
O191 C178 1.238 . S
O192 Tb168 2.471 . S
O192 C178 1.247 . S
C193 C196 1.380 . S
C193 C197 1.374 . S
C193 C199 1.507 . S
C194 C195 1.387 . S
C194 C198 1.391 . S
C195 C194 1.387 . S
C195 C196 1.384 . S
C195 H204 0.930 . S
C196 C193 1.380 . S
C196 C195 1.384 . S
C196 H205 0.931 . S
C197 C193 1.374 . S
C197 C198 1.390 . S
C197 H206 0.930 . S
C198 C194 1.391 . S
C198 C197 1.390 . S
C198 H207 0.930 . S
C199 Eu169 2.825 . S
C199 O184 1.238 . S
C199 O185 1.247 . S
C199 C193 1.507 . S
H200 C173 0.930 . S
H201 C174 0.931 1_556 S
H202 C175 0.930 . S
H203 C176 0.930 . S
H204 C195 0.930 . S
H205 C196 0.931 . S
H206 C197 0.930 . S
H207 C198 0.930 . S
Tb208 C218 2.825 . S
Tb208 O219 2.347 . S
Tb208 O222 2.366 . S
Tb208 O227 2.418 . S
Tb208 O228 2.384 1_655 S
Tb208 O231 2.479 . S
Tb208 O232 2.471 . S
Eu209 O220 2.418 . S
Eu209 O221 2.384 1_455 S
Eu209 O224 2.479 . S
Eu209 O225 2.471 . S
Eu209 O226 2.347 . S
Eu209 O229 2.366 . S
Eu209 C239 2.825 . S
C210 O226 1.259 1_655 S
C210 O227 1.265 . S
C211 O228 1.255 . S
C211 O229 1.265 . S
C212 C214 1.380 1_556 S
C212 C215 1.374 1_556 S
C212 C218 1.507 . S
C213 C214 1.384 . S
C213 C217 1.387 . S
C213 H240 0.930 . S
C214 C212 1.380 1_554 S
C214 C213 1.384 . S
C214 H241 0.931 1_554 S
C215 C212 1.374 1_554 S
C215 C216 1.390 . S
C215 H242 0.930 . S
C216 C215 1.390 . S
C216 C217 1.391 . S
C216 H243 0.930 . S
C217 C213 1.387 . S
C217 C216 1.391 . S
C218 Tb208 2.825 . S
C218 C212 1.507 . S
C218 O231 1.238 . S
C218 O232 1.247 . S
O219 Tb208 2.347 . S
O219 C223 1.259 1_655 S
O220 Eu209 2.418 . S
O220 C223 1.265 . S
O221 Eu209 2.384 1_655 S
O221 C230 1.255 . S
O222 Tb208 2.366 . S
O222 C230 1.265 . S
C223 O219 1.259 1_455 S
C223 O220 1.265 . S
O224 Eu209 2.479 . S
O224 C239 1.238 . S
O225 Eu209 2.471 . S
O225 C239 1.247 . S
O226 Eu209 2.347 . S
O226 C210 1.259 1_455 S
O227 Tb208 2.418 . S
O227 C210 1.265 . S
O228 Tb208 2.384 1_455 S
O228 C211 1.255 . S
O229 Eu209 2.366 . S
O229 C211 1.265 . S
C230 O221 1.255 . S
C230 O222 1.265 . S
O231 Tb208 2.479 . S
O231 C218 1.238 . S
O232 Tb208 2.471 . S
O232 C218 1.247 . S
C233 C236 1.380 . S
C233 C237 1.374 . S
C233 C239 1.507 . S
C234 C235 1.387 . S
C234 C238 1.391 . S
C235 C234 1.387 . S
C235 C236 1.384 . S
C235 H244 0.930 . S
C236 C233 1.380 . S
C236 C235 1.384 . S
C236 H245 0.931 . S
C237 C233 1.374 . S
C237 C238 1.390 . S
C237 H246 0.930 . S
C238 C234 1.391 . S
C238 C237 1.390 . S
C238 H247 0.930 . S
C239 Eu209 2.825 . S
C239 O224 1.238 . S
C239 O225 1.247 . S
C239 C233 1.507 . S
H240 C213 0.930 . S
H241 C214 0.931 1_556 S
H242 C215 0.930 . S
H243 C216 0.930 . S
H244 C235 0.930 . S
H245 C236 0.931 . S
H246 C237 0.930 . S
H247 C238 0.930 . S
H248 C254 0.930 . S
H249 C257 0.930 . S
H250 C258 0.930 . S
H251 C259 0.930 . S
H252 C262 0.930 . S
H253 C263 0.930 . S
C254 H248 0.930 . S
C254 C255 1.358 . S
C254 C256 1.415 . S
C255 C254 1.358 . S
C255 C257 1.416 1_545 S
C256 C254 1.415 . S
C256 C261 1.425 1_545 S
C256 C263 1.409 . S
C257 H249 0.930 . S
C257 C255 1.416 1_565 S
C257 C258 1.362 . S
C258 H250 0.930 . S
C258 C257 1.362 . S
C258 C261 1.409 . S
C259 H251 0.930 . S
C259 C260 1.354 1_565 S
C259 C261 1.415 . S
C260 C259 1.354 1_545 S
C260 C262 1.420 . S
C261 C256 1.425 1_565 S
C261 C258 1.409 . S
C261 C259 1.415 . S
C262 H252 0.930 . S
C262 C260 1.420 . S
C262 C263 1.362 . S
C263 H253 0.930 . S
C263 C256 1.409 . S
C263 C262 1.362 . S
H264 C270 0.930 . S
H265 C273 0.930 . S
H266 C274 0.930 . S
H267 C275 0.930 . S
H268 C278 0.930 . S
H269 C279 0.930 . S
C270 H264 0.930 . S
C270 C271 1.355 . S
C270 C272 1.415 . S
C271 C270 1.355 . S
C271 C273 1.419 . S
C272 C270 1.415 . S
C272 C277 1.425 . S
C272 C279 1.409 . S
C273 H265 0.930 . S
C273 C271 1.419 . S
C273 C274 1.362 . S
C274 H266 0.930 . S
C274 C273 1.362 . S
C274 C277 1.409 . S
C275 H267 0.930 . S
C275 C276 1.355 . S
C275 C277 1.415 . S
C276 C275 1.355 . S
C276 C278 1.419 . S
C277 C272 1.425 . S
C277 C274 1.409 . S
C277 C275 1.415 . S
C278 H268 0.930 . S
C278 C276 1.419 . S
C278 C279 1.362 . S
C279 H269 0.930 . S
C279 C272 1.409 . S
C279 C278 1.362 . S
H280 C286 0.930 . S
H281 C289 0.930 . S
H282 C290 0.930 . S
H283 C291 0.930 . S
H284 C294 0.930 . S
H285 C295 0.930 . S
C286 H280 0.930 . S
C286 C287 1.355 . S
C286 C288 1.415 . S
C287 C286 1.355 . S
C287 C289 1.419 . S
C288 C286 1.415 . S
C288 C293 1.425 . S
C288 C295 1.409 . S
C289 H281 0.930 . S
C289 C287 1.419 . S
C289 C290 1.362 . S
C290 H282 0.930 . S
C290 C289 1.362 . S
C290 C293 1.409 . S
C291 H283 0.930 . S
C291 C292 1.355 . S
C291 C293 1.415 . S
C292 C291 1.355 . S
C292 C294 1.419 . S
C293 C288 1.425 . S
C293 C290 1.409 . S
C293 C291 1.415 . S
C294 H284 0.930 . S
C294 C292 1.419 . S
C294 C295 1.362 . S
C295 H285 0.930 . S
C295 C288 1.409 . S
C295 C294 1.362 . S
H296 C302 0.930 . S
H297 C305 0.930 . S
H298 C306 0.930 . S
H299 C307 0.930 . S
H300 C310 0.930 . S
H301 C311 0.930 . S
C302 H296 0.930 . S
C302 C303 1.355 1_455 S
C302 C304 1.415 . S
C303 C302 1.355 1_655 S
C303 C305 1.419 . S
C304 C302 1.415 . S
C304 C309 1.425 1_455 S
C304 C311 1.409 . S
C305 H297 0.930 . S
C305 C303 1.419 . S
C305 C306 1.362 . S
C306 H298 0.930 . S
C306 C305 1.362 . S
C306 C309 1.409 . S
C307 H299 0.930 . S
C307 C308 1.355 1_655 S
C307 C309 1.415 . S
C308 C307 1.355 1_455 S
C308 C310 1.419 . S
C309 C304 1.425 1_655 S
C309 C306 1.409 . S
C309 C307 1.415 . S
C310 H300 0.930 . S
C310 C308 1.419 . S
C310 C311 1.362 . S
C311 H301 0.930 . S
C311 C304 1.409 . S
C311 C310 1.362 . S
H312 C318 0.930 . S
H313 C321 0.930 . S
H314 C322 0.930 . S
H315 C323 0.930 . S
H316 C326 0.930 . S
H317 C327 0.930 . S
C318 H312 0.930 . S
C318 C319 1.355 1_565 S
C318 C320 1.415 . S
C319 C318 1.355 1_545 S
C319 C321 1.419 . S
C320 C318 1.415 . S
C320 C325 1.425 1_565 S
C320 C327 1.409 . S
C321 H313 0.930 . S
C321 C319 1.419 . S
C321 C322 1.362 . S
C322 H314 0.930 . S
C322 C321 1.362 . S
C322 C325 1.409 . S
C323 H315 0.930 . S
C323 C324 1.355 1_545 S
C323 C325 1.415 1_556 S
C324 C323 1.355 1_565 S
C324 C326 1.419 1_556 S
C325 C320 1.425 1_545 S
C325 C322 1.409 . S
C325 C323 1.415 1_554 S
C326 H316 0.930 . S
C326 C324 1.419 1_554 S
C326 C327 1.362 . S
C327 H317 0.930 . S
C327 C320 1.409 . S
C327 C326 1.362 . S
H328 C334 0.930 . S
H329 C337 0.930 . S
H330 C338 0.930 . S
H331 C339 0.930 . S
H332 C342 0.930 . S
H333 C343 0.930 . S
C334 H328 0.930 . S
C334 C335 1.355 . S
C334 C336 1.415 . S
C335 C334 1.355 . S
C335 C337 1.419 . S
C336 C334 1.415 . S
C336 C341 1.425 . S
C336 C343 1.409 1_554 S
C337 H329 0.930 . S
C337 C335 1.419 . S
C337 C338 1.362 . S
C338 H330 0.930 . S
C338 C337 1.362 . S
C338 C341 1.409 . S
C339 H331 0.930 . S
C339 C340 1.355 1_554 S
C339 C341 1.415 . S
C340 C339 1.355 1_556 S
C340 C342 1.419 . S
C341 C336 1.425 . S
C341 C338 1.409 . S
C341 C339 1.415 . S
C342 H332 0.930 . S
C342 C340 1.419 . S
C342 C343 1.362 . S
C343 H333 0.930 . S
C343 C336 1.409 1_556 S
C343 C342 1.362 . S
H344 C350 0.930 . S
H345 C353 0.930 . S
H346 C354 0.930 . S
H347 C355 0.930 . S
H348 C358 0.930 . S
H349 C359 0.930 . S
C350 H344 0.930 . S
C350 C351 1.355 . S
C350 C352 1.415 . S
C351 C350 1.355 . S
C351 C353 1.419 . S
C352 C350 1.415 . S
C352 C357 1.425 . S
C352 C359 1.409 . S
C353 H345 0.930 . S
C353 C351 1.419 . S
C353 C354 1.362 . S
C354 H346 0.930 . S
C354 C353 1.362 . S
C354 C357 1.409 . S
C355 H347 0.930 . S
C355 C356 1.355 . S
C355 C357 1.415 1_556 S
C356 C355 1.355 . S
C356 C358 1.419 . S
C357 C352 1.425 . S
C357 C354 1.409 . S
C357 C355 1.415 1_554 S
C358 H348 0.930 . S
C358 C356 1.419 . S
C358 C359 1.362 1_556 S
C359 H349 0.930 . S
C359 C352 1.409 . S
C359 C358 1.362 1_554 S
H360 C366 0.931 . S
H361 C369 0.930 . S
H362 C370 0.930 . S
H363 C371 0.930 . S
H364 C374 0.930 . S
H365 C375 0.930 . S
C366 H360 0.931 . S
C366 C367 1.355 . S
C366 C368 1.414 1_455 S
C367 C366 1.355 . S
C367 C369 1.419 . S
C368 C366 1.414 1_655 S
C368 C373 1.425 . S
C368 C375 1.410 . S
C369 H361 0.930 . S
C369 C367 1.419 . S
C369 C370 1.362 . S
C370 H362 0.930 . S
C370 C369 1.362 . S
C370 C373 1.408 1_455 S
C371 H363 0.930 . S
C371 C372 1.355 . S
C371 C373 1.417 1_556 S
C372 C371 1.355 . S
C372 C374 1.419 1_556 S
C373 C368 1.425 . S
C373 C370 1.408 1_655 S
C373 C371 1.417 1_554 S
C374 H364 0.930 . S
C374 C372 1.419 1_554 S
C374 C375 1.362 . S
C375 H365 0.930 . S
C375 C368 1.410 . S
C375 C374 1.362 . S
H376 C382 0.930 . S
H377 C385 0.930 . S
H378 C386 0.930 . S
H379 C387 0.930 . S
H380 C390 0.930 1_455 S
H381 C391 0.930 . S
C382 H376 0.930 . S
C382 C383 1.355 1_455 S
C382 C384 1.415 1_455 S
C383 C382 1.355 1_655 S
C383 C385 1.419 . S
C384 C382 1.415 1_655 S
C384 C389 1.425 . S
C384 C391 1.409 1_655 S
C385 H377 0.930 . S
C385 C383 1.419 . S
C385 C386 1.362 . S
C386 H378 0.930 . S
C386 C385 1.362 . S
C386 C389 1.409 . S
C387 H379 0.930 . S
C387 C388 1.355 . S
C387 C389 1.415 . S
C388 C387 1.355 . S
C388 C390 1.419 . S
C389 C384 1.425 . S
C389 C386 1.409 . S
C389 C387 1.415 . S
C390 H380 0.930 1_655 S
C390 C388 1.419 . S
C390 C391 1.362 1_655 S
C391 H381 0.930 . S
C391 C384 1.409 1_455 S
C391 C390 1.362 1_455 S
H392 C398 0.930 . S
H393 C401 0.930 . S
H394 C402 0.930 . S
H395 C403 0.930 . S
H396 C406 0.930 . S
H397 C407 0.930 . S
C398 H392 0.930 . S
C398 C399 1.355 1_565 S
C398 C400 1.415 . S
C399 C398 1.355 1_545 S
C399 C401 1.419 . S
C400 C398 1.415 . S
C400 C405 1.425 . S
C400 C407 1.409 . S
C401 H393 0.930 . S
C401 C399 1.419 . S
C401 C402 1.362 . S
C402 H394 0.930 . S
C402 C401 1.362 . S
C402 C405 1.409 1_545 S
C403 H395 0.930 . S
C403 C404 1.355 . S
C403 C405 1.415 . S
C404 C403 1.355 . S
C404 C406 1.419 . S
C405 C400 1.425 . S
C405 C402 1.409 1_565 S
C405 C403 1.415 . S
C406 H396 0.930 . S
C406 C404 1.419 . S
C406 C407 1.362 . S
C407 H397 0.930 . S
C407 C400 1.409 . S
C407 C406 1.362 . S
H408 C414 0.930 . S
H409 C417 0.930 . S
H410 C418 0.930 . S
H411 C419 0.930 . S
H412 C422 0.930 . S
H413 C423 0.930 . S
C414 H408 0.930 . S
C414 C415 1.355 . S
C414 C416 1.415 . S
C415 C414 1.355 . S
C415 C417 1.419 . S
C416 C414 1.415 . S
C416 C421 1.425 . S
C416 C423 1.409 . S
C417 H409 0.930 . S
C417 C415 1.419 . S
C417 C418 1.362 . S
C418 H410 0.930 . S
C418 C417 1.362 . S
C418 C421 1.409 . S
C419 H411 0.930 . S
C419 C420 1.355 . S
C419 C421 1.415 . S
C420 C419 1.355 . S
C420 C422 1.419 . S
C421 C416 1.425 . S
C421 C418 1.409 . S
C421 C419 1.415 . S
C422 H412 0.930 . S
C422 C420 1.419 . S
C422 C423 1.362 . S
C423 H413 0.930 . S
C423 C416 1.409 . S
C423 C422 1.362 . S
H424 C430 0.930 . S
H425 C433 0.930 . S
H426 C434 0.930 . S
H427 C435 0.930 . S
H428 C438 0.930 . S
H429 C439 0.930 . S
C430 H424 0.930 . S
C430 C431 1.355 . S
C430 C432 1.415 . S
C431 C430 1.355 . S
C431 C433 1.419 . S
C432 C430 1.415 . S
C432 C437 1.425 . S
C432 C439 1.409 . S
C433 H425 0.930 . S
C433 C431 1.419 . S
C433 C434 1.362 . S
C434 H426 0.930 . S
C434 C433 1.362 . S
C434 C437 1.409 . S
C435 H427 0.930 . S
C435 C436 1.355 . S
C435 C437 1.415 . S
C436 C435 1.355 . S
C436 C438 1.419 . S
C437 C432 1.425 . S
C437 C434 1.409 . S
C437 C435 1.415 . S
C438 H428 0.930 . S
C438 C436 1.419 . S
C438 C439 1.362 . S
C439 H429 0.930 . S
C439 C432 1.409 . S
C439 C438 1.362 . S
H440 C446 0.930 . S
H441 C449 0.930 . S
H442 C450 0.930 . S
H443 C451 0.930 1_655 S
H444 C454 0.930 . S
H445 C455 0.930 . S
C446 H440 0.930 . S
C446 C447 1.355 1_455 S
C446 C448 1.415 . S
C447 C446 1.355 1_655 S
C447 C449 1.419 . S
C448 C446 1.415 . S
C448 C453 1.425 . S
C448 C455 1.409 . S
C449 H441 0.930 . S
C449 C447 1.419 . S
C449 C450 1.362 . S
C450 H442 0.930 . S
C450 C449 1.362 . S
C450 C453 1.409 1_655 S
C451 H443 0.930 1_455 S
C451 C452 1.355 . S
C451 C453 1.415 . S
C452 C451 1.355 . S
C452 C454 1.419 . S
C453 C448 1.425 . S
C453 C450 1.409 1_455 S
C453 C451 1.415 . S
C454 H444 0.930 . S
C454 C452 1.419 . S
C454 C455 1.362 . S
C455 H445 0.930 . S
C455 C448 1.409 . S
C455 C454 1.362 . S
H456 C462 0.946 . S
H457 C465 0.930 . S
H458 C466 0.930 . S
H459 C467 0.930 . S
H460 C470 0.930 . S
H461 C471 0.930 . S
C462 H456 0.946 . S
C462 C463 1.355 . S
C462 C464 1.400 1_565 S
C463 C462 1.355 . S
C463 C465 1.410 1_565 S
C464 C462 1.400 1_545 S
C464 C469 1.425 . S
C464 C471 1.409 . S
C465 H457 0.930 . S
C465 C463 1.410 1_545 S
C465 C466 1.362 . S
C466 H458 0.930 . S
C466 C465 1.362 . S
C466 C469 1.409 . S
C467 H459 0.930 . S
C467 C468 1.355 . S
C467 C469 1.415 . S
C468 C467 1.355 . S
C468 C470 1.419 . S
C469 C464 1.425 . S
C469 C466 1.409 . S
C469 C467 1.415 . S
C470 H460 0.930 . S
C470 C468 1.419 . S
C470 C471 1.362 . S
C471 H461 0.930 . S
C471 C464 1.409 . S
C471 C470 1.362 . S
H472 C478 0.930 . S
H473 C481 0.930 . S
H474 C482 0.930 . S
H475 C483 0.930 . S
H476 C486 0.930 . S
H477 C487 0.930 . S
C478 H472 0.930 . S
C478 C479 1.355 . S
C478 C480 1.415 . S
C479 C478 1.355 . S
C479 C481 1.419 . S
C480 C478 1.415 . S
C480 C485 1.425 . S
C480 C487 1.409 . S
C481 H473 0.930 . S
C481 C479 1.419 . S
C481 C482 1.362 . S
C482 H474 0.930 . S
C482 C481 1.362 . S
C482 C485 1.409 . S
C483 H475 0.930 . S
C483 C484 1.355 . S
C483 C485 1.415 . S
C484 C483 1.355 . S
C484 C486 1.419 . S
C485 C480 1.425 . S
C485 C482 1.409 . S
C485 C483 1.415 . S
C486 H476 0.930 . S
C486 C484 1.419 . S
C486 C487 1.362 . S
C487 H477 0.930 . S
C487 C480 1.409 . S
C487 C486 1.362 . S
H488 C494 0.930 . S
H489 C497 0.930 . S
H490 C498 0.930 . S
H491 C499 0.930 . S
H492 C502 0.930 . S
H493 C503 0.930 . S
C494 H488 0.930 . S
C494 C495 1.355 . S
C494 C496 1.415 . S
C495 C494 1.355 . S
C495 C497 1.419 . S
C496 C494 1.415 . S
C496 C501 1.425 . S
C496 C503 1.409 . S
C497 H489 0.930 . S
C497 C495 1.419 . S
C497 C498 1.362 . S
C498 H490 0.930 . S
C498 C497 1.362 . S
C498 C501 1.409 . S
C499 H491 0.930 . S
C499 C500 1.355 . S
C499 C501 1.415 . S
C500 C499 1.355 . S
C500 C502 1.419 . S
C501 C496 1.425 . S
C501 C498 1.409 . S
C501 C499 1.415 . S
C502 H492 0.930 . S
C502 C500 1.419 . S
C502 C503 1.362 . S
C503 H493 0.930 . S
C503 C496 1.409 . S
C503 C502 1.362 . S
H504 C510 0.930 . S
H505 C513 0.930 . S
H506 C514 0.930 . S
H507 C515 0.930 . S
H508 C518 0.930 . S
H509 C519 0.930 . S
C510 H504 0.930 . S
C510 C511 1.354 1_455 S
C510 C512 1.415 . S
C511 C510 1.354 1_655 S
C511 C513 1.420 . S
C512 C510 1.415 . S
C512 C517 1.425 1_455 S
C512 C519 1.409 . S
C513 H505 0.930 . S
C513 C511 1.420 . S
C513 C514 1.362 . S
C514 H506 0.930 . S
C514 C513 1.362 . S
C514 C517 1.409 . S
C515 H507 0.930 . S
C515 C516 1.355 1_655 S
C515 C517 1.415 . S
C516 C515 1.355 1_455 S
C516 C518 1.419 . S
C517 C512 1.425 1_655 S
C517 C514 1.409 . S
C517 C515 1.415 . S
C518 H508 0.930 . S
C518 C516 1.419 . S
C518 C519 1.362 . S
C519 H509 0.930 . S
C519 C512 1.409 . S
C519 C518 1.362 . S
H520 C526 0.930 . S
H521 C529 0.930 . S
H522 C530 0.930 . S
H523 C531 0.930 . S
H524 C534 0.930 . S
H525 C535 0.930 . S
C526 H520 0.930 . S
C526 C527 1.346 1_545 S
C526 C528 1.415 . S
C527 C526 1.346 1_565 S
C527 C529 1.429 . S
C528 C526 1.415 . S
C528 C533 1.425 1_545 S
C528 C535 1.409 . S
C529 H521 0.930 . S
C529 C527 1.429 . S
C529 C530 1.362 . S
C530 H522 0.930 . S
C530 C529 1.362 . S
C530 C533 1.409 . S
C531 H523 0.930 . S
C531 C532 1.355 1_565 S
C531 C533 1.415 . S
C532 C531 1.355 1_545 S
C532 C534 1.419 . S
C533 C528 1.425 1_565 S
C533 C530 1.409 . S
C533 C531 1.415 . S
C534 H524 0.930 . S
C534 C532 1.419 . S
C534 C535 1.362 . S
C535 H525 0.930 . S
C535 C528 1.409 . S
C535 C534 1.362 . S
H536 C542 0.930 . S
H537 C545 0.930 . S
H538 C546 0.930 . S
H539 C547 0.930 . S
H540 C550 0.930 . S
H541 C551 0.930 . S
C542 H536 0.930 . S
C542 C543 1.355 . S
C542 C544 1.415 . S
C543 C542 1.355 . S
C543 C545 1.419 . S
C544 C542 1.415 . S
C544 C549 1.425 . S
C544 C551 1.409 . S
C545 H537 0.930 . S
C545 C543 1.419 . S
C545 C546 1.362 . S
C546 H538 0.930 . S
C546 C545 1.362 . S
C546 C549 1.409 . S
C547 H539 0.930 . S
C547 C548 1.355 . S
C547 C549 1.415 . S
C548 C547 1.355 . S
C548 C550 1.419 . S
C549 C544 1.425 . S
C549 C546 1.409 . S
C549 C547 1.415 . S
C550 H540 0.930 . S
C550 C548 1.419 . S
C550 C551 1.362 . S
C551 H541 0.930 . S
C551 C544 1.409 . S
C551 C550 1.362 . S
H552 C558 0.930 . S
H553 C561 0.930 . S
H554 C562 0.930 . S
H555 C563 0.930 . S
H556 C566 0.930 . S
H557 C567 0.930 . S
C558 H552 0.930 . S
C558 C559 1.355 . S
C558 C560 1.415 . S
C559 C558 1.355 . S
C559 C561 1.419 . S
C560 C558 1.415 . S
C560 C565 1.425 . S
C560 C567 1.409 . S
C561 H553 0.930 . S
C561 C559 1.419 . S
C561 C562 1.362 . S
C562 H554 0.930 . S
C562 C561 1.362 . S
C562 C565 1.409 . S
C563 H555 0.930 . S
C563 C564 1.355 . S
C563 C565 1.415 . S
C564 C563 1.355 . S
C564 C566 1.419 . S
C565 C560 1.425 . S
C565 C562 1.409 . S
C565 C563 1.415 . S
C566 H556 0.930 . S
C566 C564 1.419 . S
C566 C567 1.362 . S
C567 H557 0.930 . S
C567 C560 1.409 . S
C567 C566 1.362 . S
H568 C574 0.930 . S
H569 C577 0.930 . S
H570 C578 0.930 . S
H571 C579 0.930 . S
H572 C582 0.930 . S
H573 C583 0.930 . S
C574 H568 0.930 . S
C574 C575 1.355 1_455 S
C574 C576 1.415 . S
C575 C574 1.355 1_655 S
C575 C577 1.419 . S
C576 C574 1.415 . S
C576 C581 1.425 1_455 S
C576 C583 1.409 . S
C577 H569 0.930 . S
C577 C575 1.419 . S
C577 C578 1.362 . S
C578 H570 0.930 . S
C578 C577 1.362 . S
C578 C581 1.409 . S
C579 H571 0.930 . S
C579 C580 1.355 . S
C579 C581 1.415 . S
C580 C579 1.355 . S
C580 C582 1.419 1_655 S
C581 C576 1.425 1_655 S
C581 C578 1.409 . S
C581 C579 1.415 . S
C582 H572 0.930 . S
C582 C580 1.419 1_455 S
C582 C583 1.362 . S
C583 H573 0.930 . S
C583 C576 1.409 . S
C583 C582 1.362 . S
H584 C590 0.930 . S
H585 C593 0.930 . S
H586 C594 0.930 . S
H587 C595 0.930 . S
H588 C598 0.930 . S
H589 C599 0.930 . S
C590 H584 0.930 . S
C590 C591 1.355 1_545 S
C590 C592 1.415 . S
C591 C590 1.355 1_565 S
C591 C593 1.419 . S
C592 C590 1.415 . S
C592 C597 1.425 1_545 S
C592 C599 1.409 . S
C593 H585 0.930 . S
C593 C591 1.419 . S
C593 C594 1.362 . S
C594 H586 0.930 . S
C594 C593 1.362 . S
C594 C597 1.409 . S
C595 H587 0.930 . S
C595 C596 1.355 . S
C595 C597 1.415 . S
C596 C595 1.355 . S
C596 C598 1.419 1_565 S
C597 C592 1.425 1_565 S
C597 C594 1.409 . S
C597 C595 1.415 . S
C598 H588 0.930 . S
C598 C596 1.419 1_545 S
C598 C599 1.362 . S
C599 H589 0.930 . S
C599 C592 1.409 . S
C599 C598 1.362 . S
H600 C606 0.930 . S
H601 C609 0.930 . S
H602 C610 0.930 . S
H603 C611 0.930 . S
H604 C614 0.930 . S
H605 C615 0.930 . S
C606 H600 0.930 . S
C606 C607 1.355 . S
C606 C608 1.415 . S
C607 C606 1.355 . S
C607 C609 1.419 . S
C608 C606 1.415 . S
C608 C613 1.425 . S
C608 C615 1.409 . S
C609 H601 0.930 . S
C609 C607 1.419 . S
C609 C610 1.362 . S
C610 H602 0.930 . S
C610 C609 1.362 . S
C610 C613 1.409 . S
C611 H603 0.930 . S
C611 C612 1.355 . S
C611 C613 1.415 . S
C612 C611 1.355 . S
C612 C614 1.419 . S
C613 C608 1.425 . S
C613 C610 1.409 . S
C613 C611 1.415 . S
C614 H604 0.930 . S
C614 C612 1.419 . S
C614 C615 1.362 . S
C615 H605 0.930 . S
C615 C608 1.409 . S
C615 C614 1.362 . S
H616 C622 0.930 . S
H617 C625 0.930 . S
H618 C626 0.930 . S
H619 C627 0.930 . S
H620 C630 0.930 . S
H621 C631 0.930 . S
C622 H616 0.930 . S
C622 C623 1.355 . S
C622 C624 1.415 . S
C623 C622 1.355 . S
C623 C625 1.419 . S
C624 C622 1.415 . S
C624 C629 1.425 . S
C624 C631 1.409 . S
C625 H617 0.930 . S
C625 C623 1.419 . S
C625 C626 1.362 . S
C626 H618 0.930 . S
C626 C625 1.362 . S
C626 C629 1.409 . S
C627 H619 0.930 . S
C627 C628 1.355 . S
C627 C629 1.415 . S
C628 C627 1.355 . S
C628 C630 1.419 . S
C629 C624 1.425 . S
C629 C626 1.409 . S
C629 C627 1.415 . S
C630 H620 0.930 . S
C630 C628 1.419 . S
C630 C631 1.362 . S
C631 H621 0.930 . S
C631 C624 1.409 . S
C631 C630 1.362 . S
C255 C74 1.806 . S
C260 C90 1.971 1_545 S
C276 C130 1.998 . S
C271 C85 1.879 . S
C292 C170 1.992 . S
C287 C52 1.822 . S
C308 C210 1.993 1_455 S
C303 C63 1.883 1_655 S
C324 C103 1.979 1_565 S
C319 C30 1.808 . S
C335 C41 1.897 . S
C340 C143 1.993 . S
C351 C8 1.856 . S
C356 C183 1.981 . S
C367 C19 1.813 . S
C372 C223 1.984 1_655 S
C388 C114 0.631 . S
C383 C62 0.672 1_655 S
C404 C154 0.732 . S
C399 C73 0.679 . S
C420 C194 0.683 . S
C415 C84 0.645 . S
C431 C51 0.667 . S
C436 C234 0.721 . S
C447 C18 0.775 1_655 S
C452 C97 0.727 . S
C468 C137 0.662 . S
C463 C29 0.653 1_565 S
C484 C177 0.683 . S
C479 C40 0.697 . S
C495 C7 0.600 . S
C500 C217 0.623 . S
C511 C60 1.859 1_655 S
C516 C91 2.385 . S
C527 C71 1.827 1_565 S
C532 C131 2.365 . S
C548 C171 2.331 . S
C543 C82 1.702 . S
C564 C211 2.355 . S
C559 C49 1.725 . S
C575 C16 1.894 1_655 S
C580 C110 2.369 . S
C596 C150 2.353 . S
C591 C27 1.906 1_565 S
C612 C190 2.338 . S
C607 C38 1.915 . S
C623 C5 1.926 . S
C628 C230 2.379 . S
