# Generated by pormake.
# Topology cor, (4,6)-cn, num edge types: 1
# Building blocks:
#     Node 0, Type 0, BuildingBlock: ESEHIV_clean_sbu_0, # of connection points: 4
#     Node 1, Type 0, BuildingBlock: ESEHIV_clean_sbu_0, # of connection points: 4
#     Node 2, Type 0, BuildingBlock: ESEHIV_clean_sbu_0, # of connection points: 4
#     Node 3, Type 0, BuildingBlock: ESEHIV_clean_sbu_0, # of connection points: 4
#     Node 4, Type 0, BuildingBlock: ESEHIV_clean_sbu_0, # of connection points: 4
#     Node 5, Type 0, BuildingBlock: ESEHIV_clean_sbu_0, # of connection points: 4
#     Node 6, Type 0, BuildingBlock: ESEHIV_clean_sbu_0, # of connection points: 4
#     Node 7, Type 0, BuildingBlock: ESEHIV_clean_sbu_0, # of connection points: 4
#     Node 8, Type 0, BuildingBlock: ESEHIV_clean_sbu_0, # of connection points: 4
#     Node 9, Type 0, BuildingBlock: ESEHIV_clean_sbu_0, # of connection points: 4
#     Node 10, Type 0, BuildingBlock: ESEHIV_clean_sbu_0, # of connection points: 4
#     Node 11, Type 0, BuildingBlock: ESEHIV_clean_sbu_0, # of connection points: 4
#     Node 12, Type 0, BuildingBlock: ESEHIV_clean_sbu_0, # of connection points: 4
#     Node 13, Type 0, BuildingBlock: ESEHIV_clean_sbu_0, # of connection points: 4
#     Node 14, Type 0, BuildingBlock: ESEHIV_clean_sbu_0, # of connection points: 4
#     Node 15, Type 0, BuildingBlock: ESEHIV_clean_sbu_0, # of connection points: 4
#     Node 16, Type 0, BuildingBlock: ESEHIV_clean_sbu_0, # of connection points: 4
#     Node 17, Type 0, BuildingBlock: ESEHIV_clean_sbu_0, # of connection points: 4
#     Node 18, Type 1, BuildingBlock: MIDCAF_clean_sbu_0, # of connection points: 6
#     Node 19, Type 1, BuildingBlock: MIDCAF_clean_sbu_0, # of connection points: 6
#     Node 20, Type 1, BuildingBlock: MIDCAF_clean_sbu_0, # of connection points: 6
#     Node 21, Type 1, BuildingBlock: MIDCAF_clean_sbu_0, # of connection points: 6
#     Node 22, Type 1, BuildingBlock: MIDCAF_clean_sbu_0, # of connection points: 6
#     Node 23, Type 1, BuildingBlock: MIDCAF_clean_sbu_0, # of connection points: 6
#     Node 24, Type 1, BuildingBlock: MIDCAF_clean_sbu_0, # of connection points: 6
#     Node 25, Type 1, BuildingBlock: MIDCAF_clean_sbu_0, # of connection points: 6
#     Node 26, Type 1, BuildingBlock: MIDCAF_clean_sbu_0, # of connection points: 6
#     Node 27, Type 1, BuildingBlock: MIDCAF_clean_sbu_0, # of connection points: 6
#     Node 28, Type 1, BuildingBlock: MIDCAF_clean_sbu_0, # of connection points: 6
#     Node 29, Type 1, BuildingBlock: MIDCAF_clean_sbu_0, # of connection points: 6
#     Edge 30, Type (0, 1), BuildingBlock: XIVTED_clean_linker_0, # of connection points: 2
#     Edge 31, Type (0, 1), BuildingBlock: XIVTED_clean_linker_0, # of connection points: 2
#     Edge 32, Type (0, 1), BuildingBlock: XIVTED_clean_linker_0, # of connection points: 2
#     Edge 33, Type (0, 1), BuildingBlock: XIVTED_clean_linker_0, # of connection points: 2
#     Edge 34, Type (0, 1), BuildingBlock: XIVTED_clean_linker_0, # of connection points: 2
#     Edge 35, Type (0, 1), BuildingBlock: XIVTED_clean_linker_0, # of connection points: 2
#     Edge 36, Type (0, 1), BuildingBlock: XIVTED_clean_linker_0, # of connection points: 2
#     Edge 37, Type (0, 1), BuildingBlock: XIVTED_clean_linker_0, # of connection points: 2
#     Edge 38, Type (0, 1), BuildingBlock: XIVTED_clean_linker_0, # of connection points: 2
#     Edge 39, Type (0, 1), BuildingBlock: XIVTED_clean_linker_0, # of connection points: 2
#     Edge 40, Type (0, 1), BuildingBlock: XIVTED_clean_linker_0, # of connection points: 2
#     Edge 41, Type (0, 1), BuildingBlock: XIVTED_clean_linker_0, # of connection points: 2
#     Edge 42, Type (0, 1), BuildingBlock: XIVTED_clean_linker_0, # of connection points: 2
#     Edge 43, Type (0, 1), BuildingBlock: XIVTED_clean_linker_0, # of connection points: 2
#     Edge 44, Type (0, 1), BuildingBlock: XIVTED_clean_linker_0, # of connection points: 2
#     Edge 45, Type (0, 1), BuildingBlock: XIVTED_clean_linker_0, # of connection points: 2
#     Edge 46, Type (0, 1), BuildingBlock: XIVTED_clean_linker_0, # of connection points: 2
#     Edge 47, Type (0, 1), BuildingBlock: XIVTED_clean_linker_0, # of connection points: 2
#     Edge 48, Type (0, 1), BuildingBlock: XIVTED_clean_linker_0, # of connection points: 2
#     Edge 49, Type (0, 1), BuildingBlock: XIVTED_clean_linker_0, # of connection points: 2
#     Edge 50, Type (0, 1), BuildingBlock: XIVTED_clean_linker_0, # of connection points: 2
#     Edge 51, Type (0, 1), BuildingBlock: XIVTED_clean_linker_0, # of connection points: 2
#     Edge 52, Type (0, 1), BuildingBlock: XIVTED_clean_linker_0, # of connection points: 2
#     Edge 53, Type (0, 1), BuildingBlock: XIVTED_clean_linker_0, # of connection points: 2
#     Edge 54, Type (0, 1), BuildingBlock: XIVTED_clean_linker_0, # of connection points: 2
#     Edge 55, Type (0, 1), BuildingBlock: XIVTED_clean_linker_0, # of connection points: 2
#     Edge 56, Type (0, 1), BuildingBlock: XIVTED_clean_linker_0, # of connection points: 2
#     Edge 57, Type (0, 1), BuildingBlock: XIVTED_clean_linker_0, # of connection points: 2
#     Edge 58, Type (0, 1), BuildingBlock: XIVTED_clean_linker_0, # of connection points: 2
#     Edge 59, Type (0, 1), BuildingBlock: XIVTED_clean_linker_0, # of connection points: 2
#     Edge 60, Type (0, 1), BuildingBlock: XIVTED_clean_linker_0, # of connection points: 2
#     Edge 61, Type (0, 1), BuildingBlock: XIVTED_clean_linker_0, # of connection points: 2
#     Edge 62, Type (0, 1), BuildingBlock: XIVTED_clean_linker_0, # of connection points: 2
#     Edge 63, Type (0, 1), BuildingBlock: XIVTED_clean_linker_0, # of connection points: 2
#     Edge 64, Type (0, 1), BuildingBlock: XIVTED_clean_linker_0, # of connection points: 2
#     Edge 65, Type (0, 1), BuildingBlock: XIVTED_clean_linker_0, # of connection points: 2
#     Edge 66, Type (0, 1), BuildingBlock: XIVTED_clean_linker_0, # of connection points: 2
#     Edge 67, Type (0, 1), BuildingBlock: XIVTED_clean_linker_0, # of connection points: 2
#     Edge 68, Type (0, 1), BuildingBlock: XIVTED_clean_linker_0, # of connection points: 2
#     Edge 69, Type (0, 1), BuildingBlock: XIVTED_clean_linker_0, # of connection points: 2
#     Edge 70, Type (0, 1), BuildingBlock: XIVTED_clean_linker_0, # of connection points: 2
#     Edge 71, Type (0, 1), BuildingBlock: XIVTED_clean_linker_0, # of connection points: 2
#     Edge 72, Type (0, 1), BuildingBlock: XIVTED_clean_linker_0, # of connection points: 2
#     Edge 73, Type (0, 1), BuildingBlock: XIVTED_clean_linker_0, # of connection points: 2
#     Edge 74, Type (0, 1), BuildingBlock: XIVTED_clean_linker_0, # of connection points: 2
#     Edge 75, Type (0, 1), BuildingBlock: XIVTED_clean_linker_0, # of connection points: 2
#     Edge 76, Type (0, 1), BuildingBlock: XIVTED_clean_linker_0, # of connection points: 2
#     Edge 77, Type (0, 1), BuildingBlock: XIVTED_clean_linker_0, # of connection points: 2
#     Edge 78, Type (0, 1), BuildingBlock: XIVTED_clean_linker_0, # of connection points: 2
#     Edge 79, Type (0, 1), BuildingBlock: XIVTED_clean_linker_0, # of connection points: 2
#     Edge 80, Type (0, 1), BuildingBlock: XIVTED_clean_linker_0, # of connection points: 2
#     Edge 81, Type (0, 1), BuildingBlock: XIVTED_clean_linker_0, # of connection points: 2
#     Edge 82, Type (0, 1), BuildingBlock: XIVTED_clean_linker_0, # of connection points: 2
#     Edge 83, Type (0, 1), BuildingBlock: XIVTED_clean_linker_0, # of connection points: 2
#     Edge 84, Type (0, 1), BuildingBlock: XIVTED_clean_linker_0, # of connection points: 2
#     Edge 85, Type (0, 1), BuildingBlock: XIVTED_clean_linker_0, # of connection points: 2
#     Edge 86, Type (0, 1), BuildingBlock: XIVTED_clean_linker_0, # of connection points: 2
#     Edge 87, Type (0, 1), BuildingBlock: XIVTED_clean_linker_0, # of connection points: 2
#     Edge 88, Type (0, 1), BuildingBlock: XIVTED_clean_linker_0, # of connection points: 2
#     Edge 89, Type (0, 1), BuildingBlock: XIVTED_clean_linker_0, # of connection points: 2
#     Edge 90, Type (0, 1), BuildingBlock: XIVTED_clean_linker_0, # of connection points: 2
#     Edge 91, Type (0, 1), BuildingBlock: XIVTED_clean_linker_0, # of connection points: 2
#     Edge 92, Type (0, 1), BuildingBlock: XIVTED_clean_linker_0, # of connection points: 2
#     Edge 93, Type (0, 1), BuildingBlock: XIVTED_clean_linker_0, # of connection points: 2
#     Edge 94, Type (0, 1), BuildingBlock: XIVTED_clean_linker_0, # of connection points: 2
#     Edge 95, Type (0, 1), BuildingBlock: XIVTED_clean_linker_0, # of connection points: 2
#     Edge 96, Type (0, 1), BuildingBlock: XIVTED_clean_linker_0, # of connection points: 2
#     Edge 97, Type (0, 1), BuildingBlock: XIVTED_clean_linker_0, # of connection points: 2
#     Edge 98, Type (0, 1), BuildingBlock: XIVTED_clean_linker_0, # of connection points: 2
#     Edge 99, Type (0, 1), BuildingBlock: XIVTED_clean_linker_0, # of connection points: 2
#     Edge 100, Type (0, 1), BuildingBlock: XIVTED_clean_linker_0, # of connection points: 2
#     Edge 101, Type (0, 1), BuildingBlock: XIVTED_clean_linker_0, # of connection points: 2
# Relax obj value: 0.149
# Max RMSD: 0.293
# Mean RMSD: 0.236
data_MOF--net-cor--node1-ESEHIV_clean_sbu_0--node2-MIDCAF_clean_sbu_0--edge1-XIVTED_clean_linker_0
_symmetry_space_group_name_H-M    P1
_symmetry_Int_Tables_number       1
_symmetry_cell_setting            triclinic
loop_
_symmetry_equiv_pos_as_xyz
'x, y, z'
_cell_length_a     39.778234
_cell_length_b     38.085773
_cell_length_c     112.92371
_cell_angle_alpha  92.018166
_cell_angle_beta   92.114057
_cell_angle_gamma 120.29697
loop_
_atom_site_label
_atom_site_type_symbol
_atom_site_fract_x
_atom_site_fract_y
_atom_site_fract_z
_atom_type_partial_charge
Cu0 Cu 0.7325 0.02215 0.27518 0.0
N1 N 0.75081 1.00437 0.26263 0.0
N2 N 0.77953 1.00608 0.24578 0.0
C3 C 0.773 0.02779 0.25416 0.0
C4 C 0.76063 0.96737 0.24916 0.0
C5 C 0.74292 0.96643 0.25955 0.0
O6 O 0.73167 0.06998 0.26986 0.0
C7 C 0.79958 0.04523 0.29138 0.0
O8 O 0.8211 0.05781 0.2822 0.0
H9 H 0.78338 0.06003 0.25402 0.0
H10 H 0.72518 0.93991 0.26443 0.0
N11 N 0.68182 0.98248 0.27836 0.0
N12 N 0.63385 0.93658 0.2887 0.0
C13 C 0.67194 0.95418 0.28647 0.0
C14 C 0.64881 0.98247 0.2753 0.0
C15 C 0.61917 0.95423 0.28168 0.0
C16 C 0.76163 0.10548 0.2699 0.0
O17 O 0.79476 0.11241 0.27503 0.0
H18 H 0.69282 0.94883 0.29129 0.0
H19 H 0.64701 1.00338 0.26943 0.0
O20 O 0.76305 0.03124 0.29005 0.0
H21 H 0.75988 0.94157 0.24455 0.0
H22 H 0.58948 0.94818 0.28151 0.0
Cu23 Cu 0.01916 0.73919 0.27544 0.0
N24 N 0.03829 0.76931 0.2621 0.0
N25 N 0.03764 0.79615 0.2448 0.0
C26 C 0.01611 0.77232 0.25335 0.0
C27 C 0.07499 0.80847 0.24836 0.0
C28 C 0.07528 0.79183 0.25902 0.0
O29 O 0.97027 0.69075 0.26989 0.0
C30 C 1.00239 0.7599 0.29796 0.0
O31 O 0.98902 0.72132 0.2998 0.0
H32 H 0.98467 0.75709 0.2533 0.0
H33 H 0.10063 0.79612 0.26421 0.0
N34 N 0.05307 0.72302 0.28169 0.0
N35 N 0.0983 0.72115 0.29357 0.0
C36 C 0.08489 0.74473 0.28921 0.0
C37 C 0.04638 0.68467 0.28123 0.0
C38 C 0.0742 0.68341 0.28854 0.0
C39 C 0.9376 0.68907 0.26844 0.0
O40 O 0.93448 0.72041 0.27205 0.0
H41 H 0.09668 0.77655 0.29192 0.0
H42 H 0.02197 0.65907 0.2763 0.0
O43 O 0.01434 0.77284 0.28783 0.0
H44 H 0.10048 0.82885 0.24379 0.0
H45 H 0.07623 0.65667 0.29017 0.0
Cu46 Cu 0.3111 0.31657 0.27743 0.0
N47 N 0.30305 0.28438 0.29032 0.0
N48 N 0.28125 0.256 0.30752 0.0
C49 C 0.28105 0.28132 0.29945 0.0
C50 C 0.30443 0.24271 0.30322 0.0
C51 C 0.31783 0.26028 0.29263 0.0
O52 O 0.30954 0.36413 0.28352 0.0
C53 C 0.27643 0.29627 0.254 0.0
O54 O 0.30356 0.33367 0.25212 0.0
H55 H 0.26547 0.29767 0.30018 0.0
H56 H 0.33685 0.25569 0.28699 0.0
N57 N 0.35987 0.33326 0.27157 0.0
N58 N 0.40511 0.33365 0.26031 0.0
C59 C 0.36994 0.31059 0.26478 0.0
C60 C 0.38969 0.37181 0.27146 0.0
C61 C 0.41765 0.37216 0.26453 0.0
C62 C 0.27843 0.36475 0.2853 0.0
O63 O 0.24453 0.33325 0.28157 0.0
H64 H 0.35099 0.27825 0.26265 0.0
H65 H 0.39027 0.39802 0.27571 0.0
O66 O 0.2728 0.28428 0.26452 0.0
H67 H 0.31069 0.22114 0.30727 0.0
H68 H 0.44488 0.39876 0.26261 0.0
Cu69 Cu 0.31448 0.03 0.77995 0.0
N70 N 0.30627 0.05203 0.7939 0.0
N71 N 0.28397 0.05413 0.81172 0.0
C72 C 0.2854 0.03033 0.80283 0.0
C73 C 0.30511 0.09256 0.80823 0.0
C74 C 0.31881 0.09115 0.79725 0.0
O75 O 0.31271 0.98005 0.78442 0.0
C76 C 0.27939 0.01615 0.75652 0.0
O77 O 0.30556 1.00641 0.75373 0.0
H78 H 0.27159 0.99761 0.8028 0.0
H79 H 0.33629 0.11675 0.79201 0.0
N80 N 0.36382 0.06503 0.77455 0.0
N81 N 0.40974 0.10863 0.76316 0.0
C82 C 0.37363 0.095 0.76699 0.0
C83 C 0.39487 0.05994 0.7756 0.0
C84 C 0.42318 0.08673 0.76859 0.0
C85 C 0.28215 0.94736 0.78684 0.0
O86 O 0.24773 0.94322 0.78441 0.0
H87 H 0.35386 0.10478 0.7638 0.0
H88 H 0.39602 0.03693 0.78066 0.0
O89 O 0.27648 0.02375 0.7674 0.0
H90 H 0.30955 0.11973 0.81308 0.0
H91 H 0.45118 0.08926 0.76737 0.0
Cu92 Cu 0.01689 0.30625 0.78036 0.0
N93 N 1.00396 0.27718 0.79415 0.0
N94 N 0.00748 0.25406 0.81186 0.0
C95 C 0.02733 0.28083 0.80366 0.0
C96 C 0.97012 0.23305 0.80736 0.0
C97 C 0.96808 0.24737 0.79648 0.0
O98 O 0.06597 0.35734 0.78358 0.0
C99 C 0.02856 0.28416 0.75707 0.0
O100 O 0.04381 0.32297 0.75518 0.0
H101 H 0.0582 0.30268 0.80462 0.0
H102 H 0.9423 0.23644 0.79056 0.0
N103 N 0.97696 0.31687 0.77647 0.0
N104 N 0.92519 0.31419 0.76709 0.0
C105 C 0.95512 0.30726 0.76614 0.0
C106 C 0.96041 0.33053 0.78413 0.0
C107 C 0.92841 0.32881 0.77838 0.0
C108 C 0.09785 0.35911 0.7868 0.0
O109 O 0.09926 0.32539 0.78693 0.0
H110 H 0.95974 0.29345 0.7583 0.0
H111 H 0.97004 0.33949 0.79339 0.0
O112 O 0.01774 0.27202 0.76735 0.0
H113 H 0.94618 0.20811 0.81144 0.0
H114 H 0.90855 0.33688 0.78227 0.0
Cu115 Cu 0.74006 0.74275 0.77817 0.0
N116 N 0.7499 0.77318 0.76474 0.0
N117 N 0.77479 0.79859 0.74745 0.0
C118 C 0.77256 0.77384 0.75606 0.0
C119 C 0.75233 0.81397 0.75088 0.0
C120 C 0.73703 0.79823 0.76153 0.0
O121 O 0.74137 0.69427 0.77286 0.0
C122 C 0.77504 0.76615 0.80179 0.0
O123 O 0.74762 0.72952 0.80423 0.0
H124 H 0.78703 0.7563 0.75609 0.0
H125 H 0.71817 0.80485 0.76663 0.0
N126 N 0.69033 0.72616 0.78334 0.0
N127 N 0.64279 0.72171 0.79433 0.0
C128 C 0.67965 0.74597 0.79112 0.0
C129 C 0.65915 0.68842 0.78152 0.0
C130 C 0.62984 0.68557 0.78827 0.0
C131 C 0.77208 0.69267 0.77124 0.0
O132 O 0.80629 0.72387 0.77488 0.0
H133 H 0.69911 0.77672 0.79482 0.0
H134 H 0.6584 0.66416 0.77603 0.0
O135 O 0.77804 0.77631 0.79107 0.0
H136 H 0.74794 0.83582 0.74623 0.0
H137 H 0.60134 0.65878 0.78881 0.0
Cu138 Cu 0.40427 0.36255 0.61012 0.0
N139 N 0.41429 0.3425 0.59613 0.0
N140 N 0.43934 0.34325 0.57859 0.0
C141 C 0.43755 0.36575 0.58782 0.0
C142 C 0.41602 0.30412 0.58125 0.0
C143 C 0.40061 0.30377 0.59206 0.0
O144 O 0.40705 0.41324 0.60605 0.0
C145 C 0.43771 0.37643 0.63368 0.0
O146 O 0.41228 0.38765 0.63605 0.0
H147 H 0.45267 0.39864 0.58853 0.0
H148 H 0.38104 0.27722 0.59665 0.0
N149 N 0.35439 0.32678 0.61502 0.0
N150 N 0.30799 0.28228 0.62611 0.0
C151 C 0.34437 0.29645 0.62245 0.0
C152 C 0.32321 0.33161 0.61388 0.0
C153 C 0.29458 0.30426 0.6207 0.0
C154 C 0.43861 0.44696 0.6053 0.0
O155 O 0.47189 0.45045 0.60904 0.0
H156 H 0.36421 0.28683 0.62572 0.0
H157 H 0.32219 0.35488 0.60892 0.0
O158 O 0.44092 0.36772 0.62293 0.0
H159 H 0.41102 0.27753 0.57594 0.0
H160 H 0.26643 0.30142 0.62184 0.0
Cu161 Cu 0.69583 0.0818 0.60885 0.0
N162 N 0.71388 0.11114 0.59532 0.0
N163 N 0.71186 0.13575 0.57772 0.0
C164 C 0.69097 0.11138 0.58627 0.0
C165 C 0.74958 0.15129 0.5816 0.0
C166 C 0.7507 0.13603 0.59243 0.0
O167 O 0.64574 0.03429 0.6038 0.0
C168 C 0.68544 0.10508 0.63199 0.0
O169 O 0.67394 0.06712 0.63416 0.0
H170 H 0.65948 0.09392 0.58604 0.0
H171 H 0.77648 0.14297 0.5979 0.0
N172 N 0.72913 0.06401 0.61446 0.0
N173 N 0.77343 0.05926 0.62597 0.0
C174 C 0.76063 0.08402 0.6222 0.0
C175 C 0.72207 0.02558 0.61325 0.0
C176 C 0.74931 0.02254 0.62033 0.0
C177 C 0.61339 0.03349 0.60294 0.0
O178 O 0.61153 0.06529 0.60688 0.0
H179 H 0.77251 0.11534 0.6255 0.0
H180 H 0.69771 1.00105 0.60798 0.0
O181 O 0.69376 0.11655 0.62149 0.0
H182 H 0.77469 0.17304 0.57713 0.0
H183 H 0.75085 0.99525 0.62144 0.0
Cu184 Cu 0.98218 0.64772 0.6134 0.0
N185 N 0.97212 0.61751 0.62686 0.0
N186 N 0.94693 0.59263 0.64416 0.0
C187 C 0.95016 0.61793 0.6356 0.0
C188 C 0.96806 0.57577 0.64061 0.0
C189 C 0.98356 0.59119 0.62995 0.0
O190 O 0.98053 0.69615 0.61854 0.0
C191 C 0.94786 0.6244 0.58978 0.0
O192 O 0.97561 0.66097 0.58742 0.0
H193 H 0.93676 0.63652 0.63563 0.0
H194 H 1.0014 0.58336 0.62475 0.0
N195 N 0.03176 0.66382 0.60824 0.0
N196 N 0.07863 0.66612 0.59738 0.0
C197 C 0.04237 0.6424 0.60108 0.0
C198 C 0.06239 0.7021 0.60916 0.0
C199 C 0.09131 0.70363 0.60247 0.0
C200 C 0.94939 0.69733 0.61966 0.0
O201 O 0.91575 0.66594 0.61568 0.0
H202 H 0.02314 0.61077 0.5981 0.0
H203 H 0.06291 0.72752 0.61392 0.0
O204 O 0.94436 0.61413 0.60049 0.0
H205 H 0.97126 0.55302 0.64518 0.0
H206 H 0.11925 0.73043 0.60126 0.0
Cu207 Cu 0.98271 0.3716 0.11534 0.0
N208 N 0.96636 0.38626 0.12903 0.0
N209 N 0.93882 0.38149 0.14631 0.0
C210 C 0.94413 0.36113 0.1372 0.0
C211 C 0.9586 0.42105 0.14372 0.0
C212 C 0.97554 0.42386 0.13308 0.0
O213 O 0.98464 0.32296 0.11904 0.0
C214 C 0.94972 0.3531 0.09137 0.0
O215 O 0.97335 0.33904 0.08955 0.0
H216 H 0.9325 0.32859 0.13655 0.0
H217 H 0.99339 0.45139 0.12861 0.0
N218 N 0.03232 0.41434 0.11232 0.0
N219 N 0.08023 0.46611 0.10345 0.0
C220 C 0.04383 0.43332 0.10211 0.0
C221 C 0.06253 0.43574 0.12034 0.0
C222 C 0.09207 0.46771 0.11491 0.0
C223 C 0.95401 0.28806 0.11929 0.0
O224 O 0.9204 0.28313 0.11525 0.0
H225 H 0.02535 0.42451 0.09401 0.0
H226 H 0.06252 0.42927 0.12959 0.0
O227 O 0.94771 0.3652 0.10184 0.0
H228 H 0.96016 0.44616 0.14899 0.0
H229 H 0.11995 0.49065 0.1191 0.0
Cu230 Cu 0.6936 0.64906 0.11305 0.0
N231 N 0.67471 0.6206 0.12667 0.0
N232 N 0.6758 0.59462 0.1441 0.0
C233 C 0.69708 0.61789 0.13541 0.0
C234 C 0.63839 0.58241 0.14062 0.0
C235 C 0.63784 0.5985 0.12988 0.0
O236 O 0.74333 0.69694 0.11823 0.0
C237 C 0.70162 0.62117 0.09016 0.0
O238 O 0.70945 0.65724 0.08697 0.0
H239 H 0.72846 0.63272 0.13532 0.0
H240 H 0.61237 0.59393 0.1247 0.0
N241 N 0.66039 0.66601 0.10675 0.0
N242 N 0.61628 0.6691 0.09467 0.0
C243 C 0.62906 0.64498 0.09901 0.0
C244 C 0.66733 0.70445 0.1074 0.0
C245 C 0.64021 0.70647 0.09996 0.0
C246 C 0.7756 0.6977 0.11954 0.0
O247 O 0.77771 0.66573 0.11594 0.0
H248 H 0.61731 0.61332 0.09611 0.0
H249 H 0.69153 0.72963 0.11253 0.0
O250 O 0.6966 0.61309 0.10103 0.0
H251 H 0.61302 0.56231 0.14528 0.0
H252 H 0.6386 0.73349 0.09841 0.0
Cu253 Cu 0.40147 0.07529 0.10838 0.0
N254 N 0.41315 0.10551 0.09488 0.0
N255 N 0.43905 0.12923 0.07756 0.0
C256 C 0.43355 0.10278 0.08599 0.0
C257 C 0.42099 0.14923 0.08134 0.0
C258 C 0.40505 0.13452 0.09201 0.0
O259 O 0.40325 0.02664 0.10364 0.0
C260 C 0.43373 0.09672 0.13216 0.0
O261 O 0.40663 0.05929 0.13402 0.0
H262 H 0.44437 0.08186 0.08579 0.0
H263 H 0.38937 0.14478 0.0974 0.0
N264 N 0.35147 0.05976 0.11304 0.0
N265 N 0.30428 0.0575 0.12373 0.0
C266 C 0.34113 0.08085 0.12044 0.0
C267 C 0.32004 0.02207 0.11154 0.0
C268 C 0.29091 0.02057 0.11813 0.0
C269 C 0.43458 0.02559 0.10288 0.0
O270 O 0.46791 0.05723 0.10696 0.0
H271 H 0.36095 0.11182 0.1239 0.0
H272 H 0.31909 0.99691 0.10648 0.0
O273 O 0.43791 0.10849 0.12161 0.0
H274 H 0.42036 0.17372 0.07696 0.0
H275 H 0.26238 0.99411 0.11894 0.0
Cu276 Cu 0.0749 0.69712 0.94485 0.0
N277 N 0.08412 0.67543 0.93105 0.0
N278 N 0.10787 0.67366 0.91346 0.0
C279 C 0.10683 0.69742 0.92246 0.0
C280 C 0.08465 0.63504 0.91656 0.0
C281 C 0.07004 0.63625 0.92739 0.0
O282 O 0.07744 0.74734 0.94037 0.0
C283 C 0.10812 0.71161 0.96844 0.0
O284 O 0.08261 0.72282 0.9707 0.0
H285 H 0.12208 0.7303 0.9228 0.0
H286 H 0.05072 0.61044 0.93229 0.0
N287 N 0.02519 0.66205 0.94993 0.0
N288 N 0.97904 0.61782 0.96111 0.0
C289 C 0.01508 0.63145 0.95725 0.0
C290 C 0.99441 0.66764 0.94906 0.0
C291 C 0.96591 0.64042 0.95594 0.0
C292 C 0.10873 0.78076 0.93901 0.0
O293 O 0.14249 0.78469 0.94237 0.0
H294 H 0.03467 0.62123 0.96029 0.0
H295 H 0.9936 0.69128 0.94424 0.0
O296 O 0.11162 0.70287 0.95773 0.0
H297 H 0.0792 0.60777 0.91153 0.0
H298 H 0.93806 0.63808 0.95728 0.0
Cu299 Cu 0.36804 0.41399 0.94231 0.0
N300 N 0.39228 0.44723 0.92991 0.0
N301 N 0.39982 0.48332 0.91401 0.0
C302 C 0.3742 0.45379 0.92064 0.0
C303 C 0.43535 0.49569 0.91931 0.0
C304 C 0.43061 0.47325 0.92908 0.0
O305 O 0.31954 0.36774 0.9355 0.0
C306 C 0.35601 0.43741 0.96533 0.0
O307 O 0.3489 0.40126 0.9682 0.0
H308 H 0.3428 0.43902 0.91921 0.0
H309 H 0.45333 0.47686 0.93544 0.0
N310 N 0.39907 0.39508 0.9491 0.0
N311 N 0.44212 0.39081 0.96138 0.0
C312 C 0.43092 0.41575 0.95667 0.0
C313 C 0.39007 0.35596 0.94896 0.0
C314 C 0.41654 0.35322 0.95651 0.0
C315 C 0.28705 0.36653 0.93426 0.0
O316 O 0.28389 0.39709 0.93862 0.0
H317 H 0.44435 0.44797 0.95913 0.0
H318 H 0.36505 0.33094 0.94406 0.0
O319 O 0.36183 0.44694 0.95459 0.0
H320 H 0.46268 0.52017 0.91653 0.0
H321 H 0.41669 0.32561 0.95839 0.0
Cu322 Cu 0.65012 0.97398 0.94504 0.0
N323 N 0.63881 0.9422 0.95821 0.0
N324 N 0.61241 0.91711 0.97537 0.0
C325 C 0.61289 0.93883 0.96609 0.0
C326 C 0.63915 0.90613 0.9731 0.0
C327 C 0.65543 0.92175 0.96254 0.0
O328 O 0.64421 0.02009 0.95019 0.0
C329 C 0.61876 0.95243 0.9211 0.0
O330 O 0.64485 0.9903 0.91928 0.0
H331 H 0.59574 0.95343 0.96513 0.0
H332 H 0.67825 0.91906 0.95844 0.0
N333 N 0.70081 0.9926 0.94038 0.0
N334 N 0.74891 0.99668 0.92975 0.0
C335 C 0.71298 0.97189 0.93353 0.0
C336 C 0.73011 0.03161 0.94099 0.0
C337 C 0.75979 0.03421 0.93447 0.0
C338 C 0.66169 0.03843 0.96014 0.0
O339 O 0.68457 0.02758 0.96554 0.0
H340 H 0.69489 0.93991 0.93075 0.0
H341 H 0.72911 0.05681 0.94532 0.0
O342 O 0.61484 0.9405 0.93163 0.0
H343 H 0.64667 0.8882 0.97864 0.0
H344 H 0.78689 0.06176 0.93305 0.0
Cu345 Cu 0.64269 0.69776 0.44412 0.0
N346 N 0.61719 0.71358 0.45478 0.0
N347 N 0.59149 0.72056 0.47136 0.0
C348 C 0.60377 0.69828 0.46532 0.0
C349 C 0.59725 0.7508 0.46432 0.0
C350 C 0.61304 0.74638 0.45411 0.0
O351 O 0.64645 0.65296 0.45074 0.0
C352 C 0.58176 0.67091 0.42517 0.0
O353 O 0.55607 0.6559 0.43327 0.0
H354 H 0.60461 0.67253 0.46874 0.0
H355 H 0.62208 0.76641 0.44686 0.0
N356 N 0.6922 0.74286 0.44255 0.0
N357 N 0.74 0.79619 0.43415 0.0
C358 C 0.70644 0.76008 0.43229 0.0
C359 C 0.71769 0.76881 0.45121 0.0
C360 C 0.74723 0.80172 0.44605 0.0
C361 C 0.61611 0.61867 0.45214 0.0
O362 O 0.582 0.61211 0.44802 0.0
H363 H 0.6913 0.74754 0.42367 0.0
H364 H 0.71407 0.76495 0.46061 0.0
O365 O 0.61786 0.68658 0.42814 0.0
H366 H 0.59085 0.77467 0.46647 0.0
H367 H 0.77168 0.82808 0.45072 0.0
Cu368 Cu 0.35968 0.98184 0.44536 0.0
N369 N 0.33672 0.94904 0.45796 0.0
N370 N 0.33064 0.91908 0.47511 0.0
C371 C 0.3556 0.94514 0.46753 0.0
C372 C 0.29467 0.90621 0.47002 0.0
C373 C 0.29854 0.92474 0.45948 0.0
O374 O 0.40838 0.02861 0.45191 0.0
C375 C 0.37145 0.96188 0.42204 0.0
O376 O 0.382 0.99989 0.42027 0.0
H377 H 0.38705 0.96136 0.46888 0.0
H378 H 0.27518 0.92058 0.4533 0.0
N379 N 0.32794 1.00073 0.4392 0.0
N380 N 0.28371 1.00466 0.42743 0.0
C381 C 0.29545 0.97988 0.4319 0.0
C382 C 0.33683 0.03983 0.43941 0.0
C383 C 0.3096 0.04236 0.43216 0.0
C384 C 0.44188 0.03193 0.45259 0.0
O385 O 0.4466 1.00311 0.44764 0.0
H386 H 0.28199 0.94767 0.42942 0.0
H387 H 0.3623 0.06496 0.4441 0.0
O388 O 0.36401 0.94931 0.43247 0.0
H389 H 0.26739 0.88423 0.47349 0.0
H390 H 0.30919 0.06988 0.43036 0.0
Cu391 Cu 0.07139 0.40808 0.44692 0.0
N392 N 0.09065 0.45129 0.43696 0.0
N393 N 0.12529 0.49299 0.4231 0.0
C394 C 0.11225 0.45617 0.42756 0.0
C395 C 0.11116 0.5118 0.42993 0.0
C396 C 0.08971 0.48596 0.43844 0.0
O397 O 0.07078 0.36216 0.43837 0.0
C398 C 0.13882 0.45112 0.46303 0.0
O399 O 0.15826 0.4644 0.45347 0.0
H400 H 0.12009 0.43417 0.42448 0.0
H401 H 0.07568 0.49254 0.4455 0.0
N402 N 0.02088 0.39321 0.45083 0.0
N403 N 0.97298 0.39179 0.46094 0.0
C404 C 0.01055 0.41434 0.4582 0.0
C405 C 0.98875 0.35622 0.4488 0.0
C406 C 0.95915 0.35525 0.45503 0.0
C407 C 0.10044 0.35786 0.43782 0.0
O408 O 0.13291 0.38373 0.44397 0.0
H409 H 0.03076 0.44472 0.46203 0.0
H410 H 0.98751 0.33112 0.44362 0.0
O411 O 0.10236 0.42578 0.46199 0.0
H412 H 0.11679 0.54248 0.42902 0.0
H413 H 0.92995 0.32942 0.45538 0.0
Zn414 Zn 0.02593 0.03725 0.15306 0.0
Zn415 Zn 0.01969 0.03717 0.19765 0.0
Zn416 Zn 0.02333 0.03788 0.17591 0.0
C417 C 0.9894 0.95727 0.19126 0.0
C418 C 0.09756 0.08408 0.19512 0.0
O419 O 0.99212 0.06915 0.16899 0.0
O420 O 0.99584 0.06418 0.14956 0.0
C421 C 0.98795 0.95611 0.15813 0.0
O422 O 1.00026 0.9737 0.18125 0.0
O423 O 0.99128 0.97884 0.20025 0.0
O424 O 0.07468 0.06624 0.20311 0.0
O425 O 0.08424 0.07826 0.18419 0.0
O426 O 1.00012 0.97788 0.14936 0.0
O427 O 0.99435 0.97304 0.16872 0.0
O428 O 0.08623 0.07134 0.1718 0.0
O429 O 0.08302 0.06951 0.15218 0.0
C430 C 0.10316 0.07977 0.16191 0.0
O431 O 0.98286 0.06035 0.18115 0.0
O432 O 0.99175 0.06603 0.20068 0.0
C433 C 0.98512 0.07646 0.15837 0.0
C434 C 0.97532 0.06961 0.19145 0.0
Zn435 Zn 0.02285 0.03528 0.3543 0.0
Zn436 Zn 0.02012 0.02842 0.39589 0.0
Zn437 Zn 0.01904 0.0328 0.37384 0.0
C438 C 0.0602 0.11133 0.39251 0.0
C439 C 0.94137 0.99186 0.38786 0.0
O440 O 0.03358 0.98692 0.36633 0.0
O441 O 1.00047 0.97702 0.34929 0.0
C442 C 0.08887 0.10028 0.3618 0.0
O443 O 0.05348 0.09717 0.38159 0.0
O444 O 0.04883 0.08719 0.40077 0.0
O445 O 0.96326 0.99868 0.39706 0.0
O446 O 0.95617 1.00368 0.37778 0.0
O447 O 0.08011 0.0712 0.35431 0.0
O448 O 0.06489 0.0957 0.36981 0.0
O449 O 0.96072 0.01909 0.36603 0.0
O450 O 0.99033 0.06029 0.35195 0.0
C451 C 0.96013 0.04077 0.35758 0.0
O452 O 0.04716 0.99623 0.37829 0.0
O453 O 0.04777 0.99811 0.39789 0.0
C454 C 0.01738 0.96554 0.35649 0.0
C455 C 0.05689 0.98771 0.38836 0.0
Zn456 Zn 0.0333 0.02587 0.90288 0.0
Zn457 Zn 0.04386 0.02644 0.85816 0.0
Zn458 Zn 0.03714 0.02444 0.87998 0.0
C459 C 0.071 0.10562 0.86475 0.0
C460 C 0.96509 0.97744 0.86011 0.0
O461 O 0.06876 0.99437 0.88746 0.0
O462 O 0.06422 1.00009 0.90682 0.0
C463 C 0.07082 0.10662 0.89765 0.0
O464 O 0.05964 0.08841 0.87463 0.0
O465 O 0.07049 0.08495 0.85572 0.0
O466 O 0.98913 0.9951 0.85236 0.0
O467 O 0.97692 0.98368 0.87119 0.0
O468 O 0.05808 0.08525 0.90648 0.0
O469 O 0.06515 0.08922 0.88716 0.0
O470 O 0.97387 0.98988 0.88357 0.0
O471 O 0.97604 0.99248 0.9032 0.0
C472 C 0.95641 0.98141 0.89336 0.0
O473 O 0.07859 1.00266 0.87539 0.0
O474 O 0.07427 0.99997 0.85579 0.0
C475 C 0.07569 0.98789 0.89818 0.0
C476 C 0.08853 0.99502 0.86529 0.0
Zn477 Zn 0.02939 0.01927 0.70451 0.0
Zn478 Zn 0.03152 0.02836 0.65989 0.0
Zn479 Zn 0.03123 0.0246 0.68263 0.0
C480 C 0.98949 0.94612 0.66346 0.0
C481 C 0.10947 0.06566 0.66784 0.0
O482 O 0.0099 0.06515 0.68983 0.0
O483 O 0.00723 0.05314 0.70886 0.0
C484 C 0.97931 0.94145 0.69636 0.0
O485 O 0.99795 0.96075 0.67435 0.0
O486 O 0.9999 0.96984 0.6551 0.0
O487 O 0.08814 0.05519 0.65835 0.0
O488 O 0.09387 0.05654 0.67795 0.0
O489 O 0.99568 0.96106 0.70607 0.0
O490 O 0.98888 0.95952 0.68653 0.0
O491 O 0.09268 0.046 0.69004 0.0
O492 O 0.08411 0.0417 0.70927 0.0
C493 C 0.10638 0.05005 0.70088 0.0
O494 O 1.00247 0.0598 0.67734 0.0
O495 O 0.00663 0.06151 0.65788 0.0
C496 C 1.00266 0.07159 0.70048 0.0
C497 C 0.9953 0.07028 0.66723 0.0
Zn498 Zn 0.68019 0.36588 0.53199 0.0
Zn499 Zn 0.69429 0.37478 0.48754 0.0
Zn500 Zn 0.68814 0.37141 0.51033 0.0
C501 C 0.77031 0.4144 0.49764 0.0
C502 C 0.65383 0.29242 0.49139 0.0
O503 O 0.64718 0.39359 0.51534 0.0
O504 O 0.64944 0.39156 0.53486 0.0
C505 C 0.75906 0.41519 0.5307 0.0
O506 O 0.75176 0.40508 0.50724 0.0
O507 O 0.75172 0.40564 0.48766 0.0
O508 O 0.66719 0.31575 0.48299 0.0
O509 O 0.65949 0.3076 0.50218 0.0
O510 O 0.73447 0.3966 0.53822 0.0
O511 O 0.74791 0.41035 0.51957 0.0
O512 O 0.66487 0.30621 0.51466 0.0
O513 O 0.6538 0.30709 0.53364 0.0
C514 C 0.65345 0.28764 0.52434 0.0
O515 O 0.65824 0.40421 0.50349 0.0
O516 O 0.66631 0.40403 0.4842 0.0
C517 C 0.63645 0.39913 0.52557 0.0
C518 C 0.65372 0.4142 0.49299 0.0
Zn519 Zn 0.68497 0.36314 0.7294 0.0
Zn520 Zn 0.68708 0.37454 0.68503 0.0
Zn521 Zn 0.68554 0.36646 0.70687 0.0
C522 C 0.61025 0.34304 0.68892 0.0
C523 C 0.73822 0.45103 0.6937 0.0
O524 O 0.71247 0.32918 0.71166 0.0
O525 O 0.70724 0.32759 0.73108 0.0
C526 C 0.60737 0.3273 0.72182 0.0
O527 O 0.62421 0.34591 0.69965 0.0
O528 O 0.6323 0.35263 0.68044 0.0
O529 O 0.72112 0.43298 0.68388 0.0
O530 O 0.7287 0.43155 0.70329 0.0
O531 O 0.62875 0.33855 0.73132 0.0
O532 O 0.62297 0.33522 0.7117 0.0
O533 O 0.72003 0.43007 0.71549 0.0
O534 O 0.71869 0.42078 0.73472 0.0
C535 C 0.72934 0.44459 0.72639 0.0
O536 O 0.70616 0.32598 0.69912 0.0
O537 O 0.70891 0.34056 0.6803 0.0
C538 C 0.71822 0.31791 0.72181 0.0
C539 C 0.71329 0.32084 0.68834 0.0
Zn540 Zn 0.68287 0.35037 0.23449 0.0
Zn541 Zn 0.69568 0.35257 0.18995 0.0
Zn542 Zn 0.68837 0.35036 0.21169 0.0
C543 C 0.72497 0.43205 0.19673 0.0
C544 C 0.61683 0.306 0.19153 0.0
O545 O 0.71867 0.31905 0.21921 0.0
O546 O 0.71285 0.32369 0.23853 0.0
C547 C 0.72232 0.43166 0.22967 0.0
O548 O 0.71252 0.41475 0.20653 0.0
O549 O 0.72469 0.41127 0.18776 0.0
O550 O 0.64116 0.32385 0.18388 0.0
O551 O 0.62842 0.31114 0.20262 0.0
O552 O 0.7083 0.40969 0.23832 0.0
O553 O 0.71734 0.41496 0.21912 0.0
O554 O 0.62496 0.31699 0.21496 0.0
O555 O 0.62556 0.31776 0.23456 0.0
C556 C 0.60669 0.30799 0.2246 0.0
O557 O 0.72826 0.32663 0.20716 0.0
O558 O 0.72365 0.32335 0.18757 0.0
C559 C 0.7247 0.31177 0.22993 0.0
C560 C 0.73744 0.31787 0.19708 0.0
Zn561 Zn 0.69956 0.34381 0.03822 0.0
Zn562 Zn 0.70151 0.36257 0.99393 0.0
Zn563 Zn 0.70131 0.35538 1.01653 0.0
C564 C 0.66288 0.27969 0.99631 0.0
C565 C 0.7795 0.40055 1.00193 0.0
O566 O 0.67956 0.39387 1.02481 0.0
O567 O 0.67977 0.37919 0.04355 0.0
C568 C 0.64777 0.26873 0.02869 0.0
O569 O 0.6699 0.29284 1.00734 0.0
O570 O 0.67285 0.30468 0.98828 0.0
O571 O 0.75822 0.3922 0.9925 0.0
O572 O 0.76392 0.38887 1.01194 0.0
O573 O 0.66376 0.2856 0.03872 0.0
O574 O 0.65858 0.28936 1.01933 0.0
O575 O 0.763 0.37719 1.02376 0.0
O576 O 0.75391 0.36298 0.04261 0.0
C577 C 0.77646 0.37649 0.03429 0.0
O578 O 0.67148 0.39041 1.01234 0.0
O579 O 0.67417 0.39354 0.99286 0.0
C580 C 0.67396 0.39883 0.03578 0.0
C581 C 0.66322 0.40125 1.00246 0.0
Zn582 Zn 0.35469 0.70277 0.87502 0.0
Zn583 Zn 0.36308 0.71343 0.82182 0.0
Zn584 Zn 0.35485 0.69928 0.84315 0.0
C585 C 0.43771 0.7414 0.83117 0.0
C586 C 0.31383 0.62879 0.8222 0.0
O587 O 0.31663 0.72064 0.85162 0.0
O588 O 0.32274 0.72827 0.87166 0.0
C589 C 0.43045 0.74765 0.86392 0.0
O590 O 0.41881 0.73166 0.84069 0.0
O591 O 0.41965 0.73584 0.82123 0.0
O592 O 0.32681 0.65721 0.81517 0.0
O593 O 0.32355 0.63734 0.8334 0.0
O594 O 0.41102 0.73805 0.87313 0.0
O595 O 0.41432 0.73543 0.85321 0.0
O596 O 0.33101 0.63262 0.84534 0.0
O597 O 0.33869 0.6677 0.86106 0.0
C598 C 0.33305 0.63464 0.85661 0.0
O599 O 0.3244 0.73372 0.83913 0.0
O600 O 0.34385 0.75161 0.82111 0.0
C601 C 0.30793 0.73048 0.86173 0.0
C602 C 0.32595 0.7533 0.82989 0.0
Zn603 Zn 0.36042 0.69573 0.06302 0.0
Zn604 Zn 0.35384 0.70795 1.01881 0.0
Zn605 Zn 0.35546 0.69997 0.04049 0.0
C606 C 0.27777 0.67592 1.02364 0.0
C607 C 0.40624 0.78428 1.02696 0.0
O608 O 0.38408 0.6634 0.04449 0.0
O609 O 0.38432 0.66164 0.06403 0.0
C610 C 0.28122 0.66131 0.05675 0.0
O611 O 0.29308 0.67903 0.0342 0.0
O612 O 0.2987 0.68554 1.01489 0.0
O613 O 0.38708 0.76632 1.01736 0.0
O614 O 0.39834 0.76486 0.03656 0.0
O615 O 0.30467 0.66997 0.06567 0.0
O616 O 0.2941 0.67032 0.0463 0.0
O617 O 0.39006 0.76342 0.0489 0.0
O618 O 0.39306 0.7541 0.06803 0.0
C619 C 0.40089 0.77796 0.05976 0.0
O620 O 0.37487 0.65945 0.03209 0.0
O621 O 0.37537 0.67441 1.01336 0.0
C622 C 0.39305 0.65245 0.05424 0.0
C623 C 0.38073 0.65453 1.02115 0.0
Zn624 Zn 0.3615 0.69218 0.57079 0.0
Zn625 Zn 0.37037 0.69561 0.52927 0.0
Zn626 Zn 0.36514 0.6919 0.54853 0.0
C627 C 0.36371 0.75856 0.53357 0.0
C628 C 0.30796 0.62332 0.53068 0.0
O629 O 0.39914 0.66335 0.55497 0.0
O630 O 0.39101 0.66434 0.57422 0.0
C631 C 0.39936 0.77379 0.56575 0.0
O632 O 0.3803 0.7542 0.54299 0.0
O633 O 0.34698 0.72945 0.5258 0.0
O634 O 0.3389 0.63622 0.52532 0.0
O635 O 0.30762 0.64505 0.53965 0.0
O636 O 0.38836 0.7518 0.57451 0.0
O637 O 0.39205 0.75705 0.55511 0.0
O638 O 0.3016 0.65536 0.55139 0.0
O639 O 0.30394 0.66056 0.57101 0.0
C640 C 0.2842 0.64825 0.56118 0.0
O641 O 0.41022 0.67657 0.54309 0.0
O642 O 0.42786 0.72168 0.52958 0.0
C643 C 0.40447 0.65464 0.56556 0.0
C644 C 0.43506 0.69885 0.53566 0.0
Zn645 Zn 0.35827 0.69515 0.32588 0.0
Zn646 Zn 0.37586 0.70837 0.37977 0.0
Zn647 Zn 0.36005 0.69138 0.3482 0.0
C648 C 0.44246 0.72273 0.36626 0.0
C649 C 0.32239 0.63251 0.36359 0.0
O650 O 0.33056 0.72637 0.34413 0.0
O651 O 0.33303 0.72835 0.32464 0.0
C652 C 0.43681 0.73126 0.33352 0.0
O653 O 0.42013 0.71008 0.35651 0.0
O654 O 0.43074 0.72799 0.37613 0.0
O655 O 0.34902 0.66701 0.36734 0.0
O656 O 0.31921 0.62704 0.35236 0.0
O657 O 0.41497 0.72189 0.32417 0.0
O658 O 0.42186 0.72199 0.34366 0.0
O659 O 0.3253 0.62684 0.34015 0.0
O660 O 0.32629 0.63656 0.32095 0.0
C661 C 0.31622 0.61254 0.32923 0.0
O662 O 0.34102 0.73317 0.35673 0.0
O663 O 0.35666 0.74574 0.37648 0.0
C664 C 0.32237 0.73685 0.33418 0.0
C665 C 0.34258 0.7512 0.36691 0.0
H666 H 0.2664 0.31191 0.23093 0.0
H667 H 0.1466 0.075 0.21014 0.0
H668 H 0.23733 0.21317 0.25373 0.0
H669 H 0.13708 0.16466 0.19041 0.0
H670 H 0.19696 0.12939 0.22351 0.0
H671 H 0.23237 0.26176 0.21406 0.0
C672 C 0.25283 0.27975 0.2324 0.0
C673 C 0.25433 0.26671 0.2438 0.0
C674 C 0.18465 0.13738 0.21609 0.0
C675 C 0.21655 0.20949 0.22451 0.0
C676 C 0.15643 0.10638 0.20832 0.0
C677 C 0.1377 0.11542 0.19919 0.0
C678 C 0.19401 0.17778 0.21479 0.0
C679 C 0.1511 0.15653 0.19731 0.0
C680 C 0.23363 0.25125 0.22276 0.0
C681 C 0.23651 0.22469 0.24516 0.0
N682 N 0.17795 0.18631 0.20522 0.0
N683 N 0.21853 0.1977 0.23565 0.0
H684 H 0.83798 0.08356 0.2429 0.0
H685 H 0.90002 0.0183 0.18349 0.0
H686 H 0.77378 0.9637 0.22508 0.0
H687 H 0.97362 0.12901 0.20496 0.0
H688 H 0.84481 1.00666 0.1951 0.0
H689 H 0.87929 0.10756 0.22615 0.0
C690 C 0.83213 0.06232 0.23542 0.0
C691 C 0.80252 0.02128 0.23554 0.0
C692 C 0.87271 0.03427 0.19701 0.0
C693 C 0.85014 0.04877 0.21623 0.0
C694 C 0.90405 0.04139 0.19019 0.0
C695 C 0.94145 0.07458 0.19332 0.0
C696 C 0.87897 0.06073 0.20693 0.0
C697 C 0.9452 0.10305 0.20228 0.0
C698 C 0.85588 0.0761 0.22584 0.0
C699 C 0.79672 0.99532 0.22554 0.0
N700 N 0.91463 0.09504 0.20894 0.0
N701 N 0.82049 0.00939 0.21636 0.0
H702 H 0.96732 0.79164 0.24107 0.0
H703 H 0.03293 0.92403 0.18444 0.0
H704 H 0.07569 0.82784 0.22474 0.0
H705 H 0.93334 0.89996 0.20401 0.0
H706 H 0.0395 0.87328 0.19551 0.0
H707 H 0.94652 0.81658 0.2245 0.0
C708 C 0.98669 0.80429 0.23397 0.0
C709 C 0.02375 0.80802 0.2345 0.0
C710 C 0.01545 0.87815 0.19712 0.0
C711 C 0.99991 0.83737 0.21537 0.0
C712 C 0.01127 0.90659 0.19064 0.0
C713 C 0.98271 0.91632 0.1934 0.0
C714 C 0.99072 0.85937 0.20634 0.0
C715 C 0.95585 0.89339 0.20167 0.0
C716 C 0.97472 0.81871 0.22446 0.0
C717 C 0.04732 0.82509 0.22492 0.0
N718 N 0.96093 0.86657 0.208 0.0
N719 N 0.0352 0.83951 0.21584 0.0
H720 H 0.296 0.22396 0.32688 0.0
H721 H 0.09414 0.16957 0.35406 0.0
H722 H 0.21716 0.26096 0.31267 0.0
H723 H 0.16305 0.11603 0.36407 0.0
H724 H 0.148 0.21874 0.34281 0.0
H725 H 0.25581 0.1982 0.34382 0.0
C726 C 0.27037 0.22683 0.3273 0.0
C727 C 0.25975 0.24408 0.31814 0.0
C728 C 0.15188 0.19713 0.3478 0.0
C729 C 0.21369 0.21503 0.33771 0.0
C730 C 0.12142 0.1696 0.35439 0.0
C731 C 0.12446 0.13908 0.36005 0.0
C732 C 0.18535 0.19377 0.34686 0.0
C733 C 0.15986 0.13947 0.35991 0.0
C734 C 0.24755 0.21238 0.33705 0.0
C735 C 0.22666 0.24791 0.31943 0.0
N736 N 0.18869 0.16589 0.35325 0.0
N737 N 0.20463 0.23309 0.32894 0.0
H738 H 0.76599 0.99189 0.3088 0.0
H739 H 0.95576 0.10716 0.35306 0.0
H740 H 0.87343 0.09831 0.3007 0.0
H741 H 0.88707 0.97605 0.35078 0.0
H742 H 0.91056 0.10915 0.33825 0.0
H743 H 0.79748 0.99041 0.32784 0.0
C744 C 0.79602 0.01522 0.3111 0.0
C745 C 0.81729 0.04523 0.30315 0.0
C746 C 0.90469 0.07998 0.34124 0.0
C747 C 0.85277 0.0442 0.32493 0.0
C748 C 0.93009 0.0788 0.34982 0.0
C749 C 0.92512 0.04137 0.35312 0.0
C750 C 0.87392 0.04346 0.33593 0.0
C751 C 0.89168 1.0055 0.34854 0.0
C752 C 0.81386 0.01423 0.32192 0.0
C753 C 0.8561 0.07453 0.30652 0.0
N754 N 0.86755 0.00734 0.33997 0.0
N755 N 0.87251 0.07341 0.31718 0.0
H756 H 0.05055 0.84259 0.29978 0.0
H757 H 0.96403 0.88479 0.3564 0.0
H758 H 0.96561 0.74312 0.31888 0.0
H759 H 0.07913 0.96971 0.34601 0.0
H760 H 0.96303 0.83151 0.34322 0.0
H761 H 0.0595 0.88986 0.31644 0.0
C762 C 0.03362 0.83069 0.30746 0.0
C763 C 0.00704 0.78884 0.30789 0.0
C764 C 0.989 0.86145 0.34409 0.0
C765 C 0.01726 0.84291 0.32704 0.0
C766 C 0.98975 0.89163 0.35172 0.0
C767 C 0.02206 0.93127 0.35245 0.0
C768 C 0.02027 0.87154 0.33687 0.0
C769 C 0.05407 0.9392 0.34587 0.0
C770 C 0.03907 0.85766 0.31702 0.0
C771 C 0.9863 0.77516 0.31815 0.0
N772 N 0.0521 0.90982 0.33817 0.0
N773 N 0.99149 0.80217 0.32727 0.0
H774 H 0.81892 0.84872 0.80068 0.0
H775 H 0.92123 0.89737 0.86543 0.0
H776 H 0.78573 0.75392 0.82521 0.0
H777 H 0.92021 0.98761 0.84372 0.0
H778 H 0.86907 0.84355 0.85198 0.0
H779 H 0.85637 0.89944 0.81684 0.0
C780 C 0.81967 0.8385 0.80946 0.0
C781 C 0.79931 0.79691 0.81155 0.0
C782 C 0.87949 0.87517 0.85037 0.0
C783 C 0.84224 0.8552 0.83025 0.0
C784 C 0.90878 0.90586 0.85816 0.0
C785 C 0.92498 0.94692 0.85565 0.0
C786 C 0.86688 0.88593 0.84002 0.0
C787 C 0.9085 0.95628 0.84595 0.0
C788 C 0.84079 0.86757 0.81874 0.0
C789 C 0.80111 0.78567 0.82319 0.0
N790 N 0.88097 0.92612 0.83839 0.0
N791 N 0.8225 0.81461 0.83209 0.0
H792 H 0.29474 0.09875 0.83246 0.0
H793 H 0.0904 0.93267 0.85362 0.0
H794 H 0.2228 0.97861 0.81528 0.0
H795 H 0.16367 0.04855 0.87272 0.0
H796 H 0.14578 0.9427 0.84253 0.0
H797 H 0.25361 0.07692 0.84937 0.0
C798 C 0.27052 0.06777 0.83223 0.0
C799 C 0.26212 0.0408 0.82226 0.0
C800 C 0.1503 0.96546 0.84941 0.0
C801 C 0.21501 0.01535 0.84175 0.0
C802 C 0.11878 0.95926 0.85593 0.0
C803 C 0.12248 0.98982 0.86408 0.0
C804 C 0.18554 1.00295 0.85088 0.0
C805 C 0.1597 0.02412 0.86655 0.0
C806 C 0.24722 0.05518 0.84196 0.0
C807 C 0.23073 1.00068 0.82268 0.0
N808 N 0.18954 0.03042 0.85971 0.0
N809 N 0.20818 0.98944 0.83215 0.0
H810 H 0.97011 0.22219 0.83185 0.0
H811 H 0.12629 0.1649 0.85223 0.0
H812 H 0.08101 0.26789 0.81631 0.0
H813 H 0.02543 0.13605 0.87176 0.0
H814 H 0.11727 0.21486 0.8418 0.0
H815 H 0.99456 0.20056 0.84858 0.0
C816 C 0.99972 0.22802 0.832 0.0
C817 C 0.02325 0.24624 0.82252 0.0
C818 C 0.0977 0.1986 0.84861 0.0
C819 C 0.05159 0.22166 0.84172 0.0
C820 C 0.1032 0.17042 0.85468 0.0
C821 C 0.07638 0.14615 0.86278 0.0
C822 C 0.06451 0.2017 0.85044 0.0
C823 C 0.04677 0.15422 0.86557 0.0
C824 C 0.01381 0.21596 0.84162 0.0
C825 C 0.06172 0.25388 0.82336 0.0
N826 N 0.04088 0.18046 0.85915 0.0
N827 N 0.07442 0.24095 0.83267 0.0
H828 H 0.76735 0.83227 0.72723 0.0
H829 H 0.973 0.87602 0.7071 0.0
H830 H 0.83628 0.78715 0.74399 0.0
H831 H 0.90515 0.91951 0.68906 0.0
H832 H 0.91576 0.82942 0.71742 0.0
H833 H 0.81085 0.85352 0.71089 0.0
C834 C 0.79139 0.8266 0.7275 0.0
C835 C 0.7982 0.80831 0.7372 0.0
C836 C 0.91284 0.84815 0.71093 0.0
C837 C 0.84799 0.83213 0.71832 0.0
C838 C 0.94541 0.87419 0.70486 0.0
C839 C 0.94377 0.9016 0.69722 0.0
C840 C 0.87861 0.85021 0.70956 0.0
C841 C 0.90751 0.8986 0.69482 0.0
C842 C 0.81606 0.83843 0.71808 0.0
C843 C 0.82949 0.80101 0.73681 0.0
N844 N 0.87662 0.87431 0.70124 0.0
N845 N 0.85331 0.81331 0.72764 0.0
H846 H 0.243 0.06048 0.75857 0.0
H847 H 0.14151 0.00742 0.69402 0.0
H848 H 0.26757 0.99152 0.73275 0.0
H849 H 0.15879 0.10969 0.71645 0.0
H850 H 0.19004 1.00236 0.70685 0.0
H851 H 0.21116 0.07744 0.74278 0.0
C852 C 0.24144 0.0486 0.74959 0.0
C853 C 0.25775 0.02424 0.74702 0.0
C854 C 0.18421 0.0268 0.70872 0.0
C855 C 0.22139 0.04391 0.72877 0.0
C856 C 0.15707 0.03018 0.70126 0.0
C857 C 0.14629 0.05914 0.70417 0.0
C858 C 0.20003 0.05224 0.71919 0.0
C859 C 0.16646 0.08708 0.71387 0.0
C860 C 0.22363 0.05872 0.74052 0.0
C861 C 0.25523 0.01025 0.73514 0.0
N862 N 0.1916 0.08236 0.72117 0.0
N863 N 0.23704 0.01992 0.72646 0.0
H864 H 0.97883 0.20205 0.75636 0.0
H865 H 0.04264 0.1519 0.69547 0.0
H866 H 0.058 0.29738 0.73489 0.0
H867 H 0.94537 0.06453 0.71405 0.0
H868 H 0.04459 0.20709 0.70803 0.0
H869 H 0.96392 0.15235 0.73995 0.0
C870 C 0.99325 0.21256 0.74819 0.0
C871 C 0.02007 0.25395 0.74707 0.0
C872 C 0.02203 0.17592 0.7091 0.0
C873 C 1.00293 0.19683 0.72807 0.0
C874 C 0.02052 0.1445 0.7018 0.0
C875 C 0.99386 0.10372 0.70379 0.0
C876 C 0.99683 0.16613 0.71842 0.0
C877 C 0.96641 0.09564 0.71227 0.0
C878 C 0.98441 0.18413 0.73874 0.0
C879 C 0.03732 0.26572 0.73617 0.0
N880 N 0.96907 0.12643 0.71941 0.0
N881 N 0.02882 0.23723 0.72712 0.0
H882 H 0.90294 0.54189 0.59081 0.0
H883 H 0.80441 0.49529 0.52555 0.0
H884 H 0.93863 0.63709 0.56631 0.0
H885 H 0.80208 0.40397 0.54751 0.0
H886 H 0.85626 0.54847 0.53922 0.0
H887 H 0.86576 0.49151 0.57455 0.0
C888 C 0.9028 0.55227 0.58201 0.0
C889 C 0.92377 0.59387 0.57996 0.0
C890 C 0.84515 0.51674 0.54085 0.0
C891 C 0.88118 0.53599 0.56115 0.0
C892 C 0.81602 0.48641 0.53294 0.0
C893 C 0.79895 0.44527 0.53545 0.0
C894 C 0.85673 0.50553 0.55131 0.0
C895 C 0.81443 0.43539 0.54529 0.0
C896 C 0.88183 0.52339 0.57267 0.0
C897 C 0.92276 0.60533 0.5683 0.0
N898 N 0.84183 0.46523 0.55295 0.0
N899 N 0.90152 0.57659 0.55934 0.0
H900 H 0.50235 0.41895 0.57639 0.0
H901 H 0.56127 0.35025 0.51716 0.0
H902 H 0.4308 0.30201 0.55733 0.0
H903 H 0.63672 0.46026 0.53867 0.0
H904 H 0.50609 0.34113 0.52838 0.0
H905 H 0.54446 0.4417 0.5599 0.0
C906 C 0.49499 0.39806 0.56871 0.0
C907 C 0.46295 0.35809 0.56844 0.0
C908 C 0.53442 0.36809 0.53037 0.0
C909 C 0.51192 0.38424 0.54938 0.0
C910 C 0.56578 0.37379 0.52378 0.0
C911 C 0.60358 0.40605 0.52702 0.0
C912 C 0.54112 0.39497 0.54023 0.0
C913 C 0.60797 0.43506 0.53588 0.0
C914 C 0.5193 0.41118 0.55925 0.0
C915 C 0.45553 0.3327 0.55814 0.0
N916 N 0.57736 0.42838 0.54235 0.0
N917 N 0.48001 0.34604 0.5491 0.0
H918 H 0.63866 0.12351 0.57312 0.0
H919 H 0.70137 0.26008 0.51745 0.0
H920 H 0.75042 0.17015 0.55794 0.0
H921 H 0.59728 0.22567 0.53587 0.0
H922 H 0.71101 0.21085 0.5283 0.0
H923 H 0.61599 0.14545 0.55625 0.0
C924 C 0.65845 0.13784 0.56621 0.0
C925 C 0.69696 0.14547 0.56718 0.0
C926 C 0.68533 0.21306 0.52968 0.0
C927 C 0.67087 0.17133 0.5477 0.0
C928 C 0.67941 0.24062 0.52331 0.0
C929 C 0.64866 0.24712 0.52586 0.0
C930 C 0.66013 0.19191 0.53858 0.0
C931 C 0.62147 0.22164 0.5337 0.0
C932 C 0.64537 0.15052 0.55653 0.0
C933 C 0.72089 0.16444 0.55781 0.0
N934 N 0.62826 0.19579 0.53996 0.0
N935 N 0.70763 0.17713 0.54855 0.0
H936 H 0.95196 0.55669 0.66417 0.0
H937 H 0.74733 0.51814 0.68328 0.0
H938 H 0.88755 0.60744 0.64771 0.0
H939 H 0.81138 0.47048 0.70142 0.0
H940 H 0.80606 0.56483 0.6736 0.0
H941 H 0.9077 0.5358 0.68031 0.0
C942 C 0.92877 0.5637 0.66393 0.0
C943 C 0.92338 0.58339 0.65435 0.0
C944 C 0.80782 0.54513 0.67997 0.0
C945 C 0.87276 0.55998 0.673 0.0
C946 C 0.77438 0.51899 0.68568 0.0
C947 C 0.77452 0.4904 0.69313 0.0
C948 C 0.84139 0.54192 0.68151 0.0
C949 C 0.81015 0.49226 0.69577 0.0
C950 C 0.90368 0.55207 0.67324 0.0
C951 C 0.89321 0.59241 0.65478 0.0
N952 N 0.84192 0.51665 0.68969 0.0
N953 N 0.86892 0.58025 0.66383 0.0
H954 H 0.45027 0.4046 0.65713 0.0
H955 H 0.5564 0.28077 0.67435 0.0
H956 H 0.47089 0.32875 0.63271 0.0
H957 H 0.5759 0.38671 0.69533 0.0
H958 H 0.50706 0.28464 0.66186 0.0
H959 H 0.48215 0.38807 0.6733 0.0
C960 C 0.4615 0.38453 0.65516 0.0
C961 C 0.45834 0.36845 0.6435 0.0
C962 C 0.52124 0.30639 0.6694 0.0
C963 C 0.49361 0.34849 0.662 0.0
C964 C 0.54879 0.30364 0.67669 0.0
C965 C 0.57004 0.33332 0.68591 0.0
C966 C 0.51509 0.3393 0.67128 0.0
C967 C 0.55975 0.36293 0.68839 0.0
C968 C 0.47948 0.37499 0.6644 0.0
C969 C 0.47314 0.34236 0.6415 0.0
N970 N 0.53353 0.36577 0.68095 0.0
N971 N 0.48997 0.33315 0.65064 0.0
H972 H 0.65979 0.091 0.65459 0.0
H973 H 0.769 0.32907 0.67389 0.0
H974 H 0.72847 0.18806 0.63201 0.0
H975 H 0.67452 0.24001 0.69302 0.0
H976 H 0.76657 0.27429 0.66134 0.0
H977 H 0.67407 0.14218 0.67086 0.0
C978 C 0.67786 0.12301 0.65305 0.0
C979 C 0.69262 0.13527 0.64187 0.0
C980 C 0.74688 0.26652 0.66844 0.0
C981 C 0.70981 0.1937 0.6605 0.0
C982 C 0.74871 0.29778 0.67573 0.0
C983 C 0.7219 0.28899 0.68447 0.0
C984 C 0.7177 0.22606 0.66979 0.0
C985 C 0.69589 0.24797 0.68642 0.0
C986 C 0.68608 0.15212 0.66235 0.0
C987 C 0.71604 0.17713 0.6404 0.0
N988 N 0.69386 0.21788 0.67896 0.0
N989 N 0.72392 0.2047 0.64959 0.0
H990 H 0.44229 0.08101 0.15534 0.0
H991 H 0.57186 0.31796 0.17563 0.0
H992 H 0.47521 0.17985 0.1323 0.0
H993 H 0.57331 0.22534 0.19608 0.0
H994 H 0.52072 0.26501 0.16211 0.0
H995 H 0.47782 0.13109 0.17211 0.0
C996 C 0.45696 0.11318 0.1538 0.0
C997 C 0.45611 0.12623 0.14235 0.0
C998 C 0.53147 0.25609 0.1697 0.0
C999 C 0.49581 0.18348 0.16153 0.0
C1000 C 0.56018 0.28632 0.17754 0.0
C1001 C 0.57677 0.27595 0.18696 0.0
C1002 C 0.51945 0.21506 0.1712 0.0
C1003 C 0.56099 0.23453 0.18896 0.0
C1004 C 0.47706 0.14167 0.16338 0.0
C1005 C 0.47543 0.16829 0.1409 0.0
N1006 N 0.53365 0.20544 0.18098 0.0
N1007 N 0.49434 0.19529 0.15036 0.0
H1008 H 0.8786 0.30389 0.14787 0.0
H1009 H 0.81151 0.3645 0.20674 0.0
H1010 H 0.94496 0.41976 0.16783 0.0
H1011 H 0.73837 0.258 0.18361 0.0
H1012 H 0.86838 0.37428 0.19637 0.0
H1013 H 0.83516 0.27784 0.16405 0.0
C1014 C 0.88451 0.32377 0.15571 0.0
C1015 C 0.91525 0.36446 0.15633 0.0
C1016 C 0.8401 0.34789 0.19383 0.0
C1017 C 0.86511 0.33465 0.17496 0.0
C1018 C 0.80773 0.34182 0.19993 0.0
C1019 C 0.77022 0.31063 0.19593 0.0
C1020 C 0.83466 0.32241 0.18374 0.0
C1021 C 0.76686 0.28254 0.18691 0.0
C1022 C 0.85954 0.30882 0.16497 0.0
C1023 C 0.92112 0.38859 0.16678 0.0
N1024 N 0.79849 0.28963 0.18092 0.0
N1025 N 0.89605 0.37349 0.1756 0.0
H1026 H 0.7465 0.59984 0.14777 0.0
H1027 H 0.6813 0.46485 0.20383 0.0
H1028 H 0.63791 0.56227 0.16414 0.0
H1029 H 0.78073 0.48997 0.18401 0.0
H1030 H 0.67462 0.51614 0.19309 0.0
H1031 H 0.7675 0.57458 0.16417 0.0
C1032 C 0.72709 0.58683 0.15484 0.0
C1033 C 0.6899 0.58277 0.15435 0.0
C1034 C 0.69864 0.51135 0.19136 0.0
C1035 C 0.71402 0.55301 0.1733 0.0
C1036 C 0.70287 0.48257 0.19764 0.0
C1037 C 0.73139 0.47297 0.1947 0.0
C1038 C 0.7233 0.53062 0.18217 0.0
C1039 C 0.7582 0.49635 0.18647 0.0
C1040 C 0.73921 0.57221 0.16426 0.0
C1041 C 0.66638 0.56526 0.16391 0.0
N1042 N 0.75307 0.52351 0.18034 0.0
N1043 N 0.67862 0.55062 0.17291 0.0
H1044 H 0.49309 0.10667 0.07352 0.0
H1045 H 0.57585 0.25022 1.01992 0.0
H1046 H 0.43878 0.16932 0.05796 0.0
H1047 H 0.63643 0.20053 0.03899 0.0
H1048 H 0.51611 0.20393 0.02944 0.0
H1049 H 0.53608 0.12532 0.05729 0.0
C1050 C 0.48961 0.12385 0.06665 0.0
C1051 C 0.46234 0.13693 0.06734 0.0
C1052 C 0.54209 0.20207 0.03122 0.0
C1053 C 0.51248 0.15894 0.0486 0.0
C1054 C 0.57602 0.22791 1.02558 0.0
C1055 C 0.61115 0.22936 0.02876 0.0
C1056 C 0.54352 0.17751 0.04002 0.0
C1057 C 0.60992 0.20039 0.03634 0.0
C1058 C 0.51445 0.13461 0.05734 0.0
C1059 C 0.45984 0.15934 0.05804 0.0
N1060 N 0.57695 0.17632 0.04192 0.0
N1061 N 0.48488 0.17004 0.04916 0.0
H1062 H 0.93629 0.32073 0.06831 0.0
H1063 H 0.83002 0.4417 0.04804 0.0
H1064 H 0.91891 0.403 0.09102 0.0
H1065 H 0.81211 0.33372 0.02864 0.0
H1066 H 0.8802 0.44076 0.06094 0.0
H1067 H 0.90479 0.33517 0.05154 0.0
C1068 C 0.92589 0.3418 0.06978 0.0
C1069 C 0.92978 0.36024 0.08114 0.0
C1070 C 0.86623 0.41794 0.05363 0.0
C1071 C 0.89485 0.37774 0.06194 0.0
C1072 C 0.83821 0.41905 0.0461 0.0
C1073 C 0.8172 0.38798 0.0372 0.0
C1074 C 0.87302 0.38526 0.05234 0.0
C1075 C 0.82812 0.35858 0.03529 0.0
C1076 C 0.90813 0.35016 0.06019 0.0
C1077 C 0.91607 0.38757 0.08248 0.0
N1078 N 0.85474 0.35737 0.04297 0.0
N1079 N 0.89932 0.39547 0.07303 0.0
H1080 H 0.66685 0.53949 0.09291 0.0
H1081 H 0.70482 0.47753 0.02913 0.0
H1082 H 0.71833 0.62829 0.06659 0.0
H1083 H 0.6259 0.39224 0.05291 0.0
H1084 H 0.70781 0.53365 0.04155 0.0
H1085 H 0.65187 0.48562 0.07781 0.0
C1086 C 0.67524 0.54773 0.08395 0.0
C1087 C 0.69414 0.58858 0.08105 0.0
C1088 C 0.68905 0.50255 0.04385 0.0
C1089 C 0.67676 0.52661 0.06358 0.0
C1090 C 0.68693 0.47052 0.03668 0.0
C1091 C 0.66531 0.43031 0.04008 0.0
C1092 C 0.66959 0.49396 0.05447 0.0
C1093 C 0.64317 0.42289 0.05004 0.0
C1094 C 0.66631 0.51684 0.07528 0.0
C1095 C 0.70385 0.59721 0.06923 0.0
N1096 N 0.6464 0.45436 0.05698 0.0
N1097 N 0.69536 0.5665 0.06093 0.0
H1098 H 0.5823 0.86943 0.92063 0.0
H1099 H 0.47011 0.82703 0.85837 0.0
H1100 H 0.60634 0.96791 0.89822 0.0
H1101 H 0.48326 0.73626 0.87621 0.0
H1102 H 0.52441 0.88035 0.87122 0.0
H1103 H 0.54762 0.82086 0.90374 0.0
C1104 C 0.58015 0.88087 0.91215 0.0
C1105 C 0.59691 0.92282 0.91088 0.0
C1106 C 0.51641 0.84887 0.87203 0.0
C1107 C 0.5572 0.86714 0.89139 0.0
C1108 C 0.48591 0.81848 0.86453 0.0
C1109 C 0.47229 0.77725 0.86625 0.0
C1110 C 0.53276 0.83761 0.88136 0.0
C1111 C 0.49304 0.76775 0.87458 0.0
C1112 C 0.56069 0.8531 0.90246 0.0
C1113 C 0.59364 0.9358 0.89961 0.0
N1114 N 0.52151 0.79755 0.88203 0.0
N1115 N 0.57372 0.90805 0.89033 0.0
H1116 H 0.09727 0.6298 0.89257 0.0
H1117 H 0.30551 0.79336 0.87291 0.0
H1118 H 0.17127 0.74832 0.91049 0.0
H1119 H 0.23296 0.67683 0.85405 0.0
H1120 H 0.24938 0.78418 0.88343 0.0
H1121 H 0.13999 0.65117 0.87605 0.0
C1122 C 0.12229 0.66034 0.89306 0.0
C1123 C 0.13079 0.68693 0.90313 0.0
C1124 C 0.24523 0.76108 0.87672 0.0
C1125 C 0.17971 0.71189 0.88405 0.0
C1126 C 0.27719 0.76676 0.87053 0.0
C1127 C 0.27388 0.73575 0.86264 0.0
C1128 C 0.2099 0.72372 0.87517 0.0
C1129 C 0.23668 0.70156 0.86003 0.0
C1130 C 0.14652 0.67267 0.88353 0.0
C1131 C 0.16325 0.72653 0.90301 0.0
N1132 N 0.20635 0.69581 0.86656 0.0
N1133 N 0.18664 0.73753 0.89373 0.0
H1134 H 0.4353 0.5637 0.91059 0.0
H1135 H 0.33357 0.56383 0.8499 0.0
H1136 H 0.34317 0.44643 0.89612 0.0
H1137 H 0.34215 0.63931 0.88062 0.0
H1138 H 0.34893 0.52263 0.86316 0.0
H1139 H 0.41639 0.59641 0.89556 0.0
C1140 C 0.41153 0.54483 0.90411 0.0
C1141 C 0.39069 0.50235 0.9046 0.0
C1142 C 0.34706 0.54815 0.86688 0.0
C1143 C 0.36925 0.53954 0.88733 0.0
C1144 C 0.33825 0.57153 0.85937 0.0
C1145 C 0.33704 0.60549 0.86411 0.0
C1146 C 0.35558 0.55968 0.87908 0.0
C1147 C 0.34342 0.61406 0.87647 0.0
C1148 C 0.40065 0.56347 0.8956 0.0
C1149 C 0.3597 0.47932 0.89606 0.0
N1150 N 0.35303 0.59186 0.88345 0.0
N1151 N 0.34988 0.4982 0.8877 0.0
H1152 H 0.61982 0.88629 0.99628 0.0
H1153 H 0.416 0.8509 1.01607 0.0
H1154 H 0.54972 0.92733 0.97799 0.0
H1155 H 0.4796 0.80236 0.03402 0.0
H1156 H 0.47375 0.89472 1.00553 0.0
H1157 H 0.57647 0.86764 1.0126 0.0
C1158 C 0.59558 0.8916 0.99563 0.0
C1159 C 0.58849 0.90805 0.9855 0.0
C1160 C 0.47564 0.87543 1.01202 0.0
C1161 C 0.53896 0.88732 1.00443 0.0
C1162 C 0.44282 0.85099 1.01822 0.0
C1163 C 0.443 0.82286 1.02587 0.0
C1164 C 0.50864 0.87112 1.01331 0.0
C1165 C 0.47834 0.82377 1.02822 0.0
C1166 C 0.57098 0.88123 1.00506 0.0
C1167 C 0.55683 0.91485 0.98547 0.0
N1168 N 0.50946 0.84656 1.02169 0.0
N1169 N 0.53324 0.90418 0.99469 0.0
H1170 H 0.12074 0.74042 0.99182 0.0
H1171 H 0.22171 0.61238 1.00993 0.0
H1172 H 0.13986 0.66255 0.96777 0.0
H1173 H 0.24517 0.72109 0.03018 0.0
H1174 H 0.17279 0.61698 0.99744 0.0
H1175 H 0.15146 0.72326 1.00819 0.0
C1176 C 0.13141 0.71978 0.98998 0.0
C1177 C 0.1282 0.70333 0.97837 0.0
C1178 C 0.1877 0.63916 1.00484 0.0
C1179 C 0.16205 0.6826 0.99708 0.0
C1180 C 0.21498 0.63599 1.01215 0.0
C1181 C 0.23736 0.66629 1.02112 0.0
C1182 C 0.18288 0.67304 1.00648 0.0
C1183 C 0.22817 0.69685 1.02343 0.0
C1184 C 0.14871 0.70988 0.99932 0.0
C1185 C 0.14222 0.67648 0.97652 0.0
N1186 N 0.20221 0.70005 1.01597 0.0
N1187 N 0.15837 0.66691 0.98576 0.0
H1188 H 0.39075 0.51943 0.9634 0.0
H1189 H 0.34736 0.57489 1.02706 0.0
H1190 H 0.33717 0.42731 0.98871 0.0
H1191 H 0.43141 0.66231 1.0048 0.0
H1192 H 0.34477 0.51959 1.01432 0.0
H1193 H 0.40478 0.57156 0.97897 0.0
C1194 C 0.38167 0.51009 0.97224 0.0
C1195 C 0.3625 0.46884 0.97471 0.0
C1196 C 0.36457 0.55094 1.01244 0.0
C1197 C 0.37882 0.52881 0.99274 0.0
C1198 C 0.36645 0.58246 1.0198 0.0
C1199 C 0.38944 0.62309 1.01689 0.0
C1200 C 0.38564 0.56049 1.00214 0.0
C1201 C 0.41311 0.63131 1.00728 0.0
C1202 C 0.39008 0.53999 0.98119 0.0
C1203 C 0.35189 0.45877 0.9864 0.0
N1204 N 0.41007 0.60035 1.00014 0.0
N1205 N 0.35988 0.48853 0.99498 0.0
H1206 H 0.21407 0.47566 0.4699 0.0
H1207 H 0.23294 0.60835 0.52644 0.0
H1208 H 0.10923 0.46544 0.48301 0.0
H1209 H 0.30543 0.55519 0.52215 0.0
H1210 H 0.18537 0.5576 0.51125 0.0
H1211 H 0.24854 0.50823 0.48905 0.0
C1212 C 0.19827 0.48003 0.47686 0.0
C1213 C 0.15883 0.46782 0.4749 0.0
C1214 C 0.21115 0.55636 0.51394 0.0
C1215 C 0.19819 0.5058 0.49678 0.0
C1216 C 0.23802 0.58499 0.52268 0.0
C1217 C 0.27322 0.58606 0.52543 0.0
C1218 C 0.22017 0.52943 0.50792 0.0
C1219 C 0.27877 0.55558 0.52017 0.0
C1220 C 0.21784 0.49841 0.48781 0.0
C1221 C 0.13967 0.47422 0.48423 0.0
N1222 N 0.25306 0.52917 0.51149 0.0
N1223 N 0.15972 0.49349 0.49474 0.0
H1224 H 0.6054 0.77922 0.48819 0.0
H1225 H 0.43284 0.63085 0.52615 0.0
H1226 H 0.54468 0.64896 0.48127 0.0
H1227 H 0.51063 0.75812 0.53591 0.0
H1228 H 0.47919 0.63322 0.51197 0.0
H1229 H 0.57627 0.76989 0.5073 0.0
C1230 C 0.58596 0.74858 0.49074 0.0
C1231 C 0.57697 0.71485 0.48307 0.0
C1232 C 0.48684 0.66028 0.51752 0.0
C1233 C 0.54312 0.70367 0.505 0.0
C1234 C 0.46067 0.6587 0.52578 0.0
C1235 C 0.46807 0.69434 0.53221 0.0
C1236 C 0.52026 0.69787 0.51567 0.0
C1237 C 0.504 0.72994 0.53115 0.0
C1238 C 0.56952 0.74317 0.50171 0.0
C1239 C 0.55221 0.67575 0.48693 0.0
N1240 N 0.52832 0.73104 0.52285 0.0
N1241 N 0.53557 0.67121 0.49754 0.0
H1242 H 0.39953 0.924 0.48204 0.0
H1243 H 0.30558 0.77566 0.53385 0.0
H1244 H 0.28382 0.88433 0.49333 0.0
H1245 H 0.42527 0.82549 0.52544 0.0
H1246 H 0.30092 0.82478 0.52155 0.0
H1247 H 0.41292 0.8968 0.49968 0.0
C1248 C 0.37701 0.91009 0.48826 0.0
C1249 C 0.34016 0.90603 0.486 0.0
C1250 C 0.32865 0.82598 0.52265 0.0
C1251 C 0.35538 0.8743 0.50629 0.0
C1252 C 0.33144 0.79834 0.52984 0.0
C1253 C 0.36603 0.79709 0.53079 0.0
C1254 C 0.36041 0.85181 0.5161 0.0
C1255 C 0.39832 0.8261 0.52509 0.0
C1256 C 0.38473 0.89445 0.49836 0.0
C1257 C 0.31228 0.88737 0.49446 0.0
N1258 N 0.39453 0.85177 0.51779 0.0
N1259 N 0.32032 0.87188 0.50412 0.0
H1260 H 0.18386 0.57097 0.42297 0.0
H1261 H 0.25106 0.56147 0.35843 0.0
H1262 H 0.13001 0.45536 0.40281 0.0
H1263 H 0.32891 0.64062 0.38757 0.0
H1264 H 0.20158 0.52366 0.37281 0.0
H1265 H 0.23187 0.60066 0.40806 0.0
C1266 C 0.18196 0.55193 0.41533 0.0
C1267 C 0.15292 0.5107 0.41411 0.0
C1268 C 0.22977 0.54906 0.37598 0.0
C1269 C 0.2079 0.54447 0.39696 0.0
C1270 C 0.25797 0.57049 0.36781 0.0
C1271 C 0.294 0.60456 0.37179 0.0
C1272 C 0.23772 0.56242 0.38807 0.0
C1273 C 0.30142 0.61499 0.38404 0.0
C1274 C 0.20955 0.56876 0.40687 0.0
C1275 C 0.15216 0.48725 0.40408 0.0
N1276 N 0.27344 0.59446 0.39168 0.0
N1277 N 0.17914 0.50453 0.3958 0.0
H1278 H 0.62378 0.73157 0.41046 0.0
H1279 H 0.44683 0.65527 0.36176 0.0
H1280 H 0.51203 0.62228 0.41244 0.0
H1281 H 0.51563 0.78074 0.37492 0.0
H1282 H 0.48891 0.63929 0.37403 0.0
H1283 H 0.60003 0.74496 0.39174 0.0
C1284 C 0.59458 0.70985 0.40681 0.0
C1285 C 0.56966 0.67587 0.41306 0.0
C1286 C 0.49579 0.67063 0.37381 0.0
C1287 C 0.54294 0.6906 0.39156 0.0
C1288 C 0.47232 0.67998 0.36662 0.0
C1289 C 0.47772 0.71938 0.36737 0.0
C1290 C 0.52542 0.7012 0.38151 0.0
C1291 C 0.51062 0.75002 0.37407 0.0
C1292 C 0.58115 0.7176 0.39616 0.0
C1293 C 0.53204 0.64897 0.40797 0.0
N1294 N 0.53287 0.74018 0.38107 0.0
N1295 N 0.51978 0.65694 0.39752 0.0
H1296 H 0.39799 0.97826 0.39962 0.0
H1297 H 0.27901 0.74294 0.37713 0.0
H1298 H 0.32455 0.879 0.4209 0.0
H1299 H 0.38308 0.83012 0.36118 0.0
H1300 H 0.28113 0.79826 0.3894 0.0
H1301 H 0.3815 0.92901 0.3826 0.0
C1302 C 0.37842 0.94617 0.40072 0.0
C1303 C 0.3631 0.93267 0.41176 0.0
C1304 C 0.30278 0.80556 0.38292 0.0
C1305 C 0.34315 0.87654 0.39226 0.0
C1306 C 0.30101 0.77407 0.37571 0.0
C1307 C 0.33089 0.78202 0.36813 0.0
C1308 C 0.3347 0.84526 0.38255 0.0
C1309 C 0.35931 0.82282 0.36685 0.0
C1310 C 0.36888 0.91819 0.39099 0.0
C1311 C 0.33759 0.89077 0.41263 0.0
N1312 N 0.36115 0.85295 0.37422 0.0
N1313 N 0.3284 0.8643 0.40303 0.0
H1314 H 0.25746 0.01071 0.14035 0.0
H1315 H 0.15477 0.13704 0.14803 0.0
H1316 H 0.30489 0.12896 0.1262 0.0
H1317 H 0.14489 0.05088 0.17336 0.0
H1318 H 0.21345 0.1395 0.14113 0.0
H1319 H 0.21836 0.02692 0.15324 0.0
C1320 C 0.25975 0.04022 0.14002 0.0
C1321 C 0.28401 0.06836 0.1321 0.0
C1322 C 0.19926 0.12103 0.14845 0.0
C1323 C 0.23923 0.08714 0.14679 0.0
C1324 C 0.16597 0.11993 0.15247 0.0
C1325 C 0.14503 0.09374 0.16128 0.0
C1326 C 0.21095 0.09475 0.15302 0.0
C1327 C 0.16037 0.0717 0.16661 0.0
C1328 C 0.23775 0.04964 0.14746 0.0
C1329 C 0.28644 0.10644 0.13217 0.0
N1330 N 0.19179 0.07177 0.16217 0.0
N1331 N 0.26374 0.11445 0.13923 0.0
H1332 H 0.89942 0.20658 0.11806 0.0
H1333 H 0.00867 0.15173 0.16889 0.0
H1334 H 0.01037 0.29497 0.13555 0.0
H1335 H 0.92882 0.06402 0.14165 0.0
H1336 H 0.99809 0.204 0.16017 0.0
H1337 H 0.90016 0.15356 0.12959 0.0
C1338 C 0.92399 0.21483 0.12429 0.0
C1339 C 0.95512 0.25522 0.12571 0.0
C1340 C 0.98221 0.17306 0.15629 0.0
C1341 C 0.95559 0.19486 0.13918 0.0
C1342 C 0.98772 0.14312 0.16138 0.0
C1343 C 0.96941 0.10354 0.156 0.0
C1344 C 0.95783 0.16304 0.14587 0.0
C1345 C 0.94332 0.09419 0.14609 0.0
C1346 C 0.9243 0.18459 0.1309 0.0
C1347 C 0.98603 0.26416 0.13402 0.0
N1348 N 0.93848 0.12372 0.1413 0.0
N1349 N 0.98542 0.23429 0.14046 0.0
H1350 H 0.8533 0.72167 0.11936 0.0
H1351 H 0.92136 0.9046 0.16886 0.0
H1352 H 0.7741 0.75252 0.13546 0.0
H1353 H 0.99454 0.9077 0.14121 0.0
H1354 H 0.87002 0.83699 0.16064 0.0
H1355 H 0.90797 0.77962 0.1309 0.0
C1356 C 0.84741 0.74053 0.12533 0.0
C1357 C 0.80917 0.73263 0.12631 0.0
C1358 C 0.89768 0.85219 0.15655 0.0
C1359 C 0.87126 0.79799 0.13976 0.0
C1360 C 0.92711 0.89045 0.16132 0.0
C1361 C 0.96207 0.91175 0.15565 0.0
C1362 C 0.90368 0.83501 0.14619 0.0
C1363 C 0.96786 0.89229 0.1458 0.0
C1364 C 0.87855 0.77344 0.13193 0.0
C1365 C 0.80317 0.75788 0.13427 0.0
N1366 N 0.93887 0.85514 0.14132 0.0
N1367 N 0.83384 0.78934 0.1407 0.0
H1368 H 0.15241 0.33076 0.43762 0.0
H1369 H 0.04049 0.16451 0.38332 0.0
H1370 H 0.04595 0.31099 0.41974 0.0
H1371 H 0.11584 0.15603 0.41003 0.0
H1372 H 0.05419 0.22943 0.39325 0.0
H1373 H 0.14984 0.27678 0.42453 0.0
C1374 C 0.12854 0.31517 0.43093 0.0
C1375 C 0.09909 0.32514 0.42989 0.0
C1376 C 0.06839 0.21376 0.39676 0.0
C1377 C 0.09641 0.26372 0.4147 0.0
C1378 C 0.06107 0.17713 0.391 0.0
C1379 C 0.07721 0.1551 0.39586 0.0
C1380 C 0.09241 0.22853 0.40733 0.0
C1381 C 0.10295 0.17222 0.40599 0.0
C1382 C 0.12716 0.28441 0.42344 0.0
C1383 C 0.069 0.30397 0.42097 0.0
N1384 N 0.10957 0.20774 0.41142 0.0
N1385 N 0.06842 0.27427 0.41372 0.0
H1386 H 0.74866 0.77822 0.41133 0.0
H1387 H 0.8982 0.01237 0.40115 0.0
H1388 H 0.78064 0.87871 0.4368 0.0
H1389 H 0.8911 0.91389 0.37919 0.0
H1390 H 0.84055 0.96355 0.41093 0.0
H1391 H 0.78822 0.82695 0.39686 0.0
C1392 C 0.76369 0.81051 0.41384 0.0
C1393 C 0.76178 0.82438 0.42535 0.0
C1394 C 0.85079 0.95258 0.40373 0.0
C1395 C 0.80658 0.88024 0.40881 0.0
C1396 C 0.88326 0.98057 0.39799 0.0
C1397 C 0.89916 0.96714 0.38928 0.0
C1398 C 0.83438 0.91068 0.40088 0.0
C1399 C 0.87933 0.92548 0.38574 0.0
C1400 C 0.78624 0.83827 0.40558 0.0
C1401 C 0.7819 0.86658 0.42813 0.0
N1402 N 0.84839 0.89853 0.39173 0.0
N1403 N 0.80345 0.8929 0.41995 0.0
H1404 H 0.28117 0.04905 0.40959 0.0
H1405 H 0.05417 0.93121 0.40294 0.0
H1406 H 0.21272 0.93566 0.42599 0.0
H1407 H 0.12388 0.01329 0.37697 0.0
H1408 H 0.1105 0.92661 0.41007 0.0
H1409 H 0.22419 0.03349 0.39658 0.0
C1410 C 0.25412 0.02074 0.41039 0.0
C1411 C 0.25142 0.99386 0.41899 0.0
C1412 C 0.11329 0.94466 0.40257 0.0
C1413 C 0.18601 0.9758 0.40414 0.0
C1414 C 0.08101 0.94699 0.39843 0.0
C1415 C 0.08449 0.97271 0.38938 0.0
C1416 C 0.14958 0.96922 0.39786 0.0
C1417 C 0.11999 0.99293 0.38393 0.0
C1418 C 0.22171 0.01165 0.40288 0.0
C1419 C 0.21592 0.95721 0.4195 0.0
N1420 N 0.15153 0.99169 0.38848 0.0
N1421 N 0.18436 0.94959 0.41234 0.0
H1422 H 0.79329 0.04202 0.91247 0.0
H1423 H 0.90521 0.92348 0.90715 0.0
H1424 H 0.75324 0.92776 0.92857 0.0
H1425 H 0.91335 0.00789 0.88143 0.0
H1426 H 0.84525 0.9189 0.91365 0.0
H1427 H 0.83428 0.02716 0.90006 0.0
C1428 C 0.79303 0.01367 0.91334 0.0
C1429 C 0.7703 0.98633 0.92167 0.0
C1430 C 0.85936 0.93746 0.90633 0.0
C1431 C 0.81725 0.96906 0.90751 0.0
C1432 C 0.8934 0.93974 0.90253 0.0
C1433 C 0.9142 0.96609 0.89374 0.0
C1434 C 0.8467 0.96267 0.90154 0.0
C1435 C 0.89802 0.987 0.88818 0.0
C1436 C 0.81613 1.00499 0.90617 0.0
C1437 C 0.77045 0.94967 0.92227 0.0
N1438 N 0.8658 0.98575 0.8924 0.0
N1439 N 0.79414 0.94242 0.91545 0.0
H1440 H 0.04941 0.77172 0.92378 0.0
H1441 H 0.13431 1.00429 0.91452 0.0
H1442 H 0.16492 0.86146 0.93807 0.0
H1443 H 0.05205 0.91134 0.88883 0.0
H1444 H 0.14676 0.9539 0.92344 0.0
H1445 H 0.04832 0.82306 0.91161 0.0
C1446 C 0.07447 0.80232 0.92443 0.0
C1447 C 0.10719 0.81238 0.93206 0.0
C1448 C 0.12674 0.94469 0.91566 0.0
C1449 C 0.10612 0.87133 0.91807 0.0
C1450 C 0.11991 0.9735 0.9105 0.0
C1451 C 0.09243 0.96197 0.90085 0.0
C1452 C 0.10495 0.90373 0.91139 0.0
C1453 C 0.07388 0.92153 0.89615 0.0
C1454 C 0.07399 0.83147 0.91736 0.0
C1455 C 0.13902 0.85241 0.93237 0.0
N1456 N 0.0798 0.8936 0.90163 0.0
N1457 N 0.13752 0.88055 0.92558 0.0
H1458 H 0.28927 0.31251 0.91817 0.0
H1459 H 0.06423 0.15595 0.91426 0.0
H1460 H 0.20911 0.34163 0.93441 0.0
H1461 H 0.13765 0.1574 0.88692 0.0
H1462 H 0.1158 0.22398 0.92173 0.0
H1463 H 0.23418 0.2547 0.90696 0.0
C1464 C 0.26006 0.30673 0.91939 0.0
C1465 C 0.25376 0.33174 0.92734 0.0
C1466 C 0.12035 0.20986 0.91393 0.0
C1467 C 0.19053 0.2655 0.91451 0.0
C1468 C 0.09088 0.17113 0.90964 0.0
C1469 C 0.09676 0.15106 0.89997 0.0
C1470 C 0.15642 0.22818 0.90874 0.0
C1471 C 0.13188 0.17193 0.89435 0.0
C1472 C 0.22867 0.27395 0.91289 0.0
C1473 C 0.21529 0.32305 0.92843 0.0
N1474 N 0.16079 0.20902 0.89898 0.0
N1475 N 0.18508 0.29032 0.92221 0.0
H1476 H 0.8949 0.72137 0.61997 0.0
H1477 H 0.00826 0.89268 0.67295 0.0
H1478 H 0.00611 0.74944 0.63634 0.0
H1479 H 0.93367 0.90115 0.64595 0.0
H1480 H 0.99426 0.82744 0.66321 0.0
H1481 H 0.89719 0.77639 0.63266 0.0
C1482 C 0.91976 0.73907 0.62622 0.0
C1483 C 0.95062 0.73119 0.62696 0.0
C1484 C 0.98028 0.8432 0.6596 0.0
C1485 C 0.95281 0.79317 0.64173 0.0
C1486 C 0.98779 0.88003 0.66525 0.0
C1487 C 0.97209 0.9022 0.66022 0.0
C1488 C 0.95643 0.82832 0.649 0.0
C1489 C 0.94633 0.8849 0.65009 0.0
C1490 C 0.92096 0.7703 0.63348 0.0
C1491 C 0.98197 0.75487 0.63531 0.0
N1492 N 0.93949 0.84912 0.64476 0.0
N1493 N 0.9822 0.78466 0.64239 0.0
H1494 H 0.30812 0.21173 0.62855 0.0
H1495 H 0.15371 0.14114 0.67892 0.0
H1496 H 0.26337 0.28473 0.64328 0.0
H1497 H 0.15849 0.05723 0.65342 0.0
H1498 H 0.21154 0.19725 0.67078 0.0
H1499 H 0.26943 0.15834 0.64208 0.0
C1500 C 0.29062 0.21671 0.63476 0.0
C1501 C 0.28841 0.25233 0.63469 0.0
C1502 C 0.20068 0.16635 0.66724 0.0
C1503 C 0.24487 0.19207 0.65029 0.0
C1504 C 0.16812 0.13426 0.67202 0.0
C1505 C 0.15143 0.09456 0.66684 0.0
C1506 C 0.21679 0.15844 0.65733 0.0
C1507 C 0.17064 0.08745 0.65769 0.0
C1508 C 0.26858 0.18633 0.64245 0.0
C1509 C 0.26528 0.25737 0.6429 0.0
N1510 N 0.202 0.11913 0.65311 0.0
N1511 N 0.24435 0.22758 0.65034 0.0
H1512 H 0.77387 0.01164 0.64308 0.0
H1513 H 0.99998 0.12749 0.65255 0.0
H1514 H 0.84417 0.12849 0.6287 0.0
H1515 H 0.92665 0.04435 0.67775 0.0
H1516 H 0.94473 0.13309 0.64483 0.0
H1517 H 0.82928 0.02513 0.65655 0.0
C1518 C 0.801 0.04029 0.64284 0.0
C1519 C 0.8047 0.0688 0.63469 0.0
C1520 C 0.94092 0.11457 0.65228 0.0
C1521 C 0.86836 0.08445 0.65002 0.0
C1522 C 0.97255 0.11162 0.65675 0.0
C1523 C 0.96779 0.08534 0.66577 0.0
C1524 C 0.90399 0.09009 0.65662 0.0
C1525 C 0.93157 0.06509 0.67082 0.0
C1526 C 0.8325 0.04817 0.6506 0.0
C1527 C 0.84026 0.10574 0.63485 0.0
N1528 N 0.90071 0.06697 0.66595 0.0
N1529 N 0.871 0.1122 0.64223 0.0
H1530 H 0.9773 0.46498 0.46375 0.0
H1531 H 0.80874 0.38303 0.50968 0.0
H1532 H 0.92194 0.34446 0.47667 0.0
H1533 H 0.82514 0.47204 0.48454 0.0
H1534 H 0.86743 0.38415 0.5031 0.0
H1535 H 0.93728 0.48141 0.47637 0.0
C1536 C 0.95716 0.44226 0.46938 0.0
C1537 C 0.9524 0.40314 0.46905 0.0
C1538 C 0.85885 0.40441 0.49931 0.0
C1539 C 0.90732 0.42184 0.48362 0.0
C1540 C 0.82576 0.40427 0.5032 0.0
C1541 C 0.81208 0.42736 0.49759 0.0
C1542 C 0.87854 0.42826 0.48991 0.0
C1543 C 0.83479 0.45375 0.48906 0.0
C1544 C 0.93439 0.45159 0.47656 0.0
C1545 C 0.92591 0.37471 0.47651 0.0
N1546 N 0.86662 0.45311 0.48535 0.0
N1547 N 0.90429 0.38455 0.48346 0.0
H1548 H 0.56113 0.53806 0.45299 0.0
H1549 H 0.68083 0.49138 0.50246 0.0
H1550 H 0.67562 0.62878 0.46776 0.0
H1551 H 0.59379 0.39956 0.47749 0.0
H1552 H 0.66913 0.54261 0.4935 0.0
H1553 H 0.5641 0.48764 0.46515 0.0
C1554 C 0.58693 0.54742 0.45879 0.0
C1555 C 0.61837 0.58767 0.45923 0.0
C1556 C 0.65192 0.51104 0.49019 0.0
C1557 C 0.62154 0.53013 0.47341 0.0
C1558 C 0.65809 0.48174 0.49544 0.0
C1559 C 0.63787 0.44119 0.49078 0.0
C1560 C 0.62505 0.49944 0.48033 0.0
C1561 C 0.60961 0.43046 0.48141 0.0
C1562 C 0.58852 0.51861 0.46575 0.0
C1563 C 0.65092 0.59799 0.46699 0.0
N1564 N 0.60417 0.45939 0.47645 0.0
N1565 N 0.65163 0.56945 0.47379 0.0
H1566 H 0.4376 0.0817 0.46976 0.0
H1567 H 0.66116 0.24732 0.47356 0.0
H1568 H 0.52068 0.06212 0.45149 0.0
H1569 H 0.58697 0.23808 0.5016 0.0
H1570 H 0.61092 0.17984 0.4653 0.0
H1571 H 0.49159 0.14004 0.48115 0.0
C1572 C 0.46722 0.0897 0.46813 0.0
C1573 C 0.47462 0.06715 0.45957 0.0
C1574 C 0.60587 0.19214 0.47339 0.0
C1575 C 0.53664 0.13409 0.4726 0.0
C1576 C 0.6346 0.23059 0.47814 0.0
C1577 C 0.62817 0.2483 0.48828 0.0
C1578 C 0.56996 0.17162 0.47862 0.0
C1579 C 0.59317 0.22542 0.49382 0.0
C1580 C 0.49802 0.1228 0.47472 0.0
C1581 C 0.51362 0.07869 0.45796 0.0
N1582 N 0.56499 0.18858 0.48878 0.0
N1583 N 0.54318 0.11167 0.4643 0.0
H1584 H 0.71227 0.64012 0.75546 0.0
H1585 H 0.78837 0.48911 0.74308 0.0
H1586 H 0.82626 0.66843 0.76939 0.0
H1587 H 0.70919 0.49833 0.71806 0.0
H1588 H 0.80362 0.55424 0.75294 0.0
H1589 H 0.70919 0.58603 0.74232 0.0
C1590 C 0.73658 0.63479 0.75582 0.0
C1591 C 0.76944 0.65862 0.76365 0.0
C1592 C 0.78367 0.5426 0.74512 0.0
C1593 C 0.76609 0.59671 0.74854 0.0
C1594 C 0.77521 0.50563 0.73943 0.0
C1595 C 0.74768 0.48855 0.7297 0.0
C1596 C 0.76349 0.56196 0.74129 0.0
C1597 C 0.73092 0.51075 0.72544 0.0
C1598 C 0.73497 0.60421 0.74821 0.0
C1599 C 0.80028 0.65066 0.76356 0.0
N1600 N 0.73837 0.54589 0.73143 0.0
N1601 N 0.79766 0.62005 0.75623 0.0
H1602 H 0.4529 0.10448 0.74582 0.0
H1603 H 0.5587 0.33662 0.73617 0.0
H1604 H 0.41084 0.17984 0.76063 0.0
H1605 H 0.56274 0.25142 0.71101 0.0
H1606 H 0.50066 0.28056 0.74403 0.0
H1607 H 0.49075 0.15737 0.73227 0.0
C1608 C 0.45151 0.13217 0.74615 0.0
C1609 C 0.42914 0.13808 0.75445 0.0
C1610 C 0.51337 0.27418 0.73653 0.0
C1611 C 0.47257 0.19897 0.739 0.0
C1612 C 0.54626 0.30627 0.73195 0.0
C1613 C 0.56539 0.29862 0.7229 0.0
C1614 C 0.50029 0.23398 0.73228 0.0
C1615 C 0.5486 0.25865 0.71791 0.0
C1616 C 0.47282 0.1622 0.73835 0.0
C1617 C 0.42783 0.17421 0.75438 0.0
N1618 N 0.51765 0.22762 0.72289 0.0
N1619 N 0.44986 0.20366 0.74695 0.0
H1620 H 0.93091 0.3267 0.74352 0.0
H1621 H 0.70457 0.25618 0.73566 0.0
H1622 H 0.84865 0.27988 0.7707 0.0
H1623 H 0.78873 0.34003 0.71272 0.0
H1624 H 0.75476 0.24526 0.74484 0.0
H1625 H 0.87746 0.31544 0.72919 0.0
C1626 C 0.90151 0.31353 0.7464 0.0
C1627 C 0.8941 0.30471 0.75831 0.0
C1628 C 0.76215 0.26529 0.73759 0.0
C1629 C 0.83315 0.29105 0.74205 0.0
C1630 C 0.73335 0.27107 0.73224 0.0
C1631 C 0.74265 0.29927 0.7235 0.0
C1632 C 0.80075 0.28828 0.73431 0.0
C1633 C 0.78043 0.31796 0.71943 0.0
C1634 C 0.87115 0.30717 0.73825 0.0
C1635 C 0.85564 0.28774 0.76165 0.0
N1636 N 0.8085 0.31291 0.72507 0.0
N1637 N 0.8267 0.28155 0.75359 0.0
H1638 H 0.40492 0.26231 0.25992 0.0
H1639 H 0.56584 0.33493 0.21168 0.0
H1640 H 0.44987 0.37493 0.24252 0.0
H1641 H 0.55363 0.25238 0.23854 0.0
H1642 H 0.50658 0.33313 0.21797 0.0
H1643 H 0.44384 0.24368 0.24758 0.0
C1644 C 0.4225 0.28277 0.25337 0.0
C1645 C 0.42475 0.32051 0.25237 0.0
C1646 C 0.51622 0.3144 0.22223 0.0
C1647 C 0.46882 0.29927 0.23815 0.0
C1648 C 0.54966 0.31492 0.21851 0.0
C1649 C 0.56471 0.29402 0.22468 0.0
C1650 C 0.49767 0.29244 0.23206 0.0
C1651 C 0.54298 0.26908 0.23361 0.0
C1652 C 0.44469 0.27219 0.24635 0.0
C1653 C 0.44801 0.34596 0.24375 0.0
N1654 N 0.51089 0.26945 0.23717 0.0
N1655 N 0.46929 0.33501 0.23702 0.0
H1656 H 0.81391 0.18758 0.27145 0.0
H1657 H 0.70541 0.23785 0.21921 0.0
H1658 H 0.70705 0.09613 0.25256 0.0
H1659 H 0.7792 0.3254 0.24741 0.0
H1660 H 0.7181 0.18703 0.22799 0.0
H1661 H 0.81217 0.23961 0.2597 0.0
C1662 C 0.79008 0.17842 0.26484 0.0
C1663 C 0.76031 0.13748 0.2631 0.0
C1664 C 0.73218 0.21767 0.23208 0.0
C1665 C 0.75869 0.19679 0.24943 0.0
C1666 C 0.72544 0.24678 0.22698 0.0
C1667 C 0.74137 0.28578 0.23261 0.0
C1668 C 0.75544 0.22801 0.24276 0.0
C1669 C 0.76645 0.29562 0.24281 0.0
C1670 C 0.78919 0.20812 0.25812 0.0
C1671 C 0.73031 0.1274 0.25432 0.0
N1672 N 0.77253 0.2669 0.2476 0.0
N1673 N 0.73029 0.15681 0.24781 0.0
H1674 H 0.94061 0.63337 0.25324 0.0
H1675 H 0.71454 0.48073 0.24607 0.0
H1676 H 0.85969 0.66477 0.26776 0.0
H1677 H 0.79154 0.48192 0.22001 0.0
H1678 H 0.76626 0.54762 0.2543 0.0
H1679 H 0.88634 0.57606 0.24161 0.0
C1680 C 0.91139 0.62812 0.25402 0.0
C1681 C 0.90464 0.65372 0.26158 0.0
C1682 C 0.77161 0.53371 0.24662 0.0
C1683 C 0.84236 0.58811 0.24824 0.0
C1684 C 0.74206 0.49566 0.24188 0.0
C1685 C 0.74883 0.47584 0.23235 0.0
C1686 C 0.8086 0.55156 0.24202 0.0
C1687 C 0.78507 0.49632 0.22731 0.0
C1688 C 0.88049 0.59565 0.24728 0.0
C1689 C 0.8662 0.64572 0.2621 0.0
N1690 N 0.81395 0.5327 0.23238 0.0
N1691 N 0.83643 0.61331 0.25563 0.0
H1692 H 0.68448 0.07108 0.98287 0.0
H1693 H 0.62402 0.23898 0.97541 0.0
H1694 H 0.62326 0.07632 0.95124 0.0
H1695 H 0.671 0.22279 1.00845 0.0
H1696 H 0.61679 0.17531 0.96713 0.0
H1697 H 0.67506 0.12299 0.99279 0.0
C1698 C 0.66902 0.08315 0.97798 0.0
C1699 C 0.65505 0.06956 0.96612 0.0
C1700 C 0.62801 0.18518 0.97626 0.0
C1701 C 0.64399 0.12932 0.97755 0.0
C1702 C 0.63195 0.22146 0.98103 0.0
C1703 C 0.64849 0.23645 0.99262 0.0
C1704 C 0.64123 0.16386 0.98305 0.0
C1705 C 0.6581 0.21241 0.99949 0.0
C1706 C 0.66343 0.11269 0.98371 0.0
C1707 C 0.63479 0.08606 0.96035 0.0
N1708 N 0.65501 0.17769 0.99452 0.0
N1709 N 0.6302 0.11534 0.96608 0.0
H1710 H 0.97857 0.54684 0.96315 0.0
H1711 H 0.82407 0.47516 1.01345 0.0
H1712 H 0.93521 0.62025 0.97854 0.0
H1713 H 0.82835 0.39219 0.98748 0.0
H1714 H 0.8826 0.53141 1.00564 0.0
H1715 H 0.93986 0.49307 0.97656 0.0
C1716 C 0.96138 0.55182 0.96948 0.0
C1717 C 0.95951 0.58765 0.96962 0.0
C1718 C 0.87147 0.50064 1.00192 0.0
C1719 C 0.91595 0.52695 0.98508 0.0
C1720 C 0.83851 0.46848 1.00651 0.0
C1721 C 0.82154 0.42908 1.0011 0.0
C1722 C 0.88762 0.49306 0.99196 0.0
C1723 C 0.84076 0.42219 0.99191 0.0
C1724 C 0.93934 0.52124 0.9771 0.0
C1725 C 0.9368 0.59271 0.97799 0.0
N1726 N 0.87248 0.45394 0.98752 0.0
N1727 N 0.91582 0.56267 0.98535 0.0
H1728 H 0.5128 0.4603 0.96353 0.0
H1729 H 0.59481 0.37309 1.01332 0.0
H1730 H 0.44363 0.34538 0.97911 0.0
H1731 H 0.66654 0.45965 0.98858 0.0
H1732 H 0.53894 0.37818 1.00562 0.0
H1733 H 0.56851 0.47417 0.97708 0.0
C1734 C 0.5092 0.43833 0.96993 0.0
C1735 C 0.47381 0.40135 0.97007 0.0
C1736 C 0.56722 0.39697 1.00214 0.0
C1737 C 0.53705 0.41712 0.98565 0.0
C1738 C 0.59921 0.39454 1.00665 0.0
C1739 C 0.63518 0.41578 1.00151 0.0
C1740 C 0.57154 0.42117 0.99253 0.0
C1741 C 0.63917 0.44264 0.99274 0.0
C1742 C 0.54094 0.44619 0.97763 0.0
C1743 C 0.47067 0.37386 0.97853 0.0
N1744 N 0.60762 0.44416 0.9884 0.0
N1745 N 0.5019 0.38217 0.98593 0.0
H1746 H 0.59349 0.67167 0.80998 0.0
H1747 H 0.49442 0.802 0.81941 0.0
H1748 H 0.64397 0.79319 0.79797 0.0
H1749 H 0.47351 0.70433 0.84167 0.0
H1750 H 0.55349 0.80408 0.8131 0.0
H1751 H 0.55257 0.68544 0.82275 0.0
C1752 C 0.5961 0.70138 0.8101 0.0
C1753 C 0.62174 0.73116 0.80279 0.0
C1754 C 0.53674 0.78298 0.81963 0.0
C1755 C 0.57485 0.74718 0.81737 0.0
C1756 C 0.50319 0.78205 0.82332 0.0
C1757 C 0.47914 0.75298 0.83107 0.0
C1758 C 0.54565 0.75374 0.82344 0.0
C1759 C 0.49145 0.7274 0.83575 0.0
C1760 C 0.57299 0.70938 0.81748 0.0
C1761 C 0.6245 0.76941 0.80345 0.0
N1762 N 0.52332 0.72761 0.83162 0.0
N1763 N 0.6008 0.77608 0.81044 0.0
H1764 H 0.34782 0.95752 0.79883 0.0
H1765 H 0.25422 0.73392 0.82058 0.0
H1766 H 0.2249 0.8708 0.79234 0.0
H1767 H 0.36307 0.83413 0.83556 0.0
H1768 H 0.24009 0.78246 0.81107 0.0
H1769 H 0.35301 0.91154 0.81228 0.0
C1770 C 0.3219 0.92863 0.80015 0.0
C1771 C 0.28589 0.91796 0.79433 0.0
C1772 C 0.26647 0.79397 0.81676 0.0
C1773 C 0.29164 0.865 0.80991 0.0
C1774 C 0.27418 0.76629 0.82236 0.0
C1775 C 0.30946 0.78016 0.82907 0.0
C1776 C 0.29481 0.83567 0.81763 0.0
C1777 C 0.33515 0.8223 0.83068 0.0
C1778 C 0.32482 0.90253 0.80796 0.0
C1779 C 0.2533 0.88023 0.79656 0.0
N1780 N 0.3277 0.84849 0.82482 0.0
N1781 N 0.257 0.85497 0.80409 0.0
H1782 H 0.11543 0.43603 0.78191 0.0
H1783 H 0.28292 0.55496 0.83295 0.0
H1784 H 0.15647 0.37118 0.80296 0.0
H1785 H 0.27803 0.60727 0.80006 0.0
H1786 H 0.23155 0.48771 0.82423 0.0
H1787 H 0.1696 0.50046 0.79072 0.0
C1788 C 0.13594 0.43538 0.78836 0.0
C1789 C 0.13167 0.39825 0.79163 0.0
C1790 C 0.24216 0.51408 0.81897 0.0
C1791 C 0.19324 0.47182 0.80194 0.0
C1792 C 0.27138 0.55238 0.82393 0.0
C1793 C 0.28497 0.58695 0.81726 0.0
C1794 C 0.22597 0.51075 0.8074 0.0
C1795 C 0.26874 0.5817 0.80559 0.0
C1796 C 0.16685 0.47211 0.79338 0.0
C1797 C 0.15903 0.3992 0.80009 0.0
N1798 N 0.23997 0.54461 0.80112 0.0
N1799 N 0.18852 0.43543 0.80505 0.0
H1800 H 0.48947 1.00207 0.10335 0.0
H1801 H 0.38155 0.83077 0.05009 0.0
H1802 H 0.37918 0.97289 0.08599 0.0
H1803 H 0.45499 0.82329 0.07772 0.0
H1804 H 0.39383 0.89542 0.05974 0.0
H1805 H 0.48863 0.94721 0.09097 0.0
C1806 C 0.4651 0.98414 0.09695 0.0
C1807 C 0.43408 0.99169 0.09583 0.0
C1808 C 0.40789 0.87998 0.06353 0.0
C1809 C 0.43357 0.92989 0.08142 0.0
C1810 C 0.40136 0.84346 0.05793 0.0
C1811 C 0.41718 0.82167 0.06315 0.0
C1812 C 0.43092 0.89499 0.07427 0.0
C1813 C 0.44214 0.83915 0.07344 0.0
C1814 C 0.46473 0.953 0.08987 0.0
C1815 C 0.4034 0.96773 0.0873 0.0
N1816 N 0.44805 0.87463 0.07872 0.0
N1817 N 0.40399 0.93804 0.08041 0.0
H1818 H 0.0808 0.45058 0.07978 0.0
H1819 H 0.24262 0.68277 0.07177 0.0
H1820 H 0.12756 0.54755 0.10725 0.0
H1821 H 0.2269 0.58463 0.04773 0.0
H1822 H 0.18491 0.63499 0.0817 0.0
H1823 H 0.12076 0.5002 0.06547 0.0
C1824 C 0.09911 0.48236 0.08275 0.0
C1825 C 0.10133 0.49495 0.09474 0.0
C1826 C 0.19333 0.62394 0.07405 0.0
C1827 C 0.14637 0.55173 0.07847 0.0
C1828 C 0.2259 0.65137 0.06826 0.0
C1829 C 0.23938 0.63761 0.0589 0.0
C1830 C 0.17433 0.58222 0.0706 0.0
C1831 C 0.21712 0.59647 0.05483 0.0
C1832 C 0.12187 0.51057 0.07461 0.0
C1833 C 0.12552 0.53643 0.09815 0.0
N1834 N 0.18605 0.56992 0.06087 0.0
N1835 N 0.14706 0.56321 0.09008 0.0
H1836 H 0.61501 0.71501 0.07712 0.0
H1837 H 0.38875 0.59223 0.06746 0.0
H1838 H 0.5465 0.59863 0.09196 0.0
H1839 H 0.46105 0.68067 0.04325 0.0
H1840 H 0.44495 0.58768 0.07476 0.0
H1841 H 0.55951 0.69948 0.06342 0.0
C1842 C 0.58826 0.68603 0.07742 0.0
C1843 C 0.58508 0.6583 0.08579 0.0
C1844 C 0.44838 0.60712 0.06759 0.0
C1845 C 0.52126 0.64025 0.07016 0.0
C1846 C 0.41616 0.60939 0.06333 0.0
C1847 C 0.42036 0.63696 0.05478 0.0
C1848 C 0.48528 0.63353 0.0635 0.0
C1849 C 0.45658 0.65891 0.04982 0.0
C1850 C 0.55669 0.67698 0.06953 0.0
C1851 C 0.55003 0.62085 0.08566 0.0
N1852 N 0.48798 0.65765 0.0545 0.0
N1853 N 0.5192 0.61323 0.07814 0.0
H1854 H 0.12317 0.71089 0.58008 0.0
H1855 H 0.23309 0.5909 0.57511 0.0
H1856 H 0.08083 0.59604 0.596 0.0
H1857 H 0.24112 0.67393 0.54894 0.0
H1858 H 0.17304 0.58654 0.58145 0.0
H1859 H 0.16336 0.69495 0.56761 0.0
C1860 C 0.12219 0.68214 0.58087 0.0
C1861 C 0.09911 0.65495 0.58918 0.0
C1862 C 0.18712 0.6047 0.57406 0.0
C1863 C 0.14519 0.63651 0.57499 0.0
C1864 C 0.2212 0.60685 0.57036 0.0
C1865 C 0.24198 0.63275 0.56149 0.0
C1866 C 0.17444 0.62964 0.5691 0.0
C1867 C 0.22576 0.65334 0.55575 0.0
C1868 C 0.14484 0.67287 0.57368 0.0
C1869 C 0.09835 0.61781 0.58972 0.0
N1870 N 0.19353 0.65228 0.55989 0.0
N1871 N 0.12168 0.61 0.5829 0.0
H1872 H 0.4944 0.5282 0.60603 0.0
H1873 H 0.38455 0.58077 0.55484 0.0
H1874 H 0.38263 0.43991 0.58897 0.0
H1875 H 0.46055 0.66892 0.58259 0.0
H1876 H 0.39698 0.5298 0.5636 0.0
H1877 H 0.49378 0.58099 0.59427 0.0
C1878 C 0.46976 0.51992 0.59983 0.0
C1879 C 0.43827 0.47969 0.59862 0.0
C1880 C 0.41169 0.56063 0.56758 0.0
C1881 C 0.43799 0.53957 0.58489 0.0
C1882 C 0.40513 0.58983 0.56247 0.0
C1883 C 0.42177 0.62907 0.56798 0.0
C1884 C 0.43545 0.57106 0.57815 0.0
C1885 C 0.44739 0.639 0.57805 0.0
C1886 C 0.46951 0.54999 0.5931 0.0
C1887 C 0.40724 0.47064 0.59035 0.0
N1888 N 0.45328 0.61015 0.58287 0.0
N1889 N 0.40794 0.50026 0.58378 0.0
H1890 H 0.53575 0.00851 0.60428 0.0
H1891 H 0.46346 0.82645 0.55423 0.0
H1892 H 0.61357 0.97976 0.58632 0.0
H1893 H 0.3943 0.82124 0.58335 0.0
H1894 H 0.51484 0.89454 0.5621 0.0
H1895 H 0.48009 0.95017 0.59316 0.0
C1896 C 0.54112 0.99005 0.59798 0.0
C1897 C 0.57928 0.9986 0.59636 0.0
C1898 C 0.488 0.87876 0.5666 0.0
C1899 C 0.51605 0.93283 0.58341 0.0
C1900 C 0.45854 0.84021 0.56203 0.0
C1901 C 0.42478 0.81821 0.5682 0.0
C1902 C 0.48322 0.8955 0.57726 0.0
C1903 C 0.42006 0.83719 0.57838 0.0
C1904 C 0.50943 0.95692 0.59163 0.0
C1905 C 0.5846 0.97386 0.58801 0.0
N1906 N 0.44906 0.87464 0.58264 0.0
N1907 N 0.55338 0.94218 0.58184 0.0
H1908 H 0.33762 0.41815 0.30112 0.0
H1909 H 0.25858 0.56726 0.31221 0.0
H1910 H 0.22329 0.38767 0.28688 0.0
H1911 H 0.33747 0.55996 0.33782 0.0
H1912 H 0.24465 0.50225 0.30259 0.0
H1913 H 0.33975 0.47241 0.31396 0.0
C1914 C 0.31303 0.423 0.30064 0.0
C1915 C 0.28035 0.39854 0.29282 0.0
C1916 C 0.26426 0.5143 0.31048 0.0
C1917 C 0.28264 0.46064 0.30755 0.0
C1918 C 0.27199 0.55121 0.31603 0.0
C1919 C 0.29898 0.56875 0.32587 0.0
C1920 C 0.28465 0.49547 0.31458 0.0
C1921 C 0.3161 0.54715 0.33035 0.0
C1922 C 0.3141 0.45369 0.30808 0.0
C1923 C 0.24912 0.40591 0.29273 0.0
N1924 N 0.30934 0.51205 0.32451 0.0
N1925 N 0.25123 0.43663 0.29988 0.0
H1926 H 0.63723 0.86931 0.29369 0.0
H1927 H 0.48164 0.80819 0.34342 0.0
H1928 H 0.58551 0.94037 0.30422 0.0
H1929 H 0.48503 0.71908 0.31974 0.0
H1930 H 0.53901 0.86209 0.33445 0.0
H1931 H 0.5988 0.81911 0.3081 0.0
C1932 C 0.6182 0.87453 0.29916 0.0
C1933 C 0.61398 0.90856 0.29768 0.0
C1934 C 0.528 0.83057 0.33152 0.0
C1935 C 0.57107 0.85232 0.3143 0.0
C1936 C 0.49574 0.79978 0.33678 0.0
C1937 C 0.47879 0.7592 0.33233 0.0
C1938 C 0.5436 0.82047 0.3219 0.0
C1939 C 0.4975 0.75004 0.32346 0.0
C1940 C 0.59639 0.84604 0.30735 0.0
C1941 C 0.58901 0.91413 0.30497 0.0
N1942 N 0.52864 0.78047 0.31842 0.0
N1943 N 0.5685 0.88632 0.31296 0.0
H1944 H 0.16803 0.79173 0.29537 0.0
H1945 H 0.25523 0.71095 0.3456 0.0
H1946 H 0.10185 0.67713 0.31137 0.0
H1947 H 0.32435 0.79301 0.31954 0.0
H1948 H 0.19876 0.71506 0.33797 0.0
H1949 H 0.22489 0.80738 0.3087 0.0
C1950 C 0.16533 0.77024 0.30183 0.0
C1951 C 0.13049 0.73283 0.30216 0.0
C1952 C 0.22663 0.73312 0.33417 0.0
C1953 C 0.19488 0.75065 0.31749 0.0
C1954 C 0.25899 0.73126 0.33864 0.0
C1955 C 0.29435 0.7514 0.33311 0.0
C1956 C 0.23 0.75574 0.32425 0.0
C1957 C 0.29747 0.77683 0.32399 0.0
C1958 C 0.19769 0.77911 0.3094 0.0
C1959 C 0.12845 0.70595 0.31068 0.0
N1960 N 0.26558 0.77785 0.31972 0.0
N1961 N 0.16022 0.71527 0.31796 0.0
loop_
_geom_bond_atom_site_label_1
_geom_bond_atom_site_label_2
_geom_bond_distance
_geom_bond_site_symmetry_2
_ccdc_geom_bond_type
Cu0 N1 1.999 . S
Cu0 O6 1.974 . S
Cu0 N11 1.985 . S
Cu0 O20 1.959 1_545 S
N1 Cu0 1.999 . S
N1 C3 1.263 . S
N1 C5 1.389 . S
N2 C3 1.358 . S
N2 C4 1.400 . S
C3 N1 1.263 . S
C3 N2 1.358 . S
C3 H9 0.930 . S
C4 N2 1.400 . S
C4 C5 1.351 . S
C4 H21 0.930 . S
C5 N1 1.389 . S
C5 C4 1.351 . S
C5 H10 0.930 1_545 S
O6 Cu0 1.974 . S
O6 C16 1.282 . S
C7 O8 1.261 . S
C7 O20 1.251 1_545 S
O8 C7 1.261 . S
H9 C3 0.930 . S
H10 C5 0.930 1_565 S
N11 Cu0 1.985 . S
N11 C13 1.335 1_545 S
N11 C14 1.390 . S
N12 C13 1.345 . S
N12 C15 1.336 1_565 S
C13 N11 1.335 1_565 S
C13 N12 1.345 . S
C13 H18 0.930 . S
C14 N11 1.390 . S
C14 C15 1.346 . S
C14 H19 0.930 . S
C15 N12 1.336 1_545 S
C15 C14 1.346 . S
C15 H22 0.929 . S
C16 O6 1.282 . S
C16 O17 1.216 . S
O17 C16 1.216 . S
H18 C13 0.930 . S
H19 C14 0.930 . S
O20 Cu0 1.959 1_565 S
O20 C7 1.251 1_565 S
H21 C4 0.930 . S
H22 C15 0.929 . S
Cu23 N24 1.999 . S
Cu23 O29 1.974 . S
Cu23 N34 1.985 . S
Cu23 O43 1.959 . S
N24 Cu23 1.999 . S
N24 C26 1.263 1_455 S
N24 C28 1.389 . S
N25 C26 1.358 . S
N25 C27 1.400 1_655 S
C26 N24 1.263 1_655 S
C26 N25 1.358 . S
C26 H32 0.930 . S
C27 N25 1.400 1_455 S
C27 C28 1.351 . S
C27 H44 0.930 . S
C28 N24 1.389 . S
C28 C27 1.351 . S
C28 H33 0.930 . S
O29 Cu23 1.974 . S
O29 C39 1.282 1_455 S
C30 O31 1.261 1_455 S
C30 O43 1.251 . S
O31 C30 1.261 1_655 S
H32 C26 0.930 . S
H33 C28 0.930 . S
N34 Cu23 1.985 . S
N34 C36 1.335 . S
N34 C37 1.390 . S
N35 C36 1.345 . S
N35 C38 1.336 . S
C36 N34 1.335 . S
C36 N35 1.345 . S
C36 H41 0.930 . S
C37 N34 1.390 . S
C37 C38 1.346 . S
C37 H42 0.930 . S
C38 N35 1.336 . S
C38 C37 1.346 . S
C38 H45 0.929 . S
C39 O29 1.282 1_655 S
C39 O40 1.216 . S
O40 C39 1.216 . S
H41 C36 0.930 . S
H42 C37 0.930 . S
O43 Cu23 1.959 . S
O43 C30 1.251 . S
H44 C27 0.930 . S
H45 C38 0.929 . S
Cu46 N47 1.999 . S
Cu46 O52 1.974 . S
Cu46 N57 1.985 . S
Cu46 O66 1.959 . S
N47 Cu46 1.999 . S
N47 C49 1.263 . S
N47 C51 1.389 . S
N48 C49 1.358 . S
N48 C50 1.400 . S
C49 N47 1.263 . S
C49 N48 1.358 . S
C49 H55 0.930 . S
C50 N48 1.400 . S
C50 C51 1.351 . S
C50 H67 0.930 . S
C51 N47 1.389 . S
C51 C50 1.351 . S
C51 H56 0.930 . S
O52 Cu46 1.974 . S
O52 C62 1.282 . S
C53 O54 1.261 . S
C53 O66 1.251 . S
O54 C53 1.261 . S
H55 C49 0.930 . S
H56 C51 0.930 . S
N57 Cu46 1.985 . S
N57 C59 1.335 . S
N57 C60 1.390 . S
N58 C59 1.345 . S
N58 C61 1.336 . S
C59 N57 1.335 . S
C59 N58 1.345 . S
C59 H64 0.930 . S
C60 N57 1.390 . S
C60 C61 1.346 . S
C60 H65 0.930 . S
C61 N58 1.336 . S
C61 C60 1.346 . S
C61 H68 0.929 . S
C62 O52 1.282 . S
C62 O63 1.216 . S
O63 C62 1.216 . S
H64 C59 0.930 . S
H65 C60 0.930 . S
O66 Cu46 1.959 . S
O66 C53 1.251 . S
H67 C50 0.930 . S
H68 C61 0.929 . S
Cu69 N70 1.999 . S
Cu69 O75 1.974 . S
Cu69 N80 1.985 . S
Cu69 O89 1.959 . S
N70 Cu69 1.999 . S
N70 C72 1.263 1_545 S
N70 C74 1.389 . S
N71 C72 1.358 . S
N71 C73 1.400 1_565 S
C72 N70 1.263 1_565 S
C72 N71 1.358 . S
C72 H78 0.930 . S
C73 N71 1.400 1_545 S
C73 C74 1.351 . S
C73 H90 0.930 . S
C74 N70 1.389 . S
C74 C73 1.351 . S
C74 H79 0.930 . S
O75 Cu69 1.974 . S
O75 C85 1.282 1_545 S
C76 O77 1.261 1_545 S
C76 O89 1.251 . S
O77 C76 1.261 1_565 S
H78 C72 0.930 . S
H79 C74 0.930 . S
N80 Cu69 1.985 . S
N80 C82 1.335 . S
N80 C83 1.390 . S
N81 C82 1.345 . S
N81 C84 1.336 . S
C82 N80 1.335 . S
C82 N81 1.345 . S
C82 H87 0.930 . S
C83 N80 1.390 . S
C83 C84 1.346 . S
C83 H88 0.930 . S
C84 N81 1.336 . S
C84 C83 1.346 . S
C84 H91 0.929 . S
C85 O75 1.282 1_565 S
C85 O86 1.216 . S
O86 C85 1.216 . S
H87 C82 0.930 . S
H88 C83 0.930 . S
O89 Cu69 1.959 . S
O89 C76 1.251 . S
H90 C73 0.930 . S
H91 C84 0.929 . S
Cu92 N93 1.999 . S
Cu92 O98 1.974 . S
Cu92 N103 1.985 . S
Cu92 O112 1.959 1_455 S
N93 Cu92 1.999 . S
N93 C95 1.263 . S
N93 C97 1.389 . S
N94 C95 1.358 . S
N94 C96 1.400 . S
C95 N93 1.263 . S
C95 N94 1.358 . S
C95 H101 0.930 . S
C96 N94 1.400 . S
C96 C97 1.351 . S
C96 H113 0.930 . S
C97 N93 1.389 . S
C97 C96 1.351 . S
C97 H102 0.930 1_455 S
O98 Cu92 1.974 . S
O98 C108 1.282 . S
C99 O100 1.261 . S
C99 O112 1.251 1_455 S
O100 C99 1.261 . S
H101 C95 0.930 . S
H102 C97 0.930 1_655 S
N103 Cu92 1.985 . S
N103 C105 1.335 1_455 S
N103 C106 1.390 . S
N104 C105 1.345 . S
N104 C107 1.336 1_655 S
C105 N103 1.335 1_655 S
C105 N104 1.345 . S
C105 H110 0.930 . S
C106 N103 1.390 . S
C106 C107 1.346 . S
C106 H111 0.930 . S
C107 N104 1.336 1_455 S
C107 C106 1.346 . S
C107 H114 0.929 . S
C108 O98 1.282 . S
C108 O109 1.216 . S
O109 C108 1.216 . S
H110 C105 0.930 . S
H111 C106 0.930 . S
O112 Cu92 1.959 1_655 S
O112 C99 1.251 1_655 S
H113 C96 0.930 . S
H114 C107 0.929 . S
Cu115 N116 1.999 . S
Cu115 O121 1.974 . S
Cu115 N126 1.985 . S
Cu115 O135 1.959 . S
N116 Cu115 1.999 . S
N116 C118 1.263 . S
N116 C120 1.389 . S
N117 C118 1.358 . S
N117 C119 1.400 . S
C118 N116 1.263 . S
C118 N117 1.358 . S
C118 H124 0.930 . S
C119 N117 1.400 . S
C119 C120 1.351 . S
C119 H136 0.930 . S
C120 N116 1.389 . S
C120 C119 1.351 . S
C120 H125 0.930 . S
O121 Cu115 1.974 . S
O121 C131 1.282 . S
C122 O123 1.261 . S
C122 O135 1.251 . S
O123 C122 1.261 . S
H124 C118 0.930 . S
H125 C120 0.930 . S
N126 Cu115 1.985 . S
N126 C128 1.335 . S
N126 C129 1.390 . S
N127 C128 1.345 . S
N127 C130 1.336 . S
C128 N126 1.335 . S
C128 N127 1.345 . S
C128 H133 0.930 . S
C129 N126 1.390 . S
C129 C130 1.346 . S
C129 H134 0.930 . S
C130 N127 1.336 . S
C130 C129 1.346 . S
C130 H137 0.929 . S
C131 O121 1.282 . S
C131 O132 1.216 . S
O132 C131 1.216 . S
H133 C128 0.930 . S
H134 C129 0.930 . S
O135 Cu115 1.959 . S
O135 C122 1.251 . S
H136 C119 0.930 . S
H137 C130 0.929 . S
Cu138 N139 1.999 . S
Cu138 O144 1.974 . S
Cu138 N149 1.985 . S
Cu138 O158 1.959 . S
N139 Cu138 1.999 . S
N139 C141 1.263 . S
N139 C143 1.389 . S
N140 C141 1.358 . S
N140 C142 1.400 . S
C141 N139 1.263 . S
C141 N140 1.358 . S
C141 H147 0.930 . S
C142 N140 1.400 . S
C142 C143 1.351 . S
C142 H159 0.930 . S
C143 N139 1.389 . S
C143 C142 1.351 . S
C143 H148 0.930 . S
O144 Cu138 1.974 . S
O144 C154 1.282 . S
C145 O146 1.261 . S
C145 O158 1.251 . S
O146 C145 1.261 . S
H147 C141 0.930 . S
H148 C143 0.930 . S
N149 Cu138 1.985 . S
N149 C151 1.335 . S
N149 C152 1.390 . S
N150 C151 1.345 . S
N150 C153 1.336 . S
C151 N149 1.335 . S
C151 N150 1.345 . S
C151 H156 0.930 . S
C152 N149 1.390 . S
C152 C153 1.346 . S
C152 H157 0.930 . S
C153 N150 1.336 . S
C153 C152 1.346 . S
C153 H160 0.929 . S
C154 O144 1.282 . S
C154 O155 1.216 . S
O155 C154 1.216 . S
H156 C151 0.930 . S
H157 C152 0.930 . S
O158 Cu138 1.959 . S
O158 C145 1.251 . S
H159 C142 0.930 . S
H160 C153 0.929 . S
Cu161 N162 1.999 . S
Cu161 O167 1.974 . S
Cu161 N172 1.985 . S
Cu161 O181 1.959 . S
N162 Cu161 1.999 . S
N162 C164 1.263 . S
N162 C166 1.389 . S
N163 C164 1.358 . S
N163 C165 1.400 . S
C164 N162 1.263 . S
C164 N163 1.358 . S
C164 H170 0.930 . S
C165 N163 1.400 . S
C165 C166 1.351 . S
C165 H182 0.930 . S
C166 N162 1.389 . S
C166 C165 1.351 . S
C166 H171 0.930 . S
O167 Cu161 1.974 . S
O167 C177 1.282 . S
C168 O169 1.261 . S
C168 O181 1.251 . S
O169 C168 1.261 . S
H170 C164 0.930 . S
H171 C166 0.930 . S
N172 Cu161 1.985 . S
N172 C174 1.335 . S
N172 C175 1.390 . S
N173 C174 1.345 . S
N173 C176 1.336 1_545 S
C174 N172 1.335 . S
C174 N173 1.345 . S
C174 H179 0.930 . S
C175 N172 1.390 . S
C175 C176 1.346 1_545 S
C175 H180 0.930 1_545 S
C176 N173 1.336 1_565 S
C176 C175 1.346 1_565 S
C176 H183 0.929 . S
C177 O167 1.282 . S
C177 O178 1.222 1_545 S
O178 C177 1.222 1_565 S
H179 C174 0.930 . S
H180 C175 0.930 1_565 S
O181 Cu161 1.959 . S
O181 C168 1.251 . S
H182 C165 0.930 . S
H183 C176 0.929 . S
Cu184 N185 1.999 . S
Cu184 O190 1.974 . S
Cu184 N195 1.985 1_655 S
Cu184 O204 1.959 . S
N185 Cu184 1.999 . S
N185 C187 1.263 . S
N185 C189 1.389 . S
N186 C187 1.358 . S
N186 C188 1.400 . S
C187 N185 1.263 . S
C187 N186 1.358 . S
C187 H193 0.930 . S
C188 N186 1.400 . S
C188 C189 1.351 . S
C188 H205 0.930 . S
C189 N185 1.389 . S
C189 C188 1.351 . S
C189 H194 0.930 . S
O190 Cu184 1.974 . S
O190 C200 1.282 . S
C191 O192 1.261 . S
C191 O204 1.251 . S
O192 C191 1.261 . S
H193 C187 0.930 . S
H194 C189 0.930 . S
N195 Cu184 1.985 1_455 S
N195 C197 1.335 . S
N195 C198 1.390 . S
N196 C197 1.345 . S
N196 C199 1.336 . S
C197 N195 1.335 . S
C197 N196 1.345 . S
C197 H202 0.930 . S
C198 N195 1.390 . S
C198 C199 1.346 . S
C198 H203 0.930 . S
C199 N196 1.336 . S
C199 C198 1.346 . S
C199 H206 0.929 . S
C200 O190 1.282 . S
C200 O201 1.216 . S
O201 C200 1.216 . S
H202 C197 0.930 . S
H203 C198 0.930 . S
O204 Cu184 1.959 . S
O204 C191 1.251 . S
H205 C188 0.930 . S
H206 C199 0.929 . S
Cu207 N208 1.999 . S
Cu207 O213 1.974 . S
Cu207 N218 1.985 1_655 S
Cu207 O227 1.959 . S
N208 Cu207 1.999 . S
N208 C210 1.263 . S
N208 C212 1.389 . S
N209 C210 1.358 . S
N209 C211 1.400 . S
C210 N208 1.263 . S
C210 N209 1.358 . S
C210 H216 0.930 . S
C211 N209 1.400 . S
C211 C212 1.351 . S
C211 H228 0.930 . S
C212 N208 1.389 . S
C212 C211 1.351 . S
C212 H217 0.930 . S
O213 Cu207 1.974 . S
O213 C223 1.282 . S
C214 O215 1.261 . S
C214 O227 1.251 . S
O215 C214 1.261 . S
H216 C210 0.930 . S
H217 C212 0.930 . S
N218 Cu207 1.985 1_455 S
N218 C220 1.335 . S
N218 C221 1.390 . S
N219 C220 1.345 . S
N219 C222 1.336 . S
C220 N218 1.335 . S
C220 N219 1.345 . S
C220 H225 0.930 . S
C221 N218 1.390 . S
C221 C222 1.346 . S
C221 H226 0.930 . S
C222 N219 1.336 . S
C222 C221 1.346 . S
C222 H229 0.929 . S
C223 O213 1.282 . S
C223 O224 1.216 . S
O224 C223 1.216 . S
H225 C220 0.930 . S
H226 C221 0.930 . S
O227 Cu207 1.959 . S
O227 C214 1.251 . S
H228 C211 0.930 . S
H229 C222 0.929 . S
Cu230 N231 1.999 . S
Cu230 O236 1.974 . S
Cu230 N241 1.985 . S
Cu230 O250 1.959 . S
N231 Cu230 1.999 . S
N231 C233 1.263 . S
N231 C235 1.389 . S
N232 C233 1.358 . S
N232 C234 1.400 . S
C233 N231 1.263 . S
C233 N232 1.358 . S
C233 H239 0.930 . S
C234 N232 1.400 . S
C234 C235 1.351 . S
C234 H251 0.930 . S
C235 N231 1.389 . S
C235 C234 1.351 . S
C235 H240 0.930 . S
O236 Cu230 1.974 . S
O236 C246 1.282 . S
C237 O238 1.261 . S
C237 O250 1.251 . S
O238 C237 1.261 . S
H239 C233 0.930 . S
H240 C235 0.930 . S
N241 Cu230 1.985 . S
N241 C243 1.335 . S
N241 C244 1.390 . S
N242 C243 1.345 . S
N242 C245 1.336 . S
C243 N241 1.335 . S
C243 N242 1.345 . S
C243 H248 0.930 . S
C244 N241 1.390 . S
C244 C245 1.346 . S
C244 H249 0.930 . S
C245 N242 1.336 . S
C245 C244 1.346 . S
C245 H252 0.929 . S
C246 O236 1.282 . S
C246 O247 1.216 . S
O247 C246 1.216 . S
H248 C243 0.930 . S
H249 C244 0.930 . S
O250 Cu230 1.959 . S
O250 C237 1.251 . S
H251 C234 0.930 . S
H252 C245 0.929 . S
Cu253 N254 1.999 . S
Cu253 O259 1.974 . S
Cu253 N264 1.985 . S
Cu253 O273 1.959 . S
N254 Cu253 1.999 . S
N254 C256 1.263 . S
N254 C258 1.389 . S
N255 C256 1.358 . S
N255 C257 1.400 . S
C256 N254 1.263 . S
C256 N255 1.358 . S
C256 H262 0.930 . S
C257 N255 1.400 . S
C257 C258 1.351 . S
C257 H274 0.930 . S
C258 N254 1.389 . S
C258 C257 1.351 . S
C258 H263 0.930 . S
O259 Cu253 1.974 . S
O259 C269 1.255 1_545 S
C260 O261 1.261 . S
C260 O273 1.251 . S
O261 C260 1.261 . S
H262 C256 0.930 . S
H263 C258 0.930 . S
N264 Cu253 1.985 . S
N264 C266 1.335 . S
N264 C267 1.390 1_545 S
N265 C266 1.345 . S
N265 C268 1.336 1_545 S
C266 N264 1.335 . S
C266 N265 1.345 . S
C266 H271 0.930 . S
C267 N264 1.390 1_565 S
C267 C268 1.346 . S
C267 H272 0.930 . S
C268 N265 1.336 1_565 S
C268 C267 1.346 . S
C268 H275 0.929 . S
C269 O259 1.255 1_565 S
C269 O270 1.231 . S
O270 C269 1.231 . S
H271 C266 0.930 . S
H272 C267 0.930 . S
O273 Cu253 1.959 . S
O273 C260 1.251 . S
H274 C257 0.930 . S
H275 C268 0.929 . S
Cu276 N277 1.999 . S
Cu276 O282 1.974 . S
Cu276 N287 1.985 . S
Cu276 O296 1.959 . S
N277 Cu276 1.999 . S
N277 C279 1.263 . S
N277 C281 1.389 . S
N278 C279 1.358 . S
N278 C280 1.400 . S
C279 N277 1.263 . S
C279 N278 1.358 . S
C279 H285 0.930 . S
C280 N278 1.400 . S
C280 C281 1.351 . S
C280 H297 0.930 . S
C281 N277 1.389 . S
C281 C280 1.351 . S
C281 H286 0.930 . S
O282 Cu276 1.974 . S
O282 C292 1.282 . S
C283 O284 1.261 . S
C283 O296 1.251 . S
O284 C283 1.261 . S
H285 C279 0.930 . S
H286 C281 0.930 . S
N287 Cu276 1.985 . S
N287 C289 1.335 . S
N287 C290 1.422 . S
N288 C289 1.345 1_655 S
N288 C291 1.336 . S
C289 N287 1.335 . S
C289 N288 1.345 1_455 S
C289 H294 0.930 . S
C290 N287 1.422 . S
C290 C291 1.328 1_455 S
C290 H295 0.919 . S
C291 N288 1.336 . S
C291 C290 1.328 1_655 S
C291 H298 0.929 . S
C292 O282 1.282 . S
C292 O293 1.216 . S
O293 C292 1.216 . S
H294 C289 0.930 . S
H295 C290 0.919 . S
O296 Cu276 1.959 . S
O296 C283 1.251 . S
H297 C280 0.930 . S
H298 C291 0.929 . S
Cu299 N300 1.999 . S
Cu299 O305 1.974 . S
Cu299 N310 1.985 . S
Cu299 O319 1.959 . S
N300 Cu299 1.999 . S
N300 C302 1.263 . S
N300 C304 1.389 . S
N301 C302 1.358 . S
N301 C303 1.400 . S
C302 N300 1.263 . S
C302 N301 1.358 . S
C302 H308 0.930 . S
C303 N301 1.400 . S
C303 C304 1.351 . S
C303 H320 0.930 . S
C304 N300 1.389 . S
C304 C303 1.351 . S
C304 H309 0.930 . S
O305 Cu299 1.974 . S
O305 C315 1.282 . S
C306 O307 1.261 . S
C306 O319 1.251 . S
O307 C306 1.261 . S
H308 C302 0.930 . S
H309 C304 0.930 . S
N310 Cu299 1.985 . S
N310 C312 1.335 . S
N310 C313 1.390 . S
N311 C312 1.345 . S
N311 C314 1.336 . S
C312 N310 1.335 . S
C312 N311 1.345 . S
C312 H317 0.930 . S
C313 N310 1.390 . S
C313 C314 1.346 . S
C313 H318 0.930 . S
C314 N311 1.336 . S
C314 C313 1.346 . S
C314 H321 0.929 . S
C315 O305 1.282 . S
C315 O316 1.216 . S
O316 C315 1.216 . S
H317 C312 0.930 . S
H318 C313 0.930 . S
O319 Cu299 1.959 . S
O319 C306 1.251 . S
H320 C303 0.930 . S
H321 C314 0.929 . S
Cu322 N323 1.999 . S
Cu322 O328 1.974 1_565 S
Cu322 N333 1.985 1_565 S
Cu322 O342 1.959 . S
N323 Cu322 1.999 . S
N323 C325 1.263 . S
N323 C327 1.389 . S
N324 C325 1.358 . S
N324 C326 1.400 . S
C325 N323 1.263 . S
C325 N324 1.358 . S
C325 H331 0.930 . S
C326 N324 1.400 . S
C326 C327 1.351 . S
C326 H343 0.930 . S
C327 N323 1.389 . S
C327 C326 1.351 . S
C327 H332 0.930 . S
O328 Cu322 1.974 1_545 S
O328 C338 1.282 . S
C329 O330 1.261 . S
C329 O342 1.251 . S
O330 C329 1.261 . S
H331 C325 0.930 . S
H332 C327 0.930 . S
N333 Cu322 1.985 1_545 S
N333 C335 1.335 1_545 S
N333 C336 1.390 . S
N334 C335 1.345 1_545 S
N334 C337 1.336 . S
C335 N333 1.335 1_565 S
C335 N334 1.345 1_565 S
C335 H340 0.930 . S
C336 N333 1.390 . S
C336 C337 1.346 . S
C336 H341 0.930 . S
C337 N334 1.336 . S
C337 C336 1.346 . S
C337 H344 0.929 . S
C338 O328 1.282 . S
C338 O339 1.216 . S
O339 C338 1.216 . S
H340 C335 0.930 . S
H341 C336 0.930 . S
O342 Cu322 1.959 . S
O342 C329 1.251 . S
H343 C326 0.930 . S
H344 C337 0.929 . S
Cu345 N346 1.999 . S
Cu345 O351 1.974 . S
Cu345 N356 1.985 . S
Cu345 O365 1.959 . S
N346 Cu345 1.999 . S
N346 C348 1.263 . S
N346 C350 1.389 . S
N347 C348 1.358 . S
N347 C349 1.400 . S
C348 N346 1.263 . S
C348 N347 1.358 . S
C348 H354 0.930 . S
C349 N347 1.400 . S
C349 C350 1.351 . S
C349 H366 0.930 . S
C350 N346 1.389 . S
C350 C349 1.351 . S
C350 H355 0.930 . S
O351 Cu345 1.974 . S
O351 C361 1.282 . S
C352 O353 1.261 . S
C352 O365 1.251 . S
O353 C352 1.261 . S
H354 C348 0.930 . S
H355 C350 0.930 . S
N356 Cu345 1.985 . S
N356 C358 1.335 . S
N356 C359 1.390 . S
N357 C358 1.345 . S
N357 C360 1.336 . S
C358 N356 1.335 . S
C358 N357 1.345 . S
C358 H363 0.930 . S
C359 N356 1.390 . S
C359 C360 1.346 . S
C359 H364 0.930 . S
C360 N357 1.336 . S
C360 C359 1.346 . S
C360 H367 0.929 . S
C361 O351 1.282 . S
C361 O362 1.216 . S
O362 C361 1.216 . S
H363 C358 0.930 . S
H364 C359 0.930 . S
O365 Cu345 1.959 . S
O365 C352 1.251 . S
H366 C349 0.930 . S
H367 C360 0.929 . S
Cu368 N369 1.999 . S
Cu368 O374 1.974 1_565 S
Cu368 N379 1.963 1_565 S
Cu368 O388 1.959 . S
N369 Cu368 1.999 . S
N369 C371 1.263 . S
N369 C373 1.389 . S
N370 C371 1.358 . S
N370 C372 1.400 . S
C371 N369 1.263 . S
C371 N370 1.358 . S
C371 H377 0.930 . S
C372 N370 1.400 . S
C372 C373 1.351 . S
C372 H389 0.930 . S
C373 N369 1.389 . S
C373 C372 1.351 . S
C373 H378 0.930 . S
O374 Cu368 1.974 1_545 S
O374 C384 1.282 . S
C375 O376 1.261 . S
C375 O388 1.251 . S
O376 C375 1.261 . S
H377 C371 0.930 . S
H378 C373 0.930 . S
N379 Cu368 1.963 1_545 S
N379 C381 1.337 1_545 S
N379 C382 1.417 . S
N380 C381 1.345 1_545 S
N380 C383 1.336 . S
C381 N379 1.337 1_565 S
C381 N380 1.345 1_565 S
C381 H386 0.930 . S
C382 N379 1.417 . S
C382 C383 1.346 . S
C382 H387 0.930 . S
C383 N380 1.336 . S
C383 C382 1.346 . S
C383 H390 0.929 . S
C384 O374 1.282 . S
C384 O385 1.216 . S
O385 C384 1.216 . S
H386 C381 0.930 . S
H387 C382 0.930 . S
O388 Cu368 1.959 . S
O388 C375 1.251 . S
H389 C372 0.930 . S
H390 C383 0.929 . S
Cu391 N392 1.999 . S
Cu391 O397 1.974 . S
Cu391 N402 1.985 . S
Cu391 O411 1.959 . S
N392 Cu391 1.999 . S
N392 C394 1.263 . S
N392 C396 1.389 . S
N393 C394 1.358 . S
N393 C395 1.400 . S
C394 N392 1.263 . S
C394 N393 1.358 . S
C394 H400 0.930 . S
C395 N393 1.400 . S
C395 C396 1.351 . S
C395 H412 0.930 . S
C396 N392 1.389 . S
C396 C395 1.351 . S
C396 H401 0.930 . S
O397 Cu391 1.974 . S
O397 C407 1.282 . S
C398 O399 1.261 . S
C398 O411 1.251 . S
O399 C398 1.261 . S
H400 C394 0.930 . S
H401 C396 0.930 . S
N402 Cu391 1.985 . S
N402 C404 1.335 . S
N402 C405 1.386 1_455 S
N403 C404 1.345 1_655 S
N403 C406 1.336 . S
C404 N402 1.335 . S
C404 N403 1.345 1_455 S
C404 H409 0.930 . S
C405 N402 1.386 1_655 S
C405 C406 1.365 . S
C405 H410 0.928 . S
C406 N403 1.336 . S
C406 C405 1.365 . S
C406 H413 0.929 . S
C407 O397 1.282 . S
C407 O408 1.216 . S
O408 C407 1.216 . S
H409 C404 0.930 . S
H410 C405 0.928 . S
O411 Cu391 1.959 . S
O411 C398 1.251 . S
H412 C395 0.930 . S
H413 C406 0.929 . S
Zn414 O420 1.920 1_455 S
Zn414 O426 1.898 1_445 S
Zn414 O429 1.905 . S
Zn415 O423 1.905 1_545 S
Zn415 O424 1.898 . S
Zn415 O432 1.920 1_455 S
Zn416 O419 2.080 . S
Zn416 O422 2.114 1_545 S
Zn416 O425 2.120 . S
Zn416 O427 2.120 1_445 S
Zn416 O428 2.114 . S
Zn416 O431 2.080 1_455 S
C417 O422 1.166 . S
C417 O423 1.182 . S
C418 O424 1.167 . S
C418 O425 1.299 . S
O419 Zn416 2.080 . S
O419 C433 1.305 . S
O420 Zn414 1.920 1_655 S
O420 C433 1.234 1_655 S
C421 O426 1.167 . S
C421 O427 1.299 . S
O422 Zn416 2.114 1_565 S
O422 C417 1.166 . S
O423 Zn415 1.905 1_565 S
O423 C417 1.182 . S
O424 Zn415 1.898 . S
O424 C418 1.167 . S
O425 Zn416 2.120 . S
O425 C418 1.299 . S
O426 Zn414 1.898 1_665 S
O426 C421 1.167 . S
O427 Zn416 2.120 1_665 S
O427 C421 1.299 . S
O428 Zn416 2.114 . S
O428 C430 1.166 . S
O429 Zn414 1.905 . S
O429 C430 1.182 . S
C430 O428 1.166 . S
C430 O429 1.182 . S
O431 Zn416 2.080 1_655 S
O431 C434 1.305 . S
O432 Zn415 1.920 1_655 S
O432 C434 1.234 . S
C433 O419 1.305 . S
C433 O420 1.234 1_455 S
C434 O431 1.305 . S
C434 O432 1.234 . S
Zn435 O441 1.920 1_545 S
Zn435 O447 1.898 . S
Zn435 O450 1.905 1_455 S
Zn436 O444 1.905 . S
Zn436 O445 1.898 1_445 S
Zn436 O453 1.920 . S
Zn437 O440 2.080 1_545 S
Zn437 O443 2.114 . S
Zn437 O446 2.120 1_445 S
Zn437 O448 2.120 . S
Zn437 O449 2.114 1_455 S
Zn437 O452 2.080 . S
C438 O443 1.166 . S
C438 O444 1.182 . S
C439 O445 1.167 . S
C439 O446 1.299 . S
O440 Zn437 2.080 1_565 S
O440 C454 1.305 . S
O441 Zn435 1.920 1_565 S
O441 C454 1.234 . S
C442 O447 1.167 . S
C442 O448 1.299 . S
O443 Zn437 2.114 . S
O443 C438 1.166 . S
O444 Zn436 1.905 . S
O444 C438 1.182 . S
O445 Zn436 1.898 1_665 S
O445 C439 1.167 . S
O446 Zn437 2.120 1_665 S
O446 C439 1.299 . S
O447 Zn435 1.898 . S
O447 C442 1.167 . S
O448 Zn437 2.120 . S
O448 C442 1.299 . S
O449 Zn437 2.114 1_655 S
O449 C451 1.166 . S
O450 Zn435 1.905 1_655 S
O450 C451 1.182 . S
C451 O449 1.166 . S
C451 O450 1.182 . S
O452 Zn437 2.080 . S
O452 C455 1.305 . S
O453 Zn436 1.920 . S
O453 C455 1.234 . S
C454 O440 1.305 . S
C454 O441 1.234 . S
C455 O452 1.305 . S
C455 O453 1.234 . S
Zn456 O462 1.920 1_545 S
Zn456 O468 1.898 . S
Zn456 O471 1.905 1_445 S
Zn457 O465 1.905 . S
Zn457 O466 1.898 1_445 S
Zn457 O474 1.920 1_545 S
Zn458 O461 2.080 1_545 S
Zn458 O464 2.114 . S
Zn458 O467 2.120 1_445 S
Zn458 O469 2.120 . S
Zn458 O470 2.114 1_455 S
Zn458 O473 2.080 . S
C459 O464 1.166 . S
C459 O465 1.182 . S
C460 O466 1.167 . S
C460 O467 1.299 . S
O461 Zn458 2.080 1_565 S
O461 C475 1.305 . S
O462 Zn456 1.920 1_565 S
O462 C475 1.234 . S
C463 O468 1.167 . S
C463 O469 1.299 . S
O464 Zn458 2.114 . S
O464 C459 1.166 . S
O465 Zn457 1.905 . S
O465 C459 1.182 . S
O466 Zn457 1.898 1_665 S
O466 C460 1.167 . S
O467 Zn458 2.120 1_665 S
O467 C460 1.299 . S
O468 Zn456 1.898 . S
O468 C463 1.167 . S
O469 Zn458 2.120 . S
O469 C463 1.299 . S
O470 Zn458 2.114 1_655 S
O470 C472 1.166 . S
O471 Zn456 1.905 1_665 S
O471 C472 1.182 1_565 S
C472 O470 1.166 . S
C472 O471 1.182 1_545 S
O473 Zn458 2.080 . S
O473 C476 1.305 . S
O474 Zn457 1.920 1_565 S
O474 C476 1.234 1_565 S
C475 O461 1.305 . S
C475 O462 1.234 . S
C476 O473 1.305 . S
C476 O474 1.234 1_545 S
Zn477 O483 1.920 . S
Zn477 O489 1.898 1_445 S
Zn477 O492 1.905 . S
Zn478 O486 1.905 1_545 S
Zn478 O487 1.898 . S
Zn478 O495 1.920 1_455 S
Zn479 O482 2.080 . S
Zn479 O485 2.114 1_545 S
Zn479 O488 2.120 . S
Zn479 O490 2.120 1_445 S
Zn479 O491 2.114 . S
Zn479 O494 2.080 1_455 S
C480 O485 1.166 . S
C480 O486 1.182 . S
C481 O487 1.167 . S
C481 O488 1.299 . S
O482 Zn479 2.080 . S
O482 C496 1.305 . S
O483 Zn477 1.920 . S
O483 C496 1.234 . S
C484 O489 1.167 . S
C484 O490 1.299 . S
O485 Zn479 2.114 1_565 S
O485 C480 1.166 . S
O486 Zn478 1.905 1_565 S
O486 C480 1.182 . S
O487 Zn478 1.898 . S
O487 C481 1.167 . S
O488 Zn479 2.120 . S
O488 C481 1.299 . S
O489 Zn477 1.898 1_665 S
O489 C484 1.167 . S
O490 Zn479 2.120 1_665 S
O490 C484 1.299 . S
O491 Zn479 2.114 . S
O491 C493 1.166 . S
O492 Zn477 1.905 . S
O492 C493 1.182 . S
C493 O491 1.166 . S
C493 O492 1.182 . S
O494 Zn479 2.080 1_655 S
O494 C497 1.305 . S
O495 Zn478 1.920 1_655 S
O495 C497 1.234 . S
C496 O482 1.305 . S
C496 O483 1.234 . S
C497 O494 1.305 . S
C497 O495 1.234 . S
Zn498 O504 1.920 . S
Zn498 O510 1.898 . S
Zn498 O513 1.905 . S
Zn499 O507 1.905 . S
Zn499 O508 1.898 . S
Zn499 O516 1.920 . S
Zn500 O503 2.080 . S
Zn500 O506 2.114 . S
Zn500 O509 2.120 . S
Zn500 O511 2.120 . S
Zn500 O512 2.114 . S
Zn500 O515 2.080 . S
C501 O506 1.166 . S
C501 O507 1.182 . S
C502 O508 1.167 . S
C502 O509 1.299 . S
O503 Zn500 2.080 . S
O503 C517 1.305 . S
O504 Zn498 1.920 . S
O504 C517 1.234 . S
C505 O510 1.167 . S
C505 O511 1.299 . S
O506 Zn500 2.114 . S
O506 C501 1.166 . S
O507 Zn499 1.905 . S
O507 C501 1.182 . S
O508 Zn499 1.898 . S
O508 C502 1.167 . S
O509 Zn500 2.120 . S
O509 C502 1.299 . S
O510 Zn498 1.898 . S
O510 C505 1.167 . S
O511 Zn500 2.120 . S
O511 C505 1.299 . S
O512 Zn500 2.114 . S
O512 C514 1.166 . S
O513 Zn498 1.905 . S
O513 C514 1.182 . S
C514 O512 1.166 . S
C514 O513 1.182 . S
O515 Zn500 2.080 . S
O515 C518 1.305 . S
O516 Zn499 1.920 . S
O516 C518 1.234 . S
C517 O503 1.305 . S
C517 O504 1.234 . S
C518 O515 1.305 . S
C518 O516 1.234 . S
Zn519 O525 1.920 . S
Zn519 O531 1.898 . S
Zn519 O534 1.905 . S
Zn520 O528 1.905 . S
Zn520 O529 1.898 . S
Zn520 O537 1.920 . S
Zn521 O524 2.080 . S
Zn521 O527 2.114 . S
Zn521 O530 2.120 . S
Zn521 O532 2.120 . S
Zn521 O533 2.114 . S
Zn521 O536 2.080 . S
C522 O527 1.166 . S
C522 O528 1.182 . S
C523 O529 1.167 . S
C523 O530 1.299 . S
O524 Zn521 2.080 . S
O524 C538 1.305 . S
O525 Zn519 1.920 . S
O525 C538 1.234 . S
C526 O531 1.167 . S
C526 O532 1.299 . S
O527 Zn521 2.114 . S
O527 C522 1.166 . S
O528 Zn520 1.905 . S
O528 C522 1.182 . S
O529 Zn520 1.898 . S
O529 C523 1.167 . S
O530 Zn521 2.120 . S
O530 C523 1.299 . S
O531 Zn519 1.898 . S
O531 C526 1.167 . S
O532 Zn521 2.120 . S
O532 C526 1.299 . S
O533 Zn521 2.114 . S
O533 C535 1.166 . S
O534 Zn519 1.905 . S
O534 C535 1.182 . S
C535 O533 1.166 . S
C535 O534 1.182 . S
O536 Zn521 2.080 . S
O536 C539 1.305 . S
O537 Zn520 1.920 . S
O537 C539 1.234 . S
C538 O524 1.305 . S
C538 O525 1.234 . S
C539 O536 1.305 . S
C539 O537 1.234 . S
Zn540 O546 1.920 . S
Zn540 O552 1.898 . S
Zn540 O555 1.905 . S
Zn541 O549 1.905 . S
Zn541 O550 1.898 . S
Zn541 O558 1.920 . S
Zn542 O545 2.080 . S
Zn542 O548 2.114 . S
Zn542 O551 2.120 . S
Zn542 O553 2.120 . S
Zn542 O554 2.114 . S
Zn542 O557 2.080 . S
C543 O548 1.166 . S
C543 O549 1.182 . S
C544 O550 1.167 . S
C544 O551 1.299 . S
O545 Zn542 2.080 . S
O545 C559 1.305 . S
O546 Zn540 1.920 . S
O546 C559 1.234 . S
C547 O552 1.167 . S
C547 O553 1.299 . S
O548 Zn542 2.114 . S
O548 C543 1.166 . S
O549 Zn541 1.905 . S
O549 C543 1.182 . S
O550 Zn541 1.898 . S
O550 C544 1.167 . S
O551 Zn542 2.120 . S
O551 C544 1.299 . S
O552 Zn540 1.898 . S
O552 C547 1.167 . S
O553 Zn542 2.120 . S
O553 C547 1.299 . S
O554 Zn542 2.114 . S
O554 C556 1.166 . S
O555 Zn540 1.905 . S
O555 C556 1.182 . S
C556 O554 1.166 . S
C556 O555 1.182 . S
O557 Zn542 2.080 . S
O557 C560 1.305 . S
O558 Zn541 1.920 . S
O558 C560 1.234 . S
C559 O545 1.305 . S
C559 O546 1.234 . S
C560 O557 1.305 . S
C560 O558 1.234 . S
Zn561 O567 1.920 . S
Zn561 O573 1.898 . S
Zn561 O576 1.905 . S
Zn562 O570 1.905 . S
Zn562 O571 1.898 . S
Zn562 O579 1.920 . S
Zn563 O566 2.080 1_556 S
Zn563 O569 2.114 . S
Zn563 O572 2.120 . S
Zn563 O574 2.064 1_556 S
Zn563 O575 2.114 1_556 S
Zn563 O578 2.080 . S
C564 O569 1.166 . S
C564 O570 1.182 . S
C565 O571 1.167 . S
C565 O572 1.299 . S
O566 Zn563 2.080 1_554 S
O566 C580 1.305 . S
O567 Zn561 1.920 . S
O567 C580 1.234 . S
C568 O573 1.167 . S
C568 O574 1.376 . S
O569 Zn563 2.114 . S
O569 C564 1.166 . S
O570 Zn562 1.905 . S
O570 C564 1.182 . S
O571 Zn562 1.898 . S
O571 C565 1.167 . S
O572 Zn563 2.120 . S
O572 C565 1.299 . S
O573 Zn561 1.898 . S
O573 C568 1.167 . S
O574 Zn563 2.064 1_554 S
O574 C568 1.376 . S
O575 Zn563 2.114 1_554 S
O575 C577 1.166 . S
O576 Zn561 1.905 . S
O576 C577 1.182 . S
C577 O575 1.166 . S
C577 O576 1.182 . S
O578 Zn563 2.080 . S
O578 C581 1.305 . S
O579 Zn562 1.920 . S
O579 C581 1.234 . S
C580 O566 1.305 . S
C580 O567 1.234 . S
C581 O578 1.305 . S
C581 O579 1.234 . S
Zn582 O588 1.920 . S
Zn582 O594 1.898 . S
Zn582 O597 1.905 . S
Zn583 O591 1.905 . S
Zn583 O592 1.898 . S
Zn583 O600 1.920 . S
Zn584 O587 2.080 . S
Zn584 O590 2.114 . S
Zn584 O593 2.120 . S
Zn584 O595 2.120 . S
Zn584 O596 2.114 . S
Zn584 O599 2.080 . S
C585 O590 1.166 . S
C585 O591 1.182 . S
C586 O592 1.167 . S
C586 O593 1.299 . S
O587 Zn584 2.080 . S
O587 C601 1.305 . S
O588 Zn582 1.920 . S
O588 C601 1.234 . S
C589 O594 1.167 . S
C589 O595 1.299 . S
O590 Zn584 2.114 . S
O590 C585 1.166 . S
O591 Zn583 1.905 . S
O591 C585 1.182 . S
O592 Zn583 1.898 . S
O592 C586 1.167 . S
O593 Zn584 2.120 . S
O593 C586 1.299 . S
O594 Zn582 1.898 . S
O594 C589 1.167 . S
O595 Zn584 2.120 . S
O595 C589 1.299 . S
O596 Zn584 2.114 . S
O596 C598 1.166 . S
O597 Zn582 1.905 . S
O597 C598 1.182 . S
C598 O596 1.166 . S
C598 O597 1.182 . S
O599 Zn584 2.080 . S
O599 C602 1.305 . S
O600 Zn583 1.920 . S
O600 C602 1.234 . S
C601 O587 1.305 . S
C601 O588 1.234 . S
C602 O599 1.305 . S
C602 O600 1.234 . S
Zn603 O609 1.920 . S
Zn603 O615 1.898 . S
Zn603 O618 1.905 . S
Zn604 O612 1.905 . S
Zn604 O613 1.898 . S
Zn604 O621 1.920 . S
Zn605 O608 2.080 . S
Zn605 O611 2.114 1_554 S
Zn605 O614 2.120 1_554 S
Zn605 O616 2.120 . S
Zn605 O617 2.114 . S
Zn605 O620 2.080 1_554 S
C606 O611 1.166 . S
C606 O612 1.182 . S
C607 O613 1.167 . S
C607 O614 1.299 . S
O608 Zn605 2.080 . S
O608 C622 1.305 . S
O609 Zn603 1.920 . S
O609 C622 1.234 . S
C610 O615 1.167 . S
C610 O616 1.299 . S
O611 Zn605 2.114 1_556 S
O611 C606 1.166 . S
O612 Zn604 1.905 . S
O612 C606 1.182 . S
O613 Zn604 1.898 . S
O613 C607 1.167 . S
O614 Zn605 2.120 1_556 S
O614 C607 1.299 . S
O615 Zn603 1.898 . S
O615 C610 1.167 . S
O616 Zn605 2.120 . S
O616 C610 1.299 . S
O617 Zn605 2.114 . S
O617 C619 1.166 . S
O618 Zn603 1.905 . S
O618 C619 1.182 . S
C619 O617 1.166 . S
C619 O618 1.182 . S
O620 Zn605 2.080 1_556 S
O620 C623 1.305 . S
O621 Zn604 1.920 . S
O621 C623 1.234 . S
C622 O608 1.305 . S
C622 O609 1.234 . S
C623 O620 1.305 . S
C623 O621 1.234 . S
Zn624 O630 1.920 . S
Zn624 O636 1.898 . S
Zn624 O639 1.905 . S
Zn625 O633 1.905 . S
Zn625 O634 1.898 . S
Zn625 O642 1.920 . S
Zn626 O629 2.080 . S
Zn626 O632 2.114 . S
Zn626 O635 2.120 . S
Zn626 O637 2.120 . S
Zn626 O638 2.114 . S
Zn626 O641 2.080 . S
C627 O632 1.166 . S
C627 O633 1.182 . S
C628 O634 1.167 . S
C628 O635 1.299 . S
O629 Zn626 2.080 . S
O629 C643 1.305 . S
O630 Zn624 1.920 . S
O630 C643 1.234 . S
C631 O636 1.167 . S
C631 O637 1.299 . S
O632 Zn626 2.114 . S
O632 C627 1.166 . S
O633 Zn625 1.905 . S
O633 C627 1.182 . S
O634 Zn625 1.898 . S
O634 C628 1.167 . S
O635 Zn626 2.120 . S
O635 C628 1.299 . S
O636 Zn624 1.898 . S
O636 C631 1.167 . S
O637 Zn626 2.120 . S
O637 C631 1.299 . S
O638 Zn626 2.114 . S
O638 C640 1.166 . S
O639 Zn624 1.905 . S
O639 C640 1.182 . S
C640 O638 1.166 . S
C640 O639 1.182 . S
O641 Zn626 2.080 . S
O641 C644 1.305 . S
O642 Zn625 1.920 . S
O642 C644 1.234 . S
C643 O629 1.305 . S
C643 O630 1.234 . S
C644 O641 1.305 . S
C644 O642 1.234 . S
Zn645 O651 1.920 . S
Zn645 O657 1.898 . S
Zn645 O660 1.905 . S
Zn646 O654 1.905 . S
Zn646 O655 1.898 . S
Zn646 O663 1.920 . S
Zn647 O650 2.080 . S
Zn647 O653 2.114 . S
Zn647 O656 2.120 . S
Zn647 O658 2.120 . S
Zn647 O659 2.114 . S
Zn647 O662 2.080 . S
C648 O653 1.166 . S
C648 O654 1.182 . S
C649 O655 1.167 . S
C649 O656 1.299 . S
O650 Zn647 2.080 . S
O650 C664 1.305 . S
O651 Zn645 1.920 . S
O651 C664 1.234 . S
C652 O657 1.167 . S
C652 O658 1.299 . S
O653 Zn647 2.114 . S
O653 C648 1.166 . S
O654 Zn646 1.905 . S
O654 C648 1.182 . S
O655 Zn646 1.898 . S
O655 C649 1.167 . S
O656 Zn647 2.120 . S
O656 C649 1.299 . S
O657 Zn645 1.898 . S
O657 C652 1.167 . S
O658 Zn647 2.120 . S
O658 C652 1.299 . S
O659 Zn647 2.114 . S
O659 C661 1.166 . S
O660 Zn645 1.905 . S
O660 C661 1.182 . S
C661 O659 1.166 . S
C661 O660 1.182 . S
O662 Zn647 2.080 . S
O662 C665 1.305 . S
O663 Zn646 1.920 . S
O663 C665 1.234 . S
C664 O650 1.305 . S
C664 O651 1.234 . S
C665 O662 1.305 . S
C665 O663 1.234 . S
H666 C672 0.930 . S
H667 C676 0.930 . S
H668 C681 0.929 . S
H669 C679 0.929 . S
H670 C674 0.929 . S
H671 C680 0.929 . S
C672 H666 0.930 . S
C672 C673 1.367 . S
C672 C680 1.378 . S
C673 C672 1.367 . S
C673 C681 1.433 . S
C674 H670 0.929 . S
C674 C676 1.378 . S
C674 C678 1.350 . S
C675 C678 1.463 . S
C675 C680 1.350 . S
C675 N683 1.427 . S
C676 H667 0.930 . S
C676 C674 1.378 . S
C676 C677 1.367 . S
C677 C676 1.367 . S
C677 C679 1.433 . S
C678 C674 1.350 . S
C678 C675 1.463 . S
C678 N682 1.427 . S
C679 H669 0.929 . S
C679 C677 1.433 . S
C679 N682 1.384 . S
C680 H671 0.929 . S
C680 C672 1.378 . S
C680 C675 1.350 . S
C681 H668 0.929 . S
C681 C673 1.433 . S
C681 N683 1.384 . S
N682 C678 1.427 . S
N682 C679 1.384 . S
N683 C675 1.427 . S
N683 C681 1.384 . S
H684 C690 0.930 . S
H685 C694 0.930 1_565 S
H686 C699 0.929 . S
H687 C697 0.929 . S
H688 C692 0.929 1_565 S
H689 C698 0.929 . S
C690 H684 0.930 . S
C690 C691 1.367 . S
C690 C698 1.378 . S
C691 C690 1.367 . S
C691 C699 1.433 . S
C692 H688 0.929 1_545 S
C692 C694 1.378 . S
C692 C696 1.350 . S
C693 C696 1.463 . S
C693 C698 1.350 . S
C693 N701 1.427 . S
C694 H685 0.930 1_545 S
C694 C692 1.378 . S
C694 C695 1.367 . S
C695 C694 1.367 . S
C695 C697 1.433 . S
C696 C692 1.350 . S
C696 C693 1.463 . S
C696 N700 1.427 . S
C697 H687 0.929 . S
C697 C695 1.433 . S
C697 N700 1.384 . S
C698 H689 0.929 . S
C698 C690 1.378 . S
C698 C693 1.350 . S
C699 H686 0.929 . S
C699 C691 1.433 . S
C699 N701 1.384 . S
N700 C696 1.427 . S
N700 C697 1.384 . S
N701 C693 1.427 . S
N701 C699 1.384 . S
H702 C708 0.930 . S
H703 C712 0.930 . S
H704 C717 0.929 . S
H705 C715 0.929 . S
H706 C710 0.929 . S
H707 C716 0.929 . S
C708 H702 0.930 . S
C708 C709 1.367 . S
C708 C716 1.378 . S
C709 C708 1.367 . S
C709 C717 1.433 . S
C710 H706 0.929 . S
C710 C712 1.378 . S
C710 C714 1.350 . S
C711 C714 1.463 . S
C711 C716 1.350 . S
C711 N719 1.427 . S
C712 H703 0.930 . S
C712 C710 1.378 . S
C712 C713 1.367 1_655 S
C713 C712 1.367 1_455 S
C713 C715 1.433 . S
C714 C710 1.350 . S
C714 C711 1.463 . S
C714 N718 1.427 . S
C715 H705 0.929 . S
C715 C713 1.433 . S
C715 N718 1.384 1_455 S
C716 H707 0.929 . S
C716 C708 1.378 . S
C716 C711 1.350 . S
C717 H704 0.929 . S
C717 C709 1.433 . S
C717 N719 1.384 . S
N718 C714 1.427 . S
N718 C715 1.384 1_655 S
N719 C711 1.427 . S
N719 C717 1.384 . S
H720 C726 0.930 . S
H721 C730 0.930 . S
H722 C735 0.929 . S
H723 C733 0.929 . S
H724 C728 0.929 . S
H725 C734 0.929 . S
C726 H720 0.930 . S
C726 C727 1.367 . S
C726 C734 1.378 . S
C727 C726 1.367 . S
C727 C735 1.433 . S
C728 H724 0.929 . S
C728 C730 1.378 . S
C728 C732 1.350 . S
C729 C732 1.463 . S
C729 C734 1.350 . S
C729 N737 1.427 . S
C730 H721 0.930 . S
C730 C728 1.378 . S
C730 C731 1.367 . S
C731 C730 1.367 . S
C731 C733 1.433 . S
C732 C728 1.350 . S
C732 C729 1.463 . S
C732 N736 1.427 . S
C733 H723 0.929 . S
C733 C731 1.433 . S
C733 N736 1.384 . S
C734 H725 0.929 . S
C734 C726 1.378 . S
C734 C729 1.350 . S
C735 H722 0.929 . S
C735 C727 1.433 . S
C735 N737 1.384 . S
N736 C732 1.427 . S
N736 C733 1.384 . S
N737 C729 1.427 . S
N737 C735 1.384 . S
H738 C744 0.930 . S
H739 C748 0.930 . S
H740 C753 0.929 . S
H741 C751 0.929 . S
H742 C746 0.929 . S
H743 C752 0.929 . S
C744 H738 0.930 . S
C744 C745 1.367 1_565 S
C744 C752 1.378 . S
C745 C744 1.367 1_545 S
C745 C753 1.433 . S
C746 H742 0.929 . S
C746 C748 1.378 . S
C746 C750 1.350 . S
C747 C750 1.463 . S
C747 C752 1.350 1_545 S
C747 N755 1.427 . S
C748 H739 0.930 . S
C748 C746 1.378 . S
C748 C749 1.367 . S
C749 C748 1.367 . S
C749 C751 1.433 1_545 S
C750 C746 1.350 . S
C750 C747 1.463 . S
C750 N754 1.427 1_545 S
C751 H741 0.929 . S
C751 C749 1.433 1_565 S
C751 N754 1.384 . S
C752 H743 0.929 . S
C752 C744 1.378 . S
C752 C747 1.350 1_565 S
C753 H740 0.929 . S
C753 C745 1.433 . S
C753 N755 1.384 . S
N754 C750 1.427 1_565 S
N754 C751 1.384 . S
N755 C747 1.427 . S
N755 C753 1.384 . S
H756 C762 0.930 . S
H757 C766 0.930 . S
H758 C771 0.929 . S
H759 C769 0.929 . S
H760 C764 0.929 . S
H761 C770 0.929 . S
C762 H756 0.930 . S
C762 C763 1.367 . S
C762 C770 1.378 . S
C763 C762 1.367 . S
C763 C771 1.433 . S
C764 H760 0.929 . S
C764 C766 1.378 . S
C764 C768 1.350 . S
C765 C768 1.463 . S
C765 C770 1.350 . S
C765 N773 1.427 . S
C766 H757 0.930 . S
C766 C764 1.378 . S
C766 C767 1.367 . S
C767 C766 1.367 . S
C767 C769 1.433 . S
C768 C764 1.350 . S
C768 C765 1.463 . S
C768 N772 1.427 . S
C769 H759 0.929 . S
C769 C767 1.433 . S
C769 N772 1.384 . S
C770 H761 0.929 . S
C770 C762 1.378 . S
C770 C765 1.350 . S
C771 H758 0.929 . S
C771 C763 1.433 . S
C771 N773 1.384 . S
N772 C768 1.427 . S
N772 C769 1.384 . S
N773 C765 1.427 . S
N773 C771 1.384 . S
H774 C780 0.930 . S
H775 C784 0.930 . S
H776 C789 0.929 . S
H777 C787 0.929 . S
H778 C782 0.929 . S
H779 C788 0.929 . S
C780 H774 0.930 . S
C780 C781 1.367 . S
C780 C788 1.378 . S
C781 C780 1.367 . S
C781 C789 1.433 . S
C782 H778 0.929 . S
C782 C784 1.378 . S
C782 C786 1.350 . S
C783 C786 1.463 . S
C783 C788 1.350 . S
C783 N791 1.427 . S
C784 H775 0.930 . S
C784 C782 1.378 . S
C784 C785 1.367 . S
C785 C784 1.367 . S
C785 C787 1.433 . S
C786 C782 1.350 . S
C786 C783 1.463 . S
C786 N790 1.427 . S
C787 H777 0.929 . S
C787 C785 1.433 . S
C787 N790 1.384 . S
C788 H779 0.929 . S
C788 C780 1.378 . S
C788 C783 1.350 . S
C789 H776 0.929 . S
C789 C781 1.433 . S
C789 N791 1.384 . S
N790 C786 1.427 . S
N790 C787 1.384 . S
N791 C783 1.427 . S
N791 C789 1.384 . S
H792 C798 0.930 . S
H793 C802 0.930 . S
H794 C807 0.929 . S
H795 C805 0.929 . S
H796 C800 0.929 . S
H797 C806 0.929 . S
C798 H792 0.930 . S
C798 C799 1.367 1_545 S
C798 C806 1.378 . S
C799 C798 1.367 1_565 S
C799 C807 1.433 . S
C800 H796 0.929 . S
C800 C802 1.378 . S
C800 C804 1.350 . S
C801 C804 1.463 . S
C801 C806 1.350 1_565 S
C801 N809 1.427 . S
C802 H793 0.930 . S
C802 C800 1.378 . S
C802 C803 1.367 . S
C803 C802 1.367 . S
C803 C805 1.433 1_565 S
C804 C800 1.350 . S
C804 C801 1.463 . S
C804 N808 1.427 1_565 S
C805 H795 0.929 . S
C805 C803 1.433 1_545 S
C805 N808 1.384 . S
C806 H797 0.929 . S
C806 C798 1.378 . S
C806 C801 1.350 1_545 S
C807 H794 0.929 . S
C807 C799 1.433 . S
C807 N809 1.384 . S
N808 C804 1.427 1_545 S
N808 C805 1.384 . S
N809 C801 1.427 . S
N809 C807 1.384 . S
H810 C816 0.930 . S
H811 C820 0.930 . S
H812 C825 0.929 . S
H813 C823 0.929 . S
H814 C818 0.929 . S
H815 C824 0.929 . S
C816 H810 0.930 . S
C816 C817 1.367 . S
C816 C824 1.378 . S
C817 C816 1.367 . S
C817 C825 1.433 . S
C818 H814 0.929 . S
C818 C820 1.378 . S
C818 C822 1.350 . S
C819 C822 1.463 . S
C819 C824 1.350 . S
C819 N827 1.427 . S
C820 H811 0.930 . S
C820 C818 1.378 . S
C820 C821 1.367 . S
C821 C820 1.367 . S
C821 C823 1.433 . S
C822 C818 1.350 . S
C822 C819 1.463 . S
C822 N826 1.427 . S
C823 H813 0.929 . S
C823 C821 1.433 . S
C823 N826 1.384 . S
C824 H815 0.929 . S
C824 C816 1.378 . S
C824 C819 1.350 . S
C825 H812 0.929 . S
C825 C817 1.433 . S
C825 N827 1.384 . S
N826 C822 1.427 . S
N826 C823 1.384 . S
N827 C819 1.427 . S
N827 C825 1.384 . S
H828 C834 0.930 . S
H829 C838 0.930 . S
H830 C843 0.929 . S
H831 C841 0.929 . S
H832 C836 0.929 . S
H833 C842 0.929 . S
C834 H828 0.930 . S
C834 C835 1.367 . S
C834 C842 1.378 . S
C835 C834 1.367 . S
C835 C843 1.433 . S
C836 H832 0.929 . S
C836 C838 1.378 . S
C836 C840 1.350 . S
C837 C840 1.463 . S
C837 C842 1.350 . S
C837 N845 1.427 . S
C838 H829 0.930 . S
C838 C836 1.378 . S
C838 C839 1.367 . S
C839 C838 1.367 . S
C839 C841 1.433 . S
C840 C836 1.350 . S
C840 C837 1.463 . S
C840 N844 1.427 . S
C841 H831 0.929 . S
C841 C839 1.433 . S
C841 N844 1.384 . S
C842 H833 0.929 . S
C842 C834 1.378 . S
C842 C837 1.350 . S
C843 H830 0.929 . S
C843 C835 1.433 . S
C843 N845 1.384 . S
N844 C840 1.427 . S
N844 C841 1.384 . S
N845 C837 1.427 . S
N845 C843 1.384 . S
H846 C852 0.930 . S
H847 C856 0.930 1_565 S
H848 C861 0.929 1_565 S
H849 C859 0.929 . S
H850 C854 0.929 1_565 S
H851 C860 0.929 . S
C852 H846 0.930 . S
C852 C853 1.367 . S
C852 C860 1.378 . S
C853 C852 1.367 . S
C853 C861 1.433 . S
C854 H850 0.929 1_545 S
C854 C856 1.378 . S
C854 C858 1.350 . S
C855 C858 1.463 . S
C855 C860 1.350 . S
C855 N863 1.427 . S
C856 H847 0.930 1_545 S
C856 C854 1.378 . S
C856 C857 1.367 . S
C857 C856 1.367 . S
C857 C859 1.433 . S
C858 C854 1.350 . S
C858 C855 1.463 . S
C858 N862 1.427 . S
C859 H849 0.929 . S
C859 C857 1.433 . S
C859 N862 1.384 . S
C860 H851 0.929 . S
C860 C852 1.378 . S
C860 C855 1.350 . S
C861 H848 0.929 1_545 S
C861 C853 1.433 . S
C861 N863 1.384 . S
N862 C858 1.427 . S
N862 C859 1.384 . S
N863 C855 1.427 . S
N863 C861 1.384 . S
H864 C870 0.930 . S
H865 C874 0.930 . S
H866 C879 0.929 . S
H867 C877 0.929 . S
H868 C872 0.929 . S
H869 C878 0.929 . S
C870 H864 0.930 . S
C870 C871 1.367 1_655 S
C870 C878 1.378 . S
C871 C870 1.367 1_455 S
C871 C879 1.433 . S
C872 H868 0.929 . S
C872 C874 1.378 . S
C872 C876 1.350 . S
C873 C876 1.463 . S
C873 C878 1.350 1_455 S
C873 N881 1.427 . S
C874 H865 0.930 . S
C874 C872 1.378 . S
C874 C875 1.367 . S
C875 C874 1.367 . S
C875 C877 1.433 1_455 S
C876 C872 1.350 . S
C876 C873 1.463 . S
C876 N880 1.427 1_455 S
C877 H867 0.929 . S
C877 C875 1.433 1_655 S
C877 N880 1.384 . S
C878 H869 0.929 . S
C878 C870 1.378 . S
C878 C873 1.350 1_655 S
C879 H866 0.929 . S
C879 C871 1.433 . S
C879 N881 1.384 . S
N880 C876 1.427 1_655 S
N880 C877 1.384 . S
N881 C873 1.427 . S
N881 C879 1.384 . S
H882 C888 0.930 . S
H883 C892 0.930 . S
H884 C897 0.929 . S
H885 C895 0.929 . S
H886 C890 0.929 . S
H887 C896 0.929 . S
C888 H882 0.930 . S
C888 C889 1.367 . S
C888 C896 1.378 . S
C889 C888 1.367 . S
C889 C897 1.433 . S
C890 H886 0.929 . S
C890 C892 1.378 . S
C890 C894 1.350 . S
C891 C894 1.463 . S
C891 C896 1.350 . S
C891 N899 1.427 . S
C892 H883 0.930 . S
C892 C890 1.378 . S
C892 C893 1.367 . S
C893 C892 1.367 . S
C893 C895 1.433 . S
C894 C890 1.350 . S
C894 C891 1.463 . S
C894 N898 1.427 . S
C895 H885 0.929 . S
C895 C893 1.433 . S
C895 N898 1.384 . S
C896 H887 0.929 . S
C896 C888 1.378 . S
C896 C891 1.350 . S
C897 H884 0.929 . S
C897 C889 1.433 . S
C897 N899 1.384 . S
N898 C894 1.427 . S
N898 C895 1.384 . S
N899 C891 1.427 . S
N899 C897 1.384 . S
H900 C906 0.930 . S
H901 C910 0.930 . S
H902 C915 0.929 . S
H903 C913 0.929 . S
H904 C908 0.929 . S
H905 C914 0.929 . S
C906 H900 0.930 . S
C906 C907 1.367 . S
C906 C914 1.378 . S
C907 C906 1.367 . S
C907 C915 1.433 . S
C908 H904 0.929 . S
C908 C910 1.378 . S
C908 C912 1.350 . S
C909 C912 1.463 . S
C909 C914 1.350 . S
C909 N917 1.427 . S
C910 H901 0.930 . S
C910 C908 1.378 . S
C910 C911 1.367 . S
C911 C910 1.367 . S
C911 C913 1.433 . S
C912 C908 1.350 . S
C912 C909 1.463 . S
C912 N916 1.427 . S
C913 H903 0.929 . S
C913 C911 1.433 . S
C913 N916 1.384 . S
C914 H905 0.929 . S
C914 C906 1.378 . S
C914 C909 1.350 . S
C915 H902 0.929 . S
C915 C907 1.433 . S
C915 N917 1.384 . S
N916 C912 1.427 . S
N916 C913 1.384 . S
N917 C909 1.427 . S
N917 C915 1.384 . S
H918 C924 0.930 . S
H919 C928 0.930 . S
H920 C933 0.929 . S
H921 C931 0.929 . S
H922 C926 0.929 . S
H923 C932 0.929 . S
C924 H918 0.930 . S
C924 C925 1.367 . S
C924 C932 1.378 . S
C925 C924 1.367 . S
C925 C933 1.433 . S
C926 H922 0.929 . S
C926 C928 1.378 . S
C926 C930 1.350 . S
C927 C930 1.463 . S
C927 C932 1.350 . S
C927 N935 1.427 . S
C928 H919 0.930 . S
C928 C926 1.378 . S
C928 C929 1.367 . S
C929 C928 1.367 . S
C929 C931 1.433 . S
C930 C926 1.350 . S
C930 C927 1.463 . S
C930 N934 1.427 . S
C931 H921 0.929 . S
C931 C929 1.433 . S
C931 N934 1.384 . S
C932 H923 0.929 . S
C932 C924 1.378 . S
C932 C927 1.350 . S
C933 H920 0.929 . S
C933 C925 1.433 . S
C933 N935 1.384 . S
N934 C930 1.427 . S
N934 C931 1.384 . S
N935 C927 1.427 . S
N935 C933 1.384 . S
H936 C942 0.930 . S
H937 C946 0.930 . S
H938 C951 0.929 . S
H939 C949 0.929 . S
H940 C944 0.929 . S
H941 C950 0.929 . S
C942 H936 0.930 . S
C942 C943 1.367 . S
C942 C950 1.378 . S
C943 C942 1.367 . S
C943 C951 1.433 . S
C944 H940 0.929 . S
C944 C946 1.378 . S
C944 C948 1.350 . S
C945 C948 1.463 . S
C945 C950 1.350 . S
C945 N953 1.427 . S
C946 H937 0.930 . S
C946 C944 1.378 . S
C946 C947 1.367 . S
C947 C946 1.367 . S
C947 C949 1.433 . S
C948 C944 1.350 . S
C948 C945 1.463 . S
C948 N952 1.427 . S
C949 H939 0.929 . S
C949 C947 1.433 . S
C949 N952 1.384 . S
C950 H941 0.929 . S
C950 C942 1.378 . S
C950 C945 1.350 . S
C951 H938 0.929 . S
C951 C943 1.433 . S
C951 N953 1.384 . S
N952 C948 1.427 . S
N952 C949 1.384 . S
N953 C945 1.427 . S
N953 C951 1.384 . S
H954 C960 0.930 . S
H955 C964 0.930 . S
H956 C969 0.929 . S
H957 C967 0.929 . S
H958 C962 0.929 . S
H959 C968 0.929 . S
C960 H954 0.930 . S
C960 C961 1.367 . S
C960 C968 1.378 . S
C961 C960 1.367 . S
C961 C969 1.433 . S
C962 H958 0.929 . S
C962 C964 1.378 . S
C962 C966 1.350 . S
C963 C966 1.463 . S
C963 C968 1.350 . S
C963 N971 1.427 . S
C964 H955 0.930 . S
C964 C962 1.378 . S
C964 C965 1.367 . S
C965 C964 1.367 . S
C965 C967 1.433 . S
C966 C962 1.350 . S
C966 C963 1.463 . S
C966 N970 1.427 . S
C967 H957 0.929 . S
C967 C965 1.433 . S
C967 N970 1.384 . S
C968 H959 0.929 . S
C968 C960 1.378 . S
C968 C963 1.350 . S
C969 H956 0.929 . S
C969 C961 1.433 . S
C969 N971 1.384 . S
N970 C966 1.427 . S
N970 C967 1.384 . S
N971 C963 1.427 . S
N971 C969 1.384 . S
H972 C978 0.930 . S
H973 C982 0.930 . S
H974 C987 0.929 . S
H975 C985 0.929 . S
H976 C980 0.929 . S
H977 C986 0.929 . S
C978 H972 0.930 . S
C978 C979 1.367 . S
C978 C986 1.378 . S
C979 C978 1.367 . S
C979 C987 1.433 . S
C980 H976 0.929 . S
C980 C982 1.378 . S
C980 C984 1.350 . S
C981 C984 1.463 . S
C981 C986 1.350 . S
C981 N989 1.427 . S
C982 H973 0.930 . S
C982 C980 1.378 . S
C982 C983 1.367 . S
C983 C982 1.367 . S
C983 C985 1.433 . S
C984 C980 1.350 . S
C984 C981 1.463 . S
C984 N988 1.427 . S
C985 H975 0.929 . S
C985 C983 1.433 . S
C985 N988 1.384 . S
C986 H977 0.929 . S
C986 C978 1.378 . S
C986 C981 1.350 . S
C987 H974 0.929 . S
C987 C979 1.433 . S
C987 N989 1.384 . S
N988 C984 1.427 . S
N988 C985 1.384 . S
N989 C981 1.427 . S
N989 C987 1.384 . S
H990 C996 0.930 . S
H991 C1000 0.930 . S
H992 C1005 0.929 . S
H993 C1003 0.929 . S
H994 C998 0.929 . S
H995 C1004 0.929 . S
C996 H990 0.930 . S
C996 C997 1.367 . S
C996 C1004 1.378 . S
C997 C996 1.367 . S
C997 C1005 1.433 . S
C998 H994 0.929 . S
C998 C1000 1.378 . S
C998 C1002 1.350 . S
C999 C1002 1.463 . S
C999 C1004 1.350 . S
C999 N1007 1.427 . S
C1000 H991 0.930 . S
C1000 C998 1.378 . S
C1000 C1001 1.367 . S
C1001 C1000 1.367 . S
C1001 C1003 1.433 . S
C1002 C998 1.350 . S
C1002 C999 1.463 . S
C1002 N1006 1.427 . S
C1003 H993 0.929 . S
C1003 C1001 1.433 . S
C1003 N1006 1.384 . S
C1004 H995 0.929 . S
C1004 C996 1.378 . S
C1004 C999 1.350 . S
C1005 H992 0.929 . S
C1005 C997 1.433 . S
C1005 N1007 1.384 . S
N1006 C1002 1.427 . S
N1006 C1003 1.384 . S
N1007 C999 1.427 . S
N1007 C1005 1.384 . S
H1008 C1014 0.930 . S
H1009 C1018 0.930 . S
H1010 C1023 0.929 . S
H1011 C1021 0.929 . S
H1012 C1016 0.929 . S
H1013 C1022 0.929 . S
C1014 H1008 0.930 . S
C1014 C1015 1.367 . S
C1014 C1022 1.378 . S
C1015 C1014 1.367 . S
C1015 C1023 1.433 . S
C1016 H1012 0.929 . S
C1016 C1018 1.378 . S
C1016 C1020 1.350 . S
C1017 C1020 1.463 . S
C1017 C1022 1.350 . S
C1017 N1025 1.427 . S
C1018 H1009 0.930 . S
C1018 C1016 1.378 . S
C1018 C1019 1.367 . S
C1019 C1018 1.367 . S
C1019 C1021 1.433 . S
C1020 C1016 1.350 . S
C1020 C1017 1.463 . S
C1020 N1024 1.427 . S
C1021 H1011 0.929 . S
C1021 C1019 1.433 . S
C1021 N1024 1.384 . S
C1022 H1013 0.929 . S
C1022 C1014 1.378 . S
C1022 C1017 1.350 . S
C1023 H1010 0.929 . S
C1023 C1015 1.433 . S
C1023 N1025 1.384 . S
N1024 C1020 1.427 . S
N1024 C1021 1.384 . S
N1025 C1017 1.427 . S
N1025 C1023 1.384 . S
H1026 C1032 0.930 . S
H1027 C1036 0.930 . S
H1028 C1041 0.929 . S
H1029 C1039 0.929 . S
H1030 C1034 0.929 . S
H1031 C1040 0.929 . S
C1032 H1026 0.930 . S
C1032 C1033 1.367 . S
C1032 C1040 1.378 . S
C1033 C1032 1.367 . S
C1033 C1041 1.433 . S
C1034 H1030 0.929 . S
C1034 C1036 1.378 . S
C1034 C1038 1.350 . S
C1035 C1038 1.463 . S
C1035 C1040 1.350 . S
C1035 N1043 1.427 . S
C1036 H1027 0.930 . S
C1036 C1034 1.378 . S
C1036 C1037 1.367 . S
C1037 C1036 1.367 . S
C1037 C1039 1.433 . S
C1038 C1034 1.350 . S
C1038 C1035 1.463 . S
C1038 N1042 1.427 . S
C1039 H1029 0.929 . S
C1039 C1037 1.433 . S
C1039 N1042 1.384 . S
C1040 H1031 0.929 . S
C1040 C1032 1.378 . S
C1040 C1035 1.350 . S
C1041 H1028 0.929 . S
C1041 C1033 1.433 . S
C1041 N1043 1.384 . S
N1042 C1038 1.427 . S
N1042 C1039 1.384 . S
N1043 C1035 1.427 . S
N1043 C1041 1.384 . S
H1044 C1050 0.930 . S
H1045 C1054 0.930 . S
H1046 C1059 0.929 . S
H1047 C1057 0.929 . S
H1048 C1052 0.929 . S
H1049 C1058 0.929 . S
C1050 H1044 0.930 . S
C1050 C1051 1.367 . S
C1050 C1058 1.378 . S
C1051 C1050 1.367 . S
C1051 C1059 1.433 . S
C1052 H1048 0.929 . S
C1052 C1054 1.378 . S
C1052 C1056 1.350 . S
C1053 C1056 1.463 . S
C1053 C1058 1.350 . S
C1053 N1061 1.427 . S
C1054 H1045 0.930 . S
C1054 C1052 1.378 . S
C1054 C1055 1.367 . S
C1055 C1054 1.367 . S
C1055 C1057 1.433 . S
C1056 C1052 1.350 . S
C1056 C1053 1.463 . S
C1056 N1060 1.427 . S
C1057 H1047 0.929 . S
C1057 C1055 1.433 . S
C1057 N1060 1.384 . S
C1058 H1049 0.929 . S
C1058 C1050 1.378 . S
C1058 C1053 1.350 . S
C1059 H1046 0.929 . S
C1059 C1051 1.433 . S
C1059 N1061 1.384 . S
N1060 C1056 1.427 . S
N1060 C1057 1.384 . S
N1061 C1053 1.427 . S
N1061 C1059 1.384 . S
H1062 C1068 0.930 . S
H1063 C1072 0.930 . S
H1064 C1077 0.929 . S
H1065 C1075 0.929 . S
H1066 C1070 0.929 . S
H1067 C1076 0.929 . S
C1068 H1062 0.930 . S
C1068 C1069 1.367 . S
C1068 C1076 1.378 . S
C1069 C1068 1.367 . S
C1069 C1077 1.433 . S
C1070 H1066 0.929 . S
C1070 C1072 1.378 . S
C1070 C1074 1.350 . S
C1071 C1074 1.463 . S
C1071 C1076 1.350 . S
C1071 N1079 1.427 . S
C1072 H1063 0.930 . S
C1072 C1070 1.378 . S
C1072 C1073 1.367 . S
C1073 C1072 1.367 . S
C1073 C1075 1.433 . S
C1074 C1070 1.350 . S
C1074 C1071 1.463 . S
C1074 N1078 1.427 . S
C1075 H1065 0.929 . S
C1075 C1073 1.433 . S
C1075 N1078 1.384 . S
C1076 H1067 0.929 . S
C1076 C1068 1.378 . S
C1076 C1071 1.350 . S
C1077 H1064 0.929 . S
C1077 C1069 1.433 . S
C1077 N1079 1.384 . S
N1078 C1074 1.427 . S
N1078 C1075 1.384 . S
N1079 C1071 1.427 . S
N1079 C1077 1.384 . S
H1080 C1086 0.930 . S
H1081 C1090 0.930 . S
H1082 C1095 0.929 . S
H1083 C1093 0.929 . S
H1084 C1088 0.929 . S
H1085 C1094 0.929 . S
C1086 H1080 0.930 . S
C1086 C1087 1.367 . S
C1086 C1094 1.378 . S
C1087 C1086 1.367 . S
C1087 C1095 1.433 . S
C1088 H1084 0.929 . S
C1088 C1090 1.378 . S
C1088 C1092 1.350 . S
C1089 C1092 1.463 . S
C1089 C1094 1.350 . S
C1089 N1097 1.427 . S
C1090 H1081 0.930 . S
C1090 C1088 1.378 . S
C1090 C1091 1.367 . S
C1091 C1090 1.367 . S
C1091 C1093 1.433 . S
C1092 C1088 1.350 . S
C1092 C1089 1.463 . S
C1092 N1096 1.427 . S
C1093 H1083 0.929 . S
C1093 C1091 1.433 . S
C1093 N1096 1.384 . S
C1094 H1085 0.929 . S
C1094 C1086 1.378 . S
C1094 C1089 1.350 . S
C1095 H1082 0.929 . S
C1095 C1087 1.433 . S
C1095 N1097 1.384 . S
N1096 C1092 1.427 . S
N1096 C1093 1.384 . S
N1097 C1089 1.427 . S
N1097 C1095 1.384 . S
H1098 C1104 0.930 . S
H1099 C1108 0.930 . S
H1100 C1113 0.929 . S
H1101 C1111 0.929 . S
H1102 C1106 0.929 . S
H1103 C1112 0.929 . S
C1104 H1098 0.930 . S
C1104 C1105 1.367 . S
C1104 C1112 1.378 . S
C1105 C1104 1.367 . S
C1105 C1113 1.433 . S
C1106 H1102 0.929 . S
C1106 C1108 1.378 . S
C1106 C1110 1.350 . S
C1107 C1110 1.463 . S
C1107 C1112 1.350 . S
C1107 N1115 1.427 . S
C1108 H1099 0.930 . S
C1108 C1106 1.378 . S
C1108 C1109 1.367 . S
C1109 C1108 1.367 . S
C1109 C1111 1.433 . S
C1110 C1106 1.350 . S
C1110 C1107 1.463 . S
C1110 N1114 1.427 . S
C1111 H1101 0.929 . S
C1111 C1109 1.433 . S
C1111 N1114 1.384 . S
C1112 H1103 0.929 . S
C1112 C1104 1.378 . S
C1112 C1107 1.350 . S
C1113 H1100 0.929 . S
C1113 C1105 1.433 . S
C1113 N1115 1.384 . S
N1114 C1110 1.427 . S
N1114 C1111 1.384 . S
N1115 C1107 1.427 . S
N1115 C1113 1.384 . S
H1116 C1122 0.930 . S
H1117 C1126 0.930 . S
H1118 C1131 0.929 . S
H1119 C1129 0.929 . S
H1120 C1124 0.929 . S
H1121 C1130 0.929 . S
C1122 H1116 0.930 . S
C1122 C1123 1.367 . S
C1122 C1130 1.378 . S
C1123 C1122 1.367 . S
C1123 C1131 1.433 . S
C1124 H1120 0.929 . S
C1124 C1126 1.378 . S
C1124 C1128 1.350 . S
C1125 C1128 1.463 . S
C1125 C1130 1.350 . S
C1125 N1133 1.427 . S
C1126 H1117 0.930 . S
C1126 C1124 1.378 . S
C1126 C1127 1.367 . S
C1127 C1126 1.367 . S
C1127 C1129 1.433 . S
C1128 C1124 1.350 . S
C1128 C1125 1.463 . S
C1128 N1132 1.427 . S
C1129 H1119 0.929 . S
C1129 C1127 1.433 . S
C1129 N1132 1.384 . S
C1130 H1121 0.929 . S
C1130 C1122 1.378 . S
C1130 C1125 1.350 . S
C1131 H1118 0.929 . S
C1131 C1123 1.433 . S
C1131 N1133 1.384 . S
N1132 C1128 1.427 . S
N1132 C1129 1.384 . S
N1133 C1125 1.427 . S
N1133 C1131 1.384 . S
H1134 C1140 0.930 . S
H1135 C1144 0.930 . S
H1136 C1149 0.929 . S
H1137 C1147 0.929 . S
H1138 C1142 0.929 . S
H1139 C1148 0.929 . S
C1140 H1134 0.930 . S
C1140 C1141 1.367 . S
C1140 C1148 1.378 . S
C1141 C1140 1.367 . S
C1141 C1149 1.433 . S
C1142 H1138 0.929 . S
C1142 C1144 1.378 . S
C1142 C1146 1.350 . S
C1143 C1146 1.463 . S
C1143 C1148 1.350 . S
C1143 N1151 1.427 . S
C1144 H1135 0.930 . S
C1144 C1142 1.378 . S
C1144 C1145 1.367 . S
C1145 C1144 1.367 . S
C1145 C1147 1.433 . S
C1146 C1142 1.350 . S
C1146 C1143 1.463 . S
C1146 N1150 1.427 . S
C1147 H1137 0.929 . S
C1147 C1145 1.433 . S
C1147 N1150 1.384 . S
C1148 H1139 0.929 . S
C1148 C1140 1.378 . S
C1148 C1143 1.350 . S
C1149 H1136 0.929 . S
C1149 C1141 1.433 . S
C1149 N1151 1.384 . S
N1150 C1146 1.427 . S
N1150 C1147 1.384 . S
N1151 C1143 1.427 . S
N1151 C1149 1.384 . S
H1152 C1158 0.930 . S
H1153 C1162 0.930 . S
H1154 C1167 0.929 . S
H1155 C1165 0.929 . S
H1156 C1160 0.929 . S
H1157 C1166 0.929 . S
C1158 H1152 0.930 . S
C1158 C1159 1.367 . S
C1158 C1166 1.378 . S
C1159 C1158 1.367 . S
C1159 C1167 1.433 . S
C1160 H1156 0.929 . S
C1160 C1162 1.378 . S
C1160 C1164 1.350 . S
C1161 C1164 1.463 . S
C1161 C1166 1.350 . S
C1161 N1169 1.427 . S
C1162 H1153 0.930 . S
C1162 C1160 1.378 . S
C1162 C1163 1.367 . S
C1163 C1162 1.367 . S
C1163 C1165 1.433 . S
C1164 C1160 1.350 . S
C1164 C1161 1.463 . S
C1164 N1168 1.427 . S
C1165 H1155 0.929 . S
C1165 C1163 1.433 . S
C1165 N1168 1.384 . S
C1166 H1157 0.929 . S
C1166 C1158 1.378 . S
C1166 C1161 1.350 . S
C1167 H1154 0.929 . S
C1167 C1159 1.433 . S
C1167 N1169 1.384 . S
N1168 C1164 1.427 . S
N1168 C1165 1.384 . S
N1169 C1161 1.427 . S
N1169 C1167 1.384 . S
H1170 C1176 0.930 . S
H1171 C1180 0.930 . S
H1172 C1185 0.929 . S
H1173 C1183 0.929 . S
H1174 C1178 0.929 . S
H1175 C1184 0.929 . S
C1176 H1170 0.930 . S
C1176 C1177 1.367 . S
C1176 C1184 1.378 . S
C1177 C1176 1.367 . S
C1177 C1185 1.433 . S
C1178 H1174 0.929 . S
C1178 C1180 1.378 . S
C1178 C1182 1.350 . S
C1179 C1182 1.463 . S
C1179 C1184 1.350 . S
C1179 N1187 1.427 . S
C1180 H1171 0.930 . S
C1180 C1178 1.378 . S
C1180 C1181 1.367 . S
C1181 C1180 1.367 . S
C1181 C1183 1.433 . S
C1182 C1178 1.350 . S
C1182 C1179 1.463 . S
C1182 N1186 1.427 . S
C1183 H1173 0.929 . S
C1183 C1181 1.433 . S
C1183 N1186 1.384 . S
C1184 H1175 0.929 . S
C1184 C1176 1.378 . S
C1184 C1179 1.350 . S
C1185 H1172 0.929 . S
C1185 C1177 1.433 . S
C1185 N1187 1.384 . S
N1186 C1182 1.427 . S
N1186 C1183 1.384 . S
N1187 C1179 1.427 . S
N1187 C1185 1.384 . S
H1188 C1194 0.930 . S
H1189 C1198 0.930 . S
H1190 C1203 0.929 . S
H1191 C1201 0.929 . S
H1192 C1196 0.929 . S
H1193 C1202 0.929 . S
C1194 H1188 0.930 . S
C1194 C1195 1.367 . S
C1194 C1202 1.378 . S
C1195 C1194 1.367 . S
C1195 C1203 1.433 . S
C1196 H1192 0.929 . S
C1196 C1198 1.378 . S
C1196 C1200 1.350 . S
C1197 C1200 1.463 . S
C1197 C1202 1.350 . S
C1197 N1205 1.427 . S
C1198 H1189 0.930 . S
C1198 C1196 1.378 . S
C1198 C1199 1.367 . S
C1199 C1198 1.367 . S
C1199 C1201 1.433 . S
C1200 C1196 1.350 . S
C1200 C1197 1.463 . S
C1200 N1204 1.427 . S
C1201 H1191 0.929 . S
C1201 C1199 1.433 . S
C1201 N1204 1.384 . S
C1202 H1193 0.929 . S
C1202 C1194 1.378 . S
C1202 C1197 1.350 . S
C1203 H1190 0.929 . S
C1203 C1195 1.433 . S
C1203 N1205 1.384 . S
N1204 C1200 1.427 . S
N1204 C1201 1.384 . S
N1205 C1197 1.427 . S
N1205 C1203 1.384 . S
H1206 C1212 0.930 . S
H1207 C1216 0.930 . S
H1208 C1221 0.929 . S
H1209 C1219 0.929 . S
H1210 C1214 0.929 . S
H1211 C1220 0.929 . S
C1212 H1206 0.930 . S
C1212 C1213 1.367 . S
C1212 C1220 1.378 . S
C1213 C1212 1.367 . S
C1213 C1221 1.433 . S
C1214 H1210 0.929 . S
C1214 C1216 1.378 . S
C1214 C1218 1.350 . S
C1215 C1218 1.463 . S
C1215 C1220 1.350 . S
C1215 N1223 1.427 . S
C1216 H1207 0.930 . S
C1216 C1214 1.378 . S
C1216 C1217 1.367 . S
C1217 C1216 1.367 . S
C1217 C1219 1.433 . S
C1218 C1214 1.350 . S
C1218 C1215 1.463 . S
C1218 N1222 1.427 . S
C1219 H1209 0.929 . S
C1219 C1217 1.433 . S
C1219 N1222 1.384 . S
C1220 H1211 0.929 . S
C1220 C1212 1.378 . S
C1220 C1215 1.350 . S
C1221 H1208 0.929 . S
C1221 C1213 1.433 . S
C1221 N1223 1.384 . S
N1222 C1218 1.427 . S
N1222 C1219 1.384 . S
N1223 C1215 1.427 . S
N1223 C1221 1.384 . S
H1224 C1230 0.930 . S
H1225 C1234 0.930 . S
H1226 C1239 0.929 . S
H1227 C1237 0.929 . S
H1228 C1232 0.929 . S
H1229 C1238 0.929 . S
C1230 H1224 0.930 . S
C1230 C1231 1.367 . S
C1230 C1238 1.378 . S
C1231 C1230 1.367 . S
C1231 C1239 1.433 . S
C1232 H1228 0.929 . S
C1232 C1234 1.378 . S
C1232 C1236 1.350 . S
C1233 C1236 1.463 . S
C1233 C1238 1.350 . S
C1233 N1241 1.427 . S
C1234 H1225 0.930 . S
C1234 C1232 1.378 . S
C1234 C1235 1.367 . S
C1235 C1234 1.367 . S
C1235 C1237 1.433 . S
C1236 C1232 1.350 . S
C1236 C1233 1.463 . S
C1236 N1240 1.427 . S
C1237 H1227 0.929 . S
C1237 C1235 1.433 . S
C1237 N1240 1.384 . S
C1238 H1229 0.929 . S
C1238 C1230 1.378 . S
C1238 C1233 1.350 . S
C1239 H1226 0.929 . S
C1239 C1231 1.433 . S
C1239 N1241 1.384 . S
N1240 C1236 1.427 . S
N1240 C1237 1.384 . S
N1241 C1233 1.427 . S
N1241 C1239 1.384 . S
H1242 C1248 0.930 . S
H1243 C1252 0.930 . S
H1244 C1257 0.929 . S
H1245 C1255 0.929 . S
H1246 C1250 0.929 . S
H1247 C1256 0.929 . S
C1248 H1242 0.930 . S
C1248 C1249 1.367 . S
C1248 C1256 1.378 . S
C1249 C1248 1.367 . S
C1249 C1257 1.433 . S
C1250 H1246 0.929 . S
C1250 C1252 1.378 . S
C1250 C1254 1.350 . S
C1251 C1254 1.463 . S
C1251 C1256 1.350 . S
C1251 N1259 1.427 . S
C1252 H1243 0.930 . S
C1252 C1250 1.378 . S
C1252 C1253 1.367 . S
C1253 C1252 1.367 . S
C1253 C1255 1.433 . S
C1254 C1250 1.350 . S
C1254 C1251 1.463 . S
C1254 N1258 1.427 . S
C1255 H1245 0.929 . S
C1255 C1253 1.433 . S
C1255 N1258 1.384 . S
C1256 H1247 0.929 . S
C1256 C1248 1.378 . S
C1256 C1251 1.350 . S
C1257 H1244 0.929 . S
C1257 C1249 1.433 . S
C1257 N1259 1.384 . S
N1258 C1254 1.427 . S
N1258 C1255 1.384 . S
N1259 C1251 1.427 . S
N1259 C1257 1.384 . S
H1260 C1266 0.930 . S
H1261 C1270 0.930 . S
H1262 C1275 0.929 . S
H1263 C1273 0.929 . S
H1264 C1268 0.929 . S
H1265 C1274 0.929 . S
C1266 H1260 0.930 . S
C1266 C1267 1.367 . S
C1266 C1274 1.378 . S
C1267 C1266 1.367 . S
C1267 C1275 1.433 . S
C1268 H1264 0.929 . S
C1268 C1270 1.378 . S
C1268 C1272 1.350 . S
C1269 C1272 1.463 . S
C1269 C1274 1.350 . S
C1269 N1277 1.427 . S
C1270 H1261 0.930 . S
C1270 C1268 1.378 . S
C1270 C1271 1.367 . S
C1271 C1270 1.367 . S
C1271 C1273 1.433 . S
C1272 C1268 1.350 . S
C1272 C1269 1.463 . S
C1272 N1276 1.427 . S
C1273 H1263 0.929 . S
C1273 C1271 1.433 . S
C1273 N1276 1.384 . S
C1274 H1265 0.929 . S
C1274 C1266 1.378 . S
C1274 C1269 1.350 . S
C1275 H1262 0.929 . S
C1275 C1267 1.433 . S
C1275 N1277 1.384 . S
N1276 C1272 1.427 . S
N1276 C1273 1.384 . S
N1277 C1269 1.427 . S
N1277 C1275 1.384 . S
H1278 C1284 0.930 . S
H1279 C1288 0.930 . S
H1280 C1293 0.929 . S
H1281 C1291 0.929 . S
H1282 C1286 0.929 . S
H1283 C1292 0.929 . S
C1284 H1278 0.930 . S
C1284 C1285 1.367 . S
C1284 C1292 1.378 . S
C1285 C1284 1.367 . S
C1285 C1293 1.433 . S
C1286 H1282 0.929 . S
C1286 C1288 1.378 . S
C1286 C1290 1.350 . S
C1287 C1290 1.463 . S
C1287 C1292 1.350 . S
C1287 N1295 1.427 . S
C1288 H1279 0.930 . S
C1288 C1286 1.378 . S
C1288 C1289 1.367 . S
C1289 C1288 1.367 . S
C1289 C1291 1.433 . S
C1290 C1286 1.350 . S
C1290 C1287 1.463 . S
C1290 N1294 1.427 . S
C1291 H1281 0.929 . S
C1291 C1289 1.433 . S
C1291 N1294 1.384 . S
C1292 H1283 0.929 . S
C1292 C1284 1.378 . S
C1292 C1287 1.350 . S
C1293 H1280 0.929 . S
C1293 C1285 1.433 . S
C1293 N1295 1.384 . S
N1294 C1290 1.427 . S
N1294 C1291 1.384 . S
N1295 C1287 1.427 . S
N1295 C1293 1.384 . S
H1296 C1302 0.930 . S
H1297 C1306 0.930 . S
H1298 C1311 0.929 . S
H1299 C1309 0.929 . S
H1300 C1304 0.929 . S
H1301 C1310 0.929 . S
C1302 H1296 0.930 . S
C1302 C1303 1.367 . S
C1302 C1310 1.378 . S
C1303 C1302 1.367 . S
C1303 C1311 1.433 . S
C1304 H1300 0.929 . S
C1304 C1306 1.378 . S
C1304 C1308 1.350 . S
C1305 C1308 1.463 . S
C1305 C1310 1.350 . S
C1305 N1313 1.427 . S
C1306 H1297 0.930 . S
C1306 C1304 1.378 . S
C1306 C1307 1.367 . S
C1307 C1306 1.367 . S
C1307 C1309 1.433 . S
C1308 C1304 1.350 . S
C1308 C1305 1.463 . S
C1308 N1312 1.427 . S
C1309 H1299 0.929 . S
C1309 C1307 1.433 . S
C1309 N1312 1.384 . S
C1310 H1301 0.929 . S
C1310 C1302 1.378 . S
C1310 C1305 1.350 . S
C1311 H1298 0.929 . S
C1311 C1303 1.433 . S
C1311 N1313 1.384 . S
N1312 C1308 1.427 . S
N1312 C1309 1.384 . S
N1313 C1305 1.427 . S
N1313 C1311 1.384 . S
H1314 C1320 0.930 . S
H1315 C1324 0.930 . S
H1316 C1329 0.929 . S
H1317 C1327 0.929 . S
H1318 C1322 0.929 . S
H1319 C1328 0.929 . S
C1320 H1314 0.930 . S
C1320 C1321 1.367 . S
C1320 C1328 1.378 . S
C1321 C1320 1.367 . S
C1321 C1329 1.433 . S
C1322 H1318 0.929 . S
C1322 C1324 1.378 . S
C1322 C1326 1.350 . S
C1323 C1326 1.463 . S
C1323 C1328 1.350 . S
C1323 N1331 1.427 . S
C1324 H1315 0.930 . S
C1324 C1322 1.378 . S
C1324 C1325 1.367 . S
C1325 C1324 1.367 . S
C1325 C1327 1.433 . S
C1326 C1322 1.350 . S
C1326 C1323 1.463 . S
C1326 N1330 1.427 . S
C1327 H1317 0.929 . S
C1327 C1325 1.433 . S
C1327 N1330 1.384 . S
C1328 H1319 0.929 . S
C1328 C1320 1.378 . S
C1328 C1323 1.350 . S
C1329 H1316 0.929 . S
C1329 C1321 1.433 . S
C1329 N1331 1.384 . S
N1330 C1326 1.427 . S
N1330 C1327 1.384 . S
N1331 C1323 1.427 . S
N1331 C1329 1.384 . S
H1332 C1338 0.930 . S
H1333 C1342 0.930 . S
H1334 C1347 0.929 . S
H1335 C1345 0.929 . S
H1336 C1340 0.929 . S
H1337 C1346 0.929 . S
C1338 H1332 0.930 . S
C1338 C1339 1.367 . S
C1338 C1346 1.378 . S
C1339 C1338 1.367 . S
C1339 C1347 1.433 1_655 S
C1340 H1336 0.929 . S
C1340 C1342 1.378 . S
C1340 C1344 1.350 1_455 S
C1341 C1344 1.463 . S
C1341 C1346 1.350 . S
C1341 N1349 1.427 1_655 S
C1342 H1333 0.930 . S
C1342 C1340 1.378 . S
C1342 C1343 1.367 1_455 S
C1343 C1342 1.367 1_655 S
C1343 C1345 1.433 . S
C1344 C1340 1.350 1_655 S
C1344 C1341 1.463 . S
C1344 N1348 1.427 . S
C1345 H1335 0.929 . S
C1345 C1343 1.433 . S
C1345 N1348 1.384 . S
C1346 H1337 0.929 . S
C1346 C1338 1.378 . S
C1346 C1341 1.350 . S
C1347 H1334 0.929 . S
C1347 C1339 1.433 1_455 S
C1347 N1349 1.384 . S
N1348 C1344 1.427 . S
N1348 C1345 1.384 . S
N1349 C1341 1.427 1_455 S
N1349 C1347 1.384 . S
H1350 C1356 0.930 . S
H1351 C1360 0.930 . S
H1352 C1365 0.929 . S
H1353 C1363 0.929 . S
H1354 C1358 0.929 . S
H1355 C1364 0.929 . S
C1356 H1350 0.930 . S
C1356 C1357 1.367 . S
C1356 C1364 1.378 . S
C1357 C1356 1.367 . S
C1357 C1365 1.433 . S
C1358 H1354 0.929 . S
C1358 C1360 1.378 . S
C1358 C1362 1.350 . S
C1359 C1362 1.463 . S
C1359 C1364 1.350 . S
C1359 N1367 1.427 . S
C1360 H1351 0.930 . S
C1360 C1358 1.378 . S
C1360 C1361 1.367 . S
C1361 C1360 1.367 . S
C1361 C1363 1.433 . S
C1362 C1358 1.350 . S
C1362 C1359 1.463 . S
C1362 N1366 1.427 . S
C1363 H1353 0.929 . S
C1363 C1361 1.433 . S
C1363 N1366 1.384 . S
C1364 H1355 0.929 . S
C1364 C1356 1.378 . S
C1364 C1359 1.350 . S
C1365 H1352 0.929 . S
C1365 C1357 1.433 . S
C1365 N1367 1.384 . S
N1366 C1362 1.427 . S
N1366 C1363 1.384 . S
N1367 C1359 1.427 . S
N1367 C1365 1.384 . S
H1368 C1374 0.930 . S
H1369 C1378 0.930 1_655 S
H1370 C1383 0.929 1_655 S
H1371 C1381 0.929 . S
H1372 C1376 0.929 1_655 S
H1373 C1382 0.929 . S
C1374 H1368 0.930 . S
C1374 C1375 1.367 . S
C1374 C1382 1.378 . S
C1375 C1374 1.367 . S
C1375 C1383 1.433 . S
C1376 H1372 0.929 1_455 S
C1376 C1378 1.378 . S
C1376 C1380 1.350 . S
C1377 C1380 1.463 . S
C1377 C1382 1.350 . S
C1377 N1385 1.427 . S
C1378 H1369 0.930 1_455 S
C1378 C1376 1.378 . S
C1378 C1379 1.367 . S
C1379 C1378 1.367 . S
C1379 C1381 1.433 . S
C1380 C1376 1.350 . S
C1380 C1377 1.463 . S
C1380 N1384 1.427 . S
C1381 H1371 0.929 . S
C1381 C1379 1.433 . S
C1381 N1384 1.384 . S
C1382 H1373 0.929 . S
C1382 C1374 1.378 . S
C1382 C1377 1.350 . S
C1383 H1370 0.929 1_455 S
C1383 C1375 1.433 . S
C1383 N1385 1.384 . S
N1384 C1380 1.427 . S
N1384 C1381 1.384 . S
N1385 C1377 1.427 . S
N1385 C1383 1.384 . S
H1386 C1392 0.930 . S
H1387 C1396 0.930 . S
H1388 C1401 0.929 . S
H1389 C1399 0.929 . S
H1390 C1394 0.929 . S
H1391 C1400 0.929 . S
C1392 H1386 0.930 . S
C1392 C1393 1.367 . S
C1392 C1400 1.378 . S
C1393 C1392 1.367 . S
C1393 C1401 1.433 . S
C1394 H1390 0.929 . S
C1394 C1396 1.378 . S
C1394 C1398 1.350 . S
C1395 C1398 1.463 . S
C1395 C1400 1.350 . S
C1395 N1403 1.427 . S
C1396 H1387 0.930 . S
C1396 C1394 1.378 . S
C1396 C1397 1.367 . S
C1397 C1396 1.367 . S
C1397 C1399 1.433 . S
C1398 C1394 1.350 . S
C1398 C1395 1.463 . S
C1398 N1402 1.427 . S
C1399 H1389 0.929 . S
C1399 C1397 1.433 . S
C1399 N1402 1.384 . S
C1400 H1391 0.929 . S
C1400 C1392 1.378 . S
C1400 C1395 1.350 . S
C1401 H1388 0.929 . S
C1401 C1393 1.433 . S
C1401 N1403 1.384 . S
N1402 C1398 1.427 . S
N1402 C1399 1.384 . S
N1403 C1395 1.427 . S
N1403 C1401 1.384 . S
H1404 C1410 0.930 . S
H1405 C1414 0.930 . S
H1406 C1419 0.929 . S
H1407 C1417 0.929 . S
H1408 C1412 0.929 . S
H1409 C1418 0.929 . S
C1410 H1404 0.930 . S
C1410 C1411 1.367 . S
C1410 C1418 1.378 . S
C1411 C1410 1.367 . S
C1411 C1419 1.433 1_545 S
C1412 H1408 0.929 . S
C1412 C1414 1.378 . S
C1412 C1416 1.350 1_565 S
C1413 C1416 1.463 . S
C1413 C1418 1.350 . S
C1413 N1421 1.427 1_545 S
C1414 H1405 0.930 . S
C1414 C1412 1.378 . S
C1414 C1415 1.383 . S
C1415 C1414 1.383 . S
C1415 C1417 1.424 1_565 S
C1416 C1412 1.350 1_545 S
C1416 C1413 1.463 . S
C1416 N1420 1.427 . S
C1417 H1407 0.929 . S
C1417 C1415 1.424 1_545 S
C1417 N1420 1.384 . S
C1418 H1409 0.929 . S
C1418 C1410 1.378 . S
C1418 C1413 1.350 . S
C1419 H1406 0.929 . S
C1419 C1411 1.433 1_565 S
C1419 N1421 1.384 . S
N1420 C1416 1.427 . S
N1420 C1417 1.384 . S
N1421 C1413 1.427 1_565 S
N1421 C1419 1.384 . S
H1422 C1428 0.930 . S
H1423 C1432 0.930 . S
H1424 C1437 0.929 . S
H1425 C1435 0.929 . S
H1426 C1430 0.929 . S
H1427 C1436 0.929 . S
C1428 H1422 0.930 . S
C1428 C1429 1.367 . S
C1428 C1436 1.378 . S
C1429 C1428 1.367 . S
C1429 C1437 1.433 1_545 S
C1430 H1426 0.929 . S
C1430 C1432 1.378 . S
C1430 C1434 1.350 1_565 S
C1431 C1434 1.463 . S
C1431 C1436 1.350 . S
C1431 N1439 1.427 1_545 S
C1432 H1423 0.930 . S
C1432 C1430 1.378 . S
C1432 C1433 1.367 . S
C1433 C1432 1.367 . S
C1433 C1435 1.433 1_565 S
C1434 C1430 1.350 1_545 S
C1434 C1431 1.463 . S
C1434 N1438 1.427 . S
C1435 H1425 0.929 . S
C1435 C1433 1.433 1_545 S
C1435 N1438 1.384 . S
C1436 H1427 0.929 . S
C1436 C1428 1.378 . S
C1436 C1431 1.350 . S
C1437 H1424 0.929 . S
C1437 C1429 1.433 1_565 S
C1437 N1439 1.384 . S
N1438 C1434 1.427 . S
N1438 C1435 1.384 . S
N1439 C1431 1.427 1_565 S
N1439 C1437 1.384 . S
H1440 C1446 0.930 . S
H1441 C1450 0.930 . S
H1442 C1455 0.929 . S
H1443 C1453 0.929 . S
H1444 C1448 0.929 . S
H1445 C1454 0.929 . S
C1446 H1440 0.930 . S
C1446 C1447 1.367 . S
C1446 C1454 1.378 . S
C1447 C1446 1.367 . S
C1447 C1455 1.433 . S
C1448 H1444 0.929 . S
C1448 C1450 1.378 . S
C1448 C1452 1.350 . S
C1449 C1452 1.463 . S
C1449 C1454 1.350 . S
C1449 N1457 1.427 . S
C1450 H1441 0.930 . S
C1450 C1448 1.378 . S
C1450 C1451 1.367 . S
C1451 C1450 1.367 . S
C1451 C1453 1.433 . S
C1452 C1448 1.350 . S
C1452 C1449 1.463 . S
C1452 N1456 1.427 . S
C1453 H1443 0.929 . S
C1453 C1451 1.433 . S
C1453 N1456 1.384 . S
C1454 H1445 0.929 . S
C1454 C1446 1.378 . S
C1454 C1449 1.350 . S
C1455 H1442 0.929 . S
C1455 C1447 1.433 . S
C1455 N1457 1.384 . S
N1456 C1452 1.427 . S
N1456 C1453 1.384 . S
N1457 C1449 1.427 . S
N1457 C1455 1.384 . S
H1458 C1464 0.930 . S
H1459 C1468 0.930 . S
H1460 C1473 0.929 . S
H1461 C1471 0.929 . S
H1462 C1466 0.929 . S
H1463 C1472 0.929 . S
C1464 H1458 0.930 . S
C1464 C1465 1.367 . S
C1464 C1472 1.378 . S
C1465 C1464 1.367 . S
C1465 C1473 1.433 . S
C1466 H1462 0.929 . S
C1466 C1468 1.378 . S
C1466 C1470 1.350 . S
C1467 C1470 1.463 . S
C1467 C1472 1.350 . S
C1467 N1475 1.427 . S
C1468 H1459 0.930 . S
C1468 C1466 1.378 . S
C1468 C1469 1.367 . S
C1469 C1468 1.367 . S
C1469 C1471 1.433 . S
C1470 C1466 1.350 . S
C1470 C1467 1.463 . S
C1470 N1474 1.427 . S
C1471 H1461 0.929 . S
C1471 C1469 1.433 . S
C1471 N1474 1.384 . S
C1472 H1463 0.929 . S
C1472 C1464 1.378 . S
C1472 C1467 1.350 . S
C1473 H1460 0.929 . S
C1473 C1465 1.433 . S
C1473 N1475 1.384 . S
N1474 C1470 1.427 . S
N1474 C1471 1.384 . S
N1475 C1467 1.427 . S
N1475 C1473 1.384 . S
H1476 C1482 0.930 . S
H1477 C1486 0.930 . S
H1478 C1491 0.929 . S
H1479 C1489 0.929 . S
H1480 C1484 0.929 . S
H1481 C1490 0.929 . S
C1482 H1476 0.930 . S
C1482 C1483 1.367 . S
C1482 C1490 1.378 . S
C1483 C1482 1.367 . S
C1483 C1491 1.433 1_655 S
C1484 H1480 0.929 . S
C1484 C1486 1.378 . S
C1484 C1488 1.359 . S
C1485 C1488 1.472 1_655 S
C1485 C1490 1.350 . S
C1485 N1493 1.427 1_655 S
C1486 H1477 0.930 . S
C1486 C1484 1.378 . S
C1486 C1487 1.375 . S
C1487 C1486 1.375 . S
C1487 C1489 1.429 1_455 S
C1488 C1484 1.359 . S
C1488 C1485 1.472 1_455 S
C1488 N1492 1.409 1_455 S
C1489 H1479 0.929 . S
C1489 C1487 1.429 1_655 S
C1489 N1492 1.384 . S
C1490 H1481 0.929 . S
C1490 C1482 1.378 . S
C1490 C1485 1.350 . S
C1491 H1478 0.929 . S
C1491 C1483 1.433 1_455 S
C1491 N1493 1.384 . S
N1492 C1488 1.409 1_655 S
N1492 C1489 1.384 . S
N1493 C1485 1.427 1_455 S
N1493 C1491 1.384 . S
H1494 C1500 0.930 . S
H1495 C1504 0.930 . S
H1496 C1509 0.929 . S
H1497 C1507 0.929 . S
H1498 C1502 0.929 . S
H1499 C1508 0.929 . S
C1500 H1494 0.930 . S
C1500 C1501 1.367 . S
C1500 C1508 1.378 . S
C1501 C1500 1.367 . S
C1501 C1509 1.433 . S
C1502 H1498 0.929 . S
C1502 C1504 1.378 . S
C1502 C1506 1.350 . S
C1503 C1506 1.463 . S
C1503 C1508 1.350 . S
C1503 N1511 1.427 . S
C1504 H1495 0.930 . S
C1504 C1502 1.378 . S
C1504 C1505 1.367 . S
C1505 C1504 1.367 . S
C1505 C1507 1.433 . S
C1506 C1502 1.350 . S
C1506 C1503 1.463 . S
C1506 N1510 1.427 . S
C1507 H1497 0.929 . S
C1507 C1505 1.433 . S
C1507 N1510 1.384 . S
C1508 H1499 0.929 . S
C1508 C1500 1.378 . S
C1508 C1503 1.350 . S
C1509 H1496 0.929 . S
C1509 C1501 1.433 . S
C1509 N1511 1.384 . S
N1510 C1506 1.427 . S
N1510 C1507 1.384 . S
N1511 C1503 1.427 . S
N1511 C1509 1.384 . S
H1512 C1518 0.930 1_565 S
H1513 C1522 0.930 . S
H1514 C1527 0.929 . S
H1515 C1525 0.929 1_565 S
H1516 C1520 0.929 . S
H1517 C1526 0.929 1_565 S
C1518 H1512 0.930 1_545 S
C1518 C1519 1.367 . S
C1518 C1526 1.378 . S
C1519 C1518 1.367 . S
C1519 C1527 1.433 . S
C1520 H1516 0.929 . S
C1520 C1522 1.378 . S
C1520 C1524 1.350 . S
C1521 C1524 1.463 . S
C1521 C1526 1.350 . S
C1521 N1529 1.427 . S
C1522 H1513 0.930 . S
C1522 C1520 1.378 . S
C1522 C1523 1.367 . S
C1523 C1522 1.367 . S
C1523 C1525 1.433 . S
C1524 C1520 1.350 . S
C1524 C1521 1.463 . S
C1524 N1528 1.427 . S
C1525 H1515 0.929 1_545 S
C1525 C1523 1.433 . S
C1525 N1528 1.384 . S
C1526 H1517 0.929 1_545 S
C1526 C1518 1.378 . S
C1526 C1521 1.350 . S
C1527 H1514 0.929 . S
C1527 C1519 1.433 . S
C1527 N1529 1.384 . S
N1528 C1524 1.427 . S
N1528 C1525 1.384 . S
N1529 C1521 1.427 . S
N1529 C1527 1.384 . S
H1530 C1536 0.930 . S
H1531 C1540 0.930 . S
H1532 C1545 0.929 . S
H1533 C1543 0.929 . S
H1534 C1538 0.929 . S
H1535 C1544 0.929 . S
C1536 H1530 0.930 . S
C1536 C1537 1.367 . S
C1536 C1544 1.378 . S
C1537 C1536 1.367 . S
C1537 C1545 1.433 . S
C1538 H1534 0.929 . S
C1538 C1540 1.378 . S
C1538 C1542 1.350 . S
C1539 C1542 1.463 . S
C1539 C1544 1.350 . S
C1539 N1547 1.427 . S
C1540 H1531 0.930 . S
C1540 C1538 1.378 . S
C1540 C1541 1.367 . S
C1541 C1540 1.367 . S
C1541 C1543 1.433 . S
C1542 C1538 1.350 . S
C1542 C1539 1.463 . S
C1542 N1546 1.427 . S
C1543 H1533 0.929 . S
C1543 C1541 1.433 . S
C1543 N1546 1.384 . S
C1544 H1535 0.929 . S
C1544 C1536 1.378 . S
C1544 C1539 1.350 . S
C1545 H1532 0.929 . S
C1545 C1537 1.433 . S
C1545 N1547 1.384 . S
N1546 C1542 1.427 . S
N1546 C1543 1.384 . S
N1547 C1539 1.427 . S
N1547 C1545 1.384 . S
H1548 C1554 0.930 . S
H1549 C1558 0.930 . S
H1550 C1563 0.929 . S
H1551 C1561 0.929 . S
H1552 C1556 0.929 . S
H1553 C1562 0.929 . S
C1554 H1548 0.930 . S
C1554 C1555 1.367 . S
C1554 C1562 1.378 . S
C1555 C1554 1.367 . S
C1555 C1563 1.433 . S
C1556 H1552 0.929 . S
C1556 C1558 1.378 . S
C1556 C1560 1.350 . S
C1557 C1560 1.463 . S
C1557 C1562 1.350 . S
C1557 N1565 1.427 . S
C1558 H1549 0.930 . S
C1558 C1556 1.378 . S
C1558 C1559 1.367 . S
C1559 C1558 1.367 . S
C1559 C1561 1.433 . S
C1560 C1556 1.350 . S
C1560 C1557 1.463 . S
C1560 N1564 1.427 . S
C1561 H1551 0.929 . S
C1561 C1559 1.433 . S
C1561 N1564 1.384 . S
C1562 H1553 0.929 . S
C1562 C1554 1.378 . S
C1562 C1557 1.350 . S
C1563 H1550 0.929 . S
C1563 C1555 1.433 . S
C1563 N1565 1.384 . S
N1564 C1560 1.427 . S
N1564 C1561 1.384 . S
N1565 C1557 1.427 . S
N1565 C1563 1.384 . S
H1566 C1572 0.930 . S
H1567 C1576 0.930 . S
H1568 C1581 0.929 . S
H1569 C1579 0.929 . S
H1570 C1574 0.929 . S
H1571 C1580 0.929 . S
C1572 H1566 0.930 . S
C1572 C1573 1.367 . S
C1572 C1580 1.378 . S
C1573 C1572 1.367 . S
C1573 C1581 1.433 . S
C1574 H1570 0.929 . S
C1574 C1576 1.378 . S
C1574 C1578 1.350 . S
C1575 C1578 1.463 . S
C1575 C1580 1.350 . S
C1575 N1583 1.427 . S
C1576 H1567 0.930 . S
C1576 C1574 1.378 . S
C1576 C1577 1.367 . S
C1577 C1576 1.367 . S
C1577 C1579 1.433 . S
C1578 C1574 1.350 . S
C1578 C1575 1.463 . S
C1578 N1582 1.427 . S
C1579 H1569 0.929 . S
C1579 C1577 1.433 . S
C1579 N1582 1.384 . S
C1580 H1571 0.929 . S
C1580 C1572 1.378 . S
C1580 C1575 1.350 . S
C1581 H1568 0.929 . S
C1581 C1573 1.433 . S
C1581 N1583 1.384 . S
N1582 C1578 1.427 . S
N1582 C1579 1.384 . S
N1583 C1575 1.427 . S
N1583 C1581 1.384 . S
H1584 C1590 0.930 . S
H1585 C1594 0.930 . S
H1586 C1599 0.929 . S
H1587 C1597 0.929 . S
H1588 C1592 0.929 . S
H1589 C1598 0.929 . S
C1590 H1584 0.930 . S
C1590 C1591 1.367 . S
C1590 C1598 1.378 . S
C1591 C1590 1.367 . S
C1591 C1599 1.433 . S
C1592 H1588 0.929 . S
C1592 C1594 1.378 . S
C1592 C1596 1.350 . S
C1593 C1596 1.463 . S
C1593 C1598 1.350 . S
C1593 N1601 1.427 . S
C1594 H1585 0.930 . S
C1594 C1592 1.378 . S
C1594 C1595 1.367 . S
C1595 C1594 1.367 . S
C1595 C1597 1.433 . S
C1596 C1592 1.350 . S
C1596 C1593 1.463 . S
C1596 N1600 1.427 . S
C1597 H1587 0.929 . S
C1597 C1595 1.433 . S
C1597 N1600 1.384 . S
C1598 H1589 0.929 . S
C1598 C1590 1.378 . S
C1598 C1593 1.350 . S
C1599 H1586 0.929 . S
C1599 C1591 1.433 . S
C1599 N1601 1.384 . S
N1600 C1596 1.427 . S
N1600 C1597 1.384 . S
N1601 C1593 1.427 . S
N1601 C1599 1.384 . S
H1602 C1608 0.930 . S
H1603 C1612 0.930 . S
H1604 C1617 0.929 . S
H1605 C1615 0.929 . S
H1606 C1610 0.929 . S
H1607 C1616 0.929 . S
C1608 H1602 0.930 . S
C1608 C1609 1.367 . S
C1608 C1616 1.378 . S
C1609 C1608 1.367 . S
C1609 C1617 1.433 . S
C1610 H1606 0.929 . S
C1610 C1612 1.378 . S
C1610 C1614 1.350 . S
C1611 C1614 1.463 . S
C1611 C1616 1.350 . S
C1611 N1619 1.427 . S
C1612 H1603 0.930 . S
C1612 C1610 1.378 . S
C1612 C1613 1.367 . S
C1613 C1612 1.367 . S
C1613 C1615 1.433 . S
C1614 C1610 1.350 . S
C1614 C1611 1.463 . S
C1614 N1618 1.427 . S
C1615 H1605 0.929 . S
C1615 C1613 1.433 . S
C1615 N1618 1.384 . S
C1616 H1607 0.929 . S
C1616 C1608 1.378 . S
C1616 C1611 1.350 . S
C1617 H1604 0.929 . S
C1617 C1609 1.433 . S
C1617 N1619 1.384 . S
N1618 C1614 1.427 . S
N1618 C1615 1.384 . S
N1619 C1611 1.427 . S
N1619 C1617 1.384 . S
H1620 C1626 0.930 . S
H1621 C1630 0.930 . S
H1622 C1635 0.929 . S
H1623 C1633 0.929 . S
H1624 C1628 0.929 . S
H1625 C1634 0.929 . S
C1626 H1620 0.930 . S
C1626 C1627 1.367 . S
C1626 C1634 1.378 . S
C1627 C1626 1.367 . S
C1627 C1635 1.433 . S
C1628 H1624 0.929 . S
C1628 C1630 1.378 . S
C1628 C1632 1.350 . S
C1629 C1632 1.463 . S
C1629 C1634 1.350 . S
C1629 N1637 1.427 . S
C1630 H1621 0.930 . S
C1630 C1628 1.378 . S
C1630 C1631 1.367 . S
C1631 C1630 1.367 . S
C1631 C1633 1.433 . S
C1632 C1628 1.350 . S
C1632 C1629 1.463 . S
C1632 N1636 1.427 . S
C1633 H1623 0.929 . S
C1633 C1631 1.433 . S
C1633 N1636 1.384 . S
C1634 H1625 0.929 . S
C1634 C1626 1.378 . S
C1634 C1629 1.350 . S
C1635 H1622 0.929 . S
C1635 C1627 1.433 . S
C1635 N1637 1.384 . S
N1636 C1632 1.427 . S
N1636 C1633 1.384 . S
N1637 C1629 1.427 . S
N1637 C1635 1.384 . S
H1638 C1644 0.930 . S
H1639 C1648 0.930 . S
H1640 C1653 0.929 . S
H1641 C1651 0.929 . S
H1642 C1646 0.929 . S
H1643 C1652 0.929 . S
C1644 H1638 0.930 . S
C1644 C1645 1.367 . S
C1644 C1652 1.378 . S
C1645 C1644 1.367 . S
C1645 C1653 1.433 . S
C1646 H1642 0.929 . S
C1646 C1648 1.378 . S
C1646 C1650 1.350 . S
C1647 C1650 1.463 . S
C1647 C1652 1.350 . S
C1647 N1655 1.427 . S
C1648 H1639 0.930 . S
C1648 C1646 1.378 . S
C1648 C1649 1.367 . S
C1649 C1648 1.367 . S
C1649 C1651 1.433 . S
C1650 C1646 1.350 . S
C1650 C1647 1.463 . S
C1650 N1654 1.427 . S
C1651 H1641 0.929 . S
C1651 C1649 1.433 . S
C1651 N1654 1.384 . S
C1652 H1643 0.929 . S
C1652 C1644 1.378 . S
C1652 C1647 1.350 . S
C1653 H1640 0.929 . S
C1653 C1645 1.433 . S
C1653 N1655 1.384 . S
N1654 C1650 1.427 . S
N1654 C1651 1.384 . S
N1655 C1647 1.427 . S
N1655 C1653 1.384 . S
H1656 C1662 0.930 . S
H1657 C1666 0.930 . S
H1658 C1671 0.929 . S
H1659 C1669 0.929 . S
H1660 C1664 0.929 . S
H1661 C1670 0.929 . S
C1662 H1656 0.930 . S
C1662 C1663 1.367 . S
C1662 C1670 1.378 . S
C1663 C1662 1.367 . S
C1663 C1671 1.433 . S
C1664 H1660 0.929 . S
C1664 C1666 1.378 . S
C1664 C1668 1.350 . S
C1665 C1668 1.463 . S
C1665 C1670 1.350 . S
C1665 N1673 1.427 . S
C1666 H1657 0.930 . S
C1666 C1664 1.378 . S
C1666 C1667 1.367 . S
C1667 C1666 1.367 . S
C1667 C1669 1.433 . S
C1668 C1664 1.350 . S
C1668 C1665 1.463 . S
C1668 N1672 1.427 . S
C1669 H1659 0.929 . S
C1669 C1667 1.433 . S
C1669 N1672 1.384 . S
C1670 H1661 0.929 . S
C1670 C1662 1.378 . S
C1670 C1665 1.350 . S
C1671 H1658 0.929 . S
C1671 C1663 1.433 . S
C1671 N1673 1.384 . S
N1672 C1668 1.427 . S
N1672 C1669 1.384 . S
N1673 C1665 1.427 . S
N1673 C1671 1.384 . S
H1674 C1680 0.930 . S
H1675 C1684 0.930 . S
H1676 C1689 0.929 . S
H1677 C1687 0.929 . S
H1678 C1682 0.929 . S
H1679 C1688 0.929 . S
C1680 H1674 0.930 . S
C1680 C1681 1.367 . S
C1680 C1688 1.378 . S
C1681 C1680 1.367 . S
C1681 C1689 1.433 . S
C1682 H1678 0.929 . S
C1682 C1684 1.378 . S
C1682 C1686 1.350 . S
C1683 C1686 1.463 . S
C1683 C1688 1.350 . S
C1683 N1691 1.427 . S
C1684 H1675 0.930 . S
C1684 C1682 1.378 . S
C1684 C1685 1.367 . S
C1685 C1684 1.367 . S
C1685 C1687 1.433 . S
C1686 C1682 1.350 . S
C1686 C1683 1.463 . S
C1686 N1690 1.427 . S
C1687 H1677 0.929 . S
C1687 C1685 1.433 . S
C1687 N1690 1.384 . S
C1688 H1679 0.929 . S
C1688 C1680 1.378 . S
C1688 C1683 1.350 . S
C1689 H1676 0.929 . S
C1689 C1681 1.433 . S
C1689 N1691 1.384 . S
N1690 C1686 1.427 . S
N1690 C1687 1.384 . S
N1691 C1683 1.427 . S
N1691 C1689 1.384 . S
H1692 C1698 0.930 . S
H1693 C1702 0.930 . S
H1694 C1707 0.929 . S
H1695 C1705 0.929 . S
H1696 C1700 0.929 . S
H1697 C1706 0.929 . S
C1698 H1692 0.930 . S
C1698 C1699 1.367 . S
C1698 C1706 1.378 . S
C1699 C1698 1.367 . S
C1699 C1707 1.433 . S
C1700 H1696 0.929 . S
C1700 C1702 1.378 . S
C1700 C1704 1.350 . S
C1701 C1704 1.463 . S
C1701 C1706 1.350 . S
C1701 N1709 1.427 . S
C1702 H1693 0.930 . S
C1702 C1700 1.378 . S
C1702 C1703 1.367 . S
C1703 C1702 1.367 . S
C1703 C1705 1.433 . S
C1704 C1700 1.350 . S
C1704 C1701 1.463 . S
C1704 N1708 1.427 . S
C1705 H1695 0.929 . S
C1705 C1703 1.433 . S
C1705 N1708 1.384 . S
C1706 H1697 0.929 . S
C1706 C1698 1.378 . S
C1706 C1701 1.350 . S
C1707 H1694 0.929 . S
C1707 C1699 1.433 . S
C1707 N1709 1.384 . S
N1708 C1704 1.427 . S
N1708 C1705 1.384 . S
N1709 C1701 1.427 . S
N1709 C1707 1.384 . S
H1710 C1716 0.930 . S
H1711 C1720 0.930 . S
H1712 C1725 0.929 . S
H1713 C1723 0.929 . S
H1714 C1718 0.929 . S
H1715 C1724 0.929 . S
C1716 H1710 0.930 . S
C1716 C1717 1.367 . S
C1716 C1724 1.378 . S
C1717 C1716 1.367 . S
C1717 C1725 1.433 . S
C1718 H1714 0.929 . S
C1718 C1720 1.378 . S
C1718 C1722 1.350 . S
C1719 C1722 1.463 . S
C1719 C1724 1.350 . S
C1719 N1727 1.427 . S
C1720 H1711 0.930 . S
C1720 C1718 1.378 . S
C1720 C1721 1.367 . S
C1721 C1720 1.367 . S
C1721 C1723 1.433 . S
C1722 C1718 1.350 . S
C1722 C1719 1.463 . S
C1722 N1726 1.427 . S
C1723 H1713 0.929 . S
C1723 C1721 1.433 . S
C1723 N1726 1.384 . S
C1724 H1715 0.929 . S
C1724 C1716 1.378 . S
C1724 C1719 1.350 . S
C1725 H1712 0.929 . S
C1725 C1717 1.433 . S
C1725 N1727 1.384 . S
N1726 C1722 1.427 . S
N1726 C1723 1.384 . S
N1727 C1719 1.427 . S
N1727 C1725 1.384 . S
H1728 C1734 0.930 . S
H1729 C1738 0.930 . S
H1730 C1743 0.929 . S
H1731 C1741 0.929 . S
H1732 C1736 0.929 . S
H1733 C1742 0.929 . S
C1734 H1728 0.930 . S
C1734 C1735 1.367 . S
C1734 C1742 1.378 . S
C1735 C1734 1.367 . S
C1735 C1743 1.433 . S
C1736 H1732 0.929 . S
C1736 C1738 1.378 . S
C1736 C1740 1.350 . S
C1737 C1740 1.463 . S
C1737 C1742 1.350 . S
C1737 N1745 1.427 . S
C1738 H1729 0.930 . S
C1738 C1736 1.378 . S
C1738 C1739 1.367 . S
C1739 C1738 1.367 . S
C1739 C1741 1.433 . S
C1740 C1736 1.350 . S
C1740 C1737 1.463 . S
C1740 N1744 1.427 . S
C1741 H1731 0.929 . S
C1741 C1739 1.433 . S
C1741 N1744 1.384 . S
C1742 H1733 0.929 . S
C1742 C1734 1.378 . S
C1742 C1737 1.350 . S
C1743 H1730 0.929 . S
C1743 C1735 1.433 . S
C1743 N1745 1.384 . S
N1744 C1740 1.427 . S
N1744 C1741 1.384 . S
N1745 C1737 1.427 . S
N1745 C1743 1.384 . S
H1746 C1752 0.930 . S
H1747 C1756 0.930 . S
H1748 C1761 0.929 . S
H1749 C1759 0.929 . S
H1750 C1754 0.929 . S
H1751 C1760 0.929 . S
C1752 H1746 0.930 . S
C1752 C1753 1.367 . S
C1752 C1760 1.378 . S
C1753 C1752 1.367 . S
C1753 C1761 1.433 . S
C1754 H1750 0.929 . S
C1754 C1756 1.378 . S
C1754 C1758 1.350 . S
C1755 C1758 1.463 . S
C1755 C1760 1.350 . S
C1755 N1763 1.427 . S
C1756 H1747 0.930 . S
C1756 C1754 1.378 . S
C1756 C1757 1.367 . S
C1757 C1756 1.367 . S
C1757 C1759 1.433 . S
C1758 C1754 1.350 . S
C1758 C1755 1.463 . S
C1758 N1762 1.427 . S
C1759 H1749 0.929 . S
C1759 C1757 1.433 . S
C1759 N1762 1.384 . S
C1760 H1751 0.929 . S
C1760 C1752 1.378 . S
C1760 C1755 1.350 . S
C1761 H1748 0.929 . S
C1761 C1753 1.433 . S
C1761 N1763 1.384 . S
N1762 C1758 1.427 . S
N1762 C1759 1.384 . S
N1763 C1755 1.427 . S
N1763 C1761 1.384 . S
H1764 C1770 0.930 . S
H1765 C1774 0.930 . S
H1766 C1779 0.929 . S
H1767 C1777 0.929 . S
H1768 C1772 0.929 . S
H1769 C1778 0.929 . S
C1770 H1764 0.930 . S
C1770 C1771 1.367 . S
C1770 C1778 1.378 . S
C1771 C1770 1.367 . S
C1771 C1779 1.433 . S
C1772 H1768 0.929 . S
C1772 C1774 1.378 . S
C1772 C1776 1.350 . S
C1773 C1776 1.463 . S
C1773 C1778 1.350 . S
C1773 N1781 1.427 . S
C1774 H1765 0.930 . S
C1774 C1772 1.378 . S
C1774 C1775 1.367 . S
C1775 C1774 1.367 . S
C1775 C1777 1.433 . S
C1776 C1772 1.350 . S
C1776 C1773 1.463 . S
C1776 N1780 1.427 . S
C1777 H1767 0.929 . S
C1777 C1775 1.433 . S
C1777 N1780 1.384 . S
C1778 H1769 0.929 . S
C1778 C1770 1.378 . S
C1778 C1773 1.350 . S
C1779 H1766 0.929 . S
C1779 C1771 1.433 . S
C1779 N1781 1.384 . S
N1780 C1776 1.427 . S
N1780 C1777 1.384 . S
N1781 C1773 1.427 . S
N1781 C1779 1.384 . S
H1782 C1788 0.930 . S
H1783 C1792 0.930 . S
H1784 C1797 0.929 . S
H1785 C1795 0.929 . S
H1786 C1790 0.929 . S
H1787 C1796 0.929 . S
C1788 H1782 0.930 . S
C1788 C1789 1.367 . S
C1788 C1796 1.378 . S
C1789 C1788 1.367 . S
C1789 C1797 1.433 . S
C1790 H1786 0.929 . S
C1790 C1792 1.378 . S
C1790 C1794 1.350 . S
C1791 C1794 1.463 . S
C1791 C1796 1.350 . S
C1791 N1799 1.427 . S
C1792 H1783 0.930 . S
C1792 C1790 1.378 . S
C1792 C1793 1.367 . S
C1793 C1792 1.367 . S
C1793 C1795 1.433 . S
C1794 C1790 1.350 . S
C1794 C1791 1.463 . S
C1794 N1798 1.427 . S
C1795 H1785 0.929 . S
C1795 C1793 1.433 . S
C1795 N1798 1.384 . S
C1796 H1787 0.929 . S
C1796 C1788 1.378 . S
C1796 C1791 1.350 . S
C1797 H1784 0.929 . S
C1797 C1789 1.433 . S
C1797 N1799 1.384 . S
N1798 C1794 1.427 . S
N1798 C1795 1.384 . S
N1799 C1791 1.427 . S
N1799 C1797 1.384 . S
H1800 C1806 0.930 . S
H1801 C1810 0.930 . S
H1802 C1815 0.929 . S
H1803 C1813 0.929 . S
H1804 C1808 0.929 . S
H1805 C1814 0.929 . S
C1806 H1800 0.930 . S
C1806 C1807 1.367 . S
C1806 C1814 1.378 . S
C1807 C1806 1.367 . S
C1807 C1815 1.433 . S
C1808 H1804 0.929 . S
C1808 C1810 1.378 . S
C1808 C1812 1.350 . S
C1809 C1812 1.463 . S
C1809 C1814 1.350 . S
C1809 N1817 1.427 . S
C1810 H1801 0.930 . S
C1810 C1808 1.378 . S
C1810 C1811 1.367 . S
C1811 C1810 1.367 . S
C1811 C1813 1.433 . S
C1812 C1808 1.350 . S
C1812 C1809 1.463 . S
C1812 N1816 1.427 . S
C1813 H1803 0.929 . S
C1813 C1811 1.433 . S
C1813 N1816 1.384 . S
C1814 H1805 0.929 . S
C1814 C1806 1.378 . S
C1814 C1809 1.350 . S
C1815 H1802 0.929 . S
C1815 C1807 1.433 . S
C1815 N1817 1.384 . S
N1816 C1812 1.427 . S
N1816 C1813 1.384 . S
N1817 C1809 1.427 . S
N1817 C1815 1.384 . S
H1818 C1824 0.930 . S
H1819 C1828 0.930 . S
H1820 C1833 0.929 . S
H1821 C1831 0.929 . S
H1822 C1826 0.929 . S
H1823 C1832 0.929 . S
C1824 H1818 0.930 . S
C1824 C1825 1.367 . S
C1824 C1832 1.378 . S
C1825 C1824 1.367 . S
C1825 C1833 1.433 . S
C1826 H1822 0.929 . S
C1826 C1828 1.378 . S
C1826 C1830 1.350 . S
C1827 C1830 1.463 . S
C1827 C1832 1.350 . S
C1827 N1835 1.427 . S
C1828 H1819 0.930 . S
C1828 C1826 1.378 . S
C1828 C1829 1.367 . S
C1829 C1828 1.367 . S
C1829 C1831 1.433 . S
C1830 C1826 1.350 . S
C1830 C1827 1.463 . S
C1830 N1834 1.427 . S
C1831 H1821 0.929 . S
C1831 C1829 1.433 . S
C1831 N1834 1.384 . S
C1832 H1823 0.929 . S
C1832 C1824 1.378 . S
C1832 C1827 1.350 . S
C1833 H1820 0.929 . S
C1833 C1825 1.433 . S
C1833 N1835 1.384 . S
N1834 C1830 1.427 . S
N1834 C1831 1.384 . S
N1835 C1827 1.427 . S
N1835 C1833 1.384 . S
H1836 C1842 0.930 . S
H1837 C1846 0.930 . S
H1838 C1851 0.929 . S
H1839 C1849 0.929 . S
H1840 C1844 0.929 . S
H1841 C1850 0.929 . S
C1842 H1836 0.930 . S
C1842 C1843 1.367 . S
C1842 C1850 1.378 . S
C1843 C1842 1.367 . S
C1843 C1851 1.433 . S
C1844 H1840 0.929 . S
C1844 C1846 1.378 . S
C1844 C1848 1.350 . S
C1845 C1848 1.463 . S
C1845 C1850 1.350 . S
C1845 N1853 1.427 . S
C1846 H1837 0.930 . S
C1846 C1844 1.378 . S
C1846 C1847 1.367 . S
C1847 C1846 1.367 . S
C1847 C1849 1.433 . S
C1848 C1844 1.350 . S
C1848 C1845 1.463 . S
C1848 N1852 1.427 . S
C1849 H1839 0.929 . S
C1849 C1847 1.433 . S
C1849 N1852 1.384 . S
C1850 H1841 0.929 . S
C1850 C1842 1.378 . S
C1850 C1845 1.350 . S
C1851 H1838 0.929 . S
C1851 C1843 1.433 . S
C1851 N1853 1.384 . S
N1852 C1848 1.427 . S
N1852 C1849 1.384 . S
N1853 C1845 1.427 . S
N1853 C1851 1.384 . S
H1854 C1860 0.930 . S
H1855 C1864 0.930 . S
H1856 C1869 0.929 . S
H1857 C1867 0.929 . S
H1858 C1862 0.929 . S
H1859 C1868 0.929 . S
C1860 H1854 0.930 . S
C1860 C1861 1.367 . S
C1860 C1868 1.378 . S
C1861 C1860 1.367 . S
C1861 C1869 1.433 . S
C1862 H1858 0.929 . S
C1862 C1864 1.378 . S
C1862 C1866 1.350 . S
C1863 C1866 1.463 . S
C1863 C1868 1.350 . S
C1863 N1871 1.427 . S
C1864 H1855 0.930 . S
C1864 C1862 1.378 . S
C1864 C1865 1.367 . S
C1865 C1864 1.367 . S
C1865 C1867 1.433 . S
C1866 C1862 1.350 . S
C1866 C1863 1.463 . S
C1866 N1870 1.427 . S
C1867 H1857 0.929 . S
C1867 C1865 1.433 . S
C1867 N1870 1.384 . S
C1868 H1859 0.929 . S
C1868 C1860 1.378 . S
C1868 C1863 1.350 . S
C1869 H1856 0.929 . S
C1869 C1861 1.433 . S
C1869 N1871 1.384 . S
N1870 C1866 1.427 . S
N1870 C1867 1.384 . S
N1871 C1863 1.427 . S
N1871 C1869 1.384 . S
H1872 C1878 0.930 . S
H1873 C1882 0.930 . S
H1874 C1887 0.929 . S
H1875 C1885 0.929 . S
H1876 C1880 0.929 . S
H1877 C1886 0.929 . S
C1878 H1872 0.930 . S
C1878 C1879 1.367 . S
C1878 C1886 1.378 . S
C1879 C1878 1.367 . S
C1879 C1887 1.433 . S
C1880 H1876 0.929 . S
C1880 C1882 1.378 . S
C1880 C1884 1.350 . S
C1881 C1884 1.463 . S
C1881 C1886 1.350 . S
C1881 N1889 1.427 . S
C1882 H1873 0.930 . S
C1882 C1880 1.378 . S
C1882 C1883 1.367 . S
C1883 C1882 1.367 . S
C1883 C1885 1.433 . S
C1884 C1880 1.350 . S
C1884 C1881 1.463 . S
C1884 N1888 1.427 . S
C1885 H1875 0.929 . S
C1885 C1883 1.433 . S
C1885 N1888 1.384 . S
C1886 H1877 0.929 . S
C1886 C1878 1.378 . S
C1886 C1881 1.350 . S
C1887 H1874 0.929 . S
C1887 C1879 1.433 . S
C1887 N1889 1.384 . S
N1888 C1884 1.427 . S
N1888 C1885 1.384 . S
N1889 C1881 1.427 . S
N1889 C1887 1.384 . S
H1890 C1896 0.930 . S
H1891 C1900 0.930 . S
H1892 C1905 0.929 . S
H1893 C1903 0.929 . S
H1894 C1898 0.929 . S
H1895 C1904 0.929 . S
C1896 H1890 0.930 . S
C1896 C1897 1.367 . S
C1896 C1904 1.378 . S
C1897 C1896 1.367 . S
C1897 C1905 1.433 . S
C1898 H1894 0.929 . S
C1898 C1900 1.378 . S
C1898 C1902 1.350 . S
C1899 C1902 1.463 . S
C1899 C1904 1.350 . S
C1899 N1907 1.427 . S
C1900 H1891 0.930 . S
C1900 C1898 1.378 . S
C1900 C1901 1.367 . S
C1901 C1900 1.367 . S
C1901 C1903 1.433 . S
C1902 C1898 1.350 . S
C1902 C1899 1.463 . S
C1902 N1906 1.427 . S
C1903 H1893 0.929 . S
C1903 C1901 1.433 . S
C1903 N1906 1.384 . S
C1904 H1895 0.929 . S
C1904 C1896 1.378 . S
C1904 C1899 1.350 . S
C1905 H1892 0.929 . S
C1905 C1897 1.433 . S
C1905 N1907 1.384 . S
N1906 C1902 1.427 . S
N1906 C1903 1.384 . S
N1907 C1899 1.427 . S
N1907 C1905 1.384 . S
H1908 C1914 0.930 . S
H1909 C1918 0.930 . S
H1910 C1923 0.929 . S
H1911 C1921 0.929 . S
H1912 C1916 0.929 . S
H1913 C1922 0.929 . S
C1914 H1908 0.930 . S
C1914 C1915 1.367 . S
C1914 C1922 1.378 . S
C1915 C1914 1.367 . S
C1915 C1923 1.433 . S
C1916 H1912 0.929 . S
C1916 C1918 1.378 . S
C1916 C1920 1.350 . S
C1917 C1920 1.463 . S
C1917 C1922 1.350 . S
C1917 N1925 1.427 . S
C1918 H1909 0.930 . S
C1918 C1916 1.378 . S
C1918 C1919 1.367 . S
C1919 C1918 1.367 . S
C1919 C1921 1.433 . S
C1920 C1916 1.350 . S
C1920 C1917 1.463 . S
C1920 N1924 1.427 . S
C1921 H1911 0.929 . S
C1921 C1919 1.433 . S
C1921 N1924 1.384 . S
C1922 H1913 0.929 . S
C1922 C1914 1.378 . S
C1922 C1917 1.350 . S
C1923 H1910 0.929 . S
C1923 C1915 1.433 . S
C1923 N1925 1.384 . S
N1924 C1920 1.427 . S
N1924 C1921 1.384 . S
N1925 C1917 1.427 . S
N1925 C1923 1.384 . S
H1926 C1932 0.930 . S
H1927 C1936 0.930 . S
H1928 C1941 0.929 . S
H1929 C1939 0.929 . S
H1930 C1934 0.929 . S
H1931 C1940 0.929 . S
C1932 H1926 0.930 . S
C1932 C1933 1.367 . S
C1932 C1940 1.378 . S
C1933 C1932 1.367 . S
C1933 C1941 1.433 . S
C1934 H1930 0.929 . S
C1934 C1936 1.378 . S
C1934 C1938 1.350 . S
C1935 C1938 1.463 . S
C1935 C1940 1.350 . S
C1935 N1943 1.427 . S
C1936 H1927 0.930 . S
C1936 C1934 1.378 . S
C1936 C1937 1.367 . S
C1937 C1936 1.367 . S
C1937 C1939 1.433 . S
C1938 C1934 1.350 . S
C1938 C1935 1.463 . S
C1938 N1942 1.427 . S
C1939 H1929 0.929 . S
C1939 C1937 1.433 . S
C1939 N1942 1.384 . S
C1940 H1931 0.929 . S
C1940 C1932 1.378 . S
C1940 C1935 1.350 . S
C1941 H1928 0.929 . S
C1941 C1933 1.433 . S
C1941 N1943 1.384 . S
N1942 C1938 1.427 . S
N1942 C1939 1.384 . S
N1943 C1935 1.427 . S
N1943 C1941 1.384 . S
H1944 C1950 0.930 . S
H1945 C1954 0.930 . S
H1946 C1959 0.929 . S
H1947 C1957 0.929 . S
H1948 C1952 0.929 . S
H1949 C1958 0.929 . S
C1950 H1944 0.930 . S
C1950 C1951 1.367 . S
C1950 C1958 1.378 . S
C1951 C1950 1.367 . S
C1951 C1959 1.433 . S
C1952 H1948 0.929 . S
C1952 C1954 1.378 . S
C1952 C1956 1.350 . S
C1953 C1956 1.463 . S
C1953 C1958 1.350 . S
C1953 N1961 1.427 . S
C1954 H1945 0.930 . S
C1954 C1952 1.378 . S
C1954 C1955 1.367 . S
C1955 C1954 1.367 . S
C1955 C1957 1.433 . S
C1956 C1952 1.350 . S
C1956 C1953 1.463 . S
C1956 N1960 1.427 . S
C1957 H1947 0.929 . S
C1957 C1955 1.433 . S
C1957 N1960 1.384 . S
C1958 H1949 0.929 . S
C1958 C1950 1.378 . S
C1958 C1953 1.350 . S
C1959 H1946 0.929 . S
C1959 C1951 1.433 . S
C1959 N1961 1.384 . S
N1960 C1956 1.427 . S
N1960 C1957 1.384 . S
N1961 C1953 1.427 . S
N1961 C1959 1.384 . S
C673 C53 1.511 . S
C677 C418 1.294 . S
C691 N2 1.328 . S
C695 C434 1.220 . S
C713 C417 1.265 . S
C709 N25 1.289 . S
C731 C442 1.240 . S
C727 N48 1.290 . S
C745 C7 1.564 . S
C749 C451 1.348 . S
C767 C454 1.305 . S
C763 C30 1.454 . S
C781 C122 1.511 . S
C785 C460 1.318 . S
C803 C476 1.225 1_565 S
C799 N71 1.304 . S
C821 C459 1.236 . S
C817 N94 1.296 . S
C835 N117 1.290 . S
C839 C484 1.228 . S
C857 C493 1.363 . S
C853 C76 1.564 . S
C875 C496 1.296 . S
C871 C99 1.462 . S
C893 C505 1.322 . S
C889 C191 1.507 . S
C911 C517 1.218 . S
C907 N140 1.328 . S
C929 C514 1.265 . S
C925 N163 1.287 . S
C943 N186 1.291 . S
C947 C523 1.240 . S
C965 C522 1.363 . S
C961 C145 1.555 . S
C979 C168 1.461 . S
C983 C539 1.277 . S
C1001 C544 1.293 . S
C997 C260 1.511 . S
C1019 C560 1.208 . S
C1015 N209 1.327 . S
C1033 N232 1.305 . S
C1037 C543 1.241 . S
C1055 C568 1.223 . S
C1051 N255 1.314 . S
C1073 C577 1.348 . S
C1069 C214 1.561 . S
C1087 C237 1.460 . S
C1091 C580 1.301 . S
C1105 C329 1.512 . S
C1109 C589 1.316 . S
C1127 C601 1.219 . S
C1123 N278 1.307 . S
C1145 C598 1.265 . S
C1141 N301 1.289 . S
C1159 N324 1.289 . S
C1163 C607 1.237 . S
C1181 C606 1.356 . S
C1177 C283 1.557 . S
C1195 C306 1.459 . S
C1199 C623 1.302 . S
C1217 C628 1.322 . S
C1213 C398 1.507 . S
C1235 C644 1.232 . S
C1231 N347 1.305 . S
C1249 N370 1.303 . S
C1253 C627 1.238 . S
C1271 C649 1.242 . S
C1267 N393 1.300 . S
C1289 C648 1.356 . S
C1285 C352 1.565 . S
C1307 C665 1.292 . S
C1303 C375 1.451 . S
C1325 C430 1.846 . S
C1321 N265 1.922 . S
C1339 C223 1.782 . S
C1343 C433 1.724 1_655 S
C1361 C421 1.678 . S
C1357 C246 1.696 . S
C1375 C407 1.717 . S
C1379 C438 1.668 . S
C1393 N357 1.863 . S
C1397 C439 1.737 . S
C1415 C455 1.744 1_565 S
C1411 N380 1.805 . S
C1433 C472 1.857 1_565 S
C1429 N334 1.915 . S
C1451 C475 1.727 . S
C1447 C292 1.790 . S
C1465 C315 1.708 . S
C1469 C463 1.675 . S
C1487 C480 1.661 . S
C1483 C200 1.720 . S
C1501 N150 1.855 . S
C1505 C481 1.748 . S
C1519 N173 1.805 . S
C1523 C497 1.754 . S
C1537 N403 1.914 . S
C1541 C501 1.850 . S
C1555 C361 1.777 . S
C1559 C518 1.739 . S
C1577 C502 1.672 . S
C1573 C384 1.705 . S
C1595 C535 1.676 . S
C1591 C131 1.726 . S
C1613 C526 1.738 . S
C1609 N81 1.863 . S
C1627 N104 1.815 . S
C1631 C538 1.738 . S
C1649 C556 1.847 . S
C1645 N58 1.917 . S
C1667 C559 1.732 . S
C1663 C16 1.777 . S
C1681 C39 1.704 . S
C1685 C547 1.672 . S
C1703 C564 1.681 . S
C1699 C338 1.718 . S
C1721 C565 1.743 . S
C1717 N288 1.857 . S
C1739 C581 1.740 . S
C1735 N311 1.811 . S
C1757 C585 1.857 . S
C1753 N127 1.915 . S
C1775 C602 1.730 . S
C1771 C85 1.791 . S
C1789 C108 1.699 . S
C1793 C586 1.689 . S
C1807 C269 1.735 . S
C1811 C619 1.679 . S
C1825 N219 1.863 . S
C1829 C610 1.737 . S
C1847 C622 1.749 . S
C1843 N242 1.810 . S
C1861 N196 1.913 . S
C1865 C640 1.859 . S
C1879 C154 1.776 . S
C1883 C643 1.734 . S
C1901 C631 1.684 . S
C1897 C177 1.692 1_565 S
C1919 C661 1.664 . S
C1915 C62 1.728 . S
C1937 C652 1.750 . S
C1933 N12 1.854 . S
C1951 N35 1.809 . S
C1955 C664 1.743 . S
