# Generated by pormake.
# Topology anh, (6,3)-cn, num edge types: 1
# Building blocks:
#     Node 0, Type 0, BuildingBlock: MIFKUJ_clean_sbu_0, # of connection points: 6
#     Node 1, Type 0, BuildingBlock: MIFKUJ_clean_sbu_0, # of connection points: 6
#     Node 2, Type 0, BuildingBlock: MIFKUJ_clean_sbu_0, # of connection points: 6
#     Node 3, Type 1, BuildingBlock: OLANEW_clean_sbu_2, # of connection points: 3
#     Node 4, Type 1, BuildingBlock: OLANEW_clean_sbu_2, # of connection points: 3
#     Node 5, Type 1, BuildingBlock: OLANEW_clean_sbu_2, # of connection points: 3
#     Node 6, Type 1, BuildingBlock: OLANEW_clean_sbu_2, # of connection points: 3
#     Node 7, Type 1, BuildingBlock: OLANEW_clean_sbu_2, # of connection points: 3
#     Node 8, Type 1, BuildingBlock: OLANEW_clean_sbu_2, # of connection points: 3
#     Edge 9, Type (0, 1), BuildingBlock: FUNLAD_clean_linker_0, # of connection points: 2
#     Edge 10, Type (0, 1), BuildingBlock: FUNLAD_clean_linker_0, # of connection points: 2
#     Edge 11, Type (0, 1), BuildingBlock: FUNLAD_clean_linker_0, # of connection points: 2
#     Edge 12, Type (0, 1), BuildingBlock: FUNLAD_clean_linker_0, # of connection points: 2
#     Edge 13, Type (0, 1), BuildingBlock: FUNLAD_clean_linker_0, # of connection points: 2
#     Edge 14, Type (0, 1), BuildingBlock: FUNLAD_clean_linker_0, # of connection points: 2
#     Edge 15, Type (0, 1), BuildingBlock: FUNLAD_clean_linker_0, # of connection points: 2
#     Edge 16, Type (0, 1), BuildingBlock: FUNLAD_clean_linker_0, # of connection points: 2
#     Edge 17, Type (0, 1), BuildingBlock: FUNLAD_clean_linker_0, # of connection points: 2
#     Edge 18, Type (0, 1), BuildingBlock: FUNLAD_clean_linker_0, # of connection points: 2
#     Edge 19, Type (0, 1), BuildingBlock: FUNLAD_clean_linker_0, # of connection points: 2
#     Edge 20, Type (0, 1), BuildingBlock: FUNLAD_clean_linker_0, # of connection points: 2
#     Edge 21, Type (0, 1), BuildingBlock: FUNLAD_clean_linker_0, # of connection points: 2
#     Edge 22, Type (0, 1), BuildingBlock: FUNLAD_clean_linker_0, # of connection points: 2
#     Edge 23, Type (0, 1), BuildingBlock: FUNLAD_clean_linker_0, # of connection points: 2
#     Edge 24, Type (0, 1), BuildingBlock: FUNLAD_clean_linker_0, # of connection points: 2
#     Edge 25, Type (0, 1), BuildingBlock: FUNLAD_clean_linker_0, # of connection points: 2
#     Edge 26, Type (0, 1), BuildingBlock: FUNLAD_clean_linker_0, # of connection points: 2
# Relax obj value: 0.071
# Max RMSD: 0.126
# Mean RMSD: 0.107
data_MOF--net-anh--node1-MIFKUJ_clean_sbu_0--node2-OLANEW_clean_sbu_2--edge1-FUNLAD_clean_linker_0
_symmetry_space_group_name_H-M    P1
_symmetry_Int_Tables_number       1
_symmetry_cell_setting            triclinic
loop_
_symmetry_equiv_pos_as_xyz
'x, y, z'
_cell_length_a     39.813176
_cell_length_b     39.924829
_cell_length_c     59.160676
_cell_angle_alpha  94.442177
_cell_angle_beta   90.596151
_cell_angle_gamma 120.0915
loop_
_atom_site_label
_atom_site_type_symbol
_atom_site_fract_x
_atom_site_fract_y
_atom_site_fract_z
_atom_type_partial_charge
Zn0 Zn 0.01547 0.53981 0.14435 0.0
Zn1 Zn 0.94021 0.45414 0.14445 0.0
C2 C 0.08078 0.5316 0.15614 0.0
O3 O 0.08701 0.56014 0.17139 0.0
C4 C 0.88069 0.46441 0.12596 0.0
O5 O 0.88088 0.43871 0.11076 0.0
O6 O 0.05166 0.59713 0.14301 0.0
O7 O -0.01879 0.52132 0.11557 0.0
O8 O 0.96883 0.46121 0.11579 0.0
C9 C 0.07331 0.60861 0.12634 0.0
O10 O 0.07048 0.58276 0.11011 0.0
O11 O 0.05036 0.51641 0.14289 0.0
C12 C 0.87598 0.38664 0.15872 0.0
O13 O 0.87631 0.41351 0.17318 0.0
O14 O 0.90215 0.39678 0.14439 0.0
O15 O 0.9702 0.47069 0.17467 0.0
O16 O -0.00767 0.5336 0.17498 0.0
O17 O 0.90584 0.47808 0.14262 0.0
C18 C 0.97497 0.48973 0.10486 0.0
C19 C -0.01754 0.50378 0.18555 0.0
Zn20 Zn 0.51178 0.03813 0.47621 0.0
Zn21 Zn 0.51196 0.95594 0.47402 0.0
C22 C 0.58782 0.09774 0.4923 0.0
O23 O 0.56714 0.10256 0.50802 0.0
C24 C 0.43799 0.90113 0.45432 0.0
O25 O 0.46123 0.89988 0.43908 0.0
O26 O 0.49588 0.07882 0.4765 0.0
O27 O 0.49173 0.00599 0.4461 0.0
O28 O 0.53214 0.98345 0.44586 0.0
C29 C 0.50956 0.10343 0.46186 0.0
O30 O 0.53136 0.09984 0.44644 0.0
O31 O 0.57059 0.06959 0.47689 0.0
C32 C 0.50807 0.88891 0.4884 0.0
O33 O 0.48604 0.89489 0.50261 0.0
O34 O 0.52505 0.91313 0.47386 0.0
O35 O 0.532 -0.01353 0.5046 0.0
O36 O 0.49504 0.01305 0.5054 0.0
O37 O 0.45289 0.92609 0.47154 0.0
C38 C 0.51253 -0.00492 0.43528 0.0
C39 C 0.51476 0.0013 0.51572 0.0
Zn40 Zn 0.52419 0.48058 0.816 0.0
Zn41 Zn 0.46015 0.53789 0.81369 0.0
C42 C 0.51682 0.41392 0.83411 0.0
O43 O 0.54293 0.44142 0.84877 0.0
C44 C 0.46789 0.6041 0.79546 0.0
O45 O 0.44351 0.57627 0.7803 0.0
O46 O 0.58204 0.50266 0.81484 0.0
O47 O 0.5053 0.48677 0.78571 0.0
O48 O 0.4714 0.517 0.78465 0.0
C49 C 0.59318 0.48743 0.79917 0.0
O50 O 0.56699 0.46032 0.78438 0.0
O51 O 0.50266 0.42343 0.81812 0.0
C52 C 0.39121 0.53219 0.82933 0.0
O53 O 0.41739 0.5594 0.84409 0.0
O54 O 0.40224 0.51596 0.81422 0.0
O55 O 0.47858 0.53076 0.84363 0.0
O56 O 0.51326 0.5014 0.84542 0.0
O57 O 0.48156 0.59515 0.81196 0.0
C58 C 0.48698 0.49932 0.7747 0.0
C59 C 0.49695 0.51869 0.855 0.0
O60 O 0.51471 -0.00805 0.21505 0.0
Cd61 Cd 0.51818 -0.0081 0.17388 0.0
O62 O 0.45703 -0.01324 0.21512 0.0
Cd63 Cd 0.44404 0.97129 0.17863 0.0
O64 O 0.40008 0.92707 0.15395 0.0
C65 C 0.36735 0.92532 0.15243 0.0
O66 O 0.36299 0.95213 0.1641 0.0
C67 C 0.4871 -0.00853 0.2259 0.0
C68 C 0.58063 0.06355 0.16486 0.0
O69 O 0.54628 0.05843 0.16615 0.0
O70 O 0.58523 0.03441 0.16718 0.0
O71 O 0.54125 0.49235 0.55579 0.0
Cd72 Cd 0.54547 0.49483 0.51473 0.0
O73 O 0.48948 0.4987 0.55612 0.0
Cd74 Cd 0.49646 0.51971 0.52249 0.0
O75 O 0.50155 0.56616 0.50291 0.0
C76 C 0.534 0.5976 0.50306 0.0
O77 O 0.56463 0.60017 0.51348 0.0
C78 C 0.51357 0.49222 0.56637 0.0
C79 C 0.53924 0.42545 0.4959 0.0
O80 O 0.57252 0.45559 0.5015 0.0
O81 O 0.50891 0.4284 0.49869 0.0
O82 O 0.00792 0.52879 0.88655 0.0
Cd83 Cd 0.01156 0.52962 0.8454 0.0
O84 O 0.96552 0.46618 0.88409 0.0
Cd85 Cd 0.94835 0.46764 0.84924 0.0
O86 O 0.90821 0.48018 0.83142 0.0
C87 C 0.90633 0.5092 0.84028 0.0
O88 O 0.93005 0.53027 0.85785 0.0
C89 C -0.01118 0.49756 0.89607 0.0
C90 C 0.08035 0.53102 0.83483 0.0
O91 O 0.07937 0.56256 0.83861 0.0
O92 O 0.04844 0.49869 0.83527 0.0
O93 O 0.01859 0.53218 0.40703 0.0
Cd94 Cd 0.03313 0.54857 0.44803 0.0
O95 O 0.97251 0.47008 0.40461 0.0
Cd96 Cd 0.95934 0.45573 0.43958 0.0
O97 O 0.91408 0.40525 0.45513 0.0
C98 C 0.90014 0.37327 0.44263 0.0
O99 O 0.91489 0.37331 0.42285 0.0
C100 C -0.00477 0.50056 0.3952 0.0
C101 C 0.10428 0.61862 0.45576 0.0
O102 O 0.10288 0.58576 0.45316 0.0
O103 O 0.072 0.61844 0.45514 0.0
O104 O 0.52379 -0.00352 0.73691 0.0
Cd105 Cd 0.52198 0.00119 0.77823 0.0
O106 O 0.56117 0.05937 0.73509 0.0
Cd107 Cd 0.55559 0.07453 0.77048 0.0
O108 O 0.53889 0.10997 0.79199 0.0
C109 C 0.50671 0.10728 0.78624 0.0
O110 O 0.485 0.08164 0.76937 0.0
C111 C 0.54324 0.02499 0.72531 0.0
C112 C 0.51887 0.93504 0.79276 0.0
O113 O 0.48773 0.93567 0.78796 0.0
O114 O 0.55156 0.9662 0.7914 0.0
O115 O 0.52552 0.5248 0.07791 0.0
Cd116 Cd 0.53138 0.52057 0.11864 0.0
O117 O 0.47232 0.52882 0.07382 0.0
Cd118 Cd 0.45115 0.52476 0.10807 0.0
O119 O 0.40279 0.52211 0.127 0.0
C120 C 0.36865 0.49917 0.11821 0.0
O121 O 0.3645 0.47729 0.09942 0.0
C122 C 0.50122 0.52795 0.06543 0.0
C123 C 0.59908 0.51746 0.12748 0.0
O124 O 0.56627 0.48641 0.12244 0.0
O125 O 0.59981 0.55002 0.12889 0.0
C126 C 0.14578 0.53945 0.16643 0.0
C127 C 0.11084 0.52034 0.15289 0.0
C128 C 0.17573 0.53153 0.16214 0.0
C129 C 0.17135 0.50399 0.14422 0.0
C130 C 0.136 0.48427 0.13107 0.0
C131 C 0.10608 0.49223 0.13535 0.0
C132 C 0.20342 0.4967 0.13764 0.0
C133 C 0.23603 0.50804 0.15075 0.0
C134 C 0.26913 0.50339 0.14296 0.0
C135 C 0.30637 0.52805 0.15348 0.0
C136 C 0.33863 0.52614 0.1459 0.0
C137 C 0.33432 0.49929 0.12766 0.0
H138 H 0.23637 0.45475 0.1173 0.0
C139 C 0.29685 0.47354 0.11774 0.0
C140 C 0.26462 0.4754 0.12533 0.0
H141 H 0.29236 0.4521 0.10386 0.0
H142 H 0.15052 0.56142 0.18002 0.0
H143 H 0.20253 0.54815 0.17249 0.0
H144 H 0.1317 0.46301 0.11711 0.0
H145 H 0.07958 0.47699 0.12455 0.0
H146 H 0.2001 0.48219 0.1208 0.0
H147 H 0.23982 0.52291 0.16751 0.0
H148 H 0.31072 0.54959 0.16727 0.0
H149 H 0.36703 0.54629 0.15401 0.0
C150 C 0.65062 0.1257 0.47258 0.0
C151 C 0.62931 0.12768 0.49092 0.0
C152 C 0.6884 0.15616 0.47009 0.0
C153 C 0.70564 0.1895 0.48584 0.0
C154 C 0.68497 0.19049 0.50472 0.0
C155 C 0.64725 0.16007 0.5072 0.0
C156 C 0.74462 0.22402 0.48311 0.0
C157 C 0.76087 0.23267 0.46292 0.0
C158 C 0.79827 0.26855 0.45943 0.0
C159 C 0.81722 0.26899 0.4395 0.0
C160 C 0.85078 0.30265 0.43446 0.0
C161 C 0.8662 0.33703 0.44916 0.0
H162 H 0.79999 0.30414 0.48973 0.0
C163 C 0.84773 0.33661 0.46935 0.0
C164 C 0.81407 0.30277 0.47445 0.0
H165 H 0.85873 0.36267 0.48098 0.0
H166 H 0.63783 0.10097 0.45986 0.0
H167 H 0.70373 0.15335 0.45576 0.0
H168 H 0.69758 0.21546 0.51728 0.0
H169 H 0.63181 0.16248 0.52163 0.0
H170 H 0.75936 0.24376 0.49819 0.0
H171 H 0.74597 0.21298 0.44786 0.0
H172 H 0.80574 0.24324 0.42756 0.0
H173 H 0.86418 0.30182 0.41875 0.0
C174 C 0.49773 0.67349 0.8121 0.0
C175 C 0.4758 0.64432 0.79449 0.0
C176 C 0.50221 0.71056 0.81197 0.0
C177 C 0.48496 0.7192 0.79412 0.0
C178 C 0.46369 0.69018 0.77639 0.0
C179 C 0.45926 0.65325 0.77651 0.0
C180 C 0.4865 0.75712 0.7938 0.0
C181 C 0.51329 0.7904 0.80568 0.0
C182 C 0.51395 0.82767 0.80414 0.0
C183 C 0.54971 0.86266 0.80606 0.0
C184 C 0.55133 0.89783 0.80302 0.0
C185 C 0.51709 0.89869 0.7983 0.0
H186 H 0.45136 0.80259 0.7998 0.0
C187 C 0.48115 0.86393 0.79758 0.0
C188 C 0.47956 0.82881 0.80052 0.0
H189 H 0.4542 0.86364 0.79425 0.0
H190 H 0.51059 0.66742 0.82629 0.0
H191 H 0.51809 0.73176 0.82623 0.0
H192 H 0.45 0.69594 0.76246 0.0
H193 H 0.44216 0.63148 0.76268 0.0
H194 H 0.46534 0.75785 0.7824 0.0
H195 H 0.53693 0.79119 0.81546 0.0
H196 H 0.57656 0.86263 0.80917 0.0
H197 H 0.57948 0.92417 0.80384 0.0
C198 C 0.84404 0.49584 0.14265 0.0
C199 C 0.84903 0.47369 0.12475 0.0
C200 C 0.81178 0.50116 0.14218 0.0
C201 C 0.78396 0.48453 0.12371 0.0
C202 C 0.78963 0.46325 0.10566 0.0
C203 C 0.82174 0.45798 0.10612 0.0
C204 C 0.74751 0.48642 0.12299 0.0
C205 C 0.74191 0.51255 0.13572 0.0
C206 C 0.70475 0.513 0.13427 0.0
C207 C 0.70533 0.54835 0.13873 0.0
C208 C 0.67101 0.54983 0.13682 0.0
C209 C 0.63522 0.5158 0.13071 0.0
H210 H 0.66685 0.45075 0.12605 0.0
C211 C 0.63445 0.48021 0.12702 0.0
C212 C 0.66875 0.47878 0.12881 0.0
H213 H 0.60735 0.45339 0.1225 0.0
H214 H 0.8644 0.50812 0.15733 0.0
H215 H 0.80822 0.51712 0.15667 0.0
H216 H 0.76876 0.45004 0.09121 0.0
H217 H 0.82463 0.4408 0.09201 0.0
H218 H 0.72454 0.46582 0.1107 0.0
H219 H 0.76568 0.5356 0.14657 0.0
H220 H 0.73255 0.57507 0.14325 0.0
H221 H 0.67262 0.5777 0.13991 0.0
C222 C 0.3722 0.86607 0.47082 0.0
C223 C 0.39636 0.87035 0.45277 0.0
C224 C 0.33432 0.83399 0.47018 0.0
C225 C 0.31988 0.80561 0.4514 0.0
C226 C 0.34371 0.81071 0.43315 0.0
C227 C 0.38132 0.84267 0.43375 0.0
C228 C 0.28158 0.76895 0.45068 0.0
C229 C 0.25163 0.76397 0.46325 0.0
C230 C 0.21415 0.72635 0.46192 0.0
C231 C 0.1793 0.72638 0.46527 0.0
C232 C 0.1436 0.69144 0.46345 0.0
C233 C 0.14208 0.65563 0.45864 0.0
H234 H 0.23903 0.68914 0.45572 0.0
C235 C 0.17709 0.65554 0.45604 0.0
C236 C 0.21269 0.69044 0.45765 0.0
H237 H 0.17704 0.62848 0.4525 0.0
H238 H 0.38298 0.88673 0.4858 0.0
H239 H 0.31721 0.83082 0.48479 0.0
H240 H 0.33347 0.78941 0.41847 0.0
H241 H 0.39901 0.845 0.41951 0.0
H242 H 0.27759 0.74517 0.43857 0.0
H243 H 0.25362 0.7884 0.47386 0.0
H244 H 0.17962 0.75357 0.46885 0.0
H245 H 0.11719 0.69253 0.4657 0.0
C246 C 0.47933 0.34348 0.81934 0.0
C247 C 0.50734 0.37316 0.83483 0.0
C248 C 0.47325 0.30574 0.81855 0.0
C249 C 0.49548 0.29696 0.8331 0.0
C250 C 0.52196 0.32626 0.84936 0.0
C251 C 0.52786 0.3639 0.85022 0.0
C252 C 0.49385 0.25872 0.83125 0.0
C253 C 0.47823 0.23232 0.81299 0.0
C254 C 0.48305 0.19775 0.80926 0.0
C255 C 0.45712 0.16677 0.79368 0.0
C256 C 0.46369 0.13626 0.78713 0.0
C257 C 0.49668 0.13629 0.79584 0.0
H258 H 0.53642 0.22057 0.83044 0.0
C259 C 0.52177 0.16638 0.81221 0.0
C260 C 0.51514 0.19687 0.81882 0.0
H261 H 0.54751 0.16732 0.81921 0.0
H262 H 0.46259 0.34956 0.80749 0.0
H263 H 0.45145 0.284 0.8063 0.0
H264 H 0.53924 0.3204 0.86095 0.0
H265 H 0.54947 0.38601 0.8625 0.0
H266 H 0.50854 0.25344 0.8449 0.0
H267 H 0.46273 0.23664 0.79942 0.0
H268 H 0.4323 0.16675 0.78597 0.0
H269 H 0.4437 0.1135 0.77452 0.0
C270 C 0.53455 0.84622 0.47393 0.0
C271 C 0.51047 0.85308 0.48848 0.0
C272 C 0.53525 0.81143 0.47364 0.0
C273 C 0.51177 0.78283 0.4879 0.0
C274 C 0.48775 0.7898 0.50233 0.0
C275 C 0.48727 0.82453 0.50275 0.0
C276 C 0.51035 0.74492 0.48791 0.0
C277 C 0.53959 0.73897 0.48177 0.0
C278 C 0.5382 0.70159 0.4845 0.0
C279 C 0.5726 0.702 0.49049 0.0
C280 C 0.57153 0.66787 0.49565 0.0
C281 C 0.53601 0.63252 0.4946 0.0
H282 H 0.47612 0.6642 0.47671 0.0
C283 C 0.50195 0.63168 0.48711 0.0
C284 C 0.50301 0.66582 0.4821 0.0
H285 H 0.47416 0.60487 0.48583 0.0
H286 H 0.55256 0.86754 0.46262 0.0
H287 H 0.5535 0.80677 0.46191 0.0
H288 H 0.46924 0.76826 0.51342 0.0
H289 H 0.46821 0.82869 0.51409 0.0
H290 H 0.48506 0.72164 0.49495 0.0
H291 H 0.56662 0.763 0.47682 0.0
H292 H 0.60016 0.72908 0.49215 0.0
H293 H 0.59837 0.66948 0.50114 0.0
C294 C 0.66234 0.52476 0.81507 0.0
C295 C 0.63424 0.49705 0.7988 0.0
C296 C 0.70028 0.53118 0.81588 0.0
C297 C 0.71083 0.50967 0.80051 0.0
C298 C 0.68313 0.48336 0.78362 0.0
C299 C 0.6453 0.47705 0.78278 0.0
C300 C 0.74958 0.51247 0.80184 0.0
C301 C 0.77394 0.52687 0.82056 0.0
C302 C 0.80994 0.52458 0.82307 0.0
C303 C 0.8387 0.55002 0.83973 0.0
C304 C 0.87089 0.54608 0.84458 0.0
C305 C 0.87488 0.51627 0.83302 0.0
H306 H 0.79271 0.47466 0.79834 0.0
C307 C 0.84681 0.49155 0.8158 0.0
C308 C 0.81461 0.49556 0.8109 0.0
H309 H 0.84893 0.46817 0.80665 0.0
H310 H 0.65489 0.54105 0.82747 0.0
H311 H 0.72089 0.55284 0.82866 0.0
H312 H 0.69041 0.46666 0.7714 0.0
H313 H 0.62447 0.45568 0.76989 0.0
H314 H 0.75714 0.50004 0.78717 0.0
H315 H 0.76698 0.5398 0.83522 0.0
H316 H 0.8358 0.57249 0.84945 0.0
H317 H 0.89197 0.56568 0.85794 0.0
C318 C 0.12871 0.66256 0.10829 0.0
C319 C 0.10322 0.65013 0.12604 0.0
C320 C 0.15871 0.70127 0.10881 0.0
C321 C 0.16395 0.72832 0.12721 0.0
C322 C 0.13745 0.71616 0.14443 0.0
C323 C 0.10752 0.67751 0.14392 0.0
C324 C 0.19695 0.7691 0.12947 0.0
C325 C 0.23096 0.7805 0.11961 0.0
C326 C 0.26584 0.8196 0.12524 0.0
C327 C 0.30286 0.82365 0.12379 0.0
C328 C 0.33618 0.85866 0.13159 0.0
C329 C 0.33313 0.89048 0.14085 0.0
H330 H 0.23518 0.85084 0.13346 0.0
C331 C 0.29633 0.8873 0.14078 0.0
C332 C 0.26303 0.85229 0.13298 0.0
H333 H 0.29302 0.91146 0.14744 0.0
H334 H 0.12589 0.64229 0.09411 0.0
H335 H 0.17764 0.70969 0.0948 0.0
H336 H 0.14051 0.73642 0.1587 0.0
H337 H 0.08822 0.66898 0.15779 0.0
H338 H 0.19435 0.78943 0.14158 0.0
H339 H 0.23497 0.7594 0.10911 0.0
H340 H 0.30593 0.79912 0.11758 0.0
H341 H 0.36412 0.86023 0.13119 0.0
C342 C 0.52251 0.16661 0.44845 0.0
C343 C 0.50439 0.13777 0.46348 0.0
C344 C 0.52052 0.20066 0.45108 0.0
C345 C 0.50046 0.2067 0.46892 0.0
C346 C 0.48092 0.17713 0.48331 0.0
C347 C 0.48301 0.14311 0.48072 0.0
C348 C 0.49966 0.24351 0.47317 0.0
C349 C 0.52856 0.27807 0.46766 0.0
C350 C 0.53008 0.31563 0.47391 0.0
C351 C 0.56649 0.3499 0.47654 0.0
C352 C 0.56944 0.38564 0.48333 0.0
C353 C 0.53593 0.38799 0.48735 0.0
H354 H 0.46774 0.29256 0.47469 0.0
C355 C 0.49934 0.35392 0.48392 0.0
C356 C 0.4964 0.3181 0.47726 0.0
H357 H 0.47292 0.35478 0.4867 0.0
H358 H 0.53886 0.16325 0.43482 0.0
H359 H 0.53478 0.22211 0.43913 0.0
H360 H 0.46487 0.18081 0.49702 0.0
H361 H 0.46851 0.12138 0.49251 0.0
H362 H 0.47619 0.24246 0.48286 0.0
H363 H 0.55384 0.27955 0.45994 0.0
H364 H 0.59288 0.34893 0.47384 0.0
H365 H 0.59806 0.41135 0.48567 0.0
C366 C 0.33971 0.54417 0.84495 0.0
C367 C 0.35053 0.52384 0.82901 0.0
C368 C 0.30237 0.53904 0.8437 0.0
C369 C 0.27495 0.51355 0.82638 0.0
C370 C 0.28516 0.49194 0.81103 0.0
C371 C 0.32267 0.49719 0.81222 0.0
C372 C 0.2355 0.50875 0.8242 0.0
C373 C 0.22882 0.53806 0.8303 0.0
C374 C 0.18989 0.53473 0.82925 0.0
C375 C 0.18812 0.56908 0.83064 0.0
C376 C 0.15248 0.5678 0.83166 0.0
C377 C 0.11765 0.53204 0.83144 0.0
H378 H 0.15489 0.47165 0.8279 0.0
C379 C 0.1192 0.49752 0.82948 0.0
C380 C 0.15492 0.4988 0.82847 0.0
H381 H 0.09288 0.4695 0.82941 0.0
H382 H 0.36027 0.56458 0.85827 0.0
H383 H 0.29511 0.55506 0.85639 0.0
H384 H 0.26438 0.47169 0.79774 0.0
H385 H 0.33002 0.48092 0.79975 0.0
H386 H 0.21213 0.48113 0.81642 0.0
H387 H 0.25335 0.56654 0.83601 0.0
H388 H 0.21453 0.59717 0.83135 0.0
H389 H 0.15236 0.59495 0.83317 0.0
C390 C 0.8139 0.33553 0.17312 0.0
C391 C 0.84417 0.34572 0.15828 0.0
C392 C 0.78284 0.29736 0.17215 0.0
C393 C 0.78124 0.26846 0.15622 0.0
C394 C 0.81203 0.27838 0.14183 0.0
C395 C 0.84308 0.31667 0.14273 0.0
C396 C 0.74844 0.22763 0.15469 0.0
C397 C 0.71221 0.21827 0.16027 0.0
C398 C 0.679 0.17773 0.15969 0.0
C399 C 0.64107 0.17169 0.15946 0.0
C400 C 0.60906 0.13447 0.16048 0.0
C401 C 0.61427 0.10239 0.16192 0.0
H402 H 0.71289 0.14886 0.16156 0.0
C403 C 0.65214 0.10823 0.16178 0.0
C404 C 0.6842 0.14548 0.16075 0.0
H405 H 0.65717 0.08416 0.16303 0.0
H406 H 0.81399 0.3571 0.18545 0.0
H407 H 0.76043 0.29061 0.18411 0.0
H408 H 0.81177 0.25658 0.12961 0.0
H409 H 0.86604 0.32351 0.13113 0.0
H410 H 0.75416 0.20508 0.14785 0.0
H411 H 0.70607 0.24142 0.165 0.0
H412 H 0.63617 0.19596 0.15879 0.0
H413 H 0.58029 0.13103 0.16061 0.0
C414 C -0.01312 0.51899 0.06777 0.0
C415 C 0.97469 0.48613 0.07979 0.0
C416 C -0.01311 0.5157 0.04409 0.0
C417 C 0.97472 0.4794 0.03191 0.0
C418 C 0.96195 0.4465 0.0439 0.0
C419 C 0.96221 0.44983 0.06759 0.0
C420 C 0.97334 0.47457 0.00672 0.0
C421 C -0.00226 0.50305 -0.00576 0.0
C422 C -0.00399 0.49996 0.96895 0.0
C423 C 0.01719 0.53418 0.9582 0.0
C424 C 0.01545 0.53333 0.93456 0.0
C425 C -0.00753 0.49811 0.92105 0.0
H426 H 0.95799 0.43712 0.96268 0.0
C427 C 0.9721 0.46365 0.9317 0.0
C428 C 0.97393 0.46447 0.95536 0.0
H429 H 0.95444 0.43595 0.92177 0.0
H430 H -0.00355 0.54734 0.07665 0.0
H431 H -0.00432 0.54151 0.03544 0.0
H432 H 0.952 0.41814 0.03491 0.0
H433 H 0.95238 0.4239 0.07633 0.0
H434 H 0.95166 0.44647 -0.00144 0.0
H435 H 0.01983 0.53058 0.00294 0.0
H436 H 0.03471 0.56192 0.96814 0.0
H437 H 0.03166 0.56043 0.92692 0.0
C438 C 0.49719 0.01421 0.39899 0.0
C439 C 0.51359 -0.00431 0.41033 0.0
C440 C 0.49817 0.01496 0.37544 0.0
C441 C 0.51512 -0.00334 0.36261 0.0
C442 C 0.532 0.97867 0.37403 0.0
C443 C 0.53123 0.97814 0.39761 0.0
C444 C 0.51645 -0.00373 0.33747 0.0
C445 C 0.49218 0.00176 0.32423 0.0
C446 C 0.49232 -3e-05 0.29903 0.0
C447 C 0.45899 -0.00632 0.28673 0.0
C448 C 0.45745 -0.00869 0.26304 0.0
C449 C 0.48937 -0.00466 0.25104 0.0
H450 H 0.55146 0.01122 0.29581 0.0
C451 C 0.52309 0.00246 0.26331 0.0
C452 C 0.52468 0.00497 0.28705 0.0
H453 H 0.54836 0.00615 0.2546 0.0
H454 H 0.48391 0.02856 0.40834 0.0
H455 H 0.48611 0.03044 0.36755 0.0
H456 H 0.54557 0.96466 0.36465 0.0
H457 H 0.54425 0.96373 0.40584 0.0
H458 H 0.53684 -0.01094 0.32965 0.0
H459 H 0.46955 0.00557 0.33192 0.0
H460 H 0.43378 -0.00989 0.29547 0.0
H461 H 0.43104 -0.01408 0.25415 0.0
C462 C 0.50043 0.4739 0.73774 0.0
C463 C 0.48487 0.49452 0.74952 0.0
C464 C 0.49954 0.47063 0.71399 0.0
C465 C 0.48335 0.48828 0.70148 0.0
C466 C 0.46711 0.50812 0.7133 0.0
C467 C 0.46787 0.51126 0.73698 0.0
C468 C 0.48241 0.48676 0.67623 0.0
C469 C 0.50446 0.47728 0.66309 0.0
C470 C 0.505 0.47886 0.63801 0.0
C471 C 0.53754 0.48258 0.62689 0.0
C472 C 0.54007 0.4861 0.60354 0.0
C473 C 0.51 0.48592 0.59078 0.0
H474 H 0.44778 0.47246 0.6326 0.0
C475 C 0.4768 0.48079 0.60173 0.0
C476 C 0.47415 0.47698 0.62501 0.0
H477 H 0.45281 0.47984 0.59233 0.0
H478 H 0.51341 0.4603 0.74685 0.0
H479 H 0.51133 0.45403 0.70568 0.0
H480 H 0.45414 0.52174 0.70418 0.0
H481 H 0.45547 0.52725 0.74543 0.0
H482 H 0.46432 0.49634 0.66838 0.0
H483 H 0.52497 0.47072 0.67092 0.0
H484 H 0.56153 0.48363 0.63638 0.0
H485 H 0.56597 0.48979 0.59561 0.0
C486 C 0.53608 -0.01121 0.55258 0.0
C487 C 0.51866 0.00599 0.54083 0.0
C488 C 0.54055 -0.00609 0.57628 0.0
C489 C 0.52762 0.01637 0.58874 0.0
C490 C 0.51049 0.03375 0.57698 0.0
C491 C 0.5058 0.02843 0.55331 0.0
C492 C 0.53282 0.02355 0.61387 0.0
C493 C 0.53524 -0.00093 0.62736 0.0
C494 C 0.5392 0.00635 0.65249 0.0
C495 C 0.52318 0.97462 0.66563 0.0
C496 C 0.52501 0.98057 0.68932 0.0
C497 C 0.54344 0.01847 0.70035 0.0
H498 H 0.57265 0.06941 0.65397 0.0
C499 C 0.56083 0.05023 0.68719 0.0
C500 C 0.55877 0.04426 0.66353 0.0
H501 H 0.57558 0.07981 0.69513 0.0
H502 H 0.54649 0.97148 0.54347 0.0
H503 H 0.55489 0.98095 0.58467 0.0
H504 H 0.50059 0.05145 0.58615 0.0
H505 H 0.49252 0.04233 0.54479 0.0
H506 H 0.53251 0.04901 0.62155 0.0
H507 H 0.53159 0.9716 0.61997 0.0
H508 H 0.50838 0.94512 0.65754 0.0
H509 H 0.51155 0.95546 0.69896 0.0
C510 C 0.51846 0.51126 0.89348 0.0
C511 C 0.49772 0.52332 0.88015 0.0
C512 C 0.51746 0.51389 0.91716 0.0
C513 C 0.4957 0.52873 0.92803 0.0
C514 C 0.4752 0.54093 0.9147 0.0
C515 C 0.47636 0.53851 0.89109 0.0
C516 C 0.49169 0.52992 0.95298 0.0
C517 C 0.51829 0.53197 0.96819 0.0
C518 C 0.51377 0.53214 -0.00681 0.0
C519 C 0.53768 0.52424 0.00677 0.0
C520 C 0.53397 0.52325 0.03023 0.0
C521 C 0.50619 0.53016 0.04069 0.0
H522 H 0.46855 0.54778 -0.00563 0.0
C523 C 0.48282 0.53887 0.02721 0.0
C524 C 0.48669 0.54013 0.00381 0.0
H525 H 0.46149 0.5449 0.03475 0.0
H526 H 0.53502 0.49918 0.88562 0.0
H527 H 0.53278 0.50314 0.92674 0.0
H528 H 0.458 0.55223 0.9226 0.0
H529 H 0.4599 0.54796 0.88141 0.0
H530 H 0.46562 0.52921 0.95873 0.0
H531 H 0.54441 0.53295 0.96218 0.0
H532 H 0.55904 0.51833 -0.00083 0.0
H533 H 0.55257 0.51658 0.0401 0.0
C534 C 0.96893 0.47402 0.22249 0.0
C535 C -0.01472 0.50744 0.2107 0.0
C536 C 0.97157 0.47718 0.2462 0.0
C537 C -0.00885 0.51396 0.25874 0.0
C538 C 0.00702 0.54734 0.24692 0.0
C539 C 0.00418 0.54417 0.22317 0.0
C540 C -0.00539 0.51875 0.28405 0.0
C541 C -0.00982 0.49044 0.29685 0.0
C542 C -0.008 0.49447 0.32208 0.0
C543 C 0.97187 0.4607 0.3333 0.0
C544 C 0.97278 0.46279 0.35697 0.0
C545 C -0.00563 0.49876 0.37006 0.0
H546 H 0.03069 0.55712 0.3271 0.0
C547 C 0.01506 0.53263 0.35886 0.0
C548 C 0.01387 0.53055 0.33511 0.0
H549 H 0.03218 0.56077 0.36843 0.0
H550 H 0.95366 0.44527 0.21342 0.0
H551 H 0.95752 0.45059 0.25444 0.0
H552 H 0.0219 0.57604 0.25608 0.0
H553 H 0.01703 0.57053 0.21462 0.0
H554 H 0.00102 0.54674 0.29229 0.0
H555 H -0.01618 0.46242 0.28876 0.0
H556 H 0.95505 0.43251 0.32371 0.0
H557 H 0.95668 0.43606 0.36499 0.0
loop_
_geom_bond_atom_site_label_1
_geom_bond_atom_site_label_2
_geom_bond_distance
_geom_bond_site_symmetry_2
_ccdc_geom_bond_type
Zn0 O6 1.969 . S
Zn0 O7 1.965 . S
Zn0 O11 2.024 . S
Zn0 O16 1.969 . S
Zn1 O8 1.969 . S
Zn1 O14 1.969 . S
Zn1 O15 1.965 . S
Zn1 O17 2.024 . S
C2 O3 1.229 . S
C2 O11 1.058 . S
O3 C2 1.229 . S
C4 O5 1.229 . S
C4 O17 1.058 . S
O5 C4 1.229 . S
O6 Zn0 1.969 . S
O6 C9 1.267 . S
O7 Zn0 1.965 . S
O7 C18 1.260 1_455 S
O8 Zn1 1.969 . S
O8 C18 1.258 . S
C9 O6 1.267 . S
C9 O10 1.228 . S
O10 C9 1.228 . S
O11 Zn0 2.024 . S
O11 C2 1.058 . S
C12 O13 1.228 . S
C12 O14 1.267 . S
O13 C12 1.228 . S
O14 Zn1 1.969 . S
O14 C12 1.267 . S
O15 Zn1 1.965 . S
O15 C19 1.260 1_655 S
O16 Zn0 1.969 . S
O16 C19 1.258 . S
O17 Zn1 2.024 . S
O17 C4 1.058 . S
C18 O7 1.260 1_655 S
C18 O8 1.258 . S
C19 O15 1.260 1_455 S
C19 O16 1.258 . S
Zn20 O26 1.969 . S
Zn20 O27 1.965 . S
Zn20 O31 2.024 . S
Zn20 O36 1.969 . S
Zn21 O28 1.969 . S
Zn21 O34 1.969 . S
Zn21 O35 1.965 . S
Zn21 O37 2.024 . S
C22 O23 1.229 . S
C22 O31 1.058 . S
O23 C22 1.229 . S
C24 O25 1.229 . S
C24 O37 1.058 . S
O25 C24 1.229 . S
O26 Zn20 1.969 . S
O26 C29 1.267 . S
O27 Zn20 1.965 . S
O27 C38 1.260 . S
O28 Zn21 1.969 . S
O28 C38 1.258 1_565 S
C29 O26 1.267 . S
C29 O30 1.228 . S
O30 C29 1.228 . S
O31 Zn20 2.024 . S
O31 C22 1.058 . S
C32 O33 1.228 . S
C32 O34 1.267 . S
O33 C32 1.228 . S
O34 Zn21 1.969 . S
O34 C32 1.267 . S
O35 Zn21 1.965 . S
O35 C39 1.260 1_565 S
O36 Zn20 1.969 . S
O36 C39 1.258 . S
O37 Zn21 2.024 . S
O37 C24 1.058 . S
C38 O27 1.260 . S
C38 O28 1.258 1_545 S
C39 O35 1.260 1_545 S
C39 O36 1.258 . S
Zn40 O46 1.969 . S
Zn40 O47 1.965 . S
Zn40 O51 2.024 . S
Zn40 O56 1.969 . S
Zn41 O48 1.969 . S
Zn41 O54 1.969 . S
Zn41 O55 1.965 . S
Zn41 O57 2.024 . S
C42 O43 1.229 . S
C42 O51 1.058 . S
O43 C42 1.229 . S
C44 O45 1.229 . S
C44 O57 1.058 . S
O45 C44 1.229 . S
O46 Zn40 1.969 . S
O46 C49 1.267 . S
O47 Zn40 1.965 . S
O47 C58 1.260 . S
O48 Zn41 1.969 . S
O48 C58 1.258 . S
C49 O46 1.267 . S
C49 O50 1.228 . S
O50 C49 1.228 . S
O51 Zn40 2.024 . S
O51 C42 1.058 . S
C52 O53 1.228 . S
C52 O54 1.267 . S
O53 C52 1.228 . S
O54 Zn41 1.969 . S
O54 C52 1.267 . S
O55 Zn41 1.965 . S
O55 C59 1.260 . S
O56 Zn40 1.969 . S
O56 C59 1.258 . S
O57 Zn41 2.024 . S
O57 C44 1.058 . S
C58 O47 1.260 . S
C58 O48 1.258 . S
C59 O55 1.260 . S
C59 O56 1.258 . S
O60 Cd61 2.300 . S
O60 C67 1.275 . S
Cd61 O60 2.300 . S
Cd61 O69 2.381 . S
Cd61 O70 2.378 . S
O62 Cd63 2.385 . S
O62 C67 1.255 1_565 S
Cd63 O62 2.385 . S
Cd63 O64 2.317 . S
O64 Cd63 2.317 . S
O64 C65 1.232 . S
C65 O64 1.232 . S
C65 O66 1.218 . S
O66 C65 1.218 . S
C67 O60 1.275 . S
C67 O62 1.255 1_545 S
C68 O69 1.258 . S
C68 O70 1.256 . S
O69 Cd61 2.381 . S
O69 C68 1.258 . S
O70 Cd61 2.378 . S
O70 C68 1.256 . S
O71 Cd72 2.300 . S
O71 C78 1.275 . S
Cd72 O71 2.300 . S
Cd72 O80 2.381 . S
Cd72 O81 2.378 . S
O73 Cd74 2.385 . S
O73 C78 1.255 . S
Cd74 O73 2.385 . S
Cd74 O75 2.317 . S
O75 Cd74 2.317 . S
O75 C76 1.232 . S
C76 O75 1.232 . S
C76 O77 1.218 . S
O77 C76 1.218 . S
C78 O71 1.275 . S
C78 O73 1.255 . S
C79 O80 1.258 . S
C79 O81 1.256 . S
O80 Cd72 2.381 . S
O80 C79 1.258 . S
O81 Cd72 2.378 . S
O81 C79 1.256 . S
O82 Cd83 2.300 . S
O82 C89 1.275 . S
Cd83 O82 2.300 . S
Cd83 O91 2.381 . S
Cd83 O92 2.378 . S
O84 Cd85 2.385 . S
O84 C89 1.255 1_655 S
Cd85 O84 2.385 . S
Cd85 O86 2.317 . S
O86 Cd85 2.317 . S
O86 C87 1.232 . S
C87 O86 1.232 . S
C87 O88 1.218 . S
O88 C87 1.218 . S
C89 O82 1.275 . S
C89 O84 1.255 1_455 S
C90 O91 1.258 . S
C90 O92 1.256 . S
O91 Cd83 2.381 . S
O91 C90 1.258 . S
O92 Cd83 2.378 . S
O92 C90 1.256 . S
O93 Cd94 2.300 . S
O93 C100 1.275 . S
Cd94 O93 2.300 . S
Cd94 O102 2.381 . S
Cd94 O103 2.378 . S
O95 Cd96 2.385 . S
O95 C100 1.255 1_655 S
Cd96 O95 2.385 . S
Cd96 O97 2.317 . S
O97 Cd96 2.317 . S
O97 C98 1.232 . S
C98 O97 1.232 . S
C98 O99 1.218 . S
O99 C98 1.218 . S
C100 O93 1.275 . S
C100 O95 1.255 1_455 S
C101 O102 1.258 . S
C101 O103 1.256 . S
O102 Cd94 2.381 . S
O102 C101 1.258 . S
O103 Cd94 2.378 . S
O103 C101 1.256 . S
O104 Cd105 2.300 . S
O104 C111 1.275 1_565 S
Cd105 O104 2.300 . S
Cd105 O113 2.381 . S
Cd105 O114 2.378 . S
O106 Cd107 2.385 . S
O106 C111 1.255 . S
Cd107 O106 2.385 . S
Cd107 O108 2.317 . S
O108 Cd107 2.317 . S
O108 C109 1.232 . S
C109 O108 1.232 . S
C109 O110 1.218 . S
O110 C109 1.218 . S
C111 O104 1.275 1_545 S
C111 O106 1.255 . S
C112 O113 1.258 . S
C112 O114 1.256 . S
O113 Cd105 2.381 . S
O113 C112 1.258 . S
O114 Cd105 2.378 . S
O114 C112 1.256 . S
O115 Cd116 2.300 . S
O115 C122 1.275 . S
Cd116 O115 2.300 . S
Cd116 O124 2.381 . S
Cd116 O125 2.378 . S
O117 Cd118 2.385 . S
O117 C122 1.255 . S
Cd118 O117 2.385 . S
Cd118 O119 2.317 . S
O119 Cd118 2.317 . S
O119 C120 1.232 . S
C120 O119 1.232 . S
C120 O121 1.218 . S
O121 C120 1.218 . S
C122 O115 1.275 . S
C122 O117 1.255 . S
C123 O124 1.258 . S
C123 O125 1.256 . S
O124 Cd116 2.381 . S
O124 C123 1.258 . S
O125 Cd116 2.378 . S
O125 C123 1.256 . S
C126 C127 1.386 . S
C126 C128 1.383 . S
C126 H142 0.951 . S
C127 C126 1.386 . S
C127 C131 1.383 . S
C128 C126 1.383 . S
C128 C129 1.402 . S
C128 H143 0.951 . S
C129 C128 1.402 . S
C129 C130 1.375 . S
C129 C132 1.481 . S
C130 C129 1.375 . S
C130 C131 1.367 . S
C130 H144 0.951 . S
C131 C127 1.383 . S
C131 C130 1.367 . S
C131 H145 0.950 . S
C132 C129 1.481 . S
C132 C133 1.297 . S
C132 H146 0.950 . S
C133 C132 1.297 . S
C133 C134 1.479 . S
C133 H147 0.950 . S
C134 C133 1.479 . S
C134 C135 1.375 . S
C134 C140 1.404 . S
C135 C134 1.375 . S
C135 C136 1.369 . S
C135 H148 0.950 . S
C136 C135 1.369 . S
C136 C137 1.392 . S
C136 H149 0.951 . S
C137 C136 1.392 . S
C137 C139 1.384 . S
H138 C140 0.949 . S
C139 C137 1.384 . S
C139 C140 1.385 . S
C139 H141 0.950 . S
C140 C134 1.404 . S
C140 H138 0.949 . S
C140 C139 1.385 . S
H141 C139 0.950 . S
H142 C126 0.951 . S
H143 C128 0.951 . S
H144 C130 0.951 . S
H145 C131 0.950 . S
H146 C132 0.950 . S
H147 C133 0.950 . S
H148 C135 0.950 . S
H149 C136 0.951 . S
C150 C151 1.386 . S
C150 C152 1.383 . S
C150 H166 0.951 . S
C151 C150 1.386 . S
C151 C155 1.383 . S
C152 C150 1.383 . S
C152 C153 1.402 . S
C152 H167 0.951 . S
C153 C152 1.402 . S
C153 C154 1.375 . S
C153 C156 1.481 . S
C154 C153 1.375 . S
C154 C155 1.367 . S
C154 H168 0.951 . S
C155 C151 1.383 . S
C155 C154 1.367 . S
C155 H169 0.950 . S
C156 C153 1.481 . S
C156 C157 1.297 . S
C156 H170 0.950 . S
C157 C156 1.297 . S
C157 C158 1.479 . S
C157 H171 0.950 . S
C158 C157 1.479 . S
C158 C159 1.375 . S
C158 C164 1.404 . S
C159 C158 1.375 . S
C159 C160 1.369 . S
C159 H172 0.950 . S
C160 C159 1.369 . S
C160 C161 1.392 . S
C160 H173 0.951 . S
C161 C160 1.392 . S
C161 C163 1.384 . S
H162 C164 0.949 . S
C163 C161 1.384 . S
C163 C164 1.385 . S
C163 H165 0.950 . S
C164 C158 1.404 . S
C164 H162 0.949 . S
C164 C163 1.385 . S
H165 C163 0.950 . S
H166 C150 0.951 . S
H167 C152 0.951 . S
H168 C154 0.951 . S
H169 C155 0.950 . S
H170 C156 0.950 . S
H171 C157 0.950 . S
H172 C159 0.950 . S
H173 C160 0.951 . S
C174 C175 1.386 . S
C174 C176 1.383 . S
C174 H190 0.951 . S
C175 C174 1.386 . S
C175 C179 1.383 . S
C176 C174 1.383 . S
C176 C177 1.402 . S
C176 H191 0.951 . S
C177 C176 1.402 . S
C177 C178 1.375 . S
C177 C180 1.481 . S
C178 C177 1.375 . S
C178 C179 1.367 . S
C178 H192 0.951 . S
C179 C175 1.383 . S
C179 C178 1.367 . S
C179 H193 0.950 . S
C180 C177 1.481 . S
C180 C181 1.297 . S
C180 H194 0.950 . S
C181 C180 1.297 . S
C181 C182 1.479 . S
C181 H195 0.950 . S
C182 C181 1.479 . S
C182 C183 1.375 . S
C182 C188 1.404 . S
C183 C182 1.375 . S
C183 C184 1.369 . S
C183 H196 0.950 . S
C184 C183 1.369 . S
C184 C185 1.392 . S
C184 H197 0.951 . S
C185 C184 1.392 . S
C185 C187 1.384 . S
H186 C188 0.949 . S
C187 C185 1.384 . S
C187 C188 1.385 . S
C187 H189 0.950 . S
C188 C182 1.404 . S
C188 H186 0.949 . S
C188 C187 1.385 . S
H189 C187 0.950 . S
H190 C174 0.951 . S
H191 C176 0.951 . S
H192 C178 0.951 . S
H193 C179 0.950 . S
H194 C180 0.950 . S
H195 C181 0.950 . S
H196 C183 0.950 . S
H197 C184 0.951 . S
C198 C199 1.386 . S
C198 C200 1.383 . S
C198 H214 0.951 . S
C199 C198 1.386 . S
C199 C203 1.383 . S
C200 C198 1.383 . S
C200 C201 1.402 . S
C200 H215 0.951 . S
C201 C200 1.402 . S
C201 C202 1.375 . S
C201 C204 1.481 . S
C202 C201 1.375 . S
C202 C203 1.367 . S
C202 H216 0.951 . S
C203 C199 1.383 . S
C203 C202 1.367 . S
C203 H217 0.950 . S
C204 C201 1.481 . S
C204 C205 1.297 . S
C204 H218 0.950 . S
C205 C204 1.297 . S
C205 C206 1.479 . S
C205 H219 0.950 . S
C206 C205 1.479 . S
C206 C207 1.375 . S
C206 C212 1.404 . S
C207 C206 1.375 . S
C207 C208 1.369 . S
C207 H220 0.950 . S
C208 C207 1.369 . S
C208 C209 1.392 . S
C208 H221 0.951 . S
C209 C208 1.392 . S
C209 C211 1.384 . S
H210 C212 0.949 . S
C211 C209 1.384 . S
C211 C212 1.385 . S
C211 H213 0.950 . S
C212 C206 1.404 . S
C212 H210 0.949 . S
C212 C211 1.385 . S
H213 C211 0.950 . S
H214 C198 0.951 . S
H215 C200 0.951 . S
H216 C202 0.951 . S
H217 C203 0.950 . S
H218 C204 0.950 . S
H219 C205 0.950 . S
H220 C207 0.950 . S
H221 C208 0.951 . S
C222 C223 1.386 . S
C222 C224 1.383 . S
C222 H238 0.951 . S
C223 C222 1.386 . S
C223 C227 1.383 . S
C224 C222 1.383 . S
C224 C225 1.402 . S
C224 H239 0.951 . S
C225 C224 1.402 . S
C225 C226 1.375 . S
C225 C228 1.481 . S
C226 C225 1.375 . S
C226 C227 1.367 . S
C226 H240 0.951 . S
C227 C223 1.383 . S
C227 C226 1.367 . S
C227 H241 0.950 . S
C228 C225 1.481 . S
C228 C229 1.297 . S
C228 H242 0.950 . S
C229 C228 1.297 . S
C229 C230 1.479 . S
C229 H243 0.950 . S
C230 C229 1.479 . S
C230 C231 1.375 . S
C230 C236 1.404 . S
C231 C230 1.375 . S
C231 C232 1.369 . S
C231 H244 0.950 . S
C232 C231 1.369 . S
C232 C233 1.392 . S
C232 H245 0.951 . S
C233 C232 1.392 . S
C233 C235 1.384 . S
H234 C236 0.949 . S
C235 C233 1.384 . S
C235 C236 1.385 . S
C235 H237 0.950 . S
C236 C230 1.404 . S
C236 H234 0.949 . S
C236 C235 1.385 . S
H237 C235 0.950 . S
H238 C222 0.951 . S
H239 C224 0.951 . S
H240 C226 0.951 . S
H241 C227 0.950 . S
H242 C228 0.950 . S
H243 C229 0.950 . S
H244 C231 0.950 . S
H245 C232 0.951 . S
C246 C247 1.386 . S
C246 C248 1.383 . S
C246 H262 0.951 . S
C247 C246 1.386 . S
C247 C251 1.383 . S
C248 C246 1.383 . S
C248 C249 1.402 . S
C248 H263 0.951 . S
C249 C248 1.402 . S
C249 C250 1.375 . S
C249 C252 1.481 . S
C250 C249 1.375 . S
C250 C251 1.367 . S
C250 H264 0.951 . S
C251 C247 1.383 . S
C251 C250 1.367 . S
C251 H265 0.950 . S
C252 C249 1.481 . S
C252 C253 1.297 . S
C252 H266 0.950 . S
C253 C252 1.297 . S
C253 C254 1.479 . S
C253 H267 0.950 . S
C254 C253 1.479 . S
C254 C255 1.375 . S
C254 C260 1.404 . S
C255 C254 1.375 . S
C255 C256 1.369 . S
C255 H268 0.950 . S
C256 C255 1.369 . S
C256 C257 1.392 . S
C256 H269 0.951 . S
C257 C256 1.392 . S
C257 C259 1.384 . S
H258 C260 0.949 . S
C259 C257 1.384 . S
C259 C260 1.385 . S
C259 H261 0.950 . S
C260 C254 1.404 . S
C260 H258 0.949 . S
C260 C259 1.385 . S
H261 C259 0.950 . S
H262 C246 0.951 . S
H263 C248 0.951 . S
H264 C250 0.951 . S
H265 C251 0.950 . S
H266 C252 0.950 . S
H267 C253 0.950 . S
H268 C255 0.950 . S
H269 C256 0.951 . S
C270 C271 1.386 . S
C270 C272 1.383 . S
C270 H286 0.951 . S
C271 C270 1.386 . S
C271 C275 1.383 . S
C272 C270 1.383 . S
C272 C273 1.402 . S
C272 H287 0.951 . S
C273 C272 1.402 . S
C273 C274 1.375 . S
C273 C276 1.481 . S
C274 C273 1.375 . S
C274 C275 1.367 . S
C274 H288 0.951 . S
C275 C271 1.383 . S
C275 C274 1.367 . S
C275 H289 0.950 . S
C276 C273 1.481 . S
C276 C277 1.297 . S
C276 H290 0.950 . S
C277 C276 1.297 . S
C277 C278 1.479 . S
C277 H291 0.950 . S
C278 C277 1.479 . S
C278 C279 1.375 . S
C278 C284 1.404 . S
C279 C278 1.375 . S
C279 C280 1.369 . S
C279 H292 0.950 . S
C280 C279 1.369 . S
C280 C281 1.392 . S
C280 H293 0.951 . S
C281 C280 1.392 . S
C281 C283 1.384 . S
H282 C284 0.949 . S
C283 C281 1.384 . S
C283 C284 1.385 . S
C283 H285 0.950 . S
C284 C278 1.404 . S
C284 H282 0.949 . S
C284 C283 1.385 . S
H285 C283 0.950 . S
H286 C270 0.951 . S
H287 C272 0.951 . S
H288 C274 0.951 . S
H289 C275 0.950 . S
H290 C276 0.950 . S
H291 C277 0.950 . S
H292 C279 0.950 . S
H293 C280 0.951 . S
C294 C295 1.386 . S
C294 C296 1.383 . S
C294 H310 0.951 . S
C295 C294 1.386 . S
C295 C299 1.383 . S
C296 C294 1.383 . S
C296 C297 1.402 . S
C296 H311 0.951 . S
C297 C296 1.402 . S
C297 C298 1.375 . S
C297 C300 1.481 . S
C298 C297 1.375 . S
C298 C299 1.367 . S
C298 H312 0.951 . S
C299 C295 1.383 . S
C299 C298 1.367 . S
C299 H313 0.950 . S
C300 C297 1.481 . S
C300 C301 1.297 . S
C300 H314 0.950 . S
C301 C300 1.297 . S
C301 C302 1.479 . S
C301 H315 0.950 . S
C302 C301 1.479 . S
C302 C303 1.375 . S
C302 C308 1.404 . S
C303 C302 1.375 . S
C303 C304 1.369 . S
C303 H316 0.950 . S
C304 C303 1.369 . S
C304 C305 1.392 . S
C304 H317 0.951 . S
C305 C304 1.392 . S
C305 C307 1.384 . S
H306 C308 0.949 . S
C307 C305 1.384 . S
C307 C308 1.385 . S
C307 H309 0.950 . S
C308 C302 1.404 . S
C308 H306 0.949 . S
C308 C307 1.385 . S
H309 C307 0.950 . S
H310 C294 0.951 . S
H311 C296 0.951 . S
H312 C298 0.951 . S
H313 C299 0.950 . S
H314 C300 0.950 . S
H315 C301 0.950 . S
H316 C303 0.950 . S
H317 C304 0.951 . S
C318 C319 1.386 . S
C318 C320 1.383 . S
C318 H334 0.951 . S
C319 C318 1.386 . S
C319 C323 1.383 . S
C320 C318 1.383 . S
C320 C321 1.402 . S
C320 H335 0.951 . S
C321 C320 1.402 . S
C321 C322 1.375 . S
C321 C324 1.481 . S
C322 C321 1.375 . S
C322 C323 1.367 . S
C322 H336 0.951 . S
C323 C319 1.383 . S
C323 C322 1.367 . S
C323 H337 0.950 . S
C324 C321 1.481 . S
C324 C325 1.297 . S
C324 H338 0.950 . S
C325 C324 1.297 . S
C325 C326 1.479 . S
C325 H339 0.950 . S
C326 C325 1.479 . S
C326 C327 1.375 . S
C326 C332 1.404 . S
C327 C326 1.375 . S
C327 C328 1.369 . S
C327 H340 0.950 . S
C328 C327 1.369 . S
C328 C329 1.392 . S
C328 H341 0.951 . S
C329 C328 1.392 . S
C329 C331 1.384 . S
H330 C332 0.949 . S
C331 C329 1.384 . S
C331 C332 1.385 . S
C331 H333 0.950 . S
C332 C326 1.404 . S
C332 H330 0.949 . S
C332 C331 1.385 . S
H333 C331 0.950 . S
H334 C318 0.951 . S
H335 C320 0.951 . S
H336 C322 0.951 . S
H337 C323 0.950 . S
H338 C324 0.950 . S
H339 C325 0.950 . S
H340 C327 0.950 . S
H341 C328 0.951 . S
C342 C343 1.386 . S
C342 C344 1.383 . S
C342 H358 0.951 . S
C343 C342 1.386 . S
C343 C347 1.383 . S
C344 C342 1.383 . S
C344 C345 1.402 . S
C344 H359 0.951 . S
C345 C344 1.402 . S
C345 C346 1.375 . S
C345 C348 1.481 . S
C346 C345 1.375 . S
C346 C347 1.367 . S
C346 H360 0.951 . S
C347 C343 1.383 . S
C347 C346 1.367 . S
C347 H361 0.950 . S
C348 C345 1.481 . S
C348 C349 1.297 . S
C348 H362 0.950 . S
C349 C348 1.297 . S
C349 C350 1.479 . S
C349 H363 0.950 . S
C350 C349 1.479 . S
C350 C351 1.375 . S
C350 C356 1.404 . S
C351 C350 1.375 . S
C351 C352 1.369 . S
C351 H364 0.950 . S
C352 C351 1.369 . S
C352 C353 1.392 . S
C352 H365 0.951 . S
C353 C352 1.392 . S
C353 C355 1.384 . S
H354 C356 0.949 . S
C355 C353 1.384 . S
C355 C356 1.385 . S
C355 H357 0.950 . S
C356 C350 1.404 . S
C356 H354 0.949 . S
C356 C355 1.385 . S
H357 C355 0.950 . S
H358 C342 0.951 . S
H359 C344 0.951 . S
H360 C346 0.951 . S
H361 C347 0.950 . S
H362 C348 0.950 . S
H363 C349 0.950 . S
H364 C351 0.950 . S
H365 C352 0.951 . S
C366 C367 1.386 . S
C366 C368 1.383 . S
C366 H382 0.951 . S
C367 C366 1.386 . S
C367 C371 1.383 . S
C368 C366 1.383 . S
C368 C369 1.402 . S
C368 H383 0.951 . S
C369 C368 1.402 . S
C369 C370 1.375 . S
C369 C372 1.481 . S
C370 C369 1.375 . S
C370 C371 1.367 . S
C370 H384 0.951 . S
C371 C367 1.383 . S
C371 C370 1.367 . S
C371 H385 0.950 . S
C372 C369 1.481 . S
C372 C373 1.297 . S
C372 H386 0.950 . S
C373 C372 1.297 . S
C373 C374 1.479 . S
C373 H387 0.950 . S
C374 C373 1.479 . S
C374 C375 1.375 . S
C374 C380 1.404 . S
C375 C374 1.375 . S
C375 C376 1.369 . S
C375 H388 0.950 . S
C376 C375 1.369 . S
C376 C377 1.392 . S
C376 H389 0.951 . S
C377 C376 1.392 . S
C377 C379 1.384 . S
H378 C380 0.949 . S
C379 C377 1.384 . S
C379 C380 1.385 . S
C379 H381 0.950 . S
C380 C374 1.404 . S
C380 H378 0.949 . S
C380 C379 1.385 . S
H381 C379 0.950 . S
H382 C366 0.951 . S
H383 C368 0.951 . S
H384 C370 0.951 . S
H385 C371 0.950 . S
H386 C372 0.950 . S
H387 C373 0.950 . S
H388 C375 0.950 . S
H389 C376 0.951 . S
C390 C391 1.386 . S
C390 C392 1.383 . S
C390 H406 0.951 . S
C391 C390 1.386 . S
C391 C395 1.383 . S
C392 C390 1.383 . S
C392 C393 1.402 . S
C392 H407 0.951 . S
C393 C392 1.402 . S
C393 C394 1.375 . S
C393 C396 1.481 . S
C394 C393 1.375 . S
C394 C395 1.367 . S
C394 H408 0.951 . S
C395 C391 1.383 . S
C395 C394 1.367 . S
C395 H409 0.950 . S
C396 C393 1.481 . S
C396 C397 1.297 . S
C396 H410 0.950 . S
C397 C396 1.297 . S
C397 C398 1.479 . S
C397 H411 0.950 . S
C398 C397 1.479 . S
C398 C399 1.375 . S
C398 C404 1.404 . S
C399 C398 1.375 . S
C399 C400 1.369 . S
C399 H412 0.950 . S
C400 C399 1.369 . S
C400 C401 1.392 . S
C400 H413 0.951 . S
C401 C400 1.392 . S
C401 C403 1.384 . S
H402 C404 0.949 . S
C403 C401 1.384 . S
C403 C404 1.385 . S
C403 H405 0.950 . S
C404 C398 1.404 . S
C404 H402 0.949 . S
C404 C403 1.385 . S
H405 C403 0.950 . S
H406 C390 0.951 . S
H407 C392 0.951 . S
H408 C394 0.951 . S
H409 C395 0.950 . S
H410 C396 0.950 . S
H411 C397 0.950 . S
H412 C399 0.950 . S
H413 C400 0.951 . S
C414 C415 1.386 . S
C414 C416 1.383 . S
C414 H430 0.951 . S
C415 C414 1.386 . S
C415 C419 1.383 1_455 S
C416 C414 1.383 . S
C416 C417 1.402 . S
C416 H431 0.951 . S
C417 C416 1.402 . S
C417 C418 1.375 1_455 S
C417 C420 1.481 . S
C418 C417 1.375 1_655 S
C418 C419 1.367 . S
C418 H432 0.951 . S
C419 C415 1.383 1_655 S
C419 C418 1.367 . S
C419 H433 0.950 . S
C420 C417 1.481 . S
C420 C421 1.297 . S
C420 H434 0.950 . S
C421 C420 1.297 . S
C421 C422 1.479 1_554 S
C421 H435 0.950 . S
C422 C421 1.479 1_556 S
C422 C423 1.375 . S
C422 C428 1.404 . S
C423 C422 1.375 . S
C423 C424 1.369 . S
C423 H436 0.950 . S
C424 C423 1.369 . S
C424 C425 1.392 . S
C424 H437 0.951 . S
C425 C424 1.392 . S
C425 C427 1.384 . S
H426 C428 0.949 . S
C427 C425 1.384 . S
C427 C428 1.385 . S
C427 H429 0.950 . S
C428 C422 1.404 . S
C428 H426 0.949 . S
C428 C427 1.385 . S
H429 C427 0.950 . S
H430 C414 0.951 . S
H431 C416 0.951 . S
H432 C418 0.951 . S
H433 C419 0.950 . S
H434 C420 0.950 . S
H435 C421 0.950 . S
H436 C423 0.950 . S
H437 C424 0.951 . S
C438 C439 1.386 . S
C438 C440 1.383 . S
C438 H454 0.951 1_545 S
C439 C438 1.386 . S
C439 C443 1.383 . S
C440 C438 1.383 . S
C440 C441 1.402 . S
C440 H455 0.953 1_545 S
C441 C440 1.402 . S
C441 C442 1.375 . S
C441 C444 1.481 . S
C442 C441 1.375 . S
C442 C443 1.367 . S
C442 H456 0.951 . S
C443 C439 1.383 . S
C443 C442 1.367 . S
C443 H457 0.950 . S
C444 C441 1.481 . S
C444 C445 1.297 . S
C444 H458 0.950 . S
C445 C444 1.297 . S
C445 C446 1.479 . S
C445 H459 0.950 . S
C446 C445 1.479 . S
C446 C447 1.375 . S
C446 C452 1.404 . S
C447 C446 1.375 . S
C447 C448 1.369 . S
C447 H460 0.950 1_545 S
C448 C447 1.369 . S
C448 C449 1.392 . S
C448 H461 0.951 1_545 S
C449 C448 1.392 . S
C449 C451 1.384 . S
H450 C452 0.949 . S
C451 C449 1.384 . S
C451 C452 1.385 . S
C451 H453 0.950 . S
C452 C446 1.404 . S
C452 H450 0.949 . S
C452 C451 1.385 . S
H453 C451 0.950 . S
H454 C438 0.951 1_565 S
H455 C440 0.953 1_565 S
H456 C442 0.951 . S
H457 C443 0.950 . S
H458 C444 0.950 . S
H459 C445 0.950 . S
H460 C447 0.950 1_565 S
H461 C448 0.951 1_565 S
C462 C463 1.386 . S
C462 C464 1.383 . S
C462 H478 0.951 . S
C463 C462 1.386 . S
C463 C467 1.383 . S
C464 C462 1.383 . S
C464 C465 1.402 . S
C464 H479 0.951 . S
C465 C464 1.402 . S
C465 C466 1.375 . S
C465 C468 1.481 . S
C466 C465 1.375 . S
C466 C467 1.367 . S
C466 H480 0.951 . S
C467 C463 1.383 . S
C467 C466 1.367 . S
C467 H481 0.950 . S
C468 C465 1.481 . S
C468 C469 1.297 . S
C468 H482 0.950 . S
C469 C468 1.297 . S
C469 C470 1.479 . S
C469 H483 0.950 . S
C470 C469 1.479 . S
C470 C471 1.375 . S
C470 C476 1.404 . S
C471 C470 1.375 . S
C471 C472 1.369 . S
C471 H484 0.950 . S
C472 C471 1.369 . S
C472 C473 1.392 . S
C472 H485 0.951 . S
C473 C472 1.392 . S
C473 C475 1.384 . S
H474 C476 0.949 . S
C475 C473 1.384 . S
C475 C476 1.385 . S
C475 H477 0.950 . S
C476 C470 1.404 . S
C476 H474 0.949 . S
C476 C475 1.385 . S
H477 C475 0.950 . S
H478 C462 0.951 . S
H479 C464 0.951 . S
H480 C466 0.951 . S
H481 C467 0.950 . S
H482 C468 0.950 . S
H483 C469 0.950 . S
H484 C471 0.950 . S
H485 C472 0.951 . S
C486 C487 1.386 . S
C486 C488 1.383 . S
C486 H502 0.951 1_545 S
C487 C486 1.386 . S
C487 C491 1.383 . S
C488 C486 1.383 . S
C488 C489 1.402 . S
C488 H503 0.971 . S
C489 C488 1.402 . S
C489 C490 1.375 . S
C489 C492 1.481 . S
C490 C489 1.375 . S
C490 C491 1.367 . S
C490 H504 0.951 . S
C491 C487 1.383 . S
C491 C490 1.367 . S
C491 H505 0.950 . S
C492 C489 1.481 . S
C492 C493 1.297 . S
C492 H506 0.950 . S
C493 C492 1.297 . S
C493 C494 1.479 . S
C493 H507 0.950 . S
C494 C493 1.479 . S
C494 C495 1.375 . S
C494 C500 1.404 . S
C495 C494 1.375 . S
C495 C496 1.369 . S
C495 H508 0.950 . S
C496 C495 1.369 . S
C496 C497 1.392 . S
C496 H509 0.924 1_545 S
C497 C496 1.392 . S
C497 C499 1.384 . S
H498 C500 0.949 . S
C499 C497 1.384 . S
C499 C500 1.385 . S
C499 H501 0.950 . S
C500 C494 1.404 . S
C500 H498 0.949 . S
C500 C499 1.385 . S
H501 C499 0.950 . S
H502 C486 0.951 1_565 S
H503 C488 0.971 . S
H504 C490 0.951 . S
H505 C491 0.950 . S
H506 C492 0.950 . S
H507 C493 0.950 . S
H508 C495 0.950 . S
H509 C496 0.924 1_565 S
C510 C511 1.386 . S
C510 C512 1.383 . S
C510 H526 0.951 . S
C511 C510 1.386 . S
C511 C515 1.383 . S
C512 C510 1.383 . S
C512 C513 1.402 . S
C512 H527 0.951 . S
C513 C512 1.402 . S
C513 C514 1.375 . S
C513 C516 1.481 . S
C514 C513 1.375 . S
C514 C515 1.367 . S
C514 H528 0.951 . S
C515 C511 1.383 . S
C515 C514 1.367 . S
C515 H529 0.950 . S
C516 C513 1.481 . S
C516 C517 1.297 . S
C516 H530 0.950 . S
C517 C516 1.297 . S
C517 C518 1.479 1_556 S
C517 H531 0.950 . S
C518 C517 1.479 1_554 S
C518 C519 1.375 . S
C518 C524 1.404 . S
C519 C518 1.375 . S
C519 C520 1.369 . S
C519 H532 0.950 . S
C520 C519 1.369 . S
C520 C521 1.392 . S
C520 H533 0.951 . S
C521 C520 1.392 . S
C521 C523 1.384 . S
H522 C524 0.949 . S
C523 C521 1.384 . S
C523 C524 1.385 . S
C523 H525 0.950 . S
C524 C518 1.404 . S
C524 H522 0.949 . S
C524 C523 1.385 . S
H525 C523 0.950 . S
H526 C510 0.951 . S
H527 C512 0.951 . S
H528 C514 0.951 . S
H529 C515 0.950 . S
H530 C516 0.950 . S
H531 C517 0.950 . S
H532 C519 0.950 . S
H533 C520 0.951 . S
C534 C535 1.410 . S
C534 C536 1.383 . S
C534 H550 0.951 . S
C535 C534 1.410 . S
C535 C539 1.355 1_655 S
C536 C534 1.383 . S
C536 C537 1.402 1_655 S
C536 H551 0.951 . S
C537 C536 1.402 1_455 S
C537 C538 1.375 . S
C537 C540 1.481 . S
C538 C537 1.375 . S
C538 C539 1.367 . S
C538 H552 0.951 . S
C539 C535 1.355 1_455 S
C539 C538 1.367 . S
C539 H553 0.950 . S
C540 C537 1.481 . S
C540 C541 1.297 1_455 S
C540 H554 0.950 . S
C541 C540 1.297 1_655 S
C541 C542 1.479 . S
C541 H555 0.950 . S
C542 C541 1.479 . S
C542 C543 1.375 . S
C542 C548 1.404 1_655 S
C543 C542 1.375 . S
C543 C544 1.369 . S
C543 H556 0.950 . S
C544 C543 1.369 . S
C544 C545 1.419 . S
C544 H557 0.951 . S
C545 C544 1.419 . S
C545 C547 1.360 1_655 S
H546 C548 0.949 . S
C547 C545 1.360 1_455 S
C547 C548 1.385 . S
C547 H549 0.950 . S
C548 C542 1.404 1_455 S
C548 H546 0.949 . S
C548 C547 1.385 . S
H549 C547 0.950 . S
H550 C534 0.951 . S
H551 C536 0.951 . S
H552 C538 0.951 . S
H553 C539 0.950 . S
H554 C540 0.950 . S
H555 C541 0.950 . S
H556 C543 0.950 . S
H557 C544 0.951 . S
C127 C2 1.535 . S
C137 C120 1.457 . S
C151 C22 1.464 . S
C161 C98 1.316 . S
C175 C44 1.197 . S
C185 C112 1.231 . S
C199 C4 1.337 . S
C209 C123 1.373 . S
C233 C101 1.396 . S
C223 C24 1.399 . S
C257 C109 1.423 . S
C247 C42 1.612 . S
C271 C32 1.449 . S
C281 C76 1.272 . S
C295 C49 1.353 . S
C305 C87 1.098 . S
C319 C9 1.401 . S
C329 C65 1.263 . S
C353 C79 1.097 . S
C343 C29 1.082 . S
C377 C90 1.182 . S
C367 C52 1.157 . S
C391 C12 1.152 . S
C401 C68 1.169 . S
C425 C89 1.374 . S
C415 C18 1.473 1_455 S
C439 C38 1.476 . S
C449 C67 1.425 . S
C463 C58 1.460 . S
C473 C78 1.366 . S
C497 C111 1.442 . S
C487 C39 1.489 . S
C521 C122 1.402 . S
C511 C59 1.525 . S
C535 C19 1.495 1_655 S
C545 C100 1.514 1_655 S
