# Generated by pormake.
# Topology ocu, (6,8)-cn, num edge types: 1
# Building blocks:
#     Node 0, Type 0, BuildingBlock: KUMBUR_clean_sbu_1, # of connection points: 6
#     Node 1, Type 0, BuildingBlock: KUMBUR_clean_sbu_1, # of connection points: 6
#     Node 2, Type 0, BuildingBlock: KUMBUR_clean_sbu_1, # of connection points: 6
#     Node 3, Type 0, BuildingBlock: KUMBUR_clean_sbu_1, # of connection points: 6
#     Node 4, Type 0, BuildingBlock: KUMBUR_clean_sbu_1, # of connection points: 6
#     Node 5, Type 0, BuildingBlock: KUMBUR_clean_sbu_1, # of connection points: 6
#     Node 6, Type 0, BuildingBlock: KUMBUR_clean_sbu_1, # of connection points: 6
#     Node 7, Type 0, BuildingBlock: KUMBUR_clean_sbu_1, # of connection points: 6
#     Node 8, Type 1, BuildingBlock: AJUNOK_clean_sbu_0, # of connection points: 8
#     Node 9, Type 1, BuildingBlock: AJUNOK_clean_sbu_0, # of connection points: 8
#     Node 10, Type 1, BuildingBlock: AJUNOK_clean_sbu_0, # of connection points: 8
#     Node 11, Type 1, BuildingBlock: AJUNOK_clean_sbu_0, # of connection points: 8
#     Node 12, Type 1, BuildingBlock: AJUNOK_clean_sbu_0, # of connection points: 8
#     Node 13, Type 1, BuildingBlock: AJUNOK_clean_sbu_0, # of connection points: 8
#     Edge 14, Type (0, 1), BuildingBlock: ZUJKAS_clean_linker_0, # of connection points: 2
#     Edge 15, Type (0, 1), BuildingBlock: ZUJKAS_clean_linker_0, # of connection points: 2
#     Edge 16, Type (0, 1), BuildingBlock: ZUJKAS_clean_linker_0, # of connection points: 2
#     Edge 17, Type (0, 1), BuildingBlock: ZUJKAS_clean_linker_0, # of connection points: 2
#     Edge 18, Type (0, 1), BuildingBlock: ZUJKAS_clean_linker_0, # of connection points: 2
#     Edge 19, Type (0, 1), BuildingBlock: ZUJKAS_clean_linker_0, # of connection points: 2
#     Edge 20, Type (0, 1), BuildingBlock: ZUJKAS_clean_linker_0, # of connection points: 2
#     Edge 21, Type (0, 1), BuildingBlock: ZUJKAS_clean_linker_0, # of connection points: 2
#     Edge 22, Type (0, 1), BuildingBlock: ZUJKAS_clean_linker_0, # of connection points: 2
#     Edge 23, Type (0, 1), BuildingBlock: ZUJKAS_clean_linker_0, # of connection points: 2
#     Edge 24, Type (0, 1), BuildingBlock: ZUJKAS_clean_linker_0, # of connection points: 2
#     Edge 25, Type (0, 1), BuildingBlock: ZUJKAS_clean_linker_0, # of connection points: 2
#     Edge 26, Type (0, 1), BuildingBlock: ZUJKAS_clean_linker_0, # of connection points: 2
#     Edge 27, Type (0, 1), BuildingBlock: ZUJKAS_clean_linker_0, # of connection points: 2
#     Edge 28, Type (0, 1), BuildingBlock: ZUJKAS_clean_linker_0, # of connection points: 2
#     Edge 29, Type (0, 1), BuildingBlock: ZUJKAS_clean_linker_0, # of connection points: 2
#     Edge 30, Type (0, 1), BuildingBlock: ZUJKAS_clean_linker_0, # of connection points: 2
#     Edge 31, Type (0, 1), BuildingBlock: ZUJKAS_clean_linker_0, # of connection points: 2
#     Edge 32, Type (0, 1), BuildingBlock: ZUJKAS_clean_linker_0, # of connection points: 2
#     Edge 33, Type (0, 1), BuildingBlock: ZUJKAS_clean_linker_0, # of connection points: 2
#     Edge 34, Type (0, 1), BuildingBlock: ZUJKAS_clean_linker_0, # of connection points: 2
#     Edge 35, Type (0, 1), BuildingBlock: ZUJKAS_clean_linker_0, # of connection points: 2
#     Edge 36, Type (0, 1), BuildingBlock: ZUJKAS_clean_linker_0, # of connection points: 2
#     Edge 37, Type (0, 1), BuildingBlock: ZUJKAS_clean_linker_0, # of connection points: 2
#     Edge 38, Type (0, 1), BuildingBlock: ZUJKAS_clean_linker_0, # of connection points: 2
#     Edge 39, Type (0, 1), BuildingBlock: ZUJKAS_clean_linker_0, # of connection points: 2
#     Edge 40, Type (0, 1), BuildingBlock: ZUJKAS_clean_linker_0, # of connection points: 2
#     Edge 41, Type (0, 1), BuildingBlock: ZUJKAS_clean_linker_0, # of connection points: 2
#     Edge 42, Type (0, 1), BuildingBlock: ZUJKAS_clean_linker_0, # of connection points: 2
#     Edge 43, Type (0, 1), BuildingBlock: ZUJKAS_clean_linker_0, # of connection points: 2
#     Edge 44, Type (0, 1), BuildingBlock: ZUJKAS_clean_linker_0, # of connection points: 2
#     Edge 45, Type (0, 1), BuildingBlock: ZUJKAS_clean_linker_0, # of connection points: 2
#     Edge 46, Type (0, 1), BuildingBlock: ZUJKAS_clean_linker_0, # of connection points: 2
#     Edge 47, Type (0, 1), BuildingBlock: ZUJKAS_clean_linker_0, # of connection points: 2
#     Edge 48, Type (0, 1), BuildingBlock: ZUJKAS_clean_linker_0, # of connection points: 2
#     Edge 49, Type (0, 1), BuildingBlock: ZUJKAS_clean_linker_0, # of connection points: 2
#     Edge 50, Type (0, 1), BuildingBlock: ZUJKAS_clean_linker_0, # of connection points: 2
#     Edge 51, Type (0, 1), BuildingBlock: ZUJKAS_clean_linker_0, # of connection points: 2
#     Edge 52, Type (0, 1), BuildingBlock: ZUJKAS_clean_linker_0, # of connection points: 2
#     Edge 53, Type (0, 1), BuildingBlock: ZUJKAS_clean_linker_0, # of connection points: 2
#     Edge 54, Type (0, 1), BuildingBlock: ZUJKAS_clean_linker_0, # of connection points: 2
#     Edge 55, Type (0, 1), BuildingBlock: ZUJKAS_clean_linker_0, # of connection points: 2
#     Edge 56, Type (0, 1), BuildingBlock: ZUJKAS_clean_linker_0, # of connection points: 2
#     Edge 57, Type (0, 1), BuildingBlock: ZUJKAS_clean_linker_0, # of connection points: 2
#     Edge 58, Type (0, 1), BuildingBlock: ZUJKAS_clean_linker_0, # of connection points: 2
#     Edge 59, Type (0, 1), BuildingBlock: ZUJKAS_clean_linker_0, # of connection points: 2
#     Edge 60, Type (0, 1), BuildingBlock: ZUJKAS_clean_linker_0, # of connection points: 2
#     Edge 61, Type (0, 1), BuildingBlock: ZUJKAS_clean_linker_0, # of connection points: 2
# Relax obj value: 0.122
# Max RMSD: 0.192
# Mean RMSD: 0.161
data_MOF--net-ocu--node1-KUMBUR_clean_sbu_1--node2-AJUNOK_clean_sbu_0--edge1-ZUJKAS_clean_linker_0
_symmetry_space_group_name_H-M    P1
_symmetry_Int_Tables_number       1
_symmetry_cell_setting            triclinic
loop_
_symmetry_equiv_pos_as_xyz
'x, y, z'
_cell_length_a     54.583028
_cell_length_b     55.437967
_cell_length_c     48.531324
_cell_angle_alpha  102.58037
_cell_angle_beta   88.721377
_cell_angle_gamma 110.25243
loop_
_atom_site_label
_atom_site_type_symbol
_atom_site_fract_x
_atom_site_fract_y
_atom_site_fract_z
_atom_type_partial_charge
Tb0 Tb 0.2354 0.24455 0.21691 0.0
C1 C 0.3058 0.3077 0.33143 0.0
N2 N 0.31314 0.29742 0.30575 0.0
C3 C 0.35062 0.33703 0.30938 0.0
C4 C 0.32014 0.33354 0.34643 0.0
C5 C 0.33605 0.31121 0.29541 0.0
C6 C 0.34242 0.3484 0.33475 0.0
C7 C 0.2771 0.30154 0.37047 0.0
C8 C 0.28449 0.29184 0.3435 0.0
C9 C 0.2909 0.32756 0.38495 0.0
C10 C 0.3123 0.34351 0.37295 0.0
Tb11 Tb 0.28702 0.25487 0.28654 0.0
N12 N 0.27074 0.267 0.32854 0.0
C13 C 0.2561 0.28472 0.38212 0.0
C14 C 0.25139 0.24998 0.34047 0.0
C15 C 0.24344 0.25873 0.36722 0.0
H16 H 0.34372 0.30236 0.27677 0.0
H17 H 0.22772 0.24538 0.37643 0.0
H18 H 0.17977 0.19542 0.22488 0.0
H19 H 0.29205 0.25996 0.12582 0.0
H20 H 0.24222 0.22976 0.32937 0.0
H21 H 0.24986 0.29144 0.40282 0.0
H22 H 0.27825 0.27269 0.17391 0.0
H23 H 0.36846 0.34799 0.30082 0.0
H24 H 0.28537 0.33545 0.40559 0.0
H25 H 0.32299 0.36339 0.38463 0.0
H26 H 0.15525 0.15041 0.19891 0.0
H27 H 0.35394 0.36832 0.34563 0.0
H28 H 0.27049 0.21463 0.0973 0.0
N29 N 0.20979 0.20233 0.19538 0.0
C30 C 0.21691 0.19327 0.16917 0.0
C31 C 0.17282 0.16209 0.19053 0.0
C32 C 0.20269 0.16782 0.15308 0.0
C33 C 0.18725 0.18759 0.20553 0.0
C34 C 0.18078 0.152 0.16439 0.0
N35 N 0.25059 0.23473 0.17341 0.0
C36 C 0.26945 0.25273 0.16209 0.0
C37 C 0.24458 0.202 0.12991 0.0
C38 C 0.23762 0.21013 0.15763 0.0
C39 C 0.26464 0.22008 0.11855 0.0
C40 C 0.27693 0.24566 0.13462 0.0
H41 H 0.16934 0.13235 0.15268 0.0
H42 H 0.19962 0.13973 0.11333 0.0
H43 H 0.23628 0.16965 0.09307 0.0
O44 O 0.23343 0.27382 0.19595 0.0
O45 O 0.26519 0.22457 0.20892 0.0
O46 O 0.29778 0.23579 0.24574 0.0
O47 O 0.1987 0.24534 0.20701 0.0
O48 O 0.26792 0.27916 0.23843 0.0
O49 O 0.30451 0.27338 0.25245 0.0
O50 O 0.28829 0.22206 0.30156 0.0
O51 O 0.25657 0.27348 0.29447 0.0
O52 O 0.2256 0.26423 0.25726 0.0
O53 O 0.32004 0.25902 0.31066 0.0
O54 O 0.25538 0.21972 0.26518 0.0
O55 O 0.21854 0.22431 0.25025 0.0
C56 C 0.28672 0.22319 0.22002 0.0
C57 C 0.19339 0.26304 0.16867 0.0
C58 C 0.17028 0.2818 0.14144 0.0
C59 C 0.16024 0.25721 0.12236 0.0
C60 C 0.18313 0.2387 0.1492 0.0
C61 C 0.16659 0.23584 0.12629 0.0
C62 C 0.18675 0.2846 0.16479 0.0
C63 C 0.29261 0.28216 0.23591 0.0
C64 C 0.20792 0.26517 0.19494 0.0
C65 C 0.21021 0.15928 0.12587 0.0
C66 C 0.23106 0.17634 0.1143 0.0
C67 C 0.23554 0.27538 0.28335 0.0
C68 C 0.33168 0.22177 0.30482 0.0
C69 C 0.35819 0.19716 0.31642 0.0
C70 C 0.37412 0.20442 0.29414 0.0
C71 C 0.34741 0.22774 0.28221 0.0
C72 C 0.33693 0.20625 0.32181 0.0
C73 C 0.36849 0.21916 0.27701 0.0
C74 C 0.23056 0.2159 0.26706 0.0
C75 C 0.31211 0.23454 0.31243 0.0
H76 H 0.1471 0.25443 0.1046 0.0
H77 H 0.18728 0.22168 0.15214 0.0
H78 H 0.15838 0.21687 0.11168 0.0
H79 H 0.19409 0.30332 0.18003 0.0
H80 H 0.39131 0.19902 0.28998 0.0
H81 H 0.34392 0.23985 0.26908 0.0
H82 H 0.32466 0.20154 0.33914 0.0
H83 H 0.38085 0.22439 0.25992 0.0
Tb84 Tb 0.73536 0.26721 0.25121 0.0
C85 C 0.81616 0.2187 0.19296 0.0
N86 N 0.79186 0.20602 0.20069 0.0
C87 C 0.78321 0.17364 0.15696 0.0
C88 C 0.82454 0.2099 0.1662 0.0
C89 C 0.77572 0.18322 0.18363 0.0
C90 C 0.80764 0.18717 0.14807 0.0
C91 C 0.85742 0.25519 0.20398 0.0
C92 C 0.83245 0.24094 0.2118 0.0
C93 C 0.86573 0.24673 0.17715 0.0
C94 C 0.84938 0.22409 0.15837 0.0
Tb95 Tb 0.78185 0.22337 0.24445 0.0
N96 N 0.8236 0.24882 0.23748 0.0
C97 C 0.87328 0.27756 0.22333 0.0
C98 C 0.83951 0.26998 0.25687 0.0
C99 C 0.86437 0.28483 0.24995 0.0
H100 H 0.75715 0.1721 0.19059 0.0
H101 H 0.87675 0.30179 0.26527 0.0
H102 H 0.76476 0.32287 0.29957 0.0
H103 H 0.63657 0.19815 0.24572 0.0
H104 H 0.83359 0.27545 0.27786 0.0
H105 H 0.89255 0.28912 0.21809 0.0
H106 H 0.67814 0.22204 0.22618 0.0
H107 H 0.77021 0.15574 0.14337 0.0
H108 H 0.88481 0.2575 0.17076 0.0
H109 H 0.85612 0.21775 0.13782 0.0
H110 H 0.76186 0.33956 0.35056 0.0
H111 H 0.81337 0.17974 0.12735 0.0
H112 H 0.6311 0.2087 0.29727 0.0
N113 N 0.73294 0.28679 0.29737 0.0
C114 C 0.71189 0.27382 0.31053 0.0
C115 C 0.74788 0.32081 0.33968 0.0
C116 C 0.70881 0.28298 0.33937 0.0
C117 C 0.74974 0.31105 0.3109 0.0
C118 C 0.72765 0.30638 0.35417 0.0
N119 N 0.69573 0.2451 0.26644 0.0
C120 C 0.67558 0.22683 0.24864 0.0
C121 C 0.66922 0.23947 0.3065 0.0
C122 C 0.69232 0.25253 0.29438 0.0
C123 C 0.64917 0.2193 0.28878 0.0
C124 C 0.65218 0.21329 0.25965 0.0
H125 H 0.72607 0.3141 0.37639 0.0
H126 H 0.68397 0.27559 0.37432 0.0
H127 H 0.64933 0.23733 0.34554 0.0
O128 O 0.72019 0.27309 0.21474 0.0
O129 O 0.72327 0.2285 0.26138 0.0
O130 O 0.75917 0.22633 0.28196 0.0
O131 O 0.72139 0.29853 0.25529 0.0
O132 O 0.73138 0.23832 0.21134 0.0
O133 O 0.74276 0.2047 0.2226 0.0
O134 O 0.80873 0.20995 0.26166 0.0
O135 O 0.78291 0.24666 0.21256 0.0
O136 O 0.77491 0.28335 0.23735 0.0
O137 O 0.76922 0.18328 0.24543 0.0
O138 O 0.78776 0.2538 0.28372 0.0
O139 O 0.77534 0.28608 0.27096 0.0
C140 C 0.7343 0.22309 0.28166 0.0
C141 C 0.72528 0.31703 0.21564 0.0
C142 C 0.71562 0.34218 0.18495 0.0
C143 C 0.74036 0.36182 0.19273 0.0
C144 C 0.74996 0.33667 0.22329 0.0
C145 C 0.75751 0.35892 0.21167 0.0
C146 C 0.70835 0.3197 0.1963 0.0
C147 C 0.73196 0.21416 0.20541 0.0
C148 C 0.71613 0.29412 0.22837 0.0
C149 C 0.68652 0.26912 0.35207 0.0
C150 C 0.66675 0.24739 0.33565 0.0
C151 C 0.78521 0.27159 0.21618 0.0
C152 C 0.79686 0.16372 0.26384 0.0
C153 C 0.81576 0.14536 0.29545 0.0
C154 C 0.80335 0.12004 0.27837 0.0
C155 C 0.78458 0.13829 0.24709 0.0
C156 C 0.81282 0.16729 0.28781 0.0
C157 C 0.78803 0.1166 0.25424 0.0
C158 C 0.78664 0.27776 0.28881 0.0
C159 C 0.7916 0.18608 0.25708 0.0
H160 H 0.7464 0.37932 0.18411 0.0
H161 H 0.76311 0.33496 0.23852 0.0
H162 H 0.77652 0.3741 0.21761 0.0
H163 H 0.68913 0.30465 0.19079 0.0
H164 H 0.80566 0.1029 0.28363 0.0
H165 H 0.77226 0.1352 0.22851 0.0
H166 H 0.82205 0.18686 0.30106 0.0
H167 H 0.77859 0.09704 0.24119 0.0
Tb168 Tb 0.75853 0.72654 0.28171 0.0
C169 C 0.81704 0.78508 0.18485 0.0
N170 N 0.80813 0.79578 0.20929 0.0
C171 C 0.84794 0.83353 0.21698 0.0
C172 C 0.84233 0.79767 0.17641 0.0
C173 C 0.82255 0.82065 0.22417 0.0
C174 C 0.85811 0.82172 0.19338 0.0
C175 C 0.80727 0.75316 0.13971 0.0
C176 C 0.7998 0.76294 0.16661 0.0
C177 C 0.833 0.76458 0.13218 0.0
C178 C 0.85051 0.78674 0.15053 0.0
Tb179 Tb 0.7661 0.77163 0.21757 0.0
N180 N 0.77501 0.75211 0.17447 0.0
C181 C 0.78823 0.73313 0.12064 0.0
C182 C 0.75586 0.73473 0.15511 0.0
C183 C 0.76223 0.72442 0.12811 0.0
H184 H 0.81453 0.831 0.2414 0.0
H185 H 0.74711 0.71003 0.11301 0.0
H186 H 0.71264 0.66592 0.25537 0.0
H187 H 0.77198 0.79122 0.38472 0.0
H188 H 0.7357 0.7293 0.16048 0.0
H189 H 0.79313 0.72522 0.09968 0.0
H190 H 0.78516 0.77473 0.33736 0.0
H191 H 0.85945 0.85286 0.22929 0.0
H192 H 0.83923 0.75711 0.11175 0.0
H193 H 0.86997 0.796 0.14391 0.0
H194 H 0.66882 0.64075 0.2674 0.0
H195 H 0.87762 0.83202 0.18759 0.0
H196 H 0.72767 0.76894 0.39926 0.0
N197 N 0.71734 0.6998 0.28895 0.0
C198 C 0.70803 0.70879 0.31394 0.0
C199 C 0.67939 0.6601 0.28034 0.0
C200 C 0.68343 0.6941 0.32235 0.0
C201 C 0.70411 0.67491 0.27319 0.0
C202 C 0.66877 0.66994 0.30472 0.0
N203 N 0.74798 0.74538 0.32431 0.0
C204 C 0.76552 0.76573 0.34307 0.0
C205 C 0.71589 0.74001 0.35954 0.0
C206 C 0.72404 0.73172 0.33242 0.0
C207 C 0.73322 0.76198 0.37827 0.0
C208 C 0.75823 0.77471 0.37009 0.0
H209 H 0.64982 0.65813 0.31047 0.0
H210 H 0.65579 0.6923 0.35529 0.0
H211 H 0.68422 0.73237 0.38782 0.0
O212 O 0.79235 0.72996 0.3052 0.0
O213 O 0.74221 0.75945 0.28978 0.0
O214 O 0.75162 0.78782 0.25742 0.0
O215 O 0.75831 0.69506 0.29909 0.0
O216 O 0.78919 0.75516 0.26474 0.0
O217 O 0.7896 0.79332 0.25707 0.0
O218 O 0.73089 0.77124 0.19907 0.0
O219 O 0.77958 0.7369 0.20726 0.0
O220 O 0.77781 0.71382 0.24364 0.0
O221 O 0.76764 0.80077 0.19586 0.0
O222 O 0.73332 0.74135 0.23091 0.0
O223 O 0.73633 0.70498 0.24209 0.0
C224 C 0.74105 0.78016 0.28052 0.0
C225 C 0.79825 0.68875 0.30159 0.0
C226 C 0.82804 0.66825 0.315 0.0
C227 C 0.82463 0.65279 0.28725 0.0
C228 C 0.79501 0.67268 0.27426 0.0
C229 C 0.80823 0.655 0.26715 0.0
C230 C 0.81462 0.68628 0.32218 0.0
C231 C 0.79643 0.78052 0.27334 0.0
C232 C 0.78248 0.70596 0.3089 0.0
C233 C 0.67472 0.70325 0.34867 0.0
C234 C 0.69094 0.72603 0.36726 0.0
C235 C 0.78435 0.71881 0.21828 0.0
C236 C 0.7312 0.81383 0.19571 0.0
C237 C 0.70224 0.83504 0.1817 0.0
C238 C 0.71331 0.85653 0.20467 0.0
C239 C 0.74207 0.83586 0.21807 0.0
C240 C 0.71141 0.81361 0.17717 0.0
C241 C 0.73303 0.8569 0.22262 0.0
C242 C 0.72895 0.71604 0.22423 0.0
C243 C 0.74264 0.79272 0.19024 0.0
H244 H 0.83424 0.63846 0.28121 0.0
H245 H 0.78179 0.6734 0.25843 0.0
H246 H 0.80542 0.64266 0.24605 0.0
H247 H 0.81677 0.69814 0.34353 0.0
H248 H 0.70704 0.87344 0.20844 0.0
H249 H 0.7579 0.83698 0.23194 0.0
H250 H 0.70336 0.79705 0.15936 0.0
H251 H 0.74158 0.87374 0.23995 0.0
Tb252 Tb 0.2349 0.76501 0.23964 0.0
C253 C 0.28247 0.70497 0.30902 0.0
N254 N 0.29491 0.72823 0.30154 0.0
C255 C 0.3179 0.74584 0.3473 0.0
C256 C 0.28619 0.70163 0.33642 0.0
C257 C 0.31371 0.74804 0.31976 0.0
C258 C 0.3037 0.72271 0.35586 0.0
C259 C 0.25573 0.65872 0.29443 0.0
C260 C 0.26772 0.6838 0.28839 0.0
C261 C 0.25801 0.65561 0.3221 0.0
C262 C 0.27327 0.67703 0.34307 0.0
Tb263 Tb 0.28565 0.72977 0.25603 0.0
N264 N 0.26623 0.68758 0.26191 0.0
C265 C 0.24251 0.63744 0.27229 0.0
C266 C 0.25464 0.66661 0.2399 0.0
C267 C 0.24231 0.64134 0.24481 0.0
H268 H 0.32556 0.76573 0.3132 0.0
H269 H 0.23268 0.62492 0.22742 0.0
H270 H 0.19509 0.72665 0.18466 0.0
H271 H 0.30724 0.86447 0.25559 0.0
H272 H 0.25464 0.66947 0.21861 0.0
H273 H 0.23302 0.61785 0.27605 0.0
H274 H 0.28261 0.8239 0.26985 0.0
H275 H 0.33232 0.76187 0.36177 0.0
H276 H 0.24872 0.63657 0.3273 0.0
H277 H 0.27562 0.67416 0.3641 0.0
H278 H 0.18382 0.72976 0.13702 0.0
H279 H 0.3072 0.72093 0.37709 0.0
H280 H 0.29848 0.87067 0.20843 0.0
N281 N 0.22386 0.76527 0.19481 0.0
C282 C 0.23573 0.78816 0.18636 0.0
C283 C 0.19856 0.74628 0.15061 0.0
C284 C 0.23007 0.79065 0.15912 0.0
C285 C 0.20511 0.74458 0.17764 0.0
C286 C 0.2112 0.76936 0.14123 0.0
N287 N 0.25915 0.8057 0.23103 0.0
C288 C 0.27796 0.82556 0.24917 0.0
C289 C 0.268 0.83237 0.19603 0.0
C290 C 0.25413 0.80893 0.20489 0.0
C291 C 0.28727 0.85248 0.21453 0.0
C292 C 0.29226 0.84903 0.24116 0.0
H293 H 0.20621 0.77055 0.12021 0.0
H294 H 0.23945 0.81641 0.12966 0.0
H295 H 0.27299 0.85276 0.16176 0.0
O296 O 0.21195 0.78868 0.25173 0.0
O297 O 0.26592 0.76483 0.21068 0.0
O298 O 0.29533 0.76749 0.2439 0.0
O299 O 0.19419 0.74653 0.23673 0.0
O300 O 0.25703 0.78476 0.28094 0.0
O301 O 0.28868 0.76593 0.28668 0.0
O302 O 0.30577 0.70648 0.23399 0.0
O303 O 0.24417 0.71189 0.26233 0.0
O304 O 0.2318 0.74785 0.27674 0.0
O305 O 0.32692 0.74533 0.25765 0.0
O306 O 0.26694 0.71696 0.21277 0.0
O307 O 0.22711 0.72335 0.21967 0.0
C308 C 0.29003 0.76921 0.21856 0.0
C309 C 0.17536 0.76588 0.27491 0.0
C310 C 0.16863 0.78378 0.32383 0.0
C311 C 0.14746 0.76035 0.32374 0.0
C312 C 0.15402 0.74274 0.27517 0.0
C313 C 0.14038 0.73993 0.29958 0.0
C314 C 0.18279 0.7861 0.29947 0.0
C315 C 0.27741 0.78367 0.29445 0.0
C316 C 0.19058 0.7681 0.24956 0.0
C317 C 0.24348 0.81416 0.15053 0.0
C318 C 0.26252 0.83488 0.16885 0.0
C319 C 0.22892 0.72334 0.27636 0.0
C320 C 0.34282 0.73109 0.21377 0.0
C321 C 0.35211 0.71398 0.16579 0.0
C322 C 0.37293 0.73782 0.16662 0.0
C323 C 0.36373 0.7548 0.21461 0.0
C324 C 0.33641 0.71159 0.18882 0.0
C325 C 0.37835 0.75831 0.19081 0.0
C326 C 0.24261 0.71275 0.20441 0.0
C327 C 0.32824 0.72542 0.23883 0.0
H328 H 0.13577 0.75808 0.34195 0.0
H329 H 0.14808 0.72672 0.25657 0.0
H330 H 0.124 0.72203 0.29965 0.0
H331 H 0.19957 0.80376 0.29965 0.0
H332 H 0.38566 0.74026 0.14922 0.0
H333 H 0.36894 0.77039 0.23361 0.0
H334 H 0.31971 0.69365 0.18774 0.0
H335 H 0.39457 0.77651 0.19155 0.0
Tb336 Tb 0.2394 0.77222 0.75322 0.0
C337 C 0.30999 0.71527 0.68492 0.0
N338 N 0.29044 0.70442 0.70119 0.0
C339 C 0.27517 0.66482 0.66447 0.0
C340 C 0.31177 0.70209 0.65703 0.0
C341 C 0.27444 0.67863 0.69211 0.0
C342 C 0.29346 0.67687 0.64657 0.0
C343 C 0.35253 0.74834 0.68282 0.0
C344 C 0.33031 0.73778 0.69766 0.0
C345 C 0.35312 0.73685 0.65413 0.0
C346 C 0.33282 0.71363 0.64128 0.0
Tb347 Tb 0.29132 0.72996 0.74577 0.0
N348 N 0.32959 0.74746 0.72563 0.0
C349 C 0.37408 0.76901 0.69772 0.0
C350 C 0.35144 0.76571 0.74086 0.0
C351 C 0.37377 0.77728 0.72704 0.0
H352 H 0.26085 0.66868 0.70606 0.0
H353 H 0.39067 0.79253 0.73896 0.0
H354 H 0.26523 0.82678 0.80469 0.0
H355 H 0.14044 0.70422 0.7268 0.0
H356 H 0.35108 0.77206 0.7635 0.0
H357 H 0.39148 0.77778 0.68707 0.0
H358 H 0.18641 0.72651 0.71657 0.0
H359 H 0.26191 0.64473 0.65715 0.0
H360 H 0.36984 0.74488 0.64219 0.0
H361 H 0.33429 0.70403 0.61965 0.0
H362 H 0.25144 0.84549 0.85085 0.0
H363 H 0.29429 0.66595 0.62536 0.0
H364 H 0.12439 0.71833 0.7735 0.0
N365 N 0.22964 0.79385 0.79487 0.0
C366 C 0.20468 0.78246 0.80192 0.0
C367 C 0.2382 0.82765 0.8374 0.0
C368 C 0.19605 0.79244 0.82806 0.0
C369 C 0.24592 0.81704 0.81129 0.0
C370 C 0.21334 0.81503 0.84607 0.0
N371 N 0.19604 0.75227 0.75713 0.0
C372 C 0.17952 0.73257 0.73694 0.0
C373 C 0.16139 0.74911 0.78928 0.0
C374 C 0.18737 0.76119 0.78251 0.0
C375 C 0.1445 0.72816 0.76907 0.0
C376 C 0.15351 0.72009 0.74268 0.0
H377 H 0.20744 0.82327 0.86636 0.0
H378 H 0.16353 0.78706 0.85534 0.0
H379 H 0.13333 0.74904 0.8216 0.0
O380 O 0.21635 0.78439 0.72906 0.0
O381 O 0.2247 0.73673 0.77004 0.0
O382 O 0.25575 0.71537 0.76888 0.0
O383 O 0.25519 0.81136 0.7488 0.0
O384 O 0.24531 0.74475 0.71703 0.0
O385 O 0.25211 0.7088 0.72453 0.0
O386 O 0.30074 0.72606 0.78601 0.0
O387 O 0.30467 0.77041 0.73817 0.0
O388 O 0.26679 0.77 0.71985 0.0
O389 O 0.31424 0.707 0.74875 0.0
O390 O 0.29913 0.76919 0.7711 0.0
O391 O 0.26499 0.77951 0.79032 0.0
C392 C 0.23361 0.71924 0.77668 0.0
C393 C 0.23216 0.82859 0.71984 0.0
C394 C 0.20969 0.8427 0.68715 0.0
C395 C 0.23009 0.8672 0.69195 0.0
C396 C 0.25248 0.85322 0.72434 0.0
C397 C 0.25138 0.8724 0.71047 0.0
C398 C 0.2107 0.82338 0.70108 0.0
C399 C 0.23744 0.71934 0.71394 0.0
C400 C 0.23484 0.80761 0.73225 0.0
C401 C 0.17038 0.77991 0.83515 0.0
C402 C 0.15314 0.75829 0.81588 0.0
C403 C 0.29226 0.78019 0.72324 0.0
C404 C 0.30364 0.68488 0.78542 0.0
C405 C 0.31221 0.65785 0.8143 0.0
C406 C 0.28935 0.63697 0.80234 0.0
C407 C 0.28075 0.66404 0.77356 0.0
C408 C 0.3191 0.68185 0.80596 0.0
C409 C 0.27355 0.64021 0.78221 0.0
C410 C 0.28645 0.77465 0.79319 0.0
C411 C 0.31231 0.7095 0.77577 0.0
H412 H 0.22954 0.88227 0.68125 0.0
H413 H 0.26947 0.85752 0.73818 0.0
H414 H 0.26718 0.89127 0.71391 0.0
H415 H 0.19508 0.80431 0.6969 0.0
H416 H 0.2838 0.61826 0.80857 0.0
H417 H 0.26877 0.66613 0.75738 0.0
H418 H 0.33698 0.69789 0.81477 0.0
H419 H 0.25592 0.62413 0.77303 0.0
Tb420 Tb 0.25657 0.22621 0.78531 0.0
C421 C 0.30899 0.29847 0.68808 0.0
N422 N 0.29658 0.30281 0.71226 0.0
C423 C 0.32579 0.34769 0.72469 0.0
C424 C 0.33091 0.3186 0.68163 0.0
C425 C 0.30385 0.32725 0.72997 0.0
C426 C 0.33957 0.34326 0.7006 0.0
C427 C 0.30922 0.27035 0.64209 0.0
C428 C 0.29825 0.27456 0.6685 0.0
C429 C 0.33192 0.28983 0.63627 0.0
C430 C 0.34273 0.31388 0.65597 0.0
Tb431 Tb 0.26119 0.26803 0.71779 0.0
N432 N 0.27565 0.25659 0.67423 0.0
C433 C 0.29637 0.24721 0.62182 0.0
C434 C 0.26232 0.2346 0.65402 0.0
C435 C 0.27267 0.22942 0.6277 0.0
H436 H 0.29298 0.33063 0.74844 0.0
H437 H 0.26231 0.21176 0.61196 0.0
H438 H 0.21867 0.16131 0.76502 0.0
H439 H 0.26895 0.29063 0.88783 0.0
H440 H 0.24396 0.2208 0.65846 0.0
H441 H 0.30419 0.24327 0.60128 0.0
H442 H 0.28226 0.27454 0.84 0.0
H443 H 0.33194 0.36689 0.73904 0.0
H444 H 0.34075 0.28685 0.61618 0.0
H445 H 0.35972 0.32905 0.65074 0.0
H446 H 0.17707 0.13244 0.77889 0.0
H447 H 0.35634 0.35924 0.69638 0.0
H448 H 0.22484 0.26747 0.90255 0.0
N449 N 0.2188 0.19563 0.7955 0.0
C450 C 0.20818 0.20467 0.8195 0.0
C451 C 0.18536 0.15285 0.79017 0.0
C452 C 0.18486 0.18845 0.82879 0.0
C453 C 0.20882 0.16945 0.78218 0.0
C454 C 0.17297 0.16257 0.81315 0.0
N455 N 0.24589 0.24325 0.82841 0.0
C456 C 0.26304 0.26449 0.84658 0.0
C457 C 0.21383 0.23764 0.86343 0.0
C458 C 0.22237 0.22911 0.83669 0.0
C459 C 0.2306 0.26041 0.88172 0.0
C460 C 0.25559 0.2735 0.87353 0.0
H461 H 0.15504 0.14951 0.81959 0.0
H462 H 0.15701 0.18587 0.86155 0.0
H463 H 0.18245 0.22884 0.89193 0.0
O464 O 0.29494 0.22641 0.7911 0.0
O465 O 0.23988 0.2591 0.79333 0.0
O466 O 0.24586 0.28392 0.75769 0.0
O467 O 0.26498 0.20927 0.81699 0.0
O468 O 0.27797 0.26588 0.78076 0.0
O469 O 0.29756 0.28128 0.744 0.0
O470 O 0.23021 0.25849 0.68738 0.0
O471 O 0.27342 0.23293 0.70721 0.0
O472 O 0.27414 0.21281 0.7458 0.0
O473 O 0.24471 0.29664 0.71581 0.0
O474 O 0.23816 0.23988 0.74013 0.0
O475 O 0.22993 0.20154 0.74893 0.0
C476 C 0.23688 0.27818 0.78219 0.0
C477 C 0.29497 0.18823 0.8052 0.0
C478 C 0.31864 0.16163 0.81791 0.0
C479 C 0.30314 0.14006 0.79702 0.0
C480 C 0.27976 0.16635 0.78469 0.0
C481 C 0.28392 0.14247 0.78055 0.0
C482 C 0.31431 0.18582 0.82207 0.0
C483 C 0.29938 0.27404 0.76767 0.0
C484 C 0.28874 0.21253 0.81022 0.0
C485 C 0.17509 0.19792 0.85432 0.0
C486 C 0.1896 0.22241 0.87165 0.0
C487 C 0.2796 0.21639 0.71968 0.0
C488 C 0.22812 0.29543 0.67122 0.0
C489 C 0.20659 0.31674 0.64576 0.0
C490 C 0.22887 0.3245 0.63029 0.0
C491 C 0.25022 0.30361 0.65558 0.0
C492 C 0.20624 0.30227 0.6664 0.0
C493 C 0.25059 0.31802 0.63527 0.0
C494 C 0.22538 0.21483 0.73206 0.0
C495 C 0.22873 0.28203 0.69424 0.0
H496 H 0.30564 0.1211 0.79365 0.0
H497 H 0.26437 0.1677 0.77211 0.0
H498 H 0.27202 0.12569 0.76471 0.0
H499 H 0.32587 0.2026 0.83821 0.0
H500 H 0.22957 0.33593 0.6146 0.0
H501 H 0.2674 0.29934 0.65934 0.0
H502 H 0.18922 0.29661 0.67874 0.0
H503 H 0.26787 0.3244 0.62354 0.0
Tb504 Tb 0.73436 0.26304 0.74308 0.0
C505 C 0.78471 0.20247 0.80843 0.0
N506 N 0.79563 0.22506 0.7991 0.0
C507 C 0.82339 0.24475 0.84166 0.0
C508 C 0.79218 0.20041 0.83521 0.0
C509 C 0.81546 0.24573 0.81485 0.0
C510 C 0.81155 0.22207 0.85201 0.0
C511 C 0.75388 0.15753 0.79993 0.0
C512 C 0.76584 0.1813 0.79106 0.0
C513 C 0.76105 0.15547 0.8267 0.0
C514 C 0.78016 0.17685 0.84429 0.0
Tb515 Tb 0.78163 0.22372 0.75455 0.0
N516 N 0.75898 0.18421 0.76557 0.0
C517 C 0.73521 0.13651 0.78154 0.0
C518 C 0.74181 0.16328 0.74694 0.0
C519 C 0.72935 0.13933 0.75482 0.0
H520 H 0.82604 0.2625 0.80632 0.0
H521 H 0.71542 0.12297 0.74017 0.0
H522 H 0.69628 0.22821 0.68637 0.0
H523 H 0.80202 0.36486 0.76821 0.0
H524 H 0.7377 0.16481 0.72593 0.0
H525 H 0.72558 0.1179 0.78755 0.0
H526 H 0.77358 0.32396 0.77985 0.0
H527 H 0.83899 0.2613 0.85409 0.0
H528 H 0.75204 0.13738 0.83392 0.0
H529 H 0.78559 0.17492 0.86483 0.0
H530 H 0.69018 0.23202 0.63745 0.0
H531 H 0.81784 0.22129 0.87271 0.0
H532 H 0.80176 0.37086 0.71925 0.0
N533 N 0.72751 0.26493 0.69766 0.0
C534 C 0.74104 0.28794 0.69022 0.0
C535 C 0.70484 0.24773 0.65194 0.0
C536 C 0.73803 0.2912 0.66263 0.0
C537 C 0.70869 0.2454 0.6795 0.0
C538 C 0.71983 0.27059 0.64333 0.0
N539 N 0.75951 0.30448 0.73714 0.0
C540 C 0.7742 0.3251 0.75802 0.0
C541 C 0.77306 0.33207 0.70315 0.0
C542 C 0.75806 0.30814 0.7104 0.0
C543 C 0.78971 0.35229 0.72403 0.0
C544 C 0.78999 0.3489 0.75164 0.0
H545 H 0.71683 0.27235 0.62196 0.0
H546 H 0.75118 0.31772 0.63417 0.0
H547 H 0.78188 0.35352 0.66962 0.0
O548 O 0.71208 0.28756 0.75332 0.0
O549 O 0.76149 0.25619 0.71085 0.0
O550 O 0.79666 0.25944 0.73784 0.0
O551 O 0.6935 0.24537 0.73954 0.0
O552 O 0.75977 0.27977 0.7824 0.0
O553 O 0.79573 0.26636 0.77294 0.0
O554 O 0.79307 0.20084 0.72005 0.0
O555 O 0.74381 0.21439 0.77423 0.0
O556 O 0.73279 0.25207 0.78404 0.0
O557 O 0.81838 0.21996 0.75784 0.0
O558 O 0.75714 0.20954 0.71527 0.0
O559 O 0.72123 0.21997 0.73042 0.0
C560 C 0.7868 0.26307 0.71532 0.0
C561 C 0.67273 0.26687 0.77365 0.0
C562 C 0.66433 0.2845 0.82198 0.0
C563 C 0.63853 0.2662 0.8175 0.0
C564 C 0.64702 0.24883 0.76955 0.0
C565 C 0.63014 0.24825 0.79158 0.0
C566 C 0.68156 0.28388 0.80017 0.0
C567 C 0.78399 0.28148 0.78825 0.0
C568 C 0.69016 0.26755 0.75019 0.0
C569 C 0.75309 0.31488 0.65531 0.0
C570 C 0.77063 0.33523 0.67549 0.0
C571 C 0.73228 0.22963 0.78947 0.0
C572 C 0.83761 0.21808 0.714 0.0
C573 C 0.85947 0.21029 0.671 0.0
C574 C 0.87399 0.23728 0.67526 0.0
C575 C 0.8522 0.24521 0.71859 0.0
C576 C 0.84152 0.2008 0.69037 0.0
C577 C 0.87043 0.25472 0.69923 0.0
C578 C 0.7324 0.20665 0.712 0.0
C579 C 0.81639 0.20737 0.73163 0.0
H580 H 0.62441 0.26631 0.83349 0.0
H581 H 0.64002 0.23523 0.74931 0.0
H582 H 0.61025 0.23438 0.78828 0.0
H583 H 0.70172 0.29709 0.80359 0.0
H584 H 0.88794 0.24472 0.6602 0.0
H585 H 0.84923 0.25899 0.73674 0.0
H586 H 0.83001 0.17989 0.6866 0.0
H587 H 0.88155 0.27561 0.70263 0.0
Tb588 Tb 0.73587 0.742 0.71267 0.0
C589 C 0.80258 0.8069 0.82883 0.0
N590 N 0.81075 0.79673 0.80362 0.0
C591 C 0.84842 0.83636 0.80848 0.0
C592 C 0.81671 0.83265 0.84428 0.0
C593 C 0.83406 0.81064 0.79405 0.0
C594 C 0.83955 0.84754 0.83348 0.0
C595 C 0.7723 0.80068 0.86648 0.0
C596 C 0.78059 0.79106 0.83998 0.0
C597 C 0.78597 0.82655 0.88144 0.0
C598 C 0.80806 0.84248 0.87037 0.0
Tb599 Tb 0.78528 0.75403 0.78401 0.0
N600 N 0.76716 0.76629 0.82466 0.0
C601 C 0.75055 0.78393 0.87721 0.0
C602 C 0.74698 0.74937 0.83572 0.0
C603 C 0.73804 0.75807 0.86191 0.0
H604 H 0.84227 0.80192 0.77579 0.0
H605 H 0.72171 0.74474 0.87043 0.0
H606 H 0.67775 0.69643 0.72152 0.0
H607 H 0.79174 0.75118 0.62062 0.0
H608 H 0.73804 0.72919 0.82451 0.0
H609 H 0.74359 0.79059 0.89751 0.0
H610 H 0.77911 0.76634 0.66872 0.0
H611 H 0.86663 0.84736 0.8006 0.0
H612 H 0.77979 0.83435 0.90176 0.0
H613 H 0.81862 0.86226 0.88241 0.0
H614 H 0.65177 0.65103 0.69773 0.0
H615 H 0.85093 0.86737 0.84476 0.0
H616 H 0.76923 0.70511 0.5944 0.0
N617 N 0.70872 0.69982 0.69313 0.0
C618 C 0.71594 0.6889 0.66775 0.0
C619 C 0.67001 0.66129 0.68934 0.0
C620 C 0.70077 0.66335 0.65265 0.0
C621 C 0.68526 0.68694 0.70317 0.0
C622 C 0.67801 0.64926 0.66422 0.0
N623 N 0.75144 0.72895 0.67048 0.0
C624 C 0.76998 0.74609 0.65786 0.0
C625 C 0.74382 0.69462 0.62812 0.0
C626 C 0.73747 0.70418 0.65569 0.0
C627 C 0.76392 0.71164 0.61563 0.0
C628 C 0.77676 0.73763 0.63041 0.0
H629 H 0.66588 0.62958 0.65329 0.0
H630 H 0.69677 0.63346 0.61417 0.0
H631 H 0.73426 0.66094 0.59259 0.0
O632 O 0.73741 0.77555 0.69755 0.0
O633 O 0.7666 0.72344 0.70609 0.0
O634 O 0.79699 0.73381 0.74471 0.0
O635 O 0.70376 0.74023 0.68833 0.0
O636 O 0.76767 0.77673 0.73492 0.0
O637 O 0.80425 0.77207 0.75001 0.0
O638 O 0.78615 0.72249 0.80173 0.0
O639 O 0.75504 0.77323 0.78856 0.0
O640 O 0.72109 0.75734 0.75279 0.0
O641 O 0.81827 0.75911 0.80888 0.0
O642 O 0.75417 0.71779 0.76319 0.0
O643 O 0.71787 0.72249 0.74629 0.0
C644 C 0.78722 0.72161 0.7185 0.0
C645 C 0.69616 0.77962 0.69072 0.0
C646 C 0.67223 0.80458 0.67483 0.0
C647 C 0.65957 0.80531 0.70033 0.0
C648 C 0.68293 0.78032 0.71574 0.0
C649 C 0.66486 0.79318 0.72062 0.0
C650 C 0.69063 0.79165 0.66997 0.0
C651 C 0.79243 0.78016 0.73269 0.0
C652 C 0.7139 0.7644 0.68551 0.0
C653 C 0.70809 0.65312 0.62594 0.0
C654 C 0.72944 0.66878 0.61363 0.0
C655 C 0.7324 0.77214 0.77772 0.0
C656 C 0.82925 0.7216 0.80613 0.0
C657 C 0.85253 0.69423 0.81804 0.0
C658 C 0.8683 0.69919 0.79513 0.0
C659 C 0.84562 0.72642 0.7837 0.0
C660 C 0.83295 0.70567 0.82361 0.0
C661 C 0.86485 0.71514 0.77816 0.0
C662 C 0.72911 0.71357 0.76344 0.0
C663 C 0.81005 0.73513 0.81236 0.0
H664 H 0.64527 0.815 0.70436 0.0
H665 H 0.6862 0.77028 0.73113 0.0
H666 H 0.65469 0.79345 0.74002 0.0
H667 H 0.70031 0.79076 0.65022 0.0
H668 H 0.88377 0.69108 0.79061 0.0
H669 H 0.84361 0.73907 0.7704 0.0
H670 H 0.82079 0.70227 0.84134 0.0
H671 H 0.87729 0.71898 0.76077 0.0
Cd672 Cd 0.99103 0.97024 0.52767 0.0
Cd673 Cd 0.02507 0.02271 0.46361 0.0
C674 C 0.04648 0.96365 0.5296 0.0
N675 N 0.02082 0.94906 0.52305 0.0
C676 C 0.02864 0.90937 0.52313 0.0
C677 C 0.05486 0.92418 0.53205 0.0
C678 C 0.06391 0.95159 0.53455 0.0
C679 C 0.01175 0.92236 0.51902 0.0
H680 H 0.05314 0.9848 0.53274 0.0
H681 H 0.99113 0.9113 0.51441 0.0
C682 C 0.98507 0.96682 0.45424 0.0
C683 C 0.97174 0.0306 0.45405 0.0
C684 C 0.95522 0.0444 0.45194 0.0
C685 C 0.9619 0.07067 0.46708 0.0
C686 C 0.98442 0.0818 0.48554 0.0
C687 C 1.00036 0.06711 0.48717 0.0
N688 N 0.99404 0.0423 0.47094 0.0
H689 H 0.96753 0.01115 0.44077 0.0
H690 H 0.01859 0.07602 0.49991 0.0
C691 C 0.04879 0.97732 0.44184 0.0
N692 N 0.05227 -0.00052 0.46222 0.0
C693 C 0.09153 -0.00226 0.48064 0.0
C694 C 0.08832 0.97493 0.45982 0.0
C695 C 0.06667 0.9645 0.44037 0.0
C696 C 0.07324 0.01009 0.4811 0.0
H697 H 0.03267 0.96998 0.4262 0.0
H698 H 0.07607 0.02856 0.49583 0.0
C699 C 0.03375 0.02671 0.53887 0.0
C700 C 0.95187 0.93677 0.55457 0.0
N701 N 0.96588 0.99478 0.52466 0.0
C702 C 0.96994 0.01705 0.54498 0.0
C703 C 0.95584 0.03324 0.54347 0.0
C704 C 0.93731 0.02628 0.52085 0.0
C705 C 0.93265 0.00251 0.50088 0.0
C706 C 0.94702 0.98672 0.50352 0.0
C707 C 0.06039 0.05792 0.4352 0.0
O708 O 0.99495 0.97569 0.47932 0.0
O709 O 0.9932 0.98153 0.43684 0.0
O710 O 0.02528 0.01952 0.5132 0.0
O711 O 0.02427 0.01078 0.55491 0.0
O712 O 0.95362 0.93031 0.52797 0.0
O713 O 0.96868 0.95817 0.56814 0.0
O714 O 0.06328 0.0611 0.46185 0.0
O715 O 0.04052 0.03913 0.42239 0.0
H716 H 0.98391 0.02214 0.56257 0.0
H717 H 0.94309 0.96803 0.4888 0.0
H718 H 0.0208 0.88825 0.52145 0.0
H719 H 0.08398 0.96371 0.54148 0.0
H720 H 0.93843 0.03515 0.43698 0.0
H721 H 0.99015 0.10192 0.49776 0.0
H722 H 0.10838 0.00635 0.49558 0.0
H723 H 0.06392 0.94691 0.42394 0.0
H724 H 0.95911 0.05073 0.56016 0.0
H725 H 0.91827 -0.00372 0.48336 0.0
Cd726 Cd 0.4802 0.99238 0.04195 0.0
Cd727 Cd 0.53525 -0.00127 0.95318 0.0
C728 C 0.52465 0.98245 0.07849 0.0
N729 N 0.50851 0.97233 0.05465 0.0
C730 C 0.52257 0.93512 0.04311 0.0
C731 C 0.53961 0.94504 0.06748 0.0
C732 C 0.54058 0.9692 0.0852 0.0
C733 C 0.50727 0.94917 0.03706 0.0
H734 H 0.52516 0.00082 0.0923 0.0
H735 H 0.49411 0.9414 0.0184 0.0
C736 C 0.47616 0.96079 0.9657 0.0
C737 C 0.48833 0.00758 0.92013 0.0
C738 C 0.47252 0.02125 0.91439 0.0
C739 C 0.47496 0.04589 0.93201 0.0
C740 C 0.49296 0.05571 0.95552 0.0
C741 C 0.50805 0.04123 0.96067 0.0
N742 N 0.50567 0.0178 0.94298 0.0
H743 H 0.48705 0.98904 0.90616 0.0
H744 H 0.5222 0.04899 0.97846 0.0
C745 C 0.54372 0.94279 0.92029 0.0
N746 N 0.55592 0.96653 0.93826 0.0
C747 C 0.59655 0.95844 0.93524 0.0
C748 C 0.58472 0.93391 0.91627 0.0
C749 C 0.55771 0.9261 0.90922 0.0
C750 C 0.58181 0.97435 0.94598 0.0
H751 H 0.52325 0.93699 0.91397 0.0
H752 H 0.59131 0.99348 0.95984 0.0
C753 C 0.53994 0.02743 0.02868 0.0
C754 C 0.44312 0.9565 0.069 0.0
N755 N 0.46126 0.02653 0.05691 0.0
C756 C 0.46446 0.0386 0.08489 0.0
C757 C 0.45062 0.05528 0.09639 0.0
C758 C 0.43281 0.0597 0.0792 0.0
C759 C 0.43043 0.04743 0.05015 0.0
C760 C 0.44474 0.03088 0.03948 0.0
C761 C 0.5697 0.03701 0.92666 0.0
O762 O 0.48345 0.97577 0.99022 0.0
O763 O 0.49207 0.96351 0.94596 0.0
O764 O 0.53116 0.01293 0.00439 0.0
O765 O 0.52477 0.02574 0.04911 0.0
O766 O 0.44016 0.95511 0.04267 0.0
O767 O 0.46261 0.97528 0.08259 0.0
O768 O 0.57527 0.03614 0.95171 0.0
O769 O 0.54907 0.01937 0.91384 0.0
H770 H 0.47724 0.03461 0.09862 0.0
H771 H 0.44185 0.0207 0.01744 0.0
H772 H 0.52065 0.91642 0.02903 0.0
H773 H 0.55363 0.97796 0.10398 0.0
H774 H 0.45867 0.01265 0.89624 0.0
H775 H 0.49601 0.07477 0.96941 0.0
H776 H 0.61727 0.96587 0.94111 0.0
H777 H 0.54735 0.90732 0.89513 0.0
H778 H 0.45379 0.06444 0.11873 0.0
H779 H 0.41687 0.04967 0.03583 0.0
Cd780 Cd 0.98377 0.49602 0.04376 0.0
Cd781 Cd 0.0344 0.49818 0.95399 0.0
C782 C 0.02102 0.48241 0.08607 0.0
N783 N 0.01195 0.47754 0.05884 0.0
C784 C 0.03215 0.44517 0.04448 0.0
C785 C 0.04168 0.44946 0.07244 0.0
C786 C 0.0361 0.46856 0.09336 0.0
C787 C 0.01727 0.45946 0.03817 0.0
H788 H 0.01624 0.49672 0.10214 0.0
H789 H 0.00942 0.45571 0.01679 0.0
C790 C 0.9775 0.46465 0.97144 0.0
C791 C 0.99083 0.50775 0.91577 0.0
C792 C 0.97551 0.52156 0.90892 0.0
C793 C 0.97484 0.54436 0.92816 0.0
C794 C 0.98933 0.55225 0.95417 0.0
C795 C 1.00423 0.53785 0.96013 0.0
N796 N 1.00487 0.51623 0.94099 0.0
H797 H 0.99191 0.4906 0.9008 0.0
H798 H 0.01594 0.54435 0.97981 0.0
C799 C 0.04423 0.44516 0.91714 0.0
N800 N 0.05444 0.4657 0.93975 0.0
C801 C 0.09295 0.45434 0.94159 0.0
C802 C 0.08324 0.43325 0.91786 0.0
C803 C 0.05826 0.42861 0.90594 0.0
C804 C 0.07824 0.47033 0.95214 0.0
H805 H 0.02552 0.44209 0.9072 0.0
H806 H 0.08631 0.48715 0.96962 0.0
C807 C 0.04414 0.52878 0.02932 0.0
C808 C 0.94438 0.45564 0.06288 0.0
N809 N 0.96471 0.5294 0.05843 0.0
C810 C 0.97349 0.54784 0.08303 0.0
C811 C 0.95973 0.56466 0.09424 0.0
C812 C 0.93636 0.56243 0.08032 0.0
C813 C 0.92818 0.5435 0.0546 0.0
C814 C 0.94262 0.5272 0.04407 0.0
C815 C 0.07134 0.53593 0.92968 0.0
O816 O 0.98712 0.48365 0.99258 0.0
O817 O 0.99095 0.46337 0.94973 0.0
O818 O 0.03428 0.51405 0.00548 0.0
O819 O 0.0298 0.52775 0.0505 0.0
O820 O 0.94905 0.4532 0.03681 0.0
O821 O 0.95751 0.4772 0.07974 0.0
O822 O 0.07146 0.53849 0.95643 0.0
O823 O 0.05455 0.51533 0.91461 0.0
H824 H 0.99078 0.54896 0.09448 0.0
H825 H 0.93558 0.51201 0.02495 0.0
H826 H 0.03548 0.4304 0.02772 0.0
H827 H 0.04327 0.47275 0.11513 0.0
H828 H 0.96446 0.51455 0.88875 0.0
H829 H 0.9899 0.56989 0.96947 0.0
H830 H 0.1122 0.45916 0.95133 0.0
H831 H 0.04965 0.41249 0.88791 0.0
H832 H 0.96728 0.57907 0.11383 0.0
H833 H 0.91019 0.54045 0.04313 0.0
Cd834 Cd 0.48888 0.46808 0.02522 0.0
Cd835 Cd 0.52057 0.51392 0.95657 0.0
C836 C 0.53718 0.46195 0.05116 0.0
N837 N 0.52221 0.45241 0.0266 0.0
C838 C 0.54167 0.41976 0.01137 0.0
C839 C 0.55719 0.42895 0.03676 0.0
C840 C 0.55501 0.45058 0.05665 0.0
C841 C 0.5243 0.43203 0.00657 0.0
H842 H 0.53431 0.47755 0.06711 0.0
H843 H 0.51195 0.42471 0.98738 0.0
C844 C 0.47708 0.46138 0.95335 0.0
C845 C 0.46628 0.52363 0.96174 0.0
C846 C 0.45028 0.53806 0.96003 0.0
C847 C 0.46154 0.56554 0.96358 0.0
C848 C 0.4883 0.57816 0.97128 0.0
C849 C 0.50359 0.5629 0.97262 0.0
N850 N 0.49247 0.53622 0.96678 0.0
H851 H 0.45799 0.50239 0.95713 0.0
H852 H 0.52459 0.57214 0.97618 0.0
C853 C 0.53859 0.4644 0.94251 0.0
N854 N 0.54301 0.48736 0.9619 0.0
C855 C 0.57774 0.48156 0.98516 0.0
C856 C 0.574 0.45806 0.9651 0.0
C857 C 0.55391 0.44924 0.94378 0.0
C858 C 0.56221 0.49626 0.98283 0.0
H859 H 0.52393 0.45842 0.92539 0.0
H860 H 0.56631 0.51528 0.99702 0.0
C861 C 0.52895 0.52964 0.03515 0.0
C862 C 0.4545 0.43606 0.0568 0.0
N863 N 0.4598 0.48904 0.02565 0.0
C864 C 0.46422 0.51258 0.04405 0.0
C865 C 0.4472 0.52603 0.04377 0.0
C866 C 0.42503 0.51455 0.02515 0.0
C867 C 0.41982 0.48954 0.00767 0.0
C868 C 0.43775 0.47694 0.00833 0.0
C869 C 0.55644 0.54481 0.92354 0.0
O870 O 0.48963 0.47132 0.97707 0.0
O871 O 0.48448 0.47387 0.93392 0.0
O872 O 0.52662 0.52522 0.00835 0.0
O873 O 0.51901 0.51094 0.04778 0.0
O874 O 0.45494 0.42735 0.03026 0.0
O875 O 0.47072 0.45878 0.06789 0.0
O876 O 0.56027 0.54866 0.95005 0.0
O877 O 0.53546 0.52671 0.91222 0.0
H878 H 0.48061 0.52089 0.05934 0.0
H879 H 0.43404 0.45747 0.99532 0.0
H880 H 0.54247 0.40294 0.9957 0.0
H881 H 0.56591 0.45779 0.07693 0.0
H882 H 0.42957 0.52779 0.9546 0.0
H883 H 0.49765 0.59929 0.97394 0.0
H884 H 0.59312 0.48896 0.00181 0.0
H885 H 0.55093 0.43158 0.92741 0.0
H886 H 0.45105 0.54501 0.05822 0.0
H887 H 0.40237 0.48013 0.99364 0.0
Cd888 Cd 0.98017 0.49163 0.54364 0.0
Cd889 Cd 0.03973 0.50324 0.45824 0.0
C890 C 0.02584 0.48205 0.57818 0.0
N891 N 1.00788 0.47107 0.55587 0.0
C892 C 0.01931 0.43227 0.5457 0.0
C893 C 0.03848 0.44324 0.56822 0.0
C894 C 0.04173 0.46866 0.58439 0.0
C895 C 1.00437 0.44667 0.53976 0.0
H896 H 0.02792 0.50123 0.59118 0.0
H897 H 0.98962 0.43825 0.52247 0.0
C898 C 0.97895 0.46808 0.46754 0.0
C899 C 1.001 0.51634 0.41785 0.0
C900 C 0.98525 0.52958 0.41077 0.0
C901 C 0.97864 0.54769 0.43198 0.0
C902 C 0.98774 0.55154 0.46001 0.0
C903 C 1.00341 0.53793 0.46611 0.0
N904 N 0.0098 0.52085 0.44515 0.0
H905 H 1.00659 0.50282 0.40154 0.0
H906 H 0.01106 0.54151 0.48754 0.0
C907 C 0.05224 0.45335 0.41857 0.0
N908 N 0.05999 0.47047 0.44416 0.0
C909 C 0.09563 0.45512 0.44854 0.0
C910 C 0.08851 0.43757 0.42178 0.0
C911 C 0.06616 0.43679 0.40701 0.0
C912 C 0.08124 0.47151 0.45921 0.0
H913 H 0.03576 0.45326 0.40652 0.0
H914 H 0.08753 0.48563 0.47921 0.0
C915 C 0.04124 0.5292 0.53623 0.0
C916 C 0.94278 0.45529 0.56971 0.0
N917 N 0.96194 0.52566 0.5582 0.0
C918 C 0.97107 0.54411 0.58273 0.0
C919 C 0.95762 0.56118 0.59414 0.0
C920 C 0.93422 0.55919 0.58049 0.0
C921 C 0.92576 0.54035 0.55474 0.0
C922 C 0.93989 0.52379 0.54401 0.0
C923 C 0.07488 0.5419 0.43229 0.0
O924 O 0.9871 0.48051 0.49272 0.0
O925 O 0.99498 0.47083 0.44795 0.0
O926 O 0.03604 0.51697 0.51038 0.0
O927 O 0.02319 0.52497 0.55359 0.0
O928 O 0.93946 0.45486 0.54366 0.0
O929 O 0.96275 0.47331 0.58339 0.0
O930 O 0.07367 0.54575 0.45899 0.0
O931 O 0.06062 0.51953 0.41782 0.0
H932 H 0.98834 0.54501 0.59403 0.0
H933 H 0.93259 0.5086 0.52492 0.0
H934 H 0.01546 0.41256 0.53301 0.0
H935 H 0.05645 0.4783 0.60165 0.0
H936 H 0.97843 0.52578 0.38893 0.0
H937 H 0.98352 0.56557 0.47698 0.0
H938 H 0.11232 0.45645 0.46118 0.0
H939 H 0.0599 0.42424 0.38615 0.0
H940 H 0.96539 0.57554 0.61371 0.0
H941 H 0.90775 0.53754 0.54346 0.0
Cd942 Cd 0.48428 -0.00263 0.54139 0.0
Cd943 Cd 0.53607 -0.00132 0.45246 0.0
C944 C 0.52698 0.98554 0.57891 0.0
N945 N 0.51289 0.97771 0.55376 0.0
C946 C 0.52802 0.94146 0.53947 0.0
C947 C 0.54253 0.94869 0.56538 0.0
C948 C 0.54205 0.97126 0.58517 0.0
C949 C 0.5132 0.95618 0.53419 0.0
H950 H 0.52612 0.00254 0.59429 0.0
H951 H 0.50155 0.95016 0.51454 0.0
C952 C 0.47799 0.96444 0.468 0.0
C953 C 0.48711 0.00634 0.42034 0.0
C954 C 0.47118 0.02023 0.41545 0.0
C955 C 0.47607 0.046 0.43144 0.0
C956 C 0.49656 0.05703 0.45234 0.0
C957 C 0.51158 0.0423 0.45686 0.0
N958 N 0.50677 0.01757 0.44093 0.0
H959 H 0.48389 0.98676 0.40767 0.0
H960 H 0.52736 0.05067 0.47297 0.0
C961 C 0.55417 0.95524 0.40889 0.0
N962 N 0.55616 0.96628 0.43707 0.0
C963 C 0.58674 0.94553 0.44468 0.0
C964 C 0.58563 0.9344 0.41549 0.0
C965 C 0.56865 0.9392 0.39768 0.0
C966 C 0.5719 0.96153 0.45502 0.0
H967 H 0.54189 0.95956 0.3949 0.0
H968 H 0.57367 0.9709 0.47727 0.0
C969 C 0.54417 0.02993 0.5274 0.0
C970 C 0.44837 0.95724 0.56336 0.0
N971 N 0.46436 0.0302 0.55847 0.0
C972 C 0.46426 0.03842 0.58704 0.0
C973 C 0.4497 0.05423 0.59894 0.0
C974 C 0.43474 0.06181 0.58146 0.0
C975 C 0.43579 0.05357 0.55195 0.0
C976 C 0.45062 0.03767 0.5409 0.0
C977 C 0.57244 0.03801 0.42931 0.0
O978 O 0.48736 0.98249 0.4901 0.0
O979 O 0.49246 0.96356 0.44709 0.0
O980 O 0.53446 0.0148 0.50367 0.0
O981 O 0.52957 0.0296 0.5483 0.0
O982 O 0.44628 0.95752 0.53735 0.0
O983 O 0.46627 0.97637 0.57892 0.0
O984 O 0.57461 0.03775 0.45532 0.0
O985 O 0.55411 0.01907 0.41401 0.0
H986 H 0.47492 0.03202 0.60075 0.0
H987 H 0.45039 0.03055 0.51827 0.0
H988 H 0.52802 0.92455 0.52335 0.0
H989 H 0.5526 0.97744 0.60558 0.0
H990 H 0.45566 0.01123 0.39893 0.0
H991 H 0.50083 0.07679 0.46515 0.0
H992 H 0.59969 0.94277 0.45931 0.0
H993 H 0.56667 0.93083 0.37515 0.0
H994 H 0.45007 0.06027 0.62174 0.0
H995 H 0.42449 0.05849 0.53742 0.0
H996 H 0.18264 0.21157 0.28654 0.0
H997 H 0.15748 0.18151 0.3156 0.0
H998 H 0.21761 0.14713 0.31201 0.0
H999 H 0.24295 0.1771 0.28298 0.0
H1000 H 0.15759 0.11118 0.30074 0.0
H1001 H 0.18882 0.18802 0.40075 0.0
H1002 H 0.17967 0.19807 0.37082 0.0
H1003 H 0.20807 0.18875 0.36995 0.0
C1004 C 0.19032 0.1974 0.29169 0.0
C1005 C 0.21473 0.19669 0.28276 0.0
C1006 C 0.17604 0.18039 0.30829 0.0
C1007 C 0.18593 0.1624 0.3159 0.0
C1008 C 0.20987 0.16103 0.30629 0.0
H1009 H 0.11246 0.08267 0.4493 0.0
H1010 H 0.14585 0.10572 0.42016 0.0
C1011 C 0.22428 0.17819 0.28988 0.0
C1012 C 0.17144 0.14568 0.33473 0.0
H1013 H 0.15296 0.14907 0.40247 0.0
C1014 C 0.15673 0.11924 0.32307 0.0
C1015 C 0.17109 0.15627 0.36384 0.0
C1016 C 0.18788 0.18429 0.37729 0.0
C1017 C 0.14033 0.10333 0.33971 0.0
C1018 C 0.13824 0.11457 0.36842 0.0
C1019 C 0.15428 0.14061 0.38037 0.0
C1020 C 0.11834 0.10031 0.3859 0.0
C1021 C 0.12531 0.07479 0.32626 0.0
C1022 C 0.09183 0.09027 0.37658 0.0
C1023 C 0.0729 0.07688 0.39293 0.0
C1024 C 0.08009 0.074 0.41926 0.0
C1025 C 0.10647 0.0849 0.42914 0.0
C1026 C 0.12551 0.09787 0.41248 0.0
H1027 H 0.13584 0.06715 0.30857 0.0
H1028 H 0.12192 0.06215 0.34185 0.0
H1029 H 0.10607 0.07308 0.31735 0.0
H1030 H 0.08576 0.09282 0.35664 0.0
H1031 H 0.05263 0.06879 0.385 0.0
H1032 H 0.80066 0.11922 0.33763 0.0
H1033 H 0.82836 0.11851 0.37611 0.0
H1034 H 0.89408 0.17703 0.34961 0.0
H1035 H 0.86625 0.17788 0.31095 0.0
H1036 H 0.9001 0.12777 0.35037 0.0
H1037 H 0.86508 0.16884 0.45181 0.0
H1038 H 0.83947 0.14652 0.42629 0.0
H1039 H 0.86018 0.17732 0.41893 0.0
C1040 C 0.82088 0.13236 0.34043 0.0
C1041 C 0.83145 0.1484 0.32125 0.0
C1042 C 0.83659 0.13215 0.36257 0.0
C1043 C 0.86316 0.14792 0.36584 0.0
C1044 C 0.87351 0.16496 0.34756 0.0
H1045 H 0.98162 0.12185 0.46172 0.0
H1046 H 0.9588 0.14514 0.44101 0.0
C1047 C 0.85767 0.16541 0.32554 0.0
C1048 C 0.8806 0.14316 0.38519 0.0
H1049 H 0.88942 0.14056 0.45373 0.0
C1050 C 0.89826 0.13115 0.37306 0.0
C1051 C 0.87784 0.1473 0.41471 0.0
C1052 C 0.85977 0.16092 0.42881 0.0
C1053 C 0.91231 0.12197 0.38953 0.0
C1054 C 0.90879 0.12525 0.41884 0.0
C1055 C 0.89194 0.13814 0.43122 0.0
C1056 C 0.92127 0.11365 0.43628 0.0
C1057 C 0.9298 0.10759 0.37537 0.0
C1058 C 0.9073 0.08877 0.44141 0.0
C1059 C 0.92008 0.07563 0.45384 0.0
C1060 C 0.94718 0.08694 0.46061 0.0
C1061 C 0.96071 0.11266 0.45706 0.0
C1062 C 0.9478 0.12594 0.44501 0.0
H1063 H 0.9297 0.10594 0.35214 0.0
H1064 H 0.95018 0.11813 0.38441 0.0
H1065 H 0.92336 0.08744 0.37948 0.0
H1066 H 0.88674 0.07911 0.43483 0.0
H1067 H 0.909 0.05608 0.45687 0.0
H1068 H 0.83337 0.76482 0.29188 0.0
H1069 H 0.86129 0.78473 0.33528 0.0
H1070 H 0.8304 0.84812 0.35235 0.0
H1071 H 0.80111 0.82718 0.30958 0.0
H1072 H 0.89874 0.82937 0.34604 0.0
H1073 H 0.8297 0.83307 0.42996 0.0
H1074 H 0.81995 0.81151 0.3953 0.0
H1075 H 0.82153 0.8453 0.40146 0.0
C1076 C 0.83205 0.78263 0.30535 0.0
C1077 C 0.81464 0.79414 0.29805 0.0
C1078 C 0.84803 0.79399 0.33005 0.0
C1079 C 0.84726 0.81737 0.34758 0.0
C1080 C 0.83051 0.82946 0.33973 0.0
H1081 H 0.94406 0.95639 0.41805 0.0
H1082 H 0.90885 0.91415 0.40148 0.0
C1083 C 0.81425 0.8179 0.31506 0.0
C1084 C 0.86644 0.83105 0.37187 0.0
H1085 H 0.87269 0.86907 0.43857 0.0
C1086 C 0.89304 0.83718 0.36666 0.0
C1087 C 0.85907 0.8407 0.399 0.0
C1088 C 0.83098 0.83201 0.40687 0.0
C1089 C 0.91231 0.85531 0.38668 0.0
C1090 C 0.90466 0.86787 0.41213 0.0
C1091 C 0.87835 0.85958 0.41875 0.0
C1092 C 0.9225 0.89367 0.42742 0.0
C1093 C 0.94059 0.86316 0.3793 0.0
C1094 C 0.94133 0.896 0.44796 0.0
C1095 C 0.96142 0.92025 0.45759 0.0
C1096 C 0.96299 0.94195 0.44625 0.0
C1097 C 0.94345 0.93973 0.42666 0.0
C1098 C 0.92321 0.9158 0.41752 0.0
H1099 H 0.94367 0.84907 0.36064 0.0
H1100 H 0.94695 0.88303 0.37446 0.0
H1101 H 0.95317 0.86427 0.39753 0.0
H1102 H 0.94116 0.87892 0.45547 0.0
H1103 H 0.97639 0.92175 0.47275 0.0
H1104 H 0.16588 0.78385 0.38047 0.0
H1105 H 0.16397 0.82033 0.41831 0.0
H1106 H 0.18308 0.87202 0.36024 0.0
H1107 H 0.18363 0.83584 0.32212 0.0
H1108 H 0.20149 0.89181 0.4303 0.0
H1109 H 0.09741 0.84103 0.38833 0.0
H1110 H 0.11733 0.82205 0.3931 0.0
H1111 H 0.12372 0.83998 0.36558 0.0
C1112 C 0.1702 0.80311 0.37589 0.0
C1113 C 0.17424 0.80672 0.34811 0.0
C1114 C 0.1696 0.82396 0.39763 0.0
C1115 C 0.17345 0.8486 0.39182 0.0
C1116 C 0.18044 0.85308 0.365 0.0
H1117 H 0.11616 0.96772 0.41445 0.0
H1118 H 0.14193 0.93879 0.40544 0.0
C1119 C 0.18065 0.83225 0.34321 0.0
C1120 C 0.16352 0.86715 0.41053 0.0
H1121 H 0.10841 0.88283 0.41835 0.0
C1122 C 0.18106 0.88967 0.42841 0.0
C1123 C 0.13687 0.86412 0.40745 0.0
C1124 C 0.1176 0.84055 0.38762 0.0
C1125 C 0.17259 0.91002 0.44249 0.0
C1126 C 0.14631 0.90742 0.43819 0.0
C1127 C 0.12855 0.88433 0.42158 0.0
C1128 C 0.13735 0.92966 0.44683 0.0
C1129 C 0.19176 0.93479 0.46054 0.0
C1130 C 0.12724 0.93445 0.47338 0.0
C1131 C 0.11277 0.95113 0.47858 0.0
C1132 C 0.10799 0.96242 0.45704 0.0
C1133 C 0.11965 0.95897 0.4312 0.0
C1134 C 0.13439 0.94269 0.42615 0.0
H1135 H 0.21137 0.93333 0.4628 0.0
H1136 H 0.19373 0.95181 0.45099 0.0
H1137 H 0.18423 0.93886 0.48185 0.0
H1138 H 0.12915 0.92409 0.48928 0.0
H1139 H 0.10389 0.95374 0.49857 0.0
H1140 H 0.16641 0.85503 0.69939 0.0
H1141 H 0.13544 0.8577 0.66532 0.0
H1142 H 0.17354 0.82401 0.59661 0.0
H1143 H 0.20448 0.82118 0.63079 0.0
H1144 H 0.17427 0.8797 0.60268 0.0
H1145 H 0.07489 0.8052 0.60309 0.0
H1146 H 0.09343 0.82007 0.63651 0.0
H1147 H 0.10445 0.79902 0.60961 0.0
C1148 C 0.1674 0.84723 0.67706 0.0
C1149 C 0.18756 0.83787 0.6675 0.0
C1150 C 0.14974 0.84866 0.65767 0.0
C1151 C 0.15218 0.84085 0.62855 0.0
C1152 C 0.17125 0.82982 0.61904 0.0
H1153 H 0.06005 0.87693 0.50749 0.0
H1154 H 0.08464 0.85438 0.52732 0.0
C1155 C 0.18884 0.82823 0.63847 0.0
C1156 C 0.13857 0.84924 0.60864 0.0
H1157 H 0.07808 0.84153 0.5829 0.0
C1158 C 0.15331 0.87104 0.59784 0.0
C1159 C 0.11129 0.83791 0.60259 0.0
C1160 C 0.09496 0.81413 0.61335 0.0
C1161 C 0.14125 0.88265 0.58215 0.0
C1162 C 0.1138 0.87213 0.57725 0.0
C1163 C 0.09916 0.84949 0.5868 0.0
C1164 C 0.09983 0.88581 0.56452 0.0
C1165 C 0.15787 0.90659 0.57172 0.0
C1166 C 0.10041 0.91082 0.57898 0.0
C1167 C 0.08651 0.92364 0.56781 0.0
C1168 C 0.07166 0.91157 0.54204 0.0
C1169 C 0.07133 0.8866 0.52742 0.0
C1170 C 0.08529 0.87375 0.53866 0.0
H1171 H 0.17855 0.90769 0.57023 0.0
H1172 H 0.15022 0.90654 0.55068 0.0
H1173 H 0.15756 0.92466 0.58684 0.0
H1174 H 0.11116 0.92016 0.59925 0.0
H1175 H 0.08661 0.94256 0.57992 0.0
H1176 H 0.23023 0.17251 0.69519 0.0
H1177 H 0.20213 0.14673 0.65265 0.0
H1178 H 0.15999 0.20096 0.66578 0.0
H1179 H 0.18832 0.22691 0.70817 0.0
H1180 H 0.14907 0.12506 0.66107 0.0
H1181 H 0.1642 0.18388 0.57877 0.0
H1182 H 0.18851 0.191 0.60697 0.0
H1183 H 0.16023 0.20035 0.61393 0.0
C1184 C 0.21553 0.17934 0.68838 0.0
C1185 C 0.2117 0.20194 0.70432 0.0
C1186 C 0.19959 0.16473 0.6641 0.0
C1187 C 0.17931 0.17223 0.65581 0.0
C1188 C 0.17603 0.19531 0.67129 0.0
H1189 H 0.03445 0.07708 0.55497 0.0
H1190 H 0.07128 0.11566 0.5799 0.0
C1191 C 0.19212 0.21003 0.69549 0.0
C1192 C 0.15873 0.1533 0.63473 0.0
H1193 H 0.12749 0.14362 0.57088 0.0
C1194 C 0.14451 0.12906 0.64125 0.0
C1195 C 0.15246 0.15895 0.60931 0.0
C1196 C 0.16723 0.18488 0.60161 0.0
C1197 C 0.12425 0.11011 0.62299 0.0
C1198 C 0.11847 0.11522 0.59705 0.0
C1199 C 0.13224 0.13972 0.59066 0.0
C1200 C 0.09844 0.09463 0.57654 0.0
C1201 C 0.10901 0.08479 0.63184 0.0
C1202 C 0.10192 0.07051 0.56569 0.0
C1203 C 0.08087 0.04851 0.55263 0.0
C1204 C 0.05639 0.05064 0.54895 0.0
C1205 C 0.05335 0.07524 0.55756 0.0
C1206 C 0.07433 0.0972 0.57152 0.0
H1207 H 0.1111 0.08697 0.65507 0.0
H1208 H 0.08789 0.07825 0.6255 0.0
H1209 H 0.11654 0.06907 0.6214 0.0
H1210 H 0.12047 0.06825 0.56918 0.0
H1211 H 0.08354 0.02966 0.54624 0.0
H1212 H 0.83652 0.19887 0.61874 0.0
H1213 H 0.83531 0.16162 0.57975 0.0
H1214 H 0.88591 0.14119 0.63048 0.0
H1215 H 0.88668 0.17798 0.6694 0.0
H1216 H 0.87734 0.15404 0.55228 0.0
H1217 H 0.82743 0.07062 0.60219 0.0
H1218 H 0.82625 0.10328 0.61563 0.0
H1219 H 0.85384 0.09528 0.62489 0.0
C1220 C 0.84766 0.18656 0.62113 0.0
C1221 C 0.86224 0.19128 0.64637 0.0
C1222 C 0.84663 0.16522 0.59923 0.0
C1223 C 0.85994 0.14844 0.60271 0.0
C1224 C 0.87489 0.15355 0.62783 0.0
H1225 H 0.95465 0.07983 0.5339 0.0
H1226 H 0.9281 0.10734 0.5417 0.0
C1227 C 0.87583 0.17476 0.64969 0.0
C1228 C 0.86052 0.12703 0.57926 0.0
H1229 H 0.85791 0.06349 0.5665 0.0
C1230 C 0.87226 0.13394 0.5548 0.0
C1231 C 0.85336 0.10082 0.58249 0.0
C1232 C 0.83926 0.09203 0.60764 0.0
C1233 C 0.87992 0.11599 0.53497 0.0
C1234 C 0.87572 0.0908 0.54 0.0
C1235 C 0.86114 0.08291 0.5627 0.0
C1236 C 0.89157 0.07524 0.52706 0.0
C1237 C 0.89411 0.12473 0.50993 0.0
C1238 C 0.87986 0.04809 0.51594 0.0
C1239 C 0.89506 0.03211 0.51203 0.0
C1240 C 0.92204 0.04323 0.51937 0.0
C1241 C 0.93387 0.07068 0.52833 0.0
C1242 C 0.91875 0.08654 0.53224 0.0
H1243 H 0.88786 0.13998 0.5038 0.0
H1244 H 0.91546 0.13357 0.51543 0.0
H1245 H 0.89039 0.10775 0.49167 0.0
H1246 H 0.85882 0.03908 0.51235 0.0
H1247 H 0.88535 0.01096 0.50537 0.0
H1248 H 0.83825 0.77954 0.71035 0.0
H1249 H 0.86326 0.80613 0.67805 0.0
H1250 H 0.80668 0.84494 0.68177 0.0
H1251 H 0.78166 0.81857 0.71413 0.0
H1252 H 0.82133 0.82493 0.6251 0.0
H1253 H 0.90573 0.88725 0.70108 0.0
H1254 H 0.89589 0.85225 0.69818 0.0
H1255 H 0.87417 0.86929 0.71228 0.0
C1256 C 0.83135 0.79395 0.70447 0.0
C1257 C 0.80806 0.79701 0.71454 0.0
C1258 C 0.84554 0.809 0.68602 0.0
C1259 C 0.83673 0.82742 0.6777 0.0
C1260 C 0.81361 0.83067 0.68792 0.0
H1261 H 0.93135 0.95337 0.60306 0.0
H1262 H 0.89996 0.92633 0.63052 0.0
C1263 C 0.7994 0.81564 0.70635 0.0
C1264 C 0.85174 0.84345 0.65837 0.0
H1265 H 0.90981 0.89148 0.65373 0.0
C1266 C 0.84065 0.83959 0.63125 0.0
C1267 C 0.87671 0.86265 0.6668 0.0
C1268 C 0.88884 0.86837 0.69623 0.0
C1269 C 0.85416 0.85438 0.61205 0.0
C1270 C 0.87951 0.87311 0.62021 0.0
C1271 C 0.8904 0.87703 0.64749 0.0
C1272 C 0.8953 0.88927 0.60122 0.0
C1273 C 0.84099 0.85014 0.58351 0.0
C1274 C 0.90259 0.87743 0.57527 0.0
C1275 C 0.92027 0.89295 0.55928 0.0
C1276 C 0.93129 0.92037 0.56947 0.0
C1277 C 0.92336 0.9322 0.59497 0.0
C1278 C 0.90539 0.9168 0.6106 0.0
H1279 H 0.81938 0.84109 0.58372 0.0
H1280 H 0.84582 0.869 0.5766 0.0
H1281 H 0.84786 0.83653 0.56767 0.0
H1282 H 0.89548 0.85617 0.56794 0.0
H1283 H 0.9262 0.88343 0.53968 0.0
H1284 H 0.29376 0.21337 0.16244 0.0
H1285 H 0.31608 0.18479 0.13571 0.0
H1286 H 0.33246 0.1652 0.21282 0.0
H1287 H 0.30952 0.19294 0.23912 0.0
H1288 H 0.36863 0.18767 0.14259 0.0
H1289 H 0.30045 0.09242 0.16002 0.0
H1290 H 0.29193 0.12177 0.16601 0.0
H1291 H 0.31195 0.11732 0.19203 0.0
C1292 C 0.30169 0.20264 0.17354 0.0
C1293 C 0.29974 0.20556 0.20295 0.0
C1294 C 0.31471 0.18643 0.15829 0.0
C1295 C 0.32579 0.1724 0.17206 0.0
C1296 C 0.32381 0.17532 0.20144 0.0
H1297 H 0.41351 0.06594 0.13261 0.0
H1298 H 0.38833 0.09344 0.15313 0.0
C1299 C 0.31094 0.19156 0.21659 0.0
C1300 C 0.34003 0.15529 0.15614 0.0
H1301 H 0.34143 0.09248 0.14222 0.0
C1302 C 0.36254 0.16679 0.14227 0.0
C1303 C 0.33227 0.12801 0.15567 0.0
C1304 C 0.3077 0.11403 0.16899 0.0
C1305 C 0.37797 0.15215 0.12903 0.0
C1306 C 0.37041 0.12486 0.12886 0.0
C1307 C 0.34754 0.1133 0.14228 0.0
C1308 C 0.38621 0.1081 0.11576 0.0
C1309 C 0.40283 0.16651 0.11643 0.0
C1310 C 0.39346 0.10653 0.08755 0.0
C1311 C 0.40851 0.0911 0.07578 0.0
C1312 C 0.41653 0.07631 0.09165 0.0
C1313 C 0.40858 0.07741 0.11967 0.0
C1314 C 0.39377 0.09303 0.13148 0.0
H1315 H 0.40978 0.18808 0.12561 0.0
H1316 H 0.41868 0.15902 0.11984 0.0
H1317 H 0.39907 0.16351 0.09334 0.0
H1318 H 0.38737 0.11717 0.07445 0.0
H1319 H 0.41409 0.09107 0.05424 0.0
H1320 H 0.8052 0.25432 0.16625 0.0
H1321 H 0.83387 0.28138 0.13652 0.0
H1322 H 0.82725 0.35129 0.191 0.0
H1323 H 0.80061 0.32479 0.22191 0.0
H1324 H 0.82647 0.315 0.1065 0.0
H1325 H 0.90536 0.37086 0.18967 0.0
H1326 H 0.87921 0.34125 0.19331 0.0
H1327 H 0.87449 0.37259 0.20122 0.0
C1328 C 0.81032 0.2755 0.17223 0.0
C1329 C 0.80109 0.28742 0.19688 0.0
C1330 C 0.82646 0.2909 0.15502 0.0
C1331 C 0.83327 0.31843 0.16196 0.0
C1332 C 0.82296 0.33017 0.18573 0.0
H1333 H 0.91583 0.45926 0.1091 0.0
H1334 H 0.88838 0.4232 0.12973 0.0
C1335 C 0.80738 0.3149 0.2032 0.0
C1336 C 0.85102 0.33522 0.14458 0.0
H1337 H 0.90529 0.39049 0.15023 0.0
C1338 C 0.8439 0.33134 0.11588 0.0
C1339 C 0.87401 0.35621 0.15676 0.0
C1340 C 0.88387 0.3603 0.18685 0.0
C1341 C 0.85815 0.34908 0.09957 0.0
C1342 C 0.88018 0.37107 0.11237 0.0
C1343 C 0.88808 0.37396 0.14059 0.0
C1344 C 0.89467 0.39226 0.09774 0.0
C1345 C 0.84879 0.34472 0.06926 0.0
C1346 C 0.90695 0.38687 0.07258 0.0
C1347 C 0.92213 0.40748 0.06037 0.0
C1348 C 0.92583 0.43379 0.07361 0.0
C1349 C 0.9133 0.43913 0.09854 0.0
C1350 C 0.89769 0.41855 0.11034 0.0
H1351 H 0.82831 0.33076 0.06481 0.0
H1352 H 0.85004 0.36361 0.064 0.0
H1353 H 0.86137 0.3362 0.05506 0.0
H1354 H 0.90554 0.36688 0.06286 0.0
H1355 H 0.93194 0.40293 0.04133 0.0
H1356 H 0.65844 0.84574 0.19749 0.0
H1357 H 0.63031 0.85833 0.16931 0.0
H1358 H 0.67164 0.84104 0.09526 0.0
H1359 H 0.70028 0.82848 0.12364 0.0
H1360 H 0.66237 0.90194 0.13238 0.0
H1361 H 0.58208 0.80999 0.07981 0.0
H1362 H 0.59701 0.81216 0.11354 0.0
H1363 H 0.61537 0.81089 0.08256 0.0
C1364 C 0.66117 0.84397 0.17505 0.0
C1365 C 0.6817 0.83629 0.16285 0.0
C1366 C 0.64506 0.85116 0.15898 0.0
C1367 C 0.64892 0.85067 0.13026 0.0
C1368 C 0.66828 0.8414 0.1174 0.0
H1369 H 0.56279 0.91485 0.03092 0.0
H1370 H 0.58969 0.8908 0.04277 0.0
C1371 C 0.68451 0.83411 0.13358 0.0
C1372 C 0.63478 0.86307 0.11528 0.0
H1373 H 0.57771 0.85056 0.07786 0.0
C1374 C 0.64407 0.89069 0.12007 0.0
C1375 C 0.61101 0.84835 0.09916 0.0
C1376 C 0.60058 0.81867 0.09327 0.0
C1377 C 0.62969 0.90405 0.11013 0.0
C1378 C 0.60514 0.88943 0.09544 0.0
C1379 C 0.59643 0.86173 0.08936 0.0
C1380 C 0.5877 0.9028 0.08797 0.0
C1381 C 0.64063 0.93378 0.11589 0.0
C1382 C 0.57723 0.9171 0.10944 0.0
C1383 C 0.56154 0.93058 0.10281 0.0
C1384 C 0.55602 0.9302 0.07447 0.0
C1385 C 0.56629 0.91544 0.05297 0.0
C1386 C 0.58181 0.90175 0.05966 0.0
H1387 H 0.66212 0.94156 0.1207 0.0
H1388 H 0.63635 0.94094 0.09752 0.0
H1389 H 0.63137 0.94197 0.13443 0.0
H1390 H 0.58122 0.91784 0.13143 0.0
H1391 H 0.55354 0.94108 0.11997 0.0
H1392 H 0.24743 0.72337 0.15199 0.0
H1393 H 0.21923 0.69665 0.10941 0.0
H1394 H 0.18364 0.63485 0.15392 0.0
H1395 H 0.21069 0.66202 0.19663 0.0
H1396 H 0.20589 0.64251 0.07461 0.0
H1397 H 0.12369 0.65892 0.13488 0.0
H1398 H 0.15746 0.6782 0.14608 0.0
H1399 H 0.14235 0.64615 0.15388 0.0
C1400 C 0.23416 0.70371 0.15223 0.0
C1401 C 0.23129 0.6945 0.17733 0.0
C1402 C 0.21802 0.68854 0.12799 0.0
C1403 C 0.19909 0.66394 0.12866 0.0
C1404 C 0.19786 0.65396 0.1531 0.0
H1405 H 0.08562 0.52757 0.05725 0.0
H1406 H 0.12737 0.56385 0.07145 0.0
C1407 C 0.2135 0.6693 0.17739 0.0
C1408 C 0.17864 0.64956 0.10542 0.0
H1409 H 0.11228 0.62151 0.09526 0.0
C1410 C 0.18542 0.63831 0.07884 0.0
C1411 C 0.15194 0.64483 0.11056 0.0
C1412 C 0.14342 0.65791 0.13779 0.0
C1413 C 0.16595 0.62029 0.05842 0.0
C1414 C 0.13945 0.61343 0.06505 0.0
C1415 C 0.13272 0.62661 0.09043 0.0
C1416 C 0.11863 0.58979 0.04889 0.0
C1417 C 0.17365 0.60771 0.03048 0.0
C1418 C 0.10034 0.59211 0.03069 0.0
C1419 C 0.0766 0.5712 0.02225 0.0
C1420 C 0.07084 0.54812 0.03247 0.0
C1421 C 0.08981 0.54523 0.04914 0.0
C1422 C 0.11365 0.56583 0.05705 0.0
H1423 H 0.19435 0.61819 0.02655 0.0
H1424 H 0.17102 0.58691 0.03029 0.0
H1425 H 0.16078 0.60757 0.01298 0.0
H1426 H 0.10368 0.6106 0.02455 0.0
H1427 H 0.06206 0.57377 0.00946 0.0
H1428 H 0.26601 0.77569 0.84484 0.0
H1429 H 0.28975 0.79856 0.89096 0.0
H1430 H 0.36232 0.82025 0.84934 0.0
H1431 H 0.339 0.7975 0.80376 0.0
H1432 H 0.36512 0.80716 0.90456 0.0
H1433 H 0.31702 0.88079 0.90259 0.0
H1434 H 0.29722 0.84665 0.89962 0.0
H1435 H 0.31702 0.8564 0.87121 0.0
C1436 C 0.2871 0.78503 0.84578 0.0
C1437 C 0.30073 0.78523 0.82088 0.0
C1438 C 0.30057 0.79785 0.87201 0.0
C1439 C 0.32769 0.81117 0.87339 0.0
C1440 C 0.34141 0.80983 0.84867 0.0
H1441 H 0.4457 0.94575 0.91782 0.0
H1442 H 0.40503 0.90825 0.90482 0.0
C1443 C 0.32805 0.7969 0.82261 0.0
C1444 C 0.34168 0.83015 0.89917 0.0
H1445 H 0.35622 0.89523 0.92997 0.0
C1446 C 0.36274 0.82618 0.91109 0.0
C1447 C 0.33838 0.85486 0.90733 0.0
C1448 C 0.31627 0.86017 0.8946 0.0
C1449 C 0.38218 0.84716 0.92881 0.0
C1450 C 0.38017 0.87253 0.93479 0.0
C1451 C 0.35763 0.87573 0.9253 0.0
C1452 C 0.40334 0.89654 0.94479 0.0
C1453 C 0.40597 0.84266 0.93858 0.0
C1454 C 0.41575 0.90257 0.97171 0.0
C1455 C 0.43927 0.92397 0.97906 0.0
C1456 C 0.45037 0.93969 0.95971 0.0
C1457 C 0.43749 0.93397 0.93315 0.0
C1458 C 0.41419 0.91267 0.92579 0.0
H1459 H 0.40526 0.82209 0.93029 0.0
H1460 H 0.42398 0.85632 0.93166 0.0
H1461 H 0.40738 0.84678 0.96202 0.0
H1462 H 0.40767 0.89036 0.98667 0.0
H1463 H 0.44939 0.92738 -0.00083 0.0
H1464 H 0.23207 0.29199 0.83962 0.0
H1465 H 0.20622 0.31742 0.86448 0.0
H1466 H 0.18163 0.32637 0.78471 0.0
H1467 H 0.20741 0.30094 0.75991 0.0
H1468 H 0.20963 0.37075 0.86256 0.0
H1469 H 0.11228 0.29601 0.82354 0.0
H1470 H 0.14174 0.28802 0.82236 0.0
H1471 H 0.13476 0.30381 0.79643 0.0
C1472 C 0.22109 0.29917 0.82741 0.0
C1473 C 0.22189 0.29427 0.79781 0.0
C1474 C 0.20637 0.31387 0.84164 0.0
C1475 C 0.1917 0.32358 0.82646 0.0
C1476 C 0.19253 0.31885 0.79689 0.0
H1477 H 0.08632 0.41152 0.8616 0.0
H1478 H 0.11292 0.38542 0.84106 0.0
C1479 C 0.2075 0.30447 0.78276 0.0
C1480 C 0.17576 0.33895 0.84137 0.0
H1481 H 0.11309 0.33859 0.84701 0.0
C1482 C 0.1885 0.36368 0.85936 0.0
C1483 C 0.1482 0.32971 0.83718 0.0
C1484 C 0.13333 0.30284 0.81904 0.0
C1485 C 0.17455 0.37982 0.87247 0.0
C1486 C 0.14692 0.37071 0.86804 0.0
C1487 C 0.13421 0.34573 0.85039 0.0
C1488 C 0.13081 0.38685 0.881 0.0
C1489 C 0.18971 0.40684 0.8901 0.0
C1490 C 0.13152 0.39615 0.91044 0.0
C1491 C 0.11613 0.41104 0.92235 0.0
C1492 C 0.0994 0.41688 0.90518 0.0
C1493 C 0.09855 0.40723 0.87569 0.0
C1494 C 0.11396 0.39238 0.86382 0.0
H1495 H 0.21052 0.4137 0.88469 0.0
H1496 H 0.18103 0.42159 0.88726 0.0
H1497 H 0.18933 0.40604 0.91276 0.0
H1498 H 0.14373 0.39161 0.92432 0.0
H1499 H 0.11708 0.41761 0.94513 0.0
H1500 H 0.68124 0.22543 0.79567 0.0
H1501 H 0.65043 0.1997 0.82519 0.0
H1502 H 0.71337 0.18252 0.85925 0.0
H1503 H 0.74398 0.21011 0.83199 0.0
H1504 H 0.63878 0.14827 0.81821 0.0
H1505 H 0.6759 0.19329 0.92898 0.0
H1506 H 0.68713 0.21044 0.90091 0.0
H1507 H 0.70144 0.18737 0.90792 0.0
C1508 C 0.68852 0.21694 0.81028 0.0
C1509 C 0.71485 0.21895 0.81092 0.0
C1510 C 0.67092 0.20207 0.82697 0.0
C1511 C 0.6795 0.18909 0.84454 0.0
C1512 C 0.70617 0.19257 0.84634 0.0
H1513 H 0.62283 0.06027 0.92786 0.0
H1514 H 0.64761 0.09756 0.90707 0.0
C1515 C 0.72366 0.20773 0.83006 0.0
C1516 C 0.66048 0.16913 0.85791 0.0
H1517 H 0.6498 0.14669 0.91885 0.0
C1518 C 0.64086 0.14815 0.84035 0.0
C1519 C 0.66325 0.16888 0.88676 0.0
C1520 C 0.68293 0.19139 0.90723 0.0
C1521 C 0.62501 0.12621 0.85033 0.0
C1522 C 0.62847 0.12546 0.87897 0.0
C1523 C 0.64735 0.14701 0.89682 0.0
C1524 C 0.61333 0.10233 0.89074 0.0
C1525 C 0.60571 0.10354 0.8296 0.0
C1526 C 0.58585 0.09254 0.88853 0.0
C1527 C 0.57183 0.07075 0.8995 0.0
C1528 C 0.58496 0.05897 0.91388 0.0
C1529 C 0.61235 0.06905 0.91679 0.0
C1530 C 0.62644 0.09037 0.90501 0.0
H1531 H 0.61091 0.10386 0.80738 0.0
H1532 H 0.60461 0.08425 0.83362 0.0
H1533 H 0.58603 0.10516 0.83173 0.0
H1534 H 0.57518 0.10192 0.87863 0.0
H1535 H 0.55064 0.0636 0.89755 0.0
H1536 H 0.85778 0.64645 0.80013 0.0
H1537 H 0.8756 0.62344 0.82732 0.0
H1538 H 0.87769 0.68137 0.90342 0.0
H1539 H 0.85992 0.70488 0.87606 0.0
H1540 H 0.92938 0.66126 0.86765 0.0
H1541 H 0.84442 0.59584 0.91363 0.0
H1542 H 0.83996 0.60395 0.88044 0.0
H1543 H 0.84704 0.629 0.91246 0.0
C1544 C 0.86151 0.65404 0.82276 0.0
C1545 C 0.85767 0.6776 0.8359 0.0
C1546 C 0.87166 0.64085 0.83825 0.0
C1547 C 0.87803 0.65077 0.86728 0.0
C1548 C 0.87278 0.67339 0.88099 0.0
H1549 H 0.94709 0.57016 0.96321 0.0
H1550 H 0.92529 0.59889 0.95189 0.0
C1551 C 0.86251 0.68669 0.8654 0.0
C1552 C 0.89272 0.6388 0.88201 0.0
H1553 H 0.88447 0.58882 0.91578 0.0
C1554 C 0.91968 0.64569 0.87858 0.0
C1555 C 0.88005 0.61877 0.89647 0.0
C1556 C 0.85125 0.6113 0.90116 0.0
C1557 C 0.93415 0.63227 0.88822 0.0
C1558 C 0.92112 0.61086 0.90088 0.0
C1559 C 0.8944 0.60496 0.90571 0.0
C1560 C 0.93455 0.59357 0.9079 0.0
C1561 C 0.96323 0.6411 0.88452 0.0
C1562 C 0.94659 0.58057 0.88684 0.0
C1563 C 0.95936 0.56439 0.8933 0.0
C1564 C 0.96008 0.56052 0.92093 0.0
C1565 C 0.94737 0.57303 0.94182 0.0
C1566 C 0.93473 0.58936 0.93536 0.0
H1567 H 0.97132 0.6623 0.88382 0.0
H1568 H 0.97387 0.63798 0.9019 0.0
H1569 H 0.96699 0.62959 0.86418 0.0
H1570 H 0.94612 0.58293 0.86531 0.0
H1571 H 0.9691 0.55533 0.87671 0.0
H1572 H 0.14491 0.30992 0.17679 0.0
H1573 H 0.12568 0.34073 0.1649 0.0
H1574 H 0.15956 0.33431 0.08367 0.0
H1575 H 0.17782 0.30283 0.09506 0.0
H1576 H 0.14412 0.38798 0.15019 0.0
H1577 H 0.08398 0.31262 0.05932 0.0
H1578 H 0.10194 0.30455 0.08451 0.0
H1579 H 0.1184 0.31939 0.05656 0.0
C1580 C 0.14851 0.31544 0.15659 0.0
C1581 C 0.16263 0.30387 0.13671 0.0
C1582 C 0.13745 0.33293 0.14974 0.0
C1583 C 0.14047 0.33921 0.123 0.0
C1584 C 0.15615 0.32907 0.104 0.0
H1585 H 0.07808 0.4332 0.04129 0.0
H1586 H 0.1024 0.40677 0.05309 0.0
C1587 C 0.16681 0.31132 0.11064 0.0
C1588 C 0.12663 0.35568 0.11466 0.0
H1589 H 0.08311 0.35583 0.06507 0.0
C1590 C 0.13073 0.38089 0.13163 0.0
C1591 C 0.10917 0.3465 0.09032 0.0
C1592 C 0.10289 0.3192 0.07177 0.0
C1593 C 0.11804 0.3972 0.12488 0.0
C1594 C 0.10047 0.3879 0.10076 0.0
C1595 C 0.0966 0.36288 0.08356 0.0
C1596 C 0.08542 0.4036 0.09343 0.0
C1597 C 0.12381 0.42441 0.1434 0.0
C1598 C 0.06739 0.4101 0.11191 0.0
C1599 C 0.05328 0.42501 0.10515 0.0
C1600 C 0.05685 0.43369 0.07969 0.0
C1601 C 0.07467 0.42675 0.061 0.0
C1602 C 0.08871 0.41174 0.06775 0.0
H1603 H 0.14251 0.43116 0.15628 0.0
H1604 H 0.12483 0.43898 0.13052 0.0
H1605 H 0.10788 0.42403 0.15809 0.0
H1606 H 0.06407 0.40344 0.13151 0.0
H1607 H 0.03926 0.42936 0.11971 0.0
H1608 H 0.20006 0.73071 0.81525 0.0
H1609 H 0.17215 0.70245 0.8442 0.0
H1610 H 0.20155 0.64054 0.80709 0.0
H1611 H 0.22887 0.66846 0.77719 0.0
H1612 H 0.13298 0.64861 0.82364 0.0
H1613 H 0.21295 0.65439 0.89654 0.0
H1614 H 0.21617 0.67871 0.87592 0.0
H1615 H 0.2185 0.64736 0.85941 0.0
C1616 C 0.20025 0.71093 0.81282 0.0
C1617 C 0.2166 0.70177 0.79379 0.0
C1618 C 0.18449 0.69493 0.8296 0.0
C1619 C 0.18504 0.66959 0.82793 0.0
C1620 C 0.20119 0.66024 0.8089 0.0
H1621 H 0.08084 0.53201 0.87397 0.0
H1622 H 0.108 0.56668 0.85148 0.0
C1623 C 0.21685 0.67621 0.79194 0.0
C1624 C 0.16843 0.65273 0.8458 0.0
H1625 H 0.17117 0.62237 0.89912 0.0
C1626 C 0.14125 0.64297 0.84027 0.0
C1627 C 0.17933 0.64602 0.86788 0.0
C1628 C 0.20832 0.65729 0.87558 0.0
C1629 C 0.12469 0.62555 0.85544 0.0
C1630 C 0.13574 0.61749 0.87633 0.0
C1631 C 0.16282 0.62833 0.88283 0.0
C1632 C 0.11969 0.59664 0.89038 0.0
C1633 C 0.09554 0.61581 0.84889 0.0
C1634 C 0.11809 0.60178 0.91986 0.0
C1635 C 0.10282 0.58185 0.93287 0.0
C1636 C 0.08899 0.55654 0.91651 0.0
C1637 C 0.09111 0.55137 0.88709 0.0
C1638 C 0.10645 0.5712 0.87418 0.0
H1639 H 0.08983 0.62933 0.83869 0.0
H1640 H 0.08945 0.59618 0.83405 0.0
H1641 H 0.08469 0.61369 0.86838 0.0
H1642 H 0.12835 0.62127 0.93272 0.0
H1643 H 0.10143 0.58639 0.95559 0.0
H1644 H 0.32935 0.17685 0.87568 0.0
H1645 H 0.35967 0.16575 0.90323 0.0
H1646 H 0.38263 0.12608 0.82586 0.0
H1647 H 0.35351 0.13788 0.79853 0.0
H1648 H 0.35835 0.11674 0.90585 0.0
H1649 H 0.45265 0.16865 0.8655 0.0
H1650 H 0.42352 0.17587 0.86018 0.0
H1651 H 0.42961 0.14877 0.83663 0.0
C1652 C 0.34143 0.16638 0.86462 0.0
C1653 C 0.33901 0.15817 0.83492 0.0
C1654 C 0.35857 0.15989 0.88036 0.0
C1655 C 0.37375 0.14542 0.8666 0.0
C1656 C 0.37169 0.13781 0.83698 0.0
H1657 H 0.461 0.04999 0.8798 0.0
H1658 H 0.43664 0.07644 0.86883 0.0
C1659 C 0.35476 0.14432 0.82136 0.0
C1660 C 0.39043 0.13636 0.88268 0.0
H1661 H 0.4504 0.12998 0.8827 0.0
C1662 C 0.37866 0.12008 0.90133 0.0
C1663 C 0.41701 0.14094 0.87704 0.0
C1664 C 0.43146 0.15976 0.85898 0.0
C1665 C 0.39213 0.10654 0.91258 0.0
C1666 C 0.41807 0.1096 0.90508 0.0
C1667 C 0.43036 0.12729 0.88803 0.0
C1668 C 0.43215 0.09309 0.9125 0.0
C1669 C 0.37798 0.08795 0.93102 0.0
C1670 C 0.43767 0.09355 0.94074 0.0
C1671 C 0.45107 0.07785 0.94712 0.0
C1672 C 0.45965 0.06175 0.92537 0.0
C1673 C 0.45425 0.0616 0.89712 0.0
C1674 C 0.44058 0.07701 0.8908 0.0
H1675 H 0.35655 0.08378 0.93001 0.0
H1676 H 0.38147 0.06897 0.92476 0.0
H1677 H 0.38544 0.097 0.95333 0.0
H1678 H 0.43183 0.10619 0.95786 0.0
H1679 H 0.45464 0.07833 0.96912 0.0
H1680 H 0.83698 0.30526 0.79445 0.0
H1681 H 0.86297 0.33561 0.83615 0.0
H1682 H 0.79239 0.33743 0.87701 0.0
H1683 H 0.7661 0.30554 0.83573 0.0
H1684 H 0.86705 0.38418 0.86061 0.0
H1685 H 0.8293 0.32046 0.93734 0.0
H1686 H 0.82259 0.30821 0.89965 0.0
H1687 H 0.80497 0.32755 0.91954 0.0
C1688 C 0.82694 0.31185 0.81244 0.0
C1689 C 0.7995 0.30239 0.81219 0.0
C1690 C 0.84183 0.32933 0.83622 0.0
C1691 C 0.82964 0.33825 0.86008 0.0
C1692 C 0.80222 0.33011 0.85926 0.0
H1693 H 0.9309 0.47044 0.98372 0.0
H1694 H 0.88823 0.43697 0.96592 0.0
C1695 C 0.78723 0.31219 0.83553 0.0
C1696 C 0.84608 0.35645 0.8853 0.0
H1697 H 0.86174 0.3623 0.95499 0.0
C1698 C 0.86563 0.37952 0.8813 0.0
C1699 C 0.84434 0.35021 0.91229 0.0
C1700 C 0.82434 0.32517 0.91754 0.0
C1701 C 0.88396 0.39609 0.90314 0.0
C1702 C 0.88239 0.38982 0.93001 0.0
C1703 C 0.8625 0.36717 0.93445 0.0
C1704 C 0.9035 0.40543 0.95201 0.0
C1705 C 0.90575 0.41964 0.897 0.0
C1706 C 0.92566 0.39814 0.95209 0.0
C1707 C 0.95002 0.4173 0.96163 0.0
C1708 C 0.95224 0.4437 0.97181 0.0
C1709 C 0.92952 0.45013 0.9759 0.0
C1710 C 0.90515 0.43101 0.96592 0.0
H1711 H 0.905 0.42085 0.87451 0.0
H1712 H 0.90448 0.43808 0.91043 0.0
H1713 H 0.92505 0.41865 0.90216 0.0
H1714 H 0.92472 0.37848 0.94143 0.0
H1715 H 0.96737 0.41197 0.95856 0.0
H1716 H 0.67986 0.76407 0.77492 0.0
H1717 H 0.65758 0.79327 0.79844 0.0
H1718 H 0.72847 0.84217 0.84922 0.0
H1719 H 0.75195 0.81617 0.82123 0.0
H1720 H 0.64273 0.80498 0.84392 0.0
H1721 H 0.71512 0.90127 0.83455 0.0
H1722 H 0.71871 0.8707 0.81694 0.0
H1723 H 0.72901 0.88468 0.85388 0.0
C1724 C 0.69107 0.78178 0.79007 0.0
C1725 C 0.71804 0.78809 0.79527 0.0
C1726 C 0.67808 0.79827 0.80422 0.0
C1727 C 0.69126 0.82091 0.8253 0.0
C1728 C 0.71781 0.82597 0.83214 0.0
H1729 H 0.62841 0.92932 0.93961 0.0
H1730 H 0.65449 0.90287 0.91826 0.0
C1731 C 0.73118 0.81035 0.8167 0.0
C1732 C 0.67681 0.83836 0.84025 0.0
H1733 H 0.68034 0.9026 0.86418 0.0
C1734 C 0.65109 0.82631 0.84788 0.0
C1735 C 0.68735 0.86646 0.8461 0.0
C1736 C 0.71394 0.88149 0.83718 0.0
C1737 C 0.63575 0.84112 0.8605 0.0
C1738 C 0.64637 0.86898 0.86642 0.0
C1739 C 0.67221 0.88123 0.85967 0.0
C1740 C 0.63072 0.88566 0.87911 0.0
C1741 C 0.60819 0.82677 0.86746 0.0
C1742 C 0.60881 0.88523 0.8641 0.0
C1743 C 0.59399 0.90073 0.87605 0.0
C1744 C 0.60055 0.91707 0.9035 0.0
C1745 C 0.6227 0.91746 0.91836 0.0
C1746 C 0.63767 0.90214 0.90624 0.0
H1747 H 0.60494 0.80589 0.86769 0.0
H1748 H 0.6036 0.8367 0.88833 0.0
H1749 H 0.5943 0.82689 0.85119 0.0
H1750 H 0.60328 0.87302 0.84294 0.0
H1751 H 0.57763 0.90016 0.86343 0.0
H1752 H 0.78186 0.69856 0.1607 0.0
H1753 H 0.80672 0.67222 0.13488 0.0
H1754 H 0.84613 0.67797 0.21334 0.0
H1755 H 0.82218 0.70507 0.23876 0.0
H1756 H 0.86103 0.68285 0.13113 0.0
H1757 H 0.81599 0.5983 0.18112 0.0
H1758 H 0.80338 0.62484 0.18445 0.0
H1759 H 0.83123 0.6287 0.20644 0.0
C1760 C 0.79601 0.69447 0.17231 0.0
C1761 C 0.79958 0.70343 0.20185 0.0
C1762 C 0.81011 0.67923 0.1576 0.0
C1763 C 0.82787 0.67247 0.17222 0.0
C1764 C 0.83203 0.68219 0.20161 0.0
H1765 H 0.93013 0.58114 0.13674 0.0
H1766 H 0.90429 0.60803 0.15705 0.0
C1767 C 0.81815 0.69753 0.21617 0.0
C1768 C 0.84229 0.65548 0.157 0.0
H1769 H 0.85391 0.59842 0.15556 0.0
C1770 C 0.85932 0.66426 0.13626 0.0
C1771 C 0.84013 0.63122 0.16369 0.0
C1772 C 0.82149 0.62006 0.18494 0.0
C1773 C 0.87496 0.65003 0.12286 0.0
C1774 C 0.87309 0.62588 0.12982 0.0
C1775 C 0.8556 0.61691 0.15019 0.0
C1776 C 0.88943 0.60989 0.1169 0.0
C1777 C 0.89406 0.66166 0.10221 0.0
C1778 C 0.88976 0.60157 0.08741 0.0
C1779 C 0.90514 0.58661 0.0756 0.0
C1780 C 0.92028 0.57901 0.09291 0.0
C1781 C 0.91944 0.58698 0.12248 0.0
C1782 C 0.90432 0.60221 0.13424 0.0
H1783 H 0.89872 0.6833 0.10566 0.0
H1784 H 0.91259 0.65788 0.1039 0.0
H1785 H 0.88524 0.65257 0.08037 0.0
H1786 H 0.87795 0.60645 0.0734 0.0
H1787 H 0.90521 0.58118 0.0528 0.0
H1788 H 0.28939 0.75971 0.16162 0.0
H1789 H 0.31937 0.78659 0.13284 0.0
H1790 H 0.36636 0.8359 0.20817 0.0
H1791 H 0.33683 0.80834 0.23691 0.0
H1792 H 0.3233 0.83723 0.14015 0.0
H1793 H 0.42234 0.83293 0.1526 0.0
H1794 H 0.3931 0.80808 0.16034 0.0
H1795 H 0.40744 0.83891 0.18552 0.0
C1796 C 0.30656 0.77583 0.17188 0.0
C1797 C 0.31077 0.7822 0.20137 0.0
C1798 C 0.32368 0.79112 0.15546 0.0
C1799 C 0.3451 0.81324 0.16833 0.0
C1800 C 0.35027 0.81863 0.19771 0.0
H1801 H 0.44339 0.95665 0.12514 0.0
H1802 H 0.41858 0.92101 0.14774 0.0
C1803 C 0.33332 0.803 0.21413 0.0
C1804 C 0.35915 0.83285 0.15179 0.0
H1805 H 0.41969 0.8689 0.13461 0.0
C1806 C 0.34435 0.84388 0.13858 0.0
C1807 C 0.38659 0.84162 0.14999 0.0
C1808 C 0.4033 0.82961 0.16264 0.0
C1809 C 0.3563 0.86397 0.12427 0.0
C1810 C 0.38378 0.87313 0.12294 0.0
C1811 C 0.3986 0.86186 0.13578 0.0
C1812 C 0.39764 0.895 0.10911 0.0
C1813 C 0.33947 0.87583 0.11154 0.0
C1814 C 0.39378 0.89227 0.07993 0.0
C1815 C 0.40782 0.9127 0.06693 0.0
C1816 C 0.42607 0.93607 0.08293 0.0
C1817 C 0.42947 0.93889 0.11223 0.0
C1818 C 0.41541 0.91852 0.12518 0.0
H1819 H 0.31955 0.87056 0.11968 0.0
H1820 H 0.34862 0.89766 0.11601 0.0
H1821 H 0.33744 0.86832 0.08825 0.0
H1822 H 0.38038 0.87411 0.06711 0.0
H1823 H 0.40496 0.90986 0.04427 0.0
H1824 H 0.73223 0.22831 0.15536 0.0
H1825 H 0.70825 0.20084 0.11074 0.0
H1826 H 0.67909 0.13432 0.14986 0.0
H1827 H 0.7032 0.16162 0.19447 0.0
H1828 H 0.70082 0.12951 0.0855 0.0
H1829 H 0.62213 0.1721 0.11214 0.0
H1830 H 0.65624 0.19221 0.11951 0.0
H1831 H 0.64079 0.16865 0.14033 0.0
C1832 C 0.72083 0.20774 0.15429 0.0
C1833 C 0.71924 0.19701 0.17827 0.0
C1834 C 0.70739 0.19212 0.12883 0.0
C1835 C 0.69203 0.16567 0.12717 0.0
C1836 C 0.69112 0.15469 0.15081 0.0
H1837 H 0.57426 0.03381 0.07076 0.0
H1838 H 0.61642 0.06936 0.08424 0.0
C1839 C 0.70476 0.17024 0.17621 0.0
C1840 C 0.67465 0.14995 0.10196 0.0
H1841 H 0.61137 0.13225 0.07776 0.0
C1842 C 0.6815 0.13051 0.08319 0.0
C1843 C 0.64968 0.15167 0.09885 0.0
C1844 C 0.64159 0.17228 0.11865 0.0
C1845 C 0.66302 0.11124 0.06285 0.0
C1846 C 0.63727 0.1114 0.06177 0.0
C1847 C 0.63125 0.13233 0.07865 0.0
C1848 C 0.61514 0.08736 0.04923 0.0
C1849 C 0.67044 0.08975 0.04392 0.0
C1850 C 0.60083 0.08554 0.02474 0.0
C1851 C 0.57681 0.06494 0.01679 0.0
C1852 C 0.56679 0.04649 0.03366 0.0
C1853 C 0.58168 0.04785 0.05746 0.0
C1854 C 0.60578 0.06798 0.06503 0.0
H1855 H 0.69198 0.09561 0.04245 0.0
H1856 H 0.66339 0.07175 0.05261 0.0
H1857 H 0.66104 0.08474 0.02236 0.0
H1858 H 0.60763 0.1006 0.01259 0.0
H1859 H 0.56541 0.06449 -0.00136 0.0
H1860 H 0.68004 0.70885 0.77976 0.0
H1861 H 0.65311 0.67879 0.80783 0.0
H1862 H 0.71376 0.64592 0.81067 0.0
H1863 H 0.74077 0.67578 0.78249 0.0
H1864 H 0.66147 0.60799 0.79644 0.0
H1865 H 0.66913 0.68523 0.8936 0.0
H1866 H 0.65944 0.69227 0.86193 0.0
H1867 H 0.69136 0.69037 0.86555 0.0
C1868 C 0.6875 0.69503 0.78615 0.0
C1869 C 0.71243 0.69458 0.779 0.0
C1870 C 0.67224 0.67809 0.80235 0.0
C1871 C 0.68167 0.66044 0.8115 0.0
C1872 C 0.7063 0.65955 0.80387 0.0
H1873 H 0.60656 0.57673 0.94022 0.0
H1874 H 0.63874 0.60304 0.9127 0.0
C1875 C 0.72166 0.67661 0.78785 0.0
C1876 C 0.66563 0.64276 0.82886 0.0
H1877 H 0.6368 0.64291 0.89184 0.0
C1878 C 0.65616 0.61552 0.81739 0.0
C1879 C 0.65937 0.65273 0.85636 0.0
C1880 C 0.67053 0.68172 0.87028 0.0
C1881 C 0.63964 0.59792 0.83238 0.0
C1882 C 0.63199 0.60802 0.85921 0.0
C1883 C 0.64236 0.63523 0.87109 0.0
C1884 C 0.61289 0.59088 0.87516 0.0
C1885 C 0.63073 0.56872 0.81942 0.0
C1886 C 0.58766 0.57536 0.86318 0.0
C1887 C 0.56931 0.56009 0.87877 0.0
C1888 C 0.57577 0.5605 0.90675 0.0
C1889 C 0.601 0.57613 0.91873 0.0
C1890 C 0.61941 0.59114 0.90303 0.0
H1891 H 0.64458 0.56391 0.80393 0.0
H1892 H 0.62874 0.55711 0.83585 0.0
H1893 H 0.6114 0.56249 0.80797 0.0
H1894 H 0.582 0.57542 0.84196 0.0
H1895 H 0.54995 0.54834 0.86909 0.0
H1896 H 0.33006 0.68842 0.86675 0.0
H1897 H 0.36049 0.68333 0.89976 0.0
H1898 H 0.36486 0.61538 0.8394 0.0
H1899 H 0.33424 0.62016 0.80656 0.0
H1900 H 0.3499 0.63197 0.91826 0.0
H1901 H 0.44323 0.66716 0.86606 0.0
H1902 H 0.41576 0.67725 0.86113 0.0
H1903 H 0.41563 0.64539 0.84265 0.0
C1904 C 0.33758 0.67244 0.86066 0.0
C1905 C 0.32976 0.65445 0.83444 0.0
C1906 C 0.35494 0.66966 0.87936 0.0
C1907 C 0.36499 0.64924 0.87167 0.0
C1908 C 0.35741 0.63144 0.84538 0.0
H1909 H 0.42909 0.55116 0.91702 0.0
H1910 H 0.40735 0.57739 0.90035 0.0
C1911 C 0.33979 0.63397 0.82689 0.0
C1912 C 0.38183 0.64496 0.8918 0.0
H1913 H 0.44146 0.63932 0.89827 0.0
C1914 C 0.37018 0.63431 0.91454 0.0
C1915 C 0.40818 0.64812 0.88663 0.0
C1916 C 0.42158 0.66032 0.86293 0.0
C1917 C 0.38373 0.6247 0.93101 0.0
C1918 C 0.40941 0.62614 0.92453 0.0
C1919 C 0.42173 0.63851 0.90312 0.0
C1920 C 0.42175 0.61062 0.93601 0.0
C1921 C 0.37 0.6111 0.9537 0.0
C1922 C 0.43649 0.62072 0.96183 0.0
C1923 C 0.44877 0.60566 0.97161 0.0
C1924 C 0.44627 0.58045 0.95559 0.0
C1925 C 0.43091 0.5703 0.93007 0.0
C1926 C 0.41876 0.58532 0.92035 0.0
H1927 H 0.35074 0.61346 0.95767 0.0
H1928 H 0.36687 0.58971 0.94722 0.0
H1929 H 0.3824 0.6191 0.97373 0.0
H1930 H 0.43873 0.64027 0.97409 0.0
H1931 H 0.46047 0.61377 0.99141 0.0
H1932 H 0.31021 0.32376 0.79659 0.0
H1933 H 0.34137 0.34634 0.83739 0.0
H1934 H 0.36987 0.28134 0.82336 0.0
H1935 H 0.33923 0.25913 0.78163 0.0
H1936 H 0.33999 0.32207 0.88527 0.0
H1937 H 0.43654 0.34933 0.83635 0.0
H1938 H 0.40657 0.34314 0.81655 0.0
H1939 H 0.41352 0.31621 0.82511 0.0
C1940 C 0.32381 0.31481 0.80168 0.0
C1941 C 0.3225 0.28984 0.78632 0.0
C1942 C 0.34125 0.32745 0.82512 0.0
C1943 C 0.35749 0.31522 0.83352 0.0
C1944 C 0.35736 0.29096 0.81716 0.0
H1945 H 0.47142 0.41631 0.97049 0.0
H1946 H 0.43824 0.37283 0.95164 0.0
C1947 C 0.33996 0.27836 0.79345 0.0
C1948 C 0.37373 0.3279 0.86005 0.0
H1949 H 0.43564 0.36774 0.88422 0.0
C1950 C 0.36104 0.33155 0.88532 0.0
C1951 C 0.40111 0.33987 0.85992 0.0
C1952 C 0.41541 0.33713 0.8331 0.0
C1953 C 0.37483 0.34908 0.90991 0.0
C1954 C 0.40177 0.3628 0.90898 0.0
C1955 C 0.41489 0.35687 0.88469 0.0
C1956 C 0.41533 0.38791 0.92887 0.0
C1957 C 0.36034 0.35443 0.93597 0.0
C1958 C 0.41273 0.41064 0.92306 0.0
C1959 C 0.43232 0.43507 0.93246 0.0
C1960 C 0.45418 0.43709 0.94859 0.0
C1961 C 0.45497 0.41496 0.95759 0.0
C1962 C 0.43586 0.39025 0.94723 0.0
H1963 H 0.3414 0.33814 0.93575 0.0
H1964 H 0.37241 0.35722 0.95533 0.0
H1965 H 0.35631 0.37289 0.93693 0.0
H1966 H 0.39704 0.40907 0.90871 0.0
H1967 H 0.43109 0.4521 0.92587 0.0
H1968 H 0.69796 0.33541 0.8264 0.0
H1969 H 0.70262 0.37285 0.86483 0.0
H1970 H 0.65102 0.32154 0.91323 0.0
H1971 H 0.64847 0.28337 0.87607 0.0
H1972 H 0.6599 0.38189 0.871 0.0
H1973 H 0.69252 0.37908 0.9764 0.0
H1974 H 0.69975 0.35958 0.94443 0.0
H1975 H 0.669 0.34755 0.96049 0.0
C1976 C 0.68881 0.33163 0.84578 0.0
C1977 C 0.67224 0.30619 0.84774 0.0
C1978 C 0.69151 0.35328 0.86782 0.0
C1979 C 0.67709 0.35006 0.89182 0.0
C1980 C 0.66271 0.32454 0.89512 0.0
H1981 H 0.5636 0.40507 0.9535 0.0
H1982 H 0.59534 0.38296 0.94268 0.0
C1983 C 0.66066 0.30272 0.87343 0.0
C1984 C 0.6711 0.3726 0.90877 0.0
H1985 H 0.65742 0.39772 0.97547 0.0
C1986 C 0.66041 0.38609 0.89392 0.0
C1987 C 0.67143 0.37792 0.93864 0.0
C1988 C 0.68408 0.36537 0.95582 0.0
C1989 C 0.64809 0.40303 0.90795 0.0
C1990 C 0.64646 0.40641 0.93747 0.0
C1991 C 0.65875 0.3947 0.95271 0.0
C1992 C 0.62894 0.41911 0.95169 0.0
C1993 C 0.63499 0.41549 0.89094 0.0
C1994 C 0.63779 0.44649 0.96122 0.0
C1995 C 0.61975 0.45916 0.96759 0.0
C1996 C 0.5928 0.44444 0.96424 0.0
C1997 C 0.58423 0.41682 0.95651 0.0
C1998 C 0.60227 0.40419 0.95046 0.0
H1999 H 0.64053 0.41314 0.8686 0.0
H2000 H 0.61342 0.40614 0.89106 0.0
H2001 H 0.6402 0.43684 0.90055 0.0
H2002 H 0.6584 0.45809 0.96167 0.0
H2003 H 0.62687 0.48053 0.97295 0.0
H2004 H 0.70133 0.38502 0.18881 0.0
H2005 H 0.67108 0.39099 0.15659 0.0
H2006 H 0.6572 0.31262 0.10631 0.0
H2007 H 0.68753 0.30645 0.13854 0.0
H2008 H 0.68038 0.37886 0.08983 0.0
H2009 H 0.58246 0.32613 0.1257 0.0
H2010 H 0.6103 0.34175 0.1509 0.0
H2011 H 0.60868 0.31313 0.12431 0.0
C2012 C 0.69187 0.36911 0.17086 0.0
C2013 C 0.69696 0.34545 0.16584 0.0
C2014 C 0.67449 0.37244 0.1527 0.0
C2015 C 0.66203 0.35218 0.12932 0.0
C2016 C 0.66658 0.3283 0.12449 0.0
H2017 H 0.54745 0.3757 0.02489 0.0
H2018 H 0.5737 0.35302 0.04099 0.0
C2019 C 0.68388 0.32488 0.14278 0.0
C2020 C 0.64613 0.35726 0.10882 0.0
H2021 H 0.58406 0.35335 0.09402 0.0
C2022 C 0.65925 0.37293 0.09028 0.0
C2023 C 0.61866 0.34896 0.10929 0.0
C2024 C 0.60398 0.3315 0.12853 0.0
C2025 C 0.64564 0.38182 0.07308 0.0
C2026 C 0.61837 0.3755 0.0753 0.0
C2027 C 0.60502 0.35833 0.09253 0.0
C2028 C 0.60397 0.3889 0.06264 0.0
C2029 C 0.66077 0.39841 0.05323 0.0
C2030 C 0.6125 0.41654 0.06922 0.0
C2031 C 0.59804 0.42954 0.0594 0.0
C2032 C 0.57424 0.41513 0.04362 0.0
C2033 C 0.56591 0.3874 0.0366 0.0
C2034 C 0.58072 0.37439 0.04603 0.0
H2035 H 0.67784 0.39274 0.04582 0.0
H2036 H 0.64835 0.39652 0.03451 0.0
H2037 H 0.66846 0.41943 0.06467 0.0
H2038 H 0.62999 0.42813 0.08271 0.0
H2039 H 0.60518 0.4509 0.06485 0.0
H2040 H 0.67733 0.70636 0.22838 0.0
H2041 H 0.6423 0.67783 0.19283 0.0
H2042 H 0.70017 0.66207 0.13642 0.0
H2043 H 0.73435 0.68691 0.17388 0.0
H2044 H 0.62936 0.68097 0.14562 0.0
H2045 H 0.65427 0.59012 0.12649 0.0
H2046 H 0.67065 0.61813 0.15447 0.0
H2047 H 0.6808 0.617 0.11864 0.0
C2048 C 0.68225 0.69634 0.20844 0.0
C2049 C 0.70825 0.6991 0.20315 0.0
C2050 C 0.66239 0.68025 0.1881 0.0
C2051 C 0.66846 0.66753 0.16187 0.0
C2052 C 0.69472 0.67075 0.15671 0.0
H2053 H 0.56289 0.57104 0.01569 0.0
H2054 H 0.59516 0.61094 0.04458 0.0
C2055 C 0.71432 0.68536 0.17782 0.0
C2056 C 0.64724 0.65112 0.14008 0.0
H2057 H 0.62241 0.59078 0.09493 0.0
C2058 C 0.62788 0.66122 0.13463 0.0
C2059 C 0.64519 0.62528 0.12564 0.0
C2060 C 0.6637 0.61195 0.13185 0.0
C2061 C 0.60623 0.64589 0.11586 0.0
C2062 C 0.60459 0.62043 0.10144 0.0
C2063 C 0.62426 0.61067 0.10589 0.0
C2064 C 0.58117 0.6018 0.08444 0.0
C2065 C 0.58474 0.65638 0.11227 0.0
C2066 C 0.5624 0.5842 0.09755 0.0
C2067 C 0.54442 0.56132 0.0813 0.0
C2068 C 0.54498 0.5558 0.05169 0.0
C2069 C 0.56229 0.57468 0.03851 0.0
C2070 C 0.58052 0.59754 0.05489 0.0
H2071 H 0.58982 0.67737 0.12349 0.0
H2072 H 0.58051 0.65445 0.08945 0.0
H2073 H 0.56659 0.64443 0.12069 0.0
H2074 H 0.56294 0.58718 0.12039 0.0
H2075 H 0.53098 0.54735 0.09201 0.0
H2076 H 0.33795 0.66318 0.17177 0.0
H2077 H 0.33695 0.62474 0.13655 0.0
H2078 H 0.35973 0.6716 0.07394 0.0
H2079 H 0.35895 0.71064 0.10887 0.0
H2080 H 0.31771 0.60332 0.06505 0.0
H2081 H 0.42107 0.64521 0.11015 0.0
H2082 H 0.39474 0.64849 0.13191 0.0
H2083 H 0.40428 0.66686 0.1049 0.0
C2084 C 0.34136 0.66538 0.15025 0.0
C2085 C 0.34848 0.69019 0.14314 0.0
C2086 C 0.34071 0.6432 0.13015 0.0
C2087 C 0.34796 0.64555 0.10289 0.0
C2088 C 0.35364 0.66967 0.095 0.0
H2089 H 0.43625 0.56118 0.01153 0.0
H2090 H 0.41136 0.59049 0.02214 0.0
C2091 C 0.35373 0.69195 0.11505 0.0
C2092 C 0.35597 0.62492 0.08564 0.0
H2093 H 0.40836 0.60503 0.07727 0.0
C2094 C 0.33758 0.60371 0.06713 0.0
C2095 C 0.38172 0.62554 0.08948 0.0
C2096 C 0.40171 0.64766 0.11017 0.0
C2097 C 0.3447 0.583 0.05151 0.0
C2098 C 0.37058 0.58386 0.05508 0.0
C2099 C 0.38868 0.60489 0.07415 0.0
C2100 C 0.37985 0.56316 0.03988 0.0
C2101 C 0.32468 0.56053 0.03141 0.0
C2102 C 0.36942 0.53761 0.04475 0.0
C2103 C 0.38298 0.52027 0.03696 0.0
C2104 C 0.40729 0.52888 0.02524 0.0
C2105 C 0.41691 0.55384 0.01906 0.0
C2106 C 0.40289 0.57065 0.02558 0.0
H2107 H 0.30826 0.56622 0.02545 0.0
H2108 H 0.33367 0.55368 0.0119 0.0
H2109 H 0.31646 0.54373 0.04186 0.0
H2110 H 0.35212 0.53186 0.05661 0.0
H2111 H 0.37582 0.50123 0.04255 0.0
H2112 H 0.28431 0.32405 0.22251 0.0
H2113 H 0.31057 0.35243 0.1924 0.0
H2114 H 0.3626 0.30796 0.18063 0.0
H2115 H 0.33684 0.28 0.21123 0.0
H2116 H 0.38821 0.36218 0.19295 0.0
H2117 H 0.31111 0.33023 0.10622 0.0
H2118 H 0.30181 0.34239 0.14076 0.0
H2119 H 0.30901 0.31246 0.13377 0.0
C2120 C 0.3014 0.32045 0.2135 0.0
C2121 C 0.30863 0.29991 0.21895 0.0
C2122 C 0.31623 0.33651 0.19625 0.0
C2123 C 0.33817 0.3319 0.184 0.0
C2124 C 0.34565 0.3117 0.1899 0.0
H2125 H 0.42489 0.38345 0.04417 0.0
H2126 H 0.39529 0.3588 0.07534 0.0
C2127 C 0.33104 0.29586 0.20737 0.0
C2128 C 0.35362 0.34821 0.16514 0.0
H2129 H 0.35078 0.36402 0.10148 0.0
C2130 C 0.38007 0.36266 0.17297 0.0
C2131 C 0.34283 0.34847 0.13904 0.0
C2132 C 0.31469 0.3324 0.12923 0.0
C2133 C 0.39624 0.37734 0.15523 0.0
C2134 C 0.3854 0.37791 0.12928 0.0
C2135 C 0.35889 0.36355 0.12148 0.0
C2136 C 0.40156 0.39294 0.10975 0.0
C2137 C 0.42489 0.39149 0.16413 0.0
C2138 C 0.41419 0.42025 0.11864 0.0
C2139 C 0.43128 0.43416 0.10121 0.0
C2140 C 0.43564 0.42106 0.07436 0.0
C2141 C 0.42201 0.39392 0.06488 0.0
C2142 C 0.40509 0.3799 0.08256 0.0
H2143 H 0.43126 0.38348 0.18064 0.0
H2144 H 0.43726 0.38999 0.14581 0.0
H2145 H 0.42839 0.41268 0.17306 0.0
H2146 H 0.41114 0.43073 0.13927 0.0
H2147 H 0.44114 0.45521 0.10882 0.0
H2148 H 0.8139 0.6954 0.7392 0.0
H2149 H 0.83842 0.66906 0.71386 0.0
H2150 H 0.81249 0.67834 0.63477 0.0
H2151 H 0.79062 0.7072 0.66069 0.0
H2152 H 0.82426 0.62432 0.67925 0.0
H2153 H 0.88674 0.69514 0.61938 0.0
H2154 H 0.86699 0.70465 0.64691 0.0
H2155 H 0.8525 0.68718 0.61201 0.0
C2156 C 0.81436 0.69283 0.71652 0.0
C2157 C 0.80095 0.7044 0.70214 0.0
C2158 C 0.82798 0.6772 0.70188 0.0
C2159 C 0.82811 0.67207 0.67221 0.0
C2160 C 0.81374 0.68265 0.65764 0.0
H2161 H 0.90353 0.5789 0.55368 0.0
H2162 H 0.87647 0.6043 0.57497 0.0
C2163 C 0.80067 0.69885 0.67248 0.0
C2164 C 0.84254 0.65497 0.6569 0.0
H2165 H 0.88858 0.65213 0.60834 0.0
C2166 C 0.8384 0.63055 0.66384 0.0
C2167 C 0.86086 0.6627 0.63642 0.0
C2168 C 0.86724 0.68894 0.62841 0.0
C2169 C 0.85195 0.61388 0.6512 0.0
C2170 C 0.87066 0.62185 0.63119 0.0
C2171 C 0.87437 0.64595 0.62371 0.0
C2172 C 0.88693 0.60583 0.61821 0.0
C2173 C 0.84566 0.58764 0.65919 0.0
C2174 C 0.90227 0.59835 0.63524 0.0
C2175 C 0.9175 0.58338 0.6231 0.0
C2176 C 0.91828 0.57577 0.59348 0.0
C2177 C 0.90325 0.5838 0.57649 0.0
C2178 C 0.88784 0.5986 0.58869 0.0
H2179 H 0.82564 0.58085 0.66693 0.0
H2180 H 0.84719 0.57223 0.64104 0.0
H2181 H 0.85964 0.58978 0.67658 0.0
H2182 H 0.9026 0.60419 0.65806 0.0
H2183 H 0.92838 0.57747 0.63711 0.0
H2184 H 0.34346 0.81214 0.72958 0.0
H2185 H 0.36827 0.83795 0.69664 0.0
H2186 H 0.29903 0.81095 0.6409 0.0
H2187 H 0.27414 0.78524 0.67373 0.0
H2188 H 0.37742 0.82144 0.64034 0.0
H2189 H 0.32259 0.89065 0.65234 0.0
H2190 H 0.31969 0.869 0.67607 0.0
H2191 H 0.30254 0.85642 0.64186 0.0
C2192 C 0.33362 0.8116 0.71021 0.0
C2193 C 0.307 0.79656 0.70409 0.0
C2194 C 0.34775 0.82637 0.69148 0.0
C2195 C 0.33539 0.82648 0.66649 0.0
C2196 C 0.3088 0.81145 0.66032 0.0
H2197 H 0.40312 0.91804 0.53928 0.0
H2198 H 0.37494 0.88212 0.56015 0.0
C2199 C 0.29464 0.79677 0.67908 0.0
C2200 C 0.3504 0.84249 0.64701 0.0
H2201 H 0.35486 0.89499 0.61878 0.0
C2202 C 0.37242 0.83743 0.63548 0.0
C2203 C 0.34374 0.86327 0.64072 0.0
C2204 C 0.321 0.87038 0.65356 0.0
C2205 C 0.3883 0.85303 0.61822 0.0
C2206 C 0.38188 0.87406 0.61244 0.0
C2207 C 0.35943 0.87858 0.62313 0.0
C2208 C 0.39981 0.89364 0.59833 0.0
C2209 C 0.41209 0.84733 0.60668 0.0
C2210 C 0.42287 0.9118 0.61306 0.0
C2211 C 0.43862 0.93244 0.60155 0.0
C2212 C 0.4316 0.93514 0.57501 0.0
C2213 C 0.40883 0.91647 0.55987 0.0
C2214 C 0.39286 0.89595 0.57163 0.0
H2215 H 0.41129 0.82731 0.60798 0.0
H2216 H 0.41407 0.8491 0.58431 0.0
H2217 H 0.42985 0.862 0.61913 0.0
H2218 H 0.4283 0.91043 0.63386 0.0
H2219 H 0.45623 0.94635 0.61354 0.0
H2220 H 0.17239 0.29686 0.59998 0.0
H2221 H 0.1418 0.31618 0.58572 0.0
H2222 H 0.16159 0.37502 0.6641 0.0
H2223 H 0.19231 0.35573 0.67825 0.0
H2224 H 0.09876 0.32629 0.60795 0.0
H2225 H 0.17973 0.41923 0.60448 0.0
H2226 H 0.18533 0.38993 0.60845 0.0
H2227 H 0.17812 0.41132 0.63857 0.0
C2228 C 0.16965 0.31353 0.61437 0.0
C2229 C 0.18439 0.32476 0.64024 0.0
C2230 C 0.15234 0.32462 0.60619 0.0
C2231 C 0.14985 0.34736 0.62357 0.0
C2232 C 0.16359 0.35776 0.65014 0.0
H2233 H 0.05852 0.44478 0.62042 0.0
H2234 H 0.08561 0.42087 0.63139 0.0
C2235 C 0.18082 0.34657 0.65839 0.0
C2236 C 0.13372 0.36076 0.6134 0.0
H2237 H 0.13645 0.41976 0.60038 0.0
C2238 C 0.10701 0.34667 0.60614 0.0
C2239 C 0.14466 0.3872 0.61045 0.0
C2240 C 0.17358 0.40273 0.61559 0.0
C2241 C 0.09077 0.3587 0.59715 0.0
C2242 C 0.10155 0.38542 0.5955 0.0
C2243 C 0.1283 0.39931 0.602 0.0
C2244 C 0.08513 0.39972 0.58829 0.0
C2245 C 0.0621 0.34308 0.59004 0.0
C2246 C 0.07626 0.39594 0.56027 0.0
C2247 C 0.0613 0.41015 0.55368 0.0
C2248 C 0.05465 0.42818 0.57507 0.0
C2249 C 0.06357 0.43162 0.60319 0.0
C2250 C 0.07885 0.41773 0.60964 0.0
H2251 H 0.05626 0.32325 0.59494 0.0
H2252 H 0.05005 0.35394 0.60194 0.0
H2253 H 0.05767 0.34056 0.56716 0.0
H2254 H 0.08118 0.38224 0.5435 0.0
H2255 H 0.05534 0.40723 0.53172 0.0
H2256 H 0.75015 0.20633 0.6593 0.0
H2257 H 0.72454 0.18453 0.61416 0.0
H2258 H 0.6568 0.15067 0.65941 0.0
H2259 H 0.68201 0.17345 0.70439 0.0
H2260 H 0.70171 0.13445 0.59073 0.0
H2261 H 0.62508 0.17855 0.6063 0.0
H2262 H 0.65378 0.19083 0.63016 0.0
H2263 H 0.62559 0.16356 0.6353 0.0
C2264 C 0.72983 0.194 0.65943 0.0
C2265 C 0.71794 0.19129 0.68509 0.0
C2266 C 0.71518 0.18184 0.63374 0.0
C2267 C 0.68857 0.16653 0.63339 0.0
C2268 C 0.67702 0.16318 0.65913 0.0
H2269 H 0.5827 0.03133 0.56185 0.0
H2270 H 0.62439 0.06747 0.57595 0.0
C2271 C 0.69148 0.17577 0.68478 0.0
C2272 C 0.67315 0.15221 0.60633 0.0
H2273 H 0.6116 0.13327 0.5764 0.0
C2274 C 0.68228 0.13474 0.58714 0.0
C2275 C 0.64811 0.15309 0.60097 0.0
C2276 C 0.6378 0.1728 0.6192 0.0
C2277 C 0.66577 0.11591 0.56489 0.0
C2278 C 0.63963 0.11455 0.56204 0.0
C2279 C 0.63161 0.13411 0.57891 0.0
C2280 C 0.61893 0.09022 0.5471 0.0
C2281 C 0.67575 0.09647 0.54576 0.0
C2282 C 0.60241 0.09075 0.52567 0.0
C2283 C 0.57865 0.06994 0.51745 0.0
C2284 C 0.5711 0.0487 0.53091 0.0
C2285 C 0.58832 0.04749 0.55109 0.0
C2286 C 0.61218 0.06798 0.55894 0.0
H2287 H 0.69734 0.10472 0.54469 0.0
H2288 H 0.67088 0.0784 0.55419 0.0
H2289 H 0.66645 0.09081 0.52407 0.0
H2290 H 0.60712 0.10795 0.51665 0.0
H2291 H 0.56544 0.07145 0.50218 0.0
H2292 H 0.81775 0.32897 0.29417 0.0
H2293 H 0.84046 0.36026 0.33748 0.0
H2294 H 0.80763 0.30038 0.38519 0.0
H2295 H 0.78585 0.26874 0.34157 0.0
H2296 H 0.8224 0.37945 0.38828 0.0
H2297 H 0.88467 0.32185 0.40472 0.0
H2298 H 0.86534 0.31409 0.37223 0.0
H2299 H 0.84988 0.30548 0.40354 0.0
C2300 C 0.81555 0.32256 0.31393 0.0
C2301 C 0.80043 0.29652 0.31469 0.0
C2302 C 0.82831 0.34041 0.33864 0.0
C2303 C 0.82595 0.33257 0.36452 0.0
C2304 C 0.8102 0.30669 0.36539 0.0
H2305 H 0.94779 0.43217 0.4956 0.0
H2306 H 0.90339 0.40085 0.48035 0.0
C2307 C 0.79782 0.28867 0.34054 0.0
C2308 C 0.84124 0.35141 0.38998 0.0
H2309 H 0.89531 0.36435 0.43238 0.0
C2310 C 0.83806 0.37599 0.39833 0.0
C2311 C 0.86126 0.34668 0.40358 0.0
C2312 C 0.86571 0.32069 0.39557 0.0
C2313 C 0.85573 0.39668 0.41817 0.0
C2314 C 0.87729 0.39272 0.42954 0.0
C2315 C 0.87887 0.36739 0.42344 0.0
C2316 C 0.90091 0.41508 0.44269 0.0
C2317 C 0.85184 0.42292 0.42572 0.0
C2318 C 0.91405 0.43366 0.42689 0.0
C2319 C 0.93911 0.4515 0.43571 0.0
C2320 C 0.95153 0.4511 0.46047 0.0
C2321 C 0.93814 0.43331 0.47697 0.0
C2322 C 0.91294 0.41535 0.46813 0.0
H2323 H 0.83068 0.42015 0.42538 0.0
H2324 H 0.86099 0.43444 0.44694 0.0
H2325 H 0.86077 0.43451 0.40979 0.0
H2326 H 0.90561 0.43335 0.40678 0.0
H2327 H 0.94915 0.46509 0.42266 0.0
H2328 H 0.71839 0.77752 0.33207 0.0
H2329 H 0.69275 0.80297 0.35686 0.0
H2330 H 0.70414 0.84581 0.29067 0.0
H2331 H 0.72947 0.82024 0.26611 0.0
H2332 H 0.70455 0.85716 0.37775 0.0
H2333 H 0.62508 0.81881 0.2935 0.0
H2334 H 0.64972 0.80408 0.29445 0.0
H2335 H 0.65676 0.83336 0.28088 0.0
C2336 C 0.71571 0.79234 0.32288 0.0
C2337 C 0.72641 0.79658 0.29697 0.0
C2338 C 0.7009 0.80699 0.33708 0.0
C2339 C 0.69603 0.82611 0.32547 0.0
C2340 C 0.70709 0.83087 0.29994 0.0
H2341 H 0.61012 0.93358 0.36523 0.0
H2342 H 0.63686 0.90749 0.34528 0.0
C2343 C 0.72192 0.81629 0.28594 0.0
C2344 C 0.67938 0.84104 0.33978 0.0
H2345 H 0.62478 0.85559 0.32931 0.0
C2346 C 0.68699 0.85668 0.36726 0.0
C2347 C 0.65641 0.84044 0.32617 0.0
C2348 C 0.64633 0.82308 0.29724 0.0
C2349 C 0.67285 0.8724 0.38106 0.0
C2350 C 0.65005 0.87208 0.36726 0.0
C2351 C 0.64226 0.85606 0.33995 0.0
C2352 C 0.63419 0.88851 0.38031 0.0
C2353 C 0.68307 0.88987 0.40988 0.0
C2354 C 0.6234 0.88658 0.4067 0.0
C2355 C 0.60792 0.90153 0.41823 0.0
C2356 C 0.6025 0.9186 0.40353 0.0
C2357 C 0.61335 0.92041 0.37708 0.0
C2358 C 0.62887 0.90556 0.36565 0.0
H2359 H 0.70421 0.8937 0.41375 0.0
H2360 H 0.68018 0.90907 0.41239 0.0
H2361 H 0.67235 0.8799 0.42631 0.0
H2362 H 0.62653 0.87312 0.4182 0.0
H2363 H 0.5997 0.89924 0.43841 0.0
H2364 H 0.20258 0.74196 0.31994 0.0
H2365 H 0.17253 0.71608 0.35001 0.0
H2366 H 0.17958 0.64473 0.29949 0.0
H2367 H 0.20863 0.67009 0.26906 0.0
H2368 H 0.12214 0.65667 0.32632 0.0
H2369 H 0.20812 0.6651 0.39245 0.0
H2370 H 0.20838 0.69033 0.37418 0.0
H2371 H 0.21067 0.65985 0.35468 0.0
C2372 C 0.1974 0.72073 0.31506 0.0
C2373 C 0.20859 0.70809 0.29269 0.0
C2374 C 0.18028 0.70603 0.3322 0.0
C2375 C 0.17422 0.67864 0.32703 0.0
C2376 C 0.18424 0.66591 0.30385 0.0
H2377 H 0.08258 0.53857 0.37604 0.0
H2378 H 0.10569 0.5745 0.353 0.0
C2379 C 0.20111 0.68048 0.28672 0.0
C2380 C 0.15915 0.66311 0.34676 0.0
H2381 H 0.16747 0.63301 0.39826 0.0
C2382 C 0.13189 0.65181 0.34244 0.0
C2383 C 0.17209 0.65697 0.36767 0.0
C2384 C 0.20144 0.66874 0.37279 0.0
C2385 C 0.11724 0.63351 0.35787 0.0
C2386 C 0.13037 0.6262 0.37768 0.0
C2387 C 0.1575 0.63858 0.38296 0.0
C2388 C 0.11654 0.60459 0.39185 0.0
C2389 C 0.08792 0.6218 0.35254 0.0
C2390 C 0.11586 0.60948 0.4214 0.0
C2391 C 0.1029 0.58893 0.43467 0.0
C2392 C 0.09052 0.56315 0.41856 0.0
C2393 C 0.09182 0.55824 0.38901 0.0
C2394 C 0.1048 0.57877 0.37579 0.0
H2395 H 0.08034 0.63426 0.34259 0.0
H2396 H 0.08261 0.60208 0.33799 0.0
H2397 H 0.0781 0.61928 0.37255 0.0
H2398 H 0.12505 0.62926 0.43414 0.0
H2399 H 0.10217 0.59334 0.45748 0.0
H2400 H 0.35219 0.1974 0.37369 0.0
H2401 H 0.36542 0.17092 0.40074 0.0
H2402 H 0.39355 0.13418 0.32511 0.0
H2403 H 0.3777 0.1577 0.29779 0.0
H2404 H 0.37171 0.09939 0.35036 0.0
H2405 H 0.43529 0.18316 0.43259 0.0
H2406 H 0.40137 0.17958 0.43255 0.0
H2407 H 0.42009 0.18834 0.40291 0.0
C2408 C 0.36073 0.1833 0.36275 0.0
C2409 C 0.36441 0.18031 0.33349 0.0
C2410 C 0.36881 0.16851 0.37842 0.0
C2411 C 0.38131 0.151 0.36528 0.0
C2412 C 0.38421 0.14761 0.33603 0.0
H2413 H 0.49414 0.096 0.42302 0.0
H2414 H 0.46851 0.12113 0.41095 0.0
C2415 C 0.37545 0.16155 0.32037 0.0
C2416 C 0.3912 0.1355 0.38094 0.0
H2417 H 0.434 0.1407 0.43423 0.0
C2418 C 0.38533 0.10854 0.36873 0.0
C2419 C 0.40891 0.14723 0.40509 0.0
C2420 C 0.417 0.17619 0.41895 0.0
C2421 C 0.398 0.09359 0.37833 0.0
C2422 C 0.41566 0.10525 0.40241 0.0
C2423 C 0.42041 0.13176 0.41582 0.0
C2424 C 0.43089 0.09088 0.4125 0.0
C2425 C 0.39363 0.06605 0.36117 0.0
C2426 C 0.41837 0.06579 0.41815 0.0
C2427 C 0.43302 0.05114 0.42428 0.0
C2428 C 0.46045 0.06171 0.42585 0.0
C2429 C 0.47298 0.08739 0.42183 0.0
C2430 C 0.45834 0.10178 0.41506 0.0
H2431 H 0.38585 0.06318 0.33927 0.0
H2432 H 0.41206 0.06169 0.35987 0.0
H2433 H 0.37909 0.05151 0.37125 0.0
H2434 H 0.39724 0.0573 0.41727 0.0
H2435 H 0.42294 0.03158 0.42787 0.0
H2436 H 0.68746 0.85684 0.67658 0.0
H2437 H 0.66719 0.87836 0.64968 0.0
H2438 H 0.61957 0.80227 0.6001 0.0
H2439 H 0.63975 0.78071 0.62733 0.0
H2440 H 0.66005 0.87847 0.59253 0.0
H2441 H 0.56552 0.83211 0.63836 0.0
H2442 H 0.59594 0.83085 0.65053 0.0
H2443 H 0.57956 0.80963 0.61778 0.0
C2444 C 0.67325 0.84482 0.65934 0.0
C2445 C 0.66526 0.81721 0.65381 0.0
C2446 C 0.66159 0.85708 0.64407 0.0
C2447 C 0.64148 0.84192 0.62326 0.0
C2448 C 0.63473 0.81434 0.61639 0.0
H2449 H 0.52889 0.89478 0.55081 0.0
H2450 H 0.55353 0.86818 0.56096 0.0
C2451 C 0.64648 0.80206 0.63166 0.0
C2452 C 0.62631 0.85505 0.61077 0.0
H2453 H 0.56622 0.86127 0.60964 0.0
C2454 C 0.63948 0.87457 0.59607 0.0
C2455 C 0.59942 0.84992 0.61531 0.0
C2456 C 0.58424 0.82965 0.63153 0.0
C2457 C 0.6266 0.88926 0.58602 0.0
C2458 C 0.59999 0.88484 0.59156 0.0
C2459 C 0.58664 0.86477 0.60551 0.0
C2460 C 0.5858 0.90133 0.58402 0.0
C2461 C 0.64163 0.90917 0.56937 0.0
C2462 C 0.59554 0.92889 0.59376 0.0
C2463 C 0.58171 0.94428 0.58752 0.0
C2464 C 0.55754 0.93241 0.5718 0.0
C2465 C 0.54767 0.90474 0.56242 0.0
C2466 C 0.56166 0.88942 0.56841 0.0
H2467 H 0.65795 0.90391 0.55885 0.0
H2468 H 0.62876 0.91081 0.553 0.0
H2469 H 0.65026 0.92879 0.58398 0.0
H2470 H 0.61372 0.93855 0.60655 0.0
H2471 H 0.59005 0.96549 0.59494 0.0
H2472 H 0.74203 0.23097 0.33858 0.0
H2473 H 0.71399 0.20499 0.37004 0.0
H2474 H 0.66114 0.15613 0.29869 0.0
H2475 H 0.68891 0.18199 0.26739 0.0
H2476 H 0.64438 0.18244 0.36609 0.0
H2477 H 0.70303 0.11618 0.34689 0.0
H2478 H 0.71755 0.15093 0.34738 0.0
H2479 H 0.69596 0.12905 0.31813 0.0
C2480 C 0.7244 0.21467 0.32979 0.0
C2481 C 0.71762 0.20812 0.30071 0.0
C2482 C 0.70832 0.20014 0.3477 0.0
C2483 C 0.68557 0.17883 0.33654 0.0
C2484 C 0.67853 0.17271 0.3076 0.0
H2485 H 0.57251 0.043 0.37467 0.0
H2486 H 0.59995 0.08003 0.35538 0.0
C2487 C 0.69442 0.18733 0.2898 0.0
C2488 C 0.67055 0.16095 0.35421 0.0
H2489 H 0.66429 0.1025 0.3708 0.0
C2490 C 0.64888 0.16517 0.3676 0.0
C2491 C 0.67654 0.13846 0.35579 0.0
C2492 C 0.69956 0.13322 0.3414 0.0
C2493 C 0.63257 0.14684 0.38208 0.0
C2494 C 0.63821 0.12399 0.38293 0.0
C2495 C 0.66022 0.12018 0.37012 0.0
C2496 C 0.6206 0.10279 0.39535 0.0
C2497 C 0.60895 0.15137 0.39563 0.0
C2498 C 0.62342 0.10346 0.42415 0.0
C2499 C 0.60794 0.08224 0.43525 0.0
C2500 C 0.58949 0.06009 0.4176 0.0
C2501 C 0.58666 0.05968 0.38877 0.0
C2502 C 0.60216 0.08085 0.37773 0.0
H2503 H 0.60748 0.17039 0.39349 0.0
H2504 H 0.59094 0.13504 0.38572 0.0
H2505 H 0.60987 0.15126 0.41843 0.0
H2506 H 0.63777 0.12023 0.43793 0.0
H2507 H 0.61039 0.0832 0.4576 0.0
H2508 H 0.87712 0.6672 0.30791 0.0
H2509 H 0.90178 0.65149 0.33655 0.0
H2510 H 0.84311 0.64515 0.39831 0.0
H2511 H 0.81757 0.65988 0.36874 0.0
H2512 H 0.92444 0.66671 0.38748 0.0
H2513 H 0.84279 0.57121 0.38094 0.0
H2514 H 0.84132 0.59481 0.36128 0.0
H2515 H 0.83584 0.59994 0.39847 0.0
C2516 C 0.86954 0.66268 0.32771 0.0
C2517 C 0.84519 0.66435 0.3358 0.0
C2518 C 0.88371 0.65374 0.34416 0.0
C2519 C 0.87402 0.64636 0.36926 0.0
C2520 C 0.85064 0.64993 0.3786 0.0
H2521 H 0.93985 0.56042 0.4618 0.0
H2522 H 0.91506 0.58673 0.45064 0.0
C2523 C 0.83625 0.65876 0.36193 0.0
C2524 C 0.88819 0.63393 0.38439 0.0
H2525 H 0.88261 0.57609 0.40268 0.0
C2526 C 0.91517 0.64698 0.39103 0.0
C2527 C 0.87618 0.60817 0.38922 0.0
C2528 C 0.8475 0.59257 0.38193 0.0
C2529 C 0.93057 0.63474 0.40125 0.0
C2530 C 0.91874 0.60864 0.40484 0.0
C2531 C 0.89161 0.59606 0.39972 0.0
C2532 C 0.93436 0.59345 0.41217 0.0
C2533 C 0.95946 0.64975 0.40775 0.0
C2534 C 0.9532 0.58819 0.39404 0.0
C2535 C 0.96746 0.57326 0.40039 0.0
C2536 C 0.96305 0.5631 0.42493 0.0
C2537 C 0.94398 0.56822 0.44292 0.0
C2538 C 0.92971 0.58316 0.43653 0.0
H2539 H 0.96395 0.67141 0.41208 0.0
H2540 H 0.96673 0.64485 0.42624 0.0
H2541 H 0.9703 0.64435 0.3892 0.0
H2542 H 0.95673 0.59546 0.37481 0.0
H2543 H 0.98217 0.56996 0.38623 0.0
H2544 H 0.32769 0.81482 0.30021 0.0
H2545 H 0.35208 0.84566 0.34269 0.0
H2546 H 0.28141 0.82946 0.38804 0.0
H2547 H 0.25664 0.79833 0.34488 0.0
H2548 H 0.34024 0.8916 0.37596 0.0
H2549 H 0.33936 0.81585 0.43536 0.0
H2550 H 0.33364 0.80746 0.39739 0.0
H2551 H 0.30925 0.81471 0.41953 0.0
C2552 C 0.31728 0.81816 0.31913 0.0
C2553 C 0.29033 0.80459 0.31933 0.0
C2554 C 0.33121 0.83565 0.34338 0.0
C2555 C 0.3186 0.83972 0.36853 0.0
C2556 C 0.29149 0.82648 0.36882 0.0
H2557 H 0.43287 0.97067 0.48778 0.0
H2558 H 0.38828 0.93931 0.47363 0.0
C2559 C 0.27735 0.80902 0.34421 0.0
C2560 C 0.33456 0.85804 0.39391 0.0
H2561 H 0.36978 0.85882 0.45167 0.0
C2562 C 0.34613 0.88471 0.3931 0.0
C2563 C 0.34237 0.84876 0.41593 0.0
C2564 C 0.33066 0.82014 0.41734 0.0
C2565 C 0.36666 0.90199 0.41245 0.0
C2566 C 0.3755 0.89247 0.43367 0.0
C2567 C 0.36275 0.86615 0.43564 0.0
C2568 C 0.40082 0.90818 0.44993 0.0
C2569 C 0.38027 0.92969 0.4084 0.0
C2570 C 0.42248 0.90041 0.44301 0.0
C2571 C 0.44781 0.91822 0.45104 0.0
C2572 C 0.45188 0.94396 0.46648 0.0
C2573 C 0.43019 0.95085 0.476 0.0
C2574 C 0.40475 0.933 0.46783 0.0
H2575 H 0.37318 0.93274 0.3886 0.0
H2576 H 0.37672 0.94401 0.42643 0.0
H2577 H 0.40172 0.93418 0.40777 0.0
H2578 H 0.41994 0.88136 0.4293 0.0
H2579 H 0.46425 0.9124 0.44362 0.0
H2580 H 0.18392 0.26917 0.27834 0.0
H2581 H 0.16124 0.29741 0.30398 0.0
H2582 H 0.23219 0.34622 0.35441 0.0
H2583 H 0.25536 0.31878 0.32764 0.0
H2584 H 0.15175 0.30947 0.35939 0.0
H2585 H 0.21234 0.40119 0.32721 0.0
H2586 H 0.21418 0.36937 0.31095 0.0
H2587 H 0.23031 0.38686 0.34507 0.0
C2588 C 0.19477 0.28589 0.29492 0.0
C2589 C 0.22149 0.29139 0.30115 0.0
C2590 C 0.18171 0.30205 0.30964 0.0
C2591 C 0.19497 0.32429 0.33095 0.0
C2592 C 0.22152 0.32952 0.33775 0.0
H2593 H 0.14183 0.44822 0.42929 0.0
H2594 H 0.1672 0.42072 0.40926 0.0
C2595 C 0.23468 0.31338 0.32285 0.0
C2596 C 0.1807 0.34166 0.34586 0.0
H2597 H 0.17953 0.40447 0.3588 0.0
C2598 C 0.15787 0.33026 0.35928 0.0
C2599 C 0.18866 0.36888 0.34596 0.0
C2600 C 0.21258 0.38233 0.33134 0.0
C2601 C 0.14293 0.34516 0.37284 0.0
C2602 C 0.15043 0.37228 0.37233 0.0
C2603 C 0.17354 0.38377 0.35924 0.0
C2604 C 0.13456 0.38897 0.38497 0.0
C2605 C 0.11958 0.3316 0.38813 0.0
C2606 C 0.10761 0.38076 0.37795 0.0
C2607 C 0.09275 0.39617 0.39009 0.0
C2608 C 0.10445 0.42075 0.40912 0.0
C2609 C 0.13166 0.42924 0.41546 0.0
C2610 C 0.14642 0.41358 0.40365 0.0
H2611 H 0.12189 0.31459 0.39495 0.0
H2612 H 0.11645 0.34535 0.40706 0.0
H2613 H 0.10184 0.32381 0.37358 0.0
H2614 H 0.09792 0.36238 0.36291 0.0
H2615 H 0.07196 0.38852 0.38459 0.0
H2616 H 0.28653 0.17227 0.73002 0.0
H2617 H 0.31236 0.14731 0.70495 0.0
H2618 H 0.32969 0.19643 0.64421 0.0
H2619 H 0.30551 0.22273 0.67064 0.0
H2620 H 0.30823 0.11746 0.65488 0.0
H2621 H 0.40179 0.20103 0.6614 0.0
H2622 H 0.3741 0.20453 0.68055 0.0
H2623 H 0.37565 0.20526 0.64361 0.0
C2624 C 0.296 0.17804 0.71157 0.0
C2625 C 0.29369 0.19972 0.70262 0.0
C2626 C 0.31075 0.16354 0.697 0.0
C2627 C 0.32365 0.17011 0.67281 0.0
C2628 C 0.32071 0.19122 0.6632 0.0
H2629 H 0.42342 0.10037 0.56181 0.0
H2630 H 0.39573 0.12547 0.58234 0.0
C2631 C 0.30626 0.206 0.67809 0.0
C2632 C 0.3397 0.15453 0.65772 0.0
H2633 H 0.4004 0.15982 0.63331 0.0
C2634 C 0.32842 0.12682 0.65029 0.0
C2635 C 0.36613 0.16648 0.65144 0.0
C2636 C 0.38023 0.19592 0.65989 0.0
C2637 C 0.34252 0.11092 0.63686 0.0
C2638 C 0.36898 0.12284 0.63084 0.0
C2639 C 0.38017 0.15054 0.63782 0.0
C2640 C 0.38552 0.10699 0.61794 0.0
C2641 C 0.32867 0.08143 0.62885 0.0
C2642 C 0.38944 0.08826 0.63106 0.0
C2643 C 0.40516 0.07367 0.61924 0.0
C2644 C 0.41776 0.0775 0.59399 0.0
C2645 C 0.41392 0.09645 0.58099 0.0
C2646 C 0.39815 0.11104 0.59286 0.0
H2647 H 0.30711 0.07615 0.62684 0.0
H2648 H 0.33525 0.07259 0.60859 0.0
H2649 H 0.33307 0.07252 0.64564 0.0
H2650 H 0.3805 0.08502 0.65071 0.0
H2651 H 0.40718 0.05915 0.62987 0.0
H2652 H 0.7759 0.26307 0.66073 0.0
H2653 H 0.80253 0.29279 0.63211 0.0
H2654 H 0.86429 0.32545 0.6979 0.0
H2655 H 0.83728 0.29684 0.7273 0.0
H2656 H 0.827 0.35555 0.66303 0.0
H2657 H 0.89402 0.30498 0.61203 0.0
H2658 H 0.86138 0.28676 0.62058 0.0
H2659 H 0.88636 0.30422 0.64829 0.0
C2660 C 0.79516 0.27659 0.6691 0.0
C2661 C 0.80431 0.27806 0.69649 0.0
C2662 C 0.81041 0.29331 0.65261 0.0
C2663 C 0.83529 0.3112 0.66298 0.0
C2664 C 0.84512 0.31165 0.68959 0.0
H2665 H 0.95176 0.44529 0.62026 0.0
H2666 H 0.92455 0.40956 0.64152 0.0
C2667 C 0.82971 0.29524 0.70629 0.0
C2668 C 0.8499 0.33131 0.64741 0.0
H2669 H 0.90142 0.34805 0.60559 0.0
C2670 C 0.843 0.3538 0.65011 0.0
C2671 C 0.87098 0.32896 0.63102 0.0
C2672 C 0.87875 0.30494 0.62756 0.0
C2673 C 0.85692 0.37428 0.63703 0.0
C2674 C 0.87816 0.37209 0.62085 0.0
C2675 C 0.88498 0.3495 0.61794 0.0
C2676 C 0.8942 0.39371 0.60788 0.0
C2677 C 0.84938 0.3985 0.6411 0.0
C2678 C 0.8859 0.3966 0.58203 0.0
C2679 C 0.90146 0.41693 0.56969 0.0
C2680 C 0.92537 0.43476 0.58324 0.0
C2681 C 0.93334 0.43199 0.6094 0.0
C2682 C 0.91793 0.41153 0.62152 0.0
H2683 H 0.8331 0.39766 0.65544 0.0
H2684 H 0.86654 0.41637 0.64997 0.0
H2685 H 0.84332 0.40057 0.62031 0.0
H2686 H 0.86753 0.38299 0.57132 0.0
H2687 H 0.89486 0.41859 0.54953 0.0
H2688 H 0.22966 0.73514 0.66709 0.0
H2689 H 0.19938 0.70957 0.62662 0.0
H2690 H 0.1719 0.64381 0.66724 0.0
H2691 H 0.203 0.66926 0.70788 0.0
H2692 H 0.19198 0.63398 0.61279 0.0
H2693 H 0.11946 0.68447 0.6129 0.0
H2694 H 0.15377 0.70396 0.61755 0.0
H2695 H 0.13798 0.68796 0.64482 0.0
C2696 C 0.21707 0.71522 0.66748 0.0
C2697 C 0.2189 0.70371 0.69015 0.0
C2698 C 0.1996 0.70087 0.6445 0.0
C2699 C 0.18353 0.67501 0.64415 0.0
C2700 C 0.18444 0.66385 0.66733 0.0
H2701 H 0.05463 0.55898 0.58937 0.0
H2702 H 0.09365 0.59688 0.60598 0.0
C2703 C 0.20224 0.67811 0.69023 0.0
C2704 C 0.16808 0.65825 0.61836 0.0
H2705 H 0.11096 0.64375 0.58097 0.0
C2706 C 0.1745 0.63627 0.6053 0.0
C2707 C 0.14596 0.66211 0.60836 0.0
C2708 C 0.13869 0.68583 0.62156 0.0
C2709 C 0.1575 0.61611 0.58473 0.0
C2710 C 0.13389 0.61852 0.57689 0.0
C2711 C 0.12918 0.64214 0.58728 0.0
C2712 C 0.1112 0.59488 0.56551 0.0
C2713 C 0.1634 0.59117 0.5741 0.0
C2714 C 0.10887 0.58049 0.53751 0.0
C2715 C 0.08659 0.55814 0.52802 0.0
C2716 C 0.06625 0.55068 0.54614 0.0
C2717 C 0.06948 0.5646 0.57449 0.0
C2718 C 0.09173 0.58639 0.58404 0.0
H2719 H 0.1834 0.59324 0.58114 0.0
H2720 H 0.14905 0.57478 0.58202 0.0
H2721 H 0.16155 0.58575 0.55066 0.0
H2722 H 0.12409 0.58657 0.52314 0.0
H2723 H 0.08523 0.54679 0.50672 0.0
loop_
_geom_bond_atom_site_label_1
_geom_bond_atom_site_label_2
_geom_bond_distance
_geom_bond_site_symmetry_2
_ccdc_geom_bond_type
Tb0 N29 2.617 . S
Tb0 N35 2.572 . S
Tb0 O44 2.465 . S
Tb0 O45 2.387 . S
Tb0 O47 2.428 . S
Tb0 O48 2.308 . S
Tb0 O52 2.349 . S
Tb0 O55 2.393 . S
Tb0 C64 2.802 . S
C1 N2 1.379 . S
C1 C4 1.416 . S
C1 C8 1.424 . S
N2 C1 1.379 . S
N2 C5 1.334 . S
N2 Tb11 2.617 . S
C3 C5 1.390 . S
C3 C6 1.339 . S
C3 H23 0.930 . S
C4 C1 1.416 . S
C4 C6 1.416 . S
C4 C10 1.448 . S
C5 N2 1.334 . S
C5 C3 1.390 . S
C5 H16 0.930 . S
C6 C3 1.339 . S
C6 C4 1.416 . S
C6 H27 0.930 . S
C7 C8 1.413 . S
C7 C9 1.427 . S
C7 C13 1.416 . S
C8 C1 1.424 . S
C8 C7 1.413 . S
C8 N12 1.361 . S
C9 C7 1.427 . S
C9 C10 1.328 . S
C9 H24 0.929 . S
C10 C4 1.448 . S
C10 C9 1.328 . S
C10 H25 0.930 . S
Tb11 N2 2.617 . S
Tb11 N12 2.572 . S
Tb11 O46 2.349 . S
Tb11 O49 2.393 . S
Tb11 O50 2.465 . S
Tb11 O51 2.387 . S
Tb11 O53 2.428 . S
Tb11 O54 2.308 . S
Tb11 C75 2.802 . S
N12 C8 1.361 . S
N12 Tb11 2.572 . S
N12 C14 1.340 . S
C13 C7 1.416 . S
C13 C15 1.332 . S
C13 H21 0.931 . S
C14 N12 1.340 . S
C14 C15 1.407 . S
C14 H20 0.930 . S
C15 C13 1.332 . S
C15 C14 1.407 . S
C15 H17 0.929 . S
H16 C5 0.930 . S
H17 C15 0.929 . S
H18 C33 0.930 . S
H19 C40 0.929 . S
H20 C14 0.930 . S
H21 C13 0.931 . S
H22 C36 0.930 . S
H23 C3 0.930 . S
H24 C9 0.929 . S
H25 C10 0.930 . S
H26 C31 0.930 . S
H27 C6 0.930 . S
H28 C39 0.931 . S
N29 Tb0 2.617 . S
N29 C30 1.379 . S
N29 C33 1.334 . S
C30 N29 1.379 . S
C30 C32 1.416 . S
C30 C38 1.424 . S
C31 H26 0.930 . S
C31 C33 1.390 . S
C31 C34 1.339 . S
C32 C30 1.416 . S
C32 C34 1.416 . S
C32 C65 1.448 . S
C33 H18 0.930 . S
C33 N29 1.334 . S
C33 C31 1.390 . S
C34 C31 1.339 . S
C34 C32 1.416 . S
C34 H41 0.930 . S
N35 Tb0 2.572 . S
N35 C36 1.340 . S
N35 C38 1.361 . S
C36 H22 0.930 . S
C36 N35 1.340 . S
C36 C40 1.407 . S
C37 C38 1.413 . S
C37 C39 1.416 . S
C37 C66 1.427 . S
C38 C30 1.424 . S
C38 N35 1.361 . S
C38 C37 1.413 . S
C39 H28 0.931 . S
C39 C37 1.416 . S
C39 C40 1.332 . S
C40 H19 0.929 . S
C40 C36 1.407 . S
C40 C39 1.332 . S
H41 C34 0.930 . S
H42 C65 0.930 . S
H43 C66 0.929 . S
O44 Tb0 2.465 . S
O44 C64 1.264 . S
O45 Tb0 2.387 . S
O45 C56 1.264 . S
O46 Tb11 2.349 . S
O46 C56 1.243 . S
O47 Tb0 2.428 . S
O47 C64 1.256 . S
O48 Tb0 2.308 . S
O48 C63 1.266 . S
O49 Tb11 2.393 . S
O49 C63 1.248 . S
O50 Tb11 2.465 . S
O50 C75 1.264 . S
O51 Tb11 2.387 . S
O51 C67 1.264 . S
O52 Tb0 2.349 . S
O52 C67 1.243 . S
O53 Tb11 2.428 . S
O53 C75 1.256 . S
O54 Tb11 2.308 . S
O54 C74 1.266 . S
O55 Tb0 2.393 . S
O55 C74 1.248 . S
C56 O45 1.264 . S
C56 O46 1.243 . S
C57 C60 1.399 . S
C57 C62 1.383 . S
C57 C64 1.496 . S
C58 C59 1.399 . S
C58 C62 1.389 . S
C59 C58 1.399 . S
C59 C61 1.380 . S
C59 H76 0.929 . S
C60 C57 1.399 . S
C60 C61 1.392 . S
C60 H77 0.929 . S
C61 C59 1.380 . S
C61 C60 1.392 . S
C61 H78 0.929 . S
C62 C57 1.383 . S
C62 C58 1.389 . S
C62 H79 0.931 . S
C63 O48 1.266 . S
C63 O49 1.248 . S
C64 Tb0 2.802 . S
C64 O44 1.264 . S
C64 O47 1.256 . S
C64 C57 1.496 . S
C65 C32 1.448 . S
C65 H42 0.930 . S
C65 C66 1.328 . S
C66 C37 1.427 . S
C66 H43 0.929 . S
C66 C65 1.328 . S
C67 O51 1.264 . S
C67 O52 1.243 . S
C68 C71 1.399 . S
C68 C72 1.383 . S
C68 C75 1.496 . S
C69 C70 1.399 . S
C69 C72 1.389 . S
C70 C69 1.399 . S
C70 C73 1.380 . S
C70 H80 0.929 . S
C71 C68 1.399 . S
C71 C73 1.392 . S
C71 H81 0.929 . S
C72 C68 1.383 . S
C72 C69 1.389 . S
C72 H82 0.931 . S
C73 C70 1.380 . S
C73 C71 1.392 . S
C73 H83 0.929 . S
C74 O54 1.266 . S
C74 O55 1.248 . S
C75 Tb11 2.802 . S
C75 O50 1.264 . S
C75 O53 1.256 . S
C75 C68 1.496 . S
H76 C59 0.929 . S
H77 C60 0.929 . S
H78 C61 0.929 . S
H79 C62 0.931 . S
H80 C70 0.929 . S
H81 C71 0.929 . S
H82 C72 0.931 . S
H83 C73 0.929 . S
Tb84 N113 2.617 . S
Tb84 N119 2.572 . S
Tb84 O128 2.465 . S
Tb84 O129 2.387 . S
Tb84 O131 2.428 . S
Tb84 O132 2.308 . S
Tb84 O136 2.349 . S
Tb84 O139 2.393 . S
Tb84 C148 2.802 . S
C85 N86 1.379 . S
C85 C88 1.416 . S
C85 C92 1.424 . S
N86 C85 1.379 . S
N86 C89 1.334 . S
N86 Tb95 2.617 . S
C87 C89 1.390 . S
C87 C90 1.339 . S
C87 H107 0.930 . S
C88 C85 1.416 . S
C88 C90 1.416 . S
C88 C94 1.448 . S
C89 N86 1.334 . S
C89 C87 1.390 . S
C89 H100 0.930 . S
C90 C87 1.339 . S
C90 C88 1.416 . S
C90 H111 0.930 . S
C91 C92 1.413 . S
C91 C93 1.427 . S
C91 C97 1.416 . S
C92 C85 1.424 . S
C92 C91 1.413 . S
C92 N96 1.361 . S
C93 C91 1.427 . S
C93 C94 1.328 . S
C93 H108 0.929 . S
C94 C88 1.448 . S
C94 C93 1.328 . S
C94 H109 0.930 . S
Tb95 N86 2.617 . S
Tb95 N96 2.572 . S
Tb95 O130 2.349 . S
Tb95 O133 2.393 . S
Tb95 O134 2.465 . S
Tb95 O135 2.387 . S
Tb95 O137 2.428 . S
Tb95 O138 2.308 . S
Tb95 C159 2.802 . S
N96 C92 1.361 . S
N96 Tb95 2.572 . S
N96 C98 1.340 . S
C97 C91 1.416 . S
C97 C99 1.332 . S
C97 H105 0.931 . S
C98 N96 1.340 . S
C98 C99 1.407 . S
C98 H104 0.930 . S
C99 C97 1.332 . S
C99 C98 1.407 . S
C99 H101 0.929 . S
H100 C89 0.930 . S
H101 C99 0.929 . S
H102 C117 0.930 . S
H103 C124 0.929 . S
H104 C98 0.930 . S
H105 C97 0.931 . S
H106 C120 0.930 . S
H107 C87 0.930 . S
H108 C93 0.929 . S
H109 C94 0.930 . S
H110 C115 0.930 . S
H111 C90 0.930 . S
H112 C123 0.931 . S
N113 Tb84 2.617 . S
N113 C114 1.379 . S
N113 C117 1.334 . S
C114 N113 1.379 . S
C114 C116 1.416 . S
C114 C122 1.424 . S
C115 H110 0.930 . S
C115 C117 1.390 . S
C115 C118 1.339 . S
C116 C114 1.416 . S
C116 C118 1.416 . S
C116 C149 1.448 . S
C117 H102 0.930 . S
C117 N113 1.334 . S
C117 C115 1.390 . S
C118 C115 1.339 . S
C118 C116 1.416 . S
C118 H125 0.930 . S
N119 Tb84 2.572 . S
N119 C120 1.340 . S
N119 C122 1.361 . S
C120 H106 0.930 . S
C120 N119 1.340 . S
C120 C124 1.407 . S
C121 C122 1.413 . S
C121 C123 1.416 . S
C121 C150 1.427 . S
C122 C114 1.424 . S
C122 N119 1.361 . S
C122 C121 1.413 . S
C123 H112 0.931 . S
C123 C121 1.416 . S
C123 C124 1.332 . S
C124 H103 0.929 . S
C124 C120 1.407 . S
C124 C123 1.332 . S
H125 C118 0.930 . S
H126 C149 0.930 . S
H127 C150 0.929 . S
O128 Tb84 2.465 . S
O128 C148 1.264 . S
O129 Tb84 2.387 . S
O129 C140 1.264 . S
O130 Tb95 2.349 . S
O130 C140 1.243 . S
O131 Tb84 2.428 . S
O131 C148 1.256 . S
O132 Tb84 2.308 . S
O132 C147 1.266 . S
O133 Tb95 2.393 . S
O133 C147 1.248 . S
O134 Tb95 2.465 . S
O134 C159 1.264 . S
O135 Tb95 2.387 . S
O135 C151 1.264 . S
O136 Tb84 2.349 . S
O136 C151 1.243 . S
O137 Tb95 2.428 . S
O137 C159 1.256 . S
O138 Tb95 2.308 . S
O138 C158 1.266 . S
O139 Tb84 2.393 . S
O139 C158 1.248 . S
C140 O129 1.264 . S
C140 O130 1.243 . S
C141 C144 1.399 . S
C141 C146 1.383 . S
C141 C148 1.496 . S
C142 C143 1.399 . S
C142 C146 1.389 . S
C143 C142 1.399 . S
C143 C145 1.380 . S
C143 H160 0.929 . S
C144 C141 1.399 . S
C144 C145 1.392 . S
C144 H161 0.929 . S
C145 C143 1.380 . S
C145 C144 1.392 . S
C145 H162 0.929 . S
C146 C141 1.383 . S
C146 C142 1.389 . S
C146 H163 0.931 . S
C147 O132 1.266 . S
C147 O133 1.248 . S
C148 Tb84 2.802 . S
C148 O128 1.264 . S
C148 O131 1.256 . S
C148 C141 1.496 . S
C149 C116 1.448 . S
C149 H126 0.930 . S
C149 C150 1.328 . S
C150 C121 1.427 . S
C150 H127 0.929 . S
C150 C149 1.328 . S
C151 O135 1.264 . S
C151 O136 1.243 . S
C152 C155 1.399 . S
C152 C156 1.383 . S
C152 C159 1.496 . S
C153 C154 1.399 . S
C153 C156 1.389 . S
C154 C153 1.399 . S
C154 C157 1.380 . S
C154 H164 0.929 . S
C155 C152 1.399 . S
C155 C157 1.392 . S
C155 H165 0.929 . S
C156 C152 1.383 . S
C156 C153 1.389 . S
C156 H166 0.931 . S
C157 C154 1.380 . S
C157 C155 1.392 . S
C157 H167 0.929 . S
C158 O138 1.266 . S
C158 O139 1.248 . S
C159 Tb95 2.802 . S
C159 O134 1.264 . S
C159 O137 1.256 . S
C159 C152 1.496 . S
H160 C143 0.929 . S
H161 C144 0.929 . S
H162 C145 0.929 . S
H163 C146 0.931 . S
H164 C154 0.929 . S
H165 C155 0.929 . S
H166 C156 0.931 . S
H167 C157 0.929 . S
Tb168 N197 2.617 . S
Tb168 N203 2.572 . S
Tb168 O212 2.465 . S
Tb168 O213 2.387 . S
Tb168 O215 2.428 . S
Tb168 O216 2.308 . S
Tb168 O220 2.349 . S
Tb168 O223 2.393 . S
Tb168 C232 2.802 . S
C169 N170 1.379 . S
C169 C172 1.416 . S
C169 C176 1.424 . S
N170 C169 1.379 . S
N170 C173 1.334 . S
N170 Tb179 2.617 . S
C171 C173 1.390 . S
C171 C174 1.339 . S
C171 H191 0.930 . S
C172 C169 1.416 . S
C172 C174 1.416 . S
C172 C178 1.448 . S
C173 N170 1.334 . S
C173 C171 1.390 . S
C173 H184 0.930 . S
C174 C171 1.339 . S
C174 C172 1.416 . S
C174 H195 0.930 . S
C175 C176 1.413 . S
C175 C177 1.427 . S
C175 C181 1.416 . S
C176 C169 1.424 . S
C176 C175 1.413 . S
C176 N180 1.361 . S
C177 C175 1.427 . S
C177 C178 1.328 . S
C177 H192 0.929 . S
C178 C172 1.448 . S
C178 C177 1.328 . S
C178 H193 0.930 . S
Tb179 N170 2.617 . S
Tb179 N180 2.572 . S
Tb179 O214 2.349 . S
Tb179 O217 2.393 . S
Tb179 O218 2.465 . S
Tb179 O219 2.387 . S
Tb179 O221 2.428 . S
Tb179 O222 2.308 . S
Tb179 C243 2.802 . S
N180 C176 1.361 . S
N180 Tb179 2.572 . S
N180 C182 1.340 . S
C181 C175 1.416 . S
C181 C183 1.332 . S
C181 H189 0.931 . S
C182 N180 1.340 . S
C182 C183 1.407 . S
C182 H188 0.930 . S
C183 C181 1.332 . S
C183 C182 1.407 . S
C183 H185 0.929 . S
H184 C173 0.930 . S
H185 C183 0.929 . S
H186 C201 0.930 . S
H187 C208 0.929 . S
H188 C182 0.930 . S
H189 C181 0.931 . S
H190 C204 0.930 . S
H191 C171 0.930 . S
H192 C177 0.929 . S
H193 C178 0.930 . S
H194 C199 0.930 . S
H195 C174 0.930 . S
H196 C207 0.931 . S
N197 Tb168 2.617 . S
N197 C198 1.379 . S
N197 C201 1.334 . S
C198 N197 1.379 . S
C198 C200 1.416 . S
C198 C206 1.424 . S
C199 H194 0.930 . S
C199 C201 1.390 . S
C199 C202 1.339 . S
C200 C198 1.416 . S
C200 C202 1.416 . S
C200 C233 1.448 . S
C201 H186 0.930 . S
C201 N197 1.334 . S
C201 C199 1.390 . S
C202 C199 1.339 . S
C202 C200 1.416 . S
C202 H209 0.930 . S
N203 Tb168 2.572 . S
N203 C204 1.340 . S
N203 C206 1.361 . S
C204 H190 0.930 . S
C204 N203 1.340 . S
C204 C208 1.407 . S
C205 C206 1.413 . S
C205 C207 1.416 . S
C205 C234 1.427 . S
C206 C198 1.424 . S
C206 N203 1.361 . S
C206 C205 1.413 . S
C207 H196 0.931 . S
C207 C205 1.416 . S
C207 C208 1.332 . S
C208 H187 0.929 . S
C208 C204 1.407 . S
C208 C207 1.332 . S
H209 C202 0.930 . S
H210 C233 0.930 . S
H211 C234 0.929 . S
O212 Tb168 2.465 . S
O212 C232 1.264 . S
O213 Tb168 2.387 . S
O213 C224 1.264 . S
O214 Tb179 2.349 . S
O214 C224 1.243 . S
O215 Tb168 2.428 . S
O215 C232 1.256 . S
O216 Tb168 2.308 . S
O216 C231 1.266 . S
O217 Tb179 2.393 . S
O217 C231 1.248 . S
O218 Tb179 2.465 . S
O218 C243 1.264 . S
O219 Tb179 2.387 . S
O219 C235 1.264 . S
O220 Tb168 2.349 . S
O220 C235 1.243 . S
O221 Tb179 2.428 . S
O221 C243 1.256 . S
O222 Tb179 2.308 . S
O222 C242 1.266 . S
O223 Tb168 2.393 . S
O223 C242 1.248 . S
C224 O213 1.264 . S
C224 O214 1.243 . S
C225 C228 1.399 . S
C225 C230 1.383 . S
C225 C232 1.496 . S
C226 C227 1.399 . S
C226 C230 1.389 . S
C227 C226 1.399 . S
C227 C229 1.380 . S
C227 H244 0.929 . S
C228 C225 1.399 . S
C228 C229 1.392 . S
C228 H245 0.929 . S
C229 C227 1.380 . S
C229 C228 1.392 . S
C229 H246 0.929 . S
C230 C225 1.383 . S
C230 C226 1.389 . S
C230 H247 0.931 . S
C231 O216 1.266 . S
C231 O217 1.248 . S
C232 Tb168 2.802 . S
C232 O212 1.264 . S
C232 O215 1.256 . S
C232 C225 1.496 . S
C233 C200 1.448 . S
C233 H210 0.930 . S
C233 C234 1.328 . S
C234 C205 1.427 . S
C234 H211 0.929 . S
C234 C233 1.328 . S
C235 O219 1.264 . S
C235 O220 1.243 . S
C236 C239 1.399 . S
C236 C240 1.383 . S
C236 C243 1.496 . S
C237 C238 1.399 . S
C237 C240 1.389 . S
C238 C237 1.399 . S
C238 C241 1.380 . S
C238 H248 0.929 . S
C239 C236 1.399 . S
C239 C241 1.392 . S
C239 H249 0.929 . S
C240 C236 1.383 . S
C240 C237 1.389 . S
C240 H250 0.931 . S
C241 C238 1.380 . S
C241 C239 1.392 . S
C241 H251 0.929 . S
C242 O222 1.266 . S
C242 O223 1.248 . S
C243 Tb179 2.802 . S
C243 O218 1.264 . S
C243 O221 1.256 . S
C243 C236 1.496 . S
H244 C227 0.929 . S
H245 C228 0.929 . S
H246 C229 0.929 . S
H247 C230 0.931 . S
H248 C238 0.929 . S
H249 C239 0.929 . S
H250 C240 0.931 . S
H251 C241 0.929 . S
Tb252 N281 2.617 . S
Tb252 N287 2.572 . S
Tb252 O296 2.465 . S
Tb252 O297 2.387 . S
Tb252 O299 2.428 . S
Tb252 O300 2.308 . S
Tb252 O304 2.349 . S
Tb252 O307 2.393 . S
Tb252 C316 2.802 . S
C253 N254 1.379 . S
C253 C256 1.416 . S
C253 C260 1.424 . S
N254 C253 1.379 . S
N254 C257 1.334 . S
N254 Tb263 2.617 . S
C255 C257 1.390 . S
C255 C258 1.339 . S
C255 H275 0.930 . S
C256 C253 1.416 . S
C256 C258 1.416 . S
C256 C262 1.448 . S
C257 N254 1.334 . S
C257 C255 1.390 . S
C257 H268 0.930 . S
C258 C255 1.339 . S
C258 C256 1.416 . S
C258 H279 0.930 . S
C259 C260 1.413 . S
C259 C261 1.427 . S
C259 C265 1.416 . S
C260 C253 1.424 . S
C260 C259 1.413 . S
C260 N264 1.361 . S
C261 C259 1.427 . S
C261 C262 1.328 . S
C261 H276 0.929 . S
C262 C256 1.448 . S
C262 C261 1.328 . S
C262 H277 0.930 . S
Tb263 N254 2.617 . S
Tb263 N264 2.572 . S
Tb263 O298 2.349 . S
Tb263 O301 2.393 . S
Tb263 O302 2.465 . S
Tb263 O303 2.387 . S
Tb263 O305 2.428 . S
Tb263 O306 2.308 . S
Tb263 C327 2.802 . S
N264 C260 1.361 . S
N264 Tb263 2.572 . S
N264 C266 1.340 . S
C265 C259 1.416 . S
C265 C267 1.332 . S
C265 H273 0.931 . S
C266 N264 1.340 . S
C266 C267 1.407 . S
C266 H272 0.930 . S
C267 C265 1.332 . S
C267 C266 1.407 . S
C267 H269 0.929 . S
H268 C257 0.930 . S
H269 C267 0.929 . S
H270 C285 0.930 . S
H271 C292 0.929 . S
H272 C266 0.930 . S
H273 C265 0.931 . S
H274 C288 0.930 . S
H275 C255 0.930 . S
H276 C261 0.929 . S
H277 C262 0.930 . S
H278 C283 0.930 . S
H279 C258 0.930 . S
H280 C291 0.931 . S
N281 Tb252 2.617 . S
N281 C282 1.379 . S
N281 C285 1.334 . S
C282 N281 1.379 . S
C282 C284 1.416 . S
C282 C290 1.424 . S
C283 H278 0.930 . S
C283 C285 1.390 . S
C283 C286 1.339 . S
C284 C282 1.416 . S
C284 C286 1.416 . S
C284 C317 1.448 . S
C285 H270 0.930 . S
C285 N281 1.334 . S
C285 C283 1.390 . S
C286 C283 1.339 . S
C286 C284 1.416 . S
C286 H293 0.930 . S
N287 Tb252 2.572 . S
N287 C288 1.340 . S
N287 C290 1.361 . S
C288 H274 0.930 . S
C288 N287 1.340 . S
C288 C292 1.407 . S
C289 C290 1.413 . S
C289 C291 1.416 . S
C289 C318 1.427 . S
C290 C282 1.424 . S
C290 N287 1.361 . S
C290 C289 1.413 . S
C291 H280 0.931 . S
C291 C289 1.416 . S
C291 C292 1.332 . S
C292 H271 0.929 . S
C292 C288 1.407 . S
C292 C291 1.332 . S
H293 C286 0.930 . S
H294 C317 0.930 . S
H295 C318 0.929 . S
O296 Tb252 2.465 . S
O296 C316 1.264 . S
O297 Tb252 2.387 . S
O297 C308 1.264 . S
O298 Tb263 2.349 . S
O298 C308 1.243 . S
O299 Tb252 2.428 . S
O299 C316 1.256 . S
O300 Tb252 2.308 . S
O300 C315 1.266 . S
O301 Tb263 2.393 . S
O301 C315 1.248 . S
O302 Tb263 2.465 . S
O302 C327 1.264 . S
O303 Tb263 2.387 . S
O303 C319 1.264 . S
O304 Tb252 2.349 . S
O304 C319 1.243 . S
O305 Tb263 2.428 . S
O305 C327 1.256 . S
O306 Tb263 2.308 . S
O306 C326 1.266 . S
O307 Tb252 2.393 . S
O307 C326 1.248 . S
C308 O297 1.264 . S
C308 O298 1.243 . S
C309 C312 1.399 . S
C309 C314 1.383 . S
C309 C316 1.496 . S
C310 C311 1.399 . S
C310 C314 1.389 . S
C311 C310 1.399 . S
C311 C313 1.380 . S
C311 H328 0.929 . S
C312 C309 1.399 . S
C312 C313 1.392 . S
C312 H329 0.929 . S
C313 C311 1.380 . S
C313 C312 1.392 . S
C313 H330 0.929 . S
C314 C309 1.383 . S
C314 C310 1.389 . S
C314 H331 0.931 . S
C315 O300 1.266 . S
C315 O301 1.248 . S
C316 Tb252 2.802 . S
C316 O296 1.264 . S
C316 O299 1.256 . S
C316 C309 1.496 . S
C317 C284 1.448 . S
C317 H294 0.930 . S
C317 C318 1.328 . S
C318 C289 1.427 . S
C318 H295 0.929 . S
C318 C317 1.328 . S
C319 O303 1.264 . S
C319 O304 1.243 . S
C320 C323 1.399 . S
C320 C324 1.383 . S
C320 C327 1.496 . S
C321 C322 1.399 . S
C321 C324 1.389 . S
C322 C321 1.399 . S
C322 C325 1.380 . S
C322 H332 0.929 . S
C323 C320 1.399 . S
C323 C325 1.392 . S
C323 H333 0.929 . S
C324 C320 1.383 . S
C324 C321 1.389 . S
C324 H334 0.931 . S
C325 C322 1.380 . S
C325 C323 1.392 . S
C325 H335 0.929 . S
C326 O306 1.266 . S
C326 O307 1.248 . S
C327 Tb263 2.802 . S
C327 O302 1.264 . S
C327 O305 1.256 . S
C327 C320 1.496 . S
H328 C311 0.929 . S
H329 C312 0.929 . S
H330 C313 0.929 . S
H331 C314 0.931 . S
H332 C322 0.929 . S
H333 C323 0.929 . S
H334 C324 0.931 . S
H335 C325 0.929 . S
Tb336 N365 2.617 . S
Tb336 N371 2.572 . S
Tb336 O380 2.465 . S
Tb336 O381 2.387 . S
Tb336 O383 2.428 . S
Tb336 O384 2.308 . S
Tb336 O388 2.349 . S
Tb336 O391 2.393 . S
Tb336 C400 2.802 . S
C337 N338 1.379 . S
C337 C340 1.416 . S
C337 C344 1.424 . S
N338 C337 1.379 . S
N338 C341 1.334 . S
N338 Tb347 2.617 . S
C339 C341 1.390 . S
C339 C342 1.339 . S
C339 H359 0.930 . S
C340 C337 1.416 . S
C340 C342 1.416 . S
C340 C346 1.448 . S
C341 N338 1.334 . S
C341 C339 1.390 . S
C341 H352 0.930 . S
C342 C339 1.339 . S
C342 C340 1.416 . S
C342 H363 0.930 . S
C343 C344 1.413 . S
C343 C345 1.427 . S
C343 C349 1.416 . S
C344 C337 1.424 . S
C344 C343 1.413 . S
C344 N348 1.361 . S
C345 C343 1.427 . S
C345 C346 1.328 . S
C345 H360 0.929 . S
C346 C340 1.448 . S
C346 C345 1.328 . S
C346 H361 0.930 . S
Tb347 N338 2.617 . S
Tb347 N348 2.572 . S
Tb347 O382 2.349 . S
Tb347 O385 2.393 . S
Tb347 O386 2.465 . S
Tb347 O387 2.387 . S
Tb347 O389 2.428 . S
Tb347 O390 2.308 . S
Tb347 C411 2.802 . S
N348 C344 1.361 . S
N348 Tb347 2.572 . S
N348 C350 1.340 . S
C349 C343 1.416 . S
C349 C351 1.332 . S
C349 H357 0.931 . S
C350 N348 1.340 . S
C350 C351 1.407 . S
C350 H356 0.930 . S
C351 C349 1.332 . S
C351 C350 1.407 . S
C351 H353 0.929 . S
H352 C341 0.930 . S
H353 C351 0.929 . S
H354 C369 0.930 . S
H355 C376 0.929 . S
H356 C350 0.930 . S
H357 C349 0.931 . S
H358 C372 0.930 . S
H359 C339 0.930 . S
H360 C345 0.929 . S
H361 C346 0.930 . S
H362 C367 0.930 . S
H363 C342 0.930 . S
H364 C375 0.931 . S
N365 Tb336 2.617 . S
N365 C366 1.379 . S
N365 C369 1.334 . S
C366 N365 1.379 . S
C366 C368 1.416 . S
C366 C374 1.424 . S
C367 H362 0.930 . S
C367 C369 1.390 . S
C367 C370 1.339 . S
C368 C366 1.416 . S
C368 C370 1.416 . S
C368 C401 1.448 . S
C369 H354 0.930 . S
C369 N365 1.334 . S
C369 C367 1.390 . S
C370 C367 1.339 . S
C370 C368 1.416 . S
C370 H377 0.930 . S
N371 Tb336 2.572 . S
N371 C372 1.340 . S
N371 C374 1.361 . S
C372 H358 0.930 . S
C372 N371 1.340 . S
C372 C376 1.407 . S
C373 C374 1.413 . S
C373 C375 1.416 . S
C373 C402 1.427 . S
C374 C366 1.424 . S
C374 N371 1.361 . S
C374 C373 1.413 . S
C375 H364 0.931 . S
C375 C373 1.416 . S
C375 C376 1.332 . S
C376 H355 0.929 . S
C376 C372 1.407 . S
C376 C375 1.332 . S
H377 C370 0.930 . S
H378 C401 0.930 . S
H379 C402 0.929 . S
O380 Tb336 2.465 . S
O380 C400 1.264 . S
O381 Tb336 2.387 . S
O381 C392 1.264 . S
O382 Tb347 2.349 . S
O382 C392 1.243 . S
O383 Tb336 2.428 . S
O383 C400 1.256 . S
O384 Tb336 2.308 . S
O384 C399 1.266 . S
O385 Tb347 2.393 . S
O385 C399 1.248 . S
O386 Tb347 2.465 . S
O386 C411 1.264 . S
O387 Tb347 2.387 . S
O387 C403 1.264 . S
O388 Tb336 2.349 . S
O388 C403 1.243 . S
O389 Tb347 2.428 . S
O389 C411 1.256 . S
O390 Tb347 2.308 . S
O390 C410 1.266 . S
O391 Tb336 2.393 . S
O391 C410 1.248 . S
C392 O381 1.264 . S
C392 O382 1.243 . S
C393 C396 1.399 . S
C393 C398 1.383 . S
C393 C400 1.496 . S
C394 C395 1.399 . S
C394 C398 1.389 . S
C395 C394 1.399 . S
C395 C397 1.380 . S
C395 H412 0.929 . S
C396 C393 1.399 . S
C396 C397 1.392 . S
C396 H413 0.929 . S
C397 C395 1.380 . S
C397 C396 1.392 . S
C397 H414 0.929 . S
C398 C393 1.383 . S
C398 C394 1.389 . S
C398 H415 0.931 . S
C399 O384 1.266 . S
C399 O385 1.248 . S
C400 Tb336 2.802 . S
C400 O380 1.264 . S
C400 O383 1.256 . S
C400 C393 1.496 . S
C401 C368 1.448 . S
C401 H378 0.930 . S
C401 C402 1.328 . S
C402 C373 1.427 . S
C402 H379 0.929 . S
C402 C401 1.328 . S
C403 O387 1.264 . S
C403 O388 1.243 . S
C404 C407 1.399 . S
C404 C408 1.383 . S
C404 C411 1.496 . S
C405 C406 1.399 . S
C405 C408 1.389 . S
C406 C405 1.399 . S
C406 C409 1.380 . S
C406 H416 0.929 . S
C407 C404 1.399 . S
C407 C409 1.392 . S
C407 H417 0.929 . S
C408 C404 1.383 . S
C408 C405 1.389 . S
C408 H418 0.931 . S
C409 C406 1.380 . S
C409 C407 1.392 . S
C409 H419 0.929 . S
C410 O390 1.266 . S
C410 O391 1.248 . S
C411 Tb347 2.802 . S
C411 O386 1.264 . S
C411 O389 1.256 . S
C411 C404 1.496 . S
H412 C395 0.929 . S
H413 C396 0.929 . S
H414 C397 0.929 . S
H415 C398 0.931 . S
H416 C406 0.929 . S
H417 C407 0.929 . S
H418 C408 0.931 . S
H419 C409 0.929 . S
Tb420 N449 2.617 . S
Tb420 N455 2.572 . S
Tb420 O464 2.465 . S
Tb420 O465 2.387 . S
Tb420 O467 2.428 . S
Tb420 O468 2.308 . S
Tb420 O472 2.349 . S
Tb420 O475 2.393 . S
Tb420 C484 2.802 . S
C421 N422 1.379 . S
C421 C424 1.416 . S
C421 C428 1.424 . S
N422 C421 1.379 . S
N422 C425 1.334 . S
N422 Tb431 2.617 . S
C423 C425 1.390 . S
C423 C426 1.339 . S
C423 H443 0.930 . S
C424 C421 1.416 . S
C424 C426 1.416 . S
C424 C430 1.448 . S
C425 N422 1.334 . S
C425 C423 1.390 . S
C425 H436 0.930 . S
C426 C423 1.339 . S
C426 C424 1.416 . S
C426 H447 0.930 . S
C427 C428 1.413 . S
C427 C429 1.427 . S
C427 C433 1.416 . S
C428 C421 1.424 . S
C428 C427 1.413 . S
C428 N432 1.361 . S
C429 C427 1.427 . S
C429 C430 1.328 . S
C429 H444 0.929 . S
C430 C424 1.448 . S
C430 C429 1.328 . S
C430 H445 0.930 . S
Tb431 N422 2.617 . S
Tb431 N432 2.572 . S
Tb431 O466 2.349 . S
Tb431 O469 2.393 . S
Tb431 O470 2.465 . S
Tb431 O471 2.387 . S
Tb431 O473 2.428 . S
Tb431 O474 2.308 . S
Tb431 C495 2.802 . S
N432 C428 1.361 . S
N432 Tb431 2.572 . S
N432 C434 1.340 . S
C433 C427 1.416 . S
C433 C435 1.332 . S
C433 H441 0.931 . S
C434 N432 1.340 . S
C434 C435 1.407 . S
C434 H440 0.930 . S
C435 C433 1.332 . S
C435 C434 1.407 . S
C435 H437 0.929 . S
H436 C425 0.930 . S
H437 C435 0.929 . S
H438 C453 0.930 . S
H439 C460 0.929 . S
H440 C434 0.930 . S
H441 C433 0.931 . S
H442 C456 0.930 . S
H443 C423 0.930 . S
H444 C429 0.929 . S
H445 C430 0.930 . S
H446 C451 0.930 . S
H447 C426 0.930 . S
H448 C459 0.931 . S
N449 Tb420 2.617 . S
N449 C450 1.379 . S
N449 C453 1.334 . S
C450 N449 1.379 . S
C450 C452 1.416 . S
C450 C458 1.424 . S
C451 H446 0.930 . S
C451 C453 1.390 . S
C451 C454 1.339 . S
C452 C450 1.416 . S
C452 C454 1.416 . S
C452 C485 1.448 . S
C453 H438 0.930 . S
C453 N449 1.334 . S
C453 C451 1.390 . S
C454 C451 1.339 . S
C454 C452 1.416 . S
C454 H461 0.930 . S
N455 Tb420 2.572 . S
N455 C456 1.340 . S
N455 C458 1.361 . S
C456 H442 0.930 . S
C456 N455 1.340 . S
C456 C460 1.407 . S
C457 C458 1.413 . S
C457 C459 1.416 . S
C457 C486 1.427 . S
C458 C450 1.424 . S
C458 N455 1.361 . S
C458 C457 1.413 . S
C459 H448 0.931 . S
C459 C457 1.416 . S
C459 C460 1.332 . S
C460 H439 0.929 . S
C460 C456 1.407 . S
C460 C459 1.332 . S
H461 C454 0.930 . S
H462 C485 0.930 . S
H463 C486 0.929 . S
O464 Tb420 2.465 . S
O464 C484 1.264 . S
O465 Tb420 2.387 . S
O465 C476 1.264 . S
O466 Tb431 2.349 . S
O466 C476 1.243 . S
O467 Tb420 2.428 . S
O467 C484 1.256 . S
O468 Tb420 2.308 . S
O468 C483 1.266 . S
O469 Tb431 2.393 . S
O469 C483 1.248 . S
O470 Tb431 2.465 . S
O470 C495 1.264 . S
O471 Tb431 2.387 . S
O471 C487 1.264 . S
O472 Tb420 2.349 . S
O472 C487 1.243 . S
O473 Tb431 2.428 . S
O473 C495 1.256 . S
O474 Tb431 2.308 . S
O474 C494 1.266 . S
O475 Tb420 2.393 . S
O475 C494 1.248 . S
C476 O465 1.264 . S
C476 O466 1.243 . S
C477 C480 1.399 . S
C477 C482 1.383 . S
C477 C484 1.496 . S
C478 C479 1.399 . S
C478 C482 1.389 . S
C479 C478 1.399 . S
C479 C481 1.380 . S
C479 H496 0.929 . S
C480 C477 1.399 . S
C480 C481 1.392 . S
C480 H497 0.929 . S
C481 C479 1.380 . S
C481 C480 1.392 . S
C481 H498 0.929 . S
C482 C477 1.383 . S
C482 C478 1.389 . S
C482 H499 0.931 . S
C483 O468 1.266 . S
C483 O469 1.248 . S
C484 Tb420 2.802 . S
C484 O464 1.264 . S
C484 O467 1.256 . S
C484 C477 1.496 . S
C485 C452 1.448 . S
C485 H462 0.930 . S
C485 C486 1.328 . S
C486 C457 1.427 . S
C486 H463 0.929 . S
C486 C485 1.328 . S
C487 O471 1.264 . S
C487 O472 1.243 . S
C488 C491 1.399 . S
C488 C492 1.383 . S
C488 C495 1.496 . S
C489 C490 1.399 . S
C489 C492 1.389 . S
C490 C489 1.399 . S
C490 C493 1.380 . S
C490 H500 0.929 . S
C491 C488 1.399 . S
C491 C493 1.392 . S
C491 H501 0.929 . S
C492 C488 1.383 . S
C492 C489 1.389 . S
C492 H502 0.931 . S
C493 C490 1.380 . S
C493 C491 1.392 . S
C493 H503 0.929 . S
C494 O474 1.266 . S
C494 O475 1.248 . S
C495 Tb431 2.802 . S
C495 O470 1.264 . S
C495 O473 1.256 . S
C495 C488 1.496 . S
H496 C479 0.929 . S
H497 C480 0.929 . S
H498 C481 0.929 . S
H499 C482 0.931 . S
H500 C490 0.929 . S
H501 C491 0.929 . S
H502 C492 0.931 . S
H503 C493 0.929 . S
Tb504 N533 2.617 . S
Tb504 N539 2.572 . S
Tb504 O548 2.465 . S
Tb504 O549 2.387 . S
Tb504 O551 2.428 . S
Tb504 O552 2.308 . S
Tb504 O556 2.349 . S
Tb504 O559 2.393 . S
Tb504 C568 2.802 . S
C505 N506 1.379 . S
C505 C508 1.416 . S
C505 C512 1.424 . S
N506 C505 1.379 . S
N506 C509 1.334 . S
N506 Tb515 2.617 . S
C507 C509 1.390 . S
C507 C510 1.339 . S
C507 H527 0.930 . S
C508 C505 1.416 . S
C508 C510 1.416 . S
C508 C514 1.448 . S
C509 N506 1.334 . S
C509 C507 1.390 . S
C509 H520 0.930 . S
C510 C507 1.339 . S
C510 C508 1.416 . S
C510 H531 0.930 . S
C511 C512 1.413 . S
C511 C513 1.427 . S
C511 C517 1.416 . S
C512 C505 1.424 . S
C512 C511 1.413 . S
C512 N516 1.361 . S
C513 C511 1.427 . S
C513 C514 1.328 . S
C513 H528 0.929 . S
C514 C508 1.448 . S
C514 C513 1.328 . S
C514 H529 0.930 . S
Tb515 N506 2.617 . S
Tb515 N516 2.572 . S
Tb515 O550 2.349 . S
Tb515 O553 2.393 . S
Tb515 O554 2.465 . S
Tb515 O555 2.387 . S
Tb515 O557 2.428 . S
Tb515 O558 2.308 . S
Tb515 C579 2.802 . S
N516 C512 1.361 . S
N516 Tb515 2.572 . S
N516 C518 1.340 . S
C517 C511 1.416 . S
C517 C519 1.332 . S
C517 H525 0.931 . S
C518 N516 1.340 . S
C518 C519 1.407 . S
C518 H524 0.930 . S
C519 C517 1.332 . S
C519 C518 1.407 . S
C519 H521 0.929 . S
H520 C509 0.930 . S
H521 C519 0.929 . S
H522 C537 0.930 . S
H523 C544 0.929 . S
H524 C518 0.930 . S
H525 C517 0.931 . S
H526 C540 0.930 . S
H527 C507 0.930 . S
H528 C513 0.929 . S
H529 C514 0.930 . S
H530 C535 0.930 . S
H531 C510 0.930 . S
H532 C543 0.931 . S
N533 Tb504 2.617 . S
N533 C534 1.379 . S
N533 C537 1.334 . S
C534 N533 1.379 . S
C534 C536 1.416 . S
C534 C542 1.424 . S
C535 H530 0.930 . S
C535 C537 1.390 . S
C535 C538 1.339 . S
C536 C534 1.416 . S
C536 C538 1.416 . S
C536 C569 1.448 . S
C537 H522 0.930 . S
C537 N533 1.334 . S
C537 C535 1.390 . S
C538 C535 1.339 . S
C538 C536 1.416 . S
C538 H545 0.930 . S
N539 Tb504 2.572 . S
N539 C540 1.340 . S
N539 C542 1.361 . S
C540 H526 0.930 . S
C540 N539 1.340 . S
C540 C544 1.407 . S
C541 C542 1.413 . S
C541 C543 1.416 . S
C541 C570 1.427 . S
C542 C534 1.424 . S
C542 N539 1.361 . S
C542 C541 1.413 . S
C543 H532 0.931 . S
C543 C541 1.416 . S
C543 C544 1.332 . S
C544 H523 0.929 . S
C544 C540 1.407 . S
C544 C543 1.332 . S
H545 C538 0.930 . S
H546 C569 0.930 . S
H547 C570 0.929 . S
O548 Tb504 2.465 . S
O548 C568 1.264 . S
O549 Tb504 2.387 . S
O549 C560 1.264 . S
O550 Tb515 2.349 . S
O550 C560 1.243 . S
O551 Tb504 2.428 . S
O551 C568 1.256 . S
O552 Tb504 2.308 . S
O552 C567 1.266 . S
O553 Tb515 2.393 . S
O553 C567 1.248 . S
O554 Tb515 2.465 . S
O554 C579 1.264 . S
O555 Tb515 2.387 . S
O555 C571 1.264 . S
O556 Tb504 2.349 . S
O556 C571 1.243 . S
O557 Tb515 2.428 . S
O557 C579 1.256 . S
O558 Tb515 2.308 . S
O558 C578 1.266 . S
O559 Tb504 2.393 . S
O559 C578 1.248 . S
C560 O549 1.264 . S
C560 O550 1.243 . S
C561 C564 1.399 . S
C561 C566 1.383 . S
C561 C568 1.496 . S
C562 C563 1.399 . S
C562 C566 1.389 . S
C563 C562 1.399 . S
C563 C565 1.380 . S
C563 H580 0.929 . S
C564 C561 1.399 . S
C564 C565 1.392 . S
C564 H581 0.929 . S
C565 C563 1.380 . S
C565 C564 1.392 . S
C565 H582 0.929 . S
C566 C561 1.383 . S
C566 C562 1.389 . S
C566 H583 0.931 . S
C567 O552 1.266 . S
C567 O553 1.248 . S
C568 Tb504 2.802 . S
C568 O548 1.264 . S
C568 O551 1.256 . S
C568 C561 1.496 . S
C569 C536 1.448 . S
C569 H546 0.930 . S
C569 C570 1.328 . S
C570 C541 1.427 . S
C570 H547 0.929 . S
C570 C569 1.328 . S
C571 O555 1.264 . S
C571 O556 1.243 . S
C572 C575 1.399 . S
C572 C576 1.383 . S
C572 C579 1.496 . S
C573 C574 1.399 . S
C573 C576 1.389 . S
C574 C573 1.399 . S
C574 C577 1.380 . S
C574 H584 0.929 . S
C575 C572 1.399 . S
C575 C577 1.392 . S
C575 H585 0.929 . S
C576 C572 1.383 . S
C576 C573 1.389 . S
C576 H586 0.931 . S
C577 C574 1.380 . S
C577 C575 1.392 . S
C577 H587 0.929 . S
C578 O558 1.266 . S
C578 O559 1.248 . S
C579 Tb515 2.802 . S
C579 O554 1.264 . S
C579 O557 1.256 . S
C579 C572 1.496 . S
H580 C563 0.929 . S
H581 C564 0.929 . S
H582 C565 0.929 . S
H583 C566 0.931 . S
H584 C574 0.929 . S
H585 C575 0.929 . S
H586 C576 0.931 . S
H587 C577 0.929 . S
Tb588 N617 2.617 . S
Tb588 N623 2.572 . S
Tb588 O632 2.465 . S
Tb588 O633 2.387 . S
Tb588 O635 2.428 . S
Tb588 O636 2.308 . S
Tb588 O640 2.349 . S
Tb588 O643 2.393 . S
Tb588 C652 2.802 . S
C589 N590 1.379 . S
C589 C592 1.416 . S
C589 C596 1.424 . S
N590 C589 1.379 . S
N590 C593 1.334 . S
N590 Tb599 2.617 . S
C591 C593 1.390 . S
C591 C594 1.339 . S
C591 H611 0.930 . S
C592 C589 1.416 . S
C592 C594 1.416 . S
C592 C598 1.448 . S
C593 N590 1.334 . S
C593 C591 1.390 . S
C593 H604 0.930 . S
C594 C591 1.339 . S
C594 C592 1.416 . S
C594 H615 0.930 . S
C595 C596 1.413 . S
C595 C597 1.427 . S
C595 C601 1.416 . S
C596 C589 1.424 . S
C596 C595 1.413 . S
C596 N600 1.361 . S
C597 C595 1.427 . S
C597 C598 1.328 . S
C597 H612 0.929 . S
C598 C592 1.448 . S
C598 C597 1.328 . S
C598 H613 0.930 . S
Tb599 N590 2.617 . S
Tb599 N600 2.572 . S
Tb599 O634 2.349 . S
Tb599 O637 2.393 . S
Tb599 O638 2.465 . S
Tb599 O639 2.387 . S
Tb599 O641 2.428 . S
Tb599 O642 2.308 . S
Tb599 C663 2.802 . S
N600 C596 1.361 . S
N600 Tb599 2.572 . S
N600 C602 1.340 . S
C601 C595 1.416 . S
C601 C603 1.332 . S
C601 H609 0.931 . S
C602 N600 1.340 . S
C602 C603 1.407 . S
C602 H608 0.930 . S
C603 C601 1.332 . S
C603 C602 1.407 . S
C603 H605 0.929 . S
H604 C593 0.930 . S
H605 C603 0.929 . S
H606 C621 0.930 . S
H607 C628 0.929 . S
H608 C602 0.930 . S
H609 C601 0.931 . S
H610 C624 0.930 . S
H611 C591 0.930 . S
H612 C597 0.929 . S
H613 C598 0.930 . S
H614 C619 0.930 . S
H615 C594 0.930 . S
H616 C627 0.931 . S
N617 Tb588 2.617 . S
N617 C618 1.379 . S
N617 C621 1.334 . S
C618 N617 1.379 . S
C618 C620 1.416 . S
C618 C626 1.424 . S
C619 H614 0.930 . S
C619 C621 1.390 . S
C619 C622 1.339 . S
C620 C618 1.416 . S
C620 C622 1.416 . S
C620 C653 1.448 . S
C621 H606 0.930 . S
C621 N617 1.334 . S
C621 C619 1.390 . S
C622 C619 1.339 . S
C622 C620 1.416 . S
C622 H629 0.930 . S
N623 Tb588 2.572 . S
N623 C624 1.340 . S
N623 C626 1.361 . S
C624 H610 0.930 . S
C624 N623 1.340 . S
C624 C628 1.407 . S
C625 C626 1.413 . S
C625 C627 1.416 . S
C625 C654 1.427 . S
C626 C618 1.424 . S
C626 N623 1.361 . S
C626 C625 1.413 . S
C627 H616 0.931 . S
C627 C625 1.416 . S
C627 C628 1.332 . S
C628 H607 0.929 . S
C628 C624 1.407 . S
C628 C627 1.332 . S
H629 C622 0.930 . S
H630 C653 0.930 . S
H631 C654 0.929 . S
O632 Tb588 2.465 . S
O632 C652 1.264 . S
O633 Tb588 2.387 . S
O633 C644 1.264 . S
O634 Tb599 2.349 . S
O634 C644 1.243 . S
O635 Tb588 2.428 . S
O635 C652 1.256 . S
O636 Tb588 2.308 . S
O636 C651 1.266 . S
O637 Tb599 2.393 . S
O637 C651 1.248 . S
O638 Tb599 2.465 . S
O638 C663 1.264 . S
O639 Tb599 2.387 . S
O639 C655 1.264 . S
O640 Tb588 2.349 . S
O640 C655 1.243 . S
O641 Tb599 2.428 . S
O641 C663 1.256 . S
O642 Tb599 2.308 . S
O642 C662 1.266 . S
O643 Tb588 2.393 . S
O643 C662 1.248 . S
C644 O633 1.264 . S
C644 O634 1.243 . S
C645 C648 1.399 . S
C645 C650 1.383 . S
C645 C652 1.496 . S
C646 C647 1.399 . S
C646 C650 1.389 . S
C647 C646 1.399 . S
C647 C649 1.380 . S
C647 H664 0.929 . S
C648 C645 1.399 . S
C648 C649 1.392 . S
C648 H665 0.929 . S
C649 C647 1.380 . S
C649 C648 1.392 . S
C649 H666 0.929 . S
C650 C645 1.383 . S
C650 C646 1.389 . S
C650 H667 0.931 . S
C651 O636 1.266 . S
C651 O637 1.248 . S
C652 Tb588 2.802 . S
C652 O632 1.264 . S
C652 O635 1.256 . S
C652 C645 1.496 . S
C653 C620 1.448 . S
C653 H630 0.930 . S
C653 C654 1.328 . S
C654 C625 1.427 . S
C654 H631 0.929 . S
C654 C653 1.328 . S
C655 O639 1.264 . S
C655 O640 1.243 . S
C656 C659 1.399 . S
C656 C660 1.383 . S
C656 C663 1.496 . S
C657 C658 1.399 . S
C657 C660 1.389 . S
C658 C657 1.399 . S
C658 C661 1.380 . S
C658 H668 0.929 . S
C659 C656 1.399 . S
C659 C661 1.392 . S
C659 H669 0.929 . S
C660 C656 1.383 . S
C660 C657 1.389 . S
C660 H670 0.931 . S
C661 C658 1.380 . S
C661 C659 1.392 . S
C661 H671 0.929 . S
C662 O642 1.266 . S
C662 O643 1.248 . S
C663 Tb599 2.802 . S
C663 O638 1.264 . S
C663 O641 1.256 . S
C663 C656 1.496 . S
H664 C647 0.929 . S
H665 C648 0.929 . S
H666 C649 0.929 . S
H667 C650 0.931 . S
H668 C658 0.929 . S
H669 C659 0.929 . S
H670 C660 0.931 . S
H671 C661 0.929 . S
Cd672 N675 2.334 1_655 S
Cd672 N701 2.304 1_565 S
Cd672 O708 2.268 . S
Cd672 O711 2.273 1_665 S
Cd672 O712 2.417 . S
Cd672 O713 2.330 . S
Cd673 N688 2.304 1_455 S
Cd673 N692 2.334 1_545 S
Cd673 O709 2.273 1_445 S
Cd673 O710 2.268 . S
Cd673 O714 2.417 . S
Cd673 O715 2.330 . S
C674 N675 1.332 . S
C674 C678 1.381 . S
C674 H680 0.931 . S
N675 Cd672 2.334 1_455 S
N675 C674 1.332 . S
N675 C679 1.328 . S
C676 C677 1.396 . S
C676 C679 1.378 . S
C676 H718 0.931 . S
C677 C676 1.396 . S
C677 C678 1.382 . S
C678 C674 1.381 . S
C678 C677 1.382 . S
C678 H719 0.930 . S
C679 N675 1.328 . S
C679 C676 1.378 . S
C679 H681 0.930 1_455 S
H680 C674 0.931 . S
H681 C679 0.930 1_655 S
C682 O708 1.238 . S
C682 O709 1.253 . S
C683 C684 1.379 . S
C683 N688 1.337 . S
C683 H689 0.929 . S
C684 C683 1.379 . S
C684 C685 1.380 . S
C684 H720 0.929 . S
C685 C684 1.380 . S
C685 C686 1.399 . S
C686 C685 1.399 . S
C686 C687 1.376 . S
C686 H721 0.931 . S
C687 C686 1.376 . S
C687 N688 1.338 . S
C687 H690 0.930 1_655 S
N688 Cd673 2.304 1_655 S
N688 C683 1.337 . S
N688 C687 1.338 . S
H689 C683 0.929 . S
H690 C687 0.930 1_455 S
C691 N692 1.332 . S
C691 C695 1.381 . S
C691 H697 0.931 . S
N692 Cd673 2.334 1_565 S
N692 C691 1.332 . S
N692 C696 1.328 . S
C693 C694 1.396 . S
C693 C696 1.378 . S
C693 H722 0.931 . S
C694 C693 1.396 . S
C694 C695 1.382 . S
C695 C691 1.381 . S
C695 C694 1.382 . S
C695 H723 0.930 . S
C696 N692 1.328 . S
C696 C693 1.378 . S
C696 H698 0.930 1_565 S
H697 C691 0.931 . S
H698 C696 0.930 1_545 S
C699 O710 1.238 . S
C699 O711 1.253 . S
C700 O712 1.239 . S
C700 O713 1.230 . S
N701 Cd672 2.304 1_545 S
N701 C702 1.337 . S
N701 C706 1.338 . S
C702 N701 1.337 . S
C702 C703 1.379 . S
C702 H716 0.929 . S
C703 C702 1.379 . S
C703 C704 1.380 . S
C703 H724 0.929 . S
C704 C703 1.380 . S
C704 C705 1.399 . S
C705 C704 1.399 . S
C705 C706 1.376 . S
C705 H725 0.931 . S
C706 N701 1.338 . S
C706 C705 1.376 . S
C706 H717 0.930 1_545 S
C707 O714 1.239 . S
C707 O715 1.230 . S
O708 Cd672 2.268 . S
O708 C682 1.238 . S
O709 Cd673 2.273 1_665 S
O709 C682 1.253 . S
O710 Cd673 2.268 . S
O710 C699 1.238 . S
O711 Cd672 2.273 1_445 S
O711 C699 1.253 . S
O712 Cd672 2.417 . S
O712 C700 1.239 . S
O713 Cd672 2.330 . S
O713 C700 1.230 . S
O714 Cd673 2.417 . S
O714 C707 1.239 . S
O715 Cd673 2.330 . S
O715 C707 1.230 . S
H716 C702 0.929 . S
H717 C706 0.930 1_565 S
H718 C676 0.931 . S
H719 C678 0.930 . S
H720 C684 0.929 . S
H721 C686 0.931 . S
H722 C693 0.931 . S
H723 C695 0.930 . S
H724 C703 0.929 . S
H725 C705 0.931 . S
Cd726 N729 2.334 . S
Cd726 N755 2.304 1_565 S
Cd726 O762 2.268 1_554 S
Cd726 O765 2.273 1_565 S
Cd726 O766 2.417 . S
Cd726 O767 2.330 . S
Cd727 N742 2.304 . S
Cd727 N746 2.334 1_545 S
Cd727 O763 2.273 1_545 S
Cd727 O764 2.268 1_556 S
Cd727 O768 2.417 . S
Cd727 O769 2.330 . S
C728 N729 1.332 . S
C728 C732 1.381 . S
C728 H734 0.931 . S
N729 Cd726 2.334 . S
N729 C728 1.332 . S
N729 C733 1.328 . S
C730 C731 1.396 . S
C730 C733 1.378 . S
C730 H772 0.931 1_554 S
C731 C730 1.396 . S
C731 C732 1.382 . S
C732 C728 1.381 . S
C732 C731 1.382 . S
C732 H773 0.930 . S
C733 N729 1.328 . S
C733 C730 1.378 . S
C733 H735 0.930 1_554 S
H734 C728 0.931 . S
H735 C733 0.930 1_556 S
C736 O762 1.238 . S
C736 O763 1.253 . S
C737 C738 1.379 . S
C737 N742 1.337 . S
C737 H743 0.929 . S
C738 C737 1.379 . S
C738 C739 1.380 . S
C738 H774 0.929 . S
C739 C738 1.380 . S
C739 C740 1.399 . S
C740 C739 1.399 . S
C740 C741 1.376 . S
C740 H775 0.931 1_556 S
C741 C740 1.376 . S
C741 N742 1.338 . S
C741 H744 0.930 1_556 S
N742 Cd727 2.304 . S
N742 C737 1.337 . S
N742 C741 1.338 . S
H743 C737 0.929 . S
H744 C741 0.930 1_554 S
C745 N746 1.332 . S
C745 C749 1.381 . S
C745 H751 0.931 . S
N746 Cd727 2.334 1_565 S
N746 C745 1.332 . S
N746 C750 1.328 . S
C747 C748 1.396 . S
C747 C750 1.378 . S
C747 H776 0.961 . S
C748 C747 1.396 . S
C748 C749 1.382 . S
C749 C745 1.381 . S
C749 C748 1.382 . S
C749 H777 0.930 . S
C750 N746 1.328 . S
C750 C747 1.378 . S
C750 H752 0.930 1_566 S
H751 C745 0.931 . S
H752 C750 0.930 1_544 S
C753 O764 1.238 . S
C753 O765 1.253 . S
C754 O766 1.239 . S
C754 O767 1.230 . S
N755 Cd726 2.304 1_545 S
N755 C756 1.337 . S
N755 C760 1.338 . S
C756 N755 1.337 . S
C756 C757 1.379 . S
C756 H770 0.929 . S
C757 C756 1.379 . S
C757 C758 1.380 . S
C757 H778 0.929 . S
C758 C757 1.380 . S
C758 C759 1.399 . S
C759 C758 1.399 . S
C759 C760 1.376 . S
C759 H779 0.949 . S
C760 N755 1.338 . S
C760 C759 1.376 . S
C760 H771 0.930 1_544 S
C761 O768 1.239 . S
C761 O769 1.230 . S
O762 Cd726 2.268 1_556 S
O762 C736 1.238 . S
O763 Cd727 2.273 1_565 S
O763 C736 1.253 . S
O764 Cd727 2.268 1_554 S
O764 C753 1.238 . S
O765 Cd726 2.273 1_545 S
O765 C753 1.253 . S
O766 Cd726 2.417 . S
O766 C754 1.239 . S
O767 Cd726 2.330 . S
O767 C754 1.230 . S
O768 Cd727 2.417 . S
O768 C761 1.239 . S
O769 Cd727 2.330 . S
O769 C761 1.230 . S
H770 C756 0.929 . S
H771 C760 0.930 1_566 S
H772 C730 0.931 1_556 S
H773 C732 0.930 . S
H774 C738 0.929 . S
H775 C740 0.931 1_554 S
H776 C747 0.961 . S
H777 C749 0.930 . S
H778 C757 0.929 . S
H779 C759 0.949 . S
Cd780 N783 2.334 1_655 S
Cd780 N809 2.304 . S
Cd780 O816 2.268 1_554 S
Cd780 O819 2.273 1_655 S
Cd780 O820 2.417 . S
Cd780 O821 2.330 . S
Cd781 N796 2.304 1_455 S
Cd781 N800 2.334 . S
Cd781 O817 2.273 1_455 S
Cd781 O818 2.268 1_556 S
Cd781 O822 2.417 . S
Cd781 O823 2.330 . S
C782 N783 1.332 . S
C782 C786 1.381 . S
C782 H788 0.931 . S
N783 Cd780 2.334 1_455 S
N783 C782 1.332 . S
N783 C787 1.328 . S
C784 C785 1.396 . S
C784 C787 1.378 . S
C784 H826 0.931 1_554 S
C785 C784 1.396 . S
C785 C786 1.382 . S
C786 C782 1.381 . S
C786 C785 1.382 . S
C786 H827 0.930 . S
C787 N783 1.328 . S
C787 C784 1.378 . S
C787 H789 0.930 1_454 S
H788 C782 0.931 . S
H789 C787 0.930 1_656 S
C790 O816 1.238 . S
C790 O817 1.253 . S
C791 C792 1.379 . S
C791 N796 1.337 . S
C791 H797 0.929 . S
C792 C791 1.379 . S
C792 C793 1.380 . S
C792 H828 0.929 . S
C793 C792 1.380 . S
C793 C794 1.399 . S
C794 C793 1.399 . S
C794 C795 1.376 . S
C794 H829 0.931 1_556 S
C795 C794 1.376 . S
C795 N796 1.338 . S
C795 H798 0.930 1_656 S
N796 Cd781 2.304 1_655 S
N796 C791 1.337 . S
N796 C795 1.338 . S
H797 C791 0.929 . S
H798 C795 0.930 1_454 S
C799 N800 1.332 . S
C799 C803 1.381 . S
C799 H805 0.931 . S
N800 Cd781 2.334 . S
N800 C799 1.332 . S
N800 C804 1.328 . S
C801 C802 1.396 . S
C801 C804 1.378 . S
C801 H830 0.961 . S
C802 C801 1.396 . S
C802 C803 1.382 . S
C803 C799 1.381 . S
C803 C802 1.382 . S
C803 H831 0.930 . S
C804 N800 1.328 . S
C804 C801 1.378 . S
C804 H806 0.930 1_556 S
H805 C799 0.931 . S
H806 C804 0.930 1_554 S
C807 O818 1.238 . S
C807 O819 1.253 . S
C808 O820 1.239 . S
C808 O821 1.230 . S
N809 Cd780 2.304 . S
N809 C810 1.337 . S
N809 C814 1.338 . S
C810 N809 1.337 . S
C810 C811 1.379 . S
C810 H824 0.929 . S
C811 C810 1.379 . S
C811 C812 1.380 . S
C811 H832 0.929 . S
C812 C811 1.380 . S
C812 C813 1.399 . S
C813 C812 1.399 . S
C813 C814 1.376 . S
C813 H833 0.949 . S
C814 N809 1.338 . S
C814 C813 1.376 . S
C814 H825 0.930 1_554 S
C815 O822 1.239 . S
C815 O823 1.230 . S
O816 Cd780 2.268 1_556 S
O816 C790 1.238 . S
O817 Cd781 2.273 1_655 S
O817 C790 1.253 . S
O818 Cd781 2.268 1_554 S
O818 C807 1.238 . S
O819 Cd780 2.273 1_455 S
O819 C807 1.253 . S
O820 Cd780 2.417 . S
O820 C808 1.239 . S
O821 Cd780 2.330 . S
O821 C808 1.230 . S
O822 Cd781 2.417 . S
O822 C815 1.239 . S
O823 Cd781 2.330 . S
O823 C815 1.230 . S
H824 C810 0.929 . S
H825 C814 0.930 1_556 S
H826 C784 0.931 1_556 S
H827 C786 0.930 . S
H828 C792 0.929 . S
H829 C794 0.931 1_554 S
H830 C801 0.961 . S
H831 C803 0.930 . S
H832 C811 0.929 . S
H833 C813 0.949 . S
Cd834 N837 2.334 . S
Cd834 N863 2.304 . S
Cd834 O870 2.268 1_554 S
Cd834 O873 2.273 . S
Cd834 O874 2.417 . S
Cd834 O875 2.330 . S
Cd835 N850 2.304 . S
Cd835 N854 2.334 . S
Cd835 O871 2.273 . S
Cd835 O872 2.268 1_556 S
Cd835 O876 2.417 . S
Cd835 O877 2.330 . S
C836 N837 1.332 . S
C836 C840 1.381 . S
C836 H842 0.931 . S
N837 Cd834 2.334 . S
N837 C836 1.332 . S
N837 C841 1.328 . S
C838 C839 1.396 . S
C838 C841 1.378 . S
C838 H880 0.931 1_554 S
C839 C838 1.396 . S
C839 C840 1.382 . S
C840 C836 1.381 . S
C840 C839 1.382 . S
C840 H881 0.930 . S
C841 N837 1.328 . S
C841 C838 1.378 . S
C841 H843 0.930 1_554 S
H842 C836 0.931 . S
H843 C841 0.930 1_556 S
C844 O870 1.238 . S
C844 O871 1.253 . S
C845 C846 1.379 . S
C845 N850 1.337 . S
C845 H851 0.929 . S
C846 C845 1.379 . S
C846 C847 1.380 . S
C846 H882 0.929 . S
C847 C846 1.380 . S
C847 C848 1.399 . S
C848 C847 1.399 . S
C848 C849 1.376 . S
C848 H883 0.931 1_556 S
C849 C848 1.376 . S
C849 N850 1.338 . S
C849 H852 0.930 1_556 S
N850 Cd835 2.304 . S
N850 C845 1.337 . S
N850 C849 1.338 . S
H851 C845 0.929 . S
H852 C849 0.930 1_554 S
C853 N854 1.332 . S
C853 C857 1.381 . S
C853 H859 0.931 . S
N854 Cd835 2.334 . S
N854 C853 1.332 . S
N854 C858 1.328 . S
C855 C856 1.396 . S
C855 C858 1.378 . S
C855 H884 0.961 . S
C856 C855 1.396 . S
C856 C857 1.382 . S
C857 C853 1.381 . S
C857 C856 1.382 . S
C857 H885 0.930 . S
C858 N854 1.328 . S
C858 C855 1.378 . S
C858 H860 0.930 1_556 S
H859 C853 0.931 . S
H860 C858 0.930 1_554 S
C861 O872 1.238 . S
C861 O873 1.253 . S
C862 O874 1.239 . S
C862 O875 1.230 . S
N863 Cd834 2.304 . S
N863 C864 1.337 . S
N863 C868 1.338 . S
C864 N863 1.337 . S
C864 C865 1.379 . S
C864 H878 0.929 . S
C865 C864 1.379 . S
C865 C866 1.380 . S
C865 H886 0.929 . S
C866 C865 1.380 . S
C866 C867 1.399 . S
C867 C866 1.399 . S
C867 C868 1.376 . S
C867 H887 0.950 . S
C868 N863 1.338 . S
C868 C867 1.376 . S
C868 H879 0.930 1_554 S
C869 O876 1.239 . S
C869 O877 1.230 . S
O870 Cd834 2.268 1_556 S
O870 C844 1.238 . S
O871 Cd835 2.273 . S
O871 C844 1.253 . S
O872 Cd835 2.268 1_554 S
O872 C861 1.238 . S
O873 Cd834 2.273 . S
O873 C861 1.253 . S
O874 Cd834 2.417 . S
O874 C862 1.239 . S
O875 Cd834 2.330 . S
O875 C862 1.230 . S
O876 Cd835 2.417 . S
O876 C869 1.239 . S
O877 Cd835 2.330 . S
O877 C869 1.230 . S
H878 C864 0.929 . S
H879 C868 0.930 1_556 S
H880 C838 0.931 1_556 S
H881 C840 0.930 . S
H882 C846 0.929 . S
H883 C848 0.931 1_554 S
H884 C855 0.961 . S
H885 C857 0.930 . S
H886 C865 0.929 . S
H887 C867 0.950 . S
Cd888 N891 2.334 1_655 S
Cd888 N917 2.304 . S
Cd888 O924 2.268 . S
Cd888 O927 2.273 1_655 S
Cd888 O928 2.417 . S
Cd888 O929 2.330 . S
Cd889 N904 2.304 1_455 S
Cd889 N908 2.334 . S
Cd889 O925 2.273 1_455 S
Cd889 O926 2.268 . S
Cd889 O930 2.417 . S
Cd889 O931 2.330 . S
C890 N891 1.332 . S
C890 C894 1.381 . S
C890 H896 0.931 . S
N891 Cd888 2.334 1_455 S
N891 C890 1.332 . S
N891 C895 1.328 . S
C892 C893 1.396 . S
C892 C895 1.378 . S
C892 H934 0.931 . S
C893 C892 1.396 . S
C893 C894 1.382 . S
C894 C890 1.381 . S
C894 C893 1.382 . S
C894 H935 0.930 . S
C895 N891 1.328 . S
C895 C892 1.378 . S
C895 H897 0.930 1_455 S
H896 C890 0.931 . S
H897 C895 0.930 1_655 S
C898 O924 1.238 . S
C898 O925 1.253 . S
C899 C900 1.379 . S
C899 N904 1.337 . S
C899 H905 0.929 . S
C900 C899 1.379 . S
C900 C901 1.380 . S
C900 H936 0.929 . S
C901 C900 1.380 . S
C901 C902 1.399 . S
C902 C901 1.399 . S
C902 C903 1.376 . S
C902 H937 0.931 . S
C903 C902 1.376 . S
C903 N904 1.338 . S
C903 H906 0.930 1_655 S
N904 Cd889 2.304 1_655 S
N904 C899 1.337 . S
N904 C903 1.338 . S
H905 C899 0.929 . S
H906 C903 0.930 1_455 S
C907 N908 1.332 . S
C907 C911 1.381 . S
C907 H913 0.931 . S
N908 Cd889 2.334 . S
N908 C907 1.332 . S
N908 C912 1.328 . S
C909 C910 1.396 . S
C909 C912 1.378 . S
C909 H938 0.931 . S
C910 C909 1.396 . S
C910 C911 1.382 . S
C911 C907 1.381 . S
C911 C910 1.382 . S
C911 H939 0.930 . S
C912 N908 1.328 . S
C912 C909 1.378 . S
C912 H914 0.930 . S
H913 C907 0.931 . S
H914 C912 0.930 . S
C915 O926 1.238 . S
C915 O927 1.253 . S
C916 O928 1.239 . S
C916 O929 1.230 . S
N917 Cd888 2.304 . S
N917 C918 1.337 . S
N917 C922 1.338 . S
C918 N917 1.337 . S
C918 C919 1.379 . S
C918 H932 0.929 . S
C919 C918 1.379 . S
C919 C920 1.380 . S
C919 H940 0.929 . S
C920 C919 1.380 . S
C920 C921 1.399 . S
C921 C920 1.399 . S
C921 C922 1.376 . S
C921 H941 0.931 . S
C922 N917 1.338 . S
C922 C921 1.376 . S
C922 H933 0.930 . S
C923 O930 1.239 . S
C923 O931 1.230 . S
O924 Cd888 2.268 . S
O924 C898 1.238 . S
O925 Cd889 2.273 1_655 S
O925 C898 1.253 . S
O926 Cd889 2.268 . S
O926 C915 1.238 . S
O927 Cd888 2.273 1_455 S
O927 C915 1.253 . S
O928 Cd888 2.417 . S
O928 C916 1.239 . S
O929 Cd888 2.330 . S
O929 C916 1.230 . S
O930 Cd889 2.417 . S
O930 C923 1.239 . S
O931 Cd889 2.330 . S
O931 C923 1.230 . S
H932 C918 0.929 . S
H933 C922 0.930 . S
H934 C892 0.931 . S
H935 C894 0.930 . S
H936 C900 0.929 . S
H937 C902 0.931 . S
H938 C909 0.931 . S
H939 C911 0.930 . S
H940 C919 0.929 . S
H941 C921 0.931 . S
Cd942 N945 2.334 . S
Cd942 N971 2.304 1_565 S
Cd942 O978 2.268 . S
Cd942 O981 2.273 1_565 S
Cd942 O982 2.417 . S
Cd942 O983 2.330 . S
Cd943 N958 2.304 . S
Cd943 N962 2.334 1_545 S
Cd943 O979 2.273 1_545 S
Cd943 O980 2.268 . S
Cd943 O984 2.417 . S
Cd943 O985 2.330 . S
C944 N945 1.332 . S
C944 C948 1.381 . S
C944 H950 0.931 . S
N945 Cd942 2.334 . S
N945 C944 1.332 . S
N945 C949 1.328 . S
C946 C947 1.396 . S
C946 C949 1.378 . S
C946 H988 0.931 . S
C947 C946 1.396 . S
C947 C948 1.382 . S
C948 C944 1.381 . S
C948 C947 1.382 . S
C948 H989 0.930 . S
C949 N945 1.328 . S
C949 C946 1.378 . S
C949 H951 0.930 . S
H950 C944 0.931 . S
H951 C949 0.930 . S
C952 O978 1.238 . S
C952 O979 1.253 . S
C953 C954 1.379 . S
C953 N958 1.337 . S
C953 H959 0.929 . S
C954 C953 1.379 . S
C954 C955 1.380 . S
C954 H990 0.929 . S
C955 C954 1.380 . S
C955 C956 1.399 . S
C956 C955 1.399 . S
C956 C957 1.376 . S
C956 H991 0.931 . S
C957 C956 1.376 . S
C957 N958 1.338 . S
C957 H960 0.930 . S
N958 Cd943 2.304 . S
N958 C953 1.337 . S
N958 C957 1.338 . S
H959 C953 0.929 . S
H960 C957 0.930 . S
C961 N962 1.332 . S
C961 C965 1.381 . S
C961 H967 0.931 . S
N962 Cd943 2.334 1_565 S
N962 C961 1.332 . S
N962 C966 1.328 . S
C963 C964 1.396 . S
C963 C966 1.378 . S
C963 H992 0.931 . S
C964 C963 1.396 . S
C964 C965 1.382 . S
C965 C961 1.381 . S
C965 C964 1.382 . S
C965 H993 0.930 . S
C966 N962 1.328 . S
C966 C963 1.378 . S
C966 H968 0.930 1_565 S
H967 C961 0.931 . S
H968 C966 0.930 1_545 S
C969 O980 1.238 . S
C969 O981 1.253 . S
C970 O982 1.239 . S
C970 O983 1.230 . S
N971 Cd942 2.304 1_545 S
N971 C972 1.337 . S
N971 C976 1.338 . S
C972 N971 1.337 . S
C972 C973 1.379 . S
C972 H986 0.929 . S
C973 C972 1.379 . S
C973 C974 1.380 . S
C973 H994 0.929 . S
C974 C973 1.380 . S
C974 C975 1.399 . S
C975 C974 1.399 . S
C975 C976 1.376 . S
C975 H995 0.931 . S
C976 N971 1.338 . S
C976 C975 1.376 . S
C976 H987 0.930 1_545 S
C977 O984 1.239 . S
C977 O985 1.230 . S
O978 Cd942 2.268 . S
O978 C952 1.238 . S
O979 Cd943 2.273 1_565 S
O979 C952 1.253 . S
O980 Cd943 2.268 . S
O980 C969 1.238 . S
O981 Cd942 2.273 1_545 S
O981 C969 1.253 . S
O982 Cd942 2.417 . S
O982 C970 1.239 . S
O983 Cd942 2.330 . S
O983 C970 1.230 . S
O984 Cd943 2.417 . S
O984 C977 1.239 . S
O985 Cd943 2.330 . S
O985 C977 1.230 . S
H986 C972 0.929 . S
H987 C976 0.930 1_565 S
H988 C946 0.931 . S
H989 C948 0.930 . S
H990 C954 0.929 . S
H991 C956 0.931 . S
H992 C963 0.931 . S
H993 C965 0.930 . S
H994 C973 0.929 . S
H995 C975 0.931 . S
H996 C1004 0.929 . S
H997 C1006 0.930 . S
H998 C1008 0.930 . S
H999 C1011 0.929 . S
H1000 C1014 0.930 . S
H1001 C1016 0.960 . S
H1002 C1016 0.960 . S
H1003 C1016 0.960 . S
C1004 H996 0.929 . S
C1004 C1005 1.377 . S
C1004 C1006 1.384 . S
C1005 C1004 1.377 . S
C1005 C1011 1.390 . S
C1006 H997 0.930 . S
C1006 C1004 1.384 . S
C1006 C1007 1.372 . S
C1007 C1006 1.372 . S
C1007 C1008 1.400 . S
C1007 C1012 1.490 . S
C1008 H998 0.930 . S
C1008 C1007 1.400 . S
C1008 C1011 1.386 . S
H1009 C1025 0.930 . S
H1010 C1026 0.931 . S
C1011 H999 0.929 . S
C1011 C1005 1.390 . S
C1011 C1008 1.386 . S
C1012 C1007 1.490 . S
C1012 C1014 1.395 . S
C1012 C1015 1.403 . S
H1013 C1019 0.930 . S
C1014 H1000 0.930 . S
C1014 C1012 1.395 . S
C1014 C1017 1.403 . S
C1015 C1012 1.403 . S
C1015 C1016 1.524 . S
C1015 C1019 1.400 . S
C1016 H1001 0.960 . S
C1016 H1002 0.960 . S
C1016 H1003 0.960 . S
C1016 C1015 1.524 . S
C1017 C1014 1.403 . S
C1017 C1018 1.392 . S
C1017 C1021 1.495 . S
C1018 C1017 1.392 . S
C1018 C1019 1.385 . S
C1018 C1020 1.478 . S
C1019 H1013 0.930 . S
C1019 C1015 1.400 . S
C1019 C1018 1.385 . S
C1020 C1018 1.478 . S
C1020 C1022 1.381 . S
C1020 C1026 1.383 . S
C1021 C1017 1.495 . S
C1021 H1027 0.959 . S
C1021 H1028 0.961 . S
C1021 H1029 0.960 . S
C1022 C1020 1.381 . S
C1022 C1023 1.394 . S
C1022 H1030 0.930 . S
C1023 C1022 1.394 . S
C1023 C1024 1.383 . S
C1023 H1031 0.929 . S
C1024 C1023 1.383 . S
C1024 C1025 1.377 . S
C1025 H1009 0.930 . S
C1025 C1024 1.377 . S
C1025 C1026 1.379 . S
C1026 H1010 0.931 . S
C1026 C1020 1.383 . S
C1026 C1025 1.379 . S
H1027 C1021 0.959 . S
H1028 C1021 0.961 . S
H1029 C1021 0.960 . S
H1030 C1022 0.930 . S
H1031 C1023 0.929 . S
H1032 C1040 0.929 . S
H1033 C1042 0.930 . S
H1034 C1044 0.930 . S
H1035 C1047 0.929 . S
H1036 C1050 0.930 . S
H1037 C1052 0.960 . S
H1038 C1052 0.960 . S
H1039 C1052 0.960 . S
C1040 H1032 0.929 . S
C1040 C1041 1.377 . S
C1040 C1042 1.384 . S
C1041 C1040 1.377 . S
C1041 C1047 1.390 . S
C1042 H1033 0.930 . S
C1042 C1040 1.384 . S
C1042 C1043 1.372 . S
C1043 C1042 1.372 . S
C1043 C1044 1.400 . S
C1043 C1048 1.490 . S
C1044 H1034 0.930 . S
C1044 C1043 1.400 . S
C1044 C1047 1.386 . S
H1045 C1061 0.930 . S
H1046 C1062 0.931 . S
C1047 H1035 0.929 . S
C1047 C1041 1.390 . S
C1047 C1044 1.386 . S
C1048 C1043 1.490 . S
C1048 C1050 1.395 . S
C1048 C1051 1.403 . S
H1049 C1055 0.930 . S
C1050 H1036 0.930 . S
C1050 C1048 1.395 . S
C1050 C1053 1.403 . S
C1051 C1048 1.403 . S
C1051 C1052 1.524 . S
C1051 C1055 1.400 . S
C1052 H1037 0.960 . S
C1052 H1038 0.960 . S
C1052 H1039 0.960 . S
C1052 C1051 1.524 . S
C1053 C1050 1.403 . S
C1053 C1054 1.392 . S
C1053 C1057 1.495 . S
C1054 C1053 1.392 . S
C1054 C1055 1.385 . S
C1054 C1056 1.478 . S
C1055 H1049 0.930 . S
C1055 C1051 1.400 . S
C1055 C1054 1.385 . S
C1056 C1054 1.478 . S
C1056 C1058 1.381 . S
C1056 C1062 1.383 . S
C1057 C1053 1.495 . S
C1057 H1063 0.959 . S
C1057 H1064 0.961 . S
C1057 H1065 0.960 . S
C1058 C1056 1.381 . S
C1058 C1059 1.394 . S
C1058 H1066 0.930 . S
C1059 C1058 1.394 . S
C1059 C1060 1.383 . S
C1059 H1067 0.929 . S
C1060 C1059 1.383 . S
C1060 C1061 1.377 . S
C1061 H1045 0.930 . S
C1061 C1060 1.377 . S
C1061 C1062 1.379 . S
C1062 H1046 0.931 . S
C1062 C1056 1.383 . S
C1062 C1061 1.379 . S
H1063 C1057 0.959 . S
H1064 C1057 0.961 . S
H1065 C1057 0.960 . S
H1066 C1058 0.930 . S
H1067 C1059 0.929 . S
H1068 C1076 0.929 . S
H1069 C1078 0.930 . S
H1070 C1080 0.930 . S
H1071 C1083 0.929 . S
H1072 C1086 0.930 . S
H1073 C1088 0.960 . S
H1074 C1088 0.960 . S
H1075 C1088 0.960 . S
C1076 H1068 0.929 . S
C1076 C1077 1.377 . S
C1076 C1078 1.384 . S
C1077 C1076 1.377 . S
C1077 C1083 1.390 . S
C1078 H1069 0.930 . S
C1078 C1076 1.384 . S
C1078 C1079 1.372 . S
C1079 C1078 1.372 . S
C1079 C1080 1.400 . S
C1079 C1084 1.490 . S
C1080 H1070 0.930 . S
C1080 C1079 1.400 . S
C1080 C1083 1.386 . S
H1081 C1097 0.930 . S
H1082 C1098 0.931 . S
C1083 H1071 0.929 . S
C1083 C1077 1.390 . S
C1083 C1080 1.386 . S
C1084 C1079 1.490 . S
C1084 C1086 1.395 . S
C1084 C1087 1.403 . S
H1085 C1091 0.930 . S
C1086 H1072 0.930 . S
C1086 C1084 1.395 . S
C1086 C1089 1.403 . S
C1087 C1084 1.403 . S
C1087 C1088 1.524 . S
C1087 C1091 1.400 . S
C1088 H1073 0.960 . S
C1088 H1074 0.960 . S
C1088 H1075 0.960 . S
C1088 C1087 1.524 . S
C1089 C1086 1.403 . S
C1089 C1090 1.392 . S
C1089 C1093 1.495 . S
C1090 C1089 1.392 . S
C1090 C1091 1.385 . S
C1090 C1092 1.478 . S
C1091 H1085 0.930 . S
C1091 C1087 1.400 . S
C1091 C1090 1.385 . S
C1092 C1090 1.478 . S
C1092 C1094 1.381 . S
C1092 C1098 1.383 . S
C1093 C1089 1.495 . S
C1093 H1099 0.959 . S
C1093 H1100 0.961 . S
C1093 H1101 0.960 . S
C1094 C1092 1.381 . S
C1094 C1095 1.394 . S
C1094 H1102 0.930 . S
C1095 C1094 1.394 . S
C1095 C1096 1.383 . S
C1095 H1103 0.929 . S
C1096 C1095 1.383 . S
C1096 C1097 1.377 . S
C1097 H1081 0.930 . S
C1097 C1096 1.377 . S
C1097 C1098 1.379 . S
C1098 H1082 0.931 . S
C1098 C1092 1.383 . S
C1098 C1097 1.379 . S
H1099 C1093 0.959 . S
H1100 C1093 0.961 . S
H1101 C1093 0.960 . S
H1102 C1094 0.930 . S
H1103 C1095 0.929 . S
H1104 C1112 0.929 . S
H1105 C1114 0.930 . S
H1106 C1116 0.930 . S
H1107 C1119 0.929 . S
H1108 C1122 0.930 . S
H1109 C1124 0.960 . S
H1110 C1124 0.960 . S
H1111 C1124 0.960 . S
C1112 H1104 0.929 . S
C1112 C1113 1.377 . S
C1112 C1114 1.384 . S
C1113 C1112 1.377 . S
C1113 C1119 1.390 . S
C1114 H1105 0.930 . S
C1114 C1112 1.384 . S
C1114 C1115 1.372 . S
C1115 C1114 1.372 . S
C1115 C1116 1.400 . S
C1115 C1120 1.490 . S
C1116 H1106 0.930 . S
C1116 C1115 1.400 . S
C1116 C1119 1.386 . S
H1117 C1133 0.930 . S
H1118 C1134 0.931 . S
C1119 H1107 0.929 . S
C1119 C1113 1.390 . S
C1119 C1116 1.386 . S
C1120 C1115 1.490 . S
C1120 C1122 1.395 . S
C1120 C1123 1.403 . S
H1121 C1127 0.930 . S
C1122 H1108 0.930 . S
C1122 C1120 1.395 . S
C1122 C1125 1.403 . S
C1123 C1120 1.403 . S
C1123 C1124 1.524 . S
C1123 C1127 1.400 . S
C1124 H1109 0.960 . S
C1124 H1110 0.960 . S
C1124 H1111 0.960 . S
C1124 C1123 1.524 . S
C1125 C1122 1.403 . S
C1125 C1126 1.392 . S
C1125 C1129 1.495 . S
C1126 C1125 1.392 . S
C1126 C1127 1.385 . S
C1126 C1128 1.478 . S
C1127 H1121 0.930 . S
C1127 C1123 1.400 . S
C1127 C1126 1.385 . S
C1128 C1126 1.478 . S
C1128 C1130 1.381 . S
C1128 C1134 1.383 . S
C1129 C1125 1.495 . S
C1129 H1135 0.959 . S
C1129 H1136 0.961 . S
C1129 H1137 0.960 . S
C1130 C1128 1.381 . S
C1130 C1131 1.394 . S
C1130 H1138 0.930 . S
C1131 C1130 1.394 . S
C1131 C1132 1.383 . S
C1131 H1139 0.929 . S
C1132 C1131 1.383 . S
C1132 C1133 1.377 . S
C1133 H1117 0.930 . S
C1133 C1132 1.377 . S
C1133 C1134 1.379 . S
C1134 H1118 0.931 . S
C1134 C1128 1.383 . S
C1134 C1133 1.379 . S
H1135 C1129 0.959 . S
H1136 C1129 0.961 . S
H1137 C1129 0.960 . S
H1138 C1130 0.930 . S
H1139 C1131 0.929 . S
H1140 C1148 0.929 . S
H1141 C1150 0.930 . S
H1142 C1152 0.930 . S
H1143 C1155 0.929 . S
H1144 C1158 0.930 . S
H1145 C1160 0.960 . S
H1146 C1160 0.960 . S
H1147 C1160 0.960 . S
C1148 H1140 0.929 . S
C1148 C1149 1.377 . S
C1148 C1150 1.384 . S
C1149 C1148 1.377 . S
C1149 C1155 1.390 . S
C1150 H1141 0.930 . S
C1150 C1148 1.384 . S
C1150 C1151 1.372 . S
C1151 C1150 1.372 . S
C1151 C1152 1.400 . S
C1151 C1156 1.490 . S
C1152 H1142 0.930 . S
C1152 C1151 1.400 . S
C1152 C1155 1.386 . S
H1153 C1169 0.930 . S
H1154 C1170 0.931 . S
C1155 H1143 0.929 . S
C1155 C1149 1.390 . S
C1155 C1152 1.386 . S
C1156 C1151 1.490 . S
C1156 C1158 1.395 . S
C1156 C1159 1.403 . S
H1157 C1163 0.930 . S
C1158 H1144 0.930 . S
C1158 C1156 1.395 . S
C1158 C1161 1.403 . S
C1159 C1156 1.403 . S
C1159 C1160 1.524 . S
C1159 C1163 1.400 . S
C1160 H1145 0.960 . S
C1160 H1146 0.960 . S
C1160 H1147 0.960 . S
C1160 C1159 1.524 . S
C1161 C1158 1.403 . S
C1161 C1162 1.392 . S
C1161 C1165 1.495 . S
C1162 C1161 1.392 . S
C1162 C1163 1.385 . S
C1162 C1164 1.478 . S
C1163 H1157 0.930 . S
C1163 C1159 1.400 . S
C1163 C1162 1.385 . S
C1164 C1162 1.478 . S
C1164 C1166 1.381 . S
C1164 C1170 1.383 . S
C1165 C1161 1.495 . S
C1165 H1171 0.959 . S
C1165 H1172 0.961 . S
C1165 H1173 0.960 . S
C1166 C1164 1.381 . S
C1166 C1167 1.394 . S
C1166 H1174 0.930 . S
C1167 C1166 1.394 . S
C1167 C1168 1.383 . S
C1167 H1175 0.929 . S
C1168 C1167 1.383 . S
C1168 C1169 1.377 . S
C1169 H1153 0.930 . S
C1169 C1168 1.377 . S
C1169 C1170 1.379 . S
C1170 H1154 0.931 . S
C1170 C1164 1.383 . S
C1170 C1169 1.379 . S
H1171 C1165 0.959 . S
H1172 C1165 0.961 . S
H1173 C1165 0.960 . S
H1174 C1166 0.930 . S
H1175 C1167 0.929 . S
H1176 C1184 0.929 . S
H1177 C1186 0.930 . S
H1178 C1188 0.930 . S
H1179 C1191 0.929 . S
H1180 C1194 0.930 . S
H1181 C1196 0.960 . S
H1182 C1196 0.960 . S
H1183 C1196 0.960 . S
C1184 H1176 0.929 . S
C1184 C1185 1.377 . S
C1184 C1186 1.384 . S
C1185 C1184 1.377 . S
C1185 C1191 1.390 . S
C1186 H1177 0.930 . S
C1186 C1184 1.384 . S
C1186 C1187 1.372 . S
C1187 C1186 1.372 . S
C1187 C1188 1.400 . S
C1187 C1192 1.490 . S
C1188 H1178 0.930 . S
C1188 C1187 1.400 . S
C1188 C1191 1.386 . S
H1189 C1205 0.930 . S
H1190 C1206 0.931 . S
C1191 H1179 0.929 . S
C1191 C1185 1.390 . S
C1191 C1188 1.386 . S
C1192 C1187 1.490 . S
C1192 C1194 1.395 . S
C1192 C1195 1.403 . S
H1193 C1199 0.930 . S
C1194 H1180 0.930 . S
C1194 C1192 1.395 . S
C1194 C1197 1.403 . S
C1195 C1192 1.403 . S
C1195 C1196 1.524 . S
C1195 C1199 1.400 . S
C1196 H1181 0.960 . S
C1196 H1182 0.960 . S
C1196 H1183 0.960 . S
C1196 C1195 1.524 . S
C1197 C1194 1.403 . S
C1197 C1198 1.392 . S
C1197 C1201 1.495 . S
C1198 C1197 1.392 . S
C1198 C1199 1.385 . S
C1198 C1200 1.478 . S
C1199 H1193 0.930 . S
C1199 C1195 1.400 . S
C1199 C1198 1.385 . S
C1200 C1198 1.478 . S
C1200 C1202 1.381 . S
C1200 C1206 1.383 . S
C1201 C1197 1.495 . S
C1201 H1207 0.959 . S
C1201 H1208 0.961 . S
C1201 H1209 0.960 . S
C1202 C1200 1.381 . S
C1202 C1203 1.394 . S
C1202 H1210 0.930 . S
C1203 C1202 1.394 . S
C1203 C1204 1.383 . S
C1203 H1211 0.929 . S
C1204 C1203 1.383 . S
C1204 C1205 1.377 . S
C1205 H1189 0.930 . S
C1205 C1204 1.377 . S
C1205 C1206 1.379 . S
C1206 H1190 0.931 . S
C1206 C1200 1.383 . S
C1206 C1205 1.379 . S
H1207 C1201 0.959 . S
H1208 C1201 0.961 . S
H1209 C1201 0.960 . S
H1210 C1202 0.930 . S
H1211 C1203 0.929 . S
H1212 C1220 0.929 . S
H1213 C1222 0.930 . S
H1214 C1224 0.930 . S
H1215 C1227 0.929 . S
H1216 C1230 0.930 . S
H1217 C1232 0.960 . S
H1218 C1232 0.960 . S
H1219 C1232 0.960 . S
C1220 H1212 0.929 . S
C1220 C1221 1.377 . S
C1220 C1222 1.384 . S
C1221 C1220 1.377 . S
C1221 C1227 1.390 . S
C1222 H1213 0.930 . S
C1222 C1220 1.384 . S
C1222 C1223 1.372 . S
C1223 C1222 1.372 . S
C1223 C1224 1.400 . S
C1223 C1228 1.490 . S
C1224 H1214 0.930 . S
C1224 C1223 1.400 . S
C1224 C1227 1.386 . S
H1225 C1241 0.930 . S
H1226 C1242 0.931 . S
C1227 H1215 0.929 . S
C1227 C1221 1.390 . S
C1227 C1224 1.386 . S
C1228 C1223 1.490 . S
C1228 C1230 1.395 . S
C1228 C1231 1.403 . S
H1229 C1235 0.930 . S
C1230 H1216 0.930 . S
C1230 C1228 1.395 . S
C1230 C1233 1.403 . S
C1231 C1228 1.403 . S
C1231 C1232 1.524 . S
C1231 C1235 1.400 . S
C1232 H1217 0.960 . S
C1232 H1218 0.960 . S
C1232 H1219 0.960 . S
C1232 C1231 1.524 . S
C1233 C1230 1.403 . S
C1233 C1234 1.392 . S
C1233 C1237 1.495 . S
C1234 C1233 1.392 . S
C1234 C1235 1.385 . S
C1234 C1236 1.478 . S
C1235 H1229 0.930 . S
C1235 C1231 1.400 . S
C1235 C1234 1.385 . S
C1236 C1234 1.478 . S
C1236 C1238 1.381 . S
C1236 C1242 1.383 . S
C1237 C1233 1.495 . S
C1237 H1243 0.959 . S
C1237 H1244 0.961 . S
C1237 H1245 0.960 . S
C1238 C1236 1.381 . S
C1238 C1239 1.394 . S
C1238 H1246 0.930 . S
C1239 C1238 1.394 . S
C1239 C1240 1.383 . S
C1239 H1247 0.929 . S
C1240 C1239 1.383 . S
C1240 C1241 1.377 . S
C1241 H1225 0.930 . S
C1241 C1240 1.377 . S
C1241 C1242 1.379 . S
C1242 H1226 0.931 . S
C1242 C1236 1.383 . S
C1242 C1241 1.379 . S
H1243 C1237 0.959 . S
H1244 C1237 0.961 . S
H1245 C1237 0.960 . S
H1246 C1238 0.930 . S
H1247 C1239 0.929 . S
H1248 C1256 0.929 . S
H1249 C1258 0.930 . S
H1250 C1260 0.930 . S
H1251 C1263 0.929 . S
H1252 C1266 0.930 . S
H1253 C1268 0.960 . S
H1254 C1268 0.960 . S
H1255 C1268 0.960 . S
C1256 H1248 0.929 . S
C1256 C1257 1.377 . S
C1256 C1258 1.384 . S
C1257 C1256 1.377 . S
C1257 C1263 1.390 . S
C1258 H1249 0.930 . S
C1258 C1256 1.384 . S
C1258 C1259 1.372 . S
C1259 C1258 1.372 . S
C1259 C1260 1.400 . S
C1259 C1264 1.490 . S
C1260 H1250 0.930 . S
C1260 C1259 1.400 . S
C1260 C1263 1.386 . S
H1261 C1277 0.930 . S
H1262 C1278 0.931 . S
C1263 H1251 0.929 . S
C1263 C1257 1.390 . S
C1263 C1260 1.386 . S
C1264 C1259 1.490 . S
C1264 C1266 1.395 . S
C1264 C1267 1.403 . S
H1265 C1271 0.930 . S
C1266 H1252 0.930 . S
C1266 C1264 1.395 . S
C1266 C1269 1.403 . S
C1267 C1264 1.403 . S
C1267 C1268 1.524 . S
C1267 C1271 1.400 . S
C1268 H1253 0.960 . S
C1268 H1254 0.960 . S
C1268 H1255 0.960 . S
C1268 C1267 1.524 . S
C1269 C1266 1.403 . S
C1269 C1270 1.392 . S
C1269 C1273 1.495 . S
C1270 C1269 1.392 . S
C1270 C1271 1.385 . S
C1270 C1272 1.478 . S
C1271 H1265 0.930 . S
C1271 C1267 1.400 . S
C1271 C1270 1.385 . S
C1272 C1270 1.478 . S
C1272 C1274 1.381 . S
C1272 C1278 1.383 . S
C1273 C1269 1.495 . S
C1273 H1279 0.959 . S
C1273 H1280 0.961 . S
C1273 H1281 0.960 . S
C1274 C1272 1.381 . S
C1274 C1275 1.394 . S
C1274 H1282 0.930 . S
C1275 C1274 1.394 . S
C1275 C1276 1.383 . S
C1275 H1283 0.929 . S
C1276 C1275 1.383 . S
C1276 C1277 1.377 . S
C1277 H1261 0.930 . S
C1277 C1276 1.377 . S
C1277 C1278 1.379 . S
C1278 H1262 0.931 . S
C1278 C1272 1.383 . S
C1278 C1277 1.379 . S
H1279 C1273 0.959 . S
H1280 C1273 0.961 . S
H1281 C1273 0.960 . S
H1282 C1274 0.930 . S
H1283 C1275 0.929 . S
H1284 C1292 0.929 . S
H1285 C1294 0.930 . S
H1286 C1296 0.930 . S
H1287 C1299 0.929 . S
H1288 C1302 0.930 . S
H1289 C1304 0.960 . S
H1290 C1304 0.960 . S
H1291 C1304 0.960 . S
C1292 H1284 0.929 . S
C1292 C1293 1.377 . S
C1292 C1294 1.384 . S
C1293 C1292 1.377 . S
C1293 C1299 1.390 . S
C1294 H1285 0.930 . S
C1294 C1292 1.384 . S
C1294 C1295 1.372 . S
C1295 C1294 1.372 . S
C1295 C1296 1.400 . S
C1295 C1300 1.490 . S
C1296 H1286 0.930 . S
C1296 C1295 1.400 . S
C1296 C1299 1.386 . S
H1297 C1313 0.930 . S
H1298 C1314 0.931 . S
C1299 H1287 0.929 . S
C1299 C1293 1.390 . S
C1299 C1296 1.386 . S
C1300 C1295 1.490 . S
C1300 C1302 1.395 . S
C1300 C1303 1.403 . S
H1301 C1307 0.930 . S
C1302 H1288 0.930 . S
C1302 C1300 1.395 . S
C1302 C1305 1.403 . S
C1303 C1300 1.403 . S
C1303 C1304 1.524 . S
C1303 C1307 1.400 . S
C1304 H1289 0.960 . S
C1304 H1290 0.960 . S
C1304 H1291 0.960 . S
C1304 C1303 1.524 . S
C1305 C1302 1.403 . S
C1305 C1306 1.392 . S
C1305 C1309 1.495 . S
C1306 C1305 1.392 . S
C1306 C1307 1.385 . S
C1306 C1308 1.478 . S
C1307 H1301 0.930 . S
C1307 C1303 1.400 . S
C1307 C1306 1.385 . S
C1308 C1306 1.478 . S
C1308 C1310 1.381 . S
C1308 C1314 1.383 . S
C1309 C1305 1.495 . S
C1309 H1315 0.959 . S
C1309 H1316 0.961 . S
C1309 H1317 0.960 . S
C1310 C1308 1.381 . S
C1310 C1311 1.394 . S
C1310 H1318 0.930 . S
C1311 C1310 1.394 . S
C1311 C1312 1.383 . S
C1311 H1319 0.929 . S
C1312 C1311 1.383 . S
C1312 C1313 1.377 . S
C1313 H1297 0.930 . S
C1313 C1312 1.377 . S
C1313 C1314 1.379 . S
C1314 H1298 0.931 . S
C1314 C1308 1.383 . S
C1314 C1313 1.379 . S
H1315 C1309 0.959 . S
H1316 C1309 0.961 . S
H1317 C1309 0.960 . S
H1318 C1310 0.930 . S
H1319 C1311 0.929 . S
H1320 C1328 0.929 . S
H1321 C1330 0.930 . S
H1322 C1332 0.930 . S
H1323 C1335 0.929 . S
H1324 C1338 0.930 . S
H1325 C1340 0.960 . S
H1326 C1340 0.960 . S
H1327 C1340 0.960 . S
C1328 H1320 0.929 . S
C1328 C1329 1.377 . S
C1328 C1330 1.384 . S
C1329 C1328 1.377 . S
C1329 C1335 1.390 . S
C1330 H1321 0.930 . S
C1330 C1328 1.384 . S
C1330 C1331 1.372 . S
C1331 C1330 1.372 . S
C1331 C1332 1.400 . S
C1331 C1336 1.490 . S
C1332 H1322 0.930 . S
C1332 C1331 1.400 . S
C1332 C1335 1.386 . S
H1333 C1349 0.930 . S
H1334 C1350 0.931 . S
C1335 H1323 0.929 . S
C1335 C1329 1.390 . S
C1335 C1332 1.386 . S
C1336 C1331 1.490 . S
C1336 C1338 1.395 . S
C1336 C1339 1.403 . S
H1337 C1343 0.930 . S
C1338 H1324 0.930 . S
C1338 C1336 1.395 . S
C1338 C1341 1.403 . S
C1339 C1336 1.403 . S
C1339 C1340 1.524 . S
C1339 C1343 1.400 . S
C1340 H1325 0.960 . S
C1340 H1326 0.960 . S
C1340 H1327 0.960 . S
C1340 C1339 1.524 . S
C1341 C1338 1.403 . S
C1341 C1342 1.392 . S
C1341 C1345 1.495 . S
C1342 C1341 1.392 . S
C1342 C1343 1.385 . S
C1342 C1344 1.478 . S
C1343 H1337 0.930 . S
C1343 C1339 1.400 . S
C1343 C1342 1.385 . S
C1344 C1342 1.478 . S
C1344 C1346 1.381 . S
C1344 C1350 1.383 . S
C1345 C1341 1.495 . S
C1345 H1351 0.959 . S
C1345 H1352 0.961 . S
C1345 H1353 0.960 . S
C1346 C1344 1.381 . S
C1346 C1347 1.394 . S
C1346 H1354 0.930 . S
C1347 C1346 1.394 . S
C1347 C1348 1.383 . S
C1347 H1355 0.929 . S
C1348 C1347 1.383 . S
C1348 C1349 1.377 . S
C1349 H1333 0.930 . S
C1349 C1348 1.377 . S
C1349 C1350 1.379 . S
C1350 H1334 0.931 . S
C1350 C1344 1.383 . S
C1350 C1349 1.379 . S
H1351 C1345 0.959 . S
H1352 C1345 0.961 . S
H1353 C1345 0.960 . S
H1354 C1346 0.930 . S
H1355 C1347 0.929 . S
H1356 C1364 0.929 . S
H1357 C1366 0.930 . S
H1358 C1368 0.930 . S
H1359 C1371 0.929 . S
H1360 C1374 0.930 . S
H1361 C1376 0.960 . S
H1362 C1376 0.960 . S
H1363 C1376 0.960 . S
C1364 H1356 0.929 . S
C1364 C1365 1.377 . S
C1364 C1366 1.384 . S
C1365 C1364 1.377 . S
C1365 C1371 1.390 . S
C1366 H1357 0.930 . S
C1366 C1364 1.384 . S
C1366 C1367 1.372 . S
C1367 C1366 1.372 . S
C1367 C1368 1.400 . S
C1367 C1372 1.490 . S
C1368 H1358 0.930 . S
C1368 C1367 1.400 . S
C1368 C1371 1.386 . S
H1369 C1385 0.924 1_556 S
H1370 C1386 0.931 . S
C1371 H1359 0.929 . S
C1371 C1365 1.390 . S
C1371 C1368 1.386 . S
C1372 C1367 1.490 . S
C1372 C1374 1.395 . S
C1372 C1375 1.403 . S
H1373 C1379 0.930 . S
C1374 H1360 0.930 . S
C1374 C1372 1.395 . S
C1374 C1377 1.403 . S
C1375 C1372 1.403 . S
C1375 C1376 1.524 . S
C1375 C1379 1.400 . S
C1376 H1361 0.960 . S
C1376 H1362 0.960 . S
C1376 H1363 0.960 . S
C1376 C1375 1.524 . S
C1377 C1374 1.403 . S
C1377 C1378 1.392 . S
C1377 C1381 1.495 . S
C1378 C1377 1.392 . S
C1378 C1379 1.385 . S
C1378 C1380 1.478 . S
C1379 H1373 0.930 . S
C1379 C1375 1.400 . S
C1379 C1378 1.385 . S
C1380 C1378 1.478 . S
C1380 C1382 1.381 . S
C1380 C1386 1.383 . S
C1381 C1377 1.495 . S
C1381 H1387 0.959 . S
C1381 H1388 0.961 . S
C1381 H1389 0.960 . S
C1382 C1380 1.381 . S
C1382 C1383 1.394 . S
C1382 H1390 0.930 . S
C1383 C1382 1.394 . S
C1383 C1384 1.383 . S
C1383 H1391 0.929 . S
C1384 C1383 1.383 . S
C1384 C1385 1.377 . S
C1385 H1369 0.924 1_554 S
C1385 C1384 1.377 . S
C1385 C1386 1.379 . S
C1386 H1370 0.931 . S
C1386 C1380 1.383 . S
C1386 C1385 1.379 . S
H1387 C1381 0.959 . S
H1388 C1381 0.961 . S
H1389 C1381 0.960 . S
H1390 C1382 0.930 . S
H1391 C1383 0.929 . S
H1392 C1400 0.929 . S
H1393 C1402 0.930 . S
H1394 C1404 0.930 . S
H1395 C1407 0.929 . S
H1396 C1410 0.930 . S
H1397 C1412 0.960 . S
H1398 C1412 0.960 . S
H1399 C1412 0.960 . S
C1400 H1392 0.929 . S
C1400 C1401 1.377 . S
C1400 C1402 1.384 . S
C1401 C1400 1.377 . S
C1401 C1407 1.390 . S
C1402 H1393 0.930 . S
C1402 C1400 1.384 . S
C1402 C1403 1.372 . S
C1403 C1402 1.372 . S
C1403 C1404 1.400 . S
C1403 C1408 1.490 . S
C1404 H1394 0.930 . S
C1404 C1403 1.400 . S
C1404 C1407 1.386 . S
H1405 C1421 0.930 . S
H1406 C1422 0.931 . S
C1407 H1395 0.929 . S
C1407 C1401 1.390 . S
C1407 C1404 1.386 . S
C1408 C1403 1.490 . S
C1408 C1410 1.395 . S
C1408 C1411 1.403 . S
H1409 C1415 0.930 . S
C1410 H1396 0.930 . S
C1410 C1408 1.395 . S
C1410 C1413 1.403 . S
C1411 C1408 1.403 . S
C1411 C1412 1.524 . S
C1411 C1415 1.400 . S
C1412 H1397 0.960 . S
C1412 H1398 0.960 . S
C1412 H1399 0.960 . S
C1412 C1411 1.524 . S
C1413 C1410 1.403 . S
C1413 C1414 1.392 . S
C1413 C1417 1.495 . S
C1414 C1413 1.392 . S
C1414 C1415 1.385 . S
C1414 C1416 1.478 . S
C1415 H1409 0.930 . S
C1415 C1411 1.400 . S
C1415 C1414 1.385 . S
C1416 C1414 1.478 . S
C1416 C1418 1.381 . S
C1416 C1422 1.383 . S
C1417 C1413 1.495 . S
C1417 H1423 0.959 . S
C1417 H1424 0.961 . S
C1417 H1425 0.960 . S
C1418 C1416 1.381 . S
C1418 C1419 1.394 . S
C1418 H1426 0.930 . S
C1419 C1418 1.394 . S
C1419 C1420 1.383 . S
C1419 H1427 0.929 . S
C1420 C1419 1.383 . S
C1420 C1421 1.377 . S
C1421 H1405 0.930 . S
C1421 C1420 1.377 . S
C1421 C1422 1.379 . S
C1422 H1406 0.931 . S
C1422 C1416 1.383 . S
C1422 C1421 1.379 . S
H1423 C1417 0.959 . S
H1424 C1417 0.961 . S
H1425 C1417 0.960 . S
H1426 C1418 0.930 . S
H1427 C1419 0.929 . S
H1428 C1436 0.929 . S
H1429 C1438 0.930 . S
H1430 C1440 0.930 . S
H1431 C1443 0.929 . S
H1432 C1446 0.930 . S
H1433 C1448 0.960 . S
H1434 C1448 0.960 . S
H1435 C1448 0.960 . S
C1436 H1428 0.929 . S
C1436 C1437 1.377 . S
C1436 C1438 1.384 . S
C1437 C1436 1.377 . S
C1437 C1443 1.390 . S
C1438 H1429 0.930 . S
C1438 C1436 1.384 . S
C1438 C1439 1.372 . S
C1439 C1438 1.372 . S
C1439 C1440 1.400 . S
C1439 C1444 1.490 . S
C1440 H1430 0.930 . S
C1440 C1439 1.400 . S
C1440 C1443 1.386 . S
H1441 C1457 0.930 . S
H1442 C1458 0.931 . S
C1443 H1431 0.929 . S
C1443 C1437 1.390 . S
C1443 C1440 1.386 . S
C1444 C1439 1.490 . S
C1444 C1446 1.395 . S
C1444 C1447 1.403 . S
H1445 C1451 0.930 . S
C1446 H1432 0.930 . S
C1446 C1444 1.395 . S
C1446 C1449 1.403 . S
C1447 C1444 1.403 . S
C1447 C1448 1.524 . S
C1447 C1451 1.400 . S
C1448 H1433 0.960 . S
C1448 H1434 0.960 . S
C1448 H1435 0.960 . S
C1448 C1447 1.524 . S
C1449 C1446 1.403 . S
C1449 C1450 1.392 . S
C1449 C1453 1.495 . S
C1450 C1449 1.392 . S
C1450 C1451 1.385 . S
C1450 C1452 1.478 . S
C1451 H1445 0.930 . S
C1451 C1447 1.400 . S
C1451 C1450 1.385 . S
C1452 C1450 1.478 . S
C1452 C1454 1.381 . S
C1452 C1458 1.383 . S
C1453 C1449 1.495 . S
C1453 H1459 0.959 . S
C1453 H1460 0.961 . S
C1453 H1461 0.960 . S
C1454 C1452 1.381 . S
C1454 C1455 1.394 . S
C1454 H1462 0.930 . S
C1455 C1454 1.394 . S
C1455 C1456 1.383 . S
C1455 H1463 0.929 . S
C1456 C1455 1.383 . S
C1456 C1457 1.377 . S
C1457 H1441 0.930 . S
C1457 C1456 1.377 . S
C1457 C1458 1.379 . S
C1458 H1442 0.931 . S
C1458 C1452 1.383 . S
C1458 C1457 1.379 . S
H1459 C1453 0.959 . S
H1460 C1453 0.961 . S
H1461 C1453 0.960 . S
H1462 C1454 0.930 . S
H1463 C1455 0.929 . S
H1464 C1472 0.929 . S
H1465 C1474 0.930 . S
H1466 C1476 0.930 . S
H1467 C1479 0.929 . S
H1468 C1482 0.930 . S
H1469 C1484 0.960 . S
H1470 C1484 0.960 . S
H1471 C1484 0.960 . S
C1472 H1464 0.929 . S
C1472 C1473 1.377 . S
C1472 C1474 1.384 . S
C1473 C1472 1.377 . S
C1473 C1479 1.390 . S
C1474 H1465 0.930 . S
C1474 C1472 1.384 . S
C1474 C1475 1.372 . S
C1475 C1474 1.372 . S
C1475 C1476 1.400 . S
C1475 C1480 1.490 . S
C1476 H1466 0.930 . S
C1476 C1475 1.400 . S
C1476 C1479 1.386 . S
H1477 C1493 0.930 . S
H1478 C1494 0.931 . S
C1479 H1467 0.929 . S
C1479 C1473 1.390 . S
C1479 C1476 1.386 . S
C1480 C1475 1.490 . S
C1480 C1482 1.395 . S
C1480 C1483 1.403 . S
H1481 C1487 0.930 . S
C1482 H1468 0.930 . S
C1482 C1480 1.395 . S
C1482 C1485 1.403 . S
C1483 C1480 1.403 . S
C1483 C1484 1.524 . S
C1483 C1487 1.400 . S
C1484 H1469 0.960 . S
C1484 H1470 0.960 . S
C1484 H1471 0.960 . S
C1484 C1483 1.524 . S
C1485 C1482 1.403 . S
C1485 C1486 1.392 . S
C1485 C1489 1.495 . S
C1486 C1485 1.392 . S
C1486 C1487 1.385 . S
C1486 C1488 1.478 . S
C1487 H1481 0.930 . S
C1487 C1483 1.400 . S
C1487 C1486 1.385 . S
C1488 C1486 1.478 . S
C1488 C1490 1.381 . S
C1488 C1494 1.383 . S
C1489 C1485 1.495 . S
C1489 H1495 0.959 . S
C1489 H1496 0.961 . S
C1489 H1497 0.960 . S
C1490 C1488 1.381 . S
C1490 C1491 1.394 . S
C1490 H1498 0.930 . S
C1491 C1490 1.394 . S
C1491 C1492 1.383 . S
C1491 H1499 0.929 . S
C1492 C1491 1.383 . S
C1492 C1493 1.377 . S
C1493 H1477 0.930 . S
C1493 C1492 1.377 . S
C1493 C1494 1.379 . S
C1494 H1478 0.931 . S
C1494 C1488 1.383 . S
C1494 C1493 1.379 . S
H1495 C1489 0.959 . S
H1496 C1489 0.961 . S
H1497 C1489 0.960 . S
H1498 C1490 0.930 . S
H1499 C1491 0.929 . S
H1500 C1508 0.929 . S
H1501 C1510 0.930 . S
H1502 C1512 0.930 . S
H1503 C1515 0.929 . S
H1504 C1518 0.930 . S
H1505 C1520 0.960 . S
H1506 C1520 0.960 . S
H1507 C1520 0.960 . S
C1508 H1500 0.929 . S
C1508 C1509 1.377 . S
C1508 C1510 1.384 . S
C1509 C1508 1.377 . S
C1509 C1515 1.390 . S
C1510 H1501 0.930 . S
C1510 C1508 1.384 . S
C1510 C1511 1.372 . S
C1511 C1510 1.372 . S
C1511 C1512 1.400 . S
C1511 C1516 1.490 . S
C1512 H1502 0.930 . S
C1512 C1511 1.400 . S
C1512 C1515 1.386 . S
H1513 C1529 0.930 . S
H1514 C1530 0.931 . S
C1515 H1503 0.929 . S
C1515 C1509 1.390 . S
C1515 C1512 1.386 . S
C1516 C1511 1.490 . S
C1516 C1518 1.395 . S
C1516 C1519 1.403 . S
H1517 C1523 0.930 . S
C1518 H1504 0.930 . S
C1518 C1516 1.395 . S
C1518 C1521 1.403 . S
C1519 C1516 1.403 . S
C1519 C1520 1.524 . S
C1519 C1523 1.400 . S
C1520 H1505 0.960 . S
C1520 H1506 0.960 . S
C1520 H1507 0.960 . S
C1520 C1519 1.524 . S
C1521 C1518 1.403 . S
C1521 C1522 1.392 . S
C1521 C1525 1.495 . S
C1522 C1521 1.392 . S
C1522 C1523 1.385 . S
C1522 C1524 1.478 . S
C1523 H1517 0.930 . S
C1523 C1519 1.400 . S
C1523 C1522 1.385 . S
C1524 C1522 1.478 . S
C1524 C1526 1.381 . S
C1524 C1530 1.383 . S
C1525 C1521 1.495 . S
C1525 H1531 0.959 . S
C1525 H1532 0.961 . S
C1525 H1533 0.960 . S
C1526 C1524 1.381 . S
C1526 C1527 1.394 . S
C1526 H1534 0.930 . S
C1527 C1526 1.394 . S
C1527 C1528 1.383 . S
C1527 H1535 0.929 . S
C1528 C1527 1.383 . S
C1528 C1529 1.377 . S
C1529 H1513 0.930 . S
C1529 C1528 1.377 . S
C1529 C1530 1.379 . S
C1530 H1514 0.931 . S
C1530 C1524 1.383 . S
C1530 C1529 1.379 . S
H1531 C1525 0.959 . S
H1532 C1525 0.961 . S
H1533 C1525 0.960 . S
H1534 C1526 0.930 . S
H1535 C1527 0.929 . S
H1536 C1544 0.929 . S
H1537 C1546 0.930 . S
H1538 C1548 0.930 . S
H1539 C1551 0.929 . S
H1540 C1554 0.930 . S
H1541 C1556 0.960 . S
H1542 C1556 0.960 . S
H1543 C1556 0.960 . S
C1544 H1536 0.929 . S
C1544 C1545 1.377 . S
C1544 C1546 1.384 . S
C1545 C1544 1.377 . S
C1545 C1551 1.390 . S
C1546 H1537 0.930 . S
C1546 C1544 1.384 . S
C1546 C1547 1.372 . S
C1547 C1546 1.372 . S
C1547 C1548 1.400 . S
C1547 C1552 1.490 . S
C1548 H1538 0.930 . S
C1548 C1547 1.400 . S
C1548 C1551 1.386 . S
H1549 C1565 0.930 1_554 S
H1550 C1566 0.931 . S
C1551 H1539 0.929 . S
C1551 C1545 1.390 . S
C1551 C1548 1.386 . S
C1552 C1547 1.490 . S
C1552 C1554 1.395 . S
C1552 C1555 1.403 . S
H1553 C1559 0.930 . S
C1554 H1540 0.930 . S
C1554 C1552 1.395 . S
C1554 C1557 1.403 . S
C1555 C1552 1.403 . S
C1555 C1556 1.524 . S
C1555 C1559 1.400 . S
C1556 H1541 0.960 . S
C1556 H1542 0.960 . S
C1556 H1543 0.960 . S
C1556 C1555 1.524 . S
C1557 C1554 1.403 . S
C1557 C1558 1.392 . S
C1557 C1561 1.495 . S
C1558 C1557 1.392 . S
C1558 C1559 1.385 . S
C1558 C1560 1.478 . S
C1559 H1553 0.930 . S
C1559 C1555 1.400 . S
C1559 C1558 1.385 . S
C1560 C1558 1.478 . S
C1560 C1562 1.381 . S
C1560 C1566 1.383 . S
C1561 C1557 1.495 . S
C1561 H1567 0.959 . S
C1561 H1568 0.961 . S
C1561 H1569 0.960 . S
C1562 C1560 1.381 . S
C1562 C1563 1.394 . S
C1562 H1570 0.930 . S
C1563 C1562 1.394 . S
C1563 C1564 1.383 . S
C1563 H1571 0.929 . S
C1564 C1563 1.383 . S
C1564 C1565 1.377 . S
C1565 H1549 0.930 1_556 S
C1565 C1564 1.377 . S
C1565 C1566 1.379 . S
C1566 H1550 0.931 . S
C1566 C1560 1.383 . S
C1566 C1565 1.379 . S
H1567 C1561 0.959 . S
H1568 C1561 0.961 . S
H1569 C1561 0.960 . S
H1570 C1562 0.930 . S
H1571 C1563 0.929 . S
H1572 C1580 0.929 . S
H1573 C1582 0.930 . S
H1574 C1584 0.930 . S
H1575 C1587 0.929 . S
H1576 C1590 0.930 . S
H1577 C1592 0.960 . S
H1578 C1592 0.960 . S
H1579 C1592 0.960 . S
C1580 H1572 0.929 . S
C1580 C1581 1.377 . S
C1580 C1582 1.384 . S
C1581 C1580 1.377 . S
C1581 C1587 1.390 . S
C1582 H1573 0.930 . S
C1582 C1580 1.384 . S
C1582 C1583 1.372 . S
C1583 C1582 1.372 . S
C1583 C1584 1.400 . S
C1583 C1588 1.490 . S
C1584 H1574 0.930 . S
C1584 C1583 1.400 . S
C1584 C1587 1.386 . S
H1585 C1601 0.930 . S
H1586 C1602 0.931 . S
C1587 H1575 0.929 . S
C1587 C1581 1.390 . S
C1587 C1584 1.386 . S
C1588 C1583 1.490 . S
C1588 C1590 1.395 . S
C1588 C1591 1.403 . S
H1589 C1595 0.930 . S
C1590 H1576 0.930 . S
C1590 C1588 1.395 . S
C1590 C1593 1.403 . S
C1591 C1588 1.403 . S
C1591 C1592 1.524 . S
C1591 C1595 1.400 . S
C1592 H1577 0.960 . S
C1592 H1578 0.960 . S
C1592 H1579 0.960 . S
C1592 C1591 1.524 . S
C1593 C1590 1.403 . S
C1593 C1594 1.392 . S
C1593 C1597 1.495 . S
C1594 C1593 1.392 . S
C1594 C1595 1.385 . S
C1594 C1596 1.478 . S
C1595 H1589 0.930 . S
C1595 C1591 1.400 . S
C1595 C1594 1.385 . S
C1596 C1594 1.478 . S
C1596 C1598 1.381 . S
C1596 C1602 1.383 . S
C1597 C1593 1.495 . S
C1597 H1603 0.959 . S
C1597 H1604 0.961 . S
C1597 H1605 0.960 . S
C1598 C1596 1.381 . S
C1598 C1599 1.394 . S
C1598 H1606 0.930 . S
C1599 C1598 1.394 . S
C1599 C1600 1.383 . S
C1599 H1607 0.929 . S
C1600 C1599 1.383 . S
C1600 C1601 1.377 . S
C1601 H1585 0.930 . S
C1601 C1600 1.377 . S
C1601 C1602 1.379 . S
C1602 H1586 0.931 . S
C1602 C1596 1.383 . S
C1602 C1601 1.379 . S
H1603 C1597 0.959 . S
H1604 C1597 0.961 . S
H1605 C1597 0.960 . S
H1606 C1598 0.930 . S
H1607 C1599 0.929 . S
H1608 C1616 0.929 . S
H1609 C1618 0.930 . S
H1610 C1620 0.930 . S
H1611 C1623 0.929 . S
H1612 C1626 0.930 . S
H1613 C1628 0.960 . S
H1614 C1628 0.960 . S
H1615 C1628 0.960 . S
C1616 H1608 0.929 . S
C1616 C1617 1.377 . S
C1616 C1618 1.384 . S
C1617 C1616 1.377 . S
C1617 C1623 1.390 . S
C1618 H1609 0.930 . S
C1618 C1616 1.384 . S
C1618 C1619 1.372 . S
C1619 C1618 1.372 . S
C1619 C1620 1.400 . S
C1619 C1624 1.490 . S
C1620 H1610 0.930 . S
C1620 C1619 1.400 . S
C1620 C1623 1.386 . S
H1621 C1637 0.930 . S
H1622 C1638 0.931 . S
C1623 H1611 0.929 . S
C1623 C1617 1.390 . S
C1623 C1620 1.386 . S
C1624 C1619 1.490 . S
C1624 C1626 1.395 . S
C1624 C1627 1.403 . S
H1625 C1631 0.930 . S
C1626 H1612 0.930 . S
C1626 C1624 1.395 . S
C1626 C1629 1.403 . S
C1627 C1624 1.403 . S
C1627 C1628 1.524 . S
C1627 C1631 1.400 . S
C1628 H1613 0.960 . S
C1628 H1614 0.960 . S
C1628 H1615 0.960 . S
C1628 C1627 1.524 . S
C1629 C1626 1.403 . S
C1629 C1630 1.392 . S
C1629 C1633 1.495 . S
C1630 C1629 1.392 . S
C1630 C1631 1.385 . S
C1630 C1632 1.478 . S
C1631 H1625 0.930 . S
C1631 C1627 1.400 . S
C1631 C1630 1.385 . S
C1632 C1630 1.478 . S
C1632 C1634 1.381 . S
C1632 C1638 1.383 . S
C1633 C1629 1.495 . S
C1633 H1639 0.959 . S
C1633 H1640 0.961 . S
C1633 H1641 0.960 . S
C1634 C1632 1.381 . S
C1634 C1635 1.394 . S
C1634 H1642 0.930 . S
C1635 C1634 1.394 . S
C1635 C1636 1.383 . S
C1635 H1643 0.929 . S
C1636 C1635 1.383 . S
C1636 C1637 1.377 . S
C1637 H1621 0.930 . S
C1637 C1636 1.377 . S
C1637 C1638 1.379 . S
C1638 H1622 0.931 . S
C1638 C1632 1.383 . S
C1638 C1637 1.379 . S
H1639 C1633 0.959 . S
H1640 C1633 0.961 . S
H1641 C1633 0.960 . S
H1642 C1634 0.930 . S
H1643 C1635 0.929 . S
H1644 C1652 0.929 . S
H1645 C1654 0.930 . S
H1646 C1656 0.930 . S
H1647 C1659 0.929 . S
H1648 C1662 0.930 . S
H1649 C1664 0.960 . S
H1650 C1664 0.960 . S
H1651 C1664 0.960 . S
C1652 H1644 0.929 . S
C1652 C1653 1.377 . S
C1652 C1654 1.384 . S
C1653 C1652 1.377 . S
C1653 C1659 1.390 . S
C1654 H1645 0.930 . S
C1654 C1652 1.384 . S
C1654 C1655 1.372 . S
C1655 C1654 1.372 . S
C1655 C1656 1.400 . S
C1655 C1660 1.490 . S
C1656 H1646 0.930 . S
C1656 C1655 1.400 . S
C1656 C1659 1.386 . S
H1657 C1673 0.930 . S
H1658 C1674 0.931 . S
C1659 H1647 0.929 . S
C1659 C1653 1.390 . S
C1659 C1656 1.386 . S
C1660 C1655 1.490 . S
C1660 C1662 1.395 . S
C1660 C1663 1.403 . S
H1661 C1667 0.930 . S
C1662 H1648 0.930 . S
C1662 C1660 1.395 . S
C1662 C1665 1.403 . S
C1663 C1660 1.403 . S
C1663 C1664 1.524 . S
C1663 C1667 1.400 . S
C1664 H1649 0.960 . S
C1664 H1650 0.960 . S
C1664 H1651 0.960 . S
C1664 C1663 1.524 . S
C1665 C1662 1.403 . S
C1665 C1666 1.392 . S
C1665 C1669 1.495 . S
C1666 C1665 1.392 . S
C1666 C1667 1.385 . S
C1666 C1668 1.478 . S
C1667 H1661 0.930 . S
C1667 C1663 1.400 . S
C1667 C1666 1.385 . S
C1668 C1666 1.478 . S
C1668 C1670 1.381 . S
C1668 C1674 1.383 . S
C1669 C1665 1.495 . S
C1669 H1675 0.959 . S
C1669 H1676 0.961 . S
C1669 H1677 0.960 . S
C1670 C1668 1.381 . S
C1670 C1671 1.394 . S
C1670 H1678 0.930 . S
C1671 C1670 1.394 . S
C1671 C1672 1.383 . S
C1671 H1679 0.929 1_556 S
C1672 C1671 1.383 . S
C1672 C1673 1.377 . S
C1673 H1657 0.930 . S
C1673 C1672 1.377 . S
C1673 C1674 1.379 . S
C1674 H1658 0.931 . S
C1674 C1668 1.383 . S
C1674 C1673 1.379 . S
H1675 C1669 0.959 . S
H1676 C1669 0.961 . S
H1677 C1669 0.960 . S
H1678 C1670 0.930 . S
H1679 C1671 0.929 1_554 S
H1680 C1688 0.929 . S
H1681 C1690 0.930 . S
H1682 C1692 0.930 . S
H1683 C1695 0.929 . S
H1684 C1698 0.930 . S
H1685 C1700 0.960 . S
H1686 C1700 0.960 . S
H1687 C1700 0.960 . S
C1688 H1680 0.929 . S
C1688 C1689 1.377 . S
C1688 C1690 1.384 . S
C1689 C1688 1.377 . S
C1689 C1695 1.390 . S
C1690 H1681 0.930 . S
C1690 C1688 1.384 . S
C1690 C1691 1.372 . S
C1691 C1690 1.372 . S
C1691 C1692 1.400 . S
C1691 C1696 1.490 . S
C1692 H1682 0.930 . S
C1692 C1691 1.400 . S
C1692 C1695 1.386 . S
H1693 C1709 0.930 . S
H1694 C1710 0.931 . S
C1695 H1683 0.929 . S
C1695 C1689 1.390 . S
C1695 C1692 1.386 . S
C1696 C1691 1.490 . S
C1696 C1698 1.395 . S
C1696 C1699 1.403 . S
H1697 C1703 0.930 . S
C1698 H1684 0.930 . S
C1698 C1696 1.395 . S
C1698 C1701 1.403 . S
C1699 C1696 1.403 . S
C1699 C1700 1.524 . S
C1699 C1703 1.400 . S
C1700 H1685 0.960 . S
C1700 H1686 0.960 . S
C1700 H1687 0.960 . S
C1700 C1699 1.524 . S
C1701 C1698 1.403 . S
C1701 C1702 1.392 . S
C1701 C1705 1.495 . S
C1702 C1701 1.392 . S
C1702 C1703 1.385 . S
C1702 C1704 1.478 . S
C1703 H1697 0.930 . S
C1703 C1699 1.400 . S
C1703 C1702 1.385 . S
C1704 C1702 1.478 . S
C1704 C1706 1.381 . S
C1704 C1710 1.383 . S
C1705 C1701 1.495 . S
C1705 H1711 0.959 . S
C1705 H1712 0.961 . S
C1705 H1713 0.960 . S
C1706 C1704 1.381 . S
C1706 C1707 1.394 . S
C1706 H1714 0.930 . S
C1707 C1706 1.394 . S
C1707 C1708 1.383 . S
C1707 H1715 0.929 . S
C1708 C1707 1.383 . S
C1708 C1709 1.377 . S
C1709 H1693 0.930 . S
C1709 C1708 1.377 . S
C1709 C1710 1.379 . S
C1710 H1694 0.931 . S
C1710 C1704 1.383 . S
C1710 C1709 1.379 . S
H1711 C1705 0.959 . S
H1712 C1705 0.961 . S
H1713 C1705 0.960 . S
H1714 C1706 0.930 . S
H1715 C1707 0.929 . S
H1716 C1724 0.929 . S
H1717 C1726 0.930 . S
H1718 C1728 0.930 . S
H1719 C1731 0.929 . S
H1720 C1734 0.930 . S
H1721 C1736 0.960 . S
H1722 C1736 0.960 . S
H1723 C1736 0.960 . S
C1724 H1716 0.929 . S
C1724 C1725 1.377 . S
C1724 C1726 1.384 . S
C1725 C1724 1.377 . S
C1725 C1731 1.390 . S
C1726 H1717 0.930 . S
C1726 C1724 1.384 . S
C1726 C1727 1.372 . S
C1727 C1726 1.372 . S
C1727 C1728 1.400 . S
C1727 C1732 1.490 . S
C1728 H1718 0.930 . S
C1728 C1727 1.400 . S
C1728 C1731 1.386 . S
H1729 C1745 0.930 . S
H1730 C1746 0.931 . S
C1731 H1719 0.929 . S
C1731 C1725 1.390 . S
C1731 C1728 1.386 . S
C1732 C1727 1.490 . S
C1732 C1734 1.395 . S
C1732 C1735 1.403 . S
H1733 C1739 0.930 . S
C1734 H1720 0.930 . S
C1734 C1732 1.395 . S
C1734 C1737 1.403 . S
C1735 C1732 1.403 . S
C1735 C1736 1.524 . S
C1735 C1739 1.400 . S
C1736 H1721 0.960 . S
C1736 H1722 0.960 . S
C1736 H1723 0.960 . S
C1736 C1735 1.524 . S
C1737 C1734 1.403 . S
C1737 C1738 1.392 . S
C1737 C1741 1.495 . S
C1738 C1737 1.392 . S
C1738 C1739 1.385 . S
C1738 C1740 1.478 . S
C1739 H1733 0.930 . S
C1739 C1735 1.400 . S
C1739 C1738 1.385 . S
C1740 C1738 1.478 . S
C1740 C1742 1.381 . S
C1740 C1746 1.383 . S
C1741 C1737 1.495 . S
C1741 H1747 0.959 . S
C1741 H1748 0.961 . S
C1741 H1749 0.960 . S
C1742 C1740 1.381 . S
C1742 C1743 1.394 . S
C1742 H1750 0.930 . S
C1743 C1742 1.394 . S
C1743 C1744 1.383 . S
C1743 H1751 0.929 . S
C1744 C1743 1.383 . S
C1744 C1745 1.377 . S
C1745 H1729 0.930 . S
C1745 C1744 1.377 . S
C1745 C1746 1.379 . S
C1746 H1730 0.931 . S
C1746 C1740 1.383 . S
C1746 C1745 1.379 . S
H1747 C1741 0.959 . S
H1748 C1741 0.961 . S
H1749 C1741 0.960 . S
H1750 C1742 0.930 . S
H1751 C1743 0.929 . S
H1752 C1760 0.929 . S
H1753 C1762 0.930 . S
H1754 C1764 0.930 . S
H1755 C1767 0.929 . S
H1756 C1770 0.930 . S
H1757 C1772 0.960 . S
H1758 C1772 0.960 . S
H1759 C1772 0.960 . S
C1760 H1752 0.929 . S
C1760 C1761 1.377 . S
C1760 C1762 1.384 . S
C1761 C1760 1.377 . S
C1761 C1767 1.390 . S
C1762 H1753 0.930 . S
C1762 C1760 1.384 . S
C1762 C1763 1.372 . S
C1763 C1762 1.372 . S
C1763 C1764 1.400 . S
C1763 C1768 1.490 . S
C1764 H1754 0.930 . S
C1764 C1763 1.400 . S
C1764 C1767 1.386 . S
H1765 C1781 0.930 . S
H1766 C1782 0.931 . S
C1767 H1755 0.929 . S
C1767 C1761 1.390 . S
C1767 C1764 1.386 . S
C1768 C1763 1.490 . S
C1768 C1770 1.395 . S
C1768 C1771 1.403 . S
H1769 C1775 0.930 . S
C1770 H1756 0.930 . S
C1770 C1768 1.395 . S
C1770 C1773 1.403 . S
C1771 C1768 1.403 . S
C1771 C1772 1.524 . S
C1771 C1775 1.400 . S
C1772 H1757 0.960 . S
C1772 H1758 0.960 . S
C1772 H1759 0.960 . S
C1772 C1771 1.524 . S
C1773 C1770 1.403 . S
C1773 C1774 1.392 . S
C1773 C1777 1.495 . S
C1774 C1773 1.392 . S
C1774 C1775 1.385 . S
C1774 C1776 1.478 . S
C1775 H1769 0.930 . S
C1775 C1771 1.400 . S
C1775 C1774 1.385 . S
C1776 C1774 1.478 . S
C1776 C1778 1.381 . S
C1776 C1782 1.383 . S
C1777 C1773 1.495 . S
C1777 H1783 0.959 . S
C1777 H1784 0.961 . S
C1777 H1785 0.960 . S
C1778 C1776 1.381 . S
C1778 C1779 1.394 . S
C1778 H1786 0.930 . S
C1779 C1778 1.394 . S
C1779 C1780 1.383 . S
C1779 H1787 0.929 . S
C1780 C1779 1.383 . S
C1780 C1781 1.377 . S
C1781 H1765 0.930 . S
C1781 C1780 1.377 . S
C1781 C1782 1.379 . S
C1782 H1766 0.931 . S
C1782 C1776 1.383 . S
C1782 C1781 1.379 . S
H1783 C1777 0.959 . S
H1784 C1777 0.961 . S
H1785 C1777 0.960 . S
H1786 C1778 0.930 . S
H1787 C1779 0.929 . S
H1788 C1796 0.929 . S
H1789 C1798 0.930 . S
H1790 C1800 0.930 . S
H1791 C1803 0.929 . S
H1792 C1806 0.930 . S
H1793 C1808 0.960 . S
H1794 C1808 0.960 . S
H1795 C1808 0.960 . S
C1796 H1788 0.929 . S
C1796 C1797 1.377 . S
C1796 C1798 1.384 . S
C1797 C1796 1.377 . S
C1797 C1803 1.390 . S
C1798 H1789 0.930 . S
C1798 C1796 1.384 . S
C1798 C1799 1.372 . S
C1799 C1798 1.372 . S
C1799 C1800 1.400 . S
C1799 C1804 1.490 . S
C1800 H1790 0.930 . S
C1800 C1799 1.400 . S
C1800 C1803 1.386 . S
H1801 C1817 0.930 . S
H1802 C1818 0.931 . S
C1803 H1791 0.929 . S
C1803 C1797 1.390 . S
C1803 C1800 1.386 . S
C1804 C1799 1.490 . S
C1804 C1806 1.395 . S
C1804 C1807 1.403 . S
H1805 C1811 0.930 . S
C1806 H1792 0.930 . S
C1806 C1804 1.395 . S
C1806 C1809 1.403 . S
C1807 C1804 1.403 . S
C1807 C1808 1.524 . S
C1807 C1811 1.400 . S
C1808 H1793 0.960 . S
C1808 H1794 0.960 . S
C1808 H1795 0.960 . S
C1808 C1807 1.524 . S
C1809 C1806 1.403 . S
C1809 C1810 1.392 . S
C1809 C1813 1.495 . S
C1810 C1809 1.392 . S
C1810 C1811 1.385 . S
C1810 C1812 1.478 . S
C1811 H1805 0.930 . S
C1811 C1807 1.400 . S
C1811 C1810 1.385 . S
C1812 C1810 1.478 . S
C1812 C1814 1.381 . S
C1812 C1818 1.383 . S
C1813 C1809 1.495 . S
C1813 H1819 0.959 . S
C1813 H1820 0.961 . S
C1813 H1821 0.960 . S
C1814 C1812 1.381 . S
C1814 C1815 1.394 . S
C1814 H1822 0.930 . S
C1815 C1814 1.394 . S
C1815 C1816 1.383 . S
C1815 H1823 0.929 . S
C1816 C1815 1.383 . S
C1816 C1817 1.377 . S
C1817 H1801 0.930 . S
C1817 C1816 1.377 . S
C1817 C1818 1.379 . S
C1818 H1802 0.931 . S
C1818 C1812 1.383 . S
C1818 C1817 1.379 . S
H1819 C1813 0.959 . S
H1820 C1813 0.961 . S
H1821 C1813 0.960 . S
H1822 C1814 0.930 . S
H1823 C1815 0.929 . S
H1824 C1832 0.929 . S
H1825 C1834 0.930 . S
H1826 C1836 0.930 . S
H1827 C1839 0.929 . S
H1828 C1842 0.930 . S
H1829 C1844 0.960 . S
H1830 C1844 0.960 . S
H1831 C1844 0.960 . S
C1832 H1824 0.929 . S
C1832 C1833 1.377 . S
C1832 C1834 1.384 . S
C1833 C1832 1.377 . S
C1833 C1839 1.390 . S
C1834 H1825 0.930 . S
C1834 C1832 1.384 . S
C1834 C1835 1.372 . S
C1835 C1834 1.372 . S
C1835 C1836 1.400 . S
C1835 C1840 1.490 . S
C1836 H1826 0.930 . S
C1836 C1835 1.400 . S
C1836 C1839 1.386 . S
H1837 C1853 0.930 . S
H1838 C1854 0.931 . S
C1839 H1827 0.929 . S
C1839 C1833 1.390 . S
C1839 C1836 1.386 . S
C1840 C1835 1.490 . S
C1840 C1842 1.395 . S
C1840 C1843 1.403 . S
H1841 C1847 0.930 . S
C1842 H1828 0.930 . S
C1842 C1840 1.395 . S
C1842 C1845 1.403 . S
C1843 C1840 1.403 . S
C1843 C1844 1.524 . S
C1843 C1847 1.400 . S
C1844 H1829 0.960 . S
C1844 H1830 0.960 . S
C1844 H1831 0.960 . S
C1844 C1843 1.524 . S
C1845 C1842 1.403 . S
C1845 C1846 1.392 . S
C1845 C1849 1.495 . S
C1846 C1845 1.392 . S
C1846 C1847 1.385 . S
C1846 C1848 1.478 . S
C1847 H1841 0.930 . S
C1847 C1843 1.400 . S
C1847 C1846 1.385 . S
C1848 C1846 1.478 . S
C1848 C1850 1.381 . S
C1848 C1854 1.383 . S
C1849 C1845 1.495 . S
C1849 H1855 0.959 . S
C1849 H1856 0.961 . S
C1849 H1857 0.960 . S
C1850 C1848 1.381 . S
C1850 C1851 1.394 . S
C1850 H1858 0.930 . S
C1851 C1850 1.394 . S
C1851 C1852 1.383 . S
C1851 H1859 0.929 . S
C1852 C1851 1.383 . S
C1852 C1853 1.377 . S
C1853 H1837 0.930 . S
C1853 C1852 1.377 . S
C1853 C1854 1.379 . S
C1854 H1838 0.931 . S
C1854 C1848 1.383 . S
C1854 C1853 1.379 . S
H1855 C1849 0.959 . S
H1856 C1849 0.961 . S
H1857 C1849 0.960 . S
H1858 C1850 0.930 . S
H1859 C1851 0.929 . S
H1860 C1868 0.929 . S
H1861 C1870 0.930 . S
H1862 C1872 0.930 . S
H1863 C1875 0.929 . S
H1864 C1878 0.930 . S
H1865 C1880 0.960 . S
H1866 C1880 0.960 . S
H1867 C1880 0.960 . S
C1868 H1860 0.929 . S
C1868 C1869 1.377 . S
C1868 C1870 1.384 . S
C1869 C1868 1.377 . S
C1869 C1875 1.390 . S
C1870 H1861 0.930 . S
C1870 C1868 1.384 . S
C1870 C1871 1.372 . S
C1871 C1870 1.372 . S
C1871 C1872 1.400 . S
C1871 C1876 1.490 . S
C1872 H1862 0.930 . S
C1872 C1871 1.400 . S
C1872 C1875 1.386 . S
H1873 C1889 0.930 . S
H1874 C1890 0.931 . S
C1875 H1863 0.929 . S
C1875 C1869 1.390 . S
C1875 C1872 1.386 . S
C1876 C1871 1.490 . S
C1876 C1878 1.395 . S
C1876 C1879 1.403 . S
H1877 C1883 0.930 . S
C1878 H1864 0.930 . S
C1878 C1876 1.395 . S
C1878 C1881 1.403 . S
C1879 C1876 1.403 . S
C1879 C1880 1.524 . S
C1879 C1883 1.400 . S
C1880 H1865 0.960 . S
C1880 H1866 0.960 . S
C1880 H1867 0.960 . S
C1880 C1879 1.524 . S
C1881 C1878 1.403 . S
C1881 C1882 1.392 . S
C1881 C1885 1.495 . S
C1882 C1881 1.392 . S
C1882 C1883 1.385 . S
C1882 C1884 1.478 . S
C1883 H1877 0.930 . S
C1883 C1879 1.400 . S
C1883 C1882 1.385 . S
C1884 C1882 1.478 . S
C1884 C1886 1.381 . S
C1884 C1890 1.383 . S
C1885 C1881 1.495 . S
C1885 H1891 0.959 . S
C1885 H1892 0.961 . S
C1885 H1893 0.960 . S
C1886 C1884 1.381 . S
C1886 C1887 1.394 . S
C1886 H1894 0.930 . S
C1887 C1886 1.394 . S
C1887 C1888 1.383 . S
C1887 H1895 0.929 . S
C1888 C1887 1.383 . S
C1888 C1889 1.377 . S
C1889 H1873 0.930 . S
C1889 C1888 1.377 . S
C1889 C1890 1.379 . S
C1890 H1874 0.931 . S
C1890 C1884 1.383 . S
C1890 C1889 1.379 . S
H1891 C1885 0.959 . S
H1892 C1885 0.961 . S
H1893 C1885 0.960 . S
H1894 C1886 0.930 . S
H1895 C1887 0.929 . S
H1896 C1904 0.929 . S
H1897 C1906 0.930 . S
H1898 C1908 0.930 . S
H1899 C1911 0.929 . S
H1900 C1914 0.930 . S
H1901 C1916 0.960 . S
H1902 C1916 0.960 . S
H1903 C1916 0.960 . S
C1904 H1896 0.929 . S
C1904 C1905 1.377 . S
C1904 C1906 1.384 . S
C1905 C1904 1.377 . S
C1905 C1911 1.390 . S
C1906 H1897 0.930 . S
C1906 C1904 1.384 . S
C1906 C1907 1.372 . S
C1907 C1906 1.372 . S
C1907 C1908 1.400 . S
C1907 C1912 1.490 . S
C1908 H1898 0.930 . S
C1908 C1907 1.400 . S
C1908 C1911 1.386 . S
H1909 C1925 0.930 . S
H1910 C1926 0.931 . S
C1911 H1899 0.929 . S
C1911 C1905 1.390 . S
C1911 C1908 1.386 . S
C1912 C1907 1.490 . S
C1912 C1914 1.395 . S
C1912 C1915 1.403 . S
H1913 C1919 0.930 . S
C1914 H1900 0.930 . S
C1914 C1912 1.395 . S
C1914 C1917 1.403 . S
C1915 C1912 1.403 . S
C1915 C1916 1.524 . S
C1915 C1919 1.400 . S
C1916 H1901 0.960 . S
C1916 H1902 0.960 . S
C1916 H1903 0.960 . S
C1916 C1915 1.524 . S
C1917 C1914 1.403 . S
C1917 C1918 1.392 . S
C1917 C1921 1.495 . S
C1918 C1917 1.392 . S
C1918 C1919 1.385 . S
C1918 C1920 1.478 . S
C1919 H1913 0.930 . S
C1919 C1915 1.400 . S
C1919 C1918 1.385 . S
C1920 C1918 1.478 . S
C1920 C1922 1.381 . S
C1920 C1926 1.383 . S
C1921 C1917 1.495 . S
C1921 H1927 0.959 . S
C1921 H1928 0.961 . S
C1921 H1929 0.960 . S
C1922 C1920 1.381 . S
C1922 C1923 1.394 . S
C1922 H1930 0.930 . S
C1923 C1922 1.394 . S
C1923 C1924 1.383 . S
C1923 H1931 0.929 1_556 S
C1924 C1923 1.383 . S
C1924 C1925 1.377 . S
C1925 H1909 0.930 . S
C1925 C1924 1.377 . S
C1925 C1926 1.379 . S
C1926 H1910 0.931 . S
C1926 C1920 1.383 . S
C1926 C1925 1.379 . S
H1927 C1921 0.959 . S
H1928 C1921 0.961 . S
H1929 C1921 0.960 . S
H1930 C1922 0.930 . S
H1931 C1923 0.929 1_554 S
H1932 C1940 0.929 . S
H1933 C1942 0.930 . S
H1934 C1944 0.930 . S
H1935 C1947 0.929 . S
H1936 C1950 0.930 . S
H1937 C1952 0.960 . S
H1938 C1952 0.960 . S
H1939 C1952 0.960 . S
C1940 H1932 0.929 . S
C1940 C1941 1.377 . S
C1940 C1942 1.384 . S
C1941 C1940 1.377 . S
C1941 C1947 1.390 . S
C1942 H1933 0.930 . S
C1942 C1940 1.384 . S
C1942 C1943 1.372 . S
C1943 C1942 1.372 . S
C1943 C1944 1.400 . S
C1943 C1948 1.490 . S
C1944 H1934 0.930 . S
C1944 C1943 1.400 . S
C1944 C1947 1.386 . S
H1945 C1961 0.930 . S
H1946 C1962 0.931 . S
C1947 H1935 0.929 . S
C1947 C1941 1.390 . S
C1947 C1944 1.386 . S
C1948 C1943 1.490 . S
C1948 C1950 1.395 . S
C1948 C1951 1.403 . S
H1949 C1955 0.930 . S
C1950 H1936 0.930 . S
C1950 C1948 1.395 . S
C1950 C1953 1.403 . S
C1951 C1948 1.403 . S
C1951 C1952 1.524 . S
C1951 C1955 1.400 . S
C1952 H1937 0.960 . S
C1952 H1938 0.960 . S
C1952 H1939 0.960 . S
C1952 C1951 1.524 . S
C1953 C1950 1.403 . S
C1953 C1954 1.392 . S
C1953 C1957 1.495 . S
C1954 C1953 1.392 . S
C1954 C1955 1.385 . S
C1954 C1956 1.478 . S
C1955 H1949 0.930 . S
C1955 C1951 1.400 . S
C1955 C1954 1.385 . S
C1956 C1954 1.478 . S
C1956 C1958 1.381 . S
C1956 C1962 1.383 . S
C1957 C1953 1.495 . S
C1957 H1963 0.959 . S
C1957 H1964 0.961 . S
C1957 H1965 0.960 . S
C1958 C1956 1.381 . S
C1958 C1959 1.394 . S
C1958 H1966 0.930 . S
C1959 C1958 1.394 . S
C1959 C1960 1.383 . S
C1959 H1967 0.929 . S
C1960 C1959 1.383 . S
C1960 C1961 1.377 . S
C1961 H1945 0.930 . S
C1961 C1960 1.377 . S
C1961 C1962 1.379 . S
C1962 H1946 0.931 . S
C1962 C1956 1.383 . S
C1962 C1961 1.379 . S
H1963 C1957 0.959 . S
H1964 C1957 0.961 . S
H1965 C1957 0.960 . S
H1966 C1958 0.930 . S
H1967 C1959 0.929 . S
H1968 C1976 0.929 . S
H1969 C1978 0.930 . S
H1970 C1980 0.930 . S
H1971 C1983 0.929 . S
H1972 C1986 0.930 . S
H1973 C1988 0.960 . S
H1974 C1988 0.960 . S
H1975 C1988 0.960 . S
C1976 H1968 0.929 . S
C1976 C1977 1.377 . S
C1976 C1978 1.384 . S
C1977 C1976 1.377 . S
C1977 C1983 1.390 . S
C1978 H1969 0.930 . S
C1978 C1976 1.384 . S
C1978 C1979 1.372 . S
C1979 C1978 1.372 . S
C1979 C1980 1.400 . S
C1979 C1984 1.490 . S
C1980 H1970 0.930 . S
C1980 C1979 1.400 . S
C1980 C1983 1.386 . S
H1981 C1997 0.930 . S
H1982 C1998 0.931 . S
C1983 H1971 0.929 . S
C1983 C1977 1.390 . S
C1983 C1980 1.386 . S
C1984 C1979 1.490 . S
C1984 C1986 1.395 . S
C1984 C1987 1.403 . S
H1985 C1991 0.930 . S
C1986 H1972 0.930 . S
C1986 C1984 1.395 . S
C1986 C1989 1.403 . S
C1987 C1984 1.403 . S
C1987 C1988 1.524 . S
C1987 C1991 1.400 . S
C1988 H1973 0.960 . S
C1988 H1974 0.960 . S
C1988 H1975 0.960 . S
C1988 C1987 1.524 . S
C1989 C1986 1.403 . S
C1989 C1990 1.392 . S
C1989 C1993 1.495 . S
C1990 C1989 1.392 . S
C1990 C1991 1.385 . S
C1990 C1992 1.478 . S
C1991 H1985 0.930 . S
C1991 C1987 1.400 . S
C1991 C1990 1.385 . S
C1992 C1990 1.478 . S
C1992 C1994 1.381 . S
C1992 C1998 1.383 . S
C1993 C1989 1.495 . S
C1993 H1999 0.959 . S
C1993 H2000 0.961 . S
C1993 H2001 0.960 . S
C1994 C1992 1.381 . S
C1994 C1995 1.394 . S
C1994 H2002 0.930 . S
C1995 C1994 1.394 . S
C1995 C1996 1.383 . S
C1995 H2003 0.929 . S
C1996 C1995 1.383 . S
C1996 C1997 1.377 . S
C1997 H1981 0.930 . S
C1997 C1996 1.377 . S
C1997 C1998 1.379 . S
C1998 H1982 0.931 . S
C1998 C1992 1.383 . S
C1998 C1997 1.379 . S
H1999 C1993 0.959 . S
H2000 C1993 0.961 . S
H2001 C1993 0.960 . S
H2002 C1994 0.930 . S
H2003 C1995 0.929 . S
H2004 C2012 0.929 . S
H2005 C2014 0.930 . S
H2006 C2016 0.930 . S
H2007 C2019 0.929 . S
H2008 C2022 0.930 . S
H2009 C2024 0.960 . S
H2010 C2024 0.960 . S
H2011 C2024 0.960 . S
C2012 H2004 0.929 . S
C2012 C2013 1.377 . S
C2012 C2014 1.384 . S
C2013 C2012 1.377 . S
C2013 C2019 1.390 . S
C2014 H2005 0.930 . S
C2014 C2012 1.384 . S
C2014 C2015 1.372 . S
C2015 C2014 1.372 . S
C2015 C2016 1.400 . S
C2015 C2020 1.490 . S
C2016 H2006 0.930 . S
C2016 C2015 1.400 . S
C2016 C2019 1.386 . S
H2017 C2033 0.930 . S
H2018 C2034 0.931 . S
C2019 H2007 0.929 . S
C2019 C2013 1.390 . S
C2019 C2016 1.386 . S
C2020 C2015 1.490 . S
C2020 C2022 1.395 . S
C2020 C2023 1.403 . S
H2021 C2027 0.930 . S
C2022 H2008 0.930 . S
C2022 C2020 1.395 . S
C2022 C2025 1.403 . S
C2023 C2020 1.403 . S
C2023 C2024 1.524 . S
C2023 C2027 1.400 . S
C2024 H2009 0.960 . S
C2024 H2010 0.960 . S
C2024 H2011 0.960 . S
C2024 C2023 1.524 . S
C2025 C2022 1.403 . S
C2025 C2026 1.392 . S
C2025 C2029 1.495 . S
C2026 C2025 1.392 . S
C2026 C2027 1.385 . S
C2026 C2028 1.478 . S
C2027 H2021 0.930 . S
C2027 C2023 1.400 . S
C2027 C2026 1.385 . S
C2028 C2026 1.478 . S
C2028 C2030 1.381 . S
C2028 C2034 1.383 . S
C2029 C2025 1.495 . S
C2029 H2035 0.959 . S
C2029 H2036 0.961 . S
C2029 H2037 0.960 . S
C2030 C2028 1.381 . S
C2030 C2031 1.394 . S
C2030 H2038 0.930 . S
C2031 C2030 1.394 . S
C2031 C2032 1.383 . S
C2031 H2039 0.929 . S
C2032 C2031 1.383 . S
C2032 C2033 1.377 . S
C2033 H2017 0.930 . S
C2033 C2032 1.377 . S
C2033 C2034 1.379 . S
C2034 H2018 0.931 . S
C2034 C2028 1.383 . S
C2034 C2033 1.379 . S
H2035 C2029 0.959 . S
H2036 C2029 0.961 . S
H2037 C2029 0.960 . S
H2038 C2030 0.930 . S
H2039 C2031 0.929 . S
H2040 C2048 0.929 . S
H2041 C2050 0.930 . S
H2042 C2052 0.930 . S
H2043 C2055 0.929 . S
H2044 C2058 0.930 . S
H2045 C2060 0.960 . S
H2046 C2060 0.960 . S
H2047 C2060 0.960 . S
C2048 H2040 0.929 . S
C2048 C2049 1.377 . S
C2048 C2050 1.384 . S
C2049 C2048 1.377 . S
C2049 C2055 1.390 . S
C2050 H2041 0.930 . S
C2050 C2048 1.384 . S
C2050 C2051 1.372 . S
C2051 C2050 1.372 . S
C2051 C2052 1.400 . S
C2051 C2056 1.490 . S
C2052 H2042 0.930 . S
C2052 C2051 1.400 . S
C2052 C2055 1.386 . S
H2053 C2069 0.930 . S
H2054 C2070 0.931 . S
C2055 H2043 0.929 . S
C2055 C2049 1.390 . S
C2055 C2052 1.386 . S
C2056 C2051 1.490 . S
C2056 C2058 1.395 . S
C2056 C2059 1.403 . S
H2057 C2063 0.930 . S
C2058 H2044 0.930 . S
C2058 C2056 1.395 . S
C2058 C2061 1.403 . S
C2059 C2056 1.403 . S
C2059 C2060 1.524 . S
C2059 C2063 1.400 . S
C2060 H2045 0.960 . S
C2060 H2046 0.960 . S
C2060 H2047 0.960 . S
C2060 C2059 1.524 . S
C2061 C2058 1.403 . S
C2061 C2062 1.392 . S
C2061 C2065 1.495 . S
C2062 C2061 1.392 . S
C2062 C2063 1.385 . S
C2062 C2064 1.478 . S
C2063 H2057 0.930 . S
C2063 C2059 1.400 . S
C2063 C2062 1.385 . S
C2064 C2062 1.478 . S
C2064 C2066 1.381 . S
C2064 C2070 1.383 . S
C2065 C2061 1.495 . S
C2065 H2071 0.959 . S
C2065 H2072 0.961 . S
C2065 H2073 0.960 . S
C2066 C2064 1.381 . S
C2066 C2067 1.394 . S
C2066 H2074 0.930 . S
C2067 C2066 1.394 . S
C2067 C2068 1.383 . S
C2067 H2075 0.929 . S
C2068 C2067 1.383 . S
C2068 C2069 1.377 . S
C2069 H2053 0.930 . S
C2069 C2068 1.377 . S
C2069 C2070 1.379 . S
C2070 H2054 0.931 . S
C2070 C2064 1.383 . S
C2070 C2069 1.379 . S
H2071 C2065 0.959 . S
H2072 C2065 0.961 . S
H2073 C2065 0.960 . S
H2074 C2066 0.930 . S
H2075 C2067 0.929 . S
H2076 C2084 0.929 . S
H2077 C2086 0.930 . S
H2078 C2088 0.930 . S
H2079 C2091 0.929 . S
H2080 C2094 0.930 . S
H2081 C2096 0.960 . S
H2082 C2096 0.960 . S
H2083 C2096 0.960 . S
C2084 H2076 0.929 . S
C2084 C2085 1.377 . S
C2084 C2086 1.384 . S
C2085 C2084 1.377 . S
C2085 C2091 1.390 . S
C2086 H2077 0.930 . S
C2086 C2084 1.384 . S
C2086 C2087 1.372 . S
C2087 C2086 1.372 . S
C2087 C2088 1.400 . S
C2087 C2092 1.490 . S
C2088 H2078 0.930 . S
C2088 C2087 1.400 . S
C2088 C2091 1.386 . S
H2089 C2105 0.930 . S
H2090 C2106 0.931 . S
C2091 H2079 0.929 . S
C2091 C2085 1.390 . S
C2091 C2088 1.386 . S
C2092 C2087 1.490 . S
C2092 C2094 1.395 . S
C2092 C2095 1.403 . S
H2093 C2099 0.930 . S
C2094 H2080 0.930 . S
C2094 C2092 1.395 . S
C2094 C2097 1.403 . S
C2095 C2092 1.403 . S
C2095 C2096 1.524 . S
C2095 C2099 1.400 . S
C2096 H2081 0.960 . S
C2096 H2082 0.960 . S
C2096 H2083 0.960 . S
C2096 C2095 1.524 . S
C2097 C2094 1.403 . S
C2097 C2098 1.392 . S
C2097 C2101 1.495 . S
C2098 C2097 1.392 . S
C2098 C2099 1.385 . S
C2098 C2100 1.478 . S
C2099 H2093 0.930 . S
C2099 C2095 1.400 . S
C2099 C2098 1.385 . S
C2100 C2098 1.478 . S
C2100 C2102 1.381 . S
C2100 C2106 1.383 . S
C2101 C2097 1.495 . S
C2101 H2107 0.959 . S
C2101 H2108 0.961 . S
C2101 H2109 0.960 . S
C2102 C2100 1.381 . S
C2102 C2103 1.394 . S
C2102 H2110 0.930 . S
C2103 C2102 1.394 . S
C2103 C2104 1.383 . S
C2103 H2111 0.929 . S
C2104 C2103 1.383 . S
C2104 C2105 1.377 . S
C2105 H2089 0.930 . S
C2105 C2104 1.377 . S
C2105 C2106 1.379 . S
C2106 H2090 0.931 . S
C2106 C2100 1.383 . S
C2106 C2105 1.379 . S
H2107 C2101 0.959 . S
H2108 C2101 0.961 . S
H2109 C2101 0.960 . S
H2110 C2102 0.930 . S
H2111 C2103 0.929 . S
H2112 C2120 0.929 . S
H2113 C2122 0.930 . S
H2114 C2124 0.930 . S
H2115 C2127 0.929 . S
H2116 C2130 0.930 . S
H2117 C2132 0.960 . S
H2118 C2132 0.960 . S
H2119 C2132 0.960 . S
C2120 H2112 0.929 . S
C2120 C2121 1.377 . S
C2120 C2122 1.384 . S
C2121 C2120 1.377 . S
C2121 C2127 1.390 . S
C2122 H2113 0.930 . S
C2122 C2120 1.384 . S
C2122 C2123 1.372 . S
C2123 C2122 1.372 . S
C2123 C2124 1.400 . S
C2123 C2128 1.490 . S
C2124 H2114 0.930 . S
C2124 C2123 1.400 . S
C2124 C2127 1.386 . S
H2125 C2141 0.930 . S
H2126 C2142 0.931 . S
C2127 H2115 0.929 . S
C2127 C2121 1.390 . S
C2127 C2124 1.386 . S
C2128 C2123 1.490 . S
C2128 C2130 1.395 . S
C2128 C2131 1.403 . S
H2129 C2135 0.930 . S
C2130 H2116 0.930 . S
C2130 C2128 1.395 . S
C2130 C2133 1.403 . S
C2131 C2128 1.403 . S
C2131 C2132 1.524 . S
C2131 C2135 1.400 . S
C2132 H2117 0.960 . S
C2132 H2118 0.960 . S
C2132 H2119 0.960 . S
C2132 C2131 1.524 . S
C2133 C2130 1.403 . S
C2133 C2134 1.392 . S
C2133 C2137 1.495 . S
C2134 C2133 1.392 . S
C2134 C2135 1.385 . S
C2134 C2136 1.478 . S
C2135 H2129 0.930 . S
C2135 C2131 1.400 . S
C2135 C2134 1.385 . S
C2136 C2134 1.478 . S
C2136 C2138 1.381 . S
C2136 C2142 1.383 . S
C2137 C2133 1.495 . S
C2137 H2143 0.959 . S
C2137 H2144 0.961 . S
C2137 H2145 0.960 . S
C2138 C2136 1.381 . S
C2138 C2139 1.394 . S
C2138 H2146 0.930 . S
C2139 C2138 1.394 . S
C2139 C2140 1.383 . S
C2139 H2147 0.929 . S
C2140 C2139 1.383 . S
C2140 C2141 1.377 . S
C2141 H2125 0.930 . S
C2141 C2140 1.377 . S
C2141 C2142 1.379 . S
C2142 H2126 0.931 . S
C2142 C2136 1.383 . S
C2142 C2141 1.379 . S
H2143 C2137 0.959 . S
H2144 C2137 0.961 . S
H2145 C2137 0.960 . S
H2146 C2138 0.930 . S
H2147 C2139 0.929 . S
H2148 C2156 0.929 . S
H2149 C2158 0.930 . S
H2150 C2160 0.930 . S
H2151 C2163 0.929 . S
H2152 C2166 0.930 . S
H2153 C2168 0.960 . S
H2154 C2168 0.960 . S
H2155 C2168 0.960 . S
C2156 H2148 0.929 . S
C2156 C2157 1.377 . S
C2156 C2158 1.384 . S
C2157 C2156 1.377 . S
C2157 C2163 1.390 . S
C2158 H2149 0.930 . S
C2158 C2156 1.384 . S
C2158 C2159 1.372 . S
C2159 C2158 1.372 . S
C2159 C2160 1.400 . S
C2159 C2164 1.490 . S
C2160 H2150 0.930 . S
C2160 C2159 1.400 . S
C2160 C2163 1.386 . S
H2161 C2177 0.930 . S
H2162 C2178 0.931 . S
C2163 H2151 0.929 . S
C2163 C2157 1.390 . S
C2163 C2160 1.386 . S
C2164 C2159 1.490 . S
C2164 C2166 1.395 . S
C2164 C2167 1.403 . S
H2165 C2171 0.930 . S
C2166 H2152 0.930 . S
C2166 C2164 1.395 . S
C2166 C2169 1.403 . S
C2167 C2164 1.403 . S
C2167 C2168 1.524 . S
C2167 C2171 1.400 . S
C2168 H2153 0.960 . S
C2168 H2154 0.960 . S
C2168 H2155 0.960 . S
C2168 C2167 1.524 . S
C2169 C2166 1.403 . S
C2169 C2170 1.392 . S
C2169 C2173 1.495 . S
C2170 C2169 1.392 . S
C2170 C2171 1.385 . S
C2170 C2172 1.478 . S
C2171 H2165 0.930 . S
C2171 C2167 1.400 . S
C2171 C2170 1.385 . S
C2172 C2170 1.478 . S
C2172 C2174 1.381 . S
C2172 C2178 1.383 . S
C2173 C2169 1.495 . S
C2173 H2179 0.959 . S
C2173 H2180 0.961 . S
C2173 H2181 0.960 . S
C2174 C2172 1.381 . S
C2174 C2175 1.394 . S
C2174 H2182 0.930 . S
C2175 C2174 1.394 . S
C2175 C2176 1.383 . S
C2175 H2183 0.929 . S
C2176 C2175 1.383 . S
C2176 C2177 1.377 . S
C2177 H2161 0.930 . S
C2177 C2176 1.377 . S
C2177 C2178 1.379 . S
C2178 H2162 0.931 . S
C2178 C2172 1.383 . S
C2178 C2177 1.379 . S
H2179 C2173 0.959 . S
H2180 C2173 0.961 . S
H2181 C2173 0.960 . S
H2182 C2174 0.930 . S
H2183 C2175 0.929 . S
H2184 C2192 0.929 . S
H2185 C2194 0.930 . S
H2186 C2196 0.930 . S
H2187 C2199 0.929 . S
H2188 C2202 0.930 . S
H2189 C2204 0.960 . S
H2190 C2204 0.960 . S
H2191 C2204 0.960 . S
C2192 H2184 0.929 . S
C2192 C2193 1.377 . S
C2192 C2194 1.384 . S
C2193 C2192 1.377 . S
C2193 C2199 1.390 . S
C2194 H2185 0.930 . S
C2194 C2192 1.384 . S
C2194 C2195 1.372 . S
C2195 C2194 1.372 . S
C2195 C2196 1.400 . S
C2195 C2200 1.490 . S
C2196 H2186 0.930 . S
C2196 C2195 1.400 . S
C2196 C2199 1.386 . S
H2197 C2213 0.930 . S
H2198 C2214 0.931 . S
C2199 H2187 0.929 . S
C2199 C2193 1.390 . S
C2199 C2196 1.386 . S
C2200 C2195 1.490 . S
C2200 C2202 1.395 . S
C2200 C2203 1.403 . S
H2201 C2207 0.930 . S
C2202 H2188 0.930 . S
C2202 C2200 1.395 . S
C2202 C2205 1.403 . S
C2203 C2200 1.403 . S
C2203 C2204 1.524 . S
C2203 C2207 1.400 . S
C2204 H2189 0.960 . S
C2204 H2190 0.960 . S
C2204 H2191 0.960 . S
C2204 C2203 1.524 . S
C2205 C2202 1.403 . S
C2205 C2206 1.392 . S
C2205 C2209 1.495 . S
C2206 C2205 1.392 . S
C2206 C2207 1.385 . S
C2206 C2208 1.478 . S
C2207 H2201 0.930 . S
C2207 C2203 1.400 . S
C2207 C2206 1.385 . S
C2208 C2206 1.478 . S
C2208 C2210 1.381 . S
C2208 C2214 1.383 . S
C2209 C2205 1.495 . S
C2209 H2215 0.959 . S
C2209 H2216 0.961 . S
C2209 H2217 0.960 . S
C2210 C2208 1.381 . S
C2210 C2211 1.394 . S
C2210 H2218 0.930 . S
C2211 C2210 1.394 . S
C2211 C2212 1.383 . S
C2211 H2219 0.929 . S
C2212 C2211 1.383 . S
C2212 C2213 1.377 . S
C2213 H2197 0.930 . S
C2213 C2212 1.377 . S
C2213 C2214 1.379 . S
C2214 H2198 0.931 . S
C2214 C2208 1.383 . S
C2214 C2213 1.379 . S
H2215 C2209 0.959 . S
H2216 C2209 0.961 . S
H2217 C2209 0.960 . S
H2218 C2210 0.930 . S
H2219 C2211 0.929 . S
H2220 C2228 0.929 . S
H2221 C2230 0.930 . S
H2222 C2232 0.930 . S
H2223 C2235 0.929 . S
H2224 C2238 0.930 . S
H2225 C2240 0.960 . S
H2226 C2240 0.960 . S
H2227 C2240 0.960 . S
C2228 H2220 0.929 . S
C2228 C2229 1.377 . S
C2228 C2230 1.384 . S
C2229 C2228 1.377 . S
C2229 C2235 1.390 . S
C2230 H2221 0.930 . S
C2230 C2228 1.384 . S
C2230 C2231 1.372 . S
C2231 C2230 1.372 . S
C2231 C2232 1.400 . S
C2231 C2236 1.490 . S
C2232 H2222 0.930 . S
C2232 C2231 1.400 . S
C2232 C2235 1.386 . S
H2233 C2249 0.930 . S
H2234 C2250 0.931 . S
C2235 H2223 0.929 . S
C2235 C2229 1.390 . S
C2235 C2232 1.386 . S
C2236 C2231 1.490 . S
C2236 C2238 1.395 . S
C2236 C2239 1.403 . S
H2237 C2243 0.930 . S
C2238 H2224 0.930 . S
C2238 C2236 1.395 . S
C2238 C2241 1.403 . S
C2239 C2236 1.403 . S
C2239 C2240 1.524 . S
C2239 C2243 1.400 . S
C2240 H2225 0.960 . S
C2240 H2226 0.960 . S
C2240 H2227 0.960 . S
C2240 C2239 1.524 . S
C2241 C2238 1.403 . S
C2241 C2242 1.392 . S
C2241 C2245 1.495 . S
C2242 C2241 1.392 . S
C2242 C2243 1.385 . S
C2242 C2244 1.478 . S
C2243 H2237 0.930 . S
C2243 C2239 1.400 . S
C2243 C2242 1.385 . S
C2244 C2242 1.478 . S
C2244 C2246 1.381 . S
C2244 C2250 1.383 . S
C2245 C2241 1.495 . S
C2245 H2251 0.959 . S
C2245 H2252 0.961 . S
C2245 H2253 0.960 . S
C2246 C2244 1.381 . S
C2246 C2247 1.394 . S
C2246 H2254 0.930 . S
C2247 C2246 1.394 . S
C2247 C2248 1.383 . S
C2247 H2255 0.929 . S
C2248 C2247 1.383 . S
C2248 C2249 1.377 . S
C2249 H2233 0.930 . S
C2249 C2248 1.377 . S
C2249 C2250 1.379 . S
C2250 H2234 0.931 . S
C2250 C2244 1.383 . S
C2250 C2249 1.379 . S
H2251 C2245 0.959 . S
H2252 C2245 0.961 . S
H2253 C2245 0.960 . S
H2254 C2246 0.930 . S
H2255 C2247 0.929 . S
H2256 C2264 0.929 . S
H2257 C2266 0.930 . S
H2258 C2268 0.930 . S
H2259 C2271 0.929 . S
H2260 C2274 0.930 . S
H2261 C2276 0.960 . S
H2262 C2276 0.960 . S
H2263 C2276 0.960 . S
C2264 H2256 0.929 . S
C2264 C2265 1.377 . S
C2264 C2266 1.384 . S
C2265 C2264 1.377 . S
C2265 C2271 1.390 . S
C2266 H2257 0.930 . S
C2266 C2264 1.384 . S
C2266 C2267 1.372 . S
C2267 C2266 1.372 . S
C2267 C2268 1.400 . S
C2267 C2272 1.490 . S
C2268 H2258 0.930 . S
C2268 C2267 1.400 . S
C2268 C2271 1.386 . S
H2269 C2285 0.930 . S
H2270 C2286 0.931 . S
C2271 H2259 0.929 . S
C2271 C2265 1.390 . S
C2271 C2268 1.386 . S
C2272 C2267 1.490 . S
C2272 C2274 1.395 . S
C2272 C2275 1.403 . S
H2273 C2279 0.930 . S
C2274 H2260 0.930 . S
C2274 C2272 1.395 . S
C2274 C2277 1.403 . S
C2275 C2272 1.403 . S
C2275 C2276 1.524 . S
C2275 C2279 1.400 . S
C2276 H2261 0.960 . S
C2276 H2262 0.960 . S
C2276 H2263 0.960 . S
C2276 C2275 1.524 . S
C2277 C2274 1.403 . S
C2277 C2278 1.392 . S
C2277 C2281 1.495 . S
C2278 C2277 1.392 . S
C2278 C2279 1.385 . S
C2278 C2280 1.478 . S
C2279 H2273 0.930 . S
C2279 C2275 1.400 . S
C2279 C2278 1.385 . S
C2280 C2278 1.478 . S
C2280 C2282 1.381 . S
C2280 C2286 1.383 . S
C2281 C2277 1.495 . S
C2281 H2287 0.959 . S
C2281 H2288 0.961 . S
C2281 H2289 0.960 . S
C2282 C2280 1.381 . S
C2282 C2283 1.394 . S
C2282 H2290 0.930 . S
C2283 C2282 1.394 . S
C2283 C2284 1.383 . S
C2283 H2291 0.929 . S
C2284 C2283 1.383 . S
C2284 C2285 1.377 . S
C2285 H2269 0.930 . S
C2285 C2284 1.377 . S
C2285 C2286 1.379 . S
C2286 H2270 0.931 . S
C2286 C2280 1.383 . S
C2286 C2285 1.379 . S
H2287 C2281 0.959 . S
H2288 C2281 0.961 . S
H2289 C2281 0.960 . S
H2290 C2282 0.930 . S
H2291 C2283 0.929 . S
H2292 C2300 0.929 . S
H2293 C2302 0.930 . S
H2294 C2304 0.930 . S
H2295 C2307 0.929 . S
H2296 C2310 0.930 . S
H2297 C2312 0.960 . S
H2298 C2312 0.960 . S
H2299 C2312 0.960 . S
C2300 H2292 0.929 . S
C2300 C2301 1.377 . S
C2300 C2302 1.384 . S
C2301 C2300 1.377 . S
C2301 C2307 1.390 . S
C2302 H2293 0.930 . S
C2302 C2300 1.384 . S
C2302 C2303 1.372 . S
C2303 C2302 1.372 . S
C2303 C2304 1.400 . S
C2303 C2308 1.490 . S
C2304 H2294 0.930 . S
C2304 C2303 1.400 . S
C2304 C2307 1.386 . S
H2305 C2321 0.930 . S
H2306 C2322 0.931 . S
C2307 H2295 0.929 . S
C2307 C2301 1.390 . S
C2307 C2304 1.386 . S
C2308 C2303 1.490 . S
C2308 C2310 1.395 . S
C2308 C2311 1.403 . S
H2309 C2315 0.930 . S
C2310 H2296 0.930 . S
C2310 C2308 1.395 . S
C2310 C2313 1.403 . S
C2311 C2308 1.403 . S
C2311 C2312 1.524 . S
C2311 C2315 1.400 . S
C2312 H2297 0.960 . S
C2312 H2298 0.960 . S
C2312 H2299 0.960 . S
C2312 C2311 1.524 . S
C2313 C2310 1.403 . S
C2313 C2314 1.392 . S
C2313 C2317 1.495 . S
C2314 C2313 1.392 . S
C2314 C2315 1.385 . S
C2314 C2316 1.478 . S
C2315 H2309 0.930 . S
C2315 C2311 1.400 . S
C2315 C2314 1.385 . S
C2316 C2314 1.478 . S
C2316 C2318 1.381 . S
C2316 C2322 1.383 . S
C2317 C2313 1.495 . S
C2317 H2323 0.959 . S
C2317 H2324 0.961 . S
C2317 H2325 0.960 . S
C2318 C2316 1.381 . S
C2318 C2319 1.394 . S
C2318 H2326 0.930 . S
C2319 C2318 1.394 . S
C2319 C2320 1.383 . S
C2319 H2327 0.929 . S
C2320 C2319 1.383 . S
C2320 C2321 1.377 . S
C2321 H2305 0.930 . S
C2321 C2320 1.377 . S
C2321 C2322 1.379 . S
C2322 H2306 0.931 . S
C2322 C2316 1.383 . S
C2322 C2321 1.379 . S
H2323 C2317 0.959 . S
H2324 C2317 0.961 . S
H2325 C2317 0.960 . S
H2326 C2318 0.930 . S
H2327 C2319 0.929 . S
H2328 C2336 0.929 . S
H2329 C2338 0.930 . S
H2330 C2340 0.930 . S
H2331 C2343 0.929 . S
H2332 C2346 0.930 . S
H2333 C2348 0.960 . S
H2334 C2348 0.960 . S
H2335 C2348 0.960 . S
C2336 H2328 0.929 . S
C2336 C2337 1.377 . S
C2336 C2338 1.384 . S
C2337 C2336 1.377 . S
C2337 C2343 1.390 . S
C2338 H2329 0.930 . S
C2338 C2336 1.384 . S
C2338 C2339 1.372 . S
C2339 C2338 1.372 . S
C2339 C2340 1.400 . S
C2339 C2344 1.490 . S
C2340 H2330 0.930 . S
C2340 C2339 1.400 . S
C2340 C2343 1.386 . S
H2341 C2357 0.930 . S
H2342 C2358 0.931 . S
C2343 H2331 0.929 . S
C2343 C2337 1.390 . S
C2343 C2340 1.386 . S
C2344 C2339 1.490 . S
C2344 C2346 1.395 . S
C2344 C2347 1.403 . S
H2345 C2351 0.930 . S
C2346 H2332 0.930 . S
C2346 C2344 1.395 . S
C2346 C2349 1.403 . S
C2347 C2344 1.403 . S
C2347 C2348 1.524 . S
C2347 C2351 1.400 . S
C2348 H2333 0.960 . S
C2348 H2334 0.960 . S
C2348 H2335 0.960 . S
C2348 C2347 1.524 . S
C2349 C2346 1.403 . S
C2349 C2350 1.392 . S
C2349 C2353 1.495 . S
C2350 C2349 1.392 . S
C2350 C2351 1.385 . S
C2350 C2352 1.478 . S
C2351 H2345 0.930 . S
C2351 C2347 1.400 . S
C2351 C2350 1.385 . S
C2352 C2350 1.478 . S
C2352 C2354 1.381 . S
C2352 C2358 1.383 . S
C2353 C2349 1.495 . S
C2353 H2359 0.959 . S
C2353 H2360 0.961 . S
C2353 H2361 0.960 . S
C2354 C2352 1.381 . S
C2354 C2355 1.394 . S
C2354 H2362 0.930 . S
C2355 C2354 1.394 . S
C2355 C2356 1.383 . S
C2355 H2363 0.929 . S
C2356 C2355 1.383 . S
C2356 C2357 1.377 . S
C2357 H2341 0.930 . S
C2357 C2356 1.377 . S
C2357 C2358 1.379 . S
C2358 H2342 0.931 . S
C2358 C2352 1.383 . S
C2358 C2357 1.379 . S
H2359 C2353 0.959 . S
H2360 C2353 0.961 . S
H2361 C2353 0.960 . S
H2362 C2354 0.930 . S
H2363 C2355 0.929 . S
H2364 C2372 0.929 . S
H2365 C2374 0.930 . S
H2366 C2376 0.930 . S
H2367 C2379 0.929 . S
H2368 C2382 0.930 . S
H2369 C2384 0.960 . S
H2370 C2384 0.960 . S
H2371 C2384 0.960 . S
C2372 H2364 0.929 . S
C2372 C2373 1.377 . S
C2372 C2374 1.384 . S
C2373 C2372 1.377 . S
C2373 C2379 1.390 . S
C2374 H2365 0.930 . S
C2374 C2372 1.384 . S
C2374 C2375 1.372 . S
C2375 C2374 1.372 . S
C2375 C2376 1.400 . S
C2375 C2380 1.490 . S
C2376 H2366 0.930 . S
C2376 C2375 1.400 . S
C2376 C2379 1.386 . S
H2377 C2393 0.930 . S
H2378 C2394 0.931 . S
C2379 H2367 0.929 . S
C2379 C2373 1.390 . S
C2379 C2376 1.386 . S
C2380 C2375 1.490 . S
C2380 C2382 1.395 . S
C2380 C2383 1.403 . S
H2381 C2387 0.930 . S
C2382 H2368 0.930 . S
C2382 C2380 1.395 . S
C2382 C2385 1.403 . S
C2383 C2380 1.403 . S
C2383 C2384 1.524 . S
C2383 C2387 1.400 . S
C2384 H2369 0.960 . S
C2384 H2370 0.960 . S
C2384 H2371 0.960 . S
C2384 C2383 1.524 . S
C2385 C2382 1.403 . S
C2385 C2386 1.392 . S
C2385 C2389 1.495 . S
C2386 C2385 1.392 . S
C2386 C2387 1.385 . S
C2386 C2388 1.478 . S
C2387 H2381 0.930 . S
C2387 C2383 1.400 . S
C2387 C2386 1.385 . S
C2388 C2386 1.478 . S
C2388 C2390 1.381 . S
C2388 C2394 1.383 . S
C2389 C2385 1.495 . S
C2389 H2395 0.959 . S
C2389 H2396 0.961 . S
C2389 H2397 0.960 . S
C2390 C2388 1.381 . S
C2390 C2391 1.394 . S
C2390 H2398 0.930 . S
C2391 C2390 1.394 . S
C2391 C2392 1.383 . S
C2391 H2399 0.929 . S
C2392 C2391 1.383 . S
C2392 C2393 1.377 . S
C2393 H2377 0.930 . S
C2393 C2392 1.377 . S
C2393 C2394 1.379 . S
C2394 H2378 0.931 . S
C2394 C2388 1.383 . S
C2394 C2393 1.379 . S
H2395 C2389 0.959 . S
H2396 C2389 0.961 . S
H2397 C2389 0.960 . S
H2398 C2390 0.930 . S
H2399 C2391 0.929 . S
H2400 C2408 0.929 . S
H2401 C2410 0.930 . S
H2402 C2412 0.930 . S
H2403 C2415 0.929 . S
H2404 C2418 0.930 . S
H2405 C2420 0.960 . S
H2406 C2420 0.960 . S
H2407 C2420 0.960 . S
C2408 H2400 0.929 . S
C2408 C2409 1.377 . S
C2408 C2410 1.384 . S
C2409 C2408 1.377 . S
C2409 C2415 1.390 . S
C2410 H2401 0.930 . S
C2410 C2408 1.384 . S
C2410 C2411 1.372 . S
C2411 C2410 1.372 . S
C2411 C2412 1.400 . S
C2411 C2416 1.490 . S
C2412 H2402 0.930 . S
C2412 C2411 1.400 . S
C2412 C2415 1.386 . S
H2413 C2429 0.930 . S
H2414 C2430 0.931 . S
C2415 H2403 0.929 . S
C2415 C2409 1.390 . S
C2415 C2412 1.386 . S
C2416 C2411 1.490 . S
C2416 C2418 1.395 . S
C2416 C2419 1.403 . S
H2417 C2423 0.930 . S
C2418 H2404 0.930 . S
C2418 C2416 1.395 . S
C2418 C2421 1.403 . S
C2419 C2416 1.403 . S
C2419 C2420 1.524 . S
C2419 C2423 1.400 . S
C2420 H2405 0.960 . S
C2420 H2406 0.960 . S
C2420 H2407 0.960 . S
C2420 C2419 1.524 . S
C2421 C2418 1.403 . S
C2421 C2422 1.392 . S
C2421 C2425 1.495 . S
C2422 C2421 1.392 . S
C2422 C2423 1.385 . S
C2422 C2424 1.478 . S
C2423 H2417 0.930 . S
C2423 C2419 1.400 . S
C2423 C2422 1.385 . S
C2424 C2422 1.478 . S
C2424 C2426 1.381 . S
C2424 C2430 1.383 . S
C2425 C2421 1.495 . S
C2425 H2431 0.959 . S
C2425 H2432 0.961 . S
C2425 H2433 0.960 . S
C2426 C2424 1.381 . S
C2426 C2427 1.394 . S
C2426 H2434 0.930 . S
C2427 C2426 1.394 . S
C2427 C2428 1.383 . S
C2427 H2435 0.929 . S
C2428 C2427 1.383 . S
C2428 C2429 1.377 . S
C2429 H2413 0.930 . S
C2429 C2428 1.377 . S
C2429 C2430 1.379 . S
C2430 H2414 0.931 . S
C2430 C2424 1.383 . S
C2430 C2429 1.379 . S
H2431 C2425 0.959 . S
H2432 C2425 0.961 . S
H2433 C2425 0.960 . S
H2434 C2426 0.930 . S
H2435 C2427 0.929 . S
H2436 C2444 0.929 . S
H2437 C2446 0.930 . S
H2438 C2448 0.930 . S
H2439 C2451 0.929 . S
H2440 C2454 0.930 . S
H2441 C2456 0.960 . S
H2442 C2456 0.960 . S
H2443 C2456 0.960 . S
C2444 H2436 0.929 . S
C2444 C2445 1.377 . S
C2444 C2446 1.384 . S
C2445 C2444 1.377 . S
C2445 C2451 1.390 . S
C2446 H2437 0.930 . S
C2446 C2444 1.384 . S
C2446 C2447 1.372 . S
C2447 C2446 1.372 . S
C2447 C2448 1.400 . S
C2447 C2452 1.490 . S
C2448 H2438 0.930 . S
C2448 C2447 1.400 . S
C2448 C2451 1.386 . S
H2449 C2465 0.930 . S
H2450 C2466 0.931 . S
C2451 H2439 0.929 . S
C2451 C2445 1.390 . S
C2451 C2448 1.386 . S
C2452 C2447 1.490 . S
C2452 C2454 1.395 . S
C2452 C2455 1.403 . S
H2453 C2459 0.930 . S
C2454 H2440 0.930 . S
C2454 C2452 1.395 . S
C2454 C2457 1.403 . S
C2455 C2452 1.403 . S
C2455 C2456 1.524 . S
C2455 C2459 1.400 . S
C2456 H2441 0.960 . S
C2456 H2442 0.960 . S
C2456 H2443 0.960 . S
C2456 C2455 1.524 . S
C2457 C2454 1.403 . S
C2457 C2458 1.392 . S
C2457 C2461 1.495 . S
C2458 C2457 1.392 . S
C2458 C2459 1.385 . S
C2458 C2460 1.478 . S
C2459 H2453 0.930 . S
C2459 C2455 1.400 . S
C2459 C2458 1.385 . S
C2460 C2458 1.478 . S
C2460 C2462 1.381 . S
C2460 C2466 1.383 . S
C2461 C2457 1.495 . S
C2461 H2467 0.959 . S
C2461 H2468 0.961 . S
C2461 H2469 0.960 . S
C2462 C2460 1.381 . S
C2462 C2463 1.394 . S
C2462 H2470 0.930 . S
C2463 C2462 1.394 . S
C2463 C2464 1.383 . S
C2463 H2471 0.929 . S
C2464 C2463 1.383 . S
C2464 C2465 1.377 . S
C2465 H2449 0.930 . S
C2465 C2464 1.377 . S
C2465 C2466 1.379 . S
C2466 H2450 0.931 . S
C2466 C2460 1.383 . S
C2466 C2465 1.379 . S
H2467 C2461 0.959 . S
H2468 C2461 0.961 . S
H2469 C2461 0.960 . S
H2470 C2462 0.930 . S
H2471 C2463 0.929 . S
H2472 C2480 0.929 . S
H2473 C2482 0.930 . S
H2474 C2484 0.930 . S
H2475 C2487 0.929 . S
H2476 C2490 0.930 . S
H2477 C2492 0.960 . S
H2478 C2492 0.960 . S
H2479 C2492 0.960 . S
C2480 H2472 0.929 . S
C2480 C2481 1.377 . S
C2480 C2482 1.384 . S
C2481 C2480 1.377 . S
C2481 C2487 1.390 . S
C2482 H2473 0.930 . S
C2482 C2480 1.384 . S
C2482 C2483 1.372 . S
C2483 C2482 1.372 . S
C2483 C2484 1.400 . S
C2483 C2488 1.490 . S
C2484 H2474 0.930 . S
C2484 C2483 1.400 . S
C2484 C2487 1.386 . S
H2485 C2501 0.930 . S
H2486 C2502 0.931 . S
C2487 H2475 0.929 . S
C2487 C2481 1.390 . S
C2487 C2484 1.386 . S
C2488 C2483 1.490 . S
C2488 C2490 1.395 . S
C2488 C2491 1.403 . S
H2489 C2495 0.930 . S
C2490 H2476 0.930 . S
C2490 C2488 1.395 . S
C2490 C2493 1.403 . S
C2491 C2488 1.403 . S
C2491 C2492 1.524 . S
C2491 C2495 1.400 . S
C2492 H2477 0.960 . S
C2492 H2478 0.960 . S
C2492 H2479 0.960 . S
C2492 C2491 1.524 . S
C2493 C2490 1.403 . S
C2493 C2494 1.392 . S
C2493 C2497 1.495 . S
C2494 C2493 1.392 . S
C2494 C2495 1.385 . S
C2494 C2496 1.478 . S
C2495 H2489 0.930 . S
C2495 C2491 1.400 . S
C2495 C2494 1.385 . S
C2496 C2494 1.478 . S
C2496 C2498 1.381 . S
C2496 C2502 1.383 . S
C2497 C2493 1.495 . S
C2497 H2503 0.959 . S
C2497 H2504 0.961 . S
C2497 H2505 0.960 . S
C2498 C2496 1.381 . S
C2498 C2499 1.394 . S
C2498 H2506 0.930 . S
C2499 C2498 1.394 . S
C2499 C2500 1.383 . S
C2499 H2507 0.929 . S
C2500 C2499 1.383 . S
C2500 C2501 1.377 . S
C2501 H2485 0.930 . S
C2501 C2500 1.377 . S
C2501 C2502 1.379 . S
C2502 H2486 0.931 . S
C2502 C2496 1.383 . S
C2502 C2501 1.379 . S
H2503 C2497 0.959 . S
H2504 C2497 0.961 . S
H2505 C2497 0.960 . S
H2506 C2498 0.930 . S
H2507 C2499 0.929 . S
H2508 C2516 0.929 . S
H2509 C2518 0.930 . S
H2510 C2520 0.930 . S
H2511 C2523 0.929 . S
H2512 C2526 0.930 . S
H2513 C2528 0.960 . S
H2514 C2528 0.960 . S
H2515 C2528 0.960 . S
C2516 H2508 0.929 . S
C2516 C2517 1.377 . S
C2516 C2518 1.384 . S
C2517 C2516 1.377 . S
C2517 C2523 1.390 . S
C2518 H2509 0.930 . S
C2518 C2516 1.384 . S
C2518 C2519 1.372 . S
C2519 C2518 1.372 . S
C2519 C2520 1.400 . S
C2519 C2524 1.490 . S
C2520 H2510 0.930 . S
C2520 C2519 1.400 . S
C2520 C2523 1.386 . S
H2521 C2537 0.930 . S
H2522 C2538 0.931 . S
C2523 H2511 0.929 . S
C2523 C2517 1.390 . S
C2523 C2520 1.386 . S
C2524 C2519 1.490 . S
C2524 C2526 1.395 . S
C2524 C2527 1.403 . S
H2525 C2531 0.930 . S
C2526 H2512 0.930 . S
C2526 C2524 1.395 . S
C2526 C2529 1.403 . S
C2527 C2524 1.403 . S
C2527 C2528 1.524 . S
C2527 C2531 1.400 . S
C2528 H2513 0.960 . S
C2528 H2514 0.960 . S
C2528 H2515 0.960 . S
C2528 C2527 1.524 . S
C2529 C2526 1.403 . S
C2529 C2530 1.392 . S
C2529 C2533 1.495 . S
C2530 C2529 1.392 . S
C2530 C2531 1.385 . S
C2530 C2532 1.478 . S
C2531 H2525 0.930 . S
C2531 C2527 1.400 . S
C2531 C2530 1.385 . S
C2532 C2530 1.478 . S
C2532 C2534 1.381 . S
C2532 C2538 1.383 . S
C2533 C2529 1.495 . S
C2533 H2539 0.959 . S
C2533 H2540 0.961 . S
C2533 H2541 0.960 . S
C2534 C2532 1.381 . S
C2534 C2535 1.394 . S
C2534 H2542 0.930 . S
C2535 C2534 1.394 . S
C2535 C2536 1.383 . S
C2535 H2543 0.929 . S
C2536 C2535 1.383 . S
C2536 C2537 1.377 . S
C2537 H2521 0.930 . S
C2537 C2536 1.377 . S
C2537 C2538 1.379 . S
C2538 H2522 0.931 . S
C2538 C2532 1.383 . S
C2538 C2537 1.379 . S
H2539 C2533 0.959 . S
H2540 C2533 0.961 . S
H2541 C2533 0.960 . S
H2542 C2534 0.930 . S
H2543 C2535 0.929 . S
H2544 C2552 0.929 . S
H2545 C2554 0.930 . S
H2546 C2556 0.930 . S
H2547 C2559 0.929 . S
H2548 C2562 0.930 . S
H2549 C2564 0.960 . S
H2550 C2564 0.960 . S
H2551 C2564 0.960 . S
C2552 H2544 0.929 . S
C2552 C2553 1.377 . S
C2552 C2554 1.384 . S
C2553 C2552 1.377 . S
C2553 C2559 1.390 . S
C2554 H2545 0.930 . S
C2554 C2552 1.384 . S
C2554 C2555 1.372 . S
C2555 C2554 1.372 . S
C2555 C2556 1.400 . S
C2555 C2560 1.490 . S
C2556 H2546 0.930 . S
C2556 C2555 1.400 . S
C2556 C2559 1.386 . S
H2557 C2573 0.930 . S
H2558 C2574 0.931 . S
C2559 H2547 0.929 . S
C2559 C2553 1.390 . S
C2559 C2556 1.386 . S
C2560 C2555 1.490 . S
C2560 C2562 1.395 . S
C2560 C2563 1.403 . S
H2561 C2567 0.930 . S
C2562 H2548 0.930 . S
C2562 C2560 1.395 . S
C2562 C2565 1.403 . S
C2563 C2560 1.403 . S
C2563 C2564 1.524 . S
C2563 C2567 1.400 . S
C2564 H2549 0.960 . S
C2564 H2550 0.960 . S
C2564 H2551 0.960 . S
C2564 C2563 1.524 . S
C2565 C2562 1.403 . S
C2565 C2566 1.392 . S
C2565 C2569 1.495 . S
C2566 C2565 1.392 . S
C2566 C2567 1.385 . S
C2566 C2568 1.478 . S
C2567 H2561 0.930 . S
C2567 C2563 1.400 . S
C2567 C2566 1.385 . S
C2568 C2566 1.478 . S
C2568 C2570 1.381 . S
C2568 C2574 1.383 . S
C2569 C2565 1.495 . S
C2569 H2575 0.959 . S
C2569 H2576 0.961 . S
C2569 H2577 0.960 . S
C2570 C2568 1.381 . S
C2570 C2571 1.394 . S
C2570 H2578 0.930 . S
C2571 C2570 1.394 . S
C2571 C2572 1.383 . S
C2571 H2579 0.929 . S
C2572 C2571 1.383 . S
C2572 C2573 1.377 . S
C2573 H2557 0.930 . S
C2573 C2572 1.377 . S
C2573 C2574 1.379 . S
C2574 H2558 0.931 . S
C2574 C2568 1.383 . S
C2574 C2573 1.379 . S
H2575 C2569 0.959 . S
H2576 C2569 0.961 . S
H2577 C2569 0.960 . S
H2578 C2570 0.930 . S
H2579 C2571 0.929 . S
H2580 C2588 0.929 . S
H2581 C2590 0.930 . S
H2582 C2592 0.930 . S
H2583 C2595 0.929 . S
H2584 C2598 0.930 . S
H2585 C2600 0.960 . S
H2586 C2600 0.960 . S
H2587 C2600 0.960 . S
C2588 H2580 0.929 . S
C2588 C2589 1.377 . S
C2588 C2590 1.384 . S
C2589 C2588 1.377 . S
C2589 C2595 1.390 . S
C2590 H2581 0.930 . S
C2590 C2588 1.384 . S
C2590 C2591 1.372 . S
C2591 C2590 1.372 . S
C2591 C2592 1.400 . S
C2591 C2596 1.490 . S
C2592 H2582 0.930 . S
C2592 C2591 1.400 . S
C2592 C2595 1.386 . S
H2593 C2609 0.930 . S
H2594 C2610 0.931 . S
C2595 H2583 0.929 . S
C2595 C2589 1.390 . S
C2595 C2592 1.386 . S
C2596 C2591 1.490 . S
C2596 C2598 1.395 . S
C2596 C2599 1.403 . S
H2597 C2603 0.930 . S
C2598 H2584 0.930 . S
C2598 C2596 1.395 . S
C2598 C2601 1.403 . S
C2599 C2596 1.403 . S
C2599 C2600 1.524 . S
C2599 C2603 1.400 . S
C2600 H2585 0.960 . S
C2600 H2586 0.960 . S
C2600 H2587 0.960 . S
C2600 C2599 1.524 . S
C2601 C2598 1.403 . S
C2601 C2602 1.392 . S
C2601 C2605 1.495 . S
C2602 C2601 1.392 . S
C2602 C2603 1.385 . S
C2602 C2604 1.478 . S
C2603 H2597 0.930 . S
C2603 C2599 1.400 . S
C2603 C2602 1.385 . S
C2604 C2602 1.478 . S
C2604 C2606 1.381 . S
C2604 C2610 1.383 . S
C2605 C2601 1.495 . S
C2605 H2611 0.959 . S
C2605 H2612 0.961 . S
C2605 H2613 0.960 . S
C2606 C2604 1.381 . S
C2606 C2607 1.394 . S
C2606 H2614 0.930 . S
C2607 C2606 1.394 . S
C2607 C2608 1.383 . S
C2607 H2615 0.929 . S
C2608 C2607 1.383 . S
C2608 C2609 1.377 . S
C2609 H2593 0.930 . S
C2609 C2608 1.377 . S
C2609 C2610 1.379 . S
C2610 H2594 0.931 . S
C2610 C2604 1.383 . S
C2610 C2609 1.379 . S
H2611 C2605 0.959 . S
H2612 C2605 0.961 . S
H2613 C2605 0.960 . S
H2614 C2606 0.930 . S
H2615 C2607 0.929 . S
H2616 C2624 0.929 . S
H2617 C2626 0.930 . S
H2618 C2628 0.930 . S
H2619 C2631 0.929 . S
H2620 C2634 0.930 . S
H2621 C2636 0.960 . S
H2622 C2636 0.960 . S
H2623 C2636 0.960 . S
C2624 H2616 0.929 . S
C2624 C2625 1.377 . S
C2624 C2626 1.384 . S
C2625 C2624 1.377 . S
C2625 C2631 1.390 . S
C2626 H2617 0.930 . S
C2626 C2624 1.384 . S
C2626 C2627 1.372 . S
C2627 C2626 1.372 . S
C2627 C2628 1.400 . S
C2627 C2632 1.490 . S
C2628 H2618 0.930 . S
C2628 C2627 1.400 . S
C2628 C2631 1.386 . S
H2629 C2645 0.930 . S
H2630 C2646 0.931 . S
C2631 H2619 0.929 . S
C2631 C2625 1.390 . S
C2631 C2628 1.386 . S
C2632 C2627 1.490 . S
C2632 C2634 1.395 . S
C2632 C2635 1.403 . S
H2633 C2639 0.930 . S
C2634 H2620 0.930 . S
C2634 C2632 1.395 . S
C2634 C2637 1.403 . S
C2635 C2632 1.403 . S
C2635 C2636 1.524 . S
C2635 C2639 1.400 . S
C2636 H2621 0.960 . S
C2636 H2622 0.960 . S
C2636 H2623 0.960 . S
C2636 C2635 1.524 . S
C2637 C2634 1.403 . S
C2637 C2638 1.392 . S
C2637 C2641 1.495 . S
C2638 C2637 1.392 . S
C2638 C2639 1.385 . S
C2638 C2640 1.478 . S
C2639 H2633 0.930 . S
C2639 C2635 1.400 . S
C2639 C2638 1.385 . S
C2640 C2638 1.478 . S
C2640 C2642 1.381 . S
C2640 C2646 1.383 . S
C2641 C2637 1.495 . S
C2641 H2647 0.959 . S
C2641 H2648 0.961 . S
C2641 H2649 0.960 . S
C2642 C2640 1.381 . S
C2642 C2643 1.394 . S
C2642 H2650 0.930 . S
C2643 C2642 1.394 . S
C2643 C2644 1.383 . S
C2643 H2651 0.929 . S
C2644 C2643 1.383 . S
C2644 C2645 1.377 . S
C2645 H2629 0.930 . S
C2645 C2644 1.377 . S
C2645 C2646 1.379 . S
C2646 H2630 0.931 . S
C2646 C2640 1.383 . S
C2646 C2645 1.379 . S
H2647 C2641 0.959 . S
H2648 C2641 0.961 . S
H2649 C2641 0.960 . S
H2650 C2642 0.930 . S
H2651 C2643 0.929 . S
H2652 C2660 0.929 . S
H2653 C2662 0.930 . S
H2654 C2664 0.930 . S
H2655 C2667 0.929 . S
H2656 C2670 0.930 . S
H2657 C2672 0.960 . S
H2658 C2672 0.960 . S
H2659 C2672 0.960 . S
C2660 H2652 0.929 . S
C2660 C2661 1.377 . S
C2660 C2662 1.384 . S
C2661 C2660 1.377 . S
C2661 C2667 1.390 . S
C2662 H2653 0.930 . S
C2662 C2660 1.384 . S
C2662 C2663 1.372 . S
C2663 C2662 1.372 . S
C2663 C2664 1.400 . S
C2663 C2668 1.490 . S
C2664 H2654 0.930 . S
C2664 C2663 1.400 . S
C2664 C2667 1.386 . S
H2665 C2681 0.930 . S
H2666 C2682 0.931 . S
C2667 H2655 0.929 . S
C2667 C2661 1.390 . S
C2667 C2664 1.386 . S
C2668 C2663 1.490 . S
C2668 C2670 1.395 . S
C2668 C2671 1.403 . S
H2669 C2675 0.930 . S
C2670 H2656 0.930 . S
C2670 C2668 1.395 . S
C2670 C2673 1.403 . S
C2671 C2668 1.403 . S
C2671 C2672 1.524 . S
C2671 C2675 1.400 . S
C2672 H2657 0.960 . S
C2672 H2658 0.960 . S
C2672 H2659 0.960 . S
C2672 C2671 1.524 . S
C2673 C2670 1.403 . S
C2673 C2674 1.392 . S
C2673 C2677 1.495 . S
C2674 C2673 1.392 . S
C2674 C2675 1.385 . S
C2674 C2676 1.478 . S
C2675 H2669 0.930 . S
C2675 C2671 1.400 . S
C2675 C2674 1.385 . S
C2676 C2674 1.478 . S
C2676 C2678 1.381 . S
C2676 C2682 1.383 . S
C2677 C2673 1.495 . S
C2677 H2683 0.959 . S
C2677 H2684 0.961 . S
C2677 H2685 0.960 . S
C2678 C2676 1.381 . S
C2678 C2679 1.394 . S
C2678 H2686 0.930 . S
C2679 C2678 1.394 . S
C2679 C2680 1.383 . S
C2679 H2687 0.929 . S
C2680 C2679 1.383 . S
C2680 C2681 1.377 . S
C2681 H2665 0.930 . S
C2681 C2680 1.377 . S
C2681 C2682 1.379 . S
C2682 H2666 0.931 . S
C2682 C2676 1.383 . S
C2682 C2681 1.379 . S
H2683 C2677 0.959 . S
H2684 C2677 0.961 . S
H2685 C2677 0.960 . S
H2686 C2678 0.930 . S
H2687 C2679 0.929 . S
H2688 C2696 0.929 . S
H2689 C2698 0.930 . S
H2690 C2700 0.930 . S
H2691 C2703 0.929 . S
H2692 C2706 0.930 . S
H2693 C2708 0.960 . S
H2694 C2708 0.960 . S
H2695 C2708 0.960 . S
C2696 H2688 0.929 . S
C2696 C2697 1.377 . S
C2696 C2698 1.384 . S
C2697 C2696 1.377 . S
C2697 C2703 1.390 . S
C2698 H2689 0.930 . S
C2698 C2696 1.384 . S
C2698 C2699 1.372 . S
C2699 C2698 1.372 . S
C2699 C2700 1.400 . S
C2699 C2704 1.490 . S
C2700 H2690 0.930 . S
C2700 C2699 1.400 . S
C2700 C2703 1.386 . S
H2701 C2717 0.930 . S
H2702 C2718 0.931 . S
C2703 H2691 0.929 . S
C2703 C2697 1.390 . S
C2703 C2700 1.386 . S
C2704 C2699 1.490 . S
C2704 C2706 1.395 . S
C2704 C2707 1.403 . S
H2705 C2711 0.930 . S
C2706 H2692 0.930 . S
C2706 C2704 1.395 . S
C2706 C2709 1.403 . S
C2707 C2704 1.403 . S
C2707 C2708 1.524 . S
C2707 C2711 1.400 . S
C2708 H2693 0.960 . S
C2708 H2694 0.960 . S
C2708 H2695 0.960 . S
C2708 C2707 1.524 . S
C2709 C2706 1.403 . S
C2709 C2710 1.392 . S
C2709 C2713 1.495 . S
C2710 C2709 1.392 . S
C2710 C2711 1.385 . S
C2710 C2712 1.478 . S
C2711 H2705 0.930 . S
C2711 C2707 1.400 . S
C2711 C2710 1.385 . S
C2712 C2710 1.478 . S
C2712 C2714 1.381 . S
C2712 C2718 1.383 . S
C2713 C2709 1.495 . S
C2713 H2719 0.959 . S
C2713 H2720 0.961 . S
C2713 H2721 0.960 . S
C2714 C2712 1.381 . S
C2714 C2715 1.394 . S
C2714 H2722 0.930 . S
C2715 C2714 1.394 . S
C2715 C2716 1.383 . S
C2715 H2723 0.929 . S
C2716 C2715 1.383 . S
C2716 C2717 1.377 . S
C2717 H2701 0.930 . S
C2717 C2716 1.377 . S
C2717 C2718 1.379 . S
C2718 H2702 0.931 . S
C2718 C2712 1.383 . S
C2718 C2717 1.379 . S
H2719 C2713 0.959 . S
H2720 C2713 0.961 . S
H2721 C2713 0.960 . S
H2722 C2714 0.930 . S
H2723 C2715 0.929 . S
C1024 C707 1.321 . S
C1005 C74 1.282 . S
C1060 C685 1.636 . S
C1041 C153 1.596 . S
C1096 C682 0.677 . S
C1077 C231 0.704 . S
C1113 C310 0.616 . S
C1132 C694 0.425 . S
C1149 C394 1.591 . S
C1168 C677 1.661 . S
C1204 C699 0.675 . S
C1185 C494 0.700 . S
C1221 C573 0.632 . S
C1240 C704 0.446 . S
C1257 C651 1.279 . S
C1276 C700 1.305 . S
C1312 C758 2.777 . S
C1293 C56 2.848 . S
C1329 C151 1.282 . S
C1348 C808 1.261 . S
C1384 C731 1.665 . S
C1365 C237 1.594 . S
C1420 C807 0.733 . S
C1401 C326 0.708 . S
C1437 C410 0.703 . S
C1456 C736 0.709 . S
C1492 C802 2.774 . S
C1473 C476 2.846 . S
C1509 C571 1.296 . S
C1528 C761 1.297 . S
C1545 C657 1.602 . S
C1564 C793 1.668 . S
C1581 C58 1.596 . S
C1600 C785 1.665 . S
C1617 C392 1.294 . S
C1636 C815 1.292 . S
C1672 C739 1.702 . S
C1653 C478 1.612 . S
C1708 C790 0.702 . S
C1689 C567 0.727 . S
C1725 C655 2.852 . S
C1744 C748 2.781 . S
C1761 C235 2.860 . S
C1780 C812 2.798 . S
C1816 C754 1.294 . S
C1797 C308 1.304 . S
C1833 C147 0.725 . S
C1852 C753 0.719 . S
C1869 C662 1.282 . S
C1888 C869 1.320 . S
C1905 C405 1.605 . S
C1924 C847 1.679 . S
C1960 C844 0.727 . S
C1941 C483 0.693 . S
C1996 C856 0.288 . S
C1977 C562 0.637 . S
C2013 C142 1.591 . S
C2032 C839 1.665 . S
C2068 C861 0.687 . S
C2049 C242 0.693 . S
C2085 C321 0.601 . S
C2104 C866 0.412 . S
C2121 C63 1.290 . S
C2140 C862 1.316 . S
C2157 C644 2.847 . S
C2176 C920 2.767 . S
C2212 C970 1.268 . S
C2193 C403 1.281 . S
C2229 C489 1.592 . S
C2248 C893 1.664 . S
C2265 C578 0.713 . S
C2284 C969 0.722 . S
C2320 C898 0.685 . S
C2301 C158 0.700 . S
C2337 C224 2.846 . S
C2356 C964 2.783 . S
C2392 C923 1.293 . S
C2373 C319 1.296 . S
C2428 C955 1.664 . S
C2409 C69 1.602 . S
C2464 C947 1.698 . S
C2445 C646 1.602 . S
C2481 C140 1.294 . S
C2500 C977 1.280 . S
C2517 C226 1.600 . S
C2536 C901 1.687 . S
C2572 C952 0.701 . S
C2553 C315 0.719 . S
C2589 C67 2.852 . S
C2608 C910 2.786 . S
C2625 C487 2.860 . S
C2644 C974 2.793 . S
C2680 C916 1.304 . S
C2661 C560 1.303 . S
C2716 C915 0.705 . S
C2697 C399 0.725 . S
