# Generated by pormake.
# Topology gar, (4,6)-cn, num edge types: 1
# Building blocks:
#     Node 0, Type 0, BuildingBlock: KUFVIS_clean_sbu_0, # of connection points: 4
#     Node 1, Type 0, BuildingBlock: KUFVIS_clean_sbu_0, # of connection points: 4
#     Node 2, Type 0, BuildingBlock: KUFVIS_clean_sbu_0, # of connection points: 4
#     Node 3, Type 0, BuildingBlock: KUFVIS_clean_sbu_0, # of connection points: 4
#     Node 4, Type 0, BuildingBlock: KUFVIS_clean_sbu_0, # of connection points: 4
#     Node 5, Type 0, BuildingBlock: KUFVIS_clean_sbu_0, # of connection points: 4
#     Node 6, Type 0, BuildingBlock: KUFVIS_clean_sbu_0, # of connection points: 4
#     Node 7, Type 0, BuildingBlock: KUFVIS_clean_sbu_0, # of connection points: 4
#     Node 8, Type 0, BuildingBlock: KUFVIS_clean_sbu_0, # of connection points: 4
#     Node 9, Type 0, BuildingBlock: KUFVIS_clean_sbu_0, # of connection points: 4
#     Node 10, Type 0, BuildingBlock: KUFVIS_clean_sbu_0, # of connection points: 4
#     Node 11, Type 0, BuildingBlock: KUFVIS_clean_sbu_0, # of connection points: 4
#     Node 12, Type 0, BuildingBlock: KUFVIS_clean_sbu_0, # of connection points: 4
#     Node 13, Type 0, BuildingBlock: KUFVIS_clean_sbu_0, # of connection points: 4
#     Node 14, Type 0, BuildingBlock: KUFVIS_clean_sbu_0, # of connection points: 4
#     Node 15, Type 0, BuildingBlock: KUFVIS_clean_sbu_0, # of connection points: 4
#     Node 16, Type 0, BuildingBlock: KUFVIS_clean_sbu_0, # of connection points: 4
#     Node 17, Type 0, BuildingBlock: KUFVIS_clean_sbu_0, # of connection points: 4
#     Node 18, Type 0, BuildingBlock: KUFVIS_clean_sbu_0, # of connection points: 4
#     Node 19, Type 0, BuildingBlock: KUFVIS_clean_sbu_0, # of connection points: 4
#     Node 20, Type 0, BuildingBlock: KUFVIS_clean_sbu_0, # of connection points: 4
#     Node 21, Type 0, BuildingBlock: KUFVIS_clean_sbu_0, # of connection points: 4
#     Node 22, Type 0, BuildingBlock: KUFVIS_clean_sbu_0, # of connection points: 4
#     Node 23, Type 0, BuildingBlock: KUFVIS_clean_sbu_0, # of connection points: 4
#     Node 24, Type 1, BuildingBlock: PAMTOO_clean_sbu_0, # of connection points: 6
#     Node 25, Type 1, BuildingBlock: PAMTOO_clean_sbu_0, # of connection points: 6
#     Node 26, Type 1, BuildingBlock: PAMTOO_clean_sbu_0, # of connection points: 6
#     Node 27, Type 1, BuildingBlock: PAMTOO_clean_sbu_0, # of connection points: 6
#     Node 28, Type 1, BuildingBlock: PAMTOO_clean_sbu_0, # of connection points: 6
#     Node 29, Type 1, BuildingBlock: PAMTOO_clean_sbu_0, # of connection points: 6
#     Node 30, Type 1, BuildingBlock: PAMTOO_clean_sbu_0, # of connection points: 6
#     Node 31, Type 1, BuildingBlock: PAMTOO_clean_sbu_0, # of connection points: 6
#     Node 32, Type 1, BuildingBlock: PAMTOO_clean_sbu_0, # of connection points: 6
#     Node 33, Type 1, BuildingBlock: PAMTOO_clean_sbu_0, # of connection points: 6
#     Node 34, Type 1, BuildingBlock: PAMTOO_clean_sbu_0, # of connection points: 6
#     Node 35, Type 1, BuildingBlock: PAMTOO_clean_sbu_0, # of connection points: 6
#     Node 36, Type 1, BuildingBlock: PAMTOO_clean_sbu_0, # of connection points: 6
#     Node 37, Type 1, BuildingBlock: PAMTOO_clean_sbu_0, # of connection points: 6
#     Node 38, Type 1, BuildingBlock: PAMTOO_clean_sbu_0, # of connection points: 6
#     Node 39, Type 1, BuildingBlock: PAMTOO_clean_sbu_0, # of connection points: 6
#     Edge 40, Type (0, 1), BuildingBlock: ZUJKAS_clean_linker_0, # of connection points: 2
#     Edge 41, Type (0, 1), BuildingBlock: ZUJKAS_clean_linker_0, # of connection points: 2
#     Edge 42, Type (0, 1), BuildingBlock: ZUJKAS_clean_linker_0, # of connection points: 2
#     Edge 43, Type (0, 1), BuildingBlock: ZUJKAS_clean_linker_0, # of connection points: 2
#     Edge 44, Type (0, 1), BuildingBlock: ZUJKAS_clean_linker_0, # of connection points: 2
#     Edge 45, Type (0, 1), BuildingBlock: ZUJKAS_clean_linker_0, # of connection points: 2
#     Edge 46, Type (0, 1), BuildingBlock: ZUJKAS_clean_linker_0, # of connection points: 2
#     Edge 47, Type (0, 1), BuildingBlock: ZUJKAS_clean_linker_0, # of connection points: 2
#     Edge 48, Type (0, 1), BuildingBlock: ZUJKAS_clean_linker_0, # of connection points: 2
#     Edge 49, Type (0, 1), BuildingBlock: ZUJKAS_clean_linker_0, # of connection points: 2
#     Edge 50, Type (0, 1), BuildingBlock: ZUJKAS_clean_linker_0, # of connection points: 2
#     Edge 51, Type (0, 1), BuildingBlock: ZUJKAS_clean_linker_0, # of connection points: 2
#     Edge 52, Type (0, 1), BuildingBlock: ZUJKAS_clean_linker_0, # of connection points: 2
#     Edge 53, Type (0, 1), BuildingBlock: ZUJKAS_clean_linker_0, # of connection points: 2
#     Edge 54, Type (0, 1), BuildingBlock: ZUJKAS_clean_linker_0, # of connection points: 2
#     Edge 55, Type (0, 1), BuildingBlock: ZUJKAS_clean_linker_0, # of connection points: 2
#     Edge 56, Type (0, 1), BuildingBlock: ZUJKAS_clean_linker_0, # of connection points: 2
#     Edge 57, Type (0, 1), BuildingBlock: ZUJKAS_clean_linker_0, # of connection points: 2
#     Edge 58, Type (0, 1), BuildingBlock: ZUJKAS_clean_linker_0, # of connection points: 2
#     Edge 59, Type (0, 1), BuildingBlock: ZUJKAS_clean_linker_0, # of connection points: 2
#     Edge 60, Type (0, 1), BuildingBlock: ZUJKAS_clean_linker_0, # of connection points: 2
#     Edge 61, Type (0, 1), BuildingBlock: ZUJKAS_clean_linker_0, # of connection points: 2
#     Edge 62, Type (0, 1), BuildingBlock: ZUJKAS_clean_linker_0, # of connection points: 2
#     Edge 63, Type (0, 1), BuildingBlock: ZUJKAS_clean_linker_0, # of connection points: 2
#     Edge 64, Type (0, 1), BuildingBlock: ZUJKAS_clean_linker_0, # of connection points: 2
#     Edge 65, Type (0, 1), BuildingBlock: ZUJKAS_clean_linker_0, # of connection points: 2
#     Edge 66, Type (0, 1), BuildingBlock: ZUJKAS_clean_linker_0, # of connection points: 2
#     Edge 67, Type (0, 1), BuildingBlock: ZUJKAS_clean_linker_0, # of connection points: 2
#     Edge 68, Type (0, 1), BuildingBlock: ZUJKAS_clean_linker_0, # of connection points: 2
#     Edge 69, Type (0, 1), BuildingBlock: ZUJKAS_clean_linker_0, # of connection points: 2
#     Edge 70, Type (0, 1), BuildingBlock: ZUJKAS_clean_linker_0, # of connection points: 2
#     Edge 71, Type (0, 1), BuildingBlock: ZUJKAS_clean_linker_0, # of connection points: 2
#     Edge 72, Type (0, 1), BuildingBlock: ZUJKAS_clean_linker_0, # of connection points: 2
#     Edge 73, Type (0, 1), BuildingBlock: ZUJKAS_clean_linker_0, # of connection points: 2
#     Edge 74, Type (0, 1), BuildingBlock: ZUJKAS_clean_linker_0, # of connection points: 2
#     Edge 75, Type (0, 1), BuildingBlock: ZUJKAS_clean_linker_0, # of connection points: 2
#     Edge 76, Type (0, 1), BuildingBlock: ZUJKAS_clean_linker_0, # of connection points: 2
#     Edge 77, Type (0, 1), BuildingBlock: ZUJKAS_clean_linker_0, # of connection points: 2
#     Edge 78, Type (0, 1), BuildingBlock: ZUJKAS_clean_linker_0, # of connection points: 2
#     Edge 79, Type (0, 1), BuildingBlock: ZUJKAS_clean_linker_0, # of connection points: 2
#     Edge 80, Type (0, 1), BuildingBlock: ZUJKAS_clean_linker_0, # of connection points: 2
#     Edge 81, Type (0, 1), BuildingBlock: ZUJKAS_clean_linker_0, # of connection points: 2
#     Edge 82, Type (0, 1), BuildingBlock: ZUJKAS_clean_linker_0, # of connection points: 2
#     Edge 83, Type (0, 1), BuildingBlock: ZUJKAS_clean_linker_0, # of connection points: 2
#     Edge 84, Type (0, 1), BuildingBlock: ZUJKAS_clean_linker_0, # of connection points: 2
#     Edge 85, Type (0, 1), BuildingBlock: ZUJKAS_clean_linker_0, # of connection points: 2
#     Edge 86, Type (0, 1), BuildingBlock: ZUJKAS_clean_linker_0, # of connection points: 2
#     Edge 87, Type (0, 1), BuildingBlock: ZUJKAS_clean_linker_0, # of connection points: 2
#     Edge 88, Type (0, 1), BuildingBlock: ZUJKAS_clean_linker_0, # of connection points: 2
#     Edge 89, Type (0, 1), BuildingBlock: ZUJKAS_clean_linker_0, # of connection points: 2
#     Edge 90, Type (0, 1), BuildingBlock: ZUJKAS_clean_linker_0, # of connection points: 2
#     Edge 91, Type (0, 1), BuildingBlock: ZUJKAS_clean_linker_0, # of connection points: 2
#     Edge 92, Type (0, 1), BuildingBlock: ZUJKAS_clean_linker_0, # of connection points: 2
#     Edge 93, Type (0, 1), BuildingBlock: ZUJKAS_clean_linker_0, # of connection points: 2
#     Edge 94, Type (0, 1), BuildingBlock: ZUJKAS_clean_linker_0, # of connection points: 2
#     Edge 95, Type (0, 1), BuildingBlock: ZUJKAS_clean_linker_0, # of connection points: 2
#     Edge 96, Type (0, 1), BuildingBlock: ZUJKAS_clean_linker_0, # of connection points: 2
#     Edge 97, Type (0, 1), BuildingBlock: ZUJKAS_clean_linker_0, # of connection points: 2
#     Edge 98, Type (0, 1), BuildingBlock: ZUJKAS_clean_linker_0, # of connection points: 2
#     Edge 99, Type (0, 1), BuildingBlock: ZUJKAS_clean_linker_0, # of connection points: 2
#     Edge 100, Type (0, 1), BuildingBlock: ZUJKAS_clean_linker_0, # of connection points: 2
#     Edge 101, Type (0, 1), BuildingBlock: ZUJKAS_clean_linker_0, # of connection points: 2
#     Edge 102, Type (0, 1), BuildingBlock: ZUJKAS_clean_linker_0, # of connection points: 2
#     Edge 103, Type (0, 1), BuildingBlock: ZUJKAS_clean_linker_0, # of connection points: 2
#     Edge 104, Type (0, 1), BuildingBlock: ZUJKAS_clean_linker_0, # of connection points: 2
#     Edge 105, Type (0, 1), BuildingBlock: ZUJKAS_clean_linker_0, # of connection points: 2
#     Edge 106, Type (0, 1), BuildingBlock: ZUJKAS_clean_linker_0, # of connection points: 2
#     Edge 107, Type (0, 1), BuildingBlock: ZUJKAS_clean_linker_0, # of connection points: 2
#     Edge 108, Type (0, 1), BuildingBlock: ZUJKAS_clean_linker_0, # of connection points: 2
#     Edge 109, Type (0, 1), BuildingBlock: ZUJKAS_clean_linker_0, # of connection points: 2
#     Edge 110, Type (0, 1), BuildingBlock: ZUJKAS_clean_linker_0, # of connection points: 2
#     Edge 111, Type (0, 1), BuildingBlock: ZUJKAS_clean_linker_0, # of connection points: 2
#     Edge 112, Type (0, 1), BuildingBlock: ZUJKAS_clean_linker_0, # of connection points: 2
#     Edge 113, Type (0, 1), BuildingBlock: ZUJKAS_clean_linker_0, # of connection points: 2
#     Edge 114, Type (0, 1), BuildingBlock: ZUJKAS_clean_linker_0, # of connection points: 2
#     Edge 115, Type (0, 1), BuildingBlock: ZUJKAS_clean_linker_0, # of connection points: 2
#     Edge 116, Type (0, 1), BuildingBlock: ZUJKAS_clean_linker_0, # of connection points: 2
#     Edge 117, Type (0, 1), BuildingBlock: ZUJKAS_clean_linker_0, # of connection points: 2
#     Edge 118, Type (0, 1), BuildingBlock: ZUJKAS_clean_linker_0, # of connection points: 2
#     Edge 119, Type (0, 1), BuildingBlock: ZUJKAS_clean_linker_0, # of connection points: 2
#     Edge 120, Type (0, 1), BuildingBlock: ZUJKAS_clean_linker_0, # of connection points: 2
#     Edge 121, Type (0, 1), BuildingBlock: ZUJKAS_clean_linker_0, # of connection points: 2
#     Edge 122, Type (0, 1), BuildingBlock: ZUJKAS_clean_linker_0, # of connection points: 2
#     Edge 123, Type (0, 1), BuildingBlock: ZUJKAS_clean_linker_0, # of connection points: 2
#     Edge 124, Type (0, 1), BuildingBlock: ZUJKAS_clean_linker_0, # of connection points: 2
#     Edge 125, Type (0, 1), BuildingBlock: ZUJKAS_clean_linker_0, # of connection points: 2
#     Edge 126, Type (0, 1), BuildingBlock: ZUJKAS_clean_linker_0, # of connection points: 2
#     Edge 127, Type (0, 1), BuildingBlock: ZUJKAS_clean_linker_0, # of connection points: 2
#     Edge 128, Type (0, 1), BuildingBlock: ZUJKAS_clean_linker_0, # of connection points: 2
#     Edge 129, Type (0, 1), BuildingBlock: ZUJKAS_clean_linker_0, # of connection points: 2
#     Edge 130, Type (0, 1), BuildingBlock: ZUJKAS_clean_linker_0, # of connection points: 2
#     Edge 131, Type (0, 1), BuildingBlock: ZUJKAS_clean_linker_0, # of connection points: 2
#     Edge 132, Type (0, 1), BuildingBlock: ZUJKAS_clean_linker_0, # of connection points: 2
#     Edge 133, Type (0, 1), BuildingBlock: ZUJKAS_clean_linker_0, # of connection points: 2
#     Edge 134, Type (0, 1), BuildingBlock: ZUJKAS_clean_linker_0, # of connection points: 2
#     Edge 135, Type (0, 1), BuildingBlock: ZUJKAS_clean_linker_0, # of connection points: 2
# Relax obj value: 0.121
# Max RMSD: 0.261
# Mean RMSD: 0.149
data_MOF--net-gar--node1-KUFVIS_clean_sbu_0--node2-PAMTOO_clean_sbu_0--edge1-ZUJKAS_clean_linker_0
_symmetry_space_group_name_H-M    P1
_symmetry_Int_Tables_number       1
_symmetry_cell_setting            triclinic
loop_
_symmetry_equiv_pos_as_xyz
'x, y, z'
_cell_length_a     74.315959
_cell_length_b     74.696257
_cell_length_c     74.009545
_cell_angle_alpha  96.01136
_cell_angle_beta   95.273052
_cell_angle_gamma 104.59425
loop_
_atom_site_label
_atom_site_type_symbol
_atom_site_fract_x
_atom_site_fract_y
_atom_site_fract_z
_atom_type_partial_charge
Mn0 Mn 0.04085 0.3073 0.3746 0.0
Mn1 Mn 0.03928 0.33317 0.33984 0.0
C2 C 0.01182 0.30967 0.36123 0.0
C3 C 0.04188 0.27985 0.38723 0.0
C4 C 0.04873 0.35023 0.37973 0.0
O5 O 0.06694 0.31014 0.36599 0.0
O6 O 0.06402 0.32702 0.34302 0.0
C7 C 0.04044 0.30437 0.30954 0.0
N8 N 0.03199 0.31704 0.31711 0.0
C9 C 1.00852 0.31057 0.29092 0.0
C10 C 0.01705 0.29756 0.28279 0.0
C11 C 0.03304 0.2944 0.29218 0.0
C12 C 0.01654 0.3201 0.30824 0.0
H13 H 0.05272 0.30188 0.3167 0.0
C14 C 0.07339 0.31836 0.35269 0.0
O15 O 0.04841 0.29629 0.39649 0.0
O16 O 0.03516 0.27923 0.37025 0.0
N17 N 0.01648 0.34014 0.33452 0.0
C18 C 0.00935 0.35241 0.34466 0.0
C19 C 0.99315 0.35686 0.33735 0.0
C20 C 0.98457 0.34881 0.31965 0.0
C21 C 0.99221 0.33631 0.30944 0.0
C22 C 1.00847 0.33253 0.31737 0.0
H23 H 0.01593 0.35874 0.35823 0.0
O24 O 0.01392 0.30519 0.37762 0.0
O25 O 0.02679 0.31237 0.35277 0.0
O26 O 0.04769 0.3348 0.38603 0.0
O27 O 0.04632 0.35129 0.3626 0.0
C28 C 0.98412 0.32718 0.29185 0.0
C29 C 0.99223 0.31426 0.28262 0.0
H30 H 0.01136 0.28981 0.26941 0.0
H31 H 0.03964 0.28431 0.28603 0.0
H32 H 0.98731 0.36649 0.34533 0.0
H33 H 0.97202 0.3522 0.31409 0.0
H34 H 0.9715 0.32977 0.28541 0.0
H35 H 0.98573 0.30713 0.26922 0.0
Mn36 Mn 0.01854 0.75463 0.68318 0.0
Mn37 Mn 0.03346 0.78875 0.71911 0.0
C38 C 0.05025 0.7639 0.6952 0.0
C39 C 1.00761 0.72337 0.66938 0.0
C40 C 0.02614 0.79681 0.68029 0.0
O41 O 0.9937 0.75561 0.69327 0.0
O42 O 1.00552 0.77919 0.71612 0.0
C43 C 0.02269 0.76518 0.7482 0.0
N44 N 0.03598 0.77747 0.7409 0.0
C45 C 0.05939 0.77803 0.76584 0.0
C46 C 0.04592 0.76546 0.77368 0.0
C47 C 0.02751 0.75898 0.76479 0.0
C48 C 0.05376 0.78374 0.7493 0.0
H49 H 1.00853 0.76014 0.74141 0.0
C50 C 0.99161 0.76702 0.70662 0.0
O51 O 1.00527 0.73714 0.66095 0.0
O52 O 0.01503 0.72763 0.68637 0.0
N53 N 0.05994 0.79943 0.72407 0.0
C54 C 0.07144 0.81087 0.71431 0.0
C55 C 0.09041 0.81838 0.7212 0.0
C56 C 0.0973 0.81421 0.73813 0.0
C57 C 0.08519 0.8025 0.74797 0.0
C58 C 0.06639 0.79555 0.74049 0.0
H59 H 0.06618 0.81419 0.70133 0.0
O60 O 0.04489 0.75595 0.67849 0.0
O61 O 0.03682 0.7663 0.70466 0.0
O62 O 0.02028 0.77972 0.67325 0.0
O63 O 0.03172 0.80183 0.69735 0.0
C64 C 0.09111 0.79719 0.76477 0.0
C65 C 0.07823 0.78492 0.77366 0.0
H66 H 0.04959 0.76061 0.78645 0.0
H67 H 0.01705 0.74922 0.77071 0.0
H68 H 0.09969 0.82737 0.7135 0.0
H69 H 0.11195 0.82001 0.74341 0.0
H70 H 0.10559 0.80229 0.77084 0.0
H71 H 0.08299 0.78076 0.78646 0.0
Mn72 Mn 0.5416 0.80801 0.87465 0.0
Mn73 Mn 0.53831 0.8308 0.8378 0.0
C74 C 0.51222 0.8096 0.86165 0.0
C75 C 0.54328 0.78162 0.88889 0.0
C76 C 0.54915 0.85081 0.87668 0.0
O77 O 0.56723 0.81011 0.86525 0.0
O78 O 0.56318 0.82491 0.8409 0.0
C79 C 0.53843 0.79975 0.80944 0.0
N80 N 0.53009 0.8128 0.81638 0.0
C81 C 0.50495 0.80336 0.79158 0.0
C82 C 0.51334 0.78992 0.78411 0.0
C83 C 0.53012 0.78807 0.79312 0.0
C84 C 0.51384 0.81457 0.80792 0.0
H85 H 0.55132 0.79823 0.8163 0.0
C86 C 0.573 0.8171 0.85109 0.0
O87 O 0.55003 0.79847 0.89722 0.0
O88 O 0.53597 0.77999 0.87195 0.0
N89 N 0.5152 0.83726 0.83246 0.0
C90 C 0.50874 0.85074 0.84156 0.0
C91 C 0.49195 0.8542 0.83443 0.0
C92 C 0.48214 0.84401 0.81788 0.0
C93 C 0.48928 0.83052 0.80854 0.0
C94 C 0.50609 0.82768 0.8163 0.0
H95 H 0.51623 0.8587 0.85424 0.0
O96 O 0.51487 0.80626 0.87841 0.0
O97 O 0.52678 0.81151 0.85268 0.0
O98 O 0.54859 0.83607 0.88416 0.0
O99 O 0.54611 0.85053 0.85934 0.0
C100 C 0.48029 0.81966 0.79192 0.0
C101 C 0.48805 0.80601 0.78351 0.0
H102 H 0.50698 0.7809 0.77152 0.0
H103 H 0.53665 0.77767 0.78749 0.0
H104 H 0.48657 0.86469 0.84168 0.0
H105 H 0.46913 0.84664 0.81248 0.0
H106 H 0.46733 0.8216 0.78554 0.0
H107 H 0.48089 0.79761 0.77083 0.0
Mn108 Mn 0.51677 0.25307 0.18148 0.0
Mn109 Mn 0.48284 0.24433 0.14556 0.0
C110 C 0.50414 0.22263 0.16628 0.0
C111 C 0.54899 0.25997 0.19317 0.0
C112 C 0.47539 0.25273 0.18497 0.0
O113 O 0.51953 0.27894 0.17313 0.0
O114 O 0.49701 0.2711 0.14885 0.0
C115 C 0.50653 0.25068 0.11558 0.0
N116 N 0.49286 0.23929 0.12328 0.0
C117 C 0.48826 0.21475 0.09815 0.0
C118 C 0.50224 0.22625 0.0899 0.0
C119 C 0.51144 0.24427 0.09868 0.0
C120 C 0.48392 0.22191 0.11496 0.0
H121 H 0.51366 0.26454 0.12228 0.0
C122 C 0.51034 0.28304 0.15934 0.0
O123 O 0.53652 0.26322 0.20334 0.0
O124 O 0.54286 0.25335 0.17623 0.0
N125 N 0.4684 0.21885 0.14083 0.0
C126 C 0.45623 0.20908 0.15123 0.0
C127 C 0.44613 0.19064 0.14461 0.0
C128 C 0.44863 0.18247 0.12738 0.0
C129 C 0.4614 0.19272 0.11701 0.0
C130 C 0.47092 0.2111 0.12424 0.0
H131 H 0.45423 0.21531 0.16448 0.0
O132 O 0.5118 0.22544 0.18317 0.0
O133 O 0.50347 0.23765 0.15919 0.0
O134 O 0.49214 0.25457 0.19249 0.0
O135 O 0.47078 0.24895 0.16767 0.0
C136 C 0.46522 0.18536 0.0999 0.0
C137 C 0.4787 0.19634 0.09051 0.0
H138 H 0.50613 0.22133 0.07691 0.0
H139 H 0.5223 0.2532 0.09244 0.0
H140 H 0.43641 0.18277 0.15275 0.0
H141 H 0.44076 0.16826 0.12232 0.0
H142 H 0.45807 0.17119 0.09394 0.0
H143 H 0.48173 0.19042 0.07751 0.0
Mn144 Mn 0.0681 0.80411 0.122 0.0
Mn145 Mn 0.03554 0.78966 0.08484 0.0
C146 C 0.05919 0.77264 0.10924 0.0
C147 C 0.09909 0.81503 0.13657 0.0
C148 C 0.0256 0.79725 0.12331 0.0
O149 O 0.06734 0.82898 0.1123 0.0
O150 O 0.04607 0.81741 0.08741 0.0
C151 C 0.06092 0.79851 0.05654 0.0
N152 N 0.04786 0.78589 0.06375 0.0
C153 C 0.0487 0.76127 0.04036 0.0
C154 C 0.06202 0.77405 0.03259 0.0
C155 C 0.06818 0.79275 0.04074 0.0
C156 C 0.0419 0.76785 0.05606 0.0
H157 H 0.06582 0.81286 0.06284 0.0
C158 C 0.05751 0.83115 0.0979 0.0
O159 O 0.0849 0.81714 0.14471 0.0
O160 O 0.09544 0.80785 0.11945 0.0
N161 N 0.02427 0.76331 0.0804 0.0
C162 C 0.01183 0.7526 0.08994 0.0
C163 C 1.00454 0.73347 0.08376 0.0
C164 C 0.00998 0.72558 0.06777 0.0
C165 C 0.02259 0.73692 0.05805 0.0
C166 C 0.02927 0.75593 0.06478 0.0
H167 H 1.00761 0.75857 0.10225 0.0
O168 O 0.06662 0.77767 0.12613 0.0
O169 O 0.05721 0.78622 0.10016 0.0
O170 O 0.04246 0.80207 0.1311 0.0
O171 O 0.02141 0.79256 0.10601 0.0
C172 C 0.02905 0.73004 0.04212 0.0
C173 C 0.04212 0.7422 0.03331 0.0
H174 H 0.06773 0.76964 0.02045 0.0
H175 H 0.07856 0.80267 0.03489 0.0
H176 H 0.9948 0.72481 0.09133 0.0
H177 H 1.00444 0.71079 0.06313 0.0
H178 H 0.02422 0.71538 0.03667 0.0
H179 H 0.04714 0.73671 0.02119 0.0
Mn180 Mn 0.50264 0.7694 0.43437 0.0
Mn181 Mn 0.5021 0.79435 0.39848 0.0
C182 C 0.47389 0.77027 0.41875 0.0
C183 C 0.50473 0.74144 0.44643 0.0
C184 C 0.5094 0.81246 0.43816 0.0
O185 O 0.5296 0.77381 0.42764 0.0
O186 O 0.52667 0.78897 0.4033 0.0
C187 C 0.50479 0.76493 0.36954 0.0
N188 N 0.49605 0.77782 0.376 0.0
C189 C 0.47466 0.77167 0.34826 0.0
C190 C 0.4835 0.75839 0.34124 0.0
C191 C 0.49857 0.75495 0.35197 0.0
C192 C 0.4814 0.78107 0.3659 0.0
H193 H 0.51645 0.76234 0.37772 0.0
C194 C 0.53618 0.7817 0.41424 0.0
O195 O 0.50938 0.7576 0.45649 0.0
O196 O 0.49886 0.74148 0.42936 0.0
N197 N 0.47953 0.80108 0.39157 0.0
C198 C 0.47237 0.81409 0.4005 0.0
C199 C 0.45752 0.81949 0.39154 0.0
C200 C 0.45013 0.81145 0.37351 0.0
C201 C 0.45778 0.79818 0.36454 0.0
C202 C 0.47289 0.79368 0.37402 0.0
H203 H 0.47816 0.82053 0.41426 0.0
O204 O 0.47494 0.76562 0.43516 0.0
O205 O 0.48962 0.77387 0.41165 0.0
O206 O 0.5076 0.79738 0.44553 0.0
O207 O 0.5081 0.81261 0.42085 0.0
C208 C 0.451 0.78919 0.34661 0.0
C209 C 0.45934 0.77583 0.33853 0.0
H210 H 0.47876 0.7507 0.32769 0.0
H211 H 0.50541 0.74468 0.34668 0.0
H212 H 0.4518 0.82988 0.3985 0.0
H213 H 0.43854 0.81554 0.36669 0.0
H214 H 0.43924 0.79229 0.339 0.0
H215 H 0.45384 0.76883 0.32483 0.0
Mn216 Mn 0.56764 0.30351 0.62067 0.0
Mn217 Mn 0.53408 0.28801 0.58444 0.0
C218 C 0.55833 0.27179 0.60894 0.0
C219 C 0.59901 0.31442 0.6343 0.0
C220 C 0.52524 0.29651 0.62308 0.0
O221 O 0.56673 0.32801 0.61027 0.0
O222 O 0.54405 0.31578 0.58671 0.0
C223 C 0.55851 0.29703 0.55542 0.0
N224 N 0.54597 0.28429 0.56304 0.0
C225 C 0.54677 0.25961 0.5397 0.0
C226 C 0.55961 0.27249 0.53154 0.0
C227 C 0.56553 0.29127 0.53946 0.0
C228 C 0.54022 0.26617 0.55557 0.0
H229 H 0.56317 0.31146 0.5615 0.0
C230 C 0.55591 0.3298 0.59641 0.0
O231 O 0.58522 0.3171 0.64281 0.0
O232 O 0.59472 0.30674 0.61736 0.0
N233 N 0.52316 0.2616 0.5803 0.0
C234 C 0.51099 0.25087 0.59006 0.0
C235 C 0.50386 0.23168 0.58406 0.0
C236 C 0.50917 0.22377 0.56801 0.0
C237 C 0.52146 0.23514 0.55803 0.0
C238 C 0.52798 0.2542 0.5646 0.0
H239 H 0.50686 0.25687 0.60241 0.0
O240 O 0.56618 0.27733 0.62563 0.0
O241 O 0.55616 0.28501 0.59941 0.0
O242 O 0.54229 0.30206 0.63038 0.0
O243 O 0.52055 0.2909 0.60597 0.0
C244 C 0.5277 0.22826 0.54198 0.0
C245 C 0.54038 0.24048 0.53284 0.0
H246 H 0.56511 0.2681 0.51926 0.0
H247 H 0.5755 0.30128 0.53328 0.0
H248 H 0.49436 0.22301 0.59182 0.0
H249 H 0.50375 0.20894 0.56349 0.0
H250 H 0.52298 0.21357 0.53664 0.0
H251 H 0.54522 0.235 0.5206 0.0
Mn252 Mn 1.00293 0.26992 0.93396 0.0
Mn253 Mn 1.00302 0.29392 0.8973 0.0
C254 C 0.97442 0.27027 0.91744 0.0
C255 C 1.00524 0.24232 0.94663 0.0
C256 C 0.00959 0.31291 0.9367 0.0
O257 O 0.03022 0.2747 0.92804 0.0
O258 O 0.02745 0.28848 0.90271 0.0
C259 C 1.00585 0.26374 0.86934 0.0
N260 N 0.99683 0.27655 0.8754 0.0
C261 C 0.9757 0.26969 0.84747 0.0
C262 C 0.98477 0.25643 0.84089 0.0
C263 C 0.99979 0.25332 0.85195 0.0
C264 C 0.98191 0.27914 0.86518 0.0
H265 H 0.01765 0.2616 0.87766 0.0
C266 C 0.0369 0.28189 0.91433 0.0
O267 O 0.00914 0.25852 0.95654 0.0
O268 O 0.99993 0.24206 0.92938 0.0
N269 N 0.98064 0.30079 0.88975 0.0
C270 C 0.97479 0.31551 0.89723 0.0
C271 C 0.96007 0.32073 0.88776 0.0
C272 C 0.95208 0.31137 0.87031 0.0
C273 C 0.95907 0.29704 0.8624 0.0
C274 C 0.97349 0.29215 0.87266 0.0
H275 H 0.98127 0.32321 0.91037 0.0
O276 O 0.97496 0.26555 0.93382 0.0
O277 O 0.9904 0.27402 0.91088 0.0
O278 O 1.00723 0.298 0.94445 0.0
O279 O 0.009 0.31271 0.91936 0.0
C280 C 0.95288 0.28801 0.8444 0.0
C281 C 0.96108 0.27423 0.83699 0.0
H282 H 0.98039 0.24866 0.82732 0.0
H283 H 1.00688 0.24313 0.84697 0.0
H284 H 0.95509 0.33213 0.89379 0.0
H285 H 0.9409 0.31561 0.86294 0.0
H286 H 0.94179 0.29154 0.83613 0.0
H287 H 0.95611 0.26731 0.82317 0.0
Mn288 Mn 0.41666 0.05211 0.30479 0.0
Mn289 Mn 0.38046 0.04695 0.32984 0.0
C290 C 0.40425 0.02394 0.31484 0.0
C291 C 0.42884 0.05101 0.27711 0.0
C292 C 0.42043 0.06692 0.34538 0.0
O293 O 0.4064 0.07407 0.29984 0.0
O294 O 0.38196 0.0688 0.31631 0.0
C295 C 0.34945 0.03715 0.29939 0.0
N296 N 0.35809 0.0328 0.31473 0.0
C297 C 0.33453 1.00368 0.31298 0.0
C298 C 0.32533 0.00791 0.29723 0.0
C299 C 0.33285 0.0247 0.29038 0.0
C300 C 0.35102 0.01664 0.32138 0.0
H301 H 0.35518 0.05002 0.29404 0.0
C302 C 0.39197 0.07806 0.30545 0.0
O303 O 0.43859 0.06124 0.29174 0.0
O304 O 0.41173 0.04197 0.27841 0.0
N305 N 0.37729 0.02602 0.34325 0.0
C306 C 0.38825 0.02369 0.35816 0.0
C307 C 0.38284 0.00743 0.36649 0.0
C308 C 0.36619 0.9938 0.35948 0.0
C309 C 0.35507 0.99659 0.34422 0.0
C310 C 0.36112 0.01311 0.33655 0.0
H311 H 0.40108 0.03407 0.36359 0.0
O312 O 0.42126 0.02802 0.31069 0.0
O313 O 0.39513 0.03647 0.31303 0.0
O314 O 0.42744 0.06455 0.33056 0.0
O315 O 0.40295 0.06113 0.34668 0.0
C316 C 0.33832 0.98353 0.33621 0.0
C317 C 0.32809 0.98704 0.32056 0.0
H318 H 0.31255 0.99831 0.29021 0.0
H319 H 0.32587 0.02802 0.27819 0.0
H320 H 0.39152 1.00538 0.37825 0.0
H321 H 0.36214 0.98122 0.36586 0.0
H322 H 0.33331 0.97062 0.34184 0.0
H323 H 0.31538 0.97676 0.31438 0.0
Mn324 Mn 0.28159 0.19275 0.51833 0.0
Mn325 Mn 0.27752 0.15445 0.48791 0.0
C326 C 0.25221 0.17301 0.50708 0.0
C327 C 0.28458 0.20709 0.54886 0.0
C328 C 0.28501 0.1935 0.47707 0.0
O329 O 0.30803 0.18898 0.52154 0.0
O330 O 0.30336 0.16343 0.50074 0.0
C331 C 0.28329 0.12831 0.51396 0.0
N332 N 0.27264 0.13263 0.49994 0.0
C333 C 0.25069 0.10236 0.49654 0.0
C334 C 0.26143 0.09756 0.51092 0.0
C335 C 0.27775 0.11064 0.51974 0.0
C336 C 0.25678 0.12027 0.49156 0.0
H337 H 0.29598 0.13823 0.52061 0.0
C338 C 0.31373 0.17604 0.51306 0.0
O339 O 0.2893 0.2168 0.53565 0.0
O340 O 0.27874 0.18917 0.54441 0.0
N341 N 0.2532 0.14393 0.47458 0.0
C342 C 0.24385 0.15117 0.46172 0.0
C343 C 0.2269 0.14008 0.45201 0.0
C344 C 0.21998 0.12157 0.45534 0.0
C345 C 0.22991 0.11441 0.46858 0.0
C346 C 0.24654 0.12621 0.47804 0.0
H347 H 0.24932 0.16527 0.45886 0.0
O348 O 0.25405 0.19029 0.51357 0.0
O349 O 0.26762 0.16779 0.50721 0.0
O350 O 0.28554 0.20219 0.49308 0.0
O351 O 0.28216 0.17583 0.474 0.0
C352 C 0.22399 0.09603 0.47278 0.0
C353 C 0.23422 0.09009 0.48692 0.0
H354 H 0.25727 0.08389 0.51532 0.0
H355 H 0.28611 0.10704 0.53085 0.0
H356 H 0.21931 0.14571 0.44182 0.0
H357 H 0.20699 0.113 0.44771 0.0
H358 H 0.2114 0.08643 0.46541 0.0
H359 H 0.22927 0.07605 0.49028 0.0
Mn360 Mn 0.12909 0.03958 0.78756 0.0
Mn361 Mn 0.16658 0.04576 0.81936 0.0
C362 C 0.14764 0.06942 0.79881 0.0
C363 C 0.11616 0.03565 0.75659 0.0
C364 C 0.12647 0.03572 0.82837 0.0
O365 O 0.13426 0.01374 0.78533 0.0
O366 O 0.16002 0.02007 0.80613 0.0
C367 C 0.19536 0.04306 0.79481 0.0
N368 N 0.18922 0.0528 0.80846 0.0
C369 C 0.21725 0.07807 0.8116 0.0
C370 C 0.22391 0.06827 0.79764 0.0
C371 C 0.21289 0.05072 0.78918 0.0
C372 C 0.19969 0.06972 0.81666 0.0
H373 H 0.18693 0.02957 0.78827 0.0
C374 C 0.1478 0.00904 0.79387 0.0
O375 O 0.10578 0.03072 0.76937 0.0
O376 O 0.13398 0.04212 0.76172 0.0
N377 N 0.17446 0.0702 0.83297 0.0
C378 C 0.16549 0.07829 0.84541 0.0
C379 C 0.17447 0.09603 0.85492 0.0
C380 C 0.19257 0.10521 0.85161 0.0
C381 C 0.20146 0.09668 0.83862 0.0
C382 C 0.1919 0.0789 0.8297 0.0
H383 H 0.15163 0.07124 0.8481 0.0
O384 O 0.13043 0.06694 0.79168 0.0
O385 O 0.15325 0.05439 0.79945 0.0
O386 O 0.11844 0.03566 0.81227 0.0
O387 O 0.1442 0.03898 0.83209 0.0
C388 C 0.21935 0.10517 0.83405 0.0
C389 C 0.22719 0.09591 0.82049 0.0
H390 H 0.23739 0.07416 0.7932 0.0
H391 H 0.2179 0.04311 0.77834 0.0
H392 H 0.16749 0.10258 0.86485 0.0
H393 H 0.19947 0.11886 0.85907 0.0
H394 H 0.22709 0.11892 0.84072 0.0
H395 H 0.24082 0.10271 0.81689 0.0
Mn396 Mn 0.26743 0.90425 0.0088 0.0
Mn397 Mn 0.28825 0.93553 0.98234 0.0
C398 C 0.29902 0.90952 0.00659 0.0
C399 C 0.25773 0.89618 0.03641 0.0
C400 C 0.26327 0.89717 0.96719 0.0
O401 O 0.24892 0.91976 1.0053 0.0
O402 O 0.26488 0.94121 0.9892 0.0
C403 C 0.29841 0.96974 0.00933 0.0
N404 N 0.30359 0.95747 0.99726 0.0
C405 C 0.33583 0.97543 1.00291 0.0
C406 C 0.33082 0.9883 0.01533 0.0
C407 C 0.31203 0.98541 0.01858 0.0
C408 C 0.32163 0.9601 0.99406 0.0
H409 H 0.28399 0.96757 0.01188 0.0
C410 C 0.25083 0.93452 0.99758 0.0
O411 O 0.24984 0.88622 0.02096 0.0
O412 O 0.27068 0.91137 0.03573 0.0
N413 N 0.31122 0.9317 0.97512 0.0
C414 C 0.31392 0.91736 0.96364 0.0
C415 C 0.33204 0.91783 0.95936 0.0
C416 C 0.34716 0.93306 0.96682 0.0
C417 C 0.34405 0.94765 0.9786 0.0
C418 C 0.32567 0.94648 0.98228 0.0
H419 H 0.30234 0.90564 0.95782 0.0
O420 O 0.28975 0.89391 0.01136 0.0
O421 O 0.28948 0.92138 1.00309 0.0
O422 O 0.26023 0.89168 0.98256 0.0
O423 O 0.27321 0.91342 0.96553 0.0
C424 C 0.3585 0.96318 0.98704 0.0
C425 C 0.35441 0.97702 0.99923 0.0
H426 H 0.3413 1.00036 0.02256 0.0
H427 H 0.30807 0.99524 0.02821 0.0
H428 H 0.33434 0.90649 0.95031 0.0
H429 H 0.36112 0.93335 0.9635 0.0
H430 H 0.37286 0.96448 0.98445 0.0
H431 H 0.36568 0.98873 1.00587 0.0
Mn432 Mn 0.28838 0.38143 0.03935 0.0
Mn433 Mn 0.29964 0.41751 0.01463 0.0
C434 C 0.31965 0.39638 0.03798 0.0
C435 C 0.28098 0.37021 0.06717 0.0
C436 C 0.28653 0.37696 0.9973 0.0
O437 O 0.2638 0.38921 0.03551 0.0
O438 O 0.27378 0.41419 0.02086 0.0
C439 C 0.29961 0.44824 0.04334 0.0
N440 N 0.30856 0.44048 0.03067 0.0
C441 C 0.33562 0.46692 0.03684 0.0
C442 C 0.32665 0.47524 0.04991 0.0
C443 C 0.3086 0.46582 0.05322 0.0
C444 C 0.326 0.44933 0.02751 0.0
H445 H 0.28571 0.44106 0.04587 0.0
C446 C 0.26116 0.40326 0.02816 0.0
O447 O 0.27611 0.35948 0.05158 0.0
O448 O 0.28967 0.38746 0.06652 0.0
N449 N 0.32434 0.4226 0.00752 0.0
C450 C 0.33126 0.41237 0.9949 0.0
C451 C 0.34911 0.41986 0.98987 0.0
C452 C 0.35956 0.43783 0.99773 0.0
C453 C 0.35221 0.44805 0.01076 0.0
C454 C 0.33425 0.43997 0.01505 0.0
H455 H 0.32316 0.39868 0.98857 0.0
O456 O 0.31499 0.37966 0.04251 0.0
O457 O 0.30596 0.40392 0.03457 0.0
O458 O 0.28514 0.36962 0.01217 0.0
O459 O 0.29111 0.39457 0.99692 0.0
C460 C 0.36203 0.4659 0.01972 0.0
C461 C 0.35378 0.47527 0.03284 0.0
H462 H 0.33353 0.48881 0.05754 0.0
H463 H 0.30162 0.47213 0.06333 0.0
H464 H 0.35472 0.41187 0.97983 0.0
H465 H 0.37319 0.44367 0.9936 0.0
H466 H 0.37601 0.47244 0.01679 0.0
H467 H 0.36156 0.48888 0.03983 0.0
Mn468 Mn 0.77971 0.15811 0.05128 0.0
Mn469 Mn 0.75151 0.12119 0.02294 0.0
C470 C 0.74766 0.15181 0.05106 0.0
C471 C 0.79851 0.17153 0.07855 0.0
C472 C 0.76928 0.15801 0.01032 0.0
O473 O 0.79772 0.14302 0.04418 0.0
O474 O 0.77749 0.1189 0.02614 0.0
C475 C 0.75324 0.0923 0.04709 0.0
N476 N 0.74299 0.10103 0.03662 0.0
C477 C 0.71408 0.08006 0.04172 0.0
C478 C 0.72432 0.07077 0.05249 0.0
C479 C 0.74398 0.07698 0.05526 0.0
C480 C 0.72407 0.09531 0.03404 0.0
H481 H 0.76835 0.09698 0.04916 0.0
C482 C 0.79392 0.12743 0.03395 0.0
O483 O 0.8008 0.17893 0.06356 0.0
O484 O 0.78555 0.15597 0.0776 0.0
N485 N 0.72571 0.12084 0.01813 0.0
C486 C 0.71796 0.13143 0.00748 0.0
C487 C 0.69846 0.12673 1.00289 0.0
C488 C 0.68709 0.11133 0.00943 0.0
C489 C 0.69537 0.10058 0.02028 0.0
C490 C 0.71494 0.1056 0.02395 0.0
H491 H 0.72661 0.14316 1.00223 0.0
O492 O 0.75838 0.16835 0.05711 0.0
O493 O 0.75598 0.13916 0.04555 0.0
O494 O 0.7779 0.16605 0.02585 0.0
O495 O 0.75915 0.14119 0.00764 0.0
C496 C 0.68501 0.08507 0.0276 0.0
C497 C 0.69435 0.0749 0.03842 0.0
H498 H 0.71724 0.05893 0.05878 0.0
H499 H 0.75198 0.06992 0.0636 0.0
H500 H 0.69218 0.13498 0.99432 0.0
H501 H 0.67201 0.10788 0.00603 0.0
H502 H 0.66984 0.08096 0.02512 0.0
H503 H 0.68623 0.06314 0.04415 0.0
Mn504 Mn 0.15291 0.54029 0.25785 0.0
Mn505 Mn 0.18767 0.56583 0.29013 0.0
C506 C 0.16449 0.57184 0.25706 0.0
C507 C 0.14161 0.52101 0.23036 0.0
C508 C 0.14714 0.55407 0.29672 0.0
O509 O 0.16304 0.52044 0.26883 0.0
O510 O 0.18636 0.53895 0.28916 0.0
C511 C 0.2197 0.55841 0.2725 0.0
N512 N 0.21072 0.57077 0.27971 0.0
C513 C 0.23643 0.59683 0.27676 0.0
C514 C 0.24598 0.5844 0.26931 0.0
C515 C 0.2375 0.56511 0.26701 0.0
C516 C 0.21846 0.58937 0.28137 0.0
H517 H 0.2134 0.54356 0.27107 0.0
C518 C 0.17688 0.52288 0.28116 0.0
O519 O 0.13161 0.52098 0.24381 0.0
O520 O 0.15858 0.53185 0.23307 0.0
N521 N 0.1911 0.59228 0.29296 0.0
C522 C 0.18074 0.60234 0.30173 0.0
C523 C 0.18725 0.62188 0.30505 0.0
C524 C 0.2047 0.63085 0.30004 0.0
C525 C 0.21556 0.62017 0.2919 0.0
C526 C 0.20814 0.60076 0.28851 0.0
H527 H 0.16756 0.59552 0.3061 0.0
O528 O 0.14803 0.56298 0.24873 0.0
O529 O 0.17399 0.56195 0.26529 0.0
O530 O 0.14097 0.54549 0.28073 0.0
O531 O 0.16445 0.56185 0.30202 0.0
C532 C 0.23376 0.62796 0.2877 0.0
C533 C 0.2442 0.6163 0.28013 0.0
H534 H 0.25987 0.5895 0.2654 0.0
H535 H 0.24478 0.55542 0.26129 0.0
H536 H 0.17894 0.62999 0.31169 0.0
H537 H 0.20979 0.6459 0.30286 0.0
H538 H 0.23989 0.64291 0.29023 0.0
H539 H 0.25815 0.62247 0.27688 0.0
Mn540 Mn 0.78686 0.88222 0.54077 0.0
Mn541 Mn 0.79486 0.91838 0.51582 0.0
C542 C 0.8174 0.89919 0.53916 0.0
C543 C 0.78077 0.87076 0.56875 0.0
C544 C 0.78581 0.87788 0.49865 0.0
O545 O 0.76116 0.88759 0.5372 0.0
O546 O 0.76857 0.91183 0.52116 0.0
C547 C 0.79027 0.94732 0.54426 0.0
N548 N 0.80064 0.94138 0.53182 0.0
C549 C 0.82445 0.97055 0.53807 0.0
C550 C 0.81398 0.97704 0.55087 0.0
C551 C 0.79685 0.96534 0.55403 0.0
C552 C 0.81721 0.95244 0.52881 0.0
H553 H 0.77707 0.93839 0.54667 0.0
C554 C 0.75692 0.90042 0.52896 0.0
O555 O 0.77653 0.85983 0.55326 0.0
O556 O 0.78812 0.88829 0.5679 0.0
N557 N 0.81961 0.92681 0.50933 0.0
C558 C 0.82823 0.91822 0.49693 0.0
C559 C 0.84539 0.92809 0.49203 0.0
C560 C 0.8535 0.94669 0.49988 0.0
C561 C 0.84437 0.95524 0.51259 0.0
C562 C 0.82711 0.94483 0.51666 0.0
H563 H 0.82196 0.90402 0.49067 0.0
O564 O 0.81391 0.88245 0.54369 0.0
O565 O 0.80294 0.90576 0.53592 0.0
O566 O 0.78405 0.8705 0.5135 0.0
O567 O 0.7895 0.89548 0.49828 0.0
C568 C 0.85177 0.97364 0.52145 0.0
C569 C 0.84187 0.98124 0.53427 0.0
H570 H 0.819 0.99093 0.55842 0.0
H571 H 0.78873 0.97022 0.56394 0.0
H572 H 0.85234 0.9214 0.48218 0.0
H573 H 0.86679 0.95423 0.49613 0.0
H574 H 0.86515 0.98198 0.51865 0.0
H575 H 0.84781 0.99532 0.54118 0.0
Mn576 Mn 0.94006 0.03262 0.26913 0.0
Mn577 Mn 0.90502 0.0224 0.2957 0.0
C578 C 0.92481 1.00171 0.27091 0.0
C579 C 0.95033 0.03943 0.24076 0.0
C580 C 0.94619 0.03499 0.31115 0.0
O581 O 0.93277 0.05735 0.2736 0.0
O582 O 0.90836 0.04809 0.28952 0.0
C583 C 0.87327 0.02254 0.26848 0.0
N584 N 0.88142 0.01363 0.28069 0.0
C585 C 0.85466 0.98688 0.27545 0.0
C586 C 0.84593 0.9958 0.26288 0.0
C587 C 0.85531 0.01368 0.25934 0.0
C588 C 0.8726 0.99637 0.28407 0.0
H589 H 0.88043 0.0363 0.26577 0.0
C590 C 0.91909 0.06034 0.28169 0.0
O591 O 0.96162 0.04424 0.25595 0.0
O592 O 0.93304 0.03113 0.24213 0.0
N593 N 0.9 0.9979 0.30282 0.0
C594 C 0.91064 0.99097 0.31484 0.0
C595 C 0.90326 0.97327 0.31997 0.0
C596 C 0.885 0.96297 0.31283 0.0
C597 C 0.87435 0.97032 0.3004 0.0
C598 C 0.88235 0.98814 0.29598 0.0
H599 H 0.92458 0.99895 0.32061 0.0
O600 O 0.94134 1.00597 0.26559 0.0
O601 O 0.91764 0.01558 0.27488 0.0
O602 O 0.9529 0.036 0.29585 0.0
O603 O 0.92864 0.03079 0.31241 0.0
C604 C 0.85616 0.96065 0.29216 0.0
C605 C 0.84637 0.96888 0.2796 0.0
H606 H 0.83208 0.98902 0.2558 0.0
H607 H 0.84869 0.02062 0.24961 0.0
H608 H 0.91158 0.96766 0.32954 0.0
H609 H 0.87927 0.94944 0.31703 0.0
H610 H 0.84966 0.94678 0.29522 0.0
H611 H 0.83249 0.9612 0.27316 0.0
Mn612 Mn 0.27589 0.65253 0.54413 0.0
Mn613 Mn 0.25015 0.61762 0.51226 0.0
C614 C 0.24445 0.64976 0.5363 0.0
C615 C 0.28858 0.66479 0.57395 0.0
C616 C 0.27659 0.65238 0.50293 0.0
O617 O 0.29219 0.6345 0.54257 0.0
O618 O 0.27346 0.61165 0.52181 0.0
C619 C 0.24043 0.58859 0.53671 0.0
N620 N 0.23498 0.59891 0.5242 0.0
C621 C 0.20249 0.58306 0.5242 0.0
C622 C 0.20775 0.5722 0.53703 0.0
C623 C 0.2268 0.57503 0.54336 0.0
C624 C 0.21668 0.59646 0.51819 0.0
H625 H 0.25506 0.59068 0.54157 0.0
C626 C 0.28849 0.61855 0.53291 0.0
O627 O 0.29604 0.67158 0.56012 0.0
O628 O 0.27411 0.6504 0.57045 0.0
N629 N 0.22703 0.62126 0.50183 0.0
C630 C 0.22428 0.63326 0.48984 0.0
C631 C 0.20605 0.632 0.48188 0.0
C632 C 0.19086 0.61837 0.48623 0.0
C633 C 0.19399 0.60637 0.49883 0.0
C634 C 0.2125 0.60811 0.50612 0.0
H635 H 0.2359 0.64362 0.48627 0.0
O636 O 0.25555 0.66569 0.54373 0.0
O637 O 0.25202 0.63596 0.53381 0.0
O638 O 0.28203 0.65999 0.51937 0.0
O639 O 0.26482 0.63643 0.49861 0.0
C640 C 0.17949 0.59271 0.50438 0.0
C641 C 0.18372 0.58119 0.5172 0.0
H642 H 0.19729 0.56169 0.54215 0.0
H643 H 0.23097 0.56674 0.5533 0.0
H644 H 0.20372 0.64139 0.47226 0.0
H645 H 0.17687 0.61723 0.47978 0.0
H646 H 0.16503 0.59104 0.499 0.0
H647 H 0.17244 0.57091 0.52154 0.0
Mn648 Mn 0.44111 0.53201 0.76832 0.0
Mn649 Mn 0.40476 0.52244 0.79339 0.0
C650 C 0.42486 0.50127 0.76965 0.0
C651 C 0.45247 0.5387 0.74032 0.0
C652 C 0.44544 0.53364 0.8104 0.0
O653 O 0.43451 0.55711 0.77243 0.0
O654 O 0.40963 0.54846 0.78788 0.0
C655 C 0.37481 0.52457 0.76506 0.0
N656 N 0.38183 0.51485 0.77726 0.0
C657 C 0.35426 0.48904 0.77047 0.0
C658 C 0.34669 0.49878 0.75787 0.0
C659 C 0.35707 0.51658 0.75508 0.0
C660 C 0.37213 0.49758 0.77978 0.0
H661 H 0.38269 0.53831 0.763 0.0
C662 C 0.42095 0.56053 0.78039 0.0
O663 O 0.46338 0.54325 0.75577 0.0
O664 O 0.43501 0.5307 0.74124 0.0
N665 N 0.39816 0.4977 0.79989 0.0
C666 C 0.4074 0.49021 0.81263 0.0
C667 C 0.39894 0.47242 0.81701 0.0
C668 C 0.38092 0.4627 0.80857 0.0
C669 C 0.37149 0.4709 0.79587 0.0
C670 C 0.38068 0.48859 0.79193 0.0
H671 H 0.42112 0.49774 0.81941 0.0
O672 O 0.44164 0.5051 0.76489 0.0
O673 O 0.41803 0.51542 0.77326 0.0
O674 O 0.45284 0.53499 0.79544 0.0
O675 O 0.42775 0.5296 0.81095 0.0
C676 C 0.35326 0.46229 0.78709 0.0
C677 C 0.34473 0.47124 0.77424 0.0
H678 H 0.33294 0.49274 0.75027 0.0
H679 H 0.35134 0.52417 0.74536 0.0
H680 H 0.40626 0.46626 0.82694 0.0
H681 H 0.37442 0.449 0.81201 0.0
H682 H 0.34575 0.44866 0.78996 0.0
H683 H 0.33082 0.46433 0.76736 0.0
Mn684 Mn 0.65711 0.04227 0.75744 0.0
Mn685 Mn 0.69448 0.07214 0.78371 0.0
C686 C 0.66517 0.07331 0.75336 0.0
C687 C 0.64349 0.02091 0.73171 0.0
C688 C 0.65682 0.05815 0.79711 0.0
O689 O 0.67105 0.02491 0.76806 0.0
O690 O 0.6963 0.04606 0.78367 0.0
C691 C 0.72404 0.0667 0.76111 0.0
N692 N 0.71512 0.07827 0.76984 0.0
C693 C 0.73651 0.10543 0.76185 0.0
C694 C 0.746 0.09381 0.75285 0.0
C695 C 0.73968 0.07436 0.75241 0.0
C696 C 0.72098 0.09698 0.7702 0.0
H697 H 0.71924 0.05175 0.7608 0.0
C698 C 0.68692 0.02922 0.77792 0.0
O699 O 0.63564 0.02099 0.74667 0.0
O700 O 0.65976 0.03265 0.73203 0.0
N701 N 0.69495 0.09798 0.78512 0.0
C702 C 0.68357 0.10713 0.79342 0.0
C703 C 0.68788 0.12668 0.79495 0.0
C704 C 0.70391 0.13663 0.7881 0.0
C705 C 0.71531 0.12692 0.77947 0.0
C706 C 0.71044 0.10745 0.77853 0.0
H707 H 0.67138 0.09958 0.79895 0.0
O708 O 0.6483 0.06297 0.74798 0.0
O709 O 0.67699 0.0652 0.76087 0.0
O710 O 0.64859 0.04829 0.78216 0.0
O711 O 0.67404 0.06727 0.7993 0.0
C712 C 0.73116 0.13577 0.77153 0.0
C713 C 0.74169 0.12502 0.76263 0.0
H714 H 0.75807 0.09966 0.74612 0.0
H715 H 0.74688 0.06531 0.74543 0.0
H716 H 0.67894 0.13408 0.80152 0.0
H717 H 0.70728 0.15172 0.78945 0.0
H718 H 0.73517 0.15081 0.77192 0.0
H719 H 0.75366 0.13195 0.75631 0.0
Mn720 Mn 0.78284 0.69495 0.02079 0.0
Mn721 Mn 0.77741 0.65755 0.98883 0.0
C722 C 0.75305 0.67631 0.00932 0.0
C723 C 0.78647 0.70823 0.05168 0.0
C724 C 0.78767 0.69748 0.98019 0.0
O725 O 0.80884 0.68988 0.02313 0.0
O726 O 0.8029 0.66395 1.00247 0.0
C727 C 0.77926 0.62876 0.01306 0.0
N728 N 0.76986 0.63497 0.99941 0.0
C729 C 0.74432 0.60717 0.99574 0.0
C730 C 0.75376 0.60043 0.0097 0.0
C731 C 0.77128 0.6113 0.01843 0.0
C732 C 0.75298 0.62464 0.99094 0.0
H733 H 0.79272 0.63708 0.01981 0.0
C734 C 0.81372 0.67625 0.01482 0.0
O735 O 0.7915 0.71834 0.03884 0.0
O736 O 0.78001 0.69042 0.04666 0.0
N737 N 0.75314 0.64984 0.97489 0.0
C738 C 0.74535 0.65891 0.96256 0.0
C739 C 0.72763 0.65012 0.95288 0.0
C740 C 0.71816 0.63211 0.95593 0.0
C741 C 0.72639 0.62312 0.9688 0.0
C742 C 0.74415 0.6325 0.97791 0.0
H743 H 0.75262 0.67271 0.96009 0.0
O744 O 0.75537 0.69345 0.01656 0.0
O745 O 0.76824 0.6708 0.00874 0.0
O746 O 0.78699 0.70542 0.9962 0.0
O747 O 0.78482 0.67986 0.97633 0.0
C748 C 0.7176 0.60531 0.9731 0.0
C749 C 0.72652 0.59738 0.98661 0.0
H750 H 0.74762 0.58701 0.01394 0.0
H751 H 0.77861 0.60624 0.02927 0.0
H752 H 0.72132 0.65718 0.94304 0.0
H753 H 0.70452 0.62537 0.94837 0.0
H754 H 0.70387 0.59769 0.96626 0.0
H755 H 0.71948 0.58381 0.99 0.0
Mn756 Mn 0.91405 0.55006 0.80006 0.0
Mn757 Mn 0.87983 0.55078 0.82682 0.0
C758 C 0.89945 0.52348 0.81165 0.0
C759 C 0.92462 0.54617 0.77181 0.0
C760 C 0.92103 0.56688 0.84031 0.0
O761 O 0.90653 0.57334 0.79464 0.0
O762 O 0.88324 0.57216 0.81236 0.0
C763 C 0.84761 0.54322 0.79784 0.0
N764 N 0.85606 0.53849 0.81308 0.0
C765 C 0.82993 0.5119 0.81343 0.0
C766 C 0.82092 0.51655 0.79781 0.0
C767 C 0.82982 0.53227 0.78997 0.0
C768 C 0.84761 0.52341 0.82074 0.0
H769 H 0.85442 0.55524 0.79172 0.0
C770 C 0.89348 0.57963 0.80066 0.0
O771 O 0.9356 0.55612 0.78592 0.0
O772 O 0.90727 0.53892 0.77397 0.0
N773 N 0.87495 0.53057 0.84116 0.0
C774 C 0.88602 0.52732 0.85551 0.0
C775 C 0.87938 0.51184 0.8646 0.0
C776 C 0.86143 0.49991 0.8589 0.0
C777 C 0.85029 0.50351 0.84409 0.0
C778 C 0.85759 0.51925 0.83566 0.0
H779 H 0.89986 0.53641 0.85993 0.0
O780 O 0.91609 0.52544 0.80674 0.0
O781 O 0.8919 0.53718 0.80966 0.0
O782 O 0.92686 0.56281 0.8252 0.0
O783 O 0.90369 0.56324 0.84245 0.0
C784 C 0.83237 0.49194 0.83718 0.0
C785 C 0.82222 0.4961 0.82183 0.0
H786 H 0.80724 0.50807 0.79162 0.0
H787 H 0.82299 0.5359 0.77786 0.0
H788 H 0.88809 0.5091 0.87596 0.0
H789 H 0.85638 0.48796 0.86595 0.0
H790 H 0.82634 0.47967 0.84342 0.0
H791 H 0.80856 0.48695 0.81649 0.0
Mn792 Mn 0.76758 0.40388 0.51026 0.0
Mn793 Mn 0.78902 0.44156 0.49134 0.0
C794 C 0.79937 0.41063 0.5087 0.0
C795 C 0.75657 0.3896 0.53487 0.0
C796 C 0.76511 0.40571 0.46922 0.0
O797 O 0.74883 0.41942 0.51044 0.0
O798 O 0.76518 0.44484 0.49943 0.0
C799 C 0.79787 0.46993 0.52424 0.0
N800 N 0.80364 0.4607 0.50997 0.0
C801 C 0.83558 0.47887 0.51837 0.0
C802 C 0.82997 0.48864 0.53311 0.0
C803 C 0.81104 0.4841 0.53609 0.0
C804 C 0.82184 0.46487 0.50705 0.0
H805 H 0.78333 0.46651 0.52656 0.0
C806 C 0.75085 0.43587 0.50619 0.0
O807 O 0.74953 0.38268 0.51816 0.0
O808 O 0.76965 0.4052 0.53733 0.0
N809 N 0.81244 0.44033 0.4832 0.0
C810 C 0.8157 0.42896 0.46894 0.0
C811 C 0.83396 0.43156 0.46422 0.0
C812 C 0.84865 0.44587 0.47412 0.0
C813 C 0.84499 0.45731 0.48882 0.0
C814 C 0.82647 0.45418 0.49278 0.0
H815 H 0.80445 0.41803 0.46118 0.0
O816 O 0.79005 0.39376 0.51024 0.0
O817 O 0.78981 0.42296 0.50808 0.0
O818 O 0.76155 0.39686 0.48278 0.0
O819 O 0.77483 0.42265 0.47087 0.0
C820 C 0.85899 0.47162 0.49978 0.0
C821 C 0.85432 0.48231 0.51461 0.0
H822 H 0.84008 0.49956 0.54229 0.0
H823 H 0.80661 0.49153 0.54747 0.0
H824 H 0.8367 0.42261 0.45291 0.0
H825 H 0.86268 0.44791 0.47032 0.0
H826 H 0.87345 0.47436 0.49706 0.0
H827 H 0.86525 0.49307 0.52311 0.0
Mn828 Mn 0.62908 0.53841 0.28625 0.0
Mn829 Mn 0.66877 0.54655 0.31566 0.0
C830 C 0.64733 0.56864 0.29585 0.0
C831 C 0.61416 0.53344 0.25588 0.0
C832 C 0.62989 0.53664 0.32783 0.0
O833 O 0.63489 0.51289 0.2841 0.0
O834 O 0.66168 0.52031 0.30364 0.0
C835 C 0.69508 0.54264 0.28871 0.0
N836 N 0.69002 0.55304 0.30261 0.0
C837 C 0.7171 0.57865 0.30219 0.0
C838 C 0.72266 0.56815 0.28794 0.0
C839 C 0.71157 0.55008 0.28116 0.0
C840 C 0.70058 0.57045 0.30924 0.0
H841 H 0.68657 0.52877 0.2834 0.0
C842 C 0.64902 0.50875 0.29215 0.0
O843 O 0.6048 0.5287 0.26941 0.0
O844 O 0.63208 0.5402 0.25993 0.0
N845 N 0.67729 0.57158 0.32798 0.0
C846 C 0.66945 0.58024 0.34105 0.0
C847 C 0.67853 0.59862 0.34891 0.0
C848 C 0.69561 0.60786 0.34333 0.0
C849 C 0.70349 0.59861 0.32997 0.0
C850 C 0.69388 0.58024 0.32273 0.0
H851 H 0.6563 0.57322 0.34538 0.0
O852 O 0.62974 0.56561 0.28982 0.0
O853 O 0.65354 0.55395 0.29634 0.0
O854 O 0.62058 0.53523 0.31203 0.0
O855 O 0.64776 0.54052 0.33035 0.0
C856 C 0.72033 0.60701 0.32331 0.0
C857 C 0.72712 0.59705 0.30941 0.0
H858 H 0.73531 0.57389 0.282 0.0
H859 H 0.71572 0.54193 0.2701 0.0
H860 H 0.67234 0.60568 0.35919 0.0
H861 H 0.70248 0.62209 0.34931 0.0
H862 H 0.72805 0.62121 0.32861 0.0
H863 H 0.73993 0.60376 0.30421 0.0
Dy864 Dy 0.05496 0.05323 0.04148 0.0
Dy865 Dy 0.01351 0.02901 0.02267 0.0
C866 C 0.04827 0.03487 0.99933 0.0
O867 O 0.0405 0.07534 0.03519 0.0
O868 O 0.01554 0.05779 0.01481 0.0
O869 O 0.07917 0.07675 0.0432 0.0
O870 O 0.07796 0.05715 0.06287 0.0
O871 O 1.00774 0.04342 0.04878 0.0
O872 O 0.03722 0.04995 0.06442 0.0
O873 O 0.02499 0.01082 0.04035 0.0
O874 O 0.05601 0.02304 0.0388 0.0
O875 O 0.9896 1.00561 0.0227 0.0
O876 O 0.99099 0.02213 1.00034 0.0
C877 C 0.02652 0.07408 0.02242 0.0
O878 O 0.05755 0.04895 0.01157 0.0
O879 O 0.03294 0.02311 1.00272 0.0
C880 C 0.10686 0.06858 0.05247 0.0
C881 C 0.13928 0.05736 0.04598 0.0
C882 C 0.12624 0.05808 0.03127 0.0
C883 C 0.11011 0.06354 0.03448 0.0
C884 C 0.12038 0.06898 0.06711 0.0
C885 C 0.1365 0.06336 0.06391 0.0
C886 C 0.08849 0.07095 0.05612 0.0
C887 C 0.01911 0.04793 0.06421 0.0
C888 C 0.04225 0.00933 0.04222 0.0
C889 C 0.96189 0.01197 0.01076 0.0
C890 C 0.92827 0.02199 0.01395 0.0
C891 C 0.94225 0.02587 0.029 0.0
C892 C 0.95893 0.02095 0.02739 0.0
C893 C 0.94769 0.00729 0.99593 0.0
C894 C 0.93094 0.01227 0.99751 0.0
C895 C 0.98046 0.00942 0.00837 0.0
H896 H 0.12786 0.05325 0.01735 0.0
H897 H 0.09975 0.06287 0.02296 0.0
H898 H 0.11803 0.07273 0.08108 0.0
H899 H 0.1464 0.063 0.07546 0.0
H900 H 0.94078 0.03364 0.04173 0.0
H901 H 0.96981 0.02488 0.03894 0.0
H902 H 0.94984 1.00045 0.98297 0.0
H903 H 0.92032 0.00901 0.98574 0.0
Dy904 Dy 0.29979 0.79256 0.26108 0.0
Dy905 Dy 0.27478 0.79682 0.29479 0.0
C906 C 0.30562 0.83091 0.28633 0.0
O907 O 0.31284 0.78009 0.28347 0.0
O908 O 0.30219 0.79406 0.30789 0.0
O909 O 0.31911 0.80546 0.24331 0.0
O910 O 0.3095 0.77529 0.24091 0.0
O911 O 0.27063 0.7665 0.28569 0.0
O912 O 0.27401 0.76908 0.25579 0.0
O913 O 0.25613 0.79953 0.27031 0.0
O914 O 0.27731 0.80484 0.24927 0.0
O915 O 0.2501 0.78696 0.30805 0.0
O916 O 0.27195 0.81123 0.32076 0.0
C917 C 0.31355 0.78486 0.3012 0.0
O918 O 0.31415 0.81907 0.2791 0.0
O919 O 0.28812 0.82551 0.28936 0.0
C920 C 0.31146 0.78944 0.21396 0.0
C921 C 0.29885 0.79909 0.18035 0.0
C922 C 0.3181 0.80141 0.18546 0.0
C923 C 0.32437 0.79671 0.20224 0.0
C924 C 0.29219 0.78558 0.20819 0.0
C925 C 0.28592 0.79033 0.19149 0.0
C926 C 0.31781 0.78964 0.2333 0.0
C927 C 0.26718 0.7593 0.26842 0.0
C928 C 0.26059 0.80414 0.25429 0.0
C929 C 0.25973 0.78915 0.33932 0.0
C930 C 0.26783 0.77335 0.37081 0.0
C931 C 0.27533 0.76913 0.35468 0.0
C932 C 0.27125 0.7769 0.33908 0.0
C933 C 0.25201 0.79333 0.35528 0.0
C934 C 0.25593 0.78531 0.37098 0.0
C935 C 0.25723 0.79828 0.32309 0.0
H936 H 0.32837 0.80783 0.17698 0.0
H937 H 0.33929 0.7999 0.20658 0.0
H938 H 0.282 0.78018 0.2172 0.0
H939 H 0.27103 0.78849 0.18803 0.0
H940 H 0.28424 0.75967 0.35408 0.0
H941 H 0.2773 0.77349 0.32682 0.0
H942 H 0.2432 0.80288 0.35567 0.0
H943 H 0.24996 0.7887 0.38329 0.0
Dy944 Dy 0.51319 0.03521 0.54328 0.0
Dy945 Dy 0.55615 0.04199 0.53168 0.0
C946 C 0.52377 0.05114 0.50607 0.0
O947 O 0.51289 0.00853 0.52553 0.0
O948 O 0.54447 0.01103 0.529 0.0
O949 O 0.48322 0.02638 0.53585 0.0
O950 O 0.49474 0.03851 0.56371 0.0
O951 O 0.55729 0.03848 0.56125 0.0
O952 O 0.52758 0.02057 0.56232 0.0
O953 O 0.55255 0.07091 0.53782 0.0
O954 O 0.52986 0.06374 0.55689 0.0
O955 O 0.58611 0.05298 0.53883 0.0
O956 O 0.57494 0.03676 0.51241 0.0
C957 C 0.52711 1.00108 0.52398 0.0
O958 O 0.51447 0.05203 0.52018 0.0
O959 O 0.53835 0.04422 0.50647 0.0
C960 C 0.46822 0.04701 0.55101 0.0
C961 C 0.44669 0.0734 0.55042 0.0
C962 C 0.45737 0.07062 0.53613 0.0
C963 C 0.46805 0.05767 0.53647 0.0
C964 C 0.45764 0.04971 0.56532 0.0
C965 C 0.44701 0.06277 0.56505 0.0
C966 C 0.47986 0.03362 0.55162 0.0
C967 C 0.54539 0.02623 0.56879 0.0
C968 C 0.5425 0.07614 0.55011 0.0
C969 C 0.60203 0.03154 0.52721 0.0
C970 C 0.62414 1.00612 0.53109 0.0
C971 C 0.607 1.0035 0.53846 0.0
C972 C 0.59607 0.01608 0.53654 0.0
C973 C 0.61918 0.03442 0.52008 0.0
C974 C 0.63017 0.02186 0.52203 0.0
C975 C 0.58985 0.044 0.52416 0.0
H976 H 0.45728 0.07825 0.52448 0.0
H977 H 0.47617 0.05599 0.5253 0.0
H978 H 0.45771 0.0418 0.57677 0.0
H979 H 0.4392 0.06467 0.57643 0.0
H980 H 0.60178 0.99145 0.54531 0.0
H981 H 0.58278 0.01358 0.54207 0.0
H982 H 0.62399 0.04627 0.51283 0.0
H983 H 0.64341 0.02448 0.51643 0.0
Dy984 Dy 0.30456 0.27865 0.77792 0.0
Dy985 Dy 0.26438 0.29051 0.7735 0.0
C986 C 0.30311 0.31855 0.76853 0.0
O987 O 0.30244 0.29376 0.80534 0.0
O988 O 0.27049 0.28738 0.8029 0.0
O989 O 0.33444 0.28688 0.78639 0.0
O990 O 0.32098 0.25883 0.7732 0.0
O991 O 0.2575 0.25956 0.77211 0.0
O992 O 0.28391 0.25579 0.78821 0.0
O993 O 0.27157 0.28689 0.74462 0.0
O994 O 0.29076 0.26755 0.74939 0.0
O995 O 0.2348 0.2846 0.76376 0.0
O996 O 0.24868 0.31019 0.78139 0.0
C997 C 0.28691 0.293 0.81284 0.0
O998 O 0.30927 0.30402 0.76379 0.0
O999 O 0.28762 0.31682 0.77618 0.0
C1000 C 0.35121 0.27302 0.76607 0.0
C1001 C 0.37919 0.27718 0.7421 0.0
C1002 C 0.36194 0.28108 0.73711 0.0
C1003 C 0.34812 0.27903 0.74898 0.0
C1004 C 0.36829 0.26903 0.7711 0.0
C1005 C 0.38213 0.27108 0.75925 0.0
C1006 C 0.33687 0.27123 0.7788 0.0
C1007 C 0.2661 0.24956 0.78157 0.0
C1008 C 0.28073 0.27501 0.73829 0.0
C1009 C 0.21781 0.29553 0.78609 0.0
C1010 C 0.19021 0.29033 0.81054 0.0
C1011 C 0.20563 0.28263 0.8128 0.0
C1012 C 0.21925 0.2852 0.80071 0.0
C1013 C 0.20242 0.30306 0.78362 0.0
C1014 C 0.18876 0.30047 0.79568 0.0
C1015 C 0.23266 0.2991 0.7739 0.0
H1016 H 0.35922 0.28602 0.72416 0.0
H1017 H 0.33504 0.28226 0.74488 0.0
H1018 H 0.37094 0.26436 0.78421 0.0
H1019 H 0.39508 0.26769 0.76347 0.0
H1020 H 0.20741 0.27495 0.82416 0.0
H1021 H 0.23106 0.27932 0.80292 0.0
H1022 H 0.20103 0.31107 0.77243 0.0
H1023 H 0.17699 0.30636 0.79327 0.0
Dy1024 Dy 0.04378 0.01649 0.52826 0.0
Dy1025 Dy 0.03022 0.05577 0.53353 0.0
C1026 C 1.00251 0.0168 0.538 0.0
O1027 O 0.03965 0.02388 0.4997 0.0
O1028 O 0.01869 0.0411 0.50535 0.0
O1029 O 0.039 0.9874 0.51721 0.0
O1030 O 0.06389 1.0013 0.53586 0.0
O1031 O 0.0558 0.06138 0.51933 0.0
O1032 O 0.06962 0.04019 0.53071 0.0
O1033 O 0.04544 0.05399 0.56088 0.0
O1034 O 0.04072 0.02225 0.55783 0.0
O1035 O 0.03735 0.08553 0.54206 0.0
O1036 O 0.00957 0.07126 0.52864 0.0
C1037 C 0.02674 0.03194 0.49384 0.0
O1038 O 0.01284 0.00851 0.52838 0.0
O1039 O 1.00788 0.03476 0.54411 0.0
C1040 C 0.04973 0.96992 0.53875 0.0
C1041 C 0.04411 0.94099 0.56125 0.0
C1042 C 0.03747 0.95685 0.56534 0.0
C1043 C 0.04021 0.97112 0.55418 0.0
C1044 C 0.05623 0.95411 0.53449 0.0
C1045 C 0.05342 0.93976 0.54559 0.0
C1046 C 0.05341 0.98536 0.52746 0.0
C1047 C 0.07078 0.05576 0.52359 0.0
C1048 C 0.04542 0.03855 0.56805 0.0
C1049 C 0.02299 0.10155 0.52146 0.0
C1050 C 0.02552 0.1288 0.49706 0.0
C1051 C 0.03747 0.11682 0.49686 0.0
C1052 C 0.03617 0.10333 0.50886 0.0
C1053 C 0.01098 0.11332 0.52167 0.0
C1054 C 0.01219 0.12676 0.50962 0.0
C1055 C 0.02157 0.08737 0.53423 0.0
H1056 H 0.03003 0.9582 0.57711 0.0
H1057 H 0.03499 0.98318 0.55767 0.0
H1058 H 0.06367 0.95293 0.52269 0.0
H1059 H 0.0589 0.92789 0.54211 0.0
H1060 H 0.04807 0.11803 0.48763 0.0
H1061 H 0.04553 0.09433 0.50834 0.0
H1062 H 1.0006 0.11209 0.53116 0.0
H1063 H 1.0025 0.13542 0.51002 0.0
Dy1064 Dy 0.28627 0.80687 0.76777 0.0
Dy1065 Dy 0.279 0.76344 0.77679 0.0
C1066 C 0.26997 0.79443 0.80463 0.0
O1067 O 0.31524 0.80379 0.77587 0.0
O1068 O 0.30693 0.77907 0.79228 0.0
O1069 O 0.29692 0.83676 0.77505 0.0
O1070 O 0.28183 0.82536 0.74823 0.0
O1071 O 0.29847 0.76756 0.75569 0.0
O1072 O 0.28656 0.78856 0.74194 0.0
O1073 O 0.25272 0.76488 0.75948 0.0
O1074 O 0.25527 0.79602 0.76687 0.0
O1075 O 0.27111 0.73424 0.76569 0.0
O1076 O 0.27974 0.74259 0.79479 0.0
C1077 C 0.31971 0.79292 0.78754 0.0
O1078 O 0.28111 0.80724 0.79694 0.0
O1079 O 0.26502 0.77672 0.79773 0.0
C1080 C 0.27617 0.85272 0.76221 0.0
C1081 C 0.25052 0.87489 0.76444 0.0
C1082 C 0.25 0.86065 0.77557 0.0
C1083 C 0.26263 0.84961 0.7744 0.0
C1084 C 0.27687 0.86699 0.7512 0.0
C1085 C 0.26416 0.87797 0.75228 0.0
C1086 C 0.28864 0.84032 0.76003 0.0
C1087 C 0.29554 0.77557 0.74129 0.0
C1088 C 0.24515 0.7791 0.7604 0.0
C1089 C 0.28945 0.71743 0.78054 0.0
C1090 C 0.31489 0.69507 0.77788 0.0
C1091 C 0.32132 0.71466 0.77974 0.0
C1092 C 0.30871 0.72572 0.78096 0.0
C1093 C 0.28297 0.69794 0.77875 0.0
C1094 C 0.29556 0.68686 0.77741 0.0
C1095 C 0.27608 0.729 0.78124 0.0
H1096 H 0.23954 0.85775 0.7849 0.0
H1097 H 0.26165 0.83845 0.78282 0.0
H1098 H 0.28711 0.86949 0.74161 0.0
H1099 H 0.26508 0.88894 0.74366 0.0
H1100 H 0.33607 0.72143 0.77994 0.0
H1101 H 0.31396 0.74076 0.78209 0.0
H1102 H 0.26816 0.6913 0.7783 0.0
H1103 H 0.29017 0.67184 0.77622 0.0
Dy1104 Dy 0.51698 0.04212 0.00933 0.0
Dy1105 Dy 0.53146 0.02209 0.04324 0.0
C1106 C 0.53364 0.00681 1.00162 0.0
O1107 O 0.49305 0.01799 0.01169 0.0
O1108 O 0.50037 0.01419 0.04161 0.0
O1109 O 0.5039 0.04025 0.98165 0.0
O1110 O 0.51455 0.06714 0.99825 0.0
O1111 O 0.52713 0.04918 0.05576 0.0
O1112 O 0.50562 0.05373 0.03366 0.0
O1113 O 0.55719 0.03728 0.03253 0.0
O1114 O 0.54498 0.05989 0.02199 0.0
O1115 O 0.54911 0.02426 0.0687 0.0
O1116 O 0.53075 0.99755 0.05646 0.0
C1117 C 0.48856 0.01079 0.0266 0.0
O1118 O 0.53344 0.02337 0.99714 0.0
O1119 O 0.53002 1.00244 0.01788 0.0
C1120 C 0.51946 0.06505 0.96736 0.0
C1121 C 0.54064 0.07359 0.93833 0.0
C1122 C 0.54945 0.07211 0.95553 0.0
C1123 C 0.53894 0.06782 0.96989 0.0
C1124 C 0.51062 0.06712 0.95046 0.0
C1125 C 0.52115 0.07138 0.93601 0.0
C1126 C 0.50839 0.0583 0.98184 0.0
C1127 C 0.51449 0.05772 0.0504 0.0
C1128 C 0.55936 0.0542 0.02823 0.0
C1129 C 0.53293 1.00524 0.08826 0.0
C1130 C 0.51767 1.00614 0.12163 0.0
C1131 C 0.50668 1.0062 0.10517 0.0
C1132 C 0.51425 1.00581 0.08867 0.0
C1133 C 0.54387 1.00467 0.10454 0.0
C1134 C 0.53629 1.00512 0.12116 0.0
C1135 C 0.54126 0.00714 0.07114 0.0
H1136 H 0.56436 0.07337 0.95768 0.0
H1137 H 0.54597 0.066 0.9828 0.0
H1138 H 0.49556 0.0649 0.94829 0.0
H1139 H 0.51402 0.07253 0.92292 0.0
H1140 H 0.49244 0.00738 0.10509 0.0
H1141 H 0.50565 0.00657 0.07629 0.0
H1142 H 0.55837 1.00441 0.10447 0.0
H1143 H 0.54504 1.00499 0.13366 0.0
Dy1144 Dy 0.26823 0.26853 0.26567 0.0
Dy1145 Dy 0.29083 0.31005 0.28551 0.0
C1146 C 0.28593 0.27487 0.30779 0.0
O1147 O 0.24716 0.27815 0.2813 0.0
O1148 O 0.26022 0.30972 0.28413 0.0
O1149 O 0.25277 0.24003 0.26678 0.0
O1150 O 0.25814 0.2495 0.24069 0.0
O1151 O 0.28677 0.31238 0.25559 0.0
O1152 O 0.2609 0.28792 0.24676 0.0
O1153 O 0.31357 0.29554 0.28098 0.0
O1154 O 0.29724 0.27359 0.25731 0.0
O1155 O 0.31165 0.33611 0.28543 0.0
O1156 O 0.29579 0.33185 0.30839 0.0
C1157 C 0.24603 0.29536 0.28544 0.0
O1158 O 0.28279 0.26383 0.29213 0.0
O1159 O 0.28686 0.29267 0.30828 0.0
C1160 C 0.26161 0.21967 0.24512 0.0
C1161 C 0.28209 0.19272 0.24386 0.0
C1162 C 0.26471 0.18912 0.25078 0.0
C1163 C 0.25453 0.20251 0.25137 0.0
C1164 C 0.2784 0.22277 0.23712 0.0
C1165 C 0.2885 0.20937 0.23644 0.0
C1166 C 0.25304 0.23512 0.2494 0.0
C1167 C 0.27253 0.30332 0.24347 0.0
C1168 C 0.31324 0.28313 0.26682 0.0
C1169 C 0.30085 0.36099 0.29831 0.0
C1170 C 0.28408 0.39069 0.29693 0.0
C1171 C 0.2812 0.37686 0.28177 0.0
C1172 C 0.28943 0.36209 0.28249 0.0
C1173 C 0.30436 0.37511 0.31322 0.0
C1174 C 0.29603 0.38989 0.31254 0.0
C1175 C 0.30681 0.34393 0.30013 0.0
H1176 H 0.25939 0.17629 0.25644 0.0
H1177 H 0.24165 0.19986 0.25762 0.0
H1178 H 0.2843 0.23594 0.2323 0.0
H1179 H 0.30193 0.21261 0.23121 0.0
H1180 H 0.27185 0.37694 0.26968 0.0
H1181 H 0.28622 0.35112 0.27096 0.0
H1182 H 0.31296 0.37433 0.3256 0.0
H1183 H 0.29858 0.40045 0.32436 0.0
Dy1184 Dy 0.54447 0.51687 0.02829 0.0
Dy1185 Dy 0.53058 0.5559 0.03345 0.0
C1186 C 0.50355 0.51628 0.03755 0.0
O1187 O 0.52949 0.51858 1.00088 0.0
O1188 O 0.53396 0.55028 1.00391 0.0
O1189 O 0.53794 0.48729 0.01906 0.0
O1190 O 0.56526 0.50164 0.03349 0.0
O1191 O 0.56171 0.56416 0.03449 0.0
O1192 O 0.56681 0.53832 0.01824 0.0
O1193 O 0.53412 0.54839 0.06207 0.0
O1194 O 0.55489 0.53079 0.0569 0.0
O1195 O 0.53492 0.58503 0.04405 0.0
O1196 O 0.50997 0.57053 0.02569 0.0
C1197 C 0.52939 0.53397 0.9937 0.0
O1198 O 0.51849 0.51061 0.04185 0.0
O1199 O 0.5048 0.53199 0.03066 0.0
C1200 C 0.55169 0.47111 0.03981 0.0
C1201 C 0.54792 0.44331 0.06354 0.0
C1202 C 0.53713 0.45632 0.06458 0.0
C1203 C 0.53905 0.47011 0.05291 0.0
C1204 C 0.56259 0.45829 0.0388 0.0
C1205 C 0.56077 0.44455 0.05056 0.0
C1206 C 0.55356 0.4855 0.02731 0.0
C1207 C 0.5723 0.55612 0.02497 0.0
C1208 C 0.54655 0.53987 0.06819 0.0
C1209 C 0.52318 0.60212 0.0222 0.0
C1210 C 0.52763 0.63061 0.99908 0.0
C1211 C 0.54335 0.62643 0.008 0.0
C1212 C 0.54117 0.61229 0.01935 0.0
C1213 C 0.5075 0.60641 0.01344 0.0
C1214 C 0.50968 0.62041 1.00199 0.0
C1215 C 0.52039 0.58667 0.03367 0.0
H1216 H 0.5273 0.45596 0.07456 0.0
H1217 H 0.53064 0.47999 0.05409 0.0
H1218 H 0.57246 0.45884 0.02883 0.0
H1219 H 0.56919 0.43468 0.04927 0.0
H1220 H 0.55738 0.63386 0.00594 0.0
H1221 H 0.55357 0.60924 0.02574 0.0
H1222 H 0.49349 0.59882 0.01538 0.0
H1223 H 0.49726 0.62339 0.99554 0.0
Dy1224 Dy 0.7849 0.30434 0.26569 0.0
Dy1225 Dy 0.77733 0.26209 0.2786 0.0
C1226 C 0.76907 0.29573 0.30333 0.0
O1227 O 0.81168 0.30495 0.28323 0.0
O1228 O 0.80848 0.27337 0.2821 0.0
O1229 O 0.79374 0.33427 0.2727 0.0
O1230 O 0.78202 0.32214 0.2449 0.0
O1231 O 0.78189 0.25994 0.2492 0.0
O1232 O 0.79998 0.28929 0.24739 0.0
O1233 O 0.74853 0.266 0.2717 0.0
O1234 O 0.75665 0.28736 0.25175 0.0
O1235 O 0.76604 0.23219 0.27191 0.0
O1236 O 0.78158 0.24383 0.29845 0.0
C1237 C 0.81866 0.29074 0.28608 0.0
O1238 O 0.7676 0.30383 0.28862 0.0
O1239 O 0.77589 0.28116 0.30342 0.0
C1240 C 0.77349 0.34886 0.25716 0.0
C1241 C 0.74808 0.37135 0.25861 0.0
C1242 C 0.74638 0.35637 0.26893 0.0
C1243 C 0.75888 0.34519 0.26813 0.0
C1244 C 0.77513 0.36363 0.24664 0.0
C1245 C 0.76249 0.37475 0.2473 0.0
C1246 C 0.7869 0.33728 0.25674 0.0
C1247 C 0.79434 0.2714 0.24143 0.0
C1248 C 0.74379 0.2754 0.25875 0.0
C1249 C 0.78691 0.21631 0.28438 0.0
C1250 C 0.8118 0.19339 0.281 0.0
C1251 C 0.81534 0.21059 0.27399 0.0
C1252 C 0.80302 0.22191 0.27566 0.0
C1253 C 0.78317 0.19914 0.29123 0.0
C1254 C 0.79547 0.18776 0.28954 0.0
C1255 C 0.7745 0.22874 0.28687 0.0
H1256 H 0.73529 0.3532 0.27757 0.0
H1257 H 0.75719 0.3337 0.27616 0.0
H1258 H 0.78625 0.36664 0.23803 0.0
H1259 H 0.76423 0.38625 0.23927 0.0
H1260 H 0.82786 0.21553 0.26757 0.0
H1261 H 0.8062 0.23517 0.27034 0.0
H1262 H 0.7708 0.19459 0.298 0.0
H1263 H 0.79213 0.17451 0.29486 0.0
Dy1264 Dy 0.01437 0.54062 0.51165 0.0
Dy1265 Dy 0.03284 0.52341 0.54561 0.0
C1266 C 0.03289 0.50628 0.50462 0.0
O1267 O 0.99054 0.5272 0.52599 0.0
O1268 O 1.00391 0.50542 0.53667 0.0
O1269 O 0.99409 0.53593 0.48763 0.0
O1270 O 0.01297 0.56333 0.49624 0.0
O1271 O 0.01813 0.54329 0.5589 0.0
O1272 O 0.01692 0.56174 0.5361 0.0
O1273 O 0.05528 0.5478 0.54096 0.0
O1274 O 0.0452 0.55061 0.51134 0.0
O1275 O 0.04874 0.52666 0.57223 0.0
O1276 O 0.03672 0.49911 0.55724 0.0
C1277 C 0.98904 0.5111 0.53203 0.0
O1278 O 0.01872 0.51319 0.50019 0.0
O1279 O 0.04315 0.51175 0.52062 0.0
C1280 C 1.00808 0.55219 0.46513 0.0
C1281 C 0.02271 0.55218 0.43144 0.0
C1282 C 0.03061 0.5448 0.44596 0.0
C1283 C 0.02333 0.54475 0.46259 0.0
C1284 C 1.00004 0.55958 0.45079 0.0
C1285 C 1.00732 0.55959 0.43399 0.0
C1286 C 1.00125 0.55238 0.48304 0.0
C1287 C 0.01608 0.55891 0.55327 0.0
C1288 C 0.05804 0.55481 0.52563 0.0
C1289 C 0.03481 0.50317 0.58879 0.0
C1290 C 0.01666 0.49892 0.62037 0.0
C1291 C 1.00629 0.49788 0.60325 0.0
C1292 C 0.01529 0.50005 0.58763 0.0
C1293 C 0.04514 0.50327 0.60561 0.0
C1294 C 0.03612 0.50111 0.62133 0.0
C1295 C 0.04434 0.50876 0.57301 0.0
H1296 H 0.04271 0.53939 0.44463 0.0
H1297 H 0.02977 0.53908 0.47359 0.0
H1298 H 0.98826 0.56538 0.45261 0.0
H1299 H 1.00092 0.5653 0.42301 0.0
H1300 H 0.99136 0.49656 0.60206 0.0
H1301 H 1.00709 0.50022 0.57478 0.0
H1302 H 0.06024 0.50581 0.60674 0.0
H1303 H 0.04444 0.50183 0.63432 0.0
Dy1304 Dy 0.80673 0.77816 0.28098 0.0
Dy1305 Dy 0.76662 0.79027 0.27669 0.0
C1306 C 0.80545 0.81822 0.2718 0.0
O1307 O 0.80451 0.79308 0.30851 0.0
O1308 O 0.77253 0.78635 0.30589 0.0
O1309 O 0.83666 0.78641 0.28919 0.0
O1310 O 0.82316 0.75839 0.27599 0.0
O1311 O 0.75954 0.75935 0.27543 0.0
O1312 O 0.78604 0.75507 0.29098 0.0
O1313 O 0.77375 0.7866 0.24781 0.0
O1314 O 0.7927 0.76705 0.25255 0.0
O1315 O 0.73715 0.78482 0.26665 0.0
O1316 O 0.75105 0.80989 0.28508 0.0
C1317 C 0.78888 0.79183 0.31596 0.0
O1318 O 0.81145 0.80359 0.26699 0.0
O1319 O 0.7899 0.81653 0.27935 0.0
C1320 C 0.85315 0.77276 0.26835 0.0
C1321 C 0.88056 0.77718 0.24372 0.0
C1322 C 0.86319 0.78099 0.23917 0.0
C1323 C 0.84965 0.77883 0.25135 0.0
C1324 C 0.87034 0.76884 0.27294 0.0
C1325 C 0.8839 0.77101 0.26078 0.0
C1326 C 0.83906 0.77084 0.28139 0.0
C1327 C 0.76811 0.74918 0.28469 0.0
C1328 C 0.78277 0.7746 0.24148 0.0
C1329 C 0.71987 0.79537 0.28895 0.0
C1330 C 0.69162 0.78996 0.3127 0.0
C1331 C 0.70734 0.78283 0.31569 0.0
C1332 C 0.72129 0.7855 0.30394 0.0
C1333 C 0.70416 0.80228 0.28575 0.0
C1334 C 0.69018 0.79959 0.29745 0.0
C1335 C 0.73504 0.79913 0.27713 0.0
H1336 H 0.86016 0.78598 0.22631 0.0
H1337 H 0.83648 0.78202 0.24756 0.0
H1338 H 0.87331 0.76412 0.28597 0.0
H1339 H 0.89695 0.76767 0.26468 0.0
H1340 H 0.70911 0.77555 0.32735 0.0
H1341 H 0.73334 0.78008 0.30671 0.0
H1342 H 0.70278 0.80992 0.27426 0.0
H1343 H 0.67819 0.80503 0.29449 0.0
Dy1344 Dy 0.79972 0.29265 0.75827 0.0
Dy1345 Dy 0.77423 0.29495 0.79174 0.0
C1346 C 0.80491 0.32996 0.78442 0.0
O1347 O 0.81504 0.2823 0.78076 0.0
O1348 O 0.80069 0.29058 0.80552 0.0
O1349 O 0.81707 0.30602 0.73917 0.0
O1350 O 0.81061 0.27595 0.73864 0.0
O1351 O 0.77224 0.26498 0.7833 0.0
O1352 O 0.77463 0.26817 0.75339 0.0
O1353 O 0.75536 0.29534 0.76647 0.0
O1354 O 0.77732 0.30551 0.7474 0.0
O1355 O 0.74778 0.28651 0.80234 0.0
O1356 O 0.77103 0.30721 0.81859 0.0
C1357 C 0.81403 0.28446 0.7985 0.0
O1358 O 0.81389 0.31852 0.77724 0.0
O1359 O 0.78724 0.32397 0.78672 0.0
C1360 C 0.80944 0.28804 0.71066 0.0
C1361 C 0.79411 0.29216 0.67572 0.0
C1362 C 0.78233 0.2851 0.68856 0.0
C1363 C 0.78994 0.28309 0.7059 0.0
C1364 C 0.82127 0.29386 0.69755 0.0
C1365 C 0.81365 0.29582 0.68012 0.0
C1366 C 0.81701 0.29013 0.72994 0.0
C1367 C 0.76873 0.25791 0.76603 0.0
C1368 C 0.75997 0.30211 0.75135 0.0
C1369 C 0.75242 0.28501 0.83376 0.0
C1370 C 0.75137 0.26499 0.86384 0.0
C1371 C 0.7567 0.25804 0.84737 0.0
C1372 C 0.7573 0.26801 0.83249 0.0
C1373 C 0.74686 0.29193 0.85005 0.0
C1374 C 0.74637 0.28198 0.86506 0.0
C1375 C 0.75444 0.29594 0.81846 0.0
H1376 H 0.76726 0.28241 0.68573 0.0
H1377 H 0.78059 0.27881 0.71598 0.0
H1378 H 0.83635 0.29786 0.70108 0.0
H1379 H 0.82304 0.30109 0.6704 0.0
H1380 H 0.76097 0.24517 0.84617 0.0
H1381 H 0.76195 0.26262 0.82008 0.0
H1382 H 0.74322 0.30513 0.85125 0.0
H1383 H 0.74219 0.28759 0.87763 0.0
Dy1384 Dy 0.76952 0.76724 0.76742 0.0
Dy1385 Dy 0.7917 0.80907 0.7868 0.0
C1386 C 0.7863 0.77531 0.80961 0.0
O1387 O 0.74589 0.7804 0.77185 0.0
O1388 O 0.76227 0.80393 0.79429 0.0
O1389 O 0.75513 0.73876 0.76994 0.0
O1390 O 0.76 0.7467 0.74328 0.0
O1391 O 0.77761 0.81326 0.75998 0.0
O1392 O 0.77457 0.78435 0.74449 0.0
O1393 O 0.81359 0.79954 0.77233 0.0
O1394 O 0.80018 0.76799 0.7688 0.0
O1395 O 0.80873 0.83702 0.7861 0.0
O1396 O 0.79889 0.82893 0.81142 0.0
C1397 C 0.74627 0.79353 0.78536 0.0
O1398 O 0.77151 0.76717 0.79779 0.0
O1399 O 0.79894 0.78962 0.80567 0.0
C1400 C 0.7671 0.71932 0.75017 0.0
C1401 C 0.79169 0.69719 0.74272 0.0
C1402 C 0.79616 0.71113 0.75786 0.0
C1403 C 0.78397 0.722 0.76159 0.0
C1404 C 0.76233 0.70515 0.73518 0.0
C1405 C 0.77451 0.69394 0.73159 0.0
C1406 C 0.75607 0.73294 0.75293 0.0
C1407 C 0.77508 0.80203 0.74454 0.0
C1408 C 0.81456 0.78229 0.76803 0.0
C1409 C 0.79731 0.85817 0.80427 0.0
C1410 C 0.77889 0.88672 0.8077 0.0
C1411 C 0.77051 0.86991 0.79618 0.0
C1412 C 0.7796 0.85577 0.79454 0.0
C1413 C 0.80586 0.87485 0.81577 0.0
C1414 C 0.79671 0.88909 0.81746 0.0
C1415 C 0.80618 0.84275 0.8027 0.0
H1416 H 0.80914 0.71362 0.76686 0.0
H1417 H 0.78797 0.73282 0.77326 0.0
H1418 H 0.74947 0.70304 0.7261 0.0
H1419 H 0.77076 0.68311 0.71992 0.0
H1420 H 0.757 0.86775 0.78818 0.0
H1421 H 0.77276 0.8429 0.78566 0.0
H1422 H 0.81947 0.8768 0.82348 0.0
H1423 H 0.80346 0.90184 0.82653 0.0
Dy1424 Dy 0.5538 0.55227 0.54093 0.0
Dy1425 Dy 0.51296 0.5284 0.52071 0.0
C1426 C 0.54873 0.53468 0.49863 0.0
O1427 O 0.54358 0.57249 0.52502 0.0
O1428 O 0.51204 0.55857 0.52167 0.0
O1429 O 0.58192 0.56934 0.54043 0.0
O1430 O 0.57211 0.56282 0.56619 0.0
O1431 O 0.51004 0.53226 0.55061 0.0
O1432 O 0.53332 0.55905 0.55921 0.0
O1433 O 0.52912 0.50703 0.52465 0.0
O1434 O 0.54968 0.52343 0.54916 0.0
O1435 O 0.48938 0.50432 0.51929 0.0
O1436 O 0.48946 0.52389 0.49975 0.0
C1437 C 0.5262 0.57304 0.52056 0.0
O1438 O 0.55965 0.53842 0.51437 0.0
O1439 O 0.53064 0.5328 0.49799 0.0
C1440 C 0.60306 0.56282 0.5625 0.0
C1441 C 0.63455 0.54856 0.56625 0.0
C1442 C 0.61643 0.53674 0.56558 0.0
C1443 C 0.60085 0.5438 0.56367 0.0
C1444 C 0.62108 0.57488 0.56403 0.0
C1445 C 0.63677 0.5678 0.56591 0.0
C1446 C 0.58656 0.56954 0.55788 0.0
C1447 C 0.51834 0.54686 0.56263 0.0
C1448 C 0.54095 0.50744 0.53916 0.0
C1449 C 0.46132 0.51176 0.51113 0.0
C1450 C 0.42715 0.51871 0.51854 0.0
C1451 C 0.44356 0.52686 0.53067 0.0
C1452 C 0.4605 0.52344 0.52697 0.0
C1453 C 0.44495 0.50307 0.49928 0.0
C1454 C 0.42792 0.50651 0.50296 0.0
C1455 C 0.47951 0.50981 0.50659 0.0
H1456 H 0.61418 0.52181 0.56542 0.0
H1457 H 0.58703 0.53422 0.56231 0.0
H1458 H 0.62299 0.5896 0.56307 0.0
H1459 H 0.65059 0.57723 0.56646 0.0
H1460 H 0.44353 0.53659 0.54259 0.0
H1461 H 0.4731 0.5304 0.53618 0.0
H1462 H 0.44543 0.49404 0.48698 0.0
H1463 H 0.41546 0.49998 0.49344 0.0
Dy1464 Dy 0.01521 0.53702 0.03952 0.0
Dy1465 Dy 0.05813 0.54388 0.02771 0.0
C1466 C 0.02531 0.55209 1.00174 0.0
O1467 O 0.01485 0.51017 0.02212 0.0
O1468 O 0.04648 0.51287 0.02536 0.0
O1469 O 0.98519 0.52854 0.03236 0.0
O1470 O 0.99706 0.54017 0.06023 0.0
O1471 O 0.05927 0.54141 0.05748 0.0
O1472 O 0.03002 0.52261 0.05849 0.0
O1473 O 0.05431 0.57282 0.03343 0.0
O1474 O 0.03184 0.56569 0.05273 0.0
O1475 O 0.08807 0.55506 0.03479 0.0
O1476 O 0.07699 0.53819 0.00867 0.0
C1477 C 0.02911 0.50281 0.02053 0.0
O1478 O 0.01596 0.55302 0.01583 0.0
O1479 O 0.04036 0.5459 1.00241 0.0
C1480 C 0.97062 0.54901 0.04805 0.0
C1481 C 0.9487 0.57492 0.04714 0.0
C1482 C 0.96431 0.57682 0.03739 0.0
C1483 C 0.9752 0.56406 0.03791 0.0
C1484 C 0.9552 0.54714 0.05795 0.0
C1485 C 0.94436 0.56001 0.05756 0.0
C1486 C 0.98201 0.53544 0.04834 0.0
C1487 C 0.04776 0.52891 0.06509 0.0
C1488 C 0.04431 0.57808 0.04577 0.0
C1489 C 0.10423 0.53351 0.02383 0.0
C1490 C 0.12675 0.50857 0.02879 0.0
C1491 C 0.11023 0.50682 0.03716 0.0
C1492 C 0.09909 0.51915 0.03469 0.0
C1493 C 0.12073 0.53546 0.0156 0.0
C1494 C 0.13191 0.52313 0.01807 0.0
C1495 C 0.09188 0.54575 0.02036 0.0
H1496 H 0.9682 0.58828 0.02945 0.0
H1497 H 0.9872 0.56591 0.03035 0.0
H1498 H 0.95149 0.53567 0.06592 0.0
H1499 H 0.93235 0.55808 0.06511 0.0
H1500 H 0.10593 0.49596 0.04569 0.0
H1501 H 0.08634 0.51738 0.04112 0.0
H1502 H 0.12483 0.54634 0.00704 0.0
H1503 H 0.14437 0.52475 0.01121 0.0
H1504 H 1.00278 0.23491 0.98204 0.0
H1505 H 1.00529 0.20669 0.995 0.0
H1506 H 0.01542 0.18272 0.94253 0.0
H1507 H 0.01145 0.21041 0.92928 0.0
H1508 H 0.99589 0.15644 0.95561 0.0
H1509 H 0.04929 0.19213 0.01352 0.0
H1510 H 0.02853 0.19992 0.01496 0.0
H1511 H 0.04183 0.20456 0.99595 0.0
C1512 C 1.00556 0.22362 0.97326 0.0
C1513 C 1.00701 0.22506 0.9546 0.0
C1514 C 1.00724 0.20746 0.98077 0.0
C1515 C 0.0112 0.19246 0.97006 0.0
C1516 C 0.01248 0.1939 0.95133 0.0
H1517 H 0.0529 0.10696 0.02134 0.0
H1518 H 0.04893 0.13465 0.00823 0.0
C1519 C 0.01025 0.20985 0.9437 0.0
C1520 C 0.01352 0.17518 0.97813 0.0
H1521 H 0.03418 0.16022 0.015 0.0
C1522 C 1.00444 0.15738 0.96854 0.0
C1523 C 0.02492 0.17595 0.99488 0.0
C1524 C 0.03685 0.19416 1.00529 0.0
C1525 C 1.00626 0.1407 0.9751 0.0
C1526 C 0.01671 0.14147 0.9924 0.0
C1527 C 0.0259 0.15927 1.00192 0.0
C1528 C 0.01893 0.12421 1.00058 0.0
C1529 C 0.99749 0.12251 0.96287 0.0
C1530 C 1.0035 0.10881 1.00115 0.0
C1531 C 1.00588 0.09262 0.00821 0.0
C1532 C 0.02367 0.09158 0.01566 0.0
C1533 C 0.03896 0.10723 0.01584 0.0
C1534 C 0.03667 0.12318 0.00829 0.0
H1535 H 0.99601 0.12466 0.94823 0.0
H1536 H 1.00593 0.11231 0.9644 0.0
H1537 H 0.98323 0.11645 0.96641 0.0
H1538 H 0.98949 0.10923 0.99616 0.0
H1539 H 0.99373 0.08096 0.008 0.0
H1540 H 0.13101 0.80859 0.12422 0.0
H1541 H 0.16027 0.80886 0.14276 0.0
H1542 H 0.13897 0.82803 0.19129 0.0
H1543 H 0.1098 0.82781 0.17295 0.0
H1544 H 0.18751 0.83808 0.16928 0.0
H1545 H 0.15005 0.77738 0.20086 0.0
H1546 H 0.14039 0.78397 0.18007 0.0
H1547 H 0.13966 0.79668 0.20186 0.0
C1548 C 0.13268 0.8132 0.13879 0.0
C1549 C 0.11796 0.81809 0.14708 0.0
C1550 C 0.14942 0.81331 0.14938 0.0
C1551 C 0.15172 0.81818 0.16847 0.0
C1552 C 0.13744 0.82397 0.17662 0.0
H1553 H 0.22753 0.81143 0.2617 0.0
H1554 H 0.20254 0.81577 0.24022 0.0
C1555 C 0.12077 0.82393 0.16608 0.0
C1556 C 0.16846 0.81622 0.18006 0.0
H1557 H 0.18133 0.79201 0.21349 0.0
C1558 C 0.18623 0.82797 0.1789 0.0
C1559 C 0.1668 0.80294 0.19254 0.0
C1560 C 0.14825 0.78939 0.19387 0.0
C1561 C 0.20224 0.82728 0.19039 0.0
C1562 C 0.20052 0.81418 0.20314 0.0
C1563 C 0.18275 0.80217 0.20391 0.0
C1564 C 0.21665 0.81286 0.21619 0.0
C1565 C 0.22068 0.84105 0.18915 0.0
C1566 C 0.23315 0.80986 0.21002 0.0
C1567 C 0.24768 0.80764 0.22242 0.0
C1568 C 0.24591 0.80796 0.24123 0.0
C1569 C 0.22943 0.81104 0.24735 0.0
C1570 C 0.21506 0.81352 0.23502 0.0
H1571 H 0.21864 0.85331 0.18274 0.0
H1572 H 0.22881 0.84607 0.20289 0.0
H1573 H 0.22908 0.83414 0.18053 0.0
H1574 H 0.23464 0.80874 0.19557 0.0
H1575 H 0.26007 0.80512 0.21717 0.0
H1576 H 0.52278 0.84708 0.42829 0.0
H1577 H 0.52458 0.87738 0.44507 0.0
H1578 H 0.50351 0.85076 0.49063 0.0
H1579 H 0.50201 0.82007 0.47388 0.0
H1580 H 0.49709 0.89091 0.45613 0.0
H1581 H 0.547 0.89187 0.51698 0.0
H1582 H 0.54326 0.87473 0.49699 0.0
H1583 H 0.52667 0.87229 0.51338 0.0
C1584 C 0.51871 0.84755 0.44198 0.0
C1585 C 0.51228 0.83095 0.44968 0.0
C1586 C 0.5197 0.86501 0.45158 0.0
C1587 C 0.51429 0.8666 0.46924 0.0
C1588 C 0.50813 0.8501 0.47719 0.0
H1589 H 0.49356 0.97384 0.51413 0.0
H1590 H 0.48905 0.94091 0.50203 0.0
C1591 C 0.50725 0.83249 0.46757 0.0
C1592 C 0.51452 0.88552 0.47868 0.0
H1593 H 0.53356 0.91735 0.51669 0.0
C1594 C 0.50501 0.89663 0.46942 0.0
C1595 C 0.52496 0.89321 0.49598 0.0
C1596 C 0.5362 0.88252 0.50638 0.0
C1597 C 0.50589 0.9151 0.47671 0.0
C1598 C 0.51621 0.92276 0.49408 0.0
C1599 C 0.5255 0.91157 0.50347 0.0
C1600 C 0.51861 0.94269 0.50214 0.0
C1601 C 0.49636 0.92647 0.46531 0.0
C1602 C 0.53669 0.95473 0.50686 0.0
C1603 C 0.5393 0.97349 0.51396 0.0
C1604 C 0.5239 0.98089 0.51661 0.0
C1605 C 0.50576 0.96877 0.51215 0.0
C1606 C 0.50317 0.9499 0.5051 0.0
H1607 H 0.4933 0.92036 0.45066 0.0
H1608 H 0.48285 0.92682 0.4704 0.0
H1609 H 0.50513 0.94104 0.46628 0.0
H1610 H 0.54889 0.94968 0.5048 0.0
H1611 H 0.55351 0.98224 0.51723 0.0
H1612 H 0.48713 0.28433 0.61332 0.0
H1613 H 0.46241 0.2821 0.63325 0.0
H1614 H 0.50401 0.30429 0.68011 0.0
H1615 H 0.52886 0.30684 0.66031 0.0
H1616 H 0.45636 0.26156 0.66208 0.0
H1617 H 0.46799 0.3368 0.68658 0.0
H1618 H 0.47815 0.32862 0.66716 0.0
H1619 H 0.48856 0.32854 0.69005 0.0
C1620 C 0.49109 0.28894 0.62784 0.0
C1621 C 0.51009 0.29588 0.63512 0.0
C1622 C 0.47688 0.2876 0.63924 0.0
C1623 C 0.48128 0.29327 0.65818 0.0
C1624 C 0.5002 0.30021 0.66551 0.0
H1625 H 0.41726 0.29117 0.75104 0.0
H1626 H 0.44159 0.29456 0.73056 0.0
C1627 C 0.51443 0.30156 0.65413 0.0
C1628 C 0.46612 0.29123 0.67031 0.0
H1629 H 0.44704 0.31549 0.70168 0.0
C1630 C 0.45426 0.27337 0.67065 0.0
C1631 C 0.46336 0.30662 0.68155 0.0
C1632 C 0.47506 0.32626 0.68125 0.0
C1633 C 0.44002 0.27044 0.68216 0.0
C1634 C 0.43729 0.28582 0.69344 0.0
C1635 C 0.44912 0.30368 0.69307 0.0
C1636 C 0.42235 0.28367 0.70582 0.0
C1637 C 0.42834 0.25079 0.68249 0.0
C1638 C 0.40335 0.27662 0.69877 0.0
C1639 C 0.38938 0.27453 0.71048 0.0
C1640 C 0.39406 0.27954 0.72954 0.0
C1641 C 0.41311 0.28685 0.73651 0.0
C1642 C 0.42706 0.28893 0.72478 0.0
H1643 H 0.43529 0.24024 0.67691 0.0
H1644 H 0.42552 0.24836 0.69663 0.0
H1645 H 0.41471 0.24858 0.67393 0.0
H1646 H 0.3993 0.27278 0.68417 0.0
H1647 H 0.37492 0.26875 0.70459 0.0
H1648 H 0.01821 0.79247 0.64276 0.0
H1649 H 0.0211 0.81683 0.62272 0.0
H1650 H 0.03868 0.85907 0.66979 0.0
H1651 H 0.03624 0.83488 0.68991 0.0
H1652 H 1.0037 0.84474 0.6203 0.0
H1653 H 0.08009 0.87562 0.6386 0.0
H1654 H 0.06812 0.85346 0.64501 0.0
H1655 H 0.06729 0.87492 0.65803 0.0
C1656 C 0.02271 0.80693 0.6489 0.0
C1657 C 0.02709 0.81161 0.66803 0.0
C1658 C 0.02435 0.82088 0.63738 0.0
C1659 C 0.03047 0.83984 0.64466 0.0
C1660 C 0.03441 0.84457 0.66376 0.0
H1661 H 0.04797 0.94487 0.59883 0.0
H1662 H 0.04399 0.92026 0.61869 0.0
C1663 C 0.03285 0.83066 0.67528 0.0
C1664 C 0.0325 0.85465 0.63231 0.0
H1665 H 0.06378 0.89252 0.62067 0.0
C1666 C 0.01687 0.85512 0.62032 0.0
C1667 C 0.04969 0.86823 0.63227 0.0
C1668 C 0.0673 0.86798 0.64403 0.0
C1669 C 0.01785 0.86896 0.60862 0.0
C1670 C 0.03499 0.8826 0.6087 0.0
C1671 C 0.05063 0.88212 0.62065 0.0
C1672 C 0.03702 0.89748 0.59648 0.0
C1673 C 1.0004 0.86911 0.59655 0.0
C1674 C 0.03459 0.89293 0.57735 0.0
C1675 C 0.03684 0.90699 0.56594 0.0
C1676 C 0.04157 0.92595 0.57339 0.0
C1677 C 0.04405 0.93044 0.59258 0.0
C1678 C 0.0419 0.91638 0.60397 0.0
H1679 H 0.98753 0.86069 0.60125 0.0
H1680 H 0.99918 0.88358 0.59619 0.0
H1681 H 1.00116 0.86306 0.58238 0.0
H1682 H 0.03113 0.87848 0.57123 0.0
H1683 H 0.0347 0.90297 0.55125 0.0
H1684 H 0.48845 0.82872 0.87474 0.0
H1685 H 0.45629 0.82682 0.86198 0.0
H1686 H 0.45982 0.78559 0.818 0.0
H1687 H 0.49228 0.78802 0.83052 0.0
H1688 H 0.44271 0.80952 0.80486 0.0
H1689 H 0.41009 0.78724 0.86582 0.0
H1690 H 0.42753 0.80914 0.87111 0.0
H1691 H 0.43426 0.78832 0.8635 0.0
C1692 C 0.48235 0.81933 0.8623 0.0
C1693 C 0.49302 0.8089 0.85335 0.0
C1694 C 0.46387 0.8181 0.85508 0.0
C1695 C 0.45532 0.80582 0.83912 0.0
C1696 C 0.46596 0.79519 0.8303 0.0
H1697 H 0.33476 0.76914 0.80601 0.0
H1698 H 0.3674 0.77264 0.8176 0.0
C1699 C 0.48456 0.79663 0.8374 0.0
C1700 C 0.4354 0.80415 0.83159 0.0
H1701 H 0.39066 0.79606 0.84292 0.0
C1702 C 0.43135 0.80654 0.81319 0.0
C1703 C 0.42034 0.79994 0.84227 0.0
C1704 C 0.42321 0.79581 0.8617 0.0
C1705 C 0.41292 0.80505 0.80529 0.0
C1706 C 0.39796 0.80154 0.81617 0.0
C1707 C 0.402 0.79899 0.83453 0.0
C1708 C 0.37795 0.79962 0.80871 0.0
C1709 C 0.40966 0.80671 0.78518 0.0
C1710 C 0.37264 0.81366 0.79988 0.0
C1711 C 0.35382 0.81158 0.79298 0.0
C1712 C 0.33976 0.79556 0.79504 0.0
C1713 C 0.34508 0.78172 0.80417 0.0
C1714 C 0.36386 0.7837 0.81085 0.0
H1715 H 0.42119 0.8038 0.7778 0.0
H1716 H 0.39624 0.79696 0.77861 0.0
H1717 H 0.4091 0.82117 0.78357 0.0
H1718 H 0.38301 0.82634 0.79845 0.0
H1719 H 0.35029 0.8226 0.78616 0.0
H1720 H 0.5182 0.21804 0.13416 0.0
H1721 H 0.51737 0.18904 0.11515 0.0
H1722 H 0.48876 0.15751 0.15453 0.0
H1723 H 0.4886 0.18681 0.17306 0.0
H1724 H 0.53328 0.16315 0.12145 0.0
H1725 H 0.45697 0.12982 0.10907 0.0
H1726 H 0.46651 0.15337 0.12025 0.0
H1727 H 0.46583 0.13404 0.13295 0.0
C1728 C 0.51116 0.20492 0.13846 0.0
C1729 C 0.5027 0.2047 0.15467 0.0
C1730 C 0.51093 0.18828 0.12769 0.0
C1731 C 0.50267 0.17088 0.13307 0.0
C1732 C 0.49468 0.17063 0.14964 0.0
H1733 H 0.52974 0.06934 0.0862 0.0
H1734 H 0.52637 0.0959 0.10659 0.0
C1735 C 0.49471 0.18738 0.16033 0.0
C1736 C 0.50347 0.15327 0.12172 0.0
H1737 H 0.47685 0.1111 0.09927 0.0
C1738 C 0.52088 0.15182 0.11661 0.0
C1739 C 0.48736 0.13835 0.11523 0.0
C1740 C 0.46808 0.13899 0.11951 0.0
C1741 C 0.52263 0.13615 0.10527 0.0
C1742 C 0.50659 0.12116 0.09903 0.0
C1743 C 0.48918 0.12252 0.1041 0.0
C1744 C 0.50763 0.10417 0.08697 0.0
C1745 C 0.54163 0.13602 0.09968 0.0
C1746 C 0.49767 0.09942 0.0693 0.0
C1747 C 0.49948 0.08409 0.05756 0.0
C1748 C 0.51123 0.07308 0.06326 0.0
C1749 C 0.52067 0.07752 0.08121 0.0
C1750 C 0.51885 0.09282 0.09291 0.0
H1751 H 0.55131 0.15028 0.10164 0.0
H1752 H 0.54798 0.12732 0.10822 0.0
H1753 H 0.54044 0.13001 0.08511 0.0
H1754 H 0.48884 0.10787 0.0644 0.0
H1755 H 0.49196 0.08113 0.04388 0.0
H1756 H 0.0985 0.3006 0.36812 0.0
H1757 H 0.12804 0.29738 0.35757 0.0
H1758 H 0.12035 0.32989 0.31413 0.0
H1759 H 0.09091 0.33303 0.32437 0.0
H1760 H 0.13015 0.29868 0.30135 0.0
H1761 H 0.17923 0.33482 0.36287 0.0
H1762 H 0.1604 0.31609 0.36739 0.0
H1763 H 0.15535 0.33643 0.35943 0.0
C1764 C 0.10316 0.30725 0.35644 0.0
C1765 C 0.09215 0.31718 0.34725 0.0
C1766 C 0.12019 0.30546 0.35044 0.0
C1767 C 0.12674 0.31357 0.3351 0.0
C1768 C 0.1158 0.32351 0.32599 0.0
H1769 H 0.2386 0.32856 0.29844 0.0
H1770 H 0.20998 0.33306 0.31021 0.0
C1771 C 0.09887 0.32535 0.33197 0.0
C1772 C 0.1445 0.3112 0.32802 0.0
H1773 H 0.19191 0.31924 0.33958 0.0
C1774 C 0.14363 0.3032 0.30976 0.0
C1775 C 0.16228 0.31728 0.33877 0.0
C1776 C 0.1645 0.3268 0.35815 0.0
C1777 C 0.15977 0.30089 0.30212 0.0
C1778 C 0.17747 0.3065 0.31301 0.0
C1779 C 0.17843 0.31478 0.33118 0.0
C1780 C 0.19505 0.30378 0.30579 0.0
C1781 C 0.15773 0.29275 0.28227 0.0
C1782 C 0.19647 0.28583 0.29945 0.0
C1783 C 0.21283 0.28321 0.2927 0.0
C1784 C 0.22838 0.29846 0.29209 0.0
C1785 C 0.22697 0.31645 0.29852 0.0
C1786 C 0.21057 0.31906 0.30536 0.0
H1787 H 0.14462 0.29398 0.27459 0.0
H1788 H 0.1698 0.29978 0.27549 0.0
H1789 H 0.15721 0.27771 0.28142 0.0
H1790 H 0.18496 0.27373 0.2999 0.0
H1791 H 0.2133 0.26912 0.28805 0.0
H1792 H 0.98628 0.05372 0.23323 0.0
H1793 H 0.9972 0.05686 0.20316 0.0
H1794 H 0.94045 0.03453 0.17706 0.0
H1795 H 0.92943 0.03147 0.20703 0.0
H1796 H 0.99342 0.02828 0.17423 0.0
H1797 H 0.95847 0.08126 0.1523 0.0
H1798 H 0.96109 0.07681 0.17579 0.0
H1799 H 0.94308 0.06129 0.15941 0.0
C1800 C 0.97608 0.04967 0.22111 0.0
C1801 C 0.95695 0.04241 0.2226 0.0
C1802 C 0.98236 0.05144 0.2039 0.0
C1803 C 0.96965 0.04617 0.18778 0.0
C1804 C 0.95052 0.03906 0.18925 0.0
H1805 H 0.98211 0.03986 0.07075 0.0
H1806 H 0.97002 0.0396 0.10049 0.0
C1807 C 0.94424 0.03723 0.20644 0.0
C1808 C 0.97651 0.04723 0.16945 0.0
H1809 H 0.97304 0.06679 0.12987 0.0
C1810 C 0.98904 0.03679 0.16458 0.0
C1811 C 0.97068 0.05819 0.15673 0.0
C1812 C 0.95772 0.07016 0.16132 0.0
C1813 C 0.99568 0.0368 0.14736 0.0
C1814 C 0.99004 0.04793 0.1347 0.0
C1815 C 0.97741 0.05829 0.13952 0.0
C1816 C 0.99731 0.04911 0.11654 0.0
C1817 C 1.00833 0.02447 0.14275 0.0
C1818 C 0.01664 0.05509 0.11554 0.0
C1819 C 0.0236 0.05519 0.09858 0.0
C1820 C 0.01139 0.0495 0.08209 0.0
C1821 C 0.99196 0.04428 0.08309 0.0
C1822 C 0.98501 0.04411 0.10013 0.0
H1823 H 1.00684 0.01298 0.15136 0.0
H1824 H 1.0053 0.01828 0.12813 0.0
H1825 H 0.02313 0.03293 0.14532 0.0
H1826 H 0.02643 0.05953 0.12793 0.0
H1827 H 0.03863 0.05949 0.09844 0.0
H1828 H 0.30401 0.68514 0.50602 0.0
H1829 H 0.30832 0.70743 0.4839 0.0
H1830 H 0.26639 0.66829 0.44485 0.0
H1831 H 0.26221 0.64569 0.46668 0.0
H1832 H 0.2965 0.68968 0.42908 0.0
H1833 H 0.26587 0.73334 0.47656 0.0
H1834 H 0.28664 0.72788 0.48612 0.0
H1835 H 0.26549 0.70953 0.47927 0.0
C1836 C 0.29597 0.68107 0.49258 0.0
C1837 C 0.28238 0.66381 0.48828 0.0
C1838 C 0.29843 0.69387 0.48001 0.0
C1839 C 0.28727 0.68966 0.46303 0.0
C1840 C 0.27498 0.67183 0.45802 0.0
H1841 H 0.24329 0.75528 0.39229 0.0
H1842 H 0.25001 0.73657 0.41606 0.0
C1843 C 0.27261 0.65894 0.47053 0.0
C1844 C 0.28691 0.70432 0.45124 0.0
H1845 H 0.27368 0.74469 0.44906 0.0
C1846 C 0.2917 0.70182 0.43345 0.0
C1847 C 0.28033 0.71995 0.45701 0.0
C1848 C 0.27412 0.72284 0.47571 0.0
C1849 C 0.28985 0.71444 0.42111 0.0
C1850 C 0.28333 0.73009 0.42692 0.0
C1851 C 0.27882 0.73274 0.44479 0.0
C1852 C 0.27981 0.7431 0.4142 0.0
C1853 C 0.29413 0.7105 0.40177 0.0
C1854 C 0.29448 0.75351 0.40592 0.0
C1855 C 0.29067 0.76412 0.39237 0.0
C1856 C 0.27216 0.76462 0.38706 0.0
C1857 C 0.25767 0.75517 0.39621 0.0
C1858 C 0.26148 0.74444 0.40969 0.0
H1859 H 0.295 0.69591 0.39847 0.0
H1860 H 0.28327 0.71301 0.39174 0.0
H1861 H 0.30782 0.71999 0.40009 0.0
H1862 H 0.30877 0.75299 0.40957 0.0
H1863 H 0.30211 0.77155 0.38567 0.0
H1864 H 0.65325 0.02341 0.69728 0.0
H1865 H 0.63225 0.01288 0.66874 0.0
H1866 H 0.58879 0.98392 0.69814 0.0
H1867 H 0.60961 0.99484 0.72692 0.0
H1868 H 0.6092 0.97969 0.64844 0.0
H1869 H 0.5678 0.02505 0.67946 0.0
H1870 H 0.59062 0.02494 0.68998 0.0
H1871 H 0.5706 1.00594 0.6913 0.0
C1872 C 0.63941 0.01437 0.69765 0.0
C1873 C 0.63292 0.01032 0.71438 0.0
C1874 C 0.62742 0.00833 0.6813 0.0
C1875 C 0.60882 0.99806 0.68143 0.0
C1876 C 0.60297 0.99221 0.69784 0.0
H1877 H 0.52529 1.00458 0.59172 0.0
H1878 H 0.53783 0.99231 0.61822 0.0
C1879 C 0.61491 0.9984 0.71425 0.0
C1880 C 0.59519 0.99605 0.66499 0.0
H1881 H 0.56038 0.01441 0.64831 0.0
C1882 C 0.59825 0.98694 0.64845 0.0
C1883 C 0.58087 1.0055 0.66506 0.0
C1884 C 0.57726 0.01603 0.68233 0.0
C1885 C 0.58805 0.9879 0.63181 0.0
C1886 C 0.57469 0.99844 0.63178 0.0
C1887 C 0.57066 0.00635 0.64843 0.0
C1888 C 0.56687 1.00387 0.61474 0.0
C1889 C 0.59215 0.97819 0.61436 0.0
C1890 C 0.57907 0.0146 0.60421 0.0
C1891 C 0.57201 0.02176 0.58929 0.0
C1892 C 0.55258 0.01842 0.58461 0.0
C1893 C 0.54033 0.00743 0.59501 0.0
C1894 C 0.54745 1.00034 0.61007 0.0
H1895 H 0.59728 0.96585 0.61698 0.0
H1896 H 0.57953 0.97362 0.60403 0.0
H1897 H 0.6033 0.98798 0.60855 0.0
H1898 H 0.5941 0.01793 0.60786 0.0
H1899 H 0.58186 0.03004 0.5815 0.0
H1900 H 0.2769 0.38564 0.96357 0.0
H1901 H 0.27705 0.36845 0.93378 0.0
H1902 H 0.2919 0.32444 0.96012 0.0
H1903 H 0.29131 0.34151 0.99021 0.0
H1904 H 0.30637 0.36005 0.92044 0.0
H1905 H 0.25107 0.29444 0.92075 0.0
H1906 H 0.25398 0.31475 0.93737 0.0
H1907 H 0.26924 0.29967 0.93975 0.0
C1908 C 0.27989 0.37214 0.96309 0.0
C1909 C 0.28405 0.36496 0.97936 0.0
C1910 C 0.28004 0.36233 0.94598 0.0
C1911 C 0.28443 0.34507 0.94455 0.0
C1912 C 0.28811 0.33755 0.96075 0.0
H1913 H 0.31756 0.30366 0.83944 0.0
H1914 H 0.3182 0.31484 0.87193 0.0
C1915 C 0.28778 0.34733 0.97798 0.0
C1916 C 0.28611 0.33575 0.9261 0.0
H1917 H 0.26852 0.29609 0.89551 0.0
C1918 C 0.29812 0.34602 0.91503 0.0
C1919 C 0.2753 0.31749 0.91892 0.0
C1920 C 0.26154 0.30596 0.92971 0.0
C1921 C 0.29935 0.33879 0.89698 0.0
C1922 C 0.28866 0.32047 0.88982 0.0
C1923 C 0.27686 0.31006 0.90099 0.0
C1924 C 0.28842 0.31244 0.87037 0.0
C1925 C 0.31152 0.35121 0.88552 0.0
C1926 C 0.27143 0.30663 0.85873 0.0
C1927 C 0.271 0.30002 0.84025 0.0
C1928 C 0.28757 0.29902 0.83283 0.0
C1929 C 0.30455 0.30437 0.8446 0.0
C1930 C 0.30495 0.31089 0.86319 0.0
H1931 H 0.31493 0.36615 0.89138 0.0
H1932 H 0.32489 0.34724 0.88498 0.0
H1933 H 0.30455 0.34965 0.8713 0.0
H1934 H 0.25847 0.30762 0.86386 0.0
H1935 H 0.25762 0.29603 0.83171 0.0
H1936 H 0.9392 0.04568 0.34554 0.0
H1937 H 0.95771 0.04611 0.3746 0.0
H1938 H 1.00015 0.02986 0.34586 0.0
H1939 H 0.98158 0.02947 0.3164 0.0
H1940 H 0.98657 0.00754 0.37498 0.0
H1941 H 1.00772 0.08352 0.39888 0.0
H1942 H 0.98327 0.07446 0.39055 0.0
H1943 H 1.00049 0.07407 0.37507 0.0
C1944 C 0.9526 0.04247 0.3453 0.0
C1945 C 0.95891 0.03762 0.32856 0.0
C1946 C 0.96321 0.04277 0.36199 0.0
C1947 C 0.9804 0.03815 0.36247 0.0
C1948 C 0.98697 0.03358 0.34582 0.0
H1949 H 0.04268 0.01924 0.46437 0.0
H1950 H 0.03382 0.02036 0.43174 0.0
C1951 C 0.97641 0.03349 0.329 0.0
C1952 C 0.99073 0.03724 0.38046 0.0
H1953 H 0.00952 0.06343 0.42169 0.0
C1954 C 0.99193 0.01978 0.38512 0.0
C1955 C 0.99767 0.05321 0.3937 0.0
C1956 C 0.99741 0.07242 0.3893 0.0
C1957 C 0.99887 0.01773 0.40297 0.0
C1958 C 1.00511 0.03363 0.41644 0.0
C1959 C 1.00467 0.0512 0.41147 0.0
C1960 C 0.01063 0.03231 0.43611 0.0
C1961 C 0.99847 0.99842 0.40752 0.0
C1962 C 1.00078 0.03884 0.44951 0.0
C1963 C 1.00588 0.03834 0.46807 0.0
C1964 C 0.02104 0.03132 0.47386 0.0
C1965 C 0.03085 0.0246 0.46043 0.0
C1966 C 0.02574 0.02517 0.44174 0.0
H1967 H 0.98965 0.98736 0.39681 0.0
H1968 H 0.01292 0.99673 0.40862 0.0
H1969 H 0.99305 0.9963 0.42084 0.0
H1970 H 0.98906 0.04439 0.4456 0.0
H1971 H 0.99792 0.04365 0.4779 0.0
H1972 H 0.26964 0.66089 0.60363 0.0
H1973 H 0.27726 0.68111 0.63288 0.0
H1974 H 0.32952 0.71058 0.6161 0.0
H1975 H 0.32156 0.69086 0.5864 0.0
H1976 H 0.30443 0.68965 0.66064 0.0
H1977 H 0.30541 0.75242 0.62609 0.0
H1978 H 0.29786 0.72909 0.61393 0.0
H1979 H 0.32243 0.74039 0.6198 0.0
C1980 C 0.28289 0.67148 0.60627 0.0
C1981 C 0.29489 0.67451 0.59268 0.0
C1982 C 0.28722 0.68305 0.62298 0.0
C1983 C 0.30372 0.69768 0.62645 0.0
C1984 C 0.31644 0.69976 0.61346 0.0
H1985 H 0.32452 0.76025 0.73669 0.0
H1986 H 0.33023 0.74341 0.70855 0.0
C1987 C 0.31196 0.68839 0.59658 0.0
C1988 C 0.30682 0.71126 0.64324 0.0
H1989 H 0.31082 0.75706 0.65824 0.0
C1990 C 0.30599 0.70442 0.66016 0.0
C1991 C 0.3086 0.73049 0.64249 0.0
C1992 C 0.30846 0.73856 0.62461 0.0
C1993 C 0.3062 0.71612 0.67631 0.0
C1994 C 0.30808 0.73538 0.67558 0.0
C1995 C 0.30955 0.74234 0.65875 0.0
C1996 C 0.30683 0.74815 0.69183 0.0
C1997 C 0.30335 0.70749 0.69375 0.0
C1998 C 0.2927 0.7576 0.69141 0.0
C1999 C 0.28977 0.76771 0.70734 0.0
C2000 C 0.30078 0.76823 0.72392 0.0
C2001 C 0.31567 0.75979 0.72407 0.0
C2002 C 0.31885 0.75006 0.70807 0.0
H2003 H 0.29736 0.69212 0.69097 0.0
H2004 H 0.31705 0.71022 0.70232 0.0
H2005 H 0.29385 0.71354 0.70174 0.0
H2006 H 0.28335 0.75643 0.67896 0.0
H2007 H 0.2782 0.77409 0.7069 0.0
H2008 H 0.66763 0.08057 0.83013 0.0
H2009 H 0.64821 0.08446 0.85445 0.0
H2010 H 0.60105 0.04399 0.82275 0.0
H2011 H 0.62026 0.03979 0.7985 0.0
H2012 H 0.61447 0.09595 0.85116 0.0
H2013 H 0.60347 0.02557 0.87312 0.0
H2014 H 0.62175 0.03486 0.85952 0.0
H2015 H 0.59801 0.02528 0.84893 0.0
C2016 C 0.65319 0.07232 0.8284 0.0
C2017 C 0.64554 0.0598 0.81237 0.0
C2018 C 0.64212 0.07463 0.84228 0.0
C2019 C 0.6233 0.06437 0.84043 0.0
C2020 C 0.61565 0.0518 0.82454 0.0
H2021 H 0.5307 0.05478 0.90378 0.0
H2022 H 0.55056 0.05459 0.87926 0.0
C2023 C 0.62666 0.04949 0.81066 0.0
C2024 C 0.61139 0.06715 0.85481 0.0
H2025 H 0.58428 0.04424 0.88434 0.0
C2026 C 0.60795 0.08471 0.85854 0.0
C2027 C 0.60296 0.05242 0.86434 0.0
C2028 C 0.60684 0.03351 0.86143 0.0
C2029 C 0.59582 0.08781 0.87126 0.0
C2030 C 0.58717 0.073 0.88058 0.0
C2031 C 0.59082 0.05551 0.87701 0.0
C2032 C 0.57447 0.07525 0.89436 0.0
C2033 C 0.59199 0.10673 0.87432 0.0
C2034 C 0.58126 0.08724 0.91079 0.0
C2035 C 0.56989 0.08749 0.92477 0.0
C2036 C 0.55161 0.07565 0.92258 0.0
C2037 C 0.54461 0.06425 0.90579 0.0
C2038 C 0.55598 0.06401 0.89183 0.0
H2039 H 0.59598 0.11503 0.86301 0.0
H2040 H 0.57695 0.10534 0.87562 0.0
H2041 H 0.60031 0.1146 0.88723 0.0
H2042 H 0.59559 0.09581 0.91309 0.0
H2043 H 0.57561 0.09651 0.93751 0.0
H2044 H 0.2618 0.3351 0.07312 0.0
H2045 H 0.25737 0.32333 0.10258 0.0
H2046 H 0.28887 0.37706 0.13094 0.0
H2047 H 0.29289 0.38899 0.10168 0.0
H2048 H 0.28244 0.31941 0.12925 0.0
H2049 H 0.2442 0.36795 0.15845 0.0
H2050 H 0.24791 0.36588 0.13465 0.0
H2051 H 0.26609 0.38013 0.15179 0.0
C2052 C 0.26759 0.34447 0.08564 0.0
C2053 C 0.27758 0.36305 0.08498 0.0
C2054 C 0.26508 0.33771 0.10251 0.0
C2055 C 0.27246 0.34936 0.11912 0.0
C2056 C 0.28253 0.36788 0.11844 0.0
H2057 H 0.29036 0.33712 0.23382 0.0
H2058 H 0.28899 0.34744 0.20354 0.0
C2059 C 0.28494 0.37467 0.10162 0.0
C2060 C 0.27039 0.34199 0.13711 0.0
H2061 H 0.25705 0.35083 0.17952 0.0
C2062 C 0.27666 0.32616 0.14014 0.0
C2063 C 0.26284 0.35071 0.15144 0.0
C2064 C 0.2547 0.36699 0.14888 0.0
C2065 C 0.27619 0.31927 0.15716 0.0
C2066 C 0.26911 0.32831 0.17159 0.0
C2067 C 0.26256 0.34393 0.16851 0.0
C2068 C 0.26903 0.32215 0.19017 0.0
C2069 C 0.28386 0.30272 0.15979 0.0
C2070 C 0.25793 0.30463 0.19291 0.0
C2071 C 0.25857 0.29869 0.2103 0.0
C2072 C 0.27041 0.31014 0.22534 0.0
C2073 C 0.28114 0.32787 0.22259 0.0
C2074 C 0.28037 0.33383 0.20526 0.0
H2075 H 0.29202 0.29956 0.14859 0.0
H2076 H 0.29299 0.30523 0.17305 0.0
H2077 H 0.27206 0.29026 0.16003 0.0
H2078 H 0.24887 0.29546 0.18154 0.0
H2079 H 0.25013 0.28496 0.21186 0.0
H2080 H 0.24742 0.96434 0.98037 0.0
H2081 H 0.22858 0.98587 0.98814 0.0
H2082 H 0.20496 0.95198 0.02822 0.0
H2083 H 0.22372 0.93029 0.02063 0.0
H2084 H 0.1869 0.97827 0.9902 0.0
H2085 H 0.23303 1.00621 0.05598 0.0
H2086 H 0.24032 0.99355 0.03709 0.0
H2087 H 0.22419 0.98125 0.05104 0.0
C2088 C 0.23801 0.96127 0.99064 0.0
C2089 C 0.23722 0.94569 1.00002 0.0
C2090 C 0.22728 0.97359 0.99504 0.0
C2091 C 0.21571 0.97057 0.00891 0.0
C2092 C 0.21405 0.95455 0.0176 0.0
H2093 H 0.14878 0.03093 0.06458 0.0
H2094 H 0.16897 0.01117 0.05567 0.0
C2095 C 0.22469 0.94215 0.01316 0.0
C2096 C 0.20615 0.98473 0.01497 0.0
H2097 H 0.20661 0.01792 0.05046 0.0
C2098 C 0.19119 0.98702 1.00332 0.0
C2099 C 0.21195 0.99603 0.03208 0.0
C2100 C 0.22833 0.99432 0.04479 0.0
C2101 C 0.18146 1.00014 0.00858 0.0
C2102 C 0.18725 0.01149 0.02573 0.0
C2103 C 0.20234 0.00926 0.03729 0.0
C2104 C 0.17713 0.02503 0.0323 0.0
C2105 C 0.16471 1.00131 0.99602 0.0
C2106 C 0.17578 0.03986 0.02256 0.0
C2107 C 0.16427 0.0512 0.02764 0.0
C2108 C 0.15416 0.04796 0.04264 0.0
C2109 C 0.15657 0.03389 0.05309 0.0
C2110 C 0.16798 0.02251 0.04794 0.0
H2111 H 0.15955 0.98879 0.98556 0.0
H2112 H 0.15305 1.00283 1.00391 0.0
H2113 H 0.16874 0.01371 0.98876 0.0
H2114 H 0.18313 0.04227 0.0107 0.0
H2115 H 0.1628 0.0621 0.0195 0.0
H2116 H 0.74469 0.64401 0.02381 0.0
H2117 H 0.71399 0.62229 0.02347 0.0
H2118 H 0.68834 0.65812 0.99387 0.0
H2119 H 0.71946 0.67937 0.99326 0.0
H2120 H 0.68602 0.62837 0.0393 0.0
H2121 H 0.66692 0.63331 0.97206 0.0
H2122 H 0.66178 0.60861 0.96515 0.0
H2123 H 0.68539 0.62179 0.97375 0.0
C2124 C 0.73256 0.64688 0.01665 0.0
C2125 C 0.73446 0.6629 0.00786 0.0
C2126 C 0.71498 0.63459 0.01666 0.0
C2127 C 0.69879 0.63831 0.00834 0.0
C2128 C 0.70063 0.65459 0.99986 0.0
H2129 H 0.58751 0.59325 0.03658 0.0
H2130 H 0.61803 0.61256 0.03205 0.0
C2131 C 0.71835 0.6668 0.99964 0.0
C2132 C 0.68006 0.62583 0.00994 0.0
H2133 H 0.63892 0.59944 0.98551 0.0
C2134 C 0.67581 0.62198 0.02748 0.0
C2135 C 0.66666 0.61739 0.99456 0.0
C2136 C 0.67045 0.62034 0.9753 0.0
C2137 C 0.65862 0.61009 0.03009 0.0
C2138 C 0.6451 0.60205 0.01478 0.0
C2139 C 0.64932 0.60568 0.99722 0.0
C2140 C 0.62633 0.59023 0.0169 0.0
C2141 C 0.65513 0.60609 0.04922 0.0
C2142 C 0.62065 0.5713 0.00948 0.0
C2143 C 0.6031 0.56011 0.01203 0.0
C2144 C 0.59089 0.56773 0.02195 0.0
C2145 C 0.59656 0.58681 0.02902 0.0
C2146 C 0.61405 0.59792 0.02649 0.0
H2147 H 0.66839 0.60938 0.05865 0.0
H2148 H 0.64627 0.61483 0.05467 0.0
H2149 H 0.64762 0.59122 0.04922 0.0
H2150 H 0.62992 0.56514 1.00194 0.0
H2151 H 0.59915 0.54552 0.00631 0.0
H2152 H 0.64168 0.48738 0.25849 0.0
H2153 H 0.65356 0.46024 0.2495 0.0
H2154 H 0.67641 0.46181 0.30551 0.0
H2155 H 0.66487 0.48887 0.31447 0.0
H2156 H 0.69409 0.46306 0.25674 0.0
H2157 H 0.65034 0.40532 0.28765 0.0
H2158 H 0.6425 0.4254 0.28231 0.0
H2159 H 0.65857 0.42712 0.30248 0.0
C2160 C 0.64873 0.48154 0.26894 0.0
C2161 C 0.65231 0.4902 0.28719 0.0
C2162 C 0.65561 0.46614 0.26378 0.0
C2163 C 0.66576 0.45894 0.27687 0.0
C2164 C 0.66841 0.46696 0.29523 0.0
H2165 H 0.73666 0.38601 0.28956 0.0
H2166 H 0.71566 0.40638 0.29201 0.0
C2167 C 0.66183 0.48246 0.30032 0.0
C2168 C 0.67546 0.4445 0.27133 0.0
H2169 H 0.67944 0.40133 0.27915 0.0
C2170 C 0.69071 0.44941 0.26132 0.0
C2171 C 0.67115 0.42683 0.27753 0.0
C2172 C 0.65465 0.42072 0.28797 0.0
C2173 C 0.70235 0.43748 0.25812 0.0
C2174 C 0.69829 0.41991 0.26468 0.0
C2175 C 0.6826 0.41477 0.27414 0.0
C2176 C 0.71073 0.40715 0.26285 0.0
C2177 C 0.71945 0.4443 0.24864 0.0
C2178 C 0.71485 0.40057 0.24563 0.0
C2179 C 0.72704 0.38904 0.24421 0.0
C2180 C 0.73507 0.38356 0.25997 0.0
C2181 C 0.7306 0.38985 0.27715 0.0
C2182 C 0.7186 0.40151 0.27856 0.0
H2183 H 0.72317 0.45969 0.24881 0.0
H2184 H 0.73172 0.44041 0.25518 0.0
H2185 H 0.71658 0.43781 0.23413 0.0
H2186 H 0.7086 0.40429 0.23325 0.0
H2187 H 0.72997 0.38419 0.23077 0.0
H2188 H 0.82447 0.39483 0.493 0.0
H2189 H 0.85885 0.40535 0.49953 0.0
H2190 H 0.85394 0.44917 0.54022 0.0
H2191 H 0.81992 0.43819 0.53424 0.0
H2192 H 0.87992 0.43689 0.49385 0.0
H2193 H 0.89402 0.43268 0.56722 0.0
H2194 H 0.87153 0.42129 0.55422 0.0
H2195 H 0.8768 0.44544 0.56413 0.0
C2196 C 0.83089 0.40651 0.5035 0.0
C2197 C 0.81981 0.41616 0.51274 0.0
C2198 C 0.85042 0.41247 0.50727 0.0
C2199 C 0.859 0.42789 0.52057 0.0
C2200 C 0.84774 0.43693 0.5303 0.0
H2201 H 0.95506 0.51656 0.52044 0.0
H2202 H 0.92435 0.49423 0.518 0.0
C2203 C 0.82831 0.43093 0.5266 0.0
C2204 C 0.87953 0.43612 0.52283 0.0
H2205 H 0.9167 0.4571 0.55522 0.0
C2206 C 0.88798 0.4411 0.50725 0.0
C2207 C 0.89032 0.44108 0.54025 0.0
C2208 C 0.88269 0.43462 0.55734 0.0
C2209 C 0.90636 0.45235 0.50876 0.0
C2210 C 0.91649 0.4588 0.52633 0.0
C2211 C 0.90866 0.45254 0.5418 0.0
C2212 C 0.93495 0.47258 0.52888 0.0
C2213 C 0.91457 0.45762 0.49155 0.0
C2214 C 0.9509 0.46801 0.53653 0.0
C2215 C 0.96846 0.48078 0.53807 0.0
C2216 C 0.9703 0.49834 0.53204 0.0
C2217 C 0.95415 0.50312 0.52508 0.0
C2218 C 0.93662 0.49034 0.52356 0.0
H2219 H 0.90741 0.44745 0.4794 0.0
H2220 H 0.91275 0.47151 0.48911 0.0
H2221 H 0.92978 0.45847 0.49281 0.0
H2222 H 0.94981 0.45442 0.54089 0.0
H2223 H 0.98062 0.47672 0.54363 0.0
H2224 H 0.36386 0.09269 0.31602 0.0
H2225 H 0.34988 0.11424 0.30086 0.0
H2226 H 0.39033 0.11891 0.26228 0.0
H2227 H 0.4046 0.09721 0.27734 0.0
H2228 H 0.37552 0.15494 0.28674 0.0
H2229 H 0.32732 0.09631 0.23884 0.0
H2230 H 0.33363 0.09248 0.26196 0.0
H2231 H 0.35107 0.09616 0.24657 0.0
C2232 C 0.37003 0.09844 0.30448 0.0
C2233 C 0.3853 0.09311 0.29783 0.0
C2234 C 0.362 0.11075 0.29586 0.0
C2235 C 0.36906 0.11795 0.28047 0.0
C2236 C 0.38475 0.11338 0.27418 0.0
H2237 H 0.30318 0.18031 0.21925 0.0
H2238 H 0.32655 0.1628 0.2253 0.0
C2239 C 0.39287 0.10104 0.28283 0.0
C2240 C 0.35913 0.12941 0.27062 0.0
H2241 H 0.31969 0.12534 0.24132 0.0
C2242 C 0.36359 0.14862 0.27647 0.0
C2243 C 0.34365 0.121 0.25725 0.0
C2244 C 0.33855 0.10035 0.25064 0.0
C2245 C 0.3522 0.15952 0.26998 0.0
C2246 C 0.33595 0.15084 0.2576 0.0
C2247 C 0.33219 0.13187 0.25085 0.0
C2248 C 0.32155 0.16069 0.25342 0.0
C2249 C 0.35711 0.18007 0.277 0.0
C2250 C 0.3108 0.16473 0.26711 0.0
C2251 C 0.29744 0.17448 0.26369 0.0
C2252 C 0.29463 0.18041 0.2465 0.0
C2253 C 0.30512 0.17593 0.23263 0.0
C2254 C 0.31843 0.16599 0.23604 0.0
H2255 H 0.37207 0.18543 0.28284 0.0
H2256 H 0.35421 0.18822 0.26587 0.0
H2257 H 0.34835 0.1824 0.28793 0.0
H2258 H 0.31296 0.16055 0.28056 0.0
H2259 H 0.28981 0.17799 0.27473 0.0
H2260 H 0.33741 0.16516 0.49122 0.0
H2261 H 0.36313 0.15191 0.50057 0.0
H2262 H 0.35711 0.16613 0.55726 0.0
H2263 H 0.33147 0.17986 0.54792 0.0
H2264 H 0.39546 0.16895 0.54995 0.0
H2265 H 0.34621 0.10118 0.52 0.0
H2266 H 0.35013 0.11804 0.50421 0.0
H2267 H 0.33882 0.12232 0.52408 0.0
C2268 C 0.34199 0.16605 0.50569 0.0
C2269 C 0.33241 0.17348 0.51884 0.0
C2270 C 0.35659 0.15834 0.51102 0.0
C2271 C 0.3617 0.1576 0.52959 0.0
C2272 C 0.3533 0.16647 0.54284 0.0
H2273 H 0.41178 0.07013 0.56137 0.0
H2274 H 0.39215 0.09171 0.55893 0.0
C2275 C 0.33876 0.17443 0.5375 0.0
C2276 C 0.3742 0.1458 0.53485 0.0
H2277 H 0.37766 0.10089 0.52865 0.0
C2278 C 0.39158 0.15405 0.54541 0.0
C2279 C 0.36892 0.12628 0.52926 0.0
C2280 C 0.34993 0.11636 0.51892 0.0
C2281 C 0.40408 0.14337 0.54999 0.0
C2282 C 0.39918 0.124 0.54355 0.0
C2283 C 0.38154 0.11574 0.53347 0.0
C2284 C 0.41206 0.11194 0.54678 0.0
C2285 C 0.42228 0.15293 0.56185 0.0
C2286 C 0.42991 0.11611 0.54089 0.0
C2287 C 0.44132 0.10389 0.54252 0.0
C2288 C 0.43505 0.08704 0.54982 0.0
C2289 C 0.41725 0.08305 0.55592 0.0
C2290 C 0.40592 0.09534 0.55442 0.0
H2291 H 0.42128 0.16576 0.5703 0.0
H2292 H 0.4265 0.14351 0.57109 0.0
H2293 H 0.43346 0.1571 0.55298 0.0
H2294 H 0.43485 0.12857 0.53456 0.0
H2295 H 0.45502 0.10761 0.53789 0.0
H2296 H 0.64569 0.60177 0.31433 0.0
H2297 H 0.6672 0.63277 0.31391 0.0
H2298 H 0.69864 0.60802 0.27704 0.0
H2299 H 0.67708 0.57733 0.27719 0.0
H2300 H 0.70711 0.64519 0.32341 0.0
H2301 H 0.68551 0.64933 0.25048 0.0
H2302 H 0.67196 0.63256 0.26321 0.0
H2303 H 0.69248 0.62855 0.25423 0.0
C2304 C 0.65723 0.60307 0.30619 0.0
C2305 C 0.66013 0.58725 0.29618 0.0
C2306 C 0.6695 0.62068 0.30599 0.0
C2307 C 0.68447 0.62266 0.29539 0.0
C2308 C 0.68711 0.60683 0.28517 0.0
H2309 H 0.7802 0.72023 0.29739 0.0
H2310 H 0.76068 0.68932 0.30125 0.0
C2311 C 0.67492 0.58932 0.28541 0.0
C2312 C 0.69718 0.64127 0.29465 0.0
H2313 H 0.71226 0.67249 0.26521 0.0
C2314 C 0.70825 0.65122 0.31072 0.0
C2315 C 0.69851 0.6491 0.27808 0.0
C2316 C 0.68637 0.63944 0.26054 0.0
C2317 C 0.72077 0.6688 0.31062 0.0
C2318 C 0.72231 0.67647 0.29396 0.0
C2319 C 0.71118 0.6665 0.27794 0.0
C2320 C 0.73438 0.69535 0.29289 0.0
C2321 C 0.73189 0.67921 0.32836 0.0
C2322 C 0.72609 0.70889 0.28679 0.0
C2323 C 0.73713 0.72633 0.2844 0.0
C2324 C 0.75678 0.73072 0.28802 0.0
C2325 C 0.76512 0.71729 0.2945 0.0
C2326 C 0.75398 0.69968 0.29682 0.0
H2327 H 0.72622 0.67322 0.34044 0.0
H2328 H 0.7466 0.67837 0.32858 0.0
H2329 H 0.73197 0.69418 0.32961 0.0
H2330 H 0.71101 0.70587 0.2837 0.0
H2331 H 0.73016 0.73636 0.27959 0.0
H2332 H 0.86539 0.50606 0.79355 0.0
H2333 H 0.84805 0.4735 0.7929 0.0
H2334 H 0.89203 0.46534 0.83087 0.0
H2335 H 0.90906 0.49833 0.83212 0.0
H2336 H 0.86258 0.4451 0.78038 0.0
H2337 H 0.84462 0.43785 0.85101 0.0
H2338 H 0.85043 0.46003 0.84234 0.0
H2339 H 0.86864 0.44948 0.84941 0.0
C2340 C 0.87095 0.4975 0.80234 0.0
C2341 C 0.88816 0.50473 0.81339 0.0
C2342 C 0.86115 0.47888 0.80182 0.0
C2343 C 0.86863 0.46709 0.81204 0.0
C2344 C 0.88579 0.47434 0.82326 0.0
H2345 H 0.8417 0.34704 0.78261 0.0
H2346 H 0.85762 0.38022 0.79035 0.0
C2347 C 0.89554 0.49307 0.82388 0.0
C2348 C 0.85954 0.44684 0.80913 0.0
H2349 H 0.83921 0.4099 0.83049 0.0
C2350 C 0.85742 0.43741 0.79133 0.0
C2351 C 0.8528 0.43691 0.82344 0.0
C2352 C 0.85406 0.44655 0.84263 0.0
C2353 C 0.84874 0.41827 0.78741 0.0
C2354 C 0.84234 0.40826 0.80177 0.0
C2355 C 0.84433 0.41766 0.81958 0.0
C2356 C 0.8331 0.38807 0.79836 0.0
C2357 C 0.84615 0.40901 0.76786 0.0
C2358 C 0.81421 0.38152 0.80083 0.0
C2359 C 0.80507 0.36257 0.79648 0.0
C2360 C 0.81473 0.34989 0.78964 0.0
C2361 C 0.83382 0.35647 0.78768 0.0
C2362 C 0.84294 0.37541 0.79206 0.0
H2363 H 0.8478 0.41937 0.75799 0.0
H2364 H 0.85685 0.40115 0.76615 0.0
H2365 H 0.83209 0.399 0.76437 0.0
H2366 H 0.80643 0.39113 0.80572 0.0
H2367 H 0.79038 0.35794 0.79825 0.0
H2368 H 0.06806 0.86539 0.12004 0.0
H2369 H 0.06693 0.89605 0.11138 0.0
H2370 H 0.04964 0.8712 0.05521 0.0
H2371 H 0.04989 0.84068 0.06387 0.0
H2372 H 0.08345 0.91957 0.09011 0.0
H2373 H 0.00894 0.89571 0.06128 0.0
H2374 H 0.02023 0.88129 0.0738 0.0
H2375 H 0.02241 0.8823 0.04982 0.0
C2376 C 0.06406 0.86648 0.10584 0.0
C2377 C 0.05882 0.85037 0.09275 0.0
C2378 C 0.06339 0.88408 0.10086 0.0
C2379 C 0.05761 0.8861 0.08265 0.0
C2380 C 0.0534 0.87016 0.06947 0.0
H2381 H 0.07307 0.99501 0.0394 0.0
H2382 H 0.07757 0.96583 0.04913 0.0
C2383 C 0.05373 0.8526 0.07446 0.0
C2384 C 0.05577 0.90465 0.07736 0.0
H2385 H 0.02596 0.92506 0.05405 0.0
C2386 C 0.07081 0.92075 0.08232 0.0
C2387 C 0.0392 0.90659 0.06746 0.0
C2388 C 0.02173 0.8906 0.06297 0.0
C2389 C 0.06988 0.93839 0.07746 0.0
C2390 C 0.05365 0.9401 0.06675 0.0
C2391 C 0.03856 0.92401 0.06202 0.0
C2392 C 0.05147 0.95837 0.06092 0.0
C2393 C 0.08617 0.95508 0.0844 0.0
C2394 C 0.03509 0.964 0.0636 0.0
C2395 C 0.03229 0.98042 0.05757 0.0
C2396 C 0.04585 0.99201 0.04879 0.0
C2397 C 0.06238 0.98659 0.04624 0.0
C2398 C 0.06504 0.96988 0.052 0.0
H2399 H 0.09441 0.95272 0.09682 0.0
H2400 H 0.0957 0.95755 0.07369 0.0
H2401 H 0.08139 0.96782 0.08775 0.0
H2402 H 0.02432 0.95563 0.0704 0.0
H2403 H 0.01941 0.98407 0.05992 0.0
H2404 H 0.95412 0.24182 0.89181 0.0
H2405 H 0.92365 0.23902 0.87461 0.0
H2406 H 0.92449 0.29402 0.90025 0.0
H2407 H 0.95261 0.29454 0.9202 0.0
H2408 H 0.89326 0.28089 0.89355 0.0
H2409 H 0.91371 0.25244 0.82862 0.0
H2410 H 0.90964 0.2353 0.84401 0.0
H2411 H 0.92899 0.25582 0.8495 0.0
C2412 C 0.94761 0.25322 0.89372 0.0
C2413 C 0.95625 0.26895 0.90654 0.0
C2414 C 0.93028 0.25185 0.88353 0.0
C2415 C 0.92194 0.26689 0.88467 0.0
C2416 C 0.9303 0.28215 0.8984 0.0
H2417 H 0.85092 0.28884 0.79415 0.0
H2418 H 0.87577 0.28404 0.8156 0.0
C2419 C 0.94675 0.28274 0.90967 0.0
C2420 C 0.9047 0.26708 0.87201 0.0
H2421 H 0.88323 0.25631 0.82767 0.0
C2422 C 0.89156 0.27583 0.87907 0.0
C2423 C 0.90145 0.26001 0.85297 0.0
C2424 C 0.91427 0.25052 0.84334 0.0
C2425 C 0.87644 0.27877 0.86786 0.0
C2426 C 0.87325 0.27161 0.849 0.0
C2427 C 0.88568 0.26203 0.84204 0.0
C2428 C 0.85774 0.27448 0.836 0.0
C2429 C 0.86464 0.29032 0.87638 0.0
C2430 C 0.83906 0.27056 0.83995 0.0
C2431 C 0.82489 0.27388 0.82787 0.0
C2432 C 0.82888 0.28047 0.81117 0.0
C2433 C 0.84735 0.28368 0.80686 0.0
C2434 C 0.8616 0.28091 0.81917 0.0
H2435 H 0.87241 0.29962 0.88887 0.0
H2436 H 0.86007 0.29912 0.86665 0.0
H2437 H 0.85205 0.2809 0.88052 0.0
H2438 H 0.83534 0.26487 0.85236 0.0
H2439 H 0.81073 0.27102 0.83148 0.0
H2440 H 0.54025 0.24074 0.62274 0.0
H2441 H 0.53763 0.20794 0.61144 0.0
H2442 H 0.56859 0.22531 0.56698 0.0
H2443 H 0.57129 0.25814 0.57837 0.0
H2444 H 0.52181 0.18662 0.57639 0.0
H2445 H 0.59775 0.19183 0.59114 0.0
H2446 H 0.58722 0.20933 0.60085 0.0
H2447 H 0.59192 0.20856 0.57745 0.0
C2448 C 0.54632 0.23751 0.61045 0.0
C2449 C 0.55545 0.25195 0.6011 0.0
C2450 C 0.54484 0.21877 0.604 0.0
C2451 C 0.55299 0.21405 0.58839 0.0
C2452 C 0.56232 0.22851 0.57914 0.0
H2453 H 0.56409 0.10643 0.53672 0.0
H2454 H 0.56621 0.13956 0.54523 0.0
C2455 C 0.56365 0.24727 0.58551 0.0
C2456 C 0.55186 0.19403 0.58202 0.0
H2457 H 0.57843 0.16291 0.57646 0.0
C2458 C 0.5342 0.18145 0.57639 0.0
C2459 C 0.56799 0.18719 0.58192 0.0
C2460 C 0.58731 0.19984 0.58828 0.0
C2461 C 0.53223 0.16238 0.57055 0.0
C2462 C 0.54835 0.15542 0.57082 0.0
C2463 C 0.56604 0.16808 0.57626 0.0
C2464 C 0.54717 0.13509 0.56575 0.0
C2465 C 0.51288 0.14999 0.56375 0.0
C2466 C 0.53609 0.12135 0.57464 0.0
C2467 C 0.5348 0.10235 0.56974 0.0
C2468 C 0.54476 0.0965 0.55596 0.0
C2469 C 0.55623 0.11031 0.5474 0.0
C2470 C 0.55744 0.12933 0.55225 0.0
H2471 H 0.50326 0.15819 0.55891 0.0
H2472 H 0.51326 0.13919 0.55238 0.0
H2473 H 0.50695 0.14287 0.57514 0.0
H2474 H 0.52844 0.1253 0.58548 0.0
H2475 H 0.5259 0.09222 0.57677 0.0
H2476 H 0.55542 0.75472 0.41679 0.0
H2477 H 0.58472 0.75403 0.40387 0.0
H2478 H 0.58898 0.80888 0.38842 0.0
H2479 H 0.56006 0.80962 0.40116 0.0
H2480 H 0.58951 0.75687 0.36642 0.0
H2481 H 0.6424 0.81331 0.41132 0.0
H2482 H 0.6199 0.80239 0.41809 0.0
H2483 H 0.62204 0.82043 0.40348 0.0
C2484 C 0.56296 0.76682 0.41113 0.0
C2485 C 0.55548 0.78226 0.41008 0.0
C2486 C 0.5796 0.76636 0.40362 0.0
C2487 C 0.5892 0.78149 0.39531 0.0
C2488 C 0.5821 0.79718 0.39502 0.0
H2489 H 0.67276 0.8153 0.32471 0.0
H2490 H 0.64858 0.81149 0.34529 0.0
C2491 C 0.56549 0.79755 0.40228 0.0
C2492 C 0.60559 0.78053 0.38538 0.0
H2493 H 0.65031 0.80494 0.38137 0.0
C2494 C 0.60294 0.76713 0.36988 0.0
C2495 C 0.62309 0.794 0.3898 0.0
C2496 C 0.62712 0.80824 0.40669 0.0
C2497 C 0.61692 0.76748 0.35817 0.0
C2498 C 0.63419 0.7814 0.36224 0.0
C2499 C 0.63707 0.79433 0.37814 0.0
C2500 C 0.64903 0.78343 0.34971 0.0
C2501 C 0.61268 0.75353 0.34104 0.0
C2502 C 0.65756 0.769 0.34539 0.0
C2503 C 0.67132 0.77106 0.33341 0.0
C2504 C 0.67698 0.78767 0.32554 0.0
C2505 C 0.66857 0.80218 0.33016 0.0
C2506 C 0.65483 0.80009 0.34209 0.0
H2507 H 0.59744 0.74669 0.33775 0.0
H2508 H 0.61772 0.76033 0.32914 0.0
H2509 H 0.61997 0.7425 0.34304 0.0
H2510 H 0.65363 0.75613 0.35132 0.0
H2511 H 0.67736 0.75953 0.33016 0.0
H2512 H 0.023 0.24334 0.3743 0.0
H2513 H 0.02012 0.216 0.39077 0.0
H2514 H 0.05623 0.2506 0.43705 0.0
H2515 H 0.05916 0.27783 0.4208 0.0
H2516 H 0.06446 0.21543 0.42705 0.0
H2517 H 0.98926 0.20761 0.43501 0.0
H2518 H 0.99549 0.20847 0.41214 0.0
H2519 H 1.00411 0.2287 0.42898 0.0
C2520 C 0.03046 0.24507 0.38792 0.0
C2521 C 0.04125 0.26281 0.39624 0.0
C2522 C 0.0287 0.22946 0.39736 0.0
C2523 C 0.03777 0.23127 0.41526 0.0
C2524 C 0.04904 0.24884 0.42331 0.0
H2525 H 0.02103 0.1643 0.50383 0.0
H2526 H 0.02364 0.18806 0.48317 0.0
C2527 C 0.05068 0.26442 0.41397 0.0
C2528 C 0.03534 0.2151 0.4259 0.0
H2529 H 1.00339 0.18588 0.4473 0.0
C2530 C 0.05108 0.20886 0.43135 0.0
C2531 C 0.01793 0.20669 0.43173 0.0
C2532 C 1.00071 0.21322 0.42683 0.0
C2533 C 0.04988 0.1945 0.44246 0.0
C2534 C 0.03245 0.18605 0.44825 0.0
C2535 C 0.01671 0.19227 0.44278 0.0
C2536 C 0.03046 0.17124 0.46055 0.0
C2537 C 0.06738 0.18881 0.44837 0.0
C2538 C 0.03316 0.15372 0.45467 0.0
C2539 C 0.03147 0.13996 0.46641 0.0
C2540 C 0.02704 0.14338 0.48436 0.0
C2541 C 0.02418 0.16095 0.49009 0.0
C2542 C 0.02578 0.17465 0.47831 0.0
H2543 H 0.08026 0.19906 0.44577 0.0
H2544 H 0.0684 0.1873 0.46317 0.0
H2545 H 0.0668 0.17509 0.44062 0.0
H2546 H 0.03647 0.15063 0.44094 0.0
H2547 H 0.03341 0.12654 0.4613 0.0
H2548 H 0.56626 0.27235 0.22851 0.0
H2549 H 0.5989 0.27505 0.24049 0.0
H2550 H 0.60986 0.25621 0.18656 0.0
H2551 H 0.57733 0.25329 0.17458 0.0
H2552 H 0.62401 0.23825 0.21259 0.0
H2553 H 0.64619 0.31463 0.23479 0.0
H2554 H 0.62596 0.3025 0.24435 0.0
H2555 H 0.62467 0.30338 0.2201 0.0
C2556 C 0.57566 0.26894 0.21916 0.0
C2557 C 0.56909 0.26268 0.20053 0.0
C2558 C 0.5944 0.27056 0.22603 0.0
C2559 C 0.60707 0.26605 0.21443 0.0
C2560 C 0.6005 0.25983 0.19584 0.0
H2561 H 0.72895 0.294 0.23362 0.0
H2562 H 0.69601 0.29116 0.22346 0.0
C2563 C 0.58183 0.25823 0.18898 0.0
C2564 C 0.62699 0.2673 0.2216 0.0
H2565 H 0.66794 0.29755 0.24282 0.0
C2566 C 0.63359 0.25123 0.21923 0.0
C2567 C 0.63968 0.28425 0.23012 0.0
C2568 C 0.63388 0.30223 0.23237 0.0
C2569 C 0.6523 0.25159 0.22514 0.0
C2570 C 0.6649 0.26846 0.23395 0.0
C2571 C 0.65834 0.28456 0.23624 0.0
C2572 C 0.68508 0.26988 0.24025 0.0
C2573 C 0.65854 0.23398 0.22141 0.0
C2574 C 0.69016 0.25896 0.25323 0.0
C2575 C 0.70913 0.26052 0.25908 0.0
C2576 C 0.72354 0.27309 0.25215 0.0
C2577 C 0.71837 0.28405 0.23922 0.0
C2578 C 0.69945 0.2825 0.23342 0.0
H2579 H 0.64879 0.22375 0.21061 0.0
H2580 H 0.67281 0.2371 0.21712 0.0
H2581 H 0.65892 0.22734 0.23411 0.0
H2582 H 0.67945 0.24938 0.25904 0.0
H2583 H 0.71248 0.25197 0.26917 0.0
H2584 H 0.55326 0.85696 0.91431 0.0
H2585 H 0.55291 0.8852 0.93397 0.0
H2586 H 0.54999 0.9139 0.88665 0.0
H2587 H 0.54994 0.88556 0.86677 0.0
H2588 H 0.57559 0.92071 0.94047 0.0
H2589 H 0.50493 0.92189 0.90983 0.0
H2590 H 0.51439 0.90214 0.90507 0.0
H2591 H 0.52164 0.92245 0.89372 0.0
C2592 C 0.55271 0.86928 0.90801 0.0
C2593 C 0.5515 0.86879 0.88883 0.0
C2594 C 0.55248 0.88549 0.91933 0.0
C2595 C 0.55099 0.90165 0.91184 0.0
C2596 C 0.55064 0.90151 0.89279 0.0
H2597 H 0.538 0.0083 0.96511 0.0
H2598 H 0.54345 0.98393 0.94296 0.0
C2599 C 0.55081 0.88528 0.88142 0.0
C2600 C 0.54949 0.91843 0.924 0.0
H2601 H 0.52086 0.94704 0.93241 0.0
C2602 C 0.56363 0.92646 0.93866 0.0
C2603 C 0.53389 0.92605 0.92173 0.0
C2604 C 0.51775 0.91762 0.90685 0.0
C2605 C 0.56261 0.94178 0.95101 0.0
C2606 C 0.5469 0.94921 0.94888 0.0
C2607 C 0.53293 0.94143 0.93404 0.0
C2608 C 0.54422 0.96437 0.96242 0.0
C2609 C 0.57848 0.94997 0.96618 0.0
C2610 C 0.54267 0.96152 0.98073 0.0
C2611 C 0.53951 0.97537 0.99339 0.0
C2612 C 0.53776 0.99249 0.9881 0.0
C2613 C 0.53937 0.99537 0.96974 0.0
C2614 C 0.54245 0.98142 0.95703 0.0
H2615 H 0.59159 0.94647 0.96291 0.0
H2616 H 0.58125 0.96539 0.96885 0.0
H2617 H 0.57467 0.94415 0.97892 0.0
H2618 H 0.54359 0.94839 0.98521 0.0
H2619 H 0.53828 0.97253 0.00734 0.0
H2620 H 0.9574 0.74105 0.69443 0.0
H2621 H 0.92636 0.7414 0.70347 0.0
H2622 H 0.9512 0.79262 0.73946 0.0
H2623 H 0.98194 0.7924 0.73072 0.0
H2624 H 0.91448 0.74346 0.74123 0.0
H2625 H 0.90794 0.80401 0.70618 0.0
H2626 H 0.92387 0.79023 0.70031 0.0
H2627 H 0.92981 0.80737 0.72034 0.0
C2628 C 0.95626 0.75241 0.70424 0.0
C2629 C 0.97237 0.76672 0.71172 0.0
C2630 C 0.93847 0.75257 0.70945 0.0
C2631 C 0.9363 0.76716 0.72205 0.0
C2632 C 0.95234 0.78132 0.72957 0.0
H2633 H 0.84934 0.80712 0.77089 0.0
H2634 H 0.87788 0.80204 0.75981 0.0
C2635 C 0.97004 0.7811 0.72454 0.0
C2636 C 0.91746 0.76784 0.72753 0.0
H2637 H 0.88629 0.7947 0.7272 0.0
C2638 C 0.90819 0.75454 0.738 0.0
C2639 C 0.90921 0.78234 0.72347 0.0
C2640 C 0.91809 0.79674 0.71183 0.0
C2641 C 0.8914 0.75576 0.74509 0.0
C2642 C 0.88325 0.77046 0.74124 0.0
C2643 C 0.89238 0.78348 0.73037 0.0
C2644 C 0.86567 0.77306 0.74867 0.0
C2645 C 0.88309 0.74168 0.75729 0.0
C2646 C 0.84895 0.75857 0.74623 0.0
C2647 C 0.83257 0.76139 0.75287 0.0
C2648 C 0.83226 0.77892 0.76183 0.0
C2649 C 0.84894 0.79343 0.76412 0.0
C2650 C 0.86535 0.79052 0.75771 0.0
H2651 H 0.8937 0.73515 0.76333 0.0
H2652 H 0.87705 0.7482 0.7686 0.0
H2653 H 0.87177 0.73038 0.74907 0.0
H2654 H 0.84839 0.74511 0.73884 0.0
H2655 H 0.82 0.74992 0.75056 0.0
H2656 H 0.13794 0.02798 0.86206 0.0
H2657 H 0.12114 0.0253 0.88872 0.0
H2658 H 0.07273 0.03377 0.8576 0.0
H2659 H 0.08966 0.03666 0.83053 0.0
H2660 H 0.08286 0.05623 0.89185 0.0
H2661 H 0.07908 0.98268 0.9001 0.0
H2662 H 0.1024 0.99593 0.89808 0.0
H2663 H 0.08427 0.99217 0.87913 0.0
C2664 C 0.12365 0.0291 0.86068 0.0
C2665 C 0.11519 0.03252 0.844 0.0
C2666 C 0.11399 0.02743 0.87601 0.0
C2667 C 0.09555 0.02905 0.87518 0.0
C2668 C 0.08691 0.03231 0.85855 0.0
H2669 H 0.03199 0.00886 0.96932 0.0
H2670 H 0.04191 0.00707 0.93864 0.0
C2671 C 0.09658 0.03389 0.84306 0.0
C2672 C 0.08596 0.02837 0.89207 0.0
H2673 H 0.0747 1.00196 0.92654 0.0
C2674 C 0.08084 0.04427 0.8993 0.0
C2675 C 0.08311 0.01271 0.90177 0.0
C2676 C 0.08733 0.99483 0.89429 0.0
C2677 C 0.07378 0.04523 0.9163 0.0
C2678 C 0.07201 0.02999 0.92653 0.0
C2679 C 0.0763 0.01376 0.91889 0.0
C2680 C 0.06617 0.0308 0.94532 0.0
C2681 C 0.06831 0.06261 0.92316 0.0
C2682 C 0.07674 0.04442 0.95948 0.0
C2683 C 0.07115 0.04546 0.97705 0.0
C2684 C 0.05487 0.03282 0.98096 0.0
C2685 C 0.04458 0.01885 0.96687 0.0
C2686 C 0.05021 0.01782 0.94927 0.0
H2687 H 0.06527 0.0704 0.91177 0.0
H2688 H 0.05581 0.05919 0.93058 0.0
H2689 H 0.08008 0.07197 0.93276 0.0
H2690 H 0.08937 0.05431 0.95695 0.0
H2691 H 0.07953 0.05634 0.98752 0.0
H2692 H 0.73104 0.35589 0.53343 0.0
H2693 H 0.72754 0.33558 0.55745 0.0
H2694 H 0.76784 0.3786 0.59452 0.0
H2695 H 0.7712 0.39902 0.57076 0.0
H2696 H 0.75695 0.32387 0.57083 0.0
H2697 H 0.73022 0.35824 0.62824 0.0
H2698 H 0.72787 0.3644 0.60533 0.0
H2699 H 0.74925 0.37441 0.62057 0.0
C2700 C 0.73873 0.36122 0.54687 0.0
C2701 C 0.75154 0.37897 0.55019 0.0
C2702 C 0.73669 0.3496 0.56057 0.0
C2703 C 0.74731 0.35563 0.57779 0.0
C2704 C 0.75919 0.3738 0.58146 0.0
H2705 H 0.80741 0.32451 0.66182 0.0
H2706 H 0.79236 0.33651 0.63687 0.0
C2707 C 0.76121 0.38543 0.56781 0.0
C2708 C 0.74848 0.3422 0.59088 0.0
H2709 H 0.7506 0.33848 0.63649 0.0
C2710 C 0.75499 0.3267 0.58509 0.0
C2711 C 0.74586 0.34589 0.60943 0.0
C2712 C 0.73772 0.36154 0.61619 0.0
C2713 C 0.7605 0.31576 0.5977 0.0
C2714 C 0.75938 0.32049 0.61643 0.0
C2715 C 0.75156 0.33506 0.62205 0.0
C2716 C 0.76863 0.31224 0.63056 0.0
C2717 C 0.76877 0.30011 0.5912 0.0
C2718 C 0.76036 0.29444 0.6349 0.0
C2719 C 0.76904 0.28741 0.64908 0.0
C2720 C 0.78609 0.29813 0.65904 0.0
C2721 C 0.79451 0.31574 0.6542 0.0
C2722 C 0.78583 0.32273 0.64011 0.0
H2723 H 0.76863 0.2982 0.57609 0.0
H2724 H 0.78345 0.30301 0.59772 0.0
H2725 H 0.76075 0.28686 0.59539 0.0
H2726 H 0.74707 0.28621 0.62758 0.0
H2727 H 0.76227 0.27378 0.65249 0.0
H2728 H 0.45826 0.08223 0.34809 0.0
H2729 H 0.48071 0.08725 0.37554 0.0
H2730 H 0.43534 0.07365 0.40828 0.0
H2731 H 0.41263 0.0685 0.38094 0.0
H2732 H 0.47636 0.10713 0.4218 0.0
H2733 H 0.47479 0.03304 0.39896 0.0
H2734 H 0.47496 0.04922 0.38248 0.0
H2735 H 0.45456 0.04165 0.39372 0.0
C2736 C 0.45297 0.08079 0.36117 0.0
C2737 C 0.43361 0.07454 0.36225 0.0
C2738 C 0.46587 0.08377 0.37683 0.0
C2739 C 0.45959 0.08067 0.39376 0.0
C2740 C 0.44035 0.07613 0.39523 0.0
H2741 H 0.49554 0.06809 0.50154 0.0
H2742 H 0.48357 0.07811 0.47381 0.0
C2743 C 0.42741 0.07315 0.37957 0.0
C2744 C 0.47277 0.07898 0.40915 0.0
H2745 H 0.49165 0.04681 0.4274 0.0
C2746 C 0.47993 0.09406 0.42301 0.0
C2747 C 0.4775 0.06196 0.41042 0.0
C2748 C 0.47011 0.04545 0.39567 0.0
C2749 C 0.49135 0.0923 0.43857 0.0
C2750 C 0.49522 0.0749 0.44033 0.0
C2751 C 0.48869 0.06013 0.42602 0.0
C2752 C 0.50416 0.07092 0.45759 0.0
C2753 C 0.49898 0.10901 0.45301 0.0
C2754 C 0.51955 0.0632 0.45764 0.0
C2755 C 0.52627 0.05707 0.47349 0.0
C2756 C 0.5176 0.05848 0.48949 0.0
C2757 C 0.50251 0.06668 0.48946 0.0
C2758 C 0.49579 0.07271 0.47365 0.0
H2759 H 0.5007 0.12225 0.44695 0.0
H2760 H 0.48895 0.10894 0.46324 0.0
H2761 H 0.5127 0.1088 0.46021 0.0
H2762 H 0.52607 0.06152 0.44529 0.0
H2763 H 0.53795 0.05087 0.47308 0.0
H2764 H 0.77592 0.69007 0.08078 0.0
H2765 H 0.77483 0.70366 0.11204 0.0
H2766 H 0.79647 0.75881 0.09769 0.0
H2767 H 0.79779 0.74527 0.06631 0.0
H2768 H 0.81361 0.75405 0.13098 0.0
H2769 H 0.73651 0.7303 0.12893 0.0
H2770 H 0.7469 0.71162 0.12283 0.0
H2771 H 0.7481 0.72986 0.10855 0.0
C2772 C 0.78051 0.7051 0.08424 0.0
C2773 C 0.78689 0.71657 0.07096 0.0
C2774 C 0.77972 0.71287 0.10213 0.0
C2775 C 0.78517 0.73231 0.10719 0.0
C2776 C 0.79202 0.74379 0.0941 0.0
H2777 H 0.76303 0.78513 0.21265 0.0
H2778 H 0.76355 0.77663 0.1797 0.0
C2779 C 0.7928 0.73602 0.07616 0.0
C2780 C 0.78406 0.74053 0.12622 0.0
H2781 H 0.754 0.74134 0.15852 0.0
C2782 C 0.80054 0.7514 0.13693 0.0
C2783 C 0.76697 0.7374 0.13398 0.0
C2784 C 0.74858 0.72682 0.12294 0.0
C2785 C 0.80053 0.75853 0.15531 0.0
C2786 C 0.78362 0.7545 0.16337 0.0
C2787 C 0.767 0.7443 0.15245 0.0
C2788 C 0.78315 0.75984 0.18331 0.0
C2789 C 0.81869 0.77031 0.16596 0.0
C2790 C 0.79368 0.753 0.19632 0.0
C2791 C 0.79337 0.75776 0.21504 0.0
C2792 C 0.78242 0.76945 0.22137 0.0
C2793 C 0.77165 0.77614 0.20832 0.0
C2794 C 0.77193 0.77129 0.18948 0.0
H2795 H 0.82867 0.77681 0.15673 0.0
H2796 H 0.81625 0.78151 0.17577 0.0
H2797 H 0.82537 0.76133 0.17383 0.0
H2798 H 0.80211 0.74382 0.19198 0.0
H2799 H 0.80187 0.75225 0.22455 0.0
H2800 H 0.13505 0.04654 0.72794 0.0
H2801 H 0.12217 0.04769 0.69665 0.0
H2802 H 0.06638 0.02472 0.70979 0.0
H2803 H 0.0792 0.02386 0.74136 0.0
H2804 H 0.10242 0.02065 0.67019 0.0
H2805 H 0.05992 0.07002 0.68686 0.0
H2806 H 0.07718 0.06577 0.70348 0.0
H2807 H 0.0544 0.04953 0.69815 0.0
C2808 C 0.12003 0.04169 0.72422 0.0
C2809 C 0.10817 0.03515 0.73725 0.0
C2810 C 0.11266 0.04239 0.70626 0.0
C2811 C 0.09324 0.03663 0.70083 0.0
C2812 C 0.08137 0.02969 0.71369 0.0
H2813 H 0.04214 0.00898 0.58749 0.0
H2814 H 0.0533 0.0091 0.61949 0.0
C2815 C 0.08874 0.02903 0.73172 0.0
C2816 C 0.08564 0.03758 0.68161 0.0
H2817 H 0.05575 0.05592 0.65589 0.0
C2818 C 0.09223 0.0284 0.6671 0.0
C2819 C 0.07257 0.04795 0.67745 0.0
C2820 C 0.06572 0.05904 0.69228 0.0
C2821 C 0.08595 0.02901 0.6487 0.0
C2822 C 0.07236 0.03879 0.64454 0.0
C2823 C 0.06601 0.04828 0.65902 0.0
C2824 C 0.06449 0.03906 0.62527 0.0
C2825 C 0.09423 0.01942 0.63387 0.0
C2826 C 0.06626 0.05595 0.61788 0.0
C2827 C 0.05968 0.05598 0.59944 0.0
C2828 C 0.05114 0.03909 0.58802 0.0
C2829 C 0.04883 0.02228 0.59571 0.0
C2830 C 0.05531 0.02229 0.61407 0.0
H2831 H 0.10801 0.01742 0.63905 0.0
H2832 H 0.08465 1.00543 0.62887 0.0
H2833 H 0.09609 0.02751 0.62211 0.0
H2834 H 0.07316 0.06911 0.62627 0.0
H2835 H 0.06168 0.06917 0.59404 0.0
H2836 H 0.77376 0.41743 0.43643 0.0
H2837 H 0.7689 0.39799 0.40681 0.0
H2838 H 0.73918 0.35053 0.43053 0.0
H2839 H 0.74361 0.36979 0.46004 0.0
H2840 H 0.78407 0.368 0.40302 0.0
H2841 H 0.70745 0.34519 0.38127 0.0
H2842 H 0.71824 0.36499 0.39842 0.0
H2843 H 0.71401 0.34167 0.40433 0.0
C2844 C 0.76575 0.40299 0.43526 0.0
C2845 C 0.75928 0.39513 0.45068 0.0
C2846 C 0.763 0.39191 0.41832 0.0
C2847 C 0.75362 0.37287 0.41651 0.0
C2848 C 0.74617 0.36526 0.43157 0.0
H2849 H 0.77608 0.28828 0.3384 0.0
H2850 H 0.7704 0.30535 0.36652 0.0
C2851 C 0.74888 0.3763 0.44849 0.0
C2852 C 0.7539 0.36048 0.3997 0.0
H2853 H 0.72615 0.32836 0.36566 0.0
C2854 C 0.77141 0.35942 0.39478 0.0
C2855 C 0.73734 0.34931 0.38906 0.0
C2856 C 0.71819 0.35043 0.39341 0.0
C2857 C 0.77286 0.34738 0.37951 0.0
C2858 C 0.75632 0.33584 0.36913 0.0
C2859 C 0.73878 0.33702 0.3739 0.0
C2860 C 0.75715 0.32356 0.35246 0.0
C2861 C 0.79207 0.34738 0.37439 0.0
C2862 C 0.75078 0.32765 0.33539 0.0
C2863 C 0.75394 0.31795 0.31939 0.0
C2864 C 0.7635 0.30396 0.32022 0.0
C2865 C 0.7688 0.29907 0.33735 0.0
C2866 C 0.76563 0.30883 0.35339 0.0
H2867 H 0.80304 0.35975 0.3815 0.0
H2868 H 0.79572 0.33468 0.37831 0.0
H2869 H 0.7923 0.3472 0.35939 0.0
H2870 H 0.74412 0.33892 0.33444 0.0
H2871 H 0.7494 0.32188 0.30641 0.0
H2872 H 0.41267 0.02861 0.24522 0.0
H2873 H 0.42829 0.02105 0.21886 0.0
H2874 H 0.48014 0.0592 0.2447 0.0
H2875 H 0.46464 0.06701 0.27103 0.0
H2876 H 0.47172 0.06092 0.20661 0.0
H2877 H 0.46579 0.98851 0.22191 0.0
H2878 H 0.4441 0.99507 0.21985 0.0
H2879 H 0.4621 0.00653 0.23829 0.0
C2880 C 0.42734 0.03557 0.24519 0.0
C2881 C 0.43749 0.04828 0.26025 0.0
C2882 C 0.43625 0.03114 0.2302 0.0
C2883 C 0.45542 0.03929 0.23008 0.0
C2884 C 0.46536 0.05267 0.24466 0.0
H2885 H 0.53508 0.02881 0.15307 0.0
H2886 H 0.52083 0.03622 0.18045 0.0
C2887 C 0.45647 0.05712 0.25966 0.0
C2888 C 0.46525 0.03352 0.21499 0.0
H2889 H 0.47777 0.99621 0.19434 0.0
C2890 C 0.47314 0.04681 0.20393 0.0
C2891 C 0.46707 0.0151 0.21167 0.0
C2892 C 0.45947 1.00049 0.22363 0.0
C2893 C 0.48246 0.04205 0.18928 0.0
C2894 C 0.48423 0.02361 0.18591 0.0
C2895 C 0.47642 0.01034 0.19704 0.0
C2896 C 0.49351 0.01766 0.17043 0.0
C2897 C 0.48987 0.05664 0.17722 0.0
C2898 C 0.4831 1.00405 0.15626 0.0
C2899 C 0.49126 0.99957 0.14076 0.0
C2900 C 0.50997 0.00864 0.1392 0.0
C2901 C 0.52066 0.02151 0.15391 0.0
C2902 C 0.51249 0.02594 0.16944 0.0
H2903 H 0.4836 0.06863 0.17905 0.0
H2904 H 0.50527 0.06204 0.1808 0.0
H2905 H 0.48703 0.05057 0.16257 0.0
H2906 H 0.46847 0.99736 0.1569 0.0
H2907 H 0.48277 0.98938 0.12976 0.0
H2908 H 0.80589 0.69077 0.95106 0.0
H2909 H 0.80847 0.70647 0.92377 0.0
H2910 H 0.77844 0.74432 0.94624 0.0
H2911 H 0.77667 0.7291 0.9741 0.0
H2912 H 0.78231 0.70741 0.89949 0.0
H2913 H 0.81789 0.78091 0.92669 0.0
H2914 H 0.81637 0.76227 0.9406 0.0
H2915 H 0.79697 0.77241 0.93693 0.0
C2916 C 0.80018 0.7027 0.95037 0.0
C2917 C 0.79115 0.70874 0.96481 0.0
C2918 C 0.8016 0.71166 0.93469 0.0
C2919 C 0.7938 0.72676 0.93281 0.0
C2920 C 0.78506 0.73308 0.94741 0.0
H2921 H 0.75892 0.75266 0.82524 0.0
H2922 H 0.76115 0.74176 0.85506 0.0
C2923 C 0.78397 0.72431 0.96335 0.0
C2924 C 0.79357 0.73468 0.91501 0.0
H2925 H 0.80334 0.77521 0.89566 0.0
C2926 C 0.78707 0.72225 0.89873 0.0
C2927 C 0.79998 0.75403 0.91376 0.0
C2928 C 0.80838 0.76815 0.93041 0.0
C2929 C 0.7866 0.7285 0.88147 0.0
C2930 C 0.79209 0.7479 0.88027 0.0
C2931 C 0.79889 0.76037 0.89648 0.0
C2932 C 0.79068 0.75541 0.86236 0.0
C2933 C 0.78063 0.71409 0.86465 0.0
C2934 C 0.8063 0.7675 0.85668 0.0
C2935 C 0.80497 0.77411 0.83963 0.0
C2936 C 0.78799 0.76868 0.82785 0.0
C2937 C 0.77232 0.75688 0.83376 0.0
C2938 C 0.77359 0.75053 0.85084 0.0
H2939 H 0.78304 0.7005 0.86743 0.0
H2940 H 0.7654 0.71173 0.86046 0.0
H2941 H 0.78829 0.71872 0.85306 0.0
H2942 H 0.81963 0.77162 0.86532 0.0
H2943 H 0.81729 0.78325 0.83558 0.0
H2944 H 0.79381 0.09968 0.00705 0.0
H2945 H 0.8169 0.08183 1.00434 0.0
H2946 H 0.85083 0.11557 0.05234 0.0
H2947 H 0.82781 0.13386 0.05506 0.0
H2948 H 0.8713 0.10826 0.02379 0.0
H2949 H 0.82261 0.04347 0.03859 0.0
H2950 H 0.81318 0.05339 0.02005 0.0
H2951 H 0.8181 0.06609 0.04276 0.0
C2952 C 0.80621 0.1034 0.01702 0.0
C2953 C 0.80889 0.11803 0.03142 0.0
C2954 C 0.81933 0.09312 0.01548 0.0
C2955 C 0.83524 0.09711 0.02842 0.0
C2956 C 0.83846 0.11221 0.04235 0.0
H2957 H 0.90712 0.02303 0.04219 0.0
H2958 H 0.88428 0.04125 0.04606 0.0
C2959 C 0.82536 0.12265 0.04384 0.0
C2960 C 0.84834 0.08527 0.02737 0.0
H2961 H 0.85046 0.04011 0.0265 0.0
C2962 C 0.86683 0.09339 0.02451 0.0
C2963 C 0.84246 0.06595 0.02865 0.0
C2964 C 0.82305 0.05672 0.03287 0.0
C2965 C 0.87951 0.08253 0.02227 0.0
C2966 C 0.87332 0.06303 0.02252 0.0
C2967 C 0.85501 0.05502 0.026 0.0
C2968 C 0.88578 0.05077 0.01948 0.0
C2969 C 0.89945 0.09203 0.01981 0.0
C2970 C 0.89349 0.04952 1.00295 0.0
C2971 C 0.9066 0.03927 1.00075 0.0
C2972 C 0.91205 0.02998 0.01501 0.0
C2973 C 0.90337 0.03029 0.03109 0.0
C2974 C 0.89032 0.04062 0.0333 0.0
H2975 H 0.90315 0.1072 0.02485 0.0
H2976 H 0.90949 0.08568 0.02714 0.0
H2977 H 0.90113 0.09043 1.00503 0.0
H2978 H 0.88978 0.05694 0.99197 0.0
H2979 H 0.91314 0.03941 0.98826 0.0
H2980 H 0.34876 0.38627 0.02381 0.0
H2981 H 0.38152 0.4049 0.02679 0.0
H2982 H 0.36749 0.44906 0.06039 0.0
H2983 H 0.33513 0.4301 0.05805 0.0
H2984 H 0.39481 0.43596 0.01474 0.0
H2985 H 0.41471 0.44869 0.08946 0.0
H2986 H 0.39352 0.43175 0.07892 0.0
H2987 H 0.39401 0.45606 0.08368 0.0
C2988 C 0.35285 0.39986 0.032 0.0
C2989 C 0.33945 0.4071 0.04021 0.0
C2990 C 0.37151 0.4105 0.03372 0.0
C2991 C 0.37711 0.42839 0.04395 0.0
C2992 C 0.36375 0.43519 0.05278 0.0
H2993 H 0.46876 0.52042 0.02624 0.0
H2994 H 0.43826 0.49907 0.02842 0.0
C2995 C 0.34517 0.42451 0.05115 0.0
C2996 C 0.3964 0.44055 0.04412 0.0
H2997 H 0.43373 0.46991 0.072 0.0
C2998 C 0.4032 0.44345 0.02727 0.0
C2999 C 0.40781 0.44985 0.0605 0.0
C3000 C 0.4022 0.44625 0.07914 0.0
C3001 C 0.42052 0.45603 0.02627 0.0
C3002 C 0.43144 0.466 0.04257 0.0
C3003 C 0.42511 0.46256 0.05949 0.0
C3004 C 0.44977 0.47959 0.04228 0.0
C3005 C 0.42706 0.45843 0.00775 0.0
C3006 C 0.46629 0.47597 0.04982 0.0
C3007 C 0.48372 0.48812 0.04861 0.0
C3008 C 0.48496 0.50422 0.03995 0.0
C3009 C 0.46832 0.50813 0.03295 0.0
C3010 C 0.45089 0.49591 0.0341 0.0
H3011 H 0.41912 0.44687 0.99706 0.0
H3012 H 0.42498 0.4717 1.00361 0.0
H3013 H 0.44222 0.45916 0.00825 0.0
H3014 H 0.46573 0.46349 0.05625 0.0
H3015 H 0.49621 0.4847 0.05426 0.0
H3016 H 0.42138 0.5819 0.75233 0.0
H3017 H 0.40679 0.60791 0.75069 0.0
H3018 H 0.3961 0.60601 0.80686 0.0
H3019 H 0.41011 0.5799 0.80835 0.0
H3020 H 0.36456 0.60237 0.78412 0.0
H3021 H 0.41975 0.66333 0.77068 0.0
H3022 H 0.41706 0.6423 0.75529 0.0
H3023 H 0.4251 0.64318 0.7791 0.0
C3024 C 0.41649 0.58751 0.76447 0.0
C3025 C 0.41685 0.57891 0.78046 0.0
C3026 C 0.40813 0.60235 0.76354 0.0
C3027 C 0.40033 0.60895 0.77867 0.0
C3028 C 0.40193 0.60115 0.79499 0.0
H3029 H 0.34932 0.70063 0.79779 0.0
H3030 H 0.37042 0.68019 0.79665 0.0
C3031 C 0.41002 0.58627 0.79585 0.0
C3032 C 0.3885 0.62225 0.77711 0.0
H3033 H 0.38858 0.66643 0.76873 0.0
C3034 C 0.36985 0.61639 0.78077 0.0
C3035 C 0.3954 0.64055 0.77282 0.0
C3036 C 0.41546 0.64784 0.76939 0.0
C3037 C 0.35796 0.62829 0.7804 0.0
C3038 C 0.36472 0.64649 0.77578 0.0
C3039 C 0.38337 0.65241 0.77211 0.0
C3040 C 0.35267 0.65965 0.77529 0.0
C3041 C 0.33841 0.62138 0.78546 0.0
C3042 C 0.33587 0.65513 0.76338 0.0
C3043 C 0.32375 0.66673 0.76407 0.0
C3044 C 0.32826 0.68322 0.77654 0.0
C3045 C 0.34545 0.68808 0.78796 0.0
C3046 C 0.35753 0.6764 0.78734 0.0
H3047 H 0.3371 0.60919 0.79313 0.0
H3048 H 0.33438 0.63257 0.79395 0.0
H3049 H 0.32833 0.61697 0.77279 0.0
H3050 H 0.33202 0.64248 0.7537 0.0
H3051 H 0.31082 0.66277 0.75481 0.0
H3052 H 0.22209 0.66898 0.52 0.0
H3053 H 0.18771 0.66235 0.51871 0.0
H3054 H 0.18756 0.61731 0.55085 0.0
H3055 H 0.22153 0.624 0.55222 0.0
H3056 H 0.16283 0.62949 0.50335 0.0
H3057 H 0.15251 0.64294 0.57549 0.0
H3058 H 0.17458 0.65244 0.56712 0.0
H3059 H 0.16904 0.62923 0.57357 0.0
C3060 C 0.21458 0.65785 0.52691 0.0
C3061 C 0.22414 0.64663 0.53579 0.0
C3062 C 0.19507 0.65413 0.52625 0.0
C3063 C 0.18515 0.63958 0.53499 0.0
C3064 C 0.19495 0.62892 0.54444 0.0
H3065 H 0.09175 0.55687 0.5444 0.0
H3066 H 0.12097 0.58101 0.54521 0.0
C3067 C 0.21429 0.63252 0.54496 0.0
C3068 C 0.16445 0.63371 0.53265 0.0
H3069 H 0.12833 0.61748 0.55687 0.0
C3070 C 0.15518 0.62698 0.51497 0.0
C3071 C 0.15433 0.63126 0.54783 0.0
C3072 C 0.16314 0.63957 0.56704 0.0
C3073 C 0.13683 0.61538 0.51219 0.0
C3074 C 0.12728 0.6114 0.52758 0.0
C3075 C 0.13583 0.62015 0.54511 0.0
C3076 C 0.10948 0.59666 0.52623 0.0
C3077 C 0.12857 0.60629 0.49302 0.0
C3078 C 0.09338 0.59727 0.51505 0.0
C3079 C 0.07677 0.58315 0.51419 0.0
C3080 C 0.07593 0.56855 0.52489 0.0
C3081 C 0.09203 0.56799 0.53603 0.0
C3082 C 0.10868 0.58182 0.53658 0.0
H3083 H 0.13931 0.60776 0.48338 0.0
H3084 H 0.12185 0.5912 0.49285 0.0
H3085 H 0.11774 0.613 0.48788 0.0
H3086 H 0.09354 0.60879 0.50728 0.0
H3087 H 0.06442 0.58404 0.50571 0.0
H3088 H 0.72332 0.03235 0.79075 0.0
H3089 H 0.73747 0.00746 0.79798 0.0
H3090 H 0.68375 0.96715 0.78388 0.0
H3091 H 0.66949 0.99195 0.77608 0.0
H3092 H 0.7307 0.98341 0.823 0.0
H3093 H 0.71632 0.94452 0.75275 0.0
H3094 H 0.71333 0.96769 0.75759 0.0
H3095 H 0.69573 0.94776 0.76207 0.0
C3096 C 0.71446 0.01819 0.78917 0.0
C3097 C 0.69528 0.01411 0.78271 0.0
C3098 C 0.72259 1.00399 0.79333 0.0
C3099 C 0.71172 0.98544 0.79121 0.0
C3100 C 0.69247 0.98133 0.7852 0.0
H3101 H 0.74159 0.88314 0.80955 0.0
H3102 H 0.72489 0.90731 0.80741 0.0
C3103 C 0.68434 0.99552 0.78082 0.0
C3104 C 0.72068 0.97049 0.79524 0.0
H3105 H 0.72952 0.93051 0.77599 0.0
C3106 C 0.73044 0.97183 0.81273 0.0
C3107 C 0.72038 0.95547 0.78177 0.0
C3108 C 0.71104 0.95381 0.76244 0.0
C3109 C 0.7399 0.95852 0.8171 0.0
C3110 C 0.73953 0.94356 0.80364 0.0
C3111 C 0.72961 0.94203 0.78627 0.0
C3112 C 0.74986 0.92955 0.80704 0.0
C3113 C 0.7502 0.96043 0.83602 0.0
C3114 C 0.76943 0.93424 0.80775 0.0
C3115 C 0.77901 0.92044 0.80871 0.0
C3116 C 0.76913 0.90176 0.80895 0.0
C3117 C 0.74957 0.89734 0.80904 0.0
C3118 C 0.74001 0.91111 0.80795 0.0
H3119 H 0.74668 0.97107 0.84571 0.0
H3120 H 0.74687 0.94684 0.84148 0.0
H3121 H 0.76552 0.96464 0.83529 0.0
H3122 H 0.77718 0.94842 0.80684 0.0
H3123 H 0.79403 0.92426 0.80842 0.0
H3124 H 0.73448 0.89657 0.55658 0.0
H3125 H 0.70693 0.9089 0.55918 0.0
H3126 H 0.71029 0.92499 0.50505 0.0
H3127 H 0.73756 0.91283 0.50241 0.0
H3128 H 0.7091 0.94692 0.55729 0.0
H3129 H 0.65406 0.90238 0.50447 0.0
H3130 H 0.67406 0.89497 0.51345 0.0
H3131 H 0.67611 0.90997 0.49581 0.0
C3132 C 0.72891 0.90217 0.54503 0.0
C3133 C 0.73813 0.90372 0.52928 0.0
C3134 C 0.71327 0.90931 0.54657 0.0
C3135 C 0.70644 0.91772 0.53224 0.0
C3136 C 0.71504 0.91827 0.51614 0.0
H3137 H 0.64324 0.99311 0.50496 0.0
H3138 H 0.66193 0.97064 0.5072 0.0
C3139 C 0.73071 0.91138 0.51469 0.0
C3140 C 0.69196 0.92802 0.53464 0.0
H3141 H 0.65121 0.93344 0.51349 0.0
C3142 C 0.69621 0.94376 0.548 0.0
C3143 C 0.67522 0.92394 0.52244 0.0
C3144 C 0.66949 0.90678 0.50835 0.0
C3145 C 0.68479 0.95617 0.54875 0.0
C3146 C 0.66848 0.95253 0.53599 0.0
C3147 C 0.66377 0.9363 0.52319 0.0
C3148 C 0.65684 0.96599 0.53486 0.0
C3149 C 0.69086 0.97362 0.56249 0.0
C3150 C 0.64762 0.97078 0.54963 0.0
C3151 C 0.63707 0.98384 0.54847 0.0
C3152 C 0.63543 0.99228 0.53247 0.0
C3153 C 0.64448 0.9872 0.51762 0.0
C3154 C 0.65503 0.97419 0.51881 0.0
H3155 H 0.70567 0.97629 0.56861 0.0
H3156 H 0.68926 0.98598 0.55603 0.0
H3157 H 0.68191 0.97205 0.57373 0.0
H3158 H 0.64856 0.96442 0.56205 0.0
H3159 H 0.63039 0.98746 0.56021 0.0
H3160 H 0.43019 0.47228 0.78699 0.0
H3161 H 0.40939 0.44072 0.78366 0.0
H3162 H 0.37383 0.45472 0.74077 0.0
H3163 H 0.39353 0.48681 0.74579 0.0
H3164 H 0.3525 0.43654 0.75783 0.0
H3165 H 0.40391 0.39574 0.75093 0.0
H3166 H 0.41066 0.41052 0.77236 0.0
H3167 H 0.41046 0.42068 0.75122 0.0
C3168 C 0.4179 0.46848 0.77689 0.0
C3169 C 0.41314 0.48191 0.76693 0.0
C3170 C 0.40615 0.45032 0.7747 0.0
C3171 C 0.3901 0.44491 0.7616 0.0
C3172 C 0.38596 0.45832 0.75105 0.0
H3173 H 0.32782 0.32677 0.74367 0.0
H3174 H 0.34779 0.35734 0.74011 0.0
C3175 C 0.39723 0.47667 0.75385 0.0
C3176 C 0.3769 0.42584 0.7599 0.0
H3177 H 0.37486 0.3798 0.76133 0.0
C3178 C 0.35754 0.42424 0.75866 0.0
C3179 C 0.38304 0.40933 0.75985 0.0
C3180 C 0.40313 0.40917 0.75841 0.0
C3181 C 0.34439 0.40705 0.75858 0.0
C3182 C 0.35073 0.39089 0.76031 0.0
C3183 C 0.36996 0.39223 0.76054 0.0
C3184 C 0.33772 0.37249 0.76183 0.0
C3185 C 0.32384 0.40646 0.75637 0.0
C3186 C 0.32529 0.37072 0.77517 0.0
C3187 C 0.31351 0.35329 0.77692 0.0
C3188 C 0.31435 0.3372 0.76573 0.0
C3189 C 0.32686 0.33894 0.75249 0.0
C3190 C 0.33833 0.35641 0.75048 0.0
H3191 H 0.32121 0.41786 0.74885 0.0
H3192 H 0.31516 0.39293 0.74891 0.0
H3193 H 0.31922 0.40849 0.77009 0.0
H3194 H 0.32494 0.38275 0.78452 0.0
H3195 H 0.30423 0.35234 0.78745 0.0
H3196 H 0.18896 0.58115 0.23275 0.0
H3197 H 0.20266 0.61233 0.225 0.0
H3198 H 0.17401 0.63568 0.26595 0.0
H3199 H 0.15749 0.60419 0.27062 0.0
H3200 H 0.17655 0.65627 0.24348 0.0
H3201 H 0.24777 0.64435 0.24921 0.0
H3202 H 0.23335 0.63269 0.2285 0.0
H3203 H 0.22752 0.62564 0.25014 0.0
C3204 C 0.18565 0.59308 0.23996 0.0
C3205 C 0.17319 0.59064 0.25314 0.0
C3206 C 0.19365 0.61093 0.23572 0.0
C3207 C 0.19057 0.62673 0.24574 0.0
C3208 C 0.17714 0.62396 0.25818 0.0
H3209 H 0.24503 0.73736 0.28942 0.0
H3210 H 0.22504 0.70563 0.28024 0.0
C3211 C 0.16798 0.606 0.26125 0.0
C3212 C 0.20137 0.64613 0.24396 0.0
H3213 H 0.24575 0.67467 0.24638 0.0
C3214 C 0.1917 0.66013 0.2442 0.0
C3215 C 0.2212 0.65146 0.24405 0.0
C3216 C 0.23305 0.63777 0.24307 0.0
C3217 C 0.20125 0.6791 0.24615 0.0
C3218 C 0.22095 0.68424 0.24755 0.0
C3219 C 0.23059 0.67047 0.24566 0.0
C3220 C 0.23198 0.7038 0.25247 0.0
C3221 C 0.1903 0.69357 0.24723 0.0
C3222 C 0.24261 0.71305 0.2399 0.0
C3223 C 0.254 0.73117 0.24507 0.0
C3224 C 0.25515 0.74016 0.26299 0.0
C3225 C 0.2445 0.73078 0.27555 0.0
C3226 C 0.23296 0.71275 0.2703 0.0
H3227 H 0.17527 0.68747 0.24194 0.0
H3228 H 0.19123 0.69965 0.26174 0.0
H3229 H 0.19625 0.70508 0.23937 0.0
H3230 H 0.24214 0.70621 0.22615 0.0
H3231 H 0.26207 0.73803 0.23509 0.0
H3232 H 0.5162 0.73723 0.48183 0.0
H3233 H 0.5189 0.70865 0.49412 0.0
H3234 H 0.49886 0.67704 0.44079 0.0
H3235 H 0.49636 0.70561 0.42838 0.0
H3236 H 0.49311 0.67574 0.49652 0.0
H3237 H 0.5462 0.66112 0.45341 0.0
H3238 H 0.54021 0.68314 0.45521 0.0
H3239 H 0.52534 0.6632 0.44048 0.0
C3240 C 0.51241 0.72422 0.47267 0.0
C3241 C 0.50616 0.72388 0.45403 0.0
C3242 C 0.51392 0.7078 0.47976 0.0
C3243 C 0.50939 0.69053 0.46842 0.0
C3244 C 0.50288 0.69012 0.44985 0.0
H3245 H 0.49259 0.58014 0.50827 0.0
H3246 H 0.48781 0.60804 0.49583 0.0
C3247 C 0.50134 0.70653 0.44275 0.0
C3248 C 0.51138 0.67306 0.47605 0.0
H3249 H 0.53303 0.63765 0.47118 0.0
C3250 C 0.50184 0.66743 0.49094 0.0
C3251 C 0.52294 0.66216 0.46906 0.0
C3252 C 0.53441 0.66776 0.45378 0.0
C3253 C 0.50338 0.65132 0.49881 0.0
C3254 C 0.5146 0.64018 0.49153 0.0
C3255 C 0.52426 0.64592 0.47675 0.0
C3256 C 0.51719 0.62303 0.49945 0.0
C3257 C 0.49334 0.64667 0.51521 0.0
C3258 C 0.53528 0.62172 0.50543 0.0
C3259 C 0.53805 0.60573 0.51248 0.0
C3260 C 0.52283 0.59036 0.51372 0.0
C3261 C 0.50468 0.59166 0.50773 0.0
C3262 C 0.50191 0.60773 0.50066 0.0
H3263 H 0.48953 0.65894 0.52203 0.0
H3264 H 0.48021 0.6355 0.5107 0.0
H3265 H 0.5021 0.64156 0.5254 0.0
H3266 H 0.54737 0.63316 0.50468 0.0
H3267 H 0.55227 0.6054 0.51684 0.0
H3268 H 0.6122 0.33093 0.66952 0.0
H3269 H 0.6418 0.33132 0.68726 0.0
H3270 H 0.65851 0.3042 0.63978 0.0
H3271 H 0.62891 0.30376 0.62192 0.0
H3272 H 0.66117 0.2863 0.67126 0.0
H3273 H 0.69636 0.36197 0.6869 0.0
H3274 H 0.67257 0.35565 0.692 0.0
H3275 H 0.67733 0.35256 0.66866 0.0
C3276 C 0.62233 0.32541 0.66271 0.0
C3277 C 0.61814 0.31737 0.64423 0.0
C3278 C 0.63931 0.32569 0.67289 0.0
C3279 C 0.65252 0.31791 0.66486 0.0
C3280 C 0.64861 0.31036 0.64628 0.0
H3281 H 0.76331 0.31679 0.7187 0.0
H3282 H 0.73812 0.32088 0.6969 0.0
C3283 C 0.63169 0.3102 0.63605 0.0
C3284 C 0.66963 0.31633 0.67621 0.0
H3285 H 0.70908 0.34174 0.70414 0.0
C3286 C 0.67171 0.29844 0.67831 0.0
C3287 C 0.68352 0.33214 0.68533 0.0
C3288 C 0.6825 0.35169 0.68303 0.0
C3289 C 0.68689 0.29595 0.68971 0.0
C3290 C 0.70037 0.31173 0.69939 0.0
C3291 C 0.69868 0.32964 0.69683 0.0
C3292 C 0.71584 0.30979 0.71277 0.0
C3293 C 0.68836 0.27641 0.69143 0.0
C3294 C 0.71177 0.30241 0.72906 0.0
C3295 C 0.7261 0.30019 0.74159 0.0
C3296 C 0.74493 0.30524 0.73816 0.0
C3297 C 0.74902 0.31279 0.72187 0.0
C3298 C 0.73462 0.31514 0.70937 0.0
H3299 H 0.67939 0.26607 0.68021 0.0
H3300 H 0.70308 0.27565 0.69134 0.0
H3301 H 0.68377 0.27243 0.70464 0.0
H3302 H 0.69742 0.29834 0.73207 0.0
H3303 H 0.72232 0.29432 0.75392 0.0
H3304 H 0.0227 0.34725 0.92602 0.0
H3305 H 0.02492 0.37785 0.94237 0.0
H3306 H 1.00437 0.35232 0.98868 0.0
H3307 H 1.00245 0.32133 0.97239 0.0
H3308 H 0.998 0.39209 0.95366 0.0
H3309 H 0.04854 0.39325 0.01407 0.0
H3310 H 0.04427 0.37579 0.99427 0.0
H3311 H 0.02801 0.3739 0.01097 0.0
C3312 C 0.01881 0.34801 0.93978 0.0
C3313 C 0.01242 0.33162 0.94783 0.0
C3314 C 0.02005 0.36566 0.94913 0.0
C3315 C 0.01495 0.36764 0.96689 0.0
C3316 C 0.00877 0.35136 0.97516 0.0
H3317 H 0.99555 0.47557 0.01114 0.0
H3318 H 0.99089 0.44258 0.9993 0.0
C3319 C 1.00763 0.33357 0.96579 0.0
C3320 C 0.01557 0.38676 0.97614 0.0
H3321 H 0.03535 0.41892 0.01375 0.0
C3322 C 1.00612 0.39789 0.96685 0.0
C3323 C 0.02629 0.39457 0.99329 0.0
C3324 C 0.03751 0.38387 1.0037 0.0
C3325 C 1.00728 0.41648 0.97398 0.0
C3326 C 0.01784 0.42425 0.99122 0.0
C3327 C 0.02712 0.41306 1.00063 0.0
C3328 C 0.0204 0.44425 0.99916 0.0
C3329 C 0.99776 0.42784 0.96255 0.0
C3330 C 0.03851 0.45627 1.00369 0.0
C3331 C 0.04122 0.47509 0.01065 0.0
C3332 C 0.02587 0.48256 0.01336 0.0
C3333 C 1.00771 0.47045 0.00911 0.0
C3334 C 1.00502 0.45153 1.00221 0.0
H3335 H 0.99458 0.42162 0.94793 0.0
H3336 H 0.98432 0.42832 0.96771 0.0
H3337 H 1.0066 0.44237 0.96337 0.0
H3338 H 0.05066 0.45115 1.00157 0.0
H3339 H 0.05545 0.48383 0.01377 0.0
H3340 H 0.02847 0.80656 0.16059 0.0
H3341 H 1.00323 0.80343 0.17995 0.0
H3342 H 0.96236 0.78287 0.13229 0.0
H3343 H 0.98751 0.78568 0.11276 0.0
H3344 H 0.97346 0.81958 0.18022 0.0
H3345 H 0.94729 0.74247 0.1652 0.0
H3346 H 0.96954 0.75513 0.15923 0.0
H3347 H 0.94815 0.75437 0.14531 0.0
C3348 C 0.01413 0.80138 0.15414 0.0
C3349 C 0.01013 0.7963 0.13503 0.0
C3350 C 0.99968 0.79961 0.16529 0.0
C3351 C 0.98087 0.79261 0.15766 0.0
C3352 C 0.97677 0.78792 0.13857 0.0
H3353 H 0.87564 0.76898 0.20615 0.0
H3354 H 0.89958 0.77345 0.18521 0.0
C3355 C 0.99121 0.78969 0.12739 0.0
C3356 C 0.96562 0.79034 0.16974 0.0
H3357 H 0.92962 0.758 0.18315 0.0
C3358 C 0.9639 0.80611 0.18088 0.0
C3359 C 0.95308 0.77277 0.17061 0.0
C3360 C 0.95464 0.75517 0.15959 0.0
C3361 C 0.94992 0.80483 0.19267 0.0
C3362 C 0.93749 0.78723 0.19367 0.0
C3363 C 0.93911 0.77149 0.18241 0.0
C3364 C 0.9229 0.7848 0.20648 0.0
C3365 C 0.94839 0.82243 0.20371 0.0
C3366 C 0.92798 0.78948 0.22547 0.0
C3367 C 0.9143 0.78705 0.23749 0.0
C3368 C 0.89517 0.77974 0.23085 0.0
C3369 C 0.89016 0.7749 0.21179 0.0
C3370 C 0.90386 0.77733 0.19978 0.0
H3371 H 0.95514 0.83507 0.19766 0.0
H3372 H 0.93352 0.8222 0.20471 0.0
H3373 H 0.95559 0.82361 0.21777 0.0
H3374 H 0.94257 0.79492 0.23105 0.0
H3375 H 0.91874 0.7911 0.25202 0.0
H3376 H 0.48821 0.30003 0.13978 0.0
H3377 H 0.49748 0.32955 0.12737 0.0
H3378 H 0.55379 0.33901 0.15388 0.0
H3379 H 0.54456 0.3093 0.16655 0.0
H3380 H 0.51631 0.36818 0.14649 0.0
H3381 H 0.55719 0.33949 0.09675 0.0
H3382 H 0.53948 0.32453 0.10758 0.0
H3383 H 0.56159 0.33667 0.12049 0.0
C3384 C 0.50254 0.30846 0.1432 0.0
C3385 C 0.51566 0.30222 0.15412 0.0
C3386 C 0.5078 0.32536 0.13609 0.0
C3387 C 0.52635 0.33638 0.13951 0.0
C3388 C 0.53941 0.33062 0.15095 0.0
H3389 H 0.57527 0.43075 0.08181 0.0
H3390 H 0.57124 0.40612 0.10168 0.0
C3391 C 0.53409 0.31372 0.15829 0.0
C3392 C 0.53194 0.35339 0.13032 0.0
H3393 H 0.55415 0.36973 0.09455 0.0
C3394 C 0.52475 0.36863 0.13525 0.0
C3395 C 0.54296 0.35396 0.11569 0.0
C3396 C 0.55074 0.33781 0.10964 0.0
C3397 C 0.52812 0.38434 0.12583 0.0
C3398 C 0.53849 0.38461 0.11066 0.0
C3399 C 0.54614 0.36956 0.10609 0.0
C3400 C 0.54098 0.39996 0.09893 0.0
C3401 C 0.52063 0.40055 0.13236 0.0
C3402 C 0.52535 0.40462 0.09049 0.0
C3403 C 0.52762 0.41874 0.07918 0.0
C3404 C 0.54559 0.42839 0.07578 0.0
C3405 C 0.56123 0.42353 0.08403 0.0
C3406 C 0.55895 0.40949 0.09546 0.0
H3407 H 0.51882 0.40098 0.14713 0.0
H3408 H 0.53007 0.41406 0.13022 0.0
H3409 H 0.50669 0.39896 0.12462 0.0
H3410 H 0.51131 0.39712 0.09241 0.0
H3411 H 0.51525 0.42183 0.07279 0.0
H3412 H 0.99455 0.29384 0.3268 0.0
H3413 H 0.96304 0.29301 0.31306 0.0
H3414 H 0.95275 0.31952 0.36434 0.0
H3415 H 0.98495 0.32224 0.37719 0.0
H3416 H 0.93132 0.27709 0.3166 0.0
H3417 H 0.9318 0.35058 0.33495 0.0
H3418 H 0.9525 0.34275 0.33964 0.0
H3419 H 0.93526 0.34052 0.35547 0.0
C3420 C 0.98581 0.30027 0.33481 0.0
C3421 C 0.9927 0.30922 0.35265 0.0
C3422 C 0.96756 0.29946 0.32709 0.0
C3423 C 0.95534 0.30688 0.33728 0.0
C3424 C 0.96192 0.31466 0.35562 0.0
H3425 H 0.834 0.26811 0.30566 0.0
H3426 H 0.86664 0.27246 0.31782 0.0
C3427 C 0.98036 0.31599 0.3631 0.0
C3428 C 0.93554 0.30548 0.32908 0.0
H3429 H 0.90141 0.32898 0.32645 0.0
C3430 C 0.925 0.28862 0.31862 0.0
C3431 C 0.9269 0.32043 0.33127 0.0
C3432 C 0.93731 0.33961 0.34077 0.0
C3433 C 0.9064 0.2862 0.31068 0.0
C3434 C 0.8974 0.3007 0.31395 0.0
C3435 C 0.90799 0.31767 0.32407 0.0
C3436 C 0.87711 0.29852 0.30712 0.0
C3437 C 0.89687 0.2682 0.29842 0.0
C3438 C 0.87152 0.31222 0.29792 0.0
C3439 C 0.85255 0.31004 0.29144 0.0
C3440 C 0.83872 0.29399 0.29379 0.0
C3441 C 0.84427 0.28052 0.3033 0.0
C3442 C 0.86309 0.2829 0.31013 0.0
H3443 H 0.90726 0.262 0.29203 0.0
H3444 H 0.88921 0.25794 0.30671 0.0
H3445 H 0.88681 0.27033 0.28733 0.0
H3446 H 0.88187 0.32452 0.29548 0.0
H3447 H 0.8488 0.3207 0.2842 0.0
H3448 H 0.01471 0.69223 0.6822 0.0
H3449 H 0.01434 0.66261 0.66409 0.0
H3450 H 0.99377 0.68191 0.61543 0.0
H3451 H 0.99409 0.71144 0.63333 0.0
H3452 H 0.98476 0.6346 0.63883 0.0
H3453 H 0.04429 0.67069 0.60441 0.0
H3454 H 0.03812 0.68108 0.62531 0.0
H3455 H 0.02477 0.68083 0.60374 0.0
C3456 C 0.00978 0.69004 0.6677 0.0
C3457 C 1.00452 0.70431 0.65923 0.0
C3458 C 0.00962 0.6731 0.65736 0.0
C3459 C 1.00433 0.67014 0.63833 0.0
C3460 C 0.99818 0.68396 0.63003 0.0
H3461 H 1.00709 0.59089 0.54571 0.0
H3462 H 1.00364 0.61655 0.56714 0.0
C3463 C 0.99827 0.70083 0.64034 0.0
C3464 C 1.00616 0.65313 0.62693 0.0
H3465 H 0.02957 0.63917 0.59273 0.0
C3466 C 0.99462 0.63554 0.62881 0.0
C3467 C 0.01909 0.65434 0.61391 0.0
C3468 C 0.03242 0.6727 0.61176 0.0
C3469 C 0.99518 0.61926 0.61757 0.0
C3470 C 1.00794 0.62052 0.60433 0.0
C3471 C 0.01972 0.63811 0.60276 0.0
C3472 C 0.00898 0.60405 0.59147 0.0
C3473 C 0.98165 0.60097 0.61954 0.0
C3474 C 0.01309 0.58826 0.59788 0.0
C3475 C 0.01496 0.57336 0.58555 0.0
C3476 C 0.01299 0.57403 0.56654 0.0
C3477 C 0.00875 0.58981 0.56021 0.0
C3478 C 1.00677 0.60458 0.57249 0.0
H3479 H 0.96968 0.60312 0.62667 0.0
H3480 H 0.97607 0.5926 0.60597 0.0
H3481 H 0.98905 0.5928 0.62777 0.0
H3482 H 0.01529 0.58761 0.61243 0.0
H3483 H 0.01838 0.56154 0.59095 0.0
H3484 H 0.58834 0.8275 0.82015 0.0
H3485 H 0.61722 0.8232 0.80949 0.0
H3486 H 0.62899 0.79863 0.85788 0.0
H3487 H 0.5997 0.80246 0.86851 0.0
H3488 H 0.65298 0.83655 0.82224 0.0
H3489 H 0.63575 0.75966 0.81941 0.0
H3490 H 0.61865 0.77265 0.82295 0.0
H3491 H 0.6353 0.77139 0.84172 0.0
C3492 C 0.597 0.82118 0.82864 0.0
C3493 C 0.59144 0.81531 0.84527 0.0
C3494 C 0.61364 0.81871 0.82245 0.0
C3495 C 0.62534 0.81025 0.83261 0.0
C3496 C 0.62009 0.80474 0.84944 0.0
H3497 H 0.74199 0.81835 0.81372 0.0
H3498 H 0.71317 0.82223 0.82488 0.0
C3499 C 0.60334 0.80712 0.85563 0.0
C3500 C 0.64304 0.80756 0.82557 0.0
H3501 H 0.66675 0.77481 0.81451 0.0
C3502 C 0.65592 0.82301 0.82056 0.0
C3503 C 0.64696 0.78989 0.82297 0.0
C3504 C 0.63337 0.77241 0.82686 0.0
C3505 C 0.67248 0.82138 0.81335 0.0
C3506 C 0.67673 0.80383 0.81136 0.0
C3507 C 0.66374 0.78832 0.81613 0.0
C3508 C 0.69451 0.80131 0.80442 0.0
C3509 C 0.68499 0.83848 0.80747 0.0
C3510 C 0.694 0.78783 0.78942 0.0
C3511 C 0.71065 0.78539 0.78304 0.0
C3512 C 0.72832 0.79632 0.79155 0.0
C3513 C 0.72876 0.80972 0.80662 0.0
C3514 C 0.71216 0.81208 0.81301 0.0
H3515 H 0.67715 0.84887 0.80441 0.0
H3516 H 0.69636 0.84523 0.81874 0.0
H3517 H 0.69146 0.83481 0.79514 0.0
H3518 H 0.68067 0.77921 0.78253 0.0
H3519 H 0.70965 0.77487 0.77149 0.0
H3520 H 0.48775 0.55734 0.73375 0.0
H3521 H 0.49921 0.5615 0.70399 0.0
H3522 H 0.44492 0.53031 0.67657 0.0
H3523 H 0.4333 0.52661 0.70611 0.0
H3524 H 0.50284 0.53669 0.67688 0.0
H3525 H 0.4536 0.57448 0.6493 0.0
H3526 H 0.45592 0.57081 0.67301 0.0
H3527 H 0.44149 0.55267 0.65591 0.0
C3528 C 0.4782 0.55155 0.72137 0.0
C3529 C 0.45954 0.54178 0.72237 0.0
C3530 C 0.48478 0.5539 0.70433 0.0
C3531 C 0.47287 0.54656 0.68789 0.0
C3532 C 0.45429 0.53664 0.68892 0.0
H3533 H 0.48493 0.52779 0.57263 0.0
H3534 H 0.47455 0.52895 0.60309 0.0
C3535 C 0.44768 0.53441 0.70591 0.0
C3536 C 0.47999 0.54854 0.6697 0.0
H3537 H 0.47048 0.56155 0.62757 0.0
C3538 C 0.49587 0.54235 0.6662 0.0
C3539 C 0.471 0.55595 0.65564 0.0
C3540 C 0.45468 0.56403 0.6587 0.0
C3541 C 0.50257 0.5428 0.649 0.0
C3542 C 0.49325 0.54972 0.63485 0.0
C3543 C 0.47757 0.55616 0.63837 0.0
C3544 C 0.49932 0.54988 0.61617 0.0
C3545 C 0.51926 0.53535 0.64587 0.0
C3546 C 0.51653 0.56159 0.61323 0.0
C3547 C 0.52246 0.56109 0.59574 0.0
C3548 C 0.51135 0.54877 0.58082 0.0
C3549 C 0.49391 0.5374 0.58376 0.0
C3550 C 0.48792 0.53804 0.60119 0.0
H3551 H 0.52289 0.52757 0.65706 0.0
H3552 H 0.51652 0.52597 0.63268 0.0
H3553 H 0.53157 0.54716 0.64512 0.0
H3554 H 0.52547 0.571 0.62451 0.0
H3555 H 0.53598 0.57002 0.59404 0.0
H3556 H 0.78717 0.19492 0.0109 0.0
H3557 H 0.78544 0.21411 0.98638 0.0
H3558 H 0.75114 0.16598 0.95061 0.0
H3559 H 0.75273 0.14654 0.97497 0.0
H3560 H 0.78213 0.19077 0.93521 0.0
H3561 H 0.73522 0.22736 0.96949 0.0
H3562 H 0.75634 0.22664 0.98303 0.0
H3563 H 0.73839 0.20542 0.97542 0.0
C3564 C 0.7794 0.18832 0.99778 0.0
C3565 C 0.76995 0.16919 0.99496 0.0
C3566 C 0.77838 0.19935 0.98384 0.0
C3567 C 0.76794 0.19144 0.96689 0.0
C3568 C 0.75917 0.17227 0.96371 0.0
H3569 H 0.73787 0.22769 0.86469 0.0
H3570 H 0.74213 0.21037 0.89032 0.0
C3571 C 0.76011 0.16121 0.97764 0.0
C3572 C 0.76568 0.20325 0.9526 0.0
H3573 H 0.74446 0.23683 0.94158 0.0
C3574 C 0.77393 0.20087 0.93656 0.0
C3575 C 0.75504 0.21642 0.95458 0.0
C3576 C 0.7456 0.21912 0.97149 0.0
C3577 C 0.77181 0.2114 0.92232 0.0
C3578 C 0.7608 0.22427 0.92411 0.0
C3579 C 0.75282 0.22688 0.9403 0.0
C3580 C 0.75712 0.23488 0.90913 0.0
C3581 C 0.78152 0.20882 0.90557 0.0
C3582 C 0.7634 0.25441 0.91158 0.0
C3583 C 0.76088 0.26434 0.89701 0.0
C3584 C 0.75202 0.25482 0.87984 0.0
C3585 C 0.74501 0.23531 0.87771 0.0
C3586 C 0.74748 0.22543 0.89227 0.0
H3587 H 0.79325 0.20237 0.9084 0.0
H3588 H 0.77131 0.19944 0.89454 0.0
H3589 H 0.78708 0.22236 0.90048 0.0
H3590 H 0.77075 0.26191 0.92458 0.0
H3591 H 0.76652 0.27936 0.89896 0.0
H3592 H 0.10872 0.49396 0.22208 0.0
H3593 H 0.09055 0.48378 0.1919 0.0
H3594 H 0.13615 0.51647 0.16741 0.0
H3595 H 0.15453 0.52634 0.19747 0.0
H3596 H 0.08037 0.50974 0.17464 0.0
H3597 H 0.11669 0.47227 0.12824 0.0
H3598 H 0.12199 0.47491 0.15286 0.0
H3599 H 0.13254 0.49327 0.14013 0.0
C3600 C 0.11513 0.49845 0.21018 0.0
C3601 C 0.13294 0.51115 0.21212 0.0
C3602 C 0.10474 0.49258 0.19294 0.0
C3603 C 0.11198 0.49932 0.17739 0.0
C3604 C 0.1304 0.51076 0.17914 0.0
H3605 H 0.08385 0.53852 0.08133 0.0
H3606 H 0.09667 0.52684 0.1077 0.0
C3607 C 0.14087 0.51651 0.19638 0.0
C3608 C 0.09931 0.49762 0.16028 0.0
H3609 H 0.09707 0.48987 0.1138 0.0
C3610 C 0.08369 0.50488 0.16134 0.0
C3611 C 0.10366 0.49129 0.14297 0.0
C3612 C 0.11954 0.48232 0.141 0.0
C3613 C 0.07323 0.50743 0.14554 0.0
C3614 C 0.07839 0.5023 0.12824 0.0
C3615 C 0.09321 0.49386 0.12712 0.0
C3616 C 0.07035 0.50799 0.11146 0.0
C3617 C 0.05764 0.51686 0.14753 0.0
C3618 C 0.05127 0.50114 0.10477 0.0
C3619 C 0.04378 0.50796 0.08971 0.0
C3620 C 0.05531 0.52166 0.08113 0.0
C3621 C 0.07449 0.52812 0.08769 0.0
C3622 C 0.08191 0.52135 0.10269 0.0
H3623 H 0.05724 0.52237 0.16199 0.0
H3624 H 0.05924 0.52858 0.13921 0.0
H3625 H 0.04398 0.50667 0.14248 0.0
H3626 H 0.04218 0.49066 0.11127 0.0
H3627 H 0.029 0.50254 0.08484 0.0
H3628 H 0.78774 0.88937 0.4649 0.0
H3629 H 0.7875 0.87123 0.43572 0.0
H3630 H 0.78081 0.82131 0.46163 0.0
H3631 H 0.78139 0.83963 0.49147 0.0
H3632 H 0.80771 0.82469 0.43697 0.0
H3633 H 0.74245 0.83617 0.40411 0.0
H3634 H 0.75898 0.85773 0.41379 0.0
H3635 H 0.74921 0.84105 0.42854 0.0
C3636 C 0.78606 0.8745 0.46458 0.0
C3637 C 0.78444 0.86601 0.48072 0.0
C3638 C 0.78585 0.8641 0.44772 0.0
C3639 C 0.78381 0.84482 0.44632 0.0
C3640 C 0.78227 0.83617 0.46233 0.0
H3641 H 0.76011 0.78236 0.33647 0.0
H3642 H 0.75933 0.79288 0.36862 0.0
C3643 C 0.78251 0.84665 0.47937 0.0
C3644 C 0.78367 0.8341 0.42807 0.0
H3645 H 0.76263 0.8265 0.3839 0.0
C3646 C 0.79771 0.82486 0.4254 0.0
C3647 C 0.77051 0.83407 0.41295 0.0
C3648 C 0.75432 0.84262 0.41501 0.0
C3649 C 0.79934 0.81623 0.40794 0.0
C3650 C 0.78684 0.8172 0.39262 0.0
C3651 C 0.77241 0.82588 0.39549 0.0
C3652 C 0.78822 0.80934 0.37348 0.0
C3653 C 0.81433 0.80603 0.40618 0.0
C3654 C 0.8048 0.81481 0.36532 0.0
C3655 C 0.80536 0.80856 0.34683 0.0
C3656 C 0.78924 0.797 0.33602 0.0
C3657 C 0.77279 0.79131 0.34432 0.0
C3658 C 0.77231 0.79735 0.36277 0.0
H3659 H 0.81848 0.80142 0.41937 0.0
H3660 H 0.80959 0.79361 0.39557 0.0
H3661 H 0.82696 0.81556 0.40223 0.0
H3662 H 0.81716 0.82443 0.37304 0.0
H3663 H 0.8182 0.81337 0.34085 0.0
H3664 H 0.48151 0.52987 0.81673 0.0
H3665 H 0.49875 0.52879 0.84646 0.0
H3666 H 0.45361 0.54075 0.87395 0.0
H3667 H 0.43632 0.54155 0.84461 0.0
H3668 H 0.51161 0.55373 0.87831 0.0
H3669 H 0.45774 0.49262 0.89258 0.0
H3670 H 0.45819 0.50031 0.87027 0.0
H3671 H 0.44796 0.51151 0.88784 0.0
C3672 C 0.47538 0.5325 0.82913 0.0
C3673 C 0.45741 0.5356 0.8282 0.0
C3674 C 0.48521 0.53179 0.84612 0.0
C3675 C 0.47725 0.53415 0.86246 0.0
C3676 C 0.45982 0.53829 0.86156 0.0
H3677 H 0.52494 0.56274 0.97526 0.0
H3678 H 0.5141 0.5617 0.94304 0.0
C3679 C 0.45 0.53887 0.8447 0.0
C3680 C 0.48683 0.53214 0.88051 0.0
H3681 H 0.47949 0.50974 0.91827 0.0
C3682 C 0.50468 0.54396 0.88697 0.0
C3683 C 0.47804 0.51912 0.89173 0.0
C3684 C 0.45952 0.50503 0.88518 0.0
C3685 C 0.51352 0.54375 0.90461 0.0
C3686 C 0.50411 0.53166 0.91632 0.0
C3687 C 0.48667 0.51921 0.9095 0.0
C3688 C 0.51161 0.53226 0.93592 0.0
C3689 C 0.5329 0.55649 0.91045 0.0
C3690 C 0.51339 0.51594 0.94302 0.0
C3691 C 0.5194 0.51642 0.96168 0.0
C3692 C 0.52372 0.53324 0.97369 0.0
C3693 C 0.52196 0.54954 0.96649 0.0
C3694 C 0.51588 0.54902 0.94792 0.0
H3695 H 0.54052 0.55966 0.89845 0.0
H3696 H 0.53174 0.5699 0.91759 0.0
H3697 H 0.54132 0.55024 0.9199 0.0
H3698 H 0.51003 0.50277 0.93413 0.0
H3699 H 0.52051 0.50358 0.96671 0.0
H3700 H 0.82612 0.2042 0.08438 0.0
H3701 H 0.83787 0.22411 0.11358 0.0
H3702 H 0.80502 0.18199 0.14167 0.0
H3703 H 0.79348 0.16192 0.11264 0.0
H3704 H 0.81329 0.23669 0.13216 0.0
H3705 H 0.85168 0.20162 0.17802 0.0
H3706 H 0.84788 0.19521 0.15346 0.0
H3707 H 0.83005 0.18581 0.16741 0.0
C3708 C 0.82186 0.19894 0.09685 0.0
C3709 C 0.80868 0.18161 0.09623 0.0
C3710 C 0.82864 0.21032 0.11352 0.0
C3711 C 0.82244 0.2045 0.12981 0.0
C3712 C 0.81035 0.18661 0.12934 0.0
H3713 H 0.7855 0.23518 0.22572 0.0
H3714 H 0.7976 0.22217 0.19943 0.0
C3715 C 0.80361 0.1752 0.11269 0.0
C3716 C 0.82547 0.21812 0.14654 0.0
H3717 H 0.83467 0.22198 0.19296 0.0
C3718 C 0.81853 0.23385 0.14544 0.0
C3719 C 0.83235 0.21439 0.16379 0.0
C3720 C 0.84109 0.19842 0.16571 0.0
C3721 C 0.81656 0.2449 0.16125 0.0
C3722 C 0.82199 0.24021 0.17856 0.0
C3723 C 0.83041 0.22544 0.17964 0.0
C3724 C 0.81625 0.24841 0.1954 0.0
C3725 C 0.80724 0.2605 0.15931 0.0
C3726 C 0.82287 0.26751 0.20193 0.0
C3727 C 0.81579 0.27511 0.21694 0.0
C3728 C 0.80206 0.26367 0.22562 0.0
C3729 C 0.79591 0.24446 0.21927 0.0
C3730 C 0.80293 0.23694 0.20433 0.0
H3731 H 0.80169 0.2607 0.1449 0.0
H3732 H 0.79551 0.25915 0.16779 0.0
H3733 H 0.81756 0.27409 0.16422 0.0
H3734 H 0.83333 0.27653 0.19532 0.0
H3735 H 0.82099 0.28992 0.22165 0.0
H3736 H 0.11066 0.55312 0.28766 0.0
H3737 H 0.08738 0.55574 0.30821 0.0
H3738 H 0.1286 0.56059 0.35478 0.0
H3739 H 0.15228 0.55883 0.3342 0.0
H3740 H 0.07329 0.5335 0.33067 0.0
H3741 H 0.107 0.60252 0.37065 0.0
H3742 H 0.1155 0.5943 0.35014 0.0
H3743 H 0.1221 0.58727 0.3718 0.0
C3744 C 0.11481 0.55485 0.3023 0.0
C3745 C 0.13327 0.55572 0.30937 0.0
C3746 C 0.10149 0.5564 0.31401 0.0
C3747 C 0.10629 0.55865 0.33304 0.0
C3748 C 0.12471 0.55942 0.34016 0.0
H3749 H 0.03548 0.52489 0.41362 0.0
H3750 H 0.05379 0.52732 0.38798 0.0
C3751 C 0.13818 0.55823 0.32841 0.0
C3752 C 0.09168 0.55901 0.34529 0.0
H3753 H 0.08233 0.58251 0.38382 0.0
C3754 C 0.07517 0.54438 0.34214 0.0
C3755 C 0.09389 0.57341 0.36 0.0
C3756 C 0.11049 0.59036 0.36322 0.0
C3757 C 0.06118 0.54332 0.35374 0.0
C3758 C 0.0641 0.55689 0.3693 0.0
C3759 C 0.0802 0.57198 0.372 0.0
C3760 C 0.05145 0.55493 0.3837 0.0
C3761 C 0.04347 0.52763 0.34917 0.0
C3762 C 0.0442 0.56975 0.39002 0.0
C3763 C 0.03409 0.56859 0.40508 0.0
C3764 C 0.03112 0.5526 0.41404 0.0
C3765 C 0.03774 0.53751 0.40717 0.0
C3766 C 0.04798 0.53876 0.39231 0.0
H3767 H 0.04034 0.52318 0.33416 0.0
H3768 H 0.04535 0.5154 0.35568 0.0
H3769 H 0.03124 0.53173 0.35415 0.0
H3770 H 0.04683 0.58241 0.38363 0.0
H3771 H 0.02935 0.58052 0.41017 0.0
H3772 H 0.76903 0.83439 0.57552 0.0
H3773 H 0.76636 0.82299 0.60535 0.0
H3774 H 0.7843 0.87963 0.63239 0.0
H3775 H 0.78689 0.8911 0.60273 0.0
H3776 H 0.79511 0.82884 0.63471 0.0
H3777 H 0.73735 0.85767 0.65617 0.0
H3778 H 0.74247 0.85572 0.63277 0.0
H3779 H 0.75652 0.8745 0.64936 0.0
C3780 C 0.77221 0.84443 0.5878 0.0
C3781 C 0.77811 0.86368 0.58668 0.0
C3782 C 0.77072 0.83789 0.60487 0.0
C3783 C 0.77488 0.85044 0.62117 0.0
C3784 C 0.78064 0.86966 0.62005 0.0
H3785 H 0.78066 0.83862 0.73802 0.0
H3786 H 0.78052 0.85038 0.70826 0.0
C3787 C 0.78221 0.8762 0.60304 0.0
C3788 C 0.77409 0.84345 0.63936 0.0
H3789 H 0.75333 0.84492 0.67872 0.0
C3790 C 0.78588 0.83226 0.64427 0.0
C3791 C 0.76219 0.84804 0.65197 0.0
C3792 C 0.74878 0.85951 0.6473 0.0
C3793 C 0.78632 0.8258 0.66148 0.0
C3794 C 0.7743 0.83023 0.67405 0.0
C3795 C 0.76254 0.84148 0.66915 0.0
C3796 C 0.77358 0.8231 0.69219 0.0
C3797 C 0.80008 0.81469 0.66618 0.0
C3798 C 0.76922 0.80383 0.69317 0.0
C3799 C 0.76937 0.79708 0.71012 0.0
C3800 C 0.77365 0.80941 0.72662 0.0
C3801 C 0.77733 0.8287 0.72564 0.0
C3802 C 0.77727 0.83546 0.70861 0.0
H3803 H 0.81182 0.81724 0.65769 0.0
H3804 H 0.80599 0.81813 0.68084 0.0
H3805 H 0.79278 0.79958 0.66351 0.0
H3806 H 0.7658 0.79395 0.68077 0.0
H3807 H 0.76626 0.78213 0.71025 0.0
H3808 H 0.72356 0.42646 0.5286 0.0
H3809 H 0.70371 0.44572 0.53988 0.0
H3810 H 0.72716 0.48759 0.50649 0.0
H3811 H 0.74697 0.46853 0.49506 0.0
H3812 H 0.71921 0.48375 0.55862 0.0
H3813 H 0.66942 0.47945 0.49651 0.0
H3814 H 0.68255 0.46241 0.49942 0.0
H3815 H 0.69371 0.48468 0.49298 0.0
C3816 C 0.72421 0.43958 0.52335 0.0
C3817 C 0.73688 0.44598 0.51095 0.0
C3818 C 0.71295 0.45058 0.52989 0.0
C3819 C 0.714 0.46798 0.52394 0.0
C3820 C 0.72606 0.47409 0.51107 0.0
H3821 H 0.66237 0.55742 0.5446 0.0
H3822 H 0.68422 0.53918 0.53677 0.0
C3823 C 0.73739 0.46319 0.5046 0.0
C3824 C 0.70344 0.48037 0.532 0.0
H3825 H 0.66985 0.50251 0.52125 0.0
C3826 C 0.70831 0.4878 0.55054 0.0
C3827 C 0.68937 0.4856 0.52131 0.0
C3828 C 0.68329 0.47753 0.50148 0.0
C3829 C 0.6997 0.50076 0.55862 0.0
C3830 C 0.68573 0.50612 0.54787 0.0
C3831 C 0.68074 0.4985 0.52938 0.0
C3832 C 0.67554 0.51917 0.55548 0.0
C3833 C 0.70591 0.50893 0.5784 0.0
C3834 C 0.66402 0.51434 0.56914 0.0
C3835 C 0.65169 0.52489 0.57384 0.0
C3836 C 0.65054 0.54026 0.56475 0.0
C3837 C 0.66305 0.54579 0.552 0.0
C3838 C 0.67543 0.5353 0.54738 0.0
H3839 H 0.72 0.50739 0.58314 0.0
H3840 H 0.70626 0.52396 0.58054 0.0
H3841 H 0.69584 0.50149 0.58704 0.0
H3842 H 0.66372 0.5018 0.57537 0.0
H3843 H 0.64234 0.52042 0.58385 0.0
H3844 H 0.24304 0.13967 0.52 0.0
H3845 H 0.21173 0.11897 0.51983 0.0
H3846 H 0.18768 0.1565 0.49127 0.0
H3847 H 0.21922 0.17707 0.49103 0.0
H3848 H 0.17197 0.14669 0.52403 0.0
H3849 H 0.17446 0.08383 0.47813 0.0
H3850 H 0.19435 0.09321 0.49526 0.0
H3851 H 0.18966 0.10672 0.47747 0.0
C3852 C 0.23114 0.1431 0.51302 0.0
C3853 C 0.23356 0.15956 0.50489 0.0
C3854 C 0.21324 0.13135 0.51307 0.0
C3855 C 0.19738 0.13604 0.50528 0.0
C3856 C 0.19975 0.15252 0.49717 0.0
H3857 H 0.07792 0.08772 0.50748 0.0
H3858 H 0.1083 0.1075 0.50302 0.0
C3859 C 0.21771 0.16422 0.497 0.0
C3860 C 0.17833 0.12448 0.50699 0.0
H3861 H 0.14919 0.08054 0.4958 0.0
C3862 C 0.16689 0.13228 0.51773 0.0
C3863 C 0.17177 0.10567 0.49886 0.0
C3864 C 0.1831 0.09682 0.48664 0.0
C3865 C 0.14928 0.12159 0.52093 0.0
C3866 C 0.14285 0.1027 0.51291 0.0
C3867 C 0.15419 0.09499 0.50202 0.0
C3868 C 0.12438 0.09065 0.5156 0.0
C3869 C 0.13799 0.13044 0.53333 0.0
C3870 C 0.12328 0.07425 0.52365 0.0
C3871 C 0.10588 0.06276 0.5261 0.0
C3872 C 0.08925 0.06744 0.52046 0.0
C3873 C 0.09043 0.08374 0.51213 0.0
C3874 C 0.10781 0.09517 0.50967 0.0
H3875 H 0.14683 0.14319 0.54207 0.0
H3876 H 0.12696 0.13453 0.52484 0.0
H3877 H 0.13103 0.12049 0.5423 0.0
H3878 H 0.13592 0.07043 0.52819 0.0
H3879 H 0.10549 0.05033 0.53254 0.0
H3880 H 0.14236 0.98871 0.75977 0.0
H3881 H 0.15439 0.96157 0.75119 0.0
H3882 H 0.17313 0.96108 0.80799 0.0
H3883 H 0.16133 0.98802 0.81655 0.0
H3884 H 0.19332 0.96365 0.75945 0.0
H3885 H 0.14933 0.90543 0.78929 0.0
H3886 H 0.14172 0.92583 0.78466 0.0
H3887 H 0.15739 0.92665 0.80494 0.0
C3888 C 0.14848 0.98238 0.77044 0.0
C3889 C 0.15088 0.99044 0.78883 0.0
C3890 C 0.15545 0.96698 0.76553 0.0
C3891 C 0.16453 0.9592 0.77898 0.0
C3892 C 0.16591 0.96661 0.79741 0.0
H3893 H 0.23874 0.89005 0.79504 0.0
H3894 H 0.21667 0.9094 0.79662 0.0
C3895 C 0.15921 0.98207 0.80228 0.0
C3896 C 0.17464 0.94497 0.7739 0.0
H3897 H 0.17959 0.9024 0.78285 0.0
C3898 C 0.19012 0.95009 0.76422 0.0
C3899 C 0.17055 0.92738 0.78032 0.0
C3900 C 0.15374 0.92089 0.79024 0.0
C3901 C 0.20221 0.93853 0.76163 0.0
C3902 C 0.19844 0.92115 0.76853 0.0
C3903 C 0.18254 0.91574 0.77762 0.0
C3904 C 0.21134 0.90883 0.7673 0.0
C3905 C 0.21945 0.94552 0.75239 0.0
C3906 C 0.21551 0.90182 0.75028 0.0
C3907 C 0.22822 0.89083 0.74934 0.0
C3908 C 0.23684 0.88641 0.76541 0.0
C3909 C 0.23228 0.89309 0.78241 0.0
C3910 C 0.21968 0.90418 0.78333 0.0
H3911 H 0.22269 0.96082 0.75202 0.0
H3912 H 0.23184 0.94228 0.7595 0.0
H3913 H 0.21706 0.93854 0.73807 0.0
H3914 H 0.20892 0.90482 0.7377 0.0
H3915 H 0.23114 0.88561 0.73602 0.0
H3916 H 0.32438 0.89085 0.99603 0.0
H3917 H 0.35874 0.90194 1.00265 0.0
H3918 H 0.35327 0.95253 0.03302 0.0
H3919 H 0.31933 0.94105 0.02726 0.0
H3920 H 0.38073 0.93 0.99195 0.0
H3921 H 0.39214 0.94233 0.06701 0.0
H3922 H 0.36984 0.92917 0.05472 0.0
H3923 H 0.37538 0.9543 0.05951 0.0
C3924 C 0.33068 0.90419 1.00433 0.0
C3925 C 0.31947 0.91545 0.01066 0.0
C3926 C 0.3502 0.9105 0.00813 0.0
C3927 C 0.35863 0.92797 0.01858 0.0
C3928 C 0.34721 0.93879 0.02542 0.0
H3929 H 0.45676 0.00906 1.00428 0.0
H3930 H 0.4262 0.98671 1.00275 0.0
C3931 C 0.32782 0.93243 0.02178 0.0
C3932 C 0.3792 0.93598 0.02081 0.0
H3933 H 0.41523 0.96303 0.05157 0.0
C3934 C 0.38836 0.93691 1.00505 0.0
C3935 C 0.38943 0.94451 0.03796 0.0
C3936 C 0.38117 0.9423 0.05574 0.0
C3937 C 0.40696 0.94742 1.00573 0.0
C3938 C 0.41646 0.95773 0.02255 0.0
C3939 C 0.40781 0.95557 0.03856 0.0
C3940 C 0.43496 0.97143 0.02373 0.0
C3941 C 0.41608 0.9475 0.98833 0.0
C3942 C 0.44977 0.97095 0.03674 0.0
C3943 C 0.46708 0.98411 0.03804 0.0
C3944 C 0.46992 0.99782 0.02619 0.0
C3945 C 0.45502 0.99849 0.01341 0.0
C3946 C 0.43762 0.98558 0.01239 0.0
H3947 H 0.41011 0.93417 0.97908 0.0
H3948 H 0.41332 0.95889 0.98093 0.0
H3949 H 0.43146 0.94966 0.99118 0.0
H3950 H 0.448 0.96029 0.04577 0.0
H3951 H 0.47837 0.98324 0.04798 0.0
H3952 H 0.90618 0.59501 0.77062 0.0
H3953 H 0.89519 0.61849 0.75531 0.0
H3954 H 0.85877 0.62294 0.79672 0.0
H3955 H 0.86965 0.59969 0.81217 0.0
H3956 H 0.85758 0.61444 0.74134 0.0
H3957 H 0.8844 0.67751 0.79233 0.0
H3958 H 0.89374 0.6574 0.79248 0.0
H3959 H 0.87262 0.65771 0.80249 0.0
C3960 C 0.89611 0.60126 0.77669 0.0
C3961 C 0.88878 0.59545 0.79264 0.0
C3962 C 0.88982 0.61462 0.76787 0.0
C3963 C 0.87634 0.62255 0.77501 0.0
C3964 C 0.86945 0.61721 0.79119 0.0
H3965 H 0.78473 0.65941 0.73949 0.0
H3966 H 0.80816 0.64169 0.74217 0.0
C3967 C 0.87562 0.60384 0.79995 0.0
C3968 C 0.86817 0.63525 0.76494 0.0
H3969 H 0.85715 0.67679 0.77152 0.0
C3970 C 0.85781 0.62827 0.7477 0.0
C3971 C 0.86879 0.65337 0.7731 0.0
C3972 C 0.88066 0.66202 0.79104 0.0
C3973 C 0.84682 0.63843 0.73906 0.0
C3974 C 0.84603 0.65581 0.74809 0.0
C3975 C 0.85758 0.66337 0.76464 0.0
C3976 C 0.83191 0.66547 0.74195 0.0
C3977 C 0.8358 0.63022 0.72063 0.0
C3978 C 0.83741 0.68462 0.74056 0.0
C3979 C 0.82405 0.69476 0.7393 0.0
C3980 C 0.80499 0.68587 0.73935 0.0
C3981 C 0.79933 0.66648 0.73921 0.0
C3982 C 0.81273 0.65636 0.74066 0.0
H3983 H 0.84303 0.62124 0.71277 0.0
H3984 H 0.82191 0.62134 0.72264 0.0
H3985 H 0.8336 0.64127 0.71241 0.0
H3986 H 0.85212 0.69194 0.74159 0.0
H3987 H 0.82869 0.70973 0.73937 0.0
H3988 H 0.83266 0.68134 0.04936 0.0
H3989 H 0.85945 0.66911 0.05864 0.0
H3990 H 0.86249 0.65091 1.00203 0.0
H3991 H 0.83581 0.66282 0.99278 0.0
H3992 H 0.85723 0.62954 0.04891 0.0
H3993 H 0.91808 0.67544 0.02375 0.0
H3994 H 0.89736 0.6828 0.02829 0.0
H3995 H 0.89729 0.66801 0.00749 0.0
C3996 C 0.83948 0.67529 0.0389 0.0
C3997 C 0.83221 0.67309 0.02034 0.0
C3998 C 0.85467 0.66819 0.04421 0.0
C3999 C 0.86305 0.65921 0.03101 0.0
C4000 C 0.85645 0.65802 0.01244 0.0
H4001 H 0.93618 0.58841 0.0168 0.0
H4002 H 0.91626 0.60984 0.01495 0.0
C4003 C 0.84117 0.6648 0.00717 0.0
C4004 C 0.87713 0.64913 0.03643 0.0
H4005 H 0.9211 0.64552 0.03008 0.0
C4006 C 0.87133 0.6332 0.04513 0.0
C4007 C 0.89542 0.65382 0.03127 0.0
C4008 C 0.90252 0.67104 0.02232 0.0
C4009 C 0.88298 0.62129 0.04799 0.0
C4010 C 0.90117 0.62573 0.04243 0.0
C4011 C 0.90718 0.64206 0.03431 0.0
C4012 C 0.91374 0.61309 0.04394 0.0
C4013 C 0.87528 0.60356 0.056 0.0
C4014 C 0.91921 0.60791 0.06089 0.0
C4015 C 0.93051 0.59551 0.06196 0.0
C4016 C 0.93683 0.58827 0.04614 0.0
C4017 C 0.93168 0.59382 0.02927 0.0
C4018 C 0.92026 0.60607 0.02819 0.0
H4019 H 0.85975 0.5999 0.05509 0.0
H4020 H 0.87944 0.59165 0.04891 0.0
H4021 H 0.88094 0.60547 0.07068 0.0
H4022 H 0.91479 0.6135 0.07332 0.0
H4023 H 0.93448 0.59175 0.0752 0.0
H4024 H 0.18006 0.07741 0.78403 0.0
H4025 H 0.20192 0.10786 0.78414 0.0
H4026 H 0.16583 0.134 0.81376 0.0
H4027 H 0.14446 0.10313 0.81465 0.0
H4028 H 0.19601 0.13532 0.76816 0.0
H4029 H 0.21537 0.1609 0.84215 0.0
H4030 H 0.20235 0.13725 0.83374 0.0
H4031 H 0.19057 0.15551 0.83535 0.0
C4032 C 0.17716 0.0896 0.79115 0.0
C4033 C 0.16105 0.08791 0.80004 0.0
C4034 C 0.18953 0.10704 0.79101 0.0
C4035 C 0.18579 0.12329 0.79927 0.0
C4036 C 0.1694 0.12167 0.80782 0.0
H4037 H 0.22917 0.23309 0.76993 0.0
H4038 H 0.21065 0.2025 0.77471 0.0
C4039 C 0.15711 0.10409 0.8082 0.0
C4040 C 0.19834 0.14184 0.7975 0.0
H4041 H 0.22445 0.18328 0.82154 0.0
C4042 C 0.20232 0.14571 0.77989 0.0
C4043 C 0.20669 0.15546 0.81276 0.0
C4044 C 0.20368 0.15204 0.83209 0.0
C4045 C 0.21418 0.16277 0.77711 0.0
C4046 C 0.22204 0.17654 0.79229 0.0
C4047 C 0.21835 0.17268 0.80993 0.0
C4048 C 0.23348 0.1953 0.78995 0.0
C4049 C 0.21829 0.16588 0.75791 0.0
C4050 C 0.25242 0.20161 0.79734 0.0
C4051 C 0.26317 0.21924 0.79466 0.0
C4052 C 0.25507 0.23085 0.78464 0.0
C4053 C 0.23598 0.22451 0.77757 0.0
C4054 C 0.22532 0.20697 0.78024 0.0
H4055 H 0.21539 0.15248 0.74868 0.0
H4056 H 0.20923 0.17423 0.75227 0.0
H4057 H 0.23313 0.17366 0.75783 0.0
H4058 H 0.25892 0.1928 0.80498 0.0
H4059 H 0.27778 0.22373 0.80037 0.0
H4060 H 0.41242 1.00008 0.33794 0.0
H4061 H 0.3957 0.96706 0.33727 0.0
H4062 H 0.35863 0.97089 0.29014 0.0
H4063 H 0.37441 1.00395 0.29174 0.0
H4064 H 0.33928 0.95192 0.31119 0.0
H4065 H 0.40131 0.92436 0.30434 0.0
H4066 H 0.40367 0.93977 0.32518 0.0
H4067 H 0.40226 0.94858 0.30348 0.0
C4068 C 0.40059 0.99374 0.3276 0.0
C4069 C 0.39436 1.0044 0.31512 0.0
C4070 C 0.39119 0.9749 0.32706 0.0
C4071 C 0.37611 0.96634 0.31342 0.0
C4072 C 0.37015 0.97712 0.30084 0.0
H4073 H 0.33407 0.85078 0.27009 0.0
H4074 H 0.35098 0.88368 0.2783 0.0
C4075 C 0.37915 0.99598 0.30173 0.0
C4076 C 0.36632 0.94623 0.31199 0.0
H4077 H 0.37288 0.90246 0.30696 0.0
C4078 C 0.34666 0.94113 0.31038 0.0
C4079 C 0.37592 0.93209 0.31055 0.0
C4080 C 0.39692 0.93644 0.31079 0.0
C4081 C 0.33629 0.92242 0.30687 0.0
C4082 C 0.34588 0.90829 0.3058 0.0
C4083 C 0.36556 0.91332 0.30791 0.0
C4084 C 0.33583 0.88826 0.30127 0.0
C4085 C 0.31519 0.91816 0.30343 0.0
C4086 C 0.32184 0.87983 0.31155 0.0
C4087 C 0.3118 0.8612 0.30652 0.0
C4088 C 0.31606 0.85055 0.29154 0.0
C4089 C 0.33052 0.85875 0.28169 0.0
C4090 C 0.34021 0.8775 0.28642 0.0
H4091 H 0.31056 0.93038 0.29945 0.0
H4092 H 0.30932 0.90623 0.29244 0.0
H4093 H 0.30919 0.91455 0.31616 0.0
H4094 H 0.31864 0.88765 0.32343 0.0
H4095 H 0.30092 0.85505 0.31453 0.0
H4096 H 0.53661 0.33823 0.56646 0.0
H4097 H 0.53593 0.36865 0.5579 0.0
H4098 H 0.57512 0.39556 0.60538 0.0
H4099 H 0.57607 0.36489 0.61405 0.0
H4100 H 0.52443 0.39642 0.57577 0.0
H4101 H 0.59902 0.42367 0.56591 0.0
H4102 H 0.58889 0.39945 0.56801 0.0
H4103 H 0.59538 0.41661 0.58804 0.0
C4104 C 0.54524 0.35053 0.57514 0.0
C4105 C 0.55644 0.34885 0.59104 0.0
C4106 C 0.5448 0.36805 0.57017 0.0
C4107 C 0.55559 0.38463 0.58079 0.0
C4108 C 0.5669 0.38311 0.59665 0.0
H4109 H 0.56406 0.50269 0.56863 0.0
H4110 H 0.56765 0.47349 0.57882 0.0
C4111 C 0.56737 0.36547 0.60168 0.0
C4112 C 0.5543 0.40326 0.57541 0.0
H4113 H 0.5798 0.44443 0.56341 0.0
C4114 C 0.53658 0.40687 0.57306 0.0
C4115 C 0.57006 0.41712 0.57188 0.0
C4116 C 0.5894 0.41404 0.57341 0.0
C4117 C 0.53421 0.42373 0.56746 0.0
C4118 C 0.54991 0.43747 0.56362 0.0
C4119 C 0.56769 0.43401 0.56622 0.0
C4120 C 0.54813 0.45543 0.55691 0.0
C4121 C 0.51484 0.42679 0.5661 0.0
C4122 C 0.53628 0.45532 0.54088 0.0
C4123 C 0.53416 0.47208 0.53498 0.0
C4124 C 0.54395 0.48954 0.54485 0.0
C4125 C 0.55621 0.48963 0.56063 0.0
C4126 C 0.55831 0.47285 0.56651 0.0
H4127 H 0.50567 0.41785 0.57451 0.0
H4128 H 0.5154 0.4416 0.5706 0.0
H4129 H 0.5083 0.42313 0.55166 0.0
H4130 H 0.52859 0.4422 0.53286 0.0
H4131 H 0.52469 0.47132 0.52273 0.0
H4132 H 0.46021 0.75413 0.38378 0.0
H4133 H 0.43115 0.75503 0.36602 0.0
H4134 H 0.41445 0.78057 0.41453 0.0
H4135 H 0.44477 0.7819 0.43148 0.0
H4136 H 0.39791 0.74183 0.36367 0.0
H4137 H 0.39875 0.8029 0.40384 0.0
H4138 H 0.40353 0.81653 0.38547 0.0
H4139 H 0.42066 0.80577 0.39466 0.0
C4140 C 0.45063 0.76065 0.39039 0.0
C4141 C 0.45541 0.76933 0.40854 0.0
C4142 C 0.43373 0.76081 0.38035 0.0
C4143 C 0.42069 0.76889 0.38847 0.0
C4144 C 0.4246 0.7755 0.40736 0.0
H4145 H 0.31597 0.78775 0.33865 0.0
H4146 H 0.34029 0.78198 0.36003 0.0
C4147 C 0.44188 0.77602 0.41718 0.0
C4148 C 0.40321 0.77008 0.37704 0.0
H4149 H 0.37629 0.79947 0.36608 0.0
C4150 C 0.39341 0.75458 0.36421 0.0
C4151 C 0.39656 0.78642 0.37783 0.0
C4152 C 0.40552 0.80385 0.39109 0.0
C4153 C 0.37783 0.75507 0.35205 0.0
C4154 C 0.37181 0.77162 0.3524 0.0
C4155 C 0.38102 0.78684 0.3656 0.0
C4156 C 0.35622 0.77369 0.33912 0.0
C4157 C 0.3678 0.73769 0.33913 0.0
C4158 C 0.35688 0.77093 0.32011 0.0
C4159 C 0.34285 0.77411 0.30777 0.0
C4160 C 0.32794 0.78039 0.31415 0.0
C4161 C 0.32723 0.78299 0.33318 0.0
C4162 C 0.34118 0.77968 0.34547 0.0
H4163 H 0.37006 0.72494 0.3444 0.0
H4164 H 0.3525 0.73628 0.33683 0.0
H4165 H 0.37339 0.73846 0.32575 0.0
H4166 H 0.36853 0.7668 0.31479 0.0
H4167 H 0.34396 0.77208 0.29326 0.0
H4168 H 0.04067 0.74082 0.12157 0.0
H4169 H 0.0384 0.70837 0.10926 0.0
H4170 H 0.07077 0.72774 0.06634 0.0
H4171 H 0.07314 0.76022 0.07877 0.0
H4172 H 0.02349 0.68824 0.07381 0.0
H4173 H 0.09932 0.69329 0.08925 0.0
H4174 H 0.08864 0.71052 0.09928 0.0
H4175 H 0.09376 0.71046 0.07602 0.0
C4176 C 0.04714 0.73811 0.10941 0.0
C4177 C 0.05657 0.75303 0.10079 0.0
C4178 C 0.04586 0.71956 0.10238 0.0
C4179 C 0.0545 0.71548 0.0869 0.0
C4180 C 0.06413 0.73042 0.07839 0.0
H4181 H 0.06606 0.60866 0.03278 0.0
H4182 H 0.06823 0.64177 0.0418 0.0
C4183 C 0.06527 0.74899 0.08534 0.0
C4184 C 0.0535 0.69562 0.07987 0.0
H4185 H 0.08022 0.66471 0.07359 0.0
C4186 C 0.03591 0.68311 0.07375 0.0
C4187 C 0.06967 0.68884 0.07966 0.0
C4188 C 0.08893 0.70139 0.08652 0.0
C4189 C 0.03404 0.66417 0.06738 0.0
C4190 C 0.05017 0.65725 0.06757 0.0
C4191 C 0.0678 0.66985 0.07344 0.0
C4192 C 0.04901 0.63697 0.06214 0.0
C4193 C 0.01475 0.65188 0.06015 0.0
C4194 C 0.03784 0.62305 0.07076 0.0
C4195 C 0.03653 0.60409 0.06558 0.0
C4196 C 0.04656 0.59843 0.05177 0.0
C4197 C 0.05813 0.6124 0.04345 0.0
C4198 C 0.05937 0.6314 0.04861 0.0
H4199 H 1.00521 0.66021 0.05541 0.0
H4200 H 0.01529 0.64134 0.04861 0.0
H4201 H 1.00862 0.64445 0.07128 0.0
H4202 H 0.03011 0.62683 0.0816 0.0
H4203 H 0.02755 0.59386 0.07243 0.0
H4204 H 0.05544 0.25433 0.91591 0.0
H4205 H 0.08462 0.25361 0.90274 0.0
H4206 H 0.09037 0.30967 0.89005 0.0
H4207 H 0.06156 0.3104 0.90303 0.0
H4208 H 0.08912 0.25778 0.86575 0.0
H4209 H 0.14364 0.31198 0.91135 0.0
H4210 H 0.1211 0.30139 0.91823 0.0
H4211 H 0.12364 0.32005 0.90433 0.0
C4212 C 0.06334 0.26668 0.91089 0.0
C4213 C 0.05632 0.28247 0.91064 0.0
C4214 C 0.07989 0.26622 0.90322 0.0
C4215 C 0.08984 0.28167 0.89554 0.0
C4216 C 0.08324 0.29771 0.89617 0.0
H4217 H 0.1724 0.31604 0.82398 0.0
H4218 H 0.14871 0.31221 0.8451 0.0
C4219 C 0.06671 0.2981 0.90358 0.0
C4220 C 0.10593 0.28068 0.88516 0.0
H4221 H 0.15079 0.30445 0.88087 0.0
C4222 C 0.10274 0.26773 0.86924 0.0
C4223 C 0.12368 0.29374 0.88961 0.0
C4224 C 0.12831 0.30746 0.90691 0.0
C4225 C 0.11641 0.26814 0.85718 0.0
C4226 C 0.13393 0.28167 0.8613 0.0
C4227 C 0.13736 0.29415 0.87759 0.0
C4228 C 0.14852 0.28375 0.84849 0.0
C4229 C 0.11159 0.25472 0.83965 0.0
C4230 C 0.15652 0.2691 0.84341 0.0
C4231 C 0.16999 0.27119 0.83114 0.0
C4232 C 0.17588 0.28803 0.82371 0.0
C4233 C 0.16801 0.30275 0.82908 0.0
C4234 C 0.15455 0.30064 0.84132 0.0
H4235 H 0.09626 0.24828 0.83652 0.0
H4236 H 0.11659 0.26185 0.82792 0.0
H4237 H 0.11856 0.24334 0.84101 0.0
H4238 H 0.15239 0.25604 0.84898 0.0
H4239 H 0.17561 0.25949 0.82729 0.0
H4240 H 0.52426 0.74482 0.87789 0.0
H4241 H 0.5218 0.7186 0.8958 0.0
H4242 H 0.55957 0.75507 0.93999 0.0
H4243 H 0.56167 0.7813 0.92246 0.0
H4244 H 0.54693 0.70161 0.9106 0.0
H4245 H 0.51589 0.73366 0.96653 0.0
H4246 H 0.51837 0.74298 0.9451 0.0
H4247 H 0.53801 0.74827 0.96275 0.0
C4248 C 0.5321 0.74722 0.89139 0.0
C4249 C 0.54302 0.76522 0.8988 0.0
C4250 C 0.53067 0.73221 0.90164 0.0
C4251 C 0.54011 0.73489 0.91948 0.0
C4252 C 0.55166 0.7527 0.92652 0.0
H4253 H 0.55244 0.66541 1.00475 0.0
H4254 H 0.55562 0.69002 0.98487 0.0
C4255 C 0.55298 0.76769 0.91639 0.0
C4256 C 0.53788 0.7192 0.93081 0.0
H4257 H 0.52612 0.70679 0.97228 0.0
C4258 C 0.54225 0.70271 0.92402 0.0
C4259 C 0.53167 0.72051 0.94835 0.0
C4260 C 0.52553 0.73723 0.95604 0.0
C4261 C 0.54108 0.68779 0.93445 0.0
C4262 C 0.53526 0.68931 0.9521 0.0
C4263 C 0.53073 0.70569 0.95882 0.0
C4264 C 0.53367 0.67404 0.96381 0.0
C4265 C 0.54647 0.67066 0.92668 0.0
C4266 C 0.5202 0.65687 0.95867 0.0
C4267 C 0.5183 0.64279 0.97004 0.0
C4268 C 0.52988 0.64552 0.98681 0.0
C4269 C 0.54344 0.66272 0.99186 0.0
C4270 C 0.54521 0.67685 0.98055 0.0
H4271 H 0.55428 0.67317 0.91469 0.0
H4272 H 0.55521 0.66599 0.93725 0.0
H4273 H 0.53359 0.65916 0.9222 0.0
H4274 H 0.51097 0.65444 0.94594 0.0
H4275 H 0.50782 0.62969 0.96563 0.0
H4276 H 0.06388 0.75528 0.72804 0.0
H4277 H 0.09666 0.75863 0.73988 0.0
H4278 H 0.11393 0.7783 0.68978 0.0
H4279 H 0.08143 0.77662 0.67886 0.0
H4280 H 0.12125 0.74304 0.73114 0.0
H4281 H 0.15107 0.81667 0.72268 0.0
H4282 H 0.12628 0.80604 0.71826 0.0
H4283 H 0.14121 0.80344 0.70087 0.0
C4284 C 0.0748 0.76112 0.71997 0.0
C4285 C 0.07015 0.76677 0.70302 0.0
C4286 C 0.09358 0.7627 0.72656 0.0
C4287 C 0.10819 0.76936 0.71609 0.0
C4288 C 0.10331 0.77402 0.69868 0.0
H4289 H 0.22031 0.7495 0.738 0.0
H4290 H 0.1873 0.74646 0.72721 0.0
C4291 C 0.08462 0.7729 0.69232 0.0
C4292 C 0.12827 0.77057 0.72297 0.0
H4293 H 0.17313 0.79859 0.72737 0.0
C4294 C 0.13252 0.75531 0.73044 0.0
C4295 C 0.14327 0.78655 0.72231 0.0
C4296 C 0.14018 0.80414 0.71578 0.0
C4297 C 0.15103 0.75551 0.73708 0.0
C4298 C 0.16605 0.77117 0.7357 0.0
C4299 C 0.1618 0.78645 0.72834 0.0
C4300 C 0.18616 0.77249 0.74242 0.0
C4301 C 0.15413 0.73908 0.74597 0.0
C4302 C 0.19694 0.78832 0.7542 0.0
C4303 C 0.2159 0.79027 0.76002 0.0
C4304 C 0.22474 0.77636 0.7544 0.0
C4305 C 0.21396 0.76039 0.74277 0.0
C4306 C 0.19497 0.75859 0.73669 0.0
H4307 H 0.14119 0.73129 0.75105 0.0
H4308 H 0.15812 0.72931 0.73572 0.0
H4309 H 0.16548 0.74358 0.75763 0.0
H4310 H 0.19068 0.79931 0.75891 0.0
H4311 H 0.22365 0.80275 0.76902 0.0
H4312 H 0.05112 0.38613 0.37237 0.0
H4313 H 0.05104 0.41332 0.39387 0.0
H4314 H 0.0508 0.3807 0.43859 0.0
H4315 H 0.05083 0.35343 0.41726 0.0
H4316 H 0.02285 0.39995 0.4377 0.0
H4317 H 0.09225 0.44758 0.43253 0.0
H4318 H 0.07813 0.43806 0.41097 0.0
H4319 H 0.08648 0.42281 0.42488 0.0
C4320 C 0.05139 0.38476 0.38681 0.0
C4321 C 0.05104 0.36746 0.39298 0.0
C4322 C 0.05139 0.4004 0.39913 0.0
C4323 C 0.05106 0.39917 0.41792 0.0
C4324 C 0.05111 0.38206 0.42418 0.0
H4325 H 0.06098 0.48838 0.50833 0.0
H4326 H 0.06583 0.46273 0.48742 0.0
C4327 C 0.0512 0.36645 0.41191 0.0
C4328 C 0.04944 0.41528 0.43088 0.0
H4329 H 0.07128 0.4606 0.44866 0.0
C4330 C 0.03349 0.41318 0.44012 0.0
C4331 C 0.06336 0.43253 0.43421 0.0
C4332 C 0.08112 0.43542 0.42527 0.0
C4333 C 0.03091 0.42789 0.45226 0.0
C4334 C 0.04458 0.4453 0.45523 0.0
C4335 C 0.06073 0.44732 0.4463 0.0
C4336 C 0.04221 0.46152 0.46751 0.0
C4337 C 0.01363 0.42463 0.46199 0.0
C4338 C 0.02756 0.46968 0.46314 0.0
C4339 C 0.0248 0.48439 0.475 0.0
C4340 C 0.0366 0.49132 0.4916 0.0
C4341 C 0.05156 0.4834 0.49574 0.0
C4342 C 0.05437 0.46873 0.48378 0.0
H4343 H 1.00674 0.40952 0.46152 0.0
H4344 H 0.01713 0.43106 0.47653 0.0
H4345 H 1.00342 0.43118 0.45527 0.0
H4346 H 0.01816 0.46458 0.45055 0.0
H4347 H 0.01321 0.49015 0.47123 0.0
H4348 H 0.47831 0.27003 0.22074 0.0
H4349 H 0.45268 0.27524 0.23779 0.0
H4350 H 0.41235 0.24633 0.19182 0.0
H4351 H 0.43752 0.24119 0.17482 0.0
H4352 H 0.42394 0.29423 0.22672 0.0
H4353 H 0.39215 0.2207 0.23564 0.0
H4354 H 0.41586 0.22872 0.2303 0.0
H4355 H 0.39642 0.22409 0.21258 0.0
C4356 C 0.46398 0.26461 0.21434 0.0
C4357 C 0.46015 0.25512 0.19633 0.0
C4358 C 0.4493 0.26768 0.22409 0.0
C4359 C 0.43044 0.26103 0.21622 0.0
C4360 C 0.42666 0.2514 0.19838 0.0
H4361 H 0.31757 0.25984 0.23722 0.0
H4362 H 0.34645 0.25535 0.22664 0.0
C4363 C 0.44121 0.24853 0.18861 0.0
C4364 C 0.41459 0.26448 0.22614 0.0
H4365 H 0.37355 0.24197 0.24094 0.0
C4366 C 0.41305 0.28283 0.23008 0.0
C4367 C 0.40022 0.24965 0.23045 0.0
C4368 C 0.40125 0.22968 0.22719 0.0
C4369 C 0.39727 0.28666 0.2374 0.0
C4370 C 0.38269 0.27177 0.24142 0.0
C4371 C 0.38454 0.25346 0.2379 0.0
C4372 C 0.36503 0.27469 0.24838 0.0
C4373 C 0.39601 0.30659 0.23991 0.0
C4374 C 0.36548 0.28688 0.26441 0.0
C4375 C 0.34881 0.28959 0.27051 0.0
C4376 C 0.33116 0.28003 0.26087 0.0
C4377 C 0.33077 0.26754 0.24507 0.0
C4378 C 0.34739 0.26491 0.23896 0.0
H4379 H 0.40549 0.31544 0.23166 0.0
H4380 H 0.38148 0.3074 0.23599 0.0
H4381 H 0.40023 0.31252 0.25452 0.0
H4382 H 0.37875 0.29425 0.27233 0.0
H4383 H 0.34977 0.29921 0.28279 0.0
H4384 H 0.64554 0.53804 0.36302 0.0
H4385 H 0.63045 0.53635 0.39077 0.0
H4386 H 0.57685 0.52912 0.35915 0.0
H4387 H 0.59193 0.53068 0.33092 0.0
H4388 H 0.61044 0.56015 0.40499 0.0
H4389 H 0.5662 0.48697 0.39154 0.0
H4390 H 0.58532 0.49557 0.37863 0.0
H4391 H 0.56344 0.50132 0.37398 0.0
C4392 C 0.6305 0.53593 0.36177 0.0
C4393 C 0.62 0.53447 0.34453 0.0
C4394 C 0.62188 0.535 0.37778 0.0
C4395 C 0.60248 0.53246 0.37714 0.0
C4396 C 0.59182 0.53079 0.36001 0.0
H4397 H 0.53013 0.52742 0.46387 0.0
H4398 H 0.54321 0.52688 0.43485 0.0
C4399 C 0.60048 0.53175 0.34386 0.0
C4400 C 0.59384 0.53233 0.39461 0.0
H4401 H 0.56309 0.50505 0.41868 0.0
C4402 C 0.60008 0.54809 0.40797 0.0
C4403 C 0.5803 0.51662 0.39855 0.0
C4404 C 0.57347 0.49907 0.38502 0.0
C4405 C 0.59311 0.54866 0.42503 0.0
C4406 C 0.57979 0.53284 0.42911 0.0
C4407 C 0.57338 0.51714 0.41566 0.0
C4408 C 0.57198 0.53252 0.44705 0.0
C4409 C 0.5998 0.56639 0.43834 0.0
C4410 C 0.5837 0.53548 0.46375 0.0
C4411 C 0.57624 0.53587 0.48052 0.0
C4412 C 0.55685 0.53315 0.48097 0.0
C4413 C 0.54513 0.52964 0.46418 0.0
C4414 C 0.5526 0.5293 0.44748 0.0
H4415 H 0.60581 0.57861 0.43136 0.0
H4416 H 0.5882 0.56928 0.44559 0.0
H4417 H 0.61092 0.56489 0.44869 0.0
H4418 H 0.59866 0.53756 0.46383 0.0
H4419 H 0.5857 0.5385 0.49311 0.0
H4420 H 0.27497 0.91199 0.07057 0.0
H4421 H 0.2766 0.89564 0.09735 0.0
H4422 H 0.23549 0.84725 0.06851 0.0
H4423 H 0.23367 0.86346 0.04164 0.0
H4424 H 0.23733 0.8582 0.1122 0.0
H4425 H 0.30137 0.8496 0.08244 0.0
H4426 H 0.29802 0.87272 0.08527 0.0
H4427 H 0.28223 0.85483 0.06906 0.0
C4428 C 0.26575 0.89813 0.07013 0.0
C4429 C 0.2545 0.88884 0.05389 0.0
C4430 C 0.26667 0.88885 0.08546 0.0
C4431 C 0.25632 0.87024 0.0847 0.0
C4432 C 0.24355 0.86164 0.06926 0.0
H4433 H 0.26775 0.7854 0.15482 0.0
H4434 H 0.25586 0.80202 0.13151 0.0
C4435 C 0.2426 0.87091 0.05392 0.0
C4436 C 0.26158 0.85879 0.09824 0.0
H4437 H 0.29587 0.83784 0.11022 0.0
C4438 C 0.25006 0.85365 0.11182 0.0
C4439 C 0.27813 0.85283 0.09744 0.0
C4440 C 0.29066 0.85763 0.08273 0.0
C4441 C 0.25507 0.84306 0.1251 0.0
C4442 C 0.27179 0.83736 0.12443 0.0
C4443 C 0.28306 0.84226 0.11062 0.0
C4444 C 0.27855 0.82718 0.13847 0.0
C4445 C 0.24282 0.83853 0.14006 0.0
C4446 C 0.29546 0.83568 0.14963 0.0
C4447 C 0.3023 0.82627 0.1628 0.0
C4448 C 0.29241 0.80808 0.16499 0.0
C4449 C 0.27561 0.79943 0.15352 0.0
C4450 C 0.26875 0.80892 0.14031 0.0
H4451 H 0.23233 0.84681 0.14057 0.0
H4452 H 0.23519 0.82351 0.13759 0.0
H4453 H 0.25148 0.8412 0.1536 0.0
H4454 H 0.30323 0.84976 0.14832 0.0
H4455 H 0.31504 0.8335 0.17167 0.0
H4456 H 0.91508 0.57319 0.87619 0.0
H4457 H 0.9383 0.57848 0.90308 0.0
H4458 H 0.9822 0.58175 0.86833 0.0
H4459 H 0.95918 0.57648 0.84134 0.0
H4460 H 0.97816 0.55319 0.89109 0.0
H4461 H 0.98199 0.62162 0.9306 0.0
H4462 H 0.95855 0.60756 0.92295 0.0
H4463 H 0.97373 0.61603 0.9064 0.0
C4464 C 0.92972 0.57559 0.87424 0.0
C4465 C 0.9352 0.57412 0.85657 0.0
C4466 C 0.943 0.57872 0.88965 0.0
C4467 C 0.96194 0.58056 0.88764 0.0
C4468 C 0.96763 0.58043 0.87012 0.0
H4469 H 0.0428 0.55747 0.97088 0.0
H4470 H 0.03061 0.5671 0.94261 0.0
C4471 C 0.95441 0.57735 0.85471 0.0
C4472 C 0.97509 0.57948 0.90344 0.0
H4473 H 0.99308 0.59965 0.94697 0.0
C4474 C 0.98178 0.56351 0.9032 0.0
C4475 C 0.97962 0.59294 0.91916 0.0
C4476 C 0.97325 0.6106 0.91981 0.0
C4477 C 0.99197 0.56004 0.91872 0.0
C4478 C 0.99598 0.5732 0.93472 0.0
C4479 C 0.99001 0.58961 0.93466 0.0
C4480 C 1.00445 0.56917 0.95219 0.0
C4481 C 0.9973 0.54178 0.91818 0.0
C4482 C 0.99406 0.5678 0.9671 0.0
C4483 C 1.00103 0.56252 0.98323 0.0
C4484 C 0.01853 0.55842 0.98479 0.0
C4485 C 0.02918 0.5603 0.97001 0.0
C4486 C 0.02223 0.56577 0.95387 0.0
H4487 H 0.98977 0.53163 0.90614 0.0
H4488 H 0.01255 0.54439 0.91734 0.0
H4489 H 0.99422 0.53532 0.93079 0.0
H4490 H 0.9803 0.57034 0.96607 0.0
H4491 H 0.99245 0.56128 0.99435 0.0
H4492 H 0.27456 0.18959 0.57845 0.0
H4493 H 0.27337 0.20366 0.60947 0.0
H4494 H 0.29355 0.2585 0.59387 0.0
H4495 H 0.29495 0.24445 0.56266 0.0
H4496 H 0.31129 0.25471 0.62745 0.0
H4497 H 0.23437 0.2296 0.62602 0.0
H4498 H 0.24512 0.21116 0.62011 0.0
H4499 H 0.24582 0.2291 0.60556 0.0
C4500 C 0.27878 0.20466 0.58156 0.0
C4501 C 0.28479 0.21587 0.56797 0.0
C4502 C 0.27794 0.2127 0.59933 0.0
C4503 C 0.28298 0.23218 0.604 0.0
C4504 C 0.28942 0.24345 0.5906 0.0
H4505 H 0.26048 0.28496 0.70944 0.0
H4506 H 0.26096 0.27643 0.67649 0.0
C4507 C 0.29024 0.23539 0.57275 0.0
C4508 C 0.28186 0.24064 0.62296 0.0
H4509 H 0.252 0.24111 0.6555 0.0
C4510 C 0.29828 0.25187 0.63351 0.0
C4511 C 0.26485 0.23727 0.63088 0.0
C4512 C 0.2465 0.22628 0.62001 0.0
C4513 C 0.29831 0.25909 0.65189 0.0
C4514 C 0.28151 0.25481 0.66011 0.0
C4515 C 0.26493 0.24427 0.64933 0.0
C4516 C 0.28112 0.26024 0.68007 0.0
C4517 C 0.3164 0.27122 0.66235 0.0
C4518 C 0.29199 0.25375 0.69309 0.0
C4519 C 0.2917 0.25853 0.71182 0.0
C4520 C 0.28043 0.26989 0.71817 0.0
C4521 C 0.26935 0.27624 0.70511 0.0
C4522 C 0.26961 0.27137 0.68626 0.0
H4523 H 0.32617 0.27783 0.65299 0.0
H4524 H 0.31382 0.28236 0.67214 0.0
H4525 H 0.32339 0.26248 0.67024 0.0
H4526 H 0.30067 0.24482 0.68876 0.0
H4527 H 0.30045 0.2533 0.72134 0.0
H4528 H 0.63112 0.54337 0.22592 0.0
H4529 H 0.61651 0.54466 0.19536 0.0
H4530 H 0.56188 0.52357 0.21196 0.0
H4531 H 0.57649 0.52214 0.2428 0.0
H4532 H 0.56599 0.50663 0.17722 0.0
H4533 H 0.58927 0.58362 0.18165 0.0
H4534 H 0.60814 0.57328 0.18689 0.0
H4535 H 0.5899 0.57157 0.20152 0.0
C4536 C 0.61598 0.53892 0.22313 0.0
C4537 C 0.605 0.53271 0.23692 0.0
C4538 C 0.60763 0.53981 0.20563 0.0
C4539 C 0.58806 0.53461 0.2014 0.0
C4540 C 0.57701 0.52784 0.21492 0.0
H4541 H 0.53489 0.55838 0.09751 0.0
H4542 H 0.54281 0.55711 0.13031 0.0
C4543 C 0.58538 0.52698 0.23254 0.0
C4544 C 0.57934 0.53609 0.18278 0.0
H4545 H 0.57825 0.56679 0.15168 0.0
C4546 C 0.5685 0.51982 0.17172 0.0
C4547 C 0.5823 0.55334 0.17561 0.0
C4548 C 0.59288 0.57148 0.18708 0.0
C4549 C 0.56136 0.52019 0.15349 0.0
C4550 C 0.5653 0.53726 0.14598 0.0
C4551 C 0.57536 0.55367 0.15731 0.0
C4552 C 0.5602 0.53812 0.12613 0.0
C4553 C 0.54976 0.50223 0.14238 0.0
C4554 C 0.56758 0.52819 0.11286 0.0
C4555 C 0.56318 0.52896 0.09423 0.0
C4556 C 0.55131 0.53977 0.08824 0.0
C4557 C 0.54404 0.5499 0.10156 0.0
C4558 C 0.54855 0.54918 0.12033 0.0
H4559 H 0.54327 0.49198 0.15131 0.0
H4560 H 0.5385 0.50475 0.13282 0.0
H4561 H 0.55892 0.49592 0.13418 0.0
H4562 H 0.57691 0.51989 0.11692 0.0
H4563 H 0.56912 0.52094 0.08451 0.0
H4564 H 0.24132 0.86132 0.96482 0.0
H4565 H 0.23234 0.83784 0.93771 0.0
H4566 H 0.25953 0.87853 0.90487 0.0
H4567 H 0.26851 0.90217 0.93176 0.0
H4568 H 0.22314 0.85338 0.88827 0.0
H4569 H 0.27441 0.8171 0.91659 0.0
H4570 H 0.25684 0.82142 0.93038 0.0
H4571 H 0.275 0.84064 0.92569 0.0
C4572 C 0.24521 0.86538 0.95179 0.0
C4573 C 0.25587 0.8836 0.95051 0.0
C4574 C 0.24005 0.85192 0.93635 0.0
C4575 C 0.24548 0.85646 0.91943 0.0
C4576 C 0.25523 0.87482 0.91788 0.0
H4577 H 0.27086 0.82998 0.81783 0.0
H4578 H 0.25922 0.84071 0.8454 0.0
C4579 C 0.26039 0.88829 0.93328 0.0
C4580 C 0.24265 0.84195 0.90357 0.0
H4581 H 0.26229 0.80849 0.88576 0.0
C4582 C 0.23133 0.84323 0.88779 0.0
C4583 C 0.25319 0.8286 0.90314 0.0
C4584 C 0.26563 0.82678 0.91978 0.0
C4585 C 0.23133 0.83238 0.87117 0.0
C4586 C 0.24324 0.82032 0.87035 0.0
C4587 C 0.25324 0.81782 0.88648 0.0
C4588 C 0.24829 0.81308 0.85275 0.0
C4589 C 0.21933 0.83462 0.85442 0.0
C4590 C 0.24636 0.79396 0.84795 0.0
C4591 C 0.25318 0.7877 0.83213 0.0
C4592 C 0.2623 0.80057 0.82116 0.0
C4593 C 0.26403 0.81968 0.82602 0.0
C4594 C 0.25713 0.82585 0.84166 0.0
H4595 H 0.20653 0.83845 0.8582 0.0
H4596 H 0.22737 0.84605 0.84758 0.0
H4597 H 0.21512 0.82163 0.84451 0.0
H4598 H 0.23982 0.78395 0.85654 0.0
H4599 H 0.25163 0.7729 0.8287 0.0
H4600 H 0.95942 0.56141 0.76292 0.0
H4601 H 0.97301 0.55209 0.73584 0.0
H4602 H 0.92054 0.51211 0.71469 0.0
H4603 H 0.90677 0.52132 0.74187 0.0
H4604 H 0.95288 0.49764 0.71607 0.0
H4605 H 0.96341 0.56178 0.68231 0.0
H4606 H 0.9721 0.56595 0.70625 0.0
H4607 H 0.94738 0.5568 0.69918 0.0
C4608 C 0.95066 0.55084 0.75239 0.0
C4609 C 0.93204 0.54208 0.7545 0.0
C4610 C 0.95843 0.54559 0.7369 0.0
C4611 C 0.94771 0.53154 0.72326 0.0
C4612 C 0.92898 0.52305 0.72509 0.0
H4613 H 0.98211 0.47842 0.62649 0.0
H4614 H 0.96476 0.48477 0.65189 0.0
C4615 C 0.92114 0.52837 0.74056 0.0
C4616 C 0.95656 0.52498 0.70774 0.0
H4617 H 0.97992 0.5398 0.67228 0.0
C4618 C 0.95863 0.50674 0.70633 0.0
C4619 C 0.96401 0.53695 0.69516 0.0
C4620 C 0.96149 0.55641 0.69565 0.0
C4621 C 0.96865 0.50036 0.69302 0.0
C4622 C 0.97652 0.51252 0.68073 0.0
C4623 C 0.97401 0.53059 0.68187 0.0
C4624 C 0.98759 0.50698 0.66661 0.0
C4625 C 0.97131 0.48096 0.6926 0.0
C4626 C 1.0062 0.51724 0.66663 0.0
C4627 C 0.01606 0.5138 0.65208 0.0
C4628 C 1.00743 0.50007 0.63721 0.0
C4629 C 0.98907 0.48917 0.6377 0.0
C4630 C 0.9792 0.49267 0.65225 0.0
H4631 H 0.96822 0.47509 0.7055 0.0
H4632 H 0.96165 0.47163 0.68116 0.0
H4633 H 0.98586 0.48094 0.69029 0.0
H4634 H 0.01287 0.52838 0.67759 0.0
H4635 H 0.03005 0.52263 0.65202 0.0
H4636 H 0.28844 0.23114 0.47485 0.0
H4637 H 0.28948 0.24658 0.44697 0.0
H4638 H 0.28697 0.19446 0.41451 0.0
H4639 H 0.2859 0.17905 0.44181 0.0
H4640 H 0.31544 0.24858 0.41907 0.0
H4641 H 0.2425 0.21105 0.39032 0.0
H4642 H 0.25115 0.21243 0.41418 0.0
H4643 H 0.25657 0.19608 0.39733 0.0
C4644 C 0.28821 0.223 0.46179 0.0
C4645 C 0.28694 0.20377 0.46072 0.0
C4646 C 0.28879 0.23184 0.44585 0.0
C4647 C 0.28795 0.2216 0.42857 0.0
C4648 C 0.28725 0.2026 0.42759 0.0
H4649 H 0.28313 0.2384 0.31361 0.0
H4650 H 0.28455 0.22612 0.34305 0.0
C4651 C 0.28672 0.19382 0.44336 0.0
C4652 C 0.28772 0.23042 0.41137 0.0
H4653 H 0.26164 0.22722 0.37 0.0
C4654 C 0.30361 0.24408 0.40841 0.0
C4655 C 0.27234 0.22444 0.39737 0.0
C4656 C 0.25459 0.21031 0.39996 0.0
C4657 C 0.30476 0.25149 0.39165 0.0
C4658 C 0.28944 0.24535 0.37756 0.0
C4659 C 0.27346 0.23186 0.38067 0.0
C4660 C 0.28949 0.25294 0.35963 0.0
C4661 C 0.32264 0.26537 0.389 0.0
C4662 C 0.2917 0.27209 0.35903 0.0
C4663 C 0.29096 0.27914 0.34225 0.0
C4664 C 0.28782 0.26722 0.32553 0.0
C4665 C 0.28567 0.24803 0.32614 0.0
C4666 C 0.28643 0.24097 0.34299 0.0
H4667 H 0.33468 0.26445 0.39861 0.0
H4668 H 0.32605 0.26317 0.37478 0.0
H4669 H 0.32091 0.2797 0.39168 0.0
H4670 H 0.29362 0.28159 0.37157 0.0
H4671 H 0.29255 0.29397 0.34243 0.0
H4672 H 0.32251 0.62738 0.5544 0.0
H4673 H 0.3454 0.60886 0.55545 0.0
H4674 H 0.30841 0.56595 0.51566 0.0
H4675 H 0.2854 0.58401 0.51469 0.0
H4676 H 0.32518 0.55209 0.54482 0.0
H4677 H 0.37684 0.60341 0.51324 0.0
H4678 H 0.36922 0.61243 0.53381 0.0
H4679 H 0.3528 0.60421 0.51346 0.0
C4680 C 0.31921 0.61397 0.54593 0.0
C4681 C 0.30219 0.6073 0.53431 0.0
C4682 C 0.33231 0.60345 0.54654 0.0
C4683 C 0.32862 0.58619 0.53546 0.0
C4684 C 0.31148 0.57926 0.52429 0.0
H4685 H 0.40348 0.5276 0.49274 0.0
H4686 H 0.37816 0.5422 0.49792 0.0
C4687 C 0.29839 0.58969 0.5237 0.0
C4688 C 0.34282 0.57554 0.53475 0.0
H4689 H 0.38532 0.57649 0.52046 0.0
C4690 C 0.33841 0.55742 0.53963 0.0
C4691 C 0.3599 0.58255 0.52774 0.0
C4692 C 0.36499 0.60165 0.52161 0.0
C4693 C 0.3506 0.54597 0.53746 0.0
C4694 C 0.36764 0.55299 0.53042 0.0
C4695 C 0.37218 0.5712 0.52583 0.0
C4696 C 0.38091 0.54162 0.5272 0.0
C4697 C 0.34493 0.52631 0.54213 0.0
C4698 C 0.39042 0.53603 0.54192 0.0
C4699 C 0.40477 0.52749 0.53898 0.0
C4700 C 0.4099 0.52458 0.52129 0.0
C4701 C 0.3997 0.52941 0.50648 0.0
C4702 C 0.38535 0.53789 0.50943 0.0
H4703 H 0.32977 0.52178 0.54361 0.0
H4704 H 0.34814 0.51637 0.53146 0.0
H4705 H 0.35298 0.52559 0.55531 0.0
H4706 H 0.38731 0.539 0.55576 0.0
H4707 H 0.4123 0.52377 0.55063 0.0
H4708 H 0.83169 0.93496 0.55538 0.0
H4709 H 0.86366 0.95448 0.55649 0.0
H4710 H 0.88016 0.90684 0.5322 0.0
H4711 H 0.84755 0.88815 0.52888 0.0
H4712 H 0.89472 0.95641 0.57209 0.0
H4713 H 0.90177 0.93998 0.49886 0.0
H4714 H 0.88087 0.9291 0.50804 0.0
H4715 H 0.90095 0.91992 0.51035 0.0
C4716 C 0.84203 0.92899 0.54952 0.0
C4717 C 0.83695 0.91059 0.54071 0.0
C4718 C 0.86044 0.93999 0.55054 0.0
C4719 C 0.87437 0.93249 0.54358 0.0
C4720 C 0.86959 0.9134 0.5366 0.0
H4721 H 0.99196 0.97907 0.53621 0.0
H4722 H 0.96141 0.95918 0.53973 0.0
C4723 C 0.85099 0.90265 0.53488 0.0
C4724 C 0.89378 0.94467 0.54398 0.0
H4725 H 0.92944 0.95763 0.518 0.0
C4726 C 0.90217 0.95674 0.56015 0.0
C4727 C 0.90388 0.94505 0.52855 0.0
C4728 C 0.89629 0.93292 0.51048 0.0
C4729 C 0.92011 0.96906 0.5613 0.0
C4730 C 0.92994 0.96948 0.54584 0.0
C4731 C 0.92178 0.95734 0.52981 0.0
C4732 C 0.94894 0.98199 0.5459 0.0
C4733 C 0.92856 0.98124 0.57915 0.0
C4734 C 0.9522 1.00151 0.54845 0.0
C4735 C 0.96981 0.01303 0.5465 0.0
C4736 C 0.98429 1.00515 0.5417 0.0
C4737 C 0.98106 0.98562 0.53967 0.0
C4738 C 0.9636 0.97419 0.54175 0.0
H4739 H 0.92136 0.97604 0.59083 0.0
H4740 H 0.94369 0.98204 0.58205 0.0
H4741 H 0.92719 0.99558 0.57823 0.0
H4742 H 0.94098 0.00781 0.55133 0.0
H4743 H 0.97188 0.02802 0.5481 0.0
H4744 H 0.92293 0.08364 0.25499 0.0
H4745 H 0.90942 0.1104 0.25299 0.0
H4746 H 0.89016 0.10384 0.30572 0.0
H4747 H 0.90348 0.07738 0.30778 0.0
H4748 H 0.87045 0.10743 0.25382 0.0
H4749 H 0.91306 0.16034 0.30968 0.0
H4750 H 0.92102 0.14097 0.29981 0.0
H4751 H 0.90508 0.13774 0.31681 0.0
C4752 C 0.91628 0.08828 0.26635 0.0
C4753 C 0.91428 0.07843 0.28155 0.0
C4754 C 0.90847 0.10347 0.26515 0.0
C4755 C 0.89893 0.10924 0.27929 0.0
C4756 C 0.89772 0.09989 0.29479 0.0
H4757 H 0.8229 0.17322 0.30679 0.0
H4758 H 0.8448 0.1538 0.30465 0.0
C4759 C 0.90527 0.08468 0.2959 0.0
C4760 C 0.88855 0.12369 0.27738 0.0
H4761 H 0.88247 0.1637 0.29982 0.0
C4762 C 0.87328 0.11995 0.26363 0.0
C4763 C 0.89219 0.13994 0.29027 0.0
C4764 C 0.90885 0.14511 0.30488 0.0
C4765 C 0.86093 0.13146 0.26304 0.0
C4766 C 0.86417 0.14734 0.27637 0.0
C4767 C 0.8799 0.15148 0.28967 0.0
C4768 C 0.85088 0.15926 0.27741 0.0
C4769 C 0.84398 0.12594 0.24874 0.0
C4770 C 0.84706 0.16892 0.26285 0.0
C4771 C 0.83434 0.1799 0.26395 0.0
C4772 C 0.82525 0.18156 0.27969 0.0
C4773 C 0.82932 0.17202 0.29432 0.0
C4774 C 0.842 0.16104 0.29319 0.0
H4775 H 0.84125 0.11125 0.24227 0.0
H4776 H 0.8313 0.12767 0.2548 0.0
H4777 H 0.84635 0.13508 0.23783 0.0
H4778 H 0.85396 0.16803 0.25065 0.0
H4779 H 0.83149 0.18693 0.25237 0.0
H4780 H 0.72755 0.12156 0.06406 0.0
H4781 H 0.69385 0.11226 0.06471 0.0
H4782 H 0.69019 0.16571 0.0496 0.0
H4783 H 0.72369 0.17364 0.04625 0.0
H4784 H 0.6693 0.12028 0.08059 0.0
H4785 H 0.65297 0.13886 0.01091 0.0
H4786 H 0.67673 0.144 0.02124 0.0
H4787 H 0.66191 0.15806 0.02881 0.0
C4788 C 0.71933 0.13092 0.06012 0.0
C4789 C 0.7277 0.14743 0.05344 0.0
C4790 C 0.70011 0.12589 0.06098 0.0
C4791 C 0.68901 0.13781 0.05612 0.0
C4792 C 0.69802 0.15562 0.05209 0.0
H4793 H 0.56737 0.09189 0.02823 0.0
H4794 H 0.59747 0.11478 0.03763 0.0
C4795 C 0.71719 0.16025 0.05036 0.0
C4796 C 0.66821 0.1307 0.05448 0.0
H4797 H 0.62889 0.11979 0.02334 0.0
C4798 C 0.66053 0.1203 0.06805 0.0
C4799 C 0.65622 0.13143 0.03859 0.0
C4800 C 0.66235 0.1436 0.02404 0.0
C4801 C 0.64203 0.10914 0.06535 0.0
C4802 C 0.63091 0.10821 0.04859 0.0
C4803 C 0.63778 0.12006 0.0359 0.0
C4804 C 0.61255 0.09435 0.04344 0.0
C4805 C 0.63475 0.09818 0.08037 0.0
C4806 C 0.61114 0.07521 0.04316 0.0
C4807 C 0.59392 0.06206 0.03789 0.0
C4808 C 0.57789 0.06782 0.03249 0.0
C4809 C 0.57947 0.08697 0.03227 0.0
C4810 C 0.59664 0.1001 0.03773 0.0
H4811 H 0.642 0.10522 0.09403 0.0
H4812 H 0.61944 0.09625 0.08039 0.0
H4813 H 0.63749 0.08422 0.07828 0.0
H4814 H 0.6234 0.07042 0.04692 0.0
H4815 H 0.59318 0.04741 0.03809 0.0
H4816 H 0.16978 0.48849 0.2607 0.0
H4817 H 0.18604 0.46432 0.26543 0.0
H4818 H 0.21586 0.49671 0.3159 0.0
H4819 H 0.19991 0.52093 0.31125 0.0
H4820 H 0.23892 0.48778 0.29067 0.0
H4821 H 0.18397 0.42515 0.30121 0.0
H4822 H 0.17867 0.43606 0.28159 0.0
H4823 H 0.18076 0.44842 0.30417 0.0
C4824 C 0.17942 0.49022 0.27304 0.0
C4825 C 0.1837 0.5067 0.28551 0.0
C4826 C 0.18867 0.47639 0.27574 0.0
C4827 C 0.20211 0.47877 0.29103 0.0
C4828 C 0.20555 0.49466 0.30401 0.0
H4829 H 0.2656 0.40235 0.32412 0.0
H4830 H 0.24608 0.42427 0.32306 0.0
C4831 C 0.19642 0.50849 0.3013 0.0
C4832 C 0.21419 0.46591 0.2925 0.0
H4833 H 0.21396 0.42081 0.2967 0.0
C4834 C 0.23348 0.47315 0.29207 0.0
C4835 C 0.20702 0.4469 0.29441 0.0
C4836 C 0.18649 0.43864 0.29554 0.0
C4837 C 0.24583 0.46182 0.29333 0.0
C4838 C 0.23862 0.44272 0.2948 0.0
C4839 C 0.21937 0.43549 0.29547 0.0
C4840 C 0.2509 0.43001 0.29561 0.0
C4841 C 0.26651 0.47041 0.29327 0.0
C4842 C 0.26009 0.42614 0.28054 0.0
C4843 C 0.27134 0.41377 0.28115 0.0
C4844 C 0.27351 0.40503 0.29683 0.0
C4845 C 0.26444 0.40912 0.31198 0.0
C4846 C 0.25315 0.42147 0.31134 0.0
H4847 H 0.27022 0.48587 0.2964 0.0
H4848 H 0.27494 0.46488 0.30339 0.0
H4849 H 0.27045 0.46683 0.27951 0.0
H4850 H 0.25834 0.43249 0.26822 0.0
H4851 H 0.27821 0.41091 0.2693 0.0
H4852 H 0.23568 0.39645 0.05316 0.0
H4853 H 0.20827 0.40913 0.05535 0.0
H4854 H 0.21899 0.4344 0.00629 0.0
H4855 H 0.24597 0.42182 1.00396 0.0
H4856 H 0.20971 0.44728 0.05912 0.0
H4857 H 0.16273 0.41062 0.99684 0.0
H4858 H 0.1819 0.40231 0.00637 0.0
H4859 H 0.18608 0.42048 0.99187 0.0
C4860 C 0.23186 0.40431 0.04262 0.0
C4861 C 0.243 0.40813 0.0284 0.0
C4862 C 0.21629 0.41164 0.04394 0.0
C4863 C 0.21144 0.42255 0.03086 0.0
C4864 C 0.22218 0.42574 0.01634 0.0
H4865 H 0.1651 0.51587 0.03357 0.0
H4866 H 0.18403 0.49361 0.03583 0.0
C4867 C 0.23772 0.41862 0.01511 0.0
C4868 C 0.19633 0.43214 0.03296 0.0
H4869 H 0.15834 0.44034 0.00898 0.0
C4870 C 0.19825 0.44551 0.04833 0.0
C4871 C 0.18124 0.42973 0.019 0.0
C4872 C 0.17773 0.41486 1.00268 0.0
C4873 C 0.18619 0.45727 0.04958 0.0
C4874 C 0.17201 0.45583 0.03493 0.0
C4875 C 0.16937 0.44168 0.0201 0.0
C4876 C 0.1604 0.4694 0.03425 0.0
C4877 C 0.18891 0.47128 0.06649 0.0
C4878 C 0.14076 0.46321 0.03215 0.0
C4879 C 0.12985 0.47591 0.03061 0.0
C4880 C 0.13836 0.49509 0.03097 0.0
C4881 C 0.15805 0.50122 0.03309 0.0
C4882 C 0.16892 0.48851 0.03464 0.0
H4883 H 0.19585 0.46673 0.07846 0.0
H4884 H 0.19805 0.48482 0.06402 0.0
H4885 H 0.17535 0.47354 0.06992 0.0
H4886 H 0.13385 0.44851 0.03161 0.0
H4887 H 0.11474 0.47063 0.02871 0.0
H4888 H 0.93482 0.97248 0.2842 0.0
H4889 H 0.9157 0.94002 0.28135 0.0
H4890 H 0.87099 0.95474 0.24984 0.0
H4891 H 0.89039 0.98682 0.25207 0.0
H4892 H 0.88446 0.92729 0.29437 0.0
H4893 H 0.87072 0.90763 0.21948 0.0
H4894 H 0.88807 0.92853 0.23003 0.0
H4895 H 0.86374 0.92842 0.22605 0.0
C4896 C 0.92098 0.96861 0.2765 0.0
C4897 C 0.91374 0.98212 0.26885 0.0
C4898 C 0.91007 0.95013 0.27487 0.0
C4899 C 0.89191 0.94482 0.26524 0.0
C4900 C 0.88506 0.95828 0.25698 0.0
H4901 H 0.80055 0.85253 0.28378 0.0
H4902 H 0.8213 0.88323 0.28152 0.0
C4903 C 0.896 0.97669 0.25854 0.0
C4904 C 0.8796 0.92568 0.26506 0.0
H4905 H 0.85002 0.88848 0.23721 0.0
C4906 C 0.87686 0.91892 0.28188 0.0
C4907 C 0.87012 0.91436 0.24869 0.0
C4908 C 0.87347 0.92003 0.23005 0.0
C4909 C 0.86436 0.90162 0.28288 0.0
C4910 C 0.85427 0.89071 0.26661 0.0
C4911 C 0.85747 0.89708 0.24971 0.0
C4912 C 0.84095 0.87229 0.26688 0.0
C4913 C 0.86221 0.89504 0.30136 0.0
C4914 C 0.84484 0.85603 0.25891 0.0
C4915 C 0.83304 0.83851 0.26015 0.0
C4916 C 0.81702 0.8369 0.26929 0.0
C4917 C 0.81279 0.85326 0.2767 0.0
C4918 C 0.82467 0.87081 0.27551 0.0
H4919 H 0.87383 0.90306 0.31194 0.0
H4920 H 0.84887 0.89691 0.30581 0.0
H4921 H 0.86169 0.87999 0.30062 0.0
H4922 H 0.85729 0.85688 0.25214 0.0
H4923 H 0.8367 0.82622 0.2542 0.0
H4924 H 0.64637 0.10012 0.75577 0.0
H4925 H 0.65712 0.13217 0.74887 0.0
H4926 H 0.70772 0.12024 0.73247 0.0
H4927 H 0.69591 0.08796 0.73751 0.0
H4928 H 0.68189 0.1563 0.76601 0.0
H4929 H 0.70447 0.15437 0.69794 0.0
H4930 H 0.69037 0.13364 0.70523 0.0
H4931 H 0.7157 0.13946 0.70937 0.0
C4932 C 0.65959 0.1044 0.75029 0.0
C4933 C 0.67092 0.09211 0.74811 0.0
C4934 C 0.66575 0.12267 0.74633 0.0
C4935 C 0.68338 0.1289 0.74022 0.0
C4936 C 0.69392 0.11597 0.73672 0.0
H4937 H 0.76242 0.22915 0.78639 0.0
H4938 H 0.74005 0.19853 0.77814 0.0
C4939 C 0.68748 0.09762 0.74019 0.0
C4940 C 0.69213 0.1492 0.74052 0.0
H4941 H 0.72477 0.17968 0.72121 0.0
C4942 C 0.69092 0.16137 0.75592 0.0
C4943 C 0.70344 0.15639 0.72717 0.0
C4944 C 0.70331 0.14523 0.70893 0.0
C4945 C 0.70207 0.17979 0.75926 0.0
C4946 C 0.71527 0.18608 0.74719 0.0
C4947 C 0.71521 0.1746 0.73089 0.0
C4948 C 0.72962 0.20422 0.75161 0.0
C4949 C 0.69971 0.19213 0.77589 0.0
C4950 C 0.73202 0.21714 0.73898 0.0
C4951 C 0.74525 0.23441 0.74345 0.0
C4952 C 0.7561 0.23908 0.76069 0.0
C4953 C 0.75405 0.22596 0.7731 0.0
C4954 C 0.74114 0.20856 0.76847 0.0
H4955 H 0.68513 0.188 0.77937 0.0
H4956 H 0.70911 0.19055 0.78781 0.0
H4957 H 0.70312 0.20705 0.77376 0.0
H4958 H 0.72342 0.21403 0.72583 0.0
H4959 H 0.74652 0.24432 0.73364 0.0
loop_
_geom_bond_atom_site_label_1
_geom_bond_atom_site_label_2
_geom_bond_distance
_geom_bond_site_symmetry_2
_ccdc_geom_bond_type
Mn0 O5 2.095 . S
Mn0 O15 2.162 . S
Mn0 O16 2.297 . S
Mn0 O24 2.385 1_455 S
Mn0 O25 2.209 . S
Mn0 O26 2.094 . S
Mn1 O6 2.121 . S
Mn1 N8 2.257 . S
Mn1 N17 2.282 . S
Mn1 O25 2.215 . S
Mn1 O27 2.117 . S
C2 O24 1.234 . S
C2 O25 1.283 1_655 S
C3 O15 1.281 . S
C3 O16 1.236 . S
C4 O26 1.240 . S
C4 O27 1.264 . S
O5 Mn0 2.095 . S
O5 C14 1.250 . S
O6 Mn1 2.121 . S
O6 C14 1.258 . S
C7 N8 1.326 . S
C7 C11 1.460 . S
C7 H13 0.929 . S
N8 Mn1 2.257 . S
N8 C7 1.326 . S
N8 C12 1.362 . S
C9 C10 1.258 1_655 S
C9 C12 1.431 1_655 S
C9 C29 1.449 . S
C10 C9 1.258 1_455 S
C10 C11 1.477 . S
C10 H30 0.931 1_455 S
C11 C7 1.460 . S
C11 C10 1.477 . S
C11 H31 0.930 . S
C12 N8 1.362 . S
C12 C9 1.431 1_455 S
C12 C22 1.476 1_455 S
H13 C7 0.929 . S
C14 O5 1.250 . S
C14 O6 1.258 . S
O15 Mn0 2.162 . S
O15 C3 1.281 . S
O16 Mn0 2.297 . S
O16 C3 1.236 . S
N17 Mn1 2.282 . S
N17 C18 1.328 1_455 S
N17 C22 1.318 1_455 S
C18 N17 1.328 1_655 S
C18 C19 1.457 . S
C18 H23 0.924 1_655 S
C19 C18 1.457 . S
C19 C20 1.291 . S
C19 H32 0.931 . S
C20 C19 1.291 . S
C20 C21 1.373 . S
C20 H33 0.929 . S
C21 C20 1.373 . S
C21 C22 1.396 . S
C21 C28 1.403 . S
C22 C12 1.476 1_655 S
C22 N17 1.318 1_655 S
C22 C21 1.396 . S
H23 C18 0.924 1_455 S
O24 Mn0 2.385 1_655 S
O24 C2 1.234 . S
O25 Mn0 2.209 . S
O25 Mn1 2.215 . S
O25 C2 1.283 1_455 S
O26 Mn0 2.094 . S
O26 C4 1.240 . S
O27 Mn1 2.117 . S
O27 C4 1.264 . S
C28 C21 1.403 . S
C28 C29 1.399 . S
C28 H34 0.929 . S
C29 C9 1.449 . S
C29 C28 1.399 . S
C29 H35 0.930 . S
H30 C10 0.931 1_655 S
H31 C11 0.930 . S
H32 C19 0.931 . S
H33 C20 0.929 . S
H34 C28 0.929 . S
H35 C29 0.930 . S
Mn36 O41 2.095 1_455 S
Mn36 O51 2.162 . S
Mn36 O52 2.297 . S
Mn36 O60 2.385 . S
Mn36 O61 2.209 . S
Mn36 O62 2.094 . S
Mn37 O42 2.118 1_455 S
Mn37 N44 2.257 . S
Mn37 N53 2.282 . S
Mn37 O61 2.215 . S
Mn37 O63 2.117 . S
C38 O60 1.234 . S
C38 O61 1.283 . S
C39 O51 1.281 . S
C39 O52 1.236 . S
C40 O62 1.240 . S
C40 O63 1.264 . S
O41 Mn36 2.095 1_655 S
O41 C50 1.250 . S
O42 Mn37 2.118 1_655 S
O42 C50 1.260 . S
C43 N44 1.326 . S
C43 C47 1.460 . S
C43 H49 0.929 . S
N44 Mn37 2.257 . S
N44 C43 1.326 . S
N44 C48 1.362 . S
C45 C46 1.258 . S
C45 C48 1.431 . S
C45 C65 1.449 . S
C46 C45 1.258 . S
C46 C47 1.477 . S
C46 H66 0.931 . S
C47 C43 1.460 . S
C47 C46 1.477 . S
C47 H67 0.930 . S
C48 N44 1.362 . S
C48 C45 1.431 . S
C48 C58 1.476 . S
H49 C43 0.929 . S
C50 O41 1.250 . S
C50 O42 1.260 . S
O51 Mn36 2.162 . S
O51 C39 1.281 . S
O52 Mn36 2.297 . S
O52 C39 1.236 . S
N53 Mn37 2.282 . S
N53 C54 1.328 . S
N53 C58 1.318 . S
C54 N53 1.328 . S
C54 C55 1.457 . S
C54 H59 0.929 . S
C55 C54 1.457 . S
C55 C56 1.291 . S
C55 H68 0.931 . S
C56 C55 1.291 . S
C56 C57 1.373 . S
C56 H69 0.929 . S
C57 C56 1.373 . S
C57 C58 1.396 . S
C57 C64 1.403 . S
C58 C48 1.476 . S
C58 N53 1.318 . S
C58 C57 1.396 . S
H59 C54 0.929 . S
O60 Mn36 2.385 . S
O60 C38 1.234 . S
O61 Mn36 2.209 . S
O61 Mn37 2.215 . S
O61 C38 1.283 . S
O62 Mn36 2.094 . S
O62 C40 1.240 . S
O63 Mn37 2.117 . S
O63 C40 1.264 . S
C64 C57 1.403 . S
C64 C65 1.399 . S
C64 H70 0.929 . S
C65 C45 1.449 . S
C65 C64 1.399 . S
C65 H71 0.930 . S
H66 C46 0.931 . S
H67 C47 0.930 . S
H68 C55 0.931 . S
H69 C56 0.929 . S
H70 C64 0.929 . S
H71 C65 0.930 . S
Mn72 O77 2.095 . S
Mn72 O87 2.162 . S
Mn72 O88 2.297 . S
Mn72 O96 2.385 . S
Mn72 O97 2.209 . S
Mn72 O98 2.094 . S
Mn73 O78 2.121 . S
Mn73 N80 2.257 . S
Mn73 N89 2.282 . S
Mn73 O97 2.215 . S
Mn73 O99 2.117 . S
C74 O96 1.234 . S
C74 O97 1.283 . S
C75 O87 1.281 . S
C75 O88 1.236 . S
C76 O98 1.240 . S
C76 O99 1.264 . S
O77 Mn72 2.095 . S
O77 C86 1.250 . S
O78 Mn73 2.121 . S
O78 C86 1.258 . S
C79 N80 1.326 . S
C79 C83 1.460 . S
C79 H85 0.929 . S
N80 Mn73 2.257 . S
N80 C79 1.326 . S
N80 C84 1.362 . S
C81 C82 1.258 . S
C81 C84 1.431 . S
C81 C101 1.449 . S
C82 C81 1.258 . S
C82 C83 1.477 . S
C82 H102 0.931 . S
C83 C79 1.460 . S
C83 C82 1.477 . S
C83 H103 0.930 . S
C84 N80 1.362 . S
C84 C81 1.431 . S
C84 C94 1.476 . S
H85 C79 0.929 . S
C86 O77 1.250 . S
C86 O78 1.258 . S
O87 Mn72 2.162 . S
O87 C75 1.281 . S
O88 Mn72 2.297 . S
O88 C75 1.236 . S
N89 Mn73 2.282 . S
N89 C90 1.328 . S
N89 C94 1.318 . S
C90 N89 1.328 . S
C90 C91 1.457 . S
C90 H95 0.929 . S
C91 C90 1.457 . S
C91 C92 1.291 . S
C91 H104 0.931 . S
C92 C91 1.291 . S
C92 C93 1.373 . S
C92 H105 0.929 . S
C93 C92 1.373 . S
C93 C94 1.396 . S
C93 C100 1.403 . S
C94 C84 1.476 . S
C94 N89 1.318 . S
C94 C93 1.396 . S
H95 C90 0.929 . S
O96 Mn72 2.385 . S
O96 C74 1.234 . S
O97 Mn72 2.209 . S
O97 Mn73 2.215 . S
O97 C74 1.283 . S
O98 Mn72 2.094 . S
O98 C76 1.240 . S
O99 Mn73 2.117 . S
O99 C76 1.264 . S
C100 C93 1.403 . S
C100 C101 1.399 . S
C100 H106 0.929 . S
C101 C81 1.449 . S
C101 C100 1.399 . S
C101 H107 0.930 . S
H102 C82 0.931 . S
H103 C83 0.930 . S
H104 C91 0.931 . S
H105 C92 0.929 . S
H106 C100 0.929 . S
H107 C101 0.930 . S
Mn108 O113 2.095 . S
Mn108 O123 2.162 . S
Mn108 O124 2.297 . S
Mn108 O132 2.385 . S
Mn108 O133 2.209 . S
Mn108 O134 2.094 . S
Mn109 O114 2.121 . S
Mn109 N116 2.257 . S
Mn109 N125 2.282 . S
Mn109 O133 2.215 . S
Mn109 O135 2.117 . S
C110 O132 1.234 . S
C110 O133 1.283 . S
C111 O123 1.281 . S
C111 O124 1.236 . S
C112 O134 1.240 . S
C112 O135 1.264 . S
O113 Mn108 2.095 . S
O113 C122 1.250 . S
O114 Mn109 2.121 . S
O114 C122 1.258 . S
C115 N116 1.326 . S
C115 C119 1.460 . S
C115 H121 0.929 . S
N116 Mn109 2.257 . S
N116 C115 1.326 . S
N116 C120 1.362 . S
C117 C118 1.258 . S
C117 C120 1.431 . S
C117 C137 1.449 . S
C118 C117 1.258 . S
C118 C119 1.477 . S
C118 H138 0.931 . S
C119 C115 1.460 . S
C119 C118 1.477 . S
C119 H139 0.930 . S
C120 N116 1.362 . S
C120 C117 1.431 . S
C120 C130 1.476 . S
H121 C115 0.929 . S
C122 O113 1.250 . S
C122 O114 1.258 . S
O123 Mn108 2.162 . S
O123 C111 1.281 . S
O124 Mn108 2.297 . S
O124 C111 1.236 . S
N125 Mn109 2.282 . S
N125 C126 1.328 . S
N125 C130 1.318 . S
C126 N125 1.328 . S
C126 C127 1.457 . S
C126 H131 0.929 . S
C127 C126 1.457 . S
C127 C128 1.291 . S
C127 H140 0.931 . S
C128 C127 1.291 . S
C128 C129 1.373 . S
C128 H141 0.929 . S
C129 C128 1.373 . S
C129 C130 1.396 . S
C129 C136 1.403 . S
C130 C120 1.476 . S
C130 N125 1.318 . S
C130 C129 1.396 . S
H131 C126 0.929 . S
O132 Mn108 2.385 . S
O132 C110 1.234 . S
O133 Mn108 2.209 . S
O133 Mn109 2.215 . S
O133 C110 1.283 . S
O134 Mn108 2.094 . S
O134 C112 1.240 . S
O135 Mn109 2.117 . S
O135 C112 1.264 . S
C136 C129 1.403 . S
C136 C137 1.399 . S
C136 H142 0.929 . S
C137 C117 1.449 . S
C137 C136 1.399 . S
C137 H143 0.930 . S
H138 C118 0.931 . S
H139 C119 0.930 . S
H140 C127 0.931 . S
H141 C128 0.929 . S
H142 C136 0.929 . S
H143 C137 0.930 . S
Mn144 O149 2.095 . S
Mn144 O159 2.162 . S
Mn144 O160 2.297 . S
Mn144 O168 2.385 . S
Mn144 O169 2.209 . S
Mn144 O170 2.094 . S
Mn145 O150 2.121 . S
Mn145 N152 2.257 . S
Mn145 N161 2.298 . S
Mn145 O169 2.215 . S
Mn145 O171 2.117 . S
C146 O168 1.234 . S
C146 O169 1.283 . S
C147 O159 1.281 . S
C147 O160 1.236 . S
C148 O170 1.240 . S
C148 O171 1.264 . S
O149 Mn144 2.095 . S
O149 C158 1.250 . S
O150 Mn145 2.121 . S
O150 C158 1.258 . S
C151 N152 1.326 . S
C151 C155 1.460 . S
C151 H157 0.929 . S
N152 Mn145 2.257 . S
N152 C151 1.326 . S
N152 C156 1.362 . S
C153 C154 1.258 . S
C153 C156 1.431 . S
C153 C173 1.449 1_455 S
C154 C153 1.258 . S
C154 C155 1.477 . S
C154 H174 0.931 1_554 S
C155 C151 1.460 . S
C155 C154 1.477 . S
C155 H175 0.930 . S
C156 N152 1.362 . S
C156 C153 1.431 . S
C156 C166 1.458 1_455 S
H157 C151 0.929 . S
C158 O149 1.250 . S
C158 O150 1.258 . S
O159 Mn144 2.162 . S
O159 C147 1.281 . S
O160 Mn144 2.297 . S
O160 C147 1.236 . S
N161 Mn145 2.298 . S
N161 C162 1.310 1_455 S
N161 C166 1.335 1_455 S
C162 N161 1.310 1_655 S
C162 C163 1.457 . S
C162 H167 0.929 . S
C163 C162 1.457 . S
C163 C164 1.291 . S
C163 H176 0.931 . S
C164 C163 1.291 . S
C164 C165 1.373 . S
C164 H177 0.929 . S
C165 C164 1.373 . S
C165 C166 1.409 . S
C165 C172 1.403 . S
C166 C156 1.458 1_655 S
C166 N161 1.335 1_655 S
C166 C165 1.409 . S
H167 C162 0.929 . S
O168 Mn144 2.385 . S
O168 C146 1.234 . S
O169 Mn144 2.209 . S
O169 Mn145 2.215 . S
O169 C146 1.283 . S
O170 Mn144 2.094 . S
O170 C148 1.240 . S
O171 Mn145 2.117 . S
O171 C148 1.264 . S
C172 C165 1.403 . S
C172 C173 1.399 . S
C172 H178 0.929 . S
C173 C153 1.449 1_655 S
C173 C172 1.399 . S
C173 H179 0.900 1_554 S
H174 C154 0.931 1_556 S
H175 C155 0.930 . S
H176 C163 0.931 . S
H177 C164 0.929 . S
H178 C172 0.929 . S
H179 C173 0.900 1_556 S
Mn180 O185 2.095 . S
Mn180 O195 2.162 . S
Mn180 O196 2.297 . S
Mn180 O204 2.385 . S
Mn180 O205 2.209 . S
Mn180 O206 2.094 . S
Mn181 O186 2.121 . S
Mn181 N188 2.257 . S
Mn181 N197 2.282 . S
Mn181 O205 2.215 . S
Mn181 O207 2.117 . S
C182 O204 1.234 . S
C182 O205 1.283 . S
C183 O195 1.281 . S
C183 O196 1.236 . S
C184 O206 1.240 . S
C184 O207 1.264 . S
O185 Mn180 2.095 . S
O185 C194 1.250 . S
O186 Mn181 2.121 . S
O186 C194 1.258 . S
C187 N188 1.326 . S
C187 C191 1.460 . S
C187 H193 0.929 . S
N188 Mn181 2.257 . S
N188 C187 1.326 . S
N188 C192 1.362 . S
C189 C190 1.258 . S
C189 C192 1.431 . S
C189 C209 1.449 . S
C190 C189 1.258 . S
C190 C191 1.477 . S
C190 H210 0.931 . S
C191 C187 1.460 . S
C191 C190 1.477 . S
C191 H211 0.930 . S
C192 N188 1.362 . S
C192 C189 1.431 . S
C192 C202 1.476 . S
H193 C187 0.929 . S
C194 O185 1.250 . S
C194 O186 1.258 . S
O195 Mn180 2.162 . S
O195 C183 1.281 . S
O196 Mn180 2.297 . S
O196 C183 1.236 . S
N197 Mn181 2.282 . S
N197 C198 1.328 . S
N197 C202 1.318 . S
C198 N197 1.328 . S
C198 C199 1.457 . S
C198 H203 0.929 . S
C199 C198 1.457 . S
C199 C200 1.291 . S
C199 H212 0.931 . S
C200 C199 1.291 . S
C200 C201 1.373 . S
C200 H213 0.929 . S
C201 C200 1.373 . S
C201 C202 1.396 . S
C201 C208 1.403 . S
C202 C192 1.476 . S
C202 N197 1.318 . S
C202 C201 1.396 . S
H203 C198 0.929 . S
O204 Mn180 2.385 . S
O204 C182 1.234 . S
O205 Mn180 2.209 . S
O205 Mn181 2.215 . S
O205 C182 1.283 . S
O206 Mn180 2.094 . S
O206 C184 1.240 . S
O207 Mn181 2.117 . S
O207 C184 1.264 . S
C208 C201 1.403 . S
C208 C209 1.399 . S
C208 H214 0.929 . S
C209 C189 1.449 . S
C209 C208 1.399 . S
C209 H215 0.930 . S
H210 C190 0.931 . S
H211 C191 0.930 . S
H212 C199 0.931 . S
H213 C200 0.929 . S
H214 C208 0.929 . S
H215 C209 0.930 . S
Mn216 O221 2.095 . S
Mn216 O231 2.162 . S
Mn216 O232 2.297 . S
Mn216 O240 2.385 . S
Mn216 O241 2.209 . S
Mn216 O242 2.094 . S
Mn217 O222 2.121 . S
Mn217 N224 2.257 . S
Mn217 N233 2.282 . S
Mn217 O241 2.215 . S
Mn217 O243 2.117 . S
C218 O240 1.234 . S
C218 O241 1.283 . S
C219 O231 1.281 . S
C219 O232 1.236 . S
C220 O242 1.240 . S
C220 O243 1.264 . S
O221 Mn216 2.095 . S
O221 C230 1.250 . S
O222 Mn217 2.121 . S
O222 C230 1.258 . S
C223 N224 1.326 . S
C223 C227 1.460 . S
C223 H229 0.929 . S
N224 Mn217 2.257 . S
N224 C223 1.326 . S
N224 C228 1.362 . S
C225 C226 1.258 . S
C225 C228 1.431 . S
C225 C245 1.449 . S
C226 C225 1.258 . S
C226 C227 1.477 . S
C226 H246 0.931 . S
C227 C223 1.460 . S
C227 C226 1.477 . S
C227 H247 0.930 . S
C228 N224 1.362 . S
C228 C225 1.431 . S
C228 C238 1.476 . S
H229 C223 0.929 . S
C230 O221 1.250 . S
C230 O222 1.258 . S
O231 Mn216 2.162 . S
O231 C219 1.281 . S
O232 Mn216 2.297 . S
O232 C219 1.236 . S
N233 Mn217 2.282 . S
N233 C234 1.328 . S
N233 C238 1.318 . S
C234 N233 1.328 . S
C234 C235 1.457 . S
C234 H239 0.929 . S
C235 C234 1.457 . S
C235 C236 1.291 . S
C235 H248 0.931 . S
C236 C235 1.291 . S
C236 C237 1.373 . S
C236 H249 0.929 . S
C237 C236 1.373 . S
C237 C238 1.396 . S
C237 C244 1.403 . S
C238 C228 1.476 . S
C238 N233 1.318 . S
C238 C237 1.396 . S
H239 C234 0.929 . S
O240 Mn216 2.385 . S
O240 C218 1.234 . S
O241 Mn216 2.209 . S
O241 Mn217 2.215 . S
O241 C218 1.283 . S
O242 Mn216 2.094 . S
O242 C220 1.240 . S
O243 Mn217 2.117 . S
O243 C220 1.264 . S
C244 C237 1.403 . S
C244 C245 1.399 . S
C244 H250 0.929 . S
C245 C225 1.449 . S
C245 C244 1.399 . S
C245 H251 0.930 . S
H246 C226 0.931 . S
H247 C227 0.930 . S
H248 C235 0.931 . S
H249 C236 0.929 . S
H250 C244 0.929 . S
H251 C245 0.930 . S
Mn252 O257 2.057 1_655 S
Mn252 O267 2.157 . S
Mn252 O268 2.292 . S
Mn252 O276 2.426 . S
Mn252 O277 2.227 . S
Mn252 O278 2.100 1_655 S
Mn253 O258 2.126 1_655 S
Mn253 N260 2.256 . S
Mn253 N269 2.277 . S
Mn253 O277 2.213 . S
Mn253 O279 2.117 1_655 S
C254 O276 1.234 . S
C254 O277 1.283 . S
C255 O267 1.281 . S
C255 O268 1.236 . S
C256 O278 1.240 . S
C256 O279 1.264 . S
O257 Mn252 2.057 1_455 S
O257 C266 1.250 . S
O258 Mn253 2.126 1_455 S
O258 C266 1.258 . S
C259 N260 1.326 . S
C259 C263 1.460 . S
C259 H265 0.929 1_655 S
N260 Mn253 2.256 . S
N260 C259 1.326 . S
N260 C264 1.362 . S
C261 C262 1.258 . S
C261 C264 1.431 . S
C261 C281 1.449 . S
C262 C261 1.258 . S
C262 C263 1.477 . S
C262 H282 0.931 . S
C263 C259 1.460 . S
C263 C262 1.477 . S
C263 H283 0.930 . S
C264 N260 1.362 . S
C264 C261 1.431 . S
C264 C274 1.476 . S
H265 C259 0.929 1_455 S
C266 O257 1.250 . S
C266 O258 1.258 . S
O267 Mn252 2.157 . S
O267 C255 1.281 . S
O268 Mn252 2.292 . S
O268 C255 1.236 . S
N269 Mn253 2.277 . S
N269 C270 1.328 . S
N269 C274 1.318 . S
C270 N269 1.328 . S
C270 C271 1.457 . S
C270 H275 0.929 . S
C271 C270 1.457 . S
C271 C272 1.291 . S
C271 H284 0.931 . S
C272 C271 1.291 . S
C272 C273 1.373 . S
C272 H285 0.929 . S
C273 C272 1.373 . S
C273 C274 1.396 . S
C273 C280 1.403 . S
C274 C264 1.476 . S
C274 N269 1.318 . S
C274 C273 1.396 . S
H275 C270 0.929 . S
O276 Mn252 2.426 . S
O276 C254 1.234 . S
O277 Mn252 2.227 . S
O277 Mn253 2.213 . S
O277 C254 1.283 . S
O278 Mn252 2.100 1_455 S
O278 C256 1.240 . S
O279 Mn253 2.117 1_455 S
O279 C256 1.264 . S
C280 C273 1.403 . S
C280 C281 1.399 . S
C280 H286 0.929 . S
C281 C261 1.449 . S
C281 C280 1.399 . S
C281 H287 0.930 . S
H282 C262 0.931 . S
H283 C263 0.930 . S
H284 C271 0.931 . S
H285 C272 0.929 . S
H286 C280 0.929 . S
H287 C281 0.930 . S
Mn288 O293 2.095 . S
Mn288 O303 2.162 . S
Mn288 O304 2.294 . S
Mn288 O312 2.385 1_545 S
Mn288 O313 2.209 1_545 S
Mn288 O314 2.094 . S
Mn289 O294 2.121 1_565 S
Mn289 N296 2.257 . S
Mn289 N305 2.282 . S
Mn289 O313 2.215 . S
Mn289 O315 2.117 1_565 S
C290 O312 1.234 . S
C290 O313 1.283 . S
C291 O303 1.281 . S
C291 O304 1.236 . S
C292 O314 1.240 . S
C292 O315 1.264 . S
O293 Mn288 2.095 . S
O293 C302 1.250 . S
O294 Mn289 2.121 1_545 S
O294 C302 1.258 . S
C295 N296 1.326 . S
C295 C299 1.460 . S
C295 H301 0.929 1_565 S
N296 Mn289 2.257 . S
N296 C295 1.326 . S
N296 C300 1.362 . S
C297 C298 1.258 . S
C297 C300 1.431 . S
C297 C317 1.449 . S
C298 C297 1.258 . S
C298 C299 1.477 . S
C298 H318 0.931 . S
C299 C295 1.460 . S
C299 C298 1.477 . S
C299 H319 0.930 . S
C300 N296 1.362 . S
C300 C297 1.431 . S
C300 C310 1.476 . S
H301 C295 0.929 1_545 S
C302 O293 1.250 . S
C302 O294 1.258 . S
O303 Mn288 2.162 . S
O303 C291 1.281 . S
O304 Mn288 2.294 . S
O304 C291 1.236 . S
N305 Mn289 2.282 . S
N305 C306 1.328 . S
N305 C310 1.318 . S
C306 N305 1.328 . S
C306 C307 1.457 . S
C306 H311 0.929 . S
C307 C306 1.457 . S
C307 C308 1.291 . S
C307 H320 0.931 . S
C308 C307 1.291 . S
C308 C309 1.373 . S
C308 H321 0.929 . S
C309 C308 1.373 . S
C309 C310 1.396 . S
C309 C316 1.403 . S
C310 C300 1.476 . S
C310 N305 1.318 . S
C310 C309 1.396 . S
H311 C306 0.929 . S
O312 Mn288 2.385 1_565 S
O312 C290 1.234 . S
O313 Mn288 2.209 1_565 S
O313 Mn289 2.215 . S
O313 C290 1.283 . S
O314 Mn288 2.094 . S
O314 C292 1.240 . S
O315 Mn289 2.117 1_545 S
O315 C292 1.264 . S
C316 C309 1.403 . S
C316 C317 1.399 . S
C316 H322 0.929 . S
C317 C297 1.449 . S
C317 C316 1.399 . S
C317 H323 0.930 . S
H318 C298 0.931 . S
H319 C299 0.930 . S
H320 C307 0.931 . S
H321 C308 0.929 . S
H322 C316 0.929 . S
H323 C317 0.930 . S
Mn324 O329 2.095 . S
Mn324 O339 2.162 . S
Mn324 O340 2.297 . S
Mn324 O348 2.385 . S
Mn324 O349 2.209 . S
Mn324 O350 2.094 . S
Mn325 O330 2.121 . S
Mn325 N332 2.257 . S
Mn325 N341 2.282 . S
Mn325 O349 2.215 . S
Mn325 O351 2.117 . S
C326 O348 1.234 . S
C326 O349 1.283 . S
C327 O339 1.281 . S
C327 O340 1.236 . S
C328 O350 1.240 . S
C328 O351 1.264 . S
O329 Mn324 2.095 . S
O329 C338 1.250 . S
O330 Mn325 2.121 . S
O330 C338 1.258 . S
C331 N332 1.326 . S
C331 C335 1.460 . S
C331 H337 0.929 . S
N332 Mn325 2.257 . S
N332 C331 1.326 . S
N332 C336 1.362 . S
C333 C334 1.258 . S
C333 C336 1.431 . S
C333 C353 1.449 . S
C334 C333 1.258 . S
C334 C335 1.477 . S
C334 H354 0.931 . S
C335 C331 1.460 . S
C335 C334 1.477 . S
C335 H355 0.930 . S
C336 N332 1.362 . S
C336 C333 1.431 . S
C336 C346 1.476 . S
H337 C331 0.929 . S
C338 O329 1.250 . S
C338 O330 1.258 . S
O339 Mn324 2.162 . S
O339 C327 1.281 . S
O340 Mn324 2.297 . S
O340 C327 1.236 . S
N341 Mn325 2.282 . S
N341 C342 1.328 . S
N341 C346 1.318 . S
C342 N341 1.328 . S
C342 C343 1.457 . S
C342 H347 0.929 . S
C343 C342 1.457 . S
C343 C344 1.291 . S
C343 H356 0.931 . S
C344 C343 1.291 . S
C344 C345 1.373 . S
C344 H357 0.929 . S
C345 C344 1.373 . S
C345 C346 1.396 . S
C345 C352 1.403 . S
C346 C336 1.476 . S
C346 N341 1.318 . S
C346 C345 1.396 . S
H347 C342 0.929 . S
O348 Mn324 2.385 . S
O348 C326 1.234 . S
O349 Mn324 2.209 . S
O349 Mn325 2.215 . S
O349 C326 1.283 . S
O350 Mn324 2.094 . S
O350 C328 1.240 . S
O351 Mn325 2.117 . S
O351 C328 1.264 . S
C352 C345 1.403 . S
C352 C353 1.399 . S
C352 H358 0.929 . S
C353 C333 1.449 . S
C353 C352 1.399 . S
C353 H359 0.930 . S
H354 C334 0.931 . S
H355 C335 0.930 . S
H356 C343 0.931 . S
H357 C344 0.929 . S
H358 C352 0.929 . S
H359 C353 0.930 . S
Mn360 O365 2.095 . S
Mn360 O375 2.162 . S
Mn360 O376 2.297 . S
Mn360 O384 2.385 . S
Mn360 O385 2.209 . S
Mn360 O386 2.094 . S
Mn361 O366 2.121 . S
Mn361 N368 2.257 . S
Mn361 N377 2.282 . S
Mn361 O385 2.215 . S
Mn361 O387 2.117 . S
C362 O384 1.234 . S
C362 O385 1.283 . S
C363 O375 1.281 . S
C363 O376 1.236 . S
C364 O386 1.240 . S
C364 O387 1.264 . S
O365 Mn360 2.095 . S
O365 C374 1.250 . S
O366 Mn361 2.121 . S
O366 C374 1.258 . S
C367 N368 1.326 . S
C367 C371 1.460 . S
C367 H373 0.929 . S
N368 Mn361 2.257 . S
N368 C367 1.326 . S
N368 C372 1.362 . S
C369 C370 1.258 . S
C369 C372 1.431 . S
C369 C389 1.449 . S
C370 C369 1.258 . S
C370 C371 1.477 . S
C370 H390 0.931 . S
C371 C367 1.460 . S
C371 C370 1.477 . S
C371 H391 0.930 . S
C372 N368 1.362 . S
C372 C369 1.431 . S
C372 C382 1.476 . S
H373 C367 0.929 . S
C374 O365 1.250 . S
C374 O366 1.258 . S
O375 Mn360 2.162 . S
O375 C363 1.281 . S
O376 Mn360 2.297 . S
O376 C363 1.236 . S
N377 Mn361 2.282 . S
N377 C378 1.328 . S
N377 C382 1.318 . S
C378 N377 1.328 . S
C378 C379 1.457 . S
C378 H383 0.929 . S
C379 C378 1.457 . S
C379 C380 1.291 . S
C379 H392 0.931 . S
C380 C379 1.291 . S
C380 C381 1.373 . S
C380 H393 0.929 . S
C381 C380 1.373 . S
C381 C382 1.396 . S
C381 C388 1.403 . S
C382 C372 1.476 . S
C382 N377 1.318 . S
C382 C381 1.396 . S
H383 C378 0.929 . S
O384 Mn360 2.385 . S
O384 C362 1.234 . S
O385 Mn360 2.209 . S
O385 Mn361 2.215 . S
O385 C362 1.283 . S
O386 Mn360 2.094 . S
O386 C364 1.240 . S
O387 Mn361 2.117 . S
O387 C364 1.264 . S
C388 C381 1.403 . S
C388 C389 1.399 . S
C388 H394 0.929 . S
C389 C369 1.449 . S
C389 C388 1.399 . S
C389 H395 0.930 . S
H390 C370 0.931 . S
H391 C371 0.930 . S
H392 C379 0.931 . S
H393 C380 0.929 . S
H394 C388 0.929 . S
H395 C389 0.930 . S
Mn396 O401 2.095 1_554 S
Mn396 O411 2.162 . S
Mn396 O412 2.297 . S
Mn396 O420 2.385 . S
Mn396 O421 2.207 1_554 S
Mn396 O422 2.094 1_554 S
Mn397 O402 2.121 . S
Mn397 N404 2.257 . S
Mn397 N413 2.282 . S
Mn397 O421 2.220 . S
Mn397 O423 2.117 . S
C398 O420 1.234 . S
C398 O421 1.282 1_554 S
C399 O411 1.281 . S
C399 O412 1.236 . S
C400 O422 1.240 . S
C400 O423 1.264 . S
O401 Mn396 2.095 1_556 S
O401 C410 1.250 . S
O402 Mn397 2.121 . S
O402 C410 1.258 . S
C403 N404 1.326 . S
C403 C407 1.460 . S
C403 H409 0.929 . S
N404 Mn397 2.257 . S
N404 C403 1.326 . S
N404 C408 1.362 . S
C405 C406 1.258 . S
C405 C408 1.431 . S
C405 C425 1.449 . S
C406 C405 1.258 . S
C406 C407 1.477 . S
C406 H426 0.931 1_565 S
C407 C403 1.460 . S
C407 C406 1.477 . S
C407 H427 0.920 1_565 S
C408 N404 1.362 . S
C408 C405 1.431 . S
C408 C418 1.476 . S
H409 C403 0.929 . S
C410 O401 1.250 . S
C410 O402 1.258 . S
O411 Mn396 2.162 . S
O411 C399 1.281 . S
O412 Mn396 2.297 . S
O412 C399 1.236 . S
N413 Mn397 2.282 . S
N413 C414 1.328 . S
N413 C418 1.318 . S
C414 N413 1.328 . S
C414 C415 1.457 . S
C414 H419 0.929 . S
C415 C414 1.457 . S
C415 C416 1.291 . S
C415 H428 0.931 . S
C416 C415 1.291 . S
C416 C417 1.373 . S
C416 H429 0.929 . S
C417 C416 1.373 . S
C417 C418 1.396 . S
C417 C424 1.403 . S
C418 C408 1.476 . S
C418 N413 1.318 . S
C418 C417 1.396 . S
H419 C414 0.929 . S
O420 Mn396 2.385 . S
O420 C398 1.234 . S
O421 Mn396 2.207 1_556 S
O421 Mn397 2.220 . S
O421 C398 1.282 1_556 S
O422 Mn396 2.094 1_556 S
O422 C400 1.240 . S
O423 Mn397 2.117 . S
O423 C400 1.264 . S
C424 C417 1.403 . S
C424 C425 1.399 . S
C424 H430 0.929 . S
C425 C405 1.449 . S
C425 C424 1.399 . S
C425 H431 0.930 1_565 S
H426 C406 0.931 1_545 S
H427 C407 0.920 1_545 S
H428 C415 0.931 . S
H429 C416 0.929 . S
H430 C424 0.929 . S
H431 C425 0.930 1_545 S
Mn432 O437 2.095 . S
Mn432 O447 2.162 . S
Mn432 O448 2.297 . S
Mn432 O456 2.385 . S
Mn432 O457 2.209 . S
Mn432 O458 2.094 . S
Mn433 O438 2.127 . S
Mn433 N440 2.258 . S
Mn433 N449 2.277 1_554 S
Mn433 O457 2.223 . S
Mn433 O459 2.114 1_554 S
C434 O456 1.234 . S
C434 O457 1.283 . S
C435 O447 1.281 . S
C435 O448 1.236 . S
C436 O458 1.240 1_556 S
C436 O459 1.264 . S
O437 Mn432 2.095 . S
O437 C446 1.250 . S
O438 Mn433 2.127 . S
O438 C446 1.258 . S
C439 N440 1.326 . S
C439 C443 1.460 . S
C439 H445 0.929 . S
N440 Mn433 2.258 . S
N440 C439 1.326 . S
N440 C444 1.362 . S
C441 C442 1.258 . S
C441 C444 1.431 . S
C441 C461 1.449 1_554 S
C442 C441 1.258 . S
C442 C443 1.477 . S
C442 H462 0.931 . S
C443 C439 1.460 . S
C443 C442 1.477 . S
C443 H463 0.930 . S
C444 N440 1.362 . S
C444 C441 1.431 . S
C444 C454 1.476 1_554 S
H445 C439 0.929 . S
C446 O437 1.250 . S
C446 O438 1.258 . S
O447 Mn432 2.162 . S
O447 C435 1.281 . S
O448 Mn432 2.297 . S
O448 C435 1.236 . S
N449 Mn433 2.277 1_556 S
N449 C450 1.328 . S
N449 C454 1.318 . S
C450 N449 1.328 . S
C450 C451 1.457 . S
C450 H455 0.929 . S
C451 C450 1.457 . S
C451 C452 1.291 . S
C451 H464 0.931 . S
C452 C451 1.291 . S
C452 C453 1.373 . S
C452 H465 0.929 . S
C453 C452 1.373 . S
C453 C454 1.396 . S
C453 C460 1.403 . S
C454 C444 1.476 1_556 S
C454 N449 1.318 . S
C454 C453 1.396 . S
H455 C450 0.929 . S
O456 Mn432 2.385 . S
O456 C434 1.234 . S
O457 Mn432 2.209 . S
O457 Mn433 2.223 . S
O457 C434 1.283 . S
O458 Mn432 2.094 . S
O458 C436 1.240 1_554 S
O459 Mn433 2.114 1_556 S
O459 C436 1.264 . S
C460 C453 1.403 . S
C460 C461 1.399 . S
C460 H466 0.929 . S
C461 C441 1.449 1_556 S
C461 C460 1.399 . S
C461 H467 0.930 . S
H462 C442 0.931 . S
H463 C443 0.930 . S
H464 C451 0.931 . S
H465 C452 0.929 . S
H466 C460 0.929 . S
H467 C461 0.930 . S
Mn468 O473 2.095 . S
Mn468 O483 2.162 . S
Mn468 O484 2.297 . S
Mn468 O492 2.385 . S
Mn468 O493 2.209 . S
Mn468 O494 2.094 . S
Mn469 O474 2.121 . S
Mn469 N476 2.257 . S
Mn469 N485 2.284 1_554 S
Mn469 O493 2.215 . S
Mn469 O495 2.117 . S
C470 O492 1.234 . S
C470 O493 1.283 . S
C471 O483 1.281 . S
C471 O484 1.236 . S
C472 O494 1.240 . S
C472 O495 1.264 . S
O473 Mn468 2.095 . S
O473 C482 1.250 . S
O474 Mn469 2.121 . S
O474 C482 1.258 . S
C475 N476 1.326 . S
C475 C479 1.460 . S
C475 H481 0.929 . S
N476 Mn469 2.257 . S
N476 C475 1.326 . S
N476 C480 1.362 . S
C477 C478 1.258 . S
C477 C480 1.431 . S
C477 C497 1.449 1_554 S
C478 C477 1.258 . S
C478 C479 1.477 . S
C478 H498 0.931 . S
C479 C475 1.460 . S
C479 C478 1.477 . S
C479 H499 0.930 . S
C480 N476 1.362 . S
C480 C477 1.431 . S
C480 C490 1.476 1_554 S
H481 C475 0.929 . S
C482 O473 1.250 . S
C482 O474 1.258 . S
O483 Mn468 2.162 . S
O483 C471 1.281 . S
O484 Mn468 2.297 . S
O484 C471 1.236 . S
N485 Mn469 2.284 1_556 S
N485 C486 1.325 . S
N485 C490 1.318 . S
C486 N485 1.325 . S
C486 C487 1.457 . S
C486 H491 0.929 . S
C487 C486 1.457 . S
C487 C488 1.291 . S
C487 H500 0.931 . S
C488 C487 1.291 . S
C488 C489 1.373 . S
C488 H501 0.929 . S
C489 C488 1.373 . S
C489 C490 1.396 . S
C489 C496 1.403 . S
C490 C480 1.476 1_556 S
C490 N485 1.318 . S
C490 C489 1.396 . S
H491 C486 0.929 . S
O492 Mn468 2.385 . S
O492 C470 1.234 . S
O493 Mn468 2.209 . S
O493 Mn469 2.215 . S
O493 C470 1.283 . S
O494 Mn468 2.094 . S
O494 C472 1.240 . S
O495 Mn469 2.117 . S
O495 C472 1.264 . S
C496 C489 1.403 . S
C496 C497 1.399 . S
C496 H502 0.929 . S
C497 C477 1.449 1_556 S
C497 C496 1.399 . S
C497 H503 0.930 . S
H498 C478 0.931 . S
H499 C479 0.930 . S
H500 C487 0.931 . S
H501 C488 0.929 . S
H502 C496 0.929 . S
H503 C497 0.930 . S
Mn504 O509 2.095 . S
Mn504 O519 2.162 . S
Mn504 O520 2.297 . S
Mn504 O528 2.385 . S
Mn504 O529 2.209 . S
Mn504 O530 2.094 . S
Mn505 O510 2.121 . S
Mn505 N512 2.257 . S
Mn505 N521 2.282 . S
Mn505 O529 2.215 . S
Mn505 O531 2.117 . S
C506 O528 1.234 . S
C506 O529 1.283 . S
C507 O519 1.281 . S
C507 O520 1.236 . S
C508 O530 1.240 . S
C508 O531 1.264 . S
O509 Mn504 2.095 . S
O509 C518 1.250 . S
O510 Mn505 2.121 . S
O510 C518 1.258 . S
C511 N512 1.326 . S
C511 C515 1.460 . S
C511 H517 0.929 . S
N512 Mn505 2.257 . S
N512 C511 1.326 . S
N512 C516 1.362 . S
C513 C514 1.258 . S
C513 C516 1.431 . S
C513 C533 1.449 . S
C514 C513 1.258 . S
C514 C515 1.477 . S
C514 H534 0.931 . S
C515 C511 1.460 . S
C515 C514 1.477 . S
C515 H535 0.930 . S
C516 N512 1.362 . S
C516 C513 1.431 . S
C516 C526 1.476 . S
H517 C511 0.929 . S
C518 O509 1.250 . S
C518 O510 1.258 . S
O519 Mn504 2.162 . S
O519 C507 1.281 . S
O520 Mn504 2.297 . S
O520 C507 1.236 . S
N521 Mn505 2.282 . S
N521 C522 1.328 . S
N521 C526 1.318 . S
C522 N521 1.328 . S
C522 C523 1.457 . S
C522 H527 0.929 . S
C523 C522 1.457 . S
C523 C524 1.291 . S
C523 H536 0.931 . S
C524 C523 1.291 . S
C524 C525 1.373 . S
C524 H537 0.929 . S
C525 C524 1.373 . S
C525 C526 1.396 . S
C525 C532 1.403 . S
C526 C516 1.476 . S
C526 N521 1.318 . S
C526 C525 1.396 . S
H527 C522 0.929 . S
O528 Mn504 2.385 . S
O528 C506 1.234 . S
O529 Mn504 2.209 . S
O529 Mn505 2.215 . S
O529 C506 1.283 . S
O530 Mn504 2.094 . S
O530 C508 1.240 . S
O531 Mn505 2.117 . S
O531 C508 1.264 . S
C532 C525 1.403 . S
C532 C533 1.399 . S
C532 H538 0.929 . S
C533 C513 1.449 . S
C533 C532 1.399 . S
C533 H539 0.930 . S
H534 C514 0.931 . S
H535 C515 0.930 . S
H536 C523 0.931 . S
H537 C524 0.929 . S
H538 C532 0.929 . S
H539 C533 0.930 . S
Mn540 O545 2.095 . S
Mn540 O555 2.162 . S
Mn540 O556 2.297 . S
Mn540 O564 2.385 . S
Mn540 O565 2.209 . S
Mn540 O566 2.094 . S
Mn541 O546 2.121 . S
Mn541 N548 2.257 . S
Mn541 N557 2.282 . S
Mn541 O565 2.215 . S
Mn541 O567 2.117 . S
C542 O564 1.234 . S
C542 O565 1.283 . S
C543 O555 1.281 . S
C543 O556 1.236 . S
C544 O566 1.240 . S
C544 O567 1.264 . S
O545 Mn540 2.095 . S
O545 C554 1.250 . S
O546 Mn541 2.121 . S
O546 C554 1.258 . S
C547 N548 1.326 . S
C547 C551 1.460 . S
C547 H553 0.929 . S
N548 Mn541 2.257 . S
N548 C547 1.326 . S
N548 C552 1.362 . S
C549 C550 1.258 . S
C549 C552 1.431 . S
C549 C569 1.449 . S
C550 C549 1.258 . S
C550 C551 1.477 . S
C550 H570 0.931 . S
C551 C547 1.460 . S
C551 C550 1.477 . S
C551 H571 0.930 . S
C552 N548 1.362 . S
C552 C549 1.431 . S
C552 C562 1.476 . S
H553 C547 0.929 . S
C554 O545 1.250 . S
C554 O546 1.258 . S
O555 Mn540 2.162 . S
O555 C543 1.281 . S
O556 Mn540 2.297 . S
O556 C543 1.236 . S
N557 Mn541 2.282 . S
N557 C558 1.328 . S
N557 C562 1.318 . S
C558 N557 1.328 . S
C558 C559 1.457 . S
C558 H563 0.929 . S
C559 C558 1.457 . S
C559 C560 1.291 . S
C559 H572 0.931 . S
C560 C559 1.291 . S
C560 C561 1.373 . S
C560 H573 0.929 . S
C561 C560 1.373 . S
C561 C562 1.396 . S
C561 C568 1.403 . S
C562 C552 1.476 . S
C562 N557 1.318 . S
C562 C561 1.396 . S
H563 C558 0.929 . S
O564 Mn540 2.385 . S
O564 C542 1.234 . S
O565 Mn540 2.209 . S
O565 Mn541 2.215 . S
O565 C542 1.283 . S
O566 Mn540 2.094 . S
O566 C544 1.240 . S
O567 Mn541 2.117 . S
O567 C544 1.264 . S
C568 C561 1.403 . S
C568 C569 1.399 . S
C568 H574 0.929 . S
C569 C549 1.449 . S
C569 C568 1.399 . S
C569 H575 0.930 . S
H570 C550 0.931 . S
H571 C551 0.930 . S
H572 C559 0.931 . S
H573 C560 0.929 . S
H574 C568 0.929 . S
H575 C569 0.930 . S
Mn576 O581 2.095 . S
Mn576 O591 2.162 . S
Mn576 O592 2.297 . S
Mn576 O600 2.385 1_545 S
Mn576 O601 2.209 . S
Mn576 O602 2.094 . S
Mn577 O582 2.121 . S
Mn577 N584 2.257 . S
Mn577 N593 2.282 1_545 S
Mn577 O601 2.215 . S
Mn577 O603 2.117 . S
C578 O600 1.234 . S
C578 O601 1.283 1_565 S
C579 O591 1.281 . S
C579 O592 1.236 . S
C580 O602 1.240 . S
C580 O603 1.264 . S
O581 Mn576 2.095 . S
O581 C590 1.250 . S
O582 Mn577 2.121 . S
O582 C590 1.258 . S
C583 N584 1.326 . S
C583 C587 1.460 . S
C583 H589 0.929 . S
N584 Mn577 2.257 . S
N584 C583 1.326 . S
N584 C588 1.362 1_545 S
C585 C586 1.258 . S
C585 C588 1.431 . S
C585 C605 1.449 . S
C586 C585 1.258 . S
C586 C587 1.477 1_565 S
C586 H606 0.931 . S
C587 C583 1.460 . S
C587 C586 1.477 1_545 S
C587 H607 0.930 . S
C588 N584 1.362 1_565 S
C588 C585 1.431 . S
C588 C598 1.476 . S
H589 C583 0.929 . S
C590 O581 1.250 . S
C590 O582 1.258 . S
O591 Mn576 2.162 . S
O591 C579 1.281 . S
O592 Mn576 2.297 . S
O592 C579 1.236 . S
N593 Mn577 2.282 1_565 S
N593 C594 1.328 . S
N593 C598 1.318 . S
C594 N593 1.328 . S
C594 C595 1.457 . S
C594 H599 0.929 . S
C595 C594 1.457 . S
C595 C596 1.291 . S
C595 H608 0.931 . S
C596 C595 1.291 . S
C596 C597 1.373 . S
C596 H609 0.929 . S
C597 C596 1.373 . S
C597 C598 1.396 . S
C597 C604 1.403 . S
C598 C588 1.476 . S
C598 N593 1.318 . S
C598 C597 1.396 . S
H599 C594 0.929 . S
O600 Mn576 2.385 1_565 S
O600 C578 1.234 . S
O601 Mn576 2.209 . S
O601 Mn577 2.215 . S
O601 C578 1.283 1_545 S
O602 Mn576 2.094 . S
O602 C580 1.240 . S
O603 Mn577 2.117 . S
O603 C580 1.264 . S
C604 C597 1.403 . S
C604 C605 1.399 . S
C604 H610 0.929 . S
C605 C585 1.449 . S
C605 C604 1.399 . S
C605 H611 0.930 . S
H606 C586 0.931 . S
H607 C587 0.930 . S
H608 C595 0.931 . S
H609 C596 0.929 . S
H610 C604 0.929 . S
H611 C605 0.930 . S
Mn612 O617 2.095 . S
Mn612 O627 2.162 . S
Mn612 O628 2.297 . S
Mn612 O636 2.385 . S
Mn612 O637 2.209 . S
Mn612 O638 2.094 . S
Mn613 O618 2.121 . S
Mn613 N620 2.257 . S
Mn613 N629 2.282 . S
Mn613 O637 2.215 . S
Mn613 O639 2.117 . S
C614 O636 1.234 . S
C614 O637 1.283 . S
C615 O627 1.281 . S
C615 O628 1.236 . S
C616 O638 1.240 . S
C616 O639 1.264 . S
O617 Mn612 2.095 . S
O617 C626 1.250 . S
O618 Mn613 2.121 . S
O618 C626 1.258 . S
C619 N620 1.326 . S
C619 C623 1.460 . S
C619 H625 0.929 . S
N620 Mn613 2.257 . S
N620 C619 1.326 . S
N620 C624 1.362 . S
C621 C622 1.258 . S
C621 C624 1.431 . S
C621 C641 1.449 . S
C622 C621 1.258 . S
C622 C623 1.477 . S
C622 H642 0.931 . S
C623 C619 1.460 . S
C623 C622 1.477 . S
C623 H643 0.930 . S
C624 N620 1.362 . S
C624 C621 1.431 . S
C624 C634 1.476 . S
H625 C619 0.929 . S
C626 O617 1.250 . S
C626 O618 1.258 . S
O627 Mn612 2.162 . S
O627 C615 1.281 . S
O628 Mn612 2.297 . S
O628 C615 1.236 . S
N629 Mn613 2.282 . S
N629 C630 1.328 . S
N629 C634 1.318 . S
C630 N629 1.328 . S
C630 C631 1.457 . S
C630 H635 0.929 . S
C631 C630 1.457 . S
C631 C632 1.291 . S
C631 H644 0.931 . S
C632 C631 1.291 . S
C632 C633 1.373 . S
C632 H645 0.929 . S
C633 C632 1.373 . S
C633 C634 1.396 . S
C633 C640 1.403 . S
C634 C624 1.476 . S
C634 N629 1.318 . S
C634 C633 1.396 . S
H635 C630 0.929 . S
O636 Mn612 2.385 . S
O636 C614 1.234 . S
O637 Mn612 2.209 . S
O637 Mn613 2.215 . S
O637 C614 1.283 . S
O638 Mn612 2.094 . S
O638 C616 1.240 . S
O639 Mn613 2.117 . S
O639 C616 1.264 . S
C640 C633 1.403 . S
C640 C641 1.399 . S
C640 H646 0.929 . S
C641 C621 1.449 . S
C641 C640 1.399 . S
C641 H647 0.930 . S
H642 C622 0.931 . S
H643 C623 0.930 . S
H644 C631 0.931 . S
H645 C632 0.929 . S
H646 C640 0.929 . S
H647 C641 0.930 . S
Mn648 O653 2.095 . S
Mn648 O663 2.162 . S
Mn648 O664 2.297 . S
Mn648 O672 2.385 . S
Mn648 O673 2.209 . S
Mn648 O674 2.094 . S
Mn649 O654 2.121 . S
Mn649 N656 2.257 . S
Mn649 N665 2.282 . S
Mn649 O673 2.215 . S
Mn649 O675 2.117 . S
C650 O672 1.234 . S
C650 O673 1.283 . S
C651 O663 1.281 . S
C651 O664 1.236 . S
C652 O674 1.240 . S
C652 O675 1.264 . S
O653 Mn648 2.095 . S
O653 C662 1.250 . S
O654 Mn649 2.121 . S
O654 C662 1.258 . S
C655 N656 1.326 . S
C655 C659 1.460 . S
C655 H661 0.929 . S
N656 Mn649 2.257 . S
N656 C655 1.326 . S
N656 C660 1.362 . S
C657 C658 1.258 . S
C657 C660 1.431 . S
C657 C677 1.449 . S
C658 C657 1.258 . S
C658 C659 1.477 . S
C658 H678 0.931 . S
C659 C655 1.460 . S
C659 C658 1.477 . S
C659 H679 0.930 . S
C660 N656 1.362 . S
C660 C657 1.431 . S
C660 C670 1.476 . S
H661 C655 0.929 . S
C662 O653 1.250 . S
C662 O654 1.258 . S
O663 Mn648 2.162 . S
O663 C651 1.281 . S
O664 Mn648 2.297 . S
O664 C651 1.236 . S
N665 Mn649 2.282 . S
N665 C666 1.328 . S
N665 C670 1.318 . S
C666 N665 1.328 . S
C666 C667 1.457 . S
C666 H671 0.929 . S
C667 C666 1.457 . S
C667 C668 1.291 . S
C667 H680 0.931 . S
C668 C667 1.291 . S
C668 C669 1.373 . S
C668 H681 0.929 . S
C669 C668 1.373 . S
C669 C670 1.396 . S
C669 C676 1.403 . S
C670 C660 1.476 . S
C670 N665 1.318 . S
C670 C669 1.396 . S
H671 C666 0.929 . S
O672 Mn648 2.385 . S
O672 C650 1.234 . S
O673 Mn648 2.209 . S
O673 Mn649 2.215 . S
O673 C650 1.283 . S
O674 Mn648 2.094 . S
O674 C652 1.240 . S
O675 Mn649 2.117 . S
O675 C652 1.264 . S
C676 C669 1.403 . S
C676 C677 1.399 . S
C676 H682 0.929 . S
C677 C657 1.449 . S
C677 C676 1.399 . S
C677 H683 0.930 . S
H678 C658 0.931 . S
H679 C659 0.930 . S
H680 C667 0.931 . S
H681 C668 0.929 . S
H682 C676 0.929 . S
H683 C677 0.930 . S
Mn684 O689 2.095 . S
Mn684 O699 2.162 . S
Mn684 O700 2.297 . S
Mn684 O708 2.385 . S
Mn684 O709 2.209 . S
Mn684 O710 2.094 . S
Mn685 O690 2.121 . S
Mn685 N692 2.257 . S
Mn685 N701 2.282 . S
Mn685 O709 2.215 . S
Mn685 O711 2.117 . S
C686 O708 1.234 . S
C686 O709 1.283 . S
C687 O699 1.281 . S
C687 O700 1.236 . S
C688 O710 1.240 . S
C688 O711 1.264 . S
O689 Mn684 2.095 . S
O689 C698 1.250 . S
O690 Mn685 2.121 . S
O690 C698 1.258 . S
C691 N692 1.326 . S
C691 C695 1.460 . S
C691 H697 0.929 . S
N692 Mn685 2.257 . S
N692 C691 1.326 . S
N692 C696 1.362 . S
C693 C694 1.258 . S
C693 C696 1.431 . S
C693 C713 1.449 . S
C694 C693 1.258 . S
C694 C695 1.477 . S
C694 H714 0.931 . S
C695 C691 1.460 . S
C695 C694 1.477 . S
C695 H715 0.930 . S
C696 N692 1.362 . S
C696 C693 1.431 . S
C696 C706 1.476 . S
H697 C691 0.929 . S
C698 O689 1.250 . S
C698 O690 1.258 . S
O699 Mn684 2.162 . S
O699 C687 1.281 . S
O700 Mn684 2.297 . S
O700 C687 1.236 . S
N701 Mn685 2.282 . S
N701 C702 1.328 . S
N701 C706 1.318 . S
C702 N701 1.328 . S
C702 C703 1.457 . S
C702 H707 0.929 . S
C703 C702 1.457 . S
C703 C704 1.291 . S
C703 H716 0.931 . S
C704 C703 1.291 . S
C704 C705 1.373 . S
C704 H717 0.929 . S
C705 C704 1.373 . S
C705 C706 1.396 . S
C705 C712 1.403 . S
C706 C696 1.476 . S
C706 N701 1.318 . S
C706 C705 1.396 . S
H707 C702 0.929 . S
O708 Mn684 2.385 . S
O708 C686 1.234 . S
O709 Mn684 2.209 . S
O709 Mn685 2.215 . S
O709 C686 1.283 . S
O710 Mn684 2.094 . S
O710 C688 1.240 . S
O711 Mn685 2.117 . S
O711 C688 1.264 . S
C712 C705 1.403 . S
C712 C713 1.399 . S
C712 H718 0.929 . S
C713 C693 1.449 . S
C713 C712 1.399 . S
C713 H719 0.930 . S
H714 C694 0.931 . S
H715 C695 0.930 . S
H716 C703 0.931 . S
H717 C704 0.929 . S
H718 C712 0.929 . S
H719 C713 0.930 . S
Mn720 O725 2.095 . S
Mn720 O735 2.162 . S
Mn720 O736 2.297 . S
Mn720 O744 2.385 . S
Mn720 O745 2.209 . S
Mn720 O746 2.043 1_554 S
Mn721 O726 2.121 1_556 S
Mn721 N728 2.257 . S
Mn721 N737 2.282 . S
Mn721 O745 2.215 1_556 S
Mn721 O747 2.117 . S
C722 O744 1.234 . S
C722 O745 1.283 . S
C723 O735 1.281 . S
C723 O736 1.236 . S
C724 O746 1.294 . S
C724 O747 1.264 . S
O725 Mn720 2.095 . S
O725 C734 1.250 . S
O726 Mn721 2.121 1_554 S
O726 C734 1.258 . S
C727 N728 1.326 . S
C727 C731 1.460 . S
C727 H733 0.929 1_556 S
N728 Mn721 2.257 . S
N728 C727 1.326 . S
N728 C732 1.362 . S
C729 C730 1.258 . S
C729 C732 1.431 . S
C729 C749 1.449 . S
C730 C729 1.258 . S
C730 C731 1.477 . S
C730 H750 0.931 . S
C731 C727 1.460 . S
C731 C730 1.477 . S
C731 H751 0.924 1_556 S
C732 N728 1.362 . S
C732 C729 1.431 . S
C732 C742 1.476 . S
H733 C727 0.929 1_554 S
C734 O725 1.250 . S
C734 O726 1.258 . S
O735 Mn720 2.162 . S
O735 C723 1.281 . S
O736 Mn720 2.297 . S
O736 C723 1.236 . S
N737 Mn721 2.282 . S
N737 C738 1.328 . S
N737 C742 1.318 . S
C738 N737 1.328 . S
C738 C739 1.457 . S
C738 H743 0.929 . S
C739 C738 1.457 . S
C739 C740 1.291 . S
C739 H752 0.931 . S
C740 C739 1.291 . S
C740 C741 1.373 . S
C740 H753 0.929 . S
C741 C740 1.373 . S
C741 C742 1.396 . S
C741 C748 1.403 . S
C742 C732 1.476 . S
C742 N737 1.318 . S
C742 C741 1.396 . S
H743 C738 0.929 . S
O744 Mn720 2.385 . S
O744 C722 1.234 . S
O745 Mn720 2.209 . S
O745 Mn721 2.215 1_554 S
O745 C722 1.283 . S
O746 Mn720 2.043 1_556 S
O746 C724 1.294 . S
O747 Mn721 2.117 . S
O747 C724 1.264 . S
C748 C741 1.403 . S
C748 C749 1.399 . S
C748 H754 0.929 . S
C749 C729 1.449 . S
C749 C748 1.399 . S
C749 H755 0.930 . S
H750 C730 0.931 . S
H751 C731 0.924 1_554 S
H752 C739 0.931 . S
H753 C740 0.929 . S
H754 C748 0.929 . S
H755 C749 0.930 . S
Mn756 O761 2.095 . S
Mn756 O771 2.162 . S
Mn756 O772 2.297 . S
Mn756 O780 2.385 . S
Mn756 O781 2.209 . S
Mn756 O782 2.094 . S
Mn757 O762 2.121 . S
Mn757 N764 2.257 . S
Mn757 N773 2.282 . S
Mn757 O781 2.215 . S
Mn757 O783 2.117 . S
C758 O780 1.234 . S
C758 O781 1.283 . S
C759 O771 1.281 . S
C759 O772 1.236 . S
C760 O782 1.240 . S
C760 O783 1.264 . S
O761 Mn756 2.095 . S
O761 C770 1.250 . S
O762 Mn757 2.121 . S
O762 C770 1.258 . S
C763 N764 1.326 . S
C763 C767 1.460 . S
C763 H769 0.929 . S
N764 Mn757 2.257 . S
N764 C763 1.326 . S
N764 C768 1.362 . S
C765 C766 1.258 . S
C765 C768 1.431 . S
C765 C785 1.449 . S
C766 C765 1.258 . S
C766 C767 1.477 . S
C766 H786 0.931 . S
C767 C763 1.460 . S
C767 C766 1.477 . S
C767 H787 0.930 . S
C768 N764 1.362 . S
C768 C765 1.431 . S
C768 C778 1.476 . S
H769 C763 0.929 . S
C770 O761 1.250 . S
C770 O762 1.258 . S
O771 Mn756 2.162 . S
O771 C759 1.281 . S
O772 Mn756 2.297 . S
O772 C759 1.236 . S
N773 Mn757 2.282 . S
N773 C774 1.328 . S
N773 C778 1.318 . S
C774 N773 1.328 . S
C774 C775 1.457 . S
C774 H779 0.929 . S
C775 C774 1.457 . S
C775 C776 1.291 . S
C775 H788 0.931 . S
C776 C775 1.291 . S
C776 C777 1.373 . S
C776 H789 0.929 . S
C777 C776 1.373 . S
C777 C778 1.396 . S
C777 C784 1.403 . S
C778 C768 1.476 . S
C778 N773 1.318 . S
C778 C777 1.396 . S
H779 C774 0.929 . S
O780 Mn756 2.385 . S
O780 C758 1.234 . S
O781 Mn756 2.209 . S
O781 Mn757 2.215 . S
O781 C758 1.283 . S
O782 Mn756 2.094 . S
O782 C760 1.240 . S
O783 Mn757 2.117 . S
O783 C760 1.264 . S
C784 C777 1.403 . S
C784 C785 1.399 . S
C784 H790 0.929 . S
C785 C765 1.449 . S
C785 C784 1.399 . S
C785 H791 0.930 . S
H786 C766 0.931 . S
H787 C767 0.930 . S
H788 C775 0.931 . S
H789 C776 0.929 . S
H790 C784 0.929 . S
H791 C785 0.930 . S
Mn792 O797 2.095 . S
Mn792 O807 2.162 . S
Mn792 O808 2.297 . S
Mn792 O816 2.385 . S
Mn792 O817 2.209 . S
Mn792 O818 2.094 . S
Mn793 O798 2.121 . S
Mn793 N800 2.257 . S
Mn793 N809 2.282 . S
Mn793 O817 2.215 . S
Mn793 O819 2.117 . S
C794 O816 1.234 . S
C794 O817 1.283 . S
C795 O807 1.281 . S
C795 O808 1.236 . S
C796 O818 1.240 . S
C796 O819 1.264 . S
O797 Mn792 2.095 . S
O797 C806 1.250 . S
O798 Mn793 2.121 . S
O798 C806 1.258 . S
C799 N800 1.326 . S
C799 C803 1.460 . S
C799 H805 0.929 . S
N800 Mn793 2.257 . S
N800 C799 1.326 . S
N800 C804 1.362 . S
C801 C802 1.258 . S
C801 C804 1.431 . S
C801 C821 1.449 . S
C802 C801 1.258 . S
C802 C803 1.477 . S
C802 H822 0.931 . S
C803 C799 1.460 . S
C803 C802 1.477 . S
C803 H823 0.930 . S
C804 N800 1.362 . S
C804 C801 1.431 . S
C804 C814 1.476 . S
H805 C799 0.929 . S
C806 O797 1.250 . S
C806 O798 1.258 . S
O807 Mn792 2.162 . S
O807 C795 1.281 . S
O808 Mn792 2.297 . S
O808 C795 1.236 . S
N809 Mn793 2.282 . S
N809 C810 1.328 . S
N809 C814 1.318 . S
C810 N809 1.328 . S
C810 C811 1.457 . S
C810 H815 0.929 . S
C811 C810 1.457 . S
C811 C812 1.291 . S
C811 H824 0.931 . S
C812 C811 1.291 . S
C812 C813 1.373 . S
C812 H825 0.929 . S
C813 C812 1.373 . S
C813 C814 1.396 . S
C813 C820 1.403 . S
C814 C804 1.476 . S
C814 N809 1.318 . S
C814 C813 1.396 . S
H815 C810 0.929 . S
O816 Mn792 2.385 . S
O816 C794 1.234 . S
O817 Mn792 2.209 . S
O817 Mn793 2.215 . S
O817 C794 1.283 . S
O818 Mn792 2.094 . S
O818 C796 1.240 . S
O819 Mn793 2.117 . S
O819 C796 1.264 . S
C820 C813 1.403 . S
C820 C821 1.399 . S
C820 H826 0.929 . S
C821 C801 1.449 . S
C821 C820 1.399 . S
C821 H827 0.930 . S
H822 C802 0.931 . S
H823 C803 0.930 . S
H824 C811 0.931 . S
H825 C812 0.929 . S
H826 C820 0.929 . S
H827 C821 0.930 . S
Mn828 O833 2.095 . S
Mn828 O843 2.162 . S
Mn828 O844 2.297 . S
Mn828 O852 2.385 . S
Mn828 O853 2.209 . S
Mn828 O854 2.094 . S
Mn829 O834 2.121 . S
Mn829 N836 2.257 . S
Mn829 N845 2.282 . S
Mn829 O853 2.215 . S
Mn829 O855 2.117 . S
C830 O852 1.234 . S
C830 O853 1.283 . S
C831 O843 1.281 . S
C831 O844 1.236 . S
C832 O854 1.240 . S
C832 O855 1.264 . S
O833 Mn828 2.095 . S
O833 C842 1.250 . S
O834 Mn829 2.121 . S
O834 C842 1.258 . S
C835 N836 1.326 . S
C835 C839 1.460 . S
C835 H841 0.929 . S
N836 Mn829 2.257 . S
N836 C835 1.326 . S
N836 C840 1.362 . S
C837 C838 1.258 . S
C837 C840 1.431 . S
C837 C857 1.449 . S
C838 C837 1.258 . S
C838 C839 1.477 . S
C838 H858 0.931 . S
C839 C835 1.460 . S
C839 C838 1.477 . S
C839 H859 0.930 . S
C840 N836 1.362 . S
C840 C837 1.431 . S
C840 C850 1.476 . S
H841 C835 0.929 . S
C842 O833 1.250 . S
C842 O834 1.258 . S
O843 Mn828 2.162 . S
O843 C831 1.281 . S
O844 Mn828 2.297 . S
O844 C831 1.236 . S
N845 Mn829 2.282 . S
N845 C846 1.328 . S
N845 C850 1.318 . S
C846 N845 1.328 . S
C846 C847 1.457 . S
C846 H851 0.929 . S
C847 C846 1.457 . S
C847 C848 1.291 . S
C847 H860 0.931 . S
C848 C847 1.291 . S
C848 C849 1.373 . S
C848 H861 0.929 . S
C849 C848 1.373 . S
C849 C850 1.396 . S
C849 C856 1.403 . S
C850 C840 1.476 . S
C850 N845 1.318 . S
C850 C849 1.396 . S
H851 C846 0.929 . S
O852 Mn828 2.385 . S
O852 C830 1.234 . S
O853 Mn828 2.209 . S
O853 Mn829 2.215 . S
O853 C830 1.283 . S
O854 Mn828 2.094 . S
O854 C832 1.240 . S
O855 Mn829 2.117 . S
O855 C832 1.264 . S
C856 C849 1.403 . S
C856 C857 1.399 . S
C856 H862 0.929 . S
C857 C837 1.449 . S
C857 C856 1.399 . S
C857 H863 0.930 . S
H858 C838 0.931 . S
H859 C839 0.930 . S
H860 C847 0.931 . S
H861 C848 0.929 . S
H862 C856 0.929 . S
H863 C857 0.930 . S
Dy864 O867 2.307 . S
Dy864 O869 2.395 . S
Dy864 O870 2.379 . S
Dy864 O872 2.339 . S
Dy864 O874 2.298 . S
Dy864 O878 2.275 . S
Dy864 C886 2.738 . S
Dy865 O868 2.298 1_655 S
Dy865 O871 2.275 1_655 S
Dy865 O873 2.307 1_645 S
Dy865 O875 2.395 . S
Dy865 O876 2.379 1_554 S
Dy865 O879 2.339 1_654 S
Dy865 C895 2.738 . S
C866 O878 1.254 1_556 S
C866 O879 1.257 . S
O867 Dy864 2.307 . S
O867 C877 1.266 . S
O868 Dy865 2.298 1_455 S
O868 C877 1.236 . S
O869 Dy864 2.395 . S
O869 C886 1.255 . S
O870 Dy864 2.379 . S
O870 C886 1.249 . S
O871 Dy865 2.275 1_455 S
O871 C887 1.254 . S
O872 Dy864 2.339 . S
O872 C887 1.257 . S
O873 Dy865 2.307 1_465 S
O873 C888 1.266 . S
O874 Dy864 2.298 . S
O874 C888 1.236 1_545 S
O875 Dy865 2.395 . S
O875 C895 1.255 . S
O876 Dy865 2.379 1_556 S
O876 C895 1.249 1_556 S
C877 O867 1.266 . S
C877 O868 1.236 . S
O878 Dy864 2.275 . S
O878 C866 1.254 1_554 S
O879 Dy865 2.339 1_456 S
O879 C866 1.257 . S
C880 C883 1.318 1_545 S
C880 C884 1.328 . S
C880 C886 1.516 . S
C881 C882 1.304 . S
C881 C885 1.323 1_565 S
C882 C881 1.304 . S
C882 C883 1.397 . S
C882 H896 0.930 . S
C883 C880 1.318 1_565 S
C883 C882 1.397 . S
C883 H897 0.933 . S
C884 C880 1.328 . S
C884 C885 1.433 . S
C884 H898 0.931 . S
C885 C881 1.323 1_545 S
C885 C884 1.433 . S
C885 H899 0.933 . S
C886 Dy864 2.738 . S
C886 O869 1.255 . S
C886 O870 1.249 . S
C886 C880 1.516 . S
C887 O871 1.254 . S
C887 O872 1.257 . S
C888 O873 1.266 . S
C888 O874 1.236 1_565 S
C889 C892 1.344 . S
C889 C893 1.328 1_554 S
C889 C895 1.516 . S
C890 C891 1.304 . S
C890 C894 1.323 1_554 S
C891 C890 1.304 . S
C891 C892 1.371 . S
C891 H900 0.930 . S
C892 C889 1.344 . S
C892 C891 1.371 . S
C892 H901 0.931 . S
C893 C889 1.328 1_556 S
C893 C894 1.433 . S
C893 H902 0.931 . S
C894 C890 1.323 1_556 S
C894 C893 1.433 . S
C894 H903 0.933 . S
C895 Dy865 2.738 . S
C895 O875 1.255 . S
C895 O876 1.249 1_554 S
C895 C889 1.516 . S
H896 C882 0.930 . S
H897 C883 0.933 . S
H898 C884 0.931 . S
H899 C885 0.933 . S
H900 C891 0.930 . S
H901 C892 0.931 . S
H902 C893 0.931 . S
H903 C894 0.933 . S
Dy904 O907 2.307 . S
Dy904 O909 2.395 . S
Dy904 O910 2.379 . S
Dy904 O912 2.339 . S
Dy904 O914 2.298 . S
Dy904 O918 2.275 . S
Dy904 C926 2.738 . S
Dy905 O908 2.298 . S
Dy905 O911 2.275 . S
Dy905 O913 2.307 . S
Dy905 O915 2.395 . S
Dy905 O916 2.379 . S
Dy905 O919 2.339 . S
Dy905 C935 2.738 . S
C906 O918 1.254 . S
C906 O919 1.257 . S
O907 Dy904 2.307 . S
O907 C917 1.266 . S
O908 Dy905 2.298 . S
O908 C917 1.236 . S
O909 Dy904 2.395 . S
O909 C926 1.255 . S
O910 Dy904 2.379 . S
O910 C926 1.249 . S
O911 Dy905 2.275 . S
O911 C927 1.254 . S
O912 Dy904 2.339 . S
O912 C927 1.257 . S
O913 Dy905 2.307 . S
O913 C928 1.266 . S
O914 Dy904 2.298 . S
O914 C928 1.236 . S
O915 Dy905 2.395 . S
O915 C935 1.255 . S
O916 Dy905 2.379 . S
O916 C935 1.249 . S
C917 O907 1.266 . S
C917 O908 1.236 . S
O918 Dy904 2.275 . S
O918 C906 1.254 . S
O919 Dy905 2.339 . S
O919 C906 1.257 . S
C920 C923 1.344 . S
C920 C924 1.328 . S
C920 C926 1.516 . S
C921 C922 1.304 . S
C921 C925 1.323 . S
C922 C921 1.304 . S
C922 C923 1.371 . S
C922 H936 0.930 . S
C923 C920 1.344 . S
C923 C922 1.371 . S
C923 H937 0.931 . S
C924 C920 1.328 . S
C924 C925 1.433 . S
C924 H938 0.931 . S
C925 C921 1.323 . S
C925 C924 1.433 . S
C925 H939 0.933 . S
C926 Dy904 2.738 . S
C926 O909 1.255 . S
C926 O910 1.249 . S
C926 C920 1.516 . S
C927 O911 1.254 . S
C927 O912 1.257 . S
C928 O913 1.266 . S
C928 O914 1.236 . S
C929 C932 1.344 . S
C929 C933 1.328 . S
C929 C935 1.516 . S
C930 C931 1.304 . S
C930 C934 1.323 . S
C931 C930 1.304 . S
C931 C932 1.371 . S
C931 H940 0.930 . S
C932 C929 1.344 . S
C932 C931 1.371 . S
C932 H941 0.931 . S
C933 C929 1.328 . S
C933 C934 1.433 . S
C933 H942 0.931 . S
C934 C930 1.323 . S
C934 C933 1.433 . S
C934 H943 0.933 . S
C935 Dy905 2.738 . S
C935 O915 1.255 . S
C935 O916 1.249 . S
C935 C929 1.516 . S
H936 C922 0.930 . S
H937 C923 0.931 . S
H938 C924 0.931 . S
H939 C925 0.933 . S
H940 C931 0.930 . S
H941 C932 0.931 . S
H942 C933 0.931 . S
H943 C934 0.933 . S
Dy944 O947 2.307 . S
Dy944 O949 2.395 . S
Dy944 O950 2.379 . S
Dy944 O952 2.339 . S
Dy944 O954 2.298 . S
Dy944 O958 2.275 . S
Dy944 C966 2.738 . S
Dy945 O948 2.298 . S
Dy945 O951 2.275 . S
Dy945 O953 2.307 . S
Dy945 O955 2.395 . S
Dy945 O956 2.379 . S
Dy945 O959 2.339 . S
Dy945 C975 2.738 . S
C946 O958 1.254 . S
C946 O959 1.257 . S
O947 Dy944 2.307 . S
O947 C957 1.235 1_545 S
O948 Dy945 2.298 . S
O948 C957 1.212 1_545 S
O949 Dy944 2.395 . S
O949 C966 1.255 . S
O950 Dy944 2.379 . S
O950 C966 1.249 . S
O951 Dy945 2.275 . S
O951 C967 1.254 . S
O952 Dy944 2.339 . S
O952 C967 1.257 . S
O953 Dy945 2.307 . S
O953 C968 1.266 . S
O954 Dy944 2.298 . S
O954 C968 1.236 . S
O955 Dy945 2.395 . S
O955 C975 1.255 . S
O956 Dy945 2.379 . S
O956 C975 1.249 . S
C957 O947 1.235 1_565 S
C957 O948 1.212 1_565 S
O958 Dy944 2.275 . S
O958 C946 1.254 . S
O959 Dy945 2.339 . S
O959 C946 1.257 . S
C960 C963 1.344 . S
C960 C964 1.328 . S
C960 C966 1.516 . S
C961 C962 1.304 . S
C961 C965 1.323 . S
C962 C961 1.304 . S
C962 C963 1.371 . S
C962 H976 0.930 . S
C963 C960 1.344 . S
C963 C962 1.371 . S
C963 H977 0.931 . S
C964 C960 1.328 . S
C964 C965 1.433 . S
C964 H978 0.931 . S
C965 C961 1.323 . S
C965 C964 1.433 . S
C965 H979 0.933 . S
C966 Dy944 2.738 . S
C966 O949 1.255 . S
C966 O950 1.249 . S
C966 C960 1.516 . S
C967 O951 1.254 . S
C967 O952 1.257 . S
C968 O953 1.266 . S
C968 O954 1.236 . S
C969 C972 1.327 1_545 S
C969 C973 1.328 . S
C969 C975 1.516 . S
C970 C971 1.304 . S
C970 C974 1.323 . S
C971 C970 1.304 . S
C971 C972 1.387 . S
C971 H980 0.930 . S
C972 C969 1.327 1_565 S
C972 C971 1.387 . S
C972 H981 0.932 . S
C973 C969 1.328 . S
C973 C974 1.433 1_545 S
C973 H982 0.931 . S
C974 C970 1.323 . S
C974 C973 1.433 1_565 S
C974 H983 0.933 . S
C975 Dy945 2.738 . S
C975 O955 1.255 . S
C975 O956 1.249 . S
C975 C969 1.516 . S
H976 C962 0.930 . S
H977 C963 0.931 . S
H978 C964 0.931 . S
H979 C965 0.933 . S
H980 C971 0.930 . S
H981 C972 0.932 . S
H982 C973 0.931 . S
H983 C974 0.933 . S
Dy984 O987 2.307 . S
Dy984 O989 2.395 . S
Dy984 O990 2.379 . S
Dy984 O992 2.339 . S
Dy984 O994 2.298 . S
Dy984 O998 2.275 . S
Dy984 C1006 2.738 . S
Dy985 O988 2.298 . S
Dy985 O991 2.275 . S
Dy985 O993 2.307 . S
Dy985 O995 2.395 . S
Dy985 O996 2.379 . S
Dy985 O999 2.339 . S
Dy985 C1015 2.738 . S
C986 O998 1.254 . S
C986 O999 1.257 . S
O987 Dy984 2.307 . S
O987 C997 1.266 . S
O988 Dy985 2.298 . S
O988 C997 1.236 . S
O989 Dy984 2.395 . S
O989 C1006 1.255 . S
O990 Dy984 2.379 . S
O990 C1006 1.249 . S
O991 Dy985 2.275 . S
O991 C1007 1.254 . S
O992 Dy984 2.339 . S
O992 C1007 1.257 . S
O993 Dy985 2.307 . S
O993 C1008 1.266 . S
O994 Dy984 2.298 . S
O994 C1008 1.236 . S
O995 Dy985 2.395 . S
O995 C1015 1.255 . S
O996 Dy985 2.379 . S
O996 C1015 1.249 . S
C997 O987 1.266 . S
C997 O988 1.236 . S
O998 Dy984 2.275 . S
O998 C986 1.254 . S
O999 Dy985 2.339 . S
O999 C986 1.257 . S
C1000 C1003 1.344 . S
C1000 C1004 1.328 . S
C1000 C1006 1.516 . S
C1001 C1002 1.304 . S
C1001 C1005 1.323 . S
C1002 C1001 1.304 . S
C1002 C1003 1.371 . S
C1002 H1016 0.930 . S
C1003 C1000 1.344 . S
C1003 C1002 1.371 . S
C1003 H1017 0.931 . S
C1004 C1000 1.328 . S
C1004 C1005 1.433 . S
C1004 H1018 0.931 . S
C1005 C1001 1.323 . S
C1005 C1004 1.433 . S
C1005 H1019 0.933 . S
C1006 Dy984 2.738 . S
C1006 O989 1.255 . S
C1006 O990 1.249 . S
C1006 C1000 1.516 . S
C1007 O991 1.254 . S
C1007 O992 1.257 . S
C1008 O993 1.266 . S
C1008 O994 1.236 . S
C1009 C1012 1.344 . S
C1009 C1013 1.328 . S
C1009 C1015 1.516 . S
C1010 C1011 1.304 . S
C1010 C1014 1.323 . S
C1011 C1010 1.304 . S
C1011 C1012 1.371 . S
C1011 H1020 0.930 . S
C1012 C1009 1.344 . S
C1012 C1011 1.371 . S
C1012 H1021 0.931 . S
C1013 C1009 1.328 . S
C1013 C1014 1.433 . S
C1013 H1022 0.931 . S
C1014 C1010 1.323 . S
C1014 C1013 1.433 . S
C1014 H1023 0.933 . S
C1015 Dy985 2.738 . S
C1015 O995 1.255 . S
C1015 O996 1.249 . S
C1015 C1009 1.516 . S
H1016 C1002 0.930 . S
H1017 C1003 0.931 . S
H1018 C1004 0.931 . S
H1019 C1005 0.933 . S
H1020 C1011 0.930 . S
H1021 C1012 0.931 . S
H1022 C1013 0.931 . S
H1023 C1014 0.933 . S
Dy1024 O1027 2.307 . S
Dy1024 O1029 2.395 1_545 S
Dy1024 O1030 2.379 1_545 S
Dy1024 O1032 2.339 . S
Dy1024 O1034 2.298 . S
Dy1024 O1038 2.275 . S
Dy1024 C1046 2.738 1_545 S
Dy1025 O1028 2.298 . S
Dy1025 O1031 2.275 . S
Dy1025 O1033 2.307 . S
Dy1025 O1035 2.395 . S
Dy1025 O1036 2.379 1_455 S
Dy1025 O1039 2.339 1_455 S
Dy1025 C1055 2.738 . S
C1026 O1038 1.254 1_655 S
C1026 O1039 1.257 . S
O1027 Dy1024 2.307 . S
O1027 C1037 1.266 . S
O1028 Dy1025 2.298 . S
O1028 C1037 1.236 . S
O1029 Dy1024 2.395 1_565 S
O1029 C1046 1.255 . S
O1030 Dy1024 2.379 1_565 S
O1030 C1046 1.249 . S
O1031 Dy1025 2.275 . S
O1031 C1047 1.254 . S
O1032 Dy1024 2.339 . S
O1032 C1047 1.257 . S
O1033 Dy1025 2.307 . S
O1033 C1048 1.266 . S
O1034 Dy1024 2.298 . S
O1034 C1048 1.236 . S
O1035 Dy1025 2.395 . S
O1035 C1055 1.255 . S
O1036 Dy1025 2.379 1_655 S
O1036 C1055 1.249 1_655 S
C1037 O1027 1.266 . S
C1037 O1028 1.236 . S
O1038 Dy1024 2.275 . S
O1038 C1026 1.254 1_455 S
O1039 Dy1025 2.339 1_655 S
O1039 C1026 1.257 . S
C1040 C1043 1.344 . S
C1040 C1044 1.328 . S
C1040 C1046 1.516 . S
C1041 C1042 1.304 . S
C1041 C1045 1.323 . S
C1042 C1041 1.304 . S
C1042 C1043 1.371 . S
C1042 H1056 0.930 . S
C1043 C1040 1.344 . S
C1043 C1042 1.371 . S
C1043 H1057 0.931 . S
C1044 C1040 1.328 . S
C1044 C1045 1.433 . S
C1044 H1058 0.931 . S
C1045 C1041 1.323 . S
C1045 C1044 1.433 . S
C1045 H1059 0.933 . S
C1046 Dy1024 2.738 1_565 S
C1046 O1029 1.255 . S
C1046 O1030 1.249 . S
C1046 C1040 1.516 . S
C1047 O1031 1.254 . S
C1047 O1032 1.257 . S
C1048 O1033 1.266 . S
C1048 O1034 1.236 . S
C1049 C1052 1.344 . S
C1049 C1053 1.328 1_455 S
C1049 C1055 1.516 . S
C1050 C1051 1.304 . S
C1050 C1054 1.323 1_455 S
C1051 C1050 1.304 . S
C1051 C1052 1.371 . S
C1051 H1060 0.930 . S
C1052 C1049 1.344 . S
C1052 C1051 1.371 . S
C1052 H1061 0.931 . S
C1053 C1049 1.328 1_655 S
C1053 C1054 1.433 . S
C1053 H1062 0.931 . S
C1054 C1050 1.323 1_655 S
C1054 C1053 1.433 . S
C1054 H1063 0.933 . S
C1055 Dy1025 2.738 . S
C1055 O1035 1.255 . S
C1055 O1036 1.249 1_455 S
C1055 C1049 1.516 . S
H1056 C1042 0.930 . S
H1057 C1043 0.931 . S
H1058 C1044 0.931 . S
H1059 C1045 0.933 . S
H1060 C1051 0.930 . S
H1061 C1052 0.931 . S
H1062 C1053 0.931 . S
H1063 C1054 0.933 . S
Dy1064 O1067 2.307 . S
Dy1064 O1069 2.395 . S
Dy1064 O1070 2.379 . S
Dy1064 O1072 2.339 . S
Dy1064 O1074 2.298 . S
Dy1064 O1078 2.275 . S
Dy1064 C1086 2.738 . S
Dy1065 O1068 2.298 . S
Dy1065 O1071 2.275 . S
Dy1065 O1073 2.307 . S
Dy1065 O1075 2.395 . S
Dy1065 O1076 2.379 . S
Dy1065 O1079 2.339 . S
Dy1065 C1095 2.738 . S
C1066 O1078 1.254 . S
C1066 O1079 1.257 . S
O1067 Dy1064 2.307 . S
O1067 C1077 1.266 . S
O1068 Dy1065 2.298 . S
O1068 C1077 1.236 . S
O1069 Dy1064 2.395 . S
O1069 C1086 1.255 . S
O1070 Dy1064 2.379 . S
O1070 C1086 1.249 . S
O1071 Dy1065 2.275 . S
O1071 C1087 1.254 . S
O1072 Dy1064 2.339 . S
O1072 C1087 1.257 . S
O1073 Dy1065 2.307 . S
O1073 C1088 1.266 . S
O1074 Dy1064 2.298 . S
O1074 C1088 1.236 . S
O1075 Dy1065 2.395 . S
O1075 C1095 1.255 . S
O1076 Dy1065 2.379 . S
O1076 C1095 1.249 . S
C1077 O1067 1.266 . S
C1077 O1068 1.236 . S
O1078 Dy1064 2.275 . S
O1078 C1066 1.254 . S
O1079 Dy1065 2.339 . S
O1079 C1066 1.257 . S
C1080 C1083 1.344 . S
C1080 C1084 1.328 . S
C1080 C1086 1.516 . S
C1081 C1082 1.304 . S
C1081 C1085 1.323 . S
C1082 C1081 1.304 . S
C1082 C1083 1.371 . S
C1082 H1096 0.930 . S
C1083 C1080 1.344 . S
C1083 C1082 1.371 . S
C1083 H1097 0.931 . S
C1084 C1080 1.328 . S
C1084 C1085 1.433 . S
C1084 H1098 0.931 . S
C1085 C1081 1.323 . S
C1085 C1084 1.433 . S
C1085 H1099 0.933 . S
C1086 Dy1064 2.738 . S
C1086 O1069 1.255 . S
C1086 O1070 1.249 . S
C1086 C1080 1.516 . S
C1087 O1071 1.254 . S
C1087 O1072 1.257 . S
C1088 O1073 1.266 . S
C1088 O1074 1.236 . S
C1089 C1092 1.344 . S
C1089 C1093 1.328 . S
C1089 C1095 1.516 . S
C1090 C1091 1.304 . S
C1090 C1094 1.323 . S
C1091 C1090 1.304 . S
C1091 C1092 1.371 . S
C1091 H1100 0.930 . S
C1092 C1089 1.344 . S
C1092 C1091 1.371 . S
C1092 H1101 0.931 . S
C1093 C1089 1.328 . S
C1093 C1094 1.433 . S
C1093 H1102 0.931 . S
C1094 C1090 1.323 . S
C1094 C1093 1.433 . S
C1094 H1103 0.933 . S
C1095 Dy1065 2.738 . S
C1095 O1075 1.255 . S
C1095 O1076 1.249 . S
C1095 C1089 1.516 . S
H1096 C1082 0.930 . S
H1097 C1083 0.931 . S
H1098 C1084 0.931 . S
H1099 C1085 0.933 . S
H1100 C1091 0.930 . S
H1101 C1092 0.931 . S
H1102 C1093 0.931 . S
H1103 C1094 0.933 . S
Dy1104 O1107 2.288 1_556 S
Dy1104 O1109 2.427 . S
Dy1104 O1110 2.408 . S
Dy1104 O1112 2.318 1_556 S
Dy1104 O1114 2.284 1_556 S
Dy1104 O1118 2.260 1_556 S
Dy1104 C1126 2.773 . S
Dy1105 O1108 2.298 . S
Dy1105 O1111 2.275 . S
Dy1105 O1113 2.307 . S
Dy1105 O1115 2.395 . S
Dy1105 O1116 2.379 . S
Dy1105 O1119 2.300 1_545 S
Dy1105 C1135 2.738 . S
C1106 O1118 1.254 . S
C1106 O1119 1.242 1_545 S
O1107 Dy1104 2.288 1_554 S
O1107 C1117 1.266 . S
O1108 Dy1105 2.298 . S
O1108 C1117 1.236 . S
O1109 Dy1104 2.427 . S
O1109 C1126 1.255 . S
O1110 Dy1104 2.408 . S
O1110 C1126 1.249 . S
O1111 Dy1105 2.275 . S
O1111 C1127 1.254 . S
O1112 Dy1104 2.318 1_554 S
O1112 C1127 1.257 . S
O1113 Dy1105 2.307 . S
O1113 C1128 1.266 . S
O1114 Dy1104 2.284 1_554 S
O1114 C1128 1.236 . S
O1115 Dy1105 2.395 . S
O1115 C1135 1.255 . S
O1116 Dy1105 2.379 . S
O1116 C1135 1.249 . S
C1117 O1107 1.266 . S
C1117 O1108 1.236 . S
O1118 Dy1104 2.260 1_554 S
O1118 C1106 1.254 . S
O1119 Dy1105 2.300 1_565 S
O1119 C1106 1.242 1_565 S
C1120 C1123 1.344 . S
C1120 C1124 1.328 . S
C1120 C1126 1.516 . S
C1121 C1122 1.304 . S
C1121 C1125 1.323 . S
C1122 C1121 1.304 . S
C1122 C1123 1.371 . S
C1122 H1136 0.930 . S
C1123 C1120 1.344 . S
C1123 C1122 1.371 . S
C1123 H1137 0.931 . S
C1124 C1120 1.328 . S
C1124 C1125 1.433 . S
C1124 H1138 0.931 . S
C1125 C1121 1.323 . S
C1125 C1124 1.433 . S
C1125 H1139 0.933 . S
C1126 Dy1104 2.773 . S
C1126 O1109 1.255 . S
C1126 O1110 1.249 . S
C1126 C1120 1.516 . S
C1127 O1111 1.254 . S
C1127 O1112 1.257 . S
C1128 O1113 1.266 . S
C1128 O1114 1.236 . S
C1129 C1132 1.344 . S
C1129 C1133 1.328 1_545 S
C1129 C1135 1.516 . S
C1130 C1131 1.304 1_565 S
C1130 C1134 1.323 . S
C1131 C1130 1.304 1_545 S
C1131 C1132 1.371 . S
C1131 H1140 0.930 . S
C1132 C1129 1.344 . S
C1132 C1131 1.371 . S
C1132 H1141 0.931 . S
C1133 C1129 1.328 1_565 S
C1133 C1134 1.433 . S
C1133 H1142 0.931 . S
C1134 C1130 1.323 . S
C1134 C1133 1.433 . S
C1134 H1143 0.933 . S
C1135 Dy1105 2.738 . S
C1135 O1115 1.255 . S
C1135 O1116 1.249 . S
C1135 C1129 1.516 . S
H1136 C1122 0.930 . S
H1137 C1123 0.931 . S
H1138 C1124 0.931 . S
H1139 C1125 0.933 . S
H1140 C1131 0.930 . S
H1141 C1132 0.931 . S
H1142 C1133 0.931 . S
H1143 C1134 0.933 . S
Dy1144 O1147 2.307 . S
Dy1144 O1149 2.395 . S
Dy1144 O1150 2.379 . S
Dy1144 O1152 2.339 . S
Dy1144 O1154 2.298 . S
Dy1144 O1158 2.275 . S
Dy1144 C1166 2.738 . S
Dy1145 O1148 2.298 . S
Dy1145 O1151 2.275 . S
Dy1145 O1153 2.307 . S
Dy1145 O1155 2.395 . S
Dy1145 O1156 2.379 . S
Dy1145 O1159 2.339 . S
Dy1145 C1175 2.738 . S
C1146 O1158 1.254 . S
C1146 O1159 1.257 . S
O1147 Dy1144 2.307 . S
O1147 C1157 1.266 . S
O1148 Dy1145 2.298 . S
O1148 C1157 1.236 . S
O1149 Dy1144 2.395 . S
O1149 C1166 1.255 . S
O1150 Dy1144 2.379 . S
O1150 C1166 1.249 . S
O1151 Dy1145 2.275 . S
O1151 C1167 1.254 . S
O1152 Dy1144 2.339 . S
O1152 C1167 1.257 . S
O1153 Dy1145 2.307 . S
O1153 C1168 1.266 . S
O1154 Dy1144 2.298 . S
O1154 C1168 1.236 . S
O1155 Dy1145 2.395 . S
O1155 C1175 1.255 . S
O1156 Dy1145 2.379 . S
O1156 C1175 1.249 . S
C1157 O1147 1.266 . S
C1157 O1148 1.236 . S
O1158 Dy1144 2.275 . S
O1158 C1146 1.254 . S
O1159 Dy1145 2.339 . S
O1159 C1146 1.257 . S
C1160 C1163 1.344 . S
C1160 C1164 1.328 . S
C1160 C1166 1.516 . S
C1161 C1162 1.304 . S
C1161 C1165 1.323 . S
C1162 C1161 1.304 . S
C1162 C1163 1.371 . S
C1162 H1176 0.930 . S
C1163 C1160 1.344 . S
C1163 C1162 1.371 . S
C1163 H1177 0.931 . S
C1164 C1160 1.328 . S
C1164 C1165 1.433 . S
C1164 H1178 0.931 . S
C1165 C1161 1.323 . S
C1165 C1164 1.433 . S
C1165 H1179 0.933 . S
C1166 Dy1144 2.738 . S
C1166 O1149 1.255 . S
C1166 O1150 1.249 . S
C1166 C1160 1.516 . S
C1167 O1151 1.254 . S
C1167 O1152 1.257 . S
C1168 O1153 1.266 . S
C1168 O1154 1.236 . S
C1169 C1172 1.344 . S
C1169 C1173 1.328 . S
C1169 C1175 1.516 . S
C1170 C1171 1.304 . S
C1170 C1174 1.323 . S
C1171 C1170 1.304 . S
C1171 C1172 1.371 . S
C1171 H1180 0.930 . S
C1172 C1169 1.344 . S
C1172 C1171 1.371 . S
C1172 H1181 0.931 . S
C1173 C1169 1.328 . S
C1173 C1174 1.433 . S
C1173 H1182 0.931 . S
C1174 C1170 1.323 . S
C1174 C1173 1.433 . S
C1174 H1183 0.933 . S
C1175 Dy1145 2.738 . S
C1175 O1155 1.255 . S
C1175 O1156 1.249 . S
C1175 C1169 1.516 . S
H1176 C1162 0.930 . S
H1177 C1163 0.931 . S
H1178 C1164 0.931 . S
H1179 C1165 0.933 . S
H1180 C1171 0.930 . S
H1181 C1172 0.931 . S
H1182 C1173 0.931 . S
H1183 C1174 0.933 . S
Dy1184 O1187 2.307 1_554 S
Dy1184 O1189 2.395 . S
Dy1184 O1190 2.379 . S
Dy1184 O1192 2.339 . S
Dy1184 O1194 2.298 . S
Dy1184 O1198 2.275 . S
Dy1184 C1206 2.738 . S
Dy1185 O1188 2.298 1_554 S
Dy1185 O1191 2.275 . S
Dy1185 O1193 2.307 . S
Dy1185 O1195 2.395 . S
Dy1185 O1196 2.379 . S
Dy1185 O1199 2.339 . S
Dy1185 C1215 2.738 . S
C1186 O1198 1.254 . S
C1186 O1199 1.257 . S
O1187 Dy1184 2.307 1_556 S
O1187 C1197 1.266 . S
O1188 Dy1185 2.298 1_556 S
O1188 C1197 1.236 . S
O1189 Dy1184 2.395 . S
O1189 C1206 1.255 . S
O1190 Dy1184 2.379 . S
O1190 C1206 1.249 . S
O1191 Dy1185 2.275 . S
O1191 C1207 1.254 . S
O1192 Dy1184 2.339 . S
O1192 C1207 1.257 . S
O1193 Dy1185 2.307 . S
O1193 C1208 1.266 . S
O1194 Dy1184 2.298 . S
O1194 C1208 1.236 . S
O1195 Dy1185 2.395 . S
O1195 C1215 1.255 . S
O1196 Dy1185 2.379 . S
O1196 C1215 1.249 . S
C1197 O1187 1.266 . S
C1197 O1188 1.236 . S
O1198 Dy1184 2.275 . S
O1198 C1186 1.254 . S
O1199 Dy1185 2.339 . S
O1199 C1186 1.257 . S
C1200 C1203 1.344 . S
C1200 C1204 1.328 . S
C1200 C1206 1.516 . S
C1201 C1202 1.304 . S
C1201 C1205 1.323 . S
C1202 C1201 1.304 . S
C1202 C1203 1.371 . S
C1202 H1216 0.930 . S
C1203 C1200 1.344 . S
C1203 C1202 1.371 . S
C1203 H1217 0.931 . S
C1204 C1200 1.328 . S
C1204 C1205 1.433 . S
C1204 H1218 0.931 . S
C1205 C1201 1.323 . S
C1205 C1204 1.433 . S
C1205 H1219 0.933 . S
C1206 Dy1184 2.738 . S
C1206 O1189 1.255 . S
C1206 O1190 1.249 . S
C1206 C1200 1.516 . S
C1207 O1191 1.254 . S
C1207 O1192 1.257 . S
C1208 O1193 1.266 . S
C1208 O1194 1.236 . S
C1209 C1212 1.344 . S
C1209 C1213 1.328 . S
C1209 C1215 1.516 1_556 S
C1210 C1211 1.304 . S
C1210 C1214 1.323 . S
C1211 C1210 1.304 . S
C1211 C1212 1.371 . S
C1211 H1220 0.930 . S
C1212 C1209 1.344 . S
C1212 C1211 1.371 . S
C1212 H1221 0.931 . S
C1213 C1209 1.328 . S
C1213 C1214 1.433 . S
C1213 H1222 0.931 1_556 S
C1214 C1210 1.323 . S
C1214 C1213 1.433 . S
C1214 H1223 0.933 . S
C1215 Dy1185 2.738 . S
C1215 O1195 1.255 . S
C1215 O1196 1.249 . S
C1215 C1209 1.516 1_554 S
H1216 C1202 0.930 . S
H1217 C1203 0.931 . S
H1218 C1204 0.931 . S
H1219 C1205 0.933 . S
H1220 C1211 0.930 . S
H1221 C1212 0.931 . S
H1222 C1213 0.931 1_554 S
H1223 C1214 0.933 . S
Dy1224 O1227 2.307 . S
Dy1224 O1229 2.395 . S
Dy1224 O1230 2.379 . S
Dy1224 O1232 2.339 . S
Dy1224 O1234 2.298 . S
Dy1224 O1238 2.275 . S
Dy1224 C1246 2.738 . S
Dy1225 O1228 2.298 . S
Dy1225 O1231 2.275 . S
Dy1225 O1233 2.307 . S
Dy1225 O1235 2.395 . S
Dy1225 O1236 2.379 . S
Dy1225 O1239 2.339 . S
Dy1225 C1255 2.738 . S
C1226 O1238 1.254 . S
C1226 O1239 1.257 . S
O1227 Dy1224 2.307 . S
O1227 C1237 1.266 . S
O1228 Dy1225 2.298 . S
O1228 C1237 1.236 . S
O1229 Dy1224 2.395 . S
O1229 C1246 1.255 . S
O1230 Dy1224 2.379 . S
O1230 C1246 1.249 . S
O1231 Dy1225 2.275 . S
O1231 C1247 1.254 . S
O1232 Dy1224 2.339 . S
O1232 C1247 1.257 . S
O1233 Dy1225 2.307 . S
O1233 C1248 1.266 . S
O1234 Dy1224 2.298 . S
O1234 C1248 1.236 . S
O1235 Dy1225 2.395 . S
O1235 C1255 1.255 . S
O1236 Dy1225 2.379 . S
O1236 C1255 1.249 . S
C1237 O1227 1.266 . S
C1237 O1228 1.236 . S
O1238 Dy1224 2.275 . S
O1238 C1226 1.254 . S
O1239 Dy1225 2.339 . S
O1239 C1226 1.257 . S
C1240 C1243 1.344 . S
C1240 C1244 1.328 . S
C1240 C1246 1.516 . S
C1241 C1242 1.304 . S
C1241 C1245 1.323 . S
C1242 C1241 1.304 . S
C1242 C1243 1.371 . S
C1242 H1256 0.930 . S
C1243 C1240 1.344 . S
C1243 C1242 1.371 . S
C1243 H1257 0.931 . S
C1244 C1240 1.328 . S
C1244 C1245 1.433 . S
C1244 H1258 0.931 . S
C1245 C1241 1.323 . S
C1245 C1244 1.433 . S
C1245 H1259 0.933 . S
C1246 Dy1224 2.738 . S
C1246 O1229 1.255 . S
C1246 O1230 1.249 . S
C1246 C1240 1.516 . S
C1247 O1231 1.254 . S
C1247 O1232 1.257 . S
C1248 O1233 1.266 . S
C1248 O1234 1.236 . S
C1249 C1252 1.344 . S
C1249 C1253 1.328 . S
C1249 C1255 1.516 . S
C1250 C1251 1.304 . S
C1250 C1254 1.323 . S
C1251 C1250 1.304 . S
C1251 C1252 1.371 . S
C1251 H1260 0.930 . S
C1252 C1249 1.344 . S
C1252 C1251 1.371 . S
C1252 H1261 0.931 . S
C1253 C1249 1.328 . S
C1253 C1254 1.433 . S
C1253 H1262 0.931 . S
C1254 C1250 1.323 . S
C1254 C1253 1.433 . S
C1254 H1263 0.933 . S
C1255 Dy1225 2.738 . S
C1255 O1235 1.255 . S
C1255 O1236 1.249 . S
C1255 C1249 1.516 . S
H1256 C1242 0.930 . S
H1257 C1243 0.931 . S
H1258 C1244 0.931 . S
H1259 C1245 0.933 . S
H1260 C1251 0.930 . S
H1261 C1252 0.931 . S
H1262 C1253 0.931 . S
H1263 C1254 0.933 . S
Dy1264 O1267 2.307 1_455 S
Dy1264 O1269 2.395 . S
Dy1264 O1270 2.379 . S
Dy1264 O1272 2.339 . S
Dy1264 O1274 2.298 . S
Dy1264 O1278 2.275 . S
Dy1264 C1286 2.738 . S
Dy1265 O1268 2.298 1_455 S
Dy1265 O1271 2.275 . S
Dy1265 O1273 2.307 . S
Dy1265 O1275 2.395 . S
Dy1265 O1276 2.379 . S
Dy1265 O1279 2.339 . S
Dy1265 C1295 2.738 . S
C1266 O1278 1.254 . S
C1266 O1279 1.257 . S
O1267 Dy1264 2.307 1_655 S
O1267 C1277 1.266 . S
O1268 Dy1265 2.298 1_655 S
O1268 C1277 1.236 . S
O1269 Dy1264 2.395 . S
O1269 C1286 1.255 . S
O1270 Dy1264 2.379 . S
O1270 C1286 1.249 . S
O1271 Dy1265 2.275 . S
O1271 C1287 1.254 . S
O1272 Dy1264 2.339 . S
O1272 C1287 1.257 . S
O1273 Dy1265 2.307 . S
O1273 C1288 1.266 . S
O1274 Dy1264 2.298 . S
O1274 C1288 1.236 . S
O1275 Dy1265 2.395 . S
O1275 C1295 1.255 . S
O1276 Dy1265 2.379 . S
O1276 C1295 1.249 . S
C1277 O1267 1.266 . S
C1277 O1268 1.236 . S
O1278 Dy1264 2.275 . S
O1278 C1266 1.254 . S
O1279 Dy1265 2.339 . S
O1279 C1266 1.257 . S
C1280 C1283 1.344 . S
C1280 C1284 1.328 . S
C1280 C1286 1.516 . S
C1281 C1282 1.304 . S
C1281 C1285 1.323 . S
C1282 C1281 1.304 . S
C1282 C1283 1.371 . S
C1282 H1296 0.930 . S
C1283 C1280 1.344 . S
C1283 C1282 1.371 . S
C1283 H1297 0.931 . S
C1284 C1280 1.328 . S
C1284 C1285 1.433 . S
C1284 H1298 0.931 . S
C1285 C1281 1.323 . S
C1285 C1284 1.433 . S
C1285 H1299 0.933 . S
C1286 Dy1264 2.738 . S
C1286 O1269 1.255 . S
C1286 O1270 1.249 . S
C1286 C1280 1.516 . S
C1287 O1271 1.254 . S
C1287 O1272 1.257 . S
C1288 O1273 1.266 . S
C1288 O1274 1.236 . S
C1289 C1292 1.344 . S
C1289 C1293 1.328 . S
C1289 C1295 1.516 1_655 S
C1290 C1291 1.304 . S
C1290 C1294 1.323 . S
C1291 C1290 1.304 . S
C1291 C1292 1.371 . S
C1291 H1300 0.930 . S
C1292 C1289 1.344 . S
C1292 C1291 1.371 . S
C1292 H1301 0.931 . S
C1293 C1289 1.328 . S
C1293 C1294 1.433 . S
C1293 H1302 0.931 1_655 S
C1294 C1290 1.323 . S
C1294 C1293 1.433 . S
C1294 H1303 0.933 . S
C1295 Dy1265 2.738 . S
C1295 O1275 1.255 . S
C1295 O1276 1.249 . S
C1295 C1289 1.516 1_455 S
H1296 C1282 0.930 . S
H1297 C1283 0.931 . S
H1298 C1284 0.931 . S
H1299 C1285 0.933 . S
H1300 C1291 0.930 . S
H1301 C1292 0.931 . S
H1302 C1293 0.931 1_455 S
H1303 C1294 0.933 . S
Dy1304 O1307 2.307 . S
Dy1304 O1309 2.395 . S
Dy1304 O1310 2.379 . S
Dy1304 O1312 2.339 . S
Dy1304 O1314 2.298 . S
Dy1304 O1318 2.275 . S
Dy1304 C1326 2.738 . S
Dy1305 O1308 2.298 . S
Dy1305 O1311 2.275 . S
Dy1305 O1313 2.307 . S
Dy1305 O1315 2.395 . S
Dy1305 O1316 2.379 . S
Dy1305 O1319 2.339 . S
Dy1305 C1335 2.738 . S
C1306 O1318 1.254 . S
C1306 O1319 1.257 . S
O1307 Dy1304 2.307 . S
O1307 C1317 1.266 . S
O1308 Dy1305 2.298 . S
O1308 C1317 1.236 . S
O1309 Dy1304 2.395 . S
O1309 C1326 1.255 . S
O1310 Dy1304 2.379 . S
O1310 C1326 1.249 . S
O1311 Dy1305 2.275 . S
O1311 C1327 1.254 . S
O1312 Dy1304 2.339 . S
O1312 C1327 1.257 . S
O1313 Dy1305 2.307 . S
O1313 C1328 1.266 . S
O1314 Dy1304 2.298 . S
O1314 C1328 1.236 . S
O1315 Dy1305 2.395 . S
O1315 C1335 1.255 . S
O1316 Dy1305 2.379 . S
O1316 C1335 1.249 . S
C1317 O1307 1.266 . S
C1317 O1308 1.236 . S
O1318 Dy1304 2.275 . S
O1318 C1306 1.254 . S
O1319 Dy1305 2.339 . S
O1319 C1306 1.257 . S
C1320 C1323 1.344 . S
C1320 C1324 1.328 . S
C1320 C1326 1.516 . S
C1321 C1322 1.304 . S
C1321 C1325 1.323 . S
C1322 C1321 1.304 . S
C1322 C1323 1.371 . S
C1322 H1336 0.930 . S
C1323 C1320 1.344 . S
C1323 C1322 1.371 . S
C1323 H1337 0.931 . S
C1324 C1320 1.328 . S
C1324 C1325 1.433 . S
C1324 H1338 0.931 . S
C1325 C1321 1.323 . S
C1325 C1324 1.433 . S
C1325 H1339 0.933 . S
C1326 Dy1304 2.738 . S
C1326 O1309 1.255 . S
C1326 O1310 1.249 . S
C1326 C1320 1.516 . S
C1327 O1311 1.254 . S
C1327 O1312 1.257 . S
C1328 O1313 1.266 . S
C1328 O1314 1.236 . S
C1329 C1332 1.344 . S
C1329 C1333 1.328 . S
C1329 C1335 1.516 . S
C1330 C1331 1.304 . S
C1330 C1334 1.323 . S
C1331 C1330 1.304 . S
C1331 C1332 1.371 . S
C1331 H1340 0.930 . S
C1332 C1329 1.344 . S
C1332 C1331 1.371 . S
C1332 H1341 0.931 . S
C1333 C1329 1.328 . S
C1333 C1334 1.433 . S
C1333 H1342 0.931 . S
C1334 C1330 1.323 . S
C1334 C1333 1.433 . S
C1334 H1343 0.933 . S
C1335 Dy1305 2.738 . S
C1335 O1315 1.255 . S
C1335 O1316 1.249 . S
C1335 C1329 1.516 . S
H1336 C1322 0.930 . S
H1337 C1323 0.931 . S
H1338 C1324 0.931 . S
H1339 C1325 0.933 . S
H1340 C1331 0.930 . S
H1341 C1332 0.931 . S
H1342 C1333 0.931 . S
H1343 C1334 0.933 . S
Dy1344 O1347 2.307 . S
Dy1344 O1349 2.395 . S
Dy1344 O1350 2.379 . S
Dy1344 O1352 2.339 . S
Dy1344 O1354 2.298 . S
Dy1344 O1358 2.275 . S
Dy1344 C1366 2.738 . S
Dy1345 O1348 2.298 . S
Dy1345 O1351 2.275 . S
Dy1345 O1353 2.307 . S
Dy1345 O1355 2.395 . S
Dy1345 O1356 2.379 . S
Dy1345 O1359 2.339 . S
Dy1345 C1375 2.738 . S
C1346 O1358 1.254 . S
C1346 O1359 1.257 . S
O1347 Dy1344 2.307 . S
O1347 C1357 1.266 . S
O1348 Dy1345 2.298 . S
O1348 C1357 1.236 . S
O1349 Dy1344 2.395 . S
O1349 C1366 1.255 . S
O1350 Dy1344 2.379 . S
O1350 C1366 1.249 . S
O1351 Dy1345 2.275 . S
O1351 C1367 1.254 . S
O1352 Dy1344 2.339 . S
O1352 C1367 1.257 . S
O1353 Dy1345 2.307 . S
O1353 C1368 1.266 . S
O1354 Dy1344 2.298 . S
O1354 C1368 1.236 . S
O1355 Dy1345 2.395 . S
O1355 C1375 1.255 . S
O1356 Dy1345 2.379 . S
O1356 C1375 1.249 . S
C1357 O1347 1.266 . S
C1357 O1348 1.236 . S
O1358 Dy1344 2.275 . S
O1358 C1346 1.254 . S
O1359 Dy1345 2.339 . S
O1359 C1346 1.257 . S
C1360 C1363 1.344 . S
C1360 C1364 1.328 . S
C1360 C1366 1.516 . S
C1361 C1362 1.304 . S
C1361 C1365 1.323 . S
C1362 C1361 1.304 . S
C1362 C1363 1.371 . S
C1362 H1376 0.930 . S
C1363 C1360 1.344 . S
C1363 C1362 1.371 . S
C1363 H1377 0.931 . S
C1364 C1360 1.328 . S
C1364 C1365 1.433 . S
C1364 H1378 0.931 . S
C1365 C1361 1.323 . S
C1365 C1364 1.433 . S
C1365 H1379 0.933 . S
C1366 Dy1344 2.738 . S
C1366 O1349 1.255 . S
C1366 O1350 1.249 . S
C1366 C1360 1.516 . S
C1367 O1351 1.254 . S
C1367 O1352 1.257 . S
C1368 O1353 1.266 . S
C1368 O1354 1.236 . S
C1369 C1372 1.344 . S
C1369 C1373 1.328 . S
C1369 C1375 1.516 . S
C1370 C1371 1.304 . S
C1370 C1374 1.323 . S
C1371 C1370 1.304 . S
C1371 C1372 1.371 . S
C1371 H1380 0.930 . S
C1372 C1369 1.344 . S
C1372 C1371 1.371 . S
C1372 H1381 0.931 . S
C1373 C1369 1.328 . S
C1373 C1374 1.433 . S
C1373 H1382 0.931 . S
C1374 C1370 1.323 . S
C1374 C1373 1.433 . S
C1374 H1383 0.933 . S
C1375 Dy1345 2.738 . S
C1375 O1355 1.255 . S
C1375 O1356 1.249 . S
C1375 C1369 1.516 . S
H1376 C1362 0.930 . S
H1377 C1363 0.931 . S
H1378 C1364 0.931 . S
H1379 C1365 0.933 . S
H1380 C1371 0.930 . S
H1381 C1372 0.931 . S
H1382 C1373 0.931 . S
H1383 C1374 0.933 . S
Dy1384 O1387 2.307 . S
Dy1384 O1389 2.395 . S
Dy1384 O1390 2.379 . S
Dy1384 O1392 2.339 . S
Dy1384 O1394 2.298 . S
Dy1384 O1398 2.275 . S
Dy1384 C1406 2.738 . S
Dy1385 O1388 2.298 . S
Dy1385 O1391 2.275 . S
Dy1385 O1393 2.307 . S
Dy1385 O1395 2.395 . S
Dy1385 O1396 2.379 . S
Dy1385 O1399 2.339 . S
Dy1385 C1415 2.738 . S
C1386 O1398 1.254 . S
C1386 O1399 1.257 . S
O1387 Dy1384 2.307 . S
O1387 C1397 1.266 . S
O1388 Dy1385 2.298 . S
O1388 C1397 1.236 . S
O1389 Dy1384 2.395 . S
O1389 C1406 1.255 . S
O1390 Dy1384 2.379 . S
O1390 C1406 1.249 . S
O1391 Dy1385 2.275 . S
O1391 C1407 1.254 . S
O1392 Dy1384 2.339 . S
O1392 C1407 1.257 . S
O1393 Dy1385 2.307 . S
O1393 C1408 1.266 . S
O1394 Dy1384 2.298 . S
O1394 C1408 1.236 . S
O1395 Dy1385 2.395 . S
O1395 C1415 1.255 . S
O1396 Dy1385 2.379 . S
O1396 C1415 1.249 . S
C1397 O1387 1.266 . S
C1397 O1388 1.236 . S
O1398 Dy1384 2.275 . S
O1398 C1386 1.254 . S
O1399 Dy1385 2.339 . S
O1399 C1386 1.257 . S
C1400 C1403 1.344 . S
C1400 C1404 1.328 . S
C1400 C1406 1.516 . S
C1401 C1402 1.304 . S
C1401 C1405 1.323 . S
C1402 C1401 1.304 . S
C1402 C1403 1.371 . S
C1402 H1416 0.930 . S
C1403 C1400 1.344 . S
C1403 C1402 1.371 . S
C1403 H1417 0.931 . S
C1404 C1400 1.328 . S
C1404 C1405 1.433 . S
C1404 H1418 0.931 . S
C1405 C1401 1.323 . S
C1405 C1404 1.433 . S
C1405 H1419 0.933 . S
C1406 Dy1384 2.738 . S
C1406 O1389 1.255 . S
C1406 O1390 1.249 . S
C1406 C1400 1.516 . S
C1407 O1391 1.254 . S
C1407 O1392 1.257 . S
C1408 O1393 1.266 . S
C1408 O1394 1.236 . S
C1409 C1412 1.344 . S
C1409 C1413 1.328 . S
C1409 C1415 1.516 . S
C1410 C1411 1.304 . S
C1410 C1414 1.323 . S
C1411 C1410 1.304 . S
C1411 C1412 1.371 . S
C1411 H1420 0.930 . S
C1412 C1409 1.344 . S
C1412 C1411 1.371 . S
C1412 H1421 0.931 . S
C1413 C1409 1.328 . S
C1413 C1414 1.433 . S
C1413 H1422 0.931 . S
C1414 C1410 1.323 . S
C1414 C1413 1.433 . S
C1414 H1423 0.933 . S
C1415 Dy1385 2.738 . S
C1415 O1395 1.255 . S
C1415 O1396 1.249 . S
C1415 C1409 1.516 . S
H1416 C1402 0.930 . S
H1417 C1403 0.931 . S
H1418 C1404 0.931 . S
H1419 C1405 0.933 . S
H1420 C1411 0.930 . S
H1421 C1412 0.931 . S
H1422 C1413 0.931 . S
H1423 C1414 0.933 . S
Dy1424 O1427 2.307 . S
Dy1424 O1429 2.395 . S
Dy1424 O1430 2.379 . S
Dy1424 O1432 2.339 . S
Dy1424 O1434 2.298 . S
Dy1424 O1438 2.275 . S
Dy1424 C1446 2.738 . S
Dy1425 O1428 2.298 . S
Dy1425 O1431 2.275 . S
Dy1425 O1433 2.307 . S
Dy1425 O1435 2.395 . S
Dy1425 O1436 2.379 . S
Dy1425 O1439 2.339 . S
Dy1425 C1455 2.738 . S
C1426 O1438 1.254 . S
C1426 O1439 1.257 . S
O1427 Dy1424 2.307 . S
O1427 C1437 1.266 . S
O1428 Dy1425 2.298 . S
O1428 C1437 1.236 . S
O1429 Dy1424 2.395 . S
O1429 C1446 1.255 . S
O1430 Dy1424 2.379 . S
O1430 C1446 1.249 . S
O1431 Dy1425 2.275 . S
O1431 C1447 1.254 . S
O1432 Dy1424 2.339 . S
O1432 C1447 1.257 . S
O1433 Dy1425 2.307 . S
O1433 C1448 1.266 . S
O1434 Dy1424 2.298 . S
O1434 C1448 1.236 . S
O1435 Dy1425 2.395 . S
O1435 C1455 1.255 . S
O1436 Dy1425 2.379 . S
O1436 C1455 1.249 . S
C1437 O1427 1.266 . S
C1437 O1428 1.236 . S
O1438 Dy1424 2.275 . S
O1438 C1426 1.254 . S
O1439 Dy1425 2.339 . S
O1439 C1426 1.257 . S
C1440 C1443 1.344 . S
C1440 C1444 1.328 . S
C1440 C1446 1.516 . S
C1441 C1442 1.304 . S
C1441 C1445 1.323 . S
C1442 C1441 1.304 . S
C1442 C1443 1.371 . S
C1442 H1456 0.930 . S
C1443 C1440 1.344 . S
C1443 C1442 1.371 . S
C1443 H1457 0.931 . S
C1444 C1440 1.328 . S
C1444 C1445 1.433 . S
C1444 H1458 0.931 . S
C1445 C1441 1.323 . S
C1445 C1444 1.433 . S
C1445 H1459 0.933 . S
C1446 Dy1424 2.738 . S
C1446 O1429 1.255 . S
C1446 O1430 1.249 . S
C1446 C1440 1.516 . S
C1447 O1431 1.254 . S
C1447 O1432 1.257 . S
C1448 O1433 1.266 . S
C1448 O1434 1.236 . S
C1449 C1452 1.344 . S
C1449 C1453 1.328 . S
C1449 C1455 1.516 . S
C1450 C1451 1.304 . S
C1450 C1454 1.323 . S
C1451 C1450 1.304 . S
C1451 C1452 1.371 . S
C1451 H1460 0.930 . S
C1452 C1449 1.344 . S
C1452 C1451 1.371 . S
C1452 H1461 0.931 . S
C1453 C1449 1.328 . S
C1453 C1454 1.433 . S
C1453 H1462 0.931 . S
C1454 C1450 1.323 . S
C1454 C1453 1.433 . S
C1454 H1463 0.933 . S
C1455 Dy1425 2.738 . S
C1455 O1435 1.255 . S
C1455 O1436 1.249 . S
C1455 C1449 1.516 . S
H1456 C1442 0.930 . S
H1457 C1443 0.931 . S
H1458 C1444 0.931 . S
H1459 C1445 0.933 . S
H1460 C1451 0.930 . S
H1461 C1452 0.931 . S
H1462 C1453 0.931 . S
H1463 C1454 0.933 . S
Dy1464 O1467 2.307 . S
Dy1464 O1469 2.395 1_455 S
Dy1464 O1470 2.379 1_455 S
Dy1464 O1472 2.339 . S
Dy1464 O1474 2.298 . S
Dy1464 O1478 2.275 . S
Dy1464 C1486 2.738 1_455 S
Dy1465 O1468 2.298 . S
Dy1465 O1471 2.275 . S
Dy1465 O1473 2.307 . S
Dy1465 O1475 2.395 . S
Dy1465 O1476 2.379 1_554 S
Dy1465 O1479 2.339 1_554 S
Dy1465 C1495 2.738 . S
C1466 O1478 1.254 1_556 S
C1466 O1479 1.257 . S
O1467 Dy1464 2.307 . S
O1467 C1477 1.266 . S
O1468 Dy1465 2.298 . S
O1468 C1477 1.236 . S
O1469 Dy1464 2.395 1_655 S
O1469 C1486 1.255 . S
O1470 Dy1464 2.379 1_655 S
O1470 C1486 1.249 . S
O1471 Dy1465 2.275 . S
O1471 C1487 1.254 . S
O1472 Dy1464 2.339 . S
O1472 C1487 1.257 . S
O1473 Dy1465 2.307 . S
O1473 C1488 1.266 . S
O1474 Dy1464 2.298 . S
O1474 C1488 1.236 . S
O1475 Dy1465 2.395 . S
O1475 C1495 1.255 . S
O1476 Dy1465 2.379 1_556 S
O1476 C1495 1.249 1_556 S
C1477 O1467 1.266 . S
C1477 O1468 1.236 . S
O1478 Dy1464 2.275 . S
O1478 C1466 1.254 1_554 S
O1479 Dy1465 2.339 1_556 S
O1479 C1466 1.257 . S
C1480 C1483 1.344 . S
C1480 C1484 1.328 . S
C1480 C1486 1.516 . S
C1481 C1482 1.304 . S
C1481 C1485 1.323 . S
C1482 C1481 1.304 . S
C1482 C1483 1.371 . S
C1482 H1496 0.930 . S
C1483 C1480 1.344 . S
C1483 C1482 1.371 . S
C1483 H1497 0.931 . S
C1484 C1480 1.328 . S
C1484 C1485 1.433 . S
C1484 H1498 0.931 . S
C1485 C1481 1.323 . S
C1485 C1484 1.433 . S
C1485 H1499 0.933 . S
C1486 Dy1464 2.738 1_655 S
C1486 O1469 1.255 . S
C1486 O1470 1.249 . S
C1486 C1480 1.516 . S
C1487 O1471 1.254 . S
C1487 O1472 1.257 . S
C1488 O1473 1.266 . S
C1488 O1474 1.236 . S
C1489 C1492 1.344 . S
C1489 C1493 1.328 1_554 S
C1489 C1495 1.516 . S
C1490 C1491 1.329 . S
C1490 C1494 1.302 1_554 S
C1491 C1490 1.329 . S
C1491 C1492 1.371 . S
C1491 H1500 0.930 . S
C1492 C1489 1.344 . S
C1492 C1491 1.371 . S
C1492 H1501 0.931 . S
C1493 C1489 1.328 1_556 S
C1493 C1494 1.433 . S
C1493 H1502 0.931 . S
C1494 C1490 1.302 1_556 S
C1494 C1493 1.433 . S
C1494 H1503 0.933 . S
C1495 Dy1465 2.738 . S
C1495 O1475 1.255 . S
C1495 O1476 1.249 1_554 S
C1495 C1489 1.516 . S
H1496 C1482 0.930 . S
H1497 C1483 0.931 . S
H1498 C1484 0.931 . S
H1499 C1485 0.933 . S
H1500 C1491 0.930 . S
H1501 C1492 0.931 . S
H1502 C1493 0.931 . S
H1503 C1494 0.933 . S
H1504 C1512 0.929 . S
H1505 C1514 0.930 . S
H1506 C1516 0.930 . S
H1507 C1519 0.929 . S
H1508 C1522 0.930 . S
H1509 C1524 0.960 . S
H1510 C1524 0.960 . S
H1511 C1524 0.960 1_556 S
C1512 H1504 0.929 . S
C1512 C1513 1.377 . S
C1512 C1514 1.384 . S
C1513 C1512 1.377 . S
C1513 C1519 1.390 1_655 S
C1514 H1505 0.930 . S
C1514 C1512 1.384 . S
C1514 C1515 1.372 1_655 S
C1515 C1514 1.372 1_455 S
C1515 C1516 1.400 . S
C1515 C1520 1.490 . S
C1516 H1506 0.930 . S
C1516 C1515 1.400 . S
C1516 C1519 1.386 . S
H1517 C1533 0.930 1_556 S
H1518 C1534 0.931 . S
C1519 H1507 0.929 . S
C1519 C1513 1.390 1_455 S
C1519 C1516 1.386 . S
C1520 C1515 1.490 . S
C1520 C1522 1.395 1_455 S
C1520 C1523 1.403 . S
H1521 C1527 0.930 . S
C1522 H1508 0.930 . S
C1522 C1520 1.395 1_655 S
C1522 C1525 1.403 . S
C1523 C1520 1.403 . S
C1523 C1524 1.524 1_556 S
C1523 C1527 1.400 1_556 S
C1524 H1509 0.960 . S
C1524 H1510 0.960 . S
C1524 H1511 0.960 1_554 S
C1524 C1523 1.524 1_554 S
C1525 C1522 1.403 . S
C1525 C1526 1.392 1_655 S
C1525 C1529 1.495 . S
C1526 C1525 1.392 1_455 S
C1526 C1527 1.385 1_556 S
C1526 C1528 1.478 1_556 S
C1527 H1521 0.930 . S
C1527 C1523 1.400 1_554 S
C1527 C1526 1.385 1_554 S
C1528 C1526 1.478 1_554 S
C1528 C1530 1.381 1_455 S
C1528 C1534 1.383 1_554 S
C1529 C1525 1.495 . S
C1529 H1535 0.959 . S
C1529 H1536 0.961 . S
C1529 H1537 0.960 . S
C1530 C1528 1.381 1_655 S
C1530 C1531 1.394 1_655 S
C1530 H1538 0.930 . S
C1531 C1530 1.394 1_455 S
C1531 C1532 1.383 . S
C1531 H1539 0.929 1_455 S
C1532 C1531 1.383 . S
C1532 C1533 1.377 . S
C1533 H1517 0.930 1_554 S
C1533 C1532 1.377 . S
C1533 C1534 1.379 1_554 S
C1534 H1518 0.931 . S
C1534 C1528 1.383 1_556 S
C1534 C1533 1.379 1_556 S
H1535 C1529 0.959 . S
H1536 C1529 0.961 . S
H1537 C1529 0.960 . S
H1538 C1530 0.930 . S
H1539 C1531 0.929 1_655 S
H1540 C1548 0.929 . S
H1541 C1550 0.930 . S
H1542 C1552 0.930 . S
H1543 C1555 0.929 . S
H1544 C1558 0.930 . S
H1545 C1560 0.960 . S
H1546 C1560 0.960 . S
H1547 C1560 0.960 . S
C1548 H1540 0.929 . S
C1548 C1549 1.377 . S
C1548 C1550 1.384 . S
C1549 C1548 1.377 . S
C1549 C1555 1.390 . S
C1550 H1541 0.930 . S
C1550 C1548 1.384 . S
C1550 C1551 1.372 . S
C1551 C1550 1.372 . S
C1551 C1552 1.400 . S
C1551 C1556 1.490 . S
C1552 H1542 0.930 . S
C1552 C1551 1.400 . S
C1552 C1555 1.386 . S
H1553 C1569 0.930 . S
H1554 C1570 0.931 . S
C1555 H1543 0.929 . S
C1555 C1549 1.390 . S
C1555 C1552 1.386 . S
C1556 C1551 1.490 . S
C1556 C1558 1.395 . S
C1556 C1559 1.403 . S
H1557 C1563 0.930 . S
C1558 H1544 0.930 . S
C1558 C1556 1.395 . S
C1558 C1561 1.403 . S
C1559 C1556 1.403 . S
C1559 C1560 1.524 . S
C1559 C1563 1.400 . S
C1560 H1545 0.960 . S
C1560 H1546 0.960 . S
C1560 H1547 0.960 . S
C1560 C1559 1.524 . S
C1561 C1558 1.403 . S
C1561 C1562 1.392 . S
C1561 C1565 1.495 . S
C1562 C1561 1.392 . S
C1562 C1563 1.385 . S
C1562 C1564 1.478 . S
C1563 H1557 0.930 . S
C1563 C1559 1.400 . S
C1563 C1562 1.385 . S
C1564 C1562 1.478 . S
C1564 C1566 1.381 . S
C1564 C1570 1.383 . S
C1565 C1561 1.495 . S
C1565 H1571 0.959 . S
C1565 H1572 0.961 . S
C1565 H1573 0.960 . S
C1566 C1564 1.381 . S
C1566 C1567 1.394 . S
C1566 H1574 0.930 . S
C1567 C1566 1.394 . S
C1567 C1568 1.383 . S
C1567 H1575 0.929 . S
C1568 C1567 1.383 . S
C1568 C1569 1.377 . S
C1569 H1553 0.930 . S
C1569 C1568 1.377 . S
C1569 C1570 1.379 . S
C1570 H1554 0.931 . S
C1570 C1564 1.383 . S
C1570 C1569 1.379 . S
H1571 C1565 0.959 . S
H1572 C1565 0.961 . S
H1573 C1565 0.960 . S
H1574 C1566 0.930 . S
H1575 C1567 0.929 . S
H1576 C1584 0.929 . S
H1577 C1586 0.930 . S
H1578 C1588 0.930 . S
H1579 C1591 0.929 . S
H1580 C1594 0.930 . S
H1581 C1596 0.960 . S
H1582 C1596 0.960 . S
H1583 C1596 0.960 . S
C1584 H1576 0.929 . S
C1584 C1585 1.377 . S
C1584 C1586 1.384 . S
C1585 C1584 1.377 . S
C1585 C1591 1.390 . S
C1586 H1577 0.930 . S
C1586 C1584 1.384 . S
C1586 C1587 1.372 . S
C1587 C1586 1.372 . S
C1587 C1588 1.400 . S
C1587 C1592 1.490 . S
C1588 H1578 0.930 . S
C1588 C1587 1.400 . S
C1588 C1591 1.386 . S
H1589 C1605 0.930 . S
H1590 C1606 0.931 . S
C1591 H1579 0.929 . S
C1591 C1585 1.390 . S
C1591 C1588 1.386 . S
C1592 C1587 1.490 . S
C1592 C1594 1.395 . S
C1592 C1595 1.403 . S
H1593 C1599 0.930 . S
C1594 H1580 0.930 . S
C1594 C1592 1.395 . S
C1594 C1597 1.403 . S
C1595 C1592 1.403 . S
C1595 C1596 1.524 . S
C1595 C1599 1.400 . S
C1596 H1581 0.960 . S
C1596 H1582 0.960 . S
C1596 H1583 0.960 . S
C1596 C1595 1.524 . S
C1597 C1594 1.403 . S
C1597 C1598 1.392 . S
C1597 C1601 1.495 . S
C1598 C1597 1.392 . S
C1598 C1599 1.385 . S
C1598 C1600 1.478 . S
C1599 H1593 0.930 . S
C1599 C1595 1.400 . S
C1599 C1598 1.385 . S
C1600 C1598 1.478 . S
C1600 C1602 1.381 . S
C1600 C1606 1.383 . S
C1601 C1597 1.495 . S
C1601 H1607 0.959 . S
C1601 H1608 0.961 . S
C1601 H1609 0.960 . S
C1602 C1600 1.381 . S
C1602 C1603 1.394 . S
C1602 H1610 0.930 . S
C1603 C1602 1.394 . S
C1603 C1604 1.383 . S
C1603 H1611 0.929 . S
C1604 C1603 1.383 . S
C1604 C1605 1.377 . S
C1605 H1589 0.930 . S
C1605 C1604 1.377 . S
C1605 C1606 1.379 . S
C1606 H1590 0.931 . S
C1606 C1600 1.383 . S
C1606 C1605 1.379 . S
H1607 C1601 0.959 . S
H1608 C1601 0.961 . S
H1609 C1601 0.960 . S
H1610 C1602 0.930 . S
H1611 C1603 0.929 . S
H1612 C1620 0.929 . S
H1613 C1622 0.930 . S
H1614 C1624 0.930 . S
H1615 C1627 0.929 . S
H1616 C1630 0.930 . S
H1617 C1632 0.960 . S
H1618 C1632 0.960 . S
H1619 C1632 0.960 . S
C1620 H1612 0.929 . S
C1620 C1621 1.377 . S
C1620 C1622 1.384 . S
C1621 C1620 1.377 . S
C1621 C1627 1.390 . S
C1622 H1613 0.930 . S
C1622 C1620 1.384 . S
C1622 C1623 1.372 . S
C1623 C1622 1.372 . S
C1623 C1624 1.400 . S
C1623 C1628 1.490 . S
C1624 H1614 0.930 . S
C1624 C1623 1.400 . S
C1624 C1627 1.386 . S
H1625 C1641 0.930 . S
H1626 C1642 0.931 . S
C1627 H1615 0.929 . S
C1627 C1621 1.390 . S
C1627 C1624 1.386 . S
C1628 C1623 1.490 . S
C1628 C1630 1.395 . S
C1628 C1631 1.403 . S
H1629 C1635 0.930 . S
C1630 H1616 0.930 . S
C1630 C1628 1.395 . S
C1630 C1633 1.403 . S
C1631 C1628 1.403 . S
C1631 C1632 1.524 . S
C1631 C1635 1.400 . S
C1632 H1617 0.960 . S
C1632 H1618 0.960 . S
C1632 H1619 0.960 . S
C1632 C1631 1.524 . S
C1633 C1630 1.403 . S
C1633 C1634 1.392 . S
C1633 C1637 1.495 . S
C1634 C1633 1.392 . S
C1634 C1635 1.385 . S
C1634 C1636 1.478 . S
C1635 H1629 0.930 . S
C1635 C1631 1.400 . S
C1635 C1634 1.385 . S
C1636 C1634 1.478 . S
C1636 C1638 1.381 . S
C1636 C1642 1.383 . S
C1637 C1633 1.495 . S
C1637 H1643 0.959 . S
C1637 H1644 0.961 . S
C1637 H1645 0.960 . S
C1638 C1636 1.381 . S
C1638 C1639 1.394 . S
C1638 H1646 0.930 . S
C1639 C1638 1.394 . S
C1639 C1640 1.383 . S
C1639 H1647 0.929 . S
C1640 C1639 1.383 . S
C1640 C1641 1.377 . S
C1641 H1625 0.930 . S
C1641 C1640 1.377 . S
C1641 C1642 1.379 . S
C1642 H1626 0.931 . S
C1642 C1636 1.383 . S
C1642 C1641 1.379 . S
H1643 C1637 0.959 . S
H1644 C1637 0.961 . S
H1645 C1637 0.960 . S
H1646 C1638 0.930 . S
H1647 C1639 0.929 . S
H1648 C1656 0.929 . S
H1649 C1658 0.930 . S
H1650 C1660 0.930 . S
H1651 C1663 0.929 . S
H1652 C1666 0.930 . S
H1653 C1668 0.960 . S
H1654 C1668 0.960 . S
H1655 C1668 0.960 . S
C1656 H1648 0.929 . S
C1656 C1657 1.377 . S
C1656 C1658 1.384 . S
C1657 C1656 1.377 . S
C1657 C1663 1.390 . S
C1658 H1649 0.930 . S
C1658 C1656 1.384 . S
C1658 C1659 1.372 . S
C1659 C1658 1.372 . S
C1659 C1660 1.400 . S
C1659 C1664 1.490 . S
C1660 H1650 0.930 . S
C1660 C1659 1.400 . S
C1660 C1663 1.386 . S
H1661 C1677 0.930 . S
H1662 C1678 0.931 . S
C1663 H1651 0.929 . S
C1663 C1657 1.390 . S
C1663 C1660 1.386 . S
C1664 C1659 1.490 . S
C1664 C1666 1.395 . S
C1664 C1667 1.403 . S
H1665 C1671 0.930 . S
C1666 H1652 0.930 . S
C1666 C1664 1.395 . S
C1666 C1669 1.403 . S
C1667 C1664 1.403 . S
C1667 C1668 1.524 . S
C1667 C1671 1.400 . S
C1668 H1653 0.960 . S
C1668 H1654 0.960 . S
C1668 H1655 0.960 . S
C1668 C1667 1.524 . S
C1669 C1666 1.403 . S
C1669 C1670 1.392 . S
C1669 C1673 1.495 . S
C1670 C1669 1.392 . S
C1670 C1671 1.385 . S
C1670 C1672 1.478 . S
C1671 H1665 0.930 . S
C1671 C1667 1.400 . S
C1671 C1670 1.385 . S
C1672 C1670 1.478 . S
C1672 C1674 1.381 . S
C1672 C1678 1.383 . S
C1673 C1669 1.495 . S
C1673 H1679 0.959 1_455 S
C1673 H1680 0.961 1_455 S
C1673 H1681 0.960 . S
C1674 C1672 1.381 . S
C1674 C1675 1.394 . S
C1674 H1682 0.930 . S
C1675 C1674 1.394 . S
C1675 C1676 1.383 . S
C1675 H1683 0.929 . S
C1676 C1675 1.383 . S
C1676 C1677 1.377 . S
C1677 H1661 0.930 . S
C1677 C1676 1.377 . S
C1677 C1678 1.379 . S
C1678 H1662 0.931 . S
C1678 C1672 1.383 . S
C1678 C1677 1.379 . S
H1679 C1673 0.959 1_655 S
H1680 C1673 0.961 1_655 S
H1681 C1673 0.960 . S
H1682 C1674 0.930 . S
H1683 C1675 0.929 . S
H1684 C1692 0.929 . S
H1685 C1694 0.930 . S
H1686 C1696 0.930 . S
H1687 C1699 0.929 . S
H1688 C1702 0.930 . S
H1689 C1704 0.960 . S
H1690 C1704 0.960 . S
H1691 C1704 0.960 . S
C1692 H1684 0.929 . S
C1692 C1693 1.377 . S
C1692 C1694 1.384 . S
C1693 C1692 1.377 . S
C1693 C1699 1.390 . S
C1694 H1685 0.930 . S
C1694 C1692 1.384 . S
C1694 C1695 1.372 . S
C1695 C1694 1.372 . S
C1695 C1696 1.400 . S
C1695 C1700 1.490 . S
C1696 H1686 0.930 . S
C1696 C1695 1.400 . S
C1696 C1699 1.386 . S
H1697 C1713 0.930 . S
H1698 C1714 0.931 . S
C1699 H1687 0.929 . S
C1699 C1693 1.390 . S
C1699 C1696 1.386 . S
C1700 C1695 1.490 . S
C1700 C1702 1.395 . S
C1700 C1703 1.403 . S
H1701 C1707 0.930 . S
C1702 H1688 0.930 . S
C1702 C1700 1.395 . S
C1702 C1705 1.403 . S
C1703 C1700 1.403 . S
C1703 C1704 1.524 . S
C1703 C1707 1.400 . S
C1704 H1689 0.960 . S
C1704 H1690 0.960 . S
C1704 H1691 0.960 . S
C1704 C1703 1.524 . S
C1705 C1702 1.403 . S
C1705 C1706 1.392 . S
C1705 C1709 1.495 . S
C1706 C1705 1.392 . S
C1706 C1707 1.385 . S
C1706 C1708 1.478 . S
C1707 H1701 0.930 . S
C1707 C1703 1.400 . S
C1707 C1706 1.385 . S
C1708 C1706 1.478 . S
C1708 C1710 1.381 . S
C1708 C1714 1.383 . S
C1709 C1705 1.495 . S
C1709 H1715 0.959 . S
C1709 H1716 0.961 . S
C1709 H1717 0.960 . S
C1710 C1708 1.381 . S
C1710 C1711 1.394 . S
C1710 H1718 0.930 . S
C1711 C1710 1.394 . S
C1711 C1712 1.383 . S
C1711 H1719 0.929 . S
C1712 C1711 1.383 . S
C1712 C1713 1.377 . S
C1713 H1697 0.930 . S
C1713 C1712 1.377 . S
C1713 C1714 1.379 . S
C1714 H1698 0.931 . S
C1714 C1708 1.383 . S
C1714 C1713 1.379 . S
H1715 C1709 0.959 . S
H1716 C1709 0.961 . S
H1717 C1709 0.960 . S
H1718 C1710 0.930 . S
H1719 C1711 0.929 . S
H1720 C1728 0.929 . S
H1721 C1730 0.930 . S
H1722 C1732 0.930 . S
H1723 C1735 0.929 . S
H1724 C1738 0.930 . S
H1725 C1740 0.960 . S
H1726 C1740 0.960 . S
H1727 C1740 0.960 . S
C1728 H1720 0.929 . S
C1728 C1729 1.377 . S
C1728 C1730 1.384 . S
C1729 C1728 1.377 . S
C1729 C1735 1.390 . S
C1730 H1721 0.930 . S
C1730 C1728 1.384 . S
C1730 C1731 1.372 . S
C1731 C1730 1.372 . S
C1731 C1732 1.400 . S
C1731 C1736 1.490 . S
C1732 H1722 0.930 . S
C1732 C1731 1.400 . S
C1732 C1735 1.386 . S
H1733 C1749 0.930 . S
H1734 C1750 0.931 . S
C1735 H1723 0.929 . S
C1735 C1729 1.390 . S
C1735 C1732 1.386 . S
C1736 C1731 1.490 . S
C1736 C1738 1.395 . S
C1736 C1739 1.403 . S
H1737 C1743 0.930 . S
C1738 H1724 0.930 . S
C1738 C1736 1.395 . S
C1738 C1741 1.403 . S
C1739 C1736 1.403 . S
C1739 C1740 1.524 . S
C1739 C1743 1.400 . S
C1740 H1725 0.960 . S
C1740 H1726 0.960 . S
C1740 H1727 0.960 . S
C1740 C1739 1.524 . S
C1741 C1738 1.403 . S
C1741 C1742 1.392 . S
C1741 C1745 1.495 . S
C1742 C1741 1.392 . S
C1742 C1743 1.385 . S
C1742 C1744 1.478 . S
C1743 H1737 0.930 . S
C1743 C1739 1.400 . S
C1743 C1742 1.385 . S
C1744 C1742 1.478 . S
C1744 C1746 1.381 . S
C1744 C1750 1.383 . S
C1745 C1741 1.495 . S
C1745 H1751 0.959 . S
C1745 H1752 0.961 . S
C1745 H1753 0.960 . S
C1746 C1744 1.381 . S
C1746 C1747 1.394 . S
C1746 H1754 0.930 . S
C1747 C1746 1.394 . S
C1747 C1748 1.383 . S
C1747 H1755 0.929 . S
C1748 C1747 1.383 . S
C1748 C1749 1.377 . S
C1749 H1733 0.930 . S
C1749 C1748 1.377 . S
C1749 C1750 1.379 . S
C1750 H1734 0.931 . S
C1750 C1744 1.383 . S
C1750 C1749 1.379 . S
H1751 C1745 0.959 . S
H1752 C1745 0.961 . S
H1753 C1745 0.960 . S
H1754 C1746 0.930 . S
H1755 C1747 0.929 . S
H1756 C1764 0.929 . S
H1757 C1766 0.930 . S
H1758 C1768 0.930 . S
H1759 C1771 0.929 . S
H1760 C1774 0.930 . S
H1761 C1776 0.960 . S
H1762 C1776 0.960 . S
H1763 C1776 0.960 . S
C1764 H1756 0.929 . S
C1764 C1765 1.377 . S
C1764 C1766 1.384 . S
C1765 C1764 1.377 . S
C1765 C1771 1.390 . S
C1766 H1757 0.930 . S
C1766 C1764 1.384 . S
C1766 C1767 1.372 . S
C1767 C1766 1.372 . S
C1767 C1768 1.400 . S
C1767 C1772 1.490 . S
C1768 H1758 0.930 . S
C1768 C1767 1.400 . S
C1768 C1771 1.386 . S
H1769 C1785 0.930 . S
H1770 C1786 0.931 . S
C1771 H1759 0.929 . S
C1771 C1765 1.390 . S
C1771 C1768 1.386 . S
C1772 C1767 1.490 . S
C1772 C1774 1.395 . S
C1772 C1775 1.403 . S
H1773 C1779 0.930 . S
C1774 H1760 0.930 . S
C1774 C1772 1.395 . S
C1774 C1777 1.403 . S
C1775 C1772 1.403 . S
C1775 C1776 1.524 . S
C1775 C1779 1.400 . S
C1776 H1761 0.960 . S
C1776 H1762 0.960 . S
C1776 H1763 0.960 . S
C1776 C1775 1.524 . S
C1777 C1774 1.403 . S
C1777 C1778 1.392 . S
C1777 C1781 1.495 . S
C1778 C1777 1.392 . S
C1778 C1779 1.385 . S
C1778 C1780 1.478 . S
C1779 H1773 0.930 . S
C1779 C1775 1.400 . S
C1779 C1778 1.385 . S
C1780 C1778 1.478 . S
C1780 C1782 1.381 . S
C1780 C1786 1.383 . S
C1781 C1777 1.495 . S
C1781 H1787 0.959 . S
C1781 H1788 0.961 . S
C1781 H1789 0.960 . S
C1782 C1780 1.381 . S
C1782 C1783 1.394 . S
C1782 H1790 0.930 . S
C1783 C1782 1.394 . S
C1783 C1784 1.383 . S
C1783 H1791 0.929 . S
C1784 C1783 1.383 . S
C1784 C1785 1.377 . S
C1785 H1769 0.930 . S
C1785 C1784 1.377 . S
C1785 C1786 1.379 . S
C1786 H1770 0.931 . S
C1786 C1780 1.383 . S
C1786 C1785 1.379 . S
H1787 C1781 0.959 . S
H1788 C1781 0.961 . S
H1789 C1781 0.960 . S
H1790 C1782 0.930 . S
H1791 C1783 0.929 . S
H1792 C1800 0.929 . S
H1793 C1802 0.930 . S
H1794 C1804 0.930 . S
H1795 C1807 0.929 . S
H1796 C1810 0.930 . S
H1797 C1812 0.960 . S
H1798 C1812 0.960 . S
H1799 C1812 0.960 . S
C1800 H1792 0.929 . S
C1800 C1801 1.377 . S
C1800 C1802 1.384 . S
C1801 C1800 1.377 . S
C1801 C1807 1.390 . S
C1802 H1793 0.930 . S
C1802 C1800 1.384 . S
C1802 C1803 1.372 . S
C1803 C1802 1.372 . S
C1803 C1804 1.400 . S
C1803 C1808 1.490 . S
C1804 H1794 0.930 . S
C1804 C1803 1.400 . S
C1804 C1807 1.386 . S
H1805 C1821 0.930 . S
H1806 C1822 0.931 . S
C1807 H1795 0.929 . S
C1807 C1801 1.390 . S
C1807 C1804 1.386 . S
C1808 C1803 1.490 . S
C1808 C1810 1.395 . S
C1808 C1811 1.403 . S
H1809 C1815 0.930 . S
C1810 H1796 0.930 . S
C1810 C1808 1.395 . S
C1810 C1813 1.403 . S
C1811 C1808 1.403 . S
C1811 C1812 1.524 . S
C1811 C1815 1.400 . S
C1812 H1797 0.960 . S
C1812 H1798 0.960 . S
C1812 H1799 0.960 . S
C1812 C1811 1.524 . S
C1813 C1810 1.403 . S
C1813 C1814 1.392 . S
C1813 C1817 1.495 1_545 S
C1814 C1813 1.392 . S
C1814 C1815 1.385 . S
C1814 C1816 1.478 . S
C1815 H1809 0.930 . S
C1815 C1811 1.400 . S
C1815 C1814 1.385 . S
C1816 C1814 1.478 . S
C1816 C1818 1.381 1_655 S
C1816 C1822 1.383 . S
C1817 C1813 1.495 1_565 S
C1817 H1823 0.959 . S
C1817 H1824 0.961 . S
C1817 H1825 0.960 . S
C1818 C1816 1.381 1_455 S
C1818 C1819 1.394 . S
C1818 H1826 0.930 . S
C1819 C1818 1.394 . S
C1819 C1820 1.383 . S
C1819 H1827 0.929 . S
C1820 C1819 1.383 . S
C1820 C1821 1.377 1_455 S
C1821 H1805 0.930 . S
C1821 C1820 1.377 1_655 S
C1821 C1822 1.379 . S
C1822 H1806 0.931 . S
C1822 C1816 1.383 . S
C1822 C1821 1.379 . S
H1823 C1817 0.959 . S
H1824 C1817 0.961 . S
H1825 C1817 0.960 . S
H1826 C1818 0.930 . S
H1827 C1819 0.929 . S
H1828 C1836 0.929 . S
H1829 C1838 0.930 . S
H1830 C1840 0.930 . S
H1831 C1843 0.929 . S
H1832 C1846 0.930 . S
H1833 C1848 0.960 . S
H1834 C1848 0.960 . S
H1835 C1848 0.960 . S
C1836 H1828 0.929 . S
C1836 C1837 1.377 . S
C1836 C1838 1.384 . S
C1837 C1836 1.377 . S
C1837 C1843 1.390 . S
C1838 H1829 0.930 . S
C1838 C1836 1.384 . S
C1838 C1839 1.372 . S
C1839 C1838 1.372 . S
C1839 C1840 1.400 . S
C1839 C1844 1.490 . S
C1840 H1830 0.930 . S
C1840 C1839 1.400 . S
C1840 C1843 1.386 . S
H1841 C1857 0.930 . S
H1842 C1858 0.931 . S
C1843 H1831 0.929 . S
C1843 C1837 1.390 . S
C1843 C1840 1.386 . S
C1844 C1839 1.490 . S
C1844 C1846 1.395 . S
C1844 C1847 1.403 . S
H1845 C1851 0.930 . S
C1846 H1832 0.930 . S
C1846 C1844 1.395 . S
C1846 C1849 1.403 . S
C1847 C1844 1.403 . S
C1847 C1848 1.524 . S
C1847 C1851 1.400 . S
C1848 H1833 0.960 . S
C1848 H1834 0.960 . S
C1848 H1835 0.960 . S
C1848 C1847 1.524 . S
C1849 C1846 1.403 . S
C1849 C1850 1.392 . S
C1849 C1853 1.495 . S
C1850 C1849 1.392 . S
C1850 C1851 1.385 . S
C1850 C1852 1.478 . S
C1851 H1845 0.930 . S
C1851 C1847 1.400 . S
C1851 C1850 1.385 . S
C1852 C1850 1.478 . S
C1852 C1854 1.381 . S
C1852 C1858 1.383 . S
C1853 C1849 1.495 . S
C1853 H1859 0.959 . S
C1853 H1860 0.961 . S
C1853 H1861 0.960 . S
C1854 C1852 1.381 . S
C1854 C1855 1.394 . S
C1854 H1862 0.930 . S
C1855 C1854 1.394 . S
C1855 C1856 1.383 . S
C1855 H1863 0.929 . S
C1856 C1855 1.383 . S
C1856 C1857 1.377 . S
C1857 H1841 0.930 . S
C1857 C1856 1.377 . S
C1857 C1858 1.379 . S
C1858 H1842 0.931 . S
C1858 C1852 1.383 . S
C1858 C1857 1.379 . S
H1859 C1853 0.959 . S
H1860 C1853 0.961 . S
H1861 C1853 0.960 . S
H1862 C1854 0.930 . S
H1863 C1855 0.929 . S
H1864 C1872 0.929 . S
H1865 C1874 0.930 . S
H1866 C1876 0.930 . S
H1867 C1879 0.929 . S
H1868 C1882 0.930 . S
H1869 C1884 0.960 . S
H1870 C1884 0.960 . S
H1871 C1884 0.960 . S
C1872 H1864 0.929 . S
C1872 C1873 1.377 . S
C1872 C1874 1.384 . S
C1873 C1872 1.377 . S
C1873 C1879 1.390 . S
C1874 H1865 0.930 . S
C1874 C1872 1.384 . S
C1874 C1875 1.372 . S
C1875 C1874 1.372 . S
C1875 C1876 1.400 . S
C1875 C1880 1.490 . S
C1876 H1866 0.930 . S
C1876 C1875 1.400 . S
C1876 C1879 1.386 . S
H1877 C1893 0.930 . S
H1878 C1894 0.931 . S
C1879 H1867 0.929 . S
C1879 C1873 1.390 . S
C1879 C1876 1.386 . S
C1880 C1875 1.490 . S
C1880 C1882 1.395 . S
C1880 C1883 1.403 . S
H1881 C1887 0.930 . S
C1882 H1868 0.930 . S
C1882 C1880 1.395 . S
C1882 C1885 1.403 . S
C1883 C1880 1.403 . S
C1883 C1884 1.524 . S
C1883 C1887 1.400 . S
C1884 H1869 0.960 . S
C1884 H1870 0.960 . S
C1884 H1871 0.960 . S
C1884 C1883 1.524 . S
C1885 C1882 1.403 . S
C1885 C1886 1.392 . S
C1885 C1889 1.495 . S
C1886 C1885 1.392 . S
C1886 C1887 1.385 . S
C1886 C1888 1.478 . S
C1887 H1881 0.930 . S
C1887 C1883 1.400 . S
C1887 C1886 1.385 . S
C1888 C1886 1.478 . S
C1888 C1890 1.381 . S
C1888 C1894 1.383 . S
C1889 C1885 1.495 . S
C1889 H1895 0.959 . S
C1889 H1896 0.961 . S
C1889 H1897 0.960 . S
C1890 C1888 1.381 . S
C1890 C1891 1.394 . S
C1890 H1898 0.930 . S
C1891 C1890 1.394 . S
C1891 C1892 1.383 . S
C1891 H1899 0.929 . S
C1892 C1891 1.383 . S
C1892 C1893 1.377 . S
C1893 H1877 0.930 . S
C1893 C1892 1.377 . S
C1893 C1894 1.379 . S
C1894 H1878 0.931 . S
C1894 C1888 1.383 . S
C1894 C1893 1.379 . S
H1895 C1889 0.959 . S
H1896 C1889 0.961 . S
H1897 C1889 0.960 . S
H1898 C1890 0.930 . S
H1899 C1891 0.929 . S
H1900 C1908 0.929 . S
H1901 C1910 0.930 . S
H1902 C1912 0.930 . S
H1903 C1915 0.929 . S
H1904 C1918 0.930 . S
H1905 C1920 0.960 . S
H1906 C1920 0.960 . S
H1907 C1920 0.960 . S
C1908 H1900 0.929 . S
C1908 C1909 1.377 . S
C1908 C1910 1.384 . S
C1909 C1908 1.377 . S
C1909 C1915 1.390 . S
C1910 H1901 0.930 . S
C1910 C1908 1.384 . S
C1910 C1911 1.372 . S
C1911 C1910 1.372 . S
C1911 C1912 1.400 . S
C1911 C1916 1.490 . S
C1912 H1902 0.930 . S
C1912 C1911 1.400 . S
C1912 C1915 1.386 . S
H1913 C1929 0.930 . S
H1914 C1930 0.931 . S
C1915 H1903 0.929 . S
C1915 C1909 1.390 . S
C1915 C1912 1.386 . S
C1916 C1911 1.490 . S
C1916 C1918 1.395 . S
C1916 C1919 1.403 . S
H1917 C1923 0.930 . S
C1918 H1904 0.930 . S
C1918 C1916 1.395 . S
C1918 C1921 1.403 . S
C1919 C1916 1.403 . S
C1919 C1920 1.524 . S
C1919 C1923 1.400 . S
C1920 H1905 0.960 . S
C1920 H1906 0.960 . S
C1920 H1907 0.960 . S
C1920 C1919 1.524 . S
C1921 C1918 1.403 . S
C1921 C1922 1.392 . S
C1921 C1925 1.495 . S
C1922 C1921 1.392 . S
C1922 C1923 1.385 . S
C1922 C1924 1.478 . S
C1923 H1917 0.930 . S
C1923 C1919 1.400 . S
C1923 C1922 1.385 . S
C1924 C1922 1.478 . S
C1924 C1926 1.381 . S
C1924 C1930 1.383 . S
C1925 C1921 1.495 . S
C1925 H1931 0.959 . S
C1925 H1932 0.961 . S
C1925 H1933 0.960 . S
C1926 C1924 1.381 . S
C1926 C1927 1.394 . S
C1926 H1934 0.930 . S
C1927 C1926 1.394 . S
C1927 C1928 1.383 . S
C1927 H1935 0.929 . S
C1928 C1927 1.383 . S
C1928 C1929 1.377 . S
C1929 H1913 0.930 . S
C1929 C1928 1.377 . S
C1929 C1930 1.379 . S
C1930 H1914 0.931 . S
C1930 C1924 1.383 . S
C1930 C1929 1.379 . S
H1931 C1925 0.959 . S
H1932 C1925 0.961 . S
H1933 C1925 0.960 . S
H1934 C1926 0.930 . S
H1935 C1927 0.929 . S
H1936 C1944 0.929 . S
H1937 C1946 0.930 . S
H1938 C1948 0.930 . S
H1939 C1951 0.929 . S
H1940 C1954 0.930 . S
H1941 C1956 0.960 . S
H1942 C1956 0.960 . S
H1943 C1956 0.960 . S
C1944 H1936 0.929 . S
C1944 C1945 1.377 . S
C1944 C1946 1.384 . S
C1945 C1944 1.377 . S
C1945 C1951 1.390 . S
C1946 H1937 0.930 . S
C1946 C1944 1.384 . S
C1946 C1947 1.372 . S
C1947 C1946 1.372 . S
C1947 C1948 1.400 . S
C1947 C1952 1.490 . S
C1948 H1938 0.930 . S
C1948 C1947 1.400 . S
C1948 C1951 1.386 . S
H1949 C1965 0.930 . S
H1950 C1966 0.931 . S
C1951 H1939 0.929 . S
C1951 C1945 1.390 . S
C1951 C1948 1.386 . S
C1952 C1947 1.490 . S
C1952 C1954 1.395 . S
C1952 C1955 1.403 . S
H1953 C1959 0.925 1_455 S
C1954 H1940 0.930 . S
C1954 C1952 1.395 . S
C1954 C1957 1.403 . S
C1955 C1952 1.403 . S
C1955 C1956 1.524 . S
C1955 C1959 1.400 . S
C1956 H1941 0.960 . S
C1956 H1942 0.960 . S
C1956 H1943 0.960 . S
C1956 C1955 1.524 . S
C1957 C1954 1.403 . S
C1957 C1958 1.392 . S
C1957 C1961 1.495 1_545 S
C1958 C1957 1.392 . S
C1958 C1959 1.385 . S
C1958 C1960 1.478 . S
C1959 H1953 0.925 1_655 S
C1959 C1955 1.400 . S
C1959 C1958 1.385 . S
C1960 C1958 1.478 . S
C1960 C1962 1.381 . S
C1960 C1966 1.383 1_655 S
C1961 C1957 1.495 1_565 S
C1961 H1967 0.959 . S
C1961 H1968 0.961 . S
C1961 H1969 0.960 . S
C1962 C1960 1.381 . S
C1962 C1963 1.394 . S
C1962 H1970 0.930 . S
C1963 C1962 1.394 . S
C1963 C1964 1.383 1_655 S
C1963 H1971 0.929 . S
C1964 C1963 1.383 1_455 S
C1964 C1965 1.377 . S
C1965 H1949 0.930 . S
C1965 C1964 1.377 . S
C1965 C1966 1.379 . S
C1966 H1950 0.931 . S
C1966 C1960 1.383 1_455 S
C1966 C1965 1.379 . S
H1967 C1961 0.959 . S
H1968 C1961 0.961 . S
H1969 C1961 0.960 . S
H1970 C1962 0.930 . S
H1971 C1963 0.929 . S
H1972 C1980 0.929 . S
H1973 C1982 0.930 . S
H1974 C1984 0.930 . S
H1975 C1987 0.929 . S
H1976 C1990 0.930 . S
H1977 C1992 0.960 . S
H1978 C1992 0.960 . S
H1979 C1992 0.960 . S
C1980 H1972 0.929 . S
C1980 C1981 1.377 . S
C1980 C1982 1.384 . S
C1981 C1980 1.377 . S
C1981 C1987 1.390 . S
C1982 H1973 0.930 . S
C1982 C1980 1.384 . S
C1982 C1983 1.372 . S
C1983 C1982 1.372 . S
C1983 C1984 1.400 . S
C1983 C1988 1.490 . S
C1984 H1974 0.930 . S
C1984 C1983 1.400 . S
C1984 C1987 1.386 . S
H1985 C2001 0.930 . S
H1986 C2002 0.931 . S
C1987 H1975 0.929 . S
C1987 C1981 1.390 . S
C1987 C1984 1.386 . S
C1988 C1983 1.490 . S
C1988 C1990 1.395 . S
C1988 C1991 1.403 . S
H1989 C1995 0.930 . S
C1990 H1976 0.930 . S
C1990 C1988 1.395 . S
C1990 C1993 1.403 . S
C1991 C1988 1.403 . S
C1991 C1992 1.524 . S
C1991 C1995 1.400 . S
C1992 H1977 0.960 . S
C1992 H1978 0.960 . S
C1992 H1979 0.960 . S
C1992 C1991 1.524 . S
C1993 C1990 1.403 . S
C1993 C1994 1.392 . S
C1993 C1997 1.495 . S
C1994 C1993 1.392 . S
C1994 C1995 1.385 . S
C1994 C1996 1.478 . S
C1995 H1989 0.930 . S
C1995 C1991 1.400 . S
C1995 C1994 1.385 . S
C1996 C1994 1.478 . S
C1996 C1998 1.381 . S
C1996 C2002 1.383 . S
C1997 C1993 1.495 . S
C1997 H2003 0.959 . S
C1997 H2004 0.961 . S
C1997 H2005 0.960 . S
C1998 C1996 1.381 . S
C1998 C1999 1.394 . S
C1998 H2006 0.930 . S
C1999 C1998 1.394 . S
C1999 C2000 1.383 . S
C1999 H2007 0.929 . S
C2000 C1999 1.383 . S
C2000 C2001 1.377 . S
C2001 H1985 0.930 . S
C2001 C2000 1.377 . S
C2001 C2002 1.379 . S
C2002 H1986 0.931 . S
C2002 C1996 1.383 . S
C2002 C2001 1.379 . S
H2003 C1997 0.959 . S
H2004 C1997 0.961 . S
H2005 C1997 0.960 . S
H2006 C1998 0.930 . S
H2007 C1999 0.929 . S
H2008 C2016 0.929 . S
H2009 C2018 0.930 . S
H2010 C2020 0.930 . S
H2011 C2023 0.929 . S
H2012 C2026 0.930 . S
H2013 C2028 0.960 . S
H2014 C2028 0.960 . S
H2015 C2028 0.960 . S
C2016 H2008 0.929 . S
C2016 C2017 1.377 . S
C2016 C2018 1.384 . S
C2017 C2016 1.377 . S
C2017 C2023 1.390 . S
C2018 H2009 0.930 . S
C2018 C2016 1.384 . S
C2018 C2019 1.372 . S
C2019 C2018 1.372 . S
C2019 C2020 1.400 . S
C2019 C2024 1.490 . S
C2020 H2010 0.930 . S
C2020 C2019 1.400 . S
C2020 C2023 1.386 . S
H2021 C2037 0.930 . S
H2022 C2038 0.931 . S
C2023 H2011 0.929 . S
C2023 C2017 1.390 . S
C2023 C2020 1.386 . S
C2024 C2019 1.490 . S
C2024 C2026 1.395 . S
C2024 C2027 1.403 . S
H2025 C2031 0.930 . S
C2026 H2012 0.930 . S
C2026 C2024 1.395 . S
C2026 C2029 1.403 . S
C2027 C2024 1.403 . S
C2027 C2028 1.524 . S
C2027 C2031 1.400 . S
C2028 H2013 0.960 . S
C2028 H2014 0.960 . S
C2028 H2015 0.960 . S
C2028 C2027 1.524 . S
C2029 C2026 1.403 . S
C2029 C2030 1.392 . S
C2029 C2033 1.495 . S
C2030 C2029 1.392 . S
C2030 C2031 1.385 . S
C2030 C2032 1.478 . S
C2031 H2025 0.930 . S
C2031 C2027 1.400 . S
C2031 C2030 1.385 . S
C2032 C2030 1.478 . S
C2032 C2034 1.381 . S
C2032 C2038 1.383 . S
C2033 C2029 1.495 . S
C2033 H2039 0.959 . S
C2033 H2040 0.961 . S
C2033 H2041 0.960 . S
C2034 C2032 1.381 . S
C2034 C2035 1.394 . S
C2034 H2042 0.930 . S
C2035 C2034 1.394 . S
C2035 C2036 1.383 . S
C2035 H2043 0.929 . S
C2036 C2035 1.383 . S
C2036 C2037 1.377 . S
C2037 H2021 0.930 . S
C2037 C2036 1.377 . S
C2037 C2038 1.379 . S
C2038 H2022 0.931 . S
C2038 C2032 1.383 . S
C2038 C2037 1.379 . S
H2039 C2033 0.959 . S
H2040 C2033 0.961 . S
H2041 C2033 0.960 . S
H2042 C2034 0.930 . S
H2043 C2035 0.929 . S
H2044 C2052 0.929 . S
H2045 C2054 0.930 . S
H2046 C2056 0.930 . S
H2047 C2059 0.929 . S
H2048 C2062 0.930 . S
H2049 C2064 0.960 . S
H2050 C2064 0.960 . S
H2051 C2064 0.960 . S
C2052 H2044 0.929 . S
C2052 C2053 1.377 . S
C2052 C2054 1.384 . S
C2053 C2052 1.377 . S
C2053 C2059 1.390 . S
C2054 H2045 0.930 . S
C2054 C2052 1.384 . S
C2054 C2055 1.372 . S
C2055 C2054 1.372 . S
C2055 C2056 1.400 . S
C2055 C2060 1.490 . S
C2056 H2046 0.930 . S
C2056 C2055 1.400 . S
C2056 C2059 1.386 . S
H2057 C2073 0.930 . S
H2058 C2074 0.931 . S
C2059 H2047 0.929 . S
C2059 C2053 1.390 . S
C2059 C2056 1.386 . S
C2060 C2055 1.490 . S
C2060 C2062 1.395 . S
C2060 C2063 1.403 . S
H2061 C2067 0.930 . S
C2062 H2048 0.930 . S
C2062 C2060 1.395 . S
C2062 C2065 1.403 . S
C2063 C2060 1.403 . S
C2063 C2064 1.524 . S
C2063 C2067 1.400 . S
C2064 H2049 0.960 . S
C2064 H2050 0.960 . S
C2064 H2051 0.960 . S
C2064 C2063 1.524 . S
C2065 C2062 1.403 . S
C2065 C2066 1.392 . S
C2065 C2069 1.495 . S
C2066 C2065 1.392 . S
C2066 C2067 1.385 . S
C2066 C2068 1.478 . S
C2067 H2061 0.930 . S
C2067 C2063 1.400 . S
C2067 C2066 1.385 . S
C2068 C2066 1.478 . S
C2068 C2070 1.381 . S
C2068 C2074 1.383 . S
C2069 C2065 1.495 . S
C2069 H2075 0.959 . S
C2069 H2076 0.961 . S
C2069 H2077 0.960 . S
C2070 C2068 1.381 . S
C2070 C2071 1.394 . S
C2070 H2078 0.930 . S
C2071 C2070 1.394 . S
C2071 C2072 1.383 . S
C2071 H2079 0.929 . S
C2072 C2071 1.383 . S
C2072 C2073 1.377 . S
C2073 H2057 0.930 . S
C2073 C2072 1.377 . S
C2073 C2074 1.379 . S
C2074 H2058 0.931 . S
C2074 C2068 1.383 . S
C2074 C2073 1.379 . S
H2075 C2069 0.959 . S
H2076 C2069 0.961 . S
H2077 C2069 0.960 . S
H2078 C2070 0.930 . S
H2079 C2071 0.929 . S
H2080 C2088 0.929 . S
H2081 C2090 0.930 . S
H2082 C2092 0.930 . S
H2083 C2095 0.929 . S
H2084 C2098 0.930 1_556 S
H2085 C2100 0.960 . S
H2086 C2100 0.960 . S
H2087 C2100 0.960 . S
C2088 H2080 0.929 . S
C2088 C2089 1.374 . S
C2088 C2090 1.384 . S
C2089 C2088 1.374 . S
C2089 C2095 1.394 1_556 S
C2090 H2081 0.930 . S
C2090 C2088 1.384 . S
C2090 C2091 1.372 1_556 S
C2091 C2090 1.372 1_554 S
C2091 C2092 1.400 . S
C2091 C2096 1.490 . S
C2092 H2082 0.930 . S
C2092 C2091 1.400 . S
C2092 C2095 1.386 . S
H2093 C2109 0.930 . S
H2094 C2110 0.931 . S
C2095 H2083 0.929 . S
C2095 C2089 1.394 1_554 S
C2095 C2092 1.386 . S
C2096 C2091 1.490 . S
C2096 C2098 1.395 . S
C2096 C2099 1.403 . S
H2097 C2103 0.930 . S
C2098 H2084 0.930 1_554 S
C2098 C2096 1.395 . S
C2098 C2101 1.403 . S
C2099 C2096 1.403 . S
C2099 C2100 1.524 . S
C2099 C2103 1.400 . S
C2100 H2085 0.960 . S
C2100 H2086 0.960 . S
C2100 H2087 0.960 . S
C2100 C2099 1.524 . S
C2101 C2098 1.403 . S
C2101 C2102 1.392 . S
C2101 C2105 1.495 1_554 S
C2102 C2101 1.392 . S
C2102 C2103 1.385 . S
C2102 C2104 1.478 . S
C2103 H2097 0.930 . S
C2103 C2099 1.400 . S
C2103 C2102 1.385 . S
C2104 C2102 1.478 . S
C2104 C2106 1.381 . S
C2104 C2110 1.383 . S
C2105 C2101 1.495 1_556 S
C2105 H2111 0.959 . S
C2105 H2112 0.961 1_556 S
C2105 H2113 0.960 . S
C2106 C2104 1.381 . S
C2106 C2107 1.394 . S
C2106 H2114 0.930 . S
C2107 C2106 1.394 . S
C2107 C2108 1.383 . S
C2107 H2115 0.929 . S
C2108 C2107 1.383 . S
C2108 C2109 1.377 . S
C2109 H2093 0.930 . S
C2109 C2108 1.377 . S
C2109 C2110 1.379 . S
C2110 H2094 0.931 . S
C2110 C2104 1.383 . S
C2110 C2109 1.379 . S
H2111 C2105 0.959 . S
H2112 C2105 0.961 1_554 S
H2113 C2105 0.960 . S
H2114 C2106 0.930 . S
H2115 C2107 0.929 . S
H2116 C2124 0.929 . S
H2117 C2126 0.930 . S
H2118 C2128 0.930 1_556 S
H2119 C2131 0.902 1_556 S
H2120 C2134 0.930 . S
H2121 C2136 0.960 . S
H2122 C2136 0.960 . S
H2123 C2136 0.960 . S
C2124 H2116 0.929 . S
C2124 C2125 1.377 . S
C2124 C2126 1.384 . S
C2125 C2124 1.377 . S
C2125 C2131 1.411 . S
C2126 H2117 0.930 . S
C2126 C2124 1.384 . S
C2126 C2127 1.372 . S
C2127 C2126 1.372 . S
C2127 C2128 1.400 . S
C2127 C2132 1.490 . S
C2128 H2118 0.930 1_554 S
C2128 C2127 1.400 . S
C2128 C2131 1.392 . S
H2129 C2145 0.930 1_556 S
H2130 C2146 0.931 1_556 S
C2131 H2119 0.902 1_554 S
C2131 C2125 1.411 . S
C2131 C2128 1.392 . S
C2132 C2127 1.490 . S
C2132 C2134 1.395 . S
C2132 C2135 1.403 . S
H2133 C2139 0.930 1_556 S
C2134 H2120 0.930 . S
C2134 C2132 1.395 . S
C2134 C2137 1.403 . S
C2135 C2132 1.403 . S
C2135 C2136 1.524 1_554 S
C2135 C2139 1.400 . S
C2136 H2121 0.960 . S
C2136 H2122 0.960 . S
C2136 H2123 0.960 . S
C2136 C2135 1.524 1_556 S
C2137 C2134 1.403 . S
C2137 C2138 1.392 . S
C2137 C2141 1.495 . S
C2138 C2137 1.392 . S
C2138 C2139 1.385 . S
C2138 C2140 1.478 . S
C2139 H2133 0.930 1_554 S
C2139 C2135 1.400 . S
C2139 C2138 1.385 . S
C2140 C2138 1.478 . S
C2140 C2142 1.381 . S
C2140 C2146 1.383 . S
C2141 C2137 1.495 . S
C2141 H2147 0.959 . S
C2141 H2148 0.961 . S
C2141 H2149 0.960 . S
C2142 C2140 1.381 . S
C2142 C2143 1.394 . S
C2142 H2150 0.930 . S
C2143 C2142 1.394 . S
C2143 C2144 1.383 . S
C2143 H2151 0.929 . S
C2144 C2143 1.383 . S
C2144 C2145 1.377 . S
C2145 H2129 0.930 1_554 S
C2145 C2144 1.377 . S
C2145 C2146 1.379 . S
C2146 H2130 0.931 1_554 S
C2146 C2140 1.383 . S
C2146 C2145 1.379 . S
H2147 C2141 0.959 . S
H2148 C2141 0.961 . S
H2149 C2141 0.960 . S
H2150 C2142 0.930 . S
H2151 C2143 0.929 . S
H2152 C2160 0.929 . S
H2153 C2162 0.930 . S
H2154 C2164 0.930 . S
H2155 C2167 0.929 . S
H2156 C2170 0.930 . S
H2157 C2172 0.960 . S
H2158 C2172 0.960 . S
H2159 C2172 0.960 . S
C2160 H2152 0.929 . S
C2160 C2161 1.377 . S
C2160 C2162 1.384 . S
C2161 C2160 1.377 . S
C2161 C2167 1.390 . S
C2162 H2153 0.930 . S
C2162 C2160 1.384 . S
C2162 C2163 1.372 . S
C2163 C2162 1.372 . S
C2163 C2164 1.400 . S
C2163 C2168 1.490 . S
C2164 H2154 0.930 . S
C2164 C2163 1.400 . S
C2164 C2167 1.386 . S
H2165 C2181 0.930 . S
H2166 C2182 0.931 . S
C2167 H2155 0.929 . S
C2167 C2161 1.390 . S
C2167 C2164 1.386 . S
C2168 C2163 1.490 . S
C2168 C2170 1.395 . S
C2168 C2171 1.403 . S
H2169 C2175 0.930 . S
C2170 H2156 0.930 . S
C2170 C2168 1.395 . S
C2170 C2173 1.403 . S
C2171 C2168 1.403 . S
C2171 C2172 1.524 . S
C2171 C2175 1.400 . S
C2172 H2157 0.960 . S
C2172 H2158 0.960 . S
C2172 H2159 0.960 . S
C2172 C2171 1.524 . S
C2173 C2170 1.403 . S
C2173 C2174 1.392 . S
C2173 C2177 1.495 . S
C2174 C2173 1.392 . S
C2174 C2175 1.385 . S
C2174 C2176 1.478 . S
C2175 H2169 0.930 . S
C2175 C2171 1.400 . S
C2175 C2174 1.385 . S
C2176 C2174 1.478 . S
C2176 C2178 1.381 . S
C2176 C2182 1.383 . S
C2177 C2173 1.495 . S
C2177 H2183 0.959 . S
C2177 H2184 0.961 . S
C2177 H2185 0.960 . S
C2178 C2176 1.381 . S
C2178 C2179 1.394 . S
C2178 H2186 0.930 . S
C2179 C2178 1.394 . S
C2179 C2180 1.383 . S
C2179 H2187 0.929 . S
C2180 C2179 1.383 . S
C2180 C2181 1.377 . S
C2181 H2165 0.930 . S
C2181 C2180 1.377 . S
C2181 C2182 1.379 . S
C2182 H2166 0.931 . S
C2182 C2176 1.383 . S
C2182 C2181 1.379 . S
H2183 C2177 0.959 . S
H2184 C2177 0.961 . S
H2185 C2177 0.960 . S
H2186 C2178 0.930 . S
H2187 C2179 0.929 . S
H2188 C2196 0.929 . S
H2189 C2198 0.930 . S
H2190 C2200 0.930 . S
H2191 C2203 0.929 . S
H2192 C2206 0.930 . S
H2193 C2208 0.960 . S
H2194 C2208 0.960 . S
H2195 C2208 0.960 . S
C2196 H2188 0.929 . S
C2196 C2197 1.377 . S
C2196 C2198 1.384 . S
C2197 C2196 1.377 . S
C2197 C2203 1.390 . S
C2198 H2189 0.930 . S
C2198 C2196 1.384 . S
C2198 C2199 1.372 . S
C2199 C2198 1.372 . S
C2199 C2200 1.400 . S
C2199 C2204 1.490 . S
C2200 H2190 0.930 . S
C2200 C2199 1.400 . S
C2200 C2203 1.386 . S
H2201 C2217 0.930 . S
H2202 C2218 0.931 . S
C2203 H2191 0.929 . S
C2203 C2197 1.390 . S
C2203 C2200 1.386 . S
C2204 C2199 1.490 . S
C2204 C2206 1.395 . S
C2204 C2207 1.403 . S
H2205 C2211 0.930 . S
C2206 H2192 0.930 . S
C2206 C2204 1.395 . S
C2206 C2209 1.403 . S
C2207 C2204 1.403 . S
C2207 C2208 1.524 . S
C2207 C2211 1.400 . S
C2208 H2193 0.960 . S
C2208 H2194 0.960 . S
C2208 H2195 0.960 . S
C2208 C2207 1.524 . S
C2209 C2206 1.403 . S
C2209 C2210 1.392 . S
C2209 C2213 1.495 . S
C2210 C2209 1.392 . S
C2210 C2211 1.385 . S
C2210 C2212 1.478 . S
C2211 H2205 0.930 . S
C2211 C2207 1.400 . S
C2211 C2210 1.385 . S
C2212 C2210 1.478 . S
C2212 C2214 1.381 . S
C2212 C2218 1.383 . S
C2213 C2209 1.495 . S
C2213 H2219 0.959 . S
C2213 H2220 0.961 . S
C2213 H2221 0.960 . S
C2214 C2212 1.381 . S
C2214 C2215 1.394 . S
C2214 H2222 0.930 . S
C2215 C2214 1.394 . S
C2215 C2216 1.383 . S
C2215 H2223 0.929 . S
C2216 C2215 1.383 . S
C2216 C2217 1.377 . S
C2217 H2201 0.930 . S
C2217 C2216 1.377 . S
C2217 C2218 1.379 . S
C2218 H2202 0.931 . S
C2218 C2212 1.383 . S
C2218 C2217 1.379 . S
H2219 C2213 0.959 . S
H2220 C2213 0.961 . S
H2221 C2213 0.960 . S
H2222 C2214 0.930 . S
H2223 C2215 0.929 . S
H2224 C2232 0.929 . S
H2225 C2234 0.930 . S
H2226 C2236 0.930 . S
H2227 C2239 0.929 . S
H2228 C2242 0.930 . S
H2229 C2244 0.960 . S
H2230 C2244 0.960 . S
H2231 C2244 0.960 . S
C2232 H2224 0.929 . S
C2232 C2233 1.377 . S
C2232 C2234 1.384 . S
C2233 C2232 1.377 . S
C2233 C2239 1.390 . S
C2234 H2225 0.930 . S
C2234 C2232 1.384 . S
C2234 C2235 1.372 . S
C2235 C2234 1.372 . S
C2235 C2236 1.400 . S
C2235 C2240 1.490 . S
C2236 H2226 0.930 . S
C2236 C2235 1.400 . S
C2236 C2239 1.386 . S
H2237 C2253 0.930 . S
H2238 C2254 0.931 . S
C2239 H2227 0.929 . S
C2239 C2233 1.390 . S
C2239 C2236 1.386 . S
C2240 C2235 1.490 . S
C2240 C2242 1.395 . S
C2240 C2243 1.403 . S
H2241 C2247 0.930 . S
C2242 H2228 0.930 . S
C2242 C2240 1.395 . S
C2242 C2245 1.403 . S
C2243 C2240 1.403 . S
C2243 C2244 1.524 . S
C2243 C2247 1.400 . S
C2244 H2229 0.960 . S
C2244 H2230 0.960 . S
C2244 H2231 0.960 . S
C2244 C2243 1.524 . S
C2245 C2242 1.403 . S
C2245 C2246 1.392 . S
C2245 C2249 1.495 . S
C2246 C2245 1.392 . S
C2246 C2247 1.385 . S
C2246 C2248 1.478 . S
C2247 H2241 0.930 . S
C2247 C2243 1.400 . S
C2247 C2246 1.385 . S
C2248 C2246 1.478 . S
C2248 C2250 1.381 . S
C2248 C2254 1.383 . S
C2249 C2245 1.495 . S
C2249 H2255 0.959 . S
C2249 H2256 0.961 . S
C2249 H2257 0.960 . S
C2250 C2248 1.381 . S
C2250 C2251 1.394 . S
C2250 H2258 0.930 . S
C2251 C2250 1.394 . S
C2251 C2252 1.383 . S
C2251 H2259 0.929 . S
C2252 C2251 1.383 . S
C2252 C2253 1.377 . S
C2253 H2237 0.930 . S
C2253 C2252 1.377 . S
C2253 C2254 1.379 . S
C2254 H2238 0.931 . S
C2254 C2248 1.383 . S
C2254 C2253 1.379 . S
H2255 C2249 0.959 . S
H2256 C2249 0.961 . S
H2257 C2249 0.960 . S
H2258 C2250 0.930 . S
H2259 C2251 0.929 . S
H2260 C2268 0.929 . S
H2261 C2270 0.930 . S
H2262 C2272 0.930 . S
H2263 C2275 0.929 . S
H2264 C2278 0.930 . S
H2265 C2280 0.960 . S
H2266 C2280 0.960 . S
H2267 C2280 0.960 . S
C2268 H2260 0.929 . S
C2268 C2269 1.377 . S
C2268 C2270 1.384 . S
C2269 C2268 1.377 . S
C2269 C2275 1.390 . S
C2270 H2261 0.930 . S
C2270 C2268 1.384 . S
C2270 C2271 1.372 . S
C2271 C2270 1.372 . S
C2271 C2272 1.400 . S
C2271 C2276 1.490 . S
C2272 H2262 0.930 . S
C2272 C2271 1.400 . S
C2272 C2275 1.386 . S
H2273 C2289 0.930 . S
H2274 C2290 0.931 . S
C2275 H2263 0.929 . S
C2275 C2269 1.390 . S
C2275 C2272 1.386 . S
C2276 C2271 1.490 . S
C2276 C2278 1.395 . S
C2276 C2279 1.403 . S
H2277 C2283 0.930 . S
C2278 H2264 0.930 . S
C2278 C2276 1.395 . S
C2278 C2281 1.403 . S
C2279 C2276 1.403 . S
C2279 C2280 1.524 . S
C2279 C2283 1.400 . S
C2280 H2265 0.960 . S
C2280 H2266 0.960 . S
C2280 H2267 0.960 . S
C2280 C2279 1.524 . S
C2281 C2278 1.403 . S
C2281 C2282 1.392 . S
C2281 C2285 1.495 . S
C2282 C2281 1.392 . S
C2282 C2283 1.385 . S
C2282 C2284 1.478 . S
C2283 H2277 0.930 . S
C2283 C2279 1.400 . S
C2283 C2282 1.385 . S
C2284 C2282 1.478 . S
C2284 C2286 1.381 . S
C2284 C2290 1.383 . S
C2285 C2281 1.495 . S
C2285 H2291 0.959 . S
C2285 H2292 0.961 . S
C2285 H2293 0.960 . S
C2286 C2284 1.381 . S
C2286 C2287 1.394 . S
C2286 H2294 0.930 . S
C2287 C2286 1.394 . S
C2287 C2288 1.383 . S
C2287 H2295 0.929 . S
C2288 C2287 1.383 . S
C2288 C2289 1.377 . S
C2289 H2273 0.930 . S
C2289 C2288 1.377 . S
C2289 C2290 1.379 . S
C2290 H2274 0.931 . S
C2290 C2284 1.383 . S
C2290 C2289 1.379 . S
H2291 C2285 0.959 . S
H2292 C2285 0.961 . S
H2293 C2285 0.960 . S
H2294 C2286 0.930 . S
H2295 C2287 0.929 . S
H2296 C2304 0.929 . S
H2297 C2306 0.930 . S
H2298 C2308 0.930 . S
H2299 C2311 0.929 . S
H2300 C2314 0.930 . S
H2301 C2316 0.960 . S
H2302 C2316 0.960 . S
H2303 C2316 0.960 . S
C2304 H2296 0.929 . S
C2304 C2305 1.377 . S
C2304 C2306 1.384 . S
C2305 C2304 1.377 . S
C2305 C2311 1.390 . S
C2306 H2297 0.930 . S
C2306 C2304 1.384 . S
C2306 C2307 1.372 . S
C2307 C2306 1.372 . S
C2307 C2308 1.400 . S
C2307 C2312 1.490 . S
C2308 H2298 0.930 . S
C2308 C2307 1.400 . S
C2308 C2311 1.386 . S
H2309 C2325 0.930 . S
H2310 C2326 0.931 . S
C2311 H2299 0.929 . S
C2311 C2305 1.390 . S
C2311 C2308 1.386 . S
C2312 C2307 1.490 . S
C2312 C2314 1.395 . S
C2312 C2315 1.403 . S
H2313 C2319 0.930 . S
C2314 H2300 0.930 . S
C2314 C2312 1.395 . S
C2314 C2317 1.403 . S
C2315 C2312 1.403 . S
C2315 C2316 1.524 . S
C2315 C2319 1.400 . S
C2316 H2301 0.960 . S
C2316 H2302 0.960 . S
C2316 H2303 0.960 . S
C2316 C2315 1.524 . S
C2317 C2314 1.403 . S
C2317 C2318 1.392 . S
C2317 C2321 1.495 . S
C2318 C2317 1.392 . S
C2318 C2319 1.385 . S
C2318 C2320 1.478 . S
C2319 H2313 0.930 . S
C2319 C2315 1.400 . S
C2319 C2318 1.385 . S
C2320 C2318 1.478 . S
C2320 C2322 1.381 . S
C2320 C2326 1.383 . S
C2321 C2317 1.495 . S
C2321 H2327 0.959 . S
C2321 H2328 0.961 . S
C2321 H2329 0.960 . S
C2322 C2320 1.381 . S
C2322 C2323 1.394 . S
C2322 H2330 0.930 . S
C2323 C2322 1.394 . S
C2323 C2324 1.383 . S
C2323 H2331 0.929 . S
C2324 C2323 1.383 . S
C2324 C2325 1.377 . S
C2325 H2309 0.930 . S
C2325 C2324 1.377 . S
C2325 C2326 1.379 . S
C2326 H2310 0.931 . S
C2326 C2320 1.383 . S
C2326 C2325 1.379 . S
H2327 C2321 0.959 . S
H2328 C2321 0.961 . S
H2329 C2321 0.960 . S
H2330 C2322 0.930 . S
H2331 C2323 0.929 . S
H2332 C2340 0.929 . S
H2333 C2342 0.930 . S
H2334 C2344 0.930 . S
H2335 C2347 0.929 . S
H2336 C2350 0.930 . S
H2337 C2352 0.960 . S
H2338 C2352 0.960 . S
H2339 C2352 0.960 . S
C2340 H2332 0.929 . S
C2340 C2341 1.377 . S
C2340 C2342 1.384 . S
C2341 C2340 1.377 . S
C2341 C2347 1.390 . S
C2342 H2333 0.930 . S
C2342 C2340 1.384 . S
C2342 C2343 1.372 . S
C2343 C2342 1.372 . S
C2343 C2344 1.400 . S
C2343 C2348 1.490 . S
C2344 H2334 0.930 . S
C2344 C2343 1.400 . S
C2344 C2347 1.386 . S
H2345 C2361 0.930 . S
H2346 C2362 0.931 . S
C2347 H2335 0.929 . S
C2347 C2341 1.390 . S
C2347 C2344 1.386 . S
C2348 C2343 1.490 . S
C2348 C2350 1.395 . S
C2348 C2351 1.403 . S
H2349 C2355 0.930 . S
C2350 H2336 0.930 . S
C2350 C2348 1.395 . S
C2350 C2353 1.403 . S
C2351 C2348 1.403 . S
C2351 C2352 1.524 . S
C2351 C2355 1.400 . S
C2352 H2337 0.960 . S
C2352 H2338 0.960 . S
C2352 H2339 0.960 . S
C2352 C2351 1.524 . S
C2353 C2350 1.403 . S
C2353 C2354 1.392 . S
C2353 C2357 1.495 . S
C2354 C2353 1.392 . S
C2354 C2355 1.385 . S
C2354 C2356 1.478 . S
C2355 H2349 0.930 . S
C2355 C2351 1.400 . S
C2355 C2354 1.385 . S
C2356 C2354 1.478 . S
C2356 C2358 1.381 . S
C2356 C2362 1.383 . S
C2357 C2353 1.495 . S
C2357 H2363 0.959 . S
C2357 H2364 0.961 . S
C2357 H2365 0.960 . S
C2358 C2356 1.381 . S
C2358 C2359 1.394 . S
C2358 H2366 0.930 . S
C2359 C2358 1.394 . S
C2359 C2360 1.383 . S
C2359 H2367 0.929 . S
C2360 C2359 1.383 . S
C2360 C2361 1.377 . S
C2361 H2345 0.930 . S
C2361 C2360 1.377 . S
C2361 C2362 1.379 . S
C2362 H2346 0.931 . S
C2362 C2356 1.383 . S
C2362 C2361 1.379 . S
H2363 C2357 0.959 . S
H2364 C2357 0.961 . S
H2365 C2357 0.960 . S
H2366 C2358 0.930 . S
H2367 C2359 0.929 . S
H2368 C2376 0.929 . S
H2369 C2378 0.930 . S
H2370 C2380 0.930 . S
H2371 C2383 0.929 . S
H2372 C2386 0.930 . S
H2373 C2388 0.960 . S
H2374 C2388 0.960 . S
H2375 C2388 0.960 . S
C2376 H2368 0.929 . S
C2376 C2377 1.377 . S
C2376 C2378 1.384 . S
C2377 C2376 1.377 . S
C2377 C2383 1.390 . S
C2378 H2369 0.930 . S
C2378 C2376 1.384 . S
C2378 C2379 1.372 . S
C2379 C2378 1.372 . S
C2379 C2380 1.400 . S
C2379 C2384 1.490 . S
C2380 H2370 0.930 . S
C2380 C2379 1.400 . S
C2380 C2383 1.386 . S
H2381 C2397 0.930 . S
H2382 C2398 0.931 . S
C2383 H2371 0.929 . S
C2383 C2377 1.390 . S
C2383 C2380 1.386 . S
C2384 C2379 1.490 . S
C2384 C2386 1.395 . S
C2384 C2387 1.403 . S
H2385 C2391 0.930 . S
C2386 H2372 0.930 . S
C2386 C2384 1.395 . S
C2386 C2389 1.403 . S
C2387 C2384 1.403 . S
C2387 C2388 1.524 . S
C2387 C2391 1.400 . S
C2388 H2373 0.960 . S
C2388 H2374 0.960 . S
C2388 H2375 0.960 . S
C2388 C2387 1.524 . S
C2389 C2386 1.403 . S
C2389 C2390 1.392 . S
C2389 C2393 1.495 . S
C2390 C2389 1.392 . S
C2390 C2391 1.385 . S
C2390 C2392 1.478 . S
C2391 H2385 0.930 . S
C2391 C2387 1.400 . S
C2391 C2390 1.385 . S
C2392 C2390 1.478 . S
C2392 C2394 1.381 . S
C2392 C2398 1.383 . S
C2393 C2389 1.495 . S
C2393 H2399 0.959 . S
C2393 H2400 0.961 . S
C2393 H2401 0.960 . S
C2394 C2392 1.381 . S
C2394 C2395 1.394 . S
C2394 H2402 0.930 . S
C2395 C2394 1.394 . S
C2395 C2396 1.383 . S
C2395 H2403 0.929 . S
C2396 C2395 1.383 . S
C2396 C2397 1.377 . S
C2397 H2381 0.930 . S
C2397 C2396 1.377 . S
C2397 C2398 1.379 . S
C2398 H2382 0.931 . S
C2398 C2392 1.383 . S
C2398 C2397 1.379 . S
H2399 C2393 0.959 . S
H2400 C2393 0.961 . S
H2401 C2393 0.960 . S
H2402 C2394 0.930 . S
H2403 C2395 0.929 . S
H2404 C2412 0.929 . S
H2405 C2414 0.930 . S
H2406 C2416 0.930 . S
H2407 C2419 0.929 . S
H2408 C2422 0.930 . S
H2409 C2424 0.960 . S
H2410 C2424 0.960 . S
H2411 C2424 0.960 . S
C2412 H2404 0.929 . S
C2412 C2413 1.377 . S
C2412 C2414 1.384 . S
C2413 C2412 1.377 . S
C2413 C2419 1.390 . S
C2414 H2405 0.930 . S
C2414 C2412 1.384 . S
C2414 C2415 1.372 . S
C2415 C2414 1.372 . S
C2415 C2416 1.400 . S
C2415 C2420 1.490 . S
C2416 H2406 0.930 . S
C2416 C2415 1.400 . S
C2416 C2419 1.386 . S
H2417 C2433 0.930 . S
H2418 C2434 0.931 . S
C2419 H2407 0.929 . S
C2419 C2413 1.390 . S
C2419 C2416 1.386 . S
C2420 C2415 1.490 . S
C2420 C2422 1.395 . S
C2420 C2423 1.403 . S
H2421 C2427 0.930 . S
C2422 H2408 0.930 . S
C2422 C2420 1.395 . S
C2422 C2425 1.403 . S
C2423 C2420 1.403 . S
C2423 C2424 1.524 . S
C2423 C2427 1.400 . S
C2424 H2409 0.960 . S
C2424 H2410 0.960 . S
C2424 H2411 0.960 . S
C2424 C2423 1.524 . S
C2425 C2422 1.403 . S
C2425 C2426 1.392 . S
C2425 C2429 1.495 . S
C2426 C2425 1.392 . S
C2426 C2427 1.385 . S
C2426 C2428 1.478 . S
C2427 H2421 0.930 . S
C2427 C2423 1.400 . S
C2427 C2426 1.385 . S
C2428 C2426 1.478 . S
C2428 C2430 1.381 . S
C2428 C2434 1.383 . S
C2429 C2425 1.495 . S
C2429 H2435 0.959 . S
C2429 H2436 0.961 . S
C2429 H2437 0.960 . S
C2430 C2428 1.381 . S
C2430 C2431 1.394 . S
C2430 H2438 0.930 . S
C2431 C2430 1.394 . S
C2431 C2432 1.383 . S
C2431 H2439 0.929 . S
C2432 C2431 1.383 . S
C2432 C2433 1.377 . S
C2433 H2417 0.930 . S
C2433 C2432 1.377 . S
C2433 C2434 1.379 . S
C2434 H2418 0.931 . S
C2434 C2428 1.383 . S
C2434 C2433 1.379 . S
H2435 C2429 0.959 . S
H2436 C2429 0.961 . S
H2437 C2429 0.960 . S
H2438 C2430 0.930 . S
H2439 C2431 0.929 . S
H2440 C2448 0.929 . S
H2441 C2450 0.930 . S
H2442 C2452 0.930 . S
H2443 C2455 0.929 . S
H2444 C2458 0.930 . S
H2445 C2460 0.960 . S
H2446 C2460 0.960 . S
H2447 C2460 0.960 . S
C2448 H2440 0.929 . S
C2448 C2449 1.377 . S
C2448 C2450 1.384 . S
C2449 C2448 1.377 . S
C2449 C2455 1.390 . S
C2450 H2441 0.930 . S
C2450 C2448 1.384 . S
C2450 C2451 1.372 . S
C2451 C2450 1.372 . S
C2451 C2452 1.400 . S
C2451 C2456 1.490 . S
C2452 H2442 0.930 . S
C2452 C2451 1.400 . S
C2452 C2455 1.386 . S
H2453 C2469 0.930 . S
H2454 C2470 0.931 . S
C2455 H2443 0.929 . S
C2455 C2449 1.390 . S
C2455 C2452 1.386 . S
C2456 C2451 1.490 . S
C2456 C2458 1.395 . S
C2456 C2459 1.403 . S
H2457 C2463 0.930 . S
C2458 H2444 0.930 . S
C2458 C2456 1.395 . S
C2458 C2461 1.403 . S
C2459 C2456 1.403 . S
C2459 C2460 1.524 . S
C2459 C2463 1.400 . S
C2460 H2445 0.960 . S
C2460 H2446 0.960 . S
C2460 H2447 0.960 . S
C2460 C2459 1.524 . S
C2461 C2458 1.403 . S
C2461 C2462 1.392 . S
C2461 C2465 1.495 . S
C2462 C2461 1.392 . S
C2462 C2463 1.385 . S
C2462 C2464 1.478 . S
C2463 H2457 0.930 . S
C2463 C2459 1.400 . S
C2463 C2462 1.385 . S
C2464 C2462 1.478 . S
C2464 C2466 1.381 . S
C2464 C2470 1.383 . S
C2465 C2461 1.495 . S
C2465 H2471 0.959 . S
C2465 H2472 0.961 . S
C2465 H2473 0.960 . S
C2466 C2464 1.381 . S
C2466 C2467 1.394 . S
C2466 H2474 0.930 . S
C2467 C2466 1.394 . S
C2467 C2468 1.383 . S
C2467 H2475 0.929 . S
C2468 C2467 1.383 . S
C2468 C2469 1.377 . S
C2469 H2453 0.930 . S
C2469 C2468 1.377 . S
C2469 C2470 1.379 . S
C2470 H2454 0.931 . S
C2470 C2464 1.383 . S
C2470 C2469 1.379 . S
H2471 C2465 0.959 . S
H2472 C2465 0.961 . S
H2473 C2465 0.960 . S
H2474 C2466 0.930 . S
H2475 C2467 0.929 . S
H2476 C2484 0.929 . S
H2477 C2486 0.930 . S
H2478 C2488 0.930 . S
H2479 C2491 0.929 . S
H2480 C2494 0.930 . S
H2481 C2496 0.960 . S
H2482 C2496 0.960 . S
H2483 C2496 0.960 . S
C2484 H2476 0.929 . S
C2484 C2485 1.377 . S
C2484 C2486 1.384 . S
C2485 C2484 1.377 . S
C2485 C2491 1.390 . S
C2486 H2477 0.930 . S
C2486 C2484 1.384 . S
C2486 C2487 1.372 . S
C2487 C2486 1.372 . S
C2487 C2488 1.400 . S
C2487 C2492 1.490 . S
C2488 H2478 0.930 . S
C2488 C2487 1.400 . S
C2488 C2491 1.386 . S
H2489 C2505 0.930 . S
H2490 C2506 0.931 . S
C2491 H2479 0.929 . S
C2491 C2485 1.390 . S
C2491 C2488 1.386 . S
C2492 C2487 1.490 . S
C2492 C2494 1.395 . S
C2492 C2495 1.403 . S
H2493 C2499 0.930 . S
C2494 H2480 0.930 . S
C2494 C2492 1.395 . S
C2494 C2497 1.403 . S
C2495 C2492 1.403 . S
C2495 C2496 1.524 . S
C2495 C2499 1.400 . S
C2496 H2481 0.960 . S
C2496 H2482 0.960 . S
C2496 H2483 0.960 . S
C2496 C2495 1.524 . S
C2497 C2494 1.403 . S
C2497 C2498 1.392 . S
C2497 C2501 1.495 . S
C2498 C2497 1.392 . S
C2498 C2499 1.385 . S
C2498 C2500 1.478 . S
C2499 H2493 0.930 . S
C2499 C2495 1.400 . S
C2499 C2498 1.385 . S
C2500 C2498 1.478 . S
C2500 C2502 1.381 . S
C2500 C2506 1.383 . S
C2501 C2497 1.495 . S
C2501 H2507 0.959 . S
C2501 H2508 0.961 . S
C2501 H2509 0.960 . S
C2502 C2500 1.381 . S
C2502 C2503 1.394 . S
C2502 H2510 0.930 . S
C2503 C2502 1.394 . S
C2503 C2504 1.383 . S
C2503 H2511 0.929 . S
C2504 C2503 1.383 . S
C2504 C2505 1.377 . S
C2505 H2489 0.930 . S
C2505 C2504 1.377 . S
C2505 C2506 1.379 . S
C2506 H2490 0.931 . S
C2506 C2500 1.383 . S
C2506 C2505 1.379 . S
H2507 C2501 0.959 . S
H2508 C2501 0.961 . S
H2509 C2501 0.960 . S
H2510 C2502 0.930 . S
H2511 C2503 0.929 . S
H2512 C2520 0.929 . S
H2513 C2522 0.930 . S
H2514 C2524 0.930 1_655 S
H2515 C2527 0.929 . S
H2516 C2530 0.930 . S
H2517 C2532 0.960 . S
H2518 C2532 0.960 . S
H2519 C2532 0.960 . S
C2520 H2512 0.929 . S
C2520 C2521 1.377 . S
C2520 C2522 1.384 . S
C2521 C2520 1.377 . S
C2521 C2527 1.390 . S
C2522 H2513 0.930 . S
C2522 C2520 1.384 . S
C2522 C2523 1.372 . S
C2523 C2522 1.372 . S
C2523 C2524 1.400 . S
C2523 C2528 1.490 . S
C2524 H2514 0.930 1_455 S
C2524 C2523 1.400 . S
C2524 C2527 1.386 . S
H2525 C2541 0.930 . S
H2526 C2542 0.976 . S
C2527 H2515 0.929 . S
C2527 C2521 1.390 . S
C2527 C2524 1.386 . S
C2528 C2523 1.490 . S
C2528 C2530 1.395 . S
C2528 C2531 1.395 1_455 S
H2529 C2535 0.977 . S
C2530 H2516 0.930 . S
C2530 C2528 1.395 . S
C2530 C2533 1.403 . S
C2531 C2528 1.395 1_655 S
C2531 C2532 1.532 . S
C2531 C2535 1.406 . S
C2532 H2517 0.960 . S
C2532 H2518 0.960 . S
C2532 H2519 0.960 . S
C2532 C2531 1.532 . S
C2533 C2530 1.403 . S
C2533 C2534 1.392 . S
C2533 C2537 1.495 . S
C2534 C2533 1.392 . S
C2534 C2535 1.336 1_455 S
C2534 C2536 1.478 . S
C2535 H2529 0.977 . S
C2535 C2531 1.406 . S
C2535 C2534 1.336 1_655 S
C2536 C2534 1.478 . S
C2536 C2538 1.381 . S
C2536 C2542 1.337 1_455 S
C2537 C2533 1.495 . S
C2537 H2543 0.959 . S
C2537 H2544 0.961 . S
C2537 H2545 0.960 . S
C2538 C2536 1.381 . S
C2538 C2539 1.394 . S
C2538 H2546 0.930 . S
C2539 C2538 1.394 . S
C2539 C2540 1.383 . S
C2539 H2547 0.929 . S
C2540 C2539 1.383 . S
C2540 C2541 1.377 1_455 S
C2541 H2525 0.930 . S
C2541 C2540 1.377 1_655 S
C2541 C2542 1.383 . S
C2542 H2526 0.976 . S
C2542 C2536 1.337 1_655 S
C2542 C2541 1.383 . S
H2543 C2537 0.959 . S
H2544 C2537 0.961 . S
H2545 C2537 0.960 . S
H2546 C2538 0.930 . S
H2547 C2539 0.929 . S
H2548 C2556 0.929 . S
H2549 C2558 0.930 . S
H2550 C2560 0.930 . S
H2551 C2563 0.929 . S
H2552 C2566 0.930 . S
H2553 C2568 0.960 . S
H2554 C2568 0.960 . S
H2555 C2568 0.960 . S
C2556 H2548 0.929 . S
C2556 C2557 1.377 . S
C2556 C2558 1.384 . S
C2557 C2556 1.377 . S
C2557 C2563 1.390 . S
C2558 H2549 0.930 . S
C2558 C2556 1.384 . S
C2558 C2559 1.372 . S
C2559 C2558 1.372 . S
C2559 C2560 1.400 . S
C2559 C2564 1.490 . S
C2560 H2550 0.930 . S
C2560 C2559 1.400 . S
C2560 C2563 1.386 . S
H2561 C2577 0.930 . S
H2562 C2578 0.931 . S
C2563 H2551 0.929 . S
C2563 C2557 1.390 . S
C2563 C2560 1.386 . S
C2564 C2559 1.490 . S
C2564 C2566 1.395 . S
C2564 C2567 1.403 . S
H2565 C2571 0.930 . S
C2566 H2552 0.930 . S
C2566 C2564 1.395 . S
C2566 C2569 1.403 . S
C2567 C2564 1.403 . S
C2567 C2568 1.524 . S
C2567 C2571 1.400 . S
C2568 H2553 0.960 . S
C2568 H2554 0.960 . S
C2568 H2555 0.960 . S
C2568 C2567 1.524 . S
C2569 C2566 1.403 . S
C2569 C2570 1.392 . S
C2569 C2573 1.495 . S
C2570 C2569 1.392 . S
C2570 C2571 1.385 . S
C2570 C2572 1.478 . S
C2571 H2565 0.930 . S
C2571 C2567 1.400 . S
C2571 C2570 1.385 . S
C2572 C2570 1.478 . S
C2572 C2574 1.381 . S
C2572 C2578 1.383 . S
C2573 C2569 1.495 . S
C2573 H2579 0.959 . S
C2573 H2580 0.961 . S
C2573 H2581 0.960 . S
C2574 C2572 1.381 . S
C2574 C2575 1.394 . S
C2574 H2582 0.930 . S
C2575 C2574 1.394 . S
C2575 C2576 1.383 . S
C2575 H2583 0.929 . S
C2576 C2575 1.383 . S
C2576 C2577 1.377 . S
C2577 H2561 0.930 . S
C2577 C2576 1.377 . S
C2577 C2578 1.379 . S
C2578 H2562 0.931 . S
C2578 C2572 1.383 . S
C2578 C2577 1.379 . S
H2579 C2573 0.959 . S
H2580 C2573 0.961 . S
H2581 C2573 0.960 . S
H2582 C2574 0.930 . S
H2583 C2575 0.929 . S
H2584 C2592 0.929 . S
H2585 C2594 0.930 . S
H2586 C2596 0.930 . S
H2587 C2599 0.929 . S
H2588 C2602 0.930 . S
H2589 C2604 0.960 . S
H2590 C2604 0.960 . S
H2591 C2604 0.960 . S
C2592 H2584 0.929 . S
C2592 C2593 1.377 . S
C2592 C2594 1.384 . S
C2593 C2592 1.377 . S
C2593 C2599 1.390 . S
C2594 H2585 0.930 . S
C2594 C2592 1.384 . S
C2594 C2595 1.372 . S
C2595 C2594 1.372 . S
C2595 C2596 1.400 . S
C2595 C2600 1.490 . S
C2596 H2586 0.930 . S
C2596 C2595 1.400 . S
C2596 C2599 1.386 . S
H2597 C2613 0.973 . S
H2598 C2614 0.931 . S
C2599 H2587 0.929 . S
C2599 C2593 1.390 . S
C2599 C2596 1.386 . S
C2600 C2595 1.490 . S
C2600 C2602 1.395 . S
C2600 C2603 1.403 . S
H2601 C2607 0.930 . S
C2602 H2588 0.930 . S
C2602 C2600 1.395 . S
C2602 C2605 1.403 . S
C2603 C2600 1.403 . S
C2603 C2604 1.524 . S
C2603 C2607 1.400 . S
C2604 H2589 0.960 . S
C2604 H2590 0.960 . S
C2604 H2591 0.960 . S
C2604 C2603 1.524 . S
C2605 C2602 1.403 . S
C2605 C2606 1.392 . S
C2605 C2609 1.495 . S
C2606 C2605 1.392 . S
C2606 C2607 1.385 . S
C2606 C2608 1.478 . S
C2607 H2601 0.930 . S
C2607 C2603 1.400 . S
C2607 C2606 1.385 . S
C2608 C2606 1.478 . S
C2608 C2610 1.381 . S
C2608 C2614 1.383 . S
C2609 C2605 1.495 . S
C2609 H2615 0.959 . S
C2609 H2616 0.961 . S
C2609 H2617 0.960 . S
C2610 C2608 1.381 . S
C2610 C2611 1.394 . S
C2610 H2618 0.930 . S
C2611 C2610 1.394 . S
C2611 C2612 1.383 . S
C2611 H2619 0.929 1_556 S
C2612 C2611 1.383 . S
C2612 C2613 1.377 . S
C2613 H2597 0.973 . S
C2613 C2612 1.377 . S
C2613 C2614 1.379 . S
C2614 H2598 0.931 . S
C2614 C2608 1.383 . S
C2614 C2613 1.379 . S
H2615 C2609 0.959 . S
H2616 C2609 0.961 . S
H2617 C2609 0.960 . S
H2618 C2610 0.930 . S
H2619 C2611 0.929 1_554 S
H2620 C2628 0.929 . S
H2621 C2630 0.930 . S
H2622 C2632 0.930 . S
H2623 C2635 0.929 . S
H2624 C2638 0.930 . S
H2625 C2640 0.960 . S
H2626 C2640 0.960 . S
H2627 C2640 0.960 . S
C2628 H2620 0.929 . S
C2628 C2629 1.377 . S
C2628 C2630 1.384 . S
C2629 C2628 1.377 . S
C2629 C2635 1.390 . S
C2630 H2621 0.930 . S
C2630 C2628 1.384 . S
C2630 C2631 1.372 . S
C2631 C2630 1.372 . S
C2631 C2632 1.400 . S
C2631 C2636 1.490 . S
C2632 H2622 0.930 . S
C2632 C2631 1.400 . S
C2632 C2635 1.386 . S
H2633 C2649 0.930 . S
H2634 C2650 0.931 . S
C2635 H2623 0.929 . S
C2635 C2629 1.390 . S
C2635 C2632 1.386 . S
C2636 C2631 1.490 . S
C2636 C2638 1.395 . S
C2636 C2639 1.403 . S
H2637 C2643 0.930 . S
C2638 H2624 0.930 . S
C2638 C2636 1.395 . S
C2638 C2641 1.403 . S
C2639 C2636 1.403 . S
C2639 C2640 1.524 . S
C2639 C2643 1.400 . S
C2640 H2625 0.960 . S
C2640 H2626 0.960 . S
C2640 H2627 0.960 . S
C2640 C2639 1.524 . S
C2641 C2638 1.403 . S
C2641 C2642 1.392 . S
C2641 C2645 1.495 . S
C2642 C2641 1.392 . S
C2642 C2643 1.385 . S
C2642 C2644 1.478 . S
C2643 H2637 0.930 . S
C2643 C2639 1.400 . S
C2643 C2642 1.385 . S
C2644 C2642 1.478 . S
C2644 C2646 1.381 . S
C2644 C2650 1.383 . S
C2645 C2641 1.495 . S
C2645 H2651 0.959 . S
C2645 H2652 0.961 . S
C2645 H2653 0.960 . S
C2646 C2644 1.381 . S
C2646 C2647 1.394 . S
C2646 H2654 0.930 . S
C2647 C2646 1.394 . S
C2647 C2648 1.383 . S
C2647 H2655 0.929 . S
C2648 C2647 1.383 . S
C2648 C2649 1.377 . S
C2649 H2633 0.930 . S
C2649 C2648 1.377 . S
C2649 C2650 1.379 . S
C2650 H2634 0.931 . S
C2650 C2644 1.383 . S
C2650 C2649 1.379 . S
H2651 C2645 0.959 . S
H2652 C2645 0.961 . S
H2653 C2645 0.960 . S
H2654 C2646 0.930 . S
H2655 C2647 0.929 . S
H2656 C2664 0.929 . S
H2657 C2666 0.930 . S
H2658 C2668 0.930 . S
H2659 C2671 0.929 . S
H2660 C2674 0.930 . S
H2661 C2676 0.960 . S
H2662 C2676 0.960 . S
H2663 C2676 0.960 . S
C2664 H2656 0.929 . S
C2664 C2665 1.377 . S
C2664 C2666 1.384 . S
C2665 C2664 1.377 . S
C2665 C2671 1.390 . S
C2666 H2657 0.930 . S
C2666 C2664 1.384 . S
C2666 C2667 1.372 . S
C2667 C2666 1.372 . S
C2667 C2668 1.400 . S
C2667 C2672 1.490 . S
C2668 H2658 0.930 . S
C2668 C2667 1.400 . S
C2668 C2671 1.386 . S
H2669 C2685 0.930 . S
H2670 C2686 0.931 . S
C2671 H2659 0.929 . S
C2671 C2665 1.390 . S
C2671 C2668 1.386 . S
C2672 C2667 1.490 . S
C2672 C2674 1.395 . S
C2672 C2675 1.403 . S
H2673 C2679 0.930 1_565 S
C2674 H2660 0.930 . S
C2674 C2672 1.395 . S
C2674 C2677 1.403 . S
C2675 C2672 1.403 . S
C2675 C2676 1.524 1_545 S
C2675 C2679 1.400 . S
C2676 H2661 0.960 . S
C2676 H2662 0.960 . S
C2676 H2663 0.960 . S
C2676 C2675 1.524 1_565 S
C2677 C2674 1.403 . S
C2677 C2678 1.392 . S
C2677 C2681 1.495 . S
C2678 C2677 1.392 . S
C2678 C2679 1.385 . S
C2678 C2680 1.478 . S
C2679 H2673 0.930 1_545 S
C2679 C2675 1.400 . S
C2679 C2678 1.385 . S
C2680 C2678 1.478 . S
C2680 C2682 1.381 . S
C2680 C2686 1.383 . S
C2681 C2677 1.495 . S
C2681 H2687 0.959 . S
C2681 H2688 0.961 . S
C2681 H2689 0.960 . S
C2682 C2680 1.381 . S
C2682 C2683 1.394 . S
C2682 H2690 0.930 . S
C2683 C2682 1.394 . S
C2683 C2684 1.383 . S
C2683 H2691 0.929 . S
C2684 C2683 1.383 . S
C2684 C2685 1.377 . S
C2685 H2669 0.930 . S
C2685 C2684 1.377 . S
C2685 C2686 1.379 . S
C2686 H2670 0.931 . S
C2686 C2680 1.383 . S
C2686 C2685 1.379 . S
H2687 C2681 0.959 . S
H2688 C2681 0.961 . S
H2689 C2681 0.960 . S
H2690 C2682 0.930 . S
H2691 C2683 0.929 . S
H2692 C2700 0.929 . S
H2693 C2702 0.930 . S
H2694 C2704 0.930 . S
H2695 C2707 0.929 . S
H2696 C2710 0.930 . S
H2697 C2712 0.960 . S
H2698 C2712 0.960 . S
H2699 C2712 0.960 . S
C2700 H2692 0.929 . S
C2700 C2701 1.377 . S
C2700 C2702 1.384 . S
C2701 C2700 1.377 . S
C2701 C2707 1.390 . S
C2702 H2693 0.930 . S
C2702 C2700 1.384 . S
C2702 C2703 1.372 . S
C2703 C2702 1.372 . S
C2703 C2704 1.400 . S
C2703 C2708 1.490 . S
C2704 H2694 0.930 . S
C2704 C2703 1.400 . S
C2704 C2707 1.386 . S
H2705 C2721 0.930 . S
H2706 C2722 0.931 . S
C2707 H2695 0.929 . S
C2707 C2701 1.390 . S
C2707 C2704 1.386 . S
C2708 C2703 1.490 . S
C2708 C2710 1.395 . S
C2708 C2711 1.403 . S
H2709 C2715 0.930 . S
C2710 H2696 0.930 . S
C2710 C2708 1.395 . S
C2710 C2713 1.403 . S
C2711 C2708 1.403 . S
C2711 C2712 1.524 . S
C2711 C2715 1.400 . S
C2712 H2697 0.960 . S
C2712 H2698 0.960 . S
C2712 H2699 0.960 . S
C2712 C2711 1.524 . S
C2713 C2710 1.403 . S
C2713 C2714 1.392 . S
C2713 C2717 1.495 . S
C2714 C2713 1.392 . S
C2714 C2715 1.385 . S
C2714 C2716 1.478 . S
C2715 H2709 0.930 . S
C2715 C2711 1.400 . S
C2715 C2714 1.385 . S
C2716 C2714 1.478 . S
C2716 C2718 1.381 . S
C2716 C2722 1.383 . S
C2717 C2713 1.495 . S
C2717 H2723 0.959 . S
C2717 H2724 0.961 . S
C2717 H2725 0.960 . S
C2718 C2716 1.381 . S
C2718 C2719 1.394 . S
C2718 H2726 0.930 . S
C2719 C2718 1.394 . S
C2719 C2720 1.383 . S
C2719 H2727 0.929 . S
C2720 C2719 1.383 . S
C2720 C2721 1.377 . S
C2721 H2705 0.930 . S
C2721 C2720 1.377 . S
C2721 C2722 1.379 . S
C2722 H2706 0.931 . S
C2722 C2716 1.383 . S
C2722 C2721 1.379 . S
H2723 C2717 0.959 . S
H2724 C2717 0.961 . S
H2725 C2717 0.960 . S
H2726 C2718 0.930 . S
H2727 C2719 0.929 . S
H2728 C2736 0.929 . S
H2729 C2738 0.907 1_565 S
H2730 C2740 0.930 . S
H2731 C2743 0.929 . S
H2732 C2746 0.930 . S
H2733 C2748 0.960 . S
H2734 C2748 0.960 . S
H2735 C2748 0.960 . S
C2736 H2728 0.929 . S
C2736 C2737 1.377 1_565 S
C2736 C2738 1.387 1_565 S
C2737 C2736 1.377 1_545 S
C2737 C2743 1.390 . S
C2738 H2729 0.907 1_545 S
C2738 C2736 1.387 1_545 S
C2738 C2739 1.391 . S
C2739 C2738 1.391 . S
C2739 C2740 1.400 . S
C2739 C2744 1.490 . S
C2740 H2730 0.930 . S
C2740 C2739 1.400 . S
C2740 C2743 1.386 . S
H2741 C2757 0.930 . S
H2742 C2758 0.931 . S
C2743 H2731 0.929 . S
C2743 C2737 1.390 . S
C2743 C2740 1.386 . S
C2744 C2739 1.490 . S
C2744 C2746 1.395 . S
C2744 C2747 1.403 . S
H2745 C2751 0.930 . S
C2746 H2732 0.930 . S
C2746 C2744 1.395 . S
C2746 C2749 1.403 . S
C2747 C2744 1.403 . S
C2747 C2748 1.524 . S
C2747 C2751 1.400 . S
C2748 H2733 0.960 . S
C2748 H2734 0.960 . S
C2748 H2735 0.960 . S
C2748 C2747 1.524 . S
C2749 C2746 1.403 . S
C2749 C2750 1.392 . S
C2749 C2753 1.495 . S
C2750 C2749 1.392 . S
C2750 C2751 1.385 . S
C2750 C2752 1.478 . S
C2751 H2745 0.930 . S
C2751 C2747 1.400 . S
C2751 C2750 1.385 . S
C2752 C2750 1.478 . S
C2752 C2754 1.381 . S
C2752 C2758 1.383 . S
C2753 C2749 1.495 . S
C2753 H2759 0.959 . S
C2753 H2760 0.961 . S
C2753 H2761 0.960 . S
C2754 C2752 1.381 . S
C2754 C2755 1.394 . S
C2754 H2762 0.930 . S
C2755 C2754 1.394 . S
C2755 C2756 1.383 . S
C2755 H2763 0.929 . S
C2756 C2755 1.383 . S
C2756 C2757 1.377 . S
C2757 H2741 0.930 . S
C2757 C2756 1.377 . S
C2757 C2758 1.379 . S
C2758 H2742 0.931 . S
C2758 C2752 1.383 . S
C2758 C2757 1.379 . S
H2759 C2753 0.959 . S
H2760 C2753 0.961 . S
H2761 C2753 0.960 . S
H2762 C2754 0.930 . S
H2763 C2755 0.929 . S
H2764 C2772 0.929 . S
H2765 C2774 0.930 . S
H2766 C2776 0.930 . S
H2767 C2779 0.929 . S
H2768 C2782 0.930 . S
H2769 C2784 0.960 . S
H2770 C2784 0.960 . S
H2771 C2784 0.960 . S
C2772 H2764 0.929 . S
C2772 C2773 1.377 . S
C2772 C2774 1.384 . S
C2773 C2772 1.377 . S
C2773 C2779 1.390 . S
C2774 H2765 0.930 . S
C2774 C2772 1.384 . S
C2774 C2775 1.372 . S
C2775 C2774 1.372 . S
C2775 C2776 1.400 . S
C2775 C2780 1.490 . S
C2776 H2766 0.930 . S
C2776 C2775 1.400 . S
C2776 C2779 1.386 . S
H2777 C2793 0.930 . S
H2778 C2794 0.931 . S
C2779 H2767 0.929 . S
C2779 C2773 1.390 . S
C2779 C2776 1.386 . S
C2780 C2775 1.490 . S
C2780 C2782 1.395 . S
C2780 C2783 1.403 . S
H2781 C2787 0.930 . S
C2782 H2768 0.930 . S
C2782 C2780 1.395 . S
C2782 C2785 1.403 . S
C2783 C2780 1.403 . S
C2783 C2784 1.524 . S
C2783 C2787 1.400 . S
C2784 H2769 0.960 . S
C2784 H2770 0.960 . S
C2784 H2771 0.960 . S
C2784 C2783 1.524 . S
C2785 C2782 1.403 . S
C2785 C2786 1.392 . S
C2785 C2789 1.495 . S
C2786 C2785 1.392 . S
C2786 C2787 1.385 . S
C2786 C2788 1.478 . S
C2787 H2781 0.930 . S
C2787 C2783 1.400 . S
C2787 C2786 1.385 . S
C2788 C2786 1.478 . S
C2788 C2790 1.381 . S
C2788 C2794 1.383 . S
C2789 C2785 1.495 . S
C2789 H2795 0.959 . S
C2789 H2796 0.961 . S
C2789 H2797 0.960 . S
C2790 C2788 1.381 . S
C2790 C2791 1.394 . S
C2790 H2798 0.930 . S
C2791 C2790 1.394 . S
C2791 C2792 1.383 . S
C2791 H2799 0.929 . S
C2792 C2791 1.383 . S
C2792 C2793 1.377 . S
C2793 H2777 0.930 . S
C2793 C2792 1.377 . S
C2793 C2794 1.379 . S
C2794 H2778 0.931 . S
C2794 C2788 1.383 . S
C2794 C2793 1.379 . S
H2795 C2789 0.959 . S
H2796 C2789 0.961 . S
H2797 C2789 0.960 . S
H2798 C2790 0.930 . S
H2799 C2791 0.929 . S
H2800 C2808 0.929 . S
H2801 C2810 0.930 . S
H2802 C2812 0.930 . S
H2803 C2815 0.929 . S
H2804 C2818 0.930 . S
H2805 C2820 0.960 . S
H2806 C2820 0.960 . S
H2807 C2820 0.960 . S
C2808 H2800 0.929 . S
C2808 C2809 1.377 . S
C2808 C2810 1.384 . S
C2809 C2808 1.377 . S
C2809 C2815 1.390 . S
C2810 H2801 0.930 . S
C2810 C2808 1.384 . S
C2810 C2811 1.372 . S
C2811 C2810 1.372 . S
C2811 C2812 1.400 . S
C2811 C2816 1.490 . S
C2812 H2802 0.930 . S
C2812 C2811 1.400 . S
C2812 C2815 1.386 . S
H2813 C2829 0.930 . S
H2814 C2830 0.931 . S
C2815 H2803 0.929 . S
C2815 C2809 1.390 . S
C2815 C2812 1.386 . S
C2816 C2811 1.490 . S
C2816 C2818 1.395 . S
C2816 C2819 1.403 . S
H2817 C2823 0.930 . S
C2818 H2804 0.930 . S
C2818 C2816 1.395 . S
C2818 C2821 1.403 . S
C2819 C2816 1.403 . S
C2819 C2820 1.524 . S
C2819 C2823 1.400 . S
C2820 H2805 0.960 . S
C2820 H2806 0.960 . S
C2820 H2807 0.960 . S
C2820 C2819 1.524 . S
C2821 C2818 1.403 . S
C2821 C2822 1.392 . S
C2821 C2825 1.495 . S
C2822 C2821 1.392 . S
C2822 C2823 1.385 . S
C2822 C2824 1.478 . S
C2823 H2817 0.930 . S
C2823 C2819 1.400 . S
C2823 C2822 1.385 . S
C2824 C2822 1.478 . S
C2824 C2826 1.381 . S
C2824 C2830 1.383 . S
C2825 C2821 1.495 . S
C2825 H2831 0.959 . S
C2825 H2832 0.961 . S
C2825 H2833 0.960 . S
C2826 C2824 1.381 . S
C2826 C2827 1.394 . S
C2826 H2834 0.930 . S
C2827 C2826 1.394 . S
C2827 C2828 1.383 . S
C2827 H2835 0.929 . S
C2828 C2827 1.383 . S
C2828 C2829 1.377 . S
C2829 H2813 0.930 . S
C2829 C2828 1.377 . S
C2829 C2830 1.379 . S
C2830 H2814 0.931 . S
C2830 C2824 1.383 . S
C2830 C2829 1.379 . S
H2831 C2825 0.959 . S
H2832 C2825 0.961 . S
H2833 C2825 0.960 . S
H2834 C2826 0.930 . S
H2835 C2827 0.929 . S
H2836 C2844 0.929 . S
H2837 C2846 0.930 . S
H2838 C2848 0.930 . S
H2839 C2851 0.929 . S
H2840 C2854 0.930 . S
H2841 C2856 0.960 . S
H2842 C2856 0.960 . S
H2843 C2856 0.960 . S
C2844 H2836 0.929 . S
C2844 C2845 1.377 . S
C2844 C2846 1.384 . S
C2845 C2844 1.377 . S
C2845 C2851 1.390 . S
C2846 H2837 0.930 . S
C2846 C2844 1.384 . S
C2846 C2847 1.372 . S
C2847 C2846 1.372 . S
C2847 C2848 1.400 . S
C2847 C2852 1.490 . S
C2848 H2838 0.930 . S
C2848 C2847 1.400 . S
C2848 C2851 1.386 . S
H2849 C2865 0.930 . S
H2850 C2866 0.931 . S
C2851 H2839 0.929 . S
C2851 C2845 1.390 . S
C2851 C2848 1.386 . S
C2852 C2847 1.490 . S
C2852 C2854 1.395 . S
C2852 C2855 1.403 . S
H2853 C2859 0.930 . S
C2854 H2840 0.930 . S
C2854 C2852 1.395 . S
C2854 C2857 1.403 . S
C2855 C2852 1.403 . S
C2855 C2856 1.524 . S
C2855 C2859 1.400 . S
C2856 H2841 0.960 . S
C2856 H2842 0.960 . S
C2856 H2843 0.960 . S
C2856 C2855 1.524 . S
C2857 C2854 1.403 . S
C2857 C2858 1.392 . S
C2857 C2861 1.495 . S
C2858 C2857 1.392 . S
C2858 C2859 1.385 . S
C2858 C2860 1.478 . S
C2859 H2853 0.930 . S
C2859 C2855 1.400 . S
C2859 C2858 1.385 . S
C2860 C2858 1.478 . S
C2860 C2862 1.381 . S
C2860 C2866 1.383 . S
C2861 C2857 1.495 . S
C2861 H2867 0.959 . S
C2861 H2868 0.961 . S
C2861 H2869 0.960 . S
C2862 C2860 1.381 . S
C2862 C2863 1.394 . S
C2862 H2870 0.930 . S
C2863 C2862 1.394 . S
C2863 C2864 1.383 . S
C2863 H2871 0.929 . S
C2864 C2863 1.383 . S
C2864 C2865 1.377 . S
C2865 H2849 0.930 . S
C2865 C2864 1.377 . S
C2865 C2866 1.379 . S
C2866 H2850 0.931 . S
C2866 C2860 1.383 . S
C2866 C2865 1.379 . S
H2867 C2861 0.959 . S
H2868 C2861 0.961 . S
H2869 C2861 0.960 . S
H2870 C2862 0.930 . S
H2871 C2863 0.929 . S
H2872 C2880 0.929 . S
H2873 C2882 0.930 . S
H2874 C2884 0.930 . S
H2875 C2887 0.929 . S
H2876 C2890 0.930 . S
H2877 C2892 0.960 . S
H2878 C2892 0.960 . S
H2879 C2892 0.960 . S
C2880 H2872 0.929 . S
C2880 C2881 1.377 . S
C2880 C2882 1.384 . S
C2881 C2880 1.377 . S
C2881 C2887 1.390 . S
C2882 H2873 0.930 . S
C2882 C2880 1.384 . S
C2882 C2883 1.372 . S
C2883 C2882 1.372 . S
C2883 C2884 1.400 . S
C2883 C2888 1.490 . S
C2884 H2874 0.930 . S
C2884 C2883 1.400 . S
C2884 C2887 1.386 . S
H2885 C2901 0.941 . S
H2886 C2902 0.931 . S
C2887 H2875 0.929 . S
C2887 C2881 1.390 . S
C2887 C2884 1.386 . S
C2888 C2883 1.490 . S
C2888 C2890 1.395 . S
C2888 C2891 1.403 1_545 S
H2889 C2895 0.930 . S
C2890 H2876 0.930 . S
C2890 C2888 1.395 . S
C2890 C2893 1.403 . S
C2891 C2888 1.403 1_565 S
C2891 C2892 1.524 . S
C2891 C2895 1.400 . S
C2892 H2877 0.960 . S
C2892 H2878 0.960 . S
C2892 H2879 0.960 . S
C2892 C2891 1.524 . S
C2893 C2890 1.403 . S
C2893 C2894 1.392 . S
C2893 C2897 1.495 . S
C2894 C2893 1.392 . S
C2894 C2895 1.385 1_545 S
C2894 C2896 1.479 . S
C2895 H2889 0.930 . S
C2895 C2891 1.400 . S
C2895 C2894 1.385 1_565 S
C2896 C2894 1.479 . S
C2896 C2898 1.382 1_545 S
C2896 C2902 1.379 . S
C2897 C2893 1.495 . S
C2897 H2903 0.959 . S
C2897 H2904 0.961 . S
C2897 H2905 0.960 . S
C2898 C2896 1.382 1_565 S
C2898 C2899 1.394 . S
C2898 H2906 0.930 . S
C2899 C2898 1.394 . S
C2899 C2900 1.383 . S
C2899 H2907 0.929 . S
C2900 C2899 1.383 . S
C2900 C2901 1.374 . S
C2901 H2885 0.941 . S
C2901 C2900 1.374 . S
C2901 C2902 1.371 1_565 S
C2902 H2886 0.931 . S
C2902 C2896 1.379 . S
C2902 C2901 1.371 1_545 S
H2903 C2897 0.959 . S
H2904 C2897 0.961 . S
H2905 C2897 0.960 . S
H2906 C2898 0.930 . S
H2907 C2899 0.929 . S
H2908 C2916 0.929 . S
H2909 C2918 0.930 . S
H2910 C2920 0.930 . S
H2911 C2923 0.929 . S
H2912 C2926 0.930 . S
H2913 C2928 0.960 . S
H2914 C2928 0.960 . S
H2915 C2928 0.960 . S
C2916 H2908 0.929 . S
C2916 C2917 1.377 . S
C2916 C2918 1.384 . S
C2917 C2916 1.377 . S
C2917 C2923 1.390 . S
C2918 H2909 0.930 . S
C2918 C2916 1.384 . S
C2918 C2919 1.372 . S
C2919 C2918 1.372 . S
C2919 C2920 1.400 . S
C2919 C2924 1.490 . S
C2920 H2910 0.930 . S
C2920 C2919 1.400 . S
C2920 C2923 1.386 . S
H2921 C2937 0.930 . S
H2922 C2938 0.931 . S
C2923 H2911 0.929 . S
C2923 C2917 1.390 . S
C2923 C2920 1.386 . S
C2924 C2919 1.490 . S
C2924 C2926 1.395 . S
C2924 C2927 1.403 . S
H2925 C2931 0.930 . S
C2926 H2912 0.930 . S
C2926 C2924 1.395 . S
C2926 C2929 1.403 . S
C2927 C2924 1.403 . S
C2927 C2928 1.524 . S
C2927 C2931 1.400 . S
C2928 H2913 0.960 . S
C2928 H2914 0.960 . S
C2928 H2915 0.960 . S
C2928 C2927 1.524 . S
C2929 C2926 1.403 . S
C2929 C2930 1.392 . S
C2929 C2933 1.495 . S
C2930 C2929 1.392 . S
C2930 C2931 1.385 . S
C2930 C2932 1.478 . S
C2931 H2925 0.930 . S
C2931 C2927 1.400 . S
C2931 C2930 1.385 . S
C2932 C2930 1.478 . S
C2932 C2934 1.381 . S
C2932 C2938 1.383 . S
C2933 C2929 1.495 . S
C2933 H2939 0.959 . S
C2933 H2940 0.961 . S
C2933 H2941 0.960 . S
C2934 C2932 1.381 . S
C2934 C2935 1.394 . S
C2934 H2942 0.930 . S
C2935 C2934 1.394 . S
C2935 C2936 1.383 . S
C2935 H2943 0.929 . S
C2936 C2935 1.383 . S
C2936 C2937 1.377 . S
C2937 H2921 0.930 . S
C2937 C2936 1.377 . S
C2937 C2938 1.379 . S
C2938 H2922 0.931 . S
C2938 C2932 1.383 . S
C2938 C2937 1.379 . S
H2939 C2933 0.959 . S
H2940 C2933 0.961 . S
H2941 C2933 0.960 . S
H2942 C2934 0.930 . S
H2943 C2935 0.929 . S
H2944 C2952 0.929 . S
H2945 C2954 0.930 . S
H2946 C2956 0.930 . S
H2947 C2959 0.929 . S
H2948 C2962 0.930 . S
H2949 C2964 0.960 . S
H2950 C2964 0.987 . S
H2951 C2964 0.960 . S
C2952 H2944 0.929 . S
C2952 C2953 1.377 . S
C2952 C2954 1.384 . S
C2953 C2952 1.377 . S
C2953 C2959 1.390 . S
C2954 H2945 0.930 . S
C2954 C2952 1.384 . S
C2954 C2955 1.372 . S
C2955 C2954 1.372 . S
C2955 C2956 1.400 . S
C2955 C2960 1.490 . S
C2956 H2946 0.930 . S
C2956 C2955 1.400 . S
C2956 C2959 1.386 . S
H2957 C2973 0.930 . S
H2958 C2974 0.931 . S
C2959 H2947 0.929 . S
C2959 C2953 1.390 . S
C2959 C2956 1.386 . S
C2960 C2955 1.490 . S
C2960 C2962 1.395 . S
C2960 C2963 1.403 . S
H2961 C2967 0.930 . S
C2962 H2948 0.930 . S
C2962 C2960 1.395 . S
C2962 C2965 1.403 . S
C2963 C2960 1.403 . S
C2963 C2964 1.524 . S
C2963 C2967 1.400 . S
C2964 H2949 0.960 . S
C2964 H2950 0.987 . S
C2964 H2951 0.960 . S
C2964 C2963 1.524 . S
C2965 C2962 1.403 . S
C2965 C2966 1.392 . S
C2965 C2969 1.495 . S
C2966 C2965 1.392 . S
C2966 C2967 1.385 . S
C2966 C2968 1.478 . S
C2967 H2961 0.930 . S
C2967 C2963 1.400 . S
C2967 C2966 1.385 . S
C2968 C2966 1.478 . S
C2968 C2970 1.381 . S
C2968 C2974 1.383 . S
C2969 C2965 1.495 . S
C2969 H2975 0.959 . S
C2969 H2976 0.961 . S
C2969 H2977 0.960 . S
C2970 C2968 1.381 . S
C2970 C2971 1.394 1_554 S
C2970 H2978 0.914 1_554 S
C2971 C2970 1.394 1_556 S
C2971 C2972 1.383 1_556 S
C2971 H2979 0.929 . S
C2972 C2971 1.383 1_554 S
C2972 C2973 1.377 . S
C2973 H2957 0.930 . S
C2973 C2972 1.377 . S
C2973 C2974 1.379 . S
C2974 H2958 0.931 . S
C2974 C2968 1.383 . S
C2974 C2973 1.379 . S
H2975 C2969 0.959 . S
H2976 C2969 0.961 . S
H2977 C2969 0.960 . S
H2978 C2970 0.914 1_556 S
H2979 C2971 0.929 . S
H2980 C2988 0.929 . S
H2981 C2990 0.930 . S
H2982 C2992 0.930 . S
H2983 C2995 0.929 . S
H2984 C2998 0.930 . S
H2985 C3000 0.960 . S
H2986 C3000 0.960 . S
H2987 C3000 0.960 . S
C2988 H2980 0.929 . S
C2988 C2989 1.377 . S
C2988 C2990 1.384 . S
C2989 C2988 1.377 . S
C2989 C2995 1.390 . S
C2990 H2981 0.930 . S
C2990 C2988 1.384 . S
C2990 C2991 1.372 . S
C2991 C2990 1.372 . S
C2991 C2992 1.400 . S
C2991 C2996 1.490 . S
C2992 H2982 0.930 . S
C2992 C2991 1.400 . S
C2992 C2995 1.386 . S
H2993 C3009 0.930 . S
H2994 C3010 0.931 . S
C2995 H2983 0.929 . S
C2995 C2989 1.390 . S
C2995 C2992 1.386 . S
C2996 C2991 1.490 . S
C2996 C2998 1.395 . S
C2996 C2999 1.403 . S
H2997 C3003 0.930 . S
C2998 H2984 0.930 . S
C2998 C2996 1.395 . S
C2998 C3001 1.403 . S
C2999 C2996 1.403 . S
C2999 C3000 1.524 . S
C2999 C3003 1.400 . S
C3000 H2985 0.960 . S
C3000 H2986 0.960 . S
C3000 H2987 0.960 . S
C3000 C2999 1.524 . S
C3001 C2998 1.403 . S
C3001 C3002 1.392 . S
C3001 C3005 1.495 . S
C3002 C3001 1.392 . S
C3002 C3003 1.385 . S
C3002 C3004 1.478 . S
C3003 H2997 0.930 . S
C3003 C2999 1.400 . S
C3003 C3002 1.385 . S
C3004 C3002 1.478 . S
C3004 C3006 1.381 . S
C3004 C3010 1.383 . S
C3005 C3001 1.495 . S
C3005 H3011 0.959 . S
C3005 H3012 0.961 . S
C3005 H3013 0.960 . S
C3006 C3004 1.381 . S
C3006 C3007 1.394 . S
C3006 H3014 0.930 . S
C3007 C3006 1.394 . S
C3007 C3008 1.383 . S
C3007 H3015 0.929 . S
C3008 C3007 1.383 . S
C3008 C3009 1.377 . S
C3009 H2993 0.930 . S
C3009 C3008 1.377 . S
C3009 C3010 1.379 . S
C3010 H2994 0.931 . S
C3010 C3004 1.383 . S
C3010 C3009 1.379 . S
H3011 C3005 0.959 . S
H3012 C3005 0.961 . S
H3013 C3005 0.960 . S
H3014 C3006 0.930 . S
H3015 C3007 0.929 . S
H3016 C3024 0.929 . S
H3017 C3026 0.930 . S
H3018 C3028 0.930 . S
H3019 C3031 0.929 . S
H3020 C3034 0.930 . S
H3021 C3036 0.960 . S
H3022 C3036 0.960 . S
H3023 C3036 0.960 . S
C3024 H3016 0.929 . S
C3024 C3025 1.377 . S
C3024 C3026 1.384 . S
C3025 C3024 1.377 . S
C3025 C3031 1.390 . S
C3026 H3017 0.930 . S
C3026 C3024 1.384 . S
C3026 C3027 1.372 . S
C3027 C3026 1.372 . S
C3027 C3028 1.400 . S
C3027 C3032 1.490 . S
C3028 H3018 0.930 . S
C3028 C3027 1.400 . S
C3028 C3031 1.386 . S
H3029 C3045 0.930 . S
H3030 C3046 0.931 . S
C3031 H3019 0.929 . S
C3031 C3025 1.390 . S
C3031 C3028 1.386 . S
C3032 C3027 1.490 . S
C3032 C3034 1.395 . S
C3032 C3035 1.403 . S
H3033 C3039 0.930 . S
C3034 H3020 0.930 . S
C3034 C3032 1.395 . S
C3034 C3037 1.403 . S
C3035 C3032 1.403 . S
C3035 C3036 1.524 . S
C3035 C3039 1.400 . S
C3036 H3021 0.960 . S
C3036 H3022 0.960 . S
C3036 H3023 0.960 . S
C3036 C3035 1.524 . S
C3037 C3034 1.403 . S
C3037 C3038 1.392 . S
C3037 C3041 1.495 . S
C3038 C3037 1.392 . S
C3038 C3039 1.385 . S
C3038 C3040 1.478 . S
C3039 H3033 0.930 . S
C3039 C3035 1.400 . S
C3039 C3038 1.385 . S
C3040 C3038 1.478 . S
C3040 C3042 1.381 . S
C3040 C3046 1.383 . S
C3041 C3037 1.495 . S
C3041 H3047 0.959 . S
C3041 H3048 0.961 . S
C3041 H3049 0.960 . S
C3042 C3040 1.381 . S
C3042 C3043 1.394 . S
C3042 H3050 0.930 . S
C3043 C3042 1.394 . S
C3043 C3044 1.383 . S
C3043 H3051 0.929 . S
C3044 C3043 1.383 . S
C3044 C3045 1.377 . S
C3045 H3029 0.930 . S
C3045 C3044 1.377 . S
C3045 C3046 1.379 . S
C3046 H3030 0.931 . S
C3046 C3040 1.383 . S
C3046 C3045 1.379 . S
H3047 C3041 0.959 . S
H3048 C3041 0.961 . S
H3049 C3041 0.960 . S
H3050 C3042 0.930 . S
H3051 C3043 0.929 . S
H3052 C3060 0.929 . S
H3053 C3062 0.930 . S
H3054 C3064 0.930 . S
H3055 C3067 0.929 . S
H3056 C3070 0.930 . S
H3057 C3072 0.960 . S
H3058 C3072 0.960 . S
H3059 C3072 0.960 . S
C3060 H3052 0.929 . S
C3060 C3061 1.377 . S
C3060 C3062 1.384 . S
C3061 C3060 1.377 . S
C3061 C3067 1.390 . S
C3062 H3053 0.930 . S
C3062 C3060 1.384 . S
C3062 C3063 1.372 . S
C3063 C3062 1.372 . S
C3063 C3064 1.400 . S
C3063 C3068 1.490 . S
C3064 H3054 0.930 . S
C3064 C3063 1.400 . S
C3064 C3067 1.386 . S
H3065 C3081 0.930 . S
H3066 C3082 0.931 . S
C3067 H3055 0.929 . S
C3067 C3061 1.390 . S
C3067 C3064 1.386 . S
C3068 C3063 1.490 . S
C3068 C3070 1.395 . S
C3068 C3071 1.403 . S
H3069 C3075 0.930 . S
C3070 H3056 0.930 . S
C3070 C3068 1.395 . S
C3070 C3073 1.403 . S
C3071 C3068 1.403 . S
C3071 C3072 1.524 . S
C3071 C3075 1.400 . S
C3072 H3057 0.960 . S
C3072 H3058 0.960 . S
C3072 H3059 0.960 . S
C3072 C3071 1.524 . S
C3073 C3070 1.403 . S
C3073 C3074 1.392 . S
C3073 C3077 1.495 . S
C3074 C3073 1.392 . S
C3074 C3075 1.385 . S
C3074 C3076 1.478 . S
C3075 H3069 0.930 . S
C3075 C3071 1.400 . S
C3075 C3074 1.385 . S
C3076 C3074 1.478 . S
C3076 C3078 1.381 . S
C3076 C3082 1.383 . S
C3077 C3073 1.495 . S
C3077 H3083 0.959 . S
C3077 H3084 0.961 . S
C3077 H3085 0.960 . S
C3078 C3076 1.381 . S
C3078 C3079 1.394 . S
C3078 H3086 0.930 . S
C3079 C3078 1.394 . S
C3079 C3080 1.383 . S
C3079 H3087 0.929 . S
C3080 C3079 1.383 . S
C3080 C3081 1.377 . S
C3081 H3065 0.930 . S
C3081 C3080 1.377 . S
C3081 C3082 1.379 . S
C3082 H3066 0.931 . S
C3082 C3076 1.383 . S
C3082 C3081 1.379 . S
H3083 C3077 0.959 . S
H3084 C3077 0.961 . S
H3085 C3077 0.960 . S
H3086 C3078 0.930 . S
H3087 C3079 0.929 . S
H3088 C3096 0.929 . S
H3089 C3098 0.930 . S
H3090 C3100 0.930 . S
H3091 C3103 0.929 . S
H3092 C3106 0.930 . S
H3093 C3108 0.960 . S
H3094 C3108 0.960 . S
H3095 C3108 0.960 . S
C3096 H3088 0.929 . S
C3096 C3097 1.377 . S
C3096 C3098 1.384 . S
C3097 C3096 1.377 . S
C3097 C3103 1.390 . S
C3098 H3089 0.930 . S
C3098 C3096 1.384 . S
C3098 C3099 1.372 1_545 S
C3099 C3098 1.372 1_565 S
C3099 C3100 1.400 . S
C3099 C3104 1.490 . S
C3100 H3090 0.930 . S
C3100 C3099 1.400 . S
C3100 C3103 1.386 1_565 S
H3101 C3117 0.930 . S
H3102 C3118 0.931 . S
C3103 H3091 0.929 . S
C3103 C3097 1.390 . S
C3103 C3100 1.386 1_545 S
C3104 C3099 1.490 . S
C3104 C3106 1.395 . S
C3104 C3107 1.403 . S
H3105 C3111 0.930 . S
C3106 H3092 0.930 . S
C3106 C3104 1.395 . S
C3106 C3109 1.403 . S
C3107 C3104 1.403 . S
C3107 C3108 1.524 . S
C3107 C3111 1.400 . S
C3108 H3093 0.960 . S
C3108 H3094 0.960 . S
C3108 H3095 0.960 . S
C3108 C3107 1.524 . S
C3109 C3106 1.403 . S
C3109 C3110 1.392 . S
C3109 C3113 1.495 . S
C3110 C3109 1.392 . S
C3110 C3111 1.385 . S
C3110 C3112 1.478 . S
C3111 H3105 0.930 . S
C3111 C3107 1.400 . S
C3111 C3110 1.385 . S
C3112 C3110 1.478 . S
C3112 C3114 1.381 . S
C3112 C3118 1.383 . S
C3113 C3109 1.495 . S
C3113 H3119 0.959 . S
C3113 H3120 0.961 . S
C3113 H3121 0.960 . S
C3114 C3112 1.381 . S
C3114 C3115 1.394 . S
C3114 H3122 0.930 . S
C3115 C3114 1.394 . S
C3115 C3116 1.383 . S
C3115 H3123 0.929 . S
C3116 C3115 1.383 . S
C3116 C3117 1.377 . S
C3117 H3101 0.930 . S
C3117 C3116 1.377 . S
C3117 C3118 1.379 . S
C3118 H3102 0.931 . S
C3118 C3112 1.383 . S
C3118 C3117 1.379 . S
H3119 C3113 0.959 . S
H3120 C3113 0.961 . S
H3121 C3113 0.960 . S
H3122 C3114 0.930 . S
H3123 C3115 0.929 . S
H3124 C3132 0.929 . S
H3125 C3134 0.930 . S
H3126 C3136 0.930 . S
H3127 C3139 0.929 . S
H3128 C3142 0.930 . S
H3129 C3144 0.960 . S
H3130 C3144 0.960 . S
H3131 C3144 0.960 . S
C3132 H3124 0.929 . S
C3132 C3133 1.377 . S
C3132 C3134 1.384 . S
C3133 C3132 1.377 . S
C3133 C3139 1.390 . S
C3134 H3125 0.930 . S
C3134 C3132 1.384 . S
C3134 C3135 1.372 . S
C3135 C3134 1.372 . S
C3135 C3136 1.400 . S
C3135 C3140 1.490 . S
C3136 H3126 0.930 . S
C3136 C3135 1.400 . S
C3136 C3139 1.386 . S
H3137 C3153 0.930 . S
H3138 C3154 0.931 . S
C3139 H3127 0.929 . S
C3139 C3133 1.390 . S
C3139 C3136 1.386 . S
C3140 C3135 1.490 . S
C3140 C3142 1.395 . S
C3140 C3143 1.403 . S
H3141 C3147 0.930 . S
C3142 H3128 0.930 . S
C3142 C3140 1.395 . S
C3142 C3145 1.403 . S
C3143 C3140 1.403 . S
C3143 C3144 1.524 . S
C3143 C3147 1.400 . S
C3144 H3129 0.960 . S
C3144 H3130 0.960 . S
C3144 H3131 0.960 . S
C3144 C3143 1.524 . S
C3145 C3142 1.403 . S
C3145 C3146 1.392 . S
C3145 C3149 1.495 . S
C3146 C3145 1.392 . S
C3146 C3147 1.385 . S
C3146 C3148 1.478 . S
C3147 H3141 0.930 . S
C3147 C3143 1.400 . S
C3147 C3146 1.385 . S
C3148 C3146 1.478 . S
C3148 C3150 1.381 . S
C3148 C3154 1.383 . S
C3149 C3145 1.495 . S
C3149 H3155 0.959 . S
C3149 H3156 0.961 . S
C3149 H3157 0.960 . S
C3150 C3148 1.381 . S
C3150 C3151 1.394 . S
C3150 H3158 0.930 . S
C3151 C3150 1.394 . S
C3151 C3152 1.383 . S
C3151 H3159 0.929 1_565 S
C3152 C3151 1.383 . S
C3152 C3153 1.377 . S
C3153 H3137 0.930 . S
C3153 C3152 1.377 . S
C3153 C3154 1.379 . S
C3154 H3138 0.931 . S
C3154 C3148 1.383 . S
C3154 C3153 1.379 . S
H3155 C3149 0.959 . S
H3156 C3149 0.961 . S
H3157 C3149 0.960 . S
H3158 C3150 0.930 . S
H3159 C3151 0.929 1_545 S
H3160 C3168 0.929 . S
H3161 C3170 0.930 . S
H3162 C3172 0.930 . S
H3163 C3175 0.929 . S
H3164 C3178 0.930 . S
H3165 C3180 0.960 . S
H3166 C3180 0.960 . S
H3167 C3180 0.960 . S
C3168 H3160 0.929 . S
C3168 C3169 1.377 . S
C3168 C3170 1.384 . S
C3169 C3168 1.377 . S
C3169 C3175 1.390 . S
C3170 H3161 0.930 . S
C3170 C3168 1.384 . S
C3170 C3171 1.372 . S
C3171 C3170 1.372 . S
C3171 C3172 1.400 . S
C3171 C3176 1.490 . S
C3172 H3162 0.930 . S
C3172 C3171 1.400 . S
C3172 C3175 1.386 . S
H3173 C3189 0.930 . S
H3174 C3190 0.931 . S
C3175 H3163 0.929 . S
C3175 C3169 1.390 . S
C3175 C3172 1.386 . S
C3176 C3171 1.490 . S
C3176 C3178 1.395 . S
C3176 C3179 1.403 . S
H3177 C3183 0.930 . S
C3178 H3164 0.930 . S
C3178 C3176 1.395 . S
C3178 C3181 1.403 . S
C3179 C3176 1.403 . S
C3179 C3180 1.524 . S
C3179 C3183 1.400 . S
C3180 H3165 0.960 . S
C3180 H3166 0.960 . S
C3180 H3167 0.960 . S
C3180 C3179 1.524 . S
C3181 C3178 1.403 . S
C3181 C3182 1.392 . S
C3181 C3185 1.495 . S
C3182 C3181 1.392 . S
C3182 C3183 1.385 . S
C3182 C3184 1.478 . S
C3183 H3177 0.930 . S
C3183 C3179 1.400 . S
C3183 C3182 1.385 . S
C3184 C3182 1.478 . S
C3184 C3186 1.381 . S
C3184 C3190 1.383 . S
C3185 C3181 1.495 . S
C3185 H3191 0.959 . S
C3185 H3192 0.961 . S
C3185 H3193 0.960 . S
C3186 C3184 1.381 . S
C3186 C3187 1.394 . S
C3186 H3194 0.930 . S
C3187 C3186 1.394 . S
C3187 C3188 1.383 . S
C3187 H3195 0.929 . S
C3188 C3187 1.383 . S
C3188 C3189 1.377 . S
C3189 H3173 0.930 . S
C3189 C3188 1.377 . S
C3189 C3190 1.379 . S
C3190 H3174 0.931 . S
C3190 C3184 1.383 . S
C3190 C3189 1.379 . S
H3191 C3185 0.959 . S
H3192 C3185 0.961 . S
H3193 C3185 0.960 . S
H3194 C3186 0.930 . S
H3195 C3187 0.929 . S
H3196 C3204 0.929 . S
H3197 C3206 0.930 . S
H3198 C3208 0.930 . S
H3199 C3211 0.929 . S
H3200 C3214 0.930 . S
H3201 C3216 0.960 . S
H3202 C3216 0.960 . S
H3203 C3216 0.960 . S
C3204 H3196 0.929 . S
C3204 C3205 1.377 . S
C3204 C3206 1.384 . S
C3205 C3204 1.377 . S
C3205 C3211 1.390 . S
C3206 H3197 0.930 . S
C3206 C3204 1.384 . S
C3206 C3207 1.372 . S
C3207 C3206 1.372 . S
C3207 C3208 1.400 . S
C3207 C3212 1.490 . S
C3208 H3198 0.930 . S
C3208 C3207 1.400 . S
C3208 C3211 1.386 . S
H3209 C3225 0.930 . S
H3210 C3226 0.931 . S
C3211 H3199 0.929 . S
C3211 C3205 1.390 . S
C3211 C3208 1.386 . S
C3212 C3207 1.490 . S
C3212 C3214 1.395 . S
C3212 C3215 1.403 . S
H3213 C3219 0.930 . S
C3214 H3200 0.930 . S
C3214 C3212 1.395 . S
C3214 C3217 1.403 . S
C3215 C3212 1.403 . S
C3215 C3216 1.524 . S
C3215 C3219 1.400 . S
C3216 H3201 0.960 . S
C3216 H3202 0.960 . S
C3216 H3203 0.960 . S
C3216 C3215 1.524 . S
C3217 C3214 1.403 . S
C3217 C3218 1.392 . S
C3217 C3221 1.495 . S
C3218 C3217 1.392 . S
C3218 C3219 1.385 . S
C3218 C3220 1.478 . S
C3219 H3213 0.930 . S
C3219 C3215 1.400 . S
C3219 C3218 1.385 . S
C3220 C3218 1.478 . S
C3220 C3222 1.381 . S
C3220 C3226 1.383 . S
C3221 C3217 1.495 . S
C3221 H3227 0.959 . S
C3221 H3228 0.961 . S
C3221 H3229 0.960 . S
C3222 C3220 1.381 . S
C3222 C3223 1.394 . S
C3222 H3230 0.930 . S
C3223 C3222 1.394 . S
C3223 C3224 1.383 . S
C3223 H3231 0.929 . S
C3224 C3223 1.383 . S
C3224 C3225 1.377 . S
C3225 H3209 0.930 . S
C3225 C3224 1.377 . S
C3225 C3226 1.379 . S
C3226 H3210 0.931 . S
C3226 C3220 1.383 . S
C3226 C3225 1.379 . S
H3227 C3221 0.959 . S
H3228 C3221 0.961 . S
H3229 C3221 0.960 . S
H3230 C3222 0.930 . S
H3231 C3223 0.929 . S
H3232 C3240 0.929 . S
H3233 C3242 0.930 . S
H3234 C3244 0.930 . S
H3235 C3247 0.929 . S
H3236 C3250 0.930 . S
H3237 C3252 0.960 . S
H3238 C3252 0.960 . S
H3239 C3252 0.960 . S
C3240 H3232 0.929 . S
C3240 C3241 1.377 . S
C3240 C3242 1.384 . S
C3241 C3240 1.377 . S
C3241 C3247 1.390 . S
C3242 H3233 0.930 . S
C3242 C3240 1.384 . S
C3242 C3243 1.372 . S
C3243 C3242 1.372 . S
C3243 C3244 1.400 . S
C3243 C3248 1.490 . S
C3244 H3234 0.930 . S
C3244 C3243 1.400 . S
C3244 C3247 1.386 . S
H3245 C3261 0.930 . S
H3246 C3262 0.931 . S
C3247 H3235 0.929 . S
C3247 C3241 1.390 . S
C3247 C3244 1.386 . S
C3248 C3243 1.490 . S
C3248 C3250 1.395 . S
C3248 C3251 1.403 . S
H3249 C3255 0.930 . S
C3250 H3236 0.930 . S
C3250 C3248 1.395 . S
C3250 C3253 1.403 . S
C3251 C3248 1.403 . S
C3251 C3252 1.524 . S
C3251 C3255 1.400 . S
C3252 H3237 0.960 . S
C3252 H3238 0.960 . S
C3252 H3239 0.960 . S
C3252 C3251 1.524 . S
C3253 C3250 1.403 . S
C3253 C3254 1.392 . S
C3253 C3257 1.495 . S
C3254 C3253 1.392 . S
C3254 C3255 1.385 . S
C3254 C3256 1.478 . S
C3255 H3249 0.930 . S
C3255 C3251 1.400 . S
C3255 C3254 1.385 . S
C3256 C3254 1.478 . S
C3256 C3258 1.381 . S
C3256 C3262 1.383 . S
C3257 C3253 1.495 . S
C3257 H3263 0.959 . S
C3257 H3264 0.961 . S
C3257 H3265 0.960 . S
C3258 C3256 1.381 . S
C3258 C3259 1.394 . S
C3258 H3266 0.930 . S
C3259 C3258 1.394 . S
C3259 C3260 1.383 . S
C3259 H3267 0.929 . S
C3260 C3259 1.383 . S
C3260 C3261 1.377 . S
C3261 H3245 0.930 . S
C3261 C3260 1.377 . S
C3261 C3262 1.379 . S
C3262 H3246 0.931 . S
C3262 C3256 1.383 . S
C3262 C3261 1.379 . S
H3263 C3257 0.959 . S
H3264 C3257 0.961 . S
H3265 C3257 0.960 . S
H3266 C3258 0.930 . S
H3267 C3259 0.929 . S
H3268 C3276 0.929 . S
H3269 C3278 0.930 . S
H3270 C3280 0.930 . S
H3271 C3283 0.929 . S
H3272 C3286 0.930 . S
H3273 C3288 0.960 . S
H3274 C3288 0.960 . S
H3275 C3288 0.960 . S
C3276 H3268 0.929 . S
C3276 C3277 1.377 . S
C3276 C3278 1.384 . S
C3277 C3276 1.377 . S
C3277 C3283 1.390 . S
C3278 H3269 0.930 . S
C3278 C3276 1.384 . S
C3278 C3279 1.372 . S
C3279 C3278 1.372 . S
C3279 C3280 1.400 . S
C3279 C3284 1.490 . S
C3280 H3270 0.930 . S
C3280 C3279 1.400 . S
C3280 C3283 1.386 . S
H3281 C3297 0.930 . S
H3282 C3298 0.931 . S
C3283 H3271 0.929 . S
C3283 C3277 1.390 . S
C3283 C3280 1.386 . S
C3284 C3279 1.490 . S
C3284 C3286 1.395 . S
C3284 C3287 1.403 . S
H3285 C3291 0.930 . S
C3286 H3272 0.930 . S
C3286 C3284 1.395 . S
C3286 C3289 1.403 . S
C3287 C3284 1.403 . S
C3287 C3288 1.524 . S
C3287 C3291 1.400 . S
C3288 H3273 0.960 . S
C3288 H3274 0.960 . S
C3288 H3275 0.960 . S
C3288 C3287 1.524 . S
C3289 C3286 1.403 . S
C3289 C3290 1.392 . S
C3289 C3293 1.495 . S
C3290 C3289 1.392 . S
C3290 C3291 1.385 . S
C3290 C3292 1.478 . S
C3291 H3285 0.930 . S
C3291 C3287 1.400 . S
C3291 C3290 1.385 . S
C3292 C3290 1.478 . S
C3292 C3294 1.381 . S
C3292 C3298 1.383 . S
C3293 C3289 1.495 . S
C3293 H3299 0.959 . S
C3293 H3300 0.961 . S
C3293 H3301 0.960 . S
C3294 C3292 1.381 . S
C3294 C3295 1.394 . S
C3294 H3302 0.930 . S
C3295 C3294 1.394 . S
C3295 C3296 1.383 . S
C3295 H3303 0.929 . S
C3296 C3295 1.383 . S
C3296 C3297 1.377 . S
C3297 H3281 0.930 . S
C3297 C3296 1.377 . S
C3297 C3298 1.379 . S
C3298 H3282 0.931 . S
C3298 C3292 1.383 . S
C3298 C3297 1.379 . S
H3299 C3293 0.959 . S
H3300 C3293 0.961 . S
H3301 C3293 0.960 . S
H3302 C3294 0.930 . S
H3303 C3295 0.929 . S
H3304 C3312 0.929 . S
H3305 C3314 0.930 . S
H3306 C3316 0.930 . S
H3307 C3319 0.929 . S
H3308 C3322 0.930 . S
H3309 C3324 0.960 . S
H3310 C3324 0.960 . S
H3311 C3324 0.960 1_655 S
C3312 H3304 0.929 . S
C3312 C3313 1.377 . S
C3312 C3314 1.384 . S
C3313 C3312 1.377 . S
C3313 C3319 1.390 1_455 S
C3314 H3305 0.930 . S
C3314 C3312 1.384 . S
C3314 C3315 1.372 . S
C3315 C3314 1.372 . S
C3315 C3316 1.400 1_455 S
C3315 C3320 1.490 . S
C3316 H3306 0.930 . S
C3316 C3315 1.400 1_655 S
C3316 C3319 1.386 . S
H3317 C3333 0.930 1_655 S
H3318 C3334 0.931 1_655 S
C3319 H3307 0.929 . S
C3319 C3313 1.390 1_655 S
C3319 C3316 1.386 . S
C3320 C3315 1.490 . S
C3320 C3322 1.395 . S
C3320 C3323 1.403 1_556 S
H3321 C3327 0.930 . S
C3322 H3308 0.930 . S
C3322 C3320 1.395 . S
C3322 C3325 1.403 . S
C3323 C3320 1.403 1_554 S
C3323 C3324 1.524 . S
C3323 C3327 1.400 . S
C3324 H3309 0.960 . S
C3324 H3310 0.960 . S
C3324 H3311 0.960 1_455 S
C3324 C3323 1.524 . S
C3325 C3322 1.403 . S
C3325 C3326 1.392 . S
C3325 C3329 1.495 . S
C3326 C3325 1.392 . S
C3326 C3327 1.385 1_556 S
C3326 C3328 1.478 1_556 S
C3327 H3321 0.930 . S
C3327 C3323 1.400 . S
C3327 C3326 1.385 1_554 S
C3328 C3326 1.478 1_554 S
C3328 C3330 1.381 . S
C3328 C3334 1.383 . S
C3329 C3325 1.495 . S
C3329 H3335 0.959 . S
C3329 H3336 0.961 . S
C3329 H3337 0.960 . S
C3330 C3328 1.381 . S
C3330 C3331 1.394 . S
C3330 H3338 0.945 . S
C3331 C3330 1.394 . S
C3331 C3332 1.383 . S
C3331 H3339 0.929 . S
C3332 C3331 1.383 . S
C3332 C3333 1.377 . S
C3333 H3317 0.930 1_455 S
C3333 C3332 1.377 . S
C3333 C3334 1.379 . S
C3334 H3318 0.931 1_455 S
C3334 C3328 1.383 . S
C3334 C3333 1.379 . S
H3335 C3329 0.959 . S
H3336 C3329 0.961 . S
H3337 C3329 0.960 . S
H3338 C3330 0.945 . S
H3339 C3331 0.929 . S
H3340 C3348 0.929 1_455 S
H3341 C3350 0.930 . S
H3342 C3352 0.930 . S
H3343 C3355 0.929 . S
H3344 C3358 0.930 . S
H3345 C3360 0.960 . S
H3346 C3360 0.960 . S
H3347 C3360 0.960 . S
C3348 H3340 0.929 1_655 S
C3348 C3349 1.377 . S
C3348 C3350 1.384 . S
C3349 C3348 1.377 . S
C3349 C3355 1.390 . S
C3350 H3341 0.930 . S
C3350 C3348 1.384 . S
C3350 C3351 1.372 . S
C3351 C3350 1.372 . S
C3351 C3352 1.400 . S
C3351 C3356 1.490 . S
C3352 H3342 0.930 . S
C3352 C3351 1.400 . S
C3352 C3355 1.386 . S
H3353 C3369 0.930 . S
H3354 C3370 0.931 . S
C3355 H3343 0.929 . S
C3355 C3349 1.390 . S
C3355 C3352 1.386 . S
C3356 C3351 1.490 . S
C3356 C3358 1.395 . S
C3356 C3359 1.403 . S
H3357 C3363 0.930 . S
C3358 H3344 0.930 . S
C3358 C3356 1.395 . S
C3358 C3361 1.403 . S
C3359 C3356 1.403 . S
C3359 C3360 1.524 . S
C3359 C3363 1.400 . S
C3360 H3345 0.960 . S
C3360 H3346 0.960 . S
C3360 H3347 0.960 . S
C3360 C3359 1.524 . S
C3361 C3358 1.403 . S
C3361 C3362 1.392 . S
C3361 C3365 1.495 . S
C3362 C3361 1.392 . S
C3362 C3363 1.385 . S
C3362 C3364 1.478 . S
C3363 H3357 0.930 . S
C3363 C3359 1.400 . S
C3363 C3362 1.385 . S
C3364 C3362 1.478 . S
C3364 C3366 1.381 . S
C3364 C3370 1.383 . S
C3365 C3361 1.495 . S
C3365 H3371 0.959 . S
C3365 H3372 0.961 . S
C3365 H3373 0.960 . S
C3366 C3364 1.381 . S
C3366 C3367 1.394 . S
C3366 H3374 0.930 . S
C3367 C3366 1.394 . S
C3367 C3368 1.383 . S
C3367 H3375 0.929 . S
C3368 C3367 1.383 . S
C3368 C3369 1.377 . S
C3369 H3353 0.930 . S
C3369 C3368 1.377 . S
C3369 C3370 1.379 . S
C3370 H3354 0.931 . S
C3370 C3364 1.383 . S
C3370 C3369 1.379 . S
H3371 C3365 0.959 . S
H3372 C3365 0.961 . S
H3373 C3365 0.960 . S
H3374 C3366 0.930 . S
H3375 C3367 0.929 . S
H3376 C3384 0.929 . S
H3377 C3386 0.930 . S
H3378 C3388 0.930 . S
H3379 C3391 0.929 . S
H3380 C3394 0.930 . S
H3381 C3396 0.960 . S
H3382 C3396 0.960 . S
H3383 C3396 0.960 . S
C3384 H3376 0.929 . S
C3384 C3385 1.377 . S
C3384 C3386 1.384 . S
C3385 C3384 1.377 . S
C3385 C3391 1.390 . S
C3386 H3377 0.930 . S
C3386 C3384 1.384 . S
C3386 C3387 1.372 . S
C3387 C3386 1.372 . S
C3387 C3388 1.400 . S
C3387 C3392 1.490 . S
C3388 H3378 0.930 . S
C3388 C3387 1.400 . S
C3388 C3391 1.386 . S
H3389 C3405 0.930 . S
H3390 C3406 0.931 . S
C3391 H3379 0.929 . S
C3391 C3385 1.390 . S
C3391 C3388 1.386 . S
C3392 C3387 1.490 . S
C3392 C3394 1.395 . S
C3392 C3395 1.403 . S
H3393 C3399 0.930 . S
C3394 H3380 0.930 . S
C3394 C3392 1.395 . S
C3394 C3397 1.403 . S
C3395 C3392 1.403 . S
C3395 C3396 1.524 . S
C3395 C3399 1.400 . S
C3396 H3381 0.960 . S
C3396 H3382 0.960 . S
C3396 H3383 0.960 . S
C3396 C3395 1.524 . S
C3397 C3394 1.403 . S
C3397 C3398 1.392 . S
C3397 C3401 1.495 . S
C3398 C3397 1.392 . S
C3398 C3399 1.385 . S
C3398 C3400 1.478 . S
C3399 H3393 0.930 . S
C3399 C3395 1.400 . S
C3399 C3398 1.385 . S
C3400 C3398 1.478 . S
C3400 C3402 1.381 . S
C3400 C3406 1.383 . S
C3401 C3397 1.495 . S
C3401 H3407 0.959 . S
C3401 H3408 0.961 . S
C3401 H3409 0.960 . S
C3402 C3400 1.381 . S
C3402 C3403 1.394 . S
C3402 H3410 0.930 . S
C3403 C3402 1.394 . S
C3403 C3404 1.383 . S
C3403 H3411 0.929 . S
C3404 C3403 1.383 . S
C3404 C3405 1.377 . S
C3405 H3389 0.930 . S
C3405 C3404 1.377 . S
C3405 C3406 1.379 . S
C3406 H3390 0.931 . S
C3406 C3400 1.383 . S
C3406 C3405 1.379 . S
H3407 C3401 0.959 . S
H3408 C3401 0.961 . S
H3409 C3401 0.960 . S
H3410 C3402 0.930 . S
H3411 C3403 0.929 . S
H3412 C3420 0.929 . S
H3413 C3422 0.930 . S
H3414 C3424 0.930 . S
H3415 C3427 0.929 . S
H3416 C3430 0.930 . S
H3417 C3432 0.960 . S
H3418 C3432 0.960 . S
H3419 C3432 0.960 . S
C3420 H3412 0.929 . S
C3420 C3421 1.377 . S
C3420 C3422 1.384 . S
C3421 C3420 1.377 . S
C3421 C3427 1.390 . S
C3422 H3413 0.930 . S
C3422 C3420 1.384 . S
C3422 C3423 1.372 . S
C3423 C3422 1.372 . S
C3423 C3424 1.400 . S
C3423 C3428 1.490 . S
C3424 H3414 0.930 . S
C3424 C3423 1.400 . S
C3424 C3427 1.386 . S
H3425 C3441 0.930 . S
H3426 C3442 0.931 . S
C3427 H3415 0.929 . S
C3427 C3421 1.390 . S
C3427 C3424 1.386 . S
C3428 C3423 1.490 . S
C3428 C3430 1.395 . S
C3428 C3431 1.403 . S
H3429 C3435 0.930 . S
C3430 H3416 0.930 . S
C3430 C3428 1.395 . S
C3430 C3433 1.403 . S
C3431 C3428 1.403 . S
C3431 C3432 1.524 . S
C3431 C3435 1.400 . S
C3432 H3417 0.960 . S
C3432 H3418 0.960 . S
C3432 H3419 0.960 . S
C3432 C3431 1.524 . S
C3433 C3430 1.403 . S
C3433 C3434 1.392 . S
C3433 C3437 1.495 . S
C3434 C3433 1.392 . S
C3434 C3435 1.385 . S
C3434 C3436 1.478 . S
C3435 H3429 0.930 . S
C3435 C3431 1.400 . S
C3435 C3434 1.385 . S
C3436 C3434 1.478 . S
C3436 C3438 1.381 . S
C3436 C3442 1.383 . S
C3437 C3433 1.495 . S
C3437 H3443 0.959 . S
C3437 H3444 0.961 . S
C3437 H3445 0.960 . S
C3438 C3436 1.381 . S
C3438 C3439 1.394 . S
C3438 H3446 0.930 . S
C3439 C3438 1.394 . S
C3439 C3440 1.383 . S
C3439 H3447 0.929 . S
C3440 C3439 1.383 . S
C3440 C3441 1.377 . S
C3441 H3425 0.930 . S
C3441 C3440 1.377 . S
C3441 C3442 1.379 . S
C3442 H3426 0.931 . S
C3442 C3436 1.383 . S
C3442 C3441 1.379 . S
H3443 C3437 0.959 . S
H3444 C3437 0.961 . S
H3445 C3437 0.960 . S
H3446 C3438 0.930 . S
H3447 C3439 0.929 . S
H3448 C3456 0.929 . S
H3449 C3458 0.930 . S
H3450 C3460 0.930 . S
H3451 C3463 0.929 . S
H3452 C3466 0.930 1_655 S
H3453 C3468 0.960 . S
H3454 C3468 0.960 . S
H3455 C3468 0.960 . S
C3456 H3448 0.929 . S
C3456 C3457 1.377 . S
C3456 C3458 1.384 . S
C3457 C3456 1.377 . S
C3457 C3463 1.390 . S
C3458 H3449 0.930 . S
C3458 C3456 1.384 . S
C3458 C3459 1.372 . S
C3459 C3458 1.372 . S
C3459 C3460 1.400 . S
C3459 C3464 1.490 . S
C3460 H3450 0.930 . S
C3460 C3459 1.400 . S
C3460 C3463 1.386 . S
H3461 C3477 0.930 . S
H3462 C3478 0.931 . S
C3463 H3451 0.929 . S
C3463 C3457 1.390 . S
C3463 C3460 1.386 . S
C3464 C3459 1.490 . S
C3464 C3466 1.395 . S
C3464 C3467 1.403 . S
H3465 C3471 0.930 . S
C3466 H3452 0.930 1_455 S
C3466 C3464 1.395 . S
C3466 C3469 1.403 . S
C3467 C3464 1.403 . S
C3467 C3468 1.524 . S
C3467 C3471 1.400 . S
C3468 H3453 0.960 . S
C3468 H3454 0.960 . S
C3468 H3455 0.960 . S
C3468 C3467 1.524 . S
C3469 C3466 1.403 . S
C3469 C3470 1.392 . S
C3469 C3473 1.495 1_455 S
C3470 C3469 1.392 . S
C3470 C3471 1.385 . S
C3470 C3472 1.478 . S
C3471 H3465 0.930 . S
C3471 C3467 1.400 . S
C3471 C3470 1.385 . S
C3472 C3470 1.478 . S
C3472 C3474 1.381 . S
C3472 C3478 1.383 . S
C3473 C3469 1.495 1_655 S
C3473 H3479 0.959 . S
C3473 H3480 0.961 . S
C3473 H3481 0.960 . S
C3474 C3472 1.381 . S
C3474 C3475 1.394 . S
C3474 H3482 0.930 . S
C3475 C3474 1.394 . S
C3475 C3476 1.383 . S
C3475 H3483 0.929 . S
C3476 C3475 1.383 . S
C3476 C3477 1.377 . S
C3477 H3461 0.930 . S
C3477 C3476 1.377 . S
C3477 C3478 1.379 . S
C3478 H3462 0.931 . S
C3478 C3472 1.383 . S
C3478 C3477 1.379 . S
H3479 C3473 0.959 . S
H3480 C3473 0.961 . S
H3481 C3473 0.960 . S
H3482 C3474 0.930 . S
H3483 C3475 0.929 . S
H3484 C3492 0.929 . S
H3485 C3494 0.930 . S
H3486 C3496 0.930 . S
H3487 C3499 0.929 . S
H3488 C3502 0.930 . S
H3489 C3504 0.960 . S
H3490 C3504 0.960 . S
H3491 C3504 0.960 . S
C3492 H3484 0.929 . S
C3492 C3493 1.377 . S
C3492 C3494 1.384 . S
C3493 C3492 1.377 . S
C3493 C3499 1.390 . S
C3494 H3485 0.930 . S
C3494 C3492 1.384 . S
C3494 C3495 1.372 . S
C3495 C3494 1.372 . S
C3495 C3496 1.400 . S
C3495 C3500 1.490 . S
C3496 H3486 0.930 . S
C3496 C3495 1.400 . S
C3496 C3499 1.386 . S
H3497 C3513 0.930 . S
H3498 C3514 0.931 . S
C3499 H3487 0.929 . S
C3499 C3493 1.390 . S
C3499 C3496 1.386 . S
C3500 C3495 1.490 . S
C3500 C3502 1.395 . S
C3500 C3503 1.403 . S
H3501 C3507 0.930 . S
C3502 H3488 0.930 . S
C3502 C3500 1.395 . S
C3502 C3505 1.403 . S
C3503 C3500 1.403 . S
C3503 C3504 1.524 . S
C3503 C3507 1.400 . S
C3504 H3489 0.960 . S
C3504 H3490 0.960 . S
C3504 H3491 0.960 . S
C3504 C3503 1.524 . S
C3505 C3502 1.403 . S
C3505 C3506 1.392 . S
C3505 C3509 1.495 . S
C3506 C3505 1.392 . S
C3506 C3507 1.385 . S
C3506 C3508 1.478 . S
C3507 H3501 0.930 . S
C3507 C3503 1.400 . S
C3507 C3506 1.385 . S
C3508 C3506 1.478 . S
C3508 C3510 1.381 . S
C3508 C3514 1.383 . S
C3509 C3505 1.495 . S
C3509 H3515 0.959 . S
C3509 H3516 0.961 . S
C3509 H3517 0.960 . S
C3510 C3508 1.381 . S
C3510 C3511 1.394 . S
C3510 H3518 0.930 . S
C3511 C3510 1.394 . S
C3511 C3512 1.383 . S
C3511 H3519 0.929 . S
C3512 C3511 1.383 . S
C3512 C3513 1.377 . S
C3513 H3497 0.930 . S
C3513 C3512 1.377 . S
C3513 C3514 1.379 . S
C3514 H3498 0.931 . S
C3514 C3508 1.383 . S
C3514 C3513 1.379 . S
H3515 C3509 0.959 . S
H3516 C3509 0.961 . S
H3517 C3509 0.960 . S
H3518 C3510 0.930 . S
H3519 C3511 0.929 . S
H3520 C3528 0.929 . S
H3521 C3530 0.930 . S
H3522 C3532 0.930 . S
H3523 C3535 0.929 . S
H3524 C3538 0.930 . S
H3525 C3540 0.960 . S
H3526 C3540 0.960 . S
H3527 C3540 0.960 . S
C3528 H3520 0.929 . S
C3528 C3529 1.377 . S
C3528 C3530 1.384 . S
C3529 C3528 1.377 . S
C3529 C3535 1.390 . S
C3530 H3521 0.930 . S
C3530 C3528 1.384 . S
C3530 C3531 1.372 . S
C3531 C3530 1.372 . S
C3531 C3532 1.400 . S
C3531 C3536 1.490 . S
C3532 H3522 0.930 . S
C3532 C3531 1.400 . S
C3532 C3535 1.386 . S
H3533 C3549 0.930 . S
H3534 C3550 0.931 . S
C3535 H3523 0.929 . S
C3535 C3529 1.390 . S
C3535 C3532 1.386 . S
C3536 C3531 1.490 . S
C3536 C3538 1.395 . S
C3536 C3539 1.403 . S
H3537 C3543 0.930 . S
C3538 H3524 0.930 . S
C3538 C3536 1.395 . S
C3538 C3541 1.403 . S
C3539 C3536 1.403 . S
C3539 C3540 1.524 . S
C3539 C3543 1.400 . S
C3540 H3525 0.960 . S
C3540 H3526 0.960 . S
C3540 H3527 0.960 . S
C3540 C3539 1.524 . S
C3541 C3538 1.403 . S
C3541 C3542 1.392 . S
C3541 C3545 1.495 . S
C3542 C3541 1.392 . S
C3542 C3543 1.385 . S
C3542 C3544 1.478 . S
C3543 H3537 0.930 . S
C3543 C3539 1.400 . S
C3543 C3542 1.385 . S
C3544 C3542 1.478 . S
C3544 C3546 1.381 . S
C3544 C3550 1.383 . S
C3545 C3541 1.495 . S
C3545 H3551 0.959 . S
C3545 H3552 0.961 . S
C3545 H3553 0.960 . S
C3546 C3544 1.381 . S
C3546 C3547 1.394 . S
C3546 H3554 0.930 . S
C3547 C3546 1.394 . S
C3547 C3548 1.383 . S
C3547 H3555 0.929 . S
C3548 C3547 1.383 . S
C3548 C3549 1.377 . S
C3549 H3533 0.930 . S
C3549 C3548 1.377 . S
C3549 C3550 1.379 . S
C3550 H3534 0.931 . S
C3550 C3544 1.383 . S
C3550 C3549 1.379 . S
H3551 C3545 0.959 . S
H3552 C3545 0.961 . S
H3553 C3545 0.960 . S
H3554 C3546 0.930 . S
H3555 C3547 0.929 . S
H3556 C3564 0.929 . S
H3557 C3566 0.930 . S
H3558 C3568 0.930 . S
H3559 C3571 0.929 . S
H3560 C3574 0.930 . S
H3561 C3576 0.960 . S
H3562 C3576 0.960 . S
H3563 C3576 0.960 . S
C3564 H3556 0.929 . S
C3564 C3565 1.377 . S
C3564 C3566 1.384 1_554 S
C3565 C3564 1.377 . S
C3565 C3571 1.390 1_554 S
C3566 H3557 0.930 . S
C3566 C3564 1.384 1_556 S
C3566 C3567 1.372 . S
C3567 C3566 1.372 . S
C3567 C3568 1.400 . S
C3567 C3572 1.490 . S
C3568 H3558 0.930 . S
C3568 C3567 1.400 . S
C3568 C3571 1.386 . S
H3569 C3585 0.930 . S
H3570 C3586 0.931 . S
C3571 H3559 0.929 . S
C3571 C3565 1.390 1_556 S
C3571 C3568 1.386 . S
C3572 C3567 1.490 . S
C3572 C3574 1.395 . S
C3572 C3575 1.403 . S
H3573 C3579 0.930 . S
C3574 H3560 0.930 . S
C3574 C3572 1.395 . S
C3574 C3577 1.403 . S
C3575 C3572 1.403 . S
C3575 C3576 1.524 . S
C3575 C3579 1.400 . S
C3576 H3561 0.960 . S
C3576 H3562 0.960 . S
C3576 H3563 0.960 . S
C3576 C3575 1.524 . S
C3577 C3574 1.403 . S
C3577 C3578 1.392 . S
C3577 C3581 1.495 . S
C3578 C3577 1.392 . S
C3578 C3579 1.385 . S
C3578 C3580 1.478 . S
C3579 H3573 0.930 . S
C3579 C3575 1.400 . S
C3579 C3578 1.385 . S
C3580 C3578 1.478 . S
C3580 C3582 1.381 . S
C3580 C3586 1.383 . S
C3581 C3577 1.495 . S
C3581 H3587 0.959 . S
C3581 H3588 0.961 . S
C3581 H3589 0.960 . S
C3582 C3580 1.381 . S
C3582 C3583 1.394 . S
C3582 H3590 0.930 . S
C3583 C3582 1.394 . S
C3583 C3584 1.383 . S
C3583 H3591 0.929 . S
C3584 C3583 1.383 . S
C3584 C3585 1.377 . S
C3585 H3569 0.930 . S
C3585 C3584 1.377 . S
C3585 C3586 1.379 . S
C3586 H3570 0.931 . S
C3586 C3580 1.383 . S
C3586 C3585 1.379 . S
H3587 C3581 0.959 . S
H3588 C3581 0.961 . S
H3589 C3581 0.960 . S
H3590 C3582 0.930 . S
H3591 C3583 0.929 . S
H3592 C3600 0.929 . S
H3593 C3602 0.930 . S
H3594 C3604 0.930 . S
H3595 C3607 0.929 . S
H3596 C3610 0.930 . S
H3597 C3612 0.960 . S
H3598 C3612 0.960 . S
H3599 C3612 0.960 . S
C3600 H3592 0.929 . S
C3600 C3601 1.377 . S
C3600 C3602 1.384 . S
C3601 C3600 1.377 . S
C3601 C3607 1.390 . S
C3602 H3593 0.930 . S
C3602 C3600 1.384 . S
C3602 C3603 1.372 . S
C3603 C3602 1.372 . S
C3603 C3604 1.400 . S
C3603 C3608 1.490 . S
C3604 H3594 0.930 . S
C3604 C3603 1.400 . S
C3604 C3607 1.386 . S
H3605 C3621 0.930 . S
H3606 C3622 0.931 . S
C3607 H3595 0.929 . S
C3607 C3601 1.390 . S
C3607 C3604 1.386 . S
C3608 C3603 1.490 . S
C3608 C3610 1.395 . S
C3608 C3611 1.403 . S
H3609 C3615 0.930 . S
C3610 H3596 0.930 . S
C3610 C3608 1.395 . S
C3610 C3613 1.403 . S
C3611 C3608 1.403 . S
C3611 C3612 1.524 . S
C3611 C3615 1.400 . S
C3612 H3597 0.960 . S
C3612 H3598 0.960 . S
C3612 H3599 0.960 . S
C3612 C3611 1.524 . S
C3613 C3610 1.403 . S
C3613 C3614 1.392 . S
C3613 C3617 1.495 . S
C3614 C3613 1.392 . S
C3614 C3615 1.385 . S
C3614 C3616 1.478 . S
C3615 H3609 0.930 . S
C3615 C3611 1.400 . S
C3615 C3614 1.385 . S
C3616 C3614 1.478 . S
C3616 C3618 1.381 . S
C3616 C3622 1.383 . S
C3617 C3613 1.495 . S
C3617 H3623 0.959 . S
C3617 H3624 0.961 . S
C3617 H3625 0.960 . S
C3618 C3616 1.381 . S
C3618 C3619 1.394 . S
C3618 H3626 0.930 . S
C3619 C3618 1.394 . S
C3619 C3620 1.383 . S
C3619 H3627 0.929 . S
C3620 C3619 1.383 . S
C3620 C3621 1.377 . S
C3621 H3605 0.930 . S
C3621 C3620 1.377 . S
C3621 C3622 1.379 . S
C3622 H3606 0.931 . S
C3622 C3616 1.383 . S
C3622 C3621 1.379 . S
H3623 C3617 0.959 . S
H3624 C3617 0.961 . S
H3625 C3617 0.960 . S
H3626 C3618 0.930 . S
H3627 C3619 0.929 . S
H3628 C3636 0.929 . S
H3629 C3638 0.930 . S
H3630 C3640 0.930 . S
H3631 C3643 0.929 . S
H3632 C3646 0.930 . S
H3633 C3648 0.960 . S
H3634 C3648 0.960 . S
H3635 C3648 0.960 . S
C3636 H3628 0.929 . S
C3636 C3637 1.377 . S
C3636 C3638 1.384 . S
C3637 C3636 1.377 . S
C3637 C3643 1.390 . S
C3638 H3629 0.930 . S
C3638 C3636 1.384 . S
C3638 C3639 1.372 . S
C3639 C3638 1.372 . S
C3639 C3640 1.400 . S
C3639 C3644 1.490 . S
C3640 H3630 0.930 . S
C3640 C3639 1.400 . S
C3640 C3643 1.386 . S
H3641 C3657 0.930 . S
H3642 C3658 0.931 . S
C3643 H3631 0.929 . S
C3643 C3637 1.390 . S
C3643 C3640 1.386 . S
C3644 C3639 1.490 . S
C3644 C3646 1.395 . S
C3644 C3647 1.403 . S
H3645 C3651 0.930 . S
C3646 H3632 0.930 . S
C3646 C3644 1.395 . S
C3646 C3649 1.403 . S
C3647 C3644 1.403 . S
C3647 C3648 1.524 . S
C3647 C3651 1.400 . S
C3648 H3633 0.960 . S
C3648 H3634 0.960 . S
C3648 H3635 0.960 . S
C3648 C3647 1.524 . S
C3649 C3646 1.403 . S
C3649 C3650 1.392 . S
C3649 C3653 1.495 . S
C3650 C3649 1.392 . S
C3650 C3651 1.385 . S
C3650 C3652 1.478 . S
C3651 H3645 0.930 . S
C3651 C3647 1.400 . S
C3651 C3650 1.385 . S
C3652 C3650 1.478 . S
C3652 C3654 1.381 . S
C3652 C3658 1.383 . S
C3653 C3649 1.495 . S
C3653 H3659 0.959 . S
C3653 H3660 0.961 . S
C3653 H3661 0.960 . S
C3654 C3652 1.381 . S
C3654 C3655 1.394 . S
C3654 H3662 0.930 . S
C3655 C3654 1.394 . S
C3655 C3656 1.383 . S
C3655 H3663 0.929 . S
C3656 C3655 1.383 . S
C3656 C3657 1.377 . S
C3657 H3641 0.930 . S
C3657 C3656 1.377 . S
C3657 C3658 1.379 . S
C3658 H3642 0.931 . S
C3658 C3652 1.383 . S
C3658 C3657 1.379 . S
H3659 C3653 0.959 . S
H3660 C3653 0.961 . S
H3661 C3653 0.960 . S
H3662 C3654 0.930 . S
H3663 C3655 0.929 . S
H3664 C3672 0.929 . S
H3665 C3674 0.930 . S
H3666 C3676 0.930 . S
H3667 C3679 0.929 . S
H3668 C3682 0.930 . S
H3669 C3684 0.960 . S
H3670 C3684 0.960 . S
H3671 C3684 0.960 . S
C3672 H3664 0.929 . S
C3672 C3673 1.377 . S
C3672 C3674 1.384 . S
C3673 C3672 1.377 . S
C3673 C3679 1.390 . S
C3674 H3665 0.930 . S
C3674 C3672 1.384 . S
C3674 C3675 1.372 . S
C3675 C3674 1.372 . S
C3675 C3676 1.400 . S
C3675 C3680 1.490 . S
C3676 H3666 0.930 . S
C3676 C3675 1.400 . S
C3676 C3679 1.386 . S
H3677 C3693 0.930 . S
H3678 C3694 0.931 . S
C3679 H3667 0.929 . S
C3679 C3673 1.390 . S
C3679 C3676 1.386 . S
C3680 C3675 1.490 . S
C3680 C3682 1.395 . S
C3680 C3683 1.403 . S
H3681 C3687 0.930 . S
C3682 H3668 0.930 . S
C3682 C3680 1.395 . S
C3682 C3685 1.403 . S
C3683 C3680 1.403 . S
C3683 C3684 1.524 . S
C3683 C3687 1.400 . S
C3684 H3669 0.960 . S
C3684 H3670 0.960 . S
C3684 H3671 0.960 . S
C3684 C3683 1.524 . S
C3685 C3682 1.403 . S
C3685 C3686 1.392 . S
C3685 C3689 1.495 . S
C3686 C3685 1.392 . S
C3686 C3687 1.385 . S
C3686 C3688 1.478 . S
C3687 H3681 0.930 . S
C3687 C3683 1.400 . S
C3687 C3686 1.385 . S
C3688 C3686 1.478 . S
C3688 C3690 1.381 . S
C3688 C3694 1.383 . S
C3689 C3685 1.495 . S
C3689 H3695 0.959 . S
C3689 H3696 0.961 . S
C3689 H3697 0.960 . S
C3690 C3688 1.381 . S
C3690 C3691 1.394 . S
C3690 H3698 0.930 . S
C3691 C3690 1.394 . S
C3691 C3692 1.383 . S
C3691 H3699 0.929 . S
C3692 C3691 1.383 . S
C3692 C3693 1.377 . S
C3693 H3677 0.930 . S
C3693 C3692 1.377 . S
C3693 C3694 1.379 . S
C3694 H3678 0.931 . S
C3694 C3688 1.383 . S
C3694 C3693 1.379 . S
H3695 C3689 0.959 . S
H3696 C3689 0.961 . S
H3697 C3689 0.960 . S
H3698 C3690 0.930 . S
H3699 C3691 0.929 . S
H3700 C3708 0.929 . S
H3701 C3710 0.930 . S
H3702 C3712 0.930 . S
H3703 C3715 0.929 . S
H3704 C3718 0.930 . S
H3705 C3720 0.960 . S
H3706 C3720 0.960 . S
H3707 C3720 0.960 . S
C3708 H3700 0.929 . S
C3708 C3709 1.377 . S
C3708 C3710 1.384 . S
C3709 C3708 1.377 . S
C3709 C3715 1.390 . S
C3710 H3701 0.930 . S
C3710 C3708 1.384 . S
C3710 C3711 1.372 . S
C3711 C3710 1.372 . S
C3711 C3712 1.400 . S
C3711 C3716 1.490 . S
C3712 H3702 0.930 . S
C3712 C3711 1.400 . S
C3712 C3715 1.386 . S
H3713 C3729 0.930 . S
H3714 C3730 0.931 . S
C3715 H3703 0.929 . S
C3715 C3709 1.390 . S
C3715 C3712 1.386 . S
C3716 C3711 1.490 . S
C3716 C3718 1.395 . S
C3716 C3719 1.403 . S
H3717 C3723 0.930 . S
C3718 H3704 0.930 . S
C3718 C3716 1.395 . S
C3718 C3721 1.403 . S
C3719 C3716 1.403 . S
C3719 C3720 1.524 . S
C3719 C3723 1.400 . S
C3720 H3705 0.960 . S
C3720 H3706 0.960 . S
C3720 H3707 0.960 . S
C3720 C3719 1.524 . S
C3721 C3718 1.403 . S
C3721 C3722 1.392 . S
C3721 C3725 1.495 . S
C3722 C3721 1.392 . S
C3722 C3723 1.385 . S
C3722 C3724 1.478 . S
C3723 H3717 0.930 . S
C3723 C3719 1.400 . S
C3723 C3722 1.385 . S
C3724 C3722 1.478 . S
C3724 C3726 1.381 . S
C3724 C3730 1.383 . S
C3725 C3721 1.495 . S
C3725 H3731 0.959 . S
C3725 H3732 0.961 . S
C3725 H3733 0.960 . S
C3726 C3724 1.381 . S
C3726 C3727 1.394 . S
C3726 H3734 0.930 . S
C3727 C3726 1.394 . S
C3727 C3728 1.383 . S
C3727 H3735 0.929 . S
C3728 C3727 1.383 . S
C3728 C3729 1.377 . S
C3729 H3713 0.930 . S
C3729 C3728 1.377 . S
C3729 C3730 1.379 . S
C3730 H3714 0.931 . S
C3730 C3724 1.383 . S
C3730 C3729 1.379 . S
H3731 C3725 0.959 . S
H3732 C3725 0.961 . S
H3733 C3725 0.960 . S
H3734 C3726 0.930 . S
H3735 C3727 0.929 . S
H3736 C3744 0.929 . S
H3737 C3746 0.930 . S
H3738 C3748 0.930 . S
H3739 C3751 0.929 . S
H3740 C3754 0.930 . S
H3741 C3756 0.960 . S
H3742 C3756 0.960 . S
H3743 C3756 0.960 . S
C3744 H3736 0.929 . S
C3744 C3745 1.377 . S
C3744 C3746 1.384 . S
C3745 C3744 1.377 . S
C3745 C3751 1.390 . S
C3746 H3737 0.930 . S
C3746 C3744 1.384 . S
C3746 C3747 1.372 . S
C3747 C3746 1.372 . S
C3747 C3748 1.400 . S
C3747 C3752 1.490 . S
C3748 H3738 0.930 . S
C3748 C3747 1.400 . S
C3748 C3751 1.386 . S
H3749 C3765 0.930 . S
H3750 C3766 0.931 . S
C3751 H3739 0.929 . S
C3751 C3745 1.390 . S
C3751 C3748 1.386 . S
C3752 C3747 1.490 . S
C3752 C3754 1.395 . S
C3752 C3755 1.403 . S
H3753 C3759 0.930 . S
C3754 H3740 0.930 . S
C3754 C3752 1.395 . S
C3754 C3757 1.403 . S
C3755 C3752 1.403 . S
C3755 C3756 1.524 . S
C3755 C3759 1.400 . S
C3756 H3741 0.960 . S
C3756 H3742 0.960 . S
C3756 H3743 0.960 . S
C3756 C3755 1.524 . S
C3757 C3754 1.403 . S
C3757 C3758 1.392 . S
C3757 C3761 1.495 . S
C3758 C3757 1.392 . S
C3758 C3759 1.385 . S
C3758 C3760 1.478 . S
C3759 H3753 0.930 . S
C3759 C3755 1.400 . S
C3759 C3758 1.385 . S
C3760 C3758 1.478 . S
C3760 C3762 1.381 . S
C3760 C3766 1.383 . S
C3761 C3757 1.495 . S
C3761 H3767 0.959 . S
C3761 H3768 0.961 . S
C3761 H3769 0.960 . S
C3762 C3760 1.381 . S
C3762 C3763 1.394 . S
C3762 H3770 0.930 . S
C3763 C3762 1.394 . S
C3763 C3764 1.383 . S
C3763 H3771 0.929 . S
C3764 C3763 1.383 . S
C3764 C3765 1.377 . S
C3765 H3749 0.930 . S
C3765 C3764 1.377 . S
C3765 C3766 1.379 . S
C3766 H3750 0.931 . S
C3766 C3760 1.383 . S
C3766 C3765 1.379 . S
H3767 C3761 0.959 . S
H3768 C3761 0.961 . S
H3769 C3761 0.960 . S
H3770 C3762 0.930 . S
H3771 C3763 0.929 . S
H3772 C3780 0.929 . S
H3773 C3782 0.930 . S
H3774 C3784 0.930 . S
H3775 C3787 0.929 . S
H3776 C3790 0.930 . S
H3777 C3792 0.960 . S
H3778 C3792 0.960 . S
H3779 C3792 0.960 . S
C3780 H3772 0.929 . S
C3780 C3781 1.377 . S
C3780 C3782 1.384 . S
C3781 C3780 1.377 . S
C3781 C3787 1.390 . S
C3782 H3773 0.930 . S
C3782 C3780 1.384 . S
C3782 C3783 1.372 . S
C3783 C3782 1.372 . S
C3783 C3784 1.400 . S
C3783 C3788 1.490 . S
C3784 H3774 0.930 . S
C3784 C3783 1.400 . S
C3784 C3787 1.386 . S
H3785 C3801 0.930 . S
H3786 C3802 0.931 . S
C3787 H3775 0.929 . S
C3787 C3781 1.390 . S
C3787 C3784 1.386 . S
C3788 C3783 1.490 . S
C3788 C3790 1.395 . S
C3788 C3791 1.403 . S
H3789 C3795 0.930 . S
C3790 H3776 0.930 . S
C3790 C3788 1.395 . S
C3790 C3793 1.403 . S
C3791 C3788 1.403 . S
C3791 C3792 1.524 . S
C3791 C3795 1.400 . S
C3792 H3777 0.960 . S
C3792 H3778 0.960 . S
C3792 H3779 0.960 . S
C3792 C3791 1.524 . S
C3793 C3790 1.403 . S
C3793 C3794 1.392 . S
C3793 C3797 1.495 . S
C3794 C3793 1.392 . S
C3794 C3795 1.385 . S
C3794 C3796 1.478 . S
C3795 H3789 0.930 . S
C3795 C3791 1.400 . S
C3795 C3794 1.385 . S
C3796 C3794 1.478 . S
C3796 C3798 1.381 . S
C3796 C3802 1.383 . S
C3797 C3793 1.495 . S
C3797 H3803 0.959 . S
C3797 H3804 0.961 . S
C3797 H3805 0.960 . S
C3798 C3796 1.381 . S
C3798 C3799 1.394 . S
C3798 H3806 0.930 . S
C3799 C3798 1.394 . S
C3799 C3800 1.383 . S
C3799 H3807 0.929 . S
C3800 C3799 1.383 . S
C3800 C3801 1.377 . S
C3801 H3785 0.930 . S
C3801 C3800 1.377 . S
C3801 C3802 1.379 . S
C3802 H3786 0.931 . S
C3802 C3796 1.383 . S
C3802 C3801 1.379 . S
H3803 C3797 0.959 . S
H3804 C3797 0.961 . S
H3805 C3797 0.960 . S
H3806 C3798 0.930 . S
H3807 C3799 0.929 . S
H3808 C3816 0.929 . S
H3809 C3818 0.930 . S
H3810 C3820 0.930 . S
H3811 C3823 0.929 . S
H3812 C3826 0.930 . S
H3813 C3828 0.960 . S
H3814 C3828 0.960 . S
H3815 C3828 0.960 . S
C3816 H3808 0.929 . S
C3816 C3817 1.377 . S
C3816 C3818 1.384 . S
C3817 C3816 1.377 . S
C3817 C3823 1.390 . S
C3818 H3809 0.930 . S
C3818 C3816 1.384 . S
C3818 C3819 1.372 . S
C3819 C3818 1.372 . S
C3819 C3820 1.400 . S
C3819 C3824 1.490 . S
C3820 H3810 0.930 . S
C3820 C3819 1.400 . S
C3820 C3823 1.386 . S
H3821 C3837 0.930 . S
H3822 C3838 0.931 . S
C3823 H3811 0.929 . S
C3823 C3817 1.390 . S
C3823 C3820 1.386 . S
C3824 C3819 1.490 . S
C3824 C3826 1.395 . S
C3824 C3827 1.403 . S
H3825 C3831 0.930 . S
C3826 H3812 0.930 . S
C3826 C3824 1.395 . S
C3826 C3829 1.403 . S
C3827 C3824 1.403 . S
C3827 C3828 1.524 . S
C3827 C3831 1.400 . S
C3828 H3813 0.960 . S
C3828 H3814 0.960 . S
C3828 H3815 0.960 . S
C3828 C3827 1.524 . S
C3829 C3826 1.403 . S
C3829 C3830 1.392 . S
C3829 C3833 1.495 . S
C3830 C3829 1.392 . S
C3830 C3831 1.385 . S
C3830 C3832 1.478 . S
C3831 H3825 0.930 . S
C3831 C3827 1.400 . S
C3831 C3830 1.385 . S
C3832 C3830 1.478 . S
C3832 C3834 1.381 . S
C3832 C3838 1.383 . S
C3833 C3829 1.495 . S
C3833 H3839 0.959 . S
C3833 H3840 0.961 . S
C3833 H3841 0.960 . S
C3834 C3832 1.381 . S
C3834 C3835 1.394 . S
C3834 H3842 0.930 . S
C3835 C3834 1.394 . S
C3835 C3836 1.383 . S
C3835 H3843 0.929 . S
C3836 C3835 1.383 . S
C3836 C3837 1.377 . S
C3837 H3821 0.930 . S
C3837 C3836 1.377 . S
C3837 C3838 1.379 . S
C3838 H3822 0.931 . S
C3838 C3832 1.383 . S
C3838 C3837 1.379 . S
H3839 C3833 0.959 . S
H3840 C3833 0.961 . S
H3841 C3833 0.960 . S
H3842 C3834 0.930 . S
H3843 C3835 0.929 . S
H3844 C3852 0.929 . S
H3845 C3854 0.930 . S
H3846 C3856 0.930 . S
H3847 C3859 0.929 . S
H3848 C3862 0.930 . S
H3849 C3864 0.960 . S
H3850 C3864 0.960 . S
H3851 C3864 0.960 . S
C3852 H3844 0.929 . S
C3852 C3853 1.377 . S
C3852 C3854 1.384 . S
C3853 C3852 1.377 . S
C3853 C3859 1.390 . S
C3854 H3845 0.930 . S
C3854 C3852 1.384 . S
C3854 C3855 1.372 . S
C3855 C3854 1.372 . S
C3855 C3856 1.400 . S
C3855 C3860 1.490 . S
C3856 H3846 0.930 . S
C3856 C3855 1.400 . S
C3856 C3859 1.386 . S
H3857 C3873 0.930 . S
H3858 C3874 0.931 . S
C3859 H3847 0.929 . S
C3859 C3853 1.390 . S
C3859 C3856 1.386 . S
C3860 C3855 1.490 . S
C3860 C3862 1.395 . S
C3860 C3863 1.403 . S
H3861 C3867 0.930 . S
C3862 H3848 0.930 . S
C3862 C3860 1.395 . S
C3862 C3865 1.403 . S
C3863 C3860 1.403 . S
C3863 C3864 1.524 . S
C3863 C3867 1.400 . S
C3864 H3849 0.960 . S
C3864 H3850 0.960 . S
C3864 H3851 0.960 . S
C3864 C3863 1.524 . S
C3865 C3862 1.403 . S
C3865 C3866 1.392 . S
C3865 C3869 1.495 . S
C3866 C3865 1.392 . S
C3866 C3867 1.385 . S
C3866 C3868 1.478 . S
C3867 H3861 0.930 . S
C3867 C3863 1.400 . S
C3867 C3866 1.385 . S
C3868 C3866 1.478 . S
C3868 C3870 1.381 . S
C3868 C3874 1.383 . S
C3869 C3865 1.495 . S
C3869 H3875 0.959 . S
C3869 H3876 0.961 . S
C3869 H3877 0.960 . S
C3870 C3868 1.381 . S
C3870 C3871 1.394 . S
C3870 H3878 0.930 . S
C3871 C3870 1.394 . S
C3871 C3872 1.383 . S
C3871 H3879 0.929 . S
C3872 C3871 1.383 . S
C3872 C3873 1.377 . S
C3873 H3857 0.930 . S
C3873 C3872 1.377 . S
C3873 C3874 1.379 . S
C3874 H3858 0.931 . S
C3874 C3868 1.383 . S
C3874 C3873 1.379 . S
H3875 C3869 0.959 . S
H3876 C3869 0.961 . S
H3877 C3869 0.960 . S
H3878 C3870 0.930 . S
H3879 C3871 0.929 . S
H3880 C3888 0.929 . S
H3881 C3890 0.930 . S
H3882 C3892 0.930 . S
H3883 C3895 0.929 . S
H3884 C3898 0.930 . S
H3885 C3900 0.960 . S
H3886 C3900 0.960 . S
H3887 C3900 0.960 . S
C3888 H3880 0.929 . S
C3888 C3889 1.377 . S
C3888 C3890 1.384 . S
C3889 C3888 1.377 . S
C3889 C3895 1.390 . S
C3890 H3881 0.930 . S
C3890 C3888 1.384 . S
C3890 C3891 1.372 . S
C3891 C3890 1.372 . S
C3891 C3892 1.400 . S
C3891 C3896 1.490 . S
C3892 H3882 0.930 . S
C3892 C3891 1.400 . S
C3892 C3895 1.386 . S
H3893 C3909 0.930 . S
H3894 C3910 0.931 . S
C3895 H3883 0.929 . S
C3895 C3889 1.390 . S
C3895 C3892 1.386 . S
C3896 C3891 1.490 . S
C3896 C3898 1.395 . S
C3896 C3899 1.403 . S
H3897 C3903 0.930 . S
C3898 H3884 0.930 . S
C3898 C3896 1.395 . S
C3898 C3901 1.403 . S
C3899 C3896 1.403 . S
C3899 C3900 1.524 . S
C3899 C3903 1.400 . S
C3900 H3885 0.960 . S
C3900 H3886 0.960 . S
C3900 H3887 0.960 . S
C3900 C3899 1.524 . S
C3901 C3898 1.403 . S
C3901 C3902 1.392 . S
C3901 C3905 1.495 . S
C3902 C3901 1.392 . S
C3902 C3903 1.385 . S
C3902 C3904 1.478 . S
C3903 H3897 0.930 . S
C3903 C3899 1.400 . S
C3903 C3902 1.385 . S
C3904 C3902 1.478 . S
C3904 C3906 1.381 . S
C3904 C3910 1.383 . S
C3905 C3901 1.495 . S
C3905 H3911 0.959 . S
C3905 H3912 0.961 . S
C3905 H3913 0.960 . S
C3906 C3904 1.381 . S
C3906 C3907 1.394 . S
C3906 H3914 0.930 . S
C3907 C3906 1.394 . S
C3907 C3908 1.383 . S
C3907 H3915 0.929 . S
C3908 C3907 1.383 . S
C3908 C3909 1.377 . S
C3909 H3893 0.930 . S
C3909 C3908 1.377 . S
C3909 C3910 1.379 . S
C3910 H3894 0.931 . S
C3910 C3904 1.383 . S
C3910 C3909 1.379 . S
H3911 C3905 0.959 . S
H3912 C3905 0.961 . S
H3913 C3905 0.960 . S
H3914 C3906 0.930 . S
H3915 C3907 0.929 . S
H3916 C3924 0.929 . S
H3917 C3926 0.930 . S
H3918 C3928 0.930 . S
H3919 C3931 0.929 . S
H3920 C3934 0.930 . S
H3921 C3936 0.960 . S
H3922 C3936 0.960 . S
H3923 C3936 0.960 . S
C3924 H3916 0.929 . S
C3924 C3925 1.377 . S
C3924 C3926 1.384 . S
C3925 C3924 1.377 . S
C3925 C3931 1.390 . S
C3926 H3917 0.930 . S
C3926 C3924 1.384 . S
C3926 C3927 1.372 . S
C3927 C3926 1.372 . S
C3927 C3928 1.400 . S
C3927 C3932 1.490 . S
C3928 H3918 0.930 . S
C3928 C3927 1.400 . S
C3928 C3931 1.386 . S
H3929 C3945 0.930 . S
H3930 C3946 0.931 . S
C3931 H3919 0.929 . S
C3931 C3925 1.390 . S
C3931 C3928 1.386 . S
C3932 C3927 1.490 . S
C3932 C3934 1.395 1_554 S
C3932 C3935 1.403 . S
H3933 C3939 0.930 . S
C3934 H3920 0.930 . S
C3934 C3932 1.395 1_556 S
C3934 C3937 1.403 . S
C3935 C3932 1.403 . S
C3935 C3936 1.524 . S
C3935 C3939 1.400 . S
C3936 H3921 0.960 . S
C3936 H3922 0.960 . S
C3936 H3923 0.960 . S
C3936 C3935 1.524 . S
C3937 C3934 1.403 . S
C3937 C3938 1.392 1_556 S
C3937 C3941 1.495 . S
C3938 C3937 1.392 1_554 S
C3938 C3939 1.385 . S
C3938 C3940 1.478 . S
C3939 H3933 0.930 . S
C3939 C3935 1.400 . S
C3939 C3938 1.385 . S
C3940 C3938 1.478 . S
C3940 C3942 1.381 . S
C3940 C3946 1.383 1_565 S
C3941 C3937 1.495 . S
C3941 H3947 0.959 . S
C3941 H3948 0.961 . S
C3941 H3949 0.960 . S
C3942 C3940 1.381 . S
C3942 C3943 1.394 . S
C3942 H3950 0.930 . S
C3943 C3942 1.394 . S
C3943 C3944 1.383 1_565 S
C3943 H3951 0.929 . S
C3944 C3943 1.383 1_545 S
C3944 C3945 1.377 . S
C3945 H3929 0.930 . S
C3945 C3944 1.377 . S
C3945 C3946 1.379 . S
C3946 H3930 0.931 . S
C3946 C3940 1.383 1_545 S
C3946 C3945 1.379 . S
H3947 C3941 0.959 . S
H3948 C3941 0.961 . S
H3949 C3941 0.960 . S
H3950 C3942 0.930 . S
H3951 C3943 0.929 . S
H3952 C3960 0.929 . S
H3953 C3962 0.930 . S
H3954 C3964 0.930 . S
H3955 C3967 0.929 . S
H3956 C3970 0.930 . S
H3957 C3972 0.960 . S
H3958 C3972 0.960 . S
H3959 C3972 0.960 . S
C3960 H3952 0.929 . S
C3960 C3961 1.377 . S
C3960 C3962 1.384 . S
C3961 C3960 1.377 . S
C3961 C3967 1.390 . S
C3962 H3953 0.930 . S
C3962 C3960 1.384 . S
C3962 C3963 1.372 . S
C3963 C3962 1.372 . S
C3963 C3964 1.400 . S
C3963 C3968 1.490 . S
C3964 H3954 0.930 . S
C3964 C3963 1.400 . S
C3964 C3967 1.386 . S
H3965 C3981 0.930 . S
H3966 C3982 0.931 . S
C3967 H3955 0.929 . S
C3967 C3961 1.390 . S
C3967 C3964 1.386 . S
C3968 C3963 1.490 . S
C3968 C3970 1.395 . S
C3968 C3971 1.403 . S
H3969 C3975 0.930 . S
C3970 H3956 0.930 . S
C3970 C3968 1.395 . S
C3970 C3973 1.403 . S
C3971 C3968 1.403 . S
C3971 C3972 1.524 . S
C3971 C3975 1.400 . S
C3972 H3957 0.960 . S
C3972 H3958 0.960 . S
C3972 H3959 0.960 . S
C3972 C3971 1.524 . S
C3973 C3970 1.403 . S
C3973 C3974 1.392 . S
C3973 C3977 1.495 . S
C3974 C3973 1.392 . S
C3974 C3975 1.385 . S
C3974 C3976 1.478 . S
C3975 H3969 0.930 . S
C3975 C3971 1.400 . S
C3975 C3974 1.385 . S
C3976 C3974 1.478 . S
C3976 C3978 1.381 . S
C3976 C3982 1.383 . S
C3977 C3973 1.495 . S
C3977 H3983 0.959 . S
C3977 H3984 0.961 . S
C3977 H3985 0.960 . S
C3978 C3976 1.381 . S
C3978 C3979 1.394 . S
C3978 H3986 0.930 . S
C3979 C3978 1.394 . S
C3979 C3980 1.383 . S
C3979 H3987 0.929 . S
C3980 C3979 1.383 . S
C3980 C3981 1.377 . S
C3981 H3965 0.930 . S
C3981 C3980 1.377 . S
C3981 C3982 1.379 . S
C3982 H3966 0.931 . S
C3982 C3976 1.383 . S
C3982 C3981 1.379 . S
H3983 C3977 0.959 . S
H3984 C3977 0.961 . S
H3985 C3977 0.960 . S
H3986 C3978 0.930 . S
H3987 C3979 0.929 . S
H3988 C3996 0.929 . S
H3989 C3998 0.930 . S
H3990 C4000 0.904 1_556 S
H3991 C4003 0.929 1_556 S
H3992 C4006 0.930 . S
H3993 C4008 0.960 . S
H3994 C4008 0.960 . S
H3995 C4008 0.960 . S
C3996 H3988 0.929 . S
C3996 C3997 1.377 . S
C3996 C3998 1.384 . S
C3997 C3996 1.377 . S
C3997 C4003 1.390 . S
C3998 H3989 0.930 . S
C3998 C3996 1.384 . S
C3998 C3999 1.372 . S
C3999 C3998 1.372 . S
C3999 C4000 1.400 . S
C3999 C4004 1.490 . S
C4000 H3990 0.904 1_554 S
C4000 C3999 1.400 . S
C4000 C4003 1.386 . S
H4001 C4017 0.930 . S
H4002 C4018 0.931 . S
C4003 H3991 0.929 1_554 S
C4003 C3997 1.390 . S
C4003 C4000 1.386 . S
C4004 C3999 1.490 . S
C4004 C4006 1.395 . S
C4004 C4007 1.403 . S
H4005 C4011 0.930 . S
C4006 H3992 0.930 . S
C4006 C4004 1.395 . S
C4006 C4009 1.403 . S
C4007 C4004 1.403 . S
C4007 C4008 1.524 . S
C4007 C4011 1.400 . S
C4008 H3993 0.960 . S
C4008 H3994 0.960 . S
C4008 H3995 0.960 . S
C4008 C4007 1.524 . S
C4009 C4006 1.403 . S
C4009 C4010 1.392 . S
C4009 C4013 1.495 . S
C4010 C4009 1.392 . S
C4010 C4011 1.385 . S
C4010 C4012 1.478 . S
C4011 H4005 0.930 . S
C4011 C4007 1.400 . S
C4011 C4010 1.385 . S
C4012 C4010 1.478 . S
C4012 C4014 1.381 . S
C4012 C4018 1.383 . S
C4013 C4009 1.495 . S
C4013 H4019 0.959 . S
C4013 H4020 0.961 . S
C4013 H4021 0.960 . S
C4014 C4012 1.381 . S
C4014 C4015 1.394 . S
C4014 H4022 0.930 . S
C4015 C4014 1.394 . S
C4015 C4016 1.383 . S
C4015 H4023 0.929 . S
C4016 C4015 1.383 . S
C4016 C4017 1.377 . S
C4017 H4001 0.930 . S
C4017 C4016 1.377 . S
C4017 C4018 1.379 . S
C4018 H4002 0.931 . S
C4018 C4012 1.383 . S
C4018 C4017 1.379 . S
H4019 C4013 0.959 . S
H4020 C4013 0.961 . S
H4021 C4013 0.960 . S
H4022 C4014 0.930 . S
H4023 C4015 0.929 . S
H4024 C4032 0.929 . S
H4025 C4034 0.930 . S
H4026 C4036 0.930 . S
H4027 C4039 0.929 . S
H4028 C4042 0.930 . S
H4029 C4044 0.960 . S
H4030 C4044 0.960 . S
H4031 C4044 0.960 . S
C4032 H4024 0.929 . S
C4032 C4033 1.377 . S
C4032 C4034 1.384 . S
C4033 C4032 1.377 . S
C4033 C4039 1.390 . S
C4034 H4025 0.930 . S
C4034 C4032 1.384 . S
C4034 C4035 1.372 . S
C4035 C4034 1.372 . S
C4035 C4036 1.400 . S
C4035 C4040 1.490 . S
C4036 H4026 0.930 . S
C4036 C4035 1.400 . S
C4036 C4039 1.386 . S
H4037 C4053 0.930 . S
H4038 C4054 0.931 . S
C4039 H4027 0.929 . S
C4039 C4033 1.390 . S
C4039 C4036 1.386 . S
C4040 C4035 1.490 . S
C4040 C4042 1.395 . S
C4040 C4043 1.403 . S
H4041 C4047 0.930 . S
C4042 H4028 0.930 . S
C4042 C4040 1.395 . S
C4042 C4045 1.403 . S
C4043 C4040 1.403 . S
C4043 C4044 1.524 . S
C4043 C4047 1.400 . S
C4044 H4029 0.960 . S
C4044 H4030 0.960 . S
C4044 H4031 0.960 . S
C4044 C4043 1.524 . S
C4045 C4042 1.403 . S
C4045 C4046 1.392 . S
C4045 C4049 1.495 . S
C4046 C4045 1.392 . S
C4046 C4047 1.385 . S
C4046 C4048 1.478 . S
C4047 H4041 0.930 . S
C4047 C4043 1.400 . S
C4047 C4046 1.385 . S
C4048 C4046 1.478 . S
C4048 C4050 1.381 . S
C4048 C4054 1.383 . S
C4049 C4045 1.495 . S
C4049 H4055 0.959 . S
C4049 H4056 0.961 . S
C4049 H4057 0.960 . S
C4050 C4048 1.381 . S
C4050 C4051 1.394 . S
C4050 H4058 0.930 . S
C4051 C4050 1.394 . S
C4051 C4052 1.383 . S
C4051 H4059 0.929 . S
C4052 C4051 1.383 . S
C4052 C4053 1.377 . S
C4053 H4037 0.930 . S
C4053 C4052 1.377 . S
C4053 C4054 1.379 . S
C4054 H4038 0.931 . S
C4054 C4048 1.383 . S
C4054 C4053 1.379 . S
H4055 C4049 0.959 . S
H4056 C4049 0.961 . S
H4057 C4049 0.960 . S
H4058 C4050 0.930 . S
H4059 C4051 0.929 . S
H4060 C4068 0.929 . S
H4061 C4070 0.930 . S
H4062 C4072 0.930 . S
H4063 C4075 0.929 . S
H4064 C4078 0.930 . S
H4065 C4080 0.960 . S
H4066 C4080 0.960 . S
H4067 C4080 0.960 . S
C4068 H4060 0.929 . S
C4068 C4069 1.377 . S
C4068 C4070 1.384 . S
C4069 C4068 1.377 . S
C4069 C4075 1.390 . S
C4070 H4061 0.930 . S
C4070 C4068 1.384 . S
C4070 C4071 1.372 . S
C4071 C4070 1.372 . S
C4071 C4072 1.400 . S
C4071 C4076 1.490 . S
C4072 H4062 0.930 . S
C4072 C4071 1.400 . S
C4072 C4075 1.386 . S
H4073 C4089 0.930 . S
H4074 C4090 0.931 . S
C4075 H4063 0.929 . S
C4075 C4069 1.390 . S
C4075 C4072 1.386 . S
C4076 C4071 1.490 . S
C4076 C4078 1.395 . S
C4076 C4079 1.403 . S
H4077 C4083 0.930 . S
C4078 H4064 0.930 . S
C4078 C4076 1.395 . S
C4078 C4081 1.403 . S
C4079 C4076 1.403 . S
C4079 C4080 1.524 . S
C4079 C4083 1.400 . S
C4080 H4065 0.960 . S
C4080 H4066 0.960 . S
C4080 H4067 0.960 . S
C4080 C4079 1.524 . S
C4081 C4078 1.403 . S
C4081 C4082 1.392 . S
C4081 C4085 1.495 . S
C4082 C4081 1.392 . S
C4082 C4083 1.385 . S
C4082 C4084 1.478 . S
C4083 H4077 0.930 . S
C4083 C4079 1.400 . S
C4083 C4082 1.385 . S
C4084 C4082 1.478 . S
C4084 C4086 1.381 . S
C4084 C4090 1.383 . S
C4085 C4081 1.495 . S
C4085 H4091 0.959 . S
C4085 H4092 0.961 . S
C4085 H4093 0.960 . S
C4086 C4084 1.381 . S
C4086 C4087 1.394 . S
C4086 H4094 0.930 . S
C4087 C4086 1.394 . S
C4087 C4088 1.383 . S
C4087 H4095 0.929 . S
C4088 C4087 1.383 . S
C4088 C4089 1.377 . S
C4089 H4073 0.930 . S
C4089 C4088 1.377 . S
C4089 C4090 1.379 . S
C4090 H4074 0.931 . S
C4090 C4084 1.383 . S
C4090 C4089 1.379 . S
H4091 C4085 0.959 . S
H4092 C4085 0.961 . S
H4093 C4085 0.960 . S
H4094 C4086 0.930 . S
H4095 C4087 0.929 . S
H4096 C4104 0.929 . S
H4097 C4106 0.930 . S
H4098 C4108 0.930 . S
H4099 C4111 0.929 . S
H4100 C4114 0.930 . S
H4101 C4116 0.960 . S
H4102 C4116 0.960 . S
H4103 C4116 0.960 . S
C4104 H4096 0.929 . S
C4104 C4105 1.377 . S
C4104 C4106 1.384 . S
C4105 C4104 1.377 . S
C4105 C4111 1.390 . S
C4106 H4097 0.930 . S
C4106 C4104 1.384 . S
C4106 C4107 1.372 . S
C4107 C4106 1.372 . S
C4107 C4108 1.400 . S
C4107 C4112 1.490 . S
C4108 H4098 0.930 . S
C4108 C4107 1.400 . S
C4108 C4111 1.386 . S
H4109 C4125 0.930 . S
H4110 C4126 0.931 . S
C4111 H4099 0.929 . S
C4111 C4105 1.390 . S
C4111 C4108 1.386 . S
C4112 C4107 1.490 . S
C4112 C4114 1.395 . S
C4112 C4115 1.403 . S
H4113 C4119 0.930 . S
C4114 H4100 0.930 . S
C4114 C4112 1.395 . S
C4114 C4117 1.403 . S
C4115 C4112 1.403 . S
C4115 C4116 1.524 . S
C4115 C4119 1.400 . S
C4116 H4101 0.960 . S
C4116 H4102 0.960 . S
C4116 H4103 0.960 . S
C4116 C4115 1.524 . S
C4117 C4114 1.403 . S
C4117 C4118 1.392 . S
C4117 C4121 1.495 . S
C4118 C4117 1.392 . S
C4118 C4119 1.385 . S
C4118 C4120 1.478 . S
C4119 H4113 0.930 . S
C4119 C4115 1.400 . S
C4119 C4118 1.385 . S
C4120 C4118 1.478 . S
C4120 C4122 1.381 . S
C4120 C4126 1.383 . S
C4121 C4117 1.495 . S
C4121 H4127 0.959 . S
C4121 H4128 0.961 . S
C4121 H4129 0.960 . S
C4122 C4120 1.381 . S
C4122 C4123 1.394 . S
C4122 H4130 0.930 . S
C4123 C4122 1.394 . S
C4123 C4124 1.383 . S
C4123 H4131 0.929 . S
C4124 C4123 1.383 . S
C4124 C4125 1.377 . S
C4125 H4109 0.930 . S
C4125 C4124 1.377 . S
C4125 C4126 1.379 . S
C4126 H4110 0.931 . S
C4126 C4120 1.383 . S
C4126 C4125 1.379 . S
H4127 C4121 0.959 . S
H4128 C4121 0.961 . S
H4129 C4121 0.960 . S
H4130 C4122 0.930 . S
H4131 C4123 0.929 . S
H4132 C4140 0.929 . S
H4133 C4142 0.930 . S
H4134 C4144 0.930 . S
H4135 C4147 0.929 . S
H4136 C4150 0.930 . S
H4137 C4152 0.960 . S
H4138 C4152 0.960 . S
H4139 C4152 0.960 . S
C4140 H4132 0.929 . S
C4140 C4141 1.377 . S
C4140 C4142 1.384 . S
C4141 C4140 1.377 . S
C4141 C4147 1.390 . S
C4142 H4133 0.930 . S
C4142 C4140 1.384 . S
C4142 C4143 1.372 . S
C4143 C4142 1.372 . S
C4143 C4144 1.400 . S
C4143 C4148 1.490 . S
C4144 H4134 0.930 . S
C4144 C4143 1.400 . S
C4144 C4147 1.386 . S
H4145 C4161 0.930 . S
H4146 C4162 0.931 . S
C4147 H4135 0.929 . S
C4147 C4141 1.390 . S
C4147 C4144 1.386 . S
C4148 C4143 1.490 . S
C4148 C4150 1.395 . S
C4148 C4151 1.403 . S
H4149 C4155 0.930 . S
C4150 H4136 0.930 . S
C4150 C4148 1.395 . S
C4150 C4153 1.403 . S
C4151 C4148 1.403 . S
C4151 C4152 1.524 . S
C4151 C4155 1.400 . S
C4152 H4137 0.960 . S
C4152 H4138 0.960 . S
C4152 H4139 0.960 . S
C4152 C4151 1.524 . S
C4153 C4150 1.403 . S
C4153 C4154 1.392 . S
C4153 C4157 1.495 . S
C4154 C4153 1.392 . S
C4154 C4155 1.385 . S
C4154 C4156 1.478 . S
C4155 H4149 0.930 . S
C4155 C4151 1.400 . S
C4155 C4154 1.385 . S
C4156 C4154 1.478 . S
C4156 C4158 1.381 . S
C4156 C4162 1.383 . S
C4157 C4153 1.495 . S
C4157 H4163 0.959 . S
C4157 H4164 0.961 . S
C4157 H4165 0.960 . S
C4158 C4156 1.381 . S
C4158 C4159 1.394 . S
C4158 H4166 0.930 . S
C4159 C4158 1.394 . S
C4159 C4160 1.383 . S
C4159 H4167 0.929 . S
C4160 C4159 1.383 . S
C4160 C4161 1.377 . S
C4161 H4145 0.930 . S
C4161 C4160 1.377 . S
C4161 C4162 1.379 . S
C4162 H4146 0.931 . S
C4162 C4156 1.383 . S
C4162 C4161 1.379 . S
H4163 C4157 0.959 . S
H4164 C4157 0.961 . S
H4165 C4157 0.960 . S
H4166 C4158 0.930 . S
H4167 C4159 0.929 . S
H4168 C4176 0.929 . S
H4169 C4178 0.930 . S
H4170 C4180 0.930 . S
H4171 C4183 0.929 . S
H4172 C4186 0.930 . S
H4173 C4188 0.960 . S
H4174 C4188 0.960 . S
H4175 C4188 0.960 . S
C4176 H4168 0.929 . S
C4176 C4177 1.377 . S
C4176 C4178 1.384 . S
C4177 C4176 1.377 . S
C4177 C4183 1.390 . S
C4178 H4169 0.930 . S
C4178 C4176 1.384 . S
C4178 C4179 1.372 . S
C4179 C4178 1.372 . S
C4179 C4180 1.400 . S
C4179 C4184 1.490 . S
C4180 H4170 0.930 . S
C4180 C4179 1.400 . S
C4180 C4183 1.386 . S
H4181 C4197 0.930 . S
H4182 C4198 0.931 . S
C4183 H4171 0.929 . S
C4183 C4177 1.390 . S
C4183 C4180 1.386 . S
C4184 C4179 1.490 . S
C4184 C4186 1.395 . S
C4184 C4187 1.403 . S
H4185 C4191 0.930 . S
C4186 H4172 0.930 . S
C4186 C4184 1.395 . S
C4186 C4189 1.403 . S
C4187 C4184 1.403 . S
C4187 C4188 1.524 . S
C4187 C4191 1.400 . S
C4188 H4173 0.960 . S
C4188 H4174 0.960 . S
C4188 H4175 0.960 . S
C4188 C4187 1.524 . S
C4189 C4186 1.403 . S
C4189 C4190 1.392 . S
C4189 C4193 1.495 . S
C4190 C4189 1.392 . S
C4190 C4191 1.385 . S
C4190 C4192 1.478 . S
C4191 H4185 0.930 . S
C4191 C4187 1.400 . S
C4191 C4190 1.385 . S
C4192 C4190 1.478 . S
C4192 C4194 1.381 . S
C4192 C4198 1.383 . S
C4193 C4189 1.495 . S
C4193 H4199 0.959 . S
C4193 H4200 0.961 . S
C4193 H4201 0.960 . S
C4194 C4192 1.381 . S
C4194 C4195 1.394 . S
C4194 H4202 0.930 . S
C4195 C4194 1.394 . S
C4195 C4196 1.383 . S
C4195 H4203 0.929 . S
C4196 C4195 1.383 . S
C4196 C4197 1.377 . S
C4197 H4181 0.930 . S
C4197 C4196 1.377 . S
C4197 C4198 1.379 . S
C4198 H4182 0.931 . S
C4198 C4192 1.383 . S
C4198 C4197 1.379 . S
H4199 C4193 0.959 . S
H4200 C4193 0.961 . S
H4201 C4193 0.960 . S
H4202 C4194 0.930 . S
H4203 C4195 0.929 . S
H4204 C4212 0.929 . S
H4205 C4214 0.930 . S
H4206 C4216 0.930 . S
H4207 C4219 0.929 . S
H4208 C4222 0.930 . S
H4209 C4224 0.960 . S
H4210 C4224 0.960 . S
H4211 C4224 0.960 . S
C4212 H4204 0.929 . S
C4212 C4213 1.377 . S
C4212 C4214 1.384 . S
C4213 C4212 1.377 . S
C4213 C4219 1.390 . S
C4214 H4205 0.930 . S
C4214 C4212 1.384 . S
C4214 C4215 1.372 . S
C4215 C4214 1.372 . S
C4215 C4216 1.400 . S
C4215 C4220 1.490 . S
C4216 H4206 0.930 . S
C4216 C4215 1.400 . S
C4216 C4219 1.386 . S
H4217 C4233 0.930 . S
H4218 C4234 0.931 . S
C4219 H4207 0.929 . S
C4219 C4213 1.390 . S
C4219 C4216 1.386 . S
C4220 C4215 1.490 . S
C4220 C4222 1.395 . S
C4220 C4223 1.403 . S
H4221 C4227 0.930 . S
C4222 H4208 0.930 . S
C4222 C4220 1.395 . S
C4222 C4225 1.403 . S
C4223 C4220 1.403 . S
C4223 C4224 1.524 . S
C4223 C4227 1.400 . S
C4224 H4209 0.960 . S
C4224 H4210 0.960 . S
C4224 H4211 0.960 . S
C4224 C4223 1.524 . S
C4225 C4222 1.403 . S
C4225 C4226 1.392 . S
C4225 C4229 1.495 . S
C4226 C4225 1.392 . S
C4226 C4227 1.385 . S
C4226 C4228 1.478 . S
C4227 H4221 0.930 . S
C4227 C4223 1.400 . S
C4227 C4226 1.385 . S
C4228 C4226 1.478 . S
C4228 C4230 1.381 . S
C4228 C4234 1.383 . S
C4229 C4225 1.495 . S
C4229 H4235 0.959 . S
C4229 H4236 0.961 . S
C4229 H4237 0.960 . S
C4230 C4228 1.381 . S
C4230 C4231 1.394 . S
C4230 H4238 0.930 . S
C4231 C4230 1.394 . S
C4231 C4232 1.383 . S
C4231 H4239 0.929 . S
C4232 C4231 1.383 . S
C4232 C4233 1.377 . S
C4233 H4217 0.930 . S
C4233 C4232 1.377 . S
C4233 C4234 1.379 . S
C4234 H4218 0.931 . S
C4234 C4228 1.383 . S
C4234 C4233 1.379 . S
H4235 C4229 0.959 . S
H4236 C4229 0.961 . S
H4237 C4229 0.960 . S
H4238 C4230 0.930 . S
H4239 C4231 0.929 . S
H4240 C4248 0.929 . S
H4241 C4250 0.930 . S
H4242 C4252 0.930 . S
H4243 C4255 0.929 . S
H4244 C4258 0.930 . S
H4245 C4260 0.960 . S
H4246 C4260 0.960 . S
H4247 C4260 0.960 . S
C4248 H4240 0.929 . S
C4248 C4249 1.377 . S
C4248 C4250 1.384 . S
C4249 C4248 1.377 . S
C4249 C4255 1.390 . S
C4250 H4241 0.930 . S
C4250 C4248 1.384 . S
C4250 C4251 1.372 . S
C4251 C4250 1.372 . S
C4251 C4252 1.400 . S
C4251 C4256 1.490 . S
C4252 H4242 0.930 . S
C4252 C4251 1.400 . S
C4252 C4255 1.386 . S
H4253 C4269 0.930 . S
H4254 C4270 0.931 . S
C4255 H4243 0.929 . S
C4255 C4249 1.390 . S
C4255 C4252 1.386 . S
C4256 C4251 1.490 . S
C4256 C4258 1.395 . S
C4256 C4259 1.403 . S
H4257 C4263 0.930 . S
C4258 H4244 0.930 . S
C4258 C4256 1.395 . S
C4258 C4261 1.403 . S
C4259 C4256 1.403 . S
C4259 C4260 1.524 . S
C4259 C4263 1.400 . S
C4260 H4245 0.960 . S
C4260 H4246 0.960 . S
C4260 H4247 0.960 . S
C4260 C4259 1.524 . S
C4261 C4258 1.403 . S
C4261 C4262 1.392 . S
C4261 C4265 1.495 . S
C4262 C4261 1.392 . S
C4262 C4263 1.385 . S
C4262 C4264 1.478 . S
C4263 H4257 0.930 . S
C4263 C4259 1.400 . S
C4263 C4262 1.385 . S
C4264 C4262 1.478 . S
C4264 C4266 1.381 . S
C4264 C4270 1.383 . S
C4265 C4261 1.495 . S
C4265 H4271 0.959 . S
C4265 H4272 0.961 . S
C4265 H4273 0.960 . S
C4266 C4264 1.381 . S
C4266 C4267 1.394 . S
C4266 H4274 0.930 . S
C4267 C4266 1.394 . S
C4267 C4268 1.383 . S
C4267 H4275 0.929 . S
C4268 C4267 1.383 . S
C4268 C4269 1.377 . S
C4269 H4253 0.930 . S
C4269 C4268 1.377 . S
C4269 C4270 1.379 . S
C4270 H4254 0.931 . S
C4270 C4264 1.383 . S
C4270 C4269 1.379 . S
H4271 C4265 0.959 . S
H4272 C4265 0.961 . S
H4273 C4265 0.960 . S
H4274 C4266 0.930 . S
H4275 C4267 0.929 . S
H4276 C4284 0.929 . S
H4277 C4286 0.930 . S
H4278 C4288 0.930 . S
H4279 C4291 0.929 . S
H4280 C4294 0.930 . S
H4281 C4296 0.960 . S
H4282 C4296 0.960 . S
H4283 C4296 0.960 . S
C4284 H4276 0.929 . S
C4284 C4285 1.377 . S
C4284 C4286 1.384 . S
C4285 C4284 1.377 . S
C4285 C4291 1.390 . S
C4286 H4277 0.930 . S
C4286 C4284 1.384 . S
C4286 C4287 1.372 . S
C4287 C4286 1.372 . S
C4287 C4288 1.400 . S
C4287 C4292 1.490 . S
C4288 H4278 0.930 . S
C4288 C4287 1.400 . S
C4288 C4291 1.386 . S
H4289 C4305 0.930 . S
H4290 C4306 0.931 . S
C4291 H4279 0.929 . S
C4291 C4285 1.390 . S
C4291 C4288 1.386 . S
C4292 C4287 1.490 . S
C4292 C4294 1.395 . S
C4292 C4295 1.403 . S
H4293 C4299 0.930 . S
C4294 H4280 0.930 . S
C4294 C4292 1.395 . S
C4294 C4297 1.403 . S
C4295 C4292 1.403 . S
C4295 C4296 1.524 . S
C4295 C4299 1.400 . S
C4296 H4281 0.960 . S
C4296 H4282 0.960 . S
C4296 H4283 0.960 . S
C4296 C4295 1.524 . S
C4297 C4294 1.403 . S
C4297 C4298 1.392 . S
C4297 C4301 1.495 . S
C4298 C4297 1.392 . S
C4298 C4299 1.385 . S
C4298 C4300 1.478 . S
C4299 H4293 0.930 . S
C4299 C4295 1.400 . S
C4299 C4298 1.385 . S
C4300 C4298 1.478 . S
C4300 C4302 1.381 . S
C4300 C4306 1.383 . S
C4301 C4297 1.495 . S
C4301 H4307 0.959 . S
C4301 H4308 0.961 . S
C4301 H4309 0.960 . S
C4302 C4300 1.381 . S
C4302 C4303 1.394 . S
C4302 H4310 0.930 . S
C4303 C4302 1.394 . S
C4303 C4304 1.383 . S
C4303 H4311 0.929 . S
C4304 C4303 1.383 . S
C4304 C4305 1.377 . S
C4305 H4289 0.930 . S
C4305 C4304 1.377 . S
C4305 C4306 1.379 . S
C4306 H4290 0.931 . S
C4306 C4300 1.383 . S
C4306 C4305 1.379 . S
H4307 C4301 0.959 . S
H4308 C4301 0.961 . S
H4309 C4301 0.960 . S
H4310 C4302 0.930 . S
H4311 C4303 0.929 . S
H4312 C4320 0.929 . S
H4313 C4322 0.930 . S
H4314 C4324 0.930 . S
H4315 C4327 0.929 . S
H4316 C4330 0.930 . S
H4317 C4332 0.960 . S
H4318 C4332 0.960 . S
H4319 C4332 0.960 . S
C4320 H4312 0.929 . S
C4320 C4321 1.377 . S
C4320 C4322 1.384 . S
C4321 C4320 1.377 . S
C4321 C4327 1.390 . S
C4322 H4313 0.930 . S
C4322 C4320 1.384 . S
C4322 C4323 1.372 . S
C4323 C4322 1.372 . S
C4323 C4324 1.400 . S
C4323 C4328 1.490 . S
C4324 H4314 0.930 . S
C4324 C4323 1.400 . S
C4324 C4327 1.386 . S
H4325 C4341 0.930 . S
H4326 C4342 0.931 . S
C4327 H4315 0.929 . S
C4327 C4321 1.390 . S
C4327 C4324 1.386 . S
C4328 C4323 1.490 . S
C4328 C4330 1.395 . S
C4328 C4331 1.403 . S
H4329 C4335 0.930 . S
C4330 H4316 0.930 . S
C4330 C4328 1.395 . S
C4330 C4333 1.403 . S
C4331 C4328 1.403 . S
C4331 C4332 1.524 . S
C4331 C4335 1.400 . S
C4332 H4317 0.960 . S
C4332 H4318 0.960 . S
C4332 H4319 0.960 . S
C4332 C4331 1.524 . S
C4333 C4330 1.403 . S
C4333 C4334 1.392 . S
C4333 C4337 1.496 . S
C4334 C4333 1.392 . S
C4334 C4335 1.385 . S
C4334 C4336 1.478 . S
C4335 H4329 0.930 . S
C4335 C4331 1.400 . S
C4335 C4334 1.385 . S
C4336 C4334 1.478 . S
C4336 C4338 1.381 . S
C4336 C4342 1.383 . S
C4337 C4333 1.496 . S
C4337 H4343 0.959 1_455 S
C4337 H4344 0.961 . S
C4337 H4345 0.959 1_455 S
C4338 C4336 1.381 . S
C4338 C4339 1.394 . S
C4338 H4346 0.930 . S
C4339 C4338 1.394 . S
C4339 C4340 1.383 . S
C4339 H4347 0.929 . S
C4340 C4339 1.383 . S
C4340 C4341 1.377 . S
C4341 H4325 0.930 . S
C4341 C4340 1.377 . S
C4341 C4342 1.379 . S
C4342 H4326 0.931 . S
C4342 C4336 1.383 . S
C4342 C4341 1.379 . S
H4343 C4337 0.959 1_655 S
H4344 C4337 0.961 . S
H4345 C4337 0.959 1_655 S
H4346 C4338 0.930 . S
H4347 C4339 0.929 . S
H4348 C4356 0.929 . S
H4349 C4358 0.930 . S
H4350 C4360 0.930 . S
H4351 C4363 0.929 . S
H4352 C4366 0.930 . S
H4353 C4368 0.960 . S
H4354 C4368 0.960 . S
H4355 C4368 0.960 . S
C4356 H4348 0.929 . S
C4356 C4357 1.377 . S
C4356 C4358 1.384 . S
C4357 C4356 1.377 . S
C4357 C4363 1.390 . S
C4358 H4349 0.930 . S
C4358 C4356 1.384 . S
C4358 C4359 1.372 . S
C4359 C4358 1.372 . S
C4359 C4360 1.400 . S
C4359 C4364 1.490 . S
C4360 H4350 0.930 . S
C4360 C4359 1.400 . S
C4360 C4363 1.386 . S
H4361 C4377 0.930 . S
H4362 C4378 0.931 . S
C4363 H4351 0.929 . S
C4363 C4357 1.390 . S
C4363 C4360 1.386 . S
C4364 C4359 1.490 . S
C4364 C4366 1.395 . S
C4364 C4367 1.403 . S
H4365 C4371 0.930 . S
C4366 H4352 0.930 . S
C4366 C4364 1.395 . S
C4366 C4369 1.403 . S
C4367 C4364 1.403 . S
C4367 C4368 1.524 . S
C4367 C4371 1.400 . S
C4368 H4353 0.960 . S
C4368 H4354 0.960 . S
C4368 H4355 0.960 . S
C4368 C4367 1.524 . S
C4369 C4366 1.403 . S
C4369 C4370 1.392 . S
C4369 C4373 1.495 . S
C4370 C4369 1.392 . S
C4370 C4371 1.385 . S
C4370 C4372 1.478 . S
C4371 H4365 0.930 . S
C4371 C4367 1.400 . S
C4371 C4370 1.385 . S
C4372 C4370 1.478 . S
C4372 C4374 1.381 . S
C4372 C4378 1.383 . S
C4373 C4369 1.495 . S
C4373 H4379 0.959 . S
C4373 H4380 0.961 . S
C4373 H4381 0.960 . S
C4374 C4372 1.381 . S
C4374 C4375 1.394 . S
C4374 H4382 0.930 . S
C4375 C4374 1.394 . S
C4375 C4376 1.383 . S
C4375 H4383 0.929 . S
C4376 C4375 1.383 . S
C4376 C4377 1.377 . S
C4377 H4361 0.930 . S
C4377 C4376 1.377 . S
C4377 C4378 1.379 . S
C4378 H4362 0.931 . S
C4378 C4372 1.383 . S
C4378 C4377 1.379 . S
H4379 C4373 0.959 . S
H4380 C4373 0.961 . S
H4381 C4373 0.960 . S
H4382 C4374 0.930 . S
H4383 C4375 0.929 . S
H4384 C4392 0.929 . S
H4385 C4394 0.930 . S
H4386 C4396 0.930 . S
H4387 C4399 0.929 . S
H4388 C4402 0.930 . S
H4389 C4404 0.960 . S
H4390 C4404 0.960 . S
H4391 C4404 0.960 . S
C4392 H4384 0.929 . S
C4392 C4393 1.377 . S
C4392 C4394 1.384 . S
C4393 C4392 1.377 . S
C4393 C4399 1.390 . S
C4394 H4385 0.930 . S
C4394 C4392 1.384 . S
C4394 C4395 1.372 . S
C4395 C4394 1.372 . S
C4395 C4396 1.400 . S
C4395 C4400 1.490 . S
C4396 H4386 0.930 . S
C4396 C4395 1.400 . S
C4396 C4399 1.386 . S
H4397 C4413 0.930 . S
H4398 C4414 0.931 . S
C4399 H4387 0.929 . S
C4399 C4393 1.390 . S
C4399 C4396 1.386 . S
C4400 C4395 1.490 . S
C4400 C4402 1.395 . S
C4400 C4403 1.403 . S
H4401 C4407 0.930 . S
C4402 H4388 0.930 . S
C4402 C4400 1.395 . S
C4402 C4405 1.403 . S
C4403 C4400 1.403 . S
C4403 C4404 1.524 . S
C4403 C4407 1.400 . S
C4404 H4389 0.960 . S
C4404 H4390 0.960 . S
C4404 H4391 0.960 . S
C4404 C4403 1.524 . S
C4405 C4402 1.403 . S
C4405 C4406 1.392 . S
C4405 C4409 1.495 . S
C4406 C4405 1.392 . S
C4406 C4407 1.385 . S
C4406 C4408 1.478 . S
C4407 H4401 0.930 . S
C4407 C4403 1.400 . S
C4407 C4406 1.385 . S
C4408 C4406 1.478 . S
C4408 C4410 1.381 . S
C4408 C4414 1.383 . S
C4409 C4405 1.495 . S
C4409 H4415 0.959 . S
C4409 H4416 0.961 . S
C4409 H4417 0.960 . S
C4410 C4408 1.381 . S
C4410 C4411 1.394 . S
C4410 H4418 0.930 . S
C4411 C4410 1.394 . S
C4411 C4412 1.383 . S
C4411 H4419 0.929 . S
C4412 C4411 1.383 . S
C4412 C4413 1.377 . S
C4413 H4397 0.930 . S
C4413 C4412 1.377 . S
C4413 C4414 1.379 . S
C4414 H4398 0.931 . S
C4414 C4408 1.383 . S
C4414 C4413 1.379 . S
H4415 C4409 0.959 . S
H4416 C4409 0.961 . S
H4417 C4409 0.960 . S
H4418 C4410 0.930 . S
H4419 C4411 0.929 . S
H4420 C4428 0.929 . S
H4421 C4430 0.930 . S
H4422 C4432 0.930 . S
H4423 C4435 0.929 . S
H4424 C4438 0.930 . S
H4425 C4440 0.960 . S
H4426 C4440 0.960 . S
H4427 C4440 0.960 . S
C4428 H4420 0.929 . S
C4428 C4429 1.377 . S
C4428 C4430 1.384 . S
C4429 C4428 1.377 . S
C4429 C4435 1.390 . S
C4430 H4421 0.930 . S
C4430 C4428 1.384 . S
C4430 C4431 1.372 . S
C4431 C4430 1.372 . S
C4431 C4432 1.400 . S
C4431 C4436 1.490 . S
C4432 H4422 0.930 . S
C4432 C4431 1.400 . S
C4432 C4435 1.386 . S
H4433 C4449 0.930 . S
H4434 C4450 0.931 . S
C4435 H4423 0.929 . S
C4435 C4429 1.390 . S
C4435 C4432 1.386 . S
C4436 C4431 1.490 . S
C4436 C4438 1.395 . S
C4436 C4439 1.403 . S
H4437 C4443 0.930 . S
C4438 H4424 0.930 . S
C4438 C4436 1.395 . S
C4438 C4441 1.403 . S
C4439 C4436 1.403 . S
C4439 C4440 1.524 . S
C4439 C4443 1.400 . S
C4440 H4425 0.960 . S
C4440 H4426 0.960 . S
C4440 H4427 0.960 . S
C4440 C4439 1.524 . S
C4441 C4438 1.403 . S
C4441 C4442 1.392 . S
C4441 C4445 1.495 . S
C4442 C4441 1.392 . S
C4442 C4443 1.385 . S
C4442 C4444 1.478 . S
C4443 H4437 0.930 . S
C4443 C4439 1.400 . S
C4443 C4442 1.385 . S
C4444 C4442 1.478 . S
C4444 C4446 1.381 . S
C4444 C4450 1.383 . S
C4445 C4441 1.495 . S
C4445 H4451 0.959 . S
C4445 H4452 0.961 . S
C4445 H4453 0.960 . S
C4446 C4444 1.381 . S
C4446 C4447 1.394 . S
C4446 H4454 0.930 . S
C4447 C4446 1.394 . S
C4447 C4448 1.383 . S
C4447 H4455 0.929 . S
C4448 C4447 1.383 . S
C4448 C4449 1.377 . S
C4449 H4433 0.930 . S
C4449 C4448 1.377 . S
C4449 C4450 1.379 . S
C4450 H4434 0.931 . S
C4450 C4444 1.383 . S
C4450 C4449 1.379 . S
H4451 C4445 0.959 . S
H4452 C4445 0.961 . S
H4453 C4445 0.960 . S
H4454 C4446 0.930 . S
H4455 C4447 0.929 . S
H4456 C4464 0.929 . S
H4457 C4466 0.930 . S
H4458 C4468 0.930 . S
H4459 C4471 0.929 . S
H4460 C4474 0.930 . S
H4461 C4476 0.960 . S
H4462 C4476 0.960 . S
H4463 C4476 0.960 . S
C4464 H4456 0.929 . S
C4464 C4465 1.377 . S
C4464 C4466 1.384 . S
C4465 C4464 1.377 . S
C4465 C4471 1.390 . S
C4466 H4457 0.930 . S
C4466 C4464 1.384 . S
C4466 C4467 1.372 . S
C4467 C4466 1.372 . S
C4467 C4468 1.400 . S
C4467 C4472 1.490 . S
C4468 H4458 0.930 . S
C4468 C4467 1.400 . S
C4468 C4471 1.386 . S
H4469 C4485 0.928 . S
H4470 C4486 0.931 . S
C4471 H4459 0.929 . S
C4471 C4465 1.390 . S
C4471 C4468 1.386 . S
C4472 C4467 1.490 . S
C4472 C4474 1.395 . S
C4472 C4475 1.403 . S
H4473 C4479 0.930 . S
C4474 H4460 0.930 . S
C4474 C4472 1.395 . S
C4474 C4477 1.403 . S
C4475 C4472 1.403 . S
C4475 C4476 1.524 . S
C4475 C4479 1.400 . S
C4476 H4461 0.960 . S
C4476 H4462 0.960 . S
C4476 H4463 0.960 . S
C4476 C4475 1.524 . S
C4477 C4474 1.403 . S
C4477 C4478 1.392 . S
C4477 C4481 1.495 . S
C4478 C4477 1.392 . S
C4478 C4479 1.385 . S
C4478 C4480 1.478 . S
C4479 H4473 0.930 . S
C4479 C4475 1.400 . S
C4479 C4478 1.385 . S
C4480 C4478 1.478 . S
C4480 C4482 1.381 . S
C4480 C4486 1.383 . S
C4481 C4477 1.495 . S
C4481 H4487 0.959 . S
C4481 H4488 0.961 . S
C4481 H4489 0.960 . S
C4482 C4480 1.381 . S
C4482 C4483 1.406 . S
C4482 H4490 0.930 . S
C4483 C4482 1.406 . S
C4483 C4484 1.374 1_655 S
C4483 H4491 0.927 1_655 S
C4484 C4483 1.374 1_455 S
C4484 C4485 1.377 1_455 S
C4485 H4469 0.928 . S
C4485 C4484 1.377 1_655 S
C4485 C4486 1.379 . S
C4486 H4470 0.931 . S
C4486 C4480 1.383 . S
C4486 C4485 1.379 . S
H4487 C4481 0.959 . S
H4488 C4481 0.961 . S
H4489 C4481 0.960 . S
H4490 C4482 0.930 . S
H4491 C4483 0.927 1_455 S
H4492 C4500 0.929 . S
H4493 C4502 0.930 . S
H4494 C4504 0.930 . S
H4495 C4507 0.929 . S
H4496 C4510 0.930 . S
H4497 C4512 0.960 . S
H4498 C4512 0.960 . S
H4499 C4512 0.960 . S
C4500 H4492 0.929 . S
C4500 C4501 1.377 . S
C4500 C4502 1.384 . S
C4501 C4500 1.377 . S
C4501 C4507 1.390 . S
C4502 H4493 0.930 . S
C4502 C4500 1.384 . S
C4502 C4503 1.372 . S
C4503 C4502 1.372 . S
C4503 C4504 1.400 . S
C4503 C4508 1.490 . S
C4504 H4494 0.930 . S
C4504 C4503 1.400 . S
C4504 C4507 1.386 . S
H4505 C4521 0.930 . S
H4506 C4522 0.931 . S
C4507 H4495 0.929 . S
C4507 C4501 1.390 . S
C4507 C4504 1.386 . S
C4508 C4503 1.490 . S
C4508 C4510 1.395 . S
C4508 C4511 1.403 . S
H4509 C4515 0.930 . S
C4510 H4496 0.930 . S
C4510 C4508 1.395 . S
C4510 C4513 1.403 . S
C4511 C4508 1.403 . S
C4511 C4512 1.524 . S
C4511 C4515 1.400 . S
C4512 H4497 0.960 . S
C4512 H4498 0.960 . S
C4512 H4499 0.960 . S
C4512 C4511 1.524 . S
C4513 C4510 1.403 . S
C4513 C4514 1.392 . S
C4513 C4517 1.495 . S
C4514 C4513 1.392 . S
C4514 C4515 1.385 . S
C4514 C4516 1.478 . S
C4515 H4509 0.930 . S
C4515 C4511 1.400 . S
C4515 C4514 1.385 . S
C4516 C4514 1.478 . S
C4516 C4518 1.381 . S
C4516 C4522 1.383 . S
C4517 C4513 1.495 . S
C4517 H4523 0.959 . S
C4517 H4524 0.961 . S
C4517 H4525 0.960 . S
C4518 C4516 1.381 . S
C4518 C4519 1.394 . S
C4518 H4526 0.930 . S
C4519 C4518 1.394 . S
C4519 C4520 1.383 . S
C4519 H4527 0.929 . S
C4520 C4519 1.383 . S
C4520 C4521 1.377 . S
C4521 H4505 0.930 . S
C4521 C4520 1.377 . S
C4521 C4522 1.379 . S
C4522 H4506 0.931 . S
C4522 C4516 1.383 . S
C4522 C4521 1.379 . S
H4523 C4517 0.959 . S
H4524 C4517 0.961 . S
H4525 C4517 0.960 . S
H4526 C4518 0.930 . S
H4527 C4519 0.929 . S
H4528 C4536 0.929 . S
H4529 C4538 0.930 . S
H4530 C4540 0.930 . S
H4531 C4543 0.929 . S
H4532 C4546 0.930 . S
H4533 C4548 0.960 . S
H4534 C4548 0.960 . S
H4535 C4548 0.960 . S
C4536 H4528 0.929 . S
C4536 C4537 1.377 . S
C4536 C4538 1.384 . S
C4537 C4536 1.377 . S
C4537 C4543 1.390 . S
C4538 H4529 0.930 . S
C4538 C4536 1.384 . S
C4538 C4539 1.372 . S
C4539 C4538 1.372 . S
C4539 C4540 1.400 . S
C4539 C4544 1.490 . S
C4540 H4530 0.930 . S
C4540 C4539 1.400 . S
C4540 C4543 1.386 . S
H4541 C4557 0.930 . S
H4542 C4558 0.931 . S
C4543 H4531 0.929 . S
C4543 C4537 1.390 . S
C4543 C4540 1.386 . S
C4544 C4539 1.490 . S
C4544 C4546 1.395 . S
C4544 C4547 1.403 . S
H4545 C4551 0.930 . S
C4546 H4532 0.930 . S
C4546 C4544 1.395 . S
C4546 C4549 1.403 . S
C4547 C4544 1.403 . S
C4547 C4548 1.524 . S
C4547 C4551 1.400 . S
C4548 H4533 0.960 . S
C4548 H4534 0.960 . S
C4548 H4535 0.960 . S
C4548 C4547 1.524 . S
C4549 C4546 1.403 . S
C4549 C4550 1.392 . S
C4549 C4553 1.495 . S
C4550 C4549 1.392 . S
C4550 C4551 1.385 . S
C4550 C4552 1.478 . S
C4551 H4545 0.930 . S
C4551 C4547 1.400 . S
C4551 C4550 1.385 . S
C4552 C4550 1.478 . S
C4552 C4554 1.381 . S
C4552 C4558 1.383 . S
C4553 C4549 1.495 . S
C4553 H4559 0.959 . S
C4553 H4560 0.961 . S
C4553 H4561 0.960 . S
C4554 C4552 1.381 . S
C4554 C4555 1.394 . S
C4554 H4562 0.930 . S
C4555 C4554 1.394 . S
C4555 C4556 1.383 . S
C4555 H4563 0.929 . S
C4556 C4555 1.383 . S
C4556 C4557 1.377 . S
C4557 H4541 0.930 . S
C4557 C4556 1.377 . S
C4557 C4558 1.379 . S
C4558 H4542 0.931 . S
C4558 C4552 1.383 . S
C4558 C4557 1.379 . S
H4559 C4553 0.959 . S
H4560 C4553 0.961 . S
H4561 C4553 0.960 . S
H4562 C4554 0.930 . S
H4563 C4555 0.929 . S
H4564 C4572 0.929 . S
H4565 C4574 0.930 . S
H4566 C4576 0.930 . S
H4567 C4579 0.929 . S
H4568 C4582 0.930 . S
H4569 C4584 0.960 . S
H4570 C4584 0.960 . S
H4571 C4584 0.960 . S
C4572 H4564 0.929 . S
C4572 C4573 1.377 . S
C4572 C4574 1.384 . S
C4573 C4572 1.377 . S
C4573 C4579 1.390 . S
C4574 H4565 0.930 . S
C4574 C4572 1.384 . S
C4574 C4575 1.372 . S
C4575 C4574 1.372 . S
C4575 C4576 1.400 . S
C4575 C4580 1.490 . S
C4576 H4566 0.930 . S
C4576 C4575 1.400 . S
C4576 C4579 1.386 . S
H4577 C4593 0.930 . S
H4578 C4594 0.931 . S
C4579 H4567 0.929 . S
C4579 C4573 1.390 . S
C4579 C4576 1.386 . S
C4580 C4575 1.490 . S
C4580 C4582 1.395 . S
C4580 C4583 1.403 . S
H4581 C4587 0.930 . S
C4582 H4568 0.930 . S
C4582 C4580 1.395 . S
C4582 C4585 1.403 . S
C4583 C4580 1.403 . S
C4583 C4584 1.524 . S
C4583 C4587 1.400 . S
C4584 H4569 0.960 . S
C4584 H4570 0.960 . S
C4584 H4571 0.960 . S
C4584 C4583 1.524 . S
C4585 C4582 1.403 . S
C4585 C4586 1.392 . S
C4585 C4589 1.495 . S
C4586 C4585 1.392 . S
C4586 C4587 1.385 . S
C4586 C4588 1.478 . S
C4587 H4581 0.930 . S
C4587 C4583 1.400 . S
C4587 C4586 1.385 . S
C4588 C4586 1.478 . S
C4588 C4590 1.381 . S
C4588 C4594 1.383 . S
C4589 C4585 1.495 . S
C4589 H4595 0.959 . S
C4589 H4596 0.961 . S
C4589 H4597 0.960 . S
C4590 C4588 1.381 . S
C4590 C4591 1.394 . S
C4590 H4598 0.930 . S
C4591 C4590 1.394 . S
C4591 C4592 1.383 . S
C4591 H4599 0.929 . S
C4592 C4591 1.383 . S
C4592 C4593 1.377 . S
C4593 H4577 0.930 . S
C4593 C4592 1.377 . S
C4593 C4594 1.379 . S
C4594 H4578 0.931 . S
C4594 C4588 1.383 . S
C4594 C4593 1.379 . S
H4595 C4589 0.959 . S
H4596 C4589 0.961 . S
H4597 C4589 0.960 . S
H4598 C4590 0.930 . S
H4599 C4591 0.929 . S
H4600 C4608 0.929 . S
H4601 C4610 0.930 . S
H4602 C4612 0.930 . S
H4603 C4615 0.929 . S
H4604 C4618 0.930 . S
H4605 C4620 0.960 . S
H4606 C4620 0.960 . S
H4607 C4620 0.960 . S
C4608 H4600 0.929 . S
C4608 C4609 1.377 . S
C4608 C4610 1.384 . S
C4609 C4608 1.377 . S
C4609 C4615 1.390 . S
C4610 H4601 0.930 . S
C4610 C4608 1.384 . S
C4610 C4611 1.372 . S
C4611 C4610 1.372 . S
C4611 C4612 1.400 . S
C4611 C4616 1.490 . S
C4612 H4602 0.930 . S
C4612 C4611 1.400 . S
C4612 C4615 1.386 . S
H4613 C4629 0.930 . S
H4614 C4630 0.931 . S
C4615 H4603 0.929 . S
C4615 C4609 1.390 . S
C4615 C4612 1.386 . S
C4616 C4611 1.490 . S
C4616 C4618 1.395 . S
C4616 C4619 1.403 . S
H4617 C4623 0.930 . S
C4618 H4604 0.930 . S
C4618 C4616 1.395 . S
C4618 C4621 1.403 . S
C4619 C4616 1.403 . S
C4619 C4620 1.524 . S
C4619 C4623 1.400 . S
C4620 H4605 0.960 . S
C4620 H4606 0.960 . S
C4620 H4607 0.960 . S
C4620 C4619 1.524 . S
C4621 C4618 1.403 . S
C4621 C4622 1.392 . S
C4621 C4625 1.495 . S
C4622 C4621 1.392 . S
C4622 C4623 1.385 . S
C4622 C4624 1.478 . S
C4623 H4617 0.930 . S
C4623 C4619 1.400 . S
C4623 C4622 1.385 . S
C4624 C4622 1.478 . S
C4624 C4626 1.381 . S
C4624 C4630 1.383 . S
C4625 C4621 1.495 . S
C4625 H4631 0.959 . S
C4625 H4632 0.961 . S
C4625 H4633 0.960 . S
C4626 C4624 1.381 . S
C4626 C4627 1.394 . S
C4626 H4634 0.930 . S
C4627 C4626 1.394 . S
C4627 C4628 1.383 . S
C4627 H4635 0.929 . S
C4628 C4627 1.383 . S
C4628 C4629 1.377 . S
C4629 H4613 0.930 . S
C4629 C4628 1.377 . S
C4629 C4630 1.379 . S
C4630 H4614 0.931 . S
C4630 C4624 1.383 . S
C4630 C4629 1.379 . S
H4631 C4625 0.959 . S
H4632 C4625 0.961 . S
H4633 C4625 0.960 . S
H4634 C4626 0.930 . S
H4635 C4627 0.929 . S
H4636 C4644 0.929 . S
H4637 C4646 0.930 . S
H4638 C4648 0.930 . S
H4639 C4651 0.929 . S
H4640 C4654 0.930 . S
H4641 C4656 0.960 . S
H4642 C4656 0.960 . S
H4643 C4656 0.960 . S
C4644 H4636 0.929 . S
C4644 C4645 1.377 . S
C4644 C4646 1.384 . S
C4645 C4644 1.377 . S
C4645 C4651 1.390 . S
C4646 H4637 0.930 . S
C4646 C4644 1.384 . S
C4646 C4647 1.372 . S
C4647 C4646 1.372 . S
C4647 C4648 1.400 . S
C4647 C4652 1.490 . S
C4648 H4638 0.930 . S
C4648 C4647 1.400 . S
C4648 C4651 1.386 . S
H4649 C4665 0.930 . S
H4650 C4666 0.931 . S
C4651 H4639 0.929 . S
C4651 C4645 1.390 . S
C4651 C4648 1.386 . S
C4652 C4647 1.490 . S
C4652 C4654 1.395 . S
C4652 C4655 1.403 . S
H4653 C4659 0.930 . S
C4654 H4640 0.930 . S
C4654 C4652 1.395 . S
C4654 C4657 1.403 . S
C4655 C4652 1.403 . S
C4655 C4656 1.524 . S
C4655 C4659 1.400 . S
C4656 H4641 0.960 . S
C4656 H4642 0.960 . S
C4656 H4643 0.960 . S
C4656 C4655 1.524 . S
C4657 C4654 1.403 . S
C4657 C4658 1.392 . S
C4657 C4661 1.495 . S
C4658 C4657 1.392 . S
C4658 C4659 1.385 . S
C4658 C4660 1.478 . S
C4659 H4653 0.930 . S
C4659 C4655 1.400 . S
C4659 C4658 1.385 . S
C4660 C4658 1.478 . S
C4660 C4662 1.381 . S
C4660 C4666 1.383 . S
C4661 C4657 1.495 . S
C4661 H4667 0.959 . S
C4661 H4668 0.961 . S
C4661 H4669 0.960 . S
C4662 C4660 1.381 . S
C4662 C4663 1.394 . S
C4662 H4670 0.930 . S
C4663 C4662 1.394 . S
C4663 C4664 1.383 . S
C4663 H4671 0.929 . S
C4664 C4663 1.383 . S
C4664 C4665 1.377 . S
C4665 H4649 0.930 . S
C4665 C4664 1.377 . S
C4665 C4666 1.379 . S
C4666 H4650 0.931 . S
C4666 C4660 1.383 . S
C4666 C4665 1.379 . S
H4667 C4661 0.959 . S
H4668 C4661 0.961 . S
H4669 C4661 0.960 . S
H4670 C4662 0.930 . S
H4671 C4663 0.929 . S
H4672 C4680 0.929 . S
H4673 C4682 0.930 . S
H4674 C4684 0.930 . S
H4675 C4687 0.929 . S
H4676 C4690 0.930 . S
H4677 C4692 0.960 . S
H4678 C4692 0.960 . S
H4679 C4692 0.960 . S
C4680 H4672 0.929 . S
C4680 C4681 1.377 . S
C4680 C4682 1.384 . S
C4681 C4680 1.377 . S
C4681 C4687 1.390 . S
C4682 H4673 0.930 . S
C4682 C4680 1.384 . S
C4682 C4683 1.372 . S
C4683 C4682 1.372 . S
C4683 C4684 1.400 . S
C4683 C4688 1.490 . S
C4684 H4674 0.930 . S
C4684 C4683 1.400 . S
C4684 C4687 1.386 . S
H4685 C4701 0.930 . S
H4686 C4702 0.931 . S
C4687 H4675 0.929 . S
C4687 C4681 1.390 . S
C4687 C4684 1.386 . S
C4688 C4683 1.490 . S
C4688 C4690 1.395 . S
C4688 C4691 1.403 . S
H4689 C4695 0.930 . S
C4690 H4676 0.930 . S
C4690 C4688 1.395 . S
C4690 C4693 1.403 . S
C4691 C4688 1.403 . S
C4691 C4692 1.524 . S
C4691 C4695 1.400 . S
C4692 H4677 0.960 . S
C4692 H4678 0.960 . S
C4692 H4679 0.960 . S
C4692 C4691 1.524 . S
C4693 C4690 1.403 . S
C4693 C4694 1.392 . S
C4693 C4697 1.495 . S
C4694 C4693 1.392 . S
C4694 C4695 1.385 . S
C4694 C4696 1.478 . S
C4695 H4689 0.930 . S
C4695 C4691 1.400 . S
C4695 C4694 1.385 . S
C4696 C4694 1.478 . S
C4696 C4698 1.381 . S
C4696 C4702 1.383 . S
C4697 C4693 1.495 . S
C4697 H4703 0.959 . S
C4697 H4704 0.961 . S
C4697 H4705 0.960 . S
C4698 C4696 1.381 . S
C4698 C4699 1.394 . S
C4698 H4706 0.930 . S
C4699 C4698 1.394 . S
C4699 C4700 1.383 . S
C4699 H4707 0.929 . S
C4700 C4699 1.383 . S
C4700 C4701 1.377 . S
C4701 H4685 0.930 . S
C4701 C4700 1.377 . S
C4701 C4702 1.379 . S
C4702 H4686 0.931 . S
C4702 C4696 1.383 . S
C4702 C4701 1.379 . S
H4703 C4697 0.959 . S
H4704 C4697 0.961 . S
H4705 C4697 0.960 . S
H4706 C4698 0.930 . S
H4707 C4699 0.929 . S
H4708 C4716 0.929 . S
H4709 C4718 0.930 . S
H4710 C4720 0.930 . S
H4711 C4723 0.929 . S
H4712 C4726 0.930 . S
H4713 C4728 0.960 . S
H4714 C4728 0.960 . S
H4715 C4728 0.960 . S
C4716 H4708 0.929 . S
C4716 C4717 1.377 . S
C4716 C4718 1.384 . S
C4717 C4716 1.377 . S
C4717 C4723 1.390 . S
C4718 H4709 0.930 . S
C4718 C4716 1.384 . S
C4718 C4719 1.372 . S
C4719 C4718 1.372 . S
C4719 C4720 1.400 . S
C4719 C4724 1.490 . S
C4720 H4710 0.930 . S
C4720 C4719 1.400 . S
C4720 C4723 1.386 . S
H4721 C4737 0.930 . S
H4722 C4738 0.931 . S
C4723 H4711 0.929 . S
C4723 C4717 1.390 . S
C4723 C4720 1.386 . S
C4724 C4719 1.490 . S
C4724 C4726 1.395 . S
C4724 C4727 1.403 . S
H4725 C4731 0.930 . S
C4726 H4712 0.930 . S
C4726 C4724 1.395 . S
C4726 C4729 1.403 . S
C4727 C4724 1.403 . S
C4727 C4728 1.524 . S
C4727 C4731 1.400 . S
C4728 H4713 0.960 . S
C4728 H4714 0.960 . S
C4728 H4715 0.960 . S
C4728 C4727 1.524 . S
C4729 C4726 1.403 . S
C4729 C4730 1.392 . S
C4729 C4733 1.495 . S
C4730 C4729 1.392 . S
C4730 C4731 1.385 . S
C4730 C4732 1.478 . S
C4731 H4725 0.930 . S
C4731 C4727 1.400 . S
C4731 C4730 1.385 . S
C4732 C4730 1.478 . S
C4732 C4734 1.381 . S
C4732 C4738 1.383 . S
C4733 C4729 1.495 . S
C4733 H4739 0.959 . S
C4733 H4740 0.961 . S
C4733 H4741 0.960 . S
C4734 C4732 1.381 . S
C4734 C4735 1.394 1_565 S
C4734 H4742 0.930 1_565 S
C4735 C4734 1.394 1_545 S
C4735 C4736 1.383 . S
C4735 H4743 0.929 . S
C4736 C4735 1.383 . S
C4736 C4737 1.377 1_545 S
C4737 H4721 0.930 . S
C4737 C4736 1.377 1_565 S
C4737 C4738 1.379 . S
C4738 H4722 0.931 . S
C4738 C4732 1.383 . S
C4738 C4737 1.379 . S
H4739 C4733 0.959 . S
H4740 C4733 0.961 . S
H4741 C4733 0.960 . S
H4742 C4734 0.930 1_545 S
H4743 C4735 0.929 . S
H4744 C4752 0.929 . S
H4745 C4754 0.930 . S
H4746 C4756 0.930 . S
H4747 C4759 0.929 . S
H4748 C4762 0.930 . S
H4749 C4764 0.960 . S
H4750 C4764 0.960 . S
H4751 C4764 0.960 . S
C4752 H4744 0.929 . S
C4752 C4753 1.377 . S
C4752 C4754 1.384 . S
C4753 C4752 1.377 . S
C4753 C4759 1.390 . S
C4754 H4745 0.930 . S
C4754 C4752 1.384 . S
C4754 C4755 1.372 . S
C4755 C4754 1.372 . S
C4755 C4756 1.400 . S
C4755 C4760 1.490 . S
C4756 H4746 0.930 . S
C4756 C4755 1.400 . S
C4756 C4759 1.386 . S
H4757 C4773 0.930 . S
H4758 C4774 0.931 . S
C4759 H4747 0.929 . S
C4759 C4753 1.390 . S
C4759 C4756 1.386 . S
C4760 C4755 1.490 . S
C4760 C4762 1.395 . S
C4760 C4763 1.403 . S
H4761 C4767 0.930 . S
C4762 H4748 0.930 . S
C4762 C4760 1.395 . S
C4762 C4765 1.403 . S
C4763 C4760 1.403 . S
C4763 C4764 1.524 . S
C4763 C4767 1.400 . S
C4764 H4749 0.960 . S
C4764 H4750 0.960 . S
C4764 H4751 0.960 . S
C4764 C4763 1.524 . S
C4765 C4762 1.403 . S
C4765 C4766 1.392 . S
C4765 C4769 1.495 . S
C4766 C4765 1.392 . S
C4766 C4767 1.385 . S
C4766 C4768 1.478 . S
C4767 H4761 0.930 . S
C4767 C4763 1.400 . S
C4767 C4766 1.385 . S
C4768 C4766 1.478 . S
C4768 C4770 1.381 . S
C4768 C4774 1.383 . S
C4769 C4765 1.495 . S
C4769 H4775 0.959 . S
C4769 H4776 0.961 . S
C4769 H4777 0.960 . S
C4770 C4768 1.381 . S
C4770 C4771 1.394 . S
C4770 H4778 0.930 . S
C4771 C4770 1.394 . S
C4771 C4772 1.383 . S
C4771 H4779 0.929 . S
C4772 C4771 1.383 . S
C4772 C4773 1.377 . S
C4773 H4757 0.930 . S
C4773 C4772 1.377 . S
C4773 C4774 1.379 . S
C4774 H4758 0.931 . S
C4774 C4768 1.383 . S
C4774 C4773 1.379 . S
H4775 C4769 0.959 . S
H4776 C4769 0.961 . S
H4777 C4769 0.960 . S
H4778 C4770 0.930 . S
H4779 C4771 0.929 . S
H4780 C4788 0.929 . S
H4781 C4790 0.930 . S
H4782 C4792 0.930 . S
H4783 C4795 0.929 . S
H4784 C4798 0.930 . S
H4785 C4800 0.960 . S
H4786 C4800 0.960 . S
H4787 C4800 0.960 . S
C4788 H4780 0.929 . S
C4788 C4789 1.377 . S
C4788 C4790 1.384 . S
C4789 C4788 1.377 . S
C4789 C4795 1.390 . S
C4790 H4781 0.930 . S
C4790 C4788 1.384 . S
C4790 C4791 1.372 . S
C4791 C4790 1.372 . S
C4791 C4792 1.400 . S
C4791 C4796 1.490 . S
C4792 H4782 0.930 . S
C4792 C4791 1.400 . S
C4792 C4795 1.386 . S
H4793 C4809 0.930 . S
H4794 C4810 0.931 . S
C4795 H4783 0.929 . S
C4795 C4789 1.390 . S
C4795 C4792 1.386 . S
C4796 C4791 1.490 . S
C4796 C4798 1.395 . S
C4796 C4799 1.403 . S
H4797 C4803 0.930 . S
C4798 H4784 0.930 . S
C4798 C4796 1.395 . S
C4798 C4801 1.403 . S
C4799 C4796 1.403 . S
C4799 C4800 1.524 . S
C4799 C4803 1.400 . S
C4800 H4785 0.960 . S
C4800 H4786 0.960 . S
C4800 H4787 0.960 . S
C4800 C4799 1.524 . S
C4801 C4798 1.403 . S
C4801 C4802 1.392 . S
C4801 C4805 1.495 . S
C4802 C4801 1.392 . S
C4802 C4803 1.385 . S
C4802 C4804 1.478 . S
C4803 H4797 0.930 . S
C4803 C4799 1.400 . S
C4803 C4802 1.385 . S
C4804 C4802 1.478 . S
C4804 C4806 1.381 . S
C4804 C4810 1.383 . S
C4805 C4801 1.495 . S
C4805 H4811 0.959 . S
C4805 H4812 0.961 . S
C4805 H4813 0.960 . S
C4806 C4804 1.381 . S
C4806 C4807 1.394 . S
C4806 H4814 0.930 . S
C4807 C4806 1.394 . S
C4807 C4808 1.383 . S
C4807 H4815 0.929 . S
C4808 C4807 1.383 . S
C4808 C4809 1.377 . S
C4809 H4793 0.930 . S
C4809 C4808 1.377 . S
C4809 C4810 1.379 . S
C4810 H4794 0.931 . S
C4810 C4804 1.383 . S
C4810 C4809 1.379 . S
H4811 C4805 0.959 . S
H4812 C4805 0.961 . S
H4813 C4805 0.960 . S
H4814 C4806 0.930 . S
H4815 C4807 0.929 . S
H4816 C4824 0.929 . S
H4817 C4826 0.930 . S
H4818 C4828 0.930 . S
H4819 C4831 0.929 . S
H4820 C4834 0.930 . S
H4821 C4836 0.960 . S
H4822 C4836 0.960 . S
H4823 C4836 0.960 . S
C4824 H4816 0.929 . S
C4824 C4825 1.377 . S
C4824 C4826 1.384 . S
C4825 C4824 1.377 . S
C4825 C4831 1.390 . S
C4826 H4817 0.930 . S
C4826 C4824 1.384 . S
C4826 C4827 1.372 . S
C4827 C4826 1.372 . S
C4827 C4828 1.400 . S
C4827 C4832 1.490 . S
C4828 H4818 0.930 . S
C4828 C4827 1.400 . S
C4828 C4831 1.386 . S
H4829 C4845 0.930 . S
H4830 C4846 0.931 . S
C4831 H4819 0.929 . S
C4831 C4825 1.390 . S
C4831 C4828 1.386 . S
C4832 C4827 1.490 . S
C4832 C4834 1.395 . S
C4832 C4835 1.403 . S
H4833 C4839 0.930 . S
C4834 H4820 0.930 . S
C4834 C4832 1.395 . S
C4834 C4837 1.403 . S
C4835 C4832 1.403 . S
C4835 C4836 1.524 . S
C4835 C4839 1.400 . S
C4836 H4821 0.960 . S
C4836 H4822 0.960 . S
C4836 H4823 0.960 . S
C4836 C4835 1.524 . S
C4837 C4834 1.403 . S
C4837 C4838 1.392 . S
C4837 C4841 1.495 . S
C4838 C4837 1.392 . S
C4838 C4839 1.385 . S
C4838 C4840 1.478 . S
C4839 H4833 0.930 . S
C4839 C4835 1.400 . S
C4839 C4838 1.385 . S
C4840 C4838 1.478 . S
C4840 C4842 1.381 . S
C4840 C4846 1.383 . S
C4841 C4837 1.495 . S
C4841 H4847 0.959 . S
C4841 H4848 0.961 . S
C4841 H4849 0.960 . S
C4842 C4840 1.381 . S
C4842 C4843 1.394 . S
C4842 H4850 0.930 . S
C4843 C4842 1.394 . S
C4843 C4844 1.383 . S
C4843 H4851 0.929 . S
C4844 C4843 1.383 . S
C4844 C4845 1.377 . S
C4845 H4829 0.930 . S
C4845 C4844 1.377 . S
C4845 C4846 1.379 . S
C4846 H4830 0.931 . S
C4846 C4840 1.383 . S
C4846 C4845 1.379 . S
H4847 C4841 0.959 . S
H4848 C4841 0.961 . S
H4849 C4841 0.960 . S
H4850 C4842 0.930 . S
H4851 C4843 0.929 . S
H4852 C4860 0.929 . S
H4853 C4862 0.930 . S
H4854 C4864 0.930 . S
H4855 C4867 0.929 . S
H4856 C4870 0.930 . S
H4857 C4872 0.960 . S
H4858 C4872 0.960 . S
H4859 C4872 0.960 . S
C4860 H4852 0.929 . S
C4860 C4861 1.377 . S
C4860 C4862 1.384 . S
C4861 C4860 1.377 . S
C4861 C4867 1.390 . S
C4862 H4853 0.930 . S
C4862 C4860 1.384 . S
C4862 C4863 1.372 . S
C4863 C4862 1.372 . S
C4863 C4864 1.400 . S
C4863 C4868 1.490 . S
C4864 H4854 0.930 . S
C4864 C4863 1.400 . S
C4864 C4867 1.386 . S
H4865 C4881 0.915 1_556 S
H4866 C4882 0.931 . S
C4867 H4855 0.929 . S
C4867 C4861 1.390 . S
C4867 C4864 1.386 . S
C4868 C4863 1.490 . S
C4868 C4870 1.395 . S
C4868 C4871 1.403 1_554 S
H4869 C4875 0.930 . S
C4870 H4856 0.930 . S
C4870 C4868 1.395 . S
C4870 C4873 1.403 . S
C4871 C4868 1.403 1_556 S
C4871 C4872 1.524 . S
C4871 C4875 1.400 . S
C4872 H4857 0.960 . S
C4872 H4858 0.960 . S
C4872 H4859 0.960 . S
C4872 C4871 1.524 . S
C4873 C4870 1.403 . S
C4873 C4874 1.392 . S
C4873 C4877 1.495 . S
C4874 C4873 1.392 . S
C4874 C4875 1.385 1_554 S
C4874 C4876 1.478 . S
C4875 H4869 0.930 . S
C4875 C4871 1.400 . S
C4875 C4874 1.385 1_556 S
C4876 C4874 1.478 . S
C4876 C4878 1.381 . S
C4876 C4882 1.383 . S
C4877 C4873 1.495 . S
C4877 H4883 0.959 . S
C4877 H4884 0.961 . S
C4877 H4885 0.960 . S
C4878 C4876 1.381 . S
C4878 C4879 1.394 . S
C4878 H4886 0.930 . S
C4879 C4878 1.394 . S
C4879 C4880 1.397 . S
C4879 H4887 0.929 . S
C4880 C4879 1.397 . S
C4880 C4881 1.374 . S
C4881 H4865 0.915 1_554 S
C4881 C4880 1.374 . S
C4881 C4882 1.379 . S
C4882 H4866 0.931 . S
C4882 C4876 1.383 . S
C4882 C4881 1.379 . S
H4883 C4877 0.959 . S
H4884 C4877 0.961 . S
H4885 C4877 0.960 . S
H4886 C4878 0.930 . S
H4887 C4879 0.929 . S
H4888 C4896 0.929 . S
H4889 C4898 0.930 . S
H4890 C4900 0.930 . S
H4891 C4903 0.929 . S
H4892 C4906 0.930 . S
H4893 C4908 0.960 . S
H4894 C4908 0.960 . S
H4895 C4908 0.960 . S
C4896 H4888 0.929 . S
C4896 C4897 1.377 . S
C4896 C4898 1.384 . S
C4897 C4896 1.377 . S
C4897 C4903 1.390 . S
C4898 H4889 0.930 . S
C4898 C4896 1.384 . S
C4898 C4899 1.372 . S
C4899 C4898 1.372 . S
C4899 C4900 1.400 . S
C4899 C4904 1.490 . S
C4900 H4890 0.930 . S
C4900 C4899 1.400 . S
C4900 C4903 1.386 . S
H4901 C4917 0.930 . S
H4902 C4918 0.931 . S
C4903 H4891 0.929 . S
C4903 C4897 1.390 . S
C4903 C4900 1.386 . S
C4904 C4899 1.490 . S
C4904 C4906 1.395 . S
C4904 C4907 1.403 . S
H4905 C4911 0.930 . S
C4906 H4892 0.930 . S
C4906 C4904 1.395 . S
C4906 C4909 1.403 . S
C4907 C4904 1.403 . S
C4907 C4908 1.524 . S
C4907 C4911 1.400 . S
C4908 H4893 0.960 . S
C4908 H4894 0.960 . S
C4908 H4895 0.960 . S
C4908 C4907 1.524 . S
C4909 C4906 1.403 . S
C4909 C4910 1.392 . S
C4909 C4913 1.495 . S
C4910 C4909 1.392 . S
C4910 C4911 1.385 . S
C4910 C4912 1.478 . S
C4911 H4905 0.930 . S
C4911 C4907 1.400 . S
C4911 C4910 1.385 . S
C4912 C4910 1.478 . S
C4912 C4914 1.381 . S
C4912 C4918 1.383 . S
C4913 C4909 1.495 . S
C4913 H4919 0.959 . S
C4913 H4920 0.961 . S
C4913 H4921 0.960 . S
C4914 C4912 1.381 . S
C4914 C4915 1.394 . S
C4914 H4922 0.930 . S
C4915 C4914 1.394 . S
C4915 C4916 1.383 . S
C4915 H4923 0.929 . S
C4916 C4915 1.383 . S
C4916 C4917 1.377 . S
C4917 H4901 0.930 . S
C4917 C4916 1.377 . S
C4917 C4918 1.379 . S
C4918 H4902 0.931 . S
C4918 C4912 1.383 . S
C4918 C4917 1.379 . S
H4919 C4913 0.959 . S
H4920 C4913 0.961 . S
H4921 C4913 0.960 . S
H4922 C4914 0.930 . S
H4923 C4915 0.929 . S
H4924 C4932 0.929 . S
H4925 C4934 0.930 . S
H4926 C4936 0.930 . S
H4927 C4939 0.929 . S
H4928 C4942 0.930 . S
H4929 C4944 0.960 . S
H4930 C4944 0.960 . S
H4931 C4944 0.960 . S
C4932 H4924 0.929 . S
C4932 C4933 1.377 . S
C4932 C4934 1.384 . S
C4933 C4932 1.377 . S
C4933 C4939 1.390 . S
C4934 H4925 0.930 . S
C4934 C4932 1.384 . S
C4934 C4935 1.372 . S
C4935 C4934 1.372 . S
C4935 C4936 1.400 . S
C4935 C4940 1.490 . S
C4936 H4926 0.930 . S
C4936 C4935 1.400 . S
C4936 C4939 1.386 . S
H4937 C4953 0.930 . S
H4938 C4954 0.931 . S
C4939 H4927 0.929 . S
C4939 C4933 1.390 . S
C4939 C4936 1.386 . S
C4940 C4935 1.490 . S
C4940 C4942 1.395 . S
C4940 C4943 1.403 . S
H4941 C4947 0.930 . S
C4942 H4928 0.930 . S
C4942 C4940 1.395 . S
C4942 C4945 1.403 . S
C4943 C4940 1.403 . S
C4943 C4944 1.524 . S
C4943 C4947 1.400 . S
C4944 H4929 0.960 . S
C4944 H4930 0.960 . S
C4944 H4931 0.960 . S
C4944 C4943 1.524 . S
C4945 C4942 1.403 . S
C4945 C4946 1.392 . S
C4945 C4949 1.495 . S
C4946 C4945 1.392 . S
C4946 C4947 1.385 . S
C4946 C4948 1.478 . S
C4947 H4941 0.930 . S
C4947 C4943 1.400 . S
C4947 C4946 1.385 . S
C4948 C4946 1.478 . S
C4948 C4950 1.381 . S
C4948 C4954 1.383 . S
C4949 C4945 1.495 . S
C4949 H4955 0.959 . S
C4949 H4956 0.961 . S
C4949 H4957 0.960 . S
C4950 C4948 1.381 . S
C4950 C4951 1.394 . S
C4950 H4958 0.930 . S
C4951 C4950 1.394 . S
C4951 C4952 1.383 . S
C4951 H4959 0.929 . S
C4952 C4951 1.383 . S
C4952 C4953 1.377 . S
C4953 H4937 0.930 . S
C4953 C4952 1.377 . S
C4953 C4954 1.379 . S
C4954 H4938 0.931 . S
C4954 C4948 1.383 . S
C4954 C4953 1.379 . S
H4955 C4949 0.959 . S
H4956 C4949 0.961 . S
H4957 C4949 0.960 . S
H4958 C4950 0.930 . S
H4959 C4951 0.929 . S
C1513 C255 1.954 . S
C1532 C877 1.922 . S
C1549 C147 2.028 . S
C1568 C928 2.033 . S
C1585 C184 1.364 . S
C1604 C957 1.414 . S
C1640 C1001 1.463 . S
C1621 C220 1.516 . S
C1657 C40 1.331 . S
C1676 C1041 1.289 . S
C1712 C1077 1.513 . S
C1693 C74 1.487 . S
C1748 C1127 1.748 . S
C1729 C110 1.764 . S
C1765 C14 2.098 . S
C1784 C1157 2.077 . S
C1820 C887 1.822 . S
C1801 C579 1.863 . S
C1837 C616 0.396 . S
C1856 C930 0.384 . S
C1892 C967 1.227 . S
C1873 C687 1.219 . S
C1928 C997 1.354 . S
C1909 C436 1.368 . S
C1945 C580 1.390 . S
C1964 C1037 1.394 . S
C2000 C1087 0.879 . S
C1981 C615 0.867 . S
C2036 C1121 0.721 . S
C2017 C688 0.721 . S
C2072 C1167 1.800 . S
C2053 C435 1.845 . S
C2108 C881 0.909 . S
C2089 C410 0.952 . S
C2125 C722 1.739 . S
C2144 C1207 1.723 . S
C2180 C1241 1.429 . S
C2161 C842 1.422 . S
C2216 C1277 0.919 . S
C2197 C794 0.924 . S
C2233 C302 1.313 . S
C2252 C1161 1.284 . S
C2269 C338 1.439 . S
C2288 C961 1.429 . S
C2305 C830 1.685 . S
C2324 C1327 1.682 . S
C2360 C1346 0.292 . S
C2341 C758 0.268 . S
C2396 C888 1.868 . S
C2377 C158 1.810 . S
C2432 C1357 1.974 . S
C2413 C254 2.006 . S
C2449 C218 1.335 . S
C2468 C968 1.364 . S
C2485 C194 1.412 . S
C2504 C1330 1.460 . S
C2540 C1050 1.277 . S
C2521 C3 1.322 . S
C2557 C111 1.340 . S
C2576 C1248 1.326 . S
C2612 C1106 1.701 1_566 S
C2593 C76 1.701 . S
C2648 C1408 2.145 . S
C2629 C50 2.066 . S
C2684 C866 1.767 . S
C2665 C364 1.799 . S
C2720 C1361 0.508 . S
C2701 C795 0.388 . S
C2737 C292 1.156 . S
C2756 C946 1.131 . S
C2773 C723 1.295 . S
C2792 C1328 1.287 . S
C2809 C363 1.365 . S
C2828 C1048 1.328 . S
C2864 C1226 0.817 . S
C2845 C796 0.839 . S
C2881 C291 0.677 . S
C2900 C1130 0.630 . S
C2917 C724 1.816 . S
C2936 C1386 1.807 . S
C2953 C482 0.935 . S
C2972 C890 0.927 . S
C2989 C434 1.691 . S
C3008 C1186 1.685 . S
C3025 C662 1.353 . S
C3044 C1090 1.418 . S
C3061 C614 0.921 . S
C3080 C1288 0.910 . S
C3116 C1410 1.302 . S
C3097 C698 1.239 . S
C3133 C554 1.406 . S
C3152 C970 1.474 . S
C3188 C986 1.591 . S
C3169 C650 1.612 . S
C3224 C927 0.196 . S
C3205 C506 0.208 . S
C3241 C183 1.952 . S
C3260 C1437 1.952 . S
C3296 C1368 2.015 . S
C3277 C219 2.025 . S
C3313 C256 1.359 . S
C3332 C1477 1.345 . S
C3349 C148 1.511 1_655 S
C3368 C1321 1.478 . S
C3385 C122 1.336 . S
C3404 C1201 1.326 . S
C3440 C1237 1.432 . S
C3421 C2 1.411 . S
C3476 C1287 1.658 . S
C3457 C39 1.638 . S
C3512 C1397 2.145 . S
C3493 C86 2.174 . S
C3548 C1447 1.833 . S
C3529 C651 1.874 . S
C3565 C472 0.391 . S
C3584 C1370 0.404 . S
C3620 C1487 1.174 . S
C3601 C507 1.200 . S
C3656 C1317 1.382 . S
C3637 C544 1.369 . S
C3692 C1197 1.404 . S
C3673 C652 1.383 . S
C3709 C471 0.850 . S
C3728 C1247 0.819 . S
C3764 C1281 0.734 . S
C3745 C508 0.693 . S
C3781 C543 1.867 . S
C3800 C1407 1.828 . S
C3836 C1441 0.979 . S
C3817 C806 0.981 . S
C3853 C326 1.714 . S
C3872 C1047 1.700 . S
C3908 C1081 1.414 . S
C3889 C374 1.399 1_565 S
C3944 C1117 0.912 . S
C3925 C398 0.944 . S
C3980 C1401 1.282 . S
C3961 C770 1.309 . S
C3997 C734 1.437 . S
C4016 C1481 1.446 . S
C4052 C1007 1.642 . S
C4033 C362 1.671 . S
C4088 C906 0.260 . S
C4069 C290 0.270 . S
C4105 C230 1.818 . S
C4124 C1448 1.890 . S
C4160 C917 1.992 . S
C4141 C182 2.005 . S
C4177 C146 1.334 . S
C4196 C1488 1.364 . S
C4213 C266 1.415 . S
C4232 C1010 1.456 . S
C4249 C75 1.363 . S
C4268 C1210 1.313 . S
C4304 C1088 1.482 . S
C4285 C38 1.462 . S
C4321 C4 1.625 . S
C4340 C1266 1.616 . S
C4357 C112 2.073 . S
C4376 C1168 2.031 . S
C4412 C1426 1.767 . S
C4393 C832 1.802 . S
C4429 C399 0.407 . S
C4448 C921 0.439 . S
C4484 C1466 1.153 . S
C4465 C760 1.153 . S
C4501 C327 1.290 . S
C4520 C1008 1.266 . S
C4537 C831 1.395 . S
C4556 C1208 1.376 . S
C4592 C1066 0.866 . S
C4573 C400 0.848 . S
C4609 C759 0.693 . S
C4628 C1290 0.750 . S
C4664 C1146 1.793 . S
C4645 C328 1.821 . S
C4700 C1450 1.013 . S
C4681 C626 0.963 . S
C4736 C1026 1.688 . S
C4717 C542 1.696 . S
C4753 C590 1.327 . S
C4772 C1250 1.377 . S
C4808 C1128 0.931 . S
C4789 C470 0.926 . S
C4825 C518 1.218 . S
C4844 C1170 1.255 . S
C4861 C446 1.395 . S
C4880 C1490 1.417 . S
C4916 C1306 1.618 . S
C4897 C578 1.629 . S
C4952 C1367 0.213 . S
C4933 C686 0.199 . S
