# Generated by pormake.
# Topology ocu, (6,8)-cn, num edge types: 1
# Building blocks:
#     Node 0, Type 0, BuildingBlock: CUKXOW_clean_sbu_0, # of connection points: 6
#     Node 1, Type 0, BuildingBlock: CUKXOW_clean_sbu_0, # of connection points: 6
#     Node 2, Type 0, BuildingBlock: CUKXOW_clean_sbu_0, # of connection points: 6
#     Node 3, Type 0, BuildingBlock: CUKXOW_clean_sbu_0, # of connection points: 6
#     Node 4, Type 0, BuildingBlock: CUKXOW_clean_sbu_0, # of connection points: 6
#     Node 5, Type 0, BuildingBlock: CUKXOW_clean_sbu_0, # of connection points: 6
#     Node 6, Type 0, BuildingBlock: CUKXOW_clean_sbu_0, # of connection points: 6
#     Node 7, Type 0, BuildingBlock: CUKXOW_clean_sbu_0, # of connection points: 6
#     Node 8, Type 1, BuildingBlock: VETTIZ_charged_sbu_0, # of connection points: 8
#     Node 9, Type 1, BuildingBlock: VETTIZ_charged_sbu_0, # of connection points: 8
#     Node 10, Type 1, BuildingBlock: VETTIZ_charged_sbu_0, # of connection points: 8
#     Node 11, Type 1, BuildingBlock: VETTIZ_charged_sbu_0, # of connection points: 8
#     Node 12, Type 1, BuildingBlock: VETTIZ_charged_sbu_0, # of connection points: 8
#     Node 13, Type 1, BuildingBlock: VETTIZ_charged_sbu_0, # of connection points: 8
#     Edge 14, Type (0, 1), BuildingBlock: ZUJKAS_clean_linker_0, # of connection points: 2
#     Edge 15, Type (0, 1), BuildingBlock: ZUJKAS_clean_linker_0, # of connection points: 2
#     Edge 16, Type (0, 1), BuildingBlock: ZUJKAS_clean_linker_0, # of connection points: 2
#     Edge 17, Type (0, 1), BuildingBlock: ZUJKAS_clean_linker_0, # of connection points: 2
#     Edge 18, Type (0, 1), BuildingBlock: ZUJKAS_clean_linker_0, # of connection points: 2
#     Edge 19, Type (0, 1), BuildingBlock: ZUJKAS_clean_linker_0, # of connection points: 2
#     Edge 20, Type (0, 1), BuildingBlock: ZUJKAS_clean_linker_0, # of connection points: 2
#     Edge 21, Type (0, 1), BuildingBlock: ZUJKAS_clean_linker_0, # of connection points: 2
#     Edge 22, Type (0, 1), BuildingBlock: ZUJKAS_clean_linker_0, # of connection points: 2
#     Edge 23, Type (0, 1), BuildingBlock: ZUJKAS_clean_linker_0, # of connection points: 2
#     Edge 24, Type (0, 1), BuildingBlock: ZUJKAS_clean_linker_0, # of connection points: 2
#     Edge 25, Type (0, 1), BuildingBlock: ZUJKAS_clean_linker_0, # of connection points: 2
#     Edge 26, Type (0, 1), BuildingBlock: ZUJKAS_clean_linker_0, # of connection points: 2
#     Edge 27, Type (0, 1), BuildingBlock: ZUJKAS_clean_linker_0, # of connection points: 2
#     Edge 28, Type (0, 1), BuildingBlock: ZUJKAS_clean_linker_0, # of connection points: 2
#     Edge 29, Type (0, 1), BuildingBlock: ZUJKAS_clean_linker_0, # of connection points: 2
#     Edge 30, Type (0, 1), BuildingBlock: ZUJKAS_clean_linker_0, # of connection points: 2
#     Edge 31, Type (0, 1), BuildingBlock: ZUJKAS_clean_linker_0, # of connection points: 2
#     Edge 32, Type (0, 1), BuildingBlock: ZUJKAS_clean_linker_0, # of connection points: 2
#     Edge 33, Type (0, 1), BuildingBlock: ZUJKAS_clean_linker_0, # of connection points: 2
#     Edge 34, Type (0, 1), BuildingBlock: ZUJKAS_clean_linker_0, # of connection points: 2
#     Edge 35, Type (0, 1), BuildingBlock: ZUJKAS_clean_linker_0, # of connection points: 2
#     Edge 36, Type (0, 1), BuildingBlock: ZUJKAS_clean_linker_0, # of connection points: 2
#     Edge 37, Type (0, 1), BuildingBlock: ZUJKAS_clean_linker_0, # of connection points: 2
#     Edge 38, Type (0, 1), BuildingBlock: ZUJKAS_clean_linker_0, # of connection points: 2
#     Edge 39, Type (0, 1), BuildingBlock: ZUJKAS_clean_linker_0, # of connection points: 2
#     Edge 40, Type (0, 1), BuildingBlock: ZUJKAS_clean_linker_0, # of connection points: 2
#     Edge 41, Type (0, 1), BuildingBlock: ZUJKAS_clean_linker_0, # of connection points: 2
#     Edge 42, Type (0, 1), BuildingBlock: ZUJKAS_clean_linker_0, # of connection points: 2
#     Edge 43, Type (0, 1), BuildingBlock: ZUJKAS_clean_linker_0, # of connection points: 2
#     Edge 44, Type (0, 1), BuildingBlock: ZUJKAS_clean_linker_0, # of connection points: 2
#     Edge 45, Type (0, 1), BuildingBlock: ZUJKAS_clean_linker_0, # of connection points: 2
#     Edge 46, Type (0, 1), BuildingBlock: ZUJKAS_clean_linker_0, # of connection points: 2
#     Edge 47, Type (0, 1), BuildingBlock: ZUJKAS_clean_linker_0, # of connection points: 2
#     Edge 48, Type (0, 1), BuildingBlock: ZUJKAS_clean_linker_0, # of connection points: 2
#     Edge 49, Type (0, 1), BuildingBlock: ZUJKAS_clean_linker_0, # of connection points: 2
#     Edge 50, Type (0, 1), BuildingBlock: ZUJKAS_clean_linker_0, # of connection points: 2
#     Edge 51, Type (0, 1), BuildingBlock: ZUJKAS_clean_linker_0, # of connection points: 2
#     Edge 52, Type (0, 1), BuildingBlock: ZUJKAS_clean_linker_0, # of connection points: 2
#     Edge 53, Type (0, 1), BuildingBlock: ZUJKAS_clean_linker_0, # of connection points: 2
#     Edge 54, Type (0, 1), BuildingBlock: ZUJKAS_clean_linker_0, # of connection points: 2
#     Edge 55, Type (0, 1), BuildingBlock: ZUJKAS_clean_linker_0, # of connection points: 2
#     Edge 56, Type (0, 1), BuildingBlock: ZUJKAS_clean_linker_0, # of connection points: 2
#     Edge 57, Type (0, 1), BuildingBlock: ZUJKAS_clean_linker_0, # of connection points: 2
#     Edge 58, Type (0, 1), BuildingBlock: ZUJKAS_clean_linker_0, # of connection points: 2
#     Edge 59, Type (0, 1), BuildingBlock: ZUJKAS_clean_linker_0, # of connection points: 2
#     Edge 60, Type (0, 1), BuildingBlock: ZUJKAS_clean_linker_0, # of connection points: 2
#     Edge 61, Type (0, 1), BuildingBlock: ZUJKAS_clean_linker_0, # of connection points: 2
# Relax obj value: 0.089
# Max RMSD: 0.203
# Mean RMSD: 0.123
data_MOF--net-ocu--node1-CUKXOW_clean_sbu_0--node2-VETTIZ_charged_sbu_0--edge1-ZUJKAS_clean_linker_0
_symmetry_space_group_name_H-M    P1
_symmetry_Int_Tables_number       1
_symmetry_cell_setting            triclinic
loop_
_symmetry_equiv_pos_as_xyz
'x, y, z'
_cell_length_a     46.335839
_cell_length_b     48.550705
_cell_length_c     47.644008
_cell_angle_alpha  91.997207
_cell_angle_beta   91.291444
_cell_angle_gamma 88.674149
loop_
_atom_site_label
_atom_site_type_symbol
_atom_site_fract_x
_atom_site_fract_y
_atom_site_fract_z
_atom_type_partial_charge
Tb0 Tb 0.27042 0.23362 0.23011 0.0
C1 C 0.30088 0.28939 0.21868 0.0
Tb2 Tb 0.25698 0.28152 0.26909 0.0
O3 O 0.25047 0.25357 0.19428 0.0
O4 O 0.23462 0.26206 0.23458 0.0
O5 O 0.30157 0.26219 0.21376 0.0
C6 C 0.23879 0.32874 0.29394 0.0
O7 O 0.28367 0.30122 0.2379 0.0
C8 C 0.29479 0.24556 0.28912 0.0
C9 C 0.22856 0.22553 0.28192 0.0
O10 O 0.2638 0.31687 0.29815 0.0
O11 O 0.22419 0.31418 0.27549 0.0
O12 O 0.27715 0.26028 0.30454 0.0
O13 O 0.29243 0.25324 0.26411 0.0
O14 O 0.2261 0.25277 0.28529 0.0
O15 O 0.24639 0.21396 0.26325 0.0
C16 C 0.28553 0.18394 0.20908 0.0
O17 O 0.26008 0.19539 0.20672 0.0
O18 O 0.30269 0.20077 0.22255 0.0
C19 C 0.23287 0.26897 0.20911 0.0
Tb20 Tb 0.73111 0.25854 0.29873 0.0
C21 C 0.72708 0.23505 0.23698 0.0
Tb22 Tb 0.7729 0.27898 0.25757 0.0
O23 O 0.69395 0.27848 0.27826 0.0
O24 O 0.73456 0.29573 0.27615 0.0
O25 O 0.72189 0.23021 0.2636 0.0
C26 C 0.79885 0.30595 0.2178 0.0
O27 O 0.74417 0.25504 0.22968 0.0
C28 C 0.79398 0.23933 0.28954 0.0
C29 C 0.78171 0.29727 0.31989 0.0
O30 O 0.80426 0.28046 0.22388 0.0
O31 O 0.77859 0.31592 0.23371 0.0
O32 O 0.80953 0.25819 0.27902 0.0
O33 O 0.76859 0.24189 0.27964 0.0
O34 O 0.7848 0.30482 0.29375 0.0
O35 O 0.76406 0.27746 0.32619 0.0
C36 C 0.70754 0.23508 0.34203 0.0
O37 O 0.71228 0.26121 0.34056 0.0
O38 O 0.71533 0.22244 0.31897 0.0
C39 C 0.70881 0.29706 0.26651 0.0
Tb40 Tb 0.76269 0.8059 0.21562 0.0
C41 C 0.72093 0.75437 0.2077 0.0
Tb42 Tb 0.76264 0.75895 0.26058 0.0
O43 O 0.79787 0.78849 0.18952 0.0
O44 O 0.78512 0.76893 0.22437 0.0
O45 O 0.72588 0.78052 0.20164 0.0
C46 C 0.77418 0.71841 0.29505 0.0
O47 O 0.73468 0.74108 0.22818 0.0
C48 C 0.72264 0.79821 0.27124 0.0
C49 C 0.80493 0.80936 0.26858 0.0
O50 O 0.77263 0.71531 0.26779 0.0
O51 O 0.76976 0.74403 0.30241 0.0
O52 O 0.72635 0.77608 0.28544 0.0
O53 O 0.74042 0.79603 0.25166 0.0
O54 O 0.80014 0.78313 0.27374 0.0
O55 O 0.79096 0.82293 0.24854 0.0
C56 C 0.7526 0.85302 0.19028 0.0
O57 O 0.7598 0.85081 0.21655 0.0
O58 O 0.75048 0.82866 0.17833 0.0
C59 C 0.80209 0.76654 0.20405 0.0
Tb60 Tb 0.27076 0.79303 0.23311 0.0
C61 C 0.2947 0.79815 0.29594 0.0
Tb62 Tb 0.24597 0.75496 0.28076 0.0
O63 O 0.24467 0.8307 0.24517 0.0
O64 O 0.24129 0.79474 0.26556 0.0
O65 O 0.29949 0.80163 0.2689 0.0
C66 C 0.21489 0.73625 0.32167 0.0
O67 O 0.27319 0.78344 0.30514 0.0
C68 C 0.28618 0.72894 0.24965 0.0
C69 C 0.21867 0.75319 0.21871 0.0
O70 O 0.24291 0.73646 0.32158 0.0
O71 O 0.20436 0.74652 0.29867 0.0
O72 O 0.27356 0.71811 0.2706 0.0
O73 O 0.27546 0.75288 0.24807 0.0
O74 O 0.21539 0.74831 0.24582 0.0
O75 O 0.24032 0.76747 0.20893 0.0
C76 C 0.30859 0.80877 0.19621 0.0
O77 O 0.28077 0.8131 0.19405 0.0
O78 O 0.31474 0.79549 0.2188 0.0
C79 C 0.23189 0.81921 0.26577 0.0
Tb80 Tb 0.24744 0.74791 0.76594 0.0
C81 C 0.24118 0.72484 0.70461 0.0
Tb82 Tb 0.28801 0.76849 0.72422 0.0
O83 O 0.21053 0.76627 0.74281 0.0
O84 O 0.25044 0.78478 0.74331 0.0
O85 O 0.23663 0.71981 0.73122 0.0
C86 C 0.30765 0.79344 0.68001 0.0
O87 O 0.25898 0.74407 0.69721 0.0
C88 C 0.31213 0.73174 0.75726 0.0
C89 C 0.29307 0.79263 0.78551 0.0
O90 O 0.3172 0.7698 0.6887 0.0
O91 O 0.28792 0.80316 0.6966 0.0
O92 O 0.32591 0.75114 0.74547 0.0
O93 O 0.28621 0.73164 0.74771 0.0
O94 O 0.29803 0.79717 0.75877 0.0
O95 O 0.2762 0.77259 0.79322 0.0
C96 C 0.22042 0.72301 0.80654 0.0
O97 O 0.21602 0.74845 0.79978 0.0
O98 O 0.24035 0.712 0.7909 0.0
C99 C 0.22524 0.78591 0.73275 0.0
Tb100 Tb 0.25488 0.27121 0.75776 0.0
C101 C 0.21341 0.22056 0.75093 0.0
Tb102 Tb 0.25919 0.22561 0.80137 0.0
O103 O 0.28899 0.25514 0.7293 0.0
O104 O 0.27824 0.23447 0.76376 0.0
O105 O 0.21791 0.24651 0.74464 0.0
C106 C 0.26692 0.17726 0.82474 0.0
O107 O 0.22809 0.20799 0.77118 0.0
C108 C 0.23028 0.27043 0.81787 0.0
C109 C 0.30121 0.27578 0.80744 0.0
O110 O 0.24599 0.19461 0.83051 0.0
O111 O 0.28393 0.18752 0.8068 0.0
O112 O 0.24459 0.25408 0.83447 0.0
O113 O 0.23033 0.25985 0.79303 0.0
O114 O 0.29716 0.24958 0.81355 0.0
O115 O 0.28534 0.28902 0.78835 0.0
C116 C 0.24069 0.31273 0.72524 0.0
O117 O 0.24331 0.31492 0.7525 0.0
O118 O 0.24558 0.28749 0.71685 0.0
C119 C 0.29417 0.23279 0.74274 0.0
Tb120 Tb 0.77503 0.27237 0.73757 0.0
C121 C 0.80223 0.26945 0.79912 0.0
Tb122 Tb 0.74662 0.23467 0.78376 0.0
O123 O 0.74965 0.31053 0.74881 0.0
O124 O 0.7452 0.27528 0.76987 0.0
O125 O 0.80652 0.27403 0.77213 0.0
C126 C 0.70735 0.22107 0.82029 0.0
O127 O 0.77876 0.25774 0.80868 0.0
C128 C 0.78493 0.20729 0.75143 0.0
C129 C 0.72468 0.23159 0.72028 0.0
O130 O 0.73438 0.21305 0.82122 0.0
O131 O 0.70271 0.23664 0.79899 0.0
O132 O 0.77097 0.19603 0.77143 0.0
O133 O 0.77664 0.2321 0.7518 0.0
O134 O 0.71842 0.2281 0.74703 0.0
O135 O 0.74745 0.24518 0.71217 0.0
C136 C 0.80642 0.29071 0.69673 0.0
O137 O 0.77843 0.28985 0.69635 0.0
O138 O 0.8168 0.28134 0.72021 0.0
C139 C 0.73599 0.29977 0.76914 0.0
Tb140 Tb 0.75758 0.74758 0.74803 0.0
C141 C 0.78736 0.80267 0.73516 0.0
Tb142 Tb 0.74581 0.79501 0.7873 0.0
O143 O 0.73796 0.76932 0.7128 0.0
O144 O 0.7226 0.77661 0.75326 0.0
O145 O 0.78929 0.77542 0.7317 0.0
C146 C 0.7329 0.84485 0.80928 0.0
O147 O 0.76983 0.81442 0.754 0.0
C148 C 0.78301 0.75866 0.80739 0.0
C149 C 0.7143 0.74006 0.79901 0.0
O150 O 0.75785 0.8324 0.81131 0.0
O151 O 0.71497 0.82894 0.79558 0.0
O152 O 0.76545 0.77374 0.82258 0.0
O153 O 0.78119 0.76623 0.78216 0.0
O154 O 0.71394 0.76727 0.80378 0.0
O155 O 0.7312 0.72812 0.77963 0.0
C156 C 0.77314 0.69966 0.723 0.0
O157 O 0.74902 0.713 0.71853 0.0
O158 O 0.78847 0.71324 0.74168 0.0
C159 C 0.72058 0.78435 0.72819 0.0
Fe160 Fe 1.00517 0.07516 0.49455 0.0
O161 O 1.0065 0.0347 0.49377 0.0
Fe162 Fe 0.04493 0.01471 0.50922 0.0
Fe163 Fe 0.97621 1.01235 0.51141 0.0
O164 O 0.01006 0.03455 0.49307 0.0
O165 O 0.01465 0.99238 0.52683 0.0
O166 O 0.01112 0.99258 0.52761 0.0
Fe167 Fe 0.0158 0.95198 0.52645 0.0
C168 C 0.9678 0.06457 0.54613 0.0
O169 O 0.97129 0.06835 0.46671 0.0
O170 O 0.94413 0.03704 0.48975 0.0
O171 O 0.04618 0.94804 0.49506 0.0
O172 O 0.04712 0.98824 0.47405 0.0
O173 O 0.07161 0.0422 0.48721 0.0
O174 O 0.03855 0.07209 0.46656 0.0
O175 O 0.97581 0.98611 0.47641 0.0
O176 O 0.9836 0.94579 0.49645 0.0
C177 C 0.06447 0.06174 0.46973 0.0
O178 O 0.05035 0.9585 0.55371 0.0
O179 O 0.07705 0.99005 0.53054 0.0
O180 O 0.97413 0.07882 0.52526 0.0
O181 O 0.97401 0.03884 0.54657 0.0
C182 C 0.94747 0.05559 0.47066 0.0
C183 C 0.97428 0.95996 0.47603 0.0
C184 C 0.95718 0.96657 0.55244 0.0
O185 O 0.94965 0.98501 0.53386 0.0
O186 O 0.98303 0.95585 0.55509 0.0
C187 C 0.05288 0.9624 0.47436 0.0
O188 O 0.04526 0.0407 0.54439 0.0
O189 O 0.03672 0.08136 0.52522 0.0
C190 C 0.07408 0.97122 0.54935 0.0
C191 C 0.0463 0.06688 0.54532 0.0
Fe192 Fe 0.53962 0.9622 0.98308 0.0
O193 O 0.51909 0.99786 0.98809 0.0
Fe194 Fe 0.48399 0.99952 0.01454 0.0
Fe195 Fe 0.53781 0.03188 1.00369 0.0
O196 O 0.51708 0.99659 0.9886 0.0
O197 O 0.50258 0.03367 0.02988 0.0
O198 O 0.50447 0.03497 0.02927 0.0
Fe199 Fe 0.48196 0.06925 0.03504 0.0
C200 C 0.57789 0.99064 0.02873 0.0
O201 O 0.55912 0.98333 0.95203 0.0
O202 O 0.57077 0.02459 0.9747 0.0
O203 O 0.44649 0.05793 0.01045 0.0
O204 O 0.4611 0.02088 0.98531 0.0
O205 O 0.46803 0.96367 0.99426 0.0
O206 O 0.50234 0.9508 0.96157 0.0
O207 O 0.51606 0.05418 0.97411 0.0
O208 O 0.49933 0.08861 1.00131 0.0
C209 C 0.47637 0.95037 0.97146 0.0
O210 O 0.46303 0.04803 0.06639 0.0
O211 O 0.45145 1.00658 0.04404 0.0
O212 O 0.5748 0.97331 1.00822 0.0
O213 O 0.56014 1.01043 0.03322 0.0
C214 C 0.5731 1.00627 0.9542 0.0
C215 C 0.50907 0.0794 0.97791 0.0
C216 C 0.54539 0.08104 0.04661 0.0
O217 O 0.55385 0.06762 0.02396 0.0
O218 O 0.51934 0.08083 0.05627 0.0
C219 C 0.44326 0.04056 0.99 0.0
O220 O 0.50643 0.97737 0.04386 0.0
O221 O 0.52159 0.94276 0.01625 0.0
C222 C 0.44934 0.0249 0.06459 0.0
C223 C 0.5121 0.95193 0.03973 0.0
Fe224 Fe 1.00637 0.54618 1.00689 0.0
O225 O 0.98424 0.51418 0.99118 0.0
Fe226 Fe 0.07203 0.51439 0.02691 0.0
Fe227 Fe 0.94205 0.51338 0.99098 0.0
O228 O 0.02943 0.51666 0.02651 0.0
O229 O 0.0299 0.51355 0.02623 0.0
O230 O 0.98469 0.51106 0.99093 0.0
Fe231 Fe 1.0079 0.48154 0.01043 0.0
C232 C 0.95248 0.55571 0.04014 0.0
O233 O 0.97877 0.57267 0.98263 0.0
O234 O 0.9462 0.5429 0.96135 0.0
O235 O 0.03469 0.47624 0.97625 0.0
O236 O 0.07727 0.48163 0.99801 0.0
O237 O 0.0758 0.54133 0.99495 0.0
O238 O 0.03291 0.54328 0.97292 0.0
O239 O 0.94735 0.47844 0.96563 0.0
O240 O 0.98086 0.45215 0.99037 0.0
C241 C 0.05993 0.54736 0.97378 0.0
O242 O 0.03545 0.45503 0.03447 0.0
O243 O 0.06755 0.48479 0.05655 0.0
O244 O 0.97974 0.55159 0.04115 0.0
O245 O 0.93705 0.54619 0.01971 0.0
C246 C 0.95832 0.56675 0.96403 0.0
C247 C 0.96036 0.45519 0.97135 0.0
C248 C 0.95445 0.48076 0.04416 0.0
O249 O 0.93844 0.48662 0.02307 0.0
O250 O 0.98155 0.4843 0.04459 0.0
C251 C 0.06196 0.47204 0.97749 0.0
O252 O 0.06633 0.54924 0.05245 0.0
O253 O 0.03345 0.57555 0.027 0.0
C254 C 0.05519 0.46106 0.0537 0.0
C255 C 0.05321 0.57245 0.04673 0.0
Fe256 Fe 0.5109 0.51238 0.97661 0.0
O257 O 0.53466 0.49783 1.00881 0.0
Fe258 Fe 0.44509 0.52757 0.00981 0.0
Fe259 Fe 0.5769 0.49926 0.01042 0.0
O260 O 0.48765 0.5298 1.00803 0.0
O261 O 0.48735 0.52923 0.01155 0.0
O262 O 0.53434 0.49723 0.01237 0.0
Fe263 Fe 0.51139 0.51505 0.04381 0.0
C264 C 0.55964 0.47161 0.9542 0.0
O265 O 0.5359 0.54736 0.97424 0.0
O266 O 0.57946 0.52765 0.97877 0.0
O267 O 0.48329 0.53796 0.07172 0.0
O268 O 0.44898 0.55719 0.04176 0.0
O269 O 0.44723 0.55285 0.97579 0.0
O270 O 0.48153 0.5315 0.94741 0.0
O271 O 0.58016 0.53145 0.03965 0.0
O272 O 0.5359 0.55 0.04355 0.0
C273 C 0.45962 0.54867 0.95174 0.0
O274 O 0.4864 0.48012 0.04701 0.0
O275 O 0.44259 0.49919 0.04132 0.0
O276 O 0.53912 0.48984 0.94853 0.0
O277 O 0.57282 0.46974 0.97846 0.0
C278 C 0.56308 0.54731 0.97028 0.0
C279 C 0.56322 0.55156 0.04617 0.0
C280 C 0.56204 0.47794 0.06841 0.0
O281 O 0.5744 0.4738 0.04432 0.0
O282 O 0.54107 0.49612 0.07306 0.0
C283 C 0.46244 0.55585 0.06594 0.0
O284 O 0.44205 0.49539 0.98057 0.0
O285 O 0.48647 0.47736 0.97608 0.0
C286 C 0.45909 0.47984 0.05021 0.0
C287 C 0.45919 0.47569 0.97325 0.0
Fe288 Fe 0.01636 0.4862 0.50859 0.0
O289 O 0.02548 0.51945 0.53278 0.0
Fe290 Fe 0.98946 0.51402 0.44703 0.0
Fe291 Fe 0.0244 0.51918 0.57413 0.0
O292 O 0.99035 0.51195 0.48784 0.0
O293 O 0.98914 0.51427 0.48826 0.0
O294 O 0.02418 0.52186 0.53324 0.0
Fe295 Fe 0.99789 0.54746 0.51248 0.0
C296 C 0.98392 0.47214 0.55883 0.0
O297 O 0.0457 0.46372 0.53378 0.0
O298 O 0.06109 0.49576 0.56762 0.0
O299 O 0.0315 0.55666 0.48789 0.0
O300 O 0.01182 0.55025 0.44513 0.0
O301 O 0.02782 0.49233 0.44173 0.0
O302 O 0.0505 0.49373 0.48343 0.0
O303 O 0.04187 0.55755 0.57223 0.0
O304 O 0.0117 0.57942 0.54021 0.0
C305 C 0.05078 0.49066 0.45683 0.0
O306 O 0.96853 0.56998 0.48757 0.0
O307 O 0.95322 0.53819 0.45354 0.0
O308 O 0.98261 0.47752 0.53305 0.0
O309 O 1.0031 0.48227 0.57545 0.0
C310 C 0.06406 0.47292 0.55286 0.0
C311 C 0.03167 0.57928 0.55994 0.0
C312 C 0.96285 0.54167 0.56386 0.0
O313 O 0.98554 0.53988 0.57928 0.0
O314 O 0.96362 0.53926 0.53725 0.0
C315 C 0.03084 0.56077 0.46175 0.0
O316 O 0.97067 0.47649 0.4504 0.0
O317 O 1.00171 0.45415 0.4812 0.0
C318 C 0.95022 0.56092 0.46844 0.0
C319 C 0.9799 0.45479 0.46338 0.0
Fe320 Fe 0.53931 0.95771 0.50347 0.0
O321 O 0.532 0.99756 0.50799 0.0
Fe322 Fe 0.5117 0.01811 0.47442 0.0
Fe323 Fe 0.50931 0.01467 0.53962 0.0
O324 O 0.53196 0.99758 0.50507 0.0
O325 O 0.48867 0.03492 0.50598 0.0
O326 O 0.48873 0.03491 0.50896 0.0
Fe327 Fe 0.48147 0.07484 0.51047 0.0
C328 C 0.48312 0.95895 0.53478 0.0
O329 O 0.56537 0.96487 0.53854 0.0
O330 O 0.53471 0.99008 0.56771 0.0
O331 O 0.51238 0.08455 0.48229 0.0
O332 O 0.54214 0.048 0.47985 0.0
O333 O 0.53931 0.99683 0.44519 0.0
O334 O 0.56745 0.96793 0.47258 0.0
O335 O 0.53964 0.04451 0.54436 0.0
O336 O 0.51121 0.08212 0.54264 0.0
C337 C 0.56132 0.9798 0.44903 0.0
O338 O 0.4553 0.06747 0.47559 0.0
O339 O 0.4864 0.04281 0.44638 0.0
O340 O 0.50795 0.94778 0.53118 0.0
O341 O 0.47899 0.9849 0.53505 0.0
C342 C 0.55742 0.97402 0.56322 0.0
C343 C 0.53533 0.07027 0.54841 0.0
C344 C 0.45976 0.05311 0.56508 0.0
O345 O 0.48192 0.03626 0.56899 0.0
O346 O 0.45352 0.06479 0.54148 0.0
C347 C 0.53756 0.0739 0.48001 0.0
O348 O 0.48138 0.98816 0.46877 0.0
O349 O 0.50982 0.95053 0.47125 0.0
C350 C 0.46334 0.05839 0.45091 0.0
C351 C 0.48576 0.96233 0.46522 0.0
H352 H 0.23326 0.16911 0.28592 0.0
H353 H 0.20813 0.13935 0.31736 0.0
H354 H 0.16271 0.21023 0.35289 0.0
H355 H 0.18764 0.24018 0.32138 0.0
H356 H 0.20672 0.13855 0.37608 0.0
H357 H 0.09677 0.15852 0.33236 0.0
H358 H 0.12888 0.16789 0.31452 0.0
H359 H 0.11533 0.18931 0.34308 0.0
C360 C 0.21775 0.17847 0.30022 0.0
C361 C 0.21238 0.20723 0.3007 0.0
C362 C 0.20345 0.16132 0.31839 0.0
C363 C 0.18308 0.17227 0.33743 0.0
C364 C 0.17783 0.201 0.33812 0.0
H365 H 0.06776 0.11633 0.46187 0.0
H366 H 0.09832 0.14053 0.43052 0.0
C367 C 0.19224 0.21821 0.32006 0.0
C368 C 0.16746 0.15379 0.35657 0.0
H369 H 0.09991 0.13485 0.37509 0.0
C370 C 0.18336 0.13761 0.37573 0.0
C371 C 0.13695 0.15219 0.35617 0.0
C372 C 0.11844 0.16767 0.33527 0.0
C373 C 0.16965 0.12097 0.3951 0.0
C374 C 0.13906 0.11989 0.39512 0.0
C375 C 0.1233 0.13557 0.37542 0.0
C376 C 0.12262 0.10433 0.41631 0.0
C377 C 0.18806 0.10555 0.4161 0.0
C378 C 0.12619 0.07561 0.41973 0.0
C379 C 0.10863 0.0615 0.43824 0.0
C380 C 0.08688 0.07578 0.4534 0.0
C381 C 0.08412 0.10453 0.45047 0.0
C382 C 0.10163 0.11849 0.43237 0.0
H383 H 0.21028 0.11364 0.41789 0.0
H384 H 0.17829 0.10678 0.43718 0.0
H385 H 0.18969 0.08351 0.40921 0.0
H386 H 0.1418 0.06389 0.40736 0.0
H387 H 0.11114 0.03935 0.43964 0.0
H388 H 0.76598 0.19444 0.30897 0.0
H389 H 0.78474 0.16025 0.34209 0.0
H390 H 0.86559 0.20246 0.34831 0.0
H391 H 0.84679 0.23674 0.31577 0.0
H392 H 0.83108 0.12396 0.33826 0.0
H393 H 0.84804 0.19444 0.43049 0.0
H394 H 0.82683 0.20434 0.40007 0.0
H395 H 0.8656 0.20588 0.39995 0.0
C396 C 0.78763 0.19656 0.31765 0.0
C397 C 0.8048 0.21844 0.30979 0.0
C398 C 0.79842 0.17692 0.33653 0.0
C399 C 0.82654 0.17884 0.34824 0.0
C400 C 0.84366 0.20069 0.34024 0.0
H401 H 0.94706 0.06003 0.41428 0.0
H402 H 0.91357 0.0872 0.38559 0.0
C403 C 0.83293 0.22022 0.32137 0.0
C404 C 0.8385 0.15765 0.36794 0.0
H405 H 0.87255 0.15041 0.43196 0.0
C406 C 0.83983 0.12976 0.35887 0.0
C407 C 0.84954 0.16483 0.39517 0.0
C408 C 0.84718 0.19395 0.40715 0.0
C409 C 0.85306 0.10932 0.37555 0.0
C410 C 0.86575 0.11681 0.40203 0.0
C411 C 0.86315 0.14446 0.41166 0.0
C412 C 0.88373 0.09691 0.41898 0.0
C413 C 0.85335 0.07982 0.36451 0.0
C414 C 0.87828 0.09272 0.44753 0.0
C415 C 0.89751 0.07677 0.46407 0.0
C416 C 0.92279 0.065 0.45249 0.0
C417 C 0.92749 0.06831 0.42372 0.0
C418 C 0.90829 0.08395 0.40723 0.0
H419 H 0.83493 0.07598 0.34966 0.0
H420 H 0.87356 0.07555 0.35293 0.0
H421 H 0.8524 0.06518 0.38184 0.0
H422 H 0.85967 0.10261 0.45728 0.0
H423 H 0.89365 0.0753 0.48631 0.0
H424 H 0.81903 0.86379 0.26666 0.0
H425 H 0.85018 0.88989 0.29929 0.0
H426 H 0.86957 0.81622 0.34471 0.0
H427 H 0.83807 0.78991 0.31242 0.0
H428 H 0.85265 0.8602 0.37903 0.0
H429 H 0.93772 0.89217 0.30756 0.0
H430 H 0.90162 0.90069 0.29583 0.0
H431 H 0.91285 0.86513 0.29809 0.0
C432 C 0.83019 0.85296 0.28333 0.0
C433 C 0.82598 0.82466 0.28683 0.0
C434 C 0.84817 0.86796 0.30191 0.0
C435 C 0.86253 0.85497 0.32424 0.0
C436 C 0.85881 0.82665 0.32753 0.0
H437 H 0.96922 0.90436 0.46723 0.0
H438 H 0.94255 0.88004 0.42972 0.0
C439 C 0.8408 0.81162 0.30899 0.0
C440 C 0.87982 0.87123 0.3453 0.0
H441 H 0.93793 0.91318 0.35343 0.0
C442 C 0.87138 0.87166 0.37343 0.0
C443 C 0.90411 0.88639 0.33795 0.0
C444 C 0.91483 0.88595 0.30827 0.0
C445 C 0.88641 0.88692 0.39436 0.0
C446 C 0.91084 0.90187 0.38707 0.0
C447 C 0.91916 0.90173 0.35892 0.0
C448 C 0.92849 0.91691 0.4087 0.0
C449 C 0.8758 0.88722 0.42409 0.0
C450 C 0.93025 0.94575 0.40882 0.0
C451 C 0.9456 0.95988 0.43033 0.0
C452 C 0.95958 0.94532 0.452 0.0
C453 C 0.95852 0.91634 0.45112 0.0
C454 C 0.9432 0.90233 0.42971 0.0
H455 H 0.85303 0.88067 0.42492 0.0
H456 H 0.88933 0.87272 0.43653 0.0
H457 H 0.8775 0.9081 0.4342 0.0
H458 H 0.91916 0.95737 0.39266 0.0
H459 H 0.94603 0.98217 0.43026 0.0
H460 H 0.21099 0.87214 0.26529 0.0
H461 H 0.18054 0.89657 0.29988 0.0
H462 H 0.17789 0.82294 0.34774 0.0
H463 H 0.20915 0.79879 0.31356 0.0
H464 H 0.12658 0.88878 0.31711 0.0
H465 H 0.20164 0.87793 0.40834 0.0
H466 H 0.21239 0.86962 0.37284 0.0
H467 H 0.19228 0.84543 0.39195 0.0
C468 C 0.20396 0.86115 0.28321 0.0
C469 C 0.21247 0.83342 0.28657 0.0
C470 C 0.18645 0.87516 0.30302 0.0
C471 C 0.17709 0.86191 0.32687 0.0
C472 C 0.18522 0.834 0.32999 0.0
H473 H 0.0691 0.90785 0.46888 0.0
H474 H 0.09824 0.88488 0.43268 0.0
C475 C 0.20285 0.82001 0.3102 0.0
C476 C 0.15871 0.87728 0.34815 0.0
H477 H 0.15444 0.89533 0.41815 0.0
C478 C 0.13281 0.89031 0.33917 0.0
C479 C 0.16667 0.87955 0.37705 0.0
C480 C 0.19489 0.86764 0.38813 0.0
C481 C 0.1145 0.90478 0.35819 0.0
C482 C 0.12232 0.90675 0.38711 0.0
C483 C 0.14828 0.89388 0.39606 0.0
C484 C 0.10358 0.92126 0.40861 0.0
C485 C 0.0865 0.91721 0.34725 0.0
C486 C 0.09663 0.94962 0.40744 0.0
C487 C 0.0798 0.96302 0.42833 0.0
C488 C 0.06952 0.94839 0.45098 0.0
C489 C 0.07642 0.91997 0.45187 0.0
C490 C 0.09325 0.90669 0.43112 0.0
H491 H 0.08038 0.90843 0.32616 0.0
H492 H 0.06867 0.91385 0.36185 0.0
H493 H 0.08891 0.93976 0.34545 0.0
H494 H 0.1047 0.96157 0.39064 0.0
H495 H 0.07523 0.98492 0.42693 0.0
H496 H 0.24727 0.83646 0.72106 0.0
H497 H 0.22635 0.87128 0.68982 0.0
H498 H 0.15582 0.81748 0.66854 0.0
H499 H 0.17638 0.78302 0.7 0.0
H500 H 0.21358 0.87293 0.63442 0.0
H501 H 0.11167 0.88595 0.69198 0.0
H502 H 0.1423 0.86681 0.70578 0.0
H503 H 0.11797 0.85084 0.68041 0.0
C504 C 0.22737 0.83204 0.7096 0.0
C505 C 0.21343 0.80698 0.71317 0.0
C506 C 0.21535 0.85201 0.69174 0.0
C507 C 0.18902 0.84749 0.67711 0.0
C508 C 0.17562 0.82206 0.6801 0.0
H509 H 0.11464 0.933 0.53305 0.0
H510 H 0.14538 0.90504 0.56403 0.0
C511 C 0.1875 0.80222 0.69804 0.0
C512 C 0.17545 0.86922 0.65889 0.0
H513 H 0.11222 0.90522 0.64668 0.0
C514 C 0.19146 0.88011 0.63725 0.0
C515 C 0.14674 0.87926 0.66269 0.0
C516 C 0.12877 0.87034 0.68665 0.0
C517 C 0.1794 0.8999 0.619 0.0
C518 C 0.15018 0.90883 0.6219 0.0
C519 C 0.13449 0.89845 0.64403 0.0
C520 C 0.13506 0.92841 0.60221 0.0
C521 C 0.19839 0.91134 0.59711 0.0
C522 C 0.11891 0.95126 0.61286 0.0
C523 C 0.10115 0.96717 0.59505 0.0
C524 C 0.09936 0.96097 0.56603 0.0
C525 C 0.11649 0.93901 0.55512 0.0
C526 C 0.13403 0.92289 0.57296 0.0
H527 H 0.22155 0.91003 0.60361 0.0
H528 H 0.19576 0.89901 0.5772 0.0
H529 H 0.19258 0.93317 0.59304 0.0
H530 H 0.11901 0.95609 0.63523 0.0
H531 H 0.08748 0.98334 0.60422 0.0
H532 H 0.17835 0.23835 0.70769 0.0
H533 H 0.1466 0.21065 0.67696 0.0
H534 H 0.16843 0.13868 0.72423 0.0
H535 H 0.2004 0.16608 0.75498 0.0
H536 H 0.17434 0.13063 0.6662 0.0
H537 H 0.06744 0.17801 0.69084 0.0
H538 H 0.09413 0.20239 0.68218 0.0
H539 H 0.09894 0.18283 0.71336 0.0
C540 C 0.17613 0.21672 0.71186 0.0
C541 C 0.19198 0.20451 0.73389 0.0
C542 C 0.15783 0.20093 0.69432 0.0
C543 C 0.15488 0.17265 0.69849 0.0
C544 C 0.17026 0.1605 0.72072 0.0
H545 H 0.07158 0.04408 0.59223 0.0
H546 H 0.0967 0.06816 0.63131 0.0
C547 C 0.1885 0.17626 0.73832 0.0
C548 C 0.13735 0.15543 0.67851 0.0
H549 H 0.06955 0.14838 0.64992 0.0
C550 C 0.15136 0.13427 0.66284 0.0
C551 C 0.1074 0.16026 0.67416 0.0
C552 C 0.09098 0.18194 0.69119 0.0
C553 C 0.13646 0.1185 0.64216 0.0
C554 C 0.10657 0.12365 0.63745 0.0
C555 C 0.09245 0.14443 0.65356 0.0
C556 C 0.08998 0.10884 0.61477 0.0
C557 C 0.15313 0.09727 0.62476 0.0
C558 C 0.07698 0.12374 0.593 0.0
C559 C 0.06242 0.11012 0.57081 0.0
C560 C 0.06045 0.0812 0.56986 0.0
C561 C 0.07282 0.06633 0.59213 0.0
C562 C 0.08736 0.08005 0.61442 0.0
H563 H 0.17679 0.10035 0.62652 0.0
H564 H 0.14871 0.07642 0.63222 0.0
H565 H 0.14642 0.09793 0.60227 0.0
H566 H 0.07861 0.14597 0.59287 0.0
H567 H 0.05306 0.12233 0.55417 0.0
H568 H 0.8114 0.2279 0.70566 0.0
H569 H 0.84322 0.20308 0.67226 0.0
H570 H 0.83486 0.12881 0.71812 0.0
H571 H 0.80313 0.15351 0.75136 0.0
H572 H 0.89622 0.175 0.68092 0.0
H573 H 0.81436 0.10237 0.63814 0.0
H574 H 0.80482 0.13289 0.65891 0.0
H575 H 0.81861 0.10254 0.67569 0.0
C576 C 0.81648 0.20634 0.70867 0.0
C577 C 0.80476 0.19275 0.73124 0.0
C578 C 0.83463 0.1921 0.6895 0.0
C579 C 0.84123 0.16384 0.69226 0.0
C580 C 0.82974 0.15038 0.71503 0.0
H581 H 0.94373 0.04172 0.59254 0.0
H582 H 0.91447 0.06525 0.62895 0.0
C583 C 0.8117 0.16461 0.73419 0.0
C584 C 0.86039 0.14853 0.67169 0.0
H585 H 0.86265 0.09378 0.62428 0.0
C586 C 0.8888 0.15731 0.66848 0.0
C587 C 0.85098 0.12524 0.65546 0.0
C588 C 0.82046 0.11529 0.65695 0.0
C589 C 0.90799 0.14339 0.64993 0.0
C590 C 0.89849 0.12026 0.63347 0.0
C591 C 0.87014 0.11136 0.63684 0.0
C592 C 0.91716 0.10582 0.61185 0.0
C593 C 0.93853 0.15333 0.64862 0.0
C594 C 0.92839 0.12051 0.58984 0.0
C595 C 0.94516 0.10716 0.5691 0.0
C596 C 0.95113 0.07854 0.56948 0.0
C597 C 0.93987 0.06376 0.59155 0.0
C598 C 0.92299 0.07722 0.61238 0.0
H599 H 0.94498 0.1649 0.66821 0.0
H600 H 0.95409 0.13587 0.64516 0.0
H601 H 0.94006 0.16747 0.63095 0.0
H602 H 0.92375 0.14238 0.58834 0.0
H603 H 0.95316 0.11939 0.55248 0.0
H604 H 0.78197 0.85884 0.73047 0.0
H605 H 0.80642 0.8885 0.69864 0.0
H606 H 0.85435 0.81812 0.66516 0.0
H607 H 0.82926 0.78811 0.6965 0.0
H608 H 0.85992 0.90228 0.69365 0.0
H609 H 0.82761 0.85056 0.59306 0.0
H610 H 0.81188 0.84234 0.62594 0.0
H611 H 0.84627 0.82735 0.61605 0.0
C612 C 0.79769 0.84952 0.71636 0.0
C613 C 0.80349 0.82086 0.71625 0.0
C614 C 0.81172 0.86664 0.69801 0.0
C615 C 0.83204 0.85577 0.67882 0.0
C616 C 0.83824 0.82719 0.67899 0.0
H617 H 0.96803 0.94437 0.60334 0.0
H618 H 0.93588 0.91989 0.63271 0.0
C619 C 0.82403 0.80998 0.69724 0.0
C620 C 0.84729 0.87453 0.65957 0.0
H621 H 0.86547 0.88315 0.59098 0.0
C622 C 0.86087 0.89808 0.67118 0.0
C623 C 0.84826 0.86979 0.62999 0.0
C624 C 0.83246 0.84632 0.61546 0.0
C625 C 0.876 0.91618 0.65452 0.0
C626 C 0.87845 0.91052 0.62521 0.0
C627 C 0.86401 0.88757 0.61338 0.0
C628 C 0.8975 0.927 0.60709 0.0
C629 C 0.88904 0.94142 0.66862 0.0
C630 C 0.88713 0.93925 0.58223 0.0
C631 C 0.90585 0.95347 0.56494 0.0
C632 C 0.93548 0.9554 0.57191 0.0
C633 C 0.94545 0.94348 0.59706 0.0
C634 C 0.92691 0.92949 0.61417 0.0
H635 H 0.8771 0.94799 0.68777 0.0
H636 H 0.91165 0.93652 0.67519 0.0
H637 H 0.8891 0.95893 0.65425 0.0
H638 H 0.86459 0.93758 0.57604 0.0
H639 H 0.89735 0.962 0.54567 0.0
H640 H 0.25123 0.1468 0.18099 0.0
H641 H 0.26515 0.10036 0.16343 0.0
H642 H 0.35123 0.11157 0.19777 0.0
H643 H 0.33733 0.15756 0.21562 0.0
H644 H 0.30513 0.09055 0.12508 0.0
H645 H 0.33776 0.03312 0.21832 0.0
H646 H 0.31527 0.06404 0.22053 0.0
H647 H 0.35408 0.06624 0.22029 0.0
C648 C 0.273 0.1391 0.18507 0.0
C649 C 0.29334 0.15572 0.19939 0.0
C650 C 0.28083 0.11255 0.17525 0.0
C651 C 0.30902 0.10221 0.17987 0.0
C652 C 0.3291 0.1187 0.19476 0.0
H653 H 0.44945 0.04704 0.11763 0.0
H654 H 0.40816 0.05236 0.1479 0.0
C655 C 0.32129 0.14516 0.20455 0.0
C656 C 0.31917 0.07636 0.16553 0.0
H657 H 0.36662 0.0228 0.17578 0.0
C658 C 0.31766 0.075 0.1361 0.0
C659 C 0.33499 0.0558 0.17997 0.0
C660 C 0.33531 0.05474 0.21155 0.0
C661 C 0.33495 0.05615 0.1207 0.0
C662 C 0.35388 0.038 0.13529 0.0
C663 C 0.35234 0.0369 0.16463 0.0
C664 C 0.38018 0.02672 0.12164 0.0
C665 C 0.33534 0.05819 0.08914 0.0
C666 C 0.37884 1.00884 0.09784 0.0
C667 C 0.40256 1.00599 0.08016 0.0
C668 C 0.4277 0.02098 0.08627 0.0
C669 C 0.43008 0.03584 0.11199 0.0
C670 C 0.40654 0.03868 0.1295 0.0
H671 H 0.32022 0.07444 0.08136 0.0
H672 H 0.35742 0.06285 0.08233 0.0
H673 H 0.32908 0.03822 0.07903 0.0
H674 H 0.35885 0.99893 0.09178 0.0
H675 H 0.4003 0.994 0.06066 0.0
H676 H 0.79018 0.35982 0.2064 0.0
H677 H 0.82044 0.38851 0.17845 0.0
H678 H 0.87599 0.31814 0.15935 0.0
H679 H 0.84564 0.28919 0.18731 0.0
H680 H 0.882 0.39663 0.18798 0.0
H681 H 0.85416 0.35169 0.08189 0.0
H682 H 0.8319 0.34721 0.11195 0.0
H683 H 0.86519 0.32792 0.10843 0.0
C684 C 0.80867 0.3504 0.19599 0.0
C685 C 0.81561 0.32233 0.19887 0.0
C686 C 0.82597 0.36682 0.18019 0.0
C687 C 0.85035 0.35538 0.1669 0.0
C688 C 0.85709 0.32723 0.16932 0.0
H689 H 0.98165 0.45039 0.08501 0.0
H690 H 0.95864 0.42006 0.11759 0.0
C691 C 0.83977 0.31076 0.1852 0.0
C692 C 0.8688 0.37324 0.15084 0.0
H693 H 0.88772 0.3874 0.08423 0.0
C694 C 0.88351 0.39454 0.16532 0.0
C695 C 0.8705 0.37038 0.12133 0.0
C696 C 0.8545 0.34821 0.10483 0.0
C697 C 0.89957 0.41346 0.15088 0.0
C698 C 0.90088 0.41082 0.12135 0.0
C699 C 0.88665 0.3892 0.10695 0.0
C700 C 0.91505 0.43139 0.10461 0.0
C701 C 0.91417 0.43669 0.16705 0.0
C702 C 0.89806 0.44809 0.08712 0.0
C703 C 0.91101 0.46536 0.06863 0.0
C704 C 0.94126 0.46611 0.06714 0.0
C705 C 0.9583 0.45036 0.08575 0.0
C706 C 0.94523 0.43301 0.10431 0.0
H707 H 0.90825 0.43769 0.18953 0.0
H708 H 0.93794 0.43377 0.16583 0.0
H709 H 0.90833 0.45671 0.1576 0.0
H710 H 0.87472 0.44714 0.0872 0.0
H711 H 0.89726 0.47739 0.05477 0.0
H712 H 0.74121 0.8598 0.13501 0.0
H713 H 0.72665 0.90233 0.11251 0.0
H714 H 0.73693 0.94762 0.19156 0.0
H715 H 0.75138 0.90472 0.21435 0.0
H716 H 0.68379 0.95343 0.16916 0.0
H717 H 0.76072 0.97249 0.08653 0.0
H718 H 0.75272 0.93655 0.08534 0.0
H719 H 0.77019 0.95164 0.11625 0.0
C720 C 0.74096 0.87891 0.14745 0.0
C721 C 0.74706 0.87909 0.17636 0.0
C722 C 0.7331 0.9033 0.13451 0.0
C723 C 0.73134 0.92826 0.15026 0.0
C724 C 0.73865 0.92864 0.179 0.0
H725 H 0.59704 0.02896 0.06789 0.0
H726 H 0.63937 0.02517 0.09924 0.0
C727 C 0.74665 0.90417 0.19197 0.0
C728 C 0.71636 0.95204 0.13755 0.0
H729 H 0.70866 0.98015 0.07332 0.0
C730 C 0.68967 0.96039 0.14871 0.0
C731 C 0.72433 0.96148 0.11119 0.0
C732 C 0.75376 0.95526 0.09936 0.0
C733 C 0.66894 0.97421 0.13228 0.0
C734 C 0.67549 0.97997 0.10429 0.0
C735 C 0.7036 0.97519 0.09466 0.0
C736 C 0.65221 0.98456 0.08335 0.0
C737 C 0.63916 0.97957 0.1438 0.0
C738 C 0.64597 0.96321 0.06369 0.0
C739 C 0.62193 0.96523 0.04578 0.0
C740 C 0.60363 0.98863 0.04733 0.0
C741 C 0.61046 1.01041 0.06651 0.0
C742 C 0.63468 1.00841 0.08434 0.0
H743 H 0.63734 0.97251 0.16561 0.0
H744 H 0.63396 1.00199 0.1438 0.0
H745 H 0.62278 0.96888 0.13028 0.0
H746 H 0.65926 0.94454 0.06281 0.0
H747 H 0.6174 0.94823 0.03114 0.0
H748 H 0.21537 0.75927 0.16159 0.0
H749 H 0.18132 0.73781 0.12799 0.0
H750 H 0.14015 0.69835 0.19571 0.0
H751 H 0.17352 0.72001 0.22942 0.0
H752 H 0.17581 0.68366 0.1173 0.0
H753 H 0.07064 0.7266 0.15218 0.0
H754 H 0.10453 0.74139 0.16358 0.0
H755 H 0.09084 0.7121 0.18083 0.0
C756 C 0.19884 0.74632 0.16942 0.0
C757 C 0.19727 0.74139 0.19828 0.0
C758 C 0.17934 0.73412 0.15015 0.0
C759 C 0.1578 0.71689 0.15936 0.0
C760 C 0.156 0.7122 0.18815 0.0
H761 H 0.08251 0.57342 0.09686 0.0
H762 H 0.10512 0.6126 0.12093 0.0
C763 C 0.17538 0.72443 0.20742 0.0
C764 C 0.1391 0.70152 0.13884 0.0
H765 H 0.06925 0.68291 0.12564 0.0
C766 C 0.15247 0.68403 0.1187 0.0
C767 C 0.10859 0.70213 0.14043 0.0
C768 C 0.09282 0.72181 0.16024 0.0
C769 C 0.13633 0.66581 0.10151 0.0
C770 C 0.10614 0.66492 0.10468 0.0
C771 C 0.09247 0.68356 0.12346 0.0
C772 C 0.08937 0.64236 0.09124 0.0
C773 C 0.15177 0.64664 0.08094 0.0
C774 C 0.07226 0.64639 0.06699 0.0
C775 C 0.0592 0.62386 0.05297 0.0
C776 C 0.06323 0.5971 0.06308 0.0
C777 C 0.07924 0.59362 0.08822 0.0
C778 C 0.09215 0.616 0.1021 0.0
H779 H 0.17394 0.65355 0.07692 0.0
H780 H 0.15338 0.62571 0.08959 0.0
H781 H 0.13949 0.6451 0.06068 0.0
H782 H 0.0699 0.6667 0.05839 0.0
H783 H 0.04702 0.62723 0.03367 0.0
H784 H 0.32872 0.83571 0.77801 0.0
H785 H 0.35528 0.86237 0.81397 0.0
H786 H 0.31703 0.81602 0.87858 0.0
H787 H 0.29054 0.78886 0.84271 0.0
H788 H 0.3357 0.89505 0.86035 0.0
H789 H 0.40468 0.80583 0.89288 0.0
H790 H 0.38309 0.80506 0.86087 0.0
H791 H 0.36635 0.80121 0.89409 0.0
C792 C 0.3258 0.83118 0.79985 0.0
C793 C 0.30765 0.80997 0.80744 0.0
C794 C 0.34096 0.84652 0.82038 0.0
C795 C 0.33837 0.84091 0.84886 0.0
C796 C 0.31964 0.82035 0.85665 0.0
H797 H 0.41832 0.94687 0.98099 0.0
H798 H 0.38283 0.92 0.95366 0.0
C799 C 0.30444 0.80495 0.83611 0.0
C800 C 0.35607 0.85616 0.87015 0.0
H801 H 0.41272 0.84846 0.91645 0.0
C802 C 0.35238 0.8849 0.87284 0.0
C803 C 0.37795 0.84277 0.88616 0.0
C804 C 0.38353 0.81205 0.88331 0.0
C805 C 0.37039 0.90073 0.89079 0.0
C806 C 0.39238 0.88735 0.90664 0.0
C807 C 0.39569 0.85857 0.90437 0.0
C808 C 0.41368 0.90299 0.92397 0.0
C809 C 0.36654 0.93171 0.89179 0.0
C810 C 0.44282 0.90178 0.91668 0.0
C811 C 0.46317 0.91694 0.93227 0.0
C812 C 0.4548 0.93356 0.9556 0.0
C813 C 0.42557 0.93434 0.96315 0.0
C814 C 0.40519 0.91913 0.94748 0.0
H815 H 0.35231 0.93905 0.87438 0.0
H816 H 0.35662 0.93841 0.91195 0.0
H817 H 0.38773 0.94181 0.89068 0.0
H818 H 0.44978 0.88937 0.89863 0.0
H819 H 0.48545 0.91571 0.92584 0.0
H820 H 0.19081 0.30431 0.78948 0.0
H821 H 0.15864 0.34041 0.81043 0.0
H822 H 0.19495 0.32423 0.89244 0.0
H823 H 0.22678 0.28877 0.87193 0.0
H824 H 0.13318 0.32556 0.88995 0.0
H825 H 0.17995 0.41835 0.84473 0.0
H826 H 0.17065 0.3902 0.82086 0.0
H827 H 0.19959 0.38582 0.84604 0.0
C828 C 0.19202 0.30867 0.81192 0.0
C829 C 0.21137 0.29352 0.82898 0.0
C830 C 0.17367 0.32935 0.8239 0.0
C831 C 0.1743 0.33518 0.85314 0.0
C832 C 0.19385 0.3202 0.86993 0.0
H833 H 0.12 0.46503 0.96866 0.0
H834 H 0.1443 0.43277 0.936 0.0
C835 C 0.21215 0.29985 0.85806 0.0
C836 C 0.15447 0.35623 0.86691 0.0
H837 H 0.14205 0.42577 0.8764 0.0
C838 C 0.13483 0.34746 0.88667 0.0
C839 C 0.15678 0.38488 0.86299 0.0
C840 C 0.17795 0.3956 0.84266 0.0
C841 C 0.11798 0.36637 0.90286 0.0
C842 C 0.12054 0.39506 0.89923 0.0
C843 C 0.13984 0.40385 0.87914 0.0
C844 C 0.10506 0.41614 0.91761 0.0
C845 C 0.09847 0.3555 0.92466 0.0
C846 C 0.07469 0.41818 0.91796 0.0
C847 C 0.06058 0.43684 0.9367 0.0
C848 C 0.0765 0.45387 0.95564 0.0
C849 C 0.10689 0.45225 0.9546 0.0
C850 C 0.12091 0.43379 0.93579 0.0
H851 H 0.10308 0.33339 0.92861 0.0
H852 H 0.1008 0.36751 0.94482 0.0
H853 H 0.07568 0.35761 0.91725 0.0
H854 H 0.06184 0.40513 0.90394 0.0
H855 H 0.03719 0.43739 0.9368 0.0
H856 H 0.65194 0.24007 0.82157 0.0
H857 H 0.61259 0.22292 0.84903 0.0
H858 H 0.67163 0.16446 0.88719 0.0
H859 H 0.71123 0.18197 0.86011 0.0
H860 H 0.59207 0.17117 0.84597 0.0
H861 H 0.62936 0.19673 0.95477 0.0
H862 H 0.64501 0.21155 0.92454 0.0
H863 H 0.6561 0.17759 0.93506 0.0
C864 C 0.65659 0.22383 0.83614 0.0
C865 C 0.68455 0.21229 0.8388 0.0
C866 C 0.63411 0.21406 0.85177 0.0
C867 C 0.63923 0.19263 0.87036 0.0
C868 C 0.66732 0.18142 0.87342 0.0
H869 H 0.5341 0.06737 0.92742 0.0
H870 H 0.5609 0.09858 0.89951 0.0
C871 C 0.68989 0.19132 0.85787 0.0
C872 C 0.61484 0.18065 0.88495 0.0
H873 H 0.59251 0.16286 0.94942 0.0
C874 C 0.59194 0.16969 0.86864 0.0
C875 C 0.61442 0.17918 0.91451 0.0
C876 C 0.63739 0.19215 0.93327 0.0
C877 C 0.56934 0.15609 0.88102 0.0
C878 C 0.56998 0.15297 0.91041 0.0
C879 C 0.59213 0.16511 0.92684 0.0
C880 C 0.54951 0.13522 0.9244 0.0
C881 C 0.54519 0.14496 0.86247 0.0
C882 C 0.53377 0.14548 0.94747 0.0
C883 C 0.51851 0.12758 0.96372 0.0
C884 C 0.51899 0.09906 0.95729 0.0
C885 C 0.53321 0.08919 0.93303 0.0
C886 C 0.54847 0.10707 0.91688 0.0
H887 H 0.54245 0.1569 0.84307 0.0
H888 H 0.55047 0.12328 0.85603 0.0
H889 H 0.5244 0.14545 0.87363 0.0
H890 H 0.53436 0.16715 0.95364 0.0
H891 H 0.50781 0.1359 0.98224 0.0
H892 H 0.78193 0.737 0.85879 0.0
H893 H 0.81777 0.70734 0.88161 0.0
H894 H 0.87003 0.70719 0.80783 0.0
H895 H 0.83326 0.73645 0.78434 0.0
H896 H 0.87089 0.65745 0.82808 0.0
H897 H 0.89215 0.72896 0.91801 0.0
H898 H 0.85444 0.72175 0.91561 0.0
H899 H 0.87117 0.73925 0.88763 0.0
C900 C 0.80107 0.73073 0.84735 0.0
C901 C 0.80486 0.73937 0.81983 0.0
C902 C 0.82179 0.71392 0.8606 0.0
C903 C 0.84732 0.70566 0.84701 0.0
C904 C 0.85081 0.71355 0.81907 0.0
H905 H 0.97813 0.61952 0.95493 0.0
H906 H 0.95587 0.65439 0.9243 0.0
C907 C 0.82976 0.73023 0.80559 0.0
C908 C 0.86953 0.68805 0.86187 0.0
H909 H 0.90508 0.68106 0.92519 0.0
C910 C 0.87866 0.66288 0.84915 0.0
C911 C 0.88063 0.69517 0.88915 0.0
C912 C 0.87434 0.72292 0.90322 0.0
C913 C 0.89686 0.6441 0.86347 0.0
C914 C 0.90563 0.65009 0.89175 0.0
C915 C 0.89806 0.676 0.9038 0.0
C916 C 0.92038 0.62894 0.90974 0.0
C917 C 0.9064 0.61793 0.848 0.0
C918 C 0.90782 0.60318 0.91233 0.0
C919 C 0.92051 0.58333 0.9295 0.0
C920 C 0.9461 0.58856 0.94525 0.0
C921 C 0.95859 0.61458 0.9431 0.0
C922 C 0.94583 0.63456 0.92556 0.0
H923 H 0.90778 0.62115 0.8251 0.0
H924 H 0.92775 0.61029 0.85588 0.0
H925 H 0.89024 0.60179 0.85082 0.0
H926 H 0.8877 0.59847 0.90139 0.0
H927 H 0.90971 0.56388 0.93071 0.0
H928 H 0.18588 0.29671 0.23309 0.0
H929 H 0.15148 0.32853 0.20975 0.0
H930 H 0.19765 0.31671 0.13254 0.0
H931 H 0.23191 0.28563 0.15562 0.0
H932 H 0.18602 0.37105 0.14471 0.0
H933 H 0.08635 0.31056 0.15221 0.0
H934 H 0.10533 0.31769 0.18491 0.0
H935 H 0.12197 0.29582 0.15844 0.0
C936 C 0.18865 0.30102 0.21118 0.0
C937 C 0.21166 0.28861 0.19624 0.0
C938 C 0.16882 0.31899 0.19775 0.0
C939 C 0.17164 0.32481 0.16916 0.0
C940 C 0.19479 0.31255 0.15449 0.0
H941 H 0.05742 0.40431 0.04512 0.0
H942 H 0.08365 0.37063 0.07428 0.0
C943 C 0.21442 0.2947 0.16778 0.0
C944 C 0.15146 0.34433 0.15433 0.0
H945 H 0.08126 0.35433 0.13191 0.0
C946 C 0.1631 0.36739 0.14206 0.0
C947 C 0.12156 0.33945 0.15036 0.0
C948 C 0.10796 0.31444 0.16193 0.0
C949 C 0.1459 0.38561 0.12613 0.0
C950 C 0.11589 0.38111 0.12261 0.0
C951 C 0.10417 0.35795 0.1347 0.0
C952 C 0.09666 0.40053 0.1066 0.0
C953 C 0.16025 0.40925 0.11262 0.0
C954 C 0.09414 0.4283 0.11553 0.0
C955 C 0.07936 0.44748 0.09894 0.0
C956 C 0.06632 0.43943 0.07301 0.0
C957 C 0.06712 0.41125 0.06493 0.0
C958 C 0.08221 0.39198 0.08157 0.0
H959 H 0.18393 0.40564 0.11096 0.0
H960 H 0.15101 0.41264 0.09127 0.0
H961 H 0.15669 0.42837 0.12563 0.0
H962 H 0.10444 0.43538 0.13502 0.0
H963 H 0.07888 0.4689 0.10612 0.0
H964 H 0.22625 0.66896 0.8181 0.0
H965 H 0.19331 0.64144 0.84432 0.0
H966 H 0.14067 0.71402 0.86253 0.0
H967 H 0.17372 0.74184 0.83619 0.0
H968 H 0.15311 0.67929 0.90935 0.0
H969 H 0.1108 0.62077 0.81582 0.0
H970 H 0.14954 0.62105 0.81834 0.0
H971 H 0.12959 0.65278 0.8134 0.0
C972 C 0.20779 0.67911 0.82789 0.0
C973 C 0.20239 0.70746 0.8251 0.0
C974 C 0.1889 0.66334 0.84262 0.0
C975 C 0.16429 0.67565 0.85474 0.0
C976 C 0.15942 0.70417 0.85299 0.0
H977 H 0.03225 0.57813 0.93354 0.0
H978 H 0.05458 0.61061 0.90266 0.0
C979 C 0.17832 0.72001 0.83811 0.0
C980 C 0.14406 0.65851 0.86958 0.0
H981 H 0.10209 0.60186 0.86064 0.0
C982 C 0.14159 0.66263 0.89869 0.0
C983 C 0.12877 0.63707 0.85547 0.0
C984 C 0.12952 0.63276 0.82398 0.0
C985 C 0.12549 0.64478 0.91433 0.0
C986 C 0.11183 0.62223 0.90045 0.0
C987 C 0.1129 0.61904 0.87116 0.0
C988 C 0.09827 0.60072 0.91643 0.0
C989 C 0.12379 0.64971 0.9457 0.0
C990 C 0.11565 0.58375 0.93331 0.0
C991 C 0.10311 0.56519 0.95074 0.0
C992 C 0.07291 0.56325 0.9516 0.0
C993 C 0.05558 0.57911 0.93333 0.0
C994 C 0.06824 0.59775 0.91581 0.0
H995 H 0.12921 0.67123 0.9521 0.0
H996 H 0.10187 0.64536 0.95315 0.0
H997 H 0.13941 0.63564 0.95634 0.0
H998 H 0.13893 0.58549 0.93361 0.0
H999 H 0.1171 0.55307 0.9643 0.0
H1000 H 0.28712 0.13111 0.7981 0.0
H1001 H 0.30301 0.08827 0.81974 0.0
H1002 H 0.27515 0.12135 0.90032 0.0
H1003 H 0.25709 0.16304 0.87812 0.0
H1004 H 0.34558 0.09033 0.85167 0.0
H1005 H 0.26295 0.04345 0.91381 0.0
H1006 H 0.25339 0.06772 0.88707 0.0
H1007 H 0.262 0.07955 0.92262 0.0
C1008 C 0.28345 0.12861 0.82024 0.0
C1009 C 0.27136 0.15019 0.83671 0.0
C1010 C 0.29236 0.10415 0.83256 0.0
C1011 C 0.29031 0.10142 0.8617 0.0
C1012 C 0.27628 0.12241 0.87772 0.0
H1013 H 0.40059 0.08036 0.99149 0.0
H1014 H 0.35976 0.08531 0.95865 0.0
C1015 C 0.26636 0.14648 0.86515 0.0
C1016 C 0.30865 0.08062 0.87608 0.0
H1017 H 0.31262 0.04421 0.93605 0.0
C1018 C 0.33805 0.0793 0.8694 0.0
C1019 C 0.29905 0.06602 0.89918 0.0
C1020 C 0.26751 0.06408 0.90577 0.0
C1021 C 0.35843 0.06647 0.8869 0.0
C1022 C 0.34913 0.05475 0.91171 0.0
C1023 C 0.31958 0.05364 0.91711 0.0
C1024 C 0.37018 0.04822 0.93411 0.0
C1025 C 0.39006 0.06778 0.88013 0.0
C1026 C 0.38908 0.02545 0.93125 0.0
C1027 C 0.41262 0.02271 0.94977 0.0
C1028 C 0.41754 0.04276 0.97135 0.0
C1029 C 0.39762 0.06478 0.97492 0.0
C1030 C 0.37412 0.06746 0.9564 0.0
H1031 H 0.39369 0.0787 0.86045 0.0
H1032 H 0.40201 0.0785 0.89761 0.0
H1033 H 0.39935 0.04657 0.87775 0.0
H1034 H 0.38628 1.0105 0.91404 0.0
H1035 H 0.4273 1.00521 0.94672 0.0
H1036 H 0.79485 0.28702 0.85368 0.0
H1037 H 0.83018 0.31065 0.88443 0.0
H1038 H 0.89512 0.29727 0.82163 0.0
H1039 H 0.85967 0.27464 0.79042 0.0
H1040 H 0.88413 0.29972 0.90804 0.0
H1041 H 0.88968 0.3803 0.82826 0.0
H1042 H 0.86336 0.35354 0.82592 0.0
H1043 H 0.90001 0.34628 0.81581 0.0
C1044 C 0.81678 0.28874 0.84664 0.0
C1045 C 0.8244 0.27949 0.81949 0.0
C1046 C 0.83696 0.30219 0.86423 0.0
C1047 C 0.8651 0.30628 0.85504 0.0
C1048 C 0.87333 0.29499 0.82884 0.0
H1049 H 0.98707 0.40402 0.96357 0.0
H1050 H 0.96838 0.36434 0.93569 0.0
C1051 C 0.85307 0.28203 0.81107 0.0
C1052 C 0.88468 0.32469 0.87159 0.0
H1053 H 0.91738 0.38683 0.86951 0.0
C1054 C 0.89172 0.31863 0.89958 0.0
C1055 C 0.89437 0.34945 0.86049 0.0
C1056 C 0.88631 0.35799 0.83108 0.0
C1057 C 0.90737 0.33716 0.91706 0.0
C1058 C 0.91646 0.36211 0.90605 0.0
C1059 C 0.91053 0.36754 0.87776 0.0
C1060 C 0.92806 0.38484 0.92417 0.0
C1061 C 0.91274 0.33071 0.94749 0.0
C1062 C 0.91167 0.40935 0.92676 0.0
C1063 C 0.92227 0.43186 0.94221 0.0
C1064 C 0.94961 0.43049 0.95562 0.0
C1065 C 0.96592 0.4057 0.95353 0.0
C1066 C 0.95525 0.38302 0.93774 0.0
H1067 H 0.90144 0.31194 0.95349 0.0
H1068 H 0.93625 0.32741 0.95138 0.0
H1069 H 0.9055 0.34834 0.96127 0.0
H1070 H 0.8906 0.41114 0.91656 0.0
H1071 H 0.90885 0.4504 0.94362 0.0
H1072 H 0.68245 0.87354 0.80283 0.0
H1073 H 0.67057 0.91973 0.82148 0.0
H1074 H 0.75681 0.92655 0.8568 0.0
H1075 H 0.76871 0.87991 0.83837 0.0
H1076 H 0.71652 0.93698 0.89499 0.0
H1077 H 0.68819 0.99805 0.80308 0.0
H1078 H 0.67057 0.9656 0.79982 0.0
H1079 H 0.70949 0.96641 0.80038 0.0
C1080 C 0.69897 0.88502 0.81428 0.0
C1081 C 0.72636 0.87317 0.81945 0.0
C1082 C 0.69234 0.9116 0.82453 0.0
C1083 C 0.71305 0.92689 0.83993 0.0
C1084 C 0.74069 0.91528 0.84458 0.0
H1085 H 0.62336 0.03498 0.9602 0.0
H1086 H 0.66546 0.02925 0.93002 0.0
C1087 C 0.74736 0.88862 0.83426 0.0
C1088 C 0.7039 0.95278 0.85481 0.0
H1089 H 0.65872 1.00817 0.84531 0.0
C1090 C 0.70484 0.95326 0.88424 0.0
C1091 C 0.68921 0.97427 0.84073 0.0
C1092 C 0.68962 0.97618 0.80923 0.0
C1093 C 0.68788 0.97222 0.89986 0.0
C1094 C 0.66994 0.99137 0.88547 0.0
C1095 C 0.67222 0.99329 0.85628 0.0
C1096 C 0.64373 1.00311 0.8989 0.0
C1097 C 0.68668 0.96929 0.93127 0.0
C1098 C 0.61709 0.9923 0.89011 0.0
C1099 C 0.59316 0.99561 0.90709 0.0
C1100 C 0.59546 1.00983 0.93317 0.0
C1101 C 0.62111 0.02362 0.94033 0.0
C1102 C 0.6452 0.02028 0.9232 0.0
H1103 H 0.70101 0.95231 0.93882 0.0
H1104 H 0.69348 0.98873 0.94213 0.0
H1105 H 0.66426 0.9652 0.93747 0.0
H1106 H 0.61539 0.97913 0.87133 0.0
H1107 H 0.57347 0.98528 0.90074 0.0
H1108 H 0.84546 0.76754 0.16748 0.0
H1109 H 0.87151 0.72887 0.14498 0.0
H1110 H 0.82623 0.67225 0.19494 0.0
H1111 H 0.79998 0.71143 0.21796 0.0
H1112 H 0.88769 0.65811 0.18651 0.0
H1113 H 0.82941 0.67875 0.08636 0.0
H1114 H 0.84701 0.7084 0.10165 0.0
H1115 H 0.81784 0.69343 0.11968 0.0
C1116 C 0.84129 0.74691 0.17408 0.0
C1117 C 0.82057 0.74261 0.19453 0.0
C1118 C 0.85615 0.72474 0.16104 0.0
C1119 C 0.85054 0.69751 0.16776 0.0
C1120 C 0.8309 0.69306 0.18925 0.0
H1121 H 0.89457 0.56212 0.04951 0.0
H1122 H 0.87031 0.59396 0.08247 0.0
C1123 C 0.81599 0.71545 0.20253 0.0
C1124 C 0.86412 0.67411 0.151 0.0
H1125 H 0.87005 0.64812 0.08362 0.0
C1126 C 0.88367 0.65575 0.16405 0.0
C1127 C 0.85873 0.67069 0.12169 0.0
C1128 C 0.8369 0.68867 0.10651 0.0
C1129 C 0.89849 0.63471 0.14849 0.0
C1130 C 0.89403 0.63212 0.11894 0.0
C1131 C 0.87386 0.65006 0.10614 0.0
C1132 C 0.90953 0.61089 0.10071 0.0
C1133 C 0.91849 0.61524 0.16396 0.0
C1134 C 0.9399 0.60931 0.09984 0.0
C1135 C 0.954 0.5908 0.08097 0.0
C1136 C 0.93805 0.57364 0.06219 0.0
C1137 C 0.90769 0.57498 0.06348 0.0
C1138 C 0.89369 0.59328 0.08241 0.0
H1139 H 0.91308 0.61456 0.18653 0.0
H1140 H 0.91762 0.59402 0.15454 0.0
H1141 H 0.94096 0.62244 0.16273 0.0
H1142 H 0.95279 0.62301 0.11313 0.0
H1143 H 0.97736 0.5906 0.08048 0.0
H1144 H 0.30019 0.83371 0.14595 0.0
H1145 H 0.33727 0.85383 0.11737 0.0
H1146 H 0.40282 0.82962 0.17803 0.0
H1147 H 0.36627 0.80856 0.20572 0.0
H1148 H 0.37088 0.89518 0.13028 0.0
H1149 H 0.44088 0.80387 0.10768 0.0
H1150 H 0.4055 0.80114 0.12222 0.0
H1151 H 0.43624 0.80895 0.14473 0.0
C1152 C 0.32261 0.83232 0.1528 0.0
C1153 C 0.33047 0.8195 0.17786 0.0
C1154 C 0.34373 0.84383 0.13657 0.0
C1155 C 0.37293 0.84278 0.14529 0.0
C1156 C 0.38065 0.82992 0.17036 0.0
H1157 H 0.4974 0.96124 0.09453 0.0
H1158 H 0.4656 0.93323 0.1216 0.0
C1159 C 0.35967 0.81809 0.1863 0.0
C1160 C 0.39513 0.85677 0.12938 0.0
H1161 H 0.46231 0.84794 0.10207 0.0
C1162 C 0.39074 0.88478 0.12384 0.0
C1163 C 0.42089 0.8431 0.12065 0.0
C1164 C 0.426 0.81254 0.12386 0.0
C1165 C 0.41163 0.89966 0.11035 0.0
C1166 C 0.43816 0.8864 0.10321 0.0
C1167 C 0.44226 0.85824 0.10815 0.0
C1168 C 0.46122 0.90107 0.08923 0.0
C1169 C 0.40469 0.92924 0.10335 0.0
C1170 C 0.47125 0.89112 0.06314 0.0
C1171 C 0.4901 0.90663 0.04803 0.0
C1172 C 0.49898 0.93255 0.05864 0.0
C1173 C 0.4907 0.94146 0.08573 0.0
C1174 C 0.47224 0.92566 0.10104 0.0
H1175 H 0.38103 0.93351 0.10262 0.0
H1176 H 0.41425 0.94319 0.11982 0.0
H1177 H 0.41363 0.93436 0.08279 0.0
H1178 H 0.46327 0.87204 0.05375 0.0
H1179 H 0.49598 0.89919 0.02719 0.0
H1180 H 0.7317 0.23838 0.17994 0.0
H1181 H 0.70589 0.2115 0.14339 0.0
H1182 H 0.66431 0.16636 0.2069 0.0
H1183 H 0.69019 0.19274 0.24357 0.0
H1184 H 0.68442 0.13303 0.16125 0.0
H1185 H 0.61908 0.22378 0.12651 0.0
H1186 H 0.65758 0.22744 0.12633 0.0
H1187 H 0.63974 0.22415 0.15908 0.0
C1188 C 0.7172 0.22263 0.18617 0.0
C1189 C 0.71285 0.21787 0.21472 0.0
C1190 C 0.70241 0.20737 0.16524 0.0
C1191 C 0.68294 0.18724 0.17251 0.0
C1192 C 0.67922 0.18187 0.2009 0.0
H1193 H 0.53606 0.11639 0.0916 0.0
H1194 H 0.57182 0.14178 0.11967 0.0
C1195 C 0.69399 0.19705 0.22183 0.0
C1196 C 0.66552 0.17236 0.15074 0.0
H1197 H 0.61067 0.18135 0.10271 0.0
C1198 C 0.66846 0.14355 0.14822 0.0
C1199 C 0.64459 0.18624 0.13404 0.0
C1200 C 0.63977 0.21708 0.13666 0.0
C1201 C 0.65058 0.12813 0.12977 0.0
C1202 C 0.62952 0.14202 0.11323 0.0
C1203 C 0.62701 0.17086 0.11533 0.0
C1204 C 0.60824 0.12691 0.0954 0.0
C1205 C 0.65352 0.09708 0.12895 0.0
C1206 C 0.61689 0.11041 0.07221 0.0
C1207 C 0.59647 0.09576 0.05605 0.0
C1208 C 0.56702 0.09746 0.0628 0.0
C1209 C 0.5585 0.11446 0.0858 0.0
C1210 C 0.5789 0.12907 0.10187 0.0
H1211 H 0.66699 0.08944 0.14676 0.0
H1212 H 0.63198 0.08756 0.1295 0.0
H1213 H 0.66385 0.09003 0.1091 0.0
H1214 H 0.63943 0.10883 0.06667 0.0
H1215 H 0.60383 0.08287 0.03851 0.0
H1216 H 0.67962 0.75491 0.84396 0.0
H1217 H 0.65185 0.7249 0.87316 0.0
H1218 H 0.68024 0.65402 0.8234 0.0
H1219 H 0.70774 0.68381 0.79402 0.0
H1220 H 0.62258 0.65129 0.83473 0.0
H1221 H 0.68355 0.67497 0.93375 0.0
H1222 H 0.66798 0.70472 0.91733 0.0
H1223 H 0.69592 0.68477 0.89996 0.0
C1224 C 0.67995 0.73295 0.83912 0.0
C1225 C 0.6962 0.72201 0.81647 0.0
C1226 C 0.66415 0.71568 0.85606 0.0
C1227 C 0.66411 0.68689 0.851 0.0
C1228 C 0.67981 0.67603 0.82804 0.0
H1229 H 0.62067 0.55663 0.96315 0.0
H1230 H 0.64301 0.59084 0.93478 0.0
C1231 C 0.69567 0.69323 0.81117 0.0
C1232 C 0.64788 0.66803 0.86941 0.0
H1233 H 0.64289 0.6468 0.93709 0.0
C1234 C 0.627 0.65045 0.85713 0.0
C1235 C 0.65364 0.66639 0.89871 0.0
C1236 C 0.67666 0.6835 0.91326 0.0
C1237 C 0.61187 0.63162 0.8731 0.0
C1238 C 0.61731 0.63029 0.90248 0.0
C1239 C 0.63827 0.64781 0.91473 0.0
C1240 C 0.60288 0.60983 0.92054 0.0
C1241 C 0.59081 0.61266 0.8581 0.0
C1242 C 0.57259 0.609 0.9228 0.0
C1243 C 0.55956 0.58925 0.93925 0.0
C1244 C 0.57644 0.56972 0.95399 0.0
C1245 C 0.60674 0.57107 0.95213 0.0
C1246 C 0.61968 0.5908 0.93584 0.0
H1247 H 0.59425 0.61142 0.83508 0.0
H1248 H 0.59266 0.59154 0.86629 0.0
H1249 H 0.56849 0.6206 0.86161 0.0
H1250 H 0.55892 0.62368 0.91184 0.0
H1251 H 0.53622 0.58907 0.94007 0.0
H1252 H 0.28927 0.68861 0.78619 0.0
H1253 H 0.31527 0.65673 0.81738 0.0
H1254 H 0.39568 0.69356 0.79728 0.0
H1255 H 0.36972 0.72636 0.768 0.0
H1256 H 0.35417 0.6176 0.81158 0.0
H1257 H 0.40581 0.69784 0.87929 0.0
H1258 H 0.37821 0.70615 0.85353 0.0
H1259 H 0.41529 0.70112 0.84337 0.0
C1260 C 0.31237 0.69021 0.78883 0.0
C1261 C 0.32715 0.71062 0.77503 0.0
C1262 C 0.32738 0.67178 0.80657 0.0
C1263 C 0.35762 0.67306 0.8107 0.0
C1264 C 0.37238 0.69263 0.79574 0.0
H1265 H 0.48508 0.56904 0.90444 0.0
H1266 H 0.46173 0.59797 0.86834 0.0
C1267 C 0.3574 0.71131 0.7786 0.0
C1268 C 0.37383 0.65387 0.83012 0.0
H1269 H 0.42429 0.65198 0.88404 0.0
C1270 C 0.36939 0.62527 0.82744 0.0
C1271 C 0.39382 0.66349 0.85117 0.0
C1272 C 0.39833 0.69383 0.85723 0.0
C1273 C 0.38437 0.60636 0.84472 0.0
C1274 C 0.40464 0.616 0.86525 0.0
C1275 C 0.40923 0.64446 0.86795 0.0
C1276 C 0.41909 0.5972 0.88592 0.0
C1277 C 0.3784 0.57604 0.84104 0.0
C1278 C 0.40307 0.58707 0.90778 0.0
C1279 C 0.41635 0.57094 0.92842 0.0
C1280 C 0.44612 0.56413 0.92785 0.0
C1281 C 0.46214 0.57366 0.9055 0.0
C1282 C 0.44881 0.59031 0.88492 0.0
H1283 H 0.36608 0.57125 0.82127 0.0
H1284 H 0.39894 0.56379 0.84105 0.0
H1285 H 0.36559 0.56949 0.85895 0.0
H1286 H 0.38025 0.59214 0.90922 0.0
H1287 H 0.40315 0.56391 0.94511 0.0
H1288 H 0.32902 0.32115 0.79105 0.0
H1289 H 0.3609 0.35091 0.81929 0.0
H1290 H 0.35345 0.29779 0.88939 0.0
H1291 H 0.32238 0.26728 0.86073 0.0
H1292 H 0.34704 0.38011 0.86353 0.0
H1293 H 0.43816 0.31096 0.89403 0.0
H1294 H 0.41196 0.30133 0.86707 0.0
H1295 H 0.40397 0.29794 0.9036 0.0
C1296 C 0.33461 0.3155 0.81232 0.0
C1297 C 0.3232 0.29182 0.82364 0.0
C1298 C 0.35284 0.33257 0.82849 0.0
C1299 C 0.3599 0.32659 0.85649 0.0
C1300 C 0.34904 0.30257 0.86767 0.0
H1301 H 0.40487 0.45643 0.97851 0.0
H1302 H 0.38212 0.41878 0.95159 0.0
C1303 C 0.33113 0.28518 0.85129 0.0
C1304 C 0.37633 0.34686 0.87445 0.0
H1305 H 0.43437 0.35422 0.91957 0.0
C1306 C 0.36626 0.37439 0.8756 0.0
C1307 C 0.40163 0.33964 0.89004 0.0
C1308 C 0.41475 0.31092 0.88843 0.0
C1309 C 0.38044 0.39473 0.89197 0.0
C1310 C 0.40491 0.38728 0.90862 0.0
C1311 C 0.41536 0.35987 0.90718 0.0
C1312 C 0.41991 0.40786 0.92736 0.0
C1313 C 0.36932 0.42416 0.89071 0.0
C1314 C 0.4493 0.4132 0.92401 0.0
C1315 C 0.46259 0.43446 0.93984 0.0
C1316 C 0.44662 0.45087 0.95914 0.0
C1317 C 0.41763 0.44451 0.96344 0.0
C1318 C 0.40453 0.42306 0.94795 0.0
H1319 H 0.35658 0.42767 0.87107 0.0
H1320 H 0.3549 0.42873 0.90865 0.0
H1321 H 0.38729 0.43891 0.89197 0.0
H1322 H 0.4617 0.40159 0.90843 0.0
H1323 H 0.48498 0.4388 0.93608 0.0
H1324 H 0.70844 0.3483 0.75883 0.0
H1325 H 0.6751 0.37509 0.78872 0.0
H1326 H 0.68119 0.31217 0.85037 0.0
H1327 H 0.71525 0.2855 0.82059 0.0
H1328 H 0.62135 0.36356 0.81025 0.0
H1329 H 0.70195 0.38188 0.89643 0.0
H1330 H 0.71197 0.36847 0.86213 0.0
H1331 H 0.69661 0.34621 0.8869 0.0
C1332 C 0.70259 0.34005 0.77871 0.0
C1333 C 0.71434 0.31459 0.78719 0.0
C1334 C 0.68342 0.35542 0.79578 0.0
C1335 C 0.67569 0.34595 0.82204 0.0
C1336 C 0.687 0.32021 0.8304 0.0
H1337 H 0.57918 0.41913 0.96108 0.0
H1338 H 0.60457 0.38865 0.92777 0.0
C1339 C 0.7062 0.30473 0.8132 0.0
C1340 C 0.65641 0.36346 0.84066 0.0
H1341 H 0.65443 0.39831 0.90431 0.0
C1342 C 0.62858 0.37114 0.83084 0.0
C1343 C 0.66576 0.37364 0.86749 0.0
C1344 C 0.69577 0.3674 0.87886 0.0
C1345 C 0.60977 0.38806 0.84725 0.0
C1346 C 0.61913 0.39822 0.87411 0.0
C1347 C 0.64703 0.3906 0.88382 0.0
C1348 C 0.6004 0.41609 0.89304 0.0
C1349 C 0.57976 0.39427 0.83591 0.0
C1350 C 0.58862 0.44169 0.88471 0.0
C1351 C 0.57355 0.45925 0.90387 0.0
C1352 C 0.57038 0.45174 0.93189 0.0
C1353 C 0.58128 0.42572 0.93974 0.0
C1354 C 0.59597 0.40821 0.92066 0.0
H1355 H 0.57323 0.37909 0.81911 0.0
H1356 H 0.56367 0.3943 0.85284 0.0
H1357 H 0.57926 0.41499 0.82676 0.0
H1358 H 0.59209 0.44867 0.86375 0.0
H1359 H 0.56584 0.47926 0.89721 0.0
H1360 H 0.65663 0.29462 0.23987 0.0
H1361 H 0.6331 0.32773 0.20901 0.0
H1362 H 0.70642 0.38056 0.21909 0.0
H1363 H 0.7305 0.34676 0.24965 0.0
H1364 H 0.61412 0.3784 0.21688 0.0
H1365 H 0.69777 0.37979 0.13564 0.0
H1366 H 0.69877 0.35498 0.16295 0.0
H1367 H 0.71091 0.38951 0.17019 0.0
C1368 C 0.66793 0.31321 0.23543 0.0
C1369 C 0.69564 0.31783 0.24717 0.0
C1370 C 0.65432 0.33229 0.21774 0.0
C1371 C 0.66785 0.3568 0.21114 0.0
C1372 C 0.69556 0.36164 0.22306 0.0
H1373 H 0.56389 0.48912 0.12624 0.0
H1374 H 0.58925 0.46207 0.16241 0.0
C1375 C 0.70938 0.3423 0.24068 0.0
C1376 C 0.65247 0.37697 0.19213 0.0
H1377 H 0.65825 0.41091 0.13065 0.0
C1378 C 0.62389 0.38553 0.19806 0.0
C1379 C 0.66479 0.38633 0.16727 0.0
C1380 C 0.69462 0.37702 0.15841 0.0
C1381 C 0.60737 0.40254 0.17994 0.0
C1382 C 0.61979 0.4121 0.15523 0.0
C1383 C 0.64853 0.40391 0.14955 0.0
C1384 C 0.603 0.42879 0.13388 0.0
C1385 C 0.57632 0.4091 0.18695 0.0
C1386 C 0.60214 0.41962 0.10559 0.0
C1387 C 0.58799 0.43517 0.08496 0.0
C1388 C 0.57397 0.46057 0.09174 0.0
C1389 C 0.57406 0.46957 0.12018 0.0
C1390 C 0.58861 0.45399 0.14095 0.0
H1391 H 0.56793 0.39451 0.2021 0.0
H1392 H 0.57474 0.43015 0.19669 0.0
H1393 H 0.56227 0.40842 0.16776 0.0
H1394 H 0.61272 0.40032 0.09928 0.0
H1395 H 0.58837 0.4273 0.06341 0.0
H1396 H 0.69153 0.70951 0.22284 0.0
H1397 H 0.66137 0.67952 0.19306 0.0
H1398 H 0.67258 0.7322 0.12329 0.0
H1399 H 0.70236 0.76293 0.15337 0.0
H1400 H 0.61695 0.71198 0.12476 0.0
H1401 H 0.69797 0.62715 0.13542 0.0
H1402 H 0.68527 0.64007 0.16874 0.0
H1403 H 0.70518 0.66213 0.14696 0.0
C1404 C 0.6874 0.71493 0.20123 0.0
C1405 C 0.69968 0.73844 0.19037 0.0
C1406 C 0.67022 0.69767 0.18419 0.0
C1407 C 0.66535 0.70316 0.15573 0.0
C1408 C 0.67625 0.72742 0.14514 0.0
H1409 H 0.6172 0.5704 0.03832 0.0
H1410 H 0.64047 0.60962 0.06204 0.0
C1411 C 0.69323 0.74498 0.16235 0.0
C1412 C 0.65017 0.68277 0.13696 0.0
H1413 H 0.65243 0.615 0.11529 0.0
C1414 C 0.62477 0.69081 0.12249 0.0
C1415 C 0.66066 0.65526 0.13355 0.0
C1416 C 0.68892 0.64568 0.14675 0.0
C1417 C 0.60918 0.67187 0.10533 0.0
C1418 C 0.61894 0.64401 0.1031 0.0
C1419 C 0.6447 0.63624 0.11711 0.0
C1420 C 0.60322 0.62236 0.0863 0.0
C1421 C 0.58274 0.68205 0.08944 0.0
C1422 C 0.57424 0.6166 0.09153 0.0
C1423 C 0.56069 0.59431 0.0776 0.0
C1424 C 0.57609 0.57699 0.05866 0.0
C1425 C 0.60482 0.58319 0.05299 0.0
C1426 C 0.61816 0.60565 0.06653 0.0
H1427 H 0.58346 0.70459 0.08626 0.0
H1428 H 0.58046 0.67124 0.06862 0.0
H1429 H 0.56328 0.67816 0.10173 0.0
H1430 H 0.5624 0.62867 0.10715 0.0
H1431 H 0.5386 0.58993 0.08257 0.0
H1432 H 0.31577 0.68206 0.26153 0.0
H1433 H 0.34993 0.65551 0.23262 0.0
H1434 H 0.34019 0.71526 0.16799 0.0
H1435 H 0.30621 0.74241 0.19749 0.0
H1436 H 0.34154 0.62984 0.184 0.0
H1437 H 0.42645 0.70639 0.17026 0.0
H1438 H 0.39817 0.71177 0.19542 0.0
H1439 H 0.39126 0.71817 0.15888 0.0
C1440 C 0.32117 0.68982 0.24131 0.0
C1441 C 0.30844 0.71455 0.23197 0.0
C1442 C 0.34074 0.67451 0.2247 0.0
C1443 C 0.34818 0.68331 0.19808 0.0
C1444 C 0.33557 0.7082 0.18867 0.0
H1445 H 0.43942 0.60709 0.05817 0.0
H1446 H 0.41427 0.6375 0.09175 0.0
C1447 C 0.31604 0.72375 0.20552 0.0
C1448 C 0.3678 0.66546 0.17999 0.0
H1449 H 0.42994 0.6649 0.14221 0.0
C1450 C 0.361 0.63755 0.17511 0.0
C1451 C 0.39333 0.67524 0.16823 0.0
C1452 C 0.40295 0.70445 0.17365 0.0
C1453 C 0.37841 0.6195 0.15852 0.0
C1454 C 0.40377 0.62932 0.14657 0.0
C1455 C 0.41068 0.65719 0.15147 0.0
C1456 C 0.42202 0.61155 0.1272 0.0
C1457 C 0.36893 0.59023 0.15314 0.0
C1458 C 0.4359 0.58702 0.13594 0.0
C1459 C 0.45065 0.56942 0.1166 0.0
C1460 C 0.45164 0.57593 0.08808 0.0
C1461 C 0.43893 0.60117 0.07986 0.0
C1462 C 0.42451 0.61872 0.09912 0.0
H1463 H 0.34609 0.58749 0.15888 0.0
H1464 H 0.37141 0.58389 0.13069 0.0
H1465 H 0.38267 0.57621 0.16593 0.0
H1466 H 0.4348 0.58117 0.15761 0.0
H1467 H 0.46008 0.55019 0.12368 0.0
H1468 H 0.31591 0.34317 0.23029 0.0
H1469 H 0.34448 0.37329 0.20236 0.0
H1470 H 0.3555 0.3078 0.13983 0.0
H1471 H 0.32794 0.27711 0.16846 0.0
H1472 H 0.40362 0.33376 0.14435 0.0
H1473 H 0.31853 0.41474 0.13656 0.0
H1474 H 0.32855 0.40919 0.17247 0.0
H1475 H 0.31196 0.38197 0.15152 0.0
C1476 C 0.32439 0.33506 0.2106 0.0
C1477 C 0.31929 0.30756 0.20172 0.0
C1478 C 0.34062 0.35253 0.19438 0.0
C1479 C 0.35173 0.34342 0.16827 0.0
C1480 C 0.34719 0.31572 0.15965 0.0
H1481 H 0.4039 0.46129 0.04443 0.0
H1482 H 0.37983 0.42731 0.07173 0.0
C1483 C 0.33132 0.29807 0.17613 0.0
C1484 C 0.36807 0.36259 0.15015 0.0
H1485 H 0.36528 0.42677 0.12212 0.0
C1486 C 0.39507 0.35404 0.13942 0.0
C1487 C 0.35709 0.38906 0.14294 0.0
C1488 C 0.32732 0.39916 0.15121 0.0
C1489 C 0.41127 0.37103 0.1223 0.0
C1490 C 0.4009 0.39802 0.11623 0.0
C1491 C 0.37377 0.40639 0.12676 0.0
C1492 C 0.41696 0.41762 0.09831 0.0
C1493 C 0.43893 0.35931 0.11021 0.0
C1494 C 0.44631 0.42381 0.10342 0.0
C1495 C 0.46045 0.44302 0.08718 0.0
C1496 C 0.44548 0.4572 0.06581 0.0
C1497 C 0.41623 0.45094 0.0607 0.0
C1498 C 0.40232 0.43144 0.0765 0.0
H1499 H 0.43894 0.33641 0.10896 0.0
H1500 H 0.44242 0.36687 0.08886 0.0
H1501 H 0.45736 0.36557 0.12407 0.0
H1502 H 0.45822 0.41439 0.1205 0.0
H1503 H 0.48283 0.44753 0.09209 0.0
H1504 H 0.74793 0.67625 0.67612 0.0
H1505 H 0.76837 0.63942 0.64551 0.0
H1506 H 0.84144 0.63139 0.70258 0.0
H1507 H 0.8213 0.66829 0.73303 0.0
H1508 H 0.82433 0.64569 0.62194 0.0
H1509 H 0.81902 0.55039 0.68195 0.0
H1510 H 0.79552 0.58008 0.68846 0.0
H1511 H 0.83187 0.57953 0.70248 0.0
C1512 C 0.76804 0.66618 0.68238 0.0
C1513 C 0.78317 0.67508 0.70681 0.0
C1514 C 0.77963 0.64518 0.66493 0.0
C1515 C 0.80619 0.63252 0.672 0.0
C1516 C 0.82063 0.64057 0.69706 0.0
H1517 H 0.95397 0.55153 0.61968 0.0
H1518 H 0.91029 0.56914 0.64182 0.0
C1519 C 0.80923 0.66174 0.71432 0.0
C1520 C 0.82096 0.61367 0.65168 0.0
H1521 H 0.85536 0.55096 0.64658 0.0
C1522 C 0.83057 0.6247 0.62684 0.0
C1523 C 0.82889 0.58637 0.65826 0.0
C1524 C 0.81807 0.57325 0.68413 0.0
C1525 C 0.85009 0.60999 0.60958 0.0
C1526 C 0.85955 0.58325 0.61711 0.0
C1527 C 0.84814 0.57147 0.64087 0.0
C1528 C 0.88447 0.56917 0.6034 0.0
C1529 C 0.86213 0.62409 0.58476 0.0
C1530 C 0.88427 0.56255 0.57447 0.0
C1531 C 0.90952 0.55276 0.56153 0.0
C1532 C 0.93522 0.54918 0.57745 0.0
C1533 C 0.93472 0.55428 0.60667 0.0
C1534 C 0.90966 0.56423 0.61945 0.0
H1535 H 0.85622 0.6464 0.58479 0.0
H1536 H 0.88603 0.6219 0.58466 0.0
H1537 H 0.85343 0.61436 0.56502 0.0
H1538 H 0.86485 0.56564 0.56179 0.0
H1539 H 0.90907 0.54871 0.53903 0.0
H1540 H 0.28247 0.83806 0.65651 0.0
H1541 H 0.3012 0.86493 0.6188 0.0
H1542 H 0.37364 0.80786 0.61101 0.0
H1543 H 0.35452 0.78047 0.64828 0.0
H1544 H 0.35193 0.88927 0.62684 0.0
H1545 H 0.35597 0.82426 0.52943 0.0
H1546 H 0.33362 0.81633 0.55856 0.0
H1547 H 0.37139 0.80673 0.5589 0.0
C1548 C 0.30208 0.83097 0.64631 0.0
C1549 C 0.31738 0.80751 0.65538 0.0
C1550 C 0.31259 0.84618 0.62468 0.0
C1551 C 0.33859 0.8382 0.61193 0.0
C1552 C 0.35315 0.81397 0.62009 0.0
H1553 H 0.48486 0.90432 0.5465 0.0
H1554 H 0.44452 0.87619 0.55916 0.0
C1555 C 0.34246 0.79856 0.64158 0.0
C1556 C 0.3531 0.85758 0.59408 0.0
H1557 H 0.39027 0.86144 0.53346 0.0
C1558 C 0.35968 0.88352 0.60609 0.0
C1559 C 0.36317 0.84989 0.5671 0.0
C1560 C 0.3554 0.82287 0.55264 0.0
C1561 C 0.37789 0.90124 0.59277 0.0
C1562 C 0.3893 0.89292 0.56646 0.0
C1563 C 0.38141 0.86765 0.55365 0.0
C1564 C 0.41224 0.90864 0.554 0.0
C1565 C 0.38636 0.92782 0.60789 0.0
C1566 C 0.40714 0.93589 0.54613 0.0
C1567 C 0.43019 0.95219 0.53938 0.0
C1568 C 0.45858 0.94129 0.54011 0.0
C1569 C 0.46329 0.91341 0.54615 0.0
C1570 C 0.44027 0.89724 0.55313 0.0
H1571 H 0.37942 0.92882 0.63008 0.0
H1572 H 0.41012 0.93027 0.60766 0.0
H1573 H 0.37608 0.94549 0.59706 0.0
H1574 H 0.3855 0.94483 0.54628 0.0
H1575 H 0.42583 0.97343 0.53413 0.0
H1576 H 0.24276 0.30967 0.66893 0.0
H1577 H 0.22054 0.34131 0.63602 0.0
H1578 H 0.19559 0.39612 0.70499 0.0
H1579 H 0.21762 0.36389 0.73842 0.0
H1580 H 0.15044 0.38019 0.67137 0.0
H1581 H 0.23805 0.41542 0.60533 0.0
H1582 H 0.23875 0.37865 0.6079 0.0
H1583 H 0.24493 0.40014 0.63893 0.0
C1584 C 0.2331 0.32877 0.67709 0.0
C1585 C 0.23158 0.33437 0.70613 0.0
C1586 C 0.22071 0.34697 0.65822 0.0
C1587 C 0.20679 0.37118 0.66806 0.0
C1588 C 0.20653 0.37758 0.69707 0.0
H1589 H 0.11613 0.49095 0.57105 0.0
H1590 H 0.15352 0.46423 0.59526 0.0
C1591 C 0.21904 0.35927 0.71608 0.0
C1592 C 0.18887 0.38721 0.64829 0.0
H1593 H 0.18985 0.41835 0.58525 0.0
C1594 C 0.15908 0.38885 0.65271 0.0
C1595 C 0.20029 0.39833 0.62397 0.0
C1596 C 0.23231 0.3983 0.61888 0.0
C1597 C 0.14021 0.40091 0.63317 0.0
C1598 C 0.15145 0.41091 0.60821 0.0
C1599 C 0.18133 0.40989 0.60406 0.0
C1600 C 0.13261 0.4252 0.58786 0.0
C1601 C 0.10846 0.40326 0.63966 0.0
C1602 C 0.10945 0.4117 0.57423 0.0
C1603 C 0.08785 0.42699 0.56045 0.0
C1604 C 0.08941 0.4558 0.56032 0.0
C1605 C 0.11418 0.46876 0.5714 0.0
C1606 C 0.13564 0.45355 0.58508 0.0
H1607 H 0.10441 0.39986 0.66216 0.0
H1608 H 0.09949 0.42388 0.63434 0.0
H1609 H 0.09658 0.38749 0.62691 0.0
H1610 H 0.10716 0.38966 0.57583 0.0
H1611 H 0.06903 0.41656 0.55189 0.0
H1612 H 0.6708 0.21111 0.72561 0.0
H1613 H 0.64341 0.18381 0.69072 0.0
H1614 H 0.71116 0.19179 0.63111 0.0
H1615 H 0.73847 0.21972 0.66565 0.0
H1616 H 0.65764 0.19709 0.60654 0.0
H1617 H 0.66432 0.10415 0.6705 0.0
H1618 H 0.64884 0.13308 0.68967 0.0
H1619 H 0.68568 0.13413 0.67853 0.0
C1620 C 0.67981 0.20722 0.70503 0.0
C1621 C 0.70689 0.21735 0.69847 0.0
C1622 C 0.66422 0.19149 0.68518 0.0
C1623 C 0.67565 0.18522 0.65863 0.0
C1624 C 0.70212 0.19624 0.65159 0.0
H1625 H 0.59115 0.05385 0.55994 0.0
H1626 H 0.62952 0.08155 0.58167 0.0
C1627 C 0.71763 0.21223 0.67134 0.0
C1628 C 0.66007 0.16675 0.63853 0.0
H1629 H 0.62844 0.10408 0.63337 0.0
C1630 C 0.65153 0.17661 0.61221 0.0
C1631 C 0.65297 0.13972 0.64561 0.0
C1632 C 0.66372 0.12703 0.67248 0.0
C1633 C 0.63445 0.16071 0.59346 0.0
C1634 C 0.62519 0.1347 0.6017 0.0
C1635 C 0.63522 0.12422 0.62727 0.0
C1636 C 0.60329 0.11891 0.58538 0.0
C1637 C 0.62637 0.17194 0.56513 0.0
C1638 C 0.57589 0.13079 0.58024 0.0
C1639 C 0.55396 0.11508 0.56784 0.0
C1640 C 0.5589 0.08705 0.56072 0.0
C1641 C 0.58655 0.07531 0.56544 0.0
C1642 C 0.60855 0.09113 0.57769 0.0
H1643 H 0.6427 0.18654 0.55826 0.0
H1644 H 0.62415 0.15512 0.54887 0.0
H1645 H 0.60541 0.18337 0.56657 0.0
H1646 H 0.57114 0.15199 0.5867 0.0
H1647 H 0.53296 0.1248 0.56445 0.0
H1648 H 0.81712 0.34115 0.31685 0.0
H1649 H 0.85467 0.35544 0.35059 0.0
H1650 H 0.83069 0.29168 0.40584 0.0
H1651 H 0.79262 0.27741 0.37229 0.0
H1652 H 0.84046 0.34056 0.43422 0.0
H1653 H 0.9314 0.31539 0.36457 0.0
H1654 H 0.9051 0.33675 0.34705 0.0
H1655 H 0.89546 0.30287 0.35742 0.0
C1656 C 0.81964 0.33026 0.33624 0.0
C1657 C 0.80191 0.30812 0.34182 0.0
C1658 C 0.84134 0.33824 0.35537 0.0
C1659 C 0.84603 0.32405 0.3803 0.0
C1660 C 0.82768 0.30263 0.38652 0.0
H1661 H 0.9974 0.39995 0.46426 0.0
H1662 H 0.96734 0.35978 0.45189 0.0
C1663 C 0.8058 0.29468 0.36741 0.0
C1664 C 0.86955 0.33258 0.40006 0.0
H1665 H 0.93982 0.35187 0.40031 0.0
C1666 C 0.86239 0.34234 0.42713 0.0
C1667 C 0.89844 0.33397 0.3913 0.0
C1668 C 0.90811 0.32135 0.3636 0.0
C1669 C 0.8826 0.3564 0.4443 0.0
C1670 C 0.91028 0.36125 0.43379 0.0
C1671 C 0.91843 0.34858 0.40819 0.0
C1672 C 0.92808 0.38402 0.44544 0.0
C1673 C 0.87355 0.36745 0.47282 0.0
C1674 C 0.91597 0.41072 0.44581 0.0
C1675 C 0.93293 0.43333 0.45235 0.0
C1676 C 0.96254 0.4299 0.45861 0.0
C1677 C 0.97464 0.40311 0.4594 0.0
C1678 C 0.95753 0.38025 0.45245 0.0
H1679 H 0.8582 0.35337 0.48229 0.0
H1680 H 0.89241 0.37024 0.48736 0.0
H1681 H 0.86226 0.38768 0.47052 0.0
H1682 H 0.89354 0.41425 0.43977 0.0
H1683 H 0.92283 0.45367 0.45198 0.0
H1684 H 0.72046 0.85251 0.25391 0.0
H1685 H 0.69173 0.89108 0.2748 0.0
H1686 H 0.6532 0.835 0.33055 0.0
H1687 H 0.68107 0.79691 0.30957 0.0
H1688 H 0.61339 0.8712 0.31126 0.0
H1689 H 0.71014 0.92735 0.35102 0.0
H1690 H 0.70753 0.92108 0.31366 0.0
H1691 H 0.71253 0.89259 0.33647 0.0
C1692 C 0.70551 0.84845 0.27025 0.0
C1693 C 0.70318 0.82163 0.28009 0.0
C1694 C 0.68929 0.87056 0.28246 0.0
C1695 C 0.67055 0.86617 0.30475 0.0
C1696 C 0.66743 0.83914 0.31354 0.0
H1697 H 0.61379 0.95287 0.45042 0.0
H1698 H 0.63916 0.92997 0.41177 0.0
C1699 C 0.6835 0.81728 0.30146 0.0
C1700 C 0.65472 0.88924 0.32005 0.0
H1701 H 0.66498 0.94488 0.36506 0.0
C1702 C 0.62463 0.88759 0.32267 0.0
C1703 C 0.66931 0.91056 0.33523 0.0
C1704 C 0.70167 0.91305 0.33424 0.0
C1705 C 0.60902 0.90565 0.34087 0.0
C1706 C 0.6237 0.92659 0.35657 0.0
C1707 C 0.6536 0.92902 0.35298 0.0
C1708 C 0.60929 0.94367 0.37934 0.0
C1709 C 0.57724 0.90095 0.3444 0.0
C1710 C 0.58439 0.96012 0.37421 0.0
C1711 C 0.5695 0.97332 0.39658 0.0
C1712 C 0.5793 0.97047 0.42457 0.0
C1713 C 0.60525 0.95542 0.4293 0.0
C1714 C 0.61996 0.94227 0.40708 0.0
H1715 H 0.57059 0.88063 0.33531 0.0
H1716 H 0.57162 0.90206 0.36696 0.0
H1717 H 0.56452 0.91719 0.33352 0.0
H1718 H 0.57601 0.96221 0.35298 0.0
H1719 H 0.54969 0.98473 0.39202 0.0
H1720 H 0.23491 0.70886 0.3672 0.0
H1721 H 0.20653 0.68147 0.39841 0.0
H1722 H 0.12833 0.70682 0.35473 0.0
H1723 H 0.15651 0.73425 0.32353 0.0
H1724 H 0.12644 0.70448 0.41747 0.0
H1725 H 0.1691 0.60982 0.36147 0.0
H1726 H 0.19494 0.63404 0.37553 0.0
H1727 H 0.17123 0.64359 0.34705 0.0
C1728 C 0.21162 0.70895 0.36464 0.0
C1729 C 0.1978 0.72328 0.34286 0.0
C1730 C 0.19552 0.69335 0.3824 0.0
C1731 C 0.16551 0.69203 0.37854 0.0
C1732 C 0.15153 0.70768 0.35791 0.0
H1733 H 0.03639 0.57611 0.40746 0.0
H1734 H 0.07092 0.60826 0.38978 0.0
C1735 C 0.16761 0.72321 0.3401 0.0
C1736 C 0.14884 0.6723 0.39393 0.0
H1737 H 0.13436 0.60387 0.39571 0.0
C1738 C 0.12834 0.68244 0.41308 0.0
C1739 C 0.15138 0.64368 0.38773 0.0
C1740 C 0.17269 0.63197 0.36672 0.0
C1741 C 0.10978 0.66455 0.42593 0.0
C1742 C 0.112 0.636 0.41932 0.0
C1743 C 0.13291 0.62584 0.40064 0.0
C1744 C 0.09164 0.61646 0.43025 0.0
C1745 C 0.08723 0.67628 0.44564 0.0
C1746 C 0.09238 0.61029 0.45873 0.0
C1747 C 0.07283 0.59187 0.46889 0.0
C1748 C 0.05217 0.57945 0.45069 0.0
C1749 C 0.05189 0.58541 0.42204 0.0
C1750 C 0.07156 0.60374 0.4119 0.0
H1751 H 0.08569 0.69914 0.44538 0.0
H1752 H 0.06574 0.6678 0.43999 0.0
H1753 H 0.09282 0.67025 0.46739 0.0
H1754 H 0.10808 0.61968 0.47304 0.0
H1755 H 0.07387 0.58748 0.49102 0.0
H1756 H 0.34113 0.2189 0.26385 0.0
H1757 H 0.37143 0.1812 0.28286 0.0
H1758 H 0.32003 0.18278 0.35721 0.0
H1759 H 0.28993 0.22012 0.33844 0.0
H1760 H 0.40362 0.18245 0.33677 0.0
H1761 H 0.32265 0.10018 0.33063 0.0
H1762 H 0.31947 0.13071 0.31004 0.0
H1763 H 0.30956 0.13212 0.34633 0.0
C1764 C 0.33618 0.21096 0.2841 0.0
C1765 C 0.31309 0.2224 0.29961 0.0
C1766 C 0.35355 0.18951 0.29499 0.0
C1767 C 0.34782 0.17889 0.32135 0.0
C1768 C 0.32466 0.19028 0.33668 0.0
H1769 H 0.40748 0.07709 0.45096 0.0
H1770 H 0.38176 0.10319 0.41522 0.0
C1771 C 0.30756 0.21178 0.32598 0.0
C1772 C 0.36646 0.15673 0.33374 0.0
H1773 H 0.36345 0.09283 0.36139 0.0
C1774 C 0.39509 0.16261 0.34169 0.0
C1775 C 0.35532 0.13086 0.34016 0.0
C1776 C 0.32514 0.12289 0.33114 0.0
C1777 C 0.41223 0.14407 0.35743 0.0
C1778 C 0.40065 0.11861 0.36494 0.0
C1779 C 0.37244 0.11225 0.35574 0.0
C1780 C 0.41595 0.09992 0.38503 0.0
C1781 C 0.44194 0.15267 0.36736 0.0
C1782 C 0.44351 0.08825 0.37976 0.0
C1783 C 0.45849 0.07313 0.40041 0.0
C1784 C 0.44615 0.0694 0.42672 0.0
C1785 C 0.41787 0.07972 0.43112 0.0
C1786 C 0.40303 0.09469 0.4106 0.0
H1787 H 0.44541 0.17495 0.36445 0.0
H1788 H 0.44547 0.14833 0.38993 0.0
H1789 H 0.45843 0.14077 0.35518 0.0
H1790 H 0.45375 0.0914 0.35996 0.0
H1791 H 0.48019 0.06554 0.39628 0.0
H1792 H 0.72579 0.80866 0.67835 0.0
H1793 H 0.6967 0.84628 0.6589 0.0
H1794 H 0.64574 0.85095 0.73356 0.0
H1795 H 0.67511 0.81293 0.75333 0.0
H1796 H 0.6131 0.84974 0.67973 0.0
H1797 H 0.69698 0.92927 0.6835 0.0
H1798 H 0.70893 0.89669 0.66837 0.0
H1799 H 0.69926 0.89914 0.70472 0.0
C1800 C 0.70847 0.81771 0.69076 0.0
C1801 C 0.70281 0.80781 0.71743 0.0
C1802 C 0.69194 0.83939 0.67965 0.0
C1803 C 0.66918 0.85176 0.69483 0.0
C1804 C 0.6633 0.84188 0.7215 0.0
H1805 H 0.54044 0.96785 0.61803 0.0
H1806 H 0.566 0.94152 0.65454 0.0
C1807 C 0.68013 0.82023 0.73282 0.0
C1808 C 0.65121 0.8742 0.68198 0.0
H1809 H 0.6564 0.93715 0.6526 0.0
C1810 C 0.62233 0.86911 0.67427 0.0
C1811 C 0.66324 0.89948 0.6748 0.0
C1812 C 0.69373 0.90667 0.68348 0.0
C1813 C 0.60579 0.8878 0.65809 0.0
C1814 C 0.61824 0.91262 0.64986 0.0
C1815 C 0.64672 0.91822 0.65878 0.0
C1816 C 0.60345 0.93142 0.62946 0.0
C1817 C 0.57573 0.87996 0.64852 0.0
C1818 C 0.61647 0.93593 0.60375 0.0
C1819 C 0.60213 0.95118 0.58311 0.0
C1820 C 0.57426 0.96256 0.58748 0.0
C1821 C 0.56184 0.95947 0.61388 0.0
C1822 C 0.57631 0.94406 0.63466 0.0
H1823 H 0.57153 0.85789 0.65188 0.0
H1824 H 0.55972 0.89257 0.66061 0.0
H1825 H 0.57219 0.884 0.62589 0.0
H1826 H 0.63742 0.92669 0.59916 0.0
H1827 H 0.61259 0.95324 0.56321 0.0
H1828 H 0.70701 0.25473 0.39646 0.0
H1829 H 0.6924 0.22982 0.43769 0.0
H1830 H 0.66988 0.16007 0.38347 0.0
H1831 H 0.68585 0.18416 0.34294 0.0
H1832 H 0.64413 0.21306 0.45272 0.0
H1833 H 0.71125 0.11968 0.44264 0.0
H1834 H 0.71874 0.14984 0.42312 0.0
H1835 H 0.69471 0.12383 0.40876 0.0
C1836 C 0.69911 0.23398 0.39359 0.0
C1837 C 0.69752 0.22121 0.36671 0.0
C1838 C 0.69099 0.21973 0.41709 0.0
C1839 C 0.68099 0.19267 0.41387 0.0
C1840 C 0.67882 0.18036 0.38679 0.0
H1841 H 0.53714 0.12309 0.45504 0.0
H1842 H 0.57723 0.15391 0.4508 0.0
C1843 C 0.68745 0.19431 0.36352 0.0
C1844 C 0.66969 0.17796 0.43788 0.0
H1845 H 0.65984 0.11186 0.45622 0.0
C1846 C 0.64827 0.19108 0.45424 0.0
C1847 C 0.67603 0.14964 0.44146 0.0
C1848 C 0.70177 0.13516 0.42826 0.0
C1849 C 0.63009 0.17571 0.47047 0.0
C1850 C 0.63259 0.14659 0.46896 0.0
C1851 C 0.65692 0.1341 0.45642 0.0
C1852 C 0.60783 0.12902 0.47473 0.0
C1853 C 0.60737 0.19076 0.48766 0.0
C1854 C 0.6118 0.10402 0.48849 0.0
C1855 C 0.58906 0.08571 0.48975 0.0
C1856 C 0.56195 0.09238 0.47772 0.0
C1857 C 0.55783 0.11756 0.46457 0.0
C1858 C 0.58065 0.13545 0.46265 0.0
H1859 H 0.61661 0.2094 0.49827 0.0
H1860 H 0.58952 0.19787 0.47356 0.0
H1861 H 0.59849 0.17758 0.50383 0.0
H1862 H 0.6326 0.09845 0.49774 0.0
H1863 H 0.59256 0.06651 0.50037 0.0
H1864 H 0.79607 0.66644 0.28407 0.0
H1865 H 0.81723 0.63523 0.31888 0.0
H1866 H 0.79231 0.6927 0.38563 0.0
H1867 H 0.77093 0.72342 0.35129 0.0
H1868 H 0.8624 0.6532 0.35176 0.0
H1869 H 0.77514 0.61952 0.41934 0.0
H1870 H 0.76815 0.63331 0.38506 0.0
H1871 H 0.77439 0.6561 0.41508 0.0
C1872 C 0.79441 0.67187 0.30622 0.0
C1873 C 0.78224 0.69729 0.31513 0.0
C1874 C 0.80641 0.65413 0.32603 0.0
C1875 C 0.80605 0.66163 0.35479 0.0
C1876 C 0.79225 0.68626 0.36363 0.0
H1877 H 0.94462 0.61725 0.47078 0.0
H1878 H 0.90586 0.64434 0.44801 0.0
C1879 C 0.78034 0.70392 0.34395 0.0
C1880 C 0.82409 0.64641 0.37511 0.0
H1881 H 0.82347 0.61615 0.43863 0.0
C1882 C 0.85387 0.64484 0.37062 0.0
C1883 C 0.81281 0.63578 0.39972 0.0
C1884 C 0.78082 0.63601 0.40499 0.0
C1885 C 0.87285 0.63309 0.39024 0.0
C1886 C 0.86173 0.62328 0.41533 0.0
C1887 C 0.83188 0.62443 0.41969 0.0
C1888 C 0.88067 0.6088 0.43542 0.0
C1889 C 0.90457 0.63073 0.38365 0.0
C1890 C 0.87804 0.58032 0.43743 0.0
C1891 C 0.89991 0.56497 0.45034 0.0
C1892 C 0.92467 0.57794 0.46144 0.0
C1893 C 0.92583 0.60681 0.46214 0.0
C1894 C 0.90384 0.62223 0.44911 0.0
H1895 H 0.90861 0.6344 0.3612 0.0
H1896 H 0.91655 0.64629 0.39661 0.0
H1897 H 0.91347 0.61001 0.38869 0.0
H1898 H 0.86018 0.56969 0.42715 0.0
H1899 H 0.89825 0.54273 0.4501 0.0
H1900 H 0.33973 0.83134 0.28554 0.0
H1901 H 0.36964 0.85687 0.31952 0.0
H1902 H 0.32269 0.82396 0.38744 0.0
H1903 H 0.29206 0.7985 0.35347 0.0
H1904 H 0.33087 0.88086 0.3931 0.0
H1905 H 0.43352 0.8249 0.36982 0.0
H1906 H 0.41594 0.83787 0.33888 0.0
H1907 H 0.39879 0.81199 0.35844 0.0
C1908 C 0.33576 0.8293 0.30768 0.0
C1909 C 0.31356 0.81269 0.31676 0.0
C1910 C 0.35301 0.84386 0.32708 0.0
C1911 C 0.34864 0.84192 0.35595 0.0
C1912 C 0.32645 0.82554 0.3652 0.0
H1913 H 0.47872 0.90771 0.47224 0.0
H1914 H 0.44252 0.87804 0.44982 0.0
C1915 C 0.30907 0.81096 0.34576 0.0
C1916 C 0.36704 0.85758 0.37624 0.0
H1917 H 0.43744 0.86842 0.3946 0.0
C1918 C 0.35415 0.87797 0.39376 0.0
C1919 C 0.39732 0.85341 0.37732 0.0
C1920 C 0.4122 0.83066 0.36032 0.0
C1921 C 0.37097 0.89514 0.41153 0.0
C1922 C 0.40139 0.89208 0.41125 0.0
C1923 C 0.41412 0.87094 0.39456 0.0
C1924 C 0.42073 0.91084 0.42748 0.0
C1925 C 0.35604 0.91632 0.4304 0.0
C1926 C 0.4202 0.93924 0.42269 0.0
C1927 C 0.44078 0.95633 0.43565 0.0
C1928 C 0.46253 0.94511 0.45311 0.0
C1929 C 0.4625 0.91683 0.45847 0.0
C1930 C 0.44176 0.89988 0.44582 0.0
H1931 H 0.33356 0.91042 0.43461 0.0
H1932 H 0.36793 0.91915 0.45076 0.0
H1933 H 0.35503 0.93639 0.41993 0.0
H1934 H 0.40455 0.94802 0.40813 0.0
H1935 H 0.44035 0.97806 0.43117 0.0
H1936 H 0.26448 0.35593 0.33853 0.0
H1937 H 0.24212 0.3911 0.36993 0.0
H1938 H 0.16448 0.38964 0.31838 0.0
H1939 H 0.18654 0.35444 0.28705 0.0
H1940 H 0.19419 0.44751 0.34391 0.0
H1941 H 0.1646 0.36477 0.4157 0.0
H1942 H 0.19947 0.36428 0.39953 0.0
H1943 H 0.16777 0.35735 0.37849 0.0
C1944 C 0.24284 0.36351 0.33365 0.0
C1945 C 0.22712 0.35245 0.3105 0.0
C1946 C 0.23017 0.38354 0.35155 0.0
C1947 C 0.20174 0.39281 0.34637 0.0
C1948 C 0.18651 0.38273 0.32256 0.0
H1949 H 0.06102 0.4885 0.40071 0.0
H1950 H 0.1032 0.46906 0.37718 0.0
C1951 C 0.1991 0.36264 0.30475 0.0
C1952 C 0.18671 0.4111 0.36693 0.0
H1953 H 0.1438 0.40874 0.42391 0.0
C1954 C 0.18354 0.43924 0.36172 0.0
C1955 C 0.17323 0.40017 0.39025 0.0
C1956 C 0.17629 0.37 0.39656 0.0
C1957 C 0.16603 0.45662 0.37867 0.0
C1958 C 0.15082 0.44528 0.40081 0.0
C1959 C 0.15543 0.41742 0.40693 0.0
C1960 C 0.12735 0.46074 0.4155 0.0
C1961 C 0.16357 0.48681 0.37234 0.0
C1962 C 0.12674 0.46244 0.44498 0.0
C1963 C 0.10235 0.47333 0.45861 0.0
C1964 C 0.07805 0.48238 0.44294 0.0
C1965 C 0.07927 0.48161 0.41345 0.0
C1966 C 0.10357 0.47078 0.39991 0.0
H1967 H 0.18364 0.49396 0.36284 0.0
H1968 H 0.14559 0.49006 0.35694 0.0
H1969 H 0.15918 0.49967 0.39157 0.0
H1970 H 0.14477 0.45456 0.45741 0.0
H1971 H 0.10212 0.47361 0.48135 0.0
H1972 H 0.29488 0.1774 0.75543 0.0
H1973 H 0.32518 0.14025 0.73426 0.0
H1974 H 0.36607 0.19962 0.6839 0.0
H1975 H 0.33691 0.23648 0.7057 0.0
H1976 H 0.32719 0.12191 0.68101 0.0
H1977 H 0.43605 0.15775 0.71017 0.0
H1978 H 0.40408 0.1722 0.72649 0.0
H1979 H 0.41571 0.18462 0.69344 0.0
C1980 C 0.31113 0.18259 0.74072 0.0
C1981 C 0.31401 0.21004 0.73289 0.0
C1982 C 0.32822 0.16128 0.72826 0.0
C1983 C 0.34858 0.16701 0.7078 0.0
C1984 C 0.35138 0.19451 0.70019 0.0
H1985 H 0.40591 0.07706 0.56294 0.0
H1986 H 0.37948 0.10011 0.6007 0.0
C1987 C 0.33446 0.21565 0.7126 0.0
C1988 C 0.36538 0.14446 0.69263 0.0
H1989 H 0.43283 0.12768 0.6685 0.0
C1990 C 0.35037 0.12295 0.67873 0.0
C1991 C 0.3958 0.14513 0.68993 0.0
C1992 C 0.41385 0.16601 0.70609 0.0
C1993 C 0.36453 0.10338 0.66094 0.0
C1994 C 0.39451 0.10562 0.65621 0.0
C1995 C 0.40982 0.12601 0.67157 0.0
C1996 C 0.40979 0.08879 0.63377 0.0
C1997 C 0.34701 0.0806 0.64725 0.0
C1998 C 0.43613 0.07463 0.6393 0.0
C1999 C 0.45171 0.06142 0.61737 0.0
C2000 C 0.44146 0.06235 0.58934 0.0
C2001 C 0.41463 0.07574 0.58415 0.0
C2002 C 0.39921 0.08886 0.60592 0.0
H2003 H 0.32876 0.07528 0.66063 0.0
H2004 H 0.33768 0.08768 0.62702 0.0
H2005 H 0.36042 0.06171 0.64308 0.0
H2006 H 0.44499 0.07435 0.66052 0.0
H2007 H 0.47238 0.05164 0.62221 0.0
H2008 H 0.78629 0.31547 0.64976 0.0
H2009 H 0.81411 0.34232 0.61771 0.0
H2010 H 0.8924 0.32174 0.66386 0.0
H2011 H 0.86473 0.2948 0.69588 0.0
H2012 H 0.84542 0.38775 0.63864 0.0
H2013 H 0.91576 0.31235 0.58086 0.0
H2014 H 0.88325 0.30262 0.59791 0.0
H2015 H 0.91601 0.30786 0.61813 0.0
C2016 C 0.80952 0.31621 0.65264 0.0
C2017 C 0.82346 0.30333 0.67529 0.0
C2018 C 0.82532 0.33147 0.63435 0.0
C2019 C 0.85524 0.33374 0.63835 0.0
C2020 C 0.86937 0.31976 0.66017 0.0
H2021 H 0.9732 0.46089 0.61338 0.0
H2022 H 0.93953 0.42734 0.63014 0.0
C2023 C 0.85356 0.30458 0.67852 0.0
C2024 C 0.87117 0.35355 0.62229 0.0
H2025 H 0.93028 0.35959 0.58185 0.0
C2026 C 0.8637 0.3816 0.62584 0.0
C2027 C 0.89481 0.34534 0.60553 0.0
C2028 C 0.90282 0.31537 0.60012 0.0
C2029 C 0.88021 0.40185 0.61412 0.0
C2030 C 0.90484 0.3937 0.59877 0.0
C2031 C 0.9115 0.36563 0.59399 0.0
C2032 C 0.92465 0.41411 0.58856 0.0
C2033 C 0.87157 0.43181 0.61865 0.0
C2034 C 0.92742 0.41737 0.55969 0.0
C2035 C 0.9465 0.4365 0.55006 0.0
C2036 C 0.96334 0.45241 0.56922 0.0
C2037 C 0.96055 0.44893 0.59816 0.0
C2038 C 0.94129 0.42991 0.60775 0.0
H2039 H 0.84875 0.43432 0.62515 0.0
H2040 H 0.88554 0.44114 0.63546 0.0
H2041 H 0.87447 0.44335 0.59923 0.0
H2042 H 0.91477 0.40518 0.54466 0.0
H2043 H 0.94827 0.43856 0.5276 0.0
H2044 H 0.20192 0.68459 0.71129 0.0
H2045 H 0.16505 0.66909 0.67733 0.0
H2046 H 0.19997 0.72029 0.61484 0.0
H2047 H 0.23715 0.736 0.64864 0.0
H2048 H 0.12512 0.71035 0.64946 0.0
H2049 H 0.18741 0.64136 0.57556 0.0
H2050 H 0.19996 0.64787 0.6113 0.0
H2051 H 0.20146 0.6745 0.58631 0.0
C2052 C 0.20221 0.69219 0.69019 0.0
C2053 C 0.22248 0.71161 0.68274 0.0
C2054 C 0.18103 0.6834 0.67086 0.0
C2055 C 0.1798 0.69368 0.64372 0.0
C2056 C 0.20072 0.71205 0.63569 0.0
H2057 H 0.05129 0.61967 0.5271 0.0
H2058 H 0.08451 0.65634 0.5426 0.0
C2059 C 0.22198 0.72091 0.65504 0.0
C2060 C 0.15543 0.6862 0.62471 0.0
H2061 H 0.13686 0.6416 0.57087 0.0
C2062 C 0.12767 0.69575 0.63188 0.0
C2063 C 0.15898 0.66763 0.60153 0.0
C2064 C 0.18849 0.65707 0.59305 0.0
C2065 C 0.10312 0.68562 0.61768 0.0
C2066 C 0.1065 0.66513 0.59616 0.0
C2067 C 0.13436 0.65734 0.58741 0.0
C2068 C 0.08225 0.6476 0.58674 0.0
C2069 C 0.0737 0.69589 0.62677 0.0
C2070 C 0.0696 0.63112 0.60646 0.0
C2071 C 0.05119 0.61015 0.59768 0.0
C2072 C 0.04488 0.60541 0.56903 0.0
C2073 C 0.05573 0.62316 0.54934 0.0
C2074 C 0.0747 0.64398 0.55814 0.0
H2075 H 0.07455 0.71744 0.63534 0.0
H2076 H 0.05772 0.69494 0.60906 0.0
H2077 H 0.06614 0.68284 0.64368 0.0
H2078 H 0.07556 0.63318 0.62855 0.0
H2079 H 0.04312 0.59663 0.6132 0.0
loop_
_geom_bond_atom_site_label_1
_geom_bond_atom_site_label_2
_geom_bond_distance
_geom_bond_site_symmetry_2
_ccdc_geom_bond_type
Tb0 O3 2.453 . S
Tb0 O4 2.596 . S
Tb0 O5 2.374 . S
Tb0 O13 2.343 . S
Tb0 O15 2.353 . S
Tb0 O17 2.427 . S
Tb0 O18 2.513 . S
C1 O5 1.251 . S
C1 O7 1.263 . S
Tb2 O4 2.343 . S
Tb2 O7 2.353 . S
Tb2 O10 2.427 . S
Tb2 O11 2.513 . S
Tb2 O12 2.453 . S
Tb2 O13 2.596 . S
Tb2 O14 2.374 . S
O3 Tb0 2.453 . S
O3 C19 1.245 . S
O4 Tb0 2.596 . S
O4 Tb2 2.343 . S
O4 C19 1.259 . S
O5 Tb0 2.374 . S
O5 C1 1.251 . S
C6 O10 1.275 . S
C6 O11 1.246 . S
O7 C1 1.263 . S
O7 Tb2 2.353 . S
C8 O12 1.245 . S
C8 O13 1.259 . S
C9 O14 1.250 . S
C9 O15 1.263 . S
O10 Tb2 2.427 . S
O10 C6 1.275 . S
O11 Tb2 2.513 . S
O11 C6 1.246 . S
O12 Tb2 2.453 . S
O12 C8 1.245 . S
O13 Tb0 2.343 . S
O13 Tb2 2.596 . S
O13 C8 1.259 . S
O14 Tb2 2.374 . S
O14 C9 1.250 . S
O15 Tb0 2.353 . S
O15 C9 1.263 . S
C16 O17 1.275 . S
C16 O18 1.246 . S
O17 Tb0 2.427 . S
O17 C16 1.275 . S
O18 Tb0 2.513 . S
O18 C16 1.246 . S
C19 O3 1.245 . S
C19 O4 1.259 . S
Tb20 O23 2.453 . S
Tb20 O24 2.596 . S
Tb20 O25 2.374 . S
Tb20 O33 2.343 . S
Tb20 O35 2.353 . S
Tb20 O37 2.427 . S
Tb20 O38 2.513 . S
C21 O25 1.251 . S
C21 O27 1.263 . S
Tb22 O24 2.343 . S
Tb22 O27 2.353 . S
Tb22 O30 2.427 . S
Tb22 O31 2.513 . S
Tb22 O32 2.453 . S
Tb22 O33 2.596 . S
Tb22 O34 2.374 . S
O23 Tb20 2.453 . S
O23 C39 1.245 . S
O24 Tb20 2.596 . S
O24 Tb22 2.343 . S
O24 C39 1.259 . S
O25 Tb20 2.374 . S
O25 C21 1.251 . S
C26 O30 1.275 . S
C26 O31 1.246 . S
O27 C21 1.263 . S
O27 Tb22 2.353 . S
C28 O32 1.245 . S
C28 O33 1.259 . S
C29 O34 1.250 . S
C29 O35 1.263 . S
O30 Tb22 2.427 . S
O30 C26 1.275 . S
O31 Tb22 2.513 . S
O31 C26 1.246 . S
O32 Tb22 2.453 . S
O32 C28 1.245 . S
O33 Tb20 2.343 . S
O33 Tb22 2.596 . S
O33 C28 1.259 . S
O34 Tb22 2.374 . S
O34 C29 1.250 . S
O35 Tb20 2.353 . S
O35 C29 1.263 . S
C36 O37 1.275 . S
C36 O38 1.246 . S
O37 Tb20 2.427 . S
O37 C36 1.275 . S
O38 Tb20 2.513 . S
O38 C36 1.246 . S
C39 O23 1.245 . S
C39 O24 1.259 . S
Tb40 O43 2.453 . S
Tb40 O44 2.596 . S
Tb40 O45 2.374 . S
Tb40 O53 2.343 . S
Tb40 O55 2.353 . S
Tb40 O57 2.427 . S
Tb40 O58 2.513 . S
C41 O45 1.251 . S
C41 O47 1.263 . S
Tb42 O44 2.343 . S
Tb42 O47 2.353 . S
Tb42 O50 2.427 . S
Tb42 O51 2.513 . S
Tb42 O52 2.453 . S
Tb42 O53 2.596 . S
Tb42 O54 2.374 . S
O43 Tb40 2.453 . S
O43 C59 1.245 . S
O44 Tb40 2.596 . S
O44 Tb42 2.343 . S
O44 C59 1.259 . S
O45 Tb40 2.374 . S
O45 C41 1.251 . S
C46 O50 1.275 . S
C46 O51 1.246 . S
O47 C41 1.263 . S
O47 Tb42 2.353 . S
C48 O52 1.245 . S
C48 O53 1.259 . S
C49 O54 1.250 . S
C49 O55 1.263 . S
O50 Tb42 2.427 . S
O50 C46 1.275 . S
O51 Tb42 2.513 . S
O51 C46 1.246 . S
O52 Tb42 2.453 . S
O52 C48 1.245 . S
O53 Tb40 2.343 . S
O53 Tb42 2.596 . S
O53 C48 1.259 . S
O54 Tb42 2.374 . S
O54 C49 1.250 . S
O55 Tb40 2.353 . S
O55 C49 1.263 . S
C56 O57 1.275 . S
C56 O58 1.246 . S
O57 Tb40 2.427 . S
O57 C56 1.275 . S
O58 Tb40 2.513 . S
O58 C56 1.246 . S
C59 O43 1.245 . S
C59 O44 1.259 . S
Tb60 O63 2.453 . S
Tb60 O64 2.596 . S
Tb60 O65 2.374 . S
Tb60 O73 2.343 . S
Tb60 O75 2.353 . S
Tb60 O77 2.427 . S
Tb60 O78 2.513 . S
C61 O65 1.251 . S
C61 O67 1.263 . S
Tb62 O64 2.343 . S
Tb62 O67 2.353 . S
Tb62 O70 2.427 . S
Tb62 O71 2.513 . S
Tb62 O72 2.453 . S
Tb62 O73 2.596 . S
Tb62 O74 2.374 . S
O63 Tb60 2.453 . S
O63 C79 1.245 . S
O64 Tb60 2.596 . S
O64 Tb62 2.343 . S
O64 C79 1.259 . S
O65 Tb60 2.374 . S
O65 C61 1.251 . S
C66 O70 1.275 . S
C66 O71 1.246 . S
O67 C61 1.263 . S
O67 Tb62 2.353 . S
C68 O72 1.245 . S
C68 O73 1.259 . S
C69 O74 1.250 . S
C69 O75 1.263 . S
O70 Tb62 2.427 . S
O70 C66 1.275 . S
O71 Tb62 2.513 . S
O71 C66 1.246 . S
O72 Tb62 2.453 . S
O72 C68 1.245 . S
O73 Tb60 2.343 . S
O73 Tb62 2.596 . S
O73 C68 1.259 . S
O74 Tb62 2.374 . S
O74 C69 1.250 . S
O75 Tb60 2.353 . S
O75 C69 1.263 . S
C76 O77 1.275 . S
C76 O78 1.246 . S
O77 Tb60 2.427 . S
O77 C76 1.275 . S
O78 Tb60 2.513 . S
O78 C76 1.246 . S
C79 O63 1.245 . S
C79 O64 1.259 . S
Tb80 O83 2.453 . S
Tb80 O84 2.596 . S
Tb80 O85 2.374 . S
Tb80 O93 2.343 . S
Tb80 O95 2.353 . S
Tb80 O97 2.427 . S
Tb80 O98 2.513 . S
C81 O85 1.251 . S
C81 O87 1.263 . S
Tb82 O84 2.343 . S
Tb82 O87 2.353 . S
Tb82 O90 2.427 . S
Tb82 O91 2.513 . S
Tb82 O92 2.453 . S
Tb82 O93 2.596 . S
Tb82 O94 2.374 . S
O83 Tb80 2.453 . S
O83 C99 1.245 . S
O84 Tb80 2.596 . S
O84 Tb82 2.343 . S
O84 C99 1.259 . S
O85 Tb80 2.374 . S
O85 C81 1.251 . S
C86 O90 1.275 . S
C86 O91 1.246 . S
O87 C81 1.263 . S
O87 Tb82 2.353 . S
C88 O92 1.245 . S
C88 O93 1.259 . S
C89 O94 1.250 . S
C89 O95 1.263 . S
O90 Tb82 2.427 . S
O90 C86 1.275 . S
O91 Tb82 2.513 . S
O91 C86 1.246 . S
O92 Tb82 2.453 . S
O92 C88 1.245 . S
O93 Tb80 2.343 . S
O93 Tb82 2.596 . S
O93 C88 1.259 . S
O94 Tb82 2.374 . S
O94 C89 1.250 . S
O95 Tb80 2.353 . S
O95 C89 1.263 . S
C96 O97 1.275 . S
C96 O98 1.246 . S
O97 Tb80 2.427 . S
O97 C96 1.275 . S
O98 Tb80 2.513 . S
O98 C96 1.246 . S
C99 O83 1.245 . S
C99 O84 1.259 . S
Tb100 O103 2.453 . S
Tb100 O104 2.596 . S
Tb100 O105 2.374 . S
Tb100 O113 2.343 . S
Tb100 O115 2.353 . S
Tb100 O117 2.427 . S
Tb100 O118 2.513 . S
C101 O105 1.251 . S
C101 O107 1.263 . S
Tb102 O104 2.343 . S
Tb102 O107 2.353 . S
Tb102 O110 2.427 . S
Tb102 O111 2.513 . S
Tb102 O112 2.453 . S
Tb102 O113 2.596 . S
Tb102 O114 2.374 . S
O103 Tb100 2.453 . S
O103 C119 1.245 . S
O104 Tb100 2.596 . S
O104 Tb102 2.343 . S
O104 C119 1.259 . S
O105 Tb100 2.374 . S
O105 C101 1.251 . S
C106 O110 1.275 . S
C106 O111 1.246 . S
O107 C101 1.263 . S
O107 Tb102 2.353 . S
C108 O112 1.245 . S
C108 O113 1.259 . S
C109 O114 1.250 . S
C109 O115 1.263 . S
O110 Tb102 2.427 . S
O110 C106 1.275 . S
O111 Tb102 2.513 . S
O111 C106 1.246 . S
O112 Tb102 2.453 . S
O112 C108 1.245 . S
O113 Tb100 2.343 . S
O113 Tb102 2.596 . S
O113 C108 1.259 . S
O114 Tb102 2.374 . S
O114 C109 1.250 . S
O115 Tb100 2.353 . S
O115 C109 1.263 . S
C116 O117 1.275 . S
C116 O118 1.246 . S
O117 Tb100 2.427 . S
O117 C116 1.275 . S
O118 Tb100 2.513 . S
O118 C116 1.246 . S
C119 O103 1.245 . S
C119 O104 1.259 . S
Tb120 O123 2.453 . S
Tb120 O124 2.596 . S
Tb120 O125 2.374 . S
Tb120 O133 2.343 . S
Tb120 O135 2.353 . S
Tb120 O137 2.427 . S
Tb120 O138 2.513 . S
C121 O125 1.251 . S
C121 O127 1.263 . S
Tb122 O124 2.343 . S
Tb122 O127 2.353 . S
Tb122 O130 2.427 . S
Tb122 O131 2.513 . S
Tb122 O132 2.453 . S
Tb122 O133 2.596 . S
Tb122 O134 2.374 . S
O123 Tb120 2.453 . S
O123 C139 1.245 . S
O124 Tb120 2.596 . S
O124 Tb122 2.343 . S
O124 C139 1.259 . S
O125 Tb120 2.374 . S
O125 C121 1.251 . S
C126 O130 1.275 . S
C126 O131 1.246 . S
O127 C121 1.263 . S
O127 Tb122 2.353 . S
C128 O132 1.245 . S
C128 O133 1.259 . S
C129 O134 1.250 . S
C129 O135 1.263 . S
O130 Tb122 2.427 . S
O130 C126 1.275 . S
O131 Tb122 2.513 . S
O131 C126 1.246 . S
O132 Tb122 2.453 . S
O132 C128 1.245 . S
O133 Tb120 2.343 . S
O133 Tb122 2.596 . S
O133 C128 1.259 . S
O134 Tb122 2.374 . S
O134 C129 1.250 . S
O135 Tb120 2.353 . S
O135 C129 1.263 . S
C136 O137 1.275 . S
C136 O138 1.246 . S
O137 Tb120 2.427 . S
O137 C136 1.275 . S
O138 Tb120 2.513 . S
O138 C136 1.246 . S
C139 O123 1.245 . S
C139 O124 1.259 . S
Tb140 O143 2.453 . S
Tb140 O144 2.596 . S
Tb140 O145 2.374 . S
Tb140 O153 2.343 . S
Tb140 O155 2.353 . S
Tb140 O157 2.427 . S
Tb140 O158 2.513 . S
C141 O145 1.251 . S
C141 O147 1.263 . S
Tb142 O144 2.343 . S
Tb142 O147 2.353 . S
Tb142 O150 2.427 . S
Tb142 O151 2.513 . S
Tb142 O152 2.453 . S
Tb142 O153 2.596 . S
Tb142 O154 2.374 . S
O143 Tb140 2.453 . S
O143 C159 1.245 . S
O144 Tb140 2.596 . S
O144 Tb142 2.343 . S
O144 C159 1.259 . S
O145 Tb140 2.374 . S
O145 C141 1.251 . S
C146 O150 1.275 . S
C146 O151 1.246 . S
O147 C141 1.263 . S
O147 Tb142 2.353 . S
C148 O152 1.245 . S
C148 O153 1.259 . S
C149 O154 1.250 . S
C149 O155 1.263 . S
O150 Tb142 2.427 . S
O150 C146 1.275 . S
O151 Tb142 2.513 . S
O151 C146 1.246 . S
O152 Tb142 2.453 . S
O152 C148 1.245 . S
O153 Tb140 2.343 . S
O153 Tb142 2.596 . S
O153 C148 1.259 . S
O154 Tb142 2.374 . S
O154 C149 1.250 . S
O155 Tb140 2.353 . S
O155 C149 1.263 . S
C156 O157 1.275 . S
C156 O158 1.246 . S
O157 Tb140 2.427 . S
O157 C156 1.275 . S
O158 Tb140 2.513 . S
O158 C156 1.246 . S
C159 O143 1.245 . S
C159 O144 1.259 . S
Fe160 O161 1.886 1_455 S
Fe160 O164 1.715 . S
Fe160 O169 2.077 1_455 S
Fe160 O174 1.935 . S
Fe160 O180 2.077 1_455 S
Fe160 O189 1.935 . S
O161 Fe160 1.886 1_655 S
O161 Fe163 1.715 1_545 S
Fe162 O164 1.886 . S
Fe162 O165 1.715 1_545 S
Fe162 O172 1.935 1_545 S
Fe162 O173 2.077 . S
Fe162 O179 1.935 1_545 S
Fe162 O188 2.077 . S
Fe163 O161 1.715 1_565 S
Fe163 O166 1.886 . S
Fe163 O170 1.935 1_565 S
Fe163 O175 2.077 . S
Fe163 O181 1.935 1_565 S
Fe163 O185 2.077 . S
O164 Fe160 1.715 . S
O164 Fe162 1.886 . S
O165 Fe162 1.715 1_565 S
O165 Fe167 1.858 1_455 S
O166 Fe163 1.886 . S
O166 Fe167 1.746 . S
Fe167 O165 1.858 1_655 S
Fe167 O166 1.746 . S
Fe167 O171 2.050 1_655 S
Fe167 O176 1.957 . S
Fe167 O178 2.051 1_655 S
Fe167 O186 1.958 . S
C168 O180 1.381 . S
C168 O181 1.421 . S
O169 Fe160 2.077 1_655 S
O169 C182 1.381 . S
O170 Fe163 1.935 1_545 S
O170 C182 1.421 . S
O171 Fe167 2.050 1_455 S
O171 C187 1.381 . S
O172 Fe162 1.935 1_565 S
O172 C187 1.421 . S
O173 Fe162 2.077 . S
O173 C177 1.381 . S
O174 Fe160 1.935 . S
O174 C177 1.421 . S
O175 Fe163 2.077 . S
O175 C183 1.381 . S
O176 Fe167 1.957 . S
O176 C183 1.421 . S
C177 O173 1.381 . S
C177 O174 1.421 . S
O178 Fe167 2.051 1_455 S
O178 C190 1.381 . S
O179 Fe162 1.935 1_565 S
O179 C190 1.421 . S
O180 Fe160 2.077 1_655 S
O180 C168 1.381 . S
O181 Fe163 1.935 1_545 S
O181 C168 1.421 . S
C182 O169 1.381 . S
C182 O170 1.421 . S
C183 O175 1.381 . S
C183 O176 1.421 . S
C184 O185 1.381 . S
C184 O186 1.421 . S
O185 Fe163 2.077 . S
O185 C184 1.381 . S
O186 Fe167 1.958 . S
O186 C184 1.421 . S
C187 O171 1.381 . S
C187 O172 1.421 . S
O188 Fe162 2.077 . S
O188 C191 1.381 . S
O189 Fe160 1.935 . S
O189 C191 1.421 . S
C190 O178 1.381 . S
C190 O179 1.421 . S
C191 O188 1.381 . S
C191 O189 1.421 . S
Fe192 O193 1.888 1_556 S
Fe192 O196 1.716 . S
Fe192 O201 2.108 . S
Fe192 O206 1.970 . S
Fe192 O212 2.047 1_556 S
Fe192 O221 1.899 1_556 S
O193 Fe192 1.888 1_554 S
O193 Fe195 1.715 1_565 S
Fe194 O196 1.886 . S
Fe194 O197 1.715 1_565 S
Fe194 O204 1.935 1_565 S
Fe194 O205 2.077 . S
Fe194 O211 1.935 1_566 S
Fe194 O220 2.077 1_556 S
Fe195 O193 1.715 1_545 S
Fe195 O198 1.886 . S
Fe195 O202 1.935 1_544 S
Fe195 O207 2.077 1_554 S
Fe195 O213 1.935 1_545 S
Fe195 O217 2.077 . S
O196 Fe192 1.716 . S
O196 Fe194 1.886 . S
O197 Fe194 1.715 1_545 S
O197 Fe199 1.885 1_556 S
O198 Fe195 1.886 . S
O198 Fe199 1.715 . S
Fe199 O197 1.885 1_554 S
Fe199 O198 1.715 . S
Fe199 O203 2.077 1_554 S
Fe199 O208 1.935 1_554 S
Fe199 O210 2.077 . S
Fe199 O218 1.935 . S
C200 O212 1.381 . S
C200 O213 1.421 . S
O201 Fe192 2.108 . S
O201 C214 1.381 . S
O202 Fe195 1.935 1_566 S
O202 C214 1.421 . S
O203 Fe199 2.077 1_556 S
O203 C219 1.381 . S
O204 Fe194 1.935 1_545 S
O204 C219 1.421 . S
O205 Fe194 2.077 . S
O205 C209 1.381 . S
O206 Fe192 1.970 . S
O206 C209 1.421 . S
O207 Fe195 2.077 1_556 S
O207 C215 1.381 . S
O208 Fe199 1.935 1_556 S
O208 C215 1.421 . S
C209 O205 1.381 . S
C209 O206 1.421 . S
O210 Fe199 2.077 . S
O210 C222 1.381 . S
O211 Fe194 1.935 1_544 S
O211 C222 1.421 . S
O212 Fe192 2.047 1_554 S
O212 C200 1.381 . S
O213 Fe195 1.935 1_565 S
O213 C200 1.421 . S
C214 O201 1.381 . S
C214 O202 1.421 . S
C215 O207 1.381 . S
C215 O208 1.421 . S
C216 O217 1.381 . S
C216 O218 1.421 . S
O217 Fe195 2.077 . S
O217 C216 1.381 . S
O218 Fe199 1.935 . S
O218 C216 1.421 . S
C219 O203 1.381 . S
C219 O204 1.421 . S
O220 Fe194 2.077 1_554 S
O220 C223 1.381 . S
O221 Fe192 1.899 1_554 S
O221 C223 1.421 . S
C222 O210 1.381 . S
C222 O211 1.421 . S
C223 O220 1.381 . S
C223 O221 1.421 . S
Fe224 O225 1.885 1_454 S
Fe224 O228 1.715 . S
Fe224 O233 2.077 1_454 S
Fe224 O238 1.935 1_554 S
Fe224 O244 2.077 1_455 S
Fe224 O253 1.935 . S
O225 Fe224 1.885 1_656 S
O225 Fe227 1.715 . S
Fe226 O228 1.886 . S
Fe226 O229 1.715 . S
Fe226 O236 1.935 1_554 S
Fe226 O237 2.077 1_554 S
Fe226 O243 1.935 . S
Fe226 O252 2.077 . S
Fe227 O225 1.715 . S
Fe227 O230 1.886 . S
Fe227 O234 1.935 . S
Fe227 O239 2.077 . S
Fe227 O245 1.935 1_556 S
Fe227 O249 2.077 1_556 S
O228 Fe224 1.715 . S
O228 Fe226 1.886 . S
O229 Fe226 1.715 . S
O229 Fe231 1.860 1_454 S
O230 Fe227 1.886 . S
O230 Fe231 1.747 . S
Fe231 O229 1.860 1_656 S
Fe231 O230 1.747 . S
Fe231 O235 2.081 1_655 S
Fe231 O240 1.991 . S
Fe231 O242 2.021 1_656 S
Fe231 O250 1.923 1_556 S
C232 O244 1.381 . S
C232 O245 1.421 . S
O233 Fe224 2.077 1_656 S
O233 C246 1.381 . S
O234 Fe227 1.935 . S
O234 C246 1.421 . S
O235 Fe231 2.081 1_455 S
O235 C251 1.381 . S
O236 Fe226 1.935 1_556 S
O236 C251 1.421 . S
O237 Fe226 2.077 1_556 S
O237 C241 1.381 . S
O238 Fe224 1.935 1_556 S
O238 C241 1.421 . S
O239 Fe227 2.077 . S
O239 C247 1.381 . S
O240 Fe231 1.991 . S
O240 C247 1.421 . S
C241 O237 1.381 . S
C241 O238 1.421 . S
O242 Fe231 2.021 1_454 S
O242 C254 1.381 . S
O243 Fe226 1.935 . S
O243 C254 1.421 . S
O244 Fe224 2.077 1_655 S
O244 C232 1.381 . S
O245 Fe227 1.935 1_554 S
O245 C232 1.421 . S
C246 O233 1.381 . S
C246 O234 1.421 . S
C247 O239 1.381 . S
C247 O240 1.421 . S
C248 O249 1.381 . S
C248 O250 1.421 . S
O249 Fe227 2.077 1_554 S
O249 C248 1.381 . S
O250 Fe231 1.923 1_554 S
O250 C248 1.421 . S
C251 O235 1.381 . S
C251 O236 1.421 . S
O252 Fe226 2.077 . S
O252 C255 1.381 . S
O253 Fe224 1.935 . S
O253 C255 1.421 . S
C254 O242 1.381 . S
C254 O243 1.421 . S
C255 O252 1.381 . S
C255 O253 1.421 . S
Fe256 O257 1.886 . S
Fe256 O260 1.715 . S
Fe256 O265 2.077 . S
Fe256 O270 1.935 . S
Fe256 O276 2.077 . S
Fe256 O285 1.935 . S
O257 Fe256 1.886 . S
O257 Fe259 1.715 1_556 S
Fe258 O260 1.886 . S
Fe258 O261 1.715 1_556 S
Fe258 O268 1.935 1_556 S
Fe258 O269 2.077 . S
Fe258 O275 1.935 1_556 S
Fe258 O284 2.077 . S
Fe259 O257 1.715 1_554 S
Fe259 O262 1.886 . S
Fe259 O266 1.935 1_554 S
Fe259 O271 2.077 . S
Fe259 O277 1.935 1_554 S
Fe259 O281 2.077 . S
O260 Fe256 1.715 . S
O260 Fe258 1.886 . S
O261 Fe258 1.715 1_554 S
O261 Fe263 1.886 . S
O262 Fe259 1.886 . S
O262 Fe263 1.715 . S
Fe263 O261 1.886 . S
Fe263 O262 1.715 . S
Fe263 O267 2.077 . S
Fe263 O272 1.935 . S
Fe263 O274 2.077 . S
Fe263 O282 1.935 . S
C264 O276 1.381 . S
C264 O277 1.421 . S
O265 Fe256 2.077 . S
O265 C278 1.381 . S
O266 Fe259 1.935 1_556 S
O266 C278 1.421 . S
O267 Fe263 2.077 . S
O267 C283 1.381 . S
O268 Fe258 1.935 1_554 S
O268 C283 1.421 . S
O269 Fe258 2.077 . S
O269 C273 1.381 . S
O270 Fe256 1.935 . S
O270 C273 1.421 . S
O271 Fe259 2.077 . S
O271 C279 1.381 . S
O272 Fe263 1.935 . S
O272 C279 1.421 . S
C273 O269 1.381 . S
C273 O270 1.421 . S
O274 Fe263 2.077 . S
O274 C286 1.381 . S
O275 Fe258 1.935 1_554 S
O275 C286 1.421 . S
O276 Fe256 2.077 . S
O276 C264 1.381 . S
O277 Fe259 1.935 1_556 S
O277 C264 1.421 . S
C278 O265 1.381 . S
C278 O266 1.421 . S
C279 O271 1.381 . S
C279 O272 1.421 . S
C280 O281 1.381 . S
C280 O282 1.421 . S
O281 Fe259 2.077 . S
O281 C280 1.381 . S
O282 Fe263 1.935 . S
O282 C280 1.421 . S
C283 O267 1.381 . S
C283 O268 1.421 . S
O284 Fe258 2.077 . S
O284 C287 1.381 . S
O285 Fe256 1.935 . S
O285 C287 1.421 . S
C286 O274 1.381 . S
C286 O275 1.421 . S
C287 O284 1.381 . S
C287 O285 1.421 . S
Fe288 O289 1.886 . S
Fe288 O292 1.715 . S
Fe288 O297 2.077 1_655 S
Fe288 O302 1.935 1_655 S
Fe288 O308 2.077 . S
Fe288 O317 1.935 . S
O289 Fe288 1.886 . S
O289 Fe291 1.715 1_655 S
Fe290 O292 1.886 . S
Fe290 O293 1.716 1_655 S
Fe290 O300 1.935 1_655 S
Fe290 O301 2.077 1_655 S
Fe290 O307 1.935 . S
Fe290 O316 2.077 . S
Fe291 O289 1.715 1_455 S
Fe291 O294 1.886 . S
Fe291 O298 1.935 . S
Fe291 O303 2.077 . S
Fe291 O309 1.935 1_455 S
Fe291 O313 2.077 1_455 S
O292 Fe288 1.715 . S
O292 Fe290 1.886 . S
O293 Fe290 1.716 1_455 S
O293 Fe295 1.885 . S
O294 Fe291 1.886 . S
O294 Fe295 1.715 . S
Fe295 O293 1.885 . S
Fe295 O294 1.715 . S
Fe295 O299 2.077 . S
Fe295 O304 1.935 . S
Fe295 O306 2.077 1_455 S
Fe295 O314 1.935 1_455 S
C296 O308 1.381 . S
C296 O309 1.421 . S
O297 Fe288 2.077 1_455 S
O297 C310 1.381 . S
O298 Fe291 1.935 . S
O298 C310 1.421 . S
O299 Fe295 2.077 . S
O299 C315 1.381 . S
O300 Fe290 1.935 1_455 S
O300 C315 1.421 . S
O301 Fe290 2.077 1_455 S
O301 C305 1.381 . S
O302 Fe288 1.935 1_455 S
O302 C305 1.421 . S
O303 Fe291 2.077 . S
O303 C311 1.381 . S
O304 Fe295 1.935 . S
O304 C311 1.421 . S
C305 O301 1.381 . S
C305 O302 1.421 . S
O306 Fe295 2.077 1_655 S
O306 C318 1.381 . S
O307 Fe290 1.935 . S
O307 C318 1.421 . S
O308 Fe288 2.077 . S
O308 C296 1.381 . S
O309 Fe291 1.935 1_655 S
O309 C296 1.421 . S
C310 O297 1.381 . S
C310 O298 1.421 . S
C311 O303 1.381 . S
C311 O304 1.421 . S
C312 O313 1.381 . S
C312 O314 1.421 . S
O313 Fe291 2.077 1_655 S
O313 C312 1.381 . S
O314 Fe295 1.935 1_655 S
O314 C312 1.421 . S
C315 O299 1.381 . S
C315 O300 1.421 . S
O316 Fe290 2.077 . S
O316 C319 1.381 . S
O317 Fe288 1.935 . S
O317 C319 1.421 . S
C318 O306 1.381 . S
C318 O307 1.421 . S
C319 O316 1.381 . S
C319 O317 1.421 . S
Fe320 O321 1.886 . S
Fe320 O324 1.715 . S
Fe320 O329 2.077 . S
Fe320 O334 1.935 . S
Fe320 O340 2.077 . S
Fe320 O349 1.935 . S
O321 Fe320 1.886 . S
O321 Fe323 1.715 1_565 S
Fe322 O324 1.886 . S
Fe322 O325 1.715 1_565 S
Fe322 O332 1.935 1_565 S
Fe322 O333 2.077 . S
Fe322 O339 1.935 1_565 S
Fe322 O348 2.077 . S
Fe323 O321 1.715 1_545 S
Fe323 O326 1.886 . S
Fe323 O330 1.935 1_545 S
Fe323 O335 2.077 . S
Fe323 O341 1.935 1_545 S
Fe323 O345 2.077 . S
O324 Fe320 1.715 . S
O324 Fe322 1.886 . S
O325 Fe322 1.715 1_545 S
O325 Fe327 1.886 . S
O326 Fe323 1.886 . S
O326 Fe327 1.715 . S
Fe327 O325 1.886 . S
Fe327 O326 1.715 . S
Fe327 O331 2.077 . S
Fe327 O336 1.935 . S
Fe327 O338 2.077 . S
Fe327 O346 1.935 . S
C328 O340 1.381 . S
C328 O341 1.421 . S
O329 Fe320 2.077 . S
O329 C342 1.381 . S
O330 Fe323 1.935 1_565 S
O330 C342 1.421 . S
O331 Fe327 2.077 . S
O331 C347 1.381 . S
O332 Fe322 1.935 1_545 S
O332 C347 1.421 . S
O333 Fe322 2.077 . S
O333 C337 1.381 . S
O334 Fe320 1.935 . S
O334 C337 1.421 . S
O335 Fe323 2.077 . S
O335 C343 1.381 . S
O336 Fe327 1.935 . S
O336 C343 1.421 . S
C337 O333 1.381 . S
C337 O334 1.421 . S
O338 Fe327 2.077 . S
O338 C350 1.381 . S
O339 Fe322 1.935 1_545 S
O339 C350 1.421 . S
O340 Fe320 2.077 . S
O340 C328 1.381 . S
O341 Fe323 1.935 1_565 S
O341 C328 1.421 . S
C342 O329 1.381 . S
C342 O330 1.421 . S
C343 O335 1.381 . S
C343 O336 1.421 . S
C344 O345 1.381 . S
C344 O346 1.421 . S
O345 Fe323 2.077 . S
O345 C344 1.381 . S
O346 Fe327 1.935 . S
O346 C344 1.421 . S
C347 O331 1.381 . S
C347 O332 1.421 . S
O348 Fe322 2.077 . S
O348 C351 1.381 . S
O349 Fe320 1.935 . S
O349 C351 1.421 . S
C350 O338 1.381 . S
C350 O339 1.421 . S
C351 O348 1.381 . S
C351 O349 1.421 . S
H352 C360 0.929 . S
H353 C362 0.930 . S
H354 C364 0.930 . S
H355 C367 0.929 . S
H356 C370 0.930 . S
H357 C372 0.960 . S
H358 C372 0.960 . S
H359 C372 0.960 . S
C360 H352 0.929 . S
C360 C361 1.377 . S
C360 C362 1.384 . S
C361 C360 1.377 . S
C361 C367 1.390 . S
C362 H353 0.930 . S
C362 C360 1.384 . S
C362 C363 1.372 . S
C363 C362 1.372 . S
C363 C364 1.400 . S
C363 C368 1.490 . S
C364 H354 0.930 . S
C364 C363 1.400 . S
C364 C367 1.386 . S
H365 C381 0.930 . S
H366 C382 0.931 . S
C367 H355 0.929 . S
C367 C361 1.390 . S
C367 C364 1.386 . S
C368 C363 1.490 . S
C368 C370 1.395 . S
C368 C371 1.403 . S
H369 C375 0.930 . S
C370 H356 0.930 . S
C370 C368 1.395 . S
C370 C373 1.403 . S
C371 C368 1.403 . S
C371 C372 1.524 . S
C371 C375 1.400 . S
C372 H357 0.960 . S
C372 H358 0.960 . S
C372 H359 0.960 . S
C372 C371 1.524 . S
C373 C370 1.403 . S
C373 C374 1.392 . S
C373 C377 1.495 . S
C374 C373 1.392 . S
C374 C375 1.385 . S
C374 C376 1.478 . S
C375 H369 0.930 . S
C375 C371 1.400 . S
C375 C374 1.385 . S
C376 C374 1.478 . S
C376 C378 1.381 . S
C376 C382 1.383 . S
C377 C373 1.495 . S
C377 H383 0.959 . S
C377 H384 0.961 . S
C377 H385 0.960 . S
C378 C376 1.381 . S
C378 C379 1.394 . S
C378 H386 0.930 . S
C379 C378 1.394 . S
C379 C380 1.383 . S
C379 H387 0.929 . S
C380 C379 1.383 . S
C380 C381 1.377 . S
C381 H365 0.930 . S
C381 C380 1.377 . S
C381 C382 1.379 . S
C382 H366 0.931 . S
C382 C376 1.383 . S
C382 C381 1.379 . S
H383 C377 0.959 . S
H384 C377 0.961 . S
H385 C377 0.960 . S
H386 C378 0.930 . S
H387 C379 0.929 . S
H388 C396 0.929 . S
H389 C398 0.930 . S
H390 C400 0.930 . S
H391 C403 0.929 . S
H392 C406 0.930 . S
H393 C408 0.960 . S
H394 C408 0.960 . S
H395 C408 0.960 . S
C396 H388 0.929 . S
C396 C397 1.377 . S
C396 C398 1.384 . S
C397 C396 1.377 . S
C397 C403 1.390 . S
C398 H389 0.930 . S
C398 C396 1.384 . S
C398 C399 1.372 . S
C399 C398 1.372 . S
C399 C400 1.400 . S
C399 C404 1.490 . S
C400 H390 0.930 . S
C400 C399 1.400 . S
C400 C403 1.386 . S
H401 C417 0.930 . S
H402 C418 0.931 . S
C403 H391 0.929 . S
C403 C397 1.390 . S
C403 C400 1.386 . S
C404 C399 1.490 . S
C404 C406 1.395 . S
C404 C407 1.403 . S
H405 C411 0.930 . S
C406 H392 0.930 . S
C406 C404 1.395 . S
C406 C409 1.403 . S
C407 C404 1.403 . S
C407 C408 1.524 . S
C407 C411 1.400 . S
C408 H393 0.960 . S
C408 H394 0.960 . S
C408 H395 0.960 . S
C408 C407 1.524 . S
C409 C406 1.403 . S
C409 C410 1.392 . S
C409 C413 1.495 . S
C410 C409 1.392 . S
C410 C411 1.385 . S
C410 C412 1.478 . S
C411 H405 0.930 . S
C411 C407 1.400 . S
C411 C410 1.385 . S
C412 C410 1.478 . S
C412 C414 1.381 . S
C412 C418 1.383 . S
C413 C409 1.495 . S
C413 H419 0.959 . S
C413 H420 0.961 . S
C413 H421 0.960 . S
C414 C412 1.381 . S
C414 C415 1.394 . S
C414 H422 0.930 . S
C415 C414 1.394 . S
C415 C416 1.383 . S
C415 H423 0.929 . S
C416 C415 1.383 . S
C416 C417 1.377 . S
C417 H401 0.930 . S
C417 C416 1.377 . S
C417 C418 1.379 . S
C418 H402 0.931 . S
C418 C412 1.383 . S
C418 C417 1.379 . S
H419 C413 0.959 . S
H420 C413 0.961 . S
H421 C413 0.960 . S
H422 C414 0.930 . S
H423 C415 0.929 . S
H424 C432 0.929 . S
H425 C434 0.930 . S
H426 C436 0.930 . S
H427 C439 0.929 . S
H428 C442 0.930 . S
H429 C444 0.960 . S
H430 C444 0.960 . S
H431 C444 0.960 . S
C432 H424 0.929 . S
C432 C433 1.377 . S
C432 C434 1.384 . S
C433 C432 1.377 . S
C433 C439 1.390 . S
C434 H425 0.930 . S
C434 C432 1.384 . S
C434 C435 1.372 . S
C435 C434 1.372 . S
C435 C436 1.400 . S
C435 C440 1.490 . S
C436 H426 0.930 . S
C436 C435 1.400 . S
C436 C439 1.386 . S
H437 C453 0.930 . S
H438 C454 0.931 . S
C439 H427 0.929 . S
C439 C433 1.390 . S
C439 C436 1.386 . S
C440 C435 1.490 . S
C440 C442 1.395 . S
C440 C443 1.403 . S
H441 C447 0.930 . S
C442 H428 0.930 . S
C442 C440 1.395 . S
C442 C445 1.403 . S
C443 C440 1.403 . S
C443 C444 1.524 . S
C443 C447 1.400 . S
C444 H429 0.960 . S
C444 H430 0.960 . S
C444 H431 0.960 . S
C444 C443 1.524 . S
C445 C442 1.403 . S
C445 C446 1.392 . S
C445 C449 1.495 . S
C446 C445 1.392 . S
C446 C447 1.385 . S
C446 C448 1.478 . S
C447 H441 0.930 . S
C447 C443 1.400 . S
C447 C446 1.385 . S
C448 C446 1.478 . S
C448 C450 1.381 . S
C448 C454 1.383 . S
C449 C445 1.495 . S
C449 H455 0.959 . S
C449 H456 0.961 . S
C449 H457 0.960 . S
C450 C448 1.381 . S
C450 C451 1.394 . S
C450 H458 0.930 . S
C451 C450 1.394 . S
C451 C452 1.383 . S
C451 H459 0.929 . S
C452 C451 1.383 . S
C452 C453 1.377 . S
C453 H437 0.930 . S
C453 C452 1.377 . S
C453 C454 1.379 . S
C454 H438 0.931 . S
C454 C448 1.383 . S
C454 C453 1.379 . S
H455 C449 0.959 . S
H456 C449 0.961 . S
H457 C449 0.960 . S
H458 C450 0.930 . S
H459 C451 0.929 . S
H460 C468 0.929 . S
H461 C470 0.930 . S
H462 C472 0.930 . S
H463 C475 0.929 . S
H464 C478 0.930 . S
H465 C480 0.960 . S
H466 C480 0.960 . S
H467 C480 0.960 . S
C468 H460 0.929 . S
C468 C469 1.377 . S
C468 C470 1.384 . S
C469 C468 1.377 . S
C469 C475 1.390 . S
C470 H461 0.930 . S
C470 C468 1.384 . S
C470 C471 1.372 . S
C471 C470 1.372 . S
C471 C472 1.400 . S
C471 C476 1.490 . S
C472 H462 0.930 . S
C472 C471 1.400 . S
C472 C475 1.386 . S
H473 C489 0.930 . S
H474 C490 0.931 . S
C475 H463 0.929 . S
C475 C469 1.390 . S
C475 C472 1.386 . S
C476 C471 1.490 . S
C476 C478 1.395 . S
C476 C479 1.403 . S
H477 C483 0.930 . S
C478 H464 0.930 . S
C478 C476 1.395 . S
C478 C481 1.403 . S
C479 C476 1.403 . S
C479 C480 1.524 . S
C479 C483 1.400 . S
C480 H465 0.960 . S
C480 H466 0.960 . S
C480 H467 0.960 . S
C480 C479 1.524 . S
C481 C478 1.403 . S
C481 C482 1.392 . S
C481 C485 1.495 . S
C482 C481 1.392 . S
C482 C483 1.385 . S
C482 C484 1.478 . S
C483 H477 0.930 . S
C483 C479 1.400 . S
C483 C482 1.385 . S
C484 C482 1.478 . S
C484 C486 1.381 . S
C484 C490 1.383 . S
C485 C481 1.495 . S
C485 H491 0.959 . S
C485 H492 0.961 . S
C485 H493 0.960 . S
C486 C484 1.381 . S
C486 C487 1.394 . S
C486 H494 0.930 . S
C487 C486 1.394 . S
C487 C488 1.383 . S
C487 H495 0.929 . S
C488 C487 1.383 . S
C488 C489 1.377 . S
C489 H473 0.930 . S
C489 C488 1.377 . S
C489 C490 1.379 . S
C490 H474 0.931 . S
C490 C484 1.383 . S
C490 C489 1.379 . S
H491 C485 0.959 . S
H492 C485 0.961 . S
H493 C485 0.960 . S
H494 C486 0.930 . S
H495 C487 0.929 . S
H496 C504 0.929 . S
H497 C506 0.930 . S
H498 C508 0.930 . S
H499 C511 0.929 . S
H500 C514 0.930 . S
H501 C516 0.960 . S
H502 C516 0.960 . S
H503 C516 0.960 . S
C504 H496 0.929 . S
C504 C505 1.377 . S
C504 C506 1.384 . S
C505 C504 1.377 . S
C505 C511 1.390 . S
C506 H497 0.930 . S
C506 C504 1.384 . S
C506 C507 1.372 . S
C507 C506 1.372 . S
C507 C508 1.400 . S
C507 C512 1.490 . S
C508 H498 0.930 . S
C508 C507 1.400 . S
C508 C511 1.386 . S
H509 C525 0.930 . S
H510 C526 0.931 . S
C511 H499 0.929 . S
C511 C505 1.390 . S
C511 C508 1.386 . S
C512 C507 1.490 . S
C512 C514 1.395 . S
C512 C515 1.403 . S
H513 C519 0.930 . S
C514 H500 0.930 . S
C514 C512 1.395 . S
C514 C517 1.403 . S
C515 C512 1.403 . S
C515 C516 1.524 . S
C515 C519 1.400 . S
C516 H501 0.960 . S
C516 H502 0.960 . S
C516 H503 0.960 . S
C516 C515 1.524 . S
C517 C514 1.403 . S
C517 C518 1.392 . S
C517 C521 1.495 . S
C518 C517 1.392 . S
C518 C519 1.385 . S
C518 C520 1.478 . S
C519 H513 0.930 . S
C519 C515 1.400 . S
C519 C518 1.385 . S
C520 C518 1.478 . S
C520 C522 1.381 . S
C520 C526 1.383 . S
C521 C517 1.495 . S
C521 H527 0.959 . S
C521 H528 0.961 . S
C521 H529 0.960 . S
C522 C520 1.381 . S
C522 C523 1.394 . S
C522 H530 0.930 . S
C523 C522 1.394 . S
C523 C524 1.383 . S
C523 H531 0.929 . S
C524 C523 1.383 . S
C524 C525 1.377 . S
C525 H509 0.930 . S
C525 C524 1.377 . S
C525 C526 1.379 . S
C526 H510 0.931 . S
C526 C520 1.383 . S
C526 C525 1.379 . S
H527 C521 0.959 . S
H528 C521 0.961 . S
H529 C521 0.960 . S
H530 C522 0.930 . S
H531 C523 0.929 . S
H532 C540 0.929 . S
H533 C542 0.930 . S
H534 C544 0.930 . S
H535 C547 0.929 . S
H536 C550 0.930 . S
H537 C552 0.960 . S
H538 C552 0.960 . S
H539 C552 0.960 . S
C540 H532 0.929 . S
C540 C541 1.377 . S
C540 C542 1.384 . S
C541 C540 1.377 . S
C541 C547 1.390 . S
C542 H533 0.930 . S
C542 C540 1.384 . S
C542 C543 1.372 . S
C543 C542 1.372 . S
C543 C544 1.400 . S
C543 C548 1.490 . S
C544 H534 0.930 . S
C544 C543 1.400 . S
C544 C547 1.386 . S
H545 C561 0.930 . S
H546 C562 0.931 . S
C547 H535 0.929 . S
C547 C541 1.390 . S
C547 C544 1.386 . S
C548 C543 1.490 . S
C548 C550 1.395 . S
C548 C551 1.403 . S
H549 C555 0.930 . S
C550 H536 0.930 . S
C550 C548 1.395 . S
C550 C553 1.403 . S
C551 C548 1.403 . S
C551 C552 1.524 . S
C551 C555 1.400 . S
C552 H537 0.960 . S
C552 H538 0.960 . S
C552 H539 0.960 . S
C552 C551 1.524 . S
C553 C550 1.403 . S
C553 C554 1.392 . S
C553 C557 1.495 . S
C554 C553 1.392 . S
C554 C555 1.385 . S
C554 C556 1.478 . S
C555 H549 0.930 . S
C555 C551 1.400 . S
C555 C554 1.385 . S
C556 C554 1.478 . S
C556 C558 1.381 . S
C556 C562 1.383 . S
C557 C553 1.495 . S
C557 H563 0.959 . S
C557 H564 0.961 . S
C557 H565 0.960 . S
C558 C556 1.381 . S
C558 C559 1.394 . S
C558 H566 0.930 . S
C559 C558 1.394 . S
C559 C560 1.383 . S
C559 H567 0.929 . S
C560 C559 1.383 . S
C560 C561 1.377 . S
C561 H545 0.930 . S
C561 C560 1.377 . S
C561 C562 1.379 . S
C562 H546 0.931 . S
C562 C556 1.383 . S
C562 C561 1.379 . S
H563 C557 0.959 . S
H564 C557 0.961 . S
H565 C557 0.960 . S
H566 C558 0.930 . S
H567 C559 0.929 . S
H568 C576 0.929 . S
H569 C578 0.930 . S
H570 C580 0.930 . S
H571 C583 0.929 . S
H572 C586 0.930 . S
H573 C588 0.960 . S
H574 C588 0.960 . S
H575 C588 0.960 . S
C576 H568 0.929 . S
C576 C577 1.377 . S
C576 C578 1.384 . S
C577 C576 1.377 . S
C577 C583 1.390 . S
C578 H569 0.930 . S
C578 C576 1.384 . S
C578 C579 1.372 . S
C579 C578 1.372 . S
C579 C580 1.400 . S
C579 C584 1.490 . S
C580 H570 0.930 . S
C580 C579 1.400 . S
C580 C583 1.386 . S
H581 C597 0.930 . S
H582 C598 0.931 . S
C583 H571 0.929 . S
C583 C577 1.390 . S
C583 C580 1.386 . S
C584 C579 1.490 . S
C584 C586 1.395 . S
C584 C587 1.403 . S
H585 C591 0.930 . S
C586 H572 0.930 . S
C586 C584 1.395 . S
C586 C589 1.403 . S
C587 C584 1.403 . S
C587 C588 1.524 . S
C587 C591 1.400 . S
C588 H573 0.960 . S
C588 H574 0.960 . S
C588 H575 0.960 . S
C588 C587 1.524 . S
C589 C586 1.403 . S
C589 C590 1.392 . S
C589 C593 1.495 . S
C590 C589 1.392 . S
C590 C591 1.385 . S
C590 C592 1.478 . S
C591 H585 0.930 . S
C591 C587 1.400 . S
C591 C590 1.385 . S
C592 C590 1.478 . S
C592 C594 1.381 . S
C592 C598 1.383 . S
C593 C589 1.495 . S
C593 H599 0.959 . S
C593 H600 0.961 . S
C593 H601 0.960 . S
C594 C592 1.381 . S
C594 C595 1.394 . S
C594 H602 0.930 . S
C595 C594 1.394 . S
C595 C596 1.383 . S
C595 H603 0.929 . S
C596 C595 1.383 . S
C596 C597 1.377 . S
C597 H581 0.930 . S
C597 C596 1.377 . S
C597 C598 1.379 . S
C598 H582 0.931 . S
C598 C592 1.383 . S
C598 C597 1.379 . S
H599 C593 0.959 . S
H600 C593 0.961 . S
H601 C593 0.960 . S
H602 C594 0.930 . S
H603 C595 0.929 . S
H604 C612 0.929 . S
H605 C614 0.930 . S
H606 C616 0.930 . S
H607 C619 0.929 . S
H608 C622 0.930 . S
H609 C624 0.960 . S
H610 C624 0.960 . S
H611 C624 0.960 . S
C612 H604 0.929 . S
C612 C613 1.377 . S
C612 C614 1.384 . S
C613 C612 1.377 . S
C613 C619 1.390 . S
C614 H605 0.930 . S
C614 C612 1.384 . S
C614 C615 1.372 . S
C615 C614 1.372 . S
C615 C616 1.400 . S
C615 C620 1.490 . S
C616 H606 0.930 . S
C616 C615 1.400 . S
C616 C619 1.386 . S
H617 C633 0.930 . S
H618 C634 0.931 . S
C619 H607 0.929 . S
C619 C613 1.390 . S
C619 C616 1.386 . S
C620 C615 1.490 . S
C620 C622 1.395 . S
C620 C623 1.403 . S
H621 C627 0.930 . S
C622 H608 0.930 . S
C622 C620 1.395 . S
C622 C625 1.403 . S
C623 C620 1.403 . S
C623 C624 1.524 . S
C623 C627 1.400 . S
C624 H609 0.960 . S
C624 H610 0.960 . S
C624 H611 0.960 . S
C624 C623 1.524 . S
C625 C622 1.403 . S
C625 C626 1.392 . S
C625 C629 1.495 . S
C626 C625 1.392 . S
C626 C627 1.385 . S
C626 C628 1.478 . S
C627 H621 0.930 . S
C627 C623 1.400 . S
C627 C626 1.385 . S
C628 C626 1.478 . S
C628 C630 1.381 . S
C628 C634 1.383 . S
C629 C625 1.495 . S
C629 H635 0.959 . S
C629 H636 0.961 . S
C629 H637 0.960 . S
C630 C628 1.381 . S
C630 C631 1.394 . S
C630 H638 0.930 . S
C631 C630 1.394 . S
C631 C632 1.383 . S
C631 H639 0.929 . S
C632 C631 1.383 . S
C632 C633 1.377 . S
C633 H617 0.930 . S
C633 C632 1.377 . S
C633 C634 1.379 . S
C634 H618 0.931 . S
C634 C628 1.383 . S
C634 C633 1.379 . S
H635 C629 0.959 . S
H636 C629 0.961 . S
H637 C629 0.960 . S
H638 C630 0.930 . S
H639 C631 0.929 . S
H640 C648 0.929 . S
H641 C650 0.930 . S
H642 C652 0.930 . S
H643 C655 0.929 . S
H644 C658 0.930 . S
H645 C660 0.960 . S
H646 C660 0.960 . S
H647 C660 0.960 . S
C648 H640 0.929 . S
C648 C649 1.377 . S
C648 C650 1.384 . S
C649 C648 1.377 . S
C649 C655 1.390 . S
C650 H641 0.930 . S
C650 C648 1.384 . S
C650 C651 1.372 . S
C651 C650 1.372 . S
C651 C652 1.400 . S
C651 C656 1.490 . S
C652 H642 0.930 . S
C652 C651 1.400 . S
C652 C655 1.386 . S
H653 C669 0.930 . S
H654 C670 0.931 . S
C655 H643 0.929 . S
C655 C649 1.390 . S
C655 C652 1.386 . S
C656 C651 1.490 . S
C656 C658 1.395 . S
C656 C659 1.403 . S
H657 C663 0.930 . S
C658 H644 0.930 . S
C658 C656 1.395 . S
C658 C661 1.403 . S
C659 C656 1.403 . S
C659 C660 1.524 . S
C659 C663 1.400 . S
C660 H645 0.960 . S
C660 H646 0.960 . S
C660 H647 0.960 . S
C660 C659 1.524 . S
C661 C658 1.403 . S
C661 C662 1.392 . S
C661 C665 1.495 . S
C662 C661 1.392 . S
C662 C663 1.385 . S
C662 C664 1.478 . S
C663 H657 0.930 . S
C663 C659 1.400 . S
C663 C662 1.385 . S
C664 C662 1.478 . S
C664 C666 1.381 . S
C664 C670 1.383 . S
C665 C661 1.495 . S
C665 H671 0.959 . S
C665 H672 0.961 . S
C665 H673 0.960 . S
C666 C664 1.381 . S
C666 C667 1.394 . S
C666 H674 0.930 . S
C667 C666 1.394 . S
C667 C668 1.383 . S
C667 H675 0.929 . S
C668 C667 1.383 . S
C668 C669 1.377 . S
C669 H653 0.930 . S
C669 C668 1.377 . S
C669 C670 1.379 . S
C670 H654 0.931 . S
C670 C664 1.383 . S
C670 C669 1.379 . S
H671 C665 0.959 . S
H672 C665 0.961 . S
H673 C665 0.960 . S
H674 C666 0.930 . S
H675 C667 0.929 . S
H676 C684 0.929 . S
H677 C686 0.930 . S
H678 C688 0.930 . S
H679 C691 0.929 . S
H680 C694 0.930 . S
H681 C696 0.960 . S
H682 C696 0.960 . S
H683 C696 0.960 . S
C684 H676 0.929 . S
C684 C685 1.377 . S
C684 C686 1.384 . S
C685 C684 1.377 . S
C685 C691 1.390 . S
C686 H677 0.930 . S
C686 C684 1.384 . S
C686 C687 1.372 . S
C687 C686 1.372 . S
C687 C688 1.400 . S
C687 C692 1.490 . S
C688 H678 0.930 . S
C688 C687 1.400 . S
C688 C691 1.386 . S
H689 C705 0.930 . S
H690 C706 0.931 . S
C691 H679 0.929 . S
C691 C685 1.390 . S
C691 C688 1.386 . S
C692 C687 1.490 . S
C692 C694 1.395 . S
C692 C695 1.403 . S
H693 C699 0.930 . S
C694 H680 0.930 . S
C694 C692 1.395 . S
C694 C697 1.403 . S
C695 C692 1.403 . S
C695 C696 1.524 . S
C695 C699 1.400 . S
C696 H681 0.960 . S
C696 H682 0.960 . S
C696 H683 0.960 . S
C696 C695 1.524 . S
C697 C694 1.403 . S
C697 C698 1.392 . S
C697 C701 1.495 . S
C698 C697 1.392 . S
C698 C699 1.385 . S
C698 C700 1.478 . S
C699 H693 0.930 . S
C699 C695 1.400 . S
C699 C698 1.385 . S
C700 C698 1.478 . S
C700 C702 1.381 . S
C700 C706 1.383 . S
C701 C697 1.495 . S
C701 H707 0.959 . S
C701 H708 0.961 . S
C701 H709 0.960 . S
C702 C700 1.381 . S
C702 C703 1.394 . S
C702 H710 0.930 . S
C703 C702 1.394 . S
C703 C704 1.383 . S
C703 H711 0.929 . S
C704 C703 1.383 . S
C704 C705 1.377 . S
C705 H689 0.930 . S
C705 C704 1.377 . S
C705 C706 1.379 . S
C706 H690 0.931 . S
C706 C700 1.383 . S
C706 C705 1.379 . S
H707 C701 0.959 . S
H708 C701 0.961 . S
H709 C701 0.960 . S
H710 C702 0.930 . S
H711 C703 0.929 . S
H712 C720 0.929 . S
H713 C722 0.930 . S
H714 C724 0.930 . S
H715 C727 0.929 . S
H716 C730 0.930 . S
H717 C732 0.960 . S
H718 C732 0.960 . S
H719 C732 0.960 . S
C720 H712 0.929 . S
C720 C721 1.377 . S
C720 C722 1.384 . S
C721 C720 1.377 . S
C721 C727 1.390 . S
C722 H713 0.930 . S
C722 C720 1.384 . S
C722 C723 1.372 . S
C723 C722 1.372 . S
C723 C724 1.400 . S
C723 C728 1.490 . S
C724 H714 0.930 . S
C724 C723 1.400 . S
C724 C727 1.386 . S
H725 C741 0.930 . S
H726 C742 0.931 . S
C727 H715 0.929 . S
C727 C721 1.390 . S
C727 C724 1.386 . S
C728 C723 1.490 . S
C728 C730 1.395 . S
C728 C731 1.403 . S
H729 C735 0.930 . S
C730 H716 0.930 . S
C730 C728 1.395 . S
C730 C733 1.403 . S
C731 C728 1.403 . S
C731 C732 1.524 . S
C731 C735 1.400 . S
C732 H717 0.960 . S
C732 H718 0.960 . S
C732 H719 0.960 . S
C732 C731 1.524 . S
C733 C730 1.403 . S
C733 C734 1.392 . S
C733 C737 1.495 . S
C734 C733 1.392 . S
C734 C735 1.385 . S
C734 C736 1.478 . S
C735 H729 0.930 . S
C735 C731 1.400 . S
C735 C734 1.385 . S
C736 C734 1.478 . S
C736 C738 1.381 . S
C736 C742 1.383 . S
C737 C733 1.495 . S
C737 H743 0.959 . S
C737 H744 0.961 . S
C737 H745 0.960 . S
C738 C736 1.381 . S
C738 C739 1.394 . S
C738 H746 0.930 . S
C739 C738 1.394 . S
C739 C740 1.383 . S
C739 H747 0.929 . S
C740 C739 1.383 . S
C740 C741 1.377 . S
C741 H725 0.930 . S
C741 C740 1.377 . S
C741 C742 1.379 . S
C742 H726 0.931 . S
C742 C736 1.383 . S
C742 C741 1.379 . S
H743 C737 0.959 . S
H744 C737 0.961 . S
H745 C737 0.960 . S
H746 C738 0.930 . S
H747 C739 0.929 . S
H748 C756 0.929 . S
H749 C758 0.930 . S
H750 C760 0.930 . S
H751 C763 0.929 . S
H752 C766 0.930 . S
H753 C768 0.960 . S
H754 C768 0.960 . S
H755 C768 0.960 . S
C756 H748 0.929 . S
C756 C757 1.377 . S
C756 C758 1.384 . S
C757 C756 1.377 . S
C757 C763 1.390 . S
C758 H749 0.930 . S
C758 C756 1.384 . S
C758 C759 1.372 . S
C759 C758 1.372 . S
C759 C760 1.400 . S
C759 C764 1.490 . S
C760 H750 0.930 . S
C760 C759 1.400 . S
C760 C763 1.386 . S
H761 C777 0.930 . S
H762 C778 0.931 . S
C763 H751 0.929 . S
C763 C757 1.390 . S
C763 C760 1.386 . S
C764 C759 1.490 . S
C764 C766 1.395 . S
C764 C767 1.403 . S
H765 C771 0.930 . S
C766 H752 0.930 . S
C766 C764 1.395 . S
C766 C769 1.403 . S
C767 C764 1.403 . S
C767 C768 1.524 . S
C767 C771 1.400 . S
C768 H753 0.960 . S
C768 H754 0.960 . S
C768 H755 0.960 . S
C768 C767 1.524 . S
C769 C766 1.403 . S
C769 C770 1.392 . S
C769 C773 1.495 . S
C770 C769 1.392 . S
C770 C771 1.385 . S
C770 C772 1.478 . S
C771 H765 0.930 . S
C771 C767 1.400 . S
C771 C770 1.385 . S
C772 C770 1.478 . S
C772 C774 1.381 . S
C772 C778 1.383 . S
C773 C769 1.495 . S
C773 H779 0.959 . S
C773 H780 0.961 . S
C773 H781 0.960 . S
C774 C772 1.381 . S
C774 C775 1.394 . S
C774 H782 0.930 . S
C775 C774 1.394 . S
C775 C776 1.383 . S
C775 H783 0.929 . S
C776 C775 1.383 . S
C776 C777 1.377 . S
C777 H761 0.930 . S
C777 C776 1.377 . S
C777 C778 1.379 . S
C778 H762 0.931 . S
C778 C772 1.383 . S
C778 C777 1.379 . S
H779 C773 0.959 . S
H780 C773 0.961 . S
H781 C773 0.960 . S
H782 C774 0.930 . S
H783 C775 0.929 . S
H784 C792 0.929 . S
H785 C794 0.930 . S
H786 C796 0.930 . S
H787 C799 0.929 . S
H788 C802 0.930 . S
H789 C804 0.960 . S
H790 C804 0.960 . S
H791 C804 0.960 . S
C792 H784 0.929 . S
C792 C793 1.377 . S
C792 C794 1.384 . S
C793 C792 1.377 . S
C793 C799 1.390 . S
C794 H785 0.930 . S
C794 C792 1.384 . S
C794 C795 1.372 . S
C795 C794 1.372 . S
C795 C796 1.400 . S
C795 C800 1.490 . S
C796 H786 0.930 . S
C796 C795 1.400 . S
C796 C799 1.386 . S
H797 C813 0.930 . S
H798 C814 0.931 . S
C799 H787 0.929 . S
C799 C793 1.390 . S
C799 C796 1.386 . S
C800 C795 1.490 . S
C800 C802 1.395 . S
C800 C803 1.403 . S
H801 C807 0.930 . S
C802 H788 0.930 . S
C802 C800 1.395 . S
C802 C805 1.403 . S
C803 C800 1.403 . S
C803 C804 1.524 . S
C803 C807 1.400 . S
C804 H789 0.960 . S
C804 H790 0.960 . S
C804 H791 0.960 . S
C804 C803 1.524 . S
C805 C802 1.403 . S
C805 C806 1.392 . S
C805 C809 1.495 . S
C806 C805 1.392 . S
C806 C807 1.385 . S
C806 C808 1.478 . S
C807 H801 0.930 . S
C807 C803 1.400 . S
C807 C806 1.385 . S
C808 C806 1.478 . S
C808 C810 1.381 . S
C808 C814 1.383 . S
C809 C805 1.495 . S
C809 H815 0.959 . S
C809 H816 0.961 . S
C809 H817 0.960 . S
C810 C808 1.381 . S
C810 C811 1.394 . S
C810 H818 0.930 . S
C811 C810 1.394 . S
C811 C812 1.383 . S
C811 H819 0.929 . S
C812 C811 1.383 . S
C812 C813 1.377 . S
C813 H797 0.930 . S
C813 C812 1.377 . S
C813 C814 1.379 . S
C814 H798 0.931 . S
C814 C808 1.383 . S
C814 C813 1.379 . S
H815 C809 0.959 . S
H816 C809 0.961 . S
H817 C809 0.960 . S
H818 C810 0.930 . S
H819 C811 0.929 . S
H820 C828 0.929 . S
H821 C830 0.930 . S
H822 C832 0.930 . S
H823 C835 0.929 . S
H824 C838 0.930 . S
H825 C840 0.960 . S
H826 C840 0.960 . S
H827 C840 0.960 . S
C828 H820 0.929 . S
C828 C829 1.377 . S
C828 C830 1.384 . S
C829 C828 1.377 . S
C829 C835 1.390 . S
C830 H821 0.930 . S
C830 C828 1.384 . S
C830 C831 1.372 . S
C831 C830 1.372 . S
C831 C832 1.400 . S
C831 C836 1.490 . S
C832 H822 0.930 . S
C832 C831 1.400 . S
C832 C835 1.386 . S
H833 C849 0.930 . S
H834 C850 0.931 . S
C835 H823 0.929 . S
C835 C829 1.390 . S
C835 C832 1.386 . S
C836 C831 1.490 . S
C836 C838 1.395 . S
C836 C839 1.403 . S
H837 C843 0.930 . S
C838 H824 0.930 . S
C838 C836 1.395 . S
C838 C841 1.403 . S
C839 C836 1.403 . S
C839 C840 1.524 . S
C839 C843 1.400 . S
C840 H825 0.960 . S
C840 H826 0.960 . S
C840 H827 0.960 . S
C840 C839 1.524 . S
C841 C838 1.403 . S
C841 C842 1.392 . S
C841 C845 1.495 . S
C842 C841 1.392 . S
C842 C843 1.385 . S
C842 C844 1.478 . S
C843 H837 0.930 . S
C843 C839 1.400 . S
C843 C842 1.385 . S
C844 C842 1.478 . S
C844 C846 1.381 . S
C844 C850 1.383 . S
C845 C841 1.495 . S
C845 H851 0.959 . S
C845 H852 0.961 . S
C845 H853 0.960 . S
C846 C844 1.381 . S
C846 C847 1.394 . S
C846 H854 0.930 . S
C847 C846 1.394 . S
C847 C848 1.383 . S
C847 H855 0.929 . S
C848 C847 1.383 . S
C848 C849 1.377 . S
C849 H833 0.930 . S
C849 C848 1.377 . S
C849 C850 1.379 . S
C850 H834 0.931 . S
C850 C844 1.383 . S
C850 C849 1.379 . S
H851 C845 0.959 . S
H852 C845 0.961 . S
H853 C845 0.960 . S
H854 C846 0.930 . S
H855 C847 0.929 . S
H856 C864 0.929 . S
H857 C866 0.930 . S
H858 C868 0.930 . S
H859 C871 0.929 . S
H860 C874 0.930 . S
H861 C876 0.960 . S
H862 C876 0.960 . S
H863 C876 0.960 . S
C864 H856 0.929 . S
C864 C865 1.377 . S
C864 C866 1.384 . S
C865 C864 1.377 . S
C865 C871 1.390 . S
C866 H857 0.930 . S
C866 C864 1.384 . S
C866 C867 1.372 . S
C867 C866 1.372 . S
C867 C868 1.400 . S
C867 C872 1.490 . S
C868 H858 0.930 . S
C868 C867 1.400 . S
C868 C871 1.386 . S
H869 C885 0.930 . S
H870 C886 0.931 . S
C871 H859 0.929 . S
C871 C865 1.390 . S
C871 C868 1.386 . S
C872 C867 1.490 . S
C872 C874 1.395 . S
C872 C875 1.403 . S
H873 C879 0.930 . S
C874 H860 0.930 . S
C874 C872 1.395 . S
C874 C877 1.403 . S
C875 C872 1.403 . S
C875 C876 1.524 . S
C875 C879 1.400 . S
C876 H861 0.960 . S
C876 H862 0.960 . S
C876 H863 0.960 . S
C876 C875 1.524 . S
C877 C874 1.403 . S
C877 C878 1.392 . S
C877 C881 1.495 . S
C878 C877 1.392 . S
C878 C879 1.385 . S
C878 C880 1.478 . S
C879 H873 0.930 . S
C879 C875 1.400 . S
C879 C878 1.385 . S
C880 C878 1.478 . S
C880 C882 1.381 . S
C880 C886 1.383 . S
C881 C877 1.495 . S
C881 H887 0.959 . S
C881 H888 0.961 . S
C881 H889 0.960 . S
C882 C880 1.381 . S
C882 C883 1.394 . S
C882 H890 0.930 . S
C883 C882 1.394 . S
C883 C884 1.383 . S
C883 H891 0.929 . S
C884 C883 1.383 . S
C884 C885 1.377 . S
C885 H869 0.930 . S
C885 C884 1.377 . S
C885 C886 1.379 . S
C886 H870 0.931 . S
C886 C880 1.383 . S
C886 C885 1.379 . S
H887 C881 0.959 . S
H888 C881 0.961 . S
H889 C881 0.960 . S
H890 C882 0.930 . S
H891 C883 0.929 . S
H892 C900 0.929 . S
H893 C902 0.930 . S
H894 C904 0.930 . S
H895 C907 0.929 . S
H896 C910 0.930 . S
H897 C912 0.960 . S
H898 C912 0.960 . S
H899 C912 0.960 . S
C900 H892 0.929 . S
C900 C901 1.377 . S
C900 C902 1.384 . S
C901 C900 1.377 . S
C901 C907 1.390 . S
C902 H893 0.930 . S
C902 C900 1.384 . S
C902 C903 1.372 . S
C903 C902 1.372 . S
C903 C904 1.400 . S
C903 C908 1.490 . S
C904 H894 0.930 . S
C904 C903 1.400 . S
C904 C907 1.386 . S
H905 C921 0.930 . S
H906 C922 0.931 . S
C907 H895 0.929 . S
C907 C901 1.390 . S
C907 C904 1.386 . S
C908 C903 1.490 . S
C908 C910 1.395 . S
C908 C911 1.403 . S
H909 C915 0.930 . S
C910 H896 0.930 . S
C910 C908 1.395 . S
C910 C913 1.403 . S
C911 C908 1.403 . S
C911 C912 1.524 . S
C911 C915 1.400 . S
C912 H897 0.960 . S
C912 H898 0.960 . S
C912 H899 0.960 . S
C912 C911 1.524 . S
C913 C910 1.403 . S
C913 C914 1.392 . S
C913 C917 1.495 . S
C914 C913 1.392 . S
C914 C915 1.385 . S
C914 C916 1.478 . S
C915 H909 0.930 . S
C915 C911 1.400 . S
C915 C914 1.385 . S
C916 C914 1.478 . S
C916 C918 1.381 . S
C916 C922 1.383 . S
C917 C913 1.495 . S
C917 H923 0.959 . S
C917 H924 0.961 . S
C917 H925 0.960 . S
C918 C916 1.381 . S
C918 C919 1.394 . S
C918 H926 0.930 . S
C919 C918 1.394 . S
C919 C920 1.383 . S
C919 H927 0.929 . S
C920 C919 1.383 . S
C920 C921 1.377 . S
C921 H905 0.930 . S
C921 C920 1.377 . S
C921 C922 1.379 . S
C922 H906 0.931 . S
C922 C916 1.383 . S
C922 C921 1.379 . S
H923 C917 0.959 . S
H924 C917 0.961 . S
H925 C917 0.960 . S
H926 C918 0.930 . S
H927 C919 0.929 . S
H928 C936 0.929 . S
H929 C938 0.930 . S
H930 C940 0.930 . S
H931 C943 0.929 . S
H932 C946 0.930 . S
H933 C948 0.960 . S
H934 C948 0.960 . S
H935 C948 0.960 . S
C936 H928 0.929 . S
C936 C937 1.377 . S
C936 C938 1.384 . S
C937 C936 1.377 . S
C937 C943 1.390 . S
C938 H929 0.930 . S
C938 C936 1.384 . S
C938 C939 1.372 . S
C939 C938 1.372 . S
C939 C940 1.400 . S
C939 C944 1.490 . S
C940 H930 0.930 . S
C940 C939 1.400 . S
C940 C943 1.386 . S
H941 C957 0.930 . S
H942 C958 0.931 . S
C943 H931 0.929 . S
C943 C937 1.390 . S
C943 C940 1.386 . S
C944 C939 1.490 . S
C944 C946 1.395 . S
C944 C947 1.403 . S
H945 C951 0.930 . S
C946 H932 0.930 . S
C946 C944 1.395 . S
C946 C949 1.403 . S
C947 C944 1.403 . S
C947 C948 1.524 . S
C947 C951 1.400 . S
C948 H933 0.960 . S
C948 H934 0.960 . S
C948 H935 0.960 . S
C948 C947 1.524 . S
C949 C946 1.403 . S
C949 C950 1.392 . S
C949 C953 1.495 . S
C950 C949 1.392 . S
C950 C951 1.385 . S
C950 C952 1.478 . S
C951 H945 0.930 . S
C951 C947 1.400 . S
C951 C950 1.385 . S
C952 C950 1.478 . S
C952 C954 1.381 . S
C952 C958 1.383 . S
C953 C949 1.495 . S
C953 H959 0.959 . S
C953 H960 0.961 . S
C953 H961 0.960 . S
C954 C952 1.381 . S
C954 C955 1.394 . S
C954 H962 0.930 . S
C955 C954 1.394 . S
C955 C956 1.383 . S
C955 H963 0.929 . S
C956 C955 1.383 . S
C956 C957 1.377 . S
C957 H941 0.930 . S
C957 C956 1.377 . S
C957 C958 1.379 . S
C958 H942 0.931 . S
C958 C952 1.383 . S
C958 C957 1.379 . S
H959 C953 0.959 . S
H960 C953 0.961 . S
H961 C953 0.960 . S
H962 C954 0.930 . S
H963 C955 0.929 . S
H964 C972 0.929 . S
H965 C974 0.930 . S
H966 C976 0.930 . S
H967 C979 0.929 . S
H968 C982 0.930 . S
H969 C984 0.960 . S
H970 C984 0.960 . S
H971 C984 0.960 . S
C972 H964 0.929 . S
C972 C973 1.377 . S
C972 C974 1.384 . S
C973 C972 1.377 . S
C973 C979 1.390 . S
C974 H965 0.930 . S
C974 C972 1.384 . S
C974 C975 1.372 . S
C975 C974 1.372 . S
C975 C976 1.400 . S
C975 C980 1.490 . S
C976 H966 0.930 . S
C976 C975 1.400 . S
C976 C979 1.386 . S
H977 C993 0.930 . S
H978 C994 0.931 . S
C979 H967 0.929 . S
C979 C973 1.390 . S
C979 C976 1.386 . S
C980 C975 1.490 . S
C980 C982 1.395 . S
C980 C983 1.403 . S
H981 C987 0.930 . S
C982 H968 0.930 . S
C982 C980 1.395 . S
C982 C985 1.403 . S
C983 C980 1.403 . S
C983 C984 1.524 . S
C983 C987 1.400 . S
C984 H969 0.960 . S
C984 H970 0.960 . S
C984 H971 0.960 . S
C984 C983 1.524 . S
C985 C982 1.403 . S
C985 C986 1.392 . S
C985 C989 1.495 . S
C986 C985 1.392 . S
C986 C987 1.385 . S
C986 C988 1.478 . S
C987 H981 0.930 . S
C987 C983 1.400 . S
C987 C986 1.385 . S
C988 C986 1.478 . S
C988 C990 1.381 . S
C988 C994 1.383 . S
C989 C985 1.495 . S
C989 H995 0.959 . S
C989 H996 0.961 . S
C989 H997 0.960 . S
C990 C988 1.381 . S
C990 C991 1.394 . S
C990 H998 0.930 . S
C991 C990 1.394 . S
C991 C992 1.383 . S
C991 H999 0.929 . S
C992 C991 1.383 . S
C992 C993 1.377 . S
C993 H977 0.930 . S
C993 C992 1.377 . S
C993 C994 1.379 . S
C994 H978 0.931 . S
C994 C988 1.383 . S
C994 C993 1.379 . S
H995 C989 0.959 . S
H996 C989 0.961 . S
H997 C989 0.960 . S
H998 C990 0.930 . S
H999 C991 0.929 . S
H1000 C1008 0.929 . S
H1001 C1010 0.930 . S
H1002 C1012 0.930 . S
H1003 C1015 0.929 . S
H1004 C1018 0.930 . S
H1005 C1020 0.960 . S
H1006 C1020 0.960 . S
H1007 C1020 0.960 . S
C1008 H1000 0.929 . S
C1008 C1009 1.377 . S
C1008 C1010 1.384 . S
C1009 C1008 1.377 . S
C1009 C1015 1.390 . S
C1010 H1001 0.930 . S
C1010 C1008 1.384 . S
C1010 C1011 1.372 . S
C1011 C1010 1.372 . S
C1011 C1012 1.400 . S
C1011 C1016 1.490 . S
C1012 H1002 0.930 . S
C1012 C1011 1.400 . S
C1012 C1015 1.386 . S
H1013 C1029 0.930 . S
H1014 C1030 0.931 . S
C1015 H1003 0.929 . S
C1015 C1009 1.390 . S
C1015 C1012 1.386 . S
C1016 C1011 1.490 . S
C1016 C1018 1.395 . S
C1016 C1019 1.403 . S
H1017 C1023 0.930 . S
C1018 H1004 0.930 . S
C1018 C1016 1.395 . S
C1018 C1021 1.403 . S
C1019 C1016 1.403 . S
C1019 C1020 1.524 . S
C1019 C1023 1.400 . S
C1020 H1005 0.960 . S
C1020 H1006 0.960 . S
C1020 H1007 0.960 . S
C1020 C1019 1.524 . S
C1021 C1018 1.403 . S
C1021 C1022 1.392 . S
C1021 C1025 1.495 . S
C1022 C1021 1.392 . S
C1022 C1023 1.385 . S
C1022 C1024 1.478 . S
C1023 H1017 0.930 . S
C1023 C1019 1.400 . S
C1023 C1022 1.385 . S
C1024 C1022 1.478 . S
C1024 C1026 1.381 . S
C1024 C1030 1.383 . S
C1025 C1021 1.495 . S
C1025 H1031 0.959 . S
C1025 H1032 0.961 . S
C1025 H1033 0.960 . S
C1026 C1024 1.381 . S
C1026 C1027 1.394 . S
C1026 H1034 0.930 . S
C1027 C1026 1.394 . S
C1027 C1028 1.383 . S
C1027 H1035 0.929 . S
C1028 C1027 1.383 . S
C1028 C1029 1.377 . S
C1029 H1013 0.930 . S
C1029 C1028 1.377 . S
C1029 C1030 1.379 . S
C1030 H1014 0.931 . S
C1030 C1024 1.383 . S
C1030 C1029 1.379 . S
H1031 C1025 0.959 . S
H1032 C1025 0.961 . S
H1033 C1025 0.960 . S
H1034 C1026 0.930 . S
H1035 C1027 0.929 . S
H1036 C1044 0.929 . S
H1037 C1046 0.930 . S
H1038 C1048 0.930 . S
H1039 C1051 0.929 . S
H1040 C1054 0.930 . S
H1041 C1056 0.960 . S
H1042 C1056 0.960 . S
H1043 C1056 0.960 . S
C1044 H1036 0.929 . S
C1044 C1045 1.377 . S
C1044 C1046 1.384 . S
C1045 C1044 1.377 . S
C1045 C1051 1.390 . S
C1046 H1037 0.930 . S
C1046 C1044 1.384 . S
C1046 C1047 1.372 . S
C1047 C1046 1.372 . S
C1047 C1048 1.400 . S
C1047 C1052 1.490 . S
C1048 H1038 0.930 . S
C1048 C1047 1.400 . S
C1048 C1051 1.386 . S
H1049 C1065 0.930 . S
H1050 C1066 0.931 . S
C1051 H1039 0.929 . S
C1051 C1045 1.390 . S
C1051 C1048 1.386 . S
C1052 C1047 1.490 . S
C1052 C1054 1.395 . S
C1052 C1055 1.403 . S
H1053 C1059 0.930 . S
C1054 H1040 0.930 . S
C1054 C1052 1.395 . S
C1054 C1057 1.403 . S
C1055 C1052 1.403 . S
C1055 C1056 1.524 . S
C1055 C1059 1.400 . S
C1056 H1041 0.960 . S
C1056 H1042 0.960 . S
C1056 H1043 0.960 . S
C1056 C1055 1.524 . S
C1057 C1054 1.403 . S
C1057 C1058 1.392 . S
C1057 C1061 1.495 . S
C1058 C1057 1.392 . S
C1058 C1059 1.385 . S
C1058 C1060 1.478 . S
C1059 H1053 0.930 . S
C1059 C1055 1.400 . S
C1059 C1058 1.385 . S
C1060 C1058 1.478 . S
C1060 C1062 1.381 . S
C1060 C1066 1.383 . S
C1061 C1057 1.495 . S
C1061 H1067 0.959 . S
C1061 H1068 0.961 . S
C1061 H1069 0.960 . S
C1062 C1060 1.381 . S
C1062 C1063 1.394 . S
C1062 H1070 0.930 . S
C1063 C1062 1.394 . S
C1063 C1064 1.383 . S
C1063 H1071 0.929 . S
C1064 C1063 1.383 . S
C1064 C1065 1.377 . S
C1065 H1049 0.930 . S
C1065 C1064 1.377 . S
C1065 C1066 1.379 . S
C1066 H1050 0.931 . S
C1066 C1060 1.383 . S
C1066 C1065 1.379 . S
H1067 C1061 0.959 . S
H1068 C1061 0.961 . S
H1069 C1061 0.960 . S
H1070 C1062 0.930 . S
H1071 C1063 0.929 . S
H1072 C1080 0.929 . S
H1073 C1082 0.930 . S
H1074 C1084 0.930 . S
H1075 C1087 0.929 . S
H1076 C1090 0.930 . S
H1077 C1092 0.960 . S
H1078 C1092 0.960 . S
H1079 C1092 0.960 . S
C1080 H1072 0.929 . S
C1080 C1081 1.377 . S
C1080 C1082 1.384 . S
C1081 C1080 1.377 . S
C1081 C1087 1.390 . S
C1082 H1073 0.930 . S
C1082 C1080 1.384 . S
C1082 C1083 1.372 . S
C1083 C1082 1.372 . S
C1083 C1084 1.400 . S
C1083 C1088 1.490 . S
C1084 H1074 0.930 . S
C1084 C1083 1.400 . S
C1084 C1087 1.386 . S
H1085 C1101 0.930 . S
H1086 C1102 0.931 . S
C1087 H1075 0.929 . S
C1087 C1081 1.390 . S
C1087 C1084 1.386 . S
C1088 C1083 1.490 . S
C1088 C1090 1.395 . S
C1088 C1091 1.403 . S
H1089 C1095 0.930 . S
C1090 H1076 0.930 . S
C1090 C1088 1.395 . S
C1090 C1093 1.403 . S
C1091 C1088 1.403 . S
C1091 C1092 1.524 . S
C1091 C1095 1.400 . S
C1092 H1077 0.960 . S
C1092 H1078 0.960 . S
C1092 H1079 0.960 . S
C1092 C1091 1.524 . S
C1093 C1090 1.403 . S
C1093 C1094 1.392 . S
C1093 C1097 1.495 . S
C1094 C1093 1.392 . S
C1094 C1095 1.385 . S
C1094 C1096 1.478 . S
C1095 H1089 0.930 . S
C1095 C1091 1.400 . S
C1095 C1094 1.385 . S
C1096 C1094 1.478 . S
C1096 C1098 1.381 . S
C1096 C1102 1.383 . S
C1097 C1093 1.495 . S
C1097 H1103 0.959 . S
C1097 H1104 0.961 . S
C1097 H1105 0.960 . S
C1098 C1096 1.381 . S
C1098 C1099 1.394 . S
C1098 H1106 0.930 . S
C1099 C1098 1.394 . S
C1099 C1100 1.383 . S
C1099 H1107 0.929 . S
C1100 C1099 1.383 . S
C1100 C1101 1.377 . S
C1101 H1085 0.930 . S
C1101 C1100 1.377 . S
C1101 C1102 1.379 . S
C1102 H1086 0.931 . S
C1102 C1096 1.383 . S
C1102 C1101 1.379 . S
H1103 C1097 0.959 . S
H1104 C1097 0.961 . S
H1105 C1097 0.960 . S
H1106 C1098 0.930 . S
H1107 C1099 0.929 . S
H1108 C1116 0.929 . S
H1109 C1118 0.930 . S
H1110 C1120 0.930 . S
H1111 C1123 0.929 . S
H1112 C1126 0.930 . S
H1113 C1128 0.960 . S
H1114 C1128 0.960 . S
H1115 C1128 0.960 . S
C1116 H1108 0.929 . S
C1116 C1117 1.377 . S
C1116 C1118 1.384 . S
C1117 C1116 1.377 . S
C1117 C1123 1.390 . S
C1118 H1109 0.930 . S
C1118 C1116 1.384 . S
C1118 C1119 1.372 . S
C1119 C1118 1.372 . S
C1119 C1120 1.400 . S
C1119 C1124 1.490 . S
C1120 H1110 0.930 . S
C1120 C1119 1.400 . S
C1120 C1123 1.386 . S
H1121 C1137 0.930 . S
H1122 C1138 0.931 . S
C1123 H1111 0.929 . S
C1123 C1117 1.390 . S
C1123 C1120 1.386 . S
C1124 C1119 1.490 . S
C1124 C1126 1.395 . S
C1124 C1127 1.403 . S
H1125 C1131 0.930 . S
C1126 H1112 0.930 . S
C1126 C1124 1.395 . S
C1126 C1129 1.403 . S
C1127 C1124 1.403 . S
C1127 C1128 1.524 . S
C1127 C1131 1.400 . S
C1128 H1113 0.960 . S
C1128 H1114 0.960 . S
C1128 H1115 0.960 . S
C1128 C1127 1.524 . S
C1129 C1126 1.403 . S
C1129 C1130 1.392 . S
C1129 C1133 1.495 . S
C1130 C1129 1.392 . S
C1130 C1131 1.385 . S
C1130 C1132 1.478 . S
C1131 H1125 0.930 . S
C1131 C1127 1.400 . S
C1131 C1130 1.385 . S
C1132 C1130 1.478 . S
C1132 C1134 1.381 . S
C1132 C1138 1.383 . S
C1133 C1129 1.495 . S
C1133 H1139 0.959 . S
C1133 H1140 0.961 . S
C1133 H1141 0.960 . S
C1134 C1132 1.381 . S
C1134 C1135 1.394 . S
C1134 H1142 0.930 . S
C1135 C1134 1.394 . S
C1135 C1136 1.383 . S
C1135 H1143 0.929 . S
C1136 C1135 1.383 . S
C1136 C1137 1.377 . S
C1137 H1121 0.930 . S
C1137 C1136 1.377 . S
C1137 C1138 1.379 . S
C1138 H1122 0.931 . S
C1138 C1132 1.383 . S
C1138 C1137 1.379 . S
H1139 C1133 0.959 . S
H1140 C1133 0.961 . S
H1141 C1133 0.960 . S
H1142 C1134 0.930 . S
H1143 C1135 0.929 . S
H1144 C1152 0.929 . S
H1145 C1154 0.930 . S
H1146 C1156 0.930 . S
H1147 C1159 0.929 . S
H1148 C1162 0.930 . S
H1149 C1164 0.960 . S
H1150 C1164 0.960 . S
H1151 C1164 0.960 . S
C1152 H1144 0.929 . S
C1152 C1153 1.377 . S
C1152 C1154 1.384 . S
C1153 C1152 1.377 . S
C1153 C1159 1.390 . S
C1154 H1145 0.930 . S
C1154 C1152 1.384 . S
C1154 C1155 1.372 . S
C1155 C1154 1.372 . S
C1155 C1156 1.400 . S
C1155 C1160 1.490 . S
C1156 H1146 0.930 . S
C1156 C1155 1.400 . S
C1156 C1159 1.386 . S
H1157 C1173 0.930 . S
H1158 C1174 0.931 . S
C1159 H1147 0.929 . S
C1159 C1153 1.390 . S
C1159 C1156 1.386 . S
C1160 C1155 1.490 . S
C1160 C1162 1.395 . S
C1160 C1163 1.403 . S
H1161 C1167 0.930 . S
C1162 H1148 0.930 . S
C1162 C1160 1.395 . S
C1162 C1165 1.403 . S
C1163 C1160 1.403 . S
C1163 C1164 1.524 . S
C1163 C1167 1.400 . S
C1164 H1149 0.960 . S
C1164 H1150 0.960 . S
C1164 H1151 0.960 . S
C1164 C1163 1.524 . S
C1165 C1162 1.403 . S
C1165 C1166 1.392 . S
C1165 C1169 1.495 . S
C1166 C1165 1.392 . S
C1166 C1167 1.385 . S
C1166 C1168 1.478 . S
C1167 H1161 0.930 . S
C1167 C1163 1.400 . S
C1167 C1166 1.385 . S
C1168 C1166 1.478 . S
C1168 C1170 1.381 . S
C1168 C1174 1.383 . S
C1169 C1165 1.495 . S
C1169 H1175 0.959 . S
C1169 H1176 0.961 . S
C1169 H1177 0.960 . S
C1170 C1168 1.381 . S
C1170 C1171 1.394 . S
C1170 H1178 0.930 . S
C1171 C1170 1.394 . S
C1171 C1172 1.383 . S
C1171 H1179 0.929 . S
C1172 C1171 1.383 . S
C1172 C1173 1.377 . S
C1173 H1157 0.930 . S
C1173 C1172 1.377 . S
C1173 C1174 1.379 . S
C1174 H1158 0.931 . S
C1174 C1168 1.383 . S
C1174 C1173 1.379 . S
H1175 C1169 0.959 . S
H1176 C1169 0.961 . S
H1177 C1169 0.960 . S
H1178 C1170 0.930 . S
H1179 C1171 0.929 . S
H1180 C1188 0.929 . S
H1181 C1190 0.930 . S
H1182 C1192 0.930 . S
H1183 C1195 0.929 . S
H1184 C1198 0.930 . S
H1185 C1200 0.960 . S
H1186 C1200 0.960 . S
H1187 C1200 0.960 . S
C1188 H1180 0.929 . S
C1188 C1189 1.377 . S
C1188 C1190 1.384 . S
C1189 C1188 1.377 . S
C1189 C1195 1.390 . S
C1190 H1181 0.930 . S
C1190 C1188 1.384 . S
C1190 C1191 1.372 . S
C1191 C1190 1.372 . S
C1191 C1192 1.400 . S
C1191 C1196 1.490 . S
C1192 H1182 0.930 . S
C1192 C1191 1.400 . S
C1192 C1195 1.386 . S
H1193 C1209 0.930 . S
H1194 C1210 0.931 . S
C1195 H1183 0.929 . S
C1195 C1189 1.390 . S
C1195 C1192 1.386 . S
C1196 C1191 1.490 . S
C1196 C1198 1.395 . S
C1196 C1199 1.403 . S
H1197 C1203 0.930 . S
C1198 H1184 0.930 . S
C1198 C1196 1.395 . S
C1198 C1201 1.403 . S
C1199 C1196 1.403 . S
C1199 C1200 1.524 . S
C1199 C1203 1.400 . S
C1200 H1185 0.960 . S
C1200 H1186 0.960 . S
C1200 H1187 0.960 . S
C1200 C1199 1.524 . S
C1201 C1198 1.403 . S
C1201 C1202 1.392 . S
C1201 C1205 1.495 . S
C1202 C1201 1.392 . S
C1202 C1203 1.385 . S
C1202 C1204 1.478 . S
C1203 H1197 0.930 . S
C1203 C1199 1.400 . S
C1203 C1202 1.385 . S
C1204 C1202 1.478 . S
C1204 C1206 1.381 . S
C1204 C1210 1.383 . S
C1205 C1201 1.495 . S
C1205 H1211 0.959 . S
C1205 H1212 0.961 . S
C1205 H1213 0.960 . S
C1206 C1204 1.381 . S
C1206 C1207 1.394 . S
C1206 H1214 0.930 . S
C1207 C1206 1.394 . S
C1207 C1208 1.383 . S
C1207 H1215 0.929 . S
C1208 C1207 1.383 . S
C1208 C1209 1.377 . S
C1209 H1193 0.930 . S
C1209 C1208 1.377 . S
C1209 C1210 1.379 . S
C1210 H1194 0.931 . S
C1210 C1204 1.383 . S
C1210 C1209 1.379 . S
H1211 C1205 0.959 . S
H1212 C1205 0.961 . S
H1213 C1205 0.960 . S
H1214 C1206 0.930 . S
H1215 C1207 0.929 . S
H1216 C1224 0.929 . S
H1217 C1226 0.930 . S
H1218 C1228 0.930 . S
H1219 C1231 0.929 . S
H1220 C1234 0.930 . S
H1221 C1236 0.960 . S
H1222 C1236 0.960 . S
H1223 C1236 0.960 . S
C1224 H1216 0.929 . S
C1224 C1225 1.377 . S
C1224 C1226 1.384 . S
C1225 C1224 1.377 . S
C1225 C1231 1.390 . S
C1226 H1217 0.930 . S
C1226 C1224 1.384 . S
C1226 C1227 1.372 . S
C1227 C1226 1.372 . S
C1227 C1228 1.400 . S
C1227 C1232 1.490 . S
C1228 H1218 0.930 . S
C1228 C1227 1.400 . S
C1228 C1231 1.386 . S
H1229 C1245 0.930 . S
H1230 C1246 0.931 . S
C1231 H1219 0.929 . S
C1231 C1225 1.390 . S
C1231 C1228 1.386 . S
C1232 C1227 1.490 . S
C1232 C1234 1.395 . S
C1232 C1235 1.403 . S
H1233 C1239 0.930 . S
C1234 H1220 0.930 . S
C1234 C1232 1.395 . S
C1234 C1237 1.403 . S
C1235 C1232 1.403 . S
C1235 C1236 1.524 . S
C1235 C1239 1.400 . S
C1236 H1221 0.960 . S
C1236 H1222 0.960 . S
C1236 H1223 0.960 . S
C1236 C1235 1.524 . S
C1237 C1234 1.403 . S
C1237 C1238 1.392 . S
C1237 C1241 1.495 . S
C1238 C1237 1.392 . S
C1238 C1239 1.385 . S
C1238 C1240 1.478 . S
C1239 H1233 0.930 . S
C1239 C1235 1.400 . S
C1239 C1238 1.385 . S
C1240 C1238 1.478 . S
C1240 C1242 1.381 . S
C1240 C1246 1.383 . S
C1241 C1237 1.495 . S
C1241 H1247 0.959 . S
C1241 H1248 0.961 . S
C1241 H1249 0.960 . S
C1242 C1240 1.381 . S
C1242 C1243 1.394 . S
C1242 H1250 0.930 . S
C1243 C1242 1.394 . S
C1243 C1244 1.383 . S
C1243 H1251 0.929 . S
C1244 C1243 1.383 . S
C1244 C1245 1.377 . S
C1245 H1229 0.930 . S
C1245 C1244 1.377 . S
C1245 C1246 1.379 . S
C1246 H1230 0.931 . S
C1246 C1240 1.383 . S
C1246 C1245 1.379 . S
H1247 C1241 0.959 . S
H1248 C1241 0.961 . S
H1249 C1241 0.960 . S
H1250 C1242 0.930 . S
H1251 C1243 0.929 . S
H1252 C1260 0.929 . S
H1253 C1262 0.930 . S
H1254 C1264 0.930 . S
H1255 C1267 0.929 . S
H1256 C1270 0.930 . S
H1257 C1272 0.960 . S
H1258 C1272 0.960 . S
H1259 C1272 0.960 . S
C1260 H1252 0.929 . S
C1260 C1261 1.377 . S
C1260 C1262 1.384 . S
C1261 C1260 1.377 . S
C1261 C1267 1.390 . S
C1262 H1253 0.930 . S
C1262 C1260 1.384 . S
C1262 C1263 1.372 . S
C1263 C1262 1.372 . S
C1263 C1264 1.400 . S
C1263 C1268 1.490 . S
C1264 H1254 0.930 . S
C1264 C1263 1.400 . S
C1264 C1267 1.386 . S
H1265 C1281 0.930 . S
H1266 C1282 0.931 . S
C1267 H1255 0.929 . S
C1267 C1261 1.390 . S
C1267 C1264 1.386 . S
C1268 C1263 1.490 . S
C1268 C1270 1.395 . S
C1268 C1271 1.403 . S
H1269 C1275 0.930 . S
C1270 H1256 0.930 . S
C1270 C1268 1.395 . S
C1270 C1273 1.403 . S
C1271 C1268 1.403 . S
C1271 C1272 1.524 . S
C1271 C1275 1.400 . S
C1272 H1257 0.960 . S
C1272 H1258 0.960 . S
C1272 H1259 0.960 . S
C1272 C1271 1.524 . S
C1273 C1270 1.403 . S
C1273 C1274 1.392 . S
C1273 C1277 1.495 . S
C1274 C1273 1.392 . S
C1274 C1275 1.385 . S
C1274 C1276 1.478 . S
C1275 H1269 0.930 . S
C1275 C1271 1.400 . S
C1275 C1274 1.385 . S
C1276 C1274 1.478 . S
C1276 C1278 1.381 . S
C1276 C1282 1.383 . S
C1277 C1273 1.495 . S
C1277 H1283 0.959 . S
C1277 H1284 0.961 . S
C1277 H1285 0.960 . S
C1278 C1276 1.381 . S
C1278 C1279 1.394 . S
C1278 H1286 0.930 . S
C1279 C1278 1.394 . S
C1279 C1280 1.383 . S
C1279 H1287 0.929 . S
C1280 C1279 1.383 . S
C1280 C1281 1.377 . S
C1281 H1265 0.930 . S
C1281 C1280 1.377 . S
C1281 C1282 1.379 . S
C1282 H1266 0.931 . S
C1282 C1276 1.383 . S
C1282 C1281 1.379 . S
H1283 C1277 0.959 . S
H1284 C1277 0.961 . S
H1285 C1277 0.960 . S
H1286 C1278 0.930 . S
H1287 C1279 0.929 . S
H1288 C1296 0.929 . S
H1289 C1298 0.930 . S
H1290 C1300 0.930 . S
H1291 C1303 0.929 . S
H1292 C1306 0.930 . S
H1293 C1308 0.960 . S
H1294 C1308 0.960 . S
H1295 C1308 0.960 . S
C1296 H1288 0.929 . S
C1296 C1297 1.377 . S
C1296 C1298 1.384 . S
C1297 C1296 1.377 . S
C1297 C1303 1.390 . S
C1298 H1289 0.930 . S
C1298 C1296 1.384 . S
C1298 C1299 1.372 . S
C1299 C1298 1.372 . S
C1299 C1300 1.400 . S
C1299 C1304 1.490 . S
C1300 H1290 0.930 . S
C1300 C1299 1.400 . S
C1300 C1303 1.386 . S
H1301 C1317 0.930 . S
H1302 C1318 0.931 . S
C1303 H1291 0.929 . S
C1303 C1297 1.390 . S
C1303 C1300 1.386 . S
C1304 C1299 1.490 . S
C1304 C1306 1.395 . S
C1304 C1307 1.403 . S
H1305 C1311 0.930 . S
C1306 H1292 0.930 . S
C1306 C1304 1.395 . S
C1306 C1309 1.403 . S
C1307 C1304 1.403 . S
C1307 C1308 1.524 . S
C1307 C1311 1.400 . S
C1308 H1293 0.960 . S
C1308 H1294 0.960 . S
C1308 H1295 0.960 . S
C1308 C1307 1.524 . S
C1309 C1306 1.403 . S
C1309 C1310 1.392 . S
C1309 C1313 1.495 . S
C1310 C1309 1.392 . S
C1310 C1311 1.385 . S
C1310 C1312 1.478 . S
C1311 H1305 0.930 . S
C1311 C1307 1.400 . S
C1311 C1310 1.385 . S
C1312 C1310 1.478 . S
C1312 C1314 1.381 . S
C1312 C1318 1.383 . S
C1313 C1309 1.495 . S
C1313 H1319 0.959 . S
C1313 H1320 0.961 . S
C1313 H1321 0.960 . S
C1314 C1312 1.381 . S
C1314 C1315 1.394 . S
C1314 H1322 0.930 . S
C1315 C1314 1.394 . S
C1315 C1316 1.383 . S
C1315 H1323 0.929 . S
C1316 C1315 1.383 . S
C1316 C1317 1.377 . S
C1317 H1301 0.930 . S
C1317 C1316 1.377 . S
C1317 C1318 1.379 . S
C1318 H1302 0.931 . S
C1318 C1312 1.383 . S
C1318 C1317 1.379 . S
H1319 C1313 0.959 . S
H1320 C1313 0.961 . S
H1321 C1313 0.960 . S
H1322 C1314 0.930 . S
H1323 C1315 0.929 . S
H1324 C1332 0.929 . S
H1325 C1334 0.930 . S
H1326 C1336 0.930 . S
H1327 C1339 0.929 . S
H1328 C1342 0.930 . S
H1329 C1344 0.960 . S
H1330 C1344 0.960 . S
H1331 C1344 0.960 . S
C1332 H1324 0.929 . S
C1332 C1333 1.377 . S
C1332 C1334 1.384 . S
C1333 C1332 1.377 . S
C1333 C1339 1.390 . S
C1334 H1325 0.930 . S
C1334 C1332 1.384 . S
C1334 C1335 1.372 . S
C1335 C1334 1.372 . S
C1335 C1336 1.400 . S
C1335 C1340 1.490 . S
C1336 H1326 0.930 . S
C1336 C1335 1.400 . S
C1336 C1339 1.386 . S
H1337 C1353 0.930 . S
H1338 C1354 0.931 . S
C1339 H1327 0.929 . S
C1339 C1333 1.390 . S
C1339 C1336 1.386 . S
C1340 C1335 1.490 . S
C1340 C1342 1.395 . S
C1340 C1343 1.403 . S
H1341 C1347 0.930 . S
C1342 H1328 0.930 . S
C1342 C1340 1.395 . S
C1342 C1345 1.403 . S
C1343 C1340 1.403 . S
C1343 C1344 1.524 . S
C1343 C1347 1.400 . S
C1344 H1329 0.960 . S
C1344 H1330 0.960 . S
C1344 H1331 0.960 . S
C1344 C1343 1.524 . S
C1345 C1342 1.403 . S
C1345 C1346 1.392 . S
C1345 C1349 1.495 . S
C1346 C1345 1.392 . S
C1346 C1347 1.385 . S
C1346 C1348 1.478 . S
C1347 H1341 0.930 . S
C1347 C1343 1.400 . S
C1347 C1346 1.385 . S
C1348 C1346 1.478 . S
C1348 C1350 1.381 . S
C1348 C1354 1.383 . S
C1349 C1345 1.495 . S
C1349 H1355 0.959 . S
C1349 H1356 0.961 . S
C1349 H1357 0.960 . S
C1350 C1348 1.381 . S
C1350 C1351 1.394 . S
C1350 H1358 0.930 . S
C1351 C1350 1.394 . S
C1351 C1352 1.383 . S
C1351 H1359 0.929 . S
C1352 C1351 1.383 . S
C1352 C1353 1.377 . S
C1353 H1337 0.930 . S
C1353 C1352 1.377 . S
C1353 C1354 1.379 . S
C1354 H1338 0.931 . S
C1354 C1348 1.383 . S
C1354 C1353 1.379 . S
H1355 C1349 0.959 . S
H1356 C1349 0.961 . S
H1357 C1349 0.960 . S
H1358 C1350 0.930 . S
H1359 C1351 0.929 . S
H1360 C1368 0.929 . S
H1361 C1370 0.930 . S
H1362 C1372 0.930 . S
H1363 C1375 0.929 . S
H1364 C1378 0.930 . S
H1365 C1380 0.960 . S
H1366 C1380 0.960 . S
H1367 C1380 0.960 . S
C1368 H1360 0.929 . S
C1368 C1369 1.377 . S
C1368 C1370 1.384 . S
C1369 C1368 1.377 . S
C1369 C1375 1.390 . S
C1370 H1361 0.930 . S
C1370 C1368 1.384 . S
C1370 C1371 1.372 . S
C1371 C1370 1.372 . S
C1371 C1372 1.400 . S
C1371 C1376 1.490 . S
C1372 H1362 0.930 . S
C1372 C1371 1.400 . S
C1372 C1375 1.386 . S
H1373 C1389 0.930 . S
H1374 C1390 0.931 . S
C1375 H1363 0.929 . S
C1375 C1369 1.390 . S
C1375 C1372 1.386 . S
C1376 C1371 1.490 . S
C1376 C1378 1.395 . S
C1376 C1379 1.403 . S
H1377 C1383 0.930 . S
C1378 H1364 0.930 . S
C1378 C1376 1.395 . S
C1378 C1381 1.403 . S
C1379 C1376 1.403 . S
C1379 C1380 1.524 . S
C1379 C1383 1.400 . S
C1380 H1365 0.960 . S
C1380 H1366 0.960 . S
C1380 H1367 0.960 . S
C1380 C1379 1.524 . S
C1381 C1378 1.403 . S
C1381 C1382 1.392 . S
C1381 C1385 1.495 . S
C1382 C1381 1.392 . S
C1382 C1383 1.385 . S
C1382 C1384 1.478 . S
C1383 H1377 0.930 . S
C1383 C1379 1.400 . S
C1383 C1382 1.385 . S
C1384 C1382 1.478 . S
C1384 C1386 1.381 . S
C1384 C1390 1.383 . S
C1385 C1381 1.495 . S
C1385 H1391 0.959 . S
C1385 H1392 0.961 . S
C1385 H1393 0.960 . S
C1386 C1384 1.381 . S
C1386 C1387 1.394 . S
C1386 H1394 0.930 . S
C1387 C1386 1.394 . S
C1387 C1388 1.383 . S
C1387 H1395 0.929 . S
C1388 C1387 1.383 . S
C1388 C1389 1.377 . S
C1389 H1373 0.930 . S
C1389 C1388 1.377 . S
C1389 C1390 1.379 . S
C1390 H1374 0.931 . S
C1390 C1384 1.383 . S
C1390 C1389 1.379 . S
H1391 C1385 0.959 . S
H1392 C1385 0.961 . S
H1393 C1385 0.960 . S
H1394 C1386 0.930 . S
H1395 C1387 0.929 . S
H1396 C1404 0.929 . S
H1397 C1406 0.930 . S
H1398 C1408 0.930 . S
H1399 C1411 0.929 . S
H1400 C1414 0.930 . S
H1401 C1416 0.960 . S
H1402 C1416 0.960 . S
H1403 C1416 0.960 . S
C1404 H1396 0.929 . S
C1404 C1405 1.377 . S
C1404 C1406 1.384 . S
C1405 C1404 1.377 . S
C1405 C1411 1.390 . S
C1406 H1397 0.930 . S
C1406 C1404 1.384 . S
C1406 C1407 1.372 . S
C1407 C1406 1.372 . S
C1407 C1408 1.400 . S
C1407 C1412 1.490 . S
C1408 H1398 0.930 . S
C1408 C1407 1.400 . S
C1408 C1411 1.386 . S
H1409 C1425 0.930 . S
H1410 C1426 0.931 . S
C1411 H1399 0.929 . S
C1411 C1405 1.390 . S
C1411 C1408 1.386 . S
C1412 C1407 1.490 . S
C1412 C1414 1.395 . S
C1412 C1415 1.403 . S
H1413 C1419 0.930 . S
C1414 H1400 0.930 . S
C1414 C1412 1.395 . S
C1414 C1417 1.403 . S
C1415 C1412 1.403 . S
C1415 C1416 1.524 . S
C1415 C1419 1.400 . S
C1416 H1401 0.960 . S
C1416 H1402 0.960 . S
C1416 H1403 0.960 . S
C1416 C1415 1.524 . S
C1417 C1414 1.403 . S
C1417 C1418 1.392 . S
C1417 C1421 1.495 . S
C1418 C1417 1.392 . S
C1418 C1419 1.385 . S
C1418 C1420 1.478 . S
C1419 H1413 0.930 . S
C1419 C1415 1.400 . S
C1419 C1418 1.385 . S
C1420 C1418 1.478 . S
C1420 C1422 1.381 . S
C1420 C1426 1.383 . S
C1421 C1417 1.495 . S
C1421 H1427 0.959 . S
C1421 H1428 0.961 . S
C1421 H1429 0.960 . S
C1422 C1420 1.381 . S
C1422 C1423 1.394 . S
C1422 H1430 0.930 . S
C1423 C1422 1.394 . S
C1423 C1424 1.383 . S
C1423 H1431 0.929 . S
C1424 C1423 1.383 . S
C1424 C1425 1.377 . S
C1425 H1409 0.930 . S
C1425 C1424 1.377 . S
C1425 C1426 1.379 . S
C1426 H1410 0.931 . S
C1426 C1420 1.383 . S
C1426 C1425 1.379 . S
H1427 C1421 0.959 . S
H1428 C1421 0.961 . S
H1429 C1421 0.960 . S
H1430 C1422 0.930 . S
H1431 C1423 0.929 . S
H1432 C1440 0.929 . S
H1433 C1442 0.930 . S
H1434 C1444 0.930 . S
H1435 C1447 0.929 . S
H1436 C1450 0.930 . S
H1437 C1452 0.960 . S
H1438 C1452 0.960 . S
H1439 C1452 0.960 . S
C1440 H1432 0.929 . S
C1440 C1441 1.377 . S
C1440 C1442 1.384 . S
C1441 C1440 1.377 . S
C1441 C1447 1.390 . S
C1442 H1433 0.930 . S
C1442 C1440 1.384 . S
C1442 C1443 1.372 . S
C1443 C1442 1.372 . S
C1443 C1444 1.400 . S
C1443 C1448 1.490 . S
C1444 H1434 0.930 . S
C1444 C1443 1.400 . S
C1444 C1447 1.386 . S
H1445 C1461 0.930 . S
H1446 C1462 0.931 . S
C1447 H1435 0.929 . S
C1447 C1441 1.390 . S
C1447 C1444 1.386 . S
C1448 C1443 1.490 . S
C1448 C1450 1.395 . S
C1448 C1451 1.403 . S
H1449 C1455 0.930 . S
C1450 H1436 0.930 . S
C1450 C1448 1.395 . S
C1450 C1453 1.403 . S
C1451 C1448 1.403 . S
C1451 C1452 1.524 . S
C1451 C1455 1.400 . S
C1452 H1437 0.960 . S
C1452 H1438 0.960 . S
C1452 H1439 0.960 . S
C1452 C1451 1.524 . S
C1453 C1450 1.403 . S
C1453 C1454 1.392 . S
C1453 C1457 1.495 . S
C1454 C1453 1.392 . S
C1454 C1455 1.385 . S
C1454 C1456 1.478 . S
C1455 H1449 0.930 . S
C1455 C1451 1.400 . S
C1455 C1454 1.385 . S
C1456 C1454 1.478 . S
C1456 C1458 1.381 . S
C1456 C1462 1.383 . S
C1457 C1453 1.495 . S
C1457 H1463 0.959 . S
C1457 H1464 0.961 . S
C1457 H1465 0.960 . S
C1458 C1456 1.381 . S
C1458 C1459 1.394 . S
C1458 H1466 0.930 . S
C1459 C1458 1.394 . S
C1459 C1460 1.383 . S
C1459 H1467 0.929 . S
C1460 C1459 1.383 . S
C1460 C1461 1.377 . S
C1461 H1445 0.930 . S
C1461 C1460 1.377 . S
C1461 C1462 1.379 . S
C1462 H1446 0.931 . S
C1462 C1456 1.383 . S
C1462 C1461 1.379 . S
H1463 C1457 0.959 . S
H1464 C1457 0.961 . S
H1465 C1457 0.960 . S
H1466 C1458 0.930 . S
H1467 C1459 0.929 . S
H1468 C1476 0.929 . S
H1469 C1478 0.930 . S
H1470 C1480 0.930 . S
H1471 C1483 0.929 . S
H1472 C1486 0.930 . S
H1473 C1488 0.960 . S
H1474 C1488 0.960 . S
H1475 C1488 0.960 . S
C1476 H1468 0.929 . S
C1476 C1477 1.377 . S
C1476 C1478 1.384 . S
C1477 C1476 1.377 . S
C1477 C1483 1.390 . S
C1478 H1469 0.930 . S
C1478 C1476 1.384 . S
C1478 C1479 1.372 . S
C1479 C1478 1.372 . S
C1479 C1480 1.400 . S
C1479 C1484 1.490 . S
C1480 H1470 0.930 . S
C1480 C1479 1.400 . S
C1480 C1483 1.386 . S
H1481 C1497 0.930 . S
H1482 C1498 0.931 . S
C1483 H1471 0.929 . S
C1483 C1477 1.390 . S
C1483 C1480 1.386 . S
C1484 C1479 1.490 . S
C1484 C1486 1.395 . S
C1484 C1487 1.403 . S
H1485 C1491 0.930 . S
C1486 H1472 0.930 . S
C1486 C1484 1.395 . S
C1486 C1489 1.403 . S
C1487 C1484 1.403 . S
C1487 C1488 1.524 . S
C1487 C1491 1.400 . S
C1488 H1473 0.960 . S
C1488 H1474 0.960 . S
C1488 H1475 0.960 . S
C1488 C1487 1.524 . S
C1489 C1486 1.403 . S
C1489 C1490 1.392 . S
C1489 C1493 1.495 . S
C1490 C1489 1.392 . S
C1490 C1491 1.385 . S
C1490 C1492 1.478 . S
C1491 H1485 0.930 . S
C1491 C1487 1.400 . S
C1491 C1490 1.385 . S
C1492 C1490 1.478 . S
C1492 C1494 1.381 . S
C1492 C1498 1.383 . S
C1493 C1489 1.495 . S
C1493 H1499 0.959 . S
C1493 H1500 0.961 . S
C1493 H1501 0.960 . S
C1494 C1492 1.381 . S
C1494 C1495 1.394 . S
C1494 H1502 0.930 . S
C1495 C1494 1.394 . S
C1495 C1496 1.383 . S
C1495 H1503 0.929 . S
C1496 C1495 1.383 . S
C1496 C1497 1.377 . S
C1497 H1481 0.930 . S
C1497 C1496 1.377 . S
C1497 C1498 1.379 . S
C1498 H1482 0.931 . S
C1498 C1492 1.383 . S
C1498 C1497 1.379 . S
H1499 C1493 0.959 . S
H1500 C1493 0.961 . S
H1501 C1493 0.960 . S
H1502 C1494 0.930 . S
H1503 C1495 0.929 . S
H1504 C1512 0.929 . S
H1505 C1514 0.930 . S
H1506 C1516 0.930 . S
H1507 C1519 0.929 . S
H1508 C1522 0.930 . S
H1509 C1524 0.960 . S
H1510 C1524 0.960 . S
H1511 C1524 0.960 . S
C1512 H1504 0.929 . S
C1512 C1513 1.377 . S
C1512 C1514 1.384 . S
C1513 C1512 1.377 . S
C1513 C1519 1.390 . S
C1514 H1505 0.930 . S
C1514 C1512 1.384 . S
C1514 C1515 1.372 . S
C1515 C1514 1.372 . S
C1515 C1516 1.400 . S
C1515 C1520 1.490 . S
C1516 H1506 0.930 . S
C1516 C1515 1.400 . S
C1516 C1519 1.386 . S
H1517 C1533 0.930 . S
H1518 C1534 0.931 . S
C1519 H1507 0.929 . S
C1519 C1513 1.390 . S
C1519 C1516 1.386 . S
C1520 C1515 1.490 . S
C1520 C1522 1.395 . S
C1520 C1523 1.403 . S
H1521 C1527 0.930 . S
C1522 H1508 0.930 . S
C1522 C1520 1.395 . S
C1522 C1525 1.403 . S
C1523 C1520 1.403 . S
C1523 C1524 1.524 . S
C1523 C1527 1.400 . S
C1524 H1509 0.960 . S
C1524 H1510 0.960 . S
C1524 H1511 0.960 . S
C1524 C1523 1.524 . S
C1525 C1522 1.403 . S
C1525 C1526 1.392 . S
C1525 C1529 1.495 . S
C1526 C1525 1.392 . S
C1526 C1527 1.385 . S
C1526 C1528 1.478 . S
C1527 H1521 0.930 . S
C1527 C1523 1.400 . S
C1527 C1526 1.385 . S
C1528 C1526 1.478 . S
C1528 C1530 1.381 . S
C1528 C1534 1.383 . S
C1529 C1525 1.495 . S
C1529 H1535 0.959 . S
C1529 H1536 0.961 . S
C1529 H1537 0.960 . S
C1530 C1528 1.381 . S
C1530 C1531 1.394 . S
C1530 H1538 0.930 . S
C1531 C1530 1.394 . S
C1531 C1532 1.383 . S
C1531 H1539 0.929 . S
C1532 C1531 1.383 . S
C1532 C1533 1.377 . S
C1533 H1517 0.930 . S
C1533 C1532 1.377 . S
C1533 C1534 1.379 . S
C1534 H1518 0.931 . S
C1534 C1528 1.383 . S
C1534 C1533 1.379 . S
H1535 C1529 0.959 . S
H1536 C1529 0.961 . S
H1537 C1529 0.960 . S
H1538 C1530 0.930 . S
H1539 C1531 0.929 . S
H1540 C1548 0.929 . S
H1541 C1550 0.930 . S
H1542 C1552 0.930 . S
H1543 C1555 0.929 . S
H1544 C1558 0.930 . S
H1545 C1560 0.960 . S
H1546 C1560 0.960 . S
H1547 C1560 0.960 . S
C1548 H1540 0.929 . S
C1548 C1549 1.377 . S
C1548 C1550 1.384 . S
C1549 C1548 1.377 . S
C1549 C1555 1.390 . S
C1550 H1541 0.930 . S
C1550 C1548 1.384 . S
C1550 C1551 1.372 . S
C1551 C1550 1.372 . S
C1551 C1552 1.400 . S
C1551 C1556 1.490 . S
C1552 H1542 0.930 . S
C1552 C1551 1.400 . S
C1552 C1555 1.386 . S
H1553 C1569 0.930 . S
H1554 C1570 0.931 . S
C1555 H1543 0.929 . S
C1555 C1549 1.390 . S
C1555 C1552 1.386 . S
C1556 C1551 1.490 . S
C1556 C1558 1.395 . S
C1556 C1559 1.403 . S
H1557 C1563 0.930 . S
C1558 H1544 0.930 . S
C1558 C1556 1.395 . S
C1558 C1561 1.403 . S
C1559 C1556 1.403 . S
C1559 C1560 1.524 . S
C1559 C1563 1.400 . S
C1560 H1545 0.960 . S
C1560 H1546 0.960 . S
C1560 H1547 0.960 . S
C1560 C1559 1.524 . S
C1561 C1558 1.403 . S
C1561 C1562 1.392 . S
C1561 C1565 1.495 . S
C1562 C1561 1.392 . S
C1562 C1563 1.385 . S
C1562 C1564 1.478 . S
C1563 H1557 0.930 . S
C1563 C1559 1.400 . S
C1563 C1562 1.385 . S
C1564 C1562 1.478 . S
C1564 C1566 1.381 . S
C1564 C1570 1.383 . S
C1565 C1561 1.495 . S
C1565 H1571 0.959 . S
C1565 H1572 0.961 . S
C1565 H1573 0.960 . S
C1566 C1564 1.381 . S
C1566 C1567 1.394 . S
C1566 H1574 0.930 . S
C1567 C1566 1.394 . S
C1567 C1568 1.383 . S
C1567 H1575 0.929 . S
C1568 C1567 1.383 . S
C1568 C1569 1.377 . S
C1569 H1553 0.930 . S
C1569 C1568 1.377 . S
C1569 C1570 1.379 . S
C1570 H1554 0.931 . S
C1570 C1564 1.383 . S
C1570 C1569 1.379 . S
H1571 C1565 0.959 . S
H1572 C1565 0.961 . S
H1573 C1565 0.960 . S
H1574 C1566 0.930 . S
H1575 C1567 0.929 . S
H1576 C1584 0.929 . S
H1577 C1586 0.930 . S
H1578 C1588 0.930 . S
H1579 C1591 0.929 . S
H1580 C1594 0.930 . S
H1581 C1596 0.960 . S
H1582 C1596 0.960 . S
H1583 C1596 0.960 . S
C1584 H1576 0.929 . S
C1584 C1585 1.377 . S
C1584 C1586 1.384 . S
C1585 C1584 1.377 . S
C1585 C1591 1.390 . S
C1586 H1577 0.930 . S
C1586 C1584 1.384 . S
C1586 C1587 1.372 . S
C1587 C1586 1.372 . S
C1587 C1588 1.400 . S
C1587 C1592 1.490 . S
C1588 H1578 0.930 . S
C1588 C1587 1.400 . S
C1588 C1591 1.386 . S
H1589 C1605 0.930 . S
H1590 C1606 0.931 . S
C1591 H1579 0.929 . S
C1591 C1585 1.390 . S
C1591 C1588 1.386 . S
C1592 C1587 1.490 . S
C1592 C1594 1.395 . S
C1592 C1595 1.403 . S
H1593 C1599 0.930 . S
C1594 H1580 0.930 . S
C1594 C1592 1.395 . S
C1594 C1597 1.403 . S
C1595 C1592 1.403 . S
C1595 C1596 1.524 . S
C1595 C1599 1.400 . S
C1596 H1581 0.960 . S
C1596 H1582 0.960 . S
C1596 H1583 0.960 . S
C1596 C1595 1.524 . S
C1597 C1594 1.403 . S
C1597 C1598 1.392 . S
C1597 C1601 1.495 . S
C1598 C1597 1.392 . S
C1598 C1599 1.385 . S
C1598 C1600 1.478 . S
C1599 H1593 0.930 . S
C1599 C1595 1.400 . S
C1599 C1598 1.385 . S
C1600 C1598 1.478 . S
C1600 C1602 1.381 . S
C1600 C1606 1.383 . S
C1601 C1597 1.495 . S
C1601 H1607 0.959 . S
C1601 H1608 0.961 . S
C1601 H1609 0.960 . S
C1602 C1600 1.381 . S
C1602 C1603 1.394 . S
C1602 H1610 0.930 . S
C1603 C1602 1.394 . S
C1603 C1604 1.383 . S
C1603 H1611 0.929 . S
C1604 C1603 1.383 . S
C1604 C1605 1.377 . S
C1605 H1589 0.930 . S
C1605 C1604 1.377 . S
C1605 C1606 1.379 . S
C1606 H1590 0.931 . S
C1606 C1600 1.383 . S
C1606 C1605 1.379 . S
H1607 C1601 0.959 . S
H1608 C1601 0.961 . S
H1609 C1601 0.960 . S
H1610 C1602 0.930 . S
H1611 C1603 0.929 . S
H1612 C1620 0.929 . S
H1613 C1622 0.930 . S
H1614 C1624 0.930 . S
H1615 C1627 0.929 . S
H1616 C1630 0.930 . S
H1617 C1632 0.960 . S
H1618 C1632 0.960 . S
H1619 C1632 0.960 . S
C1620 H1612 0.929 . S
C1620 C1621 1.377 . S
C1620 C1622 1.384 . S
C1621 C1620 1.377 . S
C1621 C1627 1.390 . S
C1622 H1613 0.930 . S
C1622 C1620 1.384 . S
C1622 C1623 1.372 . S
C1623 C1622 1.372 . S
C1623 C1624 1.400 . S
C1623 C1628 1.490 . S
C1624 H1614 0.930 . S
C1624 C1623 1.400 . S
C1624 C1627 1.386 . S
H1625 C1641 0.930 . S
H1626 C1642 0.931 . S
C1627 H1615 0.929 . S
C1627 C1621 1.390 . S
C1627 C1624 1.386 . S
C1628 C1623 1.490 . S
C1628 C1630 1.395 . S
C1628 C1631 1.403 . S
H1629 C1635 0.930 . S
C1630 H1616 0.930 . S
C1630 C1628 1.395 . S
C1630 C1633 1.403 . S
C1631 C1628 1.403 . S
C1631 C1632 1.524 . S
C1631 C1635 1.400 . S
C1632 H1617 0.960 . S
C1632 H1618 0.960 . S
C1632 H1619 0.960 . S
C1632 C1631 1.524 . S
C1633 C1630 1.403 . S
C1633 C1634 1.392 . S
C1633 C1637 1.495 . S
C1634 C1633 1.392 . S
C1634 C1635 1.385 . S
C1634 C1636 1.478 . S
C1635 H1629 0.930 . S
C1635 C1631 1.400 . S
C1635 C1634 1.385 . S
C1636 C1634 1.478 . S
C1636 C1638 1.381 . S
C1636 C1642 1.383 . S
C1637 C1633 1.495 . S
C1637 H1643 0.959 . S
C1637 H1644 0.961 . S
C1637 H1645 0.960 . S
C1638 C1636 1.381 . S
C1638 C1639 1.394 . S
C1638 H1646 0.930 . S
C1639 C1638 1.394 . S
C1639 C1640 1.383 . S
C1639 H1647 0.929 . S
C1640 C1639 1.383 . S
C1640 C1641 1.377 . S
C1641 H1625 0.930 . S
C1641 C1640 1.377 . S
C1641 C1642 1.379 . S
C1642 H1626 0.931 . S
C1642 C1636 1.383 . S
C1642 C1641 1.379 . S
H1643 C1637 0.959 . S
H1644 C1637 0.961 . S
H1645 C1637 0.960 . S
H1646 C1638 0.930 . S
H1647 C1639 0.929 . S
H1648 C1656 0.929 . S
H1649 C1658 0.930 . S
H1650 C1660 0.930 . S
H1651 C1663 0.929 . S
H1652 C1666 0.930 . S
H1653 C1668 0.960 . S
H1654 C1668 0.960 . S
H1655 C1668 0.960 . S
C1656 H1648 0.929 . S
C1656 C1657 1.377 . S
C1656 C1658 1.384 . S
C1657 C1656 1.377 . S
C1657 C1663 1.390 . S
C1658 H1649 0.930 . S
C1658 C1656 1.384 . S
C1658 C1659 1.372 . S
C1659 C1658 1.372 . S
C1659 C1660 1.400 . S
C1659 C1664 1.490 . S
C1660 H1650 0.930 . S
C1660 C1659 1.400 . S
C1660 C1663 1.386 . S
H1661 C1677 0.930 . S
H1662 C1678 0.931 . S
C1663 H1651 0.929 . S
C1663 C1657 1.390 . S
C1663 C1660 1.386 . S
C1664 C1659 1.490 . S
C1664 C1666 1.395 . S
C1664 C1667 1.403 . S
H1665 C1671 0.930 . S
C1666 H1652 0.930 . S
C1666 C1664 1.395 . S
C1666 C1669 1.403 . S
C1667 C1664 1.403 . S
C1667 C1668 1.524 . S
C1667 C1671 1.400 . S
C1668 H1653 0.960 . S
C1668 H1654 0.960 . S
C1668 H1655 0.960 . S
C1668 C1667 1.524 . S
C1669 C1666 1.403 . S
C1669 C1670 1.392 . S
C1669 C1673 1.495 . S
C1670 C1669 1.392 . S
C1670 C1671 1.385 . S
C1670 C1672 1.478 . S
C1671 H1665 0.930 . S
C1671 C1667 1.400 . S
C1671 C1670 1.385 . S
C1672 C1670 1.478 . S
C1672 C1674 1.381 . S
C1672 C1678 1.383 . S
C1673 C1669 1.495 . S
C1673 H1679 0.959 . S
C1673 H1680 0.961 . S
C1673 H1681 0.960 . S
C1674 C1672 1.381 . S
C1674 C1675 1.394 . S
C1674 H1682 0.930 . S
C1675 C1674 1.394 . S
C1675 C1676 1.383 . S
C1675 H1683 0.929 . S
C1676 C1675 1.383 . S
C1676 C1677 1.377 . S
C1677 H1661 0.930 . S
C1677 C1676 1.377 . S
C1677 C1678 1.379 . S
C1678 H1662 0.931 . S
C1678 C1672 1.383 . S
C1678 C1677 1.379 . S
H1679 C1673 0.959 . S
H1680 C1673 0.961 . S
H1681 C1673 0.960 . S
H1682 C1674 0.930 . S
H1683 C1675 0.929 . S
H1684 C1692 0.929 . S
H1685 C1694 0.930 . S
H1686 C1696 0.930 . S
H1687 C1699 0.929 . S
H1688 C1702 0.930 . S
H1689 C1704 0.960 . S
H1690 C1704 0.960 . S
H1691 C1704 0.960 . S
C1692 H1684 0.929 . S
C1692 C1693 1.377 . S
C1692 C1694 1.384 . S
C1693 C1692 1.377 . S
C1693 C1699 1.390 . S
C1694 H1685 0.930 . S
C1694 C1692 1.384 . S
C1694 C1695 1.372 . S
C1695 C1694 1.372 . S
C1695 C1696 1.400 . S
C1695 C1700 1.490 . S
C1696 H1686 0.930 . S
C1696 C1695 1.400 . S
C1696 C1699 1.386 . S
H1697 C1713 0.930 . S
H1698 C1714 0.931 . S
C1699 H1687 0.929 . S
C1699 C1693 1.390 . S
C1699 C1696 1.386 . S
C1700 C1695 1.490 . S
C1700 C1702 1.395 . S
C1700 C1703 1.403 . S
H1701 C1707 0.930 . S
C1702 H1688 0.930 . S
C1702 C1700 1.395 . S
C1702 C1705 1.403 . S
C1703 C1700 1.403 . S
C1703 C1704 1.524 . S
C1703 C1707 1.400 . S
C1704 H1689 0.960 . S
C1704 H1690 0.960 . S
C1704 H1691 0.960 . S
C1704 C1703 1.524 . S
C1705 C1702 1.403 . S
C1705 C1706 1.392 . S
C1705 C1709 1.495 . S
C1706 C1705 1.392 . S
C1706 C1707 1.385 . S
C1706 C1708 1.478 . S
C1707 H1701 0.930 . S
C1707 C1703 1.400 . S
C1707 C1706 1.385 . S
C1708 C1706 1.478 . S
C1708 C1710 1.381 . S
C1708 C1714 1.383 . S
C1709 C1705 1.495 . S
C1709 H1715 0.959 . S
C1709 H1716 0.961 . S
C1709 H1717 0.960 . S
C1710 C1708 1.381 . S
C1710 C1711 1.394 . S
C1710 H1718 0.930 . S
C1711 C1710 1.394 . S
C1711 C1712 1.383 . S
C1711 H1719 0.929 . S
C1712 C1711 1.383 . S
C1712 C1713 1.377 . S
C1713 H1697 0.930 . S
C1713 C1712 1.377 . S
C1713 C1714 1.379 . S
C1714 H1698 0.931 . S
C1714 C1708 1.383 . S
C1714 C1713 1.379 . S
H1715 C1709 0.959 . S
H1716 C1709 0.961 . S
H1717 C1709 0.960 . S
H1718 C1710 0.930 . S
H1719 C1711 0.929 . S
H1720 C1728 0.929 . S
H1721 C1730 0.930 . S
H1722 C1732 0.930 . S
H1723 C1735 0.929 . S
H1724 C1738 0.930 . S
H1725 C1740 0.960 . S
H1726 C1740 0.960 . S
H1727 C1740 0.960 . S
C1728 H1720 0.929 . S
C1728 C1729 1.377 . S
C1728 C1730 1.384 . S
C1729 C1728 1.377 . S
C1729 C1735 1.390 . S
C1730 H1721 0.930 . S
C1730 C1728 1.384 . S
C1730 C1731 1.372 . S
C1731 C1730 1.372 . S
C1731 C1732 1.400 . S
C1731 C1736 1.490 . S
C1732 H1722 0.930 . S
C1732 C1731 1.400 . S
C1732 C1735 1.386 . S
H1733 C1749 0.930 . S
H1734 C1750 0.931 . S
C1735 H1723 0.929 . S
C1735 C1729 1.390 . S
C1735 C1732 1.386 . S
C1736 C1731 1.490 . S
C1736 C1738 1.395 . S
C1736 C1739 1.403 . S
H1737 C1743 0.930 . S
C1738 H1724 0.930 . S
C1738 C1736 1.395 . S
C1738 C1741 1.403 . S
C1739 C1736 1.403 . S
C1739 C1740 1.524 . S
C1739 C1743 1.400 . S
C1740 H1725 0.960 . S
C1740 H1726 0.960 . S
C1740 H1727 0.960 . S
C1740 C1739 1.524 . S
C1741 C1738 1.403 . S
C1741 C1742 1.392 . S
C1741 C1745 1.495 . S
C1742 C1741 1.392 . S
C1742 C1743 1.385 . S
C1742 C1744 1.478 . S
C1743 H1737 0.930 . S
C1743 C1739 1.400 . S
C1743 C1742 1.385 . S
C1744 C1742 1.478 . S
C1744 C1746 1.381 . S
C1744 C1750 1.383 . S
C1745 C1741 1.495 . S
C1745 H1751 0.959 . S
C1745 H1752 0.961 . S
C1745 H1753 0.960 . S
C1746 C1744 1.381 . S
C1746 C1747 1.394 . S
C1746 H1754 0.930 . S
C1747 C1746 1.394 . S
C1747 C1748 1.383 . S
C1747 H1755 0.929 . S
C1748 C1747 1.383 . S
C1748 C1749 1.377 . S
C1749 H1733 0.930 . S
C1749 C1748 1.377 . S
C1749 C1750 1.379 . S
C1750 H1734 0.931 . S
C1750 C1744 1.383 . S
C1750 C1749 1.379 . S
H1751 C1745 0.959 . S
H1752 C1745 0.961 . S
H1753 C1745 0.960 . S
H1754 C1746 0.930 . S
H1755 C1747 0.929 . S
H1756 C1764 0.929 . S
H1757 C1766 0.930 . S
H1758 C1768 0.930 . S
H1759 C1771 0.929 . S
H1760 C1774 0.930 . S
H1761 C1776 0.960 . S
H1762 C1776 0.960 . S
H1763 C1776 0.960 . S
C1764 H1756 0.929 . S
C1764 C1765 1.377 . S
C1764 C1766 1.384 . S
C1765 C1764 1.377 . S
C1765 C1771 1.390 . S
C1766 H1757 0.930 . S
C1766 C1764 1.384 . S
C1766 C1767 1.372 . S
C1767 C1766 1.372 . S
C1767 C1768 1.400 . S
C1767 C1772 1.490 . S
C1768 H1758 0.930 . S
C1768 C1767 1.400 . S
C1768 C1771 1.386 . S
H1769 C1785 0.930 . S
H1770 C1786 0.931 . S
C1771 H1759 0.929 . S
C1771 C1765 1.390 . S
C1771 C1768 1.386 . S
C1772 C1767 1.490 . S
C1772 C1774 1.395 . S
C1772 C1775 1.403 . S
H1773 C1779 0.930 . S
C1774 H1760 0.930 . S
C1774 C1772 1.395 . S
C1774 C1777 1.403 . S
C1775 C1772 1.403 . S
C1775 C1776 1.524 . S
C1775 C1779 1.400 . S
C1776 H1761 0.960 . S
C1776 H1762 0.960 . S
C1776 H1763 0.960 . S
C1776 C1775 1.524 . S
C1777 C1774 1.403 . S
C1777 C1778 1.392 . S
C1777 C1781 1.495 . S
C1778 C1777 1.392 . S
C1778 C1779 1.385 . S
C1778 C1780 1.478 . S
C1779 H1773 0.930 . S
C1779 C1775 1.400 . S
C1779 C1778 1.385 . S
C1780 C1778 1.478 . S
C1780 C1782 1.381 . S
C1780 C1786 1.383 . S
C1781 C1777 1.495 . S
C1781 H1787 0.959 . S
C1781 H1788 0.961 . S
C1781 H1789 0.960 . S
C1782 C1780 1.381 . S
C1782 C1783 1.394 . S
C1782 H1790 0.930 . S
C1783 C1782 1.394 . S
C1783 C1784 1.383 . S
C1783 H1791 0.929 . S
C1784 C1783 1.383 . S
C1784 C1785 1.377 . S
C1785 H1769 0.930 . S
C1785 C1784 1.377 . S
C1785 C1786 1.379 . S
C1786 H1770 0.931 . S
C1786 C1780 1.383 . S
C1786 C1785 1.379 . S
H1787 C1781 0.959 . S
H1788 C1781 0.961 . S
H1789 C1781 0.960 . S
H1790 C1782 0.930 . S
H1791 C1783 0.929 . S
H1792 C1800 0.929 . S
H1793 C1802 0.930 . S
H1794 C1804 0.930 . S
H1795 C1807 0.929 . S
H1796 C1810 0.930 . S
H1797 C1812 0.960 . S
H1798 C1812 0.960 . S
H1799 C1812 0.960 . S
C1800 H1792 0.929 . S
C1800 C1801 1.377 . S
C1800 C1802 1.384 . S
C1801 C1800 1.377 . S
C1801 C1807 1.390 . S
C1802 H1793 0.930 . S
C1802 C1800 1.384 . S
C1802 C1803 1.372 . S
C1803 C1802 1.372 . S
C1803 C1804 1.400 . S
C1803 C1808 1.490 . S
C1804 H1794 0.930 . S
C1804 C1803 1.400 . S
C1804 C1807 1.386 . S
H1805 C1821 0.930 . S
H1806 C1822 0.931 . S
C1807 H1795 0.929 . S
C1807 C1801 1.390 . S
C1807 C1804 1.386 . S
C1808 C1803 1.490 . S
C1808 C1810 1.395 . S
C1808 C1811 1.403 . S
H1809 C1815 0.930 . S
C1810 H1796 0.930 . S
C1810 C1808 1.395 . S
C1810 C1813 1.403 . S
C1811 C1808 1.403 . S
C1811 C1812 1.524 . S
C1811 C1815 1.400 . S
C1812 H1797 0.960 . S
C1812 H1798 0.960 . S
C1812 H1799 0.960 . S
C1812 C1811 1.524 . S
C1813 C1810 1.403 . S
C1813 C1814 1.392 . S
C1813 C1817 1.495 . S
C1814 C1813 1.392 . S
C1814 C1815 1.385 . S
C1814 C1816 1.478 . S
C1815 H1809 0.930 . S
C1815 C1811 1.400 . S
C1815 C1814 1.385 . S
C1816 C1814 1.478 . S
C1816 C1818 1.381 . S
C1816 C1822 1.383 . S
C1817 C1813 1.495 . S
C1817 H1823 0.959 . S
C1817 H1824 0.961 . S
C1817 H1825 0.960 . S
C1818 C1816 1.381 . S
C1818 C1819 1.394 . S
C1818 H1826 0.930 . S
C1819 C1818 1.394 . S
C1819 C1820 1.383 . S
C1819 H1827 0.929 . S
C1820 C1819 1.383 . S
C1820 C1821 1.377 . S
C1821 H1805 0.930 . S
C1821 C1820 1.377 . S
C1821 C1822 1.379 . S
C1822 H1806 0.931 . S
C1822 C1816 1.383 . S
C1822 C1821 1.379 . S
H1823 C1817 0.959 . S
H1824 C1817 0.961 . S
H1825 C1817 0.960 . S
H1826 C1818 0.930 . S
H1827 C1819 0.929 . S
H1828 C1836 0.929 . S
H1829 C1838 0.930 . S
H1830 C1840 0.930 . S
H1831 C1843 0.929 . S
H1832 C1846 0.930 . S
H1833 C1848 0.960 . S
H1834 C1848 0.960 . S
H1835 C1848 0.960 . S
C1836 H1828 0.929 . S
C1836 C1837 1.377 . S
C1836 C1838 1.384 . S
C1837 C1836 1.377 . S
C1837 C1843 1.390 . S
C1838 H1829 0.930 . S
C1838 C1836 1.384 . S
C1838 C1839 1.372 . S
C1839 C1838 1.372 . S
C1839 C1840 1.400 . S
C1839 C1844 1.490 . S
C1840 H1830 0.930 . S
C1840 C1839 1.400 . S
C1840 C1843 1.386 . S
H1841 C1857 0.930 . S
H1842 C1858 0.931 . S
C1843 H1831 0.929 . S
C1843 C1837 1.390 . S
C1843 C1840 1.386 . S
C1844 C1839 1.490 . S
C1844 C1846 1.395 . S
C1844 C1847 1.403 . S
H1845 C1851 0.930 . S
C1846 H1832 0.930 . S
C1846 C1844 1.395 . S
C1846 C1849 1.403 . S
C1847 C1844 1.403 . S
C1847 C1848 1.524 . S
C1847 C1851 1.400 . S
C1848 H1833 0.960 . S
C1848 H1834 0.960 . S
C1848 H1835 0.960 . S
C1848 C1847 1.524 . S
C1849 C1846 1.403 . S
C1849 C1850 1.392 . S
C1849 C1853 1.495 . S
C1850 C1849 1.392 . S
C1850 C1851 1.385 . S
C1850 C1852 1.478 . S
C1851 H1845 0.930 . S
C1851 C1847 1.400 . S
C1851 C1850 1.385 . S
C1852 C1850 1.478 . S
C1852 C1854 1.381 . S
C1852 C1858 1.383 . S
C1853 C1849 1.495 . S
C1853 H1859 0.959 . S
C1853 H1860 0.961 . S
C1853 H1861 0.960 . S
C1854 C1852 1.381 . S
C1854 C1855 1.394 . S
C1854 H1862 0.930 . S
C1855 C1854 1.394 . S
C1855 C1856 1.383 . S
C1855 H1863 0.929 . S
C1856 C1855 1.383 . S
C1856 C1857 1.377 . S
C1857 H1841 0.930 . S
C1857 C1856 1.377 . S
C1857 C1858 1.379 . S
C1858 H1842 0.931 . S
C1858 C1852 1.383 . S
C1858 C1857 1.379 . S
H1859 C1853 0.959 . S
H1860 C1853 0.961 . S
H1861 C1853 0.960 . S
H1862 C1854 0.930 . S
H1863 C1855 0.929 . S
H1864 C1872 0.929 . S
H1865 C1874 0.930 . S
H1866 C1876 0.930 . S
H1867 C1879 0.929 . S
H1868 C1882 0.930 . S
H1869 C1884 0.960 . S
H1870 C1884 0.960 . S
H1871 C1884 0.960 . S
C1872 H1864 0.929 . S
C1872 C1873 1.377 . S
C1872 C1874 1.384 . S
C1873 C1872 1.377 . S
C1873 C1879 1.390 . S
C1874 H1865 0.930 . S
C1874 C1872 1.384 . S
C1874 C1875 1.372 . S
C1875 C1874 1.372 . S
C1875 C1876 1.400 . S
C1875 C1880 1.490 . S
C1876 H1866 0.930 . S
C1876 C1875 1.400 . S
C1876 C1879 1.386 . S
H1877 C1893 0.930 . S
H1878 C1894 0.931 . S
C1879 H1867 0.929 . S
C1879 C1873 1.390 . S
C1879 C1876 1.386 . S
C1880 C1875 1.490 . S
C1880 C1882 1.395 . S
C1880 C1883 1.403 . S
H1881 C1887 0.930 . S
C1882 H1868 0.930 . S
C1882 C1880 1.395 . S
C1882 C1885 1.403 . S
C1883 C1880 1.403 . S
C1883 C1884 1.524 . S
C1883 C1887 1.400 . S
C1884 H1869 0.960 . S
C1884 H1870 0.960 . S
C1884 H1871 0.960 . S
C1884 C1883 1.524 . S
C1885 C1882 1.403 . S
C1885 C1886 1.392 . S
C1885 C1889 1.495 . S
C1886 C1885 1.392 . S
C1886 C1887 1.385 . S
C1886 C1888 1.478 . S
C1887 H1881 0.930 . S
C1887 C1883 1.400 . S
C1887 C1886 1.385 . S
C1888 C1886 1.478 . S
C1888 C1890 1.381 . S
C1888 C1894 1.383 . S
C1889 C1885 1.495 . S
C1889 H1895 0.959 . S
C1889 H1896 0.961 . S
C1889 H1897 0.960 . S
C1890 C1888 1.381 . S
C1890 C1891 1.394 . S
C1890 H1898 0.930 . S
C1891 C1890 1.394 . S
C1891 C1892 1.383 . S
C1891 H1899 0.929 . S
C1892 C1891 1.383 . S
C1892 C1893 1.377 . S
C1893 H1877 0.930 . S
C1893 C1892 1.377 . S
C1893 C1894 1.379 . S
C1894 H1878 0.931 . S
C1894 C1888 1.383 . S
C1894 C1893 1.379 . S
H1895 C1889 0.959 . S
H1896 C1889 0.961 . S
H1897 C1889 0.960 . S
H1898 C1890 0.930 . S
H1899 C1891 0.929 . S
H1900 C1908 0.929 . S
H1901 C1910 0.930 . S
H1902 C1912 0.930 . S
H1903 C1915 0.929 . S
H1904 C1918 0.930 . S
H1905 C1920 0.960 . S
H1906 C1920 0.960 . S
H1907 C1920 0.960 . S
C1908 H1900 0.929 . S
C1908 C1909 1.377 . S
C1908 C1910 1.384 . S
C1909 C1908 1.377 . S
C1909 C1915 1.390 . S
C1910 H1901 0.930 . S
C1910 C1908 1.384 . S
C1910 C1911 1.372 . S
C1911 C1910 1.372 . S
C1911 C1912 1.400 . S
C1911 C1916 1.490 . S
C1912 H1902 0.930 . S
C1912 C1911 1.400 . S
C1912 C1915 1.386 . S
H1913 C1929 0.930 . S
H1914 C1930 0.931 . S
C1915 H1903 0.929 . S
C1915 C1909 1.390 . S
C1915 C1912 1.386 . S
C1916 C1911 1.490 . S
C1916 C1918 1.395 . S
C1916 C1919 1.403 . S
H1917 C1923 0.930 . S
C1918 H1904 0.930 . S
C1918 C1916 1.395 . S
C1918 C1921 1.403 . S
C1919 C1916 1.403 . S
C1919 C1920 1.524 . S
C1919 C1923 1.400 . S
C1920 H1905 0.960 . S
C1920 H1906 0.960 . S
C1920 H1907 0.960 . S
C1920 C1919 1.524 . S
C1921 C1918 1.403 . S
C1921 C1922 1.392 . S
C1921 C1925 1.495 . S
C1922 C1921 1.392 . S
C1922 C1923 1.385 . S
C1922 C1924 1.478 . S
C1923 H1917 0.930 . S
C1923 C1919 1.400 . S
C1923 C1922 1.385 . S
C1924 C1922 1.478 . S
C1924 C1926 1.381 . S
C1924 C1930 1.383 . S
C1925 C1921 1.495 . S
C1925 H1931 0.959 . S
C1925 H1932 0.961 . S
C1925 H1933 0.960 . S
C1926 C1924 1.381 . S
C1926 C1927 1.394 . S
C1926 H1934 0.930 . S
C1927 C1926 1.394 . S
C1927 C1928 1.383 . S
C1927 H1935 0.929 . S
C1928 C1927 1.383 . S
C1928 C1929 1.377 . S
C1929 H1913 0.930 . S
C1929 C1928 1.377 . S
C1929 C1930 1.379 . S
C1930 H1914 0.931 . S
C1930 C1924 1.383 . S
C1930 C1929 1.379 . S
H1931 C1925 0.959 . S
H1932 C1925 0.961 . S
H1933 C1925 0.960 . S
H1934 C1926 0.930 . S
H1935 C1927 0.929 . S
H1936 C1944 0.929 . S
H1937 C1946 0.930 . S
H1938 C1948 0.930 . S
H1939 C1951 0.929 . S
H1940 C1954 0.930 . S
H1941 C1956 0.960 . S
H1942 C1956 0.960 . S
H1943 C1956 0.960 . S
C1944 H1936 0.929 . S
C1944 C1945 1.377 . S
C1944 C1946 1.384 . S
C1945 C1944 1.377 . S
C1945 C1951 1.390 . S
C1946 H1937 0.930 . S
C1946 C1944 1.384 . S
C1946 C1947 1.372 . S
C1947 C1946 1.372 . S
C1947 C1948 1.400 . S
C1947 C1952 1.490 . S
C1948 H1938 0.930 . S
C1948 C1947 1.400 . S
C1948 C1951 1.386 . S
H1949 C1965 0.930 . S
H1950 C1966 0.931 . S
C1951 H1939 0.929 . S
C1951 C1945 1.390 . S
C1951 C1948 1.386 . S
C1952 C1947 1.490 . S
C1952 C1954 1.395 . S
C1952 C1955 1.403 . S
H1953 C1959 0.930 . S
C1954 H1940 0.930 . S
C1954 C1952 1.395 . S
C1954 C1957 1.403 . S
C1955 C1952 1.403 . S
C1955 C1956 1.524 . S
C1955 C1959 1.400 . S
C1956 H1941 0.960 . S
C1956 H1942 0.960 . S
C1956 H1943 0.960 . S
C1956 C1955 1.524 . S
C1957 C1954 1.403 . S
C1957 C1958 1.392 . S
C1957 C1961 1.495 . S
C1958 C1957 1.392 . S
C1958 C1959 1.385 . S
C1958 C1960 1.478 . S
C1959 H1953 0.930 . S
C1959 C1955 1.400 . S
C1959 C1958 1.385 . S
C1960 C1958 1.478 . S
C1960 C1962 1.381 . S
C1960 C1966 1.383 . S
C1961 C1957 1.495 . S
C1961 H1967 0.959 . S
C1961 H1968 0.961 . S
C1961 H1969 0.960 . S
C1962 C1960 1.381 . S
C1962 C1963 1.394 . S
C1962 H1970 0.930 . S
C1963 C1962 1.394 . S
C1963 C1964 1.383 . S
C1963 H1971 0.929 . S
C1964 C1963 1.383 . S
C1964 C1965 1.377 . S
C1965 H1949 0.930 . S
C1965 C1964 1.377 . S
C1965 C1966 1.379 . S
C1966 H1950 0.931 . S
C1966 C1960 1.383 . S
C1966 C1965 1.379 . S
H1967 C1961 0.959 . S
H1968 C1961 0.961 . S
H1969 C1961 0.960 . S
H1970 C1962 0.930 . S
H1971 C1963 0.929 . S
H1972 C1980 0.929 . S
H1973 C1982 0.930 . S
H1974 C1984 0.930 . S
H1975 C1987 0.929 . S
H1976 C1990 0.930 . S
H1977 C1992 0.960 . S
H1978 C1992 0.960 . S
H1979 C1992 0.960 . S
C1980 H1972 0.929 . S
C1980 C1981 1.377 . S
C1980 C1982 1.384 . S
C1981 C1980 1.377 . S
C1981 C1987 1.390 . S
C1982 H1973 0.930 . S
C1982 C1980 1.384 . S
C1982 C1983 1.372 . S
C1983 C1982 1.372 . S
C1983 C1984 1.400 . S
C1983 C1988 1.490 . S
C1984 H1974 0.930 . S
C1984 C1983 1.400 . S
C1984 C1987 1.386 . S
H1985 C2001 0.930 . S
H1986 C2002 0.931 . S
C1987 H1975 0.929 . S
C1987 C1981 1.390 . S
C1987 C1984 1.386 . S
C1988 C1983 1.490 . S
C1988 C1990 1.395 . S
C1988 C1991 1.403 . S
H1989 C1995 0.930 . S
C1990 H1976 0.930 . S
C1990 C1988 1.395 . S
C1990 C1993 1.403 . S
C1991 C1988 1.403 . S
C1991 C1992 1.524 . S
C1991 C1995 1.400 . S
C1992 H1977 0.960 . S
C1992 H1978 0.960 . S
C1992 H1979 0.960 . S
C1992 C1991 1.524 . S
C1993 C1990 1.403 . S
C1993 C1994 1.392 . S
C1993 C1997 1.495 . S
C1994 C1993 1.392 . S
C1994 C1995 1.385 . S
C1994 C1996 1.478 . S
C1995 H1989 0.930 . S
C1995 C1991 1.400 . S
C1995 C1994 1.385 . S
C1996 C1994 1.478 . S
C1996 C1998 1.381 . S
C1996 C2002 1.383 . S
C1997 C1993 1.495 . S
C1997 H2003 0.959 . S
C1997 H2004 0.961 . S
C1997 H2005 0.960 . S
C1998 C1996 1.381 . S
C1998 C1999 1.394 . S
C1998 H2006 0.930 . S
C1999 C1998 1.394 . S
C1999 C2000 1.383 . S
C1999 H2007 0.929 . S
C2000 C1999 1.383 . S
C2000 C2001 1.377 . S
C2001 H1985 0.930 . S
C2001 C2000 1.377 . S
C2001 C2002 1.379 . S
C2002 H1986 0.931 . S
C2002 C1996 1.383 . S
C2002 C2001 1.379 . S
H2003 C1997 0.959 . S
H2004 C1997 0.961 . S
H2005 C1997 0.960 . S
H2006 C1998 0.930 . S
H2007 C1999 0.929 . S
H2008 C2016 0.929 . S
H2009 C2018 0.930 . S
H2010 C2020 0.930 . S
H2011 C2023 0.929 . S
H2012 C2026 0.930 . S
H2013 C2028 0.960 . S
H2014 C2028 0.960 . S
H2015 C2028 0.960 . S
C2016 H2008 0.929 . S
C2016 C2017 1.377 . S
C2016 C2018 1.384 . S
C2017 C2016 1.377 . S
C2017 C2023 1.390 . S
C2018 H2009 0.930 . S
C2018 C2016 1.384 . S
C2018 C2019 1.372 . S
C2019 C2018 1.372 . S
C2019 C2020 1.400 . S
C2019 C2024 1.490 . S
C2020 H2010 0.930 . S
C2020 C2019 1.400 . S
C2020 C2023 1.386 . S
H2021 C2037 0.930 . S
H2022 C2038 0.931 . S
C2023 H2011 0.929 . S
C2023 C2017 1.390 . S
C2023 C2020 1.386 . S
C2024 C2019 1.490 . S
C2024 C2026 1.395 . S
C2024 C2027 1.403 . S
H2025 C2031 0.930 . S
C2026 H2012 0.930 . S
C2026 C2024 1.395 . S
C2026 C2029 1.403 . S
C2027 C2024 1.403 . S
C2027 C2028 1.524 . S
C2027 C2031 1.400 . S
C2028 H2013 0.960 . S
C2028 H2014 0.960 . S
C2028 H2015 0.960 . S
C2028 C2027 1.524 . S
C2029 C2026 1.403 . S
C2029 C2030 1.392 . S
C2029 C2033 1.495 . S
C2030 C2029 1.392 . S
C2030 C2031 1.385 . S
C2030 C2032 1.478 . S
C2031 H2025 0.930 . S
C2031 C2027 1.400 . S
C2031 C2030 1.385 . S
C2032 C2030 1.478 . S
C2032 C2034 1.381 . S
C2032 C2038 1.383 . S
C2033 C2029 1.495 . S
C2033 H2039 0.959 . S
C2033 H2040 0.961 . S
C2033 H2041 0.960 . S
C2034 C2032 1.381 . S
C2034 C2035 1.394 . S
C2034 H2042 0.930 . S
C2035 C2034 1.394 . S
C2035 C2036 1.383 . S
C2035 H2043 0.929 . S
C2036 C2035 1.383 . S
C2036 C2037 1.377 . S
C2037 H2021 0.930 . S
C2037 C2036 1.377 . S
C2037 C2038 1.379 . S
C2038 H2022 0.931 . S
C2038 C2032 1.383 . S
C2038 C2037 1.379 . S
H2039 C2033 0.959 . S
H2040 C2033 0.961 . S
H2041 C2033 0.960 . S
H2042 C2034 0.930 . S
H2043 C2035 0.929 . S
H2044 C2052 0.929 . S
H2045 C2054 0.930 . S
H2046 C2056 0.930 . S
H2047 C2059 0.929 . S
H2048 C2062 0.930 . S
H2049 C2064 0.960 . S
H2050 C2064 0.960 . S
H2051 C2064 0.960 . S
C2052 H2044 0.929 . S
C2052 C2053 1.377 . S
C2052 C2054 1.384 . S
C2053 C2052 1.377 . S
C2053 C2059 1.390 . S
C2054 H2045 0.930 . S
C2054 C2052 1.384 . S
C2054 C2055 1.372 . S
C2055 C2054 1.372 . S
C2055 C2056 1.400 . S
C2055 C2060 1.490 . S
C2056 H2046 0.930 . S
C2056 C2055 1.400 . S
C2056 C2059 1.386 . S
H2057 C2073 0.930 . S
H2058 C2074 0.931 . S
C2059 H2047 0.929 . S
C2059 C2053 1.390 . S
C2059 C2056 1.386 . S
C2060 C2055 1.490 . S
C2060 C2062 1.395 . S
C2060 C2063 1.403 . S
H2061 C2067 0.930 . S
C2062 H2048 0.930 . S
C2062 C2060 1.395 . S
C2062 C2065 1.403 . S
C2063 C2060 1.403 . S
C2063 C2064 1.524 . S
C2063 C2067 1.400 . S
C2064 H2049 0.960 . S
C2064 H2050 0.960 . S
C2064 H2051 0.960 . S
C2064 C2063 1.524 . S
C2065 C2062 1.403 . S
C2065 C2066 1.392 . S
C2065 C2069 1.495 . S
C2066 C2065 1.392 . S
C2066 C2067 1.385 . S
C2066 C2068 1.478 . S
C2067 H2061 0.930 . S
C2067 C2063 1.400 . S
C2067 C2066 1.385 . S
C2068 C2066 1.478 . S
C2068 C2070 1.381 . S
C2068 C2074 1.383 . S
C2069 C2065 1.495 . S
C2069 H2075 0.959 . S
C2069 H2076 0.961 . S
C2069 H2077 0.960 . S
C2070 C2068 1.381 . S
C2070 C2071 1.394 . S
C2070 H2078 0.930 . S
C2071 C2070 1.394 . S
C2071 C2072 1.383 . S
C2071 H2079 0.929 . S
C2072 C2071 1.383 . S
C2072 C2073 1.377 . S
C2073 H2057 0.930 . S
C2073 C2072 1.377 . S
C2073 C2074 1.379 . S
C2074 H2058 0.931 . S
C2074 C2068 1.383 . S
C2074 C2073 1.379 . S
H2075 C2069 0.959 . S
H2076 C2069 0.961 . S
H2077 C2069 0.960 . S
H2078 C2070 0.930 . S
H2079 C2071 0.929 . S
C380 C177 1.702 . S
C361 C9 1.701 . S
C416 C182 1.933 . S
C397 C28 1.918 . S
C452 C183 1.060 . S
C433 C49 1.107 . S
C469 C79 1.909 . S
C488 C187 1.948 . S
C505 C99 1.910 . S
C524 C190 1.916 . S
C560 C191 1.080 . S
C541 C101 1.089 . S
C577 C128 1.915 . S
C596 C168 1.936 . S
C613 C141 1.706 . S
C632 C184 1.713 . S
C668 C222 1.172 . S
C649 C16 1.187 . S
C685 C26 1.015 . S
C704 C248 1.038 . S
C740 C200 1.195 . S
C721 C56 1.161 . S
C776 C255 1.014 . S
C757 C69 1.062 . S
C793 C89 1.087 . S
C812 C209 1.108 . S
C848 C251 1.918 . S
C829 C108 1.894 . S
C865 C126 1.038 . S
C884 C215 1.079 . S
C901 C148 1.902 . S
C920 C246 1.931 . S
C937 C19 1.911 . S
C956 C254 1.904 . S
C973 C96 1.001 . S
C992 C241 1.000 . S
C1028 C219 1.202 . S
C1009 C106 1.171 . S
C1064 C247 1.020 . S
C1045 C121 1.080 . S
C1081 C146 1.190 . S
C1100 C214 1.226 . S
C1117 C59 1.886 . S
C1136 C232 1.928 . S
C1172 C223 1.047 . S
C1153 C76 1.037 . S
C1189 C21 1.088 . S
C1208 C216 1.089 . S
C1225 C149 1.673 . S
C1244 C278 1.642 . S
C1261 C88 1.886 . S
C1280 C273 1.918 . S
C1316 C287 1.016 . S
C1297 C109 1.068 . S
C1352 C264 1.944 . S
C1333 C139 1.887 . S
C1369 C39 1.891 . S
C1388 C280 1.918 . S
C1424 C279 1.077 . S
C1405 C41 1.072 . S
C1441 C68 1.885 . S
C1460 C283 1.912 . S
C1477 C1 1.680 . S
C1496 C286 1.653 . S
C1513 C156 1.192 . S
C1532 C312 1.225 . S
C1568 C328 1.011 . S
C1549 C86 1.039 . S
C1585 C116 1.161 . S
C1604 C310 1.140 . S
C1621 C129 1.097 . S
C1640 C343 1.076 . S
C1676 C319 1.102 . S
C1657 C29 1.081 . S
C1693 C48 1.919 . S
C1712 C337 1.937 . S
C1748 C315 1.019 . S
C1729 C66 1.032 . S
C1784 C350 1.912 . S
C1765 C8 1.937 . S
C1820 C342 1.914 . S
C1801 C159 1.934 . S
C1837 C36 1.040 . S
C1856 C347 1.045 . S
C1873 C46 1.171 . S
C1892 C318 1.147 . S
C1928 C351 1.115 . S
C1909 C61 1.098 . S
C1945 C6 1.180 . S
C1964 C305 1.209 . S
C1981 C119 1.920 . S
C2000 C344 1.942 . S
C2036 C296 1.071 . S
C2017 C136 1.044 . S
C2072 C311 1.056 . S
C2053 C81 1.078 . S
