# Generated by pormake.
# Topology ibd, (4,6)-cn, num edge types: 1
# Building blocks:
#     Node 0, Type 0, BuildingBlock: GALJAG_clean_sbu_0, # of connection points: 4
#     Node 1, Type 0, BuildingBlock: GALJAG_clean_sbu_0, # of connection points: 4
#     Node 2, Type 0, BuildingBlock: GALJAG_clean_sbu_0, # of connection points: 4
#     Node 3, Type 0, BuildingBlock: GALJAG_clean_sbu_0, # of connection points: 4
#     Node 4, Type 0, BuildingBlock: GALJAG_clean_sbu_0, # of connection points: 4
#     Node 5, Type 0, BuildingBlock: GALJAG_clean_sbu_0, # of connection points: 4
#     Node 6, Type 0, BuildingBlock: GALJAG_clean_sbu_0, # of connection points: 4
#     Node 7, Type 0, BuildingBlock: GALJAG_clean_sbu_0, # of connection points: 4
#     Node 8, Type 0, BuildingBlock: GALJAG_clean_sbu_0, # of connection points: 4
#     Node 9, Type 0, BuildingBlock: GALJAG_clean_sbu_0, # of connection points: 4
#     Node 10, Type 0, BuildingBlock: GALJAG_clean_sbu_0, # of connection points: 4
#     Node 11, Type 0, BuildingBlock: GALJAG_clean_sbu_0, # of connection points: 4
#     Node 12, Type 0, BuildingBlock: GALJAG_clean_sbu_0, # of connection points: 4
#     Node 13, Type 0, BuildingBlock: GALJAG_clean_sbu_0, # of connection points: 4
#     Node 14, Type 0, BuildingBlock: GALJAG_clean_sbu_0, # of connection points: 4
#     Node 15, Type 0, BuildingBlock: GALJAG_clean_sbu_0, # of connection points: 4
#     Node 16, Type 0, BuildingBlock: GALJAG_clean_sbu_0, # of connection points: 4
#     Node 17, Type 0, BuildingBlock: GALJAG_clean_sbu_0, # of connection points: 4
#     Node 18, Type 0, BuildingBlock: GALJAG_clean_sbu_0, # of connection points: 4
#     Node 19, Type 0, BuildingBlock: GALJAG_clean_sbu_0, # of connection points: 4
#     Node 20, Type 0, BuildingBlock: GALJAG_clean_sbu_0, # of connection points: 4
#     Node 21, Type 0, BuildingBlock: GALJAG_clean_sbu_0, # of connection points: 4
#     Node 22, Type 0, BuildingBlock: GALJAG_clean_sbu_0, # of connection points: 4
#     Node 23, Type 0, BuildingBlock: GALJAG_clean_sbu_0, # of connection points: 4
#     Node 24, Type 1, BuildingBlock: CIFDUS_clean_sbu_1, # of connection points: 6
#     Node 25, Type 1, BuildingBlock: CIFDUS_clean_sbu_1, # of connection points: 6
#     Node 26, Type 1, BuildingBlock: CIFDUS_clean_sbu_1, # of connection points: 6
#     Node 27, Type 1, BuildingBlock: CIFDUS_clean_sbu_1, # of connection points: 6
#     Node 28, Type 1, BuildingBlock: CIFDUS_clean_sbu_1, # of connection points: 6
#     Node 29, Type 1, BuildingBlock: CIFDUS_clean_sbu_1, # of connection points: 6
#     Node 30, Type 1, BuildingBlock: CIFDUS_clean_sbu_1, # of connection points: 6
#     Node 31, Type 1, BuildingBlock: CIFDUS_clean_sbu_1, # of connection points: 6
#     Node 32, Type 1, BuildingBlock: CIFDUS_clean_sbu_1, # of connection points: 6
#     Node 33, Type 1, BuildingBlock: CIFDUS_clean_sbu_1, # of connection points: 6
#     Node 34, Type 1, BuildingBlock: CIFDUS_clean_sbu_1, # of connection points: 6
#     Node 35, Type 1, BuildingBlock: CIFDUS_clean_sbu_1, # of connection points: 6
#     Node 36, Type 1, BuildingBlock: CIFDUS_clean_sbu_1, # of connection points: 6
#     Node 37, Type 1, BuildingBlock: CIFDUS_clean_sbu_1, # of connection points: 6
#     Node 38, Type 1, BuildingBlock: CIFDUS_clean_sbu_1, # of connection points: 6
#     Node 39, Type 1, BuildingBlock: CIFDUS_clean_sbu_1, # of connection points: 6
#     Edge 40, Type (0, 1), None
#     Edge 41, Type (0, 1), None
#     Edge 42, Type (0, 1), None
#     Edge 43, Type (0, 1), None
#     Edge 44, Type (0, 1), None
#     Edge 45, Type (0, 1), None
#     Edge 46, Type (0, 1), None
#     Edge 47, Type (0, 1), None
#     Edge 48, Type (0, 1), None
#     Edge 49, Type (0, 1), None
#     Edge 50, Type (0, 1), None
#     Edge 51, Type (0, 1), None
#     Edge 52, Type (0, 1), None
#     Edge 53, Type (0, 1), None
#     Edge 54, Type (0, 1), None
#     Edge 55, Type (0, 1), None
#     Edge 56, Type (0, 1), None
#     Edge 57, Type (0, 1), None
#     Edge 58, Type (0, 1), None
#     Edge 59, Type (0, 1), None
#     Edge 60, Type (0, 1), None
#     Edge 61, Type (0, 1), None
#     Edge 62, Type (0, 1), None
#     Edge 63, Type (0, 1), None
#     Edge 64, Type (0, 1), None
#     Edge 65, Type (0, 1), None
#     Edge 66, Type (0, 1), None
#     Edge 67, Type (0, 1), None
#     Edge 68, Type (0, 1), None
#     Edge 69, Type (0, 1), None
#     Edge 70, Type (0, 1), None
#     Edge 71, Type (0, 1), None
#     Edge 72, Type (0, 1), None
#     Edge 73, Type (0, 1), None
#     Edge 74, Type (0, 1), None
#     Edge 75, Type (0, 1), None
#     Edge 76, Type (0, 1), None
#     Edge 77, Type (0, 1), None
#     Edge 78, Type (0, 1), None
#     Edge 79, Type (0, 1), None
#     Edge 80, Type (0, 1), None
#     Edge 81, Type (0, 1), None
#     Edge 82, Type (0, 1), None
#     Edge 83, Type (0, 1), None
#     Edge 84, Type (0, 1), None
#     Edge 85, Type (0, 1), None
#     Edge 86, Type (0, 1), None
#     Edge 87, Type (0, 1), None
#     Edge 88, Type (0, 1), None
#     Edge 89, Type (0, 1), None
#     Edge 90, Type (0, 1), None
#     Edge 91, Type (0, 1), None
#     Edge 92, Type (0, 1), None
#     Edge 93, Type (0, 1), None
#     Edge 94, Type (0, 1), None
#     Edge 95, Type (0, 1), None
#     Edge 96, Type (0, 1), None
#     Edge 97, Type (0, 1), None
#     Edge 98, Type (0, 1), None
#     Edge 99, Type (0, 1), None
#     Edge 100, Type (0, 1), None
#     Edge 101, Type (0, 1), None
#     Edge 102, Type (0, 1), None
#     Edge 103, Type (0, 1), None
#     Edge 104, Type (0, 1), None
#     Edge 105, Type (0, 1), None
#     Edge 106, Type (0, 1), None
#     Edge 107, Type (0, 1), None
#     Edge 108, Type (0, 1), None
#     Edge 109, Type (0, 1), None
#     Edge 110, Type (0, 1), None
#     Edge 111, Type (0, 1), None
#     Edge 112, Type (0, 1), None
#     Edge 113, Type (0, 1), None
#     Edge 114, Type (0, 1), None
#     Edge 115, Type (0, 1), None
#     Edge 116, Type (0, 1), None
#     Edge 117, Type (0, 1), None
#     Edge 118, Type (0, 1), None
#     Edge 119, Type (0, 1), None
#     Edge 120, Type (0, 1), None
#     Edge 121, Type (0, 1), None
#     Edge 122, Type (0, 1), None
#     Edge 123, Type (0, 1), None
#     Edge 124, Type (0, 1), None
#     Edge 125, Type (0, 1), None
#     Edge 126, Type (0, 1), None
#     Edge 127, Type (0, 1), None
#     Edge 128, Type (0, 1), None
#     Edge 129, Type (0, 1), None
#     Edge 130, Type (0, 1), None
#     Edge 131, Type (0, 1), None
#     Edge 132, Type (0, 1), None
#     Edge 133, Type (0, 1), None
#     Edge 134, Type (0, 1), None
#     Edge 135, Type (0, 1), None
# Relax obj value: 0.254
# Max RMSD: 0.285
# Mean RMSD: 0.232
data_MOF--net-ibd--node1-GALJAG_clean_sbu_0--node2-CIFDUS_clean_sbu_1--edge1-none
_symmetry_space_group_name_H-M    P1
_symmetry_Int_Tables_number       1
_symmetry_cell_setting            triclinic
loop_
_symmetry_equiv_pos_as_xyz
'x, y, z'
_cell_length_a     22.192748
_cell_length_b     22.673631
_cell_length_c     22.942505
_cell_angle_alpha  90.507756
_cell_angle_beta   89.547559
_cell_angle_gamma 92.086359
loop_
_atom_site_label
_atom_site_type_symbol
_atom_site_fract_x
_atom_site_fract_y
_atom_site_fract_z
_atom_type_partial_charge
In0 In 0.99141 0.31118 0.37326 0.0
O1 O 0.06743 0.30698 0.30873 0.0
O2 O -0.00122 0.23843 0.30466 0.0
C3 C 0.04563 0.35678 0.46432 0.0
C4 C 0.91311 0.36065 0.30421 0.0
C5 C 0.94413 0.24282 0.45664 0.0
O6 O 0.06425 0.30939 0.44271 0.0
O7 O 0.01482 0.38767 0.43052 0.0
O8 O 0.92848 0.29543 0.45161 0.0
O9 O 0.97527 0.22281 0.41474 0.0
C10 C 0.04532 0.26238 0.28142 0.0
O11 O 0.899 0.33307 0.35019 0.0
O12 O 0.96864 0.37204 0.29698 0.0
In13 In -0.00215 0.77918 0.63919 0.0
O14 O 0.98221 0.84613 0.71265 0.0
O15 O 0.911 0.78529 0.68709 0.0
C16 C 0.04728 0.84697 0.55559 0.0
C17 C 0.06055 0.73196 0.7236 0.0
C18 C 0.95107 0.71324 0.55289 0.0
O19 O 0.00917 0.86604 0.5919 0.0
O20 O 0.06694 0.7967 0.56637 0.0
O21 O 0.98864 0.69361 0.58849 0.0
O22 O 0.93065 0.76305 0.56551 0.0
C23 C 0.93057 0.82358 0.72353 0.0
O24 O 0.00948 0.71004 0.70994 0.0
O25 O 0.0823 0.77115 0.68955 0.0
In26 In 0.4913 0.81153 0.87375 0.0
O27 O 0.56839 0.80717 0.81073 0.0
O28 O 0.49975 0.73848 0.80591 0.0
C29 C 0.54525 0.85712 0.96481 0.0
C30 C 0.41315 0.86059 0.80414 0.0
C31 C 0.44393 0.74299 0.95684 0.0
O32 O 0.56395 0.80977 0.94322 0.0
O33 O 0.51439 0.888 0.93104 0.0
O34 O 0.42851 0.7957 0.95211 0.0
O35 O 0.47488 0.72304 0.9148 0.0
C36 C 0.547 0.76209 0.78371 0.0
O37 O 0.39896 0.83325 0.85022 0.0
O38 O 0.46871 0.8718 0.79689 0.0
In39 In 0.49787 0.27915 0.13923 0.0
O40 O 0.5095 0.21002 0.20998 0.0
O41 O 0.58231 0.27114 0.18963 0.0
C42 C 0.45114 0.21321 0.0529 0.0
C43 C 0.43059 0.32356 0.22356 0.0
C44 C 0.54724 0.34696 0.05561 0.0
O45 O 0.48873 0.1936 0.08849 0.0
O46 O 0.43066 0.26298 0.06555 0.0
O47 O 0.50912 0.366 0.09193 0.0
O48 O 0.56695 0.29671 0.0664 0.0
C49 C 0.56056 0.23194 0.22366 0.0
O50 O 0.48223 0.34612 0.21268 0.0
O51 O 0.41102 0.28527 0.18712 0.0
In52 In -0.00678 0.78672 0.12622 0.0
O53 O 0.92245 0.81954 0.06064 0.0
O54 O 0.0016 0.87232 0.07843 0.0
C55 C 0.92802 0.74035 0.21442 0.0
C56 C 0.03167 0.71023 0.04488 0.0
C57 C 0.06136 0.8281 0.2144 0.0
O58 O 0.90688 0.77632 0.17861 0.0
O59 O 0.97872 0.72068 0.20084 0.0
O60 O 0.08175 0.79601 0.17376 0.0
O61 O 0.00935 0.84703 0.20612 0.0
C62 C 0.95437 0.86491 0.04827 0.0
O63 O 0.06682 0.75077 0.06413 0.0
O64 O 0.98086 0.70639 0.07015 0.0
In65 In 0.52267 0.78194 0.38882 0.0
O66 O 0.52805 0.68853 0.41489 0.0
O67 O 0.58154 0.75035 0.46466 0.0
C68 C 0.45261 0.74707 0.29993 0.0
C69 C 0.47856 0.83644 0.4823 0.0
C70 C 0.57188 0.83912 0.30082 0.0
O71 O 0.50421 0.72597 0.3057 0.0
O72 O 0.43378 0.77645 0.34342 0.0
O73 O 0.52535 0.85857 0.32503 0.0
O74 O 0.60218 0.80551 0.33279 0.0
C75 C 0.55837 0.69889 0.46057 0.0
O76 O 0.52841 0.85169 0.45842 0.0
O77 O 0.44754 0.79796 0.45426 0.0
In78 In 0.49332 0.28656 0.62612 0.0
O79 O 0.56695 0.25055 0.56408 0.0
O80 O 0.48097 0.20622 0.57004 0.0
C81 C 0.56127 0.32811 0.71436 0.0
C82 C 0.45439 0.36479 0.54824 0.0
C83 C 0.42828 0.23998 0.71431 0.0
O84 O 0.58181 0.29618 0.67366 0.0
O85 O 0.50917 0.34683 0.70612 0.0
O86 O 0.407 0.27581 0.67844 0.0
O87 O 0.47911 0.22054 0.70081 0.0
C88 C 0.53181 0.21002 0.54481 0.0
O89 O 0.42246 0.31945 0.56067 0.0
O90 O 0.50169 0.37215 0.57831 0.0
In91 In 0.02261 0.28167 0.88896 0.0
O92 O 0.02755 0.18802 0.91452 0.0
O93 O 0.08017 0.24941 0.96556 0.0
C94 C 0.95261 0.24705 0.79994 0.0
C95 C 0.97856 0.3364 0.98231 0.0
C96 C 0.07199 0.33889 0.80098 0.0
O97 O 0.00418 0.22588 0.80572 0.0
O98 O 0.93377 0.27637 0.84348 0.0
O99 O 0.02546 0.35835 0.82519 0.0
O100 O 0.10225 0.30526 0.83298 0.0
C101 C 0.05696 0.19802 0.9608 0.0
O102 O 0.02856 0.35142 0.9586 0.0
O103 O 0.94742 0.29811 0.95415 0.0
In104 In 0.37197 0.02734 0.23538 0.0
O105 O 0.30383 0.95217 0.24103 0.0
O106 O 0.30671 0.01422 0.31177 0.0
C107 C 0.45635 0.00026 0.15937 0.0
C108 C 0.29336 0.10426 0.20025 0.0
C109 C 0.46155 0.05745 0.30799 0.0
O110 O 0.43682 0.96161 0.19479 0.0
O111 O 0.42529 0.04563 0.15568 0.0
O112 O 0.42741 0.09487 0.28655 0.0
O113 O 0.44434 0.00428 0.30032 0.0
C114 C 0.27931 0.9709 0.28749 0.0
O115 O 0.34509 0.11785 0.22012 0.0
O116 O 0.28402 0.05036 0.1879 0.0
In117 In 0.25578 0.15621 0.51383 0.0
O118 O 0.17808 0.20709 0.55392 0.0
O119 O 0.26781 0.22397 0.5826 0.0
C120 C 0.20142 0.05943 0.46866 0.0
C121 C 0.2854 0.24258 0.4412 0.0
C122 C 0.33387 0.08543 0.56079 0.0
O123 O 0.18225 0.08674 0.51321 0.0
O124 O 0.24491 0.08548 0.44196 0.0
O125 O 0.34786 0.13186 0.53309 0.0
O126 O 0.27874 0.07755 0.57258 0.0
C127 C 0.21423 0.24012 0.58274 0.0
O128 O 0.3232 0.2229 0.47607 0.0
O129 O 0.23668 0.21217 0.43583 0.0
In130 In 0.12099 0.03969 0.7396 0.0
O131 O 0.03846 0.97828 0.75871 0.0
O132 O 0.0619 0.04787 0.8183 0.0
C133 C 0.19979 0.96782 0.69265 0.0
C134 C 0.05283 0.10095 0.67098 0.0
C135 C 0.21633 0.08972 0.79226 0.0
O136 O 0.16024 0.94983 0.72911 0.0
O137 O 0.19446 0.01952 0.67428 0.0
O138 O 0.19244 0.11063 0.74746 0.0
O139 O 0.18732 0.04672 0.81519 0.0
C140 C 0.02418 0.00729 0.8037 0.0
O141 O 0.07449 0.12482 0.71643 0.0
O142 O 0.06984 0.04961 0.65896 0.0
In143 In 0.23298 0.91211 0.0093 0.0
O144 O 0.14281 0.95524 0.01752 0.0
O145 O 0.21186 0.97975 0.07857 0.0
C146 C 0.19614 0.82026 0.94348 0.0
C147 C 0.29127 0.00668 0.96467 0.0
C148 C 0.29313 0.83955 0.07669 0.0
O149 O 0.172 0.83026 0.99239 0.0
O150 O 0.23367 0.85961 0.92559 0.0
O151 O 0.3192 0.86415 0.03368 0.0
O152 O 0.24007 0.85549 0.08697 0.0
C153 C 0.16111 0.98995 0.05768 0.0
O154 O 0.30769 0.98068 0.01006 0.0
O155 O 0.2494 0.97992 0.9367 0.0
In156 In 0.25512 0.41481 0.01218 0.0
O157 O 0.26781 0.38173 0.92228 0.0
O158 O 0.31907 0.33899 0.98653 0.0
C159 C 0.17753 0.48684 0.96844 0.0
C160 C 0.21385 0.32585 0.07836 0.0
C161 C 0.31694 0.51111 0.0501 0.0
O162 O 0.22796 0.47939 0.94454 0.0
O163 O 0.16301 0.45246 0.00987 0.0
O164 O 0.26728 0.49633 0.07376 0.0
O165 O 0.33798 0.47268 0.01589 0.0
C166 C 0.30196 0.34024 0.93425 0.0
O167 O 0.25504 0.36226 0.0952 0.0
O168 O 0.18918 0.33777 0.03069 0.0
In169 In 0.72937 0.15574 0.00309 0.0
O170 O 0.72492 0.07801 0.06712 0.0
O171 O 0.65029 0.09284 0.01178 0.0
C172 C 0.77917 0.25037 0.05774 0.0
C173 C 0.80615 0.08139 0.95742 0.0
C174 C 0.67173 0.22501 0.93072 0.0
O175 O 0.73722 0.21741 0.07955 0.0
O176 O 0.80023 0.23247 0.0095 0.0
O177 O 0.69144 0.17513 0.91723 0.0
O178 O 0.67231 0.23704 0.98438 0.0
C179 C 0.67858 0.05672 0.04211 0.0
O180 O 0.76013 0.09556 0.92964 0.0
O181 O 0.81896 0.11283 0.00171 0.0
In182 In 0.12836 0.55003 0.26421 0.0
O183 O 0.15536 0.49039 0.33967 0.0
O184 O 0.20223 0.48619 0.25898 0.0
C185 C 0.0526 0.60838 0.33348 0.0
C186 C 0.22383 0.61377 0.22689 0.0
C187 C 0.04206 0.50322 0.1945 0.0
O188 O 0.10485 0.59405 0.34827 0.0
O189 O 0.04143 0.60124 0.28016 0.0
O190 O 0.07791 0.54495 0.17893 0.0
O191 O 0.05249 0.48146 0.2438 0.0
C192 C 0.20013 0.47177 0.31161 0.0
O193 O 0.20316 0.57048 0.19769 0.0
O194 O 0.19096 0.6294 0.26915 0.0
In195 In 0.75467 0.91386 0.51317 0.0
O196 O 0.76842 0.88191 0.42303 0.0
O197 O 0.81871 0.83816 0.48734 0.0
C198 C 0.67726 0.98624 0.469 0.0
C199 C 0.71242 0.82355 0.57811 0.0
C200 C 0.81682 0.01039 0.55089 0.0
O201 O 0.72746 0.97809 0.44496 0.0
O202 O 0.66275 0.95234 0.51082 0.0
O203 O 0.76714 -0.00427 0.57459 0.0
O204 O 0.83782 0.97162 0.51704 0.0
C205 C 0.80219 0.84009 0.4349 0.0
O206 O 0.75273 0.86035 0.59613 0.0
O207 O 0.68908 0.83561 0.52985 0.0
In208 In 0.86934 0.01165 0.28069 0.0
O209 O 0.89098 0.96984 0.36359 0.0
O210 O 0.95154 0.95482 0.29271 0.0
C211 C 0.79186 0.08936 0.32119 0.0
C212 C 0.96155 0.06298 0.21994 0.0
C213 C 0.77222 0.95002 0.24903 0.0
O214 O 0.8331 0.07122 0.35374 0.0
O215 O 0.79695 0.07544 0.26826 0.0
O216 O 0.79599 0.98832 0.21552 0.0
O217 O 0.80456 0.93455 0.29082 0.0
C218 C 0.94142 0.9514 0.3467 0.0
O219 O 0.92981 0.01909 0.20145 0.0
O220 O 0.94333 0.08472 0.26765 0.0
In221 In 0.22943 0.65576 0.50312 0.0
O222 O 0.26017 0.59557 0.42966 0.0
O223 O 0.31901 0.61285 0.50172 0.0
C224 C 0.17169 0.72497 0.43079 0.0
C225 C 0.17863 0.5568 0.54216 0.0
C226 C 0.27918 0.75039 0.55775 0.0
O227 O 0.19136 0.67507 0.4173 0.0
O228 O 0.17237 0.73705 0.48445 0.0
O229 O 0.23726 0.71741 0.57957 0.0
O230 O 0.30024 0.73253 0.5095 0.0
C231 C 0.30619 0.58139 0.45744 0.0
O232 O 0.22499 0.57804 0.56717 0.0
O233 O 0.15036 0.59296 0.51185 0.0
In234 In 0.36887 0.51178 0.78037 0.0
O235 O 0.39086 0.46981 0.8632 0.0
O236 O 0.45164 0.45557 0.79237 0.0
C237 C 0.29153 0.58941 0.82134 0.0
C238 C 0.45965 0.56373 0.71852 0.0
C239 C 0.27178 0.45002 0.74906 0.0
O240 O 0.33308 0.57144 0.85359 0.0
O241 O 0.29616 0.57528 0.76844 0.0
O242 O 0.2954 0.48832 0.71548 0.0
O243 O 0.30427 0.43458 0.79077 0.0
C244 C 0.44142 0.45172 0.84631 0.0
O245 O 0.42793 0.51979 0.70016 0.0
O246 O 0.4424 0.58495 0.7668 0.0
In247 In 0.62838 0.05005 0.76418 0.0
O248 O 0.65536 0.9904 0.83965 0.0
O249 O 0.70226 0.98622 0.75898 0.0
C250 C 0.55263 0.10841 0.83346 0.0
C251 C 0.72384 0.11381 0.7269 0.0
C252 C 0.54209 0.00323 0.69447 0.0
O253 O 0.60491 0.09412 0.84822 0.0
O254 O 0.54143 0.10121 0.78014 0.0
O255 O 0.57794 0.04495 0.67889 0.0
O256 O 0.5525 0.98149 0.74377 0.0
C257 C 0.70014 0.97179 0.8116 0.0
O258 O 0.70319 0.07052 0.69768 0.0
O259 O 0.69095 0.12943 0.76915 0.0
In260 In 0.75576 0.65618 0.01383 0.0
O261 O 0.67809 0.70712 0.0539 0.0
O262 O 0.76781 0.72384 0.08271 0.0
C263 C 0.70134 0.5594 0.96868 0.0
C264 C 0.78539 0.74258 0.94122 0.0
C265 C 0.83387 0.5854 0.06075 0.0
O266 O 0.68221 0.58672 0.01324 0.0
O267 O 0.74484 0.58544 0.94197 0.0
O268 O 0.84784 0.63182 0.03302 0.0
O269 O 0.77874 0.57753 0.07258 0.0
C270 C 0.71425 0.74006 0.0828 0.0
O271 O 0.82319 0.72289 0.97608 0.0
O272 O 0.73666 0.71218 0.93586 0.0
In273 In 0.87144 0.52846 0.73585 0.0
O274 O 0.80289 0.45348 0.74059 0.0
O275 O 0.80598 0.51478 0.81194 0.0
C276 C 0.95606 0.50077 0.66018 0.0
C277 C 0.79566 0.60748 0.69773 0.0
C278 C 0.96153 0.55766 0.8082 0.0
O279 O 0.93654 0.46246 0.69593 0.0
O280 O 0.92494 0.54601 0.65605 0.0
O281 O 0.92763 0.59538 0.78692 0.0
O282 O 0.94381 0.50463 0.80058 0.0
C283 C 0.77854 0.47168 0.78732 0.0
O284 O 0.84616 0.61981 0.72095 0.0
O285 O 0.78525 0.55354 0.68614 0.0
In286 In 0.73286 0.41176 0.50914 0.0
O287 O 0.64246 0.4546 0.5174 0.0
O288 O 0.71136 0.47833 0.57892 0.0
C289 C 0.69617 0.31987 0.44344 0.0
C290 C 0.79106 0.50667 0.46472 0.0
C291 C 0.79314 0.33944 0.57661 0.0
O292 O 0.67204 0.32985 0.49235 0.0
O293 O 0.73362 0.35927 0.4255 0.0
O294 O 0.81917 0.36397 0.53353 0.0
O295 O 0.74006 0.35528 0.58685 0.0
C296 C 0.66057 0.48862 0.5582 0.0
O297 O 0.80741 0.48064 0.5101 0.0
O298 O 0.74922 0.4799 0.43672 0.0
In299 In 0.62102 0.53961 0.2396 0.0
O300 O 0.53846 0.47825 0.25874 0.0
O301 O 0.56199 0.54779 0.31835 0.0
C302 C 0.69976 0.46771 0.19262 0.0
C303 C 0.55281 0.6009 0.17105 0.0
C304 C 0.7164 0.58965 0.29219 0.0
O305 O 0.66026 0.44975 0.22915 0.0
O306 O 0.69439 0.51939 0.1742 0.0
O307 O 0.69255 0.61051 0.24735 0.0
O308 O 0.68736 0.54668 0.31516 0.0
C309 C 0.52424 0.50724 0.30376 0.0
O310 O 0.57456 0.62476 0.21645 0.0
O311 O 0.56977 0.54954 0.15901 0.0
O312 O 0.16969 0.22822 0.09009 0.0
Mn313 Mn 0.11883 0.1603 0.13136 0.0
O314 O 0.20644 0.27935 0.16774 0.0
Mn315 Mn 0.19682 0.21841 0.22008 0.0
O316 O 0.05864 0.09981 0.18001 0.0
O317 O 0.0559 0.17046 0.06522 0.0
Mn318 Mn 0.02132 0.09852 0.07163 0.0
O319 O 0.15456 0.09161 0.08325 0.0
O320 O 0.97178 0.10724 0.13251 0.0
O321 O 0.07837 0.22461 0.18728 0.0
O322 O 0.13242 0.21705 0.26748 0.0
O323 O 0.01118 0.11272 -0.00292 0.0
O324 O 0.07098 0.03502 0.07736 0.0
C325 C 0.24561 0.14527 0.21261 0.0
C326 C 0.19516 0.27483 0.11358 0.0
C327 C -0.00048 0.09672 0.17874 0.0
C328 C 0.04813 0.15671 0.00933 0.0
C329 C 0.12765 0.04115 0.07542 0.0
C330 C 0.08422 0.22913 0.24333 0.0
O331 O 0.19659 0.15118 0.18128 0.0
O332 O 0.26095 0.18673 0.2495 0.0
O333 O 0.07305 0.84758 0.31796 0.0
Mn334 Mn 0.11741 0.89634 0.38429 0.0
O335 O 0.153 0.83924 0.26089 0.0
Mn336 Mn 0.20331 0.82753 0.32303 0.0
O337 O 0.16534 0.95969 0.4411 0.0
O338 O 0.04765 0.95362 0.37417 0.0
Mn339 Mn 0.05349 0.98394 0.44633 0.0
O340 O 0.06855 0.85674 0.45294 0.0
O341 O 0.11002 0.03937 0.43245 0.0
O342 O 0.17981 0.93857 0.32267 0.0
O343 O 0.26103 0.8832 0.32954 0.0
O344 O 0.97541 0.98329 0.43557 0.0
O345 O 0.06798 0.93608 0.50929 0.0
C346 C 0.17423 0.76983 0.38563 0.0
C347 C 0.09675 0.84099 0.26707 0.0
C348 C 0.16051 0.01725 0.43984 0.0
C349 C 0.98992 0.95446 0.38877 0.0
C350 C 0.06488 0.88079 0.50366 0.0
C351 C 0.23828 0.93217 0.3198 0.0
O352 O 0.1749 0.82731 0.39621 0.0
O353 O 0.20155 0.75195 0.3389 0.0
O354 O 0.44009 0.96926 0.6749 0.0
Mn355 Mn 0.37551 0.91621 0.63068 0.0
O356 O 0.50507 0.98045 0.6024 0.0
Mn357 Mn 0.44386 0.98322 0.54861 0.0
O358 O 0.31644 0.85048 0.58583 0.0
O359 O 0.38399 0.86081 0.70153 0.0
Mn360 Mn 0.30812 0.83134 0.69652 0.0
O361 O 0.30446 0.95661 0.67293 0.0
O362 O 0.31792 0.77315 0.64572 0.0
O363 O 0.44175 0.87286 0.57619 0.0
O364 O 0.44425 0.92713 0.49508 0.0
O365 O 0.31865 0.83361 0.77225 0.0
O366 O 0.24405 0.87776 0.67942 0.0
C367 C 0.37866 0.04045 0.56423 0.0
C368 C 0.49359 0.98129 0.65613 0.0
C369 C 0.31125 0.79333 0.59537 0.0
C370 C 0.36899 0.86042 0.7575 0.0
C371 C 0.25154 0.93287 0.67788 0.0
C372 C 0.44943 0.87843 0.51978 0.0
O373 O 0.36594 0.9831 0.56986 0.0
O374 O 0.42822 0.05674 0.53796 0.0
O375 O 0.42895 0.20577 0.95069 0.0
Mn376 Mn 0.37794 0.16765 0.88334 0.0
O377 O 0.43237 0.12489 0.00339 0.0
Mn378 Mn 0.44249 0.07751 0.93809 0.0
O379 O 0.3155 0.12432 0.82335 0.0
O380 O 0.3203 0.2379 0.90289 0.0
Mn381 Mn 0.29166 0.23069 0.8303 0.0
O382 O 0.42063 0.2175 0.81723 0.0
O383 O 0.23359 0.17545 0.83871 0.0
O384 O 0.33108 0.10501 0.9404 0.0
O385 O 0.38326 0.02382 0.92652 0.0
O386 O 0.28444 0.30601 0.84178 0.0
O387 O 0.33883 0.22214 0.76429 0.0
C388 C 0.50511 0.10545 0.87793 0.0
C389 C 0.4345 0.18034 -3e-05 0.0
C390 C 0.25696 0.12752 0.82565 0.0
C391 C 0.31083 0.29405 0.89018 0.0
C392 C 0.39526 0.22352 0.76764 0.0
C393 C 0.33382 0.04749 0.93666 0.0
O394 O 0.4469 0.10931 0.86684 0.0
O395 O 0.52005 0.07491 0.92275 0.0
O396 O 0.5729 0.34758 0.81795 0.0
Mn397 Mn 0.61726 0.39635 0.88426 0.0
O398 O 0.65286 0.33925 0.76086 0.0
Mn399 Mn 0.70327 0.32768 0.82293 0.0
O400 O 0.66524 0.45968 0.94107 0.0
O401 O 0.54756 0.45366 0.87413 0.0
Mn402 Mn 0.55333 0.48394 0.94632 0.0
O403 O 0.56849 0.35671 0.95295 0.0
O404 O 0.6099 0.53936 0.93251 0.0
O405 O 0.67937 0.43869 0.82257 0.0
O406 O 0.76084 0.38361 0.82916 0.0
O407 O 0.47522 0.48323 0.93541 0.0
O408 O 0.5678 0.43607 0.00929 0.0
C409 C 0.67426 0.2699 0.88556 0.0
C410 C 0.59662 0.341 0.76705 0.0
C411 C 0.6604 0.51724 0.93987 0.0
C412 C 0.4898 0.45453 0.88856 0.0
C413 C 0.56479 0.38077 0.00366 0.0
C414 C 0.73784 0.4325 0.8195 0.0
O415 O 0.67487 0.32739 0.89613 0.0
O416 O 0.70162 0.25208 0.83883 0.0
O417 O 0.94007 0.46926 0.17492 0.0
Mn418 Mn 0.87552 0.41619 0.13068 0.0
O419 O 0.00506 0.48045 0.10243 0.0
Mn420 Mn 0.94387 0.48321 0.04863 0.0
O421 O 0.81646 0.35045 0.08583 0.0
O422 O 0.884 0.36082 0.20157 0.0
Mn423 Mn 0.80816 0.33128 0.19654 0.0
O424 O 0.80443 0.45656 0.17291 0.0
O425 O 0.81799 0.2731 0.1457 0.0
O426 O 0.94178 0.37286 0.0762 0.0
O427 O 0.94435 0.42714 0.99509 0.0
O428 O 0.81866 0.33356 0.27227 0.0
O429 O 0.74407 0.37768 0.17944 0.0
C430 C 0.87866 0.54043 0.06422 0.0
C431 C -0.00643 0.48129 0.15615 0.0
C432 C 0.81127 0.29329 0.09536 0.0
C433 C 0.86897 0.36043 0.25754 0.0
C434 C 0.75153 0.43279 0.17788 0.0
C435 C 0.94952 0.37844 0.01979 0.0
O436 O 0.86594 0.48308 0.06986 0.0
O437 O 0.92824 0.55673 0.03798 0.0
O438 O 0.92884 0.70581 0.45071 0.0
Mn439 Mn 0.87783 0.66768 0.38337 0.0
O440 O 0.93229 0.62493 0.50338 0.0
Mn441 Mn 0.94236 0.57757 0.43805 0.0
O442 O 0.8155 0.62441 0.3233 0.0
O443 O 0.82011 0.73779 0.40303 0.0
Mn444 Mn 0.79129 0.73088 0.33048 0.0
O445 O 0.92043 0.71764 0.31729 0.0
O446 O 0.73347 0.67535 0.33879 0.0
O447 O 0.83096 0.605 0.44042 0.0
O448 O 0.88313 0.52381 0.42659 0.0
O449 O 0.784 0.80616 0.34241 0.0
O450 O 0.83853 0.7227 0.26447 0.0
C451 C 0.00504 0.60546 0.37793 0.0
C452 C 0.93442 0.68037 0.49997 0.0
C453 C 0.75696 0.6275 0.32561 0.0
C454 C 0.81072 0.79402 0.3906 0.0
C455 C 0.89498 0.72394 0.26777 0.0
C456 C 0.83369 0.54748 0.43673 0.0
O457 O 0.94683 0.60938 0.3668 0.0
O458 O 0.01992 0.57491 0.42276 0.0
O459 O 0.81334 0.84466 0.92658 0.0
Mn460 Mn 0.86247 0.91316 0.8845 0.0
O461 O 0.7909 0.78592 0.85143 0.0
Mn462 Mn 0.78004 0.84752 0.80233 0.0
O463 O 0.92412 0.9747 0.83943 0.0
O464 O 0.92618 0.90163 0.95179 0.0
Mn465 Mn 0.94876 0.97882 0.95124 0.0
O466 O 0.82047 0.97956 0.93274 0.0
O467 O 0.00551 0.98105 0.897 0.0
O468 O 0.90254 0.85385 0.82204 0.0
O469 O 0.83664 0.85071 0.7471 0.0
O470 O 0.9581 0.96274 0.02488 0.0
O471 O 0.8986 0.04075 0.94404 0.0
C472 C 0.73243 0.92084 0.82873 0.0
C473 C 0.79898 0.79361 0.90495 0.0
C474 C 0.98218 0.98386 0.84733 0.0
C475 C 0.93666 0.9114 0.00839 0.0
C476 C 0.84284 0.0319 0.94074 0.0
C477 C 0.88967 0.84755 0.76646 0.0
O478 O 0.79181 0.92236 0.82689 0.0
O479 O 0.70547 0.87327 0.80937 0.0
O480 O 0.93443 0.23263 0.69547 0.0
Mn481 Mn 0.88628 0.18403 0.63017 0.0
O482 O 0.85998 0.24636 0.75686 0.0
Mn483 Mn 0.80852 0.26003 0.69729 0.0
O484 O 0.84129 0.11546 0.57556 0.0
O485 O 0.95684 0.12764 0.63748 0.0
Mn486 Mn 0.95907 0.10791 0.56128 0.0
O487 O 0.93086 0.22812 0.56048 0.0
O488 O 0.91078 0.04525 0.56898 0.0
O489 O 0.82502 0.1427 0.69307 0.0
O490 O 0.74895 0.20665 0.70043 0.0
O491 O 0.03621 0.12188 0.57761 0.0
O492 O 0.93387 0.1528 0.50083 0.0
C493 C 0.8243 0.30815 0.62167 0.0
C494 C 0.91467 0.2388 0.74795 0.0
C495 C 0.85637 0.05968 0.57014 0.0
C496 C 0.01583 0.13054 0.62977 0.0
C497 C 0.93136 0.20715 0.50841 0.0
C498 C 0.76835 0.15502 0.70319 0.0
O499 O 0.82415 0.24987 0.62079 0.0
O500 O 0.81531 0.33341 0.67154 0.0
O501 O 0.66885 0.21694 0.43078 0.0
Mn502 Mn 0.62166 0.14725 0.38877 0.0
O503 O 0.68993 0.27232 0.35439 0.0
Mn504 Mn 0.704 0.20783 0.30807 0.0
O505 O 0.561 0.08311 0.34642 0.0
O506 O 0.55557 0.16149 0.45227 0.0
Mn507 Mn 0.53235 0.08428 0.45973 0.0
O508 O 0.66097 0.08512 0.4413 0.0
O509 O 0.47757 0.07959 0.40368 0.0
O510 O 0.58392 0.20312 0.32287 0.0
O511 O 0.65219 0.20165 0.2496 0.0
O512 O 0.53274 0.11086 0.53255 0.0
O513 O 0.58353 0.02298 0.45333 0.0
C514 C 0.75515 0.13888 0.33586 0.0
C515 C 0.68194 0.26728 0.40828 0.0
C516 C 0.50267 0.07465 0.35433 0.0
C517 C 0.5514 0.16001 0.5098 0.0
C518 C 0.63921 0.03325 0.45137 0.0
C519 C 0.59861 0.20668 0.26738 0.0
O520 O 0.69562 0.13347 0.33394 0.0
O521 O 0.77977 0.18704 0.31555 0.0
O522 O 0.5865 0.86077 0.05981 0.0
Mn523 Mn 0.62322 0.90273 0.13514 0.0
O524 O 0.50174 0.90209 0.04327 0.0
Mn525 Mn 0.54453 0.9679 0.06568 0.0
O526 O 0.6775 0.94034 0.20118 0.0
O527 O 0.68415 0.83133 0.12934 0.0
Mn528 Mn 0.6766 0.81002 0.20309 0.0
O529 O 0.56542 0.86757 0.20058 0.0
O530 O 0.71727 0.86358 0.24741 0.0
O531 O 0.67754 0.95881 0.0829 0.0
O532 O 0.60942 0.98333 0.01902 0.0
O533 O 0.71179 0.74856 0.18017 0.0
O534 O 0.60204 0.78427 0.22317 0.0
C535 C 0.50705 0.99252 0.11971 0.0
C536 C 0.54028 0.86639 0.02809 0.0
C537 C 0.71697 0.91759 0.2347 0.0
C538 C 0.69473 0.77353 0.1322 0.0
C539 C 0.57159 0.82667 0.23736 0.0
C540 C 0.6582 0.99434 0.04463 0.0
O541 O 0.5593 0.97162 0.14042 0.0
O542 O 0.50247 0.02822 0.07463 0.0
O543 O 0.43443 0.73263 0.1955 0.0
Mn544 Mn 0.38632 0.68409 0.13018 0.0
O545 O 0.35995 0.74626 0.25688 0.0
Mn546 Mn 0.30852 0.75996 0.19728 0.0
O547 O 0.34145 0.61581 0.07536 0.0
O548 O 0.45688 0.62768 0.1375 0.0
Mn549 Mn 0.4592 0.60798 0.0613 0.0
O550 O 0.43093 0.7282 0.06062 0.0
O551 O 0.4108 0.54544 0.06902 0.0
O552 O 0.325 0.64267 0.193 0.0
O553 O 0.24893 0.70661 0.20039 0.0
O554 O 0.53632 0.62192 0.07769 0.0
O555 O 0.434 0.65292 0.00091 0.0
C556 C 0.32427 0.80818 0.12173 0.0
C557 C 0.41465 0.73874 0.24797 0.0
C558 C 0.35645 0.56005 0.06989 0.0
C559 C 0.51587 0.63055 0.12984 0.0
C560 C 0.43136 0.70725 0.00854 0.0
C561 C 0.26833 0.65498 0.20315 0.0
O562 O 0.32417 0.74991 0.12077 0.0
O563 O 0.31528 0.83337 0.17163 0.0
O564 O 0.16866 0.71734 0.9308 0.0
Mn565 Mn 0.12155 0.64758 0.88883 0.0
O566 O 0.19 0.77263 0.85441 0.0
Mn567 Mn 0.20403 0.70809 0.80811 0.0
O568 O 0.06101 0.58327 0.84655 0.0
O569 O 0.05542 0.66173 0.95233 0.0
Mn570 Mn 0.03238 0.58449 0.95988 0.0
O571 O 0.16093 0.58569 0.94138 0.0
O572 O 0.97762 0.57953 0.90388 0.0
O573 O 0.0838 0.70329 0.82285 0.0
O574 O 0.15218 0.7018 0.74966 0.0
O575 O 0.03273 0.61108 0.03267 0.0
O576 O 0.08367 0.52334 0.95336 0.0
C577 C 0.255 0.63902 0.83606 0.0
C578 C 0.18189 0.76764 0.90829 0.0
C579 C 0.00272 0.57454 0.85455 0.0
C580 C 0.05129 0.66025 0.00987 0.0
C581 C 0.13931 0.53376 0.95123 0.0
C582 C 0.09857 0.70679 0.76738 0.0
O583 O 0.19549 0.63378 0.83405 0.0
O584 O 0.27975 0.68711 0.81574 0.0
O585 O 0.08663 0.36048 0.55958 0.0
Mn586 Mn 0.12297 0.40251 0.63511 0.0
O587 O 0.00197 0.40177 0.54273 0.0
Mn588 Mn 0.04458 0.46744 0.56545 0.0
O589 O 0.17706 0.44019 0.70129 0.0
O590 O 0.18414 0.33134 0.6294 0.0
Mn591 Mn 0.1766 0.3099 0.70312 0.0
O592 O 0.06525 0.36716 0.70059 0.0
O593 O 0.21708 0.3635 0.74748 0.0
O594 O 0.17726 0.45891 0.58306 0.0
O595 O 0.10937 0.48364 0.51902 0.0
O596 O 0.21188 0.24854 0.6801 0.0
O597 O 0.10212 0.28401 0.72328 0.0
C598 C 0.00642 0.49251 0.62033 0.0
C599 C 0.04056 0.36611 0.52765 0.0
C600 C 0.21657 0.41752 0.73482 0.0
C601 C 0.19473 0.27354 0.63218 0.0
C602 C 0.07166 0.32639 0.73749 0.0
C603 C 0.15809 0.49449 0.54475 0.0
O604 O 0.0586 0.47104 0.64046 0.0
O605 O 0.00153 0.52703 0.57449 0.0
O606 O 0.67477 0.72311 0.59056 0.0
Mn607 Mn 0.62067 0.65853 0.63308 0.0
O608 O 0.69493 0.77953 0.66771 0.0
Mn609 Mn 0.69353 0.71658 0.71807 0.0
O610 O 0.55716 0.59971 0.67981 0.0
O611 O 0.55984 0.67229 0.56513 0.0
Mn612 Mn 0.52381 0.60078 0.57207 0.0
O613 O 0.65564 0.58967 0.58519 0.0
O614 O 0.4716 0.60848 0.63103 0.0
O615 O 0.5807 0.72311 0.69036 0.0
O616 O 0.6352 0.71751 0.7713 0.0
O617 O 0.51328 0.61405 0.49783 0.0
O618 O 0.57099 0.53536 0.57707 0.0
C619 C 0.75032 0.65273 0.69906 0.0
C620 C 0.69222 0.77276 0.61329 0.0
C621 C 0.4982 0.59727 0.67764 0.0
C622 C 0.55077 0.65784 0.50943 0.0
C623 C 0.62773 0.54007 0.57605 0.0
C624 C 0.58657 0.72856 0.74673 0.0
O625 O 0.69148 0.64245 0.69108 0.0
O626 O 0.76797 0.69864 0.72956 0.0
O627 O 0.31333 0.34466 0.42659 0.0
Mn628 Mn 0.36248 0.41316 0.38452 0.0
O629 O 0.29093 0.28594 0.35143 0.0
Mn630 Mn 0.28006 0.34753 0.30234 0.0
O631 O 0.42416 0.47467 0.33946 0.0
O632 O 0.42619 0.4016 0.45181 0.0
Mn633 Mn 0.44878 0.47878 0.45131 0.0
O634 O 0.32049 0.47957 0.43275 0.0
O635 O 0.50553 0.48103 0.39707 0.0
O636 O 0.40254 0.35383 0.32206 0.0
O637 O 0.33667 0.35073 0.24711 0.0
O638 O 0.45806 0.46264 0.52495 0.0
O639 O 0.39863 0.54073 0.44412 0.0
C640 C 0.23244 0.42083 0.32873 0.0
C641 C 0.29899 0.29362 0.40495 0.0
C642 C 0.48221 0.48384 0.34738 0.0
C643 C 0.43664 0.41131 0.50842 0.0
C644 C 0.34287 0.5319 0.44077 0.0
C645 C 0.38969 0.34755 0.26648 0.0
O646 O 0.29182 0.42237 0.32691 0.0
O647 O 0.20549 0.37326 0.30936 0.0
loop_
_geom_bond_atom_site_label_1
_geom_bond_atom_site_label_2
_geom_bond_distance
_geom_bond_site_symmetry_2
_ccdc_geom_bond_type
In0 O1 2.294 . S
In0 O2 2.327 . S
In0 O6 2.266 . S
In0 O7 2.326 . S
In0 O8 2.266 1_455 S
In0 O9 2.326 . S
In0 O11 2.294 1_455 S
In0 O12 2.326 . S
O1 In0 2.294 . S
O1 C10 1.240 . S
O2 In0 2.327 . S
O2 C10 1.259 . S
C3 O6 1.252 . S
C3 O7 1.260 . S
C4 O11 1.240 . S
C4 O12 1.252 1_655 S
C5 O8 1.252 . S
C5 O9 1.260 1_655 S
O6 In0 2.266 . S
O6 C3 1.252 . S
O7 In0 2.326 . S
O7 C3 1.260 . S
O8 In0 2.266 1_655 S
O8 C5 1.252 . S
O9 In0 2.326 . S
O9 C5 1.260 1_455 S
C10 O1 1.240 . S
C10 O2 1.259 . S
O11 In0 2.294 1_655 S
O11 C4 1.240 . S
O12 In0 2.326 . S
O12 C4 1.252 1_455 S
In13 O14 2.290 1_455 S
In13 O15 2.319 1_455 S
In13 O19 2.271 . S
In13 O20 2.333 . S
In13 O21 2.262 1_455 S
In13 O22 2.318 1_455 S
In13 O24 2.298 . S
In13 O25 2.334 . S
O14 In13 2.290 1_655 S
O14 C23 1.240 . S
O15 In13 2.319 1_655 S
O15 C23 1.252 . S
C16 O19 1.252 . S
C16 O20 1.260 . S
C17 O24 1.240 . S
C17 O25 1.252 . S
C18 O21 1.252 . S
C18 O22 1.260 . S
O19 In13 2.271 . S
O19 C16 1.252 . S
O20 In13 2.333 . S
O20 C16 1.260 . S
O21 In13 2.262 1_655 S
O21 C18 1.252 . S
O22 In13 2.318 1_655 S
O22 C18 1.260 . S
C23 O14 1.240 . S
C23 O15 1.252 . S
O24 In13 2.298 . S
O24 C17 1.240 . S
O25 In13 2.334 . S
O25 C17 1.252 . S
In26 O27 2.294 . S
In26 O28 2.326 . S
In26 O32 2.266 . S
In26 O33 2.326 . S
In26 O34 2.266 . S
In26 O35 2.326 . S
In26 O37 2.294 . S
In26 O38 2.326 . S
O27 In26 2.294 . S
O27 C36 1.240 . S
O28 In26 2.326 . S
O28 C36 1.252 . S
C29 O32 1.252 . S
C29 O33 1.260 . S
C30 O37 1.240 . S
C30 O38 1.252 . S
C31 O34 1.252 . S
C31 O35 1.260 . S
O32 In26 2.266 . S
O32 C29 1.252 . S
O33 In26 2.326 . S
O33 C29 1.260 . S
O34 In26 2.266 . S
O34 C31 1.252 . S
O35 In26 2.326 . S
O35 C31 1.260 . S
C36 O27 1.240 . S
C36 O28 1.252 . S
O37 In26 2.294 . S
O37 C30 1.240 . S
O38 In26 2.326 . S
O38 C30 1.252 . S
In39 O40 2.294 . S
In39 O41 2.326 . S
In39 O45 2.266 . S
In39 O46 2.326 . S
In39 O47 2.266 . S
In39 O48 2.326 . S
In39 O50 2.294 . S
In39 O51 2.326 . S
O40 In39 2.294 . S
O40 C49 1.240 . S
O41 In39 2.326 . S
O41 C49 1.252 . S
C42 O45 1.252 . S
C42 O46 1.260 . S
C43 O50 1.240 . S
C43 O51 1.252 . S
C44 O47 1.252 . S
C44 O48 1.260 . S
O45 In39 2.266 . S
O45 C42 1.252 . S
O46 In39 2.326 . S
O46 C42 1.260 . S
O47 In39 2.266 . S
O47 C44 1.252 . S
O48 In39 2.326 . S
O48 C44 1.260 . S
C49 O40 1.240 . S
C49 O41 1.252 . S
O50 In39 2.294 . S
O50 C43 1.240 . S
O51 In39 2.326 . S
O51 C43 1.252 . S
In52 O53 2.294 1_455 S
In52 O54 2.326 . S
In52 O58 2.266 1_455 S
In52 O59 2.326 . S
In52 O60 2.266 . S
In52 O61 2.326 1_455 S
In52 O63 2.294 . S
In52 O64 2.326 1_455 S
O53 In52 2.294 1_655 S
O53 C62 1.240 . S
O54 In52 2.326 . S
O54 C62 1.252 1_455 S
C55 O58 1.252 . S
C55 O59 1.260 1_655 S
C56 O63 1.240 . S
C56 O64 1.252 1_455 S
C57 O60 1.252 . S
C57 O61 1.260 1_455 S
O58 In52 2.266 1_655 S
O58 C55 1.252 . S
O59 In52 2.326 . S
O59 C55 1.260 1_455 S
O60 In52 2.266 . S
O60 C57 1.252 . S
O61 In52 2.326 1_655 S
O61 C57 1.260 1_655 S
C62 O53 1.240 . S
C62 O54 1.252 1_655 S
O63 In52 2.294 . S
O63 C56 1.240 . S
O64 In52 2.326 1_655 S
O64 C56 1.252 1_655 S
In65 O66 2.294 . S
In65 O67 2.326 . S
In65 O71 2.266 . S
In65 O72 2.326 . S
In65 O73 2.266 . S
In65 O74 2.326 . S
In65 O76 2.294 . S
In65 O77 2.326 . S
O66 In65 2.294 . S
O66 C75 1.240 . S
O67 In65 2.326 . S
O67 C75 1.252 . S
C68 O71 1.252 . S
C68 O72 1.260 . S
C69 O76 1.240 . S
C69 O77 1.252 . S
C70 O73 1.252 . S
C70 O74 1.260 . S
O71 In65 2.266 . S
O71 C68 1.252 . S
O72 In65 2.326 . S
O72 C68 1.260 . S
O73 In65 2.266 . S
O73 C70 1.252 . S
O74 In65 2.326 . S
O74 C70 1.260 . S
C75 O66 1.240 . S
C75 O67 1.252 . S
O76 In65 2.294 . S
O76 C69 1.240 . S
O77 In65 2.326 . S
O77 C69 1.252 . S
In78 O79 2.294 . S
In78 O80 2.326 . S
In78 O84 2.266 . S
In78 O85 2.326 . S
In78 O86 2.266 . S
In78 O87 2.326 . S
In78 O89 2.294 . S
In78 O90 2.326 . S
O79 In78 2.294 . S
O79 C88 1.240 . S
O80 In78 2.326 . S
O80 C88 1.252 . S
C81 O84 1.252 . S
C81 O85 1.260 . S
C82 O89 1.240 . S
C82 O90 1.252 . S
C83 O86 1.252 . S
C83 O87 1.260 . S
O84 In78 2.266 . S
O84 C81 1.252 . S
O85 In78 2.326 . S
O85 C81 1.260 . S
O86 In78 2.266 . S
O86 C83 1.252 . S
O87 In78 2.326 . S
O87 C83 1.260 . S
C88 O79 1.240 . S
C88 O80 1.252 . S
O89 In78 2.294 . S
O89 C82 1.240 . S
O90 In78 2.326 . S
O90 C82 1.252 . S
In91 O92 2.294 . S
In91 O93 2.326 . S
In91 O97 2.266 1_455 S
In91 O98 2.326 1_455 S
In91 O99 2.266 . S
In91 O100 2.326 . S
In91 O102 2.294 1_455 S
In91 O103 2.326 1_455 S
O92 In91 2.294 . S
O92 C101 1.240 . S
O93 In91 2.326 . S
O93 C101 1.252 . S
C94 O97 1.252 . S
C94 O98 1.260 . S
C95 O102 1.240 . S
C95 O103 1.252 . S
C96 O99 1.252 . S
C96 O100 1.260 . S
O97 In91 2.266 1_655 S
O97 C94 1.252 . S
O98 In91 2.326 1_655 S
O98 C94 1.260 . S
O99 In91 2.266 . S
O99 C96 1.252 . S
O100 In91 2.326 . S
O100 C96 1.260 . S
C101 O92 1.240 . S
C101 O93 1.252 . S
O102 In91 2.294 1_655 S
O102 C95 1.240 . S
O103 In91 2.326 1_655 S
O103 C95 1.252 . S
In104 O105 2.283 1_545 S
In104 O106 2.328 . S
In104 O110 2.255 1_545 S
In104 O111 2.327 . S
In104 O112 2.277 . S
In104 O113 2.323 1_545 S
In104 O115 2.305 . S
In104 O116 2.325 1_545 S
O105 In104 2.283 1_565 S
O105 C114 1.240 . S
O106 In104 2.328 . S
O106 C114 1.252 1_545 S
C107 O110 1.252 . S
C107 O111 1.260 1_565 S
C108 O115 1.240 . S
C108 O116 1.252 1_545 S
C109 O112 1.252 . S
C109 O113 1.260 1_545 S
O110 In104 2.255 1_565 S
O110 C107 1.252 . S
O111 In104 2.327 . S
O111 C107 1.260 1_545 S
O112 In104 2.277 . S
O112 C109 1.252 . S
O113 In104 2.323 1_565 S
O113 C109 1.260 1_565 S
C114 O105 1.240 . S
C114 O106 1.252 1_565 S
O115 In104 2.305 . S
O115 C108 1.240 . S
O116 In104 2.325 1_565 S
O116 C108 1.252 1_565 S
In117 O118 2.294 . S
In117 O119 2.326 . S
In117 O123 2.266 . S
In117 O124 2.326 . S
In117 O125 2.266 . S
In117 O126 2.326 . S
In117 O128 2.294 . S
In117 O129 2.326 . S
O118 In117 2.294 . S
O118 C127 1.240 . S
O119 In117 2.326 . S
O119 C127 1.252 . S
C120 O123 1.252 . S
C120 O124 1.260 . S
C121 O128 1.240 . S
C121 O129 1.252 . S
C122 O125 1.252 . S
C122 O126 1.260 . S
O123 In117 2.266 . S
O123 C120 1.252 . S
O124 In117 2.326 . S
O124 C120 1.260 . S
O125 In117 2.266 . S
O125 C122 1.252 . S
O126 In117 2.326 . S
O126 C122 1.260 . S
C127 O118 1.240 . S
C127 O119 1.252 . S
O128 In117 2.294 . S
O128 C121 1.240 . S
O129 In117 2.326 . S
O129 C121 1.252 . S
In130 O131 2.294 1_545 S
In130 O132 2.326 . S
In130 O136 2.266 1_545 S
In130 O137 2.326 . S
In130 O138 2.266 . S
In130 O139 2.326 . S
In130 O141 2.294 . S
In130 O142 2.326 . S
O131 In130 2.294 1_565 S
O131 C140 1.240 1_565 S
O132 In130 2.326 . S
O132 C140 1.252 . S
C133 O136 1.252 1_545 S
C133 O137 1.260 . S
C134 O141 1.240 . S
C134 O142 1.252 . S
C135 O138 1.252 . S
C135 O139 1.260 . S
O136 In130 2.266 1_565 S
O136 C133 1.252 1_565 S
O137 In130 2.326 . S
O137 C133 1.260 . S
O138 In130 2.266 . S
O138 C135 1.252 . S
O139 In130 2.326 . S
O139 C135 1.260 . S
C140 O131 1.240 1_545 S
C140 O132 1.252 . S
O141 In130 2.294 . S
O141 C134 1.240 . S
O142 In130 2.326 . S
O142 C134 1.252 . S
In143 O144 2.294 . S
In143 O145 2.326 . S
In143 O149 2.266 1_554 S
In143 O150 2.326 1_554 S
In143 O151 2.266 . S
In143 O152 2.326 . S
In143 O154 2.294 1_554 S
In143 O155 2.326 1_554 S
O144 In143 2.294 . S
O144 C153 1.241 1_565 S
O145 In143 2.326 . S
O145 C153 1.253 1_565 S
C146 O149 1.252 . S
C146 O150 1.260 . S
C147 O154 1.240 1_545 S
C147 O155 1.252 1_545 S
C148 O151 1.252 . S
C148 O152 1.260 . S
O149 In143 2.266 1_556 S
O149 C146 1.252 . S
O150 In143 2.326 1_556 S
O150 C146 1.260 . S
O151 In143 2.266 . S
O151 C148 1.252 . S
O152 In143 2.326 . S
O152 C148 1.260 . S
C153 O144 1.241 1_545 S
C153 O145 1.253 1_545 S
O154 In143 2.294 1_556 S
O154 C147 1.240 1_565 S
O155 In143 2.326 1_556 S
O155 C147 1.252 1_565 S
In156 O157 2.294 1_554 S
In156 O158 2.326 . S
In156 O162 2.266 1_554 S
In156 O163 2.326 . S
In156 O164 2.266 . S
In156 O165 2.326 1_554 S
In156 O167 2.294 . S
In156 O168 2.326 1_554 S
O157 In156 2.294 1_556 S
O157 C166 1.240 . S
O158 In156 2.326 . S
O158 C166 1.252 1_554 S
C159 O162 1.252 . S
C159 O163 1.260 1_556 S
C160 O167 1.240 . S
C160 O168 1.252 1_554 S
C161 O164 1.252 . S
C161 O165 1.260 1_554 S
O162 In156 2.266 1_556 S
O162 C159 1.252 . S
O163 In156 2.326 . S
O163 C159 1.260 1_554 S
O164 In156 2.266 . S
O164 C161 1.252 . S
O165 In156 2.326 1_556 S
O165 C161 1.260 1_556 S
C166 O157 1.240 . S
C166 O158 1.252 1_556 S
O167 In156 2.294 . S
O167 C160 1.240 . S
O168 In156 2.326 1_556 S
O168 C160 1.252 1_556 S
In169 O170 2.294 . S
In169 O171 2.326 1_554 S
In169 O175 2.266 . S
In169 O176 2.326 1_554 S
In169 O177 2.266 1_554 S
In169 O178 2.326 . S
In169 O180 2.294 1_554 S
In169 O181 2.326 . S
O170 In169 2.294 . S
O170 C179 1.240 . S
O171 In169 2.326 1_556 S
O171 C179 1.252 1_556 S
C172 O175 1.252 . S
C172 O176 1.260 1_554 S
C173 O180 1.240 . S
C173 O181 1.252 1_556 S
C174 O177 1.252 . S
C174 O178 1.260 1_556 S
O175 In169 2.266 . S
O175 C172 1.252 . S
O176 In169 2.326 1_556 S
O176 C172 1.260 1_556 S
O177 In169 2.266 1_556 S
O177 C174 1.252 . S
O178 In169 2.326 . S
O178 C174 1.260 1_554 S
C179 O170 1.240 . S
C179 O171 1.252 1_554 S
O180 In169 2.294 1_556 S
O180 C173 1.240 . S
O181 In169 2.326 . S
O181 C173 1.252 1_554 S
In182 O183 2.294 . S
In182 O184 2.326 . S
In182 O188 2.266 . S
In182 O189 2.326 . S
In182 O190 2.266 . S
In182 O191 2.326 . S
In182 O193 2.294 . S
In182 O194 2.326 . S
O183 In182 2.294 . S
O183 C192 1.240 . S
O184 In182 2.326 . S
O184 C192 1.252 . S
C185 O188 1.252 . S
C185 O189 1.260 . S
C186 O193 1.240 . S
C186 O194 1.252 . S
C187 O190 1.252 . S
C187 O191 1.260 . S
O188 In182 2.266 . S
O188 C185 1.252 . S
O189 In182 2.326 . S
O189 C185 1.260 . S
O190 In182 2.266 . S
O190 C187 1.252 . S
O191 In182 2.326 . S
O191 C187 1.260 . S
C192 O183 1.240 . S
C192 O184 1.252 . S
O193 In182 2.294 . S
O193 C186 1.240 . S
O194 In182 2.326 . S
O194 C186 1.252 . S
In195 O196 2.294 . S
In195 O197 2.326 . S
In195 O201 2.266 . S
In195 O202 2.326 . S
In195 O203 2.266 . S
In195 O204 2.326 . S
In195 O206 2.294 . S
In195 O207 2.326 . S
O196 In195 2.294 . S
O196 C205 1.240 . S
O197 In195 2.326 . S
O197 C205 1.252 . S
C198 O201 1.252 . S
C198 O202 1.260 . S
C199 O206 1.240 . S
C199 O207 1.252 . S
C200 O203 1.252 1_545 S
C200 O204 1.260 1_545 S
O201 In195 2.266 . S
O201 C198 1.252 . S
O202 In195 2.326 . S
O202 C198 1.260 . S
O203 In195 2.266 . S
O203 C200 1.252 1_565 S
O204 In195 2.326 . S
O204 C200 1.260 1_565 S
C205 O196 1.240 . S
C205 O197 1.252 . S
O206 In195 2.294 . S
O206 C199 1.240 . S
O207 In195 2.326 . S
O207 C199 1.252 . S
In208 O209 2.294 1_545 S
In208 O210 2.326 1_545 S
In208 O214 2.266 . S
In208 O215 2.326 . S
In208 O216 2.266 1_545 S
In208 O217 2.326 1_545 S
In208 O219 2.294 . S
In208 O220 2.326 . S
O209 In208 2.294 1_565 S
O209 C218 1.240 . S
O210 In208 2.326 1_565 S
O210 C218 1.252 . S
C211 O214 1.252 . S
C211 O215 1.260 . S
C212 O219 1.240 . S
C212 O220 1.252 . S
C213 O216 1.252 . S
C213 O217 1.260 . S
O214 In208 2.266 . S
O214 C211 1.252 . S
O215 In208 2.326 . S
O215 C211 1.260 . S
O216 In208 2.266 1_565 S
O216 C213 1.252 . S
O217 In208 2.326 1_565 S
O217 C213 1.260 . S
C218 O209 1.240 . S
C218 O210 1.252 . S
O219 In208 2.294 . S
O219 C212 1.240 . S
O220 In208 2.326 . S
O220 C212 1.252 . S
In221 O222 2.294 . S
In221 O223 2.326 . S
In221 O227 2.266 . S
In221 O228 2.326 . S
In221 O229 2.266 . S
In221 O230 2.326 . S
In221 O232 2.294 . S
In221 O233 2.326 . S
O222 In221 2.294 . S
O222 C231 1.240 . S
O223 In221 2.326 . S
O223 C231 1.252 . S
C224 O227 1.252 . S
C224 O228 1.260 . S
C225 O232 1.240 . S
C225 O233 1.252 . S
C226 O229 1.252 . S
C226 O230 1.260 . S
O227 In221 2.266 . S
O227 C224 1.252 . S
O228 In221 2.326 . S
O228 C224 1.260 . S
O229 In221 2.266 . S
O229 C226 1.252 . S
O230 In221 2.326 . S
O230 C226 1.260 . S
C231 O222 1.240 . S
C231 O223 1.252 . S
O232 In221 2.294 . S
O232 C225 1.240 . S
O233 In221 2.326 . S
O233 C225 1.252 . S
In234 O235 2.294 . S
In234 O236 2.326 . S
In234 O240 2.266 . S
In234 O241 2.326 . S
In234 O242 2.266 . S
In234 O243 2.326 . S
In234 O245 2.294 . S
In234 O246 2.326 . S
O235 In234 2.294 . S
O235 C244 1.240 . S
O236 In234 2.326 . S
O236 C244 1.252 . S
C237 O240 1.252 . S
C237 O241 1.260 . S
C238 O245 1.240 . S
C238 O246 1.252 . S
C239 O242 1.252 . S
C239 O243 1.260 . S
O240 In234 2.266 . S
O240 C237 1.252 . S
O241 In234 2.326 . S
O241 C237 1.260 . S
O242 In234 2.266 . S
O242 C239 1.252 . S
O243 In234 2.326 . S
O243 C239 1.260 . S
C244 O235 1.240 . S
C244 O236 1.252 . S
O245 In234 2.294 . S
O245 C238 1.240 . S
O246 In234 2.326 . S
O246 C238 1.252 . S
In247 O248 2.294 . S
In247 O249 2.326 1_545 S
In247 O253 2.266 . S
In247 O254 2.326 . S
In247 O255 2.266 . S
In247 O256 2.326 1_545 S
In247 O258 2.294 . S
In247 O259 2.326 . S
O248 In247 2.294 . S
O248 C257 1.240 1_545 S
O249 In247 2.326 1_565 S
O249 C257 1.252 . S
C250 O253 1.252 . S
C250 O254 1.260 . S
C251 O258 1.240 . S
C251 O259 1.252 . S
C252 O255 1.252 1_565 S
C252 O256 1.260 . S
O253 In247 2.266 . S
O253 C250 1.252 . S
O254 In247 2.326 . S
O254 C250 1.260 . S
O255 In247 2.266 . S
O255 C252 1.252 1_545 S
O256 In247 2.326 1_565 S
O256 C252 1.260 . S
C257 O248 1.240 1_565 S
C257 O249 1.252 . S
O258 In247 2.294 . S
O258 C251 1.240 . S
O259 In247 2.326 . S
O259 C251 1.252 . S
In260 O261 2.294 . S
In260 O262 2.326 . S
In260 O266 2.266 1_554 S
In260 O267 2.326 1_554 S
In260 O268 2.266 . S
In260 O269 2.326 . S
In260 O271 2.294 1_554 S
In260 O272 2.326 1_554 S
O261 In260 2.294 . S
O261 C270 1.240 . S
O262 In260 2.326 . S
O262 C270 1.252 . S
C263 O266 1.252 . S
C263 O267 1.260 . S
C264 O271 1.240 . S
C264 O272 1.252 . S
C265 O268 1.252 . S
C265 O269 1.260 . S
O266 In260 2.266 1_556 S
O266 C263 1.252 . S
O267 In260 2.326 1_556 S
O267 C263 1.260 . S
O268 In260 2.266 . S
O268 C265 1.252 . S
O269 In260 2.326 . S
O269 C265 1.260 . S
C270 O261 1.240 . S
C270 O262 1.252 . S
O271 In260 2.294 1_556 S
O271 C264 1.240 . S
O272 In260 2.326 1_556 S
O272 C264 1.252 . S
In273 O274 2.294 . S
In273 O275 2.326 . S
In273 O279 2.266 . S
In273 O280 2.326 . S
In273 O281 2.266 . S
In273 O282 2.326 . S
In273 O284 2.294 . S
In273 O285 2.326 . S
O274 In273 2.294 . S
O274 C283 1.240 . S
O275 In273 2.326 . S
O275 C283 1.252 . S
C276 O279 1.252 . S
C276 O280 1.260 . S
C277 O284 1.240 . S
C277 O285 1.252 . S
C278 O281 1.252 . S
C278 O282 1.260 . S
O279 In273 2.266 . S
O279 C276 1.252 . S
O280 In273 2.326 . S
O280 C276 1.260 . S
O281 In273 2.266 . S
O281 C278 1.252 . S
O282 In273 2.326 . S
O282 C278 1.260 . S
C283 O274 1.240 . S
C283 O275 1.252 . S
O284 In273 2.294 . S
O284 C277 1.240 . S
O285 In273 2.326 . S
O285 C277 1.252 . S
In286 O287 2.294 . S
In286 O288 2.326 . S
In286 O292 2.266 . S
In286 O293 2.326 . S
In286 O294 2.266 . S
In286 O295 2.326 . S
In286 O297 2.294 . S
In286 O298 2.326 . S
O287 In286 2.294 . S
O287 C296 1.240 . S
O288 In286 2.326 . S
O288 C296 1.252 . S
C289 O292 1.252 . S
C289 O293 1.260 . S
C290 O297 1.240 . S
C290 O298 1.252 . S
C291 O294 1.252 . S
C291 O295 1.260 . S
O292 In286 2.266 . S
O292 C289 1.252 . S
O293 In286 2.326 . S
O293 C289 1.260 . S
O294 In286 2.266 . S
O294 C291 1.252 . S
O295 In286 2.326 . S
O295 C291 1.260 . S
C296 O287 1.240 . S
C296 O288 1.252 . S
O297 In286 2.294 . S
O297 C290 1.240 . S
O298 In286 2.326 . S
O298 C290 1.252 . S
In299 O300 2.294 . S
In299 O301 2.326 . S
In299 O305 2.266 . S
In299 O306 2.326 . S
In299 O307 2.266 . S
In299 O308 2.326 . S
In299 O310 2.294 . S
In299 O311 2.326 . S
O300 In299 2.294 . S
O300 C309 1.240 . S
O301 In299 2.326 . S
O301 C309 1.252 . S
C302 O305 1.252 . S
C302 O306 1.260 . S
C303 O310 1.240 . S
C303 O311 1.252 . S
C304 O307 1.252 . S
C304 O308 1.260 . S
O305 In299 2.266 . S
O305 C302 1.252 . S
O306 In299 2.326 . S
O306 C302 1.260 . S
O307 In299 2.266 . S
O307 C304 1.252 . S
O308 In299 2.326 . S
O308 C304 1.260 . S
C309 O300 1.240 . S
C309 O301 1.252 . S
O310 In299 2.294 . S
O310 C303 1.240 . S
O311 In299 2.326 . S
O311 C303 1.252 . S
O312 Mn313 2.163 . S
O312 C326 1.244 . S
Mn313 O312 2.163 . S
Mn313 O316 2.160 . S
Mn313 O317 2.221 . S
Mn313 O319 2.163 . S
Mn313 O321 2.160 . S
Mn313 O331 2.221 . S
O314 Mn315 2.087 . S
O314 C326 1.256 . S
Mn315 O314 2.087 . S
Mn315 O322 2.089 . S
Mn315 O331 2.290 . S
Mn315 O332 2.251 . S
O316 Mn313 2.160 . S
O316 C327 1.239 . S
O317 Mn313 2.221 . S
O317 Mn318 2.290 . S
O317 C328 1.278 . S
Mn318 O317 2.290 . S
Mn318 O320 2.089 . S
Mn318 O323 2.251 1_554 S
Mn318 O324 2.087 . S
O319 Mn313 2.163 . S
O319 C329 1.244 . S
O320 Mn318 2.089 . S
O320 C327 1.256 . S
O321 Mn313 2.160 . S
O321 C330 1.239 . S
O322 Mn315 2.089 . S
O322 C330 1.256 . S
O323 Mn318 2.251 1_556 S
O323 C328 1.241 1_556 S
O324 Mn318 2.087 . S
O324 C329 1.256 . S
C325 O331 1.278 . S
C325 O332 1.241 . S
C326 O312 1.244 . S
C326 O314 1.256 . S
C327 O316 1.239 . S
C327 O320 1.256 . S
C328 O317 1.278 . S
C328 O323 1.241 1_554 S
C329 O319 1.244 . S
C329 O324 1.256 . S
C330 O321 1.239 . S
C330 O322 1.256 . S
O331 Mn313 2.221 . S
O331 Mn315 2.290 . S
O331 C325 1.278 . S
O332 Mn315 2.251 . S
O332 C325 1.241 . S
O333 Mn334 2.163 . S
O333 C347 1.244 . S
Mn334 O333 2.163 . S
Mn334 O337 2.160 . S
Mn334 O338 2.221 . S
Mn334 O340 2.163 . S
Mn334 O342 2.160 . S
Mn334 O352 2.221 . S
O335 Mn336 2.087 . S
O335 C347 1.256 . S
Mn336 O335 2.087 . S
Mn336 O343 2.089 . S
Mn336 O352 2.290 . S
Mn336 O353 2.251 . S
O337 Mn334 2.160 . S
O337 C348 1.239 . S
O338 Mn334 2.221 . S
O338 Mn339 2.290 1_565 S
O338 C349 1.278 . S
Mn339 O338 2.290 1_545 S
Mn339 O341 2.089 . S
Mn339 O344 2.251 1_445 S
Mn339 O345 2.085 1_445 S
O340 Mn334 2.163 . S
O340 C350 1.244 . S
O341 Mn339 2.089 . S
O341 C348 1.256 1_545 S
O342 Mn334 2.160 . S
O342 C351 1.239 . S
O343 Mn336 2.089 . S
O343 C351 1.256 . S
O344 Mn339 2.251 1_665 S
O344 C349 1.241 1_655 S
O345 Mn339 2.085 1_665 S
O345 C350 1.247 1_655 S
C346 O352 1.278 . S
C346 O353 1.241 . S
C347 O333 1.244 . S
C347 O335 1.256 . S
C348 O337 1.239 . S
C348 O341 1.256 1_565 S
C349 O338 1.278 . S
C349 O344 1.241 1_455 S
C350 O340 1.244 . S
C350 O345 1.247 1_455 S
C351 O342 1.239 . S
C351 O343 1.256 . S
O352 Mn334 2.221 . S
O352 Mn336 2.290 . S
O352 C346 1.278 . S
O353 Mn336 2.251 . S
O353 C346 1.241 . S
O354 Mn355 2.163 . S
O354 C368 1.244 1_565 S
Mn355 O354 2.163 . S
Mn355 O358 2.160 . S
Mn355 O359 2.221 . S
Mn355 O361 2.163 . S
Mn355 O363 2.160 . S
Mn355 O373 2.221 . S
O356 Mn357 2.087 . S
O356 C368 1.256 . S
Mn357 O356 2.087 . S
Mn357 O364 2.089 1_545 S
Mn357 O373 2.290 1_545 S
Mn357 O374 2.251 . S
O358 Mn355 2.160 . S
O358 C369 1.239 . S
O359 Mn355 2.221 . S
O359 Mn360 2.290 . S
O359 C370 1.278 . S
Mn360 O359 2.290 . S
Mn360 O362 2.089 . S
Mn360 O365 2.251 . S
Mn360 O366 2.087 . S
O361 Mn355 2.163 . S
O361 C371 1.244 . S
O362 Mn360 2.089 . S
O362 C369 1.256 . S
O363 Mn355 2.160 . S
O363 C372 1.239 . S
O364 Mn357 2.089 1_565 S
O364 C372 1.256 . S
O365 Mn360 2.251 . S
O365 C370 1.241 . S
O366 Mn360 2.087 . S
O366 C371 1.256 . S
C367 O373 1.278 1_545 S
C367 O374 1.241 . S
C368 O354 1.244 1_545 S
C368 O356 1.256 . S
C369 O358 1.239 . S
C369 O362 1.256 . S
C370 O359 1.278 . S
C370 O365 1.241 . S
C371 O361 1.244 . S
C371 O366 1.256 . S
C372 O363 1.239 . S
C372 O364 1.256 . S
O373 Mn355 2.221 . S
O373 Mn357 2.290 1_565 S
O373 C367 1.278 1_565 S
O374 Mn357 2.251 . S
O374 C367 1.241 . S
O375 Mn376 2.163 . S
O375 C389 1.244 . S
Mn376 O375 2.163 . S
Mn376 O379 2.160 . S
Mn376 O380 2.221 . S
Mn376 O382 2.163 . S
Mn376 O384 2.160 . S
Mn376 O394 2.221 . S
O377 Mn378 2.087 . S
O377 C389 1.256 . S
Mn378 O377 2.087 . S
Mn378 O385 2.089 1_556 S
Mn378 O394 2.290 . S
Mn378 O395 2.251 . S
O379 Mn376 2.160 . S
O379 C390 1.239 . S
O380 Mn376 2.221 . S
O380 Mn381 2.290 . S
O380 C391 1.278 . S
Mn381 O380 2.290 . S
Mn381 O383 2.089 . S
Mn381 O386 2.251 . S
Mn381 O387 2.087 . S
O382 Mn376 2.163 . S
O382 C392 1.244 . S
O383 Mn381 2.089 . S
O383 C390 1.256 . S
O384 Mn376 2.160 . S
O384 C393 1.239 . S
O385 Mn378 2.089 1_554 S
O385 C393 1.256 1_554 S
O386 Mn381 2.251 . S
O386 C391 1.241 . S
O387 Mn381 2.087 . S
O387 C392 1.256 . S
C388 O394 1.278 . S
C388 O395 1.241 . S
C389 O375 1.244 . S
C389 O377 1.256 . S
C390 O379 1.239 . S
C390 O383 1.256 . S
C391 O380 1.278 . S
C391 O386 1.241 . S
C392 O382 1.244 . S
C392 O387 1.256 . S
C393 O384 1.239 . S
C393 O385 1.256 1_556 S
O394 Mn376 2.221 . S
O394 Mn378 2.290 . S
O394 C388 1.278 . S
O395 Mn378 2.251 . S
O395 C388 1.241 . S
O396 Mn397 2.163 . S
O396 C410 1.244 . S
Mn397 O396 2.163 . S
Mn397 O400 2.160 . S
Mn397 O401 2.221 . S
Mn397 O403 2.163 . S
Mn397 O405 2.160 . S
Mn397 O415 2.221 . S
O398 Mn399 2.087 . S
O398 C410 1.256 . S
Mn399 O398 2.087 . S
Mn399 O406 2.089 . S
Mn399 O415 2.290 . S
Mn399 O416 2.251 . S
O400 Mn397 2.160 . S
O400 C411 1.239 . S
O401 Mn397 2.221 . S
O401 Mn402 2.290 . S
O401 C412 1.278 . S
Mn402 O401 2.290 . S
Mn402 O404 2.089 1_556 S
Mn402 O407 2.251 . S
Mn402 O408 2.087 . S
O403 Mn397 2.163 . S
O403 C413 1.244 . S
O404 Mn402 2.089 1_554 S
O404 C411 1.256 1_554 S
O405 Mn397 2.160 . S
O405 C414 1.239 . S
O406 Mn399 2.089 . S
O406 C414 1.256 . S
O407 Mn402 2.251 . S
O407 C412 1.241 . S
O408 Mn402 2.087 . S
O408 C413 1.256 . S
C409 O415 1.278 . S
C409 O416 1.241 . S
C410 O396 1.244 . S
C410 O398 1.256 . S
C411 O400 1.239 . S
C411 O404 1.256 1_556 S
C412 O401 1.278 . S
C412 O407 1.241 . S
C413 O403 1.244 . S
C413 O408 1.256 . S
C414 O405 1.239 . S
C414 O406 1.256 . S
O415 Mn397 2.221 . S
O415 Mn399 2.290 . S
O415 C409 1.278 . S
O416 Mn399 2.251 . S
O416 C409 1.241 . S
O417 Mn418 2.163 . S
O417 C431 1.244 . S
Mn418 O417 2.163 . S
Mn418 O421 2.160 . S
Mn418 O422 2.221 . S
Mn418 O424 2.163 . S
Mn418 O426 2.160 . S
Mn418 O436 2.221 . S
O419 Mn420 2.087 . S
O419 C431 1.256 . S
Mn420 O419 2.087 . S
Mn420 O427 2.089 1_655 S
Mn420 O436 2.290 . S
Mn420 O437 2.251 . S
O421 Mn418 2.160 . S
O421 C432 1.239 . S
O422 Mn418 2.221 . S
O422 Mn423 2.290 . S
O422 C433 1.278 . S
Mn423 O422 2.290 . S
Mn423 O425 2.089 . S
Mn423 O428 2.251 . S
Mn423 O429 2.087 . S
O424 Mn418 2.163 . S
O424 C434 1.244 . S
O425 Mn423 2.089 . S
O425 C432 1.256 . S
O426 Mn418 2.160 . S
O426 C435 1.239 . S
O427 Mn420 2.089 1_455 S
O427 C435 1.256 1_455 S
O428 Mn423 2.251 . S
O428 C433 1.241 . S
O429 Mn423 2.087 . S
O429 C434 1.256 . S
C430 O436 1.278 . S
C430 O437 1.241 . S
C431 O417 1.244 . S
C431 O419 1.256 . S
C432 O421 1.239 . S
C432 O425 1.256 . S
C433 O422 1.278 . S
C433 O428 1.241 . S
C434 O424 1.244 . S
C434 O429 1.256 . S
C435 O426 1.239 . S
C435 O427 1.256 1_655 S
O436 Mn418 2.221 . S
O436 Mn420 2.290 . S
O436 C430 1.278 . S
O437 Mn420 2.251 . S
O437 C430 1.241 . S
O438 Mn439 2.163 . S
O438 C452 1.244 . S
Mn439 O438 2.163 . S
Mn439 O442 2.160 . S
Mn439 O443 2.221 . S
Mn439 O445 2.163 . S
Mn439 O447 2.160 . S
Mn439 O457 2.221 . S
O440 Mn441 2.090 . S
O440 C452 1.264 . S
Mn441 O440 2.090 . S
Mn441 O448 2.089 . S
Mn441 O457 2.290 . S
Mn441 O458 2.251 1_655 S
O442 Mn439 2.160 . S
O442 C453 1.239 . S
O443 Mn439 2.221 . S
O443 Mn444 2.290 . S
O443 C454 1.278 . S
Mn444 O443 2.290 . S
Mn444 O446 2.089 . S
Mn444 O449 2.251 . S
Mn444 O450 2.087 . S
O445 Mn439 2.163 . S
O445 C455 1.244 . S
O446 Mn444 2.089 . S
O446 C453 1.256 . S
O447 Mn439 2.160 . S
O447 C456 1.239 . S
O448 Mn441 2.089 . S
O448 C456 1.256 . S
O449 Mn444 2.251 . S
O449 C454 1.241 . S
O450 Mn444 2.087 . S
O450 C455 1.256 . S
C451 O457 1.278 . S
C451 O458 1.241 1_655 S
C452 O438 1.244 . S
C452 O440 1.264 . S
C453 O442 1.239 . S
C453 O446 1.256 . S
C454 O443 1.278 . S
C454 O449 1.241 . S
C455 O445 1.244 . S
C455 O450 1.256 . S
C456 O447 1.239 . S
C456 O448 1.256 . S
O457 Mn439 2.221 . S
O457 Mn441 2.290 . S
O457 C451 1.278 . S
O458 Mn441 2.251 1_455 S
O458 C451 1.241 1_455 S
O459 Mn460 2.163 . S
O459 C473 1.244 . S
Mn460 O459 2.163 . S
Mn460 O463 2.160 . S
Mn460 O464 2.221 . S
Mn460 O466 2.163 . S
Mn460 O468 2.160 . S
Mn460 O478 2.221 . S
O461 Mn462 2.087 . S
O461 C473 1.256 . S
Mn462 O461 2.087 . S
Mn462 O469 2.089 . S
Mn462 O478 2.290 . S
Mn462 O479 2.251 . S
O463 Mn460 2.160 . S
O463 C474 1.239 1_565 S
O464 Mn460 2.221 . S
O464 Mn465 2.290 1_565 S
O464 C475 1.283 . S
Mn465 O464 2.290 1_545 S
Mn465 O467 2.089 . S
Mn465 O470 2.251 1_546 S
Mn465 O471 2.087 1_556 S
O466 Mn460 2.163 . S
O466 C476 1.244 1_565 S
O467 Mn465 2.089 . S
O467 C474 1.256 . S
O468 Mn460 2.160 . S
O468 C477 1.239 . S
O469 Mn462 2.089 . S
O469 C477 1.256 . S
O470 Mn465 2.251 1_564 S
O470 C475 1.236 1_554 S
O471 Mn465 2.087 1_554 S
O471 C476 1.256 1_554 S
C472 O478 1.278 . S
C472 O479 1.241 . S
C473 O459 1.244 . S
C473 O461 1.256 . S
C474 O463 1.239 1_545 S
C474 O467 1.256 . S
C475 O464 1.283 . S
C475 O470 1.236 1_556 S
C476 O466 1.244 1_545 S
C476 O471 1.256 1_556 S
C477 O468 1.239 . S
C477 O469 1.256 . S
O478 Mn460 2.221 . S
O478 Mn462 2.290 . S
O478 C472 1.278 . S
O479 Mn462 2.251 . S
O479 C472 1.241 . S
O480 Mn481 2.163 . S
O480 C494 1.244 . S
Mn481 O480 2.163 . S
Mn481 O484 2.160 . S
Mn481 O485 2.221 . S
Mn481 O487 2.163 . S
Mn481 O489 2.160 . S
Mn481 O499 2.221 . S
O482 Mn483 2.087 . S
O482 C494 1.256 . S
Mn483 O482 2.087 . S
Mn483 O490 2.089 . S
Mn483 O499 2.290 . S
Mn483 O500 2.251 . S
O484 Mn481 2.160 . S
O484 C495 1.239 . S
O485 Mn481 2.221 . S
O485 Mn486 2.290 . S
O485 C496 1.278 1_655 S
Mn486 O485 2.290 . S
Mn486 O488 2.089 . S
Mn486 O491 2.251 1_655 S
Mn486 O492 2.087 1_655 S
O487 Mn481 2.163 . S
O487 C497 1.244 . S
O488 Mn486 2.089 . S
O488 C495 1.256 . S
O489 Mn481 2.160 . S
O489 C498 1.239 . S
O490 Mn483 2.089 . S
O490 C498 1.256 . S
O491 Mn486 2.251 1_455 S
O491 C496 1.241 . S
O492 Mn486 2.087 1_455 S
O492 C497 1.256 1_455 S
C493 O499 1.278 . S
C493 O500 1.241 . S
C494 O480 1.244 . S
C494 O482 1.256 . S
C495 O484 1.239 . S
C495 O488 1.256 . S
C496 O485 1.278 1_455 S
C496 O491 1.241 . S
C497 O487 1.244 . S
C497 O492 1.256 1_655 S
C498 O489 1.239 . S
C498 O490 1.256 . S
O499 Mn481 2.221 . S
O499 Mn483 2.290 . S
O499 C493 1.278 . S
O500 Mn483 2.251 . S
O500 C493 1.241 . S
O501 Mn502 2.163 . S
O501 C515 1.244 . S
Mn502 O501 2.163 . S
Mn502 O505 2.160 . S
Mn502 O506 2.221 . S
Mn502 O508 2.163 . S
Mn502 O510 2.160 . S
Mn502 O520 2.221 . S
O503 Mn504 2.087 . S
O503 C515 1.256 . S
Mn504 O503 2.087 . S
Mn504 O511 2.089 . S
Mn504 O520 2.290 . S
Mn504 O521 2.251 . S
O505 Mn502 2.160 . S
O505 C516 1.239 . S
O506 Mn502 2.221 . S
O506 Mn507 2.290 . S
O506 C517 1.278 . S
Mn507 O506 2.290 . S
Mn507 O509 2.089 . S
Mn507 O512 2.251 . S
Mn507 O513 2.087 . S
O508 Mn502 2.163 . S
O508 C518 1.244 . S
O509 Mn507 2.089 . S
O509 C516 1.256 . S
O510 Mn502 2.160 . S
O510 C519 1.239 . S
O511 Mn504 2.089 . S
O511 C519 1.256 . S
O512 Mn507 2.251 . S
O512 C517 1.241 . S
O513 Mn507 2.087 . S
O513 C518 1.256 . S
C514 O520 1.278 . S
C514 O521 1.241 . S
C515 O501 1.244 . S
C515 O503 1.256 . S
C516 O505 1.239 . S
C516 O509 1.256 . S
C517 O506 1.278 . S
C517 O512 1.241 . S
C518 O508 1.244 . S
C518 O513 1.256 . S
C519 O510 1.239 . S
C519 O511 1.256 . S
O520 Mn502 2.221 . S
O520 Mn504 2.290 . S
O520 C514 1.278 . S
O521 Mn504 2.251 . S
O521 C514 1.241 . S
O522 Mn523 2.163 . S
O522 C536 1.244 . S
Mn523 O522 2.163 . S
Mn523 O526 2.160 . S
Mn523 O527 2.221 . S
Mn523 O529 2.163 . S
Mn523 O531 2.160 . S
Mn523 O541 2.221 . S
O524 Mn525 2.087 1_565 S
O524 C536 1.256 . S
Mn525 O524 2.087 1_545 S
Mn525 O532 2.089 . S
Mn525 O541 2.290 1_545 S
Mn525 O542 2.251 1_545 S
O526 Mn523 2.160 . S
O526 C537 1.239 . S
O527 Mn523 2.221 . S
O527 Mn528 2.290 . S
O527 C538 1.278 . S
Mn528 O527 2.290 . S
Mn528 O530 2.089 . S
Mn528 O533 2.251 . S
Mn528 O534 2.087 . S
O529 Mn523 2.163 . S
O529 C539 1.244 . S
O530 Mn528 2.089 . S
O530 C537 1.256 . S
O531 Mn523 2.160 . S
O531 C540 1.239 1_565 S
O532 Mn525 2.089 . S
O532 C540 1.256 . S
O533 Mn528 2.251 . S
O533 C538 1.241 . S
O534 Mn528 2.087 . S
O534 C539 1.256 . S
C535 O541 1.278 . S
C535 O542 1.241 . S
C536 O522 1.244 . S
C536 O524 1.256 . S
C537 O526 1.239 . S
C537 O530 1.256 . S
C538 O527 1.278 . S
C538 O533 1.241 . S
C539 O529 1.244 . S
C539 O534 1.256 . S
C540 O531 1.239 1_545 S
C540 O532 1.256 . S
O541 Mn523 2.221 . S
O541 Mn525 2.290 1_565 S
O541 C535 1.278 . S
O542 Mn525 2.251 1_565 S
O542 C535 1.241 . S
O543 Mn544 2.163 . S
O543 C557 1.244 . S
Mn544 O543 2.163 . S
Mn544 O547 2.160 . S
Mn544 O548 2.221 . S
Mn544 O550 2.163 . S
Mn544 O552 2.160 . S
Mn544 O562 2.221 . S
O545 Mn546 2.087 . S
O545 C557 1.256 . S
Mn546 O545 2.087 . S
Mn546 O553 2.089 . S
Mn546 O562 2.290 . S
Mn546 O563 2.251 . S
O547 Mn544 2.160 . S
O547 C558 1.239 . S
O548 Mn544 2.221 . S
O548 Mn549 2.290 . S
O548 C559 1.278 . S
Mn549 O548 2.290 . S
Mn549 O551 2.089 . S
Mn549 O554 2.251 . S
Mn549 O555 2.087 . S
O550 Mn544 2.163 . S
O550 C560 1.244 . S
O551 Mn549 2.089 . S
O551 C558 1.256 . S
O552 Mn544 2.160 . S
O552 C561 1.239 . S
O553 Mn546 2.089 . S
O553 C561 1.256 . S
O554 Mn549 2.251 . S
O554 C559 1.241 . S
O555 Mn549 2.087 . S
O555 C560 1.256 . S
C556 O562 1.278 . S
C556 O563 1.241 . S
C557 O543 1.244 . S
C557 O545 1.256 . S
C558 O547 1.239 . S
C558 O551 1.256 . S
C559 O548 1.278 . S
C559 O554 1.241 . S
C560 O550 1.244 . S
C560 O555 1.256 . S
C561 O552 1.239 . S
C561 O553 1.256 . S
O562 Mn544 2.221 . S
O562 Mn546 2.290 . S
O562 C556 1.278 . S
O563 Mn546 2.251 . S
O563 C556 1.241 . S
O564 Mn565 2.163 . S
O564 C578 1.244 . S
Mn565 O564 2.163 . S
Mn565 O568 2.160 . S
Mn565 O569 2.221 . S
Mn565 O571 2.163 . S
Mn565 O573 2.160 . S
Mn565 O583 2.221 . S
O566 Mn567 2.087 . S
O566 C578 1.256 . S
Mn567 O566 2.087 . S
Mn567 O574 2.089 . S
Mn567 O583 2.290 . S
Mn567 O584 2.251 . S
O568 Mn565 2.160 . S
O568 C579 1.239 . S
O569 Mn565 2.221 . S
O569 Mn570 2.290 . S
O569 C580 1.278 . S
Mn570 O569 2.290 . S
Mn570 O572 2.089 . S
Mn570 O575 2.251 1_556 S
Mn570 O576 2.087 1_556 S
O571 Mn565 2.163 . S
O571 C581 1.244 . S
O572 Mn570 2.089 . S
O572 C579 1.256 . S
O573 Mn565 2.160 . S
O573 C582 1.239 . S
O574 Mn567 2.089 . S
O574 C582 1.256 . S
O575 Mn570 2.251 1_554 S
O575 C580 1.241 1_554 S
O576 Mn570 2.087 1_554 S
O576 C581 1.256 1_554 S
C577 O583 1.278 . S
C577 O584 1.241 . S
C578 O564 1.244 . S
C578 O566 1.256 . S
C579 O568 1.239 . S
C579 O572 1.256 . S
C580 O569 1.278 . S
C580 O575 1.241 1_556 S
C581 O571 1.244 . S
C581 O576 1.256 1_556 S
C582 O573 1.239 . S
C582 O574 1.256 . S
O583 Mn565 2.221 . S
O583 Mn567 2.290 . S
O583 C577 1.278 . S
O584 Mn567 2.251 . S
O584 C577 1.241 . S
O585 Mn586 2.163 . S
O585 C599 1.244 . S
Mn586 O585 2.163 . S
Mn586 O589 2.160 . S
Mn586 O590 2.221 . S
Mn586 O592 2.163 . S
Mn586 O594 2.160 . S
Mn586 O604 2.221 . S
O587 Mn588 2.087 . S
O587 C599 1.256 . S
Mn588 O587 2.087 . S
Mn588 O595 2.089 . S
Mn588 O604 2.290 . S
Mn588 O605 2.251 1_455 S
O589 Mn586 2.160 . S
O589 C600 1.239 . S
O590 Mn586 2.221 . S
O590 Mn591 2.290 . S
O590 C601 1.278 . S
Mn591 O590 2.290 . S
Mn591 O593 2.089 . S
Mn591 O596 2.251 . S
Mn591 O597 2.087 . S
O592 Mn586 2.163 . S
O592 C602 1.244 . S
O593 Mn591 2.089 . S
O593 C600 1.256 . S
O594 Mn586 2.160 . S
O594 C603 1.239 . S
O595 Mn588 2.089 . S
O595 C603 1.256 . S
O596 Mn591 2.251 . S
O596 C601 1.241 . S
O597 Mn591 2.087 . S
O597 C602 1.256 . S
C598 O604 1.278 . S
C598 O605 1.241 1_455 S
C599 O585 1.244 . S
C599 O587 1.256 . S
C600 O589 1.239 . S
C600 O593 1.256 . S
C601 O590 1.278 . S
C601 O596 1.241 . S
C602 O592 1.244 . S
C602 O597 1.256 . S
C603 O594 1.239 . S
C603 O595 1.256 . S
O604 Mn586 2.221 . S
O604 Mn588 2.290 . S
O604 C598 1.278 . S
O605 Mn588 2.251 1_655 S
O605 C598 1.241 1_655 S
O606 Mn607 2.163 . S
O606 C620 1.244 . S
Mn607 O606 2.163 . S
Mn607 O610 2.160 . S
Mn607 O611 2.221 . S
Mn607 O613 2.163 . S
Mn607 O615 2.160 . S
Mn607 O625 2.221 . S
O608 Mn609 2.087 . S
O608 C620 1.256 . S
Mn609 O608 2.087 . S
Mn609 O616 2.089 . S
Mn609 O625 2.290 . S
Mn609 O626 2.251 . S
O610 Mn607 2.160 . S
O610 C621 1.239 . S
O611 Mn607 2.221 . S
O611 Mn612 2.290 . S
O611 C622 1.278 . S
Mn612 O611 2.290 . S
Mn612 O614 2.089 . S
Mn612 O617 2.251 . S
Mn612 O618 2.087 . S
O613 Mn607 2.163 . S
O613 C623 1.244 . S
O614 Mn612 2.089 . S
O614 C621 1.256 . S
O615 Mn607 2.160 . S
O615 C624 1.239 . S
O616 Mn609 2.089 . S
O616 C624 1.256 . S
O617 Mn612 2.251 . S
O617 C622 1.241 . S
O618 Mn612 2.087 . S
O618 C623 1.256 . S
C619 O625 1.278 . S
C619 O626 1.241 . S
C620 O606 1.244 . S
C620 O608 1.256 . S
C621 O610 1.239 . S
C621 O614 1.256 . S
C622 O611 1.278 . S
C622 O617 1.241 . S
C623 O613 1.244 . S
C623 O618 1.256 . S
C624 O615 1.239 . S
C624 O616 1.256 . S
O625 Mn607 2.221 . S
O625 Mn609 2.290 . S
O625 C619 1.278 . S
O626 Mn609 2.251 . S
O626 C619 1.241 . S
O627 Mn628 2.163 . S
O627 C641 1.244 . S
Mn628 O627 2.163 . S
Mn628 O631 2.160 . S
Mn628 O632 2.221 . S
Mn628 O634 2.163 . S
Mn628 O636 2.160 . S
Mn628 O646 2.221 . S
O629 Mn630 2.087 . S
O629 C641 1.256 . S
Mn630 O629 2.087 . S
Mn630 O637 2.089 . S
Mn630 O646 2.290 . S
Mn630 O647 2.251 . S
O631 Mn628 2.160 . S
O631 C642 1.239 . S
O632 Mn628 2.221 . S
O632 Mn633 2.290 . S
O632 C643 1.278 . S
Mn633 O632 2.290 . S
Mn633 O635 2.089 . S
Mn633 O638 2.251 . S
Mn633 O639 2.087 . S
O634 Mn628 2.163 . S
O634 C644 1.244 . S
O635 Mn633 2.089 . S
O635 C642 1.256 . S
O636 Mn628 2.160 . S
O636 C645 1.239 . S
O637 Mn630 2.089 . S
O637 C645 1.256 . S
O638 Mn633 2.251 . S
O638 C643 1.241 . S
O639 Mn633 2.087 . S
O639 C644 1.256 . S
C640 O646 1.278 . S
C640 O647 1.241 . S
C641 O627 1.244 . S
C641 O629 1.256 . S
C642 O631 1.239 . S
C642 O635 1.256 . S
C643 O632 1.278 . S
C643 O638 1.241 . S
C644 O634 1.244 . S
C644 O639 1.256 . S
C645 O636 1.239 . S
C645 O637 1.256 . S
O646 Mn628 2.221 . S
O646 Mn630 2.290 . S
O646 C640 1.278 . S
O647 Mn630 2.251 . S
O647 C640 1.241 . S
C330 C10 1.769 . S
C16 C350 2.208 . S
C370 C30 1.855 . S
C389 C42 2.136 1_556 S
C347 C57 2.197 . S
C69 C372 1.929 . S
C392 C83 2.103 . S
C101 C328 2.032 1_556 S
C108 C325 2.187 . S
C348 C120 2.208 1_565 S
C371 C133 2.251 1_565 S
C393 C147 2.234 . S
C351 C114 1.810 . S
C367 C122 1.751 . S
C135 C390 1.889 . S
C329 C153 1.802 . S
C160 C326 2.210 . S
C174 C409 1.512 . S
C431 C187 2.093 1_655 S
C454 C205 1.544 . S
C212 C327 2.080 1_655 S
C226 C369 2.251 . S
C451 C185 1.728 1_655 S
C412 C244 1.663 . S
C477 C23 1.545 . S
C497 C5 1.796 . S
C49 C519 1.571 . S
C29 C536 1.769 1_556 S
C94 C494 1.928 . S
C88 C517 1.235 . S
C539 C70 1.882 . S
C62 C475 1.270 1_554 S
C257 C472 1.162 . S
C495 C200 1.960 . S
C514 C211 1.492 . S
C540 C179 1.792 . S
C498 C251 1.545 . S
C518 C198 1.360 1_545 S
C537 C213 1.433 . S
C173 C476 1.696 . S
C473 C264 1.661 . S
C148 C556 1.018 . S
C579 C278 1.724 1_455 S
C127 C601 1.277 . S
C474 C140 1.800 1_655 S
C515 C289 1.737 . S
C598 C276 1.290 1_455 S
C303 C559 0.904 . S
C36 C624 1.769 . S
C44 C413 2.208 1_554 S
C433 C4 1.855 . S
C18 C452 2.135 . S
C81 C410 2.197 . S
C95 C435 1.929 1_556 S
C455 C55 2.104 . S
C622 C75 2.032 . S
C619 C277 2.187 . S
C411 C263 2.208 . S
C434 C302 2.251 . S
C290 C456 2.234 . S
C414 C283 1.810 . S
C265 C430 1.751 . S
C453 C304 1.890 . S
C296 C623 1.803 . S
C620 C199 2.210 . S
C224 C346 1.512 . S
C368 C252 2.093 1_545 S
C166 C391 1.544 . S
C621 C238 2.080 . S
C432 C172 2.251 . S
C388 C250 1.728 . S
C349 C218 1.663 1_455 S
C43 C645 1.545 . S
C31 C560 1.796 1_556 S
C17 C582 1.571 . S
C599 C3 1.769 . S
C557 C68 1.927 . S
C56 C580 1.236 1_554 S
C602 C96 1.882 . S
C82 C643 1.275 . S
C640 C192 1.162 . S
C161 C558 1.960 . S
C237 C577 1.491 . S
C603 C225 1.792 . S
C561 C186 1.545 . S
C159 C581 1.359 . S
C600 C239 1.433 . S
C644 C231 1.695 . S
C641 C121 1.662 . S
C493 C291 1.017 . S
C109 C516 1.723 . S
C270 C538 1.277 . S
C642 C309 1.800 . S
C578 C146 1.737 . S
C535 C107 1.290 . S
C496 C134 0.904 . S
