# Generated by pormake.
# Topology gar, (4,6)-cn, num edge types: 1
# Building blocks:
#     Node 0, Type 0, BuildingBlock: QUQFOY_clean_sbu_1, # of connection points: 4
#     Node 1, Type 0, BuildingBlock: QUQFOY_clean_sbu_1, # of connection points: 4
#     Node 2, Type 0, BuildingBlock: QUQFOY_clean_sbu_1, # of connection points: 4
#     Node 3, Type 0, BuildingBlock: QUQFOY_clean_sbu_1, # of connection points: 4
#     Node 4, Type 0, BuildingBlock: QUQFOY_clean_sbu_1, # of connection points: 4
#     Node 5, Type 0, BuildingBlock: QUQFOY_clean_sbu_1, # of connection points: 4
#     Node 6, Type 0, BuildingBlock: QUQFOY_clean_sbu_1, # of connection points: 4
#     Node 7, Type 0, BuildingBlock: QUQFOY_clean_sbu_1, # of connection points: 4
#     Node 8, Type 0, BuildingBlock: QUQFOY_clean_sbu_1, # of connection points: 4
#     Node 9, Type 0, BuildingBlock: QUQFOY_clean_sbu_1, # of connection points: 4
#     Node 10, Type 0, BuildingBlock: QUQFOY_clean_sbu_1, # of connection points: 4
#     Node 11, Type 0, BuildingBlock: QUQFOY_clean_sbu_1, # of connection points: 4
#     Node 12, Type 0, BuildingBlock: QUQFOY_clean_sbu_1, # of connection points: 4
#     Node 13, Type 0, BuildingBlock: QUQFOY_clean_sbu_1, # of connection points: 4
#     Node 14, Type 0, BuildingBlock: QUQFOY_clean_sbu_1, # of connection points: 4
#     Node 15, Type 0, BuildingBlock: QUQFOY_clean_sbu_1, # of connection points: 4
#     Node 16, Type 0, BuildingBlock: QUQFOY_clean_sbu_1, # of connection points: 4
#     Node 17, Type 0, BuildingBlock: QUQFOY_clean_sbu_1, # of connection points: 4
#     Node 18, Type 0, BuildingBlock: QUQFOY_clean_sbu_1, # of connection points: 4
#     Node 19, Type 0, BuildingBlock: QUQFOY_clean_sbu_1, # of connection points: 4
#     Node 20, Type 0, BuildingBlock: QUQFOY_clean_sbu_1, # of connection points: 4
#     Node 21, Type 0, BuildingBlock: QUQFOY_clean_sbu_1, # of connection points: 4
#     Node 22, Type 0, BuildingBlock: QUQFOY_clean_sbu_1, # of connection points: 4
#     Node 23, Type 0, BuildingBlock: QUQFOY_clean_sbu_1, # of connection points: 4
#     Node 24, Type 1, BuildingBlock: KUMJIN_clean_sbu_0, # of connection points: 6
#     Node 25, Type 1, BuildingBlock: KUMJIN_clean_sbu_0, # of connection points: 6
#     Node 26, Type 1, BuildingBlock: KUMJIN_clean_sbu_0, # of connection points: 6
#     Node 27, Type 1, BuildingBlock: KUMJIN_clean_sbu_0, # of connection points: 6
#     Node 28, Type 1, BuildingBlock: KUMJIN_clean_sbu_0, # of connection points: 6
#     Node 29, Type 1, BuildingBlock: KUMJIN_clean_sbu_0, # of connection points: 6
#     Node 30, Type 1, BuildingBlock: KUMJIN_clean_sbu_0, # of connection points: 6
#     Node 31, Type 1, BuildingBlock: KUMJIN_clean_sbu_0, # of connection points: 6
#     Node 32, Type 1, BuildingBlock: KUMJIN_clean_sbu_0, # of connection points: 6
#     Node 33, Type 1, BuildingBlock: KUMJIN_clean_sbu_0, # of connection points: 6
#     Node 34, Type 1, BuildingBlock: KUMJIN_clean_sbu_0, # of connection points: 6
#     Node 35, Type 1, BuildingBlock: KUMJIN_clean_sbu_0, # of connection points: 6
#     Node 36, Type 1, BuildingBlock: KUMJIN_clean_sbu_0, # of connection points: 6
#     Node 37, Type 1, BuildingBlock: KUMJIN_clean_sbu_0, # of connection points: 6
#     Node 38, Type 1, BuildingBlock: KUMJIN_clean_sbu_0, # of connection points: 6
#     Node 39, Type 1, BuildingBlock: KUMJIN_clean_sbu_0, # of connection points: 6
#     Edge 40, Type (0, 1), BuildingBlock: CIFDUS_clean_linker_0, # of connection points: 2
#     Edge 41, Type (0, 1), BuildingBlock: CIFDUS_clean_linker_0, # of connection points: 2
#     Edge 42, Type (0, 1), BuildingBlock: CIFDUS_clean_linker_0, # of connection points: 2
#     Edge 43, Type (0, 1), BuildingBlock: CIFDUS_clean_linker_0, # of connection points: 2
#     Edge 44, Type (0, 1), BuildingBlock: CIFDUS_clean_linker_0, # of connection points: 2
#     Edge 45, Type (0, 1), BuildingBlock: CIFDUS_clean_linker_0, # of connection points: 2
#     Edge 46, Type (0, 1), BuildingBlock: CIFDUS_clean_linker_0, # of connection points: 2
#     Edge 47, Type (0, 1), BuildingBlock: CIFDUS_clean_linker_0, # of connection points: 2
#     Edge 48, Type (0, 1), BuildingBlock: CIFDUS_clean_linker_0, # of connection points: 2
#     Edge 49, Type (0, 1), BuildingBlock: CIFDUS_clean_linker_0, # of connection points: 2
#     Edge 50, Type (0, 1), BuildingBlock: CIFDUS_clean_linker_0, # of connection points: 2
#     Edge 51, Type (0, 1), BuildingBlock: CIFDUS_clean_linker_0, # of connection points: 2
#     Edge 52, Type (0, 1), BuildingBlock: CIFDUS_clean_linker_0, # of connection points: 2
#     Edge 53, Type (0, 1), BuildingBlock: CIFDUS_clean_linker_0, # of connection points: 2
#     Edge 54, Type (0, 1), BuildingBlock: CIFDUS_clean_linker_0, # of connection points: 2
#     Edge 55, Type (0, 1), BuildingBlock: CIFDUS_clean_linker_0, # of connection points: 2
#     Edge 56, Type (0, 1), BuildingBlock: CIFDUS_clean_linker_0, # of connection points: 2
#     Edge 57, Type (0, 1), BuildingBlock: CIFDUS_clean_linker_0, # of connection points: 2
#     Edge 58, Type (0, 1), BuildingBlock: CIFDUS_clean_linker_0, # of connection points: 2
#     Edge 59, Type (0, 1), BuildingBlock: CIFDUS_clean_linker_0, # of connection points: 2
#     Edge 60, Type (0, 1), BuildingBlock: CIFDUS_clean_linker_0, # of connection points: 2
#     Edge 61, Type (0, 1), BuildingBlock: CIFDUS_clean_linker_0, # of connection points: 2
#     Edge 62, Type (0, 1), BuildingBlock: CIFDUS_clean_linker_0, # of connection points: 2
#     Edge 63, Type (0, 1), BuildingBlock: CIFDUS_clean_linker_0, # of connection points: 2
#     Edge 64, Type (0, 1), BuildingBlock: CIFDUS_clean_linker_0, # of connection points: 2
#     Edge 65, Type (0, 1), BuildingBlock: CIFDUS_clean_linker_0, # of connection points: 2
#     Edge 66, Type (0, 1), BuildingBlock: CIFDUS_clean_linker_0, # of connection points: 2
#     Edge 67, Type (0, 1), BuildingBlock: CIFDUS_clean_linker_0, # of connection points: 2
#     Edge 68, Type (0, 1), BuildingBlock: CIFDUS_clean_linker_0, # of connection points: 2
#     Edge 69, Type (0, 1), BuildingBlock: CIFDUS_clean_linker_0, # of connection points: 2
#     Edge 70, Type (0, 1), BuildingBlock: CIFDUS_clean_linker_0, # of connection points: 2
#     Edge 71, Type (0, 1), BuildingBlock: CIFDUS_clean_linker_0, # of connection points: 2
#     Edge 72, Type (0, 1), BuildingBlock: CIFDUS_clean_linker_0, # of connection points: 2
#     Edge 73, Type (0, 1), BuildingBlock: CIFDUS_clean_linker_0, # of connection points: 2
#     Edge 74, Type (0, 1), BuildingBlock: CIFDUS_clean_linker_0, # of connection points: 2
#     Edge 75, Type (0, 1), BuildingBlock: CIFDUS_clean_linker_0, # of connection points: 2
#     Edge 76, Type (0, 1), BuildingBlock: CIFDUS_clean_linker_0, # of connection points: 2
#     Edge 77, Type (0, 1), BuildingBlock: CIFDUS_clean_linker_0, # of connection points: 2
#     Edge 78, Type (0, 1), BuildingBlock: CIFDUS_clean_linker_0, # of connection points: 2
#     Edge 79, Type (0, 1), BuildingBlock: CIFDUS_clean_linker_0, # of connection points: 2
#     Edge 80, Type (0, 1), BuildingBlock: CIFDUS_clean_linker_0, # of connection points: 2
#     Edge 81, Type (0, 1), BuildingBlock: CIFDUS_clean_linker_0, # of connection points: 2
#     Edge 82, Type (0, 1), BuildingBlock: CIFDUS_clean_linker_0, # of connection points: 2
#     Edge 83, Type (0, 1), BuildingBlock: CIFDUS_clean_linker_0, # of connection points: 2
#     Edge 84, Type (0, 1), BuildingBlock: CIFDUS_clean_linker_0, # of connection points: 2
#     Edge 85, Type (0, 1), BuildingBlock: CIFDUS_clean_linker_0, # of connection points: 2
#     Edge 86, Type (0, 1), BuildingBlock: CIFDUS_clean_linker_0, # of connection points: 2
#     Edge 87, Type (0, 1), BuildingBlock: CIFDUS_clean_linker_0, # of connection points: 2
#     Edge 88, Type (0, 1), BuildingBlock: CIFDUS_clean_linker_0, # of connection points: 2
#     Edge 89, Type (0, 1), BuildingBlock: CIFDUS_clean_linker_0, # of connection points: 2
#     Edge 90, Type (0, 1), BuildingBlock: CIFDUS_clean_linker_0, # of connection points: 2
#     Edge 91, Type (0, 1), BuildingBlock: CIFDUS_clean_linker_0, # of connection points: 2
#     Edge 92, Type (0, 1), BuildingBlock: CIFDUS_clean_linker_0, # of connection points: 2
#     Edge 93, Type (0, 1), BuildingBlock: CIFDUS_clean_linker_0, # of connection points: 2
#     Edge 94, Type (0, 1), BuildingBlock: CIFDUS_clean_linker_0, # of connection points: 2
#     Edge 95, Type (0, 1), BuildingBlock: CIFDUS_clean_linker_0, # of connection points: 2
#     Edge 96, Type (0, 1), BuildingBlock: CIFDUS_clean_linker_0, # of connection points: 2
#     Edge 97, Type (0, 1), BuildingBlock: CIFDUS_clean_linker_0, # of connection points: 2
#     Edge 98, Type (0, 1), BuildingBlock: CIFDUS_clean_linker_0, # of connection points: 2
#     Edge 99, Type (0, 1), BuildingBlock: CIFDUS_clean_linker_0, # of connection points: 2
#     Edge 100, Type (0, 1), BuildingBlock: CIFDUS_clean_linker_0, # of connection points: 2
#     Edge 101, Type (0, 1), BuildingBlock: CIFDUS_clean_linker_0, # of connection points: 2
#     Edge 102, Type (0, 1), BuildingBlock: CIFDUS_clean_linker_0, # of connection points: 2
#     Edge 103, Type (0, 1), BuildingBlock: CIFDUS_clean_linker_0, # of connection points: 2
#     Edge 104, Type (0, 1), BuildingBlock: CIFDUS_clean_linker_0, # of connection points: 2
#     Edge 105, Type (0, 1), BuildingBlock: CIFDUS_clean_linker_0, # of connection points: 2
#     Edge 106, Type (0, 1), BuildingBlock: CIFDUS_clean_linker_0, # of connection points: 2
#     Edge 107, Type (0, 1), BuildingBlock: CIFDUS_clean_linker_0, # of connection points: 2
#     Edge 108, Type (0, 1), BuildingBlock: CIFDUS_clean_linker_0, # of connection points: 2
#     Edge 109, Type (0, 1), BuildingBlock: CIFDUS_clean_linker_0, # of connection points: 2
#     Edge 110, Type (0, 1), BuildingBlock: CIFDUS_clean_linker_0, # of connection points: 2
#     Edge 111, Type (0, 1), BuildingBlock: CIFDUS_clean_linker_0, # of connection points: 2
#     Edge 112, Type (0, 1), BuildingBlock: CIFDUS_clean_linker_0, # of connection points: 2
#     Edge 113, Type (0, 1), BuildingBlock: CIFDUS_clean_linker_0, # of connection points: 2
#     Edge 114, Type (0, 1), BuildingBlock: CIFDUS_clean_linker_0, # of connection points: 2
#     Edge 115, Type (0, 1), BuildingBlock: CIFDUS_clean_linker_0, # of connection points: 2
#     Edge 116, Type (0, 1), BuildingBlock: CIFDUS_clean_linker_0, # of connection points: 2
#     Edge 117, Type (0, 1), BuildingBlock: CIFDUS_clean_linker_0, # of connection points: 2
#     Edge 118, Type (0, 1), BuildingBlock: CIFDUS_clean_linker_0, # of connection points: 2
#     Edge 119, Type (0, 1), BuildingBlock: CIFDUS_clean_linker_0, # of connection points: 2
#     Edge 120, Type (0, 1), BuildingBlock: CIFDUS_clean_linker_0, # of connection points: 2
#     Edge 121, Type (0, 1), BuildingBlock: CIFDUS_clean_linker_0, # of connection points: 2
#     Edge 122, Type (0, 1), BuildingBlock: CIFDUS_clean_linker_0, # of connection points: 2
#     Edge 123, Type (0, 1), BuildingBlock: CIFDUS_clean_linker_0, # of connection points: 2
#     Edge 124, Type (0, 1), BuildingBlock: CIFDUS_clean_linker_0, # of connection points: 2
#     Edge 125, Type (0, 1), BuildingBlock: CIFDUS_clean_linker_0, # of connection points: 2
#     Edge 126, Type (0, 1), BuildingBlock: CIFDUS_clean_linker_0, # of connection points: 2
#     Edge 127, Type (0, 1), BuildingBlock: CIFDUS_clean_linker_0, # of connection points: 2
#     Edge 128, Type (0, 1), BuildingBlock: CIFDUS_clean_linker_0, # of connection points: 2
#     Edge 129, Type (0, 1), BuildingBlock: CIFDUS_clean_linker_0, # of connection points: 2
#     Edge 130, Type (0, 1), BuildingBlock: CIFDUS_clean_linker_0, # of connection points: 2
#     Edge 131, Type (0, 1), BuildingBlock: CIFDUS_clean_linker_0, # of connection points: 2
#     Edge 132, Type (0, 1), BuildingBlock: CIFDUS_clean_linker_0, # of connection points: 2
#     Edge 133, Type (0, 1), BuildingBlock: CIFDUS_clean_linker_0, # of connection points: 2
#     Edge 134, Type (0, 1), BuildingBlock: CIFDUS_clean_linker_0, # of connection points: 2
#     Edge 135, Type (0, 1), BuildingBlock: CIFDUS_clean_linker_0, # of connection points: 2
# Relax obj value: 0.145
# Max RMSD: 0.345
# Mean RMSD: 0.179
data_MOF--net-gar--node1-QUQFOY_clean_sbu_1--node2-KUMJIN_clean_sbu_0--edge1-CIFDUS_clean_linker_0
_symmetry_space_group_name_H-M    P1
_symmetry_Int_Tables_number       1
_symmetry_cell_setting            triclinic
loop_
_symmetry_equiv_pos_as_xyz
'x, y, z'
_cell_length_a     56.079231
_cell_length_b     50.252771
_cell_length_c     50.396792
_cell_angle_alpha  100.70096
_cell_angle_beta   94.234377
_cell_angle_gamma 104.71532
loop_
_atom_site_label
_atom_site_type_symbol
_atom_site_fract_x
_atom_site_fract_y
_atom_site_fract_z
_atom_type_partial_charge
O0 O 0.12855 0.29101 0.39867 0.0
Cd1 Cd 0.14151 0.32214 0.37764 0.0
Cd2 Cd 0.13344 0.35208 0.42422 0.0
O3 O 0.14697 0.32131 0.436 0.0
O4 O 0.15811 0.30751 0.34742 0.0
O5 O 0.17754 0.34136 0.38323 0.0
C6 C 0.17829 0.32557 0.36006 0.0
C7 C 0.13851 0.39186 0.45787 0.0
C8 C 0.13737 0.29611 0.42353 0.0
C9 C 0.09996 0.34513 0.3742 0.0
O10 O 0.10022 0.34393 0.39912 0.0
O11 O 0.11794 0.34139 0.36172 0.0
O12 O 0.15126 0.39302 0.4376 0.0
O13 O 0.1238 0.36808 0.45924 0.0
O14 O 1.00777 0.72398 0.68958 0.0
Cd15 Cd 1.0109 0.76559 0.70582 0.0
Cd16 Cd 0.01676 0.76742 0.65816 0.0
O17 O 0.99451 0.72709 0.64867 0.0
O18 O 0.98984 0.76873 0.73528 0.0
O19 O 0.98272 0.7803 0.69546 0.0
C20 C 0.97586 0.77708 0.71889 0.0
C21 C 0.0156 0.79959 0.63148 0.0
C22 C 0.99918 0.71212 0.665 0.0
C23 C 0.06132 0.78321 0.69935 0.0
O24 O 0.05204 0.77098 0.67508 0.0
O25 O 0.04719 0.7895 0.71663 0.0
O26 O 0.02191 0.77695 0.62256 0.0
O27 O 1.00835 0.80323 0.65528 0.0
O28 O 0.6907 0.84829 0.89893 0.0
Cd29 Cd 0.67172 0.85021 0.93151 0.0
Cd30 Cd 0.63277 0.85172 0.89023 0.0
O31 O 0.65798 0.83743 0.8676 0.0
O32 O 0.67494 0.82268 0.95367 0.0
O33 O 0.64043 0.81997 0.92714 0.0
C34 C 0.652 0.80979 0.94421 0.0
C35 C 0.59812 0.85576 0.86518 0.0
C36 C 0.68086 0.84006 0.87427 0.0
C37 C 0.6534 0.89637 0.94641 0.0
O38 O 0.6398 0.88352 0.9242 0.0
O39 O 0.67124 0.88767 0.95467 0.0
O40 O 0.61977 0.8725 0.86569 0.0
O41 O 0.59628 0.83512 0.87752 0.0
O42 O 0.49781 0.20264 0.1735 0.0
Cd43 Cd 0.50652 0.24244 0.19744 0.0
Cd44 Cd 0.51824 0.25345 0.15323 0.0
O45 O 0.48932 0.21876 0.13761 0.0
O46 O 0.48318 0.2474 0.22396 0.0
O47 O 0.48602 0.26624 0.18717 0.0
C48 C 0.47523 0.26193 0.20835 0.0
C49 C 0.52677 0.29298 0.13537 0.0
C50 C 0.48995 0.19797 0.14834 0.0
C51 C 0.55755 0.25248 0.19468 0.0
O52 O 0.54945 0.24543 0.16952 0.0
O53 O 0.54348 0.25886 0.21195 0.0
O54 O 0.52914 0.26952 0.12201 0.0
O55 O 0.51824 0.29383 0.15847 0.0
O56 O 0.10658 0.78688 0.12635 0.0
Cd57 Cd 0.11049 0.82682 0.14745 0.0
Cd58 Cd 0.13317 0.84204 0.10536 0.0
O59 O 0.12107 0.79631 0.08866 0.0
O60 O 0.08868 0.82002 0.17673 0.0
O61 O 0.08078 0.84267 0.1451 0.0
C62 C 0.07409 0.83202 0.16567 0.0
C63 C 0.12046 0.88071 0.08795 0.0
C64 C 0.11224 0.77821 0.103 0.0
C65 C 0.16607 0.84738 0.15915 0.0
O66 O 0.16604 0.84971 0.13419 0.0
O67 O 0.14556 0.84241 0.16912 0.0
O68 O 0.13641 0.86865 0.07735 0.0
O69 O 0.11119 0.87082 0.10804 0.0
O70 O 0.58103 0.78536 0.43842 0.0
Cd71 Cd 0.55877 0.78095 0.46961 0.0
Cd72 Cd 0.5274 0.80016 0.41929 0.0
O73 O 0.55846 0.791 0.40236 0.0
O74 O 0.57463 0.76044 0.4959 0.0
O75 O 0.53932 0.74021 0.46975 0.0
C76 C 0.55673 0.73782 0.48676 0.0
C77 C 0.48888 0.79677 0.39177 0.0
C78 C 0.57852 0.78788 0.41368 0.0
C79 C 0.54662 0.83964 0.47764 0.0
O80 O 0.53723 0.83378 0.4527 0.0
O81 O 0.55371 0.82115 0.48858 0.0
O82 O 0.50938 0.81496 0.39053 0.0
O83 O 0.4902 0.77963 0.40765 0.0
O84 O 0.61997 0.27887 0.62694 0.0
Cd85 Cd 0.62292 0.31671 0.65244 0.0
Cd86 Cd 0.64728 0.34006 0.61296 0.0
O87 O 0.63344 0.29577 0.59166 0.0
O88 O 0.59812 0.30817 0.67879 0.0
O89 O 0.59446 0.33406 0.64861 0.0
C90 C 0.58542 0.32209 0.66756 0.0
C91 C 0.6315 0.37944 0.60113 0.0
C92 C 0.62475 0.27455 0.60252 0.0
C93 C 0.67832 0.34105 0.66774 0.0
O94 O 0.67921 0.34591 0.64354 0.0
O95 O 0.65719 0.33274 0.67576 0.0
O96 O 0.64865 0.3711 0.58892 0.0
O97 O 0.62349 0.36586 0.61956 0.0
O98 O 0.04124 0.23327 0.94645 0.0
Cd99 Cd 0.03889 0.26127 0.92036 0.0
Cd100 Cd 0.0272 0.29425 0.96981 0.0
O101 O 0.03694 0.25975 0.98517 0.0
O102 O 0.06072 0.25405 0.89092 0.0
O103 O 0.07002 0.29287 0.92292 0.0
C104 C 0.0761 0.27812 0.90197 0.0
C105 C 0.04492 0.34434 0.98611 0.0
C106 C 0.0413 0.23712 0.97224 0.0
C107 C 0.98978 0.27858 0.9167 0.0
O108 O 0.99464 0.28769 0.94249 0.0
O109 O 1.00491 0.26744 0.90385 0.0
O110 O 0.02871 0.33006 0.99873 0.0
O111 O 0.05276 0.32993 0.96629 0.0
O112 O 0.43703 0.0349 0.28136 0.0
Cd113 Cd 0.42495 0.04929 0.31748 0.0
Cd114 Cd 0.46714 0.05676 0.33164 0.0
O115 O 0.47007 0.07 0.29586 0.0
O116 O 0.39537 0.06002 0.30835 0.0
O117 O 0.43202 0.09056 0.32696 0.0
C118 C 0.40931 0.08556 0.31607 0.0
C119 C 0.49103 0.08149 0.37074 0.0
C120 C 0.45625 0.05184 0.2763 0.0
C121 C 0.43116 1.00639 0.33925 0.0
O122 O 0.45176 1.01424 0.33015 0.0
O123 O 0.41879 0.02408 0.34454 0.0
O124 O 0.50011 0.06761 0.35171 0.0
O125 O 0.46826 0.08253 0.36665 0.0
O126 O 0.31834 0.2072 0.56111 0.0
Cd127 Cd 0.3198 0.18446 0.52319 0.0
Cd128 Cd 0.29921 0.22582 0.5106 0.0
O129 O 0.30899 0.24519 0.55301 0.0
O130 O 0.335 0.1558 0.53448 0.0
O131 O 0.35356 0.18502 0.51011 0.0
C132 C 0.35394 0.16489 0.52256 0.0
C133 C 0.31068 0.24479 0.47164 0.0
C134 C 0.31427 0.23081 0.56995 0.0
C135 C 0.266 0.16583 0.50115 0.0
O136 O 0.26722 0.19191 0.50366 0.0
O137 O 0.28574 0.15817 0.50463 0.0
O138 O 0.29525 0.25335 0.48663 0.0
O139 O 0.32076 0.22657 0.47939 0.0
O140 O 0.19279 0.02052 0.72976 0.0
Cd141 Cd 0.22385 1.01931 0.75912 0.0
Cd142 Cd 0.17839 0.04851 0.7938 0.0
O143 O 0.16325 0.03748 0.74958 0.0
O144 O 0.2463 0.99375 0.73972 0.0
O145 O 0.23176 0.98513 0.77646 0.0
C146 C 0.24489 0.97815 0.75764 0.0
C147 C 0.15599 0.05032 0.8371 0.0
C148 C 0.17258 0.02875 0.72771 0.0
C149 C 0.23443 0.08495 0.78706 0.0
O150 O 0.21265 0.07992 0.79502 0.0
O151 O 0.24266 0.06454 0.77482 0.0
O152 O 0.15534 0.06648 0.81998 0.0
O153 O 0.16835 0.03226 0.82982 0.0
O154 O 0.3559 0.96905 0.05407 0.0
Cd155 Cd 0.35089 0.98191 0.01867 0.0
Cd156 Cd 0.34443 0.92969 1.00358 0.0
O157 O 0.32829 0.92885 0.0385 0.0
O158 O 0.34744 1.0191 0.03419 0.0
O159 O 0.31692 0.98497 1.0079 0.0
C160 C 0.32434 1.00939 0.02425 0.0
C161 C 0.33001 0.89505 0.96554 0.0
C162 C 0.34109 0.94726 0.05855 0.0
C163 C 0.39308 0.96967 0.99997 0.0
O164 O 0.38242 0.94649 1.0061 0.0
O165 O 0.38099 0.98756 0.99809 0.0
O166 O 0.34003 0.88971 0.98704 0.0
O167 O 0.32643 0.9196 0.96642 0.0
O168 O 0.34306 0.40583 0.09026 0.0
Cd169 Cd 0.34929 0.42715 0.05963 0.0
Cd170 Cd 0.35622 0.3765 0.03374 0.0
O171 O 0.34062 0.36287 0.06801 0.0
O172 O 0.33212 0.45753 0.06841 0.0
O173 O 0.31994 0.42244 0.03229 0.0
C174 C 0.3161 0.44439 0.04736 0.0
C175 C 0.34456 0.35355 0.98702 0.0
C176 C 0.33855 0.37966 0.08964 0.0
C177 C 0.40076 0.42887 0.04744 0.0
O178 O 0.39261 0.40214 0.04054 0.0
O179 O 0.38603 0.4438 0.05423 0.0
O180 O 0.356 0.34317 1.00395 0.0
O181 O 0.33797 0.37586 0.99688 0.0
O182 O 0.81685 0.15571 0.09425 0.0
Cd183 Cd 0.80293 0.12593 0.05991 0.0
Cd184 Cd 0.80666 0.16905 0.04067 0.0
O185 O 0.83537 0.18582 0.07095 0.0
O186 O 0.81402 0.09285 0.06303 0.0
O187 O 0.82702 0.12129 0.03454 0.0
C188 C 0.82849 0.10017 0.04528 0.0
C189 C 0.80957 0.19107 1.00439 0.0
C190 C 0.83242 0.17866 0.09344 0.0
C191 C 0.75671 0.13646 0.04996 0.0
O192 O 0.77078 0.16078 0.05066 0.0
O193 O 0.76588 0.11576 0.04856 0.0
O194 O 0.80708 0.2036 0.02822 0.0
O195 O 0.81154 0.16567 1.00114 0.0
O196 O 0.22237 0.54674 0.20231 0.0
Cd197 Cd 0.24842 0.55781 0.2349 0.0
Cd198 Cd 0.21089 0.55969 0.25927 0.0
O199 O 0.19296 0.52958 0.22582 0.0
O200 O 0.27256 0.53601 0.22953 0.0
O201 O 0.24422 0.53127 0.25863 0.0
C202 C 0.26172 0.523 0.24713 0.0
C203 C 0.19604 0.55965 0.30074 0.0
C204 C 0.20042 0.53237 0.20309 0.0
C205 C 0.2457 0.61254 0.25286 0.0
O206 O 0.22315 0.59954 0.25281 0.0
O207 O 0.26214 0.5993 0.25082 0.0
O208 O 0.18312 0.5629 0.28003 0.0
O209 O 0.21741 0.5551 0.29784 0.0
O210 O 0.84379 0.90822 0.59641 0.0
Cd211 Cd 0.84945 0.93017 0.56627 0.0
Cd212 Cd 0.85765 0.87949 0.54154 0.0
O213 O 0.84338 0.86536 0.57573 0.0
O214 O 0.83506 0.96155 0.57997 0.0
O215 O 0.81937 0.92986 0.54188 0.0
C216 C 0.81785 0.95138 0.55955 0.0
C217 C 0.84712 0.85493 0.49575 0.0
C218 C 0.84035 0.88234 0.59664 0.0
C219 C 0.90047 0.93419 0.55302 0.0
O220 O 0.89305 0.90741 0.54682 0.0
O221 O 0.88541 0.94842 0.56029 0.0
O222 O 0.86132 0.84777 0.51284 0.0
O223 O 0.83685 0.87443 0.50513 0.0
O224 O 0.96659 0.08538 0.23133 0.0
Cd225 Cd 0.93518 0.08784 0.25627 0.0
Cd226 Cd 0.98233 0.06037 0.29377 0.0
O227 O 0.99539 0.07112 0.25471 0.0
O228 O 0.90842 0.10512 0.23755 0.0
O229 O 0.92892 0.12769 0.27639 0.0
C230 C 0.91224 0.12715 0.25699 0.0
C231 C 1.00738 0.06141 0.33897 0.0
C232 C 0.98759 0.07866 0.23285 0.0
C233 C 0.92383 0.02639 0.27569 0.0
O234 O 0.94656 0.03024 0.28571 0.0
O235 O 0.91703 0.04587 0.26567 0.0
O236 O 1.00753 0.04445 0.31632 0.0
O237 O 0.99447 0.07895 0.33636 0.0
O238 O 0.31581 0.65318 0.58932 0.0
Cd239 Cd 0.3038 0.62358 0.55436 0.0
Cd240 Cd 0.31 0.66961 0.5368 0.0
O241 O 0.33884 0.68095 0.56695 0.0
O242 O 0.32107 0.59438 0.55341 0.0
O243 O 0.32731 0.62663 0.52756 0.0
C244 C 0.33371 0.60653 0.53634 0.0
C245 C 0.31193 0.70076 0.50878 0.0
C246 C 0.33318 0.67493 0.58928 0.0
C247 C 0.2588 0.63465 0.54245 0.0
O248 O 0.27382 0.65868 0.54445 0.0
O249 O 0.2669 0.61316 0.54152 0.0
O250 O 0.31452 0.67607 0.49942 0.0
O251 O 0.31011 0.70783 0.53416 0.0
O252 O 0.46631 0.58584 0.73607 0.0
Cd253 Cd 0.43363 0.5888 0.75887 0.0
Cd254 Cd 0.48527 0.56607 0.79824 0.0
O255 O 0.49816 0.57549 0.75881 0.0
O256 O 0.40931 0.60765 0.73737 0.0
O257 O 0.42535 0.62807 0.77835 0.0
C258 C 0.4112 0.6289 0.75719 0.0
C259 C 0.50656 0.5679 0.84566 0.0
C260 C 0.48821 0.58112 0.73691 0.0
C261 C 0.42646 0.52905 0.77909 0.0
O262 O 0.44958 0.53713 0.78884 0.0
O263 O 0.41642 0.5459 0.76814 0.0
O264 O 0.50824 0.55004 0.82425 0.0
O265 O 0.49466 0.58565 0.84029 0.0
O266 O 0.70475 0.04229 0.69873 0.0
Cd267 Cd 0.74026 0.04964 0.71488 0.0
Cd268 Cd 0.72562 0.07364 0.76232 0.0
O269 O 0.69418 0.06576 0.73545 0.0
O270 O 0.75448 1.01776 0.70479 0.0
O271 O 0.74419 0.03251 0.746 0.0
C272 C 0.75293 1.01536 0.72975 0.0
C273 C 0.71606 0.07758 0.80638 0.0
C274 C 0.68878 0.05169 0.71116 0.0
C275 C 0.76973 0.10599 0.73907 0.0
O276 O 0.75743 0.10242 0.75881 0.0
O277 O 0.76469 0.08796 0.71684 0.0
O278 O 0.71645 0.09727 0.79332 0.0
O279 O 0.72164 0.05528 0.79462 0.0
O280 O 0.81888 0.72449 0.07468 0.0
Cd281 Cd 0.81999 0.69511 0.04086 0.0
Cd282 Cd 0.79763 0.73264 0.01767 0.0
O283 O 0.80681 0.75719 0.05779 0.0
O284 O 0.83031 0.66857 0.06074 0.0
O285 O 0.85293 0.68762 0.03178 0.0
C286 C 0.84977 0.67094 0.04858 0.0
C287 C 0.80966 0.74978 0.97849 0.0
C288 C 0.81375 0.748 0.07821 0.0
C289 C 0.76678 0.67259 0.01459 0.0
O290 O 0.76682 0.69735 0.01194 0.0
O291 O 0.78668 0.66759 0.02315 0.0
O292 O 0.7915 0.75582 0.99033 0.0
O293 O 0.82161 0.73469 0.98918 0.0
O294 O 0.93173 0.55739 0.78743 0.0
Cd295 Cd 0.91604 0.56068 0.82357 0.0
Cd296 Cd 0.96004 0.56866 0.83875 0.0
O297 O 0.96636 0.58782 0.807 0.0
O298 O 0.90645 0.5955 0.83791 0.0
O299 O 0.88149 0.55692 0.81084 0.0
C300 C 0.88502 0.5824 0.82401 0.0
C301 C 0.98627 0.5858 0.87817 0.0
C302 C 0.95262 0.57364 0.78543 0.0
C303 C 0.92654 0.51394 0.83822 0.0
O304 O 0.94724 0.52524 0.83103 0.0
O305 O 0.91162 0.52864 0.84346 0.0
O306 O 0.99338 0.57433 0.85625 0.0
O307 O 0.96422 0.58938 0.87715 0.0
O308 O 0.85194 0.45463 0.56997 0.0
Cd309 Cd 0.85085 0.47772 0.54088 0.0
Cd310 Cd 0.85596 0.436 0.51076 0.0
O311 O 0.84272 0.41516 0.53979 0.0
O312 O 0.8349 0.50465 0.55825 0.0
O313 O 0.8184 0.47364 0.51937 0.0
C314 C 0.8167 0.49337 0.53901 0.0
C315 C 0.84333 0.40986 0.46785 0.0
C316 C 0.84517 0.428 0.56425 0.0
C317 C 0.89829 0.4883 0.52249 0.0
O318 O 0.89174 0.46164 0.5155 0.0
O319 O 0.88304 0.50107 0.53189 0.0
O320 O 0.85902 0.40414 0.4843 0.0
O321 O 0.83448 0.4309 0.47598 0.0
O322 O 0.69361 0.51627 0.23521 0.0
Cd323 Cd 0.72508 0.51747 0.26524 0.0
Cd324 Cd 0.68048 0.54587 0.3 0.0
O325 O 0.66484 0.53407 0.25572 0.0
O326 O 0.74961 0.49114 0.25135 0.0
O327 O 0.72896 0.48384 0.28485 0.0
C328 C 0.74454 0.47598 0.26945 0.0
C329 C 0.66185 0.54252 0.3449 0.0
C330 C 0.67336 0.52449 0.23355 0.0
C331 C 0.73496 0.58371 0.29356 0.0
O332 O 0.71346 0.57888 0.30203 0.0
O333 O 0.74291 0.56321 0.28096 0.0
O334 O 0.65699 0.55876 0.3293 0.0
O335 O 0.67586 0.52729 0.33489 0.0
Eu336 Eu 0.04694 0.04031 0.01809 0.0
C337 C 0.12133 0.14286 0.08925 0.0
C338 C 0.13182 0.17291 0.05714 0.0
C339 C 0.13454 0.19382 0.10507 0.0
C340 C 0.1233 0.14581 0.06284 0.0
C341 C 0.12766 0.16682 0.11082 0.0
C342 C 0.13659 0.19686 0.07824 0.0
C343 C 0.12344 0.13578 0.1424 0.0
N344 N 0.1156 0.11652 0.09414 0.0
C345 C 0.11765 0.11278 0.12039 0.0
C346 C 0.12815 0.16296 0.1376 0.0
Eu347 Eu 0.10591 0.07776 0.05598 0.0
N348 N 0.11939 0.12219 0.04315 0.0
C349 C 0.12612 0.12447 0.01794 0.0
C350 C 0.13679 0.17513 0.03078 0.0
C351 C 0.13456 0.15078 1.01129 0.0
H352 H 0.11447 0.09182 0.12439 0.0
H353 H 0.13929 0.1522 0.99106 0.0
H354 H 0.14294 0.21778 0.07418 0.0
H355 H 0.12452 0.13252 0.16304 0.0
H356 H 0.12506 0.10632 1.00249 0.0
H357 H 1.01097 0.97191 0.08784 0.0
H358 H 0.14346 0.1955 0.02561 0.0
H359 H 0.04805 1.01887 0.94913 0.0
H360 H 0.02362 1.01588 0.07304 0.0
H361 H 0.04603 0.97598 0.91642 0.0
H362 H 0.13929 0.21244 0.12133 0.0
H363 H 0.01254 0.9276 0.05828 0.0
H364 H 0.01964 0.90256 0.01355 0.0
H365 H 0.13303 0.1808 0.15469 0.0
H366 H 0.0293 0.90369 0.96708 0.0
N367 N 0.03455 0.99833 0.03526 0.0
C368 C 0.02541 0.99747 0.05969 0.0
C369 C 0.01869 0.94723 0.05159 0.0
C370 C 0.02654 0.94775 0.02599 0.0
C371 C 0.01772 0.97215 0.06829 0.0
C372 C 0.0344 0.97392 0.01811 0.0
H373 H 0.03893 0.93068 0.93088 0.0
N374 N 0.04602 0.9997 0.98395 0.0
C375 C 0.04503 0.97533 0.93767 0.0
C376 C 0.0403 0.97461 0.99188 0.0
C377 C 0.04692 0.99993 0.95677 0.0
C378 C 0.04093 0.94984 0.9459 0.0
C379 C 0.03789 0.94908 0.97303 0.0
O380 O 0.01772 0.03024 0.98416 0.0
O381 O 0.07342 0.08336 0.03143 0.0
O382 O 0.07749 0.07853 0.08834 0.0
O383 O 0.03922 0.05816 0.06207 0.0
O384 O 0.04255 0.08023 1.00559 0.0
O385 O 1.00892 0.03922 0.02631 0.0
O386 O 0.13691 0.07495 0.08306 0.0
O387 O 0.08159 0.03294 0.03909 0.0
O388 O 0.07357 0.05025 0.98549 0.0
O389 O 0.11205 0.0608 1.01084 0.0
O390 O 0.09586 0.04382 0.08006 0.0
O391 O 0.13945 0.07049 0.04007 0.0
C392 C 0.06213 0.09805 0.01934 0.0
C393 C 0.97507 0.02774 0.98954 0.0
C394 C 0.93623 0.03983 0.99228 0.0
C395 C 0.96064 0.0433 1.00329 0.0
C396 C 0.92609 0.02058 0.96766 0.0
C397 C 0.96505 1.00875 0.96472 0.0
C398 C 0.94054 1.00513 0.9539 0.0
C399 C 0.05268 0.07015 0.08637 0.0
C400 C 1.00096 0.03263 1.00025 0.0
C401 C 0.03114 0.92335 0.9813 0.0
C402 C 0.02559 0.9227 1.00773 0.0
C403 C 0.08395 0.02306 0.06072 0.0
C404 C 0.17701 0.08599 0.06961 0.0
C405 C 0.19347 0.07208 0.05786 0.0
C406 C 0.21915 0.08397 0.06396 0.0
C407 C 0.22827 0.11026 0.08207 0.0
C408 C 0.18615 0.11233 0.08744 0.0
C409 C 0.21179 0.12438 0.09364 0.0
C410 C 0.09804 0.05439 0.98664 0.0
C411 C 0.15059 0.07133 0.06383 0.0
H412 H 0.96843 0.05831 0.02227 0.0
H413 H 0.90714 1.01782 0.95898 0.0
H414 H 0.97617 0.9968 0.95372 0.0
H415 H 0.9328 0.99051 0.93477 0.0
H416 H 0.18619 0.05144 0.04456 0.0
H417 H 0.24808 0.11994 0.08715 0.0
H418 H 0.17356 0.12332 0.09676 0.0
H419 H 0.21892 0.14459 0.10757 0.0
Eu420 Eu 0.34263 0.80631 0.23517 0.0
C421 C 0.29864 0.87864 0.32458 0.0
C422 C 0.3345 0.91186 0.35305 0.0
C423 C 0.29464 0.92256 0.35131 0.0
C424 C 0.32364 0.88616 0.33427 0.0
C425 C 0.28372 0.89649 0.3335 0.0
C426 C 0.31999 0.93024 0.36105 0.0
C427 C 0.2478 0.86016 0.30916 0.0
N428 N 0.28855 0.85309 0.30788 0.0
C429 C 0.26331 0.84312 0.30118 0.0
C430 C 0.25809 0.88712 0.32514 0.0
Eu431 Eu 0.3153 0.82383 0.2977 0.0
N432 N 0.33712 0.86782 0.32634 0.0
C433 C 0.36134 0.87351 0.33743 0.0
C434 C 0.35946 0.91803 0.3638 0.0
C435 C 0.37285 0.89861 0.35614 0.0
H436 H 0.25518 0.82189 0.28958 0.0
H437 H 0.39213 0.90303 0.36451 0.0
H438 H 0.32808 0.95013 0.37527 0.0
H439 H 0.22791 0.85231 0.30336 0.0
H440 H 0.37219 0.85907 0.33189 0.0
H441 H 0.25599 0.74869 0.16513 0.0
H442 H 0.36847 0.93752 0.37824 0.0
H443 H 0.39035 0.78009 0.25248 0.0
H444 H 0.28802 0.79 0.18821 0.0
H445 H 0.39926 0.73493 0.24989 0.0
H446 H 0.28351 0.9366 0.35824 0.0
H447 H 0.26082 0.70135 0.16526 0.0
H448 H 0.28717 0.67162 0.1779 0.0
H449 H 0.24601 0.90016 0.33166 0.0
H450 H 0.32614 0.66782 0.20025 0.0
N451 N 0.3108 0.76772 0.20633 0.0
C452 C 0.29054 0.77014 0.19081 0.0
C453 C 0.27502 0.71972 0.17656 0.0
C454 C 0.29659 0.71709 0.19017 0.0
C455 C 0.27217 0.74636 0.17658 0.0
C456 C 0.31442 0.74168 0.20508 0.0
H457 H 0.36783 0.69109 0.22679 0.0
N458 N 0.35256 0.76283 0.23379 0.0
C459 C 0.38113 0.73569 0.24164 0.0
C460 C 0.336 0.7393 0.21867 0.0
C461 C 0.37555 0.76145 0.24372 0.0
C462 C 0.36345 0.71108 0.22839 0.0
C463 C 0.34074 0.71265 0.21636 0.0
O464 O 0.38143 0.81958 0.22838 0.0
O465 O 0.34372 0.83858 0.27183 0.0
O466 O 0.29313 0.83597 0.26371 0.0
O467 O 0.30973 0.82333 0.22314 0.0
O468 O 0.34665 0.85255 0.23545 0.0
O469 O 0.35259 0.80101 0.19414 0.0
O470 O 0.28781 0.79291 0.31223 0.0
O471 O 0.32261 0.78986 0.26708 0.0
O472 O 0.37214 0.81392 0.27153 0.0
O473 O 0.35126 0.81195 0.30961 0.0
O474 O 0.28563 0.78781 0.2719 0.0
O475 O 0.32086 0.81783 0.33943 0.0
C476 C 0.34598 0.85979 0.2614 0.0
C477 C 0.38837 0.83401 0.18758 0.0
C478 C 0.38552 0.86735 0.15951 0.0
C479 C 0.37435 0.8483 0.1747 0.0
C480 C 0.41122 0.87313 0.15815 0.0
C481 C 0.41399 0.83958 0.18618 0.0
C482 C 0.42541 0.85931 0.1716 0.0
C483 C 0.29295 0.83272 0.23684 0.0
C484 C 0.37621 0.81294 0.20205 0.0
C485 C 0.3229 0.68839 0.20186 0.0
C486 C 0.30077 0.69057 0.18908 0.0
C487 C 0.30066 0.77456 0.26118 0.0
C488 C 0.28508 0.79771 0.35862 0.0
C489 C 0.28766 0.77913 0.37505 0.0
C490 C 0.27188 0.77419 0.39473 0.0
C491 C 0.25361 0.78869 0.39846 0.0
C492 C 0.26681 0.8122 0.36204 0.0
C493 C 0.25112 0.80769 0.38206 0.0
C494 C 0.37137 0.81175 0.29727 0.0
C495 C 0.29996 0.79833 0.33631 0.0
H496 H 0.35458 0.84432 0.17608 0.0
H497 H 0.42014 0.88774 0.1462 0.0
H498 H 0.42504 0.82861 0.1962 0.0
H499 H 0.44516 0.86356 0.17037 0.0
H500 H 0.30207 0.76828 0.37236 0.0
H501 H 0.24138 0.78528 0.41389 0.0
H502 H 0.26447 0.82654 0.34922 0.0
H503 H 0.23694 0.81874 0.38473 0.0
Eu504 Eu 0.61642 0.0603 0.5364 0.0
C505 C 0.52494 1.01052 0.58275 0.0
C506 C 0.50156 0.96798 0.55044 0.0
C507 C 0.50072 0.97064 0.59898 0.0
C508 C 0.51759 0.99557 0.55591 0.0
C509 C 0.51606 0.99836 0.60445 0.0
C510 C 0.49361 0.95545 0.57209 0.0
C511 C 0.53698 0.04245 0.6355 0.0
N512 N 0.54029 0.03717 0.58767 0.0
C513 C 0.54548 0.05365 0.61347 0.0
C514 C 0.52248 1.01459 0.63102 0.0
Eu515 Eu 0.55333 0.05348 0.54838 0.0
N516 N 0.52517 1.00824 0.53518 0.0
C517 C 0.51609 0.99531 0.50876 0.0
C518 C 0.49345 0.95399 0.52332 0.0
C519 C 0.50044 0.96788 0.50243 0.0
H520 H 0.55677 0.07522 0.61687 0.0
H521 H 0.4938 0.95747 0.48141 0.0
H522 H 0.48144 0.93423 0.56822 0.0
H523 H 0.5416 0.0553 0.65591 0.0
H524 H 0.52104 1.00576 0.49232 0.0
H525 H 0.66952 0.15988 0.60308 0.0
H526 H 0.48127 0.93274 0.51831 0.0
H527 H 0.62156 0.03577 0.47104 0.0
H528 H 0.6444 0.11058 0.59233 0.0
H529 H 0.64004 0.05408 0.43259 0.0
H530 H 0.49392 0.96088 0.61542 0.0
H531 H 0.68259 0.18411 0.56599 0.0
H532 H 0.68482 0.1813 0.5161 0.0
H533 H 0.51591 1.00598 0.64816 0.0
H534 H 0.67687 0.15249 0.46959 0.0
N535 N 0.64205 0.10701 0.54933 0.0
C536 C 0.64968 0.1208 0.57582 0.0
C537 C 0.67129 0.16245 0.56107 0.0
C538 C 0.66477 0.14762 0.534 0.0
C539 C 0.66405 0.14882 0.58207 0.0
C540 C 0.64988 0.11951 0.52864 0.0
H541 H 0.66092 0.10486 0.43846 0.0
N542 N 0.63152 0.07599 0.49784 0.0
C543 C 0.64121 0.06823 0.45195 0.0
C544 C 0.64473 0.10351 0.50219 0.0
C545 C 0.63081 0.05794 0.47365 0.0
C546 C 0.6529 0.09695 0.45533 0.0
C547 C 0.65524 0.11488 0.4808 0.0
O548 O 0.63486 0.02846 0.5208 0.0
O549 O 0.57728 0.03017 0.52531 0.0
O550 O 0.5741 0.03788 0.57975 0.0
O551 O 0.61338 0.06656 0.5811 0.0
O552 O 0.60493 1.01433 0.53922 0.0
O553 O 0.65318 0.06177 0.55565 0.0
O554 O 0.53893 0.08724 0.56798 0.0
O555 O 0.59235 0.08381 0.55898 0.0
O556 O 0.59552 0.07137 0.50126 0.0
O557 O 0.5551 0.04661 0.50348 0.0
O558 O 0.56534 0.09804 0.54113 0.0
O559 O 0.5158 0.05545 0.53425 0.0
C560 C 0.58179 1.00796 0.53044 0.0
C561 C 0.67846 0.04106 0.52712 0.0
C562 C 0.71259 0.02039 0.51811 0.0
C563 C 0.69126 0.02112 0.53081 0.0
C564 C 0.72102 0.03961 0.50165 0.0
C565 C 0.6876 0.06074 0.51135 0.0
C566 C 0.70863 0.05983 0.49847 0.0
C567 C 0.59698 0.04913 0.59146 0.0
C568 C 0.65484 0.03969 0.53831 0.0
C569 C 0.66896 0.14328 0.48586 0.0
C570 C 0.67356 0.15967 0.51237 0.0
C571 C 0.58812 0.10527 0.55165 0.0
C572 C 0.49557 0.08071 0.56653 0.0
C573 C 0.47566 0.08734 0.55297 0.0
C574 C 0.45581 0.09221 0.56694 0.0
C575 C 0.45615 0.0906 0.59449 0.0
C576 C 0.4955 0.07961 0.59418 0.0
C577 C 0.4759 0.08437 0.60798 0.0
C578 C 0.57168 0.06244 0.49164 0.0
C579 C 0.51746 0.07821 0.55267 0.0
H580 H 0.68451 1.00601 0.54323 0.0
H581 H 0.73753 0.03938 0.49182 0.0
H582 H 0.67856 0.07673 0.50888 0.0
H583 H 0.71541 0.07491 0.48609 0.0
H584 H 0.4757 0.08891 0.5318 0.0
H585 H 0.44123 0.09462 0.60573 0.0
H586 H 0.51085 0.07595 0.60551 0.0
H587 H 0.47622 0.08365 0.62934 0.0
Eu588 Eu 0.29639 0.30772 0.77603 0.0
C589 C 0.38155 0.27852 0.82746 0.0
C590 C 0.39452 0.31652 0.86744 0.0
C591 C 0.39818 0.26995 0.87012 0.0
C592 C 0.38406 0.30633 0.8399 0.0
C593 C 0.38954 0.2604 0.84224 0.0
C594 C 0.40069 0.29797 0.88269 0.0
C595 C 0.38396 0.22635 0.80003 0.0
N596 N 0.37365 0.26997 0.80035 0.0
C597 C 0.37665 0.24521 0.78622 0.0
C598 C 0.38988 0.23371 0.82828 0.0
Eu599 Eu 0.35979 0.30276 0.77912 0.0
N600 N 0.37807 0.32392 0.82466 0.0
C601 C 0.38414 0.35227 0.83509 0.0
C602 C 0.39939 0.34529 0.8786 0.0
C603 C 0.39469 0.3633 0.86217 0.0
H604 H 0.37197 0.23936 0.76437 0.0
H605 H 0.39895 0.3857 0.87042 0.0
H606 H 0.40832 0.30536 0.90396 0.0
H607 H 0.3851 0.20621 0.78887 0.0
H608 H 0.38046 0.36666 0.82308 0.0
H609 H 0.24969 0.21106 0.69792 0.0
H610 H 0.40745 0.35391 0.89962 0.0
H611 H 0.28659 0.37163 0.77667 0.0
H612 H 0.26684 0.23717 0.74335 0.0
H613 H 0.27434 0.39822 0.74429 0.0
H614 H 0.404 0.25619 0.88187 0.0
H615 H 0.24444 0.23579 0.66092 0.0
H616 H 0.2464 0.28097 0.6465 0.0
H617 H 0.39582 0.21919 0.83893 0.0
H618 H 0.25309 0.33213 0.65906 0.0
N619 N 0.27471 0.27811 0.7333 0.0
C620 C 0.26625 0.24922 0.72798 0.0
C621 C 0.2527 0.24783 0.6811 0.0
C622 C 0.2592 0.27718 0.68691 0.0
C623 C 0.2557 0.23383 0.7019 0.0
C624 C 0.27001 0.29198 0.71357 0.0
H625 H 0.26258 0.37573 0.69554 0.0
N626 N 0.28302 0.33444 0.74654 0.0
C627 C 0.27466 0.37665 0.73713 0.0
C628 C 0.27428 0.32093 0.72042 0.0
C629 C 0.28178 0.36144 0.75537 0.0
C630 C 0.26809 0.3639 0.70968 0.0
C631 C 0.2672 0.33554 0.7011 0.0
O632 O 0.2789 0.33296 0.80483 0.0
O633 O 0.3328 0.31919 0.80385 0.0
O634 O 0.33492 0.25816 0.78047 0.0
O635 O 0.2944 0.26203 0.77922 0.0
O636 O 0.30184 0.29467 0.81605 0.0
O637 O 0.25783 0.29126 0.7832 0.0
O638 O 0.38009 0.31417 0.74542 0.0
O639 O 0.32701 0.30276 0.75077 0.0
O640 O 0.32259 0.35333 0.7784 0.0
O641 O 0.36296 0.34905 0.77752 0.0
O642 O 0.34314 0.26975 0.74093 0.0
O643 O 0.40016 0.30942 0.7811 0.0
C644 C 0.3247 0.30842 0.82348 0.0
C645 C 0.23433 0.32136 0.80366 0.0
C646 C 0.19446 0.31678 0.82231 0.0
C647 C 0.21638 0.3081 0.81894 0.0
C648 C 0.19062 0.33835 0.80975 0.0
C649 C 0.22969 0.34263 0.79133 0.0
C650 C 0.20801 0.35099 0.79431 0.0
C651 C 0.31064 0.24695 0.78029 0.0
C652 C 0.25792 0.31328 0.80156 0.0
C653 C 0.25814 0.32112 0.67422 0.0
C654 C 0.25426 0.292 0.6671 0.0
C655 C 0.32669 0.28134 0.73258 0.0
C656 C 0.41527 0.29694 0.73961 0.0
C657 C 0.44033 0.30896 0.73681 0.0
C658 C 0.45335 0.29314 0.72041 0.0
C659 C 0.44132 0.26509 0.70762 0.0
C660 C 0.4036 0.26898 0.72634 0.0
C661 C 0.41666 0.25309 0.7107 0.0
C662 C 0.3469 0.36447 0.77749 0.0
C663 C 0.40144 0.31341 0.75654 0.0
H664 H 0.21971 0.2916 0.82861 0.0
H665 H 0.17391 0.34525 0.81163 0.0
H666 H 0.24276 0.353 0.77948 0.0
H667 H 0.2047 0.36748 0.78467 0.0
H668 H 0.44948 0.33058 0.74689 0.0
H669 H 0.45109 0.25241 0.69526 0.0
H670 H 0.38436 0.25941 0.72794 0.0
H671 H 0.40757 0.23146 0.70074 0.0
Eu672 Eu 0.08231 0.08887 0.55097 0.0
C673 C 0.10466 1.00109 0.46678 0.0
C674 C 0.06734 0.9872 0.43433 0.0
C675 C 0.10672 0.98395 0.41883 0.0
C676 C 0.07948 0.99787 0.46118 0.0
C677 C 0.11847 0.99351 0.44577 0.0
C678 C 0.0812 0.98085 0.41311 0.0
C679 C 0.15391 1.00295 0.47988 0.0
N680 N 0.11541 1.01028 0.49301 0.0
C681 C 0.1394 1.01012 0.5 0.0
C682 C 0.1435 0.99499 0.45259 0.0
Eu683 Eu 0.08987 0.02255 0.52597 0.0
N684 N 0.06662 1.00386 0.48219 0.0
C685 C 0.0413 0.99815 0.47796 0.0
C686 C 0.04155 0.98249 0.42973 0.0
C687 C 0.02844 0.98762 0.45171 0.0
H688 H 0.14748 1.01636 0.52112 0.0
H689 H 1.00845 0.98373 0.44846 0.0
H690 H 0.07225 0.97287 0.39233 0.0
H691 H 0.17309 1.00358 0.48543 0.0
H692 H 0.03091 1.00245 0.49459 0.0
H693 H 0.16425 0.12739 0.62983 0.0
H694 H 0.03155 0.97439 0.4094 0.0
H695 H 0.02491 0.09862 0.55631 0.0
H696 H 0.14313 0.10949 0.58402 0.0
H697 H 1.00075 0.11372 0.59206 0.0
H698 H 0.11706 0.97827 0.40236 0.0
H699 H 0.14075 0.1371 0.66821 0.0
H700 H 0.10061 0.1399 0.68457 0.0
H701 H 0.15474 0.98934 0.43704 0.0
H702 H 0.05629 0.1361 0.67445 0.0
N703 N 0.10639 0.10737 0.59489 0.0
C704 C 0.13183 0.11328 0.59982 0.0
C705 C 0.13095 0.12888 0.64779 0.0
C706 C 0.10528 0.12452 0.64274 0.0
C707 C 0.14428 0.12355 0.6262 0.0
C708 C 0.09324 0.11362 0.61575 0.0
H709 H 0.01923 0.12685 0.64025 0.0
N710 N 0.05678 0.10178 0.58395 0.0
C711 C 0.0195 0.11274 0.59748 0.0
C712 C 0.06793 0.11092 0.61012 0.0
C713 C 0.03335 0.10418 0.5773 0.0
C714 C 0.02997 0.12005 0.62463 0.0
C715 C 0.05457 0.11982 0.63121 0.0
O716 O 0.06199 0.11385 0.53292 0.0
O717 O 0.06903 0.05244 0.51394 0.0
O718 O 0.11998 0.05396 0.51042 0.0
O719 O 0.12159 0.09406 0.54208 0.0
O720 O 0.08457 0.09061 0.50582 0.0
O721 O 0.09929 0.13397 0.55555 0.0
O722 O 0.10552 0.99285 0.54277 0.0
O723 O 0.09192 0.05242 0.56659 0.0
O724 O 0.04515 0.05878 0.55393 0.0
O725 O 0.05208 1.01495 0.54105 0.0
O726 O 0.12252 0.03787 0.56 0.0
O727 O 0.06661 0.98072 0.5263 0.0
C728 C 0.07319 0.06512 0.49408 0.0
C729 C 0.07495 0.16371 0.54335 0.0
C730 C 0.07547 0.20346 0.52262 0.0
C731 C 0.08252 0.17899 0.52364 0.0
C732 C 0.06104 0.21305 0.54186 0.0
C733 C 0.06085 0.1733 0.56291 0.0
C734 C 0.05398 0.19809 0.56217 0.0
C735 C 0.13085 0.08041 0.52249 0.0
C736 C 0.08033 0.13669 0.54062 0.0
C737 C 0.06637 0.12946 0.65807 0.0
C738 C 0.09161 0.13169 0.66382 0.0
C739 C 0.11264 0.05114 0.57858 0.0
C740 C 0.08565 0.94447 0.52797 0.0
C741 C 0.07079 0.92392 0.53923 0.0
C742 C 0.07217 0.89614 0.533 0.0
C743 C 0.08816 0.88891 0.51437 0.0
C744 C 0.10152 0.93733 0.50936 0.0
C745 C 0.10264 0.90946 0.50249 0.0
C746 C 0.0379 0.03107 0.55007 0.0
C747 C 0.08467 0.97318 0.53759 0.0
H748 H 0.09327 0.17131 0.50837 0.0
H749 H 0.05546 0.23206 0.54125 0.0
H750 H 0.05495 0.16159 0.57835 0.0
H751 H 0.04297 0.20553 0.57712 0.0
H752 H 0.05829 0.9298 0.55326 0.0
H753 H 0.08983 0.86761 0.50942 0.0
H754 H 0.11311 0.95315 0.50044 0.0
H755 H 0.11503 0.90386 0.4883 0.0
Eu756 Eu 0.35638 0.82422 0.75522 0.0
C757 C 0.28398 0.74632 0.81352 0.0
C758 C 0.28914 0.70004 0.79627 0.0
C759 C 0.27555 0.71058 0.84075 0.0
C760 C 0.29054 0.72777 0.79337 0.0
C761 C 0.27576 0.73769 0.83712 0.0
C762 C 0.28225 0.6918 0.82037 0.0
C763 C 0.26565 0.78194 0.85012 0.0
N764 N 0.28378 0.77207 0.80906 0.0
C765 C 0.27382 0.78945 0.82629 0.0
C766 C 0.26698 0.75613 0.85577 0.0
Eu767 Eu 0.29734 0.78311 0.76815 0.0
N768 N 0.29624 0.73608 0.76999 0.0
C769 C 0.2992 0.71717 0.74808 0.0
C770 C 0.29364 0.68107 0.77441 0.0
C771 C 0.29834 0.68959 0.75005 0.0
H772 H 0.27289 0.80946 0.82194 0.0
H773 H 0.30115 0.67491 0.73272 0.0
H774 H 0.28123 0.67065 0.82304 0.0
H775 H 0.2584 0.79608 0.86412 0.0
H776 H 0.30222 0.72319 0.72896 0.0
H777 H 0.36089 0.93335 0.80006 0.0
H778 H 0.29272 0.65959 0.77581 0.0
H779 H 0.37345 0.79844 0.69561 0.0
H780 H 0.35627 0.88343 0.79949 0.0
H781 H 0.38277 0.81308 0.65247 0.0
H782 H 0.26948 0.70363 0.85885 0.0
H783 H 0.36728 0.95131 0.75793 0.0
H784 H 0.37355 0.94192 0.70862 0.0
H785 H 0.26051 0.75029 0.87416 0.0
H786 H 0.37918 0.90912 0.66832 0.0
N787 N 0.35983 0.87256 0.75737 0.0
C788 C 0.35909 0.89071 0.78091 0.0
C789 C 0.36526 0.92922 0.75753 0.0
C790 C 0.36685 0.91076 0.73368 0.0
C791 C 0.36172 0.9192 0.78135 0.0
C792 C 0.36427 0.88222 0.73432 0.0
H793 H 0.38271 0.86107 0.64719 0.0
N794 N 0.36663 0.83706 0.71376 0.0
C795 C 0.37846 0.82755 0.66894 0.0
C796 C 0.36768 0.86387 0.71177 0.0
C797 C 0.37309 0.81928 0.69333 0.0
C798 C 0.37834 0.85462 0.66602 0.0
C799 C 0.37346 0.87339 0.6878 0.0
O800 O 0.39201 0.81478 0.75428 0.0
O801 O 0.3384 0.78249 0.76752 0.0
O802 O 0.32002 0.79869 0.80921 0.0
O803 O 0.35077 0.83496 0.79938 0.0
O804 O 0.36217 0.78085 0.7387 0.0
O805 O 0.38857 0.85031 0.78406 0.0
O806 O 0.26065 0.78984 0.76291 0.0
O807 O 0.31756 0.82619 0.76187 0.0
O808 O 0.32944 0.81318 0.71699 0.0
O809 O 0.30631 0.77181 0.7256 0.0
O810 O 0.28421 0.82358 0.7755 0.0
O811 O 0.26779 0.75325 0.73824 0.0
C812 C 0.34943 0.76569 0.75359 0.0
C813 C 0.42829 0.851 0.7708 0.0
C814 C 0.47255 0.85991 0.78409 0.0
C815 C 0.4479 0.84904 0.78835 0.0
C816 C 0.47733 0.87378 0.76241 0.0
C817 C 0.43311 0.86465 0.74913 0.0
C818 C 0.45766 0.87623 0.74514 0.0
C819 C 0.33884 0.82149 0.81667 0.0
C820 C 0.40327 0.83578 0.77412 0.0
C821 C 0.37492 0.90146 0.68662 0.0
C822 C 0.3717 0.92013 0.70956 0.0
C823 C 0.30175 0.84084 0.76724 0.0
C824 C 0.2271 0.74994 0.75002 0.0
C825 C 0.20558 0.75555 0.73936 0.0
C826 C 0.18228 0.74129 0.74502 0.0
C827 C 0.18057 0.72164 0.76175 0.0
C828 C 0.22529 0.73036 0.76683 0.0
C829 C 0.20207 0.71636 0.77276 0.0
C830 C 0.31535 0.78734 0.70845 0.0
C831 C 0.25121 0.76649 0.74508 0.0
H832 H 0.44386 0.83837 0.80501 0.0
H833 H 0.49619 0.88204 0.75835 0.0
H834 H 0.41803 0.86586 0.73513 0.0
H835 H 0.46146 0.88655 0.72827 0.0
H836 H 0.20693 0.77087 0.72654 0.0
H837 H 0.16263 0.71051 0.76634 0.0
H838 H 0.2417 0.72598 0.77543 0.0
H839 H 0.20073 0.70138 0.78586 0.0
Eu840 Eu 0.58163 0.04628 0.07584 0.0
C841 C 0.52084 0.07739 0.98055 0.0
C842 C 0.49111 0.03331 0.95835 0.0
C843 C 0.4816 0.07752 0.95662 0.0
C844 C 0.51411 0.04835 0.97405 0.0
C845 C 0.50489 0.09236 0.97141 0.0
C846 C 0.47473 0.04804 0.95009 0.0
C847 C 0.53716 0.13545 0.98979 0.0
N848 N 0.5435 0.09107 0.99471 0.0
C849 C 0.55237 0.11961 0.99814 0.0
C850 C 0.51315 0.12178 0.9767 0.0
Eu851 Eu 0.56864 0.06316 1.00782 0.0
N852 N 0.53026 0.03477 0.9826 0.0
C853 C 0.5248 1.00609 0.97533 0.0
C854 C 0.48538 1.00394 0.95115 0.0
C855 C 0.50242 0.9903 0.95949 0.0
H856 H 0.57115 0.13009 1.00776 0.0
H857 H 0.49813 0.96756 0.95425 0.0
H858 H 0.45689 0.03684 0.93827 0.0
H859 H 0.54403 0.15812 0.99324 0.0
H860 H 0.53701 0.99495 0.98256 0.0
H861 H 0.63808 0.15233 0.13086 0.0
H862 H 0.4679 0.99164 0.93917 0.0
H863 H 0.5955 0.98416 0.07615 0.0
H864 H 0.60008 0.11753 0.10973 0.0
H865 H 0.63198 0.96743 0.08602 0.0
H866 H 0.46899 0.08865 0.94962 0.0
H867 H 0.67714 0.13897 0.13708 0.0
H868 H 0.69911 0.1015 0.13286 0.0
H869 H 0.50145 0.13405 0.97004 0.0
H870 H 0.69759 0.05146 0.12064 0.0
N871 N 0.61644 0.08291 0.1017 0.0
C872 C 0.61647 0.11036 0.11131 0.0
C873 C 0.66027 0.12309 0.12738 0.0
C874 C 0.66012 0.09497 0.11908 0.0
C875 C 0.63829 0.13069 0.12386 0.0
C876 C 0.63766 0.07499 0.10636 0.0
H877 H 0.67276 1.00155 0.10362 0.0
N878 N 0.61536 0.02779 0.08698 0.0
C879 C 0.63378 0.9898 0.08947 0.0
C880 C 0.63704 0.04677 0.09892 0.0
C881 C 0.61314 0.99951 0.08389 0.0
C882 C 0.65672 1.00911 0.09938 0.0
C883 C 0.65849 0.03791 0.10477 0.0
O884 O 0.56207 1.00769 0.08737 0.0
O885 O 0.55537 0.03676 0.03733 0.0
O886 O 0.55356 0.09119 0.03812 0.0
O887 O 0.56878 0.08615 0.08133 0.0
O888 O 0.54021 0.04046 0.07392 0.0
O889 O 0.57377 0.04797 0.11756 0.0
O890 O 0.59782 0.08674 0.98851 0.0
O891 O 0.59621 0.06378 0.04177 0.0
O892 O 0.59159 1.01446 0.04353 0.0
O893 O 0.57733 0.02139 1.0013 0.0
O894 O 0.60101 0.10071 0.02814 0.0
O895 O 0.57504 0.04584 0.9667 0.0
C896 C 0.5355 0.03528 0.04791 0.0
C897 C 0.5597 1.00607 0.13417 0.0
C898 C 0.53697 0.99531 0.17153 0.0
C899 C 0.54024 1.00806 0.14926 0.0
C900 C 0.55298 0.97942 0.1781 0.0
C901 C 0.57601 0.99066 0.14082 0.0
C902 C 0.57247 0.97714 0.16272 0.0
C903 C 0.55755 0.09845 0.065 0.0
C904 C 0.56196 0.02113 0.11218 0.0
C905 C 0.6809 0.05789 0.11643 0.0
C906 C 0.68174 0.08635 0.12346 0.0
C907 C 0.61053 0.08794 0.04434 0.0
C908 C 0.59367 0.07847 0.94116 0.0
C909 C 0.60946 0.07038 0.92322 0.0
C910 C 0.61409 0.08318 0.9012 0.0
C911 C 0.60245 0.10389 0.89672 0.0
C912 C 0.58151 0.09869 0.9365 0.0
C913 C 0.58589 0.11132 0.9142 0.0
C914 C 0.58751 1.00771 0.01671 0.0
C915 C 0.59296 0.06787 0.96605 0.0
H916 H 0.5277 0.02005 0.14383 0.0
H917 H 0.55086 0.96953 0.19545 0.0
H918 H 0.59135 0.98918 0.12939 0.0
H919 H 0.58504 0.96524 0.16801 0.0
H920 H 0.61922 0.05514 0.92719 0.0
H921 H 0.60626 0.11426 0.87987 0.0
H922 H 0.56926 0.10517 0.95032 0.0
H923 H 0.57686 0.12726 0.91082 0.0
Eu924 Eu 0.34134 0.32985 0.28852 0.0
C925 C 0.23991 0.24669 0.22797 0.0
C926 C 0.21404 0.24223 0.26423 0.0
C927 C 0.19493 0.22809 0.21718 0.0
C928 C 0.23775 0.24964 0.25547 0.0
C929 C 0.21845 0.23584 0.20852 0.0
C930 C 0.19274 0.23128 0.24497 0.0
C931 C 0.24499 0.23883 0.17307 0.0
N932 N 0.26298 0.25345 0.2202 0.0
C933 C 0.26568 0.24878 0.19298 0.0
C934 C 0.22124 0.23232 0.18086 0.0
Eu935 Eu 0.29688 0.26182 0.25517 0.0
N936 N 0.25873 0.26002 0.27365 0.0
C937 C 0.25698 0.26426 0.30099 0.0
C938 C 0.21237 0.24606 0.29214 0.0
C939 C 0.23393 0.25745 0.31057 0.0
H940 H 0.28388 0.2511 0.18644 0.0
H941 H 0.23283 0.26105 0.33225 0.0
H942 H 0.17445 0.22525 0.25136 0.0
H943 H 0.24743 0.23523 0.15172 0.0
H944 H 0.27313 0.27348 0.31579 0.0
H945 H 0.4015 0.35549 0.20783 0.0
H946 H 0.19453 0.2407 0.29965 0.0
H947 H 0.36159 0.33198 0.35408 0.0
H948 H 0.36379 0.34791 0.2274 0.0
H949 H 0.39958 0.33712 0.38299 0.0
H950 H 0.17833 0.21947 0.20252 0.0
H951 H 0.4406 0.35666 0.23403 0.0
H952 H 0.4631 0.35545 0.27752 0.0
H953 H 0.20524 0.22393 0.16537 0.0
H954 H 0.46273 0.3506 0.32492 0.0
N955 N 0.3783 0.33976 0.26523 0.0
C956 C 0.3793 0.34604 0.23974 0.0
C957 C 0.42342 0.35207 0.24298 0.0
C958 C 0.42318 0.3478 0.26947 0.0
C959 C 0.40142 0.35135 0.22816 0.0
C960 C 0.40017 0.34134 0.2802 0.0
H961 H 0.43943 0.34379 0.36409 0.0
N962 N 0.37796 0.33123 0.31691 0.0
C963 C 0.39998 0.33638 0.36143 0.0
C964 C 0.39998 0.33732 0.30668 0.0
C965 C 0.3781 0.33249 0.3444 0.0
C966 C 0.42238 0.34033 0.35073 0.0
C967 C 0.42271 0.34136 0.32327 0.0
O968 O 0.33561 0.35314 0.32727 0.0
O969 O 0.30155 0.30378 0.28183 0.0
O970 O 0.30387 0.28908 0.22366 0.0
O971 O 0.32954 0.33372 0.24523 0.0
O972 O 0.30805 0.34457 0.27618 0.0
O973 O 0.35793 0.37531 0.30067 0.0
O974 O 0.28248 0.22015 0.22879 0.0
O975 O 0.33682 0.2851 0.26937 0.0
O976 O 0.33209 0.30173 0.3199 0.0
O977 O 0.30667 0.25753 0.29822 0.0
O978 O 0.32838 0.26057 0.22987 0.0
O979 O 0.30107 0.22439 0.26897 0.0
C980 C 0.29101 0.32171 0.27597 0.0
C981 C 0.34109 0.40171 0.33444 0.0
C982 C 0.31362 0.43108 0.33023 0.0
C983 C 0.32199 0.4079 0.3196 0.0
C984 C 0.32442 0.4481 0.35581 0.0
C985 C 0.35201 0.41881 0.35989 0.0
C986 C 0.34366 0.44199 0.37054 0.0
C987 C 0.3165 0.31511 0.22339 0.0
C988 C 0.34947 0.37711 0.3242 0.0
C989 C 0.44526 0.34753 0.31246 0.0
C990 C 0.44547 0.35043 0.28554 0.0
C991 C 0.3458 0.2769 0.24826 0.0
C992 C 0.29496 0.1806 0.23736 0.0
C993 C 0.30988 0.17128 0.25486 0.0
C994 C 0.31265 0.1442 0.248 0.0
C995 C 0.30054 0.12607 0.22345 0.0
C996 C 0.28271 0.16243 0.21272 0.0
C997 C 0.28552 0.13524 0.20585 0.0
C998 C 0.31975 0.27548 0.32013 0.0
C999 C 0.28896 0.20717 0.24676 0.0
H1000 H 0.31386 0.39506 0.29971 0.0
H1001 H 0.31856 0.46662 0.36392 0.0
H1002 H 0.36694 0.41419 0.37149 0.0
H1003 H 0.35223 0.45535 0.39007 0.0
H1004 H 0.31931 0.18497 0.27402 0.0
H1005 H 0.30271 0.105 0.21803 0.0
H1006 H 0.27047 0.16895 0.19918 0.0
H1007 H 0.27589 0.12122 0.18702 0.0
Eu1008 Eu 0.58107 0.58257 0.05583 0.0
C1009 C 0.60441 0.50132 0.96377 0.0
C1010 C 0.565 0.48373 0.9344 0.0
C1011 C 0.60337 0.48416 0.91502 0.0
C1012 C 0.57866 0.49542 0.96055 0.0
C1013 C 0.61692 0.49518 0.94099 0.0
C1014 C 0.5775 0.47846 0.91174 0.0
C1015 C 0.65526 0.50834 0.97129 0.0
N1016 N 0.61718 0.5118 0.98913 0.0
C1017 C 0.64212 0.51369 0.99321 0.0
C1018 C 0.64266 0.49941 0.94499 0.0
Eu1019 Eu 0.59276 0.5184 0.0255 0.0
N1020 N 0.56689 0.50092 0.98276 0.0
C1021 C 0.54142 0.49411 0.98007 0.0
C1022 C 0.53909 0.47753 0.93167 0.0
C1023 C 0.52728 0.48266 0.95463 0.0
H1024 H 0.652 0.51954 0.01361 0.0
H1025 H 0.50721 0.47786 0.95277 0.0
H1026 H 0.56728 0.46964 0.89159 0.0
H1027 H 0.67503 0.51069 0.97475 0.0
H1028 H 0.53151 0.49813 0.99711 0.0
H1029 H 0.67219 0.61654 0.11773 0.0
H1030 H 0.52804 0.46865 0.91196 0.0
H1031 H 0.52535 0.5871 0.07353 0.0
H1032 H 0.64236 0.59258 0.07716 0.0
H1033 H 0.50805 0.60741 0.11355 0.0
H1034 H 0.61271 0.47948 0.89737 0.0
H1035 H 0.6579 0.63857 0.15936 0.0
H1036 H 0.6229 0.64966 0.18317 0.0
H1037 H 0.65284 0.49493 0.92802 0.0
H1038 H 0.57839 0.64652 0.1823 0.0
N1039 N 0.61097 0.60051 0.09508 0.0
C1040 C 0.63565 0.60214 0.09487 0.0
C1041 C 0.64458 0.62798 0.14148 0.0
C1042 C 0.61934 0.62645 0.14164 0.0
C1043 C 0.65272 0.61562 0.11804 0.0
C1044 C 0.6027 0.61232 0.11785 0.0
H1045 H 0.53552 0.63054 0.1567 0.0
N1046 N 0.56189 0.59641 0.09441 0.0
C1047 C 0.52754 0.60799 0.1151 0.0
C1048 C 0.57748 0.61005 0.11755 0.0
C1049 C 0.53736 0.59618 0.0926 0.0
C1050 C 0.54312 0.62109 0.13937 0.0
C1051 C 0.56845 0.62255 0.14075 0.0
O1052 O 0.55892 0.60999 0.04623 0.0
O1053 O 0.58156 0.5557 0.01406 0.0
O1054 O 0.6271 0.5533 0.02252 0.0
O1055 O 0.61555 0.59436 0.03577 0.0
O1056 O 0.55019 0.56916 0.01953 0.0
O1057 O 0.59958 0.62697 0.0564 0.0
O1058 O 0.61265 0.48719 0.02853 0.0
O1059 O 0.59327 0.54544 0.06741 0.0
O1060 O 0.54962 0.54992 0.06615 0.0
O1061 O 0.55407 0.50896 0.03941 0.0
O1062 O 0.61796 0.52177 0.06438 0.0
O1063 O 0.57164 0.47484 0.02447 0.0
C1064 C 0.5612 0.55691 1.00131 0.0
C1065 C 0.57551 0.6592 0.04719 0.0
C1066 C 0.58867 0.70152 0.02957 0.0
C1067 C 0.59295 0.6767 0.03501 0.0
C1068 C 0.56741 0.70928 0.03721 0.0
C1069 C 0.55434 0.66713 0.05489 0.0
C1070 C 0.55045 0.69225 0.0501 0.0
C1071 C 0.63096 0.58075 0.02535 0.0
C1072 C 0.57826 0.63169 0.04993 0.0
C1073 C 0.585 0.63674 0.16435 0.0
C1074 C 0.61035 0.63862 0.16481 0.0
C1075 C 0.61054 0.53911 0.08181 0.0
C1076 C 0.59294 0.43845 0.02586 0.0
C1077 C 0.57655 0.42212 0.03988 0.0
C1078 C 0.57944 0.39608 0.04298 0.0
C1079 C 0.59812 0.38585 0.03111 0.0
C1080 C 0.61153 0.4282 0.01383 0.0
C1081 C 0.61392 0.40177 0.01626 0.0
C1082 C 0.54133 0.52284 0.05515 0.0
C1083 C 0.59221 0.46719 0.02623 0.0
H1084 H 0.60911 0.6704 0.02856 0.0
H1085 H 0.56392 0.72846 0.03308 0.0
H1086 H 0.54072 0.65377 0.06435 0.0
H1087 H 0.53406 0.69827 0.05595 0.0
H1088 H 0.56259 0.43036 0.04978 0.0
H1089 H 0.60059 0.36572 0.03361 0.0
H1090 H 0.62439 0.44079 1.00298 0.0
H1091 H 0.62837 0.39393 1.00719 0.0
Eu1092 Eu 0.85921 0.32307 0.26551 0.0
C1093 C 0.78984 0.2441 0.3206 0.0
C1094 C 0.791 0.19724 0.29896 0.0
C1095 C 0.78289 0.2067 0.34599 0.0
C1096 C 0.79351 0.22574 0.29815 0.0
C1097 C 0.78417 0.23469 0.34466 0.0
C1098 C 0.78623 0.188 0.32316 0.0
C1099 C 0.77935 0.28061 0.36353 0.0
N1100 N 0.79071 0.27087 0.3185 0.0
C1101 C 0.78466 0.28884 0.33912 0.0
C1102 C 0.77932 0.2535 0.36642 0.0
Eu1103 Eu 0.80137 0.28364 0.27706 0.0
N1104 N 0.79748 0.23514 0.27485 0.0
C1105 C 0.7974 0.21669 0.25122 0.0
C1106 C 0.7923 0.17861 0.2751 0.0
C1107 C 0.79507 0.1883 0.25102 0.0
H1108 H 0.78467 0.30984 0.33702 0.0
H1109 H 0.79529 0.1739 0.23223 0.0
H1110 H 0.78443 0.16624 0.32421 0.0
H1111 H 0.77525 0.29517 0.38009 0.0
H1112 H 0.79879 0.22357 0.2323 0.0
H1113 H 0.86075 0.4323 0.30634 0.0
H1114 H 0.79034 0.15655 0.27484 0.0
H1115 H 0.87896 0.2953 0.20772 0.0
H1116 H 0.85437 0.38235 0.30681 0.0
H1117 H 0.89447 0.31026 0.167 0.0
H1118 H 0.77869 0.19912 0.36435 0.0
H1119 H 0.87467 0.45039 0.26609 0.0
H1120 H 0.88798 0.44109 0.21969 0.0
H1121 H 0.77501 0.2471 0.38529 0.0
H1122 H 0.89689 0.40798 0.18182 0.0
N1123 N 0.86372 0.3714 0.2667 0.0
C1124 C 0.86012 0.38958 0.28887 0.0
C1125 C 0.87166 0.42821 0.26603 0.0
C1126 C 0.87595 0.40969 0.24367 0.0
C1127 C 0.86384 0.41811 0.28879 0.0
C1128 C 0.8718 0.38099 0.2446 0.0
H1129 H 0.8993 0.3593 0.16199 0.0
N1130 N 0.87356 0.33503 0.22515 0.0
C1131 C 0.88946 0.32507 0.18258 0.0
C1132 C 0.87677 0.36229 0.22319 0.0
C1133 C 0.88052 0.31663 0.2057 0.0
C1134 C 0.89211 0.35275 0.17982 0.0
C1135 C 0.8861 0.37186 0.20041 0.0
O1136 O 0.89365 0.31158 0.27215 0.0
O1137 O 0.84138 0.281 0.27676 0.0
O1138 O 0.82779 0.29219 0.31511 0.0
O1139 O 0.85019 0.33443 0.30816 0.0
O1140 O 0.86372 0.27936 0.24698 0.0
O1141 O 0.8912 0.35218 0.293 0.0
O1142 O 0.76472 0.29028 0.27989 0.0
O1143 O 0.81883 0.32527 0.265 0.0
O1144 O 0.83498 0.31373 0.22584 0.0
O1145 O 0.8088 0.27326 0.23332 0.0
O1146 O 0.7961 0.32721 0.29459 0.0
O1147 O 0.77 0.25871 0.24681 0.0
C1148 C 0.85079 0.26371 0.26135 0.0
C1149 C 0.93073 0.34736 0.28288 0.0
C1150 C 0.97489 0.35315 0.29514 0.0
C1151 C 0.95041 0.34768 0.30174 0.0
C1152 C 0.97923 0.35953 0.26949 0.0
C1153 C 0.93554 0.35449 0.25786 0.0
C1154 C 0.95974 0.36073 0.2513 0.0
C1155 C 0.84253 0.31745 0.32449 0.0
C1156 C 0.90537 0.33543 0.2882 0.0
C1157 C 0.88976 0.40028 0.19918 0.0
C1158 C 0.8847 0.41914 0.22075 0.0
C1159 C 0.80845 0.34226 0.27941 0.0
C1160 C 0.73077 0.25116 0.26289 0.0
C1161 C 0.70885 0.25858 0.25737 0.0
C1162 C 0.68602 0.24111 0.26067 0.0
C1163 C 0.68517 0.21627 0.26995 0.0
C1164 C 0.7299 0.22644 0.2724 0.0
C1165 C 0.70713 0.20913 0.27604 0.0
C1166 C 0.81958 0.28869 0.21674 0.0
C1167 C 0.75415 0.27004 0.25905 0.0
H1168 H 0.94628 0.34277 0.32122 0.0
H1169 H 0.9975 0.36288 0.26294 0.0
H1170 H 0.92067 0.35439 0.24307 0.0
H1171 H 0.9633 0.36559 0.23167 0.0
H1172 H 0.70948 0.27759 0.24982 0.0
H1173 H 0.66755 0.20244 0.27235 0.0
H1174 H 0.74663 0.22038 0.2768 0.0
H1175 H 0.70648 0.19003 0.2833 0.0
Eu1176 Eu 0.08616 0.55678 0.58551 0.0
C1177 C 0.02252 0.58409 0.49274 0.0
C1178 C 0.99822 0.53826 0.46716 0.0
C1179 C 0.98094 0.57829 0.47066 0.0
C1180 C 0.0201 0.55574 0.48352 0.0
C1181 C 1.00335 0.5959 0.48553 0.0
C1182 C 0.97837 0.5495 0.46153 0.0
C1183 C 0.03103 0.64193 0.50539 0.0
N1184 N 0.04428 0.60046 0.50729 0.0
C1185 C 0.04938 0.62915 0.51229 0.0
C1186 C 1.00769 0.62518 0.49254 0.0
Eu1187 Eu 0.07406 0.57733 0.51905 0.0
N1188 N 0.03956 0.54552 0.48953 0.0
C1189 C 0.03902 0.51841 0.4782 0.0
C1190 C 0.99719 0.51019 0.4564 0.0
C1191 C 0.01787 0.50038 0.46154 0.0
H1192 H 0.06737 0.64202 0.52253 0.0
H1193 H 0.0174 0.47881 0.45302 0.0
H1194 H 0.96125 0.53628 0.44943 0.0
H1195 H 0.03482 0.66462 0.51018 0.0
H1196 H 0.05455 0.51019 0.48223 0.0
H1197 H 0.13435 0.66725 0.63594 0.0
H1198 H 0.98074 0.49609 0.44374 0.0
H1199 H 0.10561 0.49868 0.5868 0.0
H1200 H 0.09997 0.6295 0.61036 0.0
H1201 H 0.1432 0.48626 0.60176 0.0
H1202 H 0.9658 0.58688 0.46536 0.0
H1203 H 0.17337 0.65768 0.65173 0.0
H1204 H 0.19782 0.62318 0.65475 0.0
H1205 H 0.99345 0.63509 0.48732 0.0
H1206 H 0.2005 0.57442 0.64501 0.0
N1207 N 0.11803 0.59671 0.61154 0.0
C1208 C 0.11617 0.62386 0.61736 0.0
C1209 C 0.15801 0.64046 0.64062 0.0
C1210 C 0.16 0.61291 0.63497 0.0
C1211 C 0.13601 0.64592 0.63181 0.0
C1212 C 0.13949 0.59112 0.62028 0.0
H1213 H 0.18047 0.52355 0.62525 0.0
N1214 N 0.1217 0.543 0.59967 0.0
C1215 C 0.14309 0.50813 0.6051 0.0
C1216 C 0.14128 0.56362 0.61433 0.0
C1217 C 0.12188 0.51538 0.59633 0.0
C1218 C 0.16401 0.52921 0.61843 0.0
C1219 C 0.1632 0.55727 0.62358 0.0
O1220 O 0.06998 0.51712 0.59816 0.0
O1221 O 0.06251 0.54675 0.54534 0.0
O1222 O 0.05254 0.59746 0.54915 0.0
O1223 O 0.06728 0.59188 0.59219 0.0
O1224 O 0.04432 0.54163 0.57935 0.0
O1225 O 0.07816 0.55854 0.62678 0.0
O1226 O 0.09946 0.60925 0.50346 0.0
O1227 O 0.10076 0.57772 0.55338 0.0
O1228 O 0.09762 0.5264 0.55282 0.0
O1229 O 0.08987 0.53996 0.51156 0.0
O1230 O 0.10481 0.61545 0.54199 0.0
O1231 O 0.08605 0.56661 0.47908 0.0
C1232 C 0.04165 0.53923 0.55346 0.0
C1233 C 0.05931 0.51802 0.64438 0.0
C1234 C 0.03704 0.52085 0.68367 0.0
C1235 C 0.04971 0.53373 0.66466 0.0
C1236 C 0.03445 0.49221 0.68296 0.0
C1237 C 0.05692 0.48943 0.64376 0.0
C1238 C 0.04466 0.47664 0.6632 0.0
C1239 C 0.05395 0.60232 0.57605 0.0
C1240 C 0.06936 0.53112 0.62261 0.0
C1241 C 0.18352 0.57894 0.63796 0.0
C1242 C 0.18196 0.60667 0.64356 0.0
C1243 C 0.11511 0.60187 0.55665 0.0
C1244 C 0.10073 0.60364 0.45624 0.0
C1245 C 0.11195 0.59134 0.43535 0.0
C1246 C 0.1164 0.60349 0.41289 0.0
C1247 C 0.1094 0.62801 0.41103 0.0
C1248 C 0.09345 0.62809 0.45441 0.0
C1249 C 0.09779 0.64018 0.43176 0.0
C1250 C 0.0982 0.52415 0.52622 0.0
C1251 C 0.09981 0.5922 0.48078 0.0
H1252 H 0.05091 0.55567 0.66488 0.0
H1253 H 0.02443 0.48197 0.69752 0.0
H1254 H 0.0641 0.47695 0.62805 0.0
H1255 H 0.04263 0.45454 0.66261 0.0
H1256 H 0.11788 0.57265 0.43688 0.0
H1257 H 0.11291 0.63761 0.39365 0.0
H1258 H 0.08499 0.63812 0.47062 0.0
H1259 H 0.09244 0.65917 0.43043 0.0
Eu1260 Eu 0.79796 0.81126 0.2866 0.0
C1261 C 0.88626 0.78225 0.33578 0.0
C1262 C 0.91275 0.82577 0.36392 0.0
C1263 C 0.9147 0.78121 0.37444 0.0
C1264 C 0.89427 0.81142 0.34153 0.0
C1265 C 0.89653 0.76693 0.35227 0.0
C1266 C 0.92292 0.81053 0.38012 0.0
C1267 C 0.87232 0.72402 0.32229 0.0
N1268 N 0.86904 0.76873 0.31382 0.0
C1269 C 0.86324 0.73991 0.30617 0.0
C1270 C 0.88883 0.73756 0.34565 0.0
Eu1271 Eu 0.85738 0.79763 0.28534 0.0
N1272 N 0.88332 0.82587 0.32629 0.0
C1273 C 0.88919 0.85471 0.33395 0.0
C1274 C 0.9199 0.85515 0.37016 0.0
C1275 C 0.90775 0.86963 0.35538 0.0
H1276 H 0.85262 0.72856 0.28694 0.0
H1277 H 0.91222 0.89237 0.36091 0.0
H1278 H 0.93694 0.82127 0.39737 0.0
H1279 H 0.86722 0.70129 0.31613 0.0
H1280 H 0.87918 0.86695 0.32499 0.0
H1281 H 0.74973 0.72228 0.20361 0.0
H1282 H 0.93395 0.8668 0.38711 0.0
H1283 H 0.79169 0.87712 0.29493 0.0
H1284 H 0.76992 0.74542 0.2498 0.0
H1285 H 0.78032 0.90861 0.2669 0.0
H1286 H 0.92271 0.76973 0.38718 0.0
H1287 H 0.74313 0.75085 0.17017 0.0
H1288 H 0.74557 0.7986 0.16044 0.0
H1289 H 0.89626 0.72517 0.35783 0.0
H1290 H 0.75414 0.84966 0.17769 0.0
N1291 N 0.77621 0.78705 0.24288 0.0
C1292 C 0.76773 0.75835 0.2356 0.0
C1293 C 0.75224 0.76121 0.19053 0.0
C1294 C 0.75939 0.79056 0.19863 0.0
C1295 C 0.75591 0.74503 0.20933 0.0
C1296 C 0.7712 0.80301 0.22541 0.0
H1297 H 0.76653 0.89079 0.21755 0.0
N1298 N 0.78586 0.84243 0.26144 0.0
C1299 C 0.7794 0.88711 0.25755 0.0
C1300 C 0.77631 0.83167 0.23497 0.0
C1301 C 0.78584 0.86926 0.27332 0.0
C1302 C 0.7717 0.87699 0.22971 0.0
C1303 C 0.76938 0.84875 0.21822 0.0
O1304 O 0.77598 0.82937 0.31543 0.0
O1305 O 0.82882 0.80413 0.31353 0.0
O1306 O 0.82737 0.75513 0.27643 0.0
O1307 O 0.79374 0.76603 0.2949 0.0
O1308 O 0.81915 0.8412 0.32474 0.0
O1309 O 0.76115 0.78688 0.29349 0.0
O1310 O 0.86853 0.76567 0.25734 0.0
O1311 O 0.82164 0.79232 0.25939 0.0
O1312 O 0.82634 0.85375 0.28167 0.0
O1313 O 0.86457 0.84352 0.28149 0.0
O1314 O 0.8538 0.81279 0.24606 0.0
O1315 O 0.89589 0.80586 0.27562 0.0
C1316 C 0.83164 0.82531 0.33301 0.0
C1317 C 0.73207 0.8118 0.30852 0.0
C1318 C 0.69105 0.80755 0.32408 0.0
C1319 C 0.71427 0.80131 0.32525 0.0
C1320 C 0.68595 0.82427 0.30618 0.0
C1321 C 0.72614 0.82788 0.29037 0.0
C1322 C 0.7033 0.83419 0.28936 0.0
C1323 C 0.80591 0.74717 0.28605 0.0
C1324 C 0.75714 0.80717 0.31101 0.0
C1325 C 0.75919 0.83679 0.19099 0.0
C1326 C 0.75425 0.80772 0.18119 0.0
C1327 C 0.83014 0.80243 0.23959 0.0
C1328 C 0.91024 0.77118 0.24472 0.0
C1329 C 0.93241 0.79007 0.24077 0.0
C1330 C 0.94962 0.77992 0.22571 0.0
C1331 C 0.9448 0.75092 0.2152 0.0
C1332 C 0.90591 0.74223 0.2341 0.0
C1333 C 0.92315 0.73222 0.21954 0.0
C1334 C 0.85096 0.86161 0.28067 0.0
C1335 C 0.89134 0.78118 0.25948 0.0
H1336 H 0.71856 0.78877 0.33931 0.0
H1337 H 0.66834 0.82948 0.30507 0.0
H1338 H 0.73922 0.8358 0.27713 0.0
H1339 H 0.69906 0.84692 0.27551 0.0
H1340 H 0.93605 0.81247 0.24887 0.0
H1341 H 0.95797 0.74274 0.2038 0.0
H1342 H 0.88917 0.72727 0.2371 0.0
H1343 H 0.91969 0.70987 0.21153 0.0
Eu1344 Eu 0.85389 0.3016 0.7505 0.0
C1345 C 0.81992 0.38157 0.84087 0.0
C1346 C 0.85823 0.40896 0.86925 0.0
C1347 C 0.82224 0.4274 0.86907 0.0
C1348 C 0.84432 0.38417 0.85066 0.0
C1349 C 0.80856 0.40306 0.85032 0.0
C1350 C 0.84704 0.4304 0.87842 0.0
C1351 C 0.77029 0.37434 0.82343 0.0
N1352 N 0.80715 0.35802 0.82239 0.0
C1353 C 0.78225 0.35369 0.81475 0.0
C1354 C 0.78357 0.3993 0.84109 0.0
Eu1355 Eu 0.82706 0.32132 0.81264 0.0
N1356 N 0.85474 0.36308 0.84136 0.0
C1357 C 0.87956 0.36668 0.84891 0.0
C1358 C 0.88316 0.41185 0.87779 0.0
C1359 C 0.89392 0.39075 0.86734 0.0
H1360 H 0.77115 0.33391 0.80241 0.0
H1361 H 0.91348 0.39325 0.87301 0.0
H1362 H 0.85746 0.44945 0.89271 0.0
H1363 H 0.75068 0.37069 0.81692 0.0
H1364 H 0.88922 0.35205 0.84006 0.0
H1365 H 0.7642 0.23913 0.68835 0.0
H1366 H 0.89444 0.43062 0.89185 0.0
H1367 H 0.90635 0.28176 0.75822 0.0
H1368 H 0.79203 0.27993 0.7175 0.0
H1369 H 0.9212 0.23988 0.7467 0.0
H1370 H 0.8138 0.44404 0.87649 0.0
H1371 H 0.77671 0.19537 0.6759 0.0
H1372 H 0.80847 0.16938 0.67979 0.0
H1373 H 0.7742 0.41522 0.84802 0.0
H1374 H 0.85049 0.16902 0.6967 0.0
N1375 N 0.82269 0.26201 0.72217 0.0
C1376 C 0.7992 0.26223 0.7124 0.0
C1377 C 0.78972 0.21383 0.6887 0.0
C1378 C 0.81334 0.21313 0.6987 0.0
C1379 C 0.78265 0.23847 0.69564 0.0
C1380 C 0.82966 0.23774 0.71557 0.0
H1381 H 0.8924 0.19495 0.72155 0.0
N1382 N 0.86852 0.26078 0.742 0.0
C1383 C 0.90186 0.23856 0.7411 0.0
C1384 C 0.8531 0.23715 0.72579 0.0
C1385 C 0.89313 0.26227 0.74787 0.0
C1386 C 0.8856 0.21334 0.72688 0.0
C1387 C 0.86108 0.21253 0.71845 0.0
O1388 O 0.89247 0.32047 0.74639 0.0
O1389 O 0.85677 0.3344 0.78775 0.0
O1390 O 0.80437 0.32884 0.7751 0.0
O1391 O 0.82304 0.31956 0.73542 0.0
O1392 O 0.85862 0.34766 0.75075 0.0
O1393 O 0.86551 0.30085 0.71023 0.0
O1394 O 0.78926 0.298 0.81596 0.0
O1395 O 0.82429 0.28848 0.77538 0.0
O1396 O 0.87657 0.29446 0.7883 0.0
O1397 O 0.86096 0.30864 0.82891 0.0
O1398 O 0.8253 0.27603 0.81262 0.0
O1399 O 0.81701 0.31621 0.85269 0.0
C1400 C 0.85901 0.35524 0.77668 0.0
C1401 C 0.9003 0.33774 0.7071 0.0
C1402 C 0.89762 0.37408 0.68266 0.0
C1403 C 0.88603 0.35205 0.69449 0.0
C1404 C 0.92358 0.38206 0.68355 0.0
C1405 C 0.92625 0.34557 0.70787 0.0
C1406 C 0.93785 0.36775 0.69612 0.0
C1407 C 0.80542 0.32781 0.74847 0.0
C1408 C 0.88851 0.31489 0.71986 0.0
C1409 C 0.84474 0.18812 0.70217 0.0
C1410 C 0.8209 0.18839 0.69241 0.0
C1411 C 0.82349 0.26798 0.78662 0.0
C1412 C 0.77555 0.29123 0.85913 0.0
C1413 C 0.7829 0.28117 0.88144 0.0
C1414 C 0.76543 0.27021 0.89764 0.0
C1415 C 0.74044 0.26964 0.8918 0.0
C1416 C 0.75049 0.29017 0.85281 0.0
C1417 C 0.733 0.27951 0.86928 0.0
C1418 C 0.87746 0.29851 0.81546 0.0
C1419 C 0.79419 0.3021 0.84234 0.0
H1420 H 0.86594 0.34601 0.69365 0.0
H1421 H 0.93266 0.39882 0.67391 0.0
H1422 H 0.93748 0.33455 0.71756 0.0
H1423 H 0.95784 0.37367 0.69656 0.0
H1424 H 0.80223 0.28163 0.88613 0.0
H1425 H 0.72677 0.26121 0.90436 0.0
H1426 H 0.74453 0.29776 0.83539 0.0
H1427 H 0.71368 0.27883 0.86454 0.0
Eu1428 Eu 0.84098 0.83591 0.79592 0.0
C1429 C 0.73917 0.75267 0.74096 0.0
C1430 C 0.71587 0.74316 0.77836 0.0
C1431 C 0.69442 0.73082 0.73238 0.0
C1432 C 0.73872 0.75265 0.76835 0.0
C1433 C 0.7169 0.74173 0.72268 0.0
C1434 C 0.69389 0.73165 0.76019 0.0
C1435 C 0.74055 0.75193 0.68612 0.0
N1436 N 0.76128 0.76322 0.73218 0.0
C1437 C 0.76211 0.76217 0.70481 0.0
C1438 C 0.71783 0.74158 0.69505 0.0
Eu1439 Eu 0.79737 0.76882 0.76359 0.0
N1440 N 0.76034 0.76372 0.78543 0.0
C1441 C 0.75959 0.76918 0.81298 0.0
C1442 C 0.7156 0.74633 0.80645 0.0
C1443 C 0.73746 0.76018 0.82384 0.0
H1444 H 0.77944 0.76741 0.69649 0.0
H1445 H 0.73724 0.76426 0.84567 0.0
H1446 H 0.67629 0.72384 0.7675 0.0
H1447 H 0.74164 0.75108 0.66464 0.0
H1448 H 0.7756 0.78135 0.82697 0.0
H1449 H 0.90284 0.84671 0.71517 0.0
H1450 H 0.69844 0.73946 0.81492 0.0
H1451 H 0.858 0.84178 0.8629 0.0
H1452 H 0.8637 0.83541 0.73236 0.0
H1453 H 0.89505 0.84965 0.89472 0.0
H1454 H 0.67728 0.72202 0.71856 0.0
H1455 H 0.94193 0.8574 0.74569 0.0
H1456 H 0.9633 0.86278 0.79194 0.0
H1457 H 0.70121 0.73311 0.68041 0.0
H1458 H 0.96119 0.86213 0.84021 0.0
N1459 N 0.87839 0.84047 0.77406 0.0
C1460 C 0.87967 0.84069 0.74698 0.0
C1461 C 0.92434 0.85269 0.75383 0.0
C1462 C 0.92338 0.85195 0.78124 0.0
C1463 C 0.90237 0.84682 0.73663 0.0
C1464 C 0.89992 0.84548 0.79093 0.0
H1465 H 0.93607 0.85661 0.87834 0.0
N1466 N 0.87618 0.83846 0.82713 0.0
C1467 C 0.89641 0.8474 0.87315 0.0
C1468 C 0.89875 0.84431 0.81805 0.0
C1469 C 0.87512 0.84174 0.85463 0.0
C1470 C 0.91947 0.85153 0.86385 0.0
C1471 C 0.92097 0.85065 0.83619 0.0
O1472 O 0.83811 0.86353 0.83337 0.0
O1473 O 0.80102 0.81039 0.79122 0.0
O1474 O 0.806 0.79697 0.7333 0.0
O1475 O 0.83043 0.84226 0.75359 0.0
O1476 O 0.80748 0.84993 0.78317 0.0
O1477 O 0.85804 0.88119 0.80257 0.0
O1478 O 0.80291 0.74348 0.72583 0.0
O1479 O 0.8368 0.79497 0.7689 0.0
O1480 O 0.83171 0.80638 0.82708 0.0
O1481 O 0.80654 0.76167 0.80531 0.0
O1482 O 0.83126 0.75448 0.77543 0.0
O1483 O 0.78161 0.72336 0.75456 0.0
C1484 C 0.7902 0.82841 0.7859 0.0
C1485 C 0.84272 0.91152 0.83489 0.0
C1486 C 0.82669 0.9491 0.82424 0.0
C1487 C 0.83285 0.9239 0.81566 0.0
C1488 C 0.82973 0.96157 0.85201 0.0
C1489 C 0.84553 0.92388 0.86271 0.0
C1490 C 0.83893 0.94879 0.87122 0.0
C1491 C 0.81748 0.82303 0.73222 0.0
C1492 C 0.85089 0.8862 0.82667 0.0
C1493 C 0.94408 0.85711 0.82652 0.0
C1494 C 0.94528 0.85765 0.79911 0.0
C1495 C 0.84765 0.77755 0.77507 0.0
C1496 C 0.80256 0.69703 0.72578 0.0
C1497 C 0.8149 0.6894 0.74699 0.0
C1498 C 0.82585 0.6674 0.74136 0.0
C1499 C 0.82474 0.65302 0.71442 0.0
C1500 C 0.80162 0.6829 0.69879 0.0
C1501 C 0.81276 0.66093 0.69315 0.0
C1502 C 0.81962 0.77974 0.82727 0.0
C1503 C 0.79084 0.71983 0.73147 0.0
H1504 H 0.8305 0.91441 0.79413 0.0
H1505 H 0.8249 0.98108 0.85875 0.0
H1506 H 0.85305 0.91438 0.8778 0.0
H1507 H 0.8412 0.95832 0.89268 0.0
H1508 H 0.81546 0.69997 0.76794 0.0
H1509 H 0.83307 0.63571 0.70995 0.0
H1510 H 0.79221 0.68881 0.68217 0.0
H1511 H 0.81194 0.64992 0.67235 0.0
Eu1512 Eu 0.55283 0.53511 0.52866 0.0
C1513 C 0.63492 0.63666 0.59801 0.0
C1514 C 0.64611 0.668 0.567 0.0
C1515 C 0.65673 0.68611 0.6157 0.0
C1516 C 0.63514 0.64092 0.57166 0.0
C1517 C 0.64609 0.65917 0.6203 0.0
C1518 C 0.65671 0.69051 0.58912 0.0
C1519 C 0.63822 0.62625 0.65004 0.0
N1520 N 0.62544 0.61019 0.60186 0.0
C1521 C 0.62782 0.60457 0.62735 0.0
C1522 C 0.64726 0.65373 0.64653 0.0
Eu1523 Eu 0.61142 0.57369 0.56233 0.0
N1524 N 0.62517 0.61862 0.55059 0.0
C1525 C 0.62598 0.62227 0.52433 0.0
C1526 C 0.64654 0.67167 0.54021 0.0
C1527 C 0.63638 0.64869 0.51881 0.0
H1528 H 0.62155 0.58318 0.63013 0.0
H1529 H 0.63653 0.65128 0.49797 0.0
H1530 H 0.6653 0.71134 0.58585 0.0
H1531 H 0.63964 0.62167 0.67015 0.0
H1532 H 0.61793 0.60533 0.50715 0.0
H1533 H 0.52993 0.47213 0.60668 0.0
H1534 H 0.65477 0.6921 0.53583 0.0
H1535 H 0.54537 0.51177 0.45987 0.0
H1536 H 0.5473 0.51428 0.59032 0.0
H1537 H 0.53326 0.46745 0.42625 0.0
H1538 H 0.66547 0.70357 0.63255 0.0
H1539 H 0.51537 0.42611 0.5747 0.0
H1540 H 0.50871 0.39838 0.52716 0.0
H1541 H 0.65577 0.67044 0.6641 0.0
H1542 H 0.51069 0.39696 0.47848 0.0
N1543 N 0.54148 0.49408 0.54808 0.0
C1544 C 0.54022 0.49514 0.57534 0.0
C1545 C 0.52273 0.44493 0.56704 0.0
C1546 C 0.52438 0.44357 0.53936 0.0
C1547 C 0.53074 0.47084 0.58509 0.0
C1548 C 0.53398 0.46876 0.5303 0.0
H1549 H 0.52032 0.42232 0.44094 0.0
N1550 N 0.54319 0.49253 0.49452 0.0
C1551 C 0.53405 0.46719 0.44772 0.0
C1552 C 0.53513 0.46795 0.50286 0.0
C1553 C 0.54155 0.49238 0.46715 0.0
C1554 C 0.52671 0.44181 0.45608 0.0
C1555 C 0.52663 0.44195 0.48382 0.0
O1556 O 0.52485 0.53667 0.49808 0.0
O1557 O 0.57549 0.58012 0.54609 0.0
O1558 O 0.58478 0.58122 0.59507 0.0
O1559 O 0.54625 0.5531 0.57353 0.0
O1560 O 0.55856 0.57088 0.50644 0.0
O1561 O 0.51464 0.53358 0.53866 0.0
O1562 O 0.64005 0.56233 0.58564 0.0
O1563 O 0.58943 0.52863 0.54389 0.0
O1564 O 0.57815 0.53639 0.49421 0.0
O1565 O 0.61706 0.56179 0.51609 0.0
O1566 O 0.60334 0.53759 0.58459 0.0
O1567 O 0.64768 0.57688 0.54829 0.0
C1568 C 0.57117 0.59107 0.52585 0.0
C1569 C 0.48198 0.52849 0.50172 0.0
C1570 C 0.44268 0.53986 0.50218 0.0
C1571 C 0.46576 0.54122 0.51557 0.0
C1572 C 0.43545 0.52501 0.4751 0.0
C1573 C 0.4746 0.51329 0.4747 0.0
C1574 C 0.45129 0.5115 0.46152 0.0
C1575 C 0.56059 0.56984 0.59593 0.0
C1576 C 0.50775 0.53576 0.51405 0.0
C1577 C 0.51742 0.41698 0.49284 0.0
C1578 C 0.51624 0.4178 0.52053 0.0
C1579 C 0.593 0.5173 0.56414 0.0
C1580 C 0.68173 0.58223 0.58107 0.0
C1581 C 0.69908 0.56748 0.57474 0.0
C1582 C 0.72333 0.57765 0.58783 0.0
C1583 C 0.73053 0.60321 0.60704 0.0
C1584 C 0.6888 0.60798 0.60001 0.0
C1585 C 0.71327 0.61853 0.61285 0.0
C1586 C 0.60205 0.54799 0.4932 0.0
C1587 C 0.65625 0.56842 0.569 0.0
H1588 H 0.47165 0.5536 0.53617 0.0
H1589 H 0.41757 0.52392 0.46454 0.0
H1590 H 0.48712 0.50367 0.46353 0.0
H1591 H 0.44571 0.5002 0.44059 0.0
H1592 H 0.69341 0.54728 0.56044 0.0
H1593 H 0.74933 0.61116 0.61747 0.0
H1594 H 0.67556 0.61961 0.60526 0.0
H1595 H 0.71871 0.63827 0.62764 0.0
Eu1596 Eu 0.11421 0.56519 0.04139 0.0
C1597 C 0.02313 0.51534 0.09845 0.0
C1598 C 0.99806 0.47445 0.06535 0.0
C1599 C 0.99578 0.47673 0.11365 0.0
C1600 C 0.01557 0.50115 0.07153 0.0
C1601 C 0.01294 0.50348 0.11974 0.0
C1602 C 0.98844 0.46222 0.08655 0.0
C1603 C 0.03631 0.54607 0.1515 0.0
N1604 N 0.03989 0.54109 0.10382 0.0
C1605 C 0.04602 0.55695 0.12976 0.0
C1606 C 0.0199 0.5191 0.1465 0.0
Eu1607 Eu 0.05362 0.55852 0.06568 0.0
N1608 N 0.02499 0.51356 0.05137 0.0
C1609 C 0.01704 0.50084 0.02464 0.0
C1610 C 0.99048 0.46093 0.03802 0.0
C1611 C 0.99993 0.47427 0.01759 0.0
H1612 H 0.05857 0.57789 0.13354 0.0
H1613 H 0.99402 0.4641 0.99639 0.0
H1614 H 0.97504 0.4417 0.08217 0.0
H1615 H 0.04143 0.55849 0.17206 0.0
H1616 H 0.02406 0.51074 1.00853 0.0
H1617 H 0.16933 0.66279 0.11005 0.0
H1618 H 0.97716 0.44037 0.03247 0.0
H1619 H 0.11616 0.54407 0.97432 0.0
H1620 H 0.14375 0.61379 0.09811 0.0
H1621 H 0.13061 0.56511 0.9357 0.0
H1622 H 0.98786 0.46722 0.12976 0.0
H1623 H 0.181 0.68892 0.07387 0.0
H1624 H 0.18106 0.68852 0.02407 0.0
H1625 H 0.01238 0.51075 0.16338 0.0
H1626 H 0.17069 0.66193 0.97666 0.0
N1627 N 0.14001 0.61195 0.0553 0.0
C1628 C 0.14846 0.62474 0.08195 0.0
C1629 C 0.16962 0.6673 0.06842 0.0
C1630 C 0.16218 0.65358 0.04113 0.0
C1631 C 0.16314 0.65262 0.08889 0.0
C1632 C 0.14737 0.6254 0.03509 0.0
H1633 H 0.15229 0.61588 0.9436 0.0
N1634 N 0.12845 0.58287 1.00332 0.0
C1635 C 0.13359 0.57814 0.95597 0.0
C1636 C 0.1415 0.61042 1.00834 0.0
C1637 C 0.12535 0.56633 0.97779 0.0
C1638 C 0.14579 0.60681 0.96052 0.0
C1639 C 0.1503 0.62322 0.987 0.0
O1640 O 0.12984 0.52912 0.03352 0.0
O1641 O 0.07985 0.53421 0.04867 0.0
O1642 O 0.07598 0.54159 0.09375 0.0
O1643 O 0.11348 0.56962 0.08701 0.0
O1644 O 0.0939 0.52405 0.01251 0.0
O1645 O 0.15246 0.56835 0.05772 0.0
O1646 O 0.03858 0.59271 0.08287 0.0
O1647 O 0.08693 0.58859 0.05566 0.0
O1648 O 0.09049 0.57461 1.00877 0.0
O1649 O 0.0506 0.5574 0.02044 0.0
O1650 O 0.07534 0.60125 0.09228 0.0
O1651 O 0.01725 0.56085 0.04836 0.0
C1652 C 0.07693 0.51496 0.02728 0.0
C1653 C 0.17295 0.53839 0.03232 0.0
C1654 C 0.20833 0.51857 0.02815 0.0
C1655 C 0.18914 0.52443 0.04278 0.0
C1656 C 0.21111 0.52683 1.00314 0.0
C1657 C 0.17663 0.54712 1.00775 0.0
C1658 C 0.19543 0.54116 0.99313 0.0
C1659 C 0.10011 0.55201 0.10016 0.0
C1660 C 0.1517 0.54267 0.04638 0.0
C1661 C 0.16398 0.65167 0.99282 0.0
C1662 C 0.16988 0.66682 0.01982 0.0
C1663 C 0.09047 0.60944 0.0754 0.0
C1664 C 0.99538 0.58466 0.07912 0.0
C1665 C 0.97892 0.5979 0.06831 0.0
C1666 C 0.95921 0.60305 0.08233 0.0
C1667 C 0.95643 0.59482 0.10745 0.0
C1668 C 0.99166 0.57576 0.10364 0.0
C1669 C 0.97236 0.58094 0.11777 0.0
C1670 C 0.06606 0.56686 1.00361 0.0
C1671 C 0.01788 0.58343 0.06638 0.0
H1672 H 0.18657 0.51777 0.06189 0.0
H1673 H 0.2258 0.52269 0.99158 0.0
H1674 H 0.16501 0.55852 0.9998 0.0
H1675 H 0.19791 0.54777 0.97403 0.0
H1676 H 0.9817 0.60442 0.04917 0.0
H1677 H 0.9421 0.59934 0.11937 0.0
H1678 H 1.00398 0.56554 0.11232 0.0
H1679 H 0.97 0.57463 0.13702 0.0
H1680 H 0.06538 0.19596 0.95554 0.0
H1681 H 0.02932 0.22691 0.02254 0.0
H1682 H 0.03606 0.18978 0.04526 0.0
H1683 H 0.04959 0.14565 0.04485 0.0
H1684 H 0.08425 0.1145 0.97696 0.0
H1685 H 0.08153 0.15436 0.9568 0.0
C1686 C 0.05911 0.19487 0.97525 0.0
C1687 C 0.04664 0.21473 0.987 0.0
C1688 C 0.0634 0.1734 0.98858 0.0
C1689 C 0.03896 0.21243 0.01271 0.0
C1690 C 0.04287 0.19099 0.02584 0.0
C1691 C 0.05777 0.14835 0.02637 0.0
C1692 C 0.06902 0.1276 0.01378 0.0
C1693 C 0.05498 0.17113 0.014 0.0
C1694 C 0.07729 0.13074 0.98846 0.0
C1695 C 0.07511 0.15338 0.97645 0.0
H1696 H 0.21753 0.87283 0.1614 0.0
H1697 H 0.16487 0.81139 0.1928 0.0
H1698 H 0.19846 0.80173 0.21916 0.0
H1699 H 0.24303 0.81057 0.23451 0.0
H1700 H 0.29679 0.87063 0.20337 0.0
H1701 H 0.26313 0.88148 0.1769 0.0
C1702 C 0.21342 0.85752 0.17416 0.0
C1703 C 0.18829 0.84344 0.17533 0.0
C1704 C 0.23323 0.85196 0.18984 0.0
C1705 C 0.18371 0.82333 0.19187 0.0
C1706 C 0.20304 0.81756 0.20699 0.0
C1707 C 0.24737 0.82615 0.22202 0.0
C1708 C 0.27248 0.83984 0.22108 0.0
C1709 C 0.22787 0.83185 0.20641 0.0
C1710 C 0.27768 0.85967 0.20443 0.0
C1711 C 0.25836 0.86587 0.18925 0.0
H1712 H 0.54096 0.88504 0.4573 0.0
H1713 H 0.56273 0.86293 0.53243 0.0
H1714 H 0.57251 0.91254 0.55581 0.0
H1715 H 0.57788 0.96296 0.55422 0.0
H1716 H 0.55847 0.9848 0.47842 0.0
H1717 H 0.54456 0.93475 0.45617 0.0
C1718 C 0.54755 0.89081 0.47891 0.0
C1719 C 0.55097 0.86973 0.49296 0.0
C1720 C 0.55352 0.91957 0.49216 0.0
C1721 C 0.55983 0.87826 0.52092 0.0
C1722 C 0.56547 0.90678 0.53433 0.0
C1723 C 0.56995 0.95668 0.53298 0.0
C1724 C 0.56835 0.97778 0.51829 0.0
C1725 C 0.56272 0.92771 0.52011 0.0
C1726 C 0.55896 0.9692 0.49053 0.0
C1727 C 0.55134 0.9405 0.47772 0.0
H1728 H 0.56923 0.32845 0.71747 0.0
H1729 H 0.54469 0.31336 0.63157 0.0
H1730 H 0.50143 0.3048 0.64051 0.0
H1731 H 0.47046 0.29762 0.67238 0.0
H1732 H 0.49441 0.31541 0.75855 0.0
H1733 H 0.53805 0.32777 0.75012 0.0
C1734 C 0.55437 0.32376 0.70084 0.0
C1735 C 0.56001 0.32138 0.67391 0.0
C1736 C 0.52951 0.31942 0.70621 0.0
C1737 C 0.54073 0.31549 0.65247 0.0
C1738 C 0.51601 0.31045 0.65755 0.0
C1739 C 0.48529 0.30464 0.6893 0.0
C1740 C 0.47938 0.30532 0.71599 0.0
C1741 C 0.51017 0.3118 0.68427 0.0
C1742 C 0.49861 0.31472 0.73783 0.0
C1743 C 0.52352 0.32157 0.73298 0.0
H1744 H 0.0128 0.79323 0.5772 0.0
H1745 H 0.0301 0.85597 0.65204 0.0
H1746 H 0.04866 0.89223 0.62757 0.0
H1747 H 0.06463 0.90423 0.58615 0.0
H1748 H 0.04658 0.84161 0.51101 0.0
H1749 H 0.02391 0.80673 0.5346 0.0
C1750 C 0.02007 0.81501 0.58795 0.0
C1751 C 0.02025 0.82208 0.61622 0.0
C1752 C 0.03106 0.83545 0.5739 0.0
C1753 C 0.02958 0.85023 0.63014 0.0
C1754 C 0.04047 0.87083 0.61624 0.0
C1755 C 0.05531 0.88311 0.57476 0.0
C1756 C 0.05752 0.87534 0.54691 0.0
C1757 C 0.04205 0.8634 0.5883 0.0
C1758 C 0.04564 0.84783 0.53257 0.0
C1759 C 0.03249 0.82801 0.54597 0.0
H1760 H 0.55167 0.82008 0.85071 0.0
H1761 H 0.59541 0.90418 0.85042 0.0
H1762 H 0.5598 0.91364 0.82723 0.0
H1763 H 0.51702 0.89729 0.80477 0.0
H1764 H 0.47382 0.81234 0.80253 0.0
H1765 H 0.50818 0.80421 0.82945 0.0
C1766 C 0.55334 0.84044 0.84556 0.0
C1767 C 0.57619 0.86118 0.85175 0.0
C1768 C 0.53289 0.84565 0.83181 0.0
C1769 C 0.5781 0.88763 0.84531 0.0
C1770 C 0.55775 0.89314 0.83216 0.0
C1771 C 0.5152 0.87695 0.81001 0.0
C1772 C 0.49302 0.85546 0.80147 0.0
C1773 C 0.53521 0.87213 0.82484 0.0
C1774 C 0.49068 0.82939 0.80902 0.0
C1775 C 0.51037 0.8246 0.82424 0.0
H1776 H 0.5077 0.19505 0.10022 0.0
H1777 H 0.48252 0.1454 0.15915 0.0
H1778 H 0.50189 0.10951 0.13822 0.0
H1779 H 0.52983 0.09514 0.10626 0.0
H1780 H 0.5584 0.14814 0.05127 0.0
H1781 H 0.53434 0.18046 0.06805 0.0
C1782 C 0.50567 0.17595 0.10798 0.0
C1783 C 0.49349 0.17268 0.13103 0.0
C1784 C 0.51822 0.15659 0.09713 0.0
C1785 C 0.49154 0.1481 0.14117 0.0
C1786 C 0.50298 0.12789 0.12954 0.0
C1787 C 0.53091 0.11397 0.09827 0.0
C1788 C 0.54563 0.1194 0.07754 0.0
C1789 C 0.51718 0.13252 0.10822 0.0
C1790 C 0.54676 0.14346 0.0669 0.0
C1791 C 0.53304 0.16188 0.07649 0.0
H1792 H 0.18336 0.31138 0.30675 0.0
H1793 H 0.22524 0.34603 0.38653 0.0
H1794 H 0.26409 0.34927 0.36676 0.0
H1795 H 0.28581 0.34021 0.32727 0.0
H1796 H 0.24486 0.30849 0.24707 0.0
H1797 H 0.20556 0.30637 0.26642 0.0
C1798 C 0.20102 0.31971 0.31975 0.0
C1799 C 0.20159 0.32822 0.34804 0.0
C1800 C 0.22321 0.32216 0.30817 0.0
C1801 C 0.22447 0.33932 0.3647 0.0
C1802 C 0.24661 0.3412 0.35344 0.0
C1803 C 0.26824 0.33328 0.31409 0.0
C1804 C 0.26777 0.32391 0.28607 0.0
C1805 C 0.24614 0.33249 0.3253 0.0
C1806 C 0.24526 0.3154 0.26882 0.0
C1807 C 0.22295 0.31417 0.27988 0.0
H1808 H 0.97528 0.08075 0.17693 0.0
H1809 H 0.03626 0.07505 0.23078 0.0
H1810 H 0.06138 0.07323 0.1931 0.0
H1811 H 0.06708 0.07251 0.14331 0.0
H1812 H 1.00497 0.07515 0.08917 0.0
H1813 H 0.9806 0.07898 0.12727 0.0
C1814 C 0.99412 0.07931 0.18078 0.0
C1815 C 1.00327 0.07842 0.208 0.0
C1816 C 1.00889 0.07769 0.1582 0.0
C1817 C 0.02797 0.07604 0.21102 0.0
C1818 C 0.04265 0.07495 0.18904 0.0
C1819 C 0.04828 0.07414 0.13963 0.0
C1820 C 0.03857 0.07376 0.11221 0.0
C1821 C 0.03352 0.07571 0.16228 0.0
C1822 C 0.01369 0.07542 0.10916 0.0
C1823 C 0.99944 0.07762 0.13135 0.0
H1824 H 0.30625 0.68881 0.45377 0.0
H1825 H 0.3063 0.75322 0.52378 0.0
H1826 H 0.2913 0.78036 0.49445 0.0
H1827 H 0.2778 0.78566 0.44915 0.0
H1828 H 0.27745 0.72157 0.37903 0.0
H1829 H 0.29277 0.69418 0.40827 0.0
C1830 C 0.30337 0.709 0.46252 0.0
C1831 C 0.30741 0.71906 0.49075 0.0
C1832 C 0.29428 0.72426 0.44565 0.0
C1833 C 0.30345 0.74513 0.50197 0.0
C1834 C 0.29465 0.76056 0.4853 0.0
C1835 C 0.28048 0.76535 0.44044 0.0
C1836 C 0.27631 0.75535 0.41229 0.0
C1837 C 0.28966 0.75011 0.4572 0.0
C1838 C 0.28042 0.7294 0.40088 0.0
C1839 C 0.28936 0.71392 0.41748 0.0
H1840 H 0.6665 1.01217 0.66679 0.0
H1841 H 0.6569 0.08392 0.72253 0.0
H1842 H 0.62221 0.08565 0.69123 0.0
H1843 H 0.60164 0.07326 0.64409 0.0
H1844 H 0.6129 1.00296 0.58807 0.0
H1845 H 0.63998 0.99387 0.62345 0.0
C1846 C 0.65644 0.02778 0.67231 0.0
C1847 C 0.66455 0.04844 0.69627 0.0
C1848 C 0.63709 0.02903 0.65409 0.0
C1849 C 0.65109 0.0681 0.7038 0.0
C1850 C 0.63139 0.06919 0.68592 0.0
C1851 C 0.60932 0.05535 0.64021 0.0
C1852 C 0.6058 0.03883 0.61401 0.0
C1853 C 0.62521 0.05075 0.66042 0.0
C1854 C 0.61563 1.01574 0.60845 0.0
C1855 C 0.63117 1.01069 0.62853 0.0
H1856 H 0.3417 0.38006 0.94438 0.0
H1857 H 0.33947 0.29893 0.96232 0.0
H1858 H 0.33461 0.27817 0.91364 0.0
H1859 H 0.32988 0.28265 0.86553 0.0
H1860 H 0.33375 0.36393 0.84743 0.0
H1861 H 0.3394 0.38506 0.89621 0.0
C1862 C 0.33994 0.35779 0.93762 0.0
C1863 C 0.34053 0.34101 0.95713 0.0
C1864 C 0.33778 0.34606 0.90943 0.0
C1865 C 0.33885 0.31232 0.94789 0.0
C1866 C 0.33614 0.30042 0.91999 0.0
C1867 C 0.33238 0.30507 0.87236 0.0
C1868 C 0.33205 0.32184 0.85289 0.0
C1869 C 0.33553 0.31704 0.90053 0.0
C1870 C 0.33464 0.35073 0.862 0.0
C1871 C 0.33763 0.36275 0.88992 0.0
H1872 H 0.99233 0.05781 0.39134 0.0
H1873 H 0.05695 0.06416 0.34921 0.0
H1874 H 0.0822 0.06497 0.39137 0.0
H1875 H 0.08708 0.06528 0.44159 0.0
H1876 H 0.02207 0.05497 0.48311 0.0
H1877 H 0.99658 0.05387 0.44087 0.0
C1878 C 1.01196 0.05942 0.39123 0.0
C1879 C 0.0224 0.06141 0.36626 0.0
C1880 C 0.02662 0.05887 0.41597 0.0
C1881 C 0.04796 0.06281 0.3674 0.0
C1882 C 0.06259 0.06324 0.39183 0.0
C1883 C 0.06724 0.06227 0.44144 0.0
C1884 C 0.05685 0.05969 0.46628 0.0
C1885 C 0.05232 0.06138 0.41645 0.0
C1886 C 0.03097 0.05642 0.46488 0.0
C1887 C 0.01626 0.05604 0.44044 0.0
H1888 H 0.32859 0.72706 0.59196 0.0
H1889 H 0.34854 0.67131 0.63985 0.0
H1890 H 0.34477 0.70267 0.68143 0.0
H1891 H 0.33081 0.74147 0.7026 0.0
H1892 H 0.31028 0.79856 0.65708 0.0
H1893 H 0.31854 0.77028 0.61496 0.0
C1894 C 0.33314 0.72257 0.61167 0.0
C1895 C 0.33912 0.69732 0.61334 0.0
C1896 C 0.32997 0.74016 0.63528 0.0
C1897 C 0.34428 0.69093 0.63855 0.0
C1898 C 0.34187 0.70865 0.66213 0.0
C1899 C 0.32828 0.74805 0.68367 0.0
C1900 C 0.31957 0.77162 0.68269 0.0
C1901 C 0.33377 0.73254 0.66049 0.0
C1902 C 0.31666 0.78009 0.65798 0.0
C1903 C 0.3216 0.76415 0.63416 0.0
H1904 H 0.68067 0.03741 0.81999 0.0
H1905 H 0.72669 0.1225 0.8483 0.0
H1906 H 0.69926 0.13131 0.88242 0.0
H1907 H 0.65861 0.11716 0.89842 0.0
H1908 H 0.61124 0.03305 0.86843 0.0
H1909 H 0.64245 0.02134 0.84019 0.0
C1910 C 0.68514 0.05744 0.83442 0.0
C1911 C 0.70549 0.0793 0.83197 0.0
C1912 C 0.66852 0.06278 0.85276 0.0
C1913 C 0.71105 0.10543 0.85019 0.0
C1914 C 0.69522 0.11057 0.86933 0.0
C1915 C 0.65528 0.09636 0.88558 0.0
C1916 C 0.63267 0.0762 0.88444 0.0
C1917 C 0.67325 0.08989 0.86973 0.0
C1918 C 0.62849 0.04894 0.86876 0.0
C1919 C 0.64633 0.04224 0.85291 0.0
H1920 H 0.33467 0.3276 0.10289 0.0
H1921 H 0.32607 0.41021 0.13416 0.0
H1922 H 0.31811 0.39795 0.17761 0.0
H1923 H 0.31566 0.36474 0.20838 0.0
H1924 H 0.32279 0.28167 0.17729 0.0
H1925 H 0.32918 0.29306 0.13287 0.0
C1926 C 0.33083 0.34281 0.1191 0.0
C1927 C 0.3314 0.36996 0.11505 0.0
C1928 C 0.32609 0.33561 0.14447 0.0
C1929 C 0.3262 0.38926 0.1365 0.0
C1930 C 0.32159 0.3823 0.16157 0.0
C1931 C 0.31837 0.3491 0.19177 0.0
C1932 C 0.31845 0.3223 0.19612 0.0
C1933 C 0.32188 0.35573 0.16602 0.0
C1934 C 0.32207 0.30228 0.17437 0.0
C1935 C 0.32595 0.30885 0.14893 0.0
H1936 H 0.28161 1.0128 0.99751 0.0
H1937 H 0.32695 0.03738 0.07562 0.0
H1938 H 0.29763 0.06126 0.09528 0.0
H1939 H 0.26009 0.07672 0.09 0.0
H1940 H 0.21573 0.05522 1.01147 0.0
H1941 H 0.24353 0.02851 0.99224 0.0
C1942 C 0.28503 0.02362 0.01873 0.0
C1943 C 0.30655 0.02408 0.03497 0.0
C1944 C 0.26837 0.03791 0.0298 0.0
C1945 C 0.31078 0.03761 0.06258 0.0
C1946 C 0.29398 0.05108 0.07389 0.0
C1947 C 0.25673 0.06655 0.06859 0.0
C1948 C 0.23616 0.06824 0.05212 0.0
C1949 C 0.27298 0.05179 0.05759 0.0
C1950 C 0.23152 0.05419 0.02458 0.0
C1951 C 0.24742 0.039 0.01355 0.0
H1952 H 0.71946 0.67609 1.00298 0.0
H1953 H 0.76077 0.61814 0.01993 0.0
H1954 H 0.72228 0.58341 0.02255 0.0
H1955 H 0.67698 0.57114 0.02457 0.0
H1956 H 0.63617 0.62982 1.00861 0.0
H1957 H 0.67411 0.6622 1.00092 0.0
C1958 C 0.72005 0.65569 1.00675 0.0
C1959 C 0.74309 0.64999 1.01141 0.0
C1960 C 0.69782 0.63585 1.00868 0.0
C1961 C 0.74337 0.62332 0.01631 0.0
C1962 C 0.72132 0.60337 0.01794 0.0
C1963 C 0.67635 0.59074 0.01888 0.0
C1964 C 0.65379 0.59808 0.01739 0.0
C1965 C 0.69844 0.60964 0.01483 0.0
C1966 C 0.65335 0.62376 1.01025 0.0
C1967 C 0.67506 0.64234 1.0058 0.0
H1968 H 0.77841 0.44931 0.23986 0.0
H1969 H 0.7364 0.44362 0.30793 0.0
H1970 H 0.75211 0.40475 0.31674 0.0
H1971 H 0.77785 0.37121 0.30641 0.0
H1972 H 0.81842 0.37315 0.23729 0.0
H1973 H 0.80406 0.41358 0.22849 0.0
C1974 C 0.77258 0.43975 0.25672 0.0
C1975 C 0.75572 0.45076 0.27321 0.0
C1976 C 0.78189 0.41621 0.26189 0.0
C1977 C 0.74902 0.43684 0.29466 0.0
C1978 C 0.75818 0.41415 0.29985 0.0
C1979 C 0.78382 0.38031 0.28932 0.0
C1980 C 0.80015 0.36843 0.27309 0.0
C1981 C 0.77468 0.4035 0.28381 0.0
C1982 C 0.80667 0.38126 0.25089 0.0
C1983 C 0.7981 0.40466 0.24567 0.0
H1984 H 0.9355 0.46679 0.50603 0.0
H1985 H 0.91923 0.54502 0.53893 0.0
H1986 H 0.96352 0.56933 0.54692 0.0
H1987 H 1.00634 0.56615 0.5519 0.0
H1988 H 0.02247 0.48737 0.52279 0.0
H1989 H 0.97849 0.46508 0.506 0.0
C1990 C 0.94159 0.48925 0.51452 0.0
C1991 C 0.92424 0.50397 0.52245 0.0
C1992 C 0.96697 0.50281 0.5199 0.0
C1993 C 0.93232 0.53315 0.53302 0.0
C1994 C 0.95761 0.54704 0.53768 0.0
C1995 C 1.00028 0.54448 0.54087 0.0
C1996 C 0.0174 0.52856 0.53742 0.0
C1997 C 0.97505 0.5318 0.53224 0.0
C1998 C 1.00943 0.50006 0.52458 0.0
C1999 C 0.98438 0.48734 0.5153 0.0
H2000 H 0.37542 0.1096 0.33656 0.0
H2001 H 0.42234 0.10626 0.27284 0.0
H2002 H 0.39539 0.1244 0.2449 0.0
H2003 H 0.35536 0.13425 0.23636 0.0
H2004 H 0.30856 0.13875 0.30015 0.0
H2005 H 0.33862 0.1271 0.33079 0.0
C2006 C 0.38024 0.11429 0.31715 0.0
C2007 C 0.40065 0.10721 0.30664 0.0
C2008 C 0.36433 0.12387 0.30105 0.0
C2009 C 0.40687 0.11249 0.28133 0.0
C2010 C 0.39123 0.1222 0.26519 0.0
C2011 C 0.35184 0.13246 0.25694 0.0
C2012 C 0.32974 0.13609 0.26597 0.0
C2013 C 0.36934 0.12662 0.27438 0.0
C2014 C 0.32536 0.13499 0.29284 0.0
C2015 C 0.34255 0.1287 0.31032 0.0
H2016 H 0.35419 0.11554 0.53587 0.0
H2017 H 0.4021 0.18785 0.51406 0.0
H2018 H 0.43821 0.1701 0.52301 0.0
H2019 H 0.45642 0.13585 0.54142 0.0
H2020 H 0.40747 0.06448 0.56363 0.0
H2021 H 0.37143 0.07982 0.54984 0.0
C2022 C 0.37248 0.12732 0.53276 0.0
C2023 C 0.37549 0.15305 0.52451 0.0
C2024 C 0.39297 0.11711 0.53807 0.0
C2025 C 0.39929 0.16793 0.52036 0.0
C2026 C 0.41994 0.15783 0.52559 0.0
C2027 C 0.43778 0.1234 0.54255 0.0
C2028 C 0.43447 0.09913 0.55358 0.0
C2029 C 0.41706 0.13268 0.53499 0.0
C2030 C 0.41034 0.08326 0.55528 0.0
C2031 C 0.38978 0.09208 0.54751 0.0
H2032 H 0.77074 0.6109 0.26315 0.0
H2033 H 0.73082 0.62841 0.3313 0.0
H2034 H 0.74758 0.67877 0.33468 0.0
H2035 H 0.77281 0.71939 0.3179 0.0
H2036 H 0.81365 0.70252 0.25054 0.0
H2037 H 0.79751 0.6519 0.24741 0.0
C2038 C 0.76602 0.62561 0.27911 0.0
C2039 C 0.74932 0.61491 0.29706 0.0
C2040 C 0.77579 0.65543 0.28098 0.0
C2041 C 0.74346 0.63518 0.31711 0.0
C2042 C 0.75304 0.66439 0.31905 0.0
C2043 C 0.77819 0.70473 0.30245 0.0
C2044 C 0.79469 0.71557 0.28451 0.0
C2045 C 0.76901 0.675 0.30094 0.0
C2046 C 0.80126 0.69552 0.26488 0.0
C2047 C 0.79195 0.6662 0.26303 0.0
H2048 H 0.87876 0.48317 0.82716 0.0
H2049 H 0.95388 0.4762 0.83782 0.0
H2050 H 0.93876 0.42519 0.82108 0.0
H2051 H 0.9048 0.38374 0.799 0.0
H2052 H 0.83065 0.39169 0.78375 0.0
H2053 H 0.84473 0.44168 0.80637 0.0
C2054 C 0.89178 0.47043 0.82639 0.0
C2055 C 0.91738 0.48324 0.83368 0.0
C2056 C 0.88315 0.44159 0.81542 0.0
C2057 C 0.93409 0.46662 0.83229 0.0
C2058 C 0.9255 0.43761 0.82253 0.0
C2059 C 0.89183 0.39656 0.801 0.0
C2060 C 0.86677 0.38449 0.7908 0.0
C2061 C 0.90022 0.4251 0.81326 0.0
C2062 C 0.84997 0.4009 0.79224 0.0
C2063 C 0.85801 0.42928 0.80509 0.0
H2064 H 0.09256 0.91655 0.11017 0.0
H2065 H 0.13264 0.90107 0.04187 0.0
H2066 H 0.12288 0.94035 0.02511 0.0
H2067 H 0.10452 0.98196 0.03078 0.0
H2068 H 0.0676 0.99872 0.10143 0.0
H2069 H 0.07402 0.95696 0.11545 0.0
C2070 C 0.09909 0.9215 0.09148 0.0
C2071 C 0.11346 0.9051 0.07753 0.0
C2072 C 0.09363 0.94479 0.08192 0.0
C2073 C 0.12165 0.91274 0.0534 0.0
C2074 C 0.11598 0.93547 0.04364 0.0
C2075 C 0.09716 0.97601 0.04875 0.0
C2076 C 0.08432 0.99342 0.06419 0.0
C2077 C 0.10204 0.95198 0.05772 0.0
C2078 C 0.0765 0.9856 0.08831 0.0
C2079 C 0.0805 0.96166 0.09667 0.0
H2080 H 0.96936 0.25879 0.86222 0.0
H2081 H 0.959 0.30997 0.93688 0.0
H2082 H 0.92423 0.32076 0.91319 0.0
H2083 H 0.89651 0.31665 0.87066 0.0
H2084 H 0.90486 0.26208 0.79752 0.0
H2085 H 0.94013 0.2524 0.8206 0.0
C2086 C 0.95947 0.27217 0.87345 0.0
C2087 C 0.96721 0.28335 0.90162 0.0
C2088 C 0.93898 0.27822 0.85964 0.0
C2089 C 0.95376 0.30072 0.91539 0.0
C2090 C 0.93373 0.30708 0.90174 0.0
C2091 C 0.90594 0.30258 0.85969 0.0
C2092 C 0.89821 0.29122 0.83147 0.0
C2093 C 0.9261 0.29607 0.87377 0.0
C2094 C 0.91084 0.27266 0.81834 0.0
C2095 C 0.93098 0.26658 0.8319 0.0
H2096 H 0.6193 0.22836 0.62521 0.0
H2097 H 0.62111 0.25158 0.54703 0.0
H2098 H 0.61198 0.20158 0.52456 0.0
H2099 H 0.6005 0.15051 0.52711 0.0
H2100 H 0.60025 0.12863 0.6058 0.0
H2101 H 0.61176 0.17862 0.62796 0.0
C2102 C 0.61777 0.22271 0.6032 0.0
C2103 C 0.62058 0.24418 0.58795 0.0
C2104 C 0.6128 0.19391 0.59047 0.0
C2105 C 0.61891 0.2359 0.55945 0.0
C2106 C 0.61364 0.20717 0.54657 0.0
C2107 C 0.60352 0.15678 0.54914 0.0
C2108 C 0.59995 0.13566 0.56478 0.0
C2109 C 0.61019 0.18588 0.56183 0.0
C2110 C 0.60344 0.14423 0.59327 0.0
C2111 C 0.6098 0.17291 0.60594 0.0
H2112 H 0.59225 0.75452 0.37081 0.0
H2113 H 0.6163 0.83471 0.42724 0.0
H2114 H 0.65447 0.8471 0.40639 0.0
H2115 H 0.6801 0.83641 0.37035 0.0
H2116 H 0.65746 0.75597 0.31455 0.0
H2117 H 0.62014 0.74211 0.33693 0.0
C2118 C 0.60592 0.77464 0.37843 0.0
C2119 C 0.60138 0.7939 0.40027 0.0
C2120 C 0.62822 0.78146 0.36658 0.0
C2121 C 0.61936 0.81971 0.4103 0.0
C2122 C 0.64121 0.82678 0.39843 0.0
C2123 C 0.66725 0.81561 0.36358 0.0
C2124 C 0.67161 0.79708 0.34109 0.0
C2125 C 0.64578 0.80797 0.37642 0.0
C2126 C 0.65465 0.77036 0.33213 0.0
C2127 C 0.63319 0.76259 0.34476 0.0
H2128 H 0.09299 0.25939 0.4217 0.0
H2129 H 0.16781 0.28726 0.4632 0.0
H2130 H 0.15521 0.25939 0.49735 0.0
H2131 H 0.12197 0.23095 0.51765 0.0
H2132 H 0.04641 0.20724 0.47888 0.0
H2133 H 0.05998 0.22976 0.44127 0.0
C2134 C 0.1066 0.25858 0.43779 0.0
C2135 C 0.13131 0.27472 0.43986 0.0
C2136 C 0.09889 0.24396 0.45811 0.0
C2137 C 0.14876 0.27449 0.46117 0.0
C2138 C 0.14152 0.25888 0.48078 0.0
C2139 C 0.10858 0.23101 0.50098 0.0
C2140 C 0.08328 0.21833 0.50102 0.0
C2141 C 0.11649 0.24431 0.4799 0.0
C2142 C 0.06591 0.21774 0.47933 0.0
C2143 C 0.0737 0.23029 0.45782 0.0
H2144 H 0.5931 0.28538 0.23538 0.0
H2145 H 0.57442 0.2088 0.17363 0.0
H2146 H 0.61231 0.19802 0.18938 0.0
H2147 H 0.65028 0.20982 0.22111 0.0
H2148 H 0.67154 0.28798 0.28052 0.0
H2149 H 0.63323 0.29904 0.26528 0.0
C2150 C 0.59753 0.26646 0.22546 0.0
C2151 C 0.58121 0.2478 0.20361 0.0
C2152 C 0.61964 0.2607 0.23424 0.0
C2153 C 0.58699 0.22348 0.19046 0.0
C2154 C 0.60851 0.21723 0.1995 0.0
C2155 C 0.64629 0.22911 0.23081 0.0
C2156 C 0.66303 0.24777 0.25221 0.0
C2157 C 0.62482 0.23555 0.22147 0.0
C2158 C 0.65842 0.27319 0.26424 0.0
C2159 C 0.63666 0.27949 0.25551 0.0
H2160 H 0.61186 0.91149 0.93614 0.0
H2161 H 0.67791 0.93288 0.99426 0.0
H2162 H 0.66257 0.96892 0.02241 0.0
H2163 H 0.62992 0.99389 0.02992 0.0
H2164 H 0.56452 0.97047 0.97065 0.0
H2165 H 0.58006 0.93501 0.94355 0.0
C2166 C 0.62314 0.924 0.9549 0.0
C2167 C 0.64602 0.91953 0.96312 0.0
C2168 C 0.61411 0.94392 0.97091 0.0
C2169 C 0.66021 0.93597 0.98754 0.0
C2170 C 0.6514 0.95641 1.00363 0.0
C2171 C 0.61891 0.98051 1.01141 0.0
C2172 C 0.59592 0.98437 1.00247 0.0
C2173 C 0.62822 0.96034 0.99558 0.0
C2174 C 0.58212 0.96771 0.97803 0.0
C2175 C 0.59106 0.94753 0.96243 0.0
H2176 H 0.95949 0.77976 0.76836 0.0
H2177 H 0.93753 0.78114 0.68478 0.0
H2178 H 0.89554 0.78054 0.69493 0.0
H2179 H 0.8647 0.77785 0.72712 0.0
H2180 H 0.88632 0.77712 0.81068 0.0
H2181 H 0.92896 0.77889 0.80102 0.0
C2182 C 0.94556 0.78014 0.75243 0.0
C2183 C 0.95155 0.78037 0.72585 0.0
C2184 C 0.92143 0.77954 0.75834 0.0
C2185 C 0.9334 0.78107 0.70543 0.0
C2186 C 0.90933 0.78045 0.71113 0.0
C2187 C 0.87888 0.77811 0.74312 0.0
C2188 C 0.8729 0.77785 0.76958 0.0
C2189 C 0.9031 0.7793 0.7374 0.0
C2190 C 0.89089 0.77753 0.79022 0.0
C2191 C 0.91514 0.77864 0.7847 0.0
H2192 H 0.15947 0.02608 0.88417 0.0
H2193 H 0.12293 0.0812 0.85199 0.0
H2194 H 0.10194 0.08676 0.89271 0.0
H2195 H 0.09289 0.07626 0.93871 0.0
H2196 H 0.13206 0.02457 0.97281 0.0
H2197 H 0.15197 1.01745 0.93129 0.0
C2198 C 0.14687 0.03929 0.8858 0.0
C2199 C 0.14307 0.05288 0.86373 0.0
C2200 C 0.13483 0.04306 0.9103 0.0
C2201 C 0.12661 0.07009 0.86762 0.0
C2202 C 0.11438 0.07336 0.89132 0.0
C2203 C 0.10576 0.06337 0.93725 0.0
C2204 C 0.11044 0.0509 0.95984 0.0
C2205 C 0.11813 0.05997 0.91299 0.0
C2206 C 0.1277 0.03467 0.95659 0.0
C2207 C 0.13925 0.03051 0.93246 0.0
H2208 H 0.85645 0.44967 0.61804 0.0
H2209 H 0.83248 0.37087 0.55906 0.0
H2210 H 0.84283 0.34594 0.59351 0.0
H2211 H 0.86654 0.34839 0.63722 0.0
H2212 H 0.89529 0.42811 0.69371 0.0
H2213 H 0.87505 0.45109 0.6635 0.0
C2214 C 0.85293 0.42696 0.61288 0.0
C2215 C 0.84446 0.41222 0.586 0.0
C2216 C 0.86017 0.4131 0.63224 0.0
C2217 C 0.83947 0.38273 0.57961 0.0
C2218 C 0.8455 0.36849 0.59922 0.0
C2219 C 0.8678 0.37066 0.64301 0.0
C2220 C 0.88245 0.3869 0.66711 0.0
C2221 C 0.85714 0.38374 0.62509 0.0
C2222 C 0.88425 0.41562 0.67486 0.0
C2223 C 0.87272 0.42862 0.65769 0.0
H2224 H 0.54053 0.09438 0.38321 0.0
H2225 H 0.47212 0.08742 0.41884 0.0
H2226 H 0.49273 0.08329 0.46158 0.0
H2227 H 0.52749 0.07252 0.48491 0.0
H2228 H 0.5955 0.07763 0.44905 0.0
H2229 H 0.5777 0.09147 0.40986 0.0
C2230 C 0.53042 0.09295 0.40069 0.0
C2231 C 0.50488 0.09061 0.39795 0.0
C2232 C 0.54205 0.08932 0.42462 0.0
C2233 C 0.49187 0.08923 0.42061 0.0
C2234 C 0.50351 0.08639 0.44486 0.0
C2235 C 0.53843 0.07668 0.4685 0.0
C2236 C 0.56236 0.0729 0.46905 0.0
C2237 C 0.52812 0.08475 0.4464 0.0
C2238 C 0.57682 0.07961 0.4485 0.0
C2239 C 0.56668 0.08769 0.42625 0.0
H2240 H 0.8071 0.725 0.12232 0.0
H2241 H 0.82258 0.80517 0.09858 0.0
H2242 H 0.82703 0.82925 0.14661 0.0
H2243 H 0.82924 0.82731 0.1959 0.0
H2244 H 0.81389 0.74647 0.2182 0.0
H2245 H 0.80633 0.72283 0.17027 0.0
C2246 C 0.81137 0.74778 0.12755 0.0
C2247 C 0.81481 0.76328 0.10682 0.0
C2248 C 0.81373 0.76132 0.15504 0.0
C2249 C 0.81989 0.79273 0.11406 0.0
C2250 C 0.82249 0.80648 0.14155 0.0
C2251 C 0.8237 0.80452 0.19011 0.0
C2252 C 0.8214 0.78862 0.21058 0.0
C2253 C 0.81976 0.791 0.16228 0.0
C2254 C 0.81496 0.75913 0.2029 0.0
C2255 C 0.81092 0.74561 0.17546 0.0
H2256 H 0.12645 0.03865 0.70619 0.0
H2257 H 0.19632 0.02777 0.6822 0.0
H2258 H 0.18511 0.03528 0.63737 0.0
H2259 H 0.15588 0.04417 0.60297 0.0
H2260 H 0.08495 0.05346 0.62364 0.0
H2261 H 0.09598 0.04747 0.6701 0.0
C2262 C 0.13925 0.03761 0.69121 0.0
C2263 C 0.16254 0.03197 0.69882 0.0
C2264 C 0.13243 0.04183 0.66407 0.0
C2265 C 0.17828 0.03131 0.6781 0.0
C2266 C 0.17188 0.03586 0.65194 0.0
C2267 C 0.14265 0.04508 0.61752 0.0
C2268 C 0.11942 0.04971 0.60886 0.0
C2269 C 0.14905 0.04103 0.64443 0.0
C2270 C 0.10302 0.05047 0.62887 0.0
C2271 C 0.1094 0.04678 0.65578 0.0
H2272 H 0.8499 0.3589 0.44996 0.0
H2273 H 0.82389 0.42482 0.42361 0.0
H2274 H 0.82119 0.40107 0.37609 0.0
H2275 H 0.82957 0.36395 0.34271 0.0
H2276 H 0.85466 0.29746 0.36857 0.0
H2277 H 0.85484 0.31948 0.41642 0.0
C2278 C 0.84339 0.36791 0.4338 0.0
C2279 C 0.83742 0.39365 0.43996 0.0
C2280 C 0.84224 0.35444 0.40684 0.0
C2281 C 0.82859 0.40498 0.41911 0.0
C2282 C 0.82726 0.39159 0.39207 0.0
C2283 C 0.83529 0.35452 0.35893 0.0
C2284 C 0.84288 0.3299 0.35279 0.0
C2285 C 0.83472 0.36682 0.38583 0.0
C2286 C 0.84927 0.31687 0.37342 0.0
C2287 C 0.84922 0.3293 0.4005 0.0
H2288 H 0.45319 1.00074 0.24661 0.0
H2289 H 0.48356 0.08953 0.25066 0.0
H2290 H 0.51046 0.07926 0.21635 0.0
H2291 H 0.52935 0.04553 0.19091 0.0
H2292 H 0.50157 0.95692 0.18952 0.0
H2293 H 0.46979 0.96657 0.2179 0.0
C2294 C 0.4651 1.01773 0.23924 0.0
C2295 C 0.4665 0.04578 0.25082 0.0
C2296 C 0.48146 1.01171 0.22087 0.0
C2297 C 0.48227 0.06778 0.24172 0.0
C2298 C 0.49779 0.06193 0.22245 0.0
C2299 C 0.51611 0.0283 0.19656 0.0
C2300 C 0.51775 1.0006 0.1885 0.0
C2301 C 0.49825 0.03406 0.21285 0.0
C2302 C 0.50078 0.97843 0.19604 0.0
C2303 C 0.48255 0.98393 0.21195 0.0
H2304 H 0.78926 0.72267 0.92712 0.0
H2305 H 0.84335 0.7974 0.97237 0.0
H2306 H 0.85209 0.81325 0.9299 0.0
H2307 H 0.84352 0.80593 0.87996 0.0
H2308 H 0.78955 0.73049 0.83505 0.0
H2309 H 0.78184 0.71488 0.87705 0.0
C2310 C 0.80307 0.74234 0.92759 0.0
C2311 C 0.81571 0.75883 0.95277 0.0
C2312 C 0.80802 0.75122 0.90308 0.0
C2313 C 0.83346 0.78433 0.95319 0.0
C2314 C 0.83841 0.79337 0.9289 0.0
C2315 C 0.83016 0.78617 0.87905 0.0
C2316 C 0.81722 0.76987 0.85373 0.0
C2317 C 0.82571 0.77704 0.90364 0.0
C2318 C 0.80007 0.74386 0.85379 0.0
C2319 C 0.79546 0.73478 0.878 0.0
H2320 H 0.87348 0.1224 0.03141 0.0
H2321 H 0.82567 0.04572 0.04569 0.0
H2322 H 0.85669 0.02073 0.03338 0.0
H2323 H 0.89544 0.01987 0.01438 0.0
H2324 H 0.94398 0.09648 1.00132 0.0
H2325 H 0.91482 0.12284 0.01799 0.0
C2326 C 0.8699 0.10018 0.03166 0.0
C2327 C 0.84723 0.08549 0.03851 0.0
C2328 C 0.88789 0.08619 0.02499 0.0
C2329 C 0.84295 0.05711 0.0399 0.0
C2330 C 0.86063 0.04291 0.03298 0.0
C2331 C 0.8996 0.04239 0.01554 0.0
C2332 C 0.92116 0.05635 1.00625 0.0
C2333 C 0.88284 0.05709 0.02489 0.0
C2334 C 0.9271 0.08554 1.00822 0.0
C2335 C 0.91047 0.10046 0.01755 0.0
H2336 H 0.42855 0.4814 0.0744 0.0
H2337 H 0.43344 0.40659 0.01959 0.0
H2338 H 0.47732 0.42831 0.01796 0.0
H2339 H 0.51426 0.46893 0.03115 0.0
H2340 H 0.50997 0.54263 0.08809 0.0
H2341 H 0.4663 0.52103 0.08982 0.0
C2342 C 0.43922 0.46986 0.06208 0.0
C2343 C 0.42758 0.44242 0.04701 0.0
C2344 C 0.46469 0.48231 0.06157 0.0
C2345 C 0.44184 0.42771 0.03143 0.0
C2346 C 0.467 0.44012 0.03046 0.0
C2347 C 0.50391 0.48026 0.04413 0.0
C2348 C 0.51556 0.50784 0.05893 0.0
C2349 C 0.47865 0.46745 0.04538 0.0
C2350 C 0.50163 0.52181 0.07584 0.0
C2351 C 0.47651 0.50936 0.07698 0.0
H2352 H 0.38649 0.66264 0.79374 0.0
H2353 H 0.40893 0.6537 0.71329 0.0
H2354 H 0.39271 0.6928 0.70567 0.0
H2355 H 0.37257 0.73113 0.72104 0.0
H2356 H 0.34675 0.73946 0.79961 0.0
H2357 H 0.36304 0.70013 0.80814 0.0
C2358 C 0.38792 0.66905 0.77443 0.0
C2359 C 0.39968 0.65412 0.75419 0.0
C2360 C 0.37746 0.69196 0.76957 0.0
C2361 C 0.40041 0.66369 0.72947 0.0
C2362 C 0.39098 0.6865 0.72503 0.0
C2363 C 0.3699 0.72423 0.73999 0.0
C2364 C 0.35745 0.73902 0.75925 0.0
C2365 C 0.37939 0.70096 0.74474 0.0
C2366 C 0.35546 0.72918 0.78382 0.0
C2367 C 0.36514 0.70638 0.78882 0.0
H2368 H 0.22301 0.58998 0.54924 0.0
H2369 H 0.23562 0.67557 0.53874 0.0
H2370 H 0.19267 0.67418 0.54506 0.0
H2371 H 0.15134 0.64846 0.55375 0.0
H2372 H 0.13896 0.56157 0.55914 0.0
H2373 H 0.18195 0.56408 0.55607 0.0
C2374 C 0.21634 0.60828 0.5482 0.0
C2375 C 0.23242 0.63281 0.54376 0.0
C2376 C 0.19177 0.60743 0.55185 0.0
C2377 C 0.22354 0.65639 0.54237 0.0
C2378 C 0.19903 0.65572 0.54609 0.0
C2379 C 0.15825 0.63032 0.55473 0.0
C2380 C 0.14206 0.60526 0.5581 0.0
C2381 C 0.18301 0.6314 0.55111 0.0
C2382 C 0.15107 0.58157 0.55818 0.0
C2383 C 0.17572 0.58277 0.55579 0.0
H2384 H 0.79968 0.02717 0.75086 0.0
H2385 H 0.73027 0.96241 0.73481 0.0
H2386 H 0.74825 0.93406 0.76116 0.0
H2387 H 0.78275 0.93053 0.79244 0.0
H2388 H 0.85062 0.99785 0.81157 0.0
H2389 H 0.83452 0.02268 0.78004 0.0
C2390 C 0.78885 1.0065 0.7527 0.0
C2391 C 0.76412 0.99628 0.74089 0.0
C2392 C 0.79897 0.9912 0.76857 0.0
C2393 C 0.74961 0.97005 0.7436 0.0
C2394 C 0.7598 0.95411 0.75874 0.0
C2395 C 0.79393 0.9505 0.78934 0.0
C2396 C 0.81756 0.96276 0.80411 0.0
C2397 C 0.78427 0.96485 0.77187 0.0
C2398 C 0.83222 0.98851 0.80035 0.0
C2399 C 0.82308 1.00255 0.7824 0.0
H2400 H 0.78332 0.94161 0.5155 0.0
H2401 H 0.80508 0.98893 0.59827 0.0
H2402 H 0.77176 1.01155 0.59386 0.0
H2403 H 0.73895 0.02123 0.56511 0.0
H2404 H 0.71918 0.97672 0.4815 0.0
H2405 H 0.74878 0.94919 0.48763 0.0
C2406 C 0.78067 0.95675 0.53259 0.0
C2407 C 0.79689 0.96393 0.55698 0.0
C2408 C 0.76176 0.97011 0.52976 0.0
C2409 C 0.79311 0.98341 0.57907 0.0
C2410 C 0.774 0.99629 0.57664 0.0
C2411 C 0.74088 1.00508 0.54849 0.0
C2412 C 0.7271 1.00077 0.52296 0.0
C2413 C 0.75857 0.99026 0.5519 0.0
C2414 C 0.72974 0.98017 0.50131 0.0
C2415 C 0.7467 0.96462 0.50479 0.0
H2416 H 0.37513 0.49529 0.76398 0.0
H2417 H 0.44722 0.4909 0.79664 0.0
H2418 H 0.43017 0.44242 0.79869 0.0
H2419 H 0.39535 0.39937 0.79137 0.0
H2420 H 0.32262 0.40208 0.76091 0.0
H2421 H 0.33901 0.45113 0.75797 0.0
C2422 C 0.3872 0.48392 0.77166 0.0
C2423 C 0.41295 0.49818 0.78008 0.0
C2424 C 0.37703 0.45478 0.77328 0.0
C2425 C 0.42755 0.48185 0.78988 0.0
C2426 C 0.41776 0.45348 0.79112 0.0
C2427 C 0.38283 0.41051 0.78422 0.0
C2428 C 0.35721 0.39594 0.77665 0.0
C2429 C 0.39256 0.43949 0.7829 0.0
C2430 C 0.34204 0.41179 0.76739 0.0
C2431 C 0.35164 0.44034 0.76554 0.0
H2432 H 0.29058 0.6497 0.26904 0.0
H2433 H 0.21513 0.64178 0.23635 0.0
H2434 H 0.22615 0.69145 0.23441 0.0
H2435 H 0.25711 0.73701 0.24233 0.0
H2436 H 0.33128 0.746 0.27956 0.0
H2437 H 0.32105 0.69577 0.27904 0.0
C2438 C 0.27662 0.65894 0.26152 0.0
C2439 C 0.25221 0.64244 0.25285 0.0
C2440 C 0.28289 0.68746 0.26102 0.0
C2441 C 0.23407 0.6544 0.24333 0.0
C2442 C 0.24033 0.68265 0.24208 0.0
C2443 C 0.27094 0.72777 0.25016 0.0
C2444 C 0.29499 0.74451 0.25994 0.0
C2445 C 0.26465 0.69932 0.25089 0.0
C2446 C 0.31279 0.73298 0.27098 0.0
C2447 C 0.30694 0.70443 0.27094 0.0
H2448 H 0.57779 0.72307 0.53307 0.0
H2449 H 0.53716 0.68717 0.45284 0.0
H2450 H 0.53924 0.64056 0.45772 0.0
H2451 H 0.55299 0.60939 0.48345 0.0
H2452 H 0.58645 0.64121 0.56676 0.0
H2453 H 0.58742 0.68941 0.56187 0.0
C2454 C 0.56927 0.70503 0.51672 0.0
C2455 C 0.55738 0.7092 0.49236 0.0
C2456 C 0.56967 0.67735 0.52006 0.0
C2457 C 0.54634 0.68514 0.47175 0.0
C2458 C 0.54761 0.65825 0.47448 0.0
C2459 C 0.56053 0.62671 0.50079 0.0
C2460 C 0.57088 0.62127 0.52512 0.0
C2461 C 0.5593 0.65403 0.49838 0.0
C2462 C 0.5796 0.64442 0.54732 0.0
C2463 C 0.57976 0.67212 0.54457 0.0
H2464 H 0.7292 0.35229 0.66007 0.0
H2465 H 0.67914 0.329 0.71824 0.0
H2466 H 0.71282 0.32346 0.74767 0.0
H2467 H 0.75636 0.32288 0.75707 0.0
H2468 H 0.8076 0.34669 0.70055 0.0
H2469 H 0.77422 0.35429 0.67115 0.0
C2470 C 0.72568 0.34647 0.67936 0.0
C2471 C 0.70111 0.34136 0.68648 0.0
C2472 C 0.74562 0.34323 0.69689 0.0
C2473 C 0.69745 0.33342 0.71171 0.0
C2474 C 0.71688 0.33008 0.72883 0.0
C2475 C 0.76054 0.33044 0.73875 0.0
C2476 C 0.78495 0.33454 0.73161 0.0
C2477 C 0.74105 0.33472 0.72169 0.0
C2478 C 0.78923 0.34332 0.70693 0.0
C2479 C 0.77 0.3477 0.68995 0.0
H2480 H 0.0412 0.38377 0.0321 0.0
H2481 H 0.06447 0.37723 0.95191 0.0
H2482 H 0.07359 0.42795 0.95689 0.0
H2483 H 0.07537 0.47448 0.98325 0.0
H2484 H 0.05885 0.48395 0.06599 0.0
H2485 H 0.04601 0.43243 0.06056 0.0
C2486 C 0.04842 0.39347 0.0158 0.0
C2487 C 0.05211 0.37617 0.99155 0.0
C2488 C 0.05441 0.42339 0.01906 0.0
C2489 C 0.06157 0.38953 0.97084 0.0
C2490 C 0.06668 0.41873 0.97359 0.0
C2491 C 0.0688 0.46541 1.00018 0.0
C2492 C 0.06716 0.48348 0.02468 0.0
C2493 C 0.06315 0.43588 0.99748 0.0
C2494 C 0.05924 0.47092 0.04646 0.0
C2495 C 0.05231 0.44128 0.04346 0.0
H2496 H 0.06116 0.83477 0.21684 0.0
H2497 H 0.03101 0.82327 0.13301 0.0
H2498 H 0.9888 0.80919 0.1449 0.0
H2499 H 0.96097 0.79386 0.17811 0.0
H2500 H 0.99071 0.80676 0.26216 0.0
H2501 H 0.03255 0.82738 0.25153 0.0
C2502 C 0.04528 0.82988 0.20136 0.0
C2503 C 0.04911 0.8299 0.17409 0.0
C2504 C 0.02105 0.82201 0.20841 0.0
C2505 C 0.02848 0.82362 0.15417 0.0
C2506 C 1.00435 0.81535 0.16092 0.0
C2507 C 0.97656 0.80201 0.19415 0.0
C2508 C 0.97299 0.79881 0.2208 0.0
C2509 C 1.00047 0.81362 0.18781 0.0
C2510 C 0.99316 0.80921 0.24154 0.0
C2511 C 0.01706 0.82073 0.2354 0.0
H2512 H 0.50533 0.31397 0.09755 0.0
H2513 H 0.57225 0.32754 0.15194 0.0
H2514 H 0.59449 0.36359 0.12923 0.0
H2515 H 0.59607 0.38599 0.09002 0.0
H2516 H 0.52942 0.37306 0.03543 0.0
H2517 H 0.50542 0.34234 0.06237 0.0
C2518 C 0.52454 0.32558 0.10479 0.0
C2519 C 0.53734 0.31864 0.1262 0.0
C2520 C 0.53717 0.34592 0.09143 0.0
C2521 C 0.56223 0.33316 0.13556 0.0
C2522 C 0.57492 0.35348 0.12249 0.0
C2523 C 0.57623 0.37655 0.08431 0.0
C2524 C 0.56443 0.38068 0.06061 0.0
C2525 C 0.5628 0.35918 0.09979 0.0
C2526 C 0.53871 0.36937 0.05347 0.0
C2527 C 0.5251 0.35194 0.0688 0.0
H2528 H 0.05103 0.3246 0.37719 0.0
H2529 H 0.10288 0.3793 0.33848 0.0
H2530 H 0.06857 0.389 0.31271 0.0
H2531 H 0.02424 0.38107 0.30063 0.0
H2532 H 0.97236 0.31923 0.33288 0.0
H2533 H 1.00617 0.3144 0.36274 0.0
C2534 C 0.05466 0.33879 0.36324 0.0
C2535 C 0.0792 0.35142 0.3597 0.0
C2536 C 0.03489 0.34327 0.34763 0.0
C2537 C 0.08397 0.36941 0.34137 0.0
C2538 C 0.06443 0.37497 0.32672 0.0
C2539 C 0.02014 0.36604 0.31366 0.0
C2540 C 0.99548 0.35068 0.31419 0.0
C2541 C 0.03982 0.36174 0.32946 0.0
C2542 C 0.99088 0.33208 0.33222 0.0
C2543 C 1.01032 0.32889 0.34916 0.0
H2544 H 0.98676 0.68177 0.61287 0.0
H2545 H 0.02231 0.68144 0.69181 0.0
H2546 H 0.04212 0.6465 0.67095 0.0
H2547 H 0.05401 0.6214 0.63011 0.0
H2548 H 0.01723 0.6197 0.55126 0.0
H2549 H 0.99365 0.6505 0.5723 0.0
C2550 C 0.99822 0.67343 0.62561 0.0
C2551 C 1.00337 0.68463 0.65379 0.0
C2552 C 1.01004 0.65372 0.61346 0.0
C2553 C 0.01807 0.67334 0.67003 0.0
C2554 C 0.02971 0.65358 0.6581 0.0
C2555 C 0.04075 0.62758 0.61746 0.0
C2556 C 0.03836 0.61936 0.58899 0.0
C2557 C 0.02667 0.64459 0.62977 0.0
C2558 C 0.02055 0.62701 0.57308 0.0
C2559 C 1.00666 0.64422 0.58516 0.0
H2560 H 0.72882 0.86577 0.8769 0.0
H2561 H 0.66809 0.80382 0.82414 0.0
H2562 H 0.69611 0.79581 0.79 0.0
H2563 H 0.73899 0.80644 0.77618 0.0
H2564 H 0.79767 0.8689 0.83096 0.0
H2565 H 0.76935 0.87766 0.86265 0.0
C2566 C 0.7217 0.85037 0.85799 0.0
C2567 C 0.69671 0.83513 0.85308 0.0
C2568 C 0.73762 0.84608 0.83877 0.0
C2569 C 0.68747 0.81575 0.82826 0.0
C2570 C 0.70344 0.81119 0.80881 0.0
C2571 C 0.74553 0.82117 0.79543 0.0
C2572 C 0.77094 0.83517 0.80223 0.0
C2573 C 0.72874 0.82608 0.81402 0.0
C2574 C 0.77876 0.85635 0.826 0.0
C2575 C 0.76242 0.86165 0.84415 0.0
H2576 H 0.53198 0.61279 0.71788 0.0
H2577 H 0.47098 0.53787 0.69244 0.0
H2578 H 0.48644 0.52763 0.64855 0.0
H2579 H 0.51716 0.53958 0.61543 0.0
H2580 H 0.57837 0.61438 0.64058 0.0
H2581 H 0.563 0.62471 0.68452 0.0
C2582 C 0.52193 0.59416 0.70286 0.0
C2583 C 0.49977 0.57627 0.70952 0.0
C2584 C 0.53102 0.58829 0.67661 0.0
C2585 C 0.48769 0.55241 0.68879 0.0
C2586 C 0.49667 0.54644 0.66325 0.0
C2587 C 0.52726 0.5583 0.63031 0.0
C2588 C 0.5494 0.57604 0.62345 0.0
C2589 C 0.51826 0.56421 0.65653 0.0
C2590 C 0.56162 0.5999 0.64419 0.0
C2591 C 0.55268 0.60595 0.66981 0.0
H2592 H 0.7985 0.24012 1.0065 0.0
H2593 H 0.81419 0.17212 0.9508 0.0
H2594 H 0.8027 0.19178 0.91227 0.0
H2595 H 0.78467 0.22614 0.89475 0.0
H2596 H 0.76563 0.29097 0.95102 0.0
H2597 H 0.7817 0.27436 0.98951 0.0
C2598 C 0.79971 0.22966 0.98598 0.0
C2599 C 0.80697 0.20461 0.98138 0.0
C2600 C 0.79201 0.24021 0.96421 0.0
C2601 C 0.80856 0.19143 0.95473 0.0
C2602 C 0.80183 0.20252 0.93277 0.0
C2603 C 0.78401 0.23639 0.91553 0.0
C2604 C 0.77375 0.25928 0.92047 0.0
C2605 C 0.79285 0.22642 0.93731 0.0
C2606 C 0.77305 0.2729 0.94714 0.0
C2607 C 0.78239 0.26359 0.96896 0.0
H2608 H 0.15014 0.52011 0.2003 0.0
H2609 H 0.2108 0.5314 0.15152 0.0
H2610 H 0.18378 0.53743 0.11458 0.0
H2611 H 0.14562 0.5464 0.09944 0.0
H2612 H 0.08382 0.53436 0.14591 0.0
H2613 H 0.10884 0.52176 0.18111 0.0
C2614 C 0.15717 0.52283 0.18121 0.0
C2615 C 0.18247 0.52582 0.17871 0.0
C2616 C 0.14166 0.52688 0.16021 0.0
C2617 C 0.19141 0.52928 0.15393 0.0
C2618 C 0.17608 0.533 0.13291 0.0
C2619 C 0.13749 0.54082 0.11708 0.0
C2620 C 0.11335 0.54216 0.12062 0.0
C2621 C 0.15163 0.53311 0.13644 0.0
C2622 C 0.10269 0.5341 0.1432 0.0
C2623 C 0.11692 0.52676 0.16315 0.0
H2624 H 0.80734 0.83693 0.4548 0.0
H2625 H 0.88679 0.85161 0.46995 0.0
H2626 H 0.88921 0.84195 0.42113 0.0
H2627 H 0.86919 0.83452 0.37485 0.0
H2628 H 0.78982 0.81269 0.35788 0.0
H2629 H 0.78664 0.82028 0.40662 0.0
C2630 C 0.82507 0.83753 0.44733 0.0
C2631 C 0.84689 0.84515 0.46601 0.0
C2632 C 0.8263 0.83092 0.41897 0.0
C2633 C 0.86972 0.84567 0.45604 0.0
C2634 C 0.87115 0.84027 0.42809 0.0
C2635 C 0.85125 0.82988 0.38125 0.0
C2636 C 0.83001 0.82273 0.36206 0.0
C2637 C 0.84962 0.83332 0.40937 0.0
C2638 C 0.8067 0.81832 0.37187 0.0
C2639 C 0.80484 0.82272 0.3999 0.0
H2640 H 0.5492 0.55456 0.87014 0.0
H2641 H 0.48282 0.57785 0.89026 0.0
H2642 H 0.4925 0.57491 0.93746 0.0
H2643 H 0.51955 0.566 0.97451 0.0
H2644 H 0.5896 0.551 0.95764 0.0
H2645 H 0.57878 0.54984 0.90916 0.0
C2646 C 0.53677 0.55905 0.88474 0.0
C2647 C 0.51483 0.56636 0.87551 0.0
C2648 C 0.54308 0.55841 0.9131 0.0
C2649 C 0.49967 0.57228 0.89577 0.0
C2650 C 0.50524 0.57051 0.92318 0.0
C2651 C 0.5326 0.56232 0.96038 0.0
C2652 C 0.55508 0.55695 0.97053 0.0
C2653 C 0.52686 0.56362 0.93233 0.0
C2654 C 0.57163 0.55349 0.95112 0.0
C2655 C 0.56551 0.55334 0.92305 0.0
H2656 H 0.83534 0.23382 0.09953 0.0
H2657 H 0.84528 0.17015 0.14291 0.0
H2658 H 0.84179 0.19973 0.18538 0.0
H2659 H 0.83003 0.2399 0.20859 0.0
H2660 H 0.81979 0.30464 0.1674 0.0
H2661 H 0.82881 0.27804 0.12482 0.0
C2662 C 0.83783 0.22708 0.11855 0.0
C2663 C 0.8404 0.19992 0.11843 0.0
C2664 C 0.83471 0.24377 0.14276 0.0
C2665 C 0.84335 0.19107 0.14285 0.0
C2666 C 0.84099 0.20782 0.16704 0.0
C2667 C 0.82942 0.24808 0.19031 0.0
C2668 C 0.82318 0.27331 0.19056 0.0
C2669 C 0.8354 0.2334 0.16689 0.0
C2670 C 0.82372 0.28457 0.16712 0.0
C2671 C 0.8292 0.26963 0.1431 0.0
H2672 H 0.15013 0.53805 0.31127 0.0
H2673 H 0.22179 0.59255 0.34838 0.0
H2674 H 0.20325 0.61089 0.38797 0.0
H2675 H 0.1654 0.61539 0.40879 0.0
H2676 H 0.09399 0.56077 0.37095 0.0
H2677 H 0.11355 0.5381 0.33468 0.0
C2678 C 0.16171 0.55331 0.32847 0.0
C2679 C 0.18709 0.56404 0.32723 0.0
C2680 C 0.15086 0.56407 0.35056 0.0
C2681 C 0.20219 0.58381 0.34933 0.0
C2682 C 0.19154 0.59456 0.37168 0.0
C2683 C 0.15432 0.59855 0.39246 0.0
C2684 C 0.12841 0.59016 0.39156 0.0
C2685 C 0.16573 0.58561 0.37194 0.0
C2686 C 0.11395 0.56786 0.37117 0.0
C2687 C 0.12511 0.55485 0.35072 0.0
H2688 H 0.83867 0.83182 0.61206 0.0
H2689 H 0.82459 0.91261 0.63867 0.0
H2690 H 0.81574 0.90152 0.68227 0.0
H2691 H 0.81434 0.87033 0.71463 0.0
H2692 H 0.82617 0.78865 0.68818 0.0
H2693 H 0.83362 0.79863 0.64341 0.0
C2694 C 0.83347 0.84686 0.6273 0.0
C2695 C 0.83283 0.87322 0.62202 0.0
C2696 C 0.82814 0.84033 0.65272 0.0
C2697 C 0.82579 0.89232 0.64211 0.0
C2698 C 0.82063 0.88605 0.66722 0.0
C2699 C 0.81829 0.85469 0.69891 0.0
C2700 C 0.81958 0.82885 0.70462 0.0
C2701 C 0.82219 0.86038 0.67301 0.0
C2702 C 0.82468 0.80863 0.68409 0.0
C2703 C 0.82911 0.81437 0.6585 0.0
H2704 H 0.79566 0.50165 0.58366 0.0
H2705 H 0.78853 0.50585 0.49893 0.0
H2706 H 0.75725 0.53209 0.50661 0.0
H2707 H 0.73631 0.55858 0.5391 0.0
H2708 H 0.74605 0.55613 0.62422 0.0
H2709 H 0.77245 0.52437 0.61496 0.0
C2710 C 0.78689 0.508 0.56685 0.0
C2711 C 0.79429 0.50254 0.54098 0.0
C2712 C 0.77004 0.52376 0.5717 0.0
C2713 C 0.78281 0.51006 0.519 0.0
C2714 C 0.76529 0.52526 0.52349 0.0
C2715 C 0.74443 0.55111 0.5555 0.0
C2716 C 0.7402 0.56008 0.58238 0.0
C2717 C 0.75958 0.53315 0.55 0.0
C2718 C 0.75004 0.55006 0.6036 0.0
C2719 C 0.76475 0.53174 0.59826 0.0
H2720 H 0.22048 0.1755 0.50246 0.0
H2721 H 0.25615 0.10831 0.49434 0.0
H2722 H 0.21683 0.07478 0.49741 0.0
H2723 H 0.17296 0.06553 0.50734 0.0
H2724 H 0.13883 0.13401 0.51724 0.0
H2725 H 0.17663 0.16573 0.50853 0.0
C2726 C 0.21964 0.15344 0.50082 0.0
C2727 C 0.24139 0.14462 0.49824 0.0
C2728 C 0.19712 0.13438 0.50326 0.0
C2729 C 0.23978 0.11585 0.49635 0.0
C2730 C 0.21726 0.09661 0.49824 0.0
C2731 C 0.17367 0.08718 0.50695 0.0
C2732 C 0.15307 0.09734 0.51303 0.0
C2733 C 0.19589 0.10573 0.5024 0.0
C2734 C 0.15447 0.12567 0.51286 0.0
C2735 C 0.17611 0.1439 0.50786 0.0
H2736 H 0.27486 0.96074 0.79653 0.0
H2737 H 0.24107 0.93524 0.71301 0.0
H2738 H 0.25693 0.89359 0.70733 0.0
H2739 H 0.27953 0.86192 0.72614 0.0
H2740 H 0.31359 0.88754 0.80937 0.0
H2741 H 0.2998 0.93051 0.81437 0.0
C2742 C 0.27095 0.94629 0.77692 0.0
C2743 C 0.25619 0.95218 0.75524 0.0
C2744 C 0.28104 0.92197 0.77337 0.0
C2745 C 0.25211 0.93235 0.73025 0.0
C2746 C 0.26138 0.90811 0.72693 0.0
C2747 C 0.28504 0.87739 0.74512 0.0
C2748 C 0.29974 0.87131 0.76674 0.0
C2749 C 0.27602 0.90245 0.74823 0.0
C2750 C 0.30417 0.89148 0.79156 0.0
C2751 C 0.29562 0.91622 0.79466 0.0
H2752 H 0.42399 0.02239 1.0087 0.0
H2753 H 0.42304 0.93469 0.99376 0.0
H2754 H 0.46811 0.94781 1.00542 0.0
H2755 H 0.5068 0.98396 0.02542 0.0
H2756 H 0.50723 0.07128 0.04285 0.0
H2757 H 0.46331 0.05869 0.025 0.0
C2758 C 0.43371 1.00617 1.00733 0.0
C2759 C 0.42026 0.97764 1.00064 0.0
C2760 C 0.45944 1.01382 0.015 0.0
C2761 C 0.43305 0.95682 0.99909 0.0
C2762 C 0.45875 0.96428 1.00595 0.0
C2763 C 0.49726 1.00015 0.02465 0.0
C2764 C 0.51026 0.02848 0.03414 0.0
C2765 C 0.47195 0.99265 0.01487 0.0
C2766 C 0.49776 0.0494 0.03451 0.0
C2767 C 0.47261 0.04218 0.02448 0.0
H2768 H 0.89299 0.6384 0.82915 0.0
H2769 H 0.83613 0.55927 0.80563 0.0
H2770 H 0.81066 0.58065 0.77972 0.0
H2771 H 0.8091 0.61854 0.75607 0.0
H2772 H 0.8666 0.69696 0.77727 0.0
H2773 H 0.88758 0.67926 0.8119 0.0
C2774 C 0.87459 0.62619 0.81926 0.0
C2775 C 0.86659 0.59728 0.8186 0.0
C2776 C 0.86066 0.63824 0.80333 0.0
C2777 C 0.84271 0.58157 0.80596 0.0
C2778 C 0.82829 0.59366 0.79092 0.0
C2779 C 0.82609 0.63169 0.76858 0.0
C2780 C 0.837 0.65835 0.7639 0.0
C2781 C 0.83786 0.62138 0.78808 0.0
C2782 C 0.85847 0.67597 0.78044 0.0
C2783 C 0.87029 0.66595 0.80019 0.0
H2784 H 0.89784 0.67869 0.0371 0.0
H2785 H 0.84083 0.62633 0.07263 0.0
H2786 H 0.86913 0.59966 0.08408 0.0
H2787 H 0.90984 0.59167 0.08523 0.0
H2788 H 0.96886 0.646 0.05411 0.0
H2789 H 0.93975 0.67052 0.03865 0.0
C2790 C 0.89165 0.66131 0.04716 0.0
C2791 C 0.86729 0.65455 0.05402 0.0
C2792 C 0.90827 0.64622 0.05427 0.0
C2793 C 0.85952 0.63209 0.06721 0.0
C2794 C 0.87565 0.61673 0.07374 0.0
C2795 C 0.91655 0.60914 0.07544 0.0
C2796 C 0.94161 0.61716 0.07126 0.0
C2797 C 0.90008 0.6238 0.06765 0.0
C2798 C 0.94963 0.63919 0.05753 0.0
C2799 C 0.93304 0.65343 0.04889 0.0
H2800 H 0.28024 0.1114 0.76924 0.0
H2801 H 0.21968 0.13083 0.80997 0.0
H2802 H 0.2367 0.18031 0.81082 0.0
H2803 H 0.26806 0.21958 0.79954 0.0
H2804 H 0.33029 0.20252 0.76132 0.0
H2805 H 0.31372 0.15214 0.76025 0.0
C2806 C 0.27089 0.12639 0.77869 0.0
C2807 C 0.2483 0.11624 0.78958 0.0
C2808 C 0.28116 0.15599 0.77956 0.0
C2809 C 0.23688 0.13691 0.80139 0.0
C2810 C 0.24665 0.16572 0.80187 0.0
C2811 C 0.27819 0.20498 0.79107 0.0
C2812 C 0.30075 0.21562 0.78069 0.0
C2813 C 0.26865 0.17568 0.79089 0.0
C2814 C 0.31322 0.19569 0.7699 0.0
C2815 C 0.30357 0.16652 0.76914 0.0
H2816 H 0.38167 0.98421 0.32658 0.0
H2817 H 0.45083 0.96173 0.33489 0.0
H2818 H 0.42979 0.91346 0.31085 0.0
H2819 H 0.39283 0.87939 0.28376 0.0
H2820 H 0.32448 0.90259 0.27292 0.0
H2821 H 0.34441 0.94977 0.301 0.0
C2822 C 0.39207 0.96862 0.32376 0.0
C2823 C 0.41777 0.97639 0.3325 0.0
C2824 C 0.38026 0.94164 0.30856 0.0
C2825 C 0.43101 0.95606 0.32845 0.0
C2826 C 0.41911 0.9287 0.31435 0.0
C2827 C 0.3825 0.895 0.28753 0.0
C2828 C 0.3575 0.88816 0.2767 0.0
C2829 C 0.39402 0.92164 0.30353 0.0
C2830 C 0.34389 0.90797 0.28124 0.0
C2831 C 0.3552 0.93465 0.29735 0.0
H2832 H 0.63998 0.41167 0.55995 0.0
H2833 H 0.59921 0.40297 0.62864 0.0
H2834 H 0.58313 0.44238 0.62249 0.0
H2835 H 0.58254 0.48221 0.6002 0.0
H2836 H 0.61919 0.4896 0.52888 0.0
H2837 H 0.6352 0.4492 0.53388 0.0
C2838 C 0.62752 0.41825 0.57358 0.0
C2839 C 0.62137 0.40386 0.59521 0.0
C2840 C 0.61755 0.44124 0.56955 0.0
C2841 C 0.60482 0.41318 0.6121 0.0
C2842 C 0.59546 0.43599 0.60857 0.0
C2843 C 0.59313 0.47438 0.58495 0.0
C2844 C 0.59863 0.48887 0.56349 0.0
C2845 C 0.60183 0.45047 0.58763 0.0
C2846 C 0.61365 0.47871 0.54501 0.0
C2847 C 0.62312 0.45558 0.54812 0.0
H2848 H 0.48135 0.82087 0.34821 0.0
H2849 H 0.44144 0.77231 0.40104 0.0
H2850 H 0.40187 0.77351 0.37788 0.0
H2851 H 0.37808 0.78837 0.34213 0.0
H2852 H 0.41856 0.83452 0.28787 0.0
H2853 H 0.45783 0.8342 0.3118 0.0
C2854 C 0.46402 0.81045 0.35465 0.0
C2855 C 0.46463 0.79649 0.3765 0.0
C2856 C 0.44115 0.81082 0.34087 0.0
C2857 C 0.44177 0.78306 0.38428 0.0
C2858 C 0.41902 0.78384 0.37105 0.0
C2859 C 0.3955 0.79846 0.33564 0.0
C2860 C 0.39512 0.81154 0.31312 0.0
C2861 C 0.41838 0.79769 0.34928 0.0
C2862 C 0.41804 0.82418 0.30495 0.0
C2863 C 0.44065 0.82405 0.31871 0.0
H2864 H 0.09624 0.73347 0.05562 0.0
H2865 H 0.13171 0.75412 0.13865 0.0
H2866 H 0.12912 0.70509 0.13732 0.0
H2867 H 0.11325 0.65532 0.11502 0.0
H2868 H 0.08131 0.63238 0.03102 0.0
H2869 H 0.08582 0.68228 0.03034 0.0
C2870 C 0.10385 0.72732 0.07318 0.0
C2871 C 0.11379 0.74801 0.09747 0.0
C2872 C 0.10258 0.69825 0.07233 0.0
C2873 C 0.12352 0.73906 0.11984 0.0
C2874 C 0.12205 0.71079 0.11919 0.0
C2875 C 0.10775 0.66125 0.09636 0.0
C2876 C 0.09711 0.63991 0.07313 0.0
C2877 C 0.11103 0.69006 0.09593 0.0
C2878 C 0.08994 0.6482 0.04918 0.0
C2879 C 0.09239 0.67689 0.04886 0.0
H2880 H 0.10035 0.24833 0.86711 0.0
H2881 H 0.10581 0.33183 0.91263 0.0
H2882 H 0.14401 0.35043 0.89406 0.0
H2883 H 0.17454 0.34386 0.86279 0.0
H2884 H 0.17044 0.26082 0.81768 0.0
H2885 H 0.13356 0.24108 0.83859 0.0
C2886 C 0.10993 0.27058 0.87298 0.0
C2887 C 0.09991 0.28871 0.89102 0.0
C2888 C 0.13227 0.28121 0.86241 0.0
C2889 C 0.11288 0.3174 0.89872 0.0
C2890 C 0.1348 0.32809 0.8881 0.0
C2891 C 0.16573 0.32137 0.85778 0.0
C2892 C 0.1751 0.30388 0.83851 0.0
C2893 C 0.14448 0.31031 0.86968 0.0
C2894 C 0.16368 0.27474 0.8325 0.0
C2895 C 0.14244 0.26351 0.84428 0.0
H2896 H 0.66735 0.7912 0.98764 0.0
H2897 H 0.60717 0.77285 0.92259 0.0
H2898 H 0.58323 0.73504 0.94203 0.0
H2899 H 0.57767 0.71102 0.98022 0.0
H2900 H 0.63713 0.73014 0.04587 0.0
H2901 H 0.66338 0.76396 0.02343 0.0
C2902 C 0.64915 0.77866 0.97751 0.0
C2903 C 0.63887 0.78495 0.95396 0.0
C2904 C 0.63536 0.75741 0.98905 0.0
C2905 C 0.6153 0.76857 0.94097 0.0
C2906 C 0.60162 0.74699 0.95205 0.0
C2907 C 0.5965 0.72246 0.98932 0.0
C2908 C 0.60556 0.71875 0.01463 0.0
C2909 C 0.61118 0.74186 0.9765 0.0
C2910 C 0.62998 0.73304 0.02635 0.0
C2911 C 0.64485 0.75233 0.01361 0.0
H2912 H 0.08005 0.73999 0.68518 0.0
H2913 H 0.09804 0.82383 0.73477 0.0
H2914 H 0.13872 0.8191 0.75187 0.0
H2915 H 0.16778 0.78937 0.75449 0.0
H2916 H 0.14662 0.70393 0.70806 0.0
H2917 H 0.10826 0.71082 0.68775 0.0
C2918 C 0.09306 0.7574 0.69944 0.0
C2919 C 0.08645 0.78234 0.70857 0.0
C2920 C 0.11556 0.75399 0.70987 0.0
C2921 C 0.103 0.80452 0.72752 0.0
C2922 C 0.12611 0.80174 0.73726 0.0
C2923 C 0.1547 0.77244 0.73983 0.0
C2924 C 0.15966 0.74617 0.73268 0.0
C2925 C 0.13238 0.77635 0.72891 0.0
C2926 C 0.14284 0.72419 0.71383 0.0
C2927 C 0.12105 0.72815 0.70224 0.0
H2928 H 0.14308 0.4433 0.44718 0.0
H2929 H 0.1306 0.39637 0.5107 0.0
H2930 H 0.11861 0.43478 0.53879 0.0
H2931 H 0.10605 0.47815 0.54216 0.0
H2932 H 0.11637 0.52409 0.47762 0.0
H2933 H 0.1342 0.48916 0.45261 0.0
C2934 C 0.13848 0.44193 0.46751 0.0
C2935 C 0.13769 0.41727 0.477 0.0
C2936 C 0.13047 0.46343 0.48292 0.0
C2937 C 0.13129 0.41533 0.50312 0.0
C2938 C 0.12424 0.43711 0.51904 0.0
C2939 C 0.11268 0.48088 0.52297 0.0
C2940 C 0.10974 0.50351 0.51177 0.0
C2941 C 0.12283 0.46072 0.50866 0.0
C2942 C 0.11803 0.5065 0.48652 0.0
C2943 C 0.12843 0.48669 0.47227 0.0
H2944 H 0.45497 0.26768 0.25527 0.0
H2945 H 0.44509 0.27584 0.17168 0.0
H2946 H 0.40411 0.28288 0.17724 0.0
H2947 H 0.36961 0.28204 0.20465 0.0
H2948 H 0.37939 0.27372 0.28804 0.0
H2949 H 0.42208 0.27143 0.2839 0.0
C2950 C 0.44395 0.27138 0.23842 0.0
C2951 C 0.45276 0.27094 0.21309 0.0
C2952 C 0.42041 0.27508 0.24166 0.0
C2953 C 0.43859 0.27612 0.19142 0.0
C2954 C 0.41512 0.27991 0.19449 0.0
C2955 C 0.3813 0.27999 0.22189 0.0
C2956 C 0.37188 0.27838 0.24665 0.0
C2957 C 0.40561 0.27864 0.21929 0.0
C2958 C 0.38671 0.27543 0.26893 0.0
C2959 C 0.41096 0.274 0.26653 0.0
H2960 H 0.61939 0.55472 0.36749 0.0
H2961 H 0.68514 0.53023 0.38942 0.0
H2962 H 0.67447 0.53101 0.43576 0.0
H2963 H 0.64613 0.53845 0.47181 0.0
H2964 H 0.57818 0.55789 0.44819 0.0
H2965 H 0.58983 0.55919 0.40253 0.0
C2966 C 0.6315 0.54948 0.38225 0.0
C2967 C 0.65348 0.54252 0.37388 0.0
C2968 C 0.62471 0.54905 0.40946 0.0
C2969 C 0.66822 0.53563 0.39423 0.0
C2970 C 0.66207 0.53613 0.42121 0.0
C2971 C 0.63377 0.54303 0.45681 0.0
C2972 C 0.61098 0.54825 0.46456 0.0
C2973 C 0.64032 0.5428 0.42939 0.0
C2974 C 0.59564 0.55369 0.44376 0.0
C2975 C 0.60241 0.5545 0.41722 0.0
H2976 H 0.31888 0.89833 0.07269 0.0
H2977 H 0.37075 0.98003 0.10409 0.0
H2978 H 0.38742 0.96267 0.14127 0.0
H2979 H 0.39295 0.92217 0.15883 0.0
H2980 H 0.34279 0.83996 0.1259 0.0
H2981 H 0.31955 0.85965 0.09545 0.0
C2982 C 0.33329 0.91256 0.08814 0.0
C2983 C 0.3442 0.94004 0.0852 0.0
C2984 C 0.34346 0.90219 0.10881 0.0
C2985 C 0.36242 0.95852 0.10566 0.0
C2986 C 0.37214 0.94859 0.1268 0.0
C2987 C 0.37678 0.90876 0.14513 0.0
C2988 C 0.36987 0.87979 0.14388 0.0
C2989 C 0.36382 0.92008 0.12751 0.0
C2990 C 0.34851 0.86242 0.12679 0.0
C2991 C 0.33525 0.87361 0.10943 0.0
H2992 H 0.02785 0.56986 0.88571 0.0
H2993 H 0.97858 0.61077 0.9287 0.0
H2994 H 1.00017 0.60932 0.97222 0.0
H2995 H 0.03059 0.59253 0.99735 0.0
H2996 H 0.07694 0.54823 0.95342 0.0
H2997 H 0.05858 0.55449 0.91039 0.0
C2998 C 0.02204 0.57896 0.90456 0.0
C2999 C 1.00168 0.59036 0.90414 0.0
C3000 C 0.03373 0.577 0.92909 0.0
C3001 C 0.9943 0.60193 0.92867 0.0
C3002 C 1.00645 0.60089 0.95344 0.0
C3003 C 0.03658 0.5844 0.97824 0.0
C3004 C 0.05516 0.57039 0.97809 0.0
C3005 C 0.0257 0.58775 0.95377 0.0
C3006 C 0.06311 0.55981 0.95368 0.0
C3007 C 0.05251 0.5632 0.9292 0.0
H3008 H 0.3228 0.2837 0.60609 0.0
H3009 H 0.30107 0.19396 0.60196 0.0
H3010 H 0.30111 0.20173 0.65067 0.0
H3011 H 0.31079 0.23302 0.69537 0.0
H3012 H 0.33084 0.32271 0.70235 0.0
H3013 H 0.32815 0.31608 0.65241 0.0
C3014 C 0.31789 0.26593 0.61586 0.0
C3015 C 0.3126 0.23819 0.59998 0.0
C3016 C 0.31784 0.27047 0.64469 0.0
C3017 C 0.30599 0.21554 0.61332 0.0
C3018 C 0.30586 0.21989 0.64138 0.0
C3019 C 0.31406 0.25114 0.68593 0.0
C3020 C 0.32066 0.27823 0.70258 0.0
C3021 C 0.31233 0.24712 0.65736 0.0
C3022 C 0.32521 0.30153 0.69001 0.0
C3023 C 0.32386 0.29771 0.66139 0.0
H3024 H 0.63587 0.55048 0.21478 0.0
H3025 H 0.68335 0.49943 0.18415 0.0
H3026 H 0.66966 0.50134 0.13794 0.0
H3027 H 0.64537 0.51744 0.10465 0.0
H3028 H 0.59283 0.56255 0.13143 0.0
H3029 H 0.60793 0.56418 0.17915 0.0
C3030 C 0.64314 0.53945 0.1981 0.0
C3031 C 0.66122 0.52468 0.20436 0.0
C3032 C 0.63471 0.54034 0.17016 0.0
C3033 C 0.66986 0.51105 0.18136 0.0
C3034 C 0.66197 0.51221 0.15437 0.0
C3035 C 0.63698 0.52793 0.12065 0.0
C3036 C 0.61848 0.54133 0.11306 0.0
C3037 C 0.64462 0.5269 0.14831 0.0
C3038 C 0.608 0.55365 0.13532 0.0
C3039 C 0.6164 0.55389 0.16311 0.0
H3040 H 0.35606 0.90827 0.92627 0.0
H3041 H 0.3032 0.83999 0.94834 0.0
H3042 H 0.30408 0.80892 0.90467 0.0
H3043 H 0.31873 0.80275 0.85968 0.0
H3044 H 0.37277 0.8716 0.83931 0.0
H3045 H 0.37397 0.90051 0.88388 0.0
C3046 C 0.34452 0.88665 0.92123 0.0
C3047 C 0.32878 0.87643 0.93945 0.0
C3048 C 0.34584 0.86904 0.8969 0.0
C3049 C 0.31479 0.8482 0.93383 0.0
C3050 C 0.31552 0.83052 0.90916 0.0
C3051 C 0.33054 0.82414 0.86489 0.0
C3052 C 0.3443 0.83562 0.84557 0.0
C3053 C 0.33077 0.84091 0.89041 0.0
C3054 C 0.36106 0.86262 0.85334 0.0
C3055 C 0.36174 0.87927 0.87881 0.0
H3056 H 1.00098 0.59338 0.7787 0.0
H3057 H 0.92957 0.54364 0.73528 0.0
H3058 H 0.94999 0.52416 0.69827 0.0
H3059 H 0.9882 0.51527 0.68234 0.0
H3060 H 0.05943 0.56353 0.72642 0.0
H3061 H 0.03905 0.58941 0.75958 0.0
C3062 C 0.98979 0.57885 0.76084 0.0
C3063 C 0.96382 0.56941 0.75999 0.0
C3064 C 1.00167 0.56682 0.74029 0.0
C3065 C 0.94962 0.55091 0.73654 0.0
C3066 C 0.96128 0.53954 0.71553 0.0
C3067 C 0.99909 0.53152 0.69925 0.0
C3068 C 0.025 0.53708 0.70282 0.0
C3069 C 0.98727 0.54621 0.71794 0.0
C3070 C 0.03932 0.55867 0.72401 0.0
C3071 C 0.02771 0.57349 0.74273 0.0
H3072 H 0.30514 0.21344 0.41983 0.0
H3073 H 0.32688 0.29903 0.46552 0.0
H3074 H 0.33299 0.31627 0.42335 0.0
H3075 H 0.32974 0.30712 0.37301 0.0
H3076 H 0.30614 0.22132 0.32727 0.0
H3077 H 0.30231 0.20432 0.36942 0.0
C3078 C 0.31148 0.23586 0.42054 0.0
C3079 C 0.31579 0.25492 0.44593 0.0
C3080 C 0.3142 0.24567 0.396 0.0
C3081 C 0.32347 0.28391 0.44635 0.0
C3082 C 0.32692 0.29377 0.42218 0.0
C3083 C 0.32444 0.2847 0.37218 0.0
C3084 C 0.31886 0.26567 0.34662 0.0
C3085 C 0.32209 0.27489 0.39678 0.0
C3086 C 0.31085 0.23665 0.34637 0.0
C3087 C 0.30865 0.2268 0.37061 0.0
H3088 H 0.35753 0.57466 0.55951 0.0
H3089 H 0.36107 0.62351 0.49711 0.0
H3090 H 0.39835 0.61072 0.48401 0.0
H3091 H 0.42662 0.58108 0.48674 0.0
H3092 H 0.42287 0.53183 0.54852 0.0
H3093 H 0.38917 0.54997 0.56609 0.0
C3094 C 0.36637 0.58236 0.54294 0.0
C3095 C 0.35616 0.59908 0.52858 0.0
C3096 C 0.38771 0.57501 0.53559 0.0
C3097 C 0.36829 0.6099 0.50791 0.0
C3098 C 0.38964 0.60277 0.50053 0.0
C3099 C 0.4185 0.57468 0.50423 0.0
C3100 C 0.42632 0.55471 0.51597 0.0
C3101 C 0.399 0.58467 0.51368 0.0
C3102 C 0.41658 0.54697 0.5391 0.0
C3103 C 0.39732 0.55715 0.54896 0.0
H3104 H 0.9269 0.98877 0.57547 0.0
H3105 H 0.93296 0.91197 0.52496 0.0
H3106 H 0.97569 0.93494 0.5199 0.0
H3107 H 1.01137 0.97666 0.52944 0.0
H3108 H 1.00627 0.0532 0.58093 0.0
H3109 H 0.96339 0.03062 0.58598 0.0
C3110 C 0.93758 0.97707 0.56338 0.0
C3111 C 0.92665 0.94861 0.55068 0.0
C3112 C 0.96239 0.9904 0.56067 0.0
C3113 C 0.94087 0.93378 0.53517 0.0
C3114 C 0.96535 0.94694 0.53219 0.0
C3115 C 1.00098 0.98849 0.54184 0.0
C3116 C 0.01209 1.01696 0.55433 0.0
C3117 C 0.97632 0.9752 0.54485 0.0
C3118 C 0.99815 0.03167 0.5704 0.0
C3119 C 0.97359 1.01861 0.5735 0.0
H3120 H 0.91538 0.17994 0.29419 0.0
H3121 H 0.87532 0.12789 0.21814 0.0
H3122 H 0.85222 0.16237 0.21409 0.0
H3123 H 0.84358 0.20879 0.2305 0.0
H3124 H 0.88257 0.26172 0.30604 0.0
H3125 H 0.90487 0.22637 0.31177 0.0
C3126 C 0.90159 0.17588 0.27666 0.0
C3127 C 0.89784 0.15028 0.25635 0.0
C3128 C 0.88767 0.19646 0.27431 0.0
C3129 C 0.8794 0.14662 0.23418 0.0
C3130 C 0.86589 0.16667 0.2318 0.0
C3131 C 0.85665 0.21271 0.24846 0.0
C3132 C 0.86035 0.23859 0.26798 0.0
C3133 C 0.86983 0.19188 0.25152 0.0
C3134 C 0.87804 0.24226 0.29087 0.0
C3135 C 0.89126 0.22185 0.29399 0.0
H3136 H 0.72171 0.08716 0.04455 0.0
H3137 H 0.7321 0.17706 0.05994 0.0
H3138 H 0.68765 0.17011 0.0624 0.0
H3139 H 0.6454 0.13809 0.05735 0.0
H3140 H 0.63583 0.04842 0.03952 0.0
H3141 H 0.68039 0.05567 0.04134 0.0
C3142 C 0.7143 0.10527 0.04853 0.0
C3143 C 0.73006 0.13251 0.05178 0.0
C3144 C 0.68888 0.10116 0.04967 0.0
C3145 C 0.72022 0.15579 0.05704 0.0
C3146 C 0.69486 0.15187 0.05855 0.0
C3147 C 0.65325 0.12029 0.05425 0.0
C3148 C 0.63753 0.09287 0.04891 0.0
C3149 C 0.67896 0.12461 0.0545 0.0
C3150 C 0.64764 0.06978 0.04436 0.0
C3151 C 0.67312 0.07387 0.04513 0.0
H3152 H 0.24469 0.49505 0.28546 0.0
H3153 H 0.29572 0.49814 0.22519 0.0
H3154 H 0.31278 0.46373 0.24262 0.0
H3155 H 0.31818 0.44026 0.28007 0.0
H3156 H 0.27014 0.44142 0.34298 0.0
H3157 H 0.24629 0.46636 0.31902 0.0
C3158 C 0.25933 0.48793 0.27589 0.0
C3159 C 0.26954 0.4996 0.25471 0.0
C3160 C 0.26952 0.46906 0.28654 0.0
C3161 C 0.28807 0.48984 0.24204 0.0
C3162 C 0.29776 0.47017 0.25192 0.0
C3163 C 0.30203 0.44531 0.28803 0.0
C3164 C 0.29593 0.43967 0.31326 0.0
C3165 C 0.28939 0.46073 0.27494 0.0
C3166 C 0.27514 0.44614 0.32368 0.0
C3167 C 0.26166 0.46038 0.31008 0.0
H3168 H 0.29982 0.48522 0.07855 0.0
H3169 H 0.2812 0.42361 1.00273 0.0
H3170 H 0.24446 0.43899 0.9918 0.0
H3171 H 0.21939 0.4722 1.00194 0.0
H3172 H 0.2374 0.53389 0.07739 0.0
H3173 H 0.27231 0.51589 0.09063 0.0
C3174 C 0.28775 0.47519 0.05961 0.0
C3175 C 0.2936 0.45367 0.0412 0.0
C3176 C 0.26648 0.48405 0.05348 0.0
C3177 C 0.27742 0.4405 0.01706 0.0
C3178 C 0.25633 0.44921 1.01082 0.0
C3179 C 0.2308 0.4814 0.02144 0.0
C3180 C 0.22609 0.50443 0.03858 0.0
C3181 C 0.25094 0.47125 0.02862 0.0
C3182 C 0.2407 0.51605 0.06394 0.0
C3183 C 0.26077 0.50594 0.07136 0.0
H3184 H 0.93425 0.97761 0.2844 0.0
H3185 H 0.8714 1.00835 0.26553 0.0
H3186 H 0.84316 0.96189 0.26565 0.0
H3187 H 0.83598 0.91092 0.27159 0.0
H3188 H 0.90127 0.8825 0.28728 0.0
H3189 H 0.92768 0.92852 0.28805 0.0
C3190 C 0.91437 0.97453 0.28035 0.0
C3191 C 0.90548 0.99746 0.27523 0.0
C3192 C 0.89812 0.9474 0.27997 0.0
C3193 C 0.87935 0.99182 0.2697 0.0
C3194 C 0.86301 0.96492 0.26978 0.0
C3195 C 0.85594 0.91465 0.27519 0.0
C3196 C 0.86586 0.892 0.27979 0.0
C3197 C 0.87206 0.94223 0.27497 0.0
C3198 C 0.89217 0.8984 0.28396 0.0
C3199 C 0.90775 0.92522 0.28437 0.0
H3200 H 0.75434 0.14949 0.73147 0.0
H3201 H 0.81971 0.12461 0.75389 0.0
H3202 H 0.84309 0.17424 0.77069 0.0
H3203 H 0.84299 0.22414 0.78336 0.0
H3204 H 0.77658 0.24791 0.76245 0.0
H3205 H 0.75481 0.19893 0.74157 0.0
C3206 C 0.77397 0.15516 0.73918 0.0
C3207 C 0.78573 0.13404 0.74097 0.0
C3208 C 0.78659 0.18323 0.74991 0.0
C3209 C 0.81078 0.14098 0.75176 0.0
C3210 C 0.82387 0.16915 0.7618 0.0
C3211 C 0.82386 0.21835 0.7739 0.0
C3212 C 0.81136 0.23906 0.77346 0.0
C3213 C 0.81169 0.19033 0.76174 0.0
C3214 C 0.78647 0.23192 0.76207 0.0
C3215 C 0.77411 0.2041 0.75025 0.0
loop_
_geom_bond_atom_site_label_1
_geom_bond_atom_site_label_2
_geom_bond_distance
_geom_bond_site_symmetry_2
_ccdc_geom_bond_type
O0 Cd1 2.223 . S
O0 C8 1.315 . S
Cd1 O0 2.223 . S
Cd1 O4 2.297 . S
Cd1 O5 2.439 . S
Cd1 O11 2.240 . S
Cd2 O3 2.240 . S
Cd2 O10 2.223 . S
Cd2 O12 2.297 . S
Cd2 O13 2.439 . S
O3 Cd2 2.240 . S
O3 C8 1.279 . S
O4 Cd1 2.297 . S
O4 C6 1.247 . S
O5 Cd1 2.439 . S
O5 C6 1.208 . S
C6 O4 1.247 . S
C6 O5 1.208 . S
C7 O12 1.247 . S
C7 O13 1.208 . S
C8 O0 1.315 . S
C8 O3 1.279 . S
C9 O10 1.315 . S
C9 O11 1.279 . S
O10 Cd2 2.223 . S
O10 C9 1.315 . S
O11 Cd1 2.240 . S
O11 C9 1.279 . S
O12 Cd2 2.297 . S
O12 C7 1.247 . S
O13 Cd2 2.439 . S
O13 C7 1.208 . S
O14 Cd15 2.223 . S
O14 C22 1.315 . S
Cd15 O14 2.223 . S
Cd15 O18 2.297 . S
Cd15 O19 2.439 . S
Cd15 O25 2.240 1_655 S
Cd16 O17 2.240 1_455 S
Cd16 O24 2.223 . S
Cd16 O26 2.297 . S
Cd16 O27 2.467 . S
O17 Cd16 2.240 1_655 S
O17 C22 1.279 . S
O18 Cd15 2.297 . S
O18 C20 1.247 . S
O19 Cd15 2.439 . S
O19 C20 1.208 . S
C20 O18 1.247 . S
C20 O19 1.208 . S
C21 O26 1.247 . S
C21 O27 1.240 . S
C22 O14 1.315 . S
C22 O17 1.279 . S
C23 O24 1.315 . S
C23 O25 1.279 . S
O24 Cd16 2.223 . S
O24 C23 1.315 . S
O25 Cd15 2.240 1_455 S
O25 C23 1.279 . S
O26 Cd16 2.297 . S
O26 C21 1.247 . S
O27 Cd16 2.467 . S
O27 C21 1.240 . S
O28 Cd29 2.223 . S
O28 C36 1.315 . S
Cd29 O28 2.223 . S
Cd29 O32 2.297 . S
Cd29 O33 2.439 . S
Cd29 O39 2.240 . S
Cd30 O31 2.240 . S
Cd30 O38 2.223 . S
Cd30 O40 2.297 . S
Cd30 O41 2.439 . S
O31 Cd30 2.240 . S
O31 C36 1.279 . S
O32 Cd29 2.297 . S
O32 C34 1.247 . S
O33 Cd29 2.439 . S
O33 C34 1.208 . S
C34 O32 1.247 . S
C34 O33 1.208 . S
C35 O40 1.247 . S
C35 O41 1.208 . S
C36 O28 1.315 . S
C36 O31 1.279 . S
C37 O38 1.315 . S
C37 O39 1.279 . S
O38 Cd30 2.223 . S
O38 C37 1.315 . S
O39 Cd29 2.240 . S
O39 C37 1.279 . S
O40 Cd30 2.297 . S
O40 C35 1.247 . S
O41 Cd30 2.439 . S
O41 C35 1.208 . S
O42 Cd43 2.223 . S
O42 C50 1.315 . S
Cd43 O42 2.223 . S
Cd43 O46 2.297 . S
Cd43 O47 2.439 . S
Cd43 O53 2.240 . S
Cd44 O45 2.240 . S
Cd44 O52 2.223 . S
Cd44 O54 2.297 . S
Cd44 O55 2.439 . S
O45 Cd44 2.240 . S
O45 C50 1.279 . S
O46 Cd43 2.297 . S
O46 C48 1.247 . S
O47 Cd43 2.439 . S
O47 C48 1.208 . S
C48 O46 1.247 . S
C48 O47 1.208 . S
C49 O54 1.247 . S
C49 O55 1.208 . S
C50 O42 1.315 . S
C50 O45 1.279 . S
C51 O52 1.315 . S
C51 O53 1.279 . S
O52 Cd44 2.223 . S
O52 C51 1.315 . S
O53 Cd43 2.240 . S
O53 C51 1.279 . S
O54 Cd44 2.297 . S
O54 C49 1.247 . S
O55 Cd44 2.439 . S
O55 C49 1.208 . S
O56 Cd57 2.223 . S
O56 C64 1.315 . S
Cd57 O56 2.223 . S
Cd57 O60 2.297 . S
Cd57 O61 2.439 . S
Cd57 O67 2.240 . S
Cd58 O59 2.240 . S
Cd58 O66 2.223 . S
Cd58 O68 2.297 . S
Cd58 O69 2.439 . S
O59 Cd58 2.240 . S
O59 C64 1.279 . S
O60 Cd57 2.297 . S
O60 C62 1.247 . S
O61 Cd57 2.439 . S
O61 C62 1.208 . S
C62 O60 1.247 . S
C62 O61 1.208 . S
C63 O68 1.247 . S
C63 O69 1.208 . S
C64 O56 1.315 . S
C64 O59 1.279 . S
C65 O66 1.315 . S
C65 O67 1.279 . S
O66 Cd58 2.223 . S
O66 C65 1.315 . S
O67 Cd57 2.240 . S
O67 C65 1.279 . S
O68 Cd58 2.297 . S
O68 C63 1.247 . S
O69 Cd58 2.439 . S
O69 C63 1.208 . S
O70 Cd71 2.223 . S
O70 C78 1.315 . S
Cd71 O70 2.223 . S
Cd71 O74 2.297 . S
Cd71 O75 2.439 . S
Cd71 O81 2.240 . S
Cd72 O73 2.240 . S
Cd72 O80 2.223 . S
Cd72 O82 2.297 . S
Cd72 O83 2.439 . S
O73 Cd72 2.240 . S
O73 C78 1.279 . S
O74 Cd71 2.297 . S
O74 C76 1.247 . S
O75 Cd71 2.439 . S
O75 C76 1.208 . S
C76 O74 1.247 . S
C76 O75 1.208 . S
C77 O82 1.247 . S
C77 O83 1.208 . S
C78 O70 1.315 . S
C78 O73 1.279 . S
C79 O80 1.315 . S
C79 O81 1.279 . S
O80 Cd72 2.223 . S
O80 C79 1.315 . S
O81 Cd71 2.240 . S
O81 C79 1.279 . S
O82 Cd72 2.297 . S
O82 C77 1.247 . S
O83 Cd72 2.439 . S
O83 C77 1.208 . S
O84 Cd85 2.223 . S
O84 C92 1.315 . S
Cd85 O84 2.223 . S
Cd85 O88 2.297 . S
Cd85 O89 2.439 . S
Cd85 O95 2.240 . S
Cd86 O87 2.240 . S
Cd86 O94 2.223 . S
Cd86 O96 2.297 . S
Cd86 O97 2.439 . S
O87 Cd86 2.240 . S
O87 C92 1.279 . S
O88 Cd85 2.297 . S
O88 C90 1.247 . S
O89 Cd85 2.439 . S
O89 C90 1.208 . S
C90 O88 1.247 . S
C90 O89 1.208 . S
C91 O96 1.247 . S
C91 O97 1.208 . S
C92 O84 1.315 . S
C92 O87 1.279 . S
C93 O94 1.315 . S
C93 O95 1.279 . S
O94 Cd86 2.223 . S
O94 C93 1.315 . S
O95 Cd85 2.240 . S
O95 C93 1.279 . S
O96 Cd86 2.297 . S
O96 C91 1.247 . S
O97 Cd86 2.439 . S
O97 C91 1.208 . S
O98 Cd99 2.223 . S
O98 C106 1.315 . S
Cd99 O98 2.223 . S
Cd99 O102 2.297 . S
Cd99 O103 2.439 . S
Cd99 O109 2.240 . S
Cd100 O101 2.240 . S
Cd100 O108 2.223 1_455 S
Cd100 O110 2.297 . S
Cd100 O111 2.439 . S
O101 Cd100 2.240 . S
O101 C106 1.279 . S
O102 Cd99 2.297 . S
O102 C104 1.247 . S
O103 Cd99 2.439 . S
O103 C104 1.208 . S
C104 O102 1.247 . S
C104 O103 1.208 . S
C105 O110 1.247 . S
C105 O111 1.208 . S
C106 O98 1.315 . S
C106 O101 1.279 . S
C107 O108 1.315 . S
C107 O109 1.279 1_655 S
O108 Cd100 2.223 1_655 S
O108 C107 1.315 . S
O109 Cd99 2.240 . S
O109 C107 1.279 1_455 S
O110 Cd100 2.297 . S
O110 C105 1.247 . S
O111 Cd100 2.439 . S
O111 C105 1.208 . S
O112 Cd113 2.223 . S
O112 C120 1.315 . S
Cd113 O112 2.223 . S
Cd113 O116 2.297 . S
Cd113 O117 2.439 . S
Cd113 O123 2.240 1_545 S
Cd114 O115 2.240 . S
Cd114 O122 2.223 1_545 S
Cd114 O124 2.297 . S
Cd114 O125 2.439 . S
O115 Cd114 2.240 . S
O115 C120 1.279 . S
O116 Cd113 2.297 . S
O116 C118 1.247 . S
O117 Cd113 2.439 . S
O117 C118 1.208 . S
C118 O116 1.247 . S
C118 O117 1.208 . S
C119 O124 1.247 . S
C119 O125 1.208 . S
C120 O112 1.315 . S
C120 O115 1.279 . S
C121 O122 1.315 . S
C121 O123 1.279 . S
O122 Cd114 2.223 1_565 S
O122 C121 1.315 . S
O123 Cd113 2.240 1_565 S
O123 C121 1.279 . S
O124 Cd114 2.297 . S
O124 C119 1.247 . S
O125 Cd114 2.439 . S
O125 C119 1.208 . S
O126 Cd127 2.223 . S
O126 C134 1.315 . S
Cd127 O126 2.223 . S
Cd127 O130 2.297 . S
Cd127 O131 2.439 . S
Cd127 O137 2.240 . S
Cd128 O129 2.240 . S
Cd128 O136 2.223 . S
Cd128 O138 2.297 . S
Cd128 O139 2.439 . S
O129 Cd128 2.240 . S
O129 C134 1.279 . S
O130 Cd127 2.297 . S
O130 C132 1.247 . S
O131 Cd127 2.439 . S
O131 C132 1.208 . S
C132 O130 1.247 . S
C132 O131 1.208 . S
C133 O138 1.247 . S
C133 O139 1.208 . S
C134 O126 1.315 . S
C134 O129 1.279 . S
C135 O136 1.315 . S
C135 O137 1.279 . S
O136 Cd128 2.223 . S
O136 C135 1.315 . S
O137 Cd127 2.240 . S
O137 C135 1.279 . S
O138 Cd128 2.297 . S
O138 C133 1.247 . S
O139 Cd128 2.439 . S
O139 C133 1.208 . S
O140 Cd141 2.223 1_545 S
O140 C148 1.315 1_545 S
Cd141 O140 2.223 1_565 S
Cd141 O144 2.297 . S
Cd141 O145 2.439 . S
Cd141 O151 2.240 1_565 S
Cd142 O143 2.240 1_545 S
Cd142 O150 2.223 . S
Cd142 O152 2.297 . S
Cd142 O153 2.439 1_545 S
O143 Cd142 2.240 1_565 S
O143 C148 1.279 . S
O144 Cd141 2.297 . S
O144 C146 1.247 . S
O145 Cd141 2.439 . S
O145 C146 1.208 . S
C146 O144 1.247 . S
C146 O145 1.208 . S
C147 O152 1.247 . S
C147 O153 1.208 1_545 S
C148 O140 1.315 1_565 S
C148 O143 1.279 . S
C149 O150 1.315 . S
C149 O151 1.279 . S
O150 Cd142 2.223 . S
O150 C149 1.315 . S
O151 Cd141 2.240 1_545 S
O151 C149 1.279 . S
O152 Cd142 2.297 . S
O152 C147 1.247 . S
O153 Cd142 2.439 1_565 S
O153 C147 1.208 1_565 S
O154 Cd155 2.223 . S
O154 C162 1.315 . S
Cd155 O154 2.223 . S
Cd155 O158 2.297 . S
Cd155 O159 2.439 1_554 S
Cd155 O165 2.240 1_554 S
Cd156 O157 2.240 1_556 S
Cd156 O164 2.223 1_556 S
Cd156 O166 2.297 . S
Cd156 O167 2.439 . S
O157 Cd156 2.240 1_554 S
O157 C162 1.279 . S
O158 Cd155 2.297 . S
O158 C160 1.247 . S
O159 Cd155 2.439 1_556 S
O159 C160 1.208 1_556 S
C160 O158 1.247 . S
C160 O159 1.208 1_554 S
C161 O166 1.247 . S
C161 O167 1.208 . S
C162 O154 1.315 . S
C162 O157 1.279 . S
C163 O164 1.315 . S
C163 O165 1.279 1_554 S
O164 Cd156 2.223 1_554 S
O164 C163 1.315 . S
O165 Cd155 2.240 1_556 S
O165 C163 1.279 1_556 S
O166 Cd156 2.297 . S
O166 C161 1.247 . S
O167 Cd156 2.439 . S
O167 C161 1.208 . S
O168 Cd169 2.223 . S
O168 C176 1.315 . S
Cd169 O168 2.223 . S
Cd169 O172 2.297 . S
Cd169 O173 2.439 . S
Cd169 O179 2.240 . S
Cd170 O171 2.240 . S
Cd170 O178 2.223 . S
Cd170 O180 2.297 1_554 S
Cd170 O181 2.439 1_554 S
O171 Cd170 2.240 . S
O171 C176 1.279 . S
O172 Cd169 2.297 . S
O172 C174 1.247 . S
O173 Cd169 2.439 . S
O173 C174 1.208 . S
C174 O172 1.247 . S
C174 O173 1.208 . S
C175 O180 1.247 . S
C175 O181 1.208 . S
C176 O168 1.315 . S
C176 O171 1.279 . S
C177 O178 1.315 . S
C177 O179 1.279 . S
O178 Cd170 2.223 . S
O178 C177 1.315 . S
O179 Cd169 2.240 . S
O179 C177 1.279 . S
O180 Cd170 2.297 1_556 S
O180 C175 1.247 . S
O181 Cd170 2.439 1_556 S
O181 C175 1.208 . S
O182 Cd183 2.223 . S
O182 C190 1.315 . S
Cd183 O182 2.223 . S
Cd183 O186 2.297 . S
Cd183 O187 2.439 . S
Cd183 O193 2.240 . S
Cd184 O185 2.240 . S
Cd184 O192 2.223 . S
Cd184 O194 2.297 1_554 S
Cd184 O195 2.439 1_554 S
O185 Cd184 2.240 . S
O185 C190 1.279 . S
O186 Cd183 2.297 . S
O186 C188 1.247 . S
O187 Cd183 2.439 . S
O187 C188 1.208 . S
C188 O186 1.247 . S
C188 O187 1.208 . S
C189 O194 1.247 . S
C189 O195 1.208 . S
C190 O182 1.315 . S
C190 O185 1.279 . S
C191 O192 1.315 . S
C191 O193 1.279 . S
O192 Cd184 2.223 . S
O192 C191 1.315 . S
O193 Cd183 2.240 . S
O193 C191 1.279 . S
O194 Cd184 2.297 1_556 S
O194 C189 1.247 . S
O195 Cd184 2.439 1_556 S
O195 C189 1.208 . S
O196 Cd197 2.223 . S
O196 C204 1.315 . S
Cd197 O196 2.223 . S
Cd197 O200 2.297 . S
Cd197 O201 2.439 . S
Cd197 O207 2.240 . S
Cd198 O199 2.240 . S
Cd198 O206 2.223 . S
Cd198 O208 2.297 . S
Cd198 O209 2.439 . S
O199 Cd198 2.240 . S
O199 C204 1.279 . S
O200 Cd197 2.297 . S
O200 C202 1.247 . S
O201 Cd197 2.439 . S
O201 C202 1.208 . S
C202 O200 1.247 . S
C202 O201 1.208 . S
C203 O208 1.247 . S
C203 O209 1.208 . S
C204 O196 1.315 . S
C204 O199 1.279 . S
C205 O206 1.315 . S
C205 O207 1.279 . S
O206 Cd198 2.223 . S
O206 C205 1.315 . S
O207 Cd197 2.240 . S
O207 C205 1.279 . S
O208 Cd198 2.297 . S
O208 C203 1.247 . S
O209 Cd198 2.439 . S
O209 C203 1.208 . S
O210 Cd211 2.223 . S
O210 C218 1.315 . S
Cd211 O210 2.223 . S
Cd211 O214 2.297 . S
Cd211 O215 2.439 . S
Cd211 O221 2.240 . S
Cd212 O213 2.240 . S
Cd212 O220 2.223 . S
Cd212 O222 2.297 . S
Cd212 O223 2.439 . S
O213 Cd212 2.240 . S
O213 C218 1.279 . S
O214 Cd211 2.297 . S
O214 C216 1.247 . S
O215 Cd211 2.439 . S
O215 C216 1.208 . S
C216 O214 1.247 . S
C216 O215 1.208 . S
C217 O222 1.247 . S
C217 O223 1.208 . S
C218 O210 1.315 . S
C218 O213 1.279 . S
C219 O220 1.315 . S
C219 O221 1.279 . S
O220 Cd212 2.223 . S
O220 C219 1.315 . S
O221 Cd211 2.240 . S
O221 C219 1.279 . S
O222 Cd212 2.297 . S
O222 C217 1.247 . S
O223 Cd212 2.439 . S
O223 C217 1.208 . S
O224 Cd225 2.223 . S
O224 C232 1.315 . S
Cd225 O224 2.223 . S
Cd225 O228 2.297 . S
Cd225 O229 2.439 . S
Cd225 O235 2.240 . S
Cd226 O227 2.240 . S
Cd226 O234 2.223 . S
Cd226 O236 2.297 . S
Cd226 O237 2.439 . S
O227 Cd226 2.240 . S
O227 C232 1.279 . S
O228 Cd225 2.297 . S
O228 C230 1.247 . S
O229 Cd225 2.439 . S
O229 C230 1.208 . S
C230 O228 1.247 . S
C230 O229 1.208 . S
C231 O236 1.247 . S
C231 O237 1.208 . S
C232 O224 1.315 . S
C232 O227 1.279 . S
C233 O234 1.315 . S
C233 O235 1.279 . S
O234 Cd226 2.223 . S
O234 C233 1.315 . S
O235 Cd225 2.240 . S
O235 C233 1.279 . S
O236 Cd226 2.297 . S
O236 C231 1.247 . S
O237 Cd226 2.439 . S
O237 C231 1.208 . S
O238 Cd239 2.223 . S
O238 C246 1.315 . S
Cd239 O238 2.223 . S
Cd239 O242 2.297 . S
Cd239 O243 2.439 . S
Cd239 O249 2.240 . S
Cd240 O241 2.240 . S
Cd240 O248 2.223 . S
Cd240 O250 2.297 . S
Cd240 O251 2.439 . S
O241 Cd240 2.240 . S
O241 C246 1.279 . S
O242 Cd239 2.297 . S
O242 C244 1.247 . S
O243 Cd239 2.439 . S
O243 C244 1.208 . S
C244 O242 1.247 . S
C244 O243 1.208 . S
C245 O250 1.247 . S
C245 O251 1.208 . S
C246 O238 1.315 . S
C246 O241 1.279 . S
C247 O248 1.315 . S
C247 O249 1.279 . S
O248 Cd240 2.223 . S
O248 C247 1.315 . S
O249 Cd239 2.240 . S
O249 C247 1.279 . S
O250 Cd240 2.297 . S
O250 C245 1.247 . S
O251 Cd240 2.439 . S
O251 C245 1.208 . S
O252 Cd253 2.223 . S
O252 C260 1.315 . S
Cd253 O252 2.223 . S
Cd253 O256 2.297 . S
Cd253 O257 2.439 . S
Cd253 O263 2.240 . S
Cd254 O255 2.240 . S
Cd254 O262 2.223 . S
Cd254 O264 2.297 . S
Cd254 O265 2.439 . S
O255 Cd254 2.240 . S
O255 C260 1.279 . S
O256 Cd253 2.297 . S
O256 C258 1.247 . S
O257 Cd253 2.439 . S
O257 C258 1.208 . S
C258 O256 1.247 . S
C258 O257 1.208 . S
C259 O264 1.247 . S
C259 O265 1.208 . S
C260 O252 1.315 . S
C260 O255 1.279 . S
C261 O262 1.315 . S
C261 O263 1.279 . S
O262 Cd254 2.223 . S
O262 C261 1.315 . S
O263 Cd253 2.240 . S
O263 C261 1.279 . S
O264 Cd254 2.297 . S
O264 C259 1.247 . S
O265 Cd254 2.439 . S
O265 C259 1.208 . S
O266 Cd267 2.223 . S
O266 C274 1.315 . S
Cd267 O266 2.223 . S
Cd267 O270 2.297 . S
Cd267 O271 2.439 . S
Cd267 O277 2.240 . S
Cd268 O269 2.240 . S
Cd268 O276 2.223 . S
Cd268 O278 2.297 . S
Cd268 O279 2.439 . S
O269 Cd268 2.240 . S
O269 C274 1.279 . S
O270 Cd267 2.297 . S
O270 C272 1.247 . S
O271 Cd267 2.439 . S
O271 C272 1.208 . S
C272 O270 1.247 . S
C272 O271 1.208 . S
C273 O278 1.247 . S
C273 O279 1.208 . S
C274 O266 1.315 . S
C274 O269 1.279 . S
C275 O276 1.315 . S
C275 O277 1.279 . S
O276 Cd268 2.223 . S
O276 C275 1.315 . S
O277 Cd267 2.240 . S
O277 C275 1.279 . S
O278 Cd268 2.297 . S
O278 C273 1.247 . S
O279 Cd268 2.439 . S
O279 C273 1.208 . S
O280 Cd281 2.223 . S
O280 C288 1.315 . S
Cd281 O280 2.223 . S
Cd281 O284 2.297 . S
Cd281 O285 2.439 . S
Cd281 O291 2.240 1_554 S
Cd282 O283 2.240 . S
Cd282 O290 2.223 . S
Cd282 O292 2.297 1_554 S
Cd282 O293 2.439 1_554 S
O283 Cd282 2.240 . S
O283 C288 1.279 . S
O284 Cd281 2.297 . S
O284 C286 1.247 . S
O285 Cd281 2.439 . S
O285 C286 1.208 . S
C286 O284 1.247 . S
C286 O285 1.208 . S
C287 O292 1.247 . S
C287 O293 1.208 . S
C288 O280 1.315 . S
C288 O283 1.279 . S
C289 O290 1.315 . S
C289 O291 1.279 1_554 S
O290 Cd282 2.223 . S
O290 C289 1.315 . S
O291 Cd281 2.240 1_556 S
O291 C289 1.279 1_556 S
O292 Cd282 2.297 1_556 S
O292 C287 1.247 . S
O293 Cd282 2.439 1_556 S
O293 C287 1.208 . S
O294 Cd295 2.223 . S
O294 C302 1.315 . S
Cd295 O294 2.223 . S
Cd295 O298 2.297 . S
Cd295 O299 2.439 . S
Cd295 O305 2.240 . S
Cd296 O297 2.240 . S
Cd296 O304 2.223 . S
Cd296 O306 2.297 . S
Cd296 O307 2.439 . S
O297 Cd296 2.240 . S
O297 C302 1.279 . S
O298 Cd295 2.297 . S
O298 C300 1.247 . S
O299 Cd295 2.439 . S
O299 C300 1.208 . S
C300 O298 1.247 . S
C300 O299 1.208 . S
C301 O306 1.247 . S
C301 O307 1.208 . S
C302 O294 1.315 . S
C302 O297 1.279 . S
C303 O304 1.315 . S
C303 O305 1.279 . S
O304 Cd296 2.223 . S
O304 C303 1.315 . S
O305 Cd295 2.240 . S
O305 C303 1.279 . S
O306 Cd296 2.297 . S
O306 C301 1.247 . S
O307 Cd296 2.439 . S
O307 C301 1.208 . S
O308 Cd309 2.223 . S
O308 C316 1.315 . S
Cd309 O308 2.223 . S
Cd309 O312 2.297 . S
Cd309 O313 2.439 . S
Cd309 O319 2.240 . S
Cd310 O311 2.240 . S
Cd310 O318 2.223 . S
Cd310 O320 2.297 . S
Cd310 O321 2.439 . S
O311 Cd310 2.240 . S
O311 C316 1.279 . S
O312 Cd309 2.297 . S
O312 C314 1.247 . S
O313 Cd309 2.439 . S
O313 C314 1.208 . S
C314 O312 1.247 . S
C314 O313 1.208 . S
C315 O320 1.247 . S
C315 O321 1.208 . S
C316 O308 1.315 . S
C316 O311 1.279 . S
C317 O318 1.315 . S
C317 O319 1.279 . S
O318 Cd310 2.223 . S
O318 C317 1.315 . S
O319 Cd309 2.240 . S
O319 C317 1.279 . S
O320 Cd310 2.297 . S
O320 C315 1.247 . S
O321 Cd310 2.439 . S
O321 C315 1.208 . S
O322 Cd323 2.223 . S
O322 C330 1.315 . S
Cd323 O322 2.223 . S
Cd323 O326 2.297 . S
Cd323 O327 2.439 . S
Cd323 O333 2.240 . S
Cd324 O325 2.240 . S
Cd324 O332 2.223 . S
Cd324 O334 2.297 . S
Cd324 O335 2.439 . S
O325 Cd324 2.240 . S
O325 C330 1.279 . S
O326 Cd323 2.297 . S
O326 C328 1.247 . S
O327 Cd323 2.439 . S
O327 C328 1.208 . S
C328 O326 1.247 . S
C328 O327 1.208 . S
C329 O334 1.247 . S
C329 O335 1.208 . S
C330 O322 1.315 . S
C330 O325 1.279 . S
C331 O332 1.315 . S
C331 O333 1.279 . S
O332 Cd324 2.223 . S
O332 C331 1.315 . S
O333 Cd323 2.240 . S
O333 C331 1.279 . S
O334 Cd324 2.297 . S
O334 C329 1.247 . S
O335 Cd324 2.439 . S
O335 C329 1.208 . S
Eu336 N367 2.657 1_545 S
Eu336 N374 2.609 1_544 S
Eu336 O380 2.558 1_454 S
Eu336 O381 2.612 . S
Eu336 O383 2.339 . S
Eu336 O384 2.563 . S
Eu336 O385 2.419 1_455 S
Eu336 O387 2.380 . S
Eu336 O388 2.432 1_554 S
Eu336 C400 2.848 1_454 S
C337 C340 1.429 . S
C337 C341 1.411 . S
C337 N344 1.377 . S
C338 C340 1.420 . S
C338 C342 1.423 . S
C338 C350 1.392 . S
C339 C341 1.420 . S
C339 C342 1.351 . S
C339 H362 0.931 . S
C340 C337 1.429 . S
C340 C338 1.420 . S
C340 N348 1.362 . S
C341 C337 1.411 . S
C341 C339 1.420 . S
C341 C346 1.395 . S
C342 C338 1.423 . S
C342 C339 1.351 . S
C342 H354 0.930 . S
C343 C345 1.400 . S
C343 C346 1.386 . S
C343 H355 0.930 . S
N344 C337 1.377 . S
N344 C345 1.321 . S
N344 Eu347 2.609 . S
C345 C343 1.400 . S
C345 N344 1.321 . S
C345 H352 0.930 . S
C346 C341 1.395 . S
C346 C343 1.386 . S
C346 H365 0.930 . S
Eu347 N344 2.609 . S
Eu347 N348 2.657 . S
Eu347 O381 2.380 . S
Eu347 O382 2.432 . S
Eu347 O386 2.558 . S
Eu347 O387 2.612 . S
Eu347 O389 2.306 1_554 S
Eu347 O390 2.563 . S
Eu347 O391 2.419 . S
Eu347 C411 2.848 . S
N348 C340 1.362 . S
N348 Eu347 2.657 . S
N348 C349 1.335 . S
C349 N348 1.335 . S
C349 C351 1.413 1_554 S
C349 H356 0.928 1_554 S
C350 C338 1.392 . S
C350 C351 1.367 1_554 S
C350 H358 0.931 . S
C351 C349 1.413 1_556 S
C351 C350 1.367 1_556 S
C351 H353 0.930 . S
H352 C345 0.930 . S
H353 C351 0.930 . S
H354 C342 0.930 . S
H355 C343 0.930 . S
H356 C349 0.928 1_556 S
H357 C371 0.930 . S
H358 C350 0.931 . S
H359 C377 0.930 . S
H360 C368 0.929 1_545 S
H361 C375 0.930 . S
H362 C339 0.931 . S
H363 C369 0.930 . S
H364 C402 0.930 . S
H365 C346 0.930 . S
H366 C401 0.931 . S
N367 Eu336 2.657 1_565 S
N367 C368 1.334 . S
N367 C372 1.362 . S
C368 H360 0.929 1_565 S
C368 N367 1.334 . S
C368 C371 1.413 . S
C369 H363 0.930 . S
C369 C370 1.392 . S
C369 C371 1.367 1_655 S
C370 C369 1.392 . S
C370 C372 1.420 1_655 S
C370 C402 1.423 . S
C371 H357 0.930 . S
C371 C368 1.413 . S
C371 C369 1.367 1_455 S
C372 N367 1.362 . S
C372 C370 1.420 1_455 S
C372 C376 1.429 1_554 S
H373 C378 0.930 . S
N374 Eu336 2.609 1_566 S
N374 C376 1.377 . S
N374 C377 1.321 . S
C375 H361 0.930 . S
C375 C377 1.400 . S
C375 C378 1.386 1_455 S
C376 C372 1.429 1_556 S
C376 N374 1.377 . S
C376 C379 1.411 1_455 S
C377 H359 0.930 . S
C377 N374 1.321 . S
C377 C375 1.400 . S
C378 H373 0.930 . S
C378 C375 1.386 1_655 S
C378 C379 1.395 . S
C379 C376 1.411 1_655 S
C379 C378 1.395 . S
C379 C401 1.420 . S
O380 Eu336 2.558 1_656 S
O380 C400 1.257 . S
O381 Eu336 2.612 . S
O381 Eu347 2.380 . S
O381 C392 1.276 . S
O382 Eu347 2.432 . S
O382 C399 1.264 . S
O383 Eu336 2.339 . S
O383 C399 1.254 . S
O384 Eu336 2.563 . S
O384 C392 1.235 . S
O385 Eu336 2.419 1_655 S
O385 C400 1.249 1_554 S
O386 Eu347 2.558 . S
O386 C411 1.257 . S
O387 Eu336 2.380 . S
O387 Eu347 2.612 . S
O387 C403 1.276 . S
O388 Eu336 2.432 1_556 S
O388 C410 1.264 . S
O389 Eu347 2.306 1_556 S
O389 C410 1.275 . S
O390 Eu347 2.563 . S
O390 C403 1.235 . S
O391 Eu347 2.419 . S
O391 C411 1.249 . S
C392 O381 1.276 . S
C392 O384 1.235 . S
C393 C395 1.393 1_556 S
C393 C397 1.395 . S
C393 C400 1.492 . S
C394 C395 1.392 . S
C394 C396 1.386 1_554 S
C395 C393 1.393 1_554 S
C395 C394 1.392 . S
C395 H412 0.930 . S
C396 C394 1.386 1_556 S
C396 C398 1.395 . S
C396 H413 0.930 . S
C397 C393 1.395 . S
C397 C398 1.379 . S
C397 H414 0.930 . S
C398 C396 1.395 . S
C398 C397 1.379 . S
C398 H415 0.930 . S
C399 O382 1.264 . S
C399 O383 1.254 . S
C400 Eu336 2.848 1_656 S
C400 O380 1.257 . S
C400 O385 1.249 1_556 S
C400 C393 1.492 . S
C401 H366 0.931 . S
C401 C379 1.420 . S
C401 C402 1.351 1_556 S
C402 H364 0.930 . S
C402 C370 1.423 . S
C402 C401 1.351 1_554 S
C403 O387 1.276 . S
C403 O390 1.235 . S
C404 C405 1.393 . S
C404 C408 1.395 . S
C404 C411 1.492 . S
C405 C404 1.393 . S
C405 C406 1.392 . S
C405 H416 0.930 . S
C406 C405 1.392 . S
C406 C407 1.386 . S
C407 C406 1.386 . S
C407 C409 1.395 . S
C407 H417 0.930 . S
C408 C404 1.395 . S
C408 C409 1.379 . S
C408 H418 0.930 . S
C409 C407 1.395 . S
C409 C408 1.379 . S
C409 H419 0.930 . S
C410 O388 1.264 . S
C410 O389 1.275 . S
C411 Eu347 2.848 . S
C411 O386 1.257 . S
C411 O391 1.249 . S
C411 C404 1.492 . S
H412 C395 0.930 . S
H413 C396 0.930 . S
H414 C397 0.930 . S
H415 C398 0.930 . S
H416 C405 0.930 . S
H417 C407 0.930 . S
H418 C408 0.930 . S
H419 C409 0.930 . S
Eu420 N451 2.657 . S
Eu420 N458 2.609 . S
Eu420 O464 2.558 . S
Eu420 O465 2.612 . S
Eu420 O467 2.339 . S
Eu420 O468 2.563 . S
Eu420 O469 2.419 . S
Eu420 O471 2.380 . S
Eu420 O472 2.432 . S
Eu420 C484 2.848 . S
C421 C424 1.429 . S
C421 C425 1.411 . S
C421 N428 1.377 . S
C422 C424 1.420 . S
C422 C426 1.423 . S
C422 C434 1.392 . S
C423 C425 1.420 . S
C423 C426 1.351 . S
C423 H446 0.931 . S
C424 C421 1.429 . S
C424 C422 1.420 . S
C424 N432 1.362 . S
C425 C421 1.411 . S
C425 C423 1.420 . S
C425 C430 1.395 . S
C426 C422 1.423 . S
C426 C423 1.351 . S
C426 H438 0.930 . S
C427 C429 1.400 . S
C427 C430 1.386 . S
C427 H439 0.930 . S
N428 C421 1.377 . S
N428 C429 1.321 . S
N428 Eu431 2.609 . S
C429 C427 1.400 . S
C429 N428 1.321 . S
C429 H436 0.930 . S
C430 C425 1.395 . S
C430 C427 1.386 . S
C430 H449 0.930 . S
Eu431 N428 2.609 . S
Eu431 N432 2.657 . S
Eu431 O465 2.380 . S
Eu431 O466 2.432 . S
Eu431 O470 2.558 . S
Eu431 O471 2.612 . S
Eu431 O473 2.339 . S
Eu431 O474 2.563 . S
Eu431 O475 2.419 . S
Eu431 C495 2.848 . S
N432 C424 1.362 . S
N432 Eu431 2.657 . S
N432 C433 1.334 . S
C433 N432 1.334 . S
C433 C435 1.413 . S
C433 H440 0.929 . S
C434 C422 1.392 . S
C434 C435 1.367 . S
C434 H442 0.930 . S
C435 C433 1.413 . S
C435 C434 1.367 . S
C435 H437 0.930 . S
H436 C429 0.930 . S
H437 C435 0.930 . S
H438 C426 0.930 . S
H439 C427 0.930 . S
H440 C433 0.929 . S
H441 C455 0.930 . S
H442 C434 0.930 . S
H443 C461 0.930 . S
H444 C452 0.929 . S
H445 C459 0.930 . S
H446 C423 0.931 . S
H447 C453 0.930 . S
H448 C486 0.930 . S
H449 C430 0.930 . S
H450 C485 0.931 . S
N451 Eu420 2.657 . S
N451 C452 1.334 . S
N451 C456 1.362 . S
C452 H444 0.929 . S
C452 N451 1.334 . S
C452 C455 1.413 . S
C453 H447 0.930 . S
C453 C454 1.392 . S
C453 C455 1.367 . S
C454 C453 1.392 . S
C454 C456 1.420 . S
C454 C486 1.423 . S
C455 H441 0.930 . S
C455 C452 1.413 . S
C455 C453 1.367 . S
C456 N451 1.362 . S
C456 C454 1.420 . S
C456 C460 1.429 . S
H457 C462 0.930 . S
N458 Eu420 2.609 . S
N458 C460 1.377 . S
N458 C461 1.321 . S
C459 H445 0.930 . S
C459 C461 1.400 . S
C459 C462 1.386 . S
C460 C456 1.429 . S
C460 N458 1.377 . S
C460 C463 1.411 . S
C461 H443 0.930 . S
C461 N458 1.321 . S
C461 C459 1.400 . S
C462 H457 0.930 . S
C462 C459 1.386 . S
C462 C463 1.395 . S
C463 C460 1.411 . S
C463 C462 1.395 . S
C463 C485 1.420 . S
O464 Eu420 2.558 . S
O464 C484 1.257 . S
O465 Eu420 2.612 . S
O465 Eu431 2.380 . S
O465 C476 1.276 . S
O466 Eu431 2.432 . S
O466 C483 1.264 . S
O467 Eu420 2.339 . S
O467 C483 1.254 . S
O468 Eu420 2.563 . S
O468 C476 1.235 . S
O469 Eu420 2.419 . S
O469 C484 1.249 . S
O470 Eu431 2.558 . S
O470 C495 1.257 . S
O471 Eu420 2.380 . S
O471 Eu431 2.612 . S
O471 C487 1.276 . S
O472 Eu420 2.432 . S
O472 C494 1.264 . S
O473 Eu431 2.339 . S
O473 C494 1.254 . S
O474 Eu431 2.563 . S
O474 C487 1.235 . S
O475 Eu431 2.419 . S
O475 C495 1.249 . S
C476 O465 1.276 . S
C476 O468 1.235 . S
C477 C479 1.393 . S
C477 C481 1.395 . S
C477 C484 1.492 . S
C478 C479 1.392 . S
C478 C480 1.386 . S
C479 C477 1.393 . S
C479 C478 1.392 . S
C479 H496 0.930 . S
C480 C478 1.386 . S
C480 C482 1.395 . S
C480 H497 0.930 . S
C481 C477 1.395 . S
C481 C482 1.379 . S
C481 H498 0.930 . S
C482 C480 1.395 . S
C482 C481 1.379 . S
C482 H499 0.930 . S
C483 O466 1.264 . S
C483 O467 1.254 . S
C484 Eu420 2.848 . S
C484 O464 1.257 . S
C484 O469 1.249 . S
C484 C477 1.492 . S
C485 H450 0.931 . S
C485 C463 1.420 . S
C485 C486 1.351 . S
C486 H448 0.930 . S
C486 C454 1.423 . S
C486 C485 1.351 . S
C487 O471 1.276 . S
C487 O474 1.235 . S
C488 C489 1.393 . S
C488 C492 1.395 . S
C488 C495 1.492 . S
C489 C488 1.393 . S
C489 C490 1.392 . S
C489 H500 0.930 . S
C490 C489 1.392 . S
C490 C491 1.386 . S
C491 C490 1.386 . S
C491 C493 1.395 . S
C491 H501 0.930 . S
C492 C488 1.395 . S
C492 C493 1.379 . S
C492 H502 0.930 . S
C493 C491 1.395 . S
C493 C492 1.379 . S
C493 H503 0.930 . S
C494 O472 1.264 . S
C494 O473 1.254 . S
C495 Eu431 2.848 . S
C495 O470 1.257 . S
C495 O475 1.249 . S
C495 C488 1.492 . S
H496 C479 0.930 . S
H497 C480 0.930 . S
H498 C481 0.930 . S
H499 C482 0.930 . S
H500 C489 0.930 . S
H501 C491 0.930 . S
H502 C492 0.930 . S
H503 C493 0.930 . S
Eu504 N535 2.657 . S
Eu504 N542 2.609 . S
Eu504 O548 2.558 . S
Eu504 O549 2.612 . S
Eu504 O551 2.339 . S
Eu504 O552 2.563 1_545 S
Eu504 O553 2.419 . S
Eu504 O555 2.380 . S
Eu504 O556 2.432 . S
Eu504 C568 2.848 . S
C505 C508 1.429 . S
C505 C509 1.411 . S
C505 N512 1.377 1_565 S
C506 C508 1.420 . S
C506 C510 1.423 . S
C506 C518 1.392 . S
C507 C509 1.420 . S
C507 C510 1.351 . S
C507 H530 0.931 . S
C508 C505 1.429 . S
C508 C506 1.420 . S
C508 N516 1.362 . S
C509 C505 1.411 . S
C509 C507 1.420 . S
C509 C514 1.395 . S
C510 C506 1.423 . S
C510 C507 1.351 . S
C510 H522 0.930 . S
C511 C513 1.400 1_565 S
C511 C514 1.386 . S
C511 H523 0.930 1_565 S
N512 C505 1.377 1_545 S
N512 C513 1.321 . S
N512 Eu515 2.609 . S
C513 C511 1.400 1_545 S
C513 N512 1.321 . S
C513 H520 0.930 . S
C514 C509 1.395 . S
C514 C511 1.386 . S
C514 H533 0.930 . S
Eu515 N512 2.609 . S
Eu515 N516 2.657 1_545 S
Eu515 O549 2.380 . S
Eu515 O550 2.432 . S
Eu515 O554 2.558 . S
Eu515 O555 2.612 . S
Eu515 O557 2.339 . S
Eu515 O558 2.563 . S
Eu515 O559 2.419 . S
Eu515 C579 2.848 . S
N516 C508 1.362 . S
N516 Eu515 2.657 1_565 S
N516 C517 1.334 . S
C517 N516 1.334 . S
C517 C519 1.413 . S
C517 H524 0.929 . S
C518 C506 1.392 . S
C518 C519 1.367 . S
C518 H526 0.930 . S
C519 C517 1.413 . S
C519 C518 1.367 . S
C519 H521 0.930 . S
H520 C513 0.930 . S
H521 C519 0.930 . S
H522 C510 0.930 . S
H523 C511 0.930 1_545 S
H524 C517 0.929 . S
H525 C539 0.930 . S
H526 C518 0.930 . S
H527 C545 0.930 . S
H528 C536 0.929 . S
H529 C543 0.930 . S
H530 C507 0.931 . S
H531 C537 0.930 . S
H532 C570 0.930 . S
H533 C514 0.930 . S
H534 C569 0.931 . S
N535 Eu504 2.657 . S
N535 C536 1.334 . S
N535 C540 1.362 . S
C536 H528 0.929 . S
C536 N535 1.334 . S
C536 C539 1.413 . S
C537 H531 0.930 . S
C537 C538 1.392 . S
C537 C539 1.367 . S
C538 C537 1.392 . S
C538 C540 1.420 . S
C538 C570 1.423 . S
C539 H525 0.930 . S
C539 C536 1.413 . S
C539 C537 1.367 . S
C540 N535 1.362 . S
C540 C538 1.420 . S
C540 C544 1.429 . S
H541 C546 0.930 . S
N542 Eu504 2.609 . S
N542 C544 1.377 . S
N542 C545 1.321 . S
C543 H529 0.930 . S
C543 C545 1.400 . S
C543 C546 1.386 . S
C544 C540 1.429 . S
C544 N542 1.377 . S
C544 C547 1.411 . S
C545 H527 0.930 . S
C545 N542 1.321 . S
C545 C543 1.400 . S
C546 H541 0.930 . S
C546 C543 1.386 . S
C546 C547 1.395 . S
C547 C544 1.411 . S
C547 C546 1.395 . S
C547 C569 1.420 . S
O548 Eu504 2.558 . S
O548 C568 1.257 . S
O549 Eu504 2.612 . S
O549 Eu515 2.380 . S
O549 C560 1.276 1_545 S
O550 Eu515 2.432 . S
O550 C567 1.264 . S
O551 Eu504 2.339 . S
O551 C567 1.254 . S
O552 Eu504 2.563 1_565 S
O552 C560 1.235 . S
O553 Eu504 2.419 . S
O553 C568 1.249 . S
O554 Eu515 2.558 . S
O554 C579 1.257 . S
O555 Eu504 2.380 . S
O555 Eu515 2.612 . S
O555 C571 1.276 . S
O556 Eu504 2.432 . S
O556 C578 1.264 . S
O557 Eu515 2.339 . S
O557 C578 1.254 . S
O558 Eu515 2.563 . S
O558 C571 1.235 . S
O559 Eu515 2.419 . S
O559 C579 1.249 . S
C560 O549 1.276 1_565 S
C560 O552 1.235 . S
C561 C563 1.393 1_545 S
C561 C565 1.395 . S
C561 C568 1.492 . S
C562 C563 1.392 . S
C562 C564 1.386 . S
C563 C561 1.393 1_565 S
C563 C562 1.392 . S
C563 H580 0.930 . S
C564 C562 1.386 . S
C564 C566 1.395 . S
C564 H581 0.930 . S
C565 C561 1.395 . S
C565 C566 1.379 1_545 S
C565 H582 0.930 . S
C566 C564 1.395 . S
C566 C565 1.379 1_565 S
C566 H583 0.930 . S
C567 O550 1.264 . S
C567 O551 1.254 . S
C568 Eu504 2.848 . S
C568 O548 1.257 . S
C568 O553 1.249 . S
C568 C561 1.492 . S
C569 H534 0.931 . S
C569 C547 1.420 . S
C569 C570 1.351 . S
C570 H532 0.930 . S
C570 C538 1.423 . S
C570 C569 1.351 . S
C571 O555 1.276 . S
C571 O558 1.235 . S
C572 C573 1.393 . S
C572 C576 1.395 . S
C572 C579 1.492 . S
C573 C572 1.393 . S
C573 C574 1.392 . S
C573 H584 0.930 . S
C574 C573 1.392 . S
C574 C575 1.386 . S
C575 C574 1.386 . S
C575 C577 1.395 . S
C575 H585 0.930 . S
C576 C572 1.395 . S
C576 C577 1.379 . S
C576 H586 0.930 . S
C577 C575 1.395 . S
C577 C576 1.379 . S
C577 H587 0.930 . S
C578 O556 1.264 . S
C578 O557 1.254 . S
C579 Eu515 2.848 . S
C579 O554 1.257 . S
C579 O559 1.249 . S
C579 C572 1.492 . S
H580 C563 0.930 . S
H581 C564 0.930 . S
H582 C565 0.930 . S
H583 C566 0.930 . S
H584 C573 0.930 . S
H585 C575 0.930 . S
H586 C576 0.930 . S
H587 C577 0.930 . S
Eu588 N619 2.657 . S
Eu588 N626 2.609 . S
Eu588 O632 2.558 . S
Eu588 O633 2.612 . S
Eu588 O635 2.339 . S
Eu588 O636 2.563 . S
Eu588 O637 2.419 . S
Eu588 O639 2.380 . S
Eu588 O640 2.432 . S
Eu588 C652 2.848 . S
C589 C592 1.429 . S
C589 C593 1.411 . S
C589 N596 1.377 . S
C590 C592 1.420 . S
C590 C594 1.423 . S
C590 C602 1.392 . S
C591 C593 1.420 . S
C591 C594 1.351 . S
C591 H614 0.931 . S
C592 C589 1.429 . S
C592 C590 1.420 . S
C592 N600 1.362 . S
C593 C589 1.411 . S
C593 C591 1.420 . S
C593 C598 1.395 . S
C594 C590 1.423 . S
C594 C591 1.351 . S
C594 H606 0.930 . S
C595 C597 1.400 . S
C595 C598 1.386 . S
C595 H607 0.930 . S
N596 C589 1.377 . S
N596 C597 1.321 . S
N596 Eu599 2.609 . S
C597 C595 1.400 . S
C597 N596 1.321 . S
C597 H604 0.930 . S
C598 C593 1.395 . S
C598 C595 1.386 . S
C598 H617 0.930 . S
Eu599 N596 2.609 . S
Eu599 N600 2.657 . S
Eu599 O633 2.380 . S
Eu599 O634 2.432 . S
Eu599 O638 2.558 . S
Eu599 O639 2.612 . S
Eu599 O641 2.339 . S
Eu599 O642 2.563 . S
Eu599 O643 2.419 . S
Eu599 C663 2.848 . S
N600 C592 1.362 . S
N600 Eu599 2.657 . S
N600 C601 1.334 . S
C601 N600 1.334 . S
C601 C603 1.413 . S
C601 H608 0.929 . S
C602 C590 1.392 . S
C602 C603 1.367 . S
C602 H610 0.930 . S
C603 C601 1.413 . S
C603 C602 1.367 . S
C603 H605 0.930 . S
H604 C597 0.930 . S
H605 C603 0.930 . S
H606 C594 0.930 . S
H607 C595 0.930 . S
H608 C601 0.929 . S
H609 C623 0.930 . S
H610 C602 0.930 . S
H611 C629 0.930 . S
H612 C620 0.929 . S
H613 C627 0.930 . S
H614 C591 0.931 . S
H615 C621 0.930 . S
H616 C654 0.930 . S
H617 C598 0.930 . S
H618 C653 0.931 . S
N619 Eu588 2.657 . S
N619 C620 1.334 . S
N619 C624 1.362 . S
C620 H612 0.929 . S
C620 N619 1.334 . S
C620 C623 1.413 . S
C621 H615 0.930 . S
C621 C622 1.392 . S
C621 C623 1.367 . S
C622 C621 1.392 . S
C622 C624 1.420 . S
C622 C654 1.423 . S
C623 H609 0.930 . S
C623 C620 1.413 . S
C623 C621 1.367 . S
C624 N619 1.362 . S
C624 C622 1.420 . S
C624 C628 1.429 . S
H625 C630 0.930 . S
N626 Eu588 2.609 . S
N626 C628 1.377 . S
N626 C629 1.321 . S
C627 H613 0.930 . S
C627 C629 1.400 . S
C627 C630 1.386 . S
C628 C624 1.429 . S
C628 N626 1.377 . S
C628 C631 1.411 . S
C629 H611 0.930 . S
C629 N626 1.321 . S
C629 C627 1.400 . S
C630 H625 0.930 . S
C630 C627 1.386 . S
C630 C631 1.395 . S
C631 C628 1.411 . S
C631 C630 1.395 . S
C631 C653 1.420 . S
O632 Eu588 2.558 . S
O632 C652 1.257 . S
O633 Eu588 2.612 . S
O633 Eu599 2.380 . S
O633 C644 1.276 . S
O634 Eu599 2.432 . S
O634 C651 1.264 . S
O635 Eu588 2.339 . S
O635 C651 1.254 . S
O636 Eu588 2.563 . S
O636 C644 1.235 . S
O637 Eu588 2.419 . S
O637 C652 1.249 . S
O638 Eu599 2.558 . S
O638 C663 1.257 . S
O639 Eu588 2.380 . S
O639 Eu599 2.612 . S
O639 C655 1.276 . S
O640 Eu588 2.432 . S
O640 C662 1.264 . S
O641 Eu599 2.339 . S
O641 C662 1.254 . S
O642 Eu599 2.563 . S
O642 C655 1.235 . S
O643 Eu599 2.419 . S
O643 C663 1.249 . S
C644 O633 1.276 . S
C644 O636 1.235 . S
C645 C647 1.393 . S
C645 C649 1.395 . S
C645 C652 1.492 . S
C646 C647 1.392 . S
C646 C648 1.386 . S
C647 C645 1.393 . S
C647 C646 1.392 . S
C647 H664 0.930 . S
C648 C646 1.386 . S
C648 C650 1.395 . S
C648 H665 0.930 . S
C649 C645 1.395 . S
C649 C650 1.379 . S
C649 H666 0.930 . S
C650 C648 1.395 . S
C650 C649 1.379 . S
C650 H667 0.930 . S
C651 O634 1.264 . S
C651 O635 1.254 . S
C652 Eu588 2.848 . S
C652 O632 1.257 . S
C652 O637 1.249 . S
C652 C645 1.492 . S
C653 H618 0.931 . S
C653 C631 1.420 . S
C653 C654 1.351 . S
C654 H616 0.930 . S
C654 C622 1.423 . S
C654 C653 1.351 . S
C655 O639 1.276 . S
C655 O642 1.235 . S
C656 C657 1.393 . S
C656 C660 1.395 . S
C656 C663 1.492 . S
C657 C656 1.393 . S
C657 C658 1.392 . S
C657 H668 0.930 . S
C658 C657 1.392 . S
C658 C659 1.386 . S
C659 C658 1.386 . S
C659 C661 1.395 . S
C659 H669 0.930 . S
C660 C656 1.395 . S
C660 C661 1.379 . S
C660 H670 0.930 . S
C661 C659 1.395 . S
C661 C660 1.379 . S
C661 H671 0.930 . S
C662 O640 1.264 . S
C662 O641 1.254 . S
C663 Eu599 2.848 . S
C663 O638 1.257 . S
C663 O643 1.249 . S
C663 C656 1.492 . S
H664 C647 0.930 . S
H665 C648 0.930 . S
H666 C649 0.930 . S
H667 C650 0.930 . S
H668 C657 0.930 . S
H669 C659 0.930 . S
H670 C660 0.930 . S
H671 C661 0.930 . S
Eu672 N703 2.657 . S
Eu672 N710 2.609 . S
Eu672 O716 2.558 . S
Eu672 O717 2.612 . S
Eu672 O719 2.339 . S
Eu672 O720 2.563 . S
Eu672 O721 2.419 . S
Eu672 O723 2.380 . S
Eu672 O724 2.432 . S
Eu672 C736 2.848 . S
C673 C676 1.429 . S
C673 C677 1.411 . S
C673 N680 1.377 . S
C674 C676 1.420 . S
C674 C678 1.423 . S
C674 C686 1.392 . S
C675 C677 1.420 . S
C675 C678 1.351 . S
C675 H698 0.931 . S
C676 C673 1.429 . S
C676 C674 1.420 . S
C676 N684 1.362 . S
C677 C673 1.411 . S
C677 C675 1.420 . S
C677 C682 1.395 . S
C678 C674 1.423 . S
C678 C675 1.351 . S
C678 H690 0.930 . S
C679 C681 1.400 . S
C679 C682 1.386 . S
C679 H691 0.930 . S
N680 C673 1.377 . S
N680 C681 1.321 . S
N680 Eu683 2.609 1_565 S
C681 C679 1.400 . S
C681 N680 1.321 . S
C681 H688 0.930 . S
C682 C677 1.395 . S
C682 C679 1.386 . S
C682 H701 0.930 . S
Eu683 N680 2.609 1_545 S
Eu683 N684 2.657 1_545 S
Eu683 O717 2.380 . S
Eu683 O718 2.432 . S
Eu683 O722 2.558 1_545 S
Eu683 O723 2.612 . S
Eu683 O725 2.339 . S
Eu683 O726 2.563 . S
Eu683 O727 2.419 1_545 S
Eu683 C747 2.848 1_545 S
N684 C676 1.362 . S
N684 Eu683 2.657 1_565 S
N684 C685 1.334 . S
C685 N684 1.334 . S
C685 C687 1.413 . S
C685 H692 0.929 . S
C686 C674 1.392 . S
C686 C687 1.367 . S
C686 H694 0.930 . S
C687 C685 1.413 . S
C687 C686 1.367 . S
C687 H689 0.930 1_455 S
H688 C681 0.930 . S
H689 C687 0.930 1_655 S
H690 C678 0.930 . S
H691 C679 0.930 . S
H692 C685 0.929 . S
H693 C707 0.930 . S
H694 C686 0.930 . S
H695 C713 0.930 . S
H696 C704 0.929 . S
H697 C711 0.930 1_655 S
H698 C675 0.931 . S
H699 C705 0.930 . S
H700 C738 0.930 . S
H701 C682 0.930 . S
H702 C737 0.931 . S
N703 Eu672 2.657 . S
N703 C704 1.334 . S
N703 C708 1.362 . S
C704 H696 0.929 . S
C704 N703 1.334 . S
C704 C707 1.413 . S
C705 H699 0.930 . S
C705 C706 1.392 . S
C705 C707 1.367 . S
C706 C705 1.392 . S
C706 C708 1.420 . S
C706 C738 1.423 . S
C707 H693 0.930 . S
C707 C704 1.413 . S
C707 C705 1.367 . S
C708 N703 1.362 . S
C708 C706 1.420 . S
C708 C712 1.429 . S
H709 C714 0.930 . S
N710 Eu672 2.609 . S
N710 C712 1.377 . S
N710 C713 1.321 . S
C711 H697 0.930 1_455 S
C711 C713 1.400 . S
C711 C714 1.386 . S
C712 C708 1.429 . S
C712 N710 1.377 . S
C712 C715 1.411 . S
C713 H695 0.930 . S
C713 N710 1.321 . S
C713 C711 1.400 . S
C714 H709 0.930 . S
C714 C711 1.386 . S
C714 C715 1.395 . S
C715 C712 1.411 . S
C715 C714 1.395 . S
C715 C737 1.420 . S
O716 Eu672 2.558 . S
O716 C736 1.257 . S
O717 Eu672 2.612 . S
O717 Eu683 2.380 . S
O717 C728 1.276 . S
O718 Eu683 2.432 . S
O718 C735 1.264 . S
O719 Eu672 2.339 . S
O719 C735 1.254 . S
O720 Eu672 2.563 . S
O720 C728 1.235 . S
O721 Eu672 2.419 . S
O721 C736 1.249 . S
O722 Eu683 2.558 1_565 S
O722 C747 1.257 . S
O723 Eu672 2.380 . S
O723 Eu683 2.612 . S
O723 C739 1.276 . S
O724 Eu672 2.432 . S
O724 C746 1.264 . S
O725 Eu683 2.339 . S
O725 C746 1.254 . S
O726 Eu683 2.563 . S
O726 C739 1.235 . S
O727 Eu683 2.419 1_565 S
O727 C747 1.249 . S
C728 O717 1.276 . S
C728 O720 1.235 . S
C729 C731 1.393 . S
C729 C733 1.395 . S
C729 C736 1.492 . S
C730 C731 1.392 . S
C730 C732 1.386 . S
C731 C729 1.393 . S
C731 C730 1.392 . S
C731 H748 0.930 . S
C732 C730 1.386 . S
C732 C734 1.395 . S
C732 H749 0.930 . S
C733 C729 1.395 . S
C733 C734 1.379 . S
C733 H750 0.930 . S
C734 C732 1.395 . S
C734 C733 1.379 . S
C734 H751 0.930 . S
C735 O718 1.264 . S
C735 O719 1.254 . S
C736 Eu672 2.848 . S
C736 O716 1.257 . S
C736 O721 1.249 . S
C736 C729 1.492 . S
C737 H702 0.931 . S
C737 C715 1.420 . S
C737 C738 1.351 . S
C738 H700 0.930 . S
C738 C706 1.423 . S
C738 C737 1.351 . S
C739 O723 1.276 . S
C739 O726 1.235 . S
C740 C741 1.393 . S
C740 C744 1.395 . S
C740 C747 1.492 . S
C741 C740 1.393 . S
C741 C742 1.392 . S
C741 H752 0.930 . S
C742 C741 1.392 . S
C742 C743 1.386 . S
C743 C742 1.386 . S
C743 C745 1.395 . S
C743 H753 0.930 . S
C744 C740 1.395 . S
C744 C745 1.379 . S
C744 H754 0.930 . S
C745 C743 1.395 . S
C745 C744 1.379 . S
C745 H755 0.930 . S
C746 O724 1.264 . S
C746 O725 1.254 . S
C747 Eu683 2.848 1_565 S
C747 O722 1.257 . S
C747 O727 1.249 . S
C747 C740 1.492 . S
H748 C731 0.930 . S
H749 C732 0.930 . S
H750 C733 0.930 . S
H751 C734 0.930 . S
H752 C741 0.930 . S
H753 C743 0.930 . S
H754 C744 0.930 . S
H755 C745 0.930 . S
Eu756 N787 2.657 . S
Eu756 N794 2.609 . S
Eu756 O800 2.558 . S
Eu756 O801 2.612 . S
Eu756 O803 2.339 . S
Eu756 O804 2.563 . S
Eu756 O805 2.419 . S
Eu756 O807 2.380 . S
Eu756 O808 2.432 . S
Eu756 C820 2.848 . S
C757 C760 1.429 . S
C757 C761 1.411 . S
C757 N764 1.377 . S
C758 C760 1.420 . S
C758 C762 1.423 . S
C758 C770 1.392 . S
C759 C761 1.420 . S
C759 C762 1.351 . S
C759 H782 0.931 . S
C760 C757 1.429 . S
C760 C758 1.420 . S
C760 N768 1.362 . S
C761 C757 1.411 . S
C761 C759 1.420 . S
C761 C766 1.395 . S
C762 C758 1.423 . S
C762 C759 1.351 . S
C762 H774 0.930 . S
C763 C765 1.400 . S
C763 C766 1.386 . S
C763 H775 0.930 . S
N764 C757 1.377 . S
N764 C765 1.321 . S
N764 Eu767 2.609 . S
C765 C763 1.400 . S
C765 N764 1.321 . S
C765 H772 0.930 . S
C766 C761 1.395 . S
C766 C763 1.386 . S
C766 H785 0.930 . S
Eu767 N764 2.609 . S
Eu767 N768 2.657 . S
Eu767 O801 2.380 . S
Eu767 O802 2.432 . S
Eu767 O806 2.558 . S
Eu767 O807 2.612 . S
Eu767 O809 2.339 . S
Eu767 O810 2.563 . S
Eu767 O811 2.419 . S
Eu767 C831 2.848 . S
N768 C760 1.362 . S
N768 Eu767 2.657 . S
N768 C769 1.334 . S
C769 N768 1.334 . S
C769 C771 1.413 . S
C769 H776 0.929 . S
C770 C758 1.392 . S
C770 C771 1.367 . S
C770 H778 0.930 . S
C771 C769 1.413 . S
C771 C770 1.367 . S
C771 H773 0.930 . S
H772 C765 0.930 . S
H773 C771 0.930 . S
H774 C762 0.930 . S
H775 C763 0.930 . S
H776 C769 0.929 . S
H777 C791 0.930 . S
H778 C770 0.930 . S
H779 C797 0.930 . S
H780 C788 0.929 . S
H781 C795 0.930 . S
H782 C759 0.931 . S
H783 C789 0.930 . S
H784 C822 0.930 . S
H785 C766 0.930 . S
H786 C821 0.931 . S
N787 Eu756 2.657 . S
N787 C788 1.334 . S
N787 C792 1.362 . S
C788 H780 0.929 . S
C788 N787 1.334 . S
C788 C791 1.413 . S
C789 H783 0.930 . S
C789 C790 1.392 . S
C789 C791 1.367 . S
C790 C789 1.392 . S
C790 C792 1.420 . S
C790 C822 1.423 . S
C791 H777 0.930 . S
C791 C788 1.413 . S
C791 C789 1.367 . S
C792 N787 1.362 . S
C792 C790 1.420 . S
C792 C796 1.429 . S
H793 C798 0.930 . S
N794 Eu756 2.609 . S
N794 C796 1.377 . S
N794 C797 1.321 . S
C795 H781 0.930 . S
C795 C797 1.400 . S
C795 C798 1.386 . S
C796 C792 1.429 . S
C796 N794 1.377 . S
C796 C799 1.411 . S
C797 H779 0.930 . S
C797 N794 1.321 . S
C797 C795 1.400 . S
C798 H793 0.930 . S
C798 C795 1.386 . S
C798 C799 1.395 . S
C799 C796 1.411 . S
C799 C798 1.395 . S
C799 C821 1.420 . S
O800 Eu756 2.558 . S
O800 C820 1.257 . S
O801 Eu756 2.612 . S
O801 Eu767 2.380 . S
O801 C812 1.276 . S
O802 Eu767 2.432 . S
O802 C819 1.264 . S
O803 Eu756 2.339 . S
O803 C819 1.254 . S
O804 Eu756 2.563 . S
O804 C812 1.235 . S
O805 Eu756 2.419 . S
O805 C820 1.249 . S
O806 Eu767 2.558 . S
O806 C831 1.257 . S
O807 Eu756 2.380 . S
O807 Eu767 2.612 . S
O807 C823 1.276 . S
O808 Eu756 2.432 . S
O808 C830 1.264 . S
O809 Eu767 2.339 . S
O809 C830 1.254 . S
O810 Eu767 2.563 . S
O810 C823 1.235 . S
O811 Eu767 2.419 . S
O811 C831 1.249 . S
C812 O801 1.276 . S
C812 O804 1.235 . S
C813 C815 1.393 . S
C813 C817 1.395 . S
C813 C820 1.492 . S
C814 C815 1.392 . S
C814 C816 1.386 . S
C815 C813 1.393 . S
C815 C814 1.392 . S
C815 H832 0.930 . S
C816 C814 1.386 . S
C816 C818 1.395 . S
C816 H833 0.930 . S
C817 C813 1.395 . S
C817 C818 1.379 . S
C817 H834 0.930 . S
C818 C816 1.395 . S
C818 C817 1.379 . S
C818 H835 0.930 . S
C819 O802 1.264 . S
C819 O803 1.254 . S
C820 Eu756 2.848 . S
C820 O800 1.257 . S
C820 O805 1.249 . S
C820 C813 1.492 . S
C821 H786 0.931 . S
C821 C799 1.420 . S
C821 C822 1.351 . S
C822 H784 0.930 . S
C822 C790 1.423 . S
C822 C821 1.351 . S
C823 O807 1.276 . S
C823 O810 1.235 . S
C824 C825 1.393 . S
C824 C828 1.395 . S
C824 C831 1.492 . S
C825 C824 1.393 . S
C825 C826 1.392 . S
C825 H836 0.930 . S
C826 C825 1.392 . S
C826 C827 1.386 . S
C827 C826 1.386 . S
C827 C829 1.395 . S
C827 H837 0.930 . S
C828 C824 1.395 . S
C828 C829 1.379 . S
C828 H838 0.930 . S
C829 C827 1.395 . S
C829 C828 1.379 . S
C829 H839 0.930 . S
C830 O808 1.264 . S
C830 O809 1.254 . S
C831 Eu767 2.848 . S
C831 O806 1.257 . S
C831 O811 1.249 . S
C831 C824 1.492 . S
H832 C815 0.930 . S
H833 C816 0.930 . S
H834 C817 0.930 . S
H835 C818 0.930 . S
H836 C825 0.930 . S
H837 C827 0.930 . S
H838 C828 0.930 . S
H839 C829 0.930 . S
Eu840 N871 2.657 . S
Eu840 N878 2.609 . S
Eu840 O884 2.558 1_545 S
Eu840 O885 2.612 . S
Eu840 O887 2.339 . S
Eu840 O888 2.563 . S
Eu840 O889 2.419 . S
Eu840 O891 2.380 . S
Eu840 O892 2.432 1_545 S
Eu840 C904 2.848 . S
C841 C844 1.429 . S
C841 C845 1.411 . S
C841 N848 1.377 . S
C842 C844 1.420 . S
C842 C846 1.423 . S
C842 C854 1.392 1_545 S
C843 C845 1.420 . S
C843 C846 1.351 . S
C843 H866 0.931 . S
C844 C841 1.429 . S
C844 C842 1.420 . S
C844 N852 1.362 . S
C845 C841 1.411 . S
C845 C843 1.420 . S
C845 C850 1.395 . S
C846 C842 1.423 . S
C846 C843 1.351 . S
C846 H858 0.930 . S
C847 C849 1.400 . S
C847 C850 1.386 . S
C847 H859 0.930 . S
N848 C841 1.377 . S
N848 C849 1.321 . S
N848 Eu851 2.609 . S
C849 C847 1.400 . S
C849 N848 1.321 . S
C849 H856 0.930 . S
C850 C845 1.395 . S
C850 C847 1.386 . S
C850 H869 0.930 . S
Eu851 N848 2.609 . S
Eu851 N852 2.657 . S
Eu851 O885 2.380 1_556 S
Eu851 O886 2.432 1_556 S
Eu851 O890 2.558 . S
Eu851 O891 2.612 1_556 S
Eu851 O893 2.339 . S
Eu851 O894 2.563 1_556 S
Eu851 O895 2.419 . S
Eu851 C915 2.848 . S
N852 C844 1.362 . S
N852 Eu851 2.657 . S
N852 C853 1.334 1_545 S
C853 N852 1.334 1_565 S
C853 C855 1.413 . S
C853 H860 0.929 . S
C854 C842 1.392 1_565 S
C854 C855 1.367 . S
C854 H862 0.930 . S
C855 C853 1.413 . S
C855 C854 1.367 . S
C855 H857 0.930 . S
H856 C849 0.930 . S
H857 C855 0.930 . S
H858 C846 0.930 . S
H859 C847 0.930 . S
H860 C853 0.929 . S
H861 C875 0.930 . S
H862 C854 0.930 . S
H863 C881 0.930 . S
H864 C872 0.929 . S
H865 C879 0.930 . S
H866 C843 0.931 . S
H867 C873 0.930 . S
H868 C906 0.930 . S
H869 C850 0.930 . S
H870 C905 0.931 . S
N871 Eu840 2.657 . S
N871 C872 1.334 . S
N871 C876 1.362 . S
C872 H864 0.929 . S
C872 N871 1.334 . S
C872 C875 1.413 . S
C873 H867 0.930 . S
C873 C874 1.392 . S
C873 C875 1.367 . S
C874 C873 1.392 . S
C874 C876 1.420 . S
C874 C906 1.423 . S
C875 H861 0.930 . S
C875 C872 1.413 . S
C875 C873 1.367 . S
C876 N871 1.362 . S
C876 C874 1.420 . S
C876 C880 1.429 . S
H877 C882 0.930 . S
N878 Eu840 2.609 . S
N878 C880 1.377 . S
N878 C881 1.321 1_545 S
C879 H865 0.930 . S
C879 C881 1.400 . S
C879 C882 1.386 . S
C880 C876 1.429 . S
C880 N878 1.377 . S
C880 C883 1.411 . S
C881 H863 0.930 . S
C881 N878 1.321 1_565 S
C881 C879 1.400 . S
C882 H877 0.930 . S
C882 C879 1.386 . S
C882 C883 1.395 1_565 S
C883 C880 1.411 . S
C883 C882 1.395 1_545 S
C883 C905 1.420 . S
O884 Eu840 2.558 1_565 S
O884 C904 1.257 1_565 S
O885 Eu840 2.612 . S
O885 Eu851 2.380 1_554 S
O885 C896 1.276 . S
O886 Eu851 2.432 1_554 S
O886 C903 1.264 . S
O887 Eu840 2.339 . S
O887 C903 1.254 . S
O888 Eu840 2.563 . S
O888 C896 1.235 . S
O889 Eu840 2.419 . S
O889 C904 1.249 . S
O890 Eu851 2.558 . S
O890 C915 1.257 . S
O891 Eu840 2.380 . S
O891 Eu851 2.612 1_554 S
O891 C907 1.276 . S
O892 Eu840 2.432 1_565 S
O892 C914 1.264 . S
O893 Eu851 2.339 . S
O893 C914 1.254 1_546 S
O894 Eu851 2.563 1_554 S
O894 C907 1.235 . S
O895 Eu851 2.419 . S
O895 C915 1.249 . S
C896 O885 1.276 . S
C896 O888 1.235 . S
C897 C899 1.393 . S
C897 C901 1.395 1_545 S
C897 C904 1.492 . S
C898 C899 1.392 . S
C898 C900 1.386 1_545 S
C899 C897 1.393 . S
C899 C898 1.392 . S
C899 H916 0.930 . S
C900 C898 1.386 1_565 S
C900 C902 1.395 . S
C900 H917 0.930 . S
C901 C897 1.395 1_565 S
C901 C902 1.379 . S
C901 H918 0.930 . S
C902 C900 1.395 . S
C902 C901 1.379 . S
C902 H919 0.930 . S
C903 O886 1.264 . S
C903 O887 1.254 . S
C904 Eu840 2.848 . S
C904 O884 1.257 1_545 S
C904 O889 1.249 . S
C904 C897 1.492 . S
C905 H870 0.931 . S
C905 C883 1.420 . S
C905 C906 1.351 . S
C906 H868 0.930 . S
C906 C874 1.423 . S
C906 C905 1.351 . S
C907 O891 1.276 . S
C907 O894 1.235 . S
C908 C909 1.393 . S
C908 C912 1.395 . S
C908 C915 1.492 . S
C909 C908 1.393 . S
C909 C910 1.392 . S
C909 H920 0.930 . S
C910 C909 1.392 . S
C910 C911 1.386 . S
C911 C910 1.386 . S
C911 C913 1.395 . S
C911 H921 0.930 . S
C912 C908 1.395 . S
C912 C913 1.379 . S
C912 H922 0.930 . S
C913 C911 1.395 . S
C913 C912 1.379 . S
C913 H923 0.930 . S
C914 O892 1.264 . S
C914 O893 1.254 1_564 S
C915 Eu851 2.848 . S
C915 O890 1.257 . S
C915 O895 1.249 . S
C915 C908 1.492 . S
H916 C899 0.930 . S
H917 C900 0.930 . S
H918 C901 0.930 . S
H919 C902 0.930 . S
H920 C909 0.930 . S
H921 C911 0.930 . S
H922 C912 0.930 . S
H923 C913 0.930 . S
Eu924 N955 2.657 . S
Eu924 N962 2.609 . S
Eu924 O968 2.558 . S
Eu924 O969 2.612 . S
Eu924 O971 2.339 . S
Eu924 O972 2.563 . S
Eu924 O973 2.419 . S
Eu924 O975 2.380 . S
Eu924 O976 2.432 . S
Eu924 C988 2.848 . S
C925 C928 1.429 . S
C925 C929 1.411 . S
C925 N932 1.377 . S
C926 C928 1.420 . S
C926 C930 1.423 . S
C926 C938 1.392 . S
C927 C929 1.420 . S
C927 C930 1.351 . S
C927 H950 0.931 . S
C928 C925 1.429 . S
C928 C926 1.420 . S
C928 N936 1.362 . S
C929 C925 1.411 . S
C929 C927 1.420 . S
C929 C934 1.395 . S
C930 C926 1.423 . S
C930 C927 1.351 . S
C930 H942 0.930 . S
C931 C933 1.400 . S
C931 C934 1.386 . S
C931 H943 0.930 . S
N932 C925 1.377 . S
N932 C933 1.321 . S
N932 Eu935 2.609 . S
C933 C931 1.400 . S
C933 N932 1.321 . S
C933 H940 0.930 . S
C934 C929 1.395 . S
C934 C931 1.386 . S
C934 H953 0.930 . S
Eu935 N932 2.609 . S
Eu935 N936 2.657 . S
Eu935 O969 2.380 . S
Eu935 O970 2.432 . S
Eu935 O974 2.558 . S
Eu935 O975 2.612 . S
Eu935 O977 2.339 . S
Eu935 O978 2.563 . S
Eu935 O979 2.419 . S
Eu935 C999 2.848 . S
N936 C928 1.362 . S
N936 Eu935 2.657 . S
N936 C937 1.334 . S
C937 N936 1.334 . S
C937 C939 1.413 . S
C937 H944 0.929 . S
C938 C926 1.392 . S
C938 C939 1.367 . S
C938 H946 0.930 . S
C939 C937 1.413 . S
C939 C938 1.367 . S
C939 H941 0.930 . S
H940 C933 0.930 . S
H941 C939 0.930 . S
H942 C930 0.930 . S
H943 C931 0.930 . S
H944 C937 0.929 . S
H945 C959 0.930 . S
H946 C938 0.930 . S
H947 C965 0.930 . S
H948 C956 0.929 . S
H949 C963 0.930 . S
H950 C927 0.931 . S
H951 C957 0.930 . S
H952 C990 0.930 . S
H953 C934 0.930 . S
H954 C989 0.931 . S
N955 Eu924 2.657 . S
N955 C956 1.334 . S
N955 C960 1.362 . S
C956 H948 0.929 . S
C956 N955 1.334 . S
C956 C959 1.413 . S
C957 H951 0.930 . S
C957 C958 1.392 . S
C957 C959 1.367 . S
C958 C957 1.392 . S
C958 C960 1.420 . S
C958 C990 1.423 . S
C959 H945 0.930 . S
C959 C956 1.413 . S
C959 C957 1.367 . S
C960 N955 1.362 . S
C960 C958 1.420 . S
C960 C964 1.429 . S
H961 C966 0.930 . S
N962 Eu924 2.609 . S
N962 C964 1.377 . S
N962 C965 1.321 . S
C963 H949 0.930 . S
C963 C965 1.400 . S
C963 C966 1.386 . S
C964 C960 1.429 . S
C964 N962 1.377 . S
C964 C967 1.411 . S
C965 H947 0.930 . S
C965 N962 1.321 . S
C965 C963 1.400 . S
C966 H961 0.930 . S
C966 C963 1.386 . S
C966 C967 1.395 . S
C967 C964 1.411 . S
C967 C966 1.395 . S
C967 C989 1.420 . S
O968 Eu924 2.558 . S
O968 C988 1.257 . S
O969 Eu924 2.612 . S
O969 Eu935 2.380 . S
O969 C980 1.276 . S
O970 Eu935 2.432 . S
O970 C987 1.264 . S
O971 Eu924 2.339 . S
O971 C987 1.254 . S
O972 Eu924 2.563 . S
O972 C980 1.235 . S
O973 Eu924 2.419 . S
O973 C988 1.249 . S
O974 Eu935 2.558 . S
O974 C999 1.257 . S
O975 Eu924 2.380 . S
O975 Eu935 2.612 . S
O975 C991 1.276 . S
O976 Eu924 2.432 . S
O976 C998 1.264 . S
O977 Eu935 2.339 . S
O977 C998 1.254 . S
O978 Eu935 2.563 . S
O978 C991 1.235 . S
O979 Eu935 2.419 . S
O979 C999 1.249 . S
C980 O969 1.276 . S
C980 O972 1.235 . S
C981 C983 1.393 . S
C981 C985 1.395 . S
C981 C988 1.492 . S
C982 C983 1.392 . S
C982 C984 1.386 . S
C983 C981 1.393 . S
C983 C982 1.392 . S
C983 H1000 0.930 . S
C984 C982 1.386 . S
C984 C986 1.395 . S
C984 H1001 0.930 . S
C985 C981 1.395 . S
C985 C986 1.379 . S
C985 H1002 0.930 . S
C986 C984 1.395 . S
C986 C985 1.379 . S
C986 H1003 0.930 . S
C987 O970 1.264 . S
C987 O971 1.254 . S
C988 Eu924 2.848 . S
C988 O968 1.257 . S
C988 O973 1.249 . S
C988 C981 1.492 . S
C989 H954 0.931 . S
C989 C967 1.420 . S
C989 C990 1.351 . S
C990 H952 0.930 . S
C990 C958 1.423 . S
C990 C989 1.351 . S
C991 O975 1.276 . S
C991 O978 1.235 . S
C992 C993 1.393 . S
C992 C996 1.395 . S
C992 C999 1.492 . S
C993 C992 1.393 . S
C993 C994 1.392 . S
C993 H1004 0.930 . S
C994 C993 1.392 . S
C994 C995 1.386 . S
C995 C994 1.386 . S
C995 C997 1.395 . S
C995 H1005 0.930 . S
C996 C992 1.395 . S
C996 C997 1.379 . S
C996 H1006 0.930 . S
C997 C995 1.395 . S
C997 C996 1.379 . S
C997 H1007 0.930 . S
C998 O976 1.264 . S
C998 O977 1.254 . S
C999 Eu935 2.848 . S
C999 O974 1.257 . S
C999 O979 1.249 . S
C999 C992 1.492 . S
H1000 C983 0.930 . S
H1001 C984 0.930 . S
H1002 C985 0.930 . S
H1003 C986 0.930 . S
H1004 C993 0.930 . S
H1005 C995 0.930 . S
H1006 C996 0.930 . S
H1007 C997 0.930 . S
Eu1008 N1039 2.657 . S
Eu1008 N1046 2.609 . S
Eu1008 O1052 2.558 . S
Eu1008 O1053 2.612 1_554 S
Eu1008 O1055 2.339 . S
Eu1008 O1056 2.563 1_554 S
Eu1008 O1057 2.419 . S
Eu1008 O1059 2.380 . S
Eu1008 O1060 2.432 . S
Eu1008 C1072 2.848 . S
C1009 C1012 1.429 . S
C1009 C1013 1.411 . S
C1009 N1016 1.377 . S
C1010 C1012 1.420 . S
C1010 C1014 1.423 . S
C1010 C1022 1.392 . S
C1011 C1013 1.420 . S
C1011 C1014 1.351 . S
C1011 H1034 0.931 . S
C1012 C1009 1.429 . S
C1012 C1010 1.420 . S
C1012 N1020 1.362 . S
C1013 C1009 1.411 . S
C1013 C1011 1.420 . S
C1013 C1018 1.395 . S
C1014 C1010 1.423 . S
C1014 C1011 1.351 . S
C1014 H1026 0.930 . S
C1015 C1017 1.400 . S
C1015 C1018 1.386 . S
C1015 H1027 0.930 . S
N1016 C1009 1.377 . S
N1016 C1017 1.321 . S
N1016 Eu1019 2.609 1_556 S
C1017 C1015 1.400 . S
C1017 N1016 1.321 . S
C1017 H1024 0.930 . S
C1018 C1013 1.395 . S
C1018 C1015 1.386 . S
C1018 H1037 0.930 . S
Eu1019 N1016 2.609 1_554 S
Eu1019 N1020 2.657 1_554 S
Eu1019 O1053 2.380 1_554 S
Eu1019 O1054 2.432 . S
Eu1019 O1058 2.558 . S
Eu1019 O1059 2.612 . S
Eu1019 O1061 2.339 . S
Eu1019 O1062 2.563 . S
Eu1019 O1063 2.419 . S
Eu1019 C1083 2.848 . S
N1020 C1012 1.362 . S
N1020 Eu1019 2.657 1_556 S
N1020 C1021 1.334 . S
C1021 N1020 1.334 . S
C1021 C1023 1.413 . S
C1021 H1028 0.929 . S
C1022 C1010 1.392 . S
C1022 C1023 1.367 . S
C1022 H1030 0.930 . S
C1023 C1021 1.413 . S
C1023 C1022 1.367 . S
C1023 H1025 0.930 . S
H1024 C1017 0.930 . S
H1025 C1023 0.930 . S
H1026 C1014 0.930 . S
H1027 C1015 0.930 . S
H1028 C1021 0.929 . S
H1029 C1043 0.930 . S
H1030 C1022 0.930 . S
H1031 C1049 0.930 . S
H1032 C1040 0.929 . S
H1033 C1047 0.930 . S
H1034 C1011 0.931 . S
H1035 C1041 0.930 . S
H1036 C1074 0.930 . S
H1037 C1018 0.930 . S
H1038 C1073 0.931 . S
N1039 Eu1008 2.657 . S
N1039 C1040 1.334 . S
N1039 C1044 1.362 . S
C1040 H1032 0.929 . S
C1040 N1039 1.334 . S
C1040 C1043 1.413 . S
C1041 H1035 0.930 . S
C1041 C1042 1.392 . S
C1041 C1043 1.367 . S
C1042 C1041 1.392 . S
C1042 C1044 1.420 . S
C1042 C1074 1.423 . S
C1043 H1029 0.930 . S
C1043 C1040 1.413 . S
C1043 C1041 1.367 . S
C1044 N1039 1.362 . S
C1044 C1042 1.420 . S
C1044 C1048 1.429 . S
H1045 C1050 0.930 . S
N1046 Eu1008 2.609 . S
N1046 C1048 1.377 . S
N1046 C1049 1.321 . S
C1047 H1033 0.930 . S
C1047 C1049 1.400 . S
C1047 C1050 1.386 . S
C1048 C1044 1.429 . S
C1048 N1046 1.377 . S
C1048 C1051 1.411 . S
C1049 H1031 0.930 . S
C1049 N1046 1.321 . S
C1049 C1047 1.400 . S
C1050 H1045 0.930 . S
C1050 C1047 1.386 . S
C1050 C1051 1.395 . S
C1051 C1048 1.411 . S
C1051 C1050 1.395 . S
C1051 C1073 1.420 . S
O1052 Eu1008 2.558 . S
O1052 C1072 1.257 . S
O1053 Eu1008 2.612 1_556 S
O1053 Eu1019 2.380 1_556 S
O1053 C1064 1.276 . S
O1054 Eu1019 2.432 . S
O1054 C1071 1.264 . S
O1055 Eu1008 2.339 . S
O1055 C1071 1.254 . S
O1056 Eu1008 2.563 1_556 S
O1056 C1064 1.235 . S
O1057 Eu1008 2.419 . S
O1057 C1072 1.249 . S
O1058 Eu1019 2.558 . S
O1058 C1083 1.257 . S
O1059 Eu1008 2.380 . S
O1059 Eu1019 2.612 . S
O1059 C1075 1.276 . S
O1060 Eu1008 2.432 . S
O1060 C1082 1.264 . S
O1061 Eu1019 2.339 . S
O1061 C1082 1.254 . S
O1062 Eu1019 2.563 . S
O1062 C1075 1.235 . S
O1063 Eu1019 2.419 . S
O1063 C1083 1.249 . S
C1064 O1053 1.276 . S
C1064 O1056 1.235 . S
C1065 C1067 1.393 . S
C1065 C1069 1.395 . S
C1065 C1072 1.492 . S
C1066 C1067 1.392 . S
C1066 C1068 1.386 . S
C1067 C1065 1.393 . S
C1067 C1066 1.392 . S
C1067 H1084 0.930 . S
C1068 C1066 1.386 . S
C1068 C1070 1.395 . S
C1068 H1085 0.930 . S
C1069 C1065 1.395 . S
C1069 C1070 1.379 . S
C1069 H1086 0.930 . S
C1070 C1068 1.395 . S
C1070 C1069 1.379 . S
C1070 H1087 0.930 . S
C1071 O1054 1.264 . S
C1071 O1055 1.254 . S
C1072 Eu1008 2.848 . S
C1072 O1052 1.257 . S
C1072 O1057 1.249 . S
C1072 C1065 1.492 . S
C1073 H1038 0.931 . S
C1073 C1051 1.420 . S
C1073 C1074 1.351 . S
C1074 H1036 0.930 . S
C1074 C1042 1.423 . S
C1074 C1073 1.351 . S
C1075 O1059 1.276 . S
C1075 O1062 1.235 . S
C1076 C1077 1.393 . S
C1076 C1080 1.395 . S
C1076 C1083 1.492 . S
C1077 C1076 1.393 . S
C1077 C1078 1.392 . S
C1077 H1088 0.930 . S
C1078 C1077 1.392 . S
C1078 C1079 1.386 . S
C1079 C1078 1.386 . S
C1079 C1081 1.395 . S
C1079 H1089 0.930 . S
C1080 C1076 1.395 . S
C1080 C1081 1.379 . S
C1080 H1090 0.930 . S
C1081 C1079 1.395 . S
C1081 C1080 1.379 . S
C1081 H1091 0.930 . S
C1082 O1060 1.264 . S
C1082 O1061 1.254 . S
C1083 Eu1019 2.848 . S
C1083 O1058 1.257 . S
C1083 O1063 1.249 . S
C1083 C1076 1.492 . S
H1084 C1067 0.930 . S
H1085 C1068 0.930 . S
H1086 C1069 0.930 . S
H1087 C1070 0.930 . S
H1088 C1077 0.930 . S
H1089 C1079 0.930 . S
H1090 C1080 0.930 . S
H1091 C1081 0.930 . S
Eu1092 N1123 2.657 . S
Eu1092 N1130 2.609 . S
Eu1092 O1136 2.558 . S
Eu1092 O1137 2.612 . S
Eu1092 O1139 2.339 . S
Eu1092 O1140 2.563 . S
Eu1092 O1141 2.419 . S
Eu1092 O1143 2.380 . S
Eu1092 O1144 2.432 . S
Eu1092 C1156 2.848 . S
C1093 C1096 1.429 . S
C1093 C1097 1.411 . S
C1093 N1100 1.377 . S
C1094 C1096 1.420 . S
C1094 C1098 1.423 . S
C1094 C1106 1.392 . S
C1095 C1097 1.420 . S
C1095 C1098 1.351 . S
C1095 H1118 0.931 . S
C1096 C1093 1.429 . S
C1096 C1094 1.420 . S
C1096 N1104 1.362 . S
C1097 C1093 1.411 . S
C1097 C1095 1.420 . S
C1097 C1102 1.395 . S
C1098 C1094 1.423 . S
C1098 C1095 1.351 . S
C1098 H1110 0.930 . S
C1099 C1101 1.400 . S
C1099 C1102 1.386 . S
C1099 H1111 0.930 . S
N1100 C1093 1.377 . S
N1100 C1101 1.321 . S
N1100 Eu1103 2.609 . S
C1101 C1099 1.400 . S
C1101 N1100 1.321 . S
C1101 H1108 0.930 . S
C1102 C1097 1.395 . S
C1102 C1099 1.386 . S
C1102 H1121 0.930 . S
Eu1103 N1100 2.609 . S
Eu1103 N1104 2.657 . S
Eu1103 O1137 2.380 . S
Eu1103 O1138 2.432 . S
Eu1103 O1142 2.558 . S
Eu1103 O1143 2.612 . S
Eu1103 O1145 2.339 . S
Eu1103 O1146 2.563 . S
Eu1103 O1147 2.419 . S
Eu1103 C1167 2.848 . S
N1104 C1096 1.362 . S
N1104 Eu1103 2.657 . S
N1104 C1105 1.334 . S
C1105 N1104 1.334 . S
C1105 C1107 1.413 . S
C1105 H1112 0.929 . S
C1106 C1094 1.392 . S
C1106 C1107 1.367 . S
C1106 H1114 0.930 . S
C1107 C1105 1.413 . S
C1107 C1106 1.367 . S
C1107 H1109 0.930 . S
H1108 C1101 0.930 . S
H1109 C1107 0.930 . S
H1110 C1098 0.930 . S
H1111 C1099 0.930 . S
H1112 C1105 0.929 . S
H1113 C1127 0.930 . S
H1114 C1106 0.930 . S
H1115 C1133 0.930 . S
H1116 C1124 0.929 . S
H1117 C1131 0.930 . S
H1118 C1095 0.931 . S
H1119 C1125 0.930 . S
H1120 C1158 0.930 . S
H1121 C1102 0.930 . S
H1122 C1157 0.931 . S
N1123 Eu1092 2.657 . S
N1123 C1124 1.334 . S
N1123 C1128 1.362 . S
C1124 H1116 0.929 . S
C1124 N1123 1.334 . S
C1124 C1127 1.413 . S
C1125 H1119 0.930 . S
C1125 C1126 1.392 . S
C1125 C1127 1.367 . S
C1126 C1125 1.392 . S
C1126 C1128 1.420 . S
C1126 C1158 1.423 . S
C1127 H1113 0.930 . S
C1127 C1124 1.413 . S
C1127 C1125 1.367 . S
C1128 N1123 1.362 . S
C1128 C1126 1.420 . S
C1128 C1132 1.429 . S
H1129 C1134 0.930 . S
N1130 Eu1092 2.609 . S
N1130 C1132 1.377 . S
N1130 C1133 1.321 . S
C1131 H1117 0.930 . S
C1131 C1133 1.400 . S
C1131 C1134 1.386 . S
C1132 C1128 1.429 . S
C1132 N1130 1.377 . S
C1132 C1135 1.411 . S
C1133 H1115 0.930 . S
C1133 N1130 1.321 . S
C1133 C1131 1.400 . S
C1134 H1129 0.930 . S
C1134 C1131 1.386 . S
C1134 C1135 1.395 . S
C1135 C1132 1.411 . S
C1135 C1134 1.395 . S
C1135 C1157 1.420 . S
O1136 Eu1092 2.558 . S
O1136 C1156 1.257 . S
O1137 Eu1092 2.612 . S
O1137 Eu1103 2.380 . S
O1137 C1148 1.276 . S
O1138 Eu1103 2.432 . S
O1138 C1155 1.264 . S
O1139 Eu1092 2.339 . S
O1139 C1155 1.254 . S
O1140 Eu1092 2.563 . S
O1140 C1148 1.235 . S
O1141 Eu1092 2.419 . S
O1141 C1156 1.249 . S
O1142 Eu1103 2.558 . S
O1142 C1167 1.257 . S
O1143 Eu1092 2.380 . S
O1143 Eu1103 2.612 . S
O1143 C1159 1.276 . S
O1144 Eu1092 2.432 . S
O1144 C1166 1.264 . S
O1145 Eu1103 2.339 . S
O1145 C1166 1.254 . S
O1146 Eu1103 2.563 . S
O1146 C1159 1.235 . S
O1147 Eu1103 2.419 . S
O1147 C1167 1.249 . S
C1148 O1137 1.276 . S
C1148 O1140 1.235 . S
C1149 C1151 1.393 . S
C1149 C1153 1.395 . S
C1149 C1156 1.492 . S
C1150 C1151 1.392 . S
C1150 C1152 1.386 . S
C1151 C1149 1.393 . S
C1151 C1150 1.392 . S
C1151 H1168 0.930 . S
C1152 C1150 1.386 . S
C1152 C1154 1.395 . S
C1152 H1169 0.938 . S
C1153 C1149 1.395 . S
C1153 C1154 1.379 . S
C1153 H1170 0.930 . S
C1154 C1152 1.395 . S
C1154 C1153 1.379 . S
C1154 H1171 0.930 . S
C1155 O1138 1.264 . S
C1155 O1139 1.254 . S
C1156 Eu1092 2.848 . S
C1156 O1136 1.257 . S
C1156 O1141 1.249 . S
C1156 C1149 1.492 . S
C1157 H1122 0.931 . S
C1157 C1135 1.420 . S
C1157 C1158 1.351 . S
C1158 H1120 0.930 . S
C1158 C1126 1.423 . S
C1158 C1157 1.351 . S
C1159 O1143 1.276 . S
C1159 O1146 1.235 . S
C1160 C1161 1.393 . S
C1160 C1164 1.395 . S
C1160 C1167 1.492 . S
C1161 C1160 1.393 . S
C1161 C1162 1.392 . S
C1161 H1172 0.930 . S
C1162 C1161 1.392 . S
C1162 C1163 1.386 . S
C1163 C1162 1.386 . S
C1163 C1165 1.395 . S
C1163 H1173 0.930 . S
C1164 C1160 1.395 . S
C1164 C1165 1.379 . S
C1164 H1174 0.930 . S
C1165 C1163 1.395 . S
C1165 C1164 1.379 . S
C1165 H1175 0.930 . S
C1166 O1144 1.264 . S
C1166 O1145 1.254 . S
C1167 Eu1103 2.848 . S
C1167 O1142 1.257 . S
C1167 O1147 1.249 . S
C1167 C1160 1.492 . S
H1168 C1151 0.930 . S
H1169 C1152 0.938 . S
H1170 C1153 0.930 . S
H1171 C1154 0.930 . S
H1172 C1161 0.930 . S
H1173 C1163 0.930 . S
H1174 C1164 0.930 . S
H1175 C1165 0.930 . S
Eu1176 N1207 2.657 . S
Eu1176 N1214 2.609 . S
Eu1176 O1220 2.558 . S
Eu1176 O1221 2.612 . S
Eu1176 O1223 2.339 . S
Eu1176 O1224 2.563 . S
Eu1176 O1225 2.419 . S
Eu1176 O1227 2.380 . S
Eu1176 O1228 2.432 . S
Eu1176 C1240 2.848 . S
C1177 C1180 1.429 . S
C1177 C1181 1.411 1_455 S
C1177 N1184 1.377 . S
C1178 C1180 1.420 1_655 S
C1178 C1182 1.423 . S
C1178 C1190 1.392 . S
C1179 C1181 1.420 . S
C1179 C1182 1.351 . S
C1179 H1202 0.931 . S
C1180 C1177 1.429 . S
C1180 C1178 1.420 1_455 S
C1180 N1188 1.362 . S
C1181 C1177 1.411 1_655 S
C1181 C1179 1.420 . S
C1181 C1186 1.395 . S
C1182 C1178 1.423 . S
C1182 C1179 1.351 . S
C1182 H1194 0.930 . S
C1183 C1185 1.400 . S
C1183 C1186 1.386 1_455 S
C1183 H1195 0.930 . S
N1184 C1177 1.377 . S
N1184 C1185 1.321 . S
N1184 Eu1187 2.609 . S
C1185 C1183 1.400 . S
C1185 N1184 1.321 . S
C1185 H1192 0.930 . S
C1186 C1181 1.395 . S
C1186 C1183 1.386 1_655 S
C1186 H1205 0.930 . S
Eu1187 N1184 2.609 . S
Eu1187 N1188 2.657 . S
Eu1187 O1221 2.380 . S
Eu1187 O1222 2.432 . S
Eu1187 O1226 2.558 . S
Eu1187 O1227 2.612 . S
Eu1187 O1229 2.339 . S
Eu1187 O1230 2.563 . S
Eu1187 O1231 2.419 . S
Eu1187 C1251 2.848 . S
N1188 C1180 1.362 . S
N1188 Eu1187 2.657 . S
N1188 C1189 1.334 . S
C1189 N1188 1.334 . S
C1189 C1191 1.391 1_455 S
C1189 H1196 0.929 . S
C1190 C1178 1.392 . S
C1190 C1191 1.398 . S
C1190 H1198 0.930 . S
C1191 C1189 1.391 1_655 S
C1191 C1190 1.398 . S
C1191 H1193 0.924 . S
H1192 C1185 0.930 . S
H1193 C1191 0.924 . S
H1194 C1182 0.930 . S
H1195 C1183 0.930 . S
H1196 C1189 0.929 . S
H1197 C1211 0.930 . S
H1198 C1190 0.930 . S
H1199 C1217 0.930 . S
H1200 C1208 0.929 . S
H1201 C1215 0.930 . S
H1202 C1179 0.931 . S
H1203 C1209 0.930 . S
H1204 C1242 0.930 . S
H1205 C1186 0.930 . S
H1206 C1241 0.931 . S
N1207 Eu1176 2.657 . S
N1207 C1208 1.334 . S
N1207 C1212 1.362 . S
C1208 H1200 0.929 . S
C1208 N1207 1.334 . S
C1208 C1211 1.413 . S
C1209 H1203 0.930 . S
C1209 C1210 1.392 . S
C1209 C1211 1.367 . S
C1210 C1209 1.392 . S
C1210 C1212 1.420 . S
C1210 C1242 1.423 . S
C1211 H1197 0.930 . S
C1211 C1208 1.413 . S
C1211 C1209 1.367 . S
C1212 N1207 1.362 . S
C1212 C1210 1.420 . S
C1212 C1216 1.429 . S
H1213 C1218 0.930 . S
N1214 Eu1176 2.609 . S
N1214 C1216 1.377 . S
N1214 C1217 1.321 . S
C1215 H1201 0.930 . S
C1215 C1217 1.400 . S
C1215 C1218 1.386 . S
C1216 C1212 1.429 . S
C1216 N1214 1.377 . S
C1216 C1219 1.411 . S
C1217 H1199 0.930 . S
C1217 N1214 1.321 . S
C1217 C1215 1.400 . S
C1218 H1213 0.930 . S
C1218 C1215 1.386 . S
C1218 C1219 1.395 . S
C1219 C1216 1.411 . S
C1219 C1218 1.395 . S
C1219 C1241 1.420 . S
O1220 Eu1176 2.558 . S
O1220 C1240 1.257 . S
O1221 Eu1176 2.612 . S
O1221 Eu1187 2.380 . S
O1221 C1232 1.276 . S
O1222 Eu1187 2.432 . S
O1222 C1239 1.264 . S
O1223 Eu1176 2.339 . S
O1223 C1239 1.254 . S
O1224 Eu1176 2.563 . S
O1224 C1232 1.235 . S
O1225 Eu1176 2.419 . S
O1225 C1240 1.249 . S
O1226 Eu1187 2.558 . S
O1226 C1251 1.257 . S
O1227 Eu1176 2.380 . S
O1227 Eu1187 2.612 . S
O1227 C1243 1.276 . S
O1228 Eu1176 2.432 . S
O1228 C1250 1.264 . S
O1229 Eu1187 2.339 . S
O1229 C1250 1.254 . S
O1230 Eu1187 2.563 . S
O1230 C1243 1.235 . S
O1231 Eu1187 2.419 . S
O1231 C1251 1.249 . S
C1232 O1221 1.276 . S
C1232 O1224 1.235 . S
C1233 C1235 1.393 . S
C1233 C1237 1.395 . S
C1233 C1240 1.492 . S
C1234 C1235 1.392 . S
C1234 C1236 1.386 . S
C1235 C1233 1.393 . S
C1235 C1234 1.392 . S
C1235 H1252 0.930 . S
C1236 C1234 1.386 . S
C1236 C1238 1.395 . S
C1236 H1253 0.930 . S
C1237 C1233 1.395 . S
C1237 C1238 1.379 . S
C1237 H1254 0.930 . S
C1238 C1236 1.395 . S
C1238 C1237 1.379 . S
C1238 H1255 0.930 . S
C1239 O1222 1.264 . S
C1239 O1223 1.254 . S
C1240 Eu1176 2.848 . S
C1240 O1220 1.257 . S
C1240 O1225 1.249 . S
C1240 C1233 1.492 . S
C1241 H1206 0.931 . S
C1241 C1219 1.420 . S
C1241 C1242 1.351 . S
C1242 H1204 0.930 . S
C1242 C1210 1.423 . S
C1242 C1241 1.351 . S
C1243 O1227 1.276 . S
C1243 O1230 1.235 . S
C1244 C1245 1.393 . S
C1244 C1248 1.395 . S
C1244 C1251 1.492 . S
C1245 C1244 1.393 . S
C1245 C1246 1.392 . S
C1245 H1256 0.930 . S
C1246 C1245 1.392 . S
C1246 C1247 1.386 . S
C1247 C1246 1.386 . S
C1247 C1249 1.395 . S
C1247 H1257 0.930 . S
C1248 C1244 1.395 . S
C1248 C1249 1.379 . S
C1248 H1258 0.930 . S
C1249 C1247 1.395 . S
C1249 C1248 1.379 . S
C1249 H1259 0.930 . S
C1250 O1228 1.264 . S
C1250 O1229 1.254 . S
C1251 Eu1187 2.848 . S
C1251 O1226 1.257 . S
C1251 O1231 1.249 . S
C1251 C1244 1.492 . S
H1252 C1235 0.930 . S
H1253 C1236 0.930 . S
H1254 C1237 0.930 . S
H1255 C1238 0.930 . S
H1256 C1245 0.930 . S
H1257 C1247 0.930 . S
H1258 C1248 0.930 . S
H1259 C1249 0.930 . S
Eu1260 N1291 2.657 . S
Eu1260 N1298 2.609 . S
Eu1260 O1304 2.558 . S
Eu1260 O1305 2.612 . S
Eu1260 O1307 2.339 . S
Eu1260 O1308 2.563 . S
Eu1260 O1309 2.419 . S
Eu1260 O1311 2.380 . S
Eu1260 O1312 2.432 . S
Eu1260 C1324 2.848 . S
C1261 C1264 1.429 . S
C1261 C1265 1.411 . S
C1261 N1268 1.377 . S
C1262 C1264 1.420 . S
C1262 C1266 1.423 . S
C1262 C1274 1.392 . S
C1263 C1265 1.420 . S
C1263 C1266 1.351 . S
C1263 H1286 0.931 . S
C1264 C1261 1.429 . S
C1264 C1262 1.420 . S
C1264 N1272 1.362 . S
C1265 C1261 1.411 . S
C1265 C1263 1.420 . S
C1265 C1270 1.395 . S
C1266 C1262 1.423 . S
C1266 C1263 1.351 . S
C1266 H1278 0.930 . S
C1267 C1269 1.400 . S
C1267 C1270 1.386 . S
C1267 H1279 0.930 . S
N1268 C1261 1.377 . S
N1268 C1269 1.321 . S
N1268 Eu1271 2.609 . S
C1269 C1267 1.400 . S
C1269 N1268 1.321 . S
C1269 H1276 0.930 . S
C1270 C1265 1.395 . S
C1270 C1267 1.386 . S
C1270 H1289 0.930 . S
Eu1271 N1268 2.609 . S
Eu1271 N1272 2.657 . S
Eu1271 O1305 2.380 . S
Eu1271 O1306 2.432 . S
Eu1271 O1310 2.558 . S
Eu1271 O1311 2.612 . S
Eu1271 O1313 2.339 . S
Eu1271 O1314 2.563 . S
Eu1271 O1315 2.419 . S
Eu1271 C1335 2.848 . S
N1272 C1264 1.362 . S
N1272 Eu1271 2.657 . S
N1272 C1273 1.334 . S
C1273 N1272 1.334 . S
C1273 C1275 1.413 . S
C1273 H1280 0.929 . S
C1274 C1262 1.392 . S
C1274 C1275 1.367 . S
C1274 H1282 0.930 . S
C1275 C1273 1.413 . S
C1275 C1274 1.367 . S
C1275 H1277 0.930 . S
H1276 C1269 0.930 . S
H1277 C1275 0.930 . S
H1278 C1266 0.930 . S
H1279 C1267 0.930 . S
H1280 C1273 0.929 . S
H1281 C1295 0.930 . S
H1282 C1274 0.930 . S
H1283 C1301 0.930 . S
H1284 C1292 0.929 . S
H1285 C1299 0.930 . S
H1286 C1263 0.931 . S
H1287 C1293 0.930 . S
H1288 C1326 0.930 . S
H1289 C1270 0.930 . S
H1290 C1325 0.931 . S
N1291 Eu1260 2.657 . S
N1291 C1292 1.334 . S
N1291 C1296 1.362 . S
C1292 H1284 0.929 . S
C1292 N1291 1.334 . S
C1292 C1295 1.413 . S
C1293 H1287 0.930 . S
C1293 C1294 1.392 . S
C1293 C1295 1.367 . S
C1294 C1293 1.392 . S
C1294 C1296 1.420 . S
C1294 C1326 1.423 . S
C1295 H1281 0.930 . S
C1295 C1292 1.413 . S
C1295 C1293 1.367 . S
C1296 N1291 1.362 . S
C1296 C1294 1.420 . S
C1296 C1300 1.429 . S
H1297 C1302 0.930 . S
N1298 Eu1260 2.609 . S
N1298 C1300 1.377 . S
N1298 C1301 1.321 . S
C1299 H1285 0.930 . S
C1299 C1301 1.400 . S
C1299 C1302 1.386 . S
C1300 C1296 1.429 . S
C1300 N1298 1.377 . S
C1300 C1303 1.411 . S
C1301 H1283 0.930 . S
C1301 N1298 1.321 . S
C1301 C1299 1.400 . S
C1302 H1297 0.930 . S
C1302 C1299 1.386 . S
C1302 C1303 1.395 . S
C1303 C1300 1.411 . S
C1303 C1302 1.395 . S
C1303 C1325 1.420 . S
O1304 Eu1260 2.558 . S
O1304 C1324 1.257 . S
O1305 Eu1260 2.612 . S
O1305 Eu1271 2.380 . S
O1305 C1316 1.276 . S
O1306 Eu1271 2.432 . S
O1306 C1323 1.264 . S
O1307 Eu1260 2.339 . S
O1307 C1323 1.254 . S
O1308 Eu1260 2.563 . S
O1308 C1316 1.235 . S
O1309 Eu1260 2.419 . S
O1309 C1324 1.249 . S
O1310 Eu1271 2.558 . S
O1310 C1335 1.257 . S
O1311 Eu1260 2.380 . S
O1311 Eu1271 2.612 . S
O1311 C1327 1.276 . S
O1312 Eu1260 2.432 . S
O1312 C1334 1.264 . S
O1313 Eu1271 2.339 . S
O1313 C1334 1.254 . S
O1314 Eu1271 2.563 . S
O1314 C1327 1.235 . S
O1315 Eu1271 2.419 . S
O1315 C1335 1.249 . S
C1316 O1305 1.276 . S
C1316 O1308 1.235 . S
C1317 C1319 1.393 . S
C1317 C1321 1.395 . S
C1317 C1324 1.492 . S
C1318 C1319 1.392 . S
C1318 C1320 1.386 . S
C1319 C1317 1.393 . S
C1319 C1318 1.392 . S
C1319 H1336 0.930 . S
C1320 C1318 1.386 . S
C1320 C1322 1.395 . S
C1320 H1337 0.930 . S
C1321 C1317 1.395 . S
C1321 C1322 1.379 . S
C1321 H1338 0.930 . S
C1322 C1320 1.395 . S
C1322 C1321 1.379 . S
C1322 H1339 0.930 . S
C1323 O1306 1.264 . S
C1323 O1307 1.254 . S
C1324 Eu1260 2.848 . S
C1324 O1304 1.257 . S
C1324 O1309 1.249 . S
C1324 C1317 1.492 . S
C1325 H1290 0.931 . S
C1325 C1303 1.420 . S
C1325 C1326 1.351 . S
C1326 H1288 0.930 . S
C1326 C1294 1.423 . S
C1326 C1325 1.351 . S
C1327 O1311 1.276 . S
C1327 O1314 1.235 . S
C1328 C1329 1.393 . S
C1328 C1332 1.395 . S
C1328 C1335 1.492 . S
C1329 C1328 1.393 . S
C1329 C1330 1.392 . S
C1329 H1340 0.930 . S
C1330 C1329 1.392 . S
C1330 C1331 1.386 . S
C1331 C1330 1.386 . S
C1331 C1333 1.395 . S
C1331 H1341 0.930 . S
C1332 C1328 1.395 . S
C1332 C1333 1.379 . S
C1332 H1342 0.930 . S
C1333 C1331 1.395 . S
C1333 C1332 1.379 . S
C1333 H1343 0.930 . S
C1334 O1312 1.264 . S
C1334 O1313 1.254 . S
C1335 Eu1271 2.848 . S
C1335 O1310 1.257 . S
C1335 O1315 1.249 . S
C1335 C1328 1.492 . S
H1336 C1319 0.930 . S
H1337 C1320 0.930 . S
H1338 C1321 0.930 . S
H1339 C1322 0.930 . S
H1340 C1329 0.930 . S
H1341 C1331 0.930 . S
H1342 C1332 0.930 . S
H1343 C1333 0.930 . S
Eu1344 N1375 2.657 . S
Eu1344 N1382 2.609 . S
Eu1344 O1388 2.558 . S
Eu1344 O1389 2.612 . S
Eu1344 O1391 2.339 . S
Eu1344 O1392 2.563 . S
Eu1344 O1393 2.419 . S
Eu1344 O1395 2.380 . S
Eu1344 O1396 2.432 . S
Eu1344 C1408 2.848 . S
C1345 C1348 1.429 . S
C1345 C1349 1.411 . S
C1345 N1352 1.377 . S
C1346 C1348 1.420 . S
C1346 C1350 1.423 . S
C1346 C1358 1.392 . S
C1347 C1349 1.420 . S
C1347 C1350 1.351 . S
C1347 H1370 0.931 . S
C1348 C1345 1.429 . S
C1348 C1346 1.420 . S
C1348 N1356 1.362 . S
C1349 C1345 1.411 . S
C1349 C1347 1.420 . S
C1349 C1354 1.395 . S
C1350 C1346 1.423 . S
C1350 C1347 1.351 . S
C1350 H1362 0.930 . S
C1351 C1353 1.400 . S
C1351 C1354 1.386 . S
C1351 H1363 0.930 . S
N1352 C1345 1.377 . S
N1352 C1353 1.321 . S
N1352 Eu1355 2.609 . S
C1353 C1351 1.400 . S
C1353 N1352 1.321 . S
C1353 H1360 0.930 . S
C1354 C1349 1.395 . S
C1354 C1351 1.386 . S
C1354 H1373 0.930 . S
Eu1355 N1352 2.609 . S
Eu1355 N1356 2.657 . S
Eu1355 O1389 2.380 . S
Eu1355 O1390 2.432 . S
Eu1355 O1394 2.558 . S
Eu1355 O1395 2.612 . S
Eu1355 O1397 2.339 . S
Eu1355 O1398 2.563 . S
Eu1355 O1399 2.419 . S
Eu1355 C1419 2.848 . S
N1356 C1348 1.362 . S
N1356 Eu1355 2.657 . S
N1356 C1357 1.334 . S
C1357 N1356 1.334 . S
C1357 C1359 1.413 . S
C1357 H1364 0.929 . S
C1358 C1346 1.392 . S
C1358 C1359 1.367 . S
C1358 H1366 0.930 . S
C1359 C1357 1.413 . S
C1359 C1358 1.367 . S
C1359 H1361 0.930 . S
H1360 C1353 0.930 . S
H1361 C1359 0.930 . S
H1362 C1350 0.930 . S
H1363 C1351 0.930 . S
H1364 C1357 0.929 . S
H1365 C1379 0.930 . S
H1366 C1358 0.930 . S
H1367 C1385 0.930 . S
H1368 C1376 0.929 . S
H1369 C1383 0.930 . S
H1370 C1347 0.931 . S
H1371 C1377 0.930 . S
H1372 C1410 0.930 . S
H1373 C1354 0.930 . S
H1374 C1409 0.931 . S
N1375 Eu1344 2.657 . S
N1375 C1376 1.334 . S
N1375 C1380 1.362 . S
C1376 H1368 0.929 . S
C1376 N1375 1.334 . S
C1376 C1379 1.413 . S
C1377 H1371 0.930 . S
C1377 C1378 1.392 . S
C1377 C1379 1.367 . S
C1378 C1377 1.392 . S
C1378 C1380 1.420 . S
C1378 C1410 1.423 . S
C1379 H1365 0.930 . S
C1379 C1376 1.413 . S
C1379 C1377 1.367 . S
C1380 N1375 1.362 . S
C1380 C1378 1.420 . S
C1380 C1384 1.429 . S
H1381 C1386 0.930 . S
N1382 Eu1344 2.609 . S
N1382 C1384 1.377 . S
N1382 C1385 1.321 . S
C1383 H1369 0.930 . S
C1383 C1385 1.400 . S
C1383 C1386 1.386 . S
C1384 C1380 1.429 . S
C1384 N1382 1.377 . S
C1384 C1387 1.411 . S
C1385 H1367 0.930 . S
C1385 N1382 1.321 . S
C1385 C1383 1.400 . S
C1386 H1381 0.930 . S
C1386 C1383 1.386 . S
C1386 C1387 1.395 . S
C1387 C1384 1.411 . S
C1387 C1386 1.395 . S
C1387 C1409 1.420 . S
O1388 Eu1344 2.558 . S
O1388 C1408 1.257 . S
O1389 Eu1344 2.612 . S
O1389 Eu1355 2.380 . S
O1389 C1400 1.276 . S
O1390 Eu1355 2.432 . S
O1390 C1407 1.264 . S
O1391 Eu1344 2.339 . S
O1391 C1407 1.254 . S
O1392 Eu1344 2.563 . S
O1392 C1400 1.235 . S
O1393 Eu1344 2.419 . S
O1393 C1408 1.249 . S
O1394 Eu1355 2.558 . S
O1394 C1419 1.257 . S
O1395 Eu1344 2.380 . S
O1395 Eu1355 2.612 . S
O1395 C1411 1.276 . S
O1396 Eu1344 2.432 . S
O1396 C1418 1.264 . S
O1397 Eu1355 2.339 . S
O1397 C1418 1.254 . S
O1398 Eu1355 2.563 . S
O1398 C1411 1.235 . S
O1399 Eu1355 2.419 . S
O1399 C1419 1.249 . S
C1400 O1389 1.276 . S
C1400 O1392 1.235 . S
C1401 C1403 1.393 . S
C1401 C1405 1.395 . S
C1401 C1408 1.492 . S
C1402 C1403 1.392 . S
C1402 C1404 1.386 . S
C1403 C1401 1.393 . S
C1403 C1402 1.392 . S
C1403 H1420 0.930 . S
C1404 C1402 1.386 . S
C1404 C1406 1.395 . S
C1404 H1421 0.930 . S
C1405 C1401 1.395 . S
C1405 C1406 1.379 . S
C1405 H1422 0.930 . S
C1406 C1404 1.395 . S
C1406 C1405 1.379 . S
C1406 H1423 0.930 . S
C1407 O1390 1.264 . S
C1407 O1391 1.254 . S
C1408 Eu1344 2.848 . S
C1408 O1388 1.257 . S
C1408 O1393 1.249 . S
C1408 C1401 1.492 . S
C1409 H1374 0.931 . S
C1409 C1387 1.420 . S
C1409 C1410 1.351 . S
C1410 H1372 0.930 . S
C1410 C1378 1.423 . S
C1410 C1409 1.351 . S
C1411 O1395 1.276 . S
C1411 O1398 1.235 . S
C1412 C1413 1.393 . S
C1412 C1416 1.395 . S
C1412 C1419 1.492 . S
C1413 C1412 1.393 . S
C1413 C1414 1.392 . S
C1413 H1424 0.930 . S
C1414 C1413 1.392 . S
C1414 C1415 1.386 . S
C1415 C1414 1.386 . S
C1415 C1417 1.395 . S
C1415 H1425 0.930 . S
C1416 C1412 1.395 . S
C1416 C1417 1.379 . S
C1416 H1426 0.930 . S
C1417 C1415 1.395 . S
C1417 C1416 1.379 . S
C1417 H1427 0.930 . S
C1418 O1396 1.264 . S
C1418 O1397 1.254 . S
C1419 Eu1355 2.848 . S
C1419 O1394 1.257 . S
C1419 O1399 1.249 . S
C1419 C1412 1.492 . S
H1420 C1403 0.930 . S
H1421 C1404 0.930 . S
H1422 C1405 0.930 . S
H1423 C1406 0.930 . S
H1424 C1413 0.930 . S
H1425 C1415 0.930 . S
H1426 C1416 0.930 . S
H1427 C1417 0.930 . S
Eu1428 N1459 2.657 . S
Eu1428 N1466 2.609 . S
Eu1428 O1472 2.558 . S
Eu1428 O1473 2.612 . S
Eu1428 O1475 2.339 . S
Eu1428 O1476 2.563 . S
Eu1428 O1477 2.419 . S
Eu1428 O1479 2.380 . S
Eu1428 O1480 2.432 . S
Eu1428 C1492 2.848 . S
C1429 C1432 1.429 . S
C1429 C1433 1.411 . S
C1429 N1436 1.377 . S
C1430 C1432 1.420 . S
C1430 C1434 1.423 . S
C1430 C1442 1.392 . S
C1431 C1433 1.420 . S
C1431 C1434 1.351 . S
C1431 H1454 0.931 . S
C1432 C1429 1.429 . S
C1432 C1430 1.420 . S
C1432 N1440 1.362 . S
C1433 C1429 1.411 . S
C1433 C1431 1.420 . S
C1433 C1438 1.395 . S
C1434 C1430 1.423 . S
C1434 C1431 1.351 . S
C1434 H1446 0.930 . S
C1435 C1437 1.400 . S
C1435 C1438 1.386 . S
C1435 H1447 0.930 . S
N1436 C1429 1.377 . S
N1436 C1437 1.321 . S
N1436 Eu1439 2.609 . S
C1437 C1435 1.400 . S
C1437 N1436 1.321 . S
C1437 H1444 0.930 . S
C1438 C1433 1.395 . S
C1438 C1435 1.386 . S
C1438 H1457 0.930 . S
Eu1439 N1436 2.609 . S
Eu1439 N1440 2.657 . S
Eu1439 O1473 2.380 . S
Eu1439 O1474 2.432 . S
Eu1439 O1478 2.558 . S
Eu1439 O1479 2.612 . S
Eu1439 O1481 2.339 . S
Eu1439 O1482 2.563 . S
Eu1439 O1483 2.419 . S
Eu1439 C1503 2.848 . S
N1440 C1432 1.362 . S
N1440 Eu1439 2.657 . S
N1440 C1441 1.334 . S
C1441 N1440 1.334 . S
C1441 C1443 1.413 . S
C1441 H1448 0.929 . S
C1442 C1430 1.392 . S
C1442 C1443 1.367 . S
C1442 H1450 0.930 . S
C1443 C1441 1.413 . S
C1443 C1442 1.367 . S
C1443 H1445 0.930 . S
H1444 C1437 0.930 . S
H1445 C1443 0.930 . S
H1446 C1434 0.930 . S
H1447 C1435 0.930 . S
H1448 C1441 0.929 . S
H1449 C1463 0.930 . S
H1450 C1442 0.930 . S
H1451 C1469 0.930 . S
H1452 C1460 0.929 . S
H1453 C1467 0.930 . S
H1454 C1431 0.931 . S
H1455 C1461 0.930 . S
H1456 C1494 0.930 . S
H1457 C1438 0.930 . S
H1458 C1493 0.931 . S
N1459 Eu1428 2.657 . S
N1459 C1460 1.334 . S
N1459 C1464 1.362 . S
C1460 H1452 0.929 . S
C1460 N1459 1.334 . S
C1460 C1463 1.413 . S
C1461 H1455 0.930 . S
C1461 C1462 1.392 . S
C1461 C1463 1.367 . S
C1462 C1461 1.392 . S
C1462 C1464 1.420 . S
C1462 C1494 1.423 . S
C1463 H1449 0.930 . S
C1463 C1460 1.413 . S
C1463 C1461 1.367 . S
C1464 N1459 1.362 . S
C1464 C1462 1.420 . S
C1464 C1468 1.429 . S
H1465 C1470 0.930 . S
N1466 Eu1428 2.609 . S
N1466 C1468 1.377 . S
N1466 C1469 1.321 . S
C1467 H1453 0.930 . S
C1467 C1469 1.400 . S
C1467 C1470 1.386 . S
C1468 C1464 1.429 . S
C1468 N1466 1.377 . S
C1468 C1471 1.411 . S
C1469 H1451 0.930 . S
C1469 N1466 1.321 . S
C1469 C1467 1.400 . S
C1470 H1465 0.930 . S
C1470 C1467 1.386 . S
C1470 C1471 1.395 . S
C1471 C1468 1.411 . S
C1471 C1470 1.395 . S
C1471 C1493 1.420 . S
O1472 Eu1428 2.558 . S
O1472 C1492 1.257 . S
O1473 Eu1428 2.612 . S
O1473 Eu1439 2.380 . S
O1473 C1484 1.276 . S
O1474 Eu1439 2.432 . S
O1474 C1491 1.264 . S
O1475 Eu1428 2.339 . S
O1475 C1491 1.254 . S
O1476 Eu1428 2.563 . S
O1476 C1484 1.235 . S
O1477 Eu1428 2.419 . S
O1477 C1492 1.249 . S
O1478 Eu1439 2.558 . S
O1478 C1503 1.257 . S
O1479 Eu1428 2.380 . S
O1479 Eu1439 2.612 . S
O1479 C1495 1.276 . S
O1480 Eu1428 2.432 . S
O1480 C1502 1.264 . S
O1481 Eu1439 2.339 . S
O1481 C1502 1.254 . S
O1482 Eu1439 2.563 . S
O1482 C1495 1.235 . S
O1483 Eu1439 2.419 . S
O1483 C1503 1.249 . S
C1484 O1473 1.276 . S
C1484 O1476 1.235 . S
C1485 C1487 1.393 . S
C1485 C1489 1.395 . S
C1485 C1492 1.492 . S
C1486 C1487 1.392 . S
C1486 C1488 1.386 . S
C1487 C1485 1.393 . S
C1487 C1486 1.392 . S
C1487 H1504 0.930 . S
C1488 C1486 1.386 . S
C1488 C1490 1.395 . S
C1488 H1505 0.930 . S
C1489 C1485 1.395 . S
C1489 C1490 1.379 . S
C1489 H1506 0.930 . S
C1490 C1488 1.395 . S
C1490 C1489 1.379 . S
C1490 H1507 0.930 . S
C1491 O1474 1.264 . S
C1491 O1475 1.254 . S
C1492 Eu1428 2.848 . S
C1492 O1472 1.257 . S
C1492 O1477 1.249 . S
C1492 C1485 1.492 . S
C1493 H1458 0.931 . S
C1493 C1471 1.420 . S
C1493 C1494 1.351 . S
C1494 H1456 0.930 . S
C1494 C1462 1.423 . S
C1494 C1493 1.351 . S
C1495 O1479 1.276 . S
C1495 O1482 1.235 . S
C1496 C1497 1.393 . S
C1496 C1500 1.395 . S
C1496 C1503 1.492 . S
C1497 C1496 1.393 . S
C1497 C1498 1.392 . S
C1497 H1508 0.930 . S
C1498 C1497 1.392 . S
C1498 C1499 1.386 . S
C1499 C1498 1.386 . S
C1499 C1501 1.395 . S
C1499 H1509 0.930 . S
C1500 C1496 1.395 . S
C1500 C1501 1.379 . S
C1500 H1510 0.930 . S
C1501 C1499 1.395 . S
C1501 C1500 1.379 . S
C1501 H1511 0.930 . S
C1502 O1480 1.264 . S
C1502 O1481 1.254 . S
C1503 Eu1439 2.848 . S
C1503 O1478 1.257 . S
C1503 O1483 1.249 . S
C1503 C1496 1.492 . S
H1504 C1487 0.930 . S
H1505 C1488 0.930 . S
H1506 C1489 0.930 . S
H1507 C1490 0.930 . S
H1508 C1497 0.930 . S
H1509 C1499 0.930 . S
H1510 C1500 0.930 . S
H1511 C1501 0.930 . S
Eu1512 N1543 2.657 . S
Eu1512 N1550 2.609 . S
Eu1512 O1556 2.558 . S
Eu1512 O1557 2.612 . S
Eu1512 O1559 2.339 . S
Eu1512 O1560 2.563 . S
Eu1512 O1561 2.419 . S
Eu1512 O1563 2.380 . S
Eu1512 O1564 2.432 . S
Eu1512 C1576 2.848 . S
C1513 C1516 1.429 . S
C1513 C1517 1.411 . S
C1513 N1520 1.377 . S
C1514 C1516 1.420 . S
C1514 C1518 1.423 . S
C1514 C1526 1.392 . S
C1515 C1517 1.420 . S
C1515 C1518 1.351 . S
C1515 H1538 0.931 . S
C1516 C1513 1.429 . S
C1516 C1514 1.420 . S
C1516 N1524 1.362 . S
C1517 C1513 1.411 . S
C1517 C1515 1.420 . S
C1517 C1522 1.395 . S
C1518 C1514 1.423 . S
C1518 C1515 1.351 . S
C1518 H1530 0.930 . S
C1519 C1521 1.400 . S
C1519 C1522 1.386 . S
C1519 H1531 0.930 . S
N1520 C1513 1.377 . S
N1520 C1521 1.321 . S
N1520 Eu1523 2.609 . S
C1521 C1519 1.400 . S
C1521 N1520 1.321 . S
C1521 H1528 0.930 . S
C1522 C1517 1.395 . S
C1522 C1519 1.386 . S
C1522 H1541 0.930 . S
Eu1523 N1520 2.609 . S
Eu1523 N1524 2.657 . S
Eu1523 O1557 2.380 . S
Eu1523 O1558 2.432 . S
Eu1523 O1562 2.558 . S
Eu1523 O1563 2.612 . S
Eu1523 O1565 2.339 . S
Eu1523 O1566 2.563 . S
Eu1523 O1567 2.419 . S
Eu1523 C1587 2.848 . S
N1524 C1516 1.362 . S
N1524 Eu1523 2.657 . S
N1524 C1525 1.334 . S
C1525 N1524 1.334 . S
C1525 C1527 1.413 . S
C1525 H1532 0.929 . S
C1526 C1514 1.392 . S
C1526 C1527 1.367 . S
C1526 H1534 0.930 . S
C1527 C1525 1.413 . S
C1527 C1526 1.367 . S
C1527 H1529 0.930 . S
H1528 C1521 0.930 . S
H1529 C1527 0.930 . S
H1530 C1518 0.930 . S
H1531 C1519 0.930 . S
H1532 C1525 0.929 . S
H1533 C1547 0.930 . S
H1534 C1526 0.930 . S
H1535 C1553 0.930 . S
H1536 C1544 0.929 . S
H1537 C1551 0.930 . S
H1538 C1515 0.931 . S
H1539 C1545 0.930 . S
H1540 C1578 0.930 . S
H1541 C1522 0.930 . S
H1542 C1577 0.931 . S
N1543 Eu1512 2.657 . S
N1543 C1544 1.334 . S
N1543 C1548 1.362 . S
C1544 H1536 0.929 . S
C1544 N1543 1.334 . S
C1544 C1547 1.413 . S
C1545 H1539 0.930 . S
C1545 C1546 1.392 . S
C1545 C1547 1.367 . S
C1546 C1545 1.392 . S
C1546 C1548 1.420 . S
C1546 C1578 1.423 . S
C1547 H1533 0.930 . S
C1547 C1544 1.413 . S
C1547 C1545 1.367 . S
C1548 N1543 1.362 . S
C1548 C1546 1.420 . S
C1548 C1552 1.429 . S
H1549 C1554 0.930 . S
N1550 Eu1512 2.609 . S
N1550 C1552 1.377 . S
N1550 C1553 1.321 . S
C1551 H1537 0.930 . S
C1551 C1553 1.400 . S
C1551 C1554 1.386 . S
C1552 C1548 1.429 . S
C1552 N1550 1.377 . S
C1552 C1555 1.411 . S
C1553 H1535 0.930 . S
C1553 N1550 1.321 . S
C1553 C1551 1.400 . S
C1554 H1549 0.930 . S
C1554 C1551 1.386 . S
C1554 C1555 1.395 . S
C1555 C1552 1.411 . S
C1555 C1554 1.395 . S
C1555 C1577 1.420 . S
O1556 Eu1512 2.558 . S
O1556 C1576 1.257 . S
O1557 Eu1512 2.612 . S
O1557 Eu1523 2.380 . S
O1557 C1568 1.276 . S
O1558 Eu1523 2.432 . S
O1558 C1575 1.264 . S
O1559 Eu1512 2.339 . S
O1559 C1575 1.254 . S
O1560 Eu1512 2.563 . S
O1560 C1568 1.235 . S
O1561 Eu1512 2.419 . S
O1561 C1576 1.249 . S
O1562 Eu1523 2.558 . S
O1562 C1587 1.257 . S
O1563 Eu1512 2.380 . S
O1563 Eu1523 2.612 . S
O1563 C1579 1.276 . S
O1564 Eu1512 2.432 . S
O1564 C1586 1.264 . S
O1565 Eu1523 2.339 . S
O1565 C1586 1.254 . S
O1566 Eu1523 2.563 . S
O1566 C1579 1.235 . S
O1567 Eu1523 2.419 . S
O1567 C1587 1.249 . S
C1568 O1557 1.276 . S
C1568 O1560 1.235 . S
C1569 C1571 1.393 . S
C1569 C1573 1.395 . S
C1569 C1576 1.492 . S
C1570 C1571 1.392 . S
C1570 C1572 1.386 . S
C1571 C1569 1.393 . S
C1571 C1570 1.392 . S
C1571 H1588 0.930 . S
C1572 C1570 1.386 . S
C1572 C1574 1.395 . S
C1572 H1589 0.930 . S
C1573 C1569 1.395 . S
C1573 C1574 1.379 . S
C1573 H1590 0.930 . S
C1574 C1572 1.395 . S
C1574 C1573 1.379 . S
C1574 H1591 0.930 . S
C1575 O1558 1.264 . S
C1575 O1559 1.254 . S
C1576 Eu1512 2.848 . S
C1576 O1556 1.257 . S
C1576 O1561 1.249 . S
C1576 C1569 1.492 . S
C1577 H1542 0.931 . S
C1577 C1555 1.420 . S
C1577 C1578 1.351 . S
C1578 H1540 0.930 . S
C1578 C1546 1.423 . S
C1578 C1577 1.351 . S
C1579 O1563 1.276 . S
C1579 O1566 1.235 . S
C1580 C1581 1.393 . S
C1580 C1584 1.395 . S
C1580 C1587 1.492 . S
C1581 C1580 1.393 . S
C1581 C1582 1.392 . S
C1581 H1592 0.930 . S
C1582 C1581 1.392 . S
C1582 C1583 1.386 . S
C1583 C1582 1.386 . S
C1583 C1585 1.395 . S
C1583 H1593 0.930 . S
C1584 C1580 1.395 . S
C1584 C1585 1.379 . S
C1584 H1594 0.930 . S
C1585 C1583 1.395 . S
C1585 C1584 1.379 . S
C1585 H1595 0.930 . S
C1586 O1564 1.264 . S
C1586 O1565 1.254 . S
C1587 Eu1523 2.848 . S
C1587 O1562 1.257 . S
C1587 O1567 1.249 . S
C1587 C1580 1.492 . S
H1588 C1571 0.930 . S
H1589 C1572 0.930 . S
H1590 C1573 0.930 . S
H1591 C1574 0.930 . S
H1592 C1581 0.930 . S
H1593 C1583 0.930 . S
H1594 C1584 0.930 . S
H1595 C1585 0.930 . S
Eu1596 N1627 2.657 . S
Eu1596 N1634 2.641 . S
Eu1596 O1640 2.558 1_554 S
Eu1596 O1641 2.612 . S
Eu1596 O1643 2.339 . S
Eu1596 O1644 2.563 . S
Eu1596 O1645 2.419 . S
Eu1596 O1647 2.380 . S
Eu1596 O1648 2.432 1_554 S
Eu1596 C1660 2.848 . S
C1597 C1600 1.430 . S
C1597 C1601 1.419 . S
C1597 N1604 1.368 1_655 S
C1598 C1600 1.420 . S
C1598 C1602 1.423 . S
C1598 C1610 1.392 . S
C1599 C1601 1.420 . S
C1599 C1602 1.351 . S
C1599 H1622 0.931 . S
C1600 C1597 1.430 . S
C1600 C1598 1.420 . S
C1600 N1608 1.362 1_655 S
C1601 C1597 1.419 . S
C1601 C1599 1.420 . S
C1601 C1606 1.395 . S
C1602 C1598 1.423 . S
C1602 C1599 1.351 . S
C1602 H1614 0.930 . S
C1603 C1605 1.400 . S
C1603 C1606 1.386 1_455 S
C1603 H1615 0.930 . S
N1604 C1597 1.368 1_455 S
N1604 C1605 1.321 . S
N1604 Eu1607 2.609 . S
C1605 C1603 1.400 . S
C1605 N1604 1.321 . S
C1605 H1612 0.930 . S
C1606 C1601 1.395 . S
C1606 C1603 1.386 1_655 S
C1606 H1625 0.930 . S
Eu1607 N1604 2.609 . S
Eu1607 N1608 2.657 . S
Eu1607 O1641 2.380 . S
Eu1607 O1642 2.432 . S
Eu1607 O1646 2.558 . S
Eu1607 O1647 2.612 . S
Eu1607 O1649 2.339 . S
Eu1607 O1650 2.563 . S
Eu1607 O1651 2.419 1_455 S
Eu1607 C1671 2.848 1_455 S
N1608 C1600 1.362 1_455 S
N1608 Eu1607 2.657 . S
N1608 C1609 1.332 1_455 S
C1609 N1608 1.332 1_655 S
C1609 C1611 1.426 . S
C1609 H1616 0.919 1_655 S
C1610 C1598 1.392 . S
C1610 C1611 1.367 . S
C1610 H1618 0.930 . S
C1611 C1609 1.426 . S
C1611 C1610 1.367 . S
C1611 H1613 0.930 1_554 S
H1612 C1605 0.930 . S
H1613 C1611 0.930 1_556 S
H1614 C1602 0.930 . S
H1615 C1603 0.930 . S
H1616 C1609 0.919 1_455 S
H1617 C1631 0.930 . S
H1618 C1610 0.930 . S
H1619 C1637 0.930 . S
H1620 C1628 0.929 . S
H1621 C1635 0.930 . S
H1622 C1599 0.931 . S
H1623 C1629 0.930 . S
H1624 C1662 0.930 . S
H1625 C1606 0.930 . S
H1626 C1661 0.931 1_556 S
N1627 Eu1596 2.657 . S
N1627 C1628 1.334 . S
N1627 C1632 1.362 . S
C1628 H1620 0.929 . S
C1628 N1627 1.334 . S
C1628 C1631 1.413 . S
C1629 H1623 0.930 . S
C1629 C1630 1.392 . S
C1629 C1631 1.367 . S
C1630 C1629 1.392 . S
C1630 C1632 1.420 . S
C1630 C1662 1.423 . S
C1631 H1617 0.930 . S
C1631 C1628 1.413 . S
C1631 C1629 1.367 . S
C1632 N1627 1.362 . S
C1632 C1630 1.420 . S
C1632 C1636 1.429 . S
H1633 C1638 0.930 . S
N1634 Eu1596 2.641 . S
N1634 C1636 1.382 . S
N1634 C1637 1.283 1_554 S
C1635 H1621 0.930 . S
C1635 C1637 1.400 . S
C1635 C1638 1.386 . S
C1636 C1632 1.429 . S
C1636 N1634 1.382 . S
C1636 C1639 1.411 1_554 S
C1637 H1619 0.930 . S
C1637 N1634 1.283 1_556 S
C1637 C1635 1.400 . S
C1638 H1633 0.930 . S
C1638 C1635 1.386 . S
C1638 C1639 1.395 . S
C1639 C1636 1.411 1_556 S
C1639 C1638 1.395 . S
C1639 C1661 1.420 1_556 S
O1640 Eu1596 2.558 1_556 S
O1640 C1660 1.257 1_556 S
O1641 Eu1596 2.612 . S
O1641 Eu1607 2.380 . S
O1641 C1652 1.276 . S
O1642 Eu1607 2.432 . S
O1642 C1659 1.264 . S
O1643 Eu1596 2.339 . S
O1643 C1659 1.254 . S
O1644 Eu1596 2.563 . S
O1644 C1652 1.235 . S
O1645 Eu1596 2.419 . S
O1645 C1660 1.249 . S
O1646 Eu1607 2.558 . S
O1646 C1671 1.257 1_455 S
O1647 Eu1596 2.380 . S
O1647 Eu1607 2.612 . S
O1647 C1663 1.276 . S
O1648 Eu1596 2.432 1_556 S
O1648 C1670 1.266 . S
O1649 Eu1607 2.339 . S
O1649 C1670 1.247 1_554 S
O1650 Eu1607 2.563 . S
O1650 C1663 1.235 . S
O1651 Eu1607 2.419 1_655 S
O1651 C1671 1.249 . S
C1652 O1641 1.276 . S
C1652 O1644 1.235 . S
C1653 C1655 1.393 . S
C1653 C1657 1.395 1_554 S
C1653 C1660 1.492 . S
C1654 C1655 1.392 . S
C1654 C1656 1.386 1_554 S
C1655 C1653 1.393 . S
C1655 C1654 1.392 . S
C1655 H1672 0.930 . S
C1656 C1654 1.386 1_556 S
C1656 C1658 1.395 . S
C1656 H1673 0.930 . S
C1657 C1653 1.395 1_556 S
C1657 C1658 1.379 . S
C1657 H1674 0.930 . S
C1658 C1656 1.395 . S
C1658 C1657 1.379 . S
C1658 H1675 0.930 . S
C1659 O1642 1.264 . S
C1659 O1643 1.254 . S
C1660 Eu1596 2.848 . S
C1660 O1640 1.257 1_554 S
C1660 O1645 1.249 . S
C1660 C1653 1.492 . S
C1661 H1626 0.931 1_554 S
C1661 C1639 1.420 1_554 S
C1661 C1662 1.351 . S
C1662 H1624 0.930 . S
C1662 C1630 1.423 . S
C1662 C1661 1.351 . S
C1663 O1647 1.276 . S
C1663 O1650 1.235 . S
C1664 C1665 1.393 . S
C1664 C1668 1.395 . S
C1664 C1671 1.492 . S
C1665 C1664 1.393 . S
C1665 C1666 1.392 . S
C1665 H1676 0.930 . S
C1666 C1665 1.392 . S
C1666 C1667 1.386 . S
C1667 C1666 1.386 . S
C1667 C1669 1.395 . S
C1667 H1677 0.930 . S
C1668 C1664 1.395 . S
C1668 C1669 1.379 . S
C1668 H1678 0.930 . S
C1669 C1667 1.395 . S
C1669 C1668 1.379 . S
C1669 H1679 0.930 . S
C1670 O1648 1.266 . S
C1670 O1649 1.247 1_556 S
C1671 Eu1607 2.848 1_655 S
C1671 O1646 1.257 1_655 S
C1671 O1651 1.249 . S
C1671 C1664 1.492 . S
H1672 C1655 0.930 . S
H1673 C1656 0.930 . S
H1674 C1657 0.930 . S
H1675 C1658 0.930 . S
H1676 C1665 0.930 . S
H1677 C1667 0.930 . S
H1678 C1668 0.930 . S
H1679 C1669 0.930 . S
H1680 C1686 0.930 . S
H1681 C1689 0.930 1_655 S
H1682 C1690 0.930 1_654 S
H1683 C1691 0.930 . S
H1684 C1694 0.930 . S
H1685 C1695 0.930 . S
C1686 H1680 0.930 . S
C1686 C1687 1.355 . S
C1686 C1688 1.415 . S
C1687 C1686 1.355 . S
C1687 C1689 1.419 . S
C1688 C1686 1.415 . S
C1688 C1693 1.425 . S
C1688 C1695 1.409 . S
C1689 H1681 0.930 1_455 S
C1689 C1687 1.419 . S
C1689 C1690 1.362 . S
C1690 H1682 0.930 1_456 S
C1690 C1689 1.362 . S
C1690 C1693 1.409 . S
C1691 H1683 0.930 . S
C1691 C1692 1.355 . S
C1691 C1693 1.415 1_554 S
C1692 C1691 1.355 . S
C1692 C1694 1.419 1_554 S
C1693 C1688 1.425 . S
C1693 C1690 1.409 . S
C1693 C1691 1.415 1_556 S
C1694 H1684 0.930 . S
C1694 C1692 1.419 1_556 S
C1694 C1695 1.362 . S
C1695 H1685 0.930 . S
C1695 C1688 1.409 . S
C1695 C1694 1.362 . S
H1696 C1702 0.930 . S
H1697 C1705 0.930 . S
H1698 C1706 0.930 . S
H1699 C1707 0.930 . S
H1700 C1710 0.930 . S
H1701 C1711 0.930 . S
C1702 H1696 0.930 . S
C1702 C1703 1.355 . S
C1702 C1704 1.415 . S
C1703 C1702 1.355 . S
C1703 C1705 1.419 . S
C1704 C1702 1.415 . S
C1704 C1709 1.425 . S
C1704 C1711 1.409 . S
C1705 H1697 0.930 . S
C1705 C1703 1.419 . S
C1705 C1706 1.362 . S
C1706 H1698 0.930 . S
C1706 C1705 1.362 . S
C1706 C1709 1.409 . S
C1707 H1699 0.930 . S
C1707 C1708 1.355 . S
C1707 C1709 1.415 . S
C1708 C1707 1.355 . S
C1708 C1710 1.419 . S
C1709 C1704 1.425 . S
C1709 C1706 1.409 . S
C1709 C1707 1.415 . S
C1710 H1700 0.930 . S
C1710 C1708 1.419 . S
C1710 C1711 1.362 . S
C1711 H1701 0.930 . S
C1711 C1704 1.409 . S
C1711 C1710 1.362 . S
H1712 C1718 0.930 . S
H1713 C1721 0.930 . S
H1714 C1722 0.930 . S
H1715 C1723 0.930 . S
H1716 C1726 0.930 . S
H1717 C1727 0.930 . S
C1718 H1712 0.930 . S
C1718 C1719 1.355 . S
C1718 C1720 1.415 . S
C1719 C1718 1.355 . S
C1719 C1721 1.419 . S
C1720 C1718 1.415 . S
C1720 C1725 1.425 . S
C1720 C1727 1.409 . S
C1721 H1713 0.930 . S
C1721 C1719 1.419 . S
C1721 C1722 1.362 . S
C1722 H1714 0.930 . S
C1722 C1721 1.362 . S
C1722 C1725 1.409 . S
C1723 H1715 0.930 . S
C1723 C1724 1.355 . S
C1723 C1725 1.415 . S
C1724 C1723 1.355 . S
C1724 C1726 1.419 . S
C1725 C1720 1.425 . S
C1725 C1722 1.409 . S
C1725 C1723 1.415 . S
C1726 H1716 0.930 . S
C1726 C1724 1.419 . S
C1726 C1727 1.362 . S
C1727 H1717 0.930 . S
C1727 C1720 1.409 . S
C1727 C1726 1.362 . S
H1728 C1734 0.930 . S
H1729 C1737 0.930 . S
H1730 C1738 0.930 . S
H1731 C1739 0.930 . S
H1732 C1742 0.930 . S
H1733 C1743 0.930 . S
C1734 H1728 0.930 . S
C1734 C1735 1.355 . S
C1734 C1736 1.415 . S
C1735 C1734 1.355 . S
C1735 C1737 1.419 . S
C1736 C1734 1.415 . S
C1736 C1741 1.425 . S
C1736 C1743 1.409 . S
C1737 H1729 0.930 . S
C1737 C1735 1.419 . S
C1737 C1738 1.362 . S
C1738 H1730 0.930 . S
C1738 C1737 1.362 . S
C1738 C1741 1.409 . S
C1739 H1731 0.930 . S
C1739 C1740 1.355 . S
C1739 C1741 1.415 . S
C1740 C1739 1.355 . S
C1740 C1742 1.419 . S
C1741 C1736 1.425 . S
C1741 C1738 1.409 . S
C1741 C1739 1.415 . S
C1742 H1732 0.930 . S
C1742 C1740 1.419 . S
C1742 C1743 1.362 . S
C1743 H1733 0.930 . S
C1743 C1736 1.409 . S
C1743 C1742 1.362 . S
H1744 C1750 0.930 . S
H1745 C1753 0.930 . S
H1746 C1754 0.930 . S
H1747 C1755 0.930 . S
H1748 C1758 0.930 . S
H1749 C1759 0.930 . S
C1750 H1744 0.930 . S
C1750 C1751 1.355 . S
C1750 C1752 1.415 . S
C1751 C1750 1.355 . S
C1751 C1753 1.419 . S
C1752 C1750 1.415 . S
C1752 C1757 1.425 . S
C1752 C1759 1.409 . S
C1753 H1745 0.930 . S
C1753 C1751 1.419 . S
C1753 C1754 1.362 . S
C1754 H1746 0.930 . S
C1754 C1753 1.362 . S
C1754 C1757 1.409 . S
C1755 H1747 0.930 . S
C1755 C1756 1.355 . S
C1755 C1757 1.415 . S
C1756 C1755 1.355 . S
C1756 C1758 1.419 . S
C1757 C1752 1.425 . S
C1757 C1754 1.409 . S
C1757 C1755 1.415 . S
C1758 H1748 0.930 . S
C1758 C1756 1.419 . S
C1758 C1759 1.362 . S
C1759 H1749 0.930 . S
C1759 C1752 1.409 . S
C1759 C1758 1.362 . S
H1760 C1766 0.930 . S
H1761 C1769 0.930 . S
H1762 C1770 0.930 . S
H1763 C1771 0.930 . S
H1764 C1774 0.930 . S
H1765 C1775 0.930 . S
C1766 H1760 0.930 . S
C1766 C1767 1.355 . S
C1766 C1768 1.415 . S
C1767 C1766 1.355 . S
C1767 C1769 1.419 . S
C1768 C1766 1.415 . S
C1768 C1773 1.425 . S
C1768 C1775 1.409 . S
C1769 H1761 0.930 . S
C1769 C1767 1.419 . S
C1769 C1770 1.362 . S
C1770 H1762 0.930 . S
C1770 C1769 1.362 . S
C1770 C1773 1.409 . S
C1771 H1763 0.930 . S
C1771 C1772 1.355 . S
C1771 C1773 1.415 . S
C1772 C1771 1.355 . S
C1772 C1774 1.419 . S
C1773 C1768 1.425 . S
C1773 C1770 1.409 . S
C1773 C1771 1.415 . S
C1774 H1764 0.930 . S
C1774 C1772 1.419 . S
C1774 C1775 1.362 . S
C1775 H1765 0.930 . S
C1775 C1768 1.409 . S
C1775 C1774 1.362 . S
H1776 C1782 0.930 . S
H1777 C1785 0.930 . S
H1778 C1786 0.930 . S
H1779 C1787 0.930 . S
H1780 C1790 0.930 . S
H1781 C1791 0.930 . S
C1782 H1776 0.930 . S
C1782 C1783 1.355 . S
C1782 C1784 1.415 . S
C1783 C1782 1.355 . S
C1783 C1785 1.419 . S
C1784 C1782 1.415 . S
C1784 C1789 1.425 . S
C1784 C1791 1.409 . S
C1785 H1777 0.930 . S
C1785 C1783 1.419 . S
C1785 C1786 1.362 . S
C1786 H1778 0.930 . S
C1786 C1785 1.362 . S
C1786 C1789 1.409 . S
C1787 H1779 0.930 . S
C1787 C1788 1.355 . S
C1787 C1789 1.415 . S
C1788 C1787 1.355 . S
C1788 C1790 1.419 . S
C1789 C1784 1.425 . S
C1789 C1786 1.409 . S
C1789 C1787 1.415 . S
C1790 H1780 0.930 . S
C1790 C1788 1.419 . S
C1790 C1791 1.362 . S
C1791 H1781 0.930 . S
C1791 C1784 1.409 . S
C1791 C1790 1.362 . S
H1792 C1798 0.930 . S
H1793 C1801 0.930 . S
H1794 C1802 0.930 . S
H1795 C1803 0.930 . S
H1796 C1806 0.930 . S
H1797 C1807 0.930 . S
C1798 H1792 0.930 . S
C1798 C1799 1.355 . S
C1798 C1800 1.415 . S
C1799 C1798 1.355 . S
C1799 C1801 1.419 . S
C1800 C1798 1.415 . S
C1800 C1805 1.425 . S
C1800 C1807 1.409 . S
C1801 H1793 0.930 . S
C1801 C1799 1.419 . S
C1801 C1802 1.362 . S
C1802 H1794 0.930 . S
C1802 C1801 1.362 . S
C1802 C1805 1.409 . S
C1803 H1795 0.930 . S
C1803 C1804 1.355 . S
C1803 C1805 1.415 . S
C1804 C1803 1.355 . S
C1804 C1806 1.419 . S
C1805 C1800 1.425 . S
C1805 C1802 1.409 . S
C1805 C1803 1.415 . S
C1806 H1796 0.930 . S
C1806 C1804 1.419 . S
C1806 C1807 1.362 . S
C1807 H1797 0.930 . S
C1807 C1800 1.409 . S
C1807 C1806 1.362 . S
H1808 C1814 0.930 . S
H1809 C1817 0.930 . S
H1810 C1818 0.930 . S
H1811 C1819 0.930 . S
H1812 C1822 0.930 . S
H1813 C1823 0.930 . S
C1814 H1808 0.930 . S
C1814 C1815 1.355 . S
C1814 C1816 1.412 . S
C1815 C1814 1.355 . S
C1815 C1817 1.419 1_655 S
C1816 C1814 1.412 . S
C1816 C1821 1.429 1_655 S
C1816 C1823 1.408 . S
C1817 H1809 0.930 . S
C1817 C1815 1.419 1_455 S
C1817 C1818 1.362 . S
C1818 H1810 0.930 . S
C1818 C1817 1.362 . S
C1818 C1821 1.409 . S
C1819 H1811 0.930 . S
C1819 C1820 1.355 . S
C1819 C1821 1.415 . S
C1820 C1819 1.355 . S
C1820 C1822 1.419 . S
C1821 C1816 1.429 1_455 S
C1821 C1818 1.409 . S
C1821 C1819 1.415 . S
C1822 H1812 0.930 . S
C1822 C1820 1.419 . S
C1822 C1823 1.362 1_455 S
C1823 H1813 0.930 . S
C1823 C1816 1.408 . S
C1823 C1822 1.362 1_655 S
H1824 C1830 0.930 . S
H1825 C1833 0.930 . S
H1826 C1834 0.930 . S
H1827 C1835 0.930 . S
H1828 C1838 0.930 . S
H1829 C1839 0.930 . S
C1830 H1824 0.930 . S
C1830 C1831 1.355 . S
C1830 C1832 1.415 . S
C1831 C1830 1.355 . S
C1831 C1833 1.419 . S
C1832 C1830 1.415 . S
C1832 C1837 1.425 . S
C1832 C1839 1.409 . S
C1833 H1825 0.930 . S
C1833 C1831 1.419 . S
C1833 C1834 1.362 . S
C1834 H1826 0.930 . S
C1834 C1833 1.362 . S
C1834 C1837 1.409 . S
C1835 H1827 0.930 . S
C1835 C1836 1.355 . S
C1835 C1837 1.415 . S
C1836 C1835 1.355 . S
C1836 C1838 1.419 . S
C1837 C1832 1.425 . S
C1837 C1834 1.409 . S
C1837 C1835 1.415 . S
C1838 H1828 0.930 . S
C1838 C1836 1.419 . S
C1838 C1839 1.362 . S
C1839 H1829 0.930 . S
C1839 C1832 1.409 . S
C1839 C1838 1.362 . S
H1840 C1846 0.930 . S
H1841 C1849 0.930 . S
H1842 C1850 0.930 . S
H1843 C1851 0.930 . S
H1844 C1854 0.930 . S
H1845 C1855 0.930 . S
C1846 H1840 0.930 . S
C1846 C1847 1.355 . S
C1846 C1848 1.415 . S
C1847 C1846 1.355 . S
C1847 C1849 1.419 . S
C1848 C1846 1.415 . S
C1848 C1853 1.425 . S
C1848 C1855 1.409 . S
C1849 H1841 0.930 . S
C1849 C1847 1.419 . S
C1849 C1850 1.362 . S
C1850 H1842 0.930 . S
C1850 C1849 1.362 . S
C1850 C1853 1.409 . S
C1851 H1843 0.930 . S
C1851 C1852 1.355 . S
C1851 C1853 1.415 . S
C1852 C1851 1.355 . S
C1852 C1854 1.419 . S
C1853 C1848 1.425 . S
C1853 C1850 1.409 . S
C1853 C1851 1.415 . S
C1854 H1844 0.930 . S
C1854 C1852 1.419 . S
C1854 C1855 1.362 . S
C1855 H1845 0.930 . S
C1855 C1848 1.409 . S
C1855 C1854 1.362 . S
H1856 C1862 0.930 . S
H1857 C1865 0.930 . S
H1858 C1866 0.930 . S
H1859 C1867 0.930 . S
H1860 C1870 0.930 . S
H1861 C1871 0.930 . S
C1862 H1856 0.930 . S
C1862 C1863 1.355 . S
C1862 C1864 1.415 . S
C1863 C1862 1.355 . S
C1863 C1865 1.419 . S
C1864 C1862 1.415 . S
C1864 C1869 1.425 . S
C1864 C1871 1.409 . S
C1865 H1857 0.930 . S
C1865 C1863 1.419 . S
C1865 C1866 1.362 . S
C1866 H1858 0.930 . S
C1866 C1865 1.362 . S
C1866 C1869 1.409 . S
C1867 H1859 0.930 . S
C1867 C1868 1.355 . S
C1867 C1869 1.415 . S
C1868 C1867 1.355 . S
C1868 C1870 1.419 . S
C1869 C1864 1.425 . S
C1869 C1866 1.409 . S
C1869 C1867 1.415 . S
C1870 H1860 0.930 . S
C1870 C1868 1.419 . S
C1870 C1871 1.362 . S
C1871 H1861 0.930 . S
C1871 C1864 1.409 . S
C1871 C1870 1.362 . S
H1872 C1878 0.930 . S
H1873 C1881 0.930 . S
H1874 C1882 0.930 . S
H1875 C1883 0.930 . S
H1876 C1886 0.930 . S
H1877 C1887 0.930 1_655 S
C1878 H1872 0.930 . S
C1878 C1879 1.355 1_655 S
C1878 C1880 1.415 1_655 S
C1879 C1878 1.355 1_455 S
C1879 C1881 1.419 . S
C1880 C1878 1.415 1_455 S
C1880 C1885 1.425 . S
C1880 C1887 1.409 . S
C1881 H1873 0.930 . S
C1881 C1879 1.419 . S
C1881 C1882 1.362 . S
C1882 H1874 0.930 . S
C1882 C1881 1.362 . S
C1882 C1885 1.409 . S
C1883 H1875 0.930 . S
C1883 C1884 1.355 . S
C1883 C1885 1.415 . S
C1884 C1883 1.355 . S
C1884 C1886 1.419 . S
C1885 C1880 1.425 . S
C1885 C1882 1.409 . S
C1885 C1883 1.415 . S
C1886 H1876 0.930 . S
C1886 C1884 1.419 . S
C1886 C1887 1.362 . S
C1887 H1877 0.930 1_455 S
C1887 C1880 1.409 . S
C1887 C1886 1.362 . S
H1888 C1894 0.930 . S
H1889 C1897 0.930 . S
H1890 C1898 0.930 . S
H1891 C1899 0.930 . S
H1892 C1902 0.930 . S
H1893 C1903 0.930 . S
C1894 H1888 0.930 . S
C1894 C1895 1.355 . S
C1894 C1896 1.415 . S
C1895 C1894 1.355 . S
C1895 C1897 1.419 . S
C1896 C1894 1.415 . S
C1896 C1901 1.425 . S
C1896 C1903 1.409 . S
C1897 H1889 0.930 . S
C1897 C1895 1.419 . S
C1897 C1898 1.362 . S
C1898 H1890 0.930 . S
C1898 C1897 1.362 . S
C1898 C1901 1.409 . S
C1899 H1891 0.930 . S
C1899 C1900 1.355 . S
C1899 C1901 1.415 . S
C1900 C1899 1.355 . S
C1900 C1902 1.419 . S
C1901 C1896 1.425 . S
C1901 C1898 1.409 . S
C1901 C1899 1.415 . S
C1902 H1892 0.930 . S
C1902 C1900 1.419 . S
C1902 C1903 1.362 . S
C1903 H1893 0.930 . S
C1903 C1896 1.409 . S
C1903 C1902 1.362 . S
H1904 C1910 0.930 . S
H1905 C1913 0.930 . S
H1906 C1914 0.930 . S
H1907 C1915 0.930 . S
H1908 C1918 0.930 . S
H1909 C1919 0.930 . S
C1910 H1904 0.930 . S
C1910 C1911 1.355 . S
C1910 C1912 1.415 . S
C1911 C1910 1.355 . S
C1911 C1913 1.419 . S
C1912 C1910 1.415 . S
C1912 C1917 1.425 . S
C1912 C1919 1.409 . S
C1913 H1905 0.930 . S
C1913 C1911 1.419 . S
C1913 C1914 1.362 . S
C1914 H1906 0.930 . S
C1914 C1913 1.362 . S
C1914 C1917 1.409 . S
C1915 H1907 0.930 . S
C1915 C1916 1.355 . S
C1915 C1917 1.415 . S
C1916 C1915 1.355 . S
C1916 C1918 1.419 . S
C1917 C1912 1.425 . S
C1917 C1914 1.409 . S
C1917 C1915 1.415 . S
C1918 H1908 0.930 . S
C1918 C1916 1.419 . S
C1918 C1919 1.362 . S
C1919 H1909 0.930 . S
C1919 C1912 1.409 . S
C1919 C1918 1.362 . S
H1920 C1926 0.930 . S
H1921 C1929 0.930 . S
H1922 C1930 0.930 . S
H1923 C1931 0.930 . S
H1924 C1934 0.930 . S
H1925 C1935 0.930 . S
C1926 H1920 0.930 . S
C1926 C1927 1.355 . S
C1926 C1928 1.415 . S
C1927 C1926 1.355 . S
C1927 C1929 1.419 . S
C1928 C1926 1.415 . S
C1928 C1933 1.425 . S
C1928 C1935 1.409 . S
C1929 H1921 0.930 . S
C1929 C1927 1.419 . S
C1929 C1930 1.362 . S
C1930 H1922 0.930 . S
C1930 C1929 1.362 . S
C1930 C1933 1.409 . S
C1931 H1923 0.930 . S
C1931 C1932 1.355 . S
C1931 C1933 1.415 . S
C1932 C1931 1.355 . S
C1932 C1934 1.419 . S
C1933 C1928 1.425 . S
C1933 C1930 1.409 . S
C1933 C1931 1.415 . S
C1934 H1924 0.930 . S
C1934 C1932 1.419 . S
C1934 C1935 1.362 . S
C1935 H1925 0.930 . S
C1935 C1928 1.409 . S
C1935 C1934 1.362 . S
H1936 C1942 0.930 1_556 S
H1937 C1945 0.930 . S
H1938 C1946 0.930 . S
H1939 C1947 0.930 . S
H1940 C1950 0.940 . S
H1941 C1951 0.930 . S
C1942 H1936 0.930 1_554 S
C1942 C1943 1.355 . S
C1942 C1944 1.415 . S
C1943 C1942 1.355 . S
C1943 C1945 1.419 . S
C1944 C1942 1.415 . S
C1944 C1949 1.425 1_565 S
C1944 C1951 1.409 1_554 S
C1945 H1937 0.930 . S
C1945 C1943 1.419 . S
C1945 C1946 1.362 1_565 S
C1946 H1938 0.930 . S
C1946 C1945 1.362 1_545 S
C1946 C1949 1.409 . S
C1947 H1939 0.930 . S
C1947 C1948 1.355 . S
C1947 C1949 1.415 . S
C1948 C1947 1.355 . S
C1948 C1950 1.412 1_545 S
C1949 C1944 1.425 1_545 S
C1949 C1946 1.409 . S
C1949 C1947 1.415 . S
C1950 H1940 0.940 . S
C1950 C1948 1.412 1_565 S
C1950 C1951 1.377 1_554 S
C1951 H1941 0.930 . S
C1951 C1944 1.409 1_556 S
C1951 C1950 1.377 1_556 S
H1952 C1958 0.930 . S
H1953 C1961 0.930 . S
H1954 C1962 0.930 . S
H1955 C1963 0.930 . S
H1956 C1966 0.930 . S
H1957 C1967 0.930 . S
C1958 H1952 0.930 . S
C1958 C1959 1.355 1_556 S
C1958 C1960 1.425 . S
C1959 C1958 1.355 1_554 S
C1959 C1961 1.419 . S
C1960 C1958 1.425 . S
C1960 C1965 1.404 1_556 S
C1960 C1967 1.420 . S
C1961 H1953 0.930 . S
C1961 C1959 1.419 . S
C1961 C1962 1.362 . S
C1962 H1954 0.930 . S
C1962 C1961 1.362 . S
C1962 C1965 1.409 . S
C1963 H1955 0.930 . S
C1963 C1964 1.355 . S
C1963 C1965 1.415 . S
C1964 C1963 1.355 . S
C1964 C1966 1.419 1_554 S
C1965 C1960 1.404 1_554 S
C1965 C1962 1.409 . S
C1965 C1963 1.415 . S
C1966 H1956 0.930 . S
C1966 C1964 1.419 1_556 S
C1966 C1967 1.362 . S
C1967 H1957 0.930 . S
C1967 C1960 1.420 . S
C1967 C1966 1.362 . S
H1968 C1974 0.930 . S
H1969 C1977 0.930 . S
H1970 C1978 0.930 . S
H1971 C1979 0.930 . S
H1972 C1982 0.930 . S
H1973 C1983 0.930 . S
C1974 H1968 0.930 . S
C1974 C1975 1.355 . S
C1974 C1976 1.415 . S
C1975 C1974 1.355 . S
C1975 C1977 1.419 . S
C1976 C1974 1.415 . S
C1976 C1981 1.425 . S
C1976 C1983 1.409 . S
C1977 H1969 0.930 . S
C1977 C1975 1.419 . S
C1977 C1978 1.362 . S
C1978 H1970 0.930 . S
C1978 C1977 1.362 . S
C1978 C1981 1.409 . S
C1979 H1971 0.930 . S
C1979 C1980 1.355 . S
C1979 C1981 1.415 . S
C1980 C1979 1.355 . S
C1980 C1982 1.419 . S
C1981 C1976 1.425 . S
C1981 C1978 1.409 . S
C1981 C1979 1.415 . S
C1982 H1972 0.930 . S
C1982 C1980 1.419 . S
C1982 C1983 1.362 . S
C1983 H1973 0.930 . S
C1983 C1976 1.409 . S
C1983 C1982 1.362 . S
H1984 C1990 0.930 . S
H1985 C1993 0.930 . S
H1986 C1994 0.930 . S
H1987 C1995 0.930 . S
H1988 C1998 0.930 . S
H1989 C1999 0.930 . S
C1990 H1984 0.930 . S
C1990 C1991 1.355 . S
C1990 C1992 1.415 . S
C1991 C1990 1.355 . S
C1991 C1993 1.419 . S
C1992 C1990 1.415 . S
C1992 C1997 1.425 . S
C1992 C1999 1.409 . S
C1993 H1985 0.930 . S
C1993 C1991 1.419 . S
C1993 C1994 1.362 . S
C1994 H1986 0.930 . S
C1994 C1993 1.362 . S
C1994 C1997 1.409 . S
C1995 H1987 0.930 . S
C1995 C1996 1.355 1_655 S
C1995 C1997 1.415 . S
C1996 C1995 1.355 1_455 S
C1996 C1998 1.419 . S
C1997 C1992 1.425 . S
C1997 C1994 1.409 . S
C1997 C1995 1.415 . S
C1998 H1988 0.930 . S
C1998 C1996 1.419 . S
C1998 C1999 1.362 1_455 S
C1999 H1989 0.930 . S
C1999 C1992 1.409 . S
C1999 C1998 1.362 1_655 S
H2000 C2006 0.930 . S
H2001 C2009 0.930 . S
H2002 C2010 0.930 . S
H2003 C2011 0.930 . S
H2004 C2014 0.930 . S
H2005 C2015 0.930 . S
C2006 H2000 0.930 . S
C2006 C2007 1.355 . S
C2006 C2008 1.415 . S
C2007 C2006 1.355 . S
C2007 C2009 1.419 . S
C2008 C2006 1.415 . S
C2008 C2013 1.425 . S
C2008 C2015 1.409 . S
C2009 H2001 0.930 . S
C2009 C2007 1.419 . S
C2009 C2010 1.362 . S
C2010 H2002 0.930 . S
C2010 C2009 1.362 . S
C2010 C2013 1.409 . S
C2011 H2003 0.930 . S
C2011 C2012 1.355 . S
C2011 C2013 1.415 . S
C2012 C2011 1.355 . S
C2012 C2014 1.419 . S
C2013 C2008 1.425 . S
C2013 C2010 1.409 . S
C2013 C2011 1.415 . S
C2014 H2004 0.930 . S
C2014 C2012 1.419 . S
C2014 C2015 1.362 . S
C2015 H2005 0.930 . S
C2015 C2008 1.409 . S
C2015 C2014 1.362 . S
H2016 C2022 0.930 . S
H2017 C2025 0.930 . S
H2018 C2026 0.930 . S
H2019 C2027 0.930 . S
H2020 C2030 0.930 . S
H2021 C2031 0.930 . S
C2022 H2016 0.930 . S
C2022 C2023 1.355 . S
C2022 C2024 1.415 . S
C2023 C2022 1.355 . S
C2023 C2025 1.419 . S
C2024 C2022 1.415 . S
C2024 C2029 1.425 . S
C2024 C2031 1.409 . S
C2025 H2017 0.930 . S
C2025 C2023 1.419 . S
C2025 C2026 1.362 . S
C2026 H2018 0.930 . S
C2026 C2025 1.362 . S
C2026 C2029 1.409 . S
C2027 H2019 0.930 . S
C2027 C2028 1.355 . S
C2027 C2029 1.415 . S
C2028 C2027 1.355 . S
C2028 C2030 1.419 . S
C2029 C2024 1.425 . S
C2029 C2026 1.409 . S
C2029 C2027 1.415 . S
C2030 H2020 0.930 . S
C2030 C2028 1.419 . S
C2030 C2031 1.362 . S
C2031 H2021 0.930 . S
C2031 C2024 1.409 . S
C2031 C2030 1.362 . S
H2032 C2038 0.930 . S
H2033 C2041 0.930 . S
H2034 C2042 0.930 . S
H2035 C2043 0.930 . S
H2036 C2046 0.930 . S
H2037 C2047 0.930 . S
C2038 H2032 0.930 . S
C2038 C2039 1.355 . S
C2038 C2040 1.415 . S
C2039 C2038 1.355 . S
C2039 C2041 1.419 . S
C2040 C2038 1.415 . S
C2040 C2045 1.425 . S
C2040 C2047 1.409 . S
C2041 H2033 0.930 . S
C2041 C2039 1.419 . S
C2041 C2042 1.362 . S
C2042 H2034 0.930 . S
C2042 C2041 1.362 . S
C2042 C2045 1.409 . S
C2043 H2035 0.930 . S
C2043 C2044 1.355 . S
C2043 C2045 1.415 . S
C2044 C2043 1.355 . S
C2044 C2046 1.419 . S
C2045 C2040 1.425 . S
C2045 C2042 1.409 . S
C2045 C2043 1.415 . S
C2046 H2036 0.930 . S
C2046 C2044 1.419 . S
C2046 C2047 1.362 . S
C2047 H2037 0.930 . S
C2047 C2040 1.409 . S
C2047 C2046 1.362 . S
H2048 C2054 0.930 . S
H2049 C2057 0.930 . S
H2050 C2058 0.930 . S
H2051 C2059 0.930 . S
H2052 C2062 0.930 . S
H2053 C2063 0.930 . S
C2054 H2048 0.930 . S
C2054 C2055 1.355 . S
C2054 C2056 1.415 . S
C2055 C2054 1.355 . S
C2055 C2057 1.419 . S
C2056 C2054 1.415 . S
C2056 C2061 1.425 . S
C2056 C2063 1.409 . S
C2057 H2049 0.930 . S
C2057 C2055 1.419 . S
C2057 C2058 1.362 . S
C2058 H2050 0.930 . S
C2058 C2057 1.362 . S
C2058 C2061 1.409 . S
C2059 H2051 0.930 . S
C2059 C2060 1.355 . S
C2059 C2061 1.415 . S
C2060 C2059 1.355 . S
C2060 C2062 1.419 . S
C2061 C2056 1.425 . S
C2061 C2058 1.409 . S
C2061 C2059 1.415 . S
C2062 H2052 0.930 . S
C2062 C2060 1.419 . S
C2062 C2063 1.362 . S
C2063 H2053 0.930 . S
C2063 C2056 1.409 . S
C2063 C2062 1.362 . S
H2064 C2070 0.930 . S
H2065 C2073 0.930 . S
H2066 C2074 0.930 . S
H2067 C2075 0.930 . S
H2068 C2078 0.930 . S
H2069 C2079 0.930 . S
C2070 H2064 0.930 . S
C2070 C2071 1.355 . S
C2070 C2072 1.415 . S
C2071 C2070 1.355 . S
C2071 C2073 1.419 . S
C2072 C2070 1.415 . S
C2072 C2077 1.425 . S
C2072 C2079 1.409 . S
C2073 H2065 0.930 . S
C2073 C2071 1.419 . S
C2073 C2074 1.362 . S
C2074 H2066 0.930 . S
C2074 C2073 1.362 . S
C2074 C2077 1.409 . S
C2075 H2067 0.930 . S
C2075 C2076 1.355 . S
C2075 C2077 1.415 . S
C2076 C2075 1.355 . S
C2076 C2078 1.419 . S
C2077 C2072 1.425 . S
C2077 C2074 1.409 . S
C2077 C2075 1.415 . S
C2078 H2068 0.930 . S
C2078 C2076 1.419 . S
C2078 C2079 1.362 . S
C2079 H2069 0.930 . S
C2079 C2072 1.409 . S
C2079 C2078 1.362 . S
H2080 C2086 0.930 . S
H2081 C2089 0.930 . S
H2082 C2090 0.930 . S
H2083 C2091 0.930 . S
H2084 C2094 0.930 . S
H2085 C2095 0.930 . S
C2086 H2080 0.930 . S
C2086 C2087 1.355 . S
C2086 C2088 1.415 . S
C2087 C2086 1.355 . S
C2087 C2089 1.419 . S
C2088 C2086 1.415 . S
C2088 C2093 1.425 . S
C2088 C2095 1.409 . S
C2089 H2081 0.930 . S
C2089 C2087 1.419 . S
C2089 C2090 1.362 . S
C2090 H2082 0.930 . S
C2090 C2089 1.362 . S
C2090 C2093 1.409 . S
C2091 H2083 0.930 . S
C2091 C2092 1.355 . S
C2091 C2093 1.415 . S
C2092 C2091 1.355 . S
C2092 C2094 1.419 . S
C2093 C2088 1.425 . S
C2093 C2090 1.409 . S
C2093 C2091 1.415 . S
C2094 H2084 0.930 . S
C2094 C2092 1.419 . S
C2094 C2095 1.362 . S
C2095 H2085 0.930 . S
C2095 C2088 1.409 . S
C2095 C2094 1.362 . S
H2096 C2102 0.930 . S
H2097 C2105 0.930 . S
H2098 C2106 0.930 . S
H2099 C2107 0.930 . S
H2100 C2110 0.930 . S
H2101 C2111 0.930 . S
C2102 H2096 0.930 . S
C2102 C2103 1.355 . S
C2102 C2104 1.415 . S
C2103 C2102 1.355 . S
C2103 C2105 1.419 . S
C2104 C2102 1.415 . S
C2104 C2109 1.425 . S
C2104 C2111 1.409 . S
C2105 H2097 0.930 . S
C2105 C2103 1.419 . S
C2105 C2106 1.362 . S
C2106 H2098 0.930 . S
C2106 C2105 1.362 . S
C2106 C2109 1.409 . S
C2107 H2099 0.930 . S
C2107 C2108 1.355 . S
C2107 C2109 1.415 . S
C2108 C2107 1.355 . S
C2108 C2110 1.419 . S
C2109 C2104 1.425 . S
C2109 C2106 1.409 . S
C2109 C2107 1.415 . S
C2110 H2100 0.930 . S
C2110 C2108 1.419 . S
C2110 C2111 1.362 . S
C2111 H2101 0.930 . S
C2111 C2104 1.409 . S
C2111 C2110 1.362 . S
H2112 C2118 0.930 . S
H2113 C2121 0.930 . S
H2114 C2122 0.930 . S
H2115 C2123 0.930 . S
H2116 C2126 0.930 . S
H2117 C2127 0.930 . S
C2118 H2112 0.930 . S
C2118 C2119 1.355 . S
C2118 C2120 1.415 . S
C2119 C2118 1.355 . S
C2119 C2121 1.419 . S
C2120 C2118 1.415 . S
C2120 C2125 1.425 . S
C2120 C2127 1.409 . S
C2121 H2113 0.930 . S
C2121 C2119 1.419 . S
C2121 C2122 1.362 . S
C2122 H2114 0.930 . S
C2122 C2121 1.362 . S
C2122 C2125 1.409 . S
C2123 H2115 0.930 . S
C2123 C2124 1.355 . S
C2123 C2125 1.415 . S
C2124 C2123 1.355 . S
C2124 C2126 1.419 . S
C2125 C2120 1.425 . S
C2125 C2122 1.409 . S
C2125 C2123 1.415 . S
C2126 H2116 0.930 . S
C2126 C2124 1.419 . S
C2126 C2127 1.362 . S
C2127 H2117 0.930 . S
C2127 C2120 1.409 . S
C2127 C2126 1.362 . S
H2128 C2134 0.930 . S
H2129 C2137 0.930 . S
H2130 C2138 0.930 . S
H2131 C2139 0.930 . S
H2132 C2142 0.930 . S
H2133 C2143 0.930 . S
C2134 H2128 0.930 . S
C2134 C2135 1.355 . S
C2134 C2136 1.415 . S
C2135 C2134 1.355 . S
C2135 C2137 1.419 . S
C2136 C2134 1.415 . S
C2136 C2141 1.425 . S
C2136 C2143 1.409 . S
C2137 H2129 0.930 . S
C2137 C2135 1.419 . S
C2137 C2138 1.362 . S
C2138 H2130 0.930 . S
C2138 C2137 1.362 . S
C2138 C2141 1.409 . S
C2139 H2131 0.930 . S
C2139 C2140 1.355 . S
C2139 C2141 1.415 . S
C2140 C2139 1.355 . S
C2140 C2142 1.419 . S
C2141 C2136 1.425 . S
C2141 C2138 1.409 . S
C2141 C2139 1.415 . S
C2142 H2132 0.930 . S
C2142 C2140 1.419 . S
C2142 C2143 1.362 . S
C2143 H2133 0.930 . S
C2143 C2136 1.409 . S
C2143 C2142 1.362 . S
H2144 C2150 0.930 . S
H2145 C2153 0.930 . S
H2146 C2154 0.930 . S
H2147 C2155 0.930 . S
H2148 C2158 0.930 . S
H2149 C2159 0.930 . S
C2150 H2144 0.930 . S
C2150 C2151 1.355 . S
C2150 C2152 1.415 . S
C2151 C2150 1.355 . S
C2151 C2153 1.419 . S
C2152 C2150 1.415 . S
C2152 C2157 1.425 . S
C2152 C2159 1.409 . S
C2153 H2145 0.930 . S
C2153 C2151 1.419 . S
C2153 C2154 1.362 . S
C2154 H2146 0.930 . S
C2154 C2153 1.362 . S
C2154 C2157 1.409 . S
C2155 H2147 0.930 . S
C2155 C2156 1.355 . S
C2155 C2157 1.415 . S
C2156 C2155 1.355 . S
C2156 C2158 1.419 . S
C2157 C2152 1.425 . S
C2157 C2154 1.409 . S
C2157 C2155 1.415 . S
C2158 H2148 0.930 . S
C2158 C2156 1.419 . S
C2158 C2159 1.362 . S
C2159 H2149 0.930 . S
C2159 C2152 1.409 . S
C2159 C2158 1.362 . S
H2160 C2166 0.930 . S
H2161 C2169 0.930 . S
H2162 C2170 0.930 . S
H2163 C2171 0.939 . S
H2164 C2174 0.930 . S
H2165 C2175 0.930 . S
C2166 H2160 0.930 . S
C2166 C2167 1.355 . S
C2166 C2168 1.415 . S
C2167 C2166 1.355 . S
C2167 C2169 1.419 . S
C2168 C2166 1.415 . S
C2168 C2173 1.425 . S
C2168 C2175 1.409 . S
C2169 H2161 0.930 . S
C2169 C2167 1.419 . S
C2169 C2170 1.362 . S
C2170 H2162 0.930 . S
C2170 C2169 1.362 . S
C2170 C2173 1.409 . S
C2171 H2163 0.939 . S
C2171 C2172 1.355 . S
C2171 C2173 1.415 . S
C2172 C2171 1.355 . S
C2172 C2174 1.419 . S
C2173 C2168 1.425 . S
C2173 C2170 1.409 . S
C2173 C2171 1.415 . S
C2174 H2164 0.930 . S
C2174 C2172 1.419 . S
C2174 C2175 1.362 . S
C2175 H2165 0.930 . S
C2175 C2168 1.409 . S
C2175 C2174 1.362 . S
H2176 C2182 0.930 . S
H2177 C2185 0.930 . S
H2178 C2186 0.930 . S
H2179 C2187 0.930 . S
H2180 C2190 0.930 . S
H2181 C2191 0.930 . S
C2182 H2176 0.930 . S
C2182 C2183 1.355 . S
C2182 C2184 1.415 . S
C2183 C2182 1.355 . S
C2183 C2185 1.419 . S
C2184 C2182 1.415 . S
C2184 C2189 1.425 . S
C2184 C2191 1.409 . S
C2185 H2177 0.930 . S
C2185 C2183 1.419 . S
C2185 C2186 1.362 . S
C2186 H2178 0.930 . S
C2186 C2185 1.362 . S
C2186 C2189 1.409 . S
C2187 H2179 0.930 . S
C2187 C2188 1.355 . S
C2187 C2189 1.415 . S
C2188 C2187 1.355 . S
C2188 C2190 1.419 . S
C2189 C2184 1.425 . S
C2189 C2186 1.409 . S
C2189 C2187 1.415 . S
C2190 H2180 0.930 . S
C2190 C2188 1.419 . S
C2190 C2191 1.362 . S
C2191 H2181 0.930 . S
C2191 C2184 1.409 . S
C2191 C2190 1.362 . S
H2192 C2198 0.930 . S
H2193 C2201 0.930 . S
H2194 C2202 0.930 . S
H2195 C2203 0.930 . S
H2196 C2206 0.930 . S
H2197 C2207 0.930 . S
C2198 H2192 0.930 . S
C2198 C2199 1.355 1_565 S
C2198 C2200 1.415 1_565 S
C2199 C2198 1.355 1_545 S
C2199 C2201 1.419 . S
C2200 C2198 1.415 1_545 S
C2200 C2205 1.425 . S
C2200 C2207 1.409 1_545 S
C2201 H2193 0.930 . S
C2201 C2199 1.419 . S
C2201 C2202 1.362 . S
C2202 H2194 0.930 . S
C2202 C2201 1.362 . S
C2202 C2205 1.409 . S
C2203 H2195 0.930 . S
C2203 C2204 1.355 . S
C2203 C2205 1.415 . S
C2204 C2203 1.355 . S
C2204 C2206 1.419 1_545 S
C2205 C2200 1.425 . S
C2205 C2202 1.409 . S
C2205 C2203 1.415 . S
C2206 H2196 0.930 . S
C2206 C2204 1.419 1_565 S
C2206 C2207 1.362 . S
C2207 H2197 0.930 . S
C2207 C2200 1.409 1_565 S
C2207 C2206 1.362 . S
H2208 C2214 0.930 . S
H2209 C2217 0.930 . S
H2210 C2218 0.930 . S
H2211 C2219 0.930 . S
H2212 C2222 0.930 . S
H2213 C2223 0.930 . S
C2214 H2208 0.930 . S
C2214 C2215 1.355 . S
C2214 C2216 1.415 . S
C2215 C2214 1.355 . S
C2215 C2217 1.419 . S
C2216 C2214 1.415 . S
C2216 C2221 1.425 . S
C2216 C2223 1.409 . S
C2217 H2209 0.930 . S
C2217 C2215 1.419 . S
C2217 C2218 1.362 . S
C2218 H2210 0.930 . S
C2218 C2217 1.362 . S
C2218 C2221 1.409 . S
C2219 H2211 0.930 . S
C2219 C2220 1.355 . S
C2219 C2221 1.415 . S
C2220 C2219 1.355 . S
C2220 C2222 1.419 . S
C2221 C2216 1.425 . S
C2221 C2218 1.409 . S
C2221 C2219 1.415 . S
C2222 H2212 0.930 . S
C2222 C2220 1.419 . S
C2222 C2223 1.362 . S
C2223 H2213 0.930 . S
C2223 C2216 1.409 . S
C2223 C2222 1.362 . S
H2224 C2230 0.930 . S
H2225 C2233 0.930 . S
H2226 C2234 0.930 . S
H2227 C2235 0.930 . S
H2228 C2238 0.930 . S
H2229 C2239 0.930 . S
C2230 H2224 0.930 . S
C2230 C2231 1.355 . S
C2230 C2232 1.415 . S
C2231 C2230 1.355 . S
C2231 C2233 1.419 . S
C2232 C2230 1.415 . S
C2232 C2237 1.425 . S
C2232 C2239 1.409 . S
C2233 H2225 0.930 . S
C2233 C2231 1.419 . S
C2233 C2234 1.362 . S
C2234 H2226 0.930 . S
C2234 C2233 1.362 . S
C2234 C2237 1.409 . S
C2235 H2227 0.930 . S
C2235 C2236 1.355 . S
C2235 C2237 1.415 . S
C2236 C2235 1.355 . S
C2236 C2238 1.419 . S
C2237 C2232 1.425 . S
C2237 C2234 1.409 . S
C2237 C2235 1.415 . S
C2238 H2228 0.930 . S
C2238 C2236 1.419 . S
C2238 C2239 1.362 . S
C2239 H2229 0.930 . S
C2239 C2232 1.409 . S
C2239 C2238 1.362 . S
H2240 C2246 0.930 . S
H2241 C2249 0.930 . S
H2242 C2250 0.930 . S
H2243 C2251 0.930 . S
H2244 C2254 0.930 . S
H2245 C2255 0.930 . S
C2246 H2240 0.930 . S
C2246 C2247 1.355 . S
C2246 C2248 1.415 . S
C2247 C2246 1.355 . S
C2247 C2249 1.419 . S
C2248 C2246 1.415 . S
C2248 C2253 1.425 . S
C2248 C2255 1.409 . S
C2249 H2241 0.930 . S
C2249 C2247 1.419 . S
C2249 C2250 1.362 . S
C2250 H2242 0.930 . S
C2250 C2249 1.362 . S
C2250 C2253 1.409 . S
C2251 H2243 0.930 . S
C2251 C2252 1.355 . S
C2251 C2253 1.415 . S
C2252 C2251 1.355 . S
C2252 C2254 1.419 . S
C2253 C2248 1.425 . S
C2253 C2250 1.409 . S
C2253 C2251 1.415 . S
C2254 H2244 0.930 . S
C2254 C2252 1.419 . S
C2254 C2255 1.362 . S
C2255 H2245 0.930 . S
C2255 C2248 1.409 . S
C2255 C2254 1.362 . S
H2256 C2262 0.930 . S
H2257 C2265 0.930 . S
H2258 C2266 0.930 . S
H2259 C2267 0.930 . S
H2260 C2270 0.930 . S
H2261 C2271 0.930 . S
C2262 H2256 0.930 . S
C2262 C2263 1.355 1_565 S
C2262 C2264 1.415 1_565 S
C2263 C2262 1.355 1_545 S
C2263 C2265 1.419 . S
C2264 C2262 1.415 1_545 S
C2264 C2269 1.425 . S
C2264 C2271 1.409 1_545 S
C2265 H2257 0.930 . S
C2265 C2263 1.419 . S
C2265 C2266 1.362 . S
C2266 H2258 0.930 . S
C2266 C2265 1.362 . S
C2266 C2269 1.409 . S
C2267 H2259 0.930 . S
C2267 C2268 1.355 . S
C2267 C2269 1.415 . S
C2268 C2267 1.355 . S
C2268 C2270 1.419 1_545 S
C2269 C2264 1.425 . S
C2269 C2266 1.409 . S
C2269 C2267 1.415 . S
C2270 H2260 0.930 . S
C2270 C2268 1.419 1_565 S
C2270 C2271 1.362 . S
C2271 H2261 0.930 . S
C2271 C2264 1.409 1_565 S
C2271 C2270 1.362 . S
H2272 C2278 0.930 . S
H2273 C2281 0.930 . S
H2274 C2282 0.930 . S
H2275 C2283 0.930 . S
H2276 C2286 0.930 . S
H2277 C2287 0.930 . S
C2278 H2272 0.930 . S
C2278 C2279 1.355 . S
C2278 C2280 1.415 . S
C2279 C2278 1.355 . S
C2279 C2281 1.419 . S
C2280 C2278 1.415 . S
C2280 C2285 1.425 . S
C2280 C2287 1.409 . S
C2281 H2273 0.930 . S
C2281 C2279 1.419 . S
C2281 C2282 1.362 . S
C2282 H2274 0.930 . S
C2282 C2281 1.362 . S
C2282 C2285 1.409 . S
C2283 H2275 0.930 . S
C2283 C2284 1.355 . S
C2283 C2285 1.415 . S
C2284 C2283 1.355 . S
C2284 C2286 1.419 . S
C2285 C2280 1.425 . S
C2285 C2282 1.409 . S
C2285 C2283 1.415 . S
C2286 H2276 0.930 . S
C2286 C2284 1.419 . S
C2286 C2287 1.362 . S
C2287 H2277 0.930 . S
C2287 C2280 1.409 . S
C2287 C2286 1.362 . S
H2288 C2294 0.930 . S
H2289 C2297 0.930 . S
H2290 C2298 0.930 . S
H2291 C2299 0.930 . S
H2292 C2302 0.930 . S
H2293 C2303 0.930 . S
C2294 H2288 0.930 . S
C2294 C2295 1.355 1_565 S
C2294 C2296 1.415 1_565 S
C2295 C2294 1.355 1_545 S
C2295 C2297 1.419 . S
C2296 C2294 1.415 1_545 S
C2296 C2301 1.425 . S
C2296 C2303 1.409 1_545 S
C2297 H2289 0.930 . S
C2297 C2295 1.419 . S
C2297 C2298 1.362 . S
C2298 H2290 0.930 . S
C2298 C2297 1.362 . S
C2298 C2301 1.409 . S
C2299 H2291 0.930 . S
C2299 C2300 1.355 . S
C2299 C2301 1.415 . S
C2300 C2299 1.355 . S
C2300 C2302 1.419 1_545 S
C2301 C2296 1.425 . S
C2301 C2298 1.409 . S
C2301 C2299 1.415 . S
C2302 H2292 0.930 . S
C2302 C2300 1.419 1_565 S
C2302 C2303 1.362 . S
C2303 H2293 0.930 . S
C2303 C2296 1.409 1_565 S
C2303 C2302 1.362 . S
H2304 C2310 0.930 . S
H2305 C2313 0.930 . S
H2306 C2314 0.930 . S
H2307 C2315 0.930 . S
H2308 C2318 0.930 . S
H2309 C2319 0.930 . S
C2310 H2304 0.930 . S
C2310 C2311 1.355 . S
C2310 C2312 1.415 . S
C2311 C2310 1.355 . S
C2311 C2313 1.419 . S
C2312 C2310 1.415 . S
C2312 C2317 1.425 . S
C2312 C2319 1.409 . S
C2313 H2305 0.930 . S
C2313 C2311 1.419 . S
C2313 C2314 1.362 . S
C2314 H2306 0.930 . S
C2314 C2313 1.362 . S
C2314 C2317 1.409 . S
C2315 H2307 0.930 . S
C2315 C2316 1.355 . S
C2315 C2317 1.415 . S
C2316 C2315 1.355 . S
C2316 C2318 1.419 . S
C2317 C2312 1.425 . S
C2317 C2314 1.409 . S
C2317 C2315 1.415 . S
C2318 H2308 0.930 . S
C2318 C2316 1.419 . S
C2318 C2319 1.362 . S
C2319 H2309 0.930 . S
C2319 C2312 1.409 . S
C2319 C2318 1.362 . S
H2320 C2326 0.930 . S
H2321 C2329 0.930 . S
H2322 C2330 0.930 . S
H2323 C2331 0.930 . S
H2324 C2334 0.930 . S
H2325 C2335 0.930 . S
C2326 H2320 0.930 . S
C2326 C2327 1.355 . S
C2326 C2328 1.415 . S
C2327 C2326 1.355 . S
C2327 C2329 1.419 . S
C2328 C2326 1.415 . S
C2328 C2333 1.425 . S
C2328 C2335 1.409 . S
C2329 H2321 0.930 . S
C2329 C2327 1.419 . S
C2329 C2330 1.362 . S
C2330 H2322 0.930 . S
C2330 C2329 1.362 . S
C2330 C2333 1.409 . S
C2331 H2323 0.930 . S
C2331 C2332 1.355 . S
C2331 C2333 1.415 . S
C2332 C2331 1.355 . S
C2332 C2334 1.419 . S
C2333 C2328 1.425 . S
C2333 C2330 1.409 . S
C2333 C2331 1.415 . S
C2334 H2324 0.930 . S
C2334 C2332 1.419 . S
C2334 C2335 1.362 . S
C2335 H2325 0.930 . S
C2335 C2328 1.409 . S
C2335 C2334 1.362 . S
H2336 C2342 0.930 . S
H2337 C2345 0.930 . S
H2338 C2346 0.930 . S
H2339 C2347 0.930 . S
H2340 C2350 0.930 . S
H2341 C2351 0.930 . S
C2342 H2336 0.930 . S
C2342 C2343 1.355 . S
C2342 C2344 1.415 . S
C2343 C2342 1.355 . S
C2343 C2345 1.419 . S
C2344 C2342 1.415 . S
C2344 C2349 1.425 . S
C2344 C2351 1.409 . S
C2345 H2337 0.930 . S
C2345 C2343 1.419 . S
C2345 C2346 1.362 . S
C2346 H2338 0.930 . S
C2346 C2345 1.362 . S
C2346 C2349 1.409 . S
C2347 H2339 0.930 . S
C2347 C2348 1.355 . S
C2347 C2349 1.415 . S
C2348 C2347 1.355 . S
C2348 C2350 1.419 . S
C2349 C2344 1.425 . S
C2349 C2346 1.409 . S
C2349 C2347 1.415 . S
C2350 H2340 0.930 . S
C2350 C2348 1.419 . S
C2350 C2351 1.362 . S
C2351 H2341 0.930 . S
C2351 C2344 1.409 . S
C2351 C2350 1.362 . S
H2352 C2358 0.930 . S
H2353 C2361 0.930 . S
H2354 C2362 0.930 . S
H2355 C2363 0.930 . S
H2356 C2366 0.930 . S
H2357 C2367 0.930 . S
C2358 H2352 0.930 . S
C2358 C2359 1.355 . S
C2358 C2360 1.415 . S
C2359 C2358 1.355 . S
C2359 C2361 1.419 . S
C2360 C2358 1.415 . S
C2360 C2365 1.425 . S
C2360 C2367 1.409 . S
C2361 H2353 0.930 . S
C2361 C2359 1.419 . S
C2361 C2362 1.362 . S
C2362 H2354 0.930 . S
C2362 C2361 1.362 . S
C2362 C2365 1.409 . S
C2363 H2355 0.930 . S
C2363 C2364 1.355 . S
C2363 C2365 1.415 . S
C2364 C2363 1.355 . S
C2364 C2366 1.419 . S
C2365 C2360 1.425 . S
C2365 C2362 1.409 . S
C2365 C2363 1.415 . S
C2366 H2356 0.930 . S
C2366 C2364 1.419 . S
C2366 C2367 1.362 . S
C2367 H2357 0.930 . S
C2367 C2360 1.409 . S
C2367 C2366 1.362 . S
H2368 C2374 0.930 . S
H2369 C2377 0.930 . S
H2370 C2378 0.930 . S
H2371 C2379 0.930 . S
H2372 C2382 0.930 . S
H2373 C2383 0.930 . S
C2374 H2368 0.930 . S
C2374 C2375 1.355 . S
C2374 C2376 1.415 . S
C2375 C2374 1.355 . S
C2375 C2377 1.419 . S
C2376 C2374 1.415 . S
C2376 C2381 1.425 . S
C2376 C2383 1.409 . S
C2377 H2369 0.930 . S
C2377 C2375 1.419 . S
C2377 C2378 1.362 . S
C2378 H2370 0.930 . S
C2378 C2377 1.362 . S
C2378 C2381 1.409 . S
C2379 H2371 0.930 . S
C2379 C2380 1.355 . S
C2379 C2381 1.415 . S
C2380 C2379 1.355 . S
C2380 C2382 1.419 . S
C2381 C2376 1.425 . S
C2381 C2378 1.409 . S
C2381 C2379 1.415 . S
C2382 H2372 0.930 . S
C2382 C2380 1.419 . S
C2382 C2383 1.362 . S
C2383 H2373 0.930 . S
C2383 C2376 1.409 . S
C2383 C2382 1.362 . S
H2384 C2390 0.930 1_545 S
H2385 C2393 0.930 . S
H2386 C2394 0.930 . S
H2387 C2395 0.930 . S
H2388 C2398 0.930 . S
H2389 C2399 0.930 1_545 S
C2390 H2384 0.930 1_565 S
C2390 C2391 1.355 . S
C2390 C2392 1.415 . S
C2391 C2390 1.355 . S
C2391 C2393 1.419 . S
C2392 C2390 1.415 . S
C2392 C2397 1.425 . S
C2392 C2399 1.409 . S
C2393 H2385 0.930 . S
C2393 C2391 1.419 . S
C2393 C2394 1.362 . S
C2394 H2386 0.930 . S
C2394 C2393 1.362 . S
C2394 C2397 1.409 . S
C2395 H2387 0.930 . S
C2395 C2396 1.355 . S
C2395 C2397 1.415 . S
C2396 C2395 1.355 . S
C2396 C2398 1.419 . S
C2397 C2392 1.425 . S
C2397 C2394 1.409 . S
C2397 C2395 1.415 . S
C2398 H2388 0.930 . S
C2398 C2396 1.419 . S
C2398 C2399 1.362 . S
C2399 H2389 0.930 1_565 S
C2399 C2392 1.409 . S
C2399 C2398 1.362 . S
H2400 C2406 0.930 . S
H2401 C2409 0.930 . S
H2402 C2410 0.930 . S
H2403 C2411 0.930 . S
H2404 C2414 0.930 . S
H2405 C2415 0.930 . S
C2406 H2400 0.930 . S
C2406 C2407 1.355 . S
C2406 C2408 1.415 . S
C2407 C2406 1.355 . S
C2407 C2409 1.419 . S
C2408 C2406 1.415 . S
C2408 C2413 1.425 . S
C2408 C2415 1.409 . S
C2409 H2401 0.930 . S
C2409 C2407 1.419 . S
C2409 C2410 1.362 . S
C2410 H2402 0.930 . S
C2410 C2409 1.362 . S
C2410 C2413 1.409 . S
C2411 H2403 0.930 . S
C2411 C2412 1.355 . S
C2411 C2413 1.415 . S
C2412 C2411 1.355 . S
C2412 C2414 1.419 . S
C2413 C2408 1.425 . S
C2413 C2410 1.409 . S
C2413 C2411 1.415 . S
C2414 H2404 0.930 . S
C2414 C2412 1.419 . S
C2414 C2415 1.362 . S
C2415 H2405 0.930 . S
C2415 C2408 1.409 . S
C2415 C2414 1.362 . S
H2416 C2422 0.930 . S
H2417 C2425 0.930 . S
H2418 C2426 0.930 . S
H2419 C2427 0.930 . S
H2420 C2430 0.930 . S
H2421 C2431 0.930 . S
C2422 H2416 0.930 . S
C2422 C2423 1.355 . S
C2422 C2424 1.415 . S
C2423 C2422 1.355 . S
C2423 C2425 1.419 . S
C2424 C2422 1.415 . S
C2424 C2429 1.425 . S
C2424 C2431 1.409 . S
C2425 H2417 0.930 . S
C2425 C2423 1.419 . S
C2425 C2426 1.362 . S
C2426 H2418 0.930 . S
C2426 C2425 1.362 . S
C2426 C2429 1.409 . S
C2427 H2419 0.930 . S
C2427 C2428 1.355 . S
C2427 C2429 1.415 . S
C2428 C2427 1.355 . S
C2428 C2430 1.419 . S
C2429 C2424 1.425 . S
C2429 C2426 1.409 . S
C2429 C2427 1.415 . S
C2430 H2420 0.930 . S
C2430 C2428 1.419 . S
C2430 C2431 1.362 . S
C2431 H2421 0.930 . S
C2431 C2424 1.409 . S
C2431 C2430 1.362 . S
H2432 C2438 0.930 . S
H2433 C2441 0.930 . S
H2434 C2442 0.930 . S
H2435 C2443 0.930 . S
H2436 C2446 0.930 . S
H2437 C2447 0.930 . S
C2438 H2432 0.930 . S
C2438 C2439 1.355 . S
C2438 C2440 1.415 . S
C2439 C2438 1.355 . S
C2439 C2441 1.419 . S
C2440 C2438 1.415 . S
C2440 C2445 1.425 . S
C2440 C2447 1.409 . S
C2441 H2433 0.930 . S
C2441 C2439 1.419 . S
C2441 C2442 1.362 . S
C2442 H2434 0.930 . S
C2442 C2441 1.362 . S
C2442 C2445 1.409 . S
C2443 H2435 0.930 . S
C2443 C2444 1.355 . S
C2443 C2445 1.415 . S
C2444 C2443 1.355 . S
C2444 C2446 1.419 . S
C2445 C2440 1.425 . S
C2445 C2442 1.409 . S
C2445 C2443 1.415 . S
C2446 H2436 0.930 . S
C2446 C2444 1.419 . S
C2446 C2447 1.362 . S
C2447 H2437 0.930 . S
C2447 C2440 1.409 . S
C2447 C2446 1.362 . S
H2448 C2454 0.930 . S
H2449 C2457 0.930 . S
H2450 C2458 0.930 . S
H2451 C2459 0.930 . S
H2452 C2462 0.930 . S
H2453 C2463 0.930 . S
C2454 H2448 0.930 . S
C2454 C2455 1.355 . S
C2454 C2456 1.415 . S
C2455 C2454 1.355 . S
C2455 C2457 1.419 . S
C2456 C2454 1.415 . S
C2456 C2461 1.425 . S
C2456 C2463 1.409 . S
C2457 H2449 0.930 . S
C2457 C2455 1.419 . S
C2457 C2458 1.362 . S
C2458 H2450 0.930 . S
C2458 C2457 1.362 . S
C2458 C2461 1.409 . S
C2459 H2451 0.930 . S
C2459 C2460 1.355 . S
C2459 C2461 1.415 . S
C2460 C2459 1.355 . S
C2460 C2462 1.419 . S
C2461 C2456 1.425 . S
C2461 C2458 1.409 . S
C2461 C2459 1.415 . S
C2462 H2452 0.930 . S
C2462 C2460 1.419 . S
C2462 C2463 1.362 . S
C2463 H2453 0.930 . S
C2463 C2456 1.409 . S
C2463 C2462 1.362 . S
H2464 C2470 0.930 . S
H2465 C2473 0.930 . S
H2466 C2474 0.930 . S
H2467 C2475 0.930 . S
H2468 C2478 0.930 . S
H2469 C2479 0.930 . S
C2470 H2464 0.930 . S
C2470 C2471 1.355 . S
C2470 C2472 1.415 . S
C2471 C2470 1.355 . S
C2471 C2473 1.419 . S
C2472 C2470 1.415 . S
C2472 C2477 1.425 . S
C2472 C2479 1.409 . S
C2473 H2465 0.930 . S
C2473 C2471 1.419 . S
C2473 C2474 1.362 . S
C2474 H2466 0.930 . S
C2474 C2473 1.362 . S
C2474 C2477 1.409 . S
C2475 H2467 0.930 . S
C2475 C2476 1.355 . S
C2475 C2477 1.415 . S
C2476 C2475 1.355 . S
C2476 C2478 1.419 . S
C2477 C2472 1.425 . S
C2477 C2474 1.409 . S
C2477 C2475 1.415 . S
C2478 H2468 0.930 . S
C2478 C2476 1.419 . S
C2478 C2479 1.362 . S
C2479 H2469 0.930 . S
C2479 C2472 1.409 . S
C2479 C2478 1.362 . S
H2480 C2486 0.930 . S
H2481 C2489 0.930 . S
H2482 C2490 0.930 . S
H2483 C2491 0.930 . S
H2484 C2494 0.930 . S
H2485 C2495 0.930 . S
C2486 H2480 0.930 . S
C2486 C2487 1.355 1_554 S
C2486 C2488 1.415 . S
C2487 C2486 1.355 1_556 S
C2487 C2489 1.419 . S
C2488 C2486 1.415 . S
C2488 C2493 1.425 . S
C2488 C2495 1.409 . S
C2489 H2481 0.930 . S
C2489 C2487 1.419 . S
C2489 C2490 1.362 . S
C2490 H2482 0.930 . S
C2490 C2489 1.362 . S
C2490 C2493 1.409 1_556 S
C2491 H2483 0.930 . S
C2491 C2492 1.355 . S
C2491 C2493 1.415 . S
C2492 C2491 1.355 . S
C2492 C2494 1.419 . S
C2493 C2488 1.425 . S
C2493 C2490 1.409 1_554 S
C2493 C2491 1.415 . S
C2494 H2484 0.930 . S
C2494 C2492 1.419 . S
C2494 C2495 1.362 . S
C2495 H2485 0.930 . S
C2495 C2488 1.409 . S
C2495 C2494 1.362 . S
H2496 C2502 0.930 . S
H2497 C2505 0.930 . S
H2498 C2506 0.930 . S
H2499 C2507 0.930 . S
H2500 C2510 0.930 . S
H2501 C2511 0.930 . S
C2502 H2496 0.930 . S
C2502 C2503 1.355 . S
C2502 C2504 1.415 . S
C2503 C2502 1.355 . S
C2503 C2505 1.419 . S
C2504 C2502 1.415 . S
C2504 C2509 1.425 1_455 S
C2504 C2511 1.409 . S
C2505 H2497 0.930 . S
C2505 C2503 1.419 . S
C2505 C2506 1.362 1_455 S
C2506 H2498 0.930 . S
C2506 C2505 1.362 1_655 S
C2506 C2509 1.409 . S
C2507 H2499 0.930 . S
C2507 C2508 1.355 . S
C2507 C2509 1.415 . S
C2508 C2507 1.355 . S
C2508 C2510 1.419 . S
C2509 C2504 1.425 1_655 S
C2509 C2506 1.409 . S
C2509 C2507 1.415 . S
C2510 H2500 0.930 . S
C2510 C2508 1.419 . S
C2510 C2511 1.362 1_655 S
C2511 H2501 0.930 . S
C2511 C2504 1.409 . S
C2511 C2510 1.362 1_455 S
H2512 C2518 0.930 . S
H2513 C2521 0.930 . S
H2514 C2522 0.930 . S
H2515 C2523 0.930 . S
H2516 C2526 0.930 . S
H2517 C2527 0.930 . S
C2518 H2512 0.930 . S
C2518 C2519 1.355 . S
C2518 C2520 1.415 . S
C2519 C2518 1.355 . S
C2519 C2521 1.419 . S
C2520 C2518 1.415 . S
C2520 C2525 1.425 . S
C2520 C2527 1.409 . S
C2521 H2513 0.930 . S
C2521 C2519 1.419 . S
C2521 C2522 1.362 . S
C2522 H2514 0.930 . S
C2522 C2521 1.362 . S
C2522 C2525 1.409 . S
C2523 H2515 0.930 . S
C2523 C2524 1.355 . S
C2523 C2525 1.415 . S
C2524 C2523 1.355 . S
C2524 C2526 1.419 . S
C2525 C2520 1.425 . S
C2525 C2522 1.409 . S
C2525 C2523 1.415 . S
C2526 H2516 0.930 . S
C2526 C2524 1.419 . S
C2526 C2527 1.362 . S
C2527 H2517 0.930 . S
C2527 C2520 1.409 . S
C2527 C2526 1.362 . S
H2528 C2534 0.930 . S
H2529 C2537 0.930 . S
H2530 C2538 0.930 . S
H2531 C2539 0.930 . S
H2532 C2542 0.930 . S
H2533 C2543 0.930 . S
C2534 H2528 0.930 . S
C2534 C2535 1.355 . S
C2534 C2536 1.415 . S
C2535 C2534 1.355 . S
C2535 C2537 1.419 . S
C2536 C2534 1.415 . S
C2536 C2541 1.425 . S
C2536 C2543 1.409 1_455 S
C2537 H2529 0.930 . S
C2537 C2535 1.419 . S
C2537 C2538 1.362 . S
C2538 H2530 0.930 . S
C2538 C2537 1.362 . S
C2538 C2541 1.409 . S
C2539 H2531 0.930 . S
C2539 C2540 1.355 1_455 S
C2539 C2541 1.415 . S
C2540 C2539 1.355 1_655 S
C2540 C2542 1.419 . S
C2541 C2536 1.425 . S
C2541 C2538 1.409 . S
C2541 C2539 1.415 . S
C2542 H2532 0.930 . S
C2542 C2540 1.419 . S
C2542 C2543 1.362 . S
C2543 H2533 0.930 . S
C2543 C2536 1.409 1_655 S
C2543 C2542 1.362 . S
H2544 C2550 0.930 . S
H2545 C2553 0.930 . S
H2546 C2554 0.930 . S
H2547 C2555 0.930 . S
H2548 C2558 0.930 . S
H2549 C2559 0.926 . S
C2550 H2544 0.930 . S
C2550 C2551 1.355 . S
C2550 C2552 1.415 1_655 S
C2551 C2550 1.355 . S
C2551 C2553 1.402 1_655 S
C2552 C2550 1.415 1_455 S
C2552 C2557 1.425 . S
C2552 C2559 1.409 1_455 S
C2553 H2545 0.930 . S
C2553 C2551 1.402 1_455 S
C2553 C2554 1.362 . S
C2554 H2546 0.930 . S
C2554 C2553 1.362 . S
C2554 C2557 1.409 . S
C2555 H2547 0.930 . S
C2555 C2556 1.355 . S
C2555 C2557 1.415 . S
C2556 C2555 1.355 . S
C2556 C2558 1.419 . S
C2557 C2552 1.425 . S
C2557 C2554 1.409 . S
C2557 C2555 1.415 . S
C2558 H2548 0.930 . S
C2558 C2556 1.419 . S
C2558 C2559 1.366 1_455 S
C2559 H2549 0.926 . S
C2559 C2552 1.409 1_655 S
C2559 C2558 1.366 1_655 S
H2560 C2566 0.930 . S
H2561 C2569 0.930 . S
H2562 C2570 0.930 . S
H2563 C2571 0.930 . S
H2564 C2574 0.930 . S
H2565 C2575 0.930 . S
C2566 H2560 0.930 . S
C2566 C2567 1.355 . S
C2566 C2568 1.415 . S
C2567 C2566 1.355 . S
C2567 C2569 1.419 . S
C2568 C2566 1.415 . S
C2568 C2573 1.425 . S
C2568 C2575 1.409 . S
C2569 H2561 0.930 . S
C2569 C2567 1.419 . S
C2569 C2570 1.362 . S
C2570 H2562 0.930 . S
C2570 C2569 1.362 . S
C2570 C2573 1.409 . S
C2571 H2563 0.930 . S
C2571 C2572 1.355 . S
C2571 C2573 1.415 . S
C2572 C2571 1.355 . S
C2572 C2574 1.419 . S
C2573 C2568 1.425 . S
C2573 C2570 1.409 . S
C2573 C2571 1.415 . S
C2574 H2564 0.930 . S
C2574 C2572 1.419 . S
C2574 C2575 1.362 . S
C2575 H2565 0.930 . S
C2575 C2568 1.409 . S
C2575 C2574 1.362 . S
H2576 C2582 0.930 . S
H2577 C2585 0.930 . S
H2578 C2586 0.930 . S
H2579 C2587 0.930 . S
H2580 C2590 0.930 . S
H2581 C2591 0.930 . S
C2582 H2576 0.930 . S
C2582 C2583 1.355 . S
C2582 C2584 1.415 . S
C2583 C2582 1.355 . S
C2583 C2585 1.419 . S
C2584 C2582 1.415 . S
C2584 C2589 1.425 . S
C2584 C2591 1.409 . S
C2585 H2577 0.930 . S
C2585 C2583 1.419 . S
C2585 C2586 1.362 . S
C2586 H2578 0.930 . S
C2586 C2585 1.362 . S
C2586 C2589 1.409 . S
C2587 H2579 0.930 . S
C2587 C2588 1.355 . S
C2587 C2589 1.415 . S
C2588 C2587 1.355 . S
C2588 C2590 1.419 . S
C2589 C2584 1.425 . S
C2589 C2586 1.409 . S
C2589 C2587 1.415 . S
C2590 H2580 0.930 . S
C2590 C2588 1.419 . S
C2590 C2591 1.362 . S
C2591 H2581 0.930 . S
C2591 C2584 1.409 . S
C2591 C2590 1.362 . S
H2592 C2598 0.930 . S
H2593 C2601 0.930 . S
H2594 C2602 0.930 . S
H2595 C2603 0.930 . S
H2596 C2606 0.930 . S
H2597 C2607 0.930 . S
C2598 H2592 0.930 . S
C2598 C2599 1.355 . S
C2598 C2600 1.415 . S
C2599 C2598 1.355 . S
C2599 C2601 1.419 . S
C2600 C2598 1.415 . S
C2600 C2605 1.425 . S
C2600 C2607 1.409 . S
C2601 H2593 0.930 . S
C2601 C2599 1.419 . S
C2601 C2602 1.362 . S
C2602 H2594 0.930 . S
C2602 C2601 1.362 . S
C2602 C2605 1.409 . S
C2603 H2595 0.930 . S
C2603 C2604 1.355 . S
C2603 C2605 1.415 . S
C2604 C2603 1.355 . S
C2604 C2606 1.419 . S
C2605 C2600 1.425 . S
C2605 C2602 1.409 . S
C2605 C2603 1.415 . S
C2606 H2596 0.930 . S
C2606 C2604 1.419 . S
C2606 C2607 1.362 . S
C2607 H2597 0.930 . S
C2607 C2600 1.409 . S
C2607 C2606 1.362 . S
H2608 C2614 0.930 . S
H2609 C2617 0.930 . S
H2610 C2618 0.930 . S
H2611 C2619 0.930 . S
H2612 C2622 0.930 . S
H2613 C2623 0.930 . S
C2614 H2608 0.930 . S
C2614 C2615 1.355 . S
C2614 C2616 1.415 . S
C2615 C2614 1.355 . S
C2615 C2617 1.419 . S
C2616 C2614 1.415 . S
C2616 C2621 1.425 . S
C2616 C2623 1.409 . S
C2617 H2609 0.930 . S
C2617 C2615 1.419 . S
C2617 C2618 1.362 . S
C2618 H2610 0.930 . S
C2618 C2617 1.362 . S
C2618 C2621 1.409 . S
C2619 H2611 0.930 . S
C2619 C2620 1.355 . S
C2619 C2621 1.415 . S
C2620 C2619 1.355 . S
C2620 C2622 1.419 . S
C2621 C2616 1.425 . S
C2621 C2618 1.409 . S
C2621 C2619 1.415 . S
C2622 H2612 0.930 . S
C2622 C2620 1.419 . S
C2622 C2623 1.362 . S
C2623 H2613 0.930 . S
C2623 C2616 1.409 . S
C2623 C2622 1.362 . S
H2624 C2630 0.930 . S
H2625 C2633 0.930 . S
H2626 C2634 0.930 . S
H2627 C2635 0.930 . S
H2628 C2638 0.930 . S
H2629 C2639 0.930 . S
C2630 H2624 0.930 . S
C2630 C2631 1.355 . S
C2630 C2632 1.415 . S
C2631 C2630 1.355 . S
C2631 C2633 1.419 . S
C2632 C2630 1.415 . S
C2632 C2637 1.425 . S
C2632 C2639 1.409 . S
C2633 H2625 0.930 . S
C2633 C2631 1.419 . S
C2633 C2634 1.362 . S
C2634 H2626 0.930 . S
C2634 C2633 1.362 . S
C2634 C2637 1.409 . S
C2635 H2627 0.930 . S
C2635 C2636 1.355 . S
C2635 C2637 1.415 . S
C2636 C2635 1.355 . S
C2636 C2638 1.419 . S
C2637 C2632 1.425 . S
C2637 C2634 1.409 . S
C2637 C2635 1.415 . S
C2638 H2628 0.930 . S
C2638 C2636 1.419 . S
C2638 C2639 1.362 . S
C2639 H2629 0.930 . S
C2639 C2632 1.409 . S
C2639 C2638 1.362 . S
H2640 C2646 0.930 . S
H2641 C2649 0.930 . S
H2642 C2650 0.930 . S
H2643 C2651 0.930 . S
H2644 C2654 0.930 . S
H2645 C2655 0.930 . S
C2646 H2640 0.930 . S
C2646 C2647 1.355 . S
C2646 C2648 1.415 . S
C2647 C2646 1.355 . S
C2647 C2649 1.419 . S
C2648 C2646 1.415 . S
C2648 C2653 1.425 . S
C2648 C2655 1.409 . S
C2649 H2641 0.930 . S
C2649 C2647 1.419 . S
C2649 C2650 1.362 . S
C2650 H2642 0.930 . S
C2650 C2649 1.362 . S
C2650 C2653 1.409 . S
C2651 H2643 0.930 . S
C2651 C2652 1.355 . S
C2651 C2653 1.415 . S
C2652 C2651 1.355 . S
C2652 C2654 1.419 . S
C2653 C2648 1.425 . S
C2653 C2650 1.409 . S
C2653 C2651 1.415 . S
C2654 H2644 0.930 . S
C2654 C2652 1.419 . S
C2654 C2655 1.362 . S
C2655 H2645 0.930 . S
C2655 C2648 1.409 . S
C2655 C2654 1.362 . S
H2656 C2662 0.930 . S
H2657 C2665 0.930 . S
H2658 C2666 0.930 . S
H2659 C2667 0.930 . S
H2660 C2670 0.930 . S
H2661 C2671 0.930 . S
C2662 H2656 0.930 . S
C2662 C2663 1.355 . S
C2662 C2664 1.415 . S
C2663 C2662 1.355 . S
C2663 C2665 1.419 . S
C2664 C2662 1.415 . S
C2664 C2669 1.425 . S
C2664 C2671 1.409 . S
C2665 H2657 0.930 . S
C2665 C2663 1.419 . S
C2665 C2666 1.362 . S
C2666 H2658 0.930 . S
C2666 C2665 1.362 . S
C2666 C2669 1.409 . S
C2667 H2659 0.930 . S
C2667 C2668 1.355 . S
C2667 C2669 1.415 . S
C2668 C2667 1.355 . S
C2668 C2670 1.419 . S
C2669 C2664 1.425 . S
C2669 C2666 1.409 . S
C2669 C2667 1.415 . S
C2670 H2660 0.930 . S
C2670 C2668 1.419 . S
C2670 C2671 1.362 . S
C2671 H2661 0.930 . S
C2671 C2664 1.409 . S
C2671 C2670 1.362 . S
H2672 C2678 0.930 . S
H2673 C2681 0.930 . S
H2674 C2682 0.930 . S
H2675 C2683 0.930 . S
H2676 C2686 0.930 . S
H2677 C2687 0.930 . S
C2678 H2672 0.930 . S
C2678 C2679 1.355 . S
C2678 C2680 1.415 . S
C2679 C2678 1.355 . S
C2679 C2681 1.419 . S
C2680 C2678 1.415 . S
C2680 C2685 1.425 . S
C2680 C2687 1.409 . S
C2681 H2673 0.930 . S
C2681 C2679 1.419 . S
C2681 C2682 1.362 . S
C2682 H2674 0.930 . S
C2682 C2681 1.362 . S
C2682 C2685 1.409 . S
C2683 H2675 0.930 . S
C2683 C2684 1.355 . S
C2683 C2685 1.415 . S
C2684 C2683 1.355 . S
C2684 C2686 1.419 . S
C2685 C2680 1.425 . S
C2685 C2682 1.409 . S
C2685 C2683 1.415 . S
C2686 H2676 0.930 . S
C2686 C2684 1.419 . S
C2686 C2687 1.362 . S
C2687 H2677 0.930 . S
C2687 C2680 1.409 . S
C2687 C2686 1.362 . S
H2688 C2694 0.930 . S
H2689 C2697 0.930 . S
H2690 C2698 0.930 . S
H2691 C2699 0.930 . S
H2692 C2702 0.930 . S
H2693 C2703 0.930 . S
C2694 H2688 0.930 . S
C2694 C2695 1.355 . S
C2694 C2696 1.415 . S
C2695 C2694 1.355 . S
C2695 C2697 1.419 . S
C2696 C2694 1.415 . S
C2696 C2701 1.425 . S
C2696 C2703 1.409 . S
C2697 H2689 0.930 . S
C2697 C2695 1.419 . S
C2697 C2698 1.362 . S
C2698 H2690 0.930 . S
C2698 C2697 1.362 . S
C2698 C2701 1.409 . S
C2699 H2691 0.930 . S
C2699 C2700 1.355 . S
C2699 C2701 1.415 . S
C2700 C2699 1.355 . S
C2700 C2702 1.419 . S
C2701 C2696 1.425 . S
C2701 C2698 1.409 . S
C2701 C2699 1.415 . S
C2702 H2692 0.930 . S
C2702 C2700 1.419 . S
C2702 C2703 1.362 . S
C2703 H2693 0.930 . S
C2703 C2696 1.409 . S
C2703 C2702 1.362 . S
H2704 C2710 0.930 . S
H2705 C2713 0.930 . S
H2706 C2714 0.930 . S
H2707 C2715 0.930 . S
H2708 C2718 0.930 . S
H2709 C2719 0.930 . S
C2710 H2704 0.930 . S
C2710 C2711 1.355 . S
C2710 C2712 1.415 . S
C2711 C2710 1.355 . S
C2711 C2713 1.419 . S
C2712 C2710 1.415 . S
C2712 C2717 1.425 . S
C2712 C2719 1.409 . S
C2713 H2705 0.930 . S
C2713 C2711 1.419 . S
C2713 C2714 1.362 . S
C2714 H2706 0.930 . S
C2714 C2713 1.362 . S
C2714 C2717 1.409 . S
C2715 H2707 0.930 . S
C2715 C2716 1.355 . S
C2715 C2717 1.415 . S
C2716 C2715 1.355 . S
C2716 C2718 1.419 . S
C2717 C2712 1.425 . S
C2717 C2714 1.409 . S
C2717 C2715 1.415 . S
C2718 H2708 0.930 . S
C2718 C2716 1.419 . S
C2718 C2719 1.362 . S
C2719 H2709 0.930 . S
C2719 C2712 1.409 . S
C2719 C2718 1.362 . S
H2720 C2726 0.930 . S
H2721 C2729 0.930 . S
H2722 C2730 0.930 . S
H2723 C2731 0.930 . S
H2724 C2734 0.930 . S
H2725 C2735 0.930 . S
C2726 H2720 0.930 . S
C2726 C2727 1.355 . S
C2726 C2728 1.415 . S
C2727 C2726 1.355 . S
C2727 C2729 1.419 . S
C2728 C2726 1.415 . S
C2728 C2733 1.425 . S
C2728 C2735 1.409 . S
C2729 H2721 0.930 . S
C2729 C2727 1.419 . S
C2729 C2730 1.362 . S
C2730 H2722 0.930 . S
C2730 C2729 1.362 . S
C2730 C2733 1.409 . S
C2731 H2723 0.930 . S
C2731 C2732 1.355 . S
C2731 C2733 1.415 . S
C2732 C2731 1.355 . S
C2732 C2734 1.419 . S
C2733 C2728 1.425 . S
C2733 C2730 1.409 . S
C2733 C2731 1.415 . S
C2734 H2724 0.930 . S
C2734 C2732 1.419 . S
C2734 C2735 1.362 . S
C2735 H2725 0.930 . S
C2735 C2728 1.409 . S
C2735 C2734 1.362 . S
H2736 C2742 0.930 . S
H2737 C2745 0.930 . S
H2738 C2746 0.930 . S
H2739 C2747 0.930 . S
H2740 C2750 0.930 . S
H2741 C2751 0.930 . S
C2742 H2736 0.930 . S
C2742 C2743 1.355 . S
C2742 C2744 1.415 . S
C2743 C2742 1.355 . S
C2743 C2745 1.419 . S
C2744 C2742 1.415 . S
C2744 C2749 1.425 . S
C2744 C2751 1.409 . S
C2745 H2737 0.930 . S
C2745 C2743 1.419 . S
C2745 C2746 1.362 . S
C2746 H2738 0.930 . S
C2746 C2745 1.362 . S
C2746 C2749 1.409 . S
C2747 H2739 0.930 . S
C2747 C2748 1.355 . S
C2747 C2749 1.415 . S
C2748 C2747 1.355 . S
C2748 C2750 1.419 . S
C2749 C2744 1.425 . S
C2749 C2746 1.409 . S
C2749 C2747 1.415 . S
C2750 H2740 0.930 . S
C2750 C2748 1.419 . S
C2750 C2751 1.362 . S
C2751 H2741 0.930 . S
C2751 C2744 1.409 . S
C2751 C2750 1.362 . S
H2752 C2758 0.930 1_556 S
H2753 C2761 0.930 . S
H2754 C2762 0.930 . S
H2755 C2763 0.930 . S
H2756 C2766 0.930 . S
H2757 C2767 0.930 1_556 S
C2758 H2752 0.930 1_554 S
C2758 C2759 1.355 . S
C2758 C2760 1.415 . S
C2759 C2758 1.355 . S
C2759 C2761 1.419 . S
C2760 C2758 1.415 . S
C2760 C2765 1.425 . S
C2760 C2767 1.409 1_565 S
C2761 H2753 0.930 . S
C2761 C2759 1.419 . S
C2761 C2762 1.362 . S
C2762 H2754 0.930 . S
C2762 C2761 1.362 . S
C2762 C2765 1.409 . S
C2763 H2755 0.930 . S
C2763 C2764 1.355 1_565 S
C2763 C2765 1.415 . S
C2764 C2763 1.355 1_545 S
C2764 C2766 1.419 . S
C2765 C2760 1.425 . S
C2765 C2762 1.409 . S
C2765 C2763 1.415 . S
C2766 H2756 0.930 . S
C2766 C2764 1.419 . S
C2766 C2767 1.362 . S
C2767 H2757 0.930 1_554 S
C2767 C2760 1.409 1_545 S
C2767 C2766 1.362 . S
H2768 C2774 0.930 . S
H2769 C2777 0.930 . S
H2770 C2778 0.930 . S
H2771 C2779 0.930 . S
H2772 C2782 0.930 . S
H2773 C2783 0.930 . S
C2774 H2768 0.930 . S
C2774 C2775 1.355 . S
C2774 C2776 1.415 . S
C2775 C2774 1.355 . S
C2775 C2777 1.419 . S
C2776 C2774 1.415 . S
C2776 C2781 1.425 . S
C2776 C2783 1.409 . S
C2777 H2769 0.930 . S
C2777 C2775 1.419 . S
C2777 C2778 1.362 . S
C2778 H2770 0.930 . S
C2778 C2777 1.362 . S
C2778 C2781 1.409 . S
C2779 H2771 0.930 . S
C2779 C2780 1.355 . S
C2779 C2781 1.415 . S
C2780 C2779 1.355 . S
C2780 C2782 1.419 . S
C2781 C2776 1.425 . S
C2781 C2778 1.409 . S
C2781 C2779 1.415 . S
C2782 H2772 0.930 . S
C2782 C2780 1.419 . S
C2782 C2783 1.362 . S
C2783 H2773 0.930 . S
C2783 C2776 1.409 . S
C2783 C2782 1.362 . S
H2784 C2790 0.930 . S
H2785 C2793 0.930 . S
H2786 C2794 0.930 . S
H2787 C2795 0.930 . S
H2788 C2798 0.930 . S
H2789 C2799 0.930 . S
C2790 H2784 0.930 . S
C2790 C2791 1.355 . S
C2790 C2792 1.415 . S
C2791 C2790 1.355 . S
C2791 C2793 1.419 . S
C2792 C2790 1.415 . S
C2792 C2797 1.425 . S
C2792 C2799 1.409 . S
C2793 H2785 0.930 . S
C2793 C2791 1.419 . S
C2793 C2794 1.362 . S
C2794 H2786 0.930 . S
C2794 C2793 1.362 . S
C2794 C2797 1.409 . S
C2795 H2787 0.930 . S
C2795 C2796 1.355 . S
C2795 C2797 1.415 . S
C2796 C2795 1.355 . S
C2796 C2798 1.419 . S
C2797 C2792 1.425 . S
C2797 C2794 1.409 . S
C2797 C2795 1.415 . S
C2798 H2788 0.930 . S
C2798 C2796 1.419 . S
C2798 C2799 1.362 . S
C2799 H2789 0.930 . S
C2799 C2792 1.409 . S
C2799 C2798 1.362 . S
H2800 C2806 0.930 . S
H2801 C2809 0.930 . S
H2802 C2810 0.930 . S
H2803 C2811 0.930 . S
H2804 C2814 0.930 . S
H2805 C2815 0.930 . S
C2806 H2800 0.930 . S
C2806 C2807 1.355 . S
C2806 C2808 1.415 . S
C2807 C2806 1.355 . S
C2807 C2809 1.419 . S
C2808 C2806 1.415 . S
C2808 C2813 1.425 . S
C2808 C2815 1.409 . S
C2809 H2801 0.930 . S
C2809 C2807 1.419 . S
C2809 C2810 1.362 . S
C2810 H2802 0.930 . S
C2810 C2809 1.362 . S
C2810 C2813 1.409 . S
C2811 H2803 0.930 . S
C2811 C2812 1.355 . S
C2811 C2813 1.415 . S
C2812 C2811 1.355 . S
C2812 C2814 1.419 . S
C2813 C2808 1.425 . S
C2813 C2810 1.409 . S
C2813 C2811 1.415 . S
C2814 H2804 0.930 . S
C2814 C2812 1.419 . S
C2814 C2815 1.362 . S
C2815 H2805 0.930 . S
C2815 C2808 1.409 . S
C2815 C2814 1.362 . S
H2816 C2822 0.930 . S
H2817 C2825 0.930 . S
H2818 C2826 0.930 . S
H2819 C2827 0.930 . S
H2820 C2830 0.930 . S
H2821 C2831 0.930 . S
C2822 H2816 0.930 . S
C2822 C2823 1.355 . S
C2822 C2824 1.415 . S
C2823 C2822 1.355 . S
C2823 C2825 1.419 . S
C2824 C2822 1.415 . S
C2824 C2829 1.425 . S
C2824 C2831 1.409 . S
C2825 H2817 0.930 . S
C2825 C2823 1.419 . S
C2825 C2826 1.362 . S
C2826 H2818 0.930 . S
C2826 C2825 1.362 . S
C2826 C2829 1.409 . S
C2827 H2819 0.930 . S
C2827 C2828 1.355 . S
C2827 C2829 1.415 . S
C2828 C2827 1.355 . S
C2828 C2830 1.419 . S
C2829 C2824 1.425 . S
C2829 C2826 1.409 . S
C2829 C2827 1.415 . S
C2830 H2820 0.930 . S
C2830 C2828 1.419 . S
C2830 C2831 1.362 . S
C2831 H2821 0.930 . S
C2831 C2824 1.409 . S
C2831 C2830 1.362 . S
H2832 C2838 0.930 . S
H2833 C2841 0.930 . S
H2834 C2842 0.930 . S
H2835 C2843 0.930 . S
H2836 C2846 0.930 . S
H2837 C2847 0.930 . S
C2838 H2832 0.930 . S
C2838 C2839 1.355 . S
C2838 C2840 1.415 . S
C2839 C2838 1.355 . S
C2839 C2841 1.419 . S
C2840 C2838 1.415 . S
C2840 C2845 1.425 . S
C2840 C2847 1.409 . S
C2841 H2833 0.930 . S
C2841 C2839 1.419 . S
C2841 C2842 1.362 . S
C2842 H2834 0.930 . S
C2842 C2841 1.362 . S
C2842 C2845 1.409 . S
C2843 H2835 0.930 . S
C2843 C2844 1.355 . S
C2843 C2845 1.415 . S
C2844 C2843 1.355 . S
C2844 C2846 1.419 . S
C2845 C2840 1.425 . S
C2845 C2842 1.409 . S
C2845 C2843 1.415 . S
C2846 H2836 0.930 . S
C2846 C2844 1.419 . S
C2846 C2847 1.362 . S
C2847 H2837 0.930 . S
C2847 C2840 1.409 . S
C2847 C2846 1.362 . S
H2848 C2854 0.930 . S
H2849 C2857 0.930 . S
H2850 C2858 0.930 . S
H2851 C2859 0.930 . S
H2852 C2862 0.930 . S
H2853 C2863 0.930 . S
C2854 H2848 0.930 . S
C2854 C2855 1.355 . S
C2854 C2856 1.415 . S
C2855 C2854 1.355 . S
C2855 C2857 1.419 . S
C2856 C2854 1.415 . S
C2856 C2861 1.425 . S
C2856 C2863 1.409 . S
C2857 H2849 0.930 . S
C2857 C2855 1.419 . S
C2857 C2858 1.362 . S
C2858 H2850 0.930 . S
C2858 C2857 1.362 . S
C2858 C2861 1.409 . S
C2859 H2851 0.930 . S
C2859 C2860 1.355 . S
C2859 C2861 1.415 . S
C2860 C2859 1.355 . S
C2860 C2862 1.419 . S
C2861 C2856 1.425 . S
C2861 C2858 1.409 . S
C2861 C2859 1.415 . S
C2862 H2852 0.930 . S
C2862 C2860 1.419 . S
C2862 C2863 1.362 . S
C2863 H2853 0.930 . S
C2863 C2856 1.409 . S
C2863 C2862 1.362 . S
H2864 C2870 0.930 . S
H2865 C2873 0.930 . S
H2866 C2874 0.930 . S
H2867 C2875 0.930 . S
H2868 C2878 0.930 . S
H2869 C2879 0.930 . S
C2870 H2864 0.930 . S
C2870 C2871 1.355 . S
C2870 C2872 1.415 . S
C2871 C2870 1.355 . S
C2871 C2873 1.419 . S
C2872 C2870 1.415 . S
C2872 C2877 1.425 . S
C2872 C2879 1.409 . S
C2873 H2865 0.930 . S
C2873 C2871 1.419 . S
C2873 C2874 1.362 . S
C2874 H2866 0.930 . S
C2874 C2873 1.362 . S
C2874 C2877 1.409 . S
C2875 H2867 0.930 . S
C2875 C2876 1.355 . S
C2875 C2877 1.415 . S
C2876 C2875 1.355 . S
C2876 C2878 1.419 . S
C2877 C2872 1.425 . S
C2877 C2874 1.409 . S
C2877 C2875 1.415 . S
C2878 H2868 0.930 . S
C2878 C2876 1.419 . S
C2878 C2879 1.362 . S
C2879 H2869 0.930 . S
C2879 C2872 1.409 . S
C2879 C2878 1.362 . S
H2880 C2886 0.930 . S
H2881 C2889 0.930 . S
H2882 C2890 0.930 . S
H2883 C2891 0.930 . S
H2884 C2894 0.930 . S
H2885 C2895 0.930 . S
C2886 H2880 0.930 . S
C2886 C2887 1.355 . S
C2886 C2888 1.415 . S
C2887 C2886 1.355 . S
C2887 C2889 1.419 . S
C2888 C2886 1.415 . S
C2888 C2893 1.425 . S
C2888 C2895 1.409 . S
C2889 H2881 0.930 . S
C2889 C2887 1.419 . S
C2889 C2890 1.362 . S
C2890 H2882 0.930 . S
C2890 C2889 1.362 . S
C2890 C2893 1.409 . S
C2891 H2883 0.930 . S
C2891 C2892 1.355 . S
C2891 C2893 1.415 . S
C2892 C2891 1.355 . S
C2892 C2894 1.419 . S
C2893 C2888 1.425 . S
C2893 C2890 1.409 . S
C2893 C2891 1.415 . S
C2894 H2884 0.930 . S
C2894 C2892 1.419 . S
C2894 C2895 1.362 . S
C2895 H2885 0.930 . S
C2895 C2888 1.409 . S
C2895 C2894 1.362 . S
H2896 C2902 0.930 . S
H2897 C2905 0.930 . S
H2898 C2906 0.930 . S
H2899 C2907 0.930 . S
H2900 C2910 0.930 . S
H2901 C2911 0.930 1_554 S
C2902 H2896 0.930 . S
C2902 C2903 1.355 . S
C2902 C2904 1.415 . S
C2903 C2902 1.355 . S
C2903 C2905 1.419 . S
C2904 C2902 1.415 . S
C2904 C2909 1.425 . S
C2904 C2911 1.409 . S
C2905 H2897 0.930 . S
C2905 C2903 1.419 . S
C2905 C2906 1.362 . S
C2906 H2898 0.930 . S
C2906 C2905 1.362 . S
C2906 C2909 1.409 . S
C2907 H2899 0.930 . S
C2907 C2908 1.355 . S
C2907 C2909 1.415 . S
C2908 C2907 1.355 . S
C2908 C2910 1.419 1_556 S
C2909 C2904 1.425 . S
C2909 C2906 1.409 . S
C2909 C2907 1.415 . S
C2910 H2900 0.930 . S
C2910 C2908 1.419 1_554 S
C2910 C2911 1.362 1_554 S
C2911 H2901 0.930 1_556 S
C2911 C2904 1.409 . S
C2911 C2910 1.362 1_556 S
H2912 C2918 0.930 . S
H2913 C2921 0.930 . S
H2914 C2922 0.930 . S
H2915 C2923 0.930 . S
H2916 C2926 0.930 . S
H2917 C2927 0.930 . S
C2918 H2912 0.930 . S
C2918 C2919 1.355 . S
C2918 C2920 1.415 . S
C2919 C2918 1.355 . S
C2919 C2921 1.419 . S
C2920 C2918 1.415 . S
C2920 C2925 1.425 . S
C2920 C2927 1.409 . S
C2921 H2913 0.930 . S
C2921 C2919 1.419 . S
C2921 C2922 1.362 . S
C2922 H2914 0.930 . S
C2922 C2921 1.362 . S
C2922 C2925 1.409 . S
C2923 H2915 0.930 . S
C2923 C2924 1.355 . S
C2923 C2925 1.415 . S
C2924 C2923 1.355 . S
C2924 C2926 1.419 . S
C2925 C2920 1.425 . S
C2925 C2922 1.409 . S
C2925 C2923 1.415 . S
C2926 H2916 0.930 . S
C2926 C2924 1.419 . S
C2926 C2927 1.362 . S
C2927 H2917 0.930 . S
C2927 C2920 1.409 . S
C2927 C2926 1.362 . S
H2928 C2934 0.930 . S
H2929 C2937 0.930 . S
H2930 C2938 0.930 . S
H2931 C2939 0.930 . S
H2932 C2942 0.930 . S
H2933 C2943 0.930 . S
C2934 H2928 0.930 . S
C2934 C2935 1.355 . S
C2934 C2936 1.415 . S
C2935 C2934 1.355 . S
C2935 C2937 1.419 . S
C2936 C2934 1.415 . S
C2936 C2941 1.425 . S
C2936 C2943 1.409 . S
C2937 H2929 0.930 . S
C2937 C2935 1.419 . S
C2937 C2938 1.362 . S
C2938 H2930 0.930 . S
C2938 C2937 1.362 . S
C2938 C2941 1.409 . S
C2939 H2931 0.930 . S
C2939 C2940 1.355 . S
C2939 C2941 1.415 . S
C2940 C2939 1.355 . S
C2940 C2942 1.419 . S
C2941 C2936 1.425 . S
C2941 C2938 1.409 . S
C2941 C2939 1.415 . S
C2942 H2932 0.930 . S
C2942 C2940 1.419 . S
C2942 C2943 1.362 . S
C2943 H2933 0.930 . S
C2943 C2936 1.409 . S
C2943 C2942 1.362 . S
H2944 C2950 0.930 . S
H2945 C2953 0.930 . S
H2946 C2954 0.930 . S
H2947 C2955 0.930 . S
H2948 C2958 0.930 . S
H2949 C2959 0.930 . S
C2950 H2944 0.930 . S
C2950 C2951 1.355 . S
C2950 C2952 1.415 . S
C2951 C2950 1.355 . S
C2951 C2953 1.419 . S
C2952 C2950 1.415 . S
C2952 C2957 1.425 . S
C2952 C2959 1.409 . S
C2953 H2945 0.930 . S
C2953 C2951 1.419 . S
C2953 C2954 1.362 . S
C2954 H2946 0.930 . S
C2954 C2953 1.362 . S
C2954 C2957 1.409 . S
C2955 H2947 0.930 . S
C2955 C2956 1.355 . S
C2955 C2957 1.415 . S
C2956 C2955 1.355 . S
C2956 C2958 1.419 . S
C2957 C2952 1.425 . S
C2957 C2954 1.409 . S
C2957 C2955 1.415 . S
C2958 H2948 0.930 . S
C2958 C2956 1.419 . S
C2958 C2959 1.362 . S
C2959 H2949 0.930 . S
C2959 C2952 1.409 . S
C2959 C2958 1.362 . S
H2960 C2966 0.930 . S
H2961 C2969 0.930 . S
H2962 C2970 0.930 . S
H2963 C2971 0.930 . S
H2964 C2974 0.930 . S
H2965 C2975 0.930 . S
C2966 H2960 0.930 . S
C2966 C2967 1.355 . S
C2966 C2968 1.415 . S
C2967 C2966 1.355 . S
C2967 C2969 1.419 . S
C2968 C2966 1.415 . S
C2968 C2973 1.425 . S
C2968 C2975 1.409 . S
C2969 H2961 0.930 . S
C2969 C2967 1.419 . S
C2969 C2970 1.362 . S
C2970 H2962 0.930 . S
C2970 C2969 1.362 . S
C2970 C2973 1.409 . S
C2971 H2963 0.930 . S
C2971 C2972 1.355 . S
C2971 C2973 1.415 . S
C2972 C2971 1.355 . S
C2972 C2974 1.419 . S
C2973 C2968 1.425 . S
C2973 C2970 1.409 . S
C2973 C2971 1.415 . S
C2974 H2964 0.930 . S
C2974 C2972 1.419 . S
C2974 C2975 1.362 . S
C2975 H2965 0.930 . S
C2975 C2968 1.409 . S
C2975 C2974 1.362 . S
H2976 C2982 0.930 . S
H2977 C2985 0.930 . S
H2978 C2986 0.930 . S
H2979 C2987 0.930 . S
H2980 C2990 0.930 . S
H2981 C2991 0.930 . S
C2982 H2976 0.930 . S
C2982 C2983 1.355 . S
C2982 C2984 1.415 . S
C2983 C2982 1.355 . S
C2983 C2985 1.419 . S
C2984 C2982 1.415 . S
C2984 C2989 1.425 . S
C2984 C2991 1.409 . S
C2985 H2977 0.930 . S
C2985 C2983 1.419 . S
C2985 C2986 1.362 . S
C2986 H2978 0.930 . S
C2986 C2985 1.362 . S
C2986 C2989 1.409 . S
C2987 H2979 0.930 . S
C2987 C2988 1.355 . S
C2987 C2989 1.415 . S
C2988 C2987 1.355 . S
C2988 C2990 1.419 . S
C2989 C2984 1.425 . S
C2989 C2986 1.409 . S
C2989 C2987 1.415 . S
C2990 H2980 0.930 . S
C2990 C2988 1.419 . S
C2990 C2991 1.362 . S
C2991 H2981 0.930 . S
C2991 C2984 1.409 . S
C2991 C2990 1.362 . S
H2992 C2998 0.930 . S
H2993 C3001 0.930 . S
H2994 C3002 0.930 . S
H2995 C3003 0.930 . S
H2996 C3006 0.930 . S
H2997 C3007 0.930 . S
C2998 H2992 0.930 . S
C2998 C2999 1.355 . S
C2998 C3000 1.442 . S
C2999 C2998 1.355 . S
C2999 C3001 1.419 . S
C3000 C2998 1.442 . S
C3000 C3005 1.433 1_655 S
C3000 C3007 1.376 1_655 S
C3001 H2993 0.930 . S
C3001 C2999 1.419 . S
C3001 C3002 1.362 . S
C3002 H2994 0.930 . S
C3002 C3001 1.362 . S
C3002 C3005 1.409 1_655 S
C3003 H2995 0.930 . S
C3003 C3004 1.355 . S
C3003 C3005 1.415 . S
C3004 C3003 1.355 . S
C3004 C3006 1.419 . S
C3005 C3000 1.433 1_455 S
C3005 C3002 1.409 1_455 S
C3005 C3003 1.415 . S
C3006 H2996 0.930 . S
C3006 C3004 1.419 . S
C3006 C3007 1.362 . S
C3007 H2997 0.930 . S
C3007 C3000 1.376 1_455 S
C3007 C3006 1.362 . S
H3008 C3014 0.930 . S
H3009 C3017 0.930 . S
H3010 C3018 0.930 . S
H3011 C3019 0.930 . S
H3012 C3022 0.930 . S
H3013 C3023 0.930 . S
C3014 H3008 0.930 . S
C3014 C3015 1.355 . S
C3014 C3016 1.415 . S
C3015 C3014 1.355 . S
C3015 C3017 1.419 . S
C3016 C3014 1.415 . S
C3016 C3021 1.425 . S
C3016 C3023 1.409 . S
C3017 H3009 0.930 . S
C3017 C3015 1.419 . S
C3017 C3018 1.362 . S
C3018 H3010 0.930 . S
C3018 C3017 1.362 . S
C3018 C3021 1.409 . S
C3019 H3011 0.930 . S
C3019 C3020 1.355 . S
C3019 C3021 1.415 . S
C3020 C3019 1.355 . S
C3020 C3022 1.419 . S
C3021 C3016 1.425 . S
C3021 C3018 1.409 . S
C3021 C3019 1.415 . S
C3022 H3012 0.930 . S
C3022 C3020 1.419 . S
C3022 C3023 1.362 . S
C3023 H3013 0.930 . S
C3023 C3016 1.409 . S
C3023 C3022 1.362 . S
H3024 C3030 0.930 . S
H3025 C3033 0.930 . S
H3026 C3034 0.930 . S
H3027 C3035 0.930 . S
H3028 C3038 0.930 . S
H3029 C3039 0.930 . S
C3030 H3024 0.930 . S
C3030 C3031 1.355 . S
C3030 C3032 1.415 . S
C3031 C3030 1.355 . S
C3031 C3033 1.419 . S
C3032 C3030 1.415 . S
C3032 C3037 1.425 . S
C3032 C3039 1.409 . S
C3033 H3025 0.930 . S
C3033 C3031 1.419 . S
C3033 C3034 1.362 . S
C3034 H3026 0.930 . S
C3034 C3033 1.362 . S
C3034 C3037 1.409 . S
C3035 H3027 0.930 . S
C3035 C3036 1.355 . S
C3035 C3037 1.415 . S
C3036 C3035 1.355 . S
C3036 C3038 1.419 . S
C3037 C3032 1.425 . S
C3037 C3034 1.409 . S
C3037 C3035 1.415 . S
C3038 H3028 0.930 . S
C3038 C3036 1.419 . S
C3038 C3039 1.362 . S
C3039 H3029 0.930 . S
C3039 C3032 1.409 . S
C3039 C3038 1.362 . S
H3040 C3046 0.930 . S
H3041 C3049 0.930 . S
H3042 C3050 0.930 . S
H3043 C3051 0.930 . S
H3044 C3054 0.930 . S
H3045 C3055 0.930 . S
C3046 H3040 0.930 . S
C3046 C3047 1.355 . S
C3046 C3048 1.415 . S
C3047 C3046 1.355 . S
C3047 C3049 1.419 . S
C3048 C3046 1.415 . S
C3048 C3053 1.425 . S
C3048 C3055 1.409 . S
C3049 H3041 0.930 . S
C3049 C3047 1.419 . S
C3049 C3050 1.362 . S
C3050 H3042 0.930 . S
C3050 C3049 1.362 . S
C3050 C3053 1.409 . S
C3051 H3043 0.930 . S
C3051 C3052 1.355 . S
C3051 C3053 1.415 . S
C3052 C3051 1.355 . S
C3052 C3054 1.419 . S
C3053 C3048 1.425 . S
C3053 C3050 1.409 . S
C3053 C3051 1.415 . S
C3054 H3044 0.930 . S
C3054 C3052 1.419 . S
C3054 C3055 1.362 . S
C3055 H3045 0.930 . S
C3055 C3048 1.409 . S
C3055 C3054 1.362 . S
H3056 C3062 0.930 . S
H3057 C3065 0.930 . S
H3058 C3066 0.930 . S
H3059 C3067 0.930 . S
H3060 C3070 0.930 . S
H3061 C3071 0.930 . S
C3062 H3056 0.930 . S
C3062 C3063 1.355 . S
C3062 C3064 1.415 . S
C3063 C3062 1.355 . S
C3063 C3065 1.419 . S
C3064 C3062 1.415 . S
C3064 C3069 1.425 . S
C3064 C3071 1.409 1_655 S
C3065 H3057 0.930 . S
C3065 C3063 1.419 . S
C3065 C3066 1.362 . S
C3066 H3058 0.930 . S
C3066 C3065 1.362 . S
C3066 C3069 1.409 . S
C3067 H3059 0.930 . S
C3067 C3068 1.355 1_655 S
C3067 C3069 1.415 . S
C3068 C3067 1.355 1_455 S
C3068 C3070 1.419 . S
C3069 C3064 1.425 . S
C3069 C3066 1.409 . S
C3069 C3067 1.415 . S
C3070 H3060 0.930 . S
C3070 C3068 1.419 . S
C3070 C3071 1.362 . S
C3071 H3061 0.930 . S
C3071 C3064 1.409 1_455 S
C3071 C3070 1.362 . S
H3072 C3078 0.930 . S
H3073 C3081 0.930 . S
H3074 C3082 0.930 . S
H3075 C3083 0.930 . S
H3076 C3086 0.930 . S
H3077 C3087 0.930 . S
C3078 H3072 0.930 . S
C3078 C3079 1.355 . S
C3078 C3080 1.415 . S
C3079 C3078 1.355 . S
C3079 C3081 1.419 . S
C3080 C3078 1.415 . S
C3080 C3085 1.425 . S
C3080 C3087 1.409 . S
C3081 H3073 0.930 . S
C3081 C3079 1.419 . S
C3081 C3082 1.362 . S
C3082 H3074 0.930 . S
C3082 C3081 1.362 . S
C3082 C3085 1.409 . S
C3083 H3075 0.930 . S
C3083 C3084 1.355 . S
C3083 C3085 1.415 . S
C3084 C3083 1.355 . S
C3084 C3086 1.419 . S
C3085 C3080 1.425 . S
C3085 C3082 1.409 . S
C3085 C3083 1.415 . S
C3086 H3076 0.930 . S
C3086 C3084 1.419 . S
C3086 C3087 1.362 . S
C3087 H3077 0.930 . S
C3087 C3080 1.409 . S
C3087 C3086 1.362 . S
H3088 C3094 0.930 . S
H3089 C3097 0.930 . S
H3090 C3098 0.930 . S
H3091 C3099 0.930 . S
H3092 C3102 0.930 . S
H3093 C3103 0.930 . S
C3094 H3088 0.930 . S
C3094 C3095 1.355 . S
C3094 C3096 1.415 . S
C3095 C3094 1.355 . S
C3095 C3097 1.419 . S
C3096 C3094 1.415 . S
C3096 C3101 1.425 . S
C3096 C3103 1.409 . S
C3097 H3089 0.930 . S
C3097 C3095 1.419 . S
C3097 C3098 1.362 . S
C3098 H3090 0.930 . S
C3098 C3097 1.362 . S
C3098 C3101 1.409 . S
C3099 H3091 0.930 . S
C3099 C3100 1.355 . S
C3099 C3101 1.415 . S
C3100 C3099 1.355 . S
C3100 C3102 1.419 . S
C3101 C3096 1.425 . S
C3101 C3098 1.409 . S
C3101 C3099 1.415 . S
C3102 H3092 0.930 . S
C3102 C3100 1.419 . S
C3102 C3103 1.362 . S
C3103 H3093 0.930 . S
C3103 C3096 1.409 . S
C3103 C3102 1.362 . S
H3104 C3110 0.930 . S
H3105 C3113 0.930 . S
H3106 C3114 0.930 . S
H3107 C3115 0.930 . S
H3108 C3118 0.930 1_445 S
H3109 C3119 0.930 . S
C3110 H3104 0.930 . S
C3110 C3111 1.355 . S
C3110 C3112 1.415 . S
C3111 C3110 1.355 . S
C3111 C3113 1.419 . S
C3112 C3110 1.415 . S
C3112 C3117 1.425 . S
C3112 C3119 1.409 . S
C3113 H3105 0.930 . S
C3113 C3111 1.419 . S
C3113 C3114 1.362 . S
C3114 H3106 0.930 . S
C3114 C3113 1.362 . S
C3114 C3117 1.409 . S
C3115 H3107 0.930 . S
C3115 C3116 1.355 . S
C3115 C3117 1.415 . S
C3116 C3115 1.355 . S
C3116 C3118 1.419 . S
C3117 C3112 1.425 . S
C3117 C3114 1.409 . S
C3117 C3115 1.415 . S
C3118 H3108 0.930 1_665 S
C3118 C3116 1.419 . S
C3118 C3119 1.362 . S
C3119 H3109 0.930 . S
C3119 C3112 1.409 . S
C3119 C3118 1.362 . S
H3120 C3126 0.930 . S
H3121 C3129 0.930 . S
H3122 C3130 0.930 . S
H3123 C3131 0.930 . S
H3124 C3134 0.930 . S
H3125 C3135 0.930 . S
C3126 H3120 0.930 . S
C3126 C3127 1.355 . S
C3126 C3128 1.415 . S
C3127 C3126 1.355 . S
C3127 C3129 1.419 . S
C3128 C3126 1.415 . S
C3128 C3133 1.425 . S
C3128 C3135 1.409 . S
C3129 H3121 0.930 . S
C3129 C3127 1.419 . S
C3129 C3130 1.362 . S
C3130 H3122 0.930 . S
C3130 C3129 1.362 . S
C3130 C3133 1.409 . S
C3131 H3123 0.930 . S
C3131 C3132 1.355 . S
C3131 C3133 1.415 . S
C3132 C3131 1.355 . S
C3132 C3134 1.419 . S
C3133 C3128 1.425 . S
C3133 C3130 1.409 . S
C3133 C3131 1.415 . S
C3134 H3124 0.930 . S
C3134 C3132 1.419 . S
C3134 C3135 1.362 . S
C3135 H3125 0.930 . S
C3135 C3128 1.409 . S
C3135 C3134 1.362 . S
H3136 C3142 0.930 . S
H3137 C3145 0.930 . S
H3138 C3146 0.930 . S
H3139 C3147 0.930 . S
H3140 C3150 0.930 . S
H3141 C3151 0.930 1_556 S
C3142 H3136 0.930 . S
C3142 C3143 1.355 . S
C3142 C3144 1.415 . S
C3143 C3142 1.355 . S
C3143 C3145 1.419 . S
C3144 C3142 1.415 . S
C3144 C3149 1.425 . S
C3144 C3151 1.409 . S
C3145 H3137 0.930 . S
C3145 C3143 1.419 . S
C3145 C3146 1.362 . S
C3146 H3138 0.930 . S
C3146 C3145 1.362 . S
C3146 C3149 1.409 . S
C3147 H3139 0.930 . S
C3147 C3148 1.355 . S
C3147 C3149 1.415 . S
C3148 C3147 1.355 . S
C3148 C3150 1.419 . S
C3149 C3144 1.425 . S
C3149 C3146 1.409 . S
C3149 C3147 1.415 . S
C3150 H3140 0.930 . S
C3150 C3148 1.419 . S
C3150 C3151 1.362 . S
C3151 H3141 0.930 1_554 S
C3151 C3144 1.409 . S
C3151 C3150 1.362 . S
H3152 C3158 0.930 . S
H3153 C3161 0.930 . S
H3154 C3162 0.930 . S
H3155 C3163 0.930 . S
H3156 C3166 0.930 . S
H3157 C3167 0.930 . S
C3158 H3152 0.930 . S
C3158 C3159 1.355 . S
C3158 C3160 1.415 . S
C3159 C3158 1.355 . S
C3159 C3161 1.419 . S
C3160 C3158 1.415 . S
C3160 C3165 1.425 . S
C3160 C3167 1.409 . S
C3161 H3153 0.930 . S
C3161 C3159 1.419 . S
C3161 C3162 1.362 . S
C3162 H3154 0.930 . S
C3162 C3161 1.362 . S
C3162 C3165 1.409 . S
C3163 H3155 0.930 . S
C3163 C3164 1.355 . S
C3163 C3165 1.415 . S
C3164 C3163 1.355 . S
C3164 C3166 1.419 . S
C3165 C3160 1.425 . S
C3165 C3162 1.409 . S
C3165 C3163 1.415 . S
C3166 H3156 0.930 . S
C3166 C3164 1.419 . S
C3166 C3167 1.362 . S
C3167 H3157 0.930 . S
C3167 C3160 1.409 . S
C3167 C3166 1.362 . S
H3168 C3174 0.930 . S
H3169 C3177 0.930 . S
H3170 C3178 0.930 . S
H3171 C3179 0.930 . S
H3172 C3182 0.930 . S
H3173 C3183 0.930 . S
C3174 H3168 0.930 . S
C3174 C3175 1.355 . S
C3174 C3176 1.415 . S
C3175 C3174 1.355 . S
C3175 C3177 1.419 . S
C3176 C3174 1.415 . S
C3176 C3181 1.425 . S
C3176 C3183 1.409 . S
C3177 H3169 0.930 . S
C3177 C3175 1.419 . S
C3177 C3178 1.362 . S
C3178 H3170 0.930 . S
C3178 C3177 1.362 . S
C3178 C3181 1.409 . S
C3179 H3171 0.930 . S
C3179 C3180 1.355 . S
C3179 C3181 1.415 . S
C3180 C3179 1.355 . S
C3180 C3182 1.419 . S
C3181 C3176 1.425 . S
C3181 C3178 1.409 . S
C3181 C3179 1.415 . S
C3182 H3172 0.930 . S
C3182 C3180 1.419 . S
C3182 C3183 1.362 . S
C3183 H3173 0.930 . S
C3183 C3176 1.409 . S
C3183 C3182 1.362 . S
H3184 C3190 0.930 . S
H3185 C3193 0.930 . S
H3186 C3194 0.930 . S
H3187 C3195 0.930 . S
H3188 C3198 0.930 . S
H3189 C3199 0.930 . S
C3190 H3184 0.930 . S
C3190 C3191 1.355 . S
C3190 C3192 1.415 . S
C3191 C3190 1.355 . S
C3191 C3193 1.419 . S
C3192 C3190 1.415 . S
C3192 C3197 1.425 . S
C3192 C3199 1.409 . S
C3193 H3185 0.930 . S
C3193 C3191 1.419 . S
C3193 C3194 1.362 . S
C3194 H3186 0.930 . S
C3194 C3193 1.362 . S
C3194 C3197 1.409 . S
C3195 H3187 0.930 . S
C3195 C3196 1.355 . S
C3195 C3197 1.415 . S
C3196 C3195 1.355 . S
C3196 C3198 1.419 . S
C3197 C3192 1.425 . S
C3197 C3194 1.409 . S
C3197 C3195 1.415 . S
C3198 H3188 0.930 . S
C3198 C3196 1.419 . S
C3198 C3199 1.362 . S
C3199 H3189 0.930 . S
C3199 C3192 1.409 . S
C3199 C3198 1.362 . S
H3200 C3206 0.930 . S
H3201 C3209 0.930 . S
H3202 C3210 0.930 . S
H3203 C3211 0.930 . S
H3204 C3214 0.930 . S
H3205 C3215 0.930 . S
C3206 H3200 0.930 . S
C3206 C3207 1.355 . S
C3206 C3208 1.415 . S
C3207 C3206 1.355 . S
C3207 C3209 1.419 . S
C3208 C3206 1.415 . S
C3208 C3213 1.425 . S
C3208 C3215 1.409 . S
C3209 H3201 0.930 . S
C3209 C3207 1.419 . S
C3209 C3210 1.362 . S
C3210 H3202 0.930 . S
C3210 C3209 1.362 . S
C3210 C3213 1.409 . S
C3211 H3203 0.930 . S
C3211 C3212 1.355 . S
C3211 C3213 1.415 . S
C3212 C3211 1.355 . S
C3212 C3214 1.419 . S
C3213 C3208 1.425 . S
C3213 C3210 1.409 . S
C3213 C3211 1.415 . S
C3214 H3204 0.930 . S
C3214 C3212 1.419 . S
C3214 C3215 1.362 . S
C3215 H3205 0.930 . S
C3215 C3208 1.409 . S
C3215 C3214 1.362 . S
C1687 C106 2.237 . S
C1692 C392 2.085 . S
C1703 C65 2.247 . S
C1708 C483 2.195 . S
C1719 C79 1.879 . S
C1724 C560 1.696 . S
C1740 C658 1.227 . S
C1735 C90 1.324 . S
C1751 C21 1.312 . S
C1756 C742 1.365 . S
C1772 C814 1.024 . S
C1767 C35 0.946 . S
C1788 C903 1.048 . S
C1783 C50 1.072 . S
C1799 C6 1.674 . S
C1804 C980 1.539 . S
C1820 C399 2.245 . S
C1815 C232 2.352 . S
C1831 C245 0.726 . S
C1836 C490 0.858 . S
C1852 C567 1.279 . S
C1847 C274 1.334 . S
C1868 C644 1.551 . S
C1863 C175 1.636 . S
C1879 C231 1.856 1_455 S
C1884 C728 1.770 . S
C1900 C830 1.202 . S
C1895 C246 1.266 . S
C1916 C910 0.802 . S
C1911 C273 0.778 . S
C1932 C987 1.673 . S
C1927 C176 1.854 . S
C1948 C406 1.492 . S
C1943 C160 1.423 . S
C1959 C289 1.924 . S
C1964 C1071 1.867 . S
C1980 C1159 2.311 . S
C1975 C328 2.428 . S
C1996 C1232 0.746 . S
C1991 C317 0.800 . S
C2007 C118 1.159 . S
C2012 C994 1.455 . S
C2023 C132 1.484 . S
C2028 C574 1.485 . S
C2039 C331 2.276 . S
C2044 C1323 2.172 . S
C2060 C1400 1.057 . S
C2055 C303 1.058 . S
C2076 C403 1.697 1_565 S
C2071 C63 1.854 . S
C2092 C1418 2.614 . S
C2087 C107 2.557 . S
C2103 C92 1.738 . S
C2108 C571 1.651 . S
C2119 C78 1.849 . S
C2124 C1318 1.683 . S
C2140 C730 1.707 . S
C2135 C8 1.797 . S
C2151 C51 1.201 . S
C2156 C1162 1.082 . S
C2172 C914 1.567 1_556 S
C2167 C37 1.502 . S
C2188 C1495 1.488 . S
C2183 C20 1.615 . S
C2204 C410 2.123 . S
C2199 C147 2.140 . S
C2220 C1402 0.938 . S
C2215 C316 0.922 . S
C2231 C119 1.212 . S
C2236 C578 1.234 . S
C2247 C288 1.795 . S
C2252 C1327 1.679 . S
C2263 C148 2.345 1_545 S
C2268 C739 2.148 . S
C2284 C1155 1.249 . S
C2279 C315 1.287 . S
C2295 C120 0.956 . S
C2300 C898 0.873 . S
C2311 C287 1.726 . S
C2316 C1502 1.572 . S
C2327 C188 1.337 . S
C2332 C394 1.357 . S
C2343 C177 2.195 . S
C2348 C1082 2.182 . S
C2359 C258 2.534 . S
C2364 C812 2.448 . S
C2375 C247 0.686 . S
C2380 C1243 0.808 . S
C2396 C1486 0.993 . S
C2391 C272 1.042 1_565 S
C2407 C216 1.361 . S
C2412 C562 1.348 . S
C2428 C662 2.421 . S
C2423 C261 2.454 . S
C2444 C487 0.911 . S
C2439 C205 0.941 . S
C2455 C76 1.839 . S
C2460 C1568 1.744 . S
C2476 C1407 2.268 . S
C2471 C93 2.330 . S
C2487 C105 1.577 . S
C2492 C1652 1.494 . S
C2503 C62 1.364 . S
C2508 C1330 1.258 . S
C2519 C49 1.261 . S
C2524 C1078 1.370 . S
C2540 C1150 1.308 . S
C2535 C9 1.318 . S
C2556 C1239 1.017 . S
C2551 C22 0.941 . S
C2572 C1484 1.801 . S
C2567 C36 2.072 . S
C2588 C1575 2.186 . S
C2583 C260 2.279 . S
C2599 C189 0.811 . S
C2604 C1414 0.676 . S
C2620 C1659 1.228 . S
C2615 C204 1.282 . S
C2636 C1316 1.403 . S
C2631 C217 1.503 . S
C2652 C1064 2.050 . S
C2647 C259 2.140 . S
C2663 C190 1.309 . S
C2668 C1166 1.262 . S
C2684 C1246 0.845 . S
C2679 C203 0.871 . S
C2695 C218 1.944 . S
C2700 C1491 1.755 . S
C2716 C1582 1.404 . S
C2711 C314 1.450 . S
C2727 C135 2.015 . S
C2732 C735 1.928 . S
C2748 C823 2.193 . S
C2743 C146 2.339 . S
C2764 C896 0.849 . S
C2759 C163 0.770 . S
C2780 C1498 1.420 . S
C2775 C300 1.150 . S
C2791 C286 1.376 . S
C2796 C1666 1.545 . S
C2812 C651 2.093 . S
C2807 C149 2.181 . S
C2828 C476 0.989 . S
C2823 C121 1.006 . S
C2839 C91 1.838 . S
C2844 C1579 1.696 . S
C2860 C494 2.192 . S
C2855 C77 2.139 . S
C2871 C64 1.656 . S
C2876 C1663 1.697 . S
C2887 C104 1.514 . S
C2892 C646 1.480 . S
C2903 C34 1.499 . S
C2908 C1066 1.477 1_556 S
C2924 C826 1.111 . S
C2919 C23 1.212 . S
C2935 C7 1.041 . S
C2940 C1250 1.227 . S
C2951 C48 1.576 . S
C2956 C991 1.453 . S
C2972 C1586 2.046 . S
C2967 C329 2.140 . S
C2983 C162 0.950 . S
C2988 C478 0.917 . S
C3004 C1670 1.147 . S
C2999 C301 1.193 . S
C3015 C134 1.781 . S
C3020 C655 1.735 . S
C3031 C330 2.328 . S
C3036 C1075 2.134 . S
C3052 C819 1.148 . S
C3047 C161 1.176 . S
C3063 C302 0.994 . S
C3068 C1234 0.890 . S
C3084 C998 1.553 . S
C3079 C133 1.699 . S
C3100 C1570 1.445 . S
C3095 C244 1.533 . S
C3116 C746 2.135 1_665 S
C3111 C219 2.120 . S
C3127 C230 2.218 . S
C3132 C1148 2.080 . S
C3148 C907 0.753 . S
C3143 C191 0.686 . S
C3159 C202 1.078 . S
C3164 C982 1.101 . S
C3175 C174 1.545 . S
C3180 C1654 1.500 . S
C3196 C1334 2.366 . S
C3191 C233 2.442 1_565 S
C3212 C1411 0.840 . S
C3207 C275 0.946 . S
