# Generated by pormake.
# Topology nia, (6,6)-cn, num edge types: 1
# Building blocks:
#     Node 0, Type 0, BuildingBlock: KUMJIN_clean_sbu_0, # of connection points: 6
#     Node 1, Type 0, BuildingBlock: KUMJIN_clean_sbu_0, # of connection points: 6
#     Node 2, Type 1, BuildingBlock: MIDCAF_clean_sbu_0, # of connection points: 6
#     Node 3, Type 1, BuildingBlock: MIDCAF_clean_sbu_0, # of connection points: 6
#     Edge 4, Type (0, 1), BuildingBlock: CIFDUS_clean_linker_0, # of connection points: 2
#     Edge 5, Type (0, 1), BuildingBlock: CIFDUS_clean_linker_0, # of connection points: 2
#     Edge 6, Type (0, 1), BuildingBlock: CIFDUS_clean_linker_0, # of connection points: 2
#     Edge 7, Type (0, 1), BuildingBlock: CIFDUS_clean_linker_0, # of connection points: 2
#     Edge 8, Type (0, 1), BuildingBlock: CIFDUS_clean_linker_0, # of connection points: 2
#     Edge 9, Type (0, 1), BuildingBlock: CIFDUS_clean_linker_0, # of connection points: 2
#     Edge 10, Type (0, 1), BuildingBlock: CIFDUS_clean_linker_0, # of connection points: 2
#     Edge 11, Type (0, 1), BuildingBlock: CIFDUS_clean_linker_0, # of connection points: 2
#     Edge 12, Type (0, 1), BuildingBlock: CIFDUS_clean_linker_0, # of connection points: 2
#     Edge 13, Type (0, 1), BuildingBlock: CIFDUS_clean_linker_0, # of connection points: 2
#     Edge 14, Type (0, 1), BuildingBlock: CIFDUS_clean_linker_0, # of connection points: 2
#     Edge 15, Type (0, 1), BuildingBlock: CIFDUS_clean_linker_0, # of connection points: 2
# Relax obj value: 0.171
# Max RMSD: 0.291
# Mean RMSD: 0.206
data_MOF--net-nia--node1-KUMJIN_clean_sbu_0--node2-MIDCAF_clean_sbu_0--edge1-CIFDUS_clean_linker_0
_symmetry_space_group_name_H-M    P1
_symmetry_Int_Tables_number       1
_symmetry_cell_setting            triclinic
loop_
_symmetry_equiv_pos_as_xyz
'x, y, z'
_cell_length_a     25.230413
_cell_length_b     25.124501
_cell_length_c     28.485612
_cell_angle_alpha  89.748578
_cell_angle_beta   90.128627
_cell_angle_gamma 139.22835
loop_
_atom_site_label
_atom_site_type_symbol
_atom_site_fract_x
_atom_site_fract_y
_atom_site_fract_z
_atom_type_partial_charge
Eu0 Eu 0.04916 0.98558 0.08123 0.0
C1 C 0.05893 0.09607 0.88533 0.0
C2 C 0.18404 0.24105 0.89359 0.0
C3 C 0.13388 0.18158 0.81588 0.0
C4 C 0.1157 0.16374 0.91374 0.0
C5 C 0.06643 0.10481 0.83601 0.0
C6 C 0.19318 0.24934 0.84461 0.0
C7 C 0.93761 0.96191 0.82962 0.0
N8 N 0.99424 0.0225 0.9057 0.0
C9 C 0.93323 0.95624 0.87853 0.0
C10 C 0.00426 0.03675 0.80829 0.0
Eu11 Eu 0.97942 0.02237 0.98791 0.0
N12 N 0.104 0.1543 0.96097 0.0
C13 C 0.15936 0.21995 0.98996 0.0
C14 C 0.24069 0.30812 0.92322 0.0
C15 C 0.22829 0.29744 0.97161 0.0
H16 H 0.879 0.8996 0.89486 0.0
H17 H 0.27201 0.34886 0.9949 0.0
H18 H 0.245 0.30823 0.82857 0.0
H19 H 0.88839 0.90918 0.8085 0.0
H20 H 0.15236 0.21344 0.0274 0.0
H21 H 0.02583 0.75131 0.07028 0.0
H22 H 0.29407 0.3683 0.90912 0.0
H23 H 0.97783 0.00552 0.17323 0.0
H24 H 0.09121 0.88922 0.06006 0.0
H25 H 0.86475 0.91717 0.22836 0.0
H26 H 0.14012 0.1894 0.77813 0.0
H27 H 0.89495 0.64472 0.11269 0.0
H28 H 0.78835 0.60808 0.16229 0.0
H29 H 0.00618 0.04184 0.77044 0.0
H30 H 0.7442 0.65388 0.20574 0.0
N31 N 0.99541 0.85836 0.09343 0.0
C32 C 0.0337 0.84245 0.07822 0.0
C33 C 0.92301 0.7047 0.10786 0.0
C34 C 0.8889 0.72445 0.12781 0.0
C35 C 0.99699 0.76474 0.08404 0.0
C36 C 0.928 0.80349 0.12055 0.0
H37 H 0.77242 0.76901 0.23072 0.0
N38 N 0.9491 0.9091 0.14152 0.0
C39 C 0.87486 0.89143 0.20531 0.0
C40 C 0.90397 0.82968 0.14539 0.0
C41 C 0.93893 0.94159 0.17313 0.0
C42 C 0.82292 0.8081 0.20642 0.0
C43 C 0.83906 0.77679 0.17761 0.0
O44 O 0.1731 0.09809 0.10366 0.0
O45 O 0.08483 0.05803 1.01684 0.0
O46 O 0.96664 0.92964 0.95849 0.0
O47 O 0.98875 0.88966 0.02308 0.0
O48 O 0.12845 0.01323 0.02319 0.0
O49 O 0.10678 0.98582 0.13908 0.0
O50 O 0.8578 0.96026 0.97449 0.0
O51 O 0.95158 0.96824 0.05972 0.0
O52 O 0.06315 0.081 0.10886 0.0
O53 O 0.0115 0.09797 0.05055 0.0
O54 O 0.86354 0.89207 1.00841 0.0
O55 O 0.95822 0.09111 0.97202 0.0
C56 C 0.12738 0.05465 0.99719 0.0
C57 C 0.25115 0.08632 0.13631 0.0
C58 C 0.32384 0.05991 0.15856 0.0
C59 C 0.25038 0.03225 0.1523 0.0
C60 C 0.39744 0.14124 0.1473 0.0
C61 C 0.32594 0.16725 0.12557 0.0
C62 C 0.39828 0.19412 0.13069 0.0
C63 C 0.96696 0.88231 0.9787 0.0
C64 C 0.17632 0.06236 0.13454 0.0
C65 C 0.79507 0.69565 0.18172 0.0
C66 C 0.82015 0.66956 0.15695 0.0
C67 C 0.87915 0.89852 0.05262 0.0
C68 C 0.84636 0.02339 0.92103 0.0
C69 C 0.84312 0.07651 0.91561 0.0
C70 C 0.80825 0.07309 0.87501 0.0
C71 C 0.78189 0.01935 0.83872 0.0
C72 C 0.81148 0.96471 0.88622 0.0
C73 C 0.78258 0.96492 0.84466 0.0
C74 C 0.04417 0.11442 0.09242 0.0
C75 C 0.88096 0.02592 0.96432 0.0
H76 H 0.19339 0.96975 0.161 0.0
H77 H 0.45464 0.16388 0.151 0.0
H78 H 0.32871 0.21037 0.11379 0.0
H79 H 0.45545 0.25661 0.12222 0.0
H80 H 0.86423 0.1174 0.94407 0.0
H81 H 0.75837 0.01745 0.80612 0.0
H82 H 0.80459 0.91727 0.89131 0.0
H83 H 0.75851 0.92115 0.81747 0.0
Eu84 Eu -0.00097 0.03135 0.5684 0.0
C85 C 0.89331 0.85564 0.38195 0.0
C86 C 0.86058 0.73701 0.3877 0.0
C87 C 0.78539 0.73658 0.3339 0.0
C88 C 0.90609 0.81613 0.40222 0.0
C89 C 0.83436 0.8172 0.34655 0.0
C90 C 0.79872 0.69664 0.35431 0.0
C91 C 0.882 0.94354 0.33555 0.0
N92 N 0.94165 0.9334 0.39497 0.0
C93 C 0.9391 0.97871 0.3711 0.0
C94 C 0.82793 0.86175 0.32411 0.0
Eu95 Eu 0.0367 0.98937 0.45568 0.0
N96 N 0.96635 0.857 0.43429 0.0
C97 C 0.98976 0.82545 0.4497 0.0
C98 C 0.88036 0.70196 0.40607 0.0
C99 C 0.94614 0.74697 0.43663 0.0
H100 H 0.97993 0.04167 0.38001 0.0
H101 H 0.96334 0.72132 0.45006 0.0
H102 H 0.76234 0.63542 0.34315 0.0
H103 H 0.87865 0.97903 0.31768 0.0
H104 H 0.04051 0.85985 0.47335 0.0
H105 H 0.27284 0.29033 0.66685 0.0
H106 H 0.84687 0.64131 0.39582 0.0
H107 H 0.82535 0.85477 0.61724 0.0
H108 H 0.17639 0.22118 0.60092 0.0
H109 H 0.78108 0.76838 0.68634 0.0
H110 H 0.73862 0.70536 0.3075 0.0
H111 H 0.25033 0.20935 0.73201 0.0
H112 H 0.1614 0.0718 0.76944 0.0
H113 H 0.78197 0.83391 0.29772 0.0
H114 H 0.02669 0.92705 0.77391 0.0
N115 N 0.09744 0.10208 0.62929 0.0
C116 C 0.16456 0.18506 0.62959 0.0
C117 C 0.20677 0.17873 0.70362 0.0
C118 C 0.13672 0.09404 0.70384 0.0
C119 C 0.21955 0.22463 0.66696 0.0
C120 C 0.08113 0.05759 0.66657 0.0
H121 H 0.88226 0.8149 0.74476 0.0
N122 N 0.9502 0.94804 0.63609 0.0
C123 C 0.84445 0.82678 0.68191 0.0
C124 C 0.00507 0.9774 0.66981 0.0
C125 C 0.86957 0.87593 0.64301 0.0
C126 C 0.90181 0.85305 0.71469 0.0
C127 C 0.98305 0.93006 0.70945 0.0
O128 O 0.90268 0.01411 0.58738 0.0
O129 O 0.96735 0.00038 0.49199 0.0
O130 O 0.06745 0.10108 0.4496 0.0
O131 O 0.10009 0.14878 0.52621 0.0
O132 O 0.87155 0.9334 0.53784 0.0
O133 O 0.02706 0.13469 0.58804 0.0
O134 O 0.10015 0.05738 0.39031 0.0
O135 O 0.08707 0.05253 0.52526 0.0
O136 O 0.97031 0.92156 0.5752 0.0
O137 O 0.9392 0.87229 0.49846 0.0
O138 O 0.11327 -0.00446 0.50322 0.0
O139 O 0.14736 0.03144 0.43481 0.0
C140 C 0.89105 0.94447 0.49421 0.0
C141 C 0.93909 0.10434 0.64497 0.0
C142 C 0.8769 0.12726 0.69204 0.0
C143 C 0.89133 0.11405 0.64821 0.0
C144 C 0.91167 0.13111 0.73254 0.0
C145 C 0.97263 0.10777 0.68591 0.0
C146 C 0.95919 0.12145 0.72937 0.0
C147 C 0.10281 0.15991 0.4803 0.0
C148 C 0.95256 0.08988 0.59879 0.0
C149 C 0.04179 0.96296 0.74369 0.0
C150 C 0.11849 0.04537 0.74115 0.0
C151 C 0.12389 0.03802 0.53589 0.0
C152 C 0.15657 0.02433 0.35254 0.0
C153 C 0.19022 -0.00148 0.35741 0.0
C154 C 0.19449 0.96674 0.31883 0.0
C155 C 0.16476 0.9615 0.27513 0.0
C156 C 0.12784 0.01869 0.30827 0.0
C157 C 0.13183 0.98732 0.27 0.0
C158 C 0.93632 0.86305 0.54464 0.0
C159 C 0.15051 0.05596 0.39354 0.0
H160 H 0.86642 0.11242 0.61643 0.0
H161 H 0.90173 0.14098 0.76675 0.0
H162 H 0.00931 0.10017 0.6844 0.0
H163 H 0.9857 0.12474 0.76077 0.0
H164 H 0.21182 0.00187 0.39146 0.0
H165 H 0.16781 0.93827 0.24471 0.0
H166 H 0.10183 0.0381 0.30316 0.0
H167 H 0.10922 0.983 0.23617 0.0
Zn168 Zn 0.36396 0.6702 0.17987 0.0
Zn169 Zn 0.39887 0.72825 0.35697 0.0
Zn170 Zn 0.38468 0.69087 0.2689 0.0
C171 C 0.54812 0.80155 0.33211 0.0
C172 C 0.29183 0.55668 0.34867 0.0
O173 O 0.35541 0.74907 0.23601 0.0
O174 O 0.34537 0.73026 0.15934 0.0
C175 C 0.52298 0.75327 0.20116 0.0
O176 O 0.50807 0.76109 0.29424 0.0
O177 O 0.51681 0.80599 0.36385 0.0
O178 O 0.3276 0.61356 0.37785 0.0
O179 O 0.30181 0.57191 0.30427 0.0
O180 O 0.47161 0.71827 0.16847 0.0
O181 O 0.50492 0.75511 0.24295 0.0
O182 O 0.29526 0.55769 0.25443 0.0
O183 O 0.27063 0.55061 0.17883 0.0
C184 C 0.25742 0.51565 0.2166 0.0
O185 O 0.34283 0.74285 0.28485 0.0
O186 O 0.35647 0.76938 0.36077 0.0
C187 C 0.34402 0.75978 0.19431 0.0
C188 C 0.33396 0.7673 0.32059 0.0
Zn189 Zn 0.6533 0.35559 0.85898 0.0
Zn190 Zn 0.60684 0.29493 0.68855 0.0
Zn191 Zn 0.62746 0.3388 0.77281 0.0
C192 C 0.7142 0.46671 0.69257 0.0
C193 C 0.45958 0.21981 0.71524 0.0
O194 O 0.64959 0.27456 0.8033 0.0
O195 O 0.65425 0.28202 0.88084 0.0
C196 C 0.76843 0.51066 0.82441 0.0
O197 O 0.71154 0.4563 0.73712 0.0
O198 O 0.67108 0.40617 0.66532 0.0
O199 O 0.488 0.20918 0.68574 0.0
O200 O 0.50379 0.26918 0.7498 0.0
O201 O 0.75854 0.47191 0.85869 0.0
O202 O 0.72205 0.47151 0.78816 0.0
O203 O 0.51196 0.28318 0.80054 0.0
O204 O 0.55745 0.32796 0.8728 0.0
C205 C 0.5028 0.29414 0.84245 0.0
O206 O 0.66866 0.28676 0.75547 0.0
O207 O 0.65514 0.2613 0.67948 0.0
C208 C 0.65511 0.25558 0.84378 0.0
C209 C 0.67873 0.26404 0.71934 0.0
H210 H 0.23727 0.90863 0.12737 0.0
H211 H 0.41654 0.09052 0.22959 0.0
H212 H 0.43743 0.01311 0.25114 0.0
H213 H 0.41305 0.89899 0.23621 0.0
H214 H 0.23419 0.71759 0.13372 0.0
H215 H 0.20558 0.78938 0.1167 0.0
C216 C 0.27979 0.93043 0.15493 0.0
C217 C 0.32592 0.00566 0.17644 0.0
C218 C 0.29266 0.88626 0.16657 0.0
C219 C 0.38112 0.03334 0.212 0.0
C220 C 0.39334 0.98926 0.22423 0.0
C221 C 0.36715 0.87483 0.21063 0.0
C222 C 0.32543 0.80282 0.18651 0.0
C223 C 0.35099 0.91664 0.20094 0.0
C224 C 0.26713 0.77295 0.15279 0.0
C225 C 0.2505 0.81381 0.14313 0.0
H226 H 0.25671 0.18747 0.57021 0.0
H227 H 0.09278 0.9324 0.59472 0.0
H228 H 0.17572 0.96476 0.66076 0.0
H229 H 0.30458 0.0677 0.70501 0.0
H230 H 0.46301 0.32247 0.68392 0.0
H231 H 0.37272 0.289 0.62348 0.0
C232 C 0.238 0.13923 0.59118 0.0
C233 C 0.16705 0.05779 0.57943 0.0
C234 C 0.28568 0.1585 0.62924 0.0
C235 C 0.14546 -0.00453 0.60477 0.0
C236 C 0.19313 0.014 0.64222 0.0
C237 C 0.3166 0.11532 0.68902 0.0
C238 C 0.3894 0.19723 0.69921 0.0
C239 C 0.26403 0.09545 0.65442 0.0
C240 C 0.40609 0.25889 0.67738 0.0
C241 C 0.3556 0.23988 0.64197 0.0
H242 H 0.1445 0.19934 0.16905 0.0
H243 H 0.9806 0.16503 0.08126 0.0
H244 H 0.02181 0.27818 0.11952 0.0
H245 H 0.11859 0.39922 0.16868 0.0
H246 H 0.28782 0.44043 0.25434 0.0
H247 H 0.22878 0.31128 0.22754 0.0
C248 C 0.11678 0.21573 0.15893 0.0
C249 C 0.06092 0.17479 0.12149 0.0
C250 C 0.14174 0.28227 0.18077 0.0
C251 C 0.02508 0.19645 0.10916 0.0
C252 C 0.04838 0.26113 0.13114 0.0
C253 C 0.14079 0.37854 0.18257 0.0
C254 C 0.20722 0.42893 0.21335 0.0
C255 C 0.10873 0.30627 0.16566 0.0
C256 C 0.23599 0.40204 0.231 0.0
C257 C 0.20295 0.32877 0.21513 0.0
H258 H 0.90288 0.23402 0.74716 0.0
H259 H 0.73728 0.04419 0.64443 0.0
H260 H 0.65975 0.06788 0.64534 0.0
H261 H 0.64248 0.14658 0.67247 0.0
H262 H 0.8069 0.33573 0.77522 0.0
H263 H 0.88045 0.30696 0.77804 0.0
C264 C 0.84914 0.19691 0.72548 0.0
C265 C 0.8267 0.13813 0.69527 0.0
C266 C 0.8046 0.21066 0.72625 0.0
C267 C 0.75714 0.09115 0.66718 0.0
C268 C 0.7124 0.10426 0.66788 0.0
C269 C 0.69417 0.18107 0.69565 0.0
C270 C 0.71919 0.24275 0.7238 0.0
C271 C 0.73631 0.16465 0.69671 0.0
C272 C 0.78614 0.28725 0.75368 0.0
C273 C 0.82842 0.27119 0.75503 0.0
H274 H 0.86568 0.97058 0.11411 0.0
H275 H 0.74066 0.73663 0.06328 0.0
H276 H 0.62098 0.66917 0.11 0.0
H277 H 0.54816 0.67861 0.15904 0.0
H278 H 0.67436 0.911 0.21358 0.0
H279 H 0.79913 0.97755 0.1733 0.0
C280 C 0.81298 0.90466 0.11433 0.0
C281 C 0.8124 0.85819 0.08615 0.0
C282 C 0.74507 0.86639 0.14199 0.0
C283 C 0.7428 0.77321 0.08539 0.0
C284 C 0.67454 0.73481 0.11205 0.0
C285 C 0.60376 0.74354 0.16314 0.0
C286 C 0.60243 0.7901 0.18907 0.0
C287 C 0.67453 0.78092 0.13977 0.0
C288 C 0.67438 0.87403 0.19416 0.0
C289 C 0.74521 0.91205 0.1706 0.0
H290 H 0.95675 0.83248 0.63002 0.0
H291 H 0.81687 0.71402 0.50254 0.0
H292 H 0.73714 0.58114 0.53725 0.0
H293 H 0.70323 0.49917 0.60483 0.0
H294 H 0.84225 0.61716 0.73258 0.0
H295 H 0.92515 0.7505 0.69712 0.0
C296 C 0.90854 0.77764 0.60986 0.0
C297 C 0.89202 0.78307 0.56397 0.0
C298 C 0.86217 0.70169 0.63035 0.0
C299 C 0.83077 0.71153 0.53791 0.0
C300 C 0.78487 0.63558 0.55786 0.0
C301 C 0.75179 0.55396 0.62503 0.0
C302 C 0.76567 0.54812 0.67173 0.0
C303 C 0.79941 0.63002 0.60424 0.0
C304 C 0.82893 0.61983 0.69716 0.0
C305 C 0.8768 0.69604 0.67669 0.0
H306 H 0.14211 0.83405 0.27894 0.0
H307 H 0.32773 0.03826 0.36996 0.0
H308 H 0.38564 -0.00647 0.37917 0.0
H309 H 0.38456 0.89703 0.36111 0.0
H310 H 0.20223 0.69547 0.26838 0.0
H311 H 0.14265 0.73907 0.25956 0.0
C312 C 0.19565 0.86931 0.30049 0.0
C313 C 0.22998 0.9393 0.32398 0.0
C314 C 0.22927 0.84366 0.30531 0.0
C315 C 0.29889 0.98338 0.35217 0.0
C316 C 0.33247 0.95813 0.35723 0.0
C317 C 0.33162 0.86266 0.33909 0.0
C318 C 0.29811 0.79365 0.31508 0.0
C319 C 0.2981 0.88832 0.3341 0.0
C320 C 0.22946 0.74932 0.28676 0.0
C321 C 0.19532 0.7741 0.28187 0.0
H322 H 0.26356 0.21321 0.98113 0.0
H323 H 0.09909 0.9778 0.91662 0.0
H324 H 0.19725 0.03529 0.85421 0.0
H325 H 0.34146 0.14837 0.82804 0.0
H326 H 0.50298 0.38337 0.89373 0.0
H327 H 0.39335 0.33202 0.94347 0.0
C328 C 0.24706 0.17568 0.95174 0.0
C329 C 0.17287 0.09213 0.9526 0.0
C330 C 0.30423 0.20925 0.91625 0.0
C331 C 0.15481 0.0428 0.91613 0.0
C332 C 0.21143 0.07565 0.88054 0.0
C333 C 0.35147 0.18889 0.85186 0.0
C334 C 0.4304 0.269 0.85795 0.0
C335 C 0.2881 0.15824 0.88151 0.0
C336 C 0.44282 0.32105 0.88899 0.0
C337 C 0.38035 0.29163 0.91775 0.0
H338 H 0.08001 0.1923 0.39621 0.0
H339 H 0.21728 0.30666 0.52485 0.0
H340 H 0.28606 0.43862 0.49556 0.0
H341 H 0.30939 0.52176 0.43306 0.0
H342 H 0.16672 0.40757 0.30657 0.0
H343 H 0.09841 0.27506 0.335 0.0
C344 C 0.12523 0.24614 0.41778 0.0
C345 C 0.14401 0.23971 0.46255 0.0
C346 C 0.16382 0.32172 0.40095 0.0
C347 C 0.20172 0.30986 0.49032 0.0
C348 C 0.24113 0.38536 0.47356 0.0
C349 C 0.2629 0.46785 0.41175 0.0
C350 C 0.2449 0.47491 0.36692 0.0
C351 C 0.22279 0.39198 0.42894 0.0
C352 C 0.18413 0.40429 0.34012 0.0
C353 C 0.14439 0.32843 0.35673 0.0
H354 H 0.68086 0.02662 0.83279 0.0
H355 H 0.90091 0.2255 0.91039 0.0
H356 H 0.86879 0.29581 0.91063 0.0
H357 H 0.77816 0.30093 0.88873 0.0
H358 H 0.56807 0.11037 0.80323 0.0
H359 H 0.59738 0.03698 0.80526 0.0
C360 C 0.72324 0.08619 0.84891 0.0
C361 C 0.79317 0.12007 0.87186 0.0
C362 C 0.70573 0.12739 0.84777 0.0
C363 C 0.84573 0.1967 0.89336 0.0
C364 C 0.82767 0.23731 0.89331 0.0
C365 C 0.73853 0.24283 0.87107 0.0
C366 C 0.67041 0.20983 0.84657 0.0
C367 C 0.75746 0.20282 0.87104 0.0
C368 C 0.62025 0.13587 0.8227 0.0
C369 C 0.6372 0.09433 0.82375 0.0
H370 H 0.76296 0.80666 0.44565 0.0
H371 H 0.90646 0.05739 0.46441 0.0
H372 H 0.81825 0.03941 0.41034 0.0
H373 H 0.69321 0.94852 0.36283 0.0
H374 H 0.55842 0.70239 0.33675 0.0
H375 H 0.65116 0.7225 0.38721 0.0
C376 C 0.77501 0.85725 0.43735 0.0
C377 C 0.84088 0.93324 0.45858 0.0
C378 C 0.72584 0.84728 0.40478 0.0
C379 C 0.85631 -0.00137 0.44794 0.0
C380 C 0.80602 0.98839 0.41706 0.0
C381 C 0.68637 0.90057 0.36669 0.0
C382 C 0.61974 0.82443 0.34581 0.0
C383 C 0.74018 0.91281 0.39557 0.0
C384 C 0.61037 0.7621 0.35169 0.0
C385 C 0.66227 0.77299 0.38141 0.0
H386 H 0.86516 0.80261 0.90353 0.0
H387 H 0.02756 0.82739 0.98401 0.0
H388 H 0.99217 0.72399 0.93589 0.0
H389 H 0.9047 0.61743 0.87617 0.0
H390 H 0.74372 0.59415 0.79478 0.0
H391 H 0.7951 0.71233 0.83491 0.0
C392 C 0.89464 0.78738 0.90984 0.0
C393 C 0.9473 0.82136 0.94838 0.0
C394 C 0.87587 0.72976 0.8809 0.0
C395 C 0.98372 0.79933 0.95631 0.0
C396 C 0.96483 0.74144 0.92806 0.0
C397 C 0.88285 0.64 0.86614 0.0
C398 C 0.82003 0.59682 0.83296 0.0
C399 C 0.90957 0.70498 0.89097 0.0
C400 C 0.79242 0.62667 0.81999 0.0
C401 C 0.8206 0.69316 0.84364 0.0
loop_
_geom_bond_atom_site_label_1
_geom_bond_atom_site_label_2
_geom_bond_distance
_geom_bond_site_symmetry_2
_ccdc_geom_bond_type
Eu0 N31 2.657 1_455 S
Eu0 N38 2.609 . S
Eu0 O44 2.558 1_565 S
Eu0 O45 2.612 1_564 S
Eu0 O47 2.339 1_454 S
Eu0 O48 2.563 1_565 S
Eu0 O49 2.419 . S
Eu0 O51 2.380 1_455 S
Eu0 O52 2.432 1_565 S
Eu0 C64 2.848 . S
C1 C4 1.429 . S
C1 C5 1.411 . S
C1 N8 1.377 1_455 S
C2 C4 1.420 . S
C2 C6 1.423 . S
C2 C14 1.392 . S
C3 C5 1.420 . S
C3 C6 1.351 . S
C3 H26 0.931 . S
C4 C1 1.429 . S
C4 C2 1.420 . S
C4 N12 1.362 . S
C5 C1 1.411 . S
C5 C3 1.420 . S
C5 C10 1.395 1_455 S
C6 C2 1.423 . S
C6 C3 1.351 . S
C6 H18 0.930 . S
C7 C9 1.400 . S
C7 C10 1.386 1_565 S
C7 H19 0.930 . S
N8 C1 1.377 1_655 S
N8 C9 1.321 1_545 S
N8 Eu11 2.609 . S
C9 C7 1.400 . S
C9 N8 1.321 1_565 S
C9 H16 0.930 . S
C10 C5 1.395 1_655 S
C10 C7 1.386 1_545 S
C10 H29 0.930 . S
Eu11 N8 2.609 . S
Eu11 N12 2.657 1_655 S
Eu11 O45 2.380 1_655 S
Eu11 O46 2.432 1_545 S
Eu11 O50 2.558 1_545 S
Eu11 O51 2.612 1_546 S
Eu11 O53 2.339 1_656 S
Eu11 O54 2.563 1_545 S
Eu11 O55 2.419 . S
Eu11 C75 2.848 . S
N12 C4 1.362 . S
N12 Eu11 2.657 1_455 S
N12 C13 1.334 . S
C13 N12 1.334 . S
C13 C15 1.413 . S
C13 H20 0.929 . S
C14 C2 1.392 . S
C14 C15 1.367 . S
C14 H22 0.930 . S
C15 C13 1.413 . S
C15 C14 1.367 . S
C15 H17 0.930 . S
H16 C9 0.930 . S
H17 C15 0.930 . S
H18 C6 0.930 . S
H19 C7 0.930 . S
H20 C13 0.929 . S
H21 C35 0.930 . S
H22 C14 0.930 . S
H23 C41 0.930 . S
H24 C32 0.929 . S
H25 C39 0.930 . S
H26 C3 0.931 . S
H27 C33 0.930 . S
H28 C66 0.930 . S
H29 C10 0.930 . S
H30 C65 0.931 . S
N31 Eu0 2.657 1_655 S
N31 C32 1.334 . S
N31 C36 1.362 . S
C32 H24 0.929 . S
C32 N31 1.334 . S
C32 C35 1.413 . S
C33 H27 0.930 . S
C33 C34 1.392 . S
C33 C35 1.367 . S
C34 C33 1.392 . S
C34 C36 1.420 . S
C34 C66 1.423 . S
C35 H21 0.930 . S
C35 C32 1.413 . S
C35 C33 1.367 . S
C36 N31 1.362 . S
C36 C34 1.420 . S
C36 C40 1.429 . S
H37 C42 0.930 . S
N38 Eu0 2.609 . S
N38 C40 1.377 1_455 S
N38 C41 1.321 1_565 S
C39 H25 0.930 . S
C39 C41 1.400 . S
C39 C42 1.386 1_545 S
C40 C36 1.429 . S
C40 N38 1.377 1_655 S
C40 C43 1.411 . S
C41 H23 0.930 . S
C41 N38 1.321 1_545 S
C41 C39 1.400 . S
C42 H37 0.930 . S
C42 C39 1.386 1_565 S
C42 C43 1.395 1_455 S
C43 C40 1.411 . S
C43 C42 1.395 1_655 S
C43 C65 1.420 . S
O44 Eu0 2.558 1_545 S
O44 C64 1.257 1_545 S
O45 Eu0 2.612 1_546 S
O45 Eu11 2.380 1_455 S
O45 C56 1.276 . S
O46 Eu11 2.432 1_565 S
O46 C63 1.264 . S
O47 Eu0 2.339 1_656 S
O47 C63 1.254 . S
O48 Eu0 2.563 1_545 S
O48 C56 1.235 1_554 S
O49 Eu0 2.419 . S
O49 C64 1.249 . S
O50 Eu11 2.558 1_565 S
O50 C75 1.257 1_565 S
O51 Eu0 2.380 1_655 S
O51 Eu11 2.612 1_564 S
O51 C67 1.276 . S
O52 Eu0 2.432 1_545 S
O52 C74 1.264 . S
O53 Eu11 2.339 1_454 S
O53 C74 1.254 . S
O54 Eu11 2.563 1_565 S
O54 C67 1.235 1_556 S
O55 Eu11 2.419 . S
O55 C75 1.249 . S
C56 O45 1.276 . S
C56 O48 1.235 1_556 S
C57 C59 1.393 . S
C57 C61 1.395 . S
C57 C64 1.492 . S
C58 C59 1.392 . S
C58 C60 1.386 . S
C59 C57 1.393 . S
C59 C58 1.392 . S
C59 H76 0.930 . S
C60 C58 1.386 . S
C60 C62 1.395 . S
C60 H77 0.930 . S
C61 C57 1.395 . S
C61 C62 1.379 . S
C61 H78 0.930 . S
C62 C60 1.395 . S
C62 C61 1.379 . S
C62 H79 0.930 . S
C63 O46 1.264 . S
C63 O47 1.254 . S
C64 Eu0 2.848 . S
C64 O44 1.257 1_565 S
C64 O49 1.249 . S
C64 C57 1.492 . S
C65 H30 0.931 . S
C65 C43 1.420 . S
C65 C66 1.351 . S
C66 H28 0.930 . S
C66 C34 1.423 . S
C66 C65 1.351 . S
C67 O51 1.276 . S
C67 O54 1.235 1_554 S
C68 C69 1.393 . S
C68 C72 1.395 . S
C68 C75 1.492 . S
C69 C68 1.393 . S
C69 C70 1.392 . S
C69 H80 0.930 . S
C70 C69 1.392 . S
C70 C71 1.386 . S
C71 C70 1.386 . S
C71 C73 1.395 . S
C71 H81 0.930 . S
C72 C68 1.395 . S
C72 C73 1.379 . S
C72 H82 0.930 . S
C73 C71 1.395 . S
C73 C72 1.379 . S
C73 H83 0.930 . S
C74 O52 1.264 . S
C74 O53 1.254 . S
C75 Eu11 2.848 . S
C75 O50 1.257 1_545 S
C75 O55 1.249 . S
C75 C68 1.492 . S
H76 C59 0.930 . S
H77 C60 0.930 . S
H78 C61 0.930 . S
H79 C62 0.930 . S
H80 C69 0.930 . S
H81 C71 0.930 . S
H82 C72 0.930 . S
H83 C73 0.930 . S
Eu84 N115 2.657 1_655 S
Eu84 N122 2.609 1_655 S
Eu84 O128 2.558 . S
Eu84 O129 2.612 1_545 S
Eu84 O131 2.339 1_655 S
Eu84 O132 2.563 1_545 S
Eu84 O133 2.419 . S
Eu84 O135 2.380 1_655 S
Eu84 O136 2.432 1_545 S
Eu84 C148 2.848 . S
C85 C88 1.429 . S
C85 C89 1.411 . S
C85 N92 1.377 1_665 S
C86 C88 1.420 . S
C86 C90 1.423 . S
C86 C98 1.392 . S
C87 C89 1.420 . S
C87 C90 1.351 . S
C87 H110 0.931 . S
C88 C85 1.429 . S
C88 C86 1.420 . S
C88 N96 1.362 . S
C89 C85 1.411 . S
C89 C87 1.420 . S
C89 C94 1.395 1_665 S
C90 C86 1.423 . S
C90 C87 1.351 . S
C90 H102 0.930 . S
C91 C93 1.400 . S
C91 C94 1.386 . S
C91 H103 0.930 . S
N92 C85 1.377 1_445 S
N92 C93 1.321 . S
N92 Eu95 2.609 1_545 S
C93 C91 1.400 . S
C93 N92 1.321 . S
C93 H100 0.930 . S
C94 C89 1.395 1_445 S
C94 C91 1.386 . S
C94 H113 0.930 . S
Eu95 N92 2.609 1_565 S
Eu95 N96 2.657 1_455 S
Eu95 O129 2.380 1_455 S
Eu95 O130 2.432 1_565 S
Eu95 O134 2.558 1_565 S
Eu95 O135 2.612 1_565 S
Eu95 O137 2.339 1_455 S
Eu95 O138 2.563 1_565 S
Eu95 O139 2.419 . S
Eu95 C159 2.848 . S
N96 C88 1.362 . S
N96 Eu95 2.657 1_655 S
N96 C97 1.334 . S
C97 N96 1.334 . S
C97 C99 1.413 . S
C97 H104 0.929 . S
C98 C86 1.392 . S
C98 C99 1.367 . S
C98 H106 0.930 . S
C99 C97 1.413 . S
C99 C98 1.367 . S
C99 H101 0.930 . S
H100 C93 0.930 . S
H101 C99 0.930 . S
H102 C90 0.930 . S
H103 C91 0.930 . S
H104 C97 0.929 . S
H105 C119 0.930 . S
H106 C98 0.930 . S
H107 C125 0.930 . S
H108 C116 0.929 . S
H109 C123 0.930 . S
H110 C87 0.931 . S
H111 C117 0.930 . S
H112 C150 0.930 . S
H113 C94 0.930 . S
H114 C149 0.931 . S
N115 Eu84 2.657 1_455 S
N115 C116 1.334 . S
N115 C120 1.362 . S
C116 H108 0.929 . S
C116 N115 1.334 . S
C116 C119 1.413 . S
C117 H111 0.930 . S
C117 C118 1.392 . S
C117 C119 1.367 . S
C118 C117 1.392 . S
C118 C120 1.420 . S
C118 C150 1.423 . S
C119 H105 0.930 . S
C119 C116 1.413 . S
C119 C117 1.367 . S
C120 N115 1.362 . S
C120 C118 1.420 . S
C120 C124 1.429 . S
H121 C126 0.930 . S
N122 Eu84 2.609 1_455 S
N122 C124 1.377 . S
N122 C125 1.321 1_445 S
C123 H109 0.930 . S
C123 C125 1.400 . S
C123 C126 1.386 1_665 S
C124 C120 1.429 . S
C124 N122 1.377 . S
C124 C127 1.411 . S
C125 H107 0.930 . S
C125 N122 1.321 1_665 S
C125 C123 1.400 . S
C126 H121 0.930 . S
C126 C123 1.386 1_445 S
C126 C127 1.395 . S
C127 C124 1.411 . S
C127 C126 1.395 . S
C127 C149 1.420 . S
O128 Eu84 2.558 . S
O128 C148 1.257 . S
O129 Eu84 2.612 1_565 S
O129 Eu95 2.380 1_655 S
O129 C140 1.276 . S
O130 Eu95 2.432 1_545 S
O130 C147 1.264 . S
O131 Eu84 2.339 1_455 S
O131 C147 1.254 . S
O132 Eu84 2.563 1_565 S
O132 C140 1.235 . S
O133 Eu84 2.419 . S
O133 C148 1.249 . S
O134 Eu95 2.558 1_545 S
O134 C159 1.257 1_545 S
O135 Eu84 2.380 1_455 S
O135 Eu95 2.612 1_545 S
O135 C151 1.276 . S
O136 Eu84 2.432 1_565 S
O136 C158 1.264 . S
O137 Eu95 2.339 1_655 S
O137 C158 1.254 . S
O138 Eu95 2.563 1_545 S
O138 C151 1.235 . S
O139 Eu95 2.419 . S
O139 C159 1.249 . S
C140 O129 1.276 . S
C140 O132 1.235 . S
C141 C143 1.393 . S
C141 C145 1.395 . S
C141 C148 1.492 . S
C142 C143 1.392 . S
C142 C144 1.386 . S
C143 C141 1.393 . S
C143 C142 1.392 . S
C143 H160 0.930 . S
C144 C142 1.386 . S
C144 C146 1.395 . S
C144 H161 0.930 . S
C145 C141 1.395 . S
C145 C146 1.379 . S
C145 H162 0.930 . S
C146 C144 1.395 . S
C146 C145 1.379 . S
C146 H163 0.930 . S
C147 O130 1.264 . S
C147 O131 1.254 . S
C148 Eu84 2.848 . S
C148 O128 1.257 . S
C148 O133 1.249 . S
C148 C141 1.492 . S
C149 H114 0.931 . S
C149 C127 1.420 . S
C149 C150 1.351 . S
C150 H112 0.930 . S
C150 C118 1.423 . S
C150 C149 1.351 . S
C151 O135 1.276 . S
C151 O138 1.235 . S
C152 C153 1.393 . S
C152 C156 1.395 . S
C152 C159 1.492 . S
C153 C152 1.393 . S
C153 C154 1.392 . S
C153 H164 0.930 . S
C154 C153 1.392 . S
C154 C155 1.386 . S
C155 C154 1.386 . S
C155 C157 1.395 . S
C155 H165 0.930 . S
C156 C152 1.395 . S
C156 C157 1.379 . S
C156 H166 0.930 1_565 S
C157 C155 1.395 . S
C157 C156 1.379 . S
C157 H167 0.930 . S
C158 O136 1.264 . S
C158 O137 1.254 . S
C159 Eu95 2.848 . S
C159 O134 1.257 1_565 S
C159 O139 1.249 . S
C159 C152 1.492 . S
H160 C143 0.930 . S
H161 C144 0.930 . S
H162 C145 0.930 . S
H163 C146 0.930 . S
H164 C153 0.930 . S
H165 C155 0.930 . S
H166 C156 0.930 1_545 S
H167 C157 0.930 . S
Zn168 O174 1.920 . S
Zn168 O180 1.898 . S
Zn168 O183 1.905 . S
Zn169 O177 1.905 . S
Zn169 O178 1.898 . S
Zn169 O186 1.920 . S
Zn170 O173 2.080 . S
Zn170 O176 2.114 . S
Zn170 O179 2.120 . S
Zn170 O181 2.120 . S
Zn170 O182 2.114 . S
Zn170 O185 2.080 . S
C171 O176 1.166 . S
C171 O177 1.182 . S
C172 O178 1.167 . S
C172 O179 1.299 . S
O173 Zn170 2.080 . S
O173 C187 1.305 . S
O174 Zn168 1.920 . S
O174 C187 1.234 . S
C175 O180 1.167 . S
C175 O181 1.299 . S
O176 Zn170 2.114 . S
O176 C171 1.166 . S
O177 Zn169 1.905 . S
O177 C171 1.182 . S
O178 Zn169 1.898 . S
O178 C172 1.167 . S
O179 Zn170 2.120 . S
O179 C172 1.299 . S
O180 Zn168 1.898 . S
O180 C175 1.167 . S
O181 Zn170 2.120 . S
O181 C175 1.299 . S
O182 Zn170 2.114 . S
O182 C184 1.166 . S
O183 Zn168 1.905 . S
O183 C184 1.182 . S
C184 O182 1.166 . S
C184 O183 1.182 . S
O185 Zn170 2.080 . S
O185 C188 1.305 . S
O186 Zn169 1.920 . S
O186 C188 1.234 . S
C187 O173 1.305 . S
C187 O174 1.234 . S
C188 O185 1.305 . S
C188 O186 1.234 . S
Zn189 O195 1.920 . S
Zn189 O201 1.898 . S
Zn189 O204 1.905 . S
Zn190 O198 1.905 . S
Zn190 O199 1.898 . S
Zn190 O207 1.920 . S
Zn191 O194 2.080 . S
Zn191 O197 2.114 . S
Zn191 O200 2.120 . S
Zn191 O202 2.120 . S
Zn191 O203 2.114 . S
Zn191 O206 2.080 . S
C192 O197 1.166 . S
C192 O198 1.182 . S
C193 O199 1.167 . S
C193 O200 1.299 . S
O194 Zn191 2.080 . S
O194 C208 1.305 . S
O195 Zn189 1.920 . S
O195 C208 1.234 . S
C196 O201 1.167 . S
C196 O202 1.299 . S
O197 Zn191 2.114 . S
O197 C192 1.166 . S
O198 Zn190 1.905 . S
O198 C192 1.182 . S
O199 Zn190 1.898 . S
O199 C193 1.167 . S
O200 Zn191 2.120 . S
O200 C193 1.299 . S
O201 Zn189 1.898 . S
O201 C196 1.167 . S
O202 Zn191 2.120 . S
O202 C196 1.299 . S
O203 Zn191 2.114 . S
O203 C205 1.166 . S
O204 Zn189 1.905 . S
O204 C205 1.182 . S
C205 O203 1.166 . S
C205 O204 1.182 . S
O206 Zn191 2.080 . S
O206 C209 1.305 . S
O207 Zn190 1.920 . S
O207 C209 1.234 . S
C208 O194 1.305 . S
C208 O195 1.234 . S
C209 O206 1.305 . S
C209 O207 1.234 . S
H210 C216 0.930 . S
H211 C219 0.930 . S
H212 C220 0.930 . S
H213 C221 0.930 . S
H214 C224 0.930 . S
H215 C225 0.930 . S
C216 H210 0.930 . S
C216 C217 1.355 . S
C216 C218 1.415 . S
C217 C216 1.355 . S
C217 C219 1.419 . S
C218 C216 1.415 . S
C218 C223 1.425 . S
C218 C225 1.409 . S
C219 H211 0.930 . S
C219 C217 1.419 . S
C219 C220 1.362 . S
C220 H212 0.930 . S
C220 C219 1.362 . S
C220 C223 1.409 . S
C221 H213 0.930 . S
C221 C222 1.355 . S
C221 C223 1.415 . S
C222 C221 1.355 . S
C222 C224 1.419 . S
C223 C218 1.425 . S
C223 C220 1.409 . S
C223 C221 1.415 . S
C224 H214 0.930 . S
C224 C222 1.419 . S
C224 C225 1.362 . S
C225 H215 0.930 . S
C225 C218 1.409 . S
C225 C224 1.362 . S
H226 C232 0.930 . S
H227 C235 0.930 . S
H228 C236 0.930 . S
H229 C237 0.930 . S
H230 C240 0.930 . S
H231 C241 0.930 . S
C232 H226 0.930 . S
C232 C233 1.355 . S
C232 C234 1.415 . S
C233 C232 1.355 . S
C233 C235 1.419 . S
C234 C232 1.415 . S
C234 C239 1.425 . S
C234 C241 1.409 . S
C235 H227 0.930 . S
C235 C233 1.419 . S
C235 C236 1.362 . S
C236 H228 0.930 . S
C236 C235 1.362 . S
C236 C239 1.409 . S
C237 H229 0.930 . S
C237 C238 1.355 . S
C237 C239 1.415 . S
C238 C237 1.355 . S
C238 C240 1.419 . S
C239 C234 1.425 . S
C239 C236 1.409 . S
C239 C237 1.415 . S
C240 H230 0.930 . S
C240 C238 1.419 . S
C240 C241 1.362 . S
C241 H231 0.930 . S
C241 C234 1.409 . S
C241 C240 1.362 . S
H242 C248 0.930 . S
H243 C251 0.930 . S
H244 C252 0.930 . S
H245 C253 0.930 . S
H246 C256 0.930 . S
H247 C257 0.930 . S
C248 H242 0.930 . S
C248 C249 1.355 . S
C248 C250 1.415 . S
C249 C248 1.355 . S
C249 C251 1.419 . S
C250 C248 1.415 . S
C250 C255 1.425 . S
C250 C257 1.409 . S
C251 H243 0.930 . S
C251 C249 1.419 . S
C251 C252 1.362 . S
C252 H244 0.930 . S
C252 C251 1.362 . S
C252 C255 1.409 . S
C253 H245 0.930 . S
C253 C254 1.355 . S
C253 C255 1.415 . S
C254 C253 1.355 . S
C254 C256 1.419 . S
C255 C250 1.425 . S
C255 C252 1.409 . S
C255 C253 1.415 . S
C256 H246 0.930 . S
C256 C254 1.419 . S
C256 C257 1.362 . S
C257 H247 0.930 . S
C257 C250 1.409 . S
C257 C256 1.362 . S
H258 C264 0.930 . S
H259 C267 0.930 . S
H260 C268 0.930 . S
H261 C269 0.930 . S
H262 C272 0.930 . S
H263 C273 0.930 . S
C264 H258 0.930 . S
C264 C265 1.355 . S
C264 C266 1.415 . S
C265 C264 1.355 . S
C265 C267 1.419 . S
C266 C264 1.415 . S
C266 C271 1.425 . S
C266 C273 1.409 . S
C267 H259 0.930 . S
C267 C265 1.419 . S
C267 C268 1.362 . S
C268 H260 0.930 . S
C268 C267 1.362 . S
C268 C271 1.409 . S
C269 H261 0.930 . S
C269 C270 1.355 . S
C269 C271 1.415 . S
C270 C269 1.355 . S
C270 C272 1.419 . S
C271 C266 1.425 . S
C271 C268 1.409 . S
C271 C269 1.415 . S
C272 H262 0.930 . S
C272 C270 1.419 . S
C272 C273 1.362 . S
C273 H263 0.930 . S
C273 C266 1.409 . S
C273 C272 1.362 . S
H274 C280 0.930 1_545 S
H275 C283 0.930 . S
H276 C284 0.930 . S
H277 C285 0.930 . S
H278 C288 0.930 . S
H279 C289 0.930 1_545 S
C280 H274 0.930 1_565 S
C280 C281 1.355 . S
C280 C282 1.415 . S
C281 C280 1.355 . S
C281 C283 1.419 . S
C282 C280 1.415 . S
C282 C287 1.425 . S
C282 C289 1.409 . S
C283 H275 0.930 . S
C283 C281 1.419 . S
C283 C284 1.362 . S
C284 H276 0.930 . S
C284 C283 1.362 . S
C284 C287 1.409 . S
C285 H277 0.930 . S
C285 C286 1.355 . S
C285 C287 1.415 . S
C286 C285 1.355 . S
C286 C288 1.419 . S
C287 C282 1.425 . S
C287 C284 1.409 . S
C287 C285 1.415 . S
C288 H278 0.930 . S
C288 C286 1.419 . S
C288 C289 1.362 . S
C289 H279 0.930 1_565 S
C289 C282 1.409 . S
C289 C288 1.362 . S
H290 C296 0.930 . S
H291 C299 0.930 . S
H292 C300 0.930 . S
H293 C301 0.930 . S
H294 C304 0.930 . S
H295 C305 0.930 . S
C296 H290 0.930 . S
C296 C297 1.355 . S
C296 C298 1.415 . S
C297 C296 1.355 . S
C297 C299 1.419 . S
C298 C296 1.415 . S
C298 C303 1.425 . S
C298 C305 1.409 . S
C299 H291 0.930 . S
C299 C297 1.419 . S
C299 C300 1.362 . S
C300 H292 0.930 . S
C300 C299 1.362 . S
C300 C303 1.409 . S
C301 H293 0.930 . S
C301 C302 1.355 . S
C301 C303 1.415 . S
C302 C301 1.355 . S
C302 C304 1.419 . S
C303 C298 1.425 . S
C303 C300 1.409 . S
C303 C301 1.415 . S
C304 H294 0.930 . S
C304 C302 1.419 . S
C304 C305 1.362 . S
C305 H295 0.930 . S
C305 C298 1.409 . S
C305 C304 1.362 . S
H306 C312 0.930 . S
H307 C315 0.930 . S
H308 C316 0.930 . S
H309 C317 0.930 . S
H310 C320 0.930 . S
H311 C321 0.930 . S
C312 H306 0.930 . S
C312 C313 1.355 . S
C312 C314 1.415 . S
C313 C312 1.355 . S
C313 C315 1.419 . S
C314 C312 1.415 . S
C314 C319 1.425 . S
C314 C321 1.409 . S
C315 H307 0.930 . S
C315 C313 1.419 . S
C315 C316 1.362 . S
C316 H308 0.930 . S
C316 C315 1.362 . S
C316 C319 1.409 . S
C317 H309 0.930 . S
C317 C318 1.355 . S
C317 C319 1.415 . S
C318 C317 1.355 . S
C318 C320 1.419 . S
C319 C314 1.425 . S
C319 C316 1.409 . S
C319 C317 1.415 . S
C320 H310 0.930 . S
C320 C318 1.419 . S
C320 C321 1.362 . S
C321 H311 0.930 . S
C321 C314 1.409 . S
C321 C320 1.362 . S
H322 C328 0.930 . S
H323 C331 0.930 . S
H324 C332 0.930 . S
H325 C333 0.930 . S
H326 C336 0.930 . S
H327 C337 0.930 . S
C328 H322 0.930 . S
C328 C329 1.355 . S
C328 C330 1.415 . S
C329 C328 1.355 . S
C329 C331 1.419 . S
C330 C328 1.415 . S
C330 C335 1.425 . S
C330 C337 1.409 . S
C331 H323 0.930 . S
C331 C329 1.419 . S
C331 C332 1.362 . S
C332 H324 0.930 . S
C332 C331 1.362 . S
C332 C335 1.409 . S
C333 H325 0.930 . S
C333 C334 1.355 . S
C333 C335 1.415 . S
C334 C333 1.355 . S
C334 C336 1.419 . S
C335 C330 1.425 . S
C335 C332 1.409 . S
C335 C333 1.415 . S
C336 H326 0.930 . S
C336 C334 1.419 . S
C336 C337 1.362 . S
C337 H327 0.930 . S
C337 C330 1.409 . S
C337 C336 1.362 . S
H338 C344 0.930 . S
H339 C347 0.930 1_655 S
H340 C348 0.930 . S
H341 C349 0.930 . S
H342 C352 0.930 . S
H343 C353 0.930 . S
C344 H338 0.930 . S
C344 C345 1.355 . S
C344 C346 1.415 . S
C345 C344 1.355 . S
C345 C347 1.419 . S
C346 C344 1.415 . S
C346 C351 1.425 . S
C346 C353 1.409 . S
C347 H339 0.930 1_455 S
C347 C345 1.419 . S
C347 C348 1.362 . S
C348 H340 0.930 . S
C348 C347 1.362 . S
C348 C351 1.409 . S
C349 H341 0.930 . S
C349 C350 1.355 . S
C349 C351 1.415 . S
C350 C349 1.355 . S
C350 C352 1.419 . S
C351 C346 1.425 . S
C351 C348 1.409 . S
C351 C349 1.415 . S
C352 H342 0.930 . S
C352 C350 1.419 . S
C352 C353 1.362 . S
C353 H343 0.930 . S
C353 C346 1.409 . S
C353 C352 1.362 . S
H354 C360 0.930 . S
H355 C363 0.930 . S
H356 C364 0.930 . S
H357 C365 0.930 . S
H358 C368 0.930 . S
H359 C369 0.930 . S
C360 H354 0.930 . S
C360 C361 1.355 . S
C360 C362 1.415 . S
C361 C360 1.355 . S
C361 C363 1.419 . S
C362 C360 1.415 . S
C362 C367 1.425 . S
C362 C369 1.409 . S
C363 H355 0.930 . S
C363 C361 1.419 . S
C363 C364 1.362 . S
C364 H356 0.930 . S
C364 C363 1.362 . S
C364 C367 1.409 . S
C365 H357 0.930 . S
C365 C366 1.355 . S
C365 C367 1.415 . S
C366 C365 1.355 . S
C366 C368 1.419 . S
C367 C362 1.425 . S
C367 C364 1.409 . S
C367 C365 1.415 . S
C368 H358 0.930 . S
C368 C366 1.419 . S
C368 C369 1.362 . S
C369 H359 0.930 . S
C369 C362 1.409 . S
C369 C368 1.362 . S
H370 C376 0.930 . S
H371 C379 0.930 1_545 S
H372 C380 0.930 . S
H373 C381 0.930 . S
H374 C384 0.930 . S
H375 C385 0.930 . S
C376 H370 0.930 . S
C376 C377 1.355 . S
C376 C378 1.415 . S
C377 C376 1.355 . S
C377 C379 1.419 . S
C378 C376 1.415 . S
C378 C383 1.425 . S
C378 C385 1.409 . S
C379 H371 0.930 1_565 S
C379 C377 1.419 . S
C379 C380 1.362 . S
C380 H372 0.930 . S
C380 C379 1.362 . S
C380 C383 1.409 . S
C381 H373 0.930 . S
C381 C382 1.355 . S
C381 C383 1.415 . S
C382 C381 1.355 . S
C382 C384 1.419 . S
C383 C378 1.425 . S
C383 C380 1.409 . S
C383 C381 1.415 . S
C384 H374 0.930 . S
C384 C382 1.419 . S
C384 C385 1.362 . S
C385 H375 0.930 . S
C385 C378 1.409 . S
C385 C384 1.362 . S
H386 C392 0.930 . S
H387 C395 0.930 1_455 S
H388 C396 0.930 1_455 S
H389 C397 0.930 . S
H390 C400 0.930 . S
H391 C401 0.930 . S
C392 H386 0.930 . S
C392 C393 1.355 . S
C392 C394 1.415 . S
C393 C392 1.355 . S
C393 C395 1.419 . S
C394 C392 1.415 . S
C394 C399 1.425 . S
C394 C401 1.409 . S
C395 H387 0.930 1_655 S
C395 C393 1.419 . S
C395 C396 1.362 . S
C396 H388 0.930 1_655 S
C396 C395 1.362 . S
C396 C399 1.409 . S
C397 H389 0.930 . S
C397 C398 1.355 . S
C397 C399 1.415 . S
C398 C397 1.355 . S
C398 C400 1.419 . S
C399 C394 1.425 . S
C399 C396 1.409 . S
C399 C397 1.415 . S
C400 H390 0.930 . S
C400 C398 1.419 . S
C400 C401 1.362 . S
C401 H391 0.930 . S
C401 C394 1.409 . S
C401 C400 1.362 . S
C217 C58 1.084 . S
C222 C187 1.223 . S
C233 C151 1.556 . S
C238 C193 1.472 . S
C249 C74 1.588 . S
C254 C184 1.508 . S
C265 C142 1.089 . S
C270 C209 1.241 . S
C281 C67 1.610 . S
C286 C175 1.471 . S
C302 C192 1.506 . S
C297 C158 1.532 . S
C313 C154 1.221 . S
C318 C188 1.331 . S
C334 C205 1.455 . S
C329 C56 1.616 . S
C350 C172 1.368 . S
C345 C147 1.602 . S
C366 C208 1.237 . S
C361 C70 1.081 . S
C382 C171 1.505 . S
C377 C140 1.598 . S
C398 C196 1.389 . S
C393 C63 1.601 . S
