# Generated by pormake.
# Topology pyr, (3,6)-cn, num edge types: 1
# Building blocks:
#     Node 0, Type 0, BuildingBlock: OLANEW_clean_sbu_2, # of connection points: 3
#     Node 1, Type 0, BuildingBlock: OLANEW_clean_sbu_2, # of connection points: 3
#     Node 2, Type 0, BuildingBlock: OLANEW_clean_sbu_2, # of connection points: 3
#     Node 3, Type 0, BuildingBlock: OLANEW_clean_sbu_2, # of connection points: 3
#     Node 4, Type 0, BuildingBlock: OLANEW_clean_sbu_2, # of connection points: 3
#     Node 5, Type 0, BuildingBlock: OLANEW_clean_sbu_2, # of connection points: 3
#     Node 6, Type 0, BuildingBlock: OLANEW_clean_sbu_2, # of connection points: 3
#     Node 7, Type 0, BuildingBlock: OLANEW_clean_sbu_2, # of connection points: 3
#     Node 8, Type 1, BuildingBlock: PAMTUU_clean_sbu_0, # of connection points: 6
#     Node 9, Type 1, BuildingBlock: PAMTUU_clean_sbu_0, # of connection points: 6
#     Node 10, Type 1, BuildingBlock: PAMTUU_clean_sbu_0, # of connection points: 6
#     Node 11, Type 1, BuildingBlock: PAMTUU_clean_sbu_0, # of connection points: 6
#     Edge 12, Type (0, 1), BuildingBlock: ZUJKAS_clean_linker_0, # of connection points: 2
#     Edge 13, Type (0, 1), BuildingBlock: ZUJKAS_clean_linker_0, # of connection points: 2
#     Edge 14, Type (0, 1), BuildingBlock: ZUJKAS_clean_linker_0, # of connection points: 2
#     Edge 15, Type (0, 1), BuildingBlock: ZUJKAS_clean_linker_0, # of connection points: 2
#     Edge 16, Type (0, 1), BuildingBlock: ZUJKAS_clean_linker_0, # of connection points: 2
#     Edge 17, Type (0, 1), BuildingBlock: ZUJKAS_clean_linker_0, # of connection points: 2
#     Edge 18, Type (0, 1), BuildingBlock: ZUJKAS_clean_linker_0, # of connection points: 2
#     Edge 19, Type (0, 1), BuildingBlock: ZUJKAS_clean_linker_0, # of connection points: 2
#     Edge 20, Type (0, 1), BuildingBlock: ZUJKAS_clean_linker_0, # of connection points: 2
#     Edge 21, Type (0, 1), BuildingBlock: ZUJKAS_clean_linker_0, # of connection points: 2
#     Edge 22, Type (0, 1), BuildingBlock: ZUJKAS_clean_linker_0, # of connection points: 2
#     Edge 23, Type (0, 1), BuildingBlock: ZUJKAS_clean_linker_0, # of connection points: 2
#     Edge 24, Type (0, 1), BuildingBlock: ZUJKAS_clean_linker_0, # of connection points: 2
#     Edge 25, Type (0, 1), BuildingBlock: ZUJKAS_clean_linker_0, # of connection points: 2
#     Edge 26, Type (0, 1), BuildingBlock: ZUJKAS_clean_linker_0, # of connection points: 2
#     Edge 27, Type (0, 1), BuildingBlock: ZUJKAS_clean_linker_0, # of connection points: 2
#     Edge 28, Type (0, 1), BuildingBlock: ZUJKAS_clean_linker_0, # of connection points: 2
#     Edge 29, Type (0, 1), BuildingBlock: ZUJKAS_clean_linker_0, # of connection points: 2
#     Edge 30, Type (0, 1), BuildingBlock: ZUJKAS_clean_linker_0, # of connection points: 2
#     Edge 31, Type (0, 1), BuildingBlock: ZUJKAS_clean_linker_0, # of connection points: 2
#     Edge 32, Type (0, 1), BuildingBlock: ZUJKAS_clean_linker_0, # of connection points: 2
#     Edge 33, Type (0, 1), BuildingBlock: ZUJKAS_clean_linker_0, # of connection points: 2
#     Edge 34, Type (0, 1), BuildingBlock: ZUJKAS_clean_linker_0, # of connection points: 2
#     Edge 35, Type (0, 1), BuildingBlock: ZUJKAS_clean_linker_0, # of connection points: 2
# Relax obj value: 0.093
# Max RMSD: 0.177
# Mean RMSD: 0.121
data_MOF--net-pyr--node1-OLANEW_clean_sbu_2--node2-PAMTUU_clean_sbu_0--edge1-ZUJKAS_clean_linker_0
_symmetry_space_group_name_H-M    P1
_symmetry_Int_Tables_number       1
_symmetry_cell_setting            triclinic
loop_
_symmetry_equiv_pos_as_xyz
'x, y, z'
_cell_length_a     52.12734
_cell_length_b     54.396404
_cell_length_c     51.865919
_cell_angle_alpha  94.27082
_cell_angle_beta   88.090148
_cell_angle_gamma 102.62406
loop_
_atom_site_label
_atom_site_type_symbol
_atom_site_fract_x
_atom_site_fract_y
_atom_site_fract_z
_atom_type_partial_charge
O0 O 0.3244 0.2487 0.18548 0.0
Cd1 Cd 0.29626 0.27222 0.21077 0.0
O2 O 0.28821 0.21999 0.18731 0.0
Cd3 Cd 0.26365 0.1824 0.18929 0.0
O4 O 0.24142 0.16409 0.22098 0.0
C5 C 0.24557 0.17756 0.24213 0.0
O6 O 0.26226 0.1995 0.24219 0.0
C7 C 0.31242 0.2259 0.181 0.0
C8 C 0.26268 0.29257 0.1827 0.0
O9 O 0.28426 0.30626 0.19138 0.0
O10 O 0.25701 0.26905 0.18676 0.0
O11 O 0.2131 0.77103 0.77384 0.0
Cd12 Cd 0.19111 0.7454 0.73713 0.0
O13 O 0.1806 0.78708 0.79094 0.0
Cd14 Cd 0.15635 0.77596 0.75703 0.0
O15 O 0.13962 0.79448 0.72807 0.0
C16 C 0.12012 0.80412 0.73485 0.0
O17 O 0.10968 0.80069 0.75806 0.0
C18 C 0.20408 0.78421 0.79172 0.0
C19 C 0.22713 0.71892 0.71406 0.0
O20 O 0.22628 0.74102 0.70761 0.0
O21 O 0.21032 0.70886 0.73092 0.0
O22 O 0.70192 0.41645 0.8676 0.0
Cd23 Cd 0.66072 0.40408 0.84116 0.0
O24 O 0.69308 0.3837 0.89181 0.0
Cd25 Cd 0.66585 0.34798 0.90281 0.0
O26 O 0.63985 0.31243 0.91585 0.0
C27 C 0.64718 0.30154 0.93435 0.0
O28 O 0.66984 0.31177 0.94511 0.0
C29 C 0.70858 0.40412 0.88546 0.0
C30 C 0.64808 0.4303 0.7992 0.0
O31 O 0.63979 0.43463 0.8223 0.0
O32 O 0.6635 0.41485 0.79604 0.0
O33 O 0.91625 0.71393 0.36659 0.0
Cd34 Cd 0.8967 0.6729 0.34307 0.0
O35 O 0.90181 0.69806 0.40352 0.0
Cd36 Cd 0.88082 0.66099 0.38839 0.0
O37 O 0.84174 0.63957 0.3981 0.0
C38 C 0.8282 0.65346 0.41053 0.0
O39 O 0.83866 0.67763 0.41488 0.0
C40 C 0.91379 0.71661 0.39115 0.0
C41 C 0.91916 0.65394 0.29772 0.0
O42 O 0.90468 0.67013 0.2969 0.0
O43 O 0.92422 0.64766 0.32004 0.0
O44 O 0.72884 0.7811 0.84329 0.0
Cd45 Cd 0.70614 0.75142 0.8734 0.0
O46 O 0.73871 0.80631 0.87775 0.0
Cd47 Cd 0.74986 0.84131 0.90149 0.0
O48 O 0.72072 0.85844 0.92191 0.0
C49 C 0.69853 0.85381 0.91101 0.0
O50 O 0.69573 0.84071 0.88857 0.0
C51 C 0.74073 0.80229 0.8534 0.0
C52 C 0.74543 0.73221 0.89365 0.0
O53 O 0.73484 0.72331 0.87203 0.0
O54 O 0.73664 0.74973 0.90659 0.0
O55 O 0.82382 0.22057 0.33195 0.0
Cd56 Cd 0.86428 0.23866 0.35567 0.0
O57 O 0.82939 0.25518 0.31105 0.0
Cd58 Cd 0.84625 0.27996 0.34404 0.0
O59 O 0.82564 0.30601 0.36621 0.0
C60 C 0.80641 0.31047 0.35422 0.0
O61 O 0.80184 0.30018 0.33061 0.0
C62 C 0.81825 0.23217 0.31319 0.0
C63 C 0.8838 0.20462 0.38324 0.0
O64 O 0.88541 0.20371 0.35852 0.0
O65 O 0.87266 0.22117 0.39495 0.0
O66 O 0.4153 0.72345 0.20728 0.0
Cd67 Cd 0.40459 0.67994 0.22638 0.0
O68 O 0.38009 0.71901 0.18263 0.0
Cd69 Cd 0.35373 0.68137 0.18442 0.0
O70 O 0.317 0.65546 0.1705 0.0
C71 C 0.31458 0.64912 0.14639 0.0
O72 O 0.33456 0.65711 0.13079 0.0
C73 C 0.4018 0.73225 0.1913 0.0
C74 C 0.42416 0.66058 0.2705 0.0
O75 O 0.43651 0.66154 0.24864 0.0
O76 O 0.40376 0.67026 0.27229 0.0
O77 O 0.16342 0.40459 0.72868 0.0
Cd78 Cd 0.1775 0.38704 0.68684 0.0
O79 O 0.15141 0.36805 0.7462 0.0
Cd80 Cd 0.16086 0.34414 0.71327 0.0
O81 O 0.15117 0.30724 0.69209 0.0
C82 C 0.12771 0.30004 0.68422 0.0
O83 O 0.11165 0.31559 0.68785 0.0
C84 C 0.15374 0.39186 0.74768 0.0
C85 C 0.22902 0.40671 0.66982 0.0
O86 O 0.211 0.41927 0.66876 0.0
O87 O 0.22298 0.38517 0.67956 0.0
Tb88 Tb 0.02734 0.00651 0.53822 0.0
Tb89 Tb 0.9765 0.99957 0.57778 0.0
C90 C 0.9809 0.95929 0.53348 0.0
C91 C 0.07675 0.03082 0.48818 0.0
C92 C 0.097 0.06603 0.45186 0.0
C93 C 0.09818 0.04053 0.44704 0.0
C94 C 0.08813 0.02309 0.46508 0.0
C95 C 0.07535 0.05624 0.49316 0.0
C96 C 0.08565 0.07383 0.47513 0.0
C97 C 0.06492 0.01168 0.50586 0.0
O98 O 0.00683 0.03531 0.52985 0.0
O99 O 0.96553 0.01573 0.54352 0.0
O100 O 0.99713 0.03865 0.5831 0.0
O101 O 0.03838 0.03351 0.5713 0.0
O102 O 0.93659 0.98499 0.58607 0.0
O103 O 0.96177 0.00925 0.61428 0.0
O104 O 0.00724 0.98698 0.59713 0.0
O105 O 0.03191 0.97702 0.56192 0.0
O106 O 0.99554 0.97772 0.52124 0.0
O107 O 0.97502 0.9626 0.55807 0.0
C108 C 0.98126 0.03294 0.53041 0.0
O109 O 0.06785 0.01784 0.53051 0.0
O110 O 0.04096 1.00007 0.50045 0.0
C111 C 0.02271 0.04666 0.58334 0.0
C112 C 0.92857 0.97774 0.63044 0.0
C113 C 0.90843 0.94663 0.67059 0.0
C114 C 0.90974 0.97277 0.67356 0.0
C115 C 0.91969 0.98814 0.65364 0.0
C116 C 0.92811 0.95177 0.62759 0.0
C117 C 0.91795 0.93628 0.64751 0.0
C118 C 0.93878 0.99461 0.60994 0.0
C119 C 0.02514 0.97563 0.58637 0.0
H120 H 0.10722 0.03411 0.42943 0.0
H121 H 0.08908 1.00348 0.46091 0.0
H122 H 0.06616 0.06239 0.5108 0.0
H123 H 0.08448 0.09339 0.47919 0.0
H124 H 0.90224 0.98125 0.69095 0.0
H125 H 0.92019 0.0082 0.65624 0.0
H126 H 0.93538 0.94345 0.60996 0.0
H127 H 0.91739 0.91624 0.64482 0.0
Tb128 Tb 0.51872 0.03007 0.08424 0.0
Tb129 Tb 0.4747 0.01477 0.03857 0.0
C130 C 0.5276 0.99754 0.03505 0.0
C131 C 0.57085 0.06684 0.12916 0.0
C132 C 0.60608 0.1085 0.15304 0.0
C133 C 0.61548 0.0905 0.13675 0.0
C134 C 0.59807 0.06986 0.12505 0.0
C135 C 0.56128 0.08525 0.14478 0.0
C136 C 0.5788 0.10588 0.15672 0.0
C137 C 0.55333 0.04353 0.11828 0.0
O138 O 0.53179 0.05659 0.05434 0.0
O139 O 0.49253 0.05457 0.03453 0.0
O140 O 0.4553 0.0275 0.0731 0.0
O141 O 0.49111 0.05452 0.09074 0.0
O142 O 0.46671 1.00127 1.0002 0.0
O143 O 0.43693 0.01353 0.02452 0.0
O144 O 0.47022 0.97991 0.05839 0.0
O145 O 0.49251 0.99531 0.09615 0.0
O146 O 0.52866 0.99932 0.06024 0.0
O147 O 0.51215 0.00874 0.02308 0.0
C148 C 0.51708 0.06599 0.03922 0.0
O149 O 0.5281 0.04027 0.12324 0.0
O150 O 0.55827 0.03651 0.09437 0.0
C151 C 0.46562 0.04747 0.08802 0.0
C152 C 0.42248 0.98094 0.99196 0.0
C153 C 0.38532 0.94177 0.96693 0.0
C154 C 0.37823 0.96425 0.97651 0.0
C155 C 0.39668 0.98367 0.98883 0.0
C156 C 0.42941 0.95811 0.98324 0.0
C157 C 0.41098 0.93871 0.97076 0.0
C158 C 0.44219 1.00286 1.00226 0.0
C159 C 0.47716 0.97703 0.08203 0.0
H160 H 0.63639 0.09174 0.13391 0.0
H161 H 0.60598 0.05584 0.11331 0.0
H162 H 0.54038 0.08346 0.14829 0.0
H163 H 0.57106 0.11956 0.16914 0.0
H164 H 0.35872 0.96728 0.97355 0.0
H165 H 0.39099 1.00117 0.99522 0.0
H166 H 0.44919 0.95543 0.98542 0.0
H167 H 0.41688 0.92147 0.96379 0.0
Tb168 Tb 0.5292 0.50307 0.51502 0.0
Tb169 Tb 0.52051 0.55574 0.54781 0.0
C170 C 0.50394 0.54316 0.48883 0.0
C171 C 0.56274 0.45458 0.48176 0.0
C172 C 0.60729 0.43621 0.46307 0.0
C173 C 0.58274 0.42795 0.45111 0.0
C174 C 0.56081 0.43706 0.46033 0.0
C175 C 0.58716 0.46308 0.49381 0.0
C176 C 0.6092 0.45391 0.4846 0.0
C177 C 0.53909 0.46387 0.49075 0.0
O178 O 0.56187 0.53259 0.50466 0.0
O179 O 0.56245 0.56291 0.53833 0.0
O180 O 0.5275 0.52942 0.57518 0.0
O181 O 0.55342 0.50869 0.54955 0.0
O182 O 0.51546 0.5932 0.54997 0.0
O183 O 0.51577 0.57368 0.58442 0.0
O184 O 0.4819 0.53132 0.54446 0.0
O185 O 0.49279 0.4925 0.53758 0.0
O186 O 0.50495 0.51922 0.48999 0.0
O187 O 0.51219 0.56035 0.50771 0.0
C188 C 0.5738 0.55276 0.51847 0.0
O189 O 0.53467 0.46589 0.51562 0.0
O190 O 0.53491 0.48326 0.47963 0.0
C191 C 0.54543 0.5158 0.57265 0.0
C192 C 0.48756 0.60195 0.58482 0.0
C193 C 0.44222 0.61695 0.60563 0.0
C194 C 0.46683 0.62643 0.61699 0.0
C195 C 0.48926 0.61887 0.60675 0.0
C196 C 0.46299 0.59236 0.5734 0.0
C197 C 0.44045 0.59976 0.5838 0.0
C198 C 0.51139 0.59376 0.57488 0.0
C199 C 0.47611 0.50668 0.54534 0.0
H200 H 0.58028 0.41406 0.4348 0.0
H201 H 0.5422 0.4303 0.4507 0.0
H202 H 0.58919 0.47681 0.51026 0.0
H203 H 0.6278 0.46094 0.49415 0.0
H204 H 0.46863 0.63945 0.63401 0.0
H205 H 0.50796 0.62617 0.61604 0.0
H206 H 0.46123 0.57911 0.55655 0.0
H207 H 0.42171 0.59229 0.57465 0.0
Tb208 Tb 0.01575 0.5418 1.00111 0.0
Tb209 Tb 0.01562 0.48902 0.02776 0.0
C210 C 0.0371 0.49873 0.97208 0.0
C211 C 0.99148 0.59158 0.97224 0.0
C212 C 0.94904 0.61217 0.9595 0.0
C213 C 0.9738 0.61981 0.94745 0.0
C214 C 0.99487 0.60954 0.95378 0.0
C215 C 0.96676 0.58356 0.98404 0.0
C216 C 0.94569 0.59382 0.97775 0.0
C217 C 0.01348 0.58057 0.97844 0.0
O218 O 0.97966 0.51553 0.98871 0.0
O219 O 0.97433 0.48522 0.0184 0.0
O220 O 0.00958 0.51626 0.05904 0.0
O221 O 0.9919 0.54286 0.03626 0.0
O222 O 0.02153 0.45214 0.02202 0.0
O223 O 0.01197 0.46688 0.05994 0.0
O224 O 0.05606 0.51063 0.03075 0.0
O225 O 0.05087 0.55082 0.02441 0.0
O226 O 0.04253 0.52297 0.97853 0.0
O227 O 0.02077 0.48321 0.9862 0.0
C228 C 0.96516 0.49619 0.99997 0.0
O229 O 0.01835 0.5809 1.00299 0.0
O230 O 0.0136 0.55868 0.96645 0.0
C231 C 0.99646 0.53424 0.05827 0.0
C232 C 0.04251 0.44042 0.05719 0.0
C233 C 0.08399 0.42184 0.07644 0.0
C234 C 0.05929 0.41782 0.0891 0.0
C235 C 0.03874 0.427 0.07951 0.0
C236 C 0.06743 0.4452 0.04495 0.0
C237 C 0.08794 0.43587 0.05442 0.0
C238 C 0.0202 0.44878 0.04663 0.0
C239 C 0.06469 0.53528 0.03202 0.0
H240 H 0.97704 0.63408 0.9335 0.0
H241 H 0.01382 0.61568 0.94436 0.0
H242 H 0.96378 0.56935 0.99807 0.0
H243 H 0.92675 0.58728 0.98704 0.0
H244 H 0.05559 0.40691 0.10599 0.0
H245 H 0.01973 0.42324 0.08929 0.0
H246 H 0.07098 0.45585 0.02786 0.0
H247 H 0.10686 0.43957 0.04449 0.0
H248 H 0.20978 0.13355 0.24864 0.0
H249 H 0.18543 0.12056 0.28822 0.0
H250 H 0.22505 0.18956 0.32927 0.0
H251 H 0.24938 0.20289 0.28975 0.0
H252 H 0.20749 0.11507 0.33696 0.0
H253 H 0.14535 0.18678 0.34319 0.0
H254 H 0.16237 0.17928 0.31373 0.0
H255 H 0.18033 0.19812 0.33984 0.0
C256 C 0.2133 0.14598 0.26606 0.0
C257 C 0.23137 0.16929 0.26607 0.0
C258 C 0.1994 0.13855 0.2886 0.0
C259 C 0.20326 0.15433 0.31141 0.0
C260 C 0.22154 0.1774 0.31166 0.0
H261 H 0.13034 0.11189 0.46096 0.0
H262 H 0.15634 0.13777 0.42843 0.0
C263 C 0.23548 0.18487 0.28911 0.0
C264 C 0.18836 0.14616 0.33498 0.0
H265 H 0.13816 0.15714 0.37503 0.0
C266 C 0.19253 0.1244 0.34547 0.0
C267 C 0.16903 0.15858 0.346 0.0
C268 C 0.16376 0.18192 0.33511 0.0
C269 C 0.17721 0.11419 0.3663 0.0
C270 C 0.15715 0.12596 0.37658 0.0
C271 C 0.15362 0.1483 0.36688 0.0
C272 C 0.13837 0.11377 0.39588 0.0
C273 C 0.18198 0.09043 0.37673 0.0
C274 C 0.11911 0.09255 0.388 0.0
C275 C 0.10432 0.07788 0.40636 0.0
C276 C 0.10869 0.08426 0.43282 0.0
C277 C 0.1266 0.10665 0.44065 0.0
C278 C 0.14146 0.12136 0.42219 0.0
H279 H 0.20118 0.08639 0.36996 0.0
H280 H 0.18145 0.09196 0.3982 0.0
H281 H 0.16616 0.0742 0.37013 0.0
H282 H 0.1165 0.08662 0.36766 0.0
H283 H 0.09031 0.0609 0.39988 0.0
H284 H 0.1905 0.80708 0.83746 0.0
H285 H 0.22041 0.83266 0.86959 0.0
H286 H 0.28702 0.81858 0.824 0.0
H287 H 0.25751 0.79284 0.79201 0.0
H288 H 0.26671 0.81613 0.89577 0.0
H289 H 0.29294 0.8992 0.836 0.0
H290 H 0.26258 0.87582 0.83211 0.0
H291 H 0.29292 0.8687 0.81988 0.0
C292 C 0.21151 0.80925 0.83441 0.0
C293 C 0.22167 0.79792 0.81224 0.0
C294 C 0.2285 0.82383 0.85274 0.0
C295 C 0.25577 0.82754 0.8489 0.0
C296 C 0.26596 0.81593 0.82711 0.0
H297 H 0.39486 0.91645 0.92147 0.0
H298 H 0.36289 0.88721 0.8941 0.0
C299 C 0.24906 0.80115 0.80896 0.0
C300 C 0.27382 0.84387 0.86741 0.0
H301 H 0.31727 0.90064 0.87393 0.0
C302 C 0.27766 0.8347 0.89119 0.0
C303 C 0.288 0.86795 0.86111 0.0
C304 C 0.2839 0.87871 0.83597 0.0
C305 C 0.29596 0.8489 0.90875 0.0
C306 C 0.31034 0.8729 0.90235 0.0
C307 C 0.30624 0.88215 0.87865 0.0
C308 C 0.32979 0.88884 0.91996 0.0
C309 C 0.30035 0.83791 0.93366 0.0
C310 C 0.32166 0.8992 0.94357 0.0
C311 C 0.33986 0.91583 0.95927 0.0
C312 C 0.36645 0.92236 0.95155 0.0
C313 C 0.37459 0.91148 0.92811 0.0
C314 C 0.35636 0.89494 0.91238 0.0
H315 H 0.29166 0.81733 0.93332 0.0
H316 H 0.3217 0.84108 0.93751 0.0
H317 H 0.29107 0.84746 0.9499 0.0
H318 H 0.30114 0.89494 0.94952 0.0
H319 H 0.33308 0.92384 0.9773 0.0
H320 H 0.60848 0.45637 0.79807 0.0
H321 H 0.59097 0.47137 0.76035 0.0
H322 H 0.64948 0.44517 0.71155 0.0
H323 H 0.66647 0.42942 0.74898 0.0
H324 H 0.61049 0.50526 0.72629 0.0
H325 H 0.58495 0.41171 0.67267 0.0
H326 H 0.59463 0.41541 0.70603 0.0
H327 H 0.61912 0.42042 0.68049 0.0
C328 C 0.6177 0.45385 0.77932 0.0
C329 C 0.63884 0.44148 0.77664 0.0
C330 C 0.6076 0.46243 0.75769 0.0
C331 C 0.61837 0.4589 0.7328 0.0
C332 C 0.64015 0.44744 0.73028 0.0
H333 H 0.58726 0.49294 0.5764 0.0
H334 H 0.60478 0.48048 0.6155 0.0
C335 C 0.65007 0.43864 0.75182 0.0
C336 C 0.60702 0.46729 0.70958 0.0
H337 H 0.58332 0.44712 0.64906 0.0
C338 C 0.60443 0.49249 0.70947 0.0
C339 C 0.59886 0.45071 0.68753 0.0
C340 C 0.59926 0.42301 0.68673 0.0
C341 C 0.59483 0.5017 0.68781 0.0
C342 C 0.58714 0.48519 0.66558 0.0
C343 C 0.58942 0.45994 0.66585 0.0
C344 C 0.5767 0.49354 0.64182 0.0
C345 C 0.59378 0.52925 0.68882 0.0
C346 C 0.55482 0.50484 0.64326 0.0
C347 C 0.54492 0.51222 0.62091 0.0
C348 C 0.5563 0.5081 0.59637 0.0
C349 C 0.57796 0.49645 0.59489 0.0
C350 C 0.58802 0.4893 0.61731 0.0
H351 H 0.6075 0.54066 0.70333 0.0
H352 H 0.59872 0.53715 0.6697 0.0
H353 H 0.57362 0.53129 0.69457 0.0
H354 H 0.54507 0.50766 0.66165 0.0
H355 H 0.52806 0.52088 0.62288 0.0
H356 H 0.91743 0.66756 0.24813 0.0
H357 H 0.93045 0.64621 0.20815 0.0
H358 H 0.95446 0.59133 0.25234 0.0
H359 H 0.94158 0.61262 0.29246 0.0
H360 H 0.9812 0.63599 0.1939 0.0
H361 H 0.90346 0.54821 0.19785 0.0
H362 H 0.90155 0.57699 0.21682 0.0
H363 H 0.92266 0.55744 0.22653 0.0
C364 C 0.92558 0.65101 0.24939 0.0
C365 C 0.92849 0.64185 0.27355 0.0
C366 C 0.93298 0.63881 0.22649 0.0
C367 C 0.9431 0.61698 0.2272 0.0
C368 C 0.94633 0.60793 0.25128 0.0
H369 H 0.99826 0.51866 0.10713 0.0
H370 H 0.98544 0.53854 0.14799 0.0
C371 C 0.93916 0.62026 0.27423 0.0
C372 C 0.95067 0.60401 0.20273 0.0
H373 H 0.9355 0.54908 0.16432 0.0
C374 C 0.97117 0.61702 0.1874 0.0
C375 C 0.93764 0.5792 0.1943 0.0
C376 C 0.91495 0.56462 0.20956 0.0
C377 C 0.97914 0.60583 0.16403 0.0
C378 C 0.96592 0.58114 0.15544 0.0
C379 C 0.94557 0.56803 0.17087 0.0
C380 C 0.97296 0.56871 0.13044 0.0
C381 C 1.00202 0.62034 0.14895 0.0
C382 C 0.96977 0.57879 0.10689 0.0
C383 C 0.97697 0.5674 0.08342 0.0
C384 C 0.98755 0.54568 0.08301 0.0
C385 C 0.99028 0.5354 0.10665 0.0
C386 C 0.98293 0.54672 0.13008 0.0
H387 H 0.01391 0.63625 0.161 0.0
H388 H 0.01501 0.60777 0.14115 0.0
H389 H 0.99447 0.62827 0.13238 0.0
H390 H 0.96174 0.59553 0.10666 0.0
H391 H 0.97454 0.57585 0.06564 0.0
H392 H 0.36483 0.22805 0.18476 0.0
H393 H 0.38896 0.19562 0.17006 0.0
H394 H 0.31695 0.14708 0.1422 0.0
H395 H 0.29316 0.18009 0.15503 0.0
H396 H 0.38412 0.14796 0.18405 0.0
H397 H 0.36377 0.14613 0.07951 0.0
H398 H 0.35646 0.17024 0.10258 0.0
H399 H 0.33457 0.13964 0.09935 0.0
C400 C 0.3542 0.21058 0.17521 0.0
C401 C 0.32697 0.20648 0.17143 0.0
C402 C 0.36797 0.192 0.16702 0.0
C403 C 0.35481 0.16902 0.15482 0.0
C404 C 0.3276 0.16481 0.15119 0.0
H405 H 0.41176 0.0381 0.0891 0.0
H406 H 0.38387 0.06623 0.10712 0.0
C407 C 0.31389 0.18352 0.15906 0.0
C408 C 0.36964 0.14954 0.14591 0.0
H409 H 0.38501 0.11483 0.09235 0.0
C410 C 0.38434 0.14073 0.16399 0.0
C411 C 0.36986 0.1401 0.11974 0.0
C412 C 0.35553 0.14967 0.09913 0.0
C413 C 0.39923 0.1227 0.15661 0.0
C414 C 0.39956 0.11343 0.13044 0.0
C415 C 0.38456 0.12191 0.11244 0.0
C416 C 0.41629 0.09579 0.121 0.0
C417 C 0.41433 0.11361 0.17692 0.0
C418 C 0.44371 0.10319 0.12278 0.0
C419 C 0.45966 0.08716 0.11267 0.0
C420 C 0.44849 0.06353 0.10029 0.0
C421 C 0.42097 0.05612 0.09861 0.0
C422 C 0.40501 0.07216 0.10885 0.0
H423 H 0.40635 0.11702 0.19667 0.0
H424 H 0.4139 0.09314 0.17336 0.0
H425 H 0.43514 0.12403 0.17626 0.0
H426 H 0.45282 0.12161 0.13149 0.0
H427 H 0.48079 0.09361 0.11403 0.0
H428 H 0.14487 0.82481 0.69175 0.0
H429 H 0.13175 0.85595 0.66627 0.0
H430 H 0.062 0.85285 0.71415 0.0
H431 H 0.0753 0.82228 0.74017 0.0
H432 H 0.08821 0.85306 0.63808 0.0
H433 H 0.09339 0.92781 0.71751 0.0
H434 H 0.10679 0.90021 0.72019 0.0
H435 H 0.07214 0.89858 0.72532 0.0
C436 C 0.12668 0.83069 0.6968 0.0
C437 C 0.11118 0.82123 0.71807 0.0
C438 C 0.11928 0.84853 0.68228 0.0
C439 C 0.09626 0.85711 0.68876 0.0
C440 C 0.08026 0.84701 0.70936 0.0
H441 H 0.00575 0.95355 0.63045 0.0
H442 H 0.02504 0.9253 0.65455 0.0
C443 C 0.08776 0.82939 0.72405 0.0
C444 C 0.0886 0.87623 0.67364 0.0
H445 H 0.07146 0.93343 0.67943 0.0
C446 C 0.08477 0.87076 0.64702 0.0
C447 C 0.08436 0.89935 0.68541 0.0
C448 C 0.08965 0.90698 0.71363 0.0
C449 C 0.07561 0.8873 0.63198 0.0
C450 C 0.07058 0.91005 0.64395 0.0
C451 C 0.07515 0.91585 0.67042 0.0
C452 C 0.05957 0.92769 0.62966 0.0
C453 C 0.07053 0.8798 0.60369 0.0
C454 C 0.07292 0.93874 0.60807 0.0
C455 C 0.06178 0.95457 0.59411 0.0
C456 C 0.03743 0.96001 0.6019 0.0
C457 C 0.02458 0.9497 0.62409 0.0
C458 C 0.03554 0.93357 0.63781 0.0
H459 H 0.06898 0.85924 0.5992 0.0
H460 H 0.05218 0.88476 0.59764 0.0
H461 H 0.08712 0.89003 0.59198 0.0
H462 H 0.09186 0.93503 0.60195 0.0
H463 H 0.07226 0.96257 0.57725 0.0
H464 H 0.74119 0.45135 0.88556 0.0
H465 H 0.78375 0.46634 0.90667 0.0
H466 H 0.77735 0.39328 0.93627 0.0
H467 H 0.73467 0.37822 0.91551 0.0
H468 H 0.7964 0.46678 0.96168 0.0
H469 H 0.8505 0.40828 0.89755 0.0
H470 H 0.81953 0.41482 0.88881 0.0
H471 H 0.8202 0.39161 0.91151 0.0
C472 C 0.74879 0.43842 0.89654 0.0
C473 C 0.73439 0.41348 0.89868 0.0
C474 C 0.77316 0.44707 0.90867 0.0
C475 C 0.784 0.4309 0.92287 0.0
C476 C 0.76962 0.40607 0.9252 0.0
H477 H 0.93321 0.44893 0.00436 0.0
H478 H 0.88887 0.43289 0.98703 0.0
C479 C 0.74509 0.39751 0.91338 0.0
C480 C 0.81027 0.43997 0.93524 0.0
H481 H 0.87349 0.43128 0.9333 0.0
C482 C 0.81325 0.45904 0.95543 0.0
C483 C 0.83236 0.4299 0.92719 0.0
C484 C 0.83072 0.41016 0.90495 0.0
C485 C 0.83749 0.46803 0.96793 0.0
C486 C 0.85959 0.45803 0.95978 0.0
C487 C 0.85659 0.43888 0.93968 0.0
C488 C 0.88621 0.46791 0.97116 0.0
C489 C 0.8392 0.48788 0.99008 0.0
C490 C 0.89964 0.49287 0.96795 0.0
C491 C 0.92503 0.50198 0.97757 0.0
C492 C 0.93767 0.48643 0.99086 0.0
C493 C 0.92406 0.4615 0.9944 0.0
C494 C 0.89872 0.45227 0.98442 0.0
H495 H 0.81944 0.48916 0.99804 0.0
H496 H 0.8512 0.48382 0.00588 0.0
H497 H 0.84882 0.50655 0.98316 0.0
H498 H 0.89065 0.50526 0.95755 0.0
H499 H 0.9348 0.52129 0.97451 0.0
H500 H 0.80104 0.60401 0.40743 0.0
H501 H 0.75769 0.58694 0.42656 0.0
H502 H 0.75273 0.66174 0.45703 0.0
H503 H 0.79558 0.67895 0.43784 0.0
H504 H 0.74271 0.58994 0.47917 0.0
H505 H 0.68281 0.63646 0.42019 0.0
H506 H 0.71594 0.63401 0.41109 0.0
H507 H 0.71029 0.65796 0.43508 0.0
C508 C 0.79059 0.61683 0.418 0.0
C509 C 0.8017 0.64284 0.42103 0.0
C510 C 0.76589 0.60705 0.42894 0.0
C511 C 0.7519 0.62316 0.44287 0.0
C512 C 0.76297 0.64908 0.44589 0.0
H513 H 0.60213 0.6014 0.52811 0.0
H514 H 0.64684 0.61917 0.51209 0.0
C515 C 0.78755 0.65884 0.43501 0.0
C516 C 0.72616 0.61296 0.45518 0.0
H517 H 0.66183 0.6175 0.45743 0.0
C518 C 0.72499 0.59584 0.47435 0.0
C519 C 0.70313 0.62079 0.44887 0.0
C520 C 0.70296 0.63813 0.42751 0.0
C521 C 0.7014 0.58664 0.4877 0.0
C522 C 0.67844 0.59465 0.48152 0.0
C523 C 0.6796 0.61174 0.46236 0.0
C524 C 0.65254 0.5839 0.49312 0.0
C525 C 0.70122 0.56858 0.50844 0.0
C526 C 0.64117 0.55832 0.48772 0.0
C527 C 0.61584 0.54829 0.49659 0.0
C528 C 0.60129 0.56364 0.51104 0.0
C529 C 0.61293 0.58916 0.51708 0.0
C530 C 0.63836 0.5993 0.50792 0.0
H531 H 0.72132 0.56955 0.51554 0.0
H532 H 0.68843 0.57257 0.52507 0.0
H533 H 0.69336 0.549 0.50036 0.0
H534 H 0.65165 0.54624 0.47601 0.0
H535 H 0.60754 0.52847 0.49181 0.0
H536 H 0.23489 0.32489 0.20496 0.0
H537 H 0.20477 0.34568 0.18405 0.0
H538 H 0.22026 0.30825 0.11062 0.0
H539 H 0.24921 0.28625 0.13204 0.0
H540 H 0.21611 0.37827 0.14873 0.0
H541 H 0.14229 0.29596 0.10844 0.0
H542 H 0.16646 0.29277 0.13133 0.0
H543 H 0.1753 0.29582 0.09768 0.0
C544 C 0.23148 0.32092 0.18442 0.0
C545 C 0.24408 0.30409 0.16997 0.0
C546 C 0.21438 0.33277 0.17248 0.0
C547 C 0.21 0.32833 0.1458 0.0
C548 C 0.22272 0.31145 0.13132 0.0
H549 H 0.11667 0.39734 0.04735 0.0
H550 H 0.14948 0.37609 0.06281 0.0
C551 C 0.23939 0.29908 0.14345 0.0
C552 C 0.19328 0.3426 0.13323 0.0
H553 H 0.13869 0.33627 0.09661 0.0
C554 C 0.19916 0.36904 0.13737 0.0
C555 C 0.17129 0.33057 0.11821 0.0
C556 C 0.16328 0.30221 0.11382 0.0
C557 C 0.18349 0.38376 0.12726 0.0
C558 C 0.1613 0.37172 0.11267 0.0
C559 C 0.15578 0.34538 0.10784 0.0
C560 C 0.14282 0.38597 0.10327 0.0
C561 C 0.19082 0.41208 0.13228 0.0
C562 C 0.12837 0.3986 0.12095 0.0
C563 C 0.10973 0.41082 0.11221 0.0
C564 C 0.10513 0.4105 0.08563 0.0
C565 C 0.11999 0.39817 0.06793 0.0
C566 C 0.13859 0.38589 0.07671 0.0
H567 H 0.21182 0.41869 0.13749 0.0
H568 H 0.18706 0.42172 0.1151 0.0
H569 H 0.17869 0.41781 0.14868 0.0
H570 H 0.1311 0.39855 0.14156 0.0
H571 H 0.09874 0.42033 0.12627 0.0
H572 H 0.65968 0.27358 0.97165 0.0
H573 H 0.6342 0.23436 0.98735 0.0
H574 H 0.57199 0.23585 0.93515 0.0
H575 H 0.59784 0.27515 0.91878 0.0
H576 H 0.58716 0.22424 0.0116 0.0
H577 H 0.58168 0.16457 0.91941 0.0
H578 H 0.60316 0.19544 0.92321 0.0
H579 H 0.5686 0.19238 0.91827 0.0
C580 C 0.64063 0.26561 0.96332 0.0
C581 C 0.63097 0.27759 0.94377 0.0
C582 C 0.62601 0.24309 0.97241 0.0
C583 C 0.60126 0.23175 0.96225 0.0
C584 C 0.59128 0.24379 0.94293 0.0
H585 H 0.49484 0.08987 0.00367 0.0
H586 H 0.5135 0.13017 0.98501 0.0
C587 C 0.60603 0.2664 0.93369 0.0
C588 C 0.58609 0.20769 0.97252 0.0
H589 H 0.55963 0.14541 0.9557 0.0
C590 C 0.58112 0.20705 0.9993 0.0
C591 C 0.57794 0.18516 0.95658 0.0
C592 C 0.58326 0.18423 0.9278 0.0
C593 C 0.56866 0.18465 0.01056 0.0
C594 C 0.56123 0.16197 0.99475 0.0
C595 C 0.56542 0.16271 0.96788 0.0
C596 C 0.54991 0.13723 0.00589 0.0
C597 C 0.56342 0.18556 0.03937 0.0
C598 C 0.56427 0.12742 0.02354 0.0
C599 C 0.55369 0.10434 0.03421 0.0
C600 C 0.52846 0.09038 0.02746 0.0
C601 C 0.51425 0.10008 0.00947 0.0
C602 C 0.52492 0.12315 0.99872 0.0
H603 H 0.56302 0.205 0.04735 0.0
H604 H 0.54443 0.17281 0.04421 0.0
H605 H 0.57936 0.17936 0.04904 0.0
H606 H 0.5838 0.13759 0.02901 0.0
H607 H 0.56532 0.09753 0.04788 0.0
H608 H 0.91245 0.72696 0.44341 0.0
H609 H 0.92235 0.768 0.46746 0.0
H610 H 0.94457 0.80422 0.39645 0.0
H611 H 0.93422 0.76299 0.37195 0.0
H612 H 0.96815 0.80366 0.47196 0.0
H613 H 0.89129 0.84311 0.42869 0.0
H614 H 0.89174 0.80994 0.42518 0.0
H615 H 0.91299 0.83182 0.40533 0.0
C616 C 0.91957 0.74358 0.43278 0.0
C617 C 0.92251 0.74158 0.40563 0.0
C618 C 0.92519 0.76709 0.44664 0.0
C619 C 0.93378 0.78926 0.43377 0.0
C620 C 0.93742 0.7874 0.40676 0.0
H621 H 0.98684 0.94699 0.4819 0.0
H622 H 0.97434 0.90545 0.45886 0.0
C623 C 0.93179 0.76379 0.3928 0.0
C624 C 0.93924 0.81417 0.44883 0.0
H625 H 0.92212 0.87155 0.45546 0.0
C626 C 0.95799 0.81846 0.46842 0.0
C627 C 0.92574 0.83338 0.44445 0.0
C628 C 0.90412 0.82934 0.42496 0.0
C629 C 0.96417 0.84164 0.48319 0.0
C630 C 0.95113 0.86101 0.47837 0.0
C631 C 0.93216 0.85668 0.45902 0.0
C632 C 0.95767 0.88625 0.49255 0.0
C633 C 0.98508 0.84552 0.50342 0.0
C634 C 0.95205 0.88931 0.51911 0.0
C635 C 0.95907 0.91313 0.53241 0.0
C636 C 0.97188 0.93429 0.51933 0.0
C637 C 0.97703 0.93115 0.49261 0.0
C638 C 0.96989 0.9074 0.47937 0.0
H639 H 0.99641 0.83037 0.50173 0.0
H640 H 0.99894 0.86403 0.50186 0.0
H641 H 0.97565 0.84555 0.52292 0.0
H642 H 0.94234 0.87325 0.52958 0.0
H643 H 0.95482 0.91486 0.55296 0.0
H644 H 0.23068 0.66979 0.71842 0.0
H645 H 0.26587 0.64925 0.70139 0.0
H646 H 0.30522 0.71828 0.66847 0.0
H647 H 0.27021 0.73885 0.6851 0.0
H648 H 0.28559 0.64726 0.64472 0.0
H649 H 0.35997 0.69589 0.71651 0.0
H650 H 0.32501 0.69185 0.7226 0.0
H651 H 0.34164 0.71542 0.70178 0.0
C652 C 0.24678 0.68055 0.70746 0.0
C653 C 0.24764 0.70595 0.70308 0.0
C654 C 0.26683 0.66879 0.69777 0.0
C655 C 0.28818 0.68236 0.6839 0.0
C656 C 0.28897 0.70759 0.67932 0.0
H657 H 0.43585 0.6651 0.61539 0.0
H658 H 0.39735 0.67903 0.63436 0.0
C659 C 0.26888 0.71926 0.68874 0.0
C660 C 0.30977 0.67035 0.67397 0.0
H661 H 0.37521 0.67307 0.68074 0.0
C662 C 0.30516 0.65263 0.65268 0.0
C663 C 0.33519 0.67754 0.68443 0.0
C664 C 0.34088 0.69609 0.70772 0.0
C665 C 0.32568 0.64265 0.6408 0.0
C666 C 0.35134 0.65014 0.651 0.0
C667 C 0.35564 0.66737 0.67282 0.0
C668 C 0.37427 0.64127 0.63881 0.0
C669 C 0.31985 0.62508 0.6168 0.0
C670 C 0.37423 0.6154 0.63497 0.0
C671 C 0.39607 0.60743 0.62365 0.0
C672 C 0.41859 0.6252 0.6166 0.0
C673 C 0.41875 0.65103 0.62073 0.0
C674 C 0.39678 0.65898 0.63159 0.0
H675 H 0.30144 0.62681 0.6076 0.0
H676 H 0.3362 0.62889 0.60237 0.0
H677 H 0.31731 0.60529 0.62209 0.0
H678 H 0.35747 0.60136 0.64105 0.0
H679 H 0.39564 0.5874 0.62099 0.0
H680 H 0.73797 0.80322 0.80136 0.0
H681 H 0.76804 0.82995 0.77281 0.0
H682 H 0.80909 0.87111 0.83893 0.0
H683 H 0.78023 0.84331 0.86757 0.0
H684 H 0.78054 0.87995 0.76701 0.0
H685 H 0.86793 0.84784 0.79866 0.0
H686 H 0.83484 0.83299 0.80796 0.0
H687 H 0.85104 0.86244 0.82411 0.0
C688 C 0.75326 0.81807 0.8099 0.0
C689 C 0.75651 0.82119 0.83683 0.0
C690 C 0.7704 0.83338 0.79353 0.0
C691 C 0.7911 0.85216 0.80374 0.0
C692 C 0.79357 0.85633 0.83065 0.0
H693 H 0.91379 0.9547 0.72302 0.0
H694 H 0.88628 0.93135 0.75624 0.0
C695 C 0.77662 0.84075 0.84708 0.0
C696 C 0.81049 0.86658 0.78595 0.0
H697 H 0.87537 0.87842 0.76767 0.0
C698 C 0.80128 0.87966 0.76719 0.0
C699 C 0.83755 0.86608 0.78621 0.0
C700 C 0.84846 0.85141 0.80515 0.0
C701 C 0.81834 0.89218 0.7486 0.0
C702 C 0.84525 0.89137 0.74867 0.0
C703 C 0.85465 0.87882 0.76771 0.0
C704 C 0.86384 0.90352 0.72898 0.0
C705 C 0.80746 0.90624 0.72905 0.0
C706 C 0.86095 0.89484 0.70288 0.0
C707 C 0.87651 0.90814 0.6839 0.0
C708 C 0.89522 0.93027 0.69081 0.0
C709 C 0.8992 0.93794 0.71715 0.0
C710 C 0.88363 0.92461 0.73611 0.0
H711 H 0.78793 0.90988 0.73521 0.0
H712 H 0.8211 0.92455 0.72583 0.0
H713 H 0.8051 0.89476 0.71033 0.0
H714 H 0.84601 0.8783 0.69713 0.0
H715 H 0.87292 0.90183 0.66379 0.0
H716 H 0.77585 0.19409 0.32204 0.0
H717 H 0.73886 0.17712 0.29311 0.0
H718 H 0.77627 0.226 0.23473 0.0
H719 H 0.81309 0.24338 0.26362 0.0
H720 H 0.7092 0.21506 0.26346 0.0
H721 H 0.75496 0.14472 0.20574 0.0
H722 H 0.76382 0.15452 0.23891 0.0
H723 H 0.77446 0.17585 0.21406 0.0
C724 C 0.77633 0.20097 0.30292 0.0
C725 C 0.79733 0.21999 0.29501 0.0
C726 C 0.75515 0.19144 0.28656 0.0
C727 C 0.75494 0.20048 0.26197 0.0
C728 C 0.77614 0.21896 0.25375 0.0
H729 H 0.65105 0.1387 0.13503 0.0
H730 H 0.68622 0.16552 0.16082 0.0
C731 C 0.79712 0.22877 0.27021 0.0
C732 C 0.73253 0.19055 0.24481 0.0
H733 H 0.71233 0.1472 0.19478 0.0
C734 C 0.70977 0.20026 0.24836 0.0
C735 C 0.73369 0.17158 0.22504 0.0
C736 C 0.75796 0.16087 0.22056 0.0
C737 C 0.68785 0.19123 0.2326 0.0
C738 C 0.68865 0.17159 0.21328 0.0
C739 C 0.71171 0.16227 0.20955 0.0
C740 C 0.66556 0.15935 0.19747 0.0
C741 C 0.66427 0.20306 0.23657 0.0
C742 C 0.64194 0.1476 0.20942 0.0
C743 C 0.62175 0.13243 0.19468 0.0
C744 C 0.62502 0.12844 0.16781 0.0
C745 C 0.64811 0.14129 0.15574 0.0
C746 C 0.66817 0.15662 0.17044 0.0
H747 H 0.66993 0.22271 0.24533 0.0
H748 H 0.65424 0.2033 0.21807 0.0
H749 H 0.65008 0.19197 0.25002 0.0
H750 H 0.63967 0.14891 0.23027 0.0
H751 H 0.60432 0.12251 0.20453 0.0
H752 H 0.39872 0.65057 0.31729 0.0
H753 H 0.41146 0.62827 0.35253 0.0
H754 H 0.48029 0.61757 0.30866 0.0
H755 H 0.46781 0.64003 0.27348 0.0
H756 H 0.4194 0.57981 0.35529 0.0
H757 H 0.51253 0.64917 0.37654 0.0
H758 H 0.48785 0.65565 0.35604 0.0
H759 H 0.51014 0.63647 0.34355 0.0
C760 C 0.41673 0.64372 0.31517 0.0
C761 C 0.4324 0.64759 0.29251 0.0
C762 C 0.42393 0.63076 0.33537 0.0
C763 C 0.44715 0.62147 0.33369 0.0
C764 C 0.46261 0.62496 0.31091 0.0
H765 H 0.51497 0.53158 0.43775 0.0
H766 H 0.50072 0.54895 0.39943 0.0
C767 C 0.45538 0.63782 0.29067 0.0
C768 C 0.45526 0.60841 0.35576 0.0
H769 H 0.50485 0.6116 0.39864 0.0
C770 C 0.4381 0.58684 0.36471 0.0
C771 C 0.47963 0.6174 0.36837 0.0
C772 C 0.49853 0.64107 0.36085 0.0
C773 C 0.44474 0.5741 0.3855 0.0
C774 C 0.46908 0.58312 0.39794 0.0
C775 C 0.48626 0.60455 0.38902 0.0
C776 C 0.47658 0.57127 0.42098 0.0
C777 C 0.42576 0.55101 0.39419 0.0
C778 C 0.46785 0.57798 0.44591 0.0
C779 C 0.47637 0.56847 0.46781 0.0
C780 C 0.49341 0.55156 0.46533 0.0
C781 C 0.50157 0.54428 0.4403 0.0
C782 C 0.4935 0.55427 0.41839 0.0
H783 H 0.40874 0.54488 0.38114 0.0
H784 H 0.43601 0.53521 0.39505 0.0
H785 H 0.41834 0.55515 0.414 0.0
H786 H 0.45484 0.59104 0.44847 0.0
H787 H 0.46971 0.57443 0.48679 0.0
H788 H 0.1377 0.37147 0.79364 0.0
H789 H 0.11787 0.39084 0.831 0.0
H790 H 0.12605 0.45945 0.79196 0.0
H791 H 0.14594 0.44023 0.75436 0.0
H792 H 0.13993 0.43647 0.86139 0.0
H793 H 0.04687 0.44088 0.81438 0.0
H794 H 0.06815 0.42063 0.80156 0.0
H795 H 0.07664 0.45385 0.79705 0.0
C796 C 0.13541 0.39073 0.79298 0.0
C797 C 0.14345 0.40431 0.77098 0.0
C798 C 0.12403 0.40174 0.81436 0.0
C799 C 0.12019 0.42643 0.81409 0.0
C800 C 0.12851 0.44022 0.79237 0.0
H801 H 0.05998 0.52437 0.93079 0.0
H802 H 0.08036 0.50727 0.89211 0.0
C803 C 0.14008 0.42928 0.77101 0.0
C804 C 0.1079 0.43785 0.83679 0.0
H805 H 0.05361 0.46022 0.85674 0.0
C806 C 0.12107 0.44167 0.86039 0.0
C807 C 0.08322 0.44447 0.83541 0.0
C808 C 0.06769 0.4396 0.81083 0.0
C809 C 0.11033 0.45222 0.88262 0.0
C810 C 0.08573 0.45892 0.88122 0.0
C811 C 0.07256 0.45519 0.85763 0.0
C812 C 0.07311 0.46918 0.90432 0.0
C813 C 0.12535 0.45632 0.90747 0.0
C814 C 0.06211 0.45331 0.92376 0.0
C815 C 0.05025 0.46291 0.94568 0.0
C816 C 0.04941 0.48864 0.94866 0.0
C817 C 0.06047 0.5045 0.92911 0.0
C818 C 0.07203 0.49478 0.907 0.0
H819 H 0.1459 0.45396 0.90438 0.0
H820 H 0.12573 0.47553 0.91659 0.0
H821 H 0.11533 0.44245 0.9212 0.0
H822 H 0.06269 0.43346 0.92193 0.0
H823 H 0.04202 0.45023 0.96044 0.0
H824 H 0.69283 0.86965 0.96146 0.0
H825 H 0.65824 0.88947 0.98054 0.0
H826 H 0.61995 0.87998 0.90688 0.0
H827 H 0.65419 0.85952 0.88774 0.0
H828 H 0.65189 0.93427 0.96012 0.0
H829 H 0.55791 0.86192 0.95917 0.0
H830 H 0.58965 0.85357 0.95852 0.0
H831 H 0.57768 0.8637 0.92998 0.0
C832 C 0.67685 0.87145 0.94942 0.0
C833 C 0.67639 0.86347 0.92304 0.0
C834 C 0.65703 0.88257 0.96037 0.0
C835 C 0.63657 0.88605 0.9451 0.0
C836 C 0.63535 0.87703 0.91905 0.0
H837 H 0.52459 0.9826 0.98348 0.0
H838 H 0.55039 0.95561 0.95928 0.0
C839 C 0.65505 0.8656 0.90812 0.0
C840 C 0.61913 0.90245 0.95556 0.0
H841 H 0.55576 0.90384 0.97299 0.0
C842 C 0.63086 0.92762 0.9629 0.0
C843 C 0.59171 0.89372 0.95872 0.0
C844 C 0.57837 0.86672 0.95136 0.0
C845 C 0.61598 0.94426 0.97394 0.0
C846 C 0.58874 0.93536 0.97793 0.0
C847 C 0.57673 0.91043 0.96983 0.0
C848 C 0.57293 0.95128 0.99226 0.0
C849 C 0.62953 0.97117 0.98151 0.0
C850 C 0.57722 0.95754 0.01867 0.0
C851 C 0.56266 0.97285 0.03249 0.0
C852 C 0.54355 0.98213 0.02006 0.0
C853 C 0.53931 0.97584 0.99352 0.0
C854 C 0.55386 0.96036 0.97971 0.0
H855 H 0.64898 0.97656 0.97163 0.0
H856 H 0.61721 0.98447 0.97685 0.0
H857 H 0.6327 0.97327 1.00269 0.0
H858 H 0.59183 0.9505 0.02859 0.0
H859 H 0.56637 0.97736 0.05291 0.0
H860 H 0.91666 0.21722 0.4238 0.0
H861 H 0.93565 0.18887 0.44819 0.0
H862 H 0.89289 0.12492 0.40146 0.0
H863 H 0.87583 0.15354 0.37571 0.0
H864 H 0.91555 0.15578 0.4781 0.0
H865 H 0.96078 0.10555 0.3987 0.0
H866 H 0.94778 0.13283 0.39348 0.0
H867 H 0.92642 0.10182 0.39314 0.0
C868 C 0.91167 0.1971 0.41862 0.0
C869 C 0.89497 0.18745 0.39791 0.0
C870 C 0.92247 0.18091 0.43254 0.0
C871 C 0.91619 0.15468 0.42641 0.0
C872 C 0.89895 0.14506 0.40598 0.0
H873 H 0.93259 0.02656 0.50938 0.0
H874 H 0.91636 0.05717 0.48521 0.0
C875 C 0.88893 0.16137 0.39146 0.0
C876 C 0.92644 0.13742 0.44233 0.0
H877 H 0.954 0.08569 0.43892 0.0
C878 C 0.92418 0.14065 0.46943 0.0
C879 C 0.93808 0.11775 0.4312 0.0
C880 C 0.94368 0.1145 0.40256 0.0
C881 C 0.93255 0.12444 0.48552 0.0
C882 C 0.94278 0.10415 0.47424 0.0
C883 C 0.9455 0.10103 0.44734 0.0
C884 C 0.95171 0.0864 0.49009 0.0
C885 C 0.93044 0.12895 0.51448 0.0
C886 C 0.97681 0.09297 0.5007 0.0
C887 C 0.98618 0.07555 0.51409 0.0
C888 C 0.97048 0.05137 0.51722 0.0
C889 C 0.94501 0.04508 0.50722 0.0
C890 C 0.93577 0.06246 0.49346 0.0
H891 H 0.92004 0.14434 0.52023 0.0
H892 H 0.91991 0.11138 0.52312 0.0
H893 H 0.95047 0.1341 0.52266 0.0
H894 H 0.9893 0.1114 0.49821 0.0
H895 H 0.00577 0.081 0.52194 0.0
H896 H 0.26737 0.63318 0.17197 0.0
H897 H 0.22514 0.61172 0.15308 0.0
H898 H 0.26189 0.61143 0.07738 0.0
H899 H 0.30404 0.63245 0.09603 0.0
H900 H 0.19737 0.62913 0.11663 0.0
H901 H 0.22162 0.53874 0.07884 0.0
H902 H 0.24176 0.56019 0.1021 0.0
H903 H 0.24444 0.56602 0.06832 0.0
C904 C 0.26654 0.62826 0.15135 0.0
C905 C 0.28919 0.63456 0.13556 0.0
C906 C 0.24235 0.61604 0.14056 0.0
C907 C 0.24034 0.60965 0.11382 0.0
C908 C 0.26298 0.61564 0.09811 0.0
H909 H 0.10925 0.56015 0.00816 0.0
H910 H 0.15214 0.5784 0.02808 0.0
C911 C 0.2871 0.62785 0.10884 0.0
C912 C 0.21438 0.59803 0.1021 0.0
H913 H 0.18191 0.54743 0.06403 0.0
C914 C 0.19395 0.61117 0.10532 0.0
C915 C 0.20987 0.57459 0.08723 0.0
C916 C 0.23049 0.55892 0.08408 0.0
C917 C 0.16942 0.60176 0.09372 0.0
C918 C 0.1651 0.57856 0.07863 0.0
C919 C 0.18538 0.56532 0.07548 0.0
C920 C 0.13938 0.56749 0.0665 0.0
C921 C 0.14826 0.61676 0.09731 0.0
C922 C 0.1182 0.55513 0.08147 0.0
C923 C 0.094 0.54432 0.07005 0.0
C924 C 0.09051 0.54605 0.04359 0.0
C925 C 0.11159 0.55861 0.02862 0.0
C926 C 0.13599 0.56901 0.03995 0.0
H927 H 0.15565 0.63577 0.10706 0.0
H928 H 0.14018 0.61898 0.07828 0.0
H929 H 0.13188 0.60638 0.10917 0.0
H930 H 0.12043 0.55379 0.10197 0.0
H931 H 0.07788 0.53491 0.08196 0.0
H932 H 0.25517 0.45582 0.66733 0.0
H933 H 0.2983 0.47154 0.64691 0.0
H934 H 0.30536 0.39503 0.62642 0.0
H935 H 0.26259 0.37915 0.64733 0.0
H936 H 0.35246 0.44747 0.65627 0.0
H937 H 0.3102 0.44599 0.55866 0.0
H938 H 0.29181 0.45142 0.58788 0.0
H939 H 0.29739 0.42051 0.57913 0.0
C940 C 0.26604 0.44238 0.65864 0.0
C941 C 0.25561 0.41628 0.65895 0.0
C942 C 0.29062 0.45136 0.64705 0.0
C943 C 0.30487 0.4344 0.63518 0.0
C944 C 0.29464 0.40836 0.63563 0.0
H945 H 0.44981 0.4569 0.54147 0.0
H946 H 0.40844 0.43812 0.56355 0.0
C947 C 0.2703 0.39935 0.64762 0.0
C948 C 0.33007 0.44388 0.62156 0.0
H949 H 0.35625 0.45863 0.56197 0.0
C950 C 0.35337 0.44989 0.63566 0.0
C951 C 0.33105 0.44695 0.59472 0.0
C952 C 0.30635 0.44099 0.57902 0.0
C953 C 0.37773 0.45902 0.62348 0.0
C954 C 0.37867 0.46223 0.59664 0.0
C955 C 0.3554 0.45598 0.58252 0.0
C956 C 0.4035 0.47333 0.58318 0.0
C957 C 0.40237 0.46522 0.63928 0.0
C958 C 0.41405 0.4993 0.58669 0.0
C959 C 0.4373 0.51009 0.57388 0.0
C960 C 0.45063 0.49505 0.55745 0.0
C961 C 0.43999 0.46897 0.55395 0.0
C962 C 0.41643 0.45823 0.56654 0.0
H963 H 0.39894 0.45795 0.65884 0.0
H964 H 0.41812 0.45716 0.62921 0.0
H965 H 0.40949 0.48603 0.64151 0.0
H966 H 0.40426 0.51124 0.59938 0.0
H967 H 0.44508 0.53019 0.57731 0.0
H968 H 0.75957 0.72976 0.9436 0.0
H969 H 0.79557 0.71157 0.95792 0.0
H970 H 0.81765 0.69651 0.87842 0.0
H971 H 0.78158 0.71397 0.86402 0.0
H972 H 0.80041 0.65572 0.93259 0.0
H973 H 0.88651 0.73632 0.92503 0.0
H974 H 0.85374 0.74094 0.93281 0.0
H975 H 0.86189 0.73102 0.90042 0.0
C976 C 0.77227 0.72272 0.92927 0.0
C977 C 0.7677 0.72289 0.90275 0.0
C978 C 0.79273 0.71243 0.93743 0.0
C979 C 0.80911 0.70289 0.91912 0.0
C980 C 0.80514 0.70389 0.89272 0.0
H981 H 0.93485 0.6235 0.91222 0.0
H982 H 0.90002 0.64528 0.9031 0.0
C983 C 0.78448 0.71368 0.88457 0.0
C984 C 0.82917 0.69 0.92719 0.0
H985 H 0.8954 0.69651 0.93201 0.0
C986 C 0.82116 0.66465 0.93286 0.0
C987 C 0.8561 0.70179 0.92701 0.0
C988 C 0.86528 0.72907 0.92111 0.0
C989 C 0.83965 0.65053 0.93796 0.0
C990 C 0.86661 0.66226 0.9376 0.0
C991 C 0.87461 0.6877 0.93219 0.0
C992 C 0.88685 0.64839 0.94295 0.0
C993 C 0.83046 0.623 0.94296 0.0
C994 C 0.89068 0.64301 0.96833 0.0
C995 C 0.91063 0.63084 0.97364 0.0
C996 C 0.92702 0.62389 0.9536 0.0
C997 C 0.92277 0.62897 0.92809 0.0
C998 C 0.90288 0.64126 0.92283 0.0
H999 H 0.80908 0.61603 0.93957 0.0
H1000 H 0.84151 0.6114 0.9303 0.0
H1001 H 0.83444 0.62025 0.96331 0.0
H1002 H 0.87852 0.64864 0.98406 0.0
H1003 H 0.91365 0.6275 0.99353 0.0
H1004 H 0.37109 0.76423 0.1795 0.0
H1005 H 0.38388 0.80478 0.16 0.0
H1006 H 0.46514 0.79952 0.16022 0.0
H1007 H 0.45239 0.75879 0.18031 0.0
H1008 H 0.41883 0.8503 0.17881 0.0
H1009 H 0.45179 0.8134 0.08361 0.0
H1010 H 0.43085 0.79352 0.10573 0.0
H1011 H 0.46549 0.80333 0.11138 0.0
C1012 C 0.39177 0.77174 0.17565 0.0
C1013 C 0.41071 0.7582 0.18175 0.0
C1014 C 0.39904 0.79499 0.16438 0.0
C1015 C 0.42547 0.80526 0.15826 0.0
C1016 C 0.44457 0.79196 0.16447 0.0
H1017 H 0.50765 0.95098 0.10581 0.0
H1018 H 0.49461 0.90898 0.12285 0.0
C1019 C 0.43731 0.76878 0.17626 0.0
C1020 C 0.4328 0.8301 0.14596 0.0
H1021 H 0.45935 0.85794 0.09105 0.0
C1022 C 0.42769 0.8519 0.15963 0.0
C1023 C 0.44392 0.83232 0.12067 0.0
C1024 C 0.44818 0.80943 0.10428 0.0
C1025 C 0.43407 0.87574 0.14911 0.0
C1026 C 0.4458 0.87806 0.12416 0.0
C1027 C 0.45056 0.85626 0.11026 0.0
C1028 C 0.45374 0.90316 0.11267 0.0
C1029 C 0.42849 0.89851 0.16478 0.0
C1030 C 0.43521 0.9139 0.10097 0.0
C1031 C 0.44275 0.93777 0.09077 0.0
C1032 C 0.46886 0.95169 0.09266 0.0
C1033 C 0.48732 0.94091 0.10442 0.0
C1034 C 0.47992 0.91683 0.11403 0.0
H1035 H 0.42119 0.89405 0.18463 0.0
H1036 H 0.44658 0.91371 0.16614 0.0
H1037 H 0.41347 0.90591 0.15491 0.0
H1038 H 0.41488 0.90382 0.09976 0.0
H1039 H 0.42809 0.94556 0.08183 0.0
H1040 H 0.15277 0.26057 0.68154 0.0
H1041 H 0.13534 0.21699 0.66476 0.0
H1042 H 0.06317 0.23698 0.64511 0.0
H1043 H 0.08031 0.28051 0.66181 0.0
H1044 H 0.08565 0.18384 0.68184 0.0
H1045 H 0.08899 0.20179 0.57744 0.0
H1046 H 0.10839 0.22332 0.6012 0.0
H1047 H 0.0739 0.22232 0.59879 0.0
C1048 C 0.13328 0.25575 0.67345 0.0
C1049 C 0.11796 0.27402 0.6729 0.0
C1050 C 0.12334 0.23085 0.66399 0.0
C1051 C 0.0981 0.22392 0.65357 0.0
C1052 C 0.08282 0.24209 0.65285 0.0
H1053 H 0.99753 0.08525 0.5936 0.0
H1054 H 0.01608 0.12791 0.612 0.0
C1055 C 0.09265 0.26693 0.66244 0.0
C1056 C 0.08749 0.19757 0.6438 0.0
H1057 H 0.06781 0.16083 0.58875 0.0
C1058 C 0.0819 0.17872 0.66149 0.0
C1059 C 0.08255 0.19111 0.61725 0.0
C1060 C 0.08891 0.21061 0.59745 0.0
C1061 C 0.07109 0.15352 0.65327 0.0
C1062 C 0.06613 0.14713 0.62676 0.0
C1063 C 0.07175 0.16593 0.60908 0.0
C1064 C 0.05484 0.121 0.61694 0.0
C1065 C 0.06452 0.13388 0.67289 0.0
C1066 C 0.07066 0.10315 0.61365 0.0
C1067 C 0.06023 0.07882 0.60285 0.0
C1068 C 0.03378 0.07199 0.59552 0.0
C1069 C 0.01793 0.08988 0.59928 0.0
C1070 C 0.02846 0.11425 0.60972 0.0
H1071 H 0.06692 0.14236 0.69306 0.0
H1072 H 0.04395 0.12307 0.67049 0.0
H1073 H 0.0776 0.12031 0.66963 0.0
H1074 H 0.09114 0.1082 0.61904 0.0
H1075 H 0.07284 0.06539 0.60024 0.0
H1076 H 0.76404 0.32249 0.33292 0.0
H1077 H 0.73309 0.34593 0.35341 0.0
H1078 H 0.77639 0.35621 0.42423 0.0
H1079 H 0.80784 0.33291 0.40367 0.0
H1080 H 0.70127 0.33351 0.39601 0.0
H1081 H 0.76756 0.42776 0.41403 0.0
H1082 H 0.77628 0.40331 0.39224 0.0
H1083 H 0.77867 0.40205 0.42656 0.0
C1084 C 0.76721 0.3299 0.3528 0.0
C1085 C 0.7885 0.32583 0.36664 0.0
C1086 C 0.74942 0.34329 0.3645 0.0
C1087 C 0.75251 0.35307 0.39028 0.0
C1088 C 0.77386 0.34925 0.40416 0.0
H1089 H 0.64623 0.42366 0.49088 0.0
H1090 H 0.68244 0.40442 0.47429 0.0
C1091 C 0.79175 0.33581 0.39243 0.0
C1092 C 0.73262 0.36624 0.40272 0.0
H1093 H 0.72405 0.42282 0.43103 0.0
C1094 C 0.70629 0.35303 0.40368 0.0
C1095 C 0.73915 0.39173 0.41272 0.0
C1096 C 0.76689 0.40719 0.4112 0.0
C1097 C 0.68636 0.36457 0.41431 0.0
C1098 C 0.69283 0.39007 0.42413 0.0
C1099 C 0.71918 0.40324 0.42356 0.0
C1100 C 0.67216 0.40344 0.43414 0.0
C1101 C 0.65842 0.34945 0.415 0.0
C1102 C 0.65475 0.40976 0.41703 0.0
C1103 C 0.63422 0.42097 0.42637 0.0
C1104 C 0.63049 0.42601 0.45312 0.0
C1105 C 0.64853 0.42029 0.47018 0.0
C1106 C 0.66919 0.40917 0.46076 0.0
H1107 H 0.65731 0.32892 0.41079 0.0
H1108 H 0.64912 0.35243 0.43422 0.0
H1109 H 0.64687 0.35595 0.4003 0.0
H1110 H 0.65689 0.40576 0.39639 0.0
H1111 H 0.62118 0.42559 0.41256 0.0
loop_
_geom_bond_atom_site_label_1
_geom_bond_atom_site_label_2
_geom_bond_distance
_geom_bond_site_symmetry_2
_ccdc_geom_bond_type
O0 Cd1 2.300 . S
O0 C7 1.275 . S
Cd1 O0 2.300 . S
Cd1 O9 2.381 . S
Cd1 O10 2.378 . S
O2 Cd3 2.385 . S
O2 C7 1.255 . S
Cd3 O2 2.385 . S
Cd3 O4 2.317 . S
O4 Cd3 2.317 . S
O4 C5 1.232 . S
C5 O4 1.232 . S
C5 O6 1.218 . S
O6 C5 1.218 . S
C7 O0 1.275 . S
C7 O2 1.255 . S
C8 O9 1.258 . S
C8 O10 1.256 . S
O9 Cd1 2.381 . S
O9 C8 1.258 . S
O10 Cd1 2.378 . S
O10 C8 1.256 . S
O11 Cd12 2.300 . S
O11 C18 1.275 . S
Cd12 O11 2.300 . S
Cd12 O20 2.381 . S
Cd12 O21 2.378 . S
O13 Cd14 2.385 . S
O13 C18 1.255 . S
Cd14 O13 2.385 . S
Cd14 O15 2.317 . S
O15 Cd14 2.317 . S
O15 C16 1.232 . S
C16 O15 1.232 . S
C16 O17 1.218 . S
O17 C16 1.218 . S
C18 O11 1.275 . S
C18 O13 1.255 . S
C19 O20 1.258 . S
C19 O21 1.256 . S
O20 Cd12 2.381 . S
O20 C19 1.258 . S
O21 Cd12 2.378 . S
O21 C19 1.256 . S
O22 Cd23 2.300 . S
O22 C29 1.275 . S
Cd23 O22 2.300 . S
Cd23 O31 2.381 . S
Cd23 O32 2.378 . S
O24 Cd25 2.385 . S
O24 C29 1.255 . S
Cd25 O24 2.385 . S
Cd25 O26 2.317 . S
O26 Cd25 2.317 . S
O26 C27 1.232 . S
C27 O26 1.232 . S
C27 O28 1.218 . S
O28 C27 1.218 . S
C29 O22 1.275 . S
C29 O24 1.255 . S
C30 O31 1.258 . S
C30 O32 1.256 . S
O31 Cd23 2.381 . S
O31 C30 1.258 . S
O32 Cd23 2.378 . S
O32 C30 1.256 . S
O33 Cd34 2.300 . S
O33 C40 1.275 . S
Cd34 O33 2.300 . S
Cd34 O42 2.381 . S
Cd34 O43 2.378 . S
O35 Cd36 2.385 . S
O35 C40 1.255 . S
Cd36 O35 2.385 . S
Cd36 O37 2.317 . S
O37 Cd36 2.317 . S
O37 C38 1.232 . S
C38 O37 1.232 . S
C38 O39 1.218 . S
O39 C38 1.218 . S
C40 O33 1.275 . S
C40 O35 1.255 . S
C41 O42 1.258 . S
C41 O43 1.256 . S
O42 Cd34 2.381 . S
O42 C41 1.258 . S
O43 Cd34 2.378 . S
O43 C41 1.256 . S
O44 Cd45 2.300 . S
O44 C51 1.275 . S
Cd45 O44 2.300 . S
Cd45 O53 2.381 . S
Cd45 O54 2.378 . S
O46 Cd47 2.385 . S
O46 C51 1.255 . S
Cd47 O46 2.385 . S
Cd47 O48 2.317 . S
O48 Cd47 2.317 . S
O48 C49 1.232 . S
C49 O48 1.232 . S
C49 O50 1.218 . S
O50 C49 1.218 . S
C51 O44 1.275 . S
C51 O46 1.255 . S
C52 O53 1.258 . S
C52 O54 1.256 . S
O53 Cd45 2.381 . S
O53 C52 1.258 . S
O54 Cd45 2.378 . S
O54 C52 1.256 . S
O55 Cd56 2.300 . S
O55 C62 1.275 . S
Cd56 O55 2.300 . S
Cd56 O64 2.381 . S
Cd56 O65 2.378 . S
O57 Cd58 2.385 . S
O57 C62 1.255 . S
Cd58 O57 2.385 . S
Cd58 O59 2.317 . S
O59 Cd58 2.317 . S
O59 C60 1.232 . S
C60 O59 1.232 . S
C60 O61 1.218 . S
O61 C60 1.218 . S
C62 O55 1.275 . S
C62 O57 1.255 . S
C63 O64 1.258 . S
C63 O65 1.256 . S
O64 Cd56 2.381 . S
O64 C63 1.258 . S
O65 Cd56 2.378 . S
O65 C63 1.256 . S
O66 Cd67 2.300 . S
O66 C73 1.275 . S
Cd67 O66 2.300 . S
Cd67 O75 2.381 . S
Cd67 O76 2.378 . S
O68 Cd69 2.385 . S
O68 C73 1.255 . S
Cd69 O68 2.385 . S
Cd69 O70 2.317 . S
O70 Cd69 2.317 . S
O70 C71 1.232 . S
C71 O70 1.232 . S
C71 O72 1.218 . S
O72 C71 1.218 . S
C73 O66 1.275 . S
C73 O68 1.255 . S
C74 O75 1.258 . S
C74 O76 1.256 . S
O75 Cd67 2.381 . S
O75 C74 1.258 . S
O76 Cd67 2.378 . S
O76 C74 1.256 . S
O77 Cd78 2.300 . S
O77 C84 1.275 . S
Cd78 O77 2.300 . S
Cd78 O86 2.381 . S
Cd78 O87 2.378 . S
O79 Cd80 2.385 . S
O79 C84 1.255 . S
Cd80 O79 2.385 . S
Cd80 O81 2.317 . S
O81 Cd80 2.317 . S
O81 C82 1.232 . S
C82 O81 1.232 . S
C82 O83 1.218 . S
O83 C82 1.218 . S
C84 O77 1.275 . S
C84 O79 1.255 . S
C85 O86 1.258 . S
C85 O87 1.256 . S
O86 Cd78 2.381 . S
O86 C85 1.258 . S
O87 Cd78 2.378 . S
O87 C85 1.256 . S
Tb88 C97 2.764 . S
Tb88 O98 2.325 1_455 S
Tb88 O101 2.303 . S
Tb88 O105 2.322 1_545 S
Tb88 O106 2.349 1_545 S
Tb88 O109 2.415 . S
Tb88 O110 2.399 . S
Tb89 O99 2.322 . S
Tb89 O100 2.349 . S
Tb89 O102 2.415 1_545 S
Tb89 O103 2.399 1_545 S
Tb89 O104 2.325 1_645 S
Tb89 O107 2.303 1_545 S
Tb89 C118 2.764 1_545 S
C90 O106 1.261 1_655 S
C90 O107 1.257 . S
C91 C94 1.358 . S
C91 C95 1.332 . S
C91 C97 1.504 . S
C92 C93 1.373 . S
C92 C96 1.308 . S
C93 C92 1.373 . S
C93 C94 1.429 . S
C93 H120 0.932 . S
C94 C91 1.358 . S
C94 C93 1.429 . S
C94 H121 0.930 . S
C95 C91 1.332 . S
C95 C96 1.394 . S
C95 H122 0.932 . S
C96 C92 1.308 . S
C96 C95 1.394 . S
C96 H123 0.929 . S
C97 Tb88 2.764 . S
C97 C91 1.504 . S
C97 O109 1.239 . S
C97 O110 1.263 . S
O98 Tb88 2.325 1_655 S
O98 C108 1.236 . S
O99 Tb89 2.322 . S
O99 C108 1.257 . S
O100 Tb89 2.349 . S
O100 C111 1.261 1_655 S
O101 Tb88 2.303 . S
O101 C111 1.257 . S
O102 Tb89 2.415 1_565 S
O102 C118 1.239 . S
O103 Tb89 2.399 1_565 S
O103 C118 1.263 . S
O104 Tb89 2.325 1_465 S
O104 C119 1.236 . S
O105 Tb88 2.322 1_565 S
O105 C119 1.257 . S
O106 Tb88 2.349 1_565 S
O106 C90 1.261 1_455 S
O107 Tb89 2.303 1_565 S
O107 C90 1.257 . S
C108 O98 1.236 . S
C108 O99 1.257 . S
O109 Tb88 2.415 . S
O109 C97 1.239 . S
O110 Tb88 2.399 . S
O110 C97 1.263 . S
C111 O100 1.261 1_455 S
C111 O101 1.257 . S
C112 C115 1.358 . S
C112 C116 1.332 . S
C112 C118 1.504 . S
C113 C114 1.373 . S
C113 C117 1.308 . S
C114 C113 1.373 . S
C114 C115 1.429 . S
C114 H124 0.932 . S
C115 C112 1.358 . S
C115 C114 1.429 . S
C115 H125 0.930 . S
C116 C112 1.332 . S
C116 C117 1.394 . S
C116 H126 0.932 . S
C117 C113 1.308 . S
C117 C116 1.394 . S
C117 H127 0.929 . S
C118 Tb89 2.764 1_565 S
C118 O102 1.239 . S
C118 O103 1.263 . S
C118 C112 1.504 . S
C119 O104 1.236 . S
C119 O105 1.257 . S
H120 C93 0.932 . S
H121 C94 0.930 . S
H122 C95 0.932 . S
H123 C96 0.929 . S
H124 C114 0.932 . S
H125 C115 0.930 . S
H126 C116 0.932 . S
H127 C117 0.929 . S
Tb128 C137 2.764 . S
Tb128 O138 2.325 . S
Tb128 O141 2.303 . S
Tb128 O145 2.322 1_545 S
Tb128 O146 2.349 . S
Tb128 O149 2.415 . S
Tb128 O150 2.399 . S
Tb129 O139 2.322 . S
Tb129 O140 2.349 . S
Tb129 O142 2.415 1_544 S
Tb129 O143 2.399 1_545 S
Tb129 O144 2.325 1_545 S
Tb129 O147 2.303 . S
Tb129 C158 2.764 1_544 S
C130 O146 1.259 1_565 S
C130 O147 1.246 1_565 S
C131 C134 1.358 . S
C131 C135 1.332 . S
C131 C137 1.504 . S
C132 C133 1.373 . S
C132 C136 1.308 . S
C133 C132 1.373 . S
C133 C134 1.429 . S
C133 H160 0.932 . S
C134 C131 1.358 . S
C134 C133 1.429 . S
C134 H161 0.930 . S
C135 C131 1.332 . S
C135 C136 1.394 . S
C135 H162 0.932 . S
C136 C132 1.308 . S
C136 C135 1.394 . S
C136 H163 0.929 . S
C137 Tb128 2.764 . S
C137 C131 1.504 . S
C137 O149 1.239 . S
C137 O150 1.263 . S
O138 Tb128 2.325 . S
O138 C148 1.236 . S
O139 Tb129 2.322 . S
O139 C148 1.257 . S
O140 Tb129 2.349 . S
O140 C151 1.261 . S
O141 Tb128 2.303 . S
O141 C151 1.257 . S
O142 Tb129 2.415 1_566 S
O142 C158 1.239 . S
O143 Tb129 2.399 1_565 S
O143 C158 1.263 1_554 S
O144 Tb129 2.325 1_565 S
O144 C159 1.236 . S
O145 Tb128 2.322 1_565 S
O145 C159 1.257 . S
O146 Tb128 2.349 . S
O146 C130 1.259 1_545 S
O147 Tb129 2.303 . S
O147 C130 1.246 1_545 S
C148 O138 1.236 . S
C148 O139 1.257 . S
O149 Tb128 2.415 . S
O149 C137 1.239 . S
O150 Tb128 2.399 . S
O150 C137 1.263 . S
C151 O140 1.261 . S
C151 O141 1.257 . S
C152 C155 1.358 . S
C152 C156 1.332 . S
C152 C158 1.504 . S
C153 C154 1.373 . S
C153 C157 1.308 . S
C154 C153 1.373 . S
C154 C155 1.429 . S
C154 H164 0.932 . S
C155 C152 1.358 . S
C155 C154 1.429 . S
C155 H165 0.930 . S
C156 C152 1.332 . S
C156 C157 1.394 . S
C156 H166 0.932 . S
C157 C153 1.308 . S
C157 C156 1.394 . S
C157 H167 0.929 . S
C158 Tb129 2.764 1_566 S
C158 O142 1.239 . S
C158 O143 1.263 1_556 S
C158 C152 1.504 . S
C159 O144 1.236 . S
C159 O145 1.257 . S
H160 C133 0.932 . S
H161 C134 0.930 . S
H162 C135 0.932 . S
H163 C136 0.929 . S
H164 C154 0.932 . S
H165 C155 0.930 . S
H166 C156 0.932 . S
H167 C157 0.929 . S
Tb168 C177 2.764 . S
Tb168 O178 2.325 . S
Tb168 O181 2.303 . S
Tb168 O185 2.322 . S
Tb168 O186 2.349 . S
Tb168 O189 2.415 . S
Tb168 O190 2.399 . S
Tb169 O179 2.322 . S
Tb169 O180 2.349 . S
Tb169 O182 2.415 . S
Tb169 O183 2.399 . S
Tb169 O184 2.325 . S
Tb169 O187 2.303 . S
Tb169 C198 2.764 . S
C170 O186 1.261 . S
C170 O187 1.257 . S
C171 C174 1.358 . S
C171 C175 1.332 . S
C171 C177 1.504 . S
C172 C173 1.373 . S
C172 C176 1.308 . S
C173 C172 1.373 . S
C173 C174 1.429 . S
C173 H200 0.932 . S
C174 C171 1.358 . S
C174 C173 1.429 . S
C174 H201 0.930 . S
C175 C171 1.332 . S
C175 C176 1.394 . S
C175 H202 0.932 . S
C176 C172 1.308 . S
C176 C175 1.394 . S
C176 H203 0.929 . S
C177 Tb168 2.764 . S
C177 C171 1.504 . S
C177 O189 1.239 . S
C177 O190 1.263 . S
O178 Tb168 2.325 . S
O178 C188 1.236 . S
O179 Tb169 2.322 . S
O179 C188 1.257 . S
O180 Tb169 2.349 . S
O180 C191 1.261 . S
O181 Tb168 2.303 . S
O181 C191 1.257 . S
O182 Tb169 2.415 . S
O182 C198 1.239 . S
O183 Tb169 2.399 . S
O183 C198 1.263 . S
O184 Tb169 2.325 . S
O184 C199 1.236 . S
O185 Tb168 2.322 . S
O185 C199 1.257 . S
O186 Tb168 2.349 . S
O186 C170 1.261 . S
O187 Tb169 2.303 . S
O187 C170 1.257 . S
C188 O178 1.236 . S
C188 O179 1.257 . S
O189 Tb168 2.415 . S
O189 C177 1.239 . S
O190 Tb168 2.399 . S
O190 C177 1.263 . S
C191 O180 1.261 . S
C191 O181 1.257 . S
C192 C195 1.358 . S
C192 C196 1.332 . S
C192 C198 1.504 . S
C193 C194 1.373 . S
C193 C197 1.308 . S
C194 C193 1.373 . S
C194 C195 1.429 . S
C194 H204 0.932 . S
C195 C192 1.358 . S
C195 C194 1.429 . S
C195 H205 0.930 . S
C196 C192 1.332 . S
C196 C197 1.394 . S
C196 H206 0.932 . S
C197 C193 1.308 . S
C197 C196 1.394 . S
C197 H207 0.929 . S
C198 Tb169 2.764 . S
C198 O182 1.239 . S
C198 O183 1.263 . S
C198 C192 1.504 . S
C199 O184 1.236 . S
C199 O185 1.257 . S
H200 C173 0.932 . S
H201 C174 0.930 . S
H202 C175 0.932 . S
H203 C176 0.929 . S
H204 C194 0.932 . S
H205 C195 0.930 . S
H206 C196 0.932 . S
H207 C197 0.929 . S
Tb208 C217 2.764 1_455 S
Tb208 O218 2.325 1_455 S
Tb208 O221 2.303 1_556 S
Tb208 O225 2.322 1_556 S
Tb208 O226 2.349 . S
Tb208 O229 2.415 1_455 S
Tb208 O230 2.399 . S
Tb209 O219 2.322 1_455 S
Tb209 O220 2.355 . S
Tb209 O222 2.415 . S
Tb209 O223 2.399 . S
Tb209 O224 2.325 . S
Tb209 O227 2.303 1_554 S
Tb209 C238 2.764 . S
C210 O226 1.261 . S
C210 O227 1.257 . S
C211 C214 1.358 . S
C211 C215 1.332 . S
C211 C217 1.504 . S
C212 C213 1.373 . S
C212 C216 1.308 . S
C213 C212 1.373 . S
C213 C214 1.429 . S
C213 H240 0.932 . S
C214 C211 1.358 . S
C214 C213 1.429 . S
C214 H241 0.930 . S
C215 C211 1.332 . S
C215 C216 1.394 . S
C215 H242 0.932 . S
C216 C212 1.308 . S
C216 C215 1.394 . S
C216 H243 0.929 . S
C217 Tb208 2.764 1_655 S
C217 C211 1.504 . S
C217 O229 1.239 . S
C217 O230 1.263 1_655 S
O218 Tb208 2.325 1_655 S
O218 C228 1.236 . S
O219 Tb209 2.322 1_655 S
O219 C228 1.257 1_554 S
O220 Tb209 2.355 . S
O220 C231 1.258 1_455 S
O221 Tb208 2.303 1_554 S
O221 C231 1.257 1_455 S
O222 Tb209 2.415 . S
O222 C238 1.239 . S
O223 Tb209 2.399 . S
O223 C238 1.263 . S
O224 Tb209 2.325 . S
O224 C239 1.236 . S
O225 Tb208 2.322 1_554 S
O225 C239 1.257 . S
O226 Tb208 2.349 . S
O226 C210 1.261 . S
O227 Tb209 2.303 1_556 S
O227 C210 1.257 . S
C228 O218 1.236 . S
C228 O219 1.257 1_556 S
O229 Tb208 2.415 1_655 S
O229 C217 1.239 . S
O230 Tb208 2.399 . S
O230 C217 1.263 1_455 S
C231 O220 1.258 1_655 S
C231 O221 1.257 1_655 S
C232 C235 1.358 . S
C232 C236 1.332 . S
C232 C238 1.504 . S
C233 C234 1.373 . S
C233 C237 1.308 . S
C234 C233 1.373 . S
C234 C235 1.429 . S
C234 H244 0.932 . S
C235 C232 1.358 . S
C235 C234 1.429 . S
C235 H245 0.930 . S
C236 C232 1.332 . S
C236 C237 1.394 . S
C236 H246 0.932 . S
C237 C233 1.308 . S
C237 C236 1.394 . S
C237 H247 0.929 . S
C238 Tb209 2.764 . S
C238 O222 1.239 . S
C238 O223 1.263 . S
C238 C232 1.504 . S
C239 O224 1.236 . S
C239 O225 1.257 . S
H240 C213 0.932 . S
H241 C214 0.930 . S
H242 C215 0.932 . S
H243 C216 0.929 . S
H244 C234 0.932 . S
H245 C235 0.930 . S
H246 C236 0.932 . S
H247 C237 0.929 . S
H248 C256 0.929 . S
H249 C258 0.930 . S
H250 C260 0.930 . S
H251 C263 0.929 . S
H252 C266 0.930 . S
H253 C268 0.960 . S
H254 C268 0.960 . S
H255 C268 0.960 . S
C256 H248 0.929 . S
C256 C257 1.377 . S
C256 C258 1.384 . S
C257 C256 1.377 . S
C257 C263 1.390 . S
C258 H249 0.930 . S
C258 C256 1.384 . S
C258 C259 1.372 . S
C259 C258 1.372 . S
C259 C260 1.400 . S
C259 C264 1.490 . S
C260 H250 0.930 . S
C260 C259 1.400 . S
C260 C263 1.386 . S
H261 C277 0.930 . S
H262 C278 0.931 . S
C263 H251 0.929 . S
C263 C257 1.390 . S
C263 C260 1.386 . S
C264 C259 1.490 . S
C264 C266 1.395 . S
C264 C267 1.403 . S
H265 C271 0.930 . S
C266 H252 0.930 . S
C266 C264 1.395 . S
C266 C269 1.403 . S
C267 C264 1.403 . S
C267 C268 1.524 . S
C267 C271 1.400 . S
C268 H253 0.960 . S
C268 H254 0.960 . S
C268 H255 0.960 . S
C268 C267 1.524 . S
C269 C266 1.403 . S
C269 C270 1.392 . S
C269 C273 1.495 . S
C270 C269 1.392 . S
C270 C271 1.385 . S
C270 C272 1.478 . S
C271 H265 0.930 . S
C271 C267 1.400 . S
C271 C270 1.385 . S
C272 C270 1.478 . S
C272 C274 1.381 . S
C272 C278 1.383 . S
C273 C269 1.495 . S
C273 H279 0.959 . S
C273 H280 0.961 . S
C273 H281 0.960 . S
C274 C272 1.381 . S
C274 C275 1.394 . S
C274 H282 0.930 . S
C275 C274 1.394 . S
C275 C276 1.383 . S
C275 H283 0.929 . S
C276 C275 1.383 . S
C276 C277 1.377 . S
C277 H261 0.930 . S
C277 C276 1.377 . S
C277 C278 1.379 . S
C278 H262 0.931 . S
C278 C272 1.383 . S
C278 C277 1.379 . S
H279 C273 0.959 . S
H280 C273 0.961 . S
H281 C273 0.960 . S
H282 C274 0.930 . S
H283 C275 0.929 . S
H284 C292 0.929 . S
H285 C294 0.930 . S
H286 C296 0.930 . S
H287 C299 0.929 . S
H288 C302 0.930 . S
H289 C304 0.960 . S
H290 C304 0.960 . S
H291 C304 0.960 . S
C292 H284 0.929 . S
C292 C293 1.377 . S
C292 C294 1.384 . S
C293 C292 1.377 . S
C293 C299 1.390 . S
C294 H285 0.930 . S
C294 C292 1.384 . S
C294 C295 1.372 . S
C295 C294 1.372 . S
C295 C296 1.400 . S
C295 C300 1.490 . S
C296 H286 0.930 . S
C296 C295 1.400 . S
C296 C299 1.386 . S
H297 C313 0.930 . S
H298 C314 0.931 . S
C299 H287 0.929 . S
C299 C293 1.390 . S
C299 C296 1.386 . S
C300 C295 1.490 . S
C300 C302 1.395 . S
C300 C303 1.403 . S
H301 C307 0.930 . S
C302 H288 0.930 . S
C302 C300 1.395 . S
C302 C305 1.403 . S
C303 C300 1.403 . S
C303 C304 1.524 . S
C303 C307 1.400 . S
C304 H289 0.960 . S
C304 H290 0.960 . S
C304 H291 0.960 . S
C304 C303 1.524 . S
C305 C302 1.403 . S
C305 C306 1.392 . S
C305 C309 1.495 . S
C306 C305 1.392 . S
C306 C307 1.385 . S
C306 C308 1.478 . S
C307 H301 0.930 . S
C307 C303 1.400 . S
C307 C306 1.385 . S
C308 C306 1.478 . S
C308 C310 1.381 . S
C308 C314 1.383 . S
C309 C305 1.495 . S
C309 H315 0.959 . S
C309 H316 0.961 . S
C309 H317 0.960 . S
C310 C308 1.381 . S
C310 C311 1.394 . S
C310 H318 0.930 . S
C311 C310 1.394 . S
C311 C312 1.383 . S
C311 H319 0.929 . S
C312 C311 1.383 . S
C312 C313 1.377 . S
C313 H297 0.930 . S
C313 C312 1.377 . S
C313 C314 1.379 . S
C314 H298 0.931 . S
C314 C308 1.383 . S
C314 C313 1.379 . S
H315 C309 0.959 . S
H316 C309 0.961 . S
H317 C309 0.960 . S
H318 C310 0.930 . S
H319 C311 0.929 . S
H320 C328 0.929 . S
H321 C330 0.930 . S
H322 C332 0.930 . S
H323 C335 0.929 . S
H324 C338 0.930 . S
H325 C340 0.960 . S
H326 C340 0.960 . S
H327 C340 0.960 . S
C328 H320 0.929 . S
C328 C329 1.377 . S
C328 C330 1.384 . S
C329 C328 1.377 . S
C329 C335 1.390 . S
C330 H321 0.930 . S
C330 C328 1.384 . S
C330 C331 1.372 . S
C331 C330 1.372 . S
C331 C332 1.400 . S
C331 C336 1.490 . S
C332 H322 0.930 . S
C332 C331 1.400 . S
C332 C335 1.386 . S
H333 C349 0.930 . S
H334 C350 0.931 . S
C335 H323 0.929 . S
C335 C329 1.390 . S
C335 C332 1.386 . S
C336 C331 1.490 . S
C336 C338 1.395 . S
C336 C339 1.403 . S
H337 C343 0.930 . S
C338 H324 0.930 . S
C338 C336 1.395 . S
C338 C341 1.403 . S
C339 C336 1.403 . S
C339 C340 1.524 . S
C339 C343 1.400 . S
C340 H325 0.960 . S
C340 H326 0.960 . S
C340 H327 0.960 . S
C340 C339 1.524 . S
C341 C338 1.403 . S
C341 C342 1.392 . S
C341 C345 1.495 . S
C342 C341 1.392 . S
C342 C343 1.385 . S
C342 C344 1.478 . S
C343 H337 0.930 . S
C343 C339 1.400 . S
C343 C342 1.385 . S
C344 C342 1.478 . S
C344 C346 1.381 . S
C344 C350 1.383 . S
C345 C341 1.495 . S
C345 H351 0.959 . S
C345 H352 0.961 . S
C345 H353 0.960 . S
C346 C344 1.381 . S
C346 C347 1.394 . S
C346 H354 0.930 . S
C347 C346 1.394 . S
C347 C348 1.383 . S
C347 H355 0.929 . S
C348 C347 1.383 . S
C348 C349 1.377 . S
C349 H333 0.930 . S
C349 C348 1.377 . S
C349 C350 1.379 . S
C350 H334 0.931 . S
C350 C344 1.383 . S
C350 C349 1.379 . S
H351 C345 0.959 . S
H352 C345 0.961 . S
H353 C345 0.960 . S
H354 C346 0.930 . S
H355 C347 0.929 . S
H356 C364 0.929 . S
H357 C366 0.930 . S
H358 C368 0.930 . S
H359 C371 0.929 . S
H360 C374 0.930 . S
H361 C376 0.960 . S
H362 C376 0.960 . S
H363 C376 0.960 . S
C364 H356 0.929 . S
C364 C365 1.377 . S
C364 C366 1.384 . S
C365 C364 1.377 . S
C365 C371 1.390 . S
C366 H357 0.930 . S
C366 C364 1.384 . S
C366 C367 1.372 . S
C367 C366 1.372 . S
C367 C368 1.400 . S
C367 C372 1.490 . S
C368 H358 0.930 . S
C368 C367 1.400 . S
C368 C371 1.386 . S
H369 C385 0.930 . S
H370 C386 0.931 . S
C371 H359 0.929 . S
C371 C365 1.390 . S
C371 C368 1.386 . S
C372 C367 1.490 . S
C372 C374 1.395 . S
C372 C375 1.403 . S
H373 C379 0.930 . S
C374 H360 0.930 . S
C374 C372 1.395 . S
C374 C377 1.403 . S
C375 C372 1.403 . S
C375 C376 1.524 . S
C375 C379 1.400 . S
C376 H361 0.960 . S
C376 H362 0.960 . S
C376 H363 0.960 . S
C376 C375 1.524 . S
C377 C374 1.403 . S
C377 C378 1.392 . S
C377 C381 1.517 . S
C378 C377 1.392 . S
C378 C379 1.385 . S
C378 C380 1.478 . S
C379 H373 0.930 . S
C379 C375 1.400 . S
C379 C378 1.385 . S
C380 C378 1.478 . S
C380 C382 1.381 . S
C380 C386 1.383 . S
C381 C377 1.517 . S
C381 H387 0.955 1_655 S
C381 H388 0.933 1_655 S
C381 H389 0.971 . S
C382 C380 1.381 . S
C382 C383 1.394 . S
C382 H390 0.930 . S
C383 C382 1.394 . S
C383 C384 1.383 . S
C383 H391 0.929 . S
C384 C383 1.383 . S
C384 C385 1.377 . S
C385 H369 0.930 . S
C385 C384 1.377 . S
C385 C386 1.379 . S
C386 H370 0.931 . S
C386 C380 1.383 . S
C386 C385 1.379 . S
H387 C381 0.955 1_455 S
H388 C381 0.933 1_455 S
H389 C381 0.971 . S
H390 C382 0.930 . S
H391 C383 0.929 . S
H392 C400 0.929 . S
H393 C402 0.930 . S
H394 C404 0.930 . S
H395 C407 0.929 . S
H396 C410 0.930 . S
H397 C412 0.960 . S
H398 C412 0.960 . S
H399 C412 0.960 . S
C400 H392 0.929 . S
C400 C401 1.377 . S
C400 C402 1.384 . S
C401 C400 1.377 . S
C401 C407 1.390 . S
C402 H393 0.930 . S
C402 C400 1.384 . S
C402 C403 1.372 . S
C403 C402 1.372 . S
C403 C404 1.400 . S
C403 C408 1.490 . S
C404 H394 0.930 . S
C404 C403 1.400 . S
C404 C407 1.386 . S
H405 C421 0.930 . S
H406 C422 0.931 . S
C407 H395 0.929 . S
C407 C401 1.390 . S
C407 C404 1.386 . S
C408 C403 1.490 . S
C408 C410 1.395 . S
C408 C411 1.403 . S
H409 C415 0.930 . S
C410 H396 0.930 . S
C410 C408 1.395 . S
C410 C413 1.403 . S
C411 C408 1.403 . S
C411 C412 1.524 . S
C411 C415 1.400 . S
C412 H397 0.960 . S
C412 H398 0.960 . S
C412 H399 0.960 . S
C412 C411 1.524 . S
C413 C410 1.403 . S
C413 C414 1.392 . S
C413 C417 1.495 . S
C414 C413 1.392 . S
C414 C415 1.385 . S
C414 C416 1.478 . S
C415 H409 0.930 . S
C415 C411 1.400 . S
C415 C414 1.385 . S
C416 C414 1.478 . S
C416 C418 1.381 . S
C416 C422 1.383 . S
C417 C413 1.495 . S
C417 H423 0.959 . S
C417 H424 0.961 . S
C417 H425 0.960 . S
C418 C416 1.381 . S
C418 C419 1.394 . S
C418 H426 0.930 . S
C419 C418 1.394 . S
C419 C420 1.383 . S
C419 H427 0.929 . S
C420 C419 1.383 . S
C420 C421 1.377 . S
C421 H405 0.930 . S
C421 C420 1.377 . S
C421 C422 1.379 . S
C422 H406 0.931 . S
C422 C416 1.383 . S
C422 C421 1.379 . S
H423 C417 0.959 . S
H424 C417 0.961 . S
H425 C417 0.960 . S
H426 C418 0.930 . S
H427 C419 0.929 . S
H428 C436 0.929 . S
H429 C438 0.930 . S
H430 C440 0.930 . S
H431 C443 0.929 . S
H432 C446 0.930 . S
H433 C448 0.960 . S
H434 C448 0.960 . S
H435 C448 0.960 . S
C436 H428 0.929 . S
C436 C437 1.377 . S
C436 C438 1.384 . S
C437 C436 1.377 . S
C437 C443 1.390 . S
C438 H429 0.930 . S
C438 C436 1.384 . S
C438 C439 1.372 . S
C439 C438 1.372 . S
C439 C440 1.400 . S
C439 C444 1.490 . S
C440 H430 0.930 . S
C440 C439 1.400 . S
C440 C443 1.386 . S
H441 C457 0.930 . S
H442 C458 0.931 . S
C443 H431 0.929 . S
C443 C437 1.390 . S
C443 C440 1.386 . S
C444 C439 1.490 . S
C444 C446 1.395 . S
C444 C447 1.403 . S
H445 C451 0.930 . S
C446 H432 0.930 . S
C446 C444 1.395 . S
C446 C449 1.403 . S
C447 C444 1.403 . S
C447 C448 1.524 . S
C447 C451 1.400 . S
C448 H433 0.960 . S
C448 H434 0.960 . S
C448 H435 0.960 . S
C448 C447 1.524 . S
C449 C446 1.403 . S
C449 C450 1.392 . S
C449 C453 1.495 . S
C450 C449 1.392 . S
C450 C451 1.385 . S
C450 C452 1.478 . S
C451 H445 0.930 . S
C451 C447 1.400 . S
C451 C450 1.385 . S
C452 C450 1.478 . S
C452 C454 1.381 . S
C452 C458 1.383 . S
C453 C449 1.495 . S
C453 H459 0.959 . S
C453 H460 0.961 . S
C453 H461 0.960 . S
C454 C452 1.381 . S
C454 C455 1.394 . S
C454 H462 0.930 . S
C455 C454 1.394 . S
C455 C456 1.383 . S
C455 H463 0.929 . S
C456 C455 1.383 . S
C456 C457 1.377 . S
C457 H441 0.930 . S
C457 C456 1.377 . S
C457 C458 1.379 . S
C458 H442 0.931 . S
C458 C452 1.383 . S
C458 C457 1.379 . S
H459 C453 0.959 . S
H460 C453 0.961 . S
H461 C453 0.960 . S
H462 C454 0.930 . S
H463 C455 0.929 . S
H464 C472 0.929 . S
H465 C474 0.930 . S
H466 C476 0.930 . S
H467 C479 0.929 . S
H468 C482 0.930 . S
H469 C484 0.960 . S
H470 C484 0.960 . S
H471 C484 0.960 . S
C472 H464 0.929 . S
C472 C473 1.377 . S
C472 C474 1.384 . S
C473 C472 1.377 . S
C473 C479 1.390 . S
C474 H465 0.930 . S
C474 C472 1.384 . S
C474 C475 1.372 . S
C475 C474 1.372 . S
C475 C476 1.400 . S
C475 C480 1.490 . S
C476 H466 0.930 . S
C476 C475 1.400 . S
C476 C479 1.386 . S
H477 C493 0.930 . S
H478 C494 0.931 . S
C479 H467 0.929 . S
C479 C473 1.390 . S
C479 C476 1.386 . S
C480 C475 1.490 . S
C480 C482 1.395 . S
C480 C483 1.403 . S
H481 C487 0.930 . S
C482 H468 0.930 . S
C482 C480 1.395 . S
C482 C485 1.403 . S
C483 C480 1.403 . S
C483 C484 1.524 . S
C483 C487 1.400 . S
C484 H469 0.960 . S
C484 H470 0.960 . S
C484 H471 0.960 . S
C484 C483 1.524 . S
C485 C482 1.403 . S
C485 C486 1.392 . S
C485 C489 1.495 . S
C486 C485 1.392 . S
C486 C487 1.385 . S
C486 C488 1.478 . S
C487 H481 0.930 . S
C487 C483 1.400 . S
C487 C486 1.385 . S
C488 C486 1.478 . S
C488 C490 1.381 . S
C488 C494 1.383 . S
C489 C485 1.495 . S
C489 H495 0.959 . S
C489 H496 0.961 1_556 S
C489 H497 0.960 . S
C490 C488 1.381 . S
C490 C491 1.394 . S
C490 H498 0.930 . S
C491 C490 1.394 . S
C491 C492 1.383 . S
C491 H499 0.929 . S
C492 C491 1.383 . S
C492 C493 1.377 . S
C493 H477 0.930 . S
C493 C492 1.377 . S
C493 C494 1.379 . S
C494 H478 0.931 . S
C494 C488 1.383 . S
C494 C493 1.379 . S
H495 C489 0.959 . S
H496 C489 0.961 1_554 S
H497 C489 0.960 . S
H498 C490 0.930 . S
H499 C491 0.929 . S
H500 C508 0.929 . S
H501 C510 0.930 . S
H502 C512 0.930 . S
H503 C515 0.929 . S
H504 C518 0.930 . S
H505 C520 0.960 . S
H506 C520 0.960 . S
H507 C520 0.960 . S
C508 H500 0.929 . S
C508 C509 1.377 . S
C508 C510 1.384 . S
C509 C508 1.377 . S
C509 C515 1.390 . S
C510 H501 0.930 . S
C510 C508 1.384 . S
C510 C511 1.372 . S
C511 C510 1.372 . S
C511 C512 1.400 . S
C511 C516 1.490 . S
C512 H502 0.930 . S
C512 C511 1.400 . S
C512 C515 1.386 . S
H513 C529 0.930 . S
H514 C530 0.931 . S
C515 H503 0.929 . S
C515 C509 1.390 . S
C515 C512 1.386 . S
C516 C511 1.490 . S
C516 C518 1.395 . S
C516 C519 1.403 . S
H517 C523 0.930 . S
C518 H504 0.930 . S
C518 C516 1.395 . S
C518 C521 1.403 . S
C519 C516 1.403 . S
C519 C520 1.524 . S
C519 C523 1.400 . S
C520 H505 0.960 . S
C520 H506 0.960 . S
C520 H507 0.960 . S
C520 C519 1.524 . S
C521 C518 1.403 . S
C521 C522 1.392 . S
C521 C525 1.495 . S
C522 C521 1.392 . S
C522 C523 1.385 . S
C522 C524 1.478 . S
C523 H517 0.930 . S
C523 C519 1.400 . S
C523 C522 1.385 . S
C524 C522 1.478 . S
C524 C526 1.381 . S
C524 C530 1.383 . S
C525 C521 1.495 . S
C525 H531 0.959 . S
C525 H532 0.961 . S
C525 H533 0.960 . S
C526 C524 1.381 . S
C526 C527 1.394 . S
C526 H534 0.930 . S
C527 C526 1.394 . S
C527 C528 1.383 . S
C527 H535 0.929 . S
C528 C527 1.383 . S
C528 C529 1.377 . S
C529 H513 0.930 . S
C529 C528 1.377 . S
C529 C530 1.379 . S
C530 H514 0.931 . S
C530 C524 1.383 . S
C530 C529 1.379 . S
H531 C525 0.959 . S
H532 C525 0.961 . S
H533 C525 0.960 . S
H534 C526 0.930 . S
H535 C527 0.929 . S
H536 C544 0.929 . S
H537 C546 0.930 . S
H538 C548 0.930 . S
H539 C551 0.929 . S
H540 C554 0.930 . S
H541 C556 0.960 . S
H542 C556 0.960 . S
H543 C556 0.960 . S
C544 H536 0.929 . S
C544 C545 1.377 . S
C544 C546 1.384 . S
C545 C544 1.377 . S
C545 C551 1.390 . S
C546 H537 0.930 . S
C546 C544 1.384 . S
C546 C547 1.372 . S
C547 C546 1.372 . S
C547 C548 1.400 . S
C547 C552 1.490 . S
C548 H538 0.930 . S
C548 C547 1.400 . S
C548 C551 1.386 . S
H549 C565 0.930 . S
H550 C566 0.931 . S
C551 H539 0.929 . S
C551 C545 1.390 . S
C551 C548 1.386 . S
C552 C547 1.490 . S
C552 C554 1.395 . S
C552 C555 1.403 . S
H553 C559 0.930 . S
C554 H540 0.930 . S
C554 C552 1.395 . S
C554 C557 1.403 . S
C555 C552 1.403 . S
C555 C556 1.524 . S
C555 C559 1.400 . S
C556 H541 0.960 . S
C556 H542 0.960 . S
C556 H543 0.960 . S
C556 C555 1.524 . S
C557 C554 1.403 . S
C557 C558 1.392 . S
C557 C561 1.495 . S
C558 C557 1.392 . S
C558 C559 1.385 . S
C558 C560 1.478 . S
C559 H553 0.930 . S
C559 C555 1.400 . S
C559 C558 1.385 . S
C560 C558 1.478 . S
C560 C562 1.381 . S
C560 C566 1.383 . S
C561 C557 1.495 . S
C561 H567 0.959 . S
C561 H568 0.961 . S
C561 H569 0.960 . S
C562 C560 1.381 . S
C562 C563 1.394 . S
C562 H570 0.930 . S
C563 C562 1.394 . S
C563 C564 1.383 . S
C563 H571 0.929 . S
C564 C563 1.383 . S
C564 C565 1.377 . S
C565 H549 0.930 . S
C565 C564 1.377 . S
C565 C566 1.379 . S
C566 H550 0.931 . S
C566 C560 1.383 . S
C566 C565 1.379 . S
H567 C561 0.959 . S
H568 C561 0.961 . S
H569 C561 0.960 . S
H570 C562 0.930 . S
H571 C563 0.929 . S
H572 C580 0.929 . S
H573 C582 0.930 . S
H574 C584 0.930 . S
H575 C587 0.929 . S
H576 C590 0.930 1_554 S
H577 C592 0.960 . S
H578 C592 0.960 . S
H579 C592 0.960 . S
C580 H572 0.929 . S
C580 C581 1.377 . S
C580 C582 1.384 . S
C581 C580 1.377 . S
C581 C587 1.390 . S
C582 H573 0.930 . S
C582 C580 1.384 . S
C582 C583 1.372 . S
C583 C582 1.372 . S
C583 C584 1.400 . S
C583 C588 1.490 . S
C584 H574 0.930 . S
C584 C583 1.400 . S
C584 C587 1.386 . S
H585 C601 0.930 1_556 S
H586 C602 0.931 . S
C587 H575 0.929 . S
C587 C581 1.390 . S
C587 C584 1.386 . S
C588 C583 1.490 . S
C588 C590 1.395 . S
C588 C591 1.403 . S
H589 C595 0.930 . S
C590 H576 0.930 1_556 S
C590 C588 1.395 . S
C590 C593 1.403 1_556 S
C591 C588 1.403 . S
C591 C592 1.524 . S
C591 C595 1.400 . S
C592 H577 0.960 . S
C592 H578 0.960 . S
C592 H579 0.960 . S
C592 C591 1.524 . S
C593 C590 1.403 1_554 S
C593 C594 1.392 1_554 S
C593 C597 1.495 . S
C594 C593 1.392 1_556 S
C594 C595 1.385 . S
C594 C596 1.459 1_556 S
C595 H589 0.930 . S
C595 C591 1.400 . S
C595 C594 1.385 . S
C596 C594 1.459 1_554 S
C596 C598 1.408 . S
C596 C602 1.373 1_554 S
C597 C593 1.495 . S
C597 H603 0.959 . S
C597 H604 0.961 . S
C597 H605 0.960 . S
C598 C596 1.408 . S
C598 C599 1.394 . S
C598 H606 0.930 . S
C599 C598 1.394 . S
C599 C600 1.383 . S
C599 H607 0.929 . S
C600 C599 1.383 . S
C600 C601 1.377 . S
C601 H585 0.930 1_554 S
C601 C600 1.377 . S
C601 C602 1.379 1_554 S
C602 H586 0.931 . S
C602 C596 1.373 1_556 S
C602 C601 1.379 1_556 S
H603 C597 0.959 . S
H604 C597 0.961 . S
H605 C597 0.960 . S
H606 C598 0.930 . S
H607 C599 0.929 . S
H608 C616 0.929 . S
H609 C618 0.930 . S
H610 C620 0.930 . S
H611 C623 0.929 . S
H612 C626 0.930 . S
H613 C628 0.960 . S
H614 C628 0.960 . S
H615 C628 0.960 . S
C616 H608 0.929 . S
C616 C617 1.377 . S
C616 C618 1.384 . S
C617 C616 1.377 . S
C617 C623 1.390 . S
C618 H609 0.930 . S
C618 C616 1.384 . S
C618 C619 1.372 . S
C619 C618 1.372 . S
C619 C620 1.400 . S
C619 C624 1.490 . S
C620 H610 0.930 . S
C620 C619 1.400 . S
C620 C623 1.386 . S
H621 C637 0.930 . S
H622 C638 0.931 . S
C623 H611 0.929 . S
C623 C617 1.390 . S
C623 C620 1.386 . S
C624 C619 1.490 . S
C624 C626 1.395 . S
C624 C627 1.403 . S
H625 C631 0.930 . S
C626 H612 0.930 . S
C626 C624 1.395 . S
C626 C629 1.403 . S
C627 C624 1.403 . S
C627 C628 1.524 . S
C627 C631 1.400 . S
C628 H613 0.960 . S
C628 H614 0.960 . S
C628 H615 0.960 . S
C628 C627 1.524 . S
C629 C626 1.403 . S
C629 C630 1.392 . S
C629 C633 1.495 . S
C630 C629 1.392 . S
C630 C631 1.385 . S
C630 C632 1.478 . S
C631 H625 0.930 . S
C631 C627 1.400 . S
C631 C630 1.385 . S
C632 C630 1.478 . S
C632 C634 1.381 . S
C632 C638 1.383 . S
C633 C629 1.495 . S
C633 H639 0.959 . S
C633 H640 0.961 . S
C633 H641 0.960 . S
C634 C632 1.381 . S
C634 C635 1.394 . S
C634 H642 0.930 . S
C635 C634 1.394 . S
C635 C636 1.383 . S
C635 H643 0.929 . S
C636 C635 1.383 . S
C636 C637 1.377 . S
C637 H621 0.930 . S
C637 C636 1.377 . S
C637 C638 1.379 . S
C638 H622 0.931 . S
C638 C632 1.383 . S
C638 C637 1.379 . S
H639 C633 0.959 . S
H640 C633 0.961 . S
H641 C633 0.960 . S
H642 C634 0.930 . S
H643 C635 0.929 . S
H644 C652 0.929 . S
H645 C654 0.930 . S
H646 C656 0.930 . S
H647 C659 0.929 . S
H648 C662 0.930 . S
H649 C664 0.960 . S
H650 C664 0.960 . S
H651 C664 0.960 . S
C652 H644 0.929 . S
C652 C653 1.377 . S
C652 C654 1.384 . S
C653 C652 1.377 . S
C653 C659 1.390 . S
C654 H645 0.930 . S
C654 C652 1.384 . S
C654 C655 1.372 . S
C655 C654 1.372 . S
C655 C656 1.400 . S
C655 C660 1.490 . S
C656 H646 0.930 . S
C656 C655 1.400 . S
C656 C659 1.386 . S
H657 C673 0.930 . S
H658 C674 0.931 . S
C659 H647 0.929 . S
C659 C653 1.390 . S
C659 C656 1.386 . S
C660 C655 1.490 . S
C660 C662 1.395 . S
C660 C663 1.403 . S
H661 C667 0.930 . S
C662 H648 0.930 . S
C662 C660 1.395 . S
C662 C665 1.403 . S
C663 C660 1.403 . S
C663 C664 1.524 . S
C663 C667 1.400 . S
C664 H649 0.960 . S
C664 H650 0.960 . S
C664 H651 0.960 . S
C664 C663 1.524 . S
C665 C662 1.403 . S
C665 C666 1.392 . S
C665 C669 1.495 . S
C666 C665 1.392 . S
C666 C667 1.385 . S
C666 C668 1.478 . S
C667 H661 0.930 . S
C667 C663 1.400 . S
C667 C666 1.385 . S
C668 C666 1.478 . S
C668 C670 1.381 . S
C668 C674 1.383 . S
C669 C665 1.495 . S
C669 H675 0.959 . S
C669 H676 0.961 . S
C669 H677 0.960 . S
C670 C668 1.381 . S
C670 C671 1.394 . S
C670 H678 0.930 . S
C671 C670 1.394 . S
C671 C672 1.383 . S
C671 H679 0.929 . S
C672 C671 1.383 . S
C672 C673 1.377 . S
C673 H657 0.930 . S
C673 C672 1.377 . S
C673 C674 1.379 . S
C674 H658 0.931 . S
C674 C668 1.383 . S
C674 C673 1.379 . S
H675 C669 0.959 . S
H676 C669 0.961 . S
H677 C669 0.960 . S
H678 C670 0.930 . S
H679 C671 0.929 . S
H680 C688 0.929 . S
H681 C690 0.930 . S
H682 C692 0.930 . S
H683 C695 0.929 . S
H684 C698 0.930 . S
H685 C700 0.960 . S
H686 C700 0.960 . S
H687 C700 0.960 . S
C688 H680 0.929 . S
C688 C689 1.377 . S
C688 C690 1.384 . S
C689 C688 1.377 . S
C689 C695 1.390 . S
C690 H681 0.930 . S
C690 C688 1.384 . S
C690 C691 1.372 . S
C691 C690 1.372 . S
C691 C692 1.400 . S
C691 C696 1.490 . S
C692 H682 0.930 . S
C692 C691 1.400 . S
C692 C695 1.386 . S
H693 C709 0.930 . S
H694 C710 0.931 . S
C695 H683 0.929 . S
C695 C689 1.390 . S
C695 C692 1.386 . S
C696 C691 1.490 . S
C696 C698 1.395 . S
C696 C699 1.403 . S
H697 C703 0.930 . S
C698 H684 0.930 . S
C698 C696 1.395 . S
C698 C701 1.403 . S
C699 C696 1.403 . S
C699 C700 1.524 . S
C699 C703 1.400 . S
C700 H685 0.960 . S
C700 H686 0.960 . S
C700 H687 0.960 . S
C700 C699 1.524 . S
C701 C698 1.403 . S
C701 C702 1.392 . S
C701 C705 1.495 . S
C702 C701 1.392 . S
C702 C703 1.385 . S
C702 C704 1.478 . S
C703 H697 0.930 . S
C703 C699 1.400 . S
C703 C702 1.385 . S
C704 C702 1.478 . S
C704 C706 1.381 . S
C704 C710 1.383 . S
C705 C701 1.495 . S
C705 H711 0.959 . S
C705 H712 0.961 . S
C705 H713 0.960 . S
C706 C704 1.381 . S
C706 C707 1.394 . S
C706 H714 0.930 . S
C707 C706 1.394 . S
C707 C708 1.383 . S
C707 H715 0.929 . S
C708 C707 1.383 . S
C708 C709 1.377 . S
C709 H693 0.930 . S
C709 C708 1.377 . S
C709 C710 1.379 . S
C710 H694 0.931 . S
C710 C704 1.383 . S
C710 C709 1.379 . S
H711 C705 0.959 . S
H712 C705 0.961 . S
H713 C705 0.960 . S
H714 C706 0.930 . S
H715 C707 0.929 . S
H716 C724 0.929 . S
H717 C726 0.930 . S
H718 C728 0.930 . S
H719 C731 0.929 . S
H720 C734 0.930 . S
H721 C736 0.960 . S
H722 C736 0.960 . S
H723 C736 0.960 . S
C724 H716 0.929 . S
C724 C725 1.377 . S
C724 C726 1.384 . S
C725 C724 1.377 . S
C725 C731 1.390 . S
C726 H717 0.930 . S
C726 C724 1.384 . S
C726 C727 1.372 . S
C727 C726 1.372 . S
C727 C728 1.400 . S
C727 C732 1.490 . S
C728 H718 0.930 . S
C728 C727 1.400 . S
C728 C731 1.386 . S
H729 C745 0.930 . S
H730 C746 0.931 . S
C731 H719 0.929 . S
C731 C725 1.390 . S
C731 C728 1.386 . S
C732 C727 1.490 . S
C732 C734 1.395 . S
C732 C735 1.403 . S
H733 C739 0.930 . S
C734 H720 0.930 . S
C734 C732 1.395 . S
C734 C737 1.403 . S
C735 C732 1.403 . S
C735 C736 1.524 . S
C735 C739 1.400 . S
C736 H721 0.960 . S
C736 H722 0.960 . S
C736 H723 0.960 . S
C736 C735 1.524 . S
C737 C734 1.403 . S
C737 C738 1.392 . S
C737 C741 1.495 . S
C738 C737 1.392 . S
C738 C739 1.385 . S
C738 C740 1.478 . S
C739 H733 0.930 . S
C739 C735 1.400 . S
C739 C738 1.385 . S
C740 C738 1.478 . S
C740 C742 1.381 . S
C740 C746 1.383 . S
C741 C737 1.495 . S
C741 H747 0.959 . S
C741 H748 0.961 . S
C741 H749 0.960 . S
C742 C740 1.381 . S
C742 C743 1.394 . S
C742 H750 0.930 . S
C743 C742 1.394 . S
C743 C744 1.383 . S
C743 H751 0.929 . S
C744 C743 1.383 . S
C744 C745 1.377 . S
C745 H729 0.930 . S
C745 C744 1.377 . S
C745 C746 1.379 . S
C746 H730 0.931 . S
C746 C740 1.383 . S
C746 C745 1.379 . S
H747 C741 0.959 . S
H748 C741 0.961 . S
H749 C741 0.960 . S
H750 C742 0.930 . S
H751 C743 0.929 . S
H752 C760 0.929 . S
H753 C762 0.930 . S
H754 C764 0.930 . S
H755 C767 0.929 . S
H756 C770 0.930 . S
H757 C772 0.960 . S
H758 C772 0.960 . S
H759 C772 0.960 . S
C760 H752 0.929 . S
C760 C761 1.377 . S
C760 C762 1.384 . S
C761 C760 1.377 . S
C761 C767 1.390 . S
C762 H753 0.930 . S
C762 C760 1.384 . S
C762 C763 1.372 . S
C763 C762 1.372 . S
C763 C764 1.400 . S
C763 C768 1.490 . S
C764 H754 0.930 . S
C764 C763 1.400 . S
C764 C767 1.386 . S
H765 C781 0.930 . S
H766 C782 0.931 . S
C767 H755 0.929 . S
C767 C761 1.390 . S
C767 C764 1.386 . S
C768 C763 1.490 . S
C768 C770 1.395 . S
C768 C771 1.403 . S
H769 C775 0.930 . S
C770 H756 0.930 . S
C770 C768 1.395 . S
C770 C773 1.403 . S
C771 C768 1.403 . S
C771 C772 1.524 . S
C771 C775 1.400 . S
C772 H757 0.960 . S
C772 H758 0.960 . S
C772 H759 0.960 . S
C772 C771 1.524 . S
C773 C770 1.403 . S
C773 C774 1.392 . S
C773 C777 1.495 . S
C774 C773 1.392 . S
C774 C775 1.385 . S
C774 C776 1.478 . S
C775 H769 0.930 . S
C775 C771 1.400 . S
C775 C774 1.385 . S
C776 C774 1.478 . S
C776 C778 1.381 . S
C776 C782 1.383 . S
C777 C773 1.495 . S
C777 H783 0.959 . S
C777 H784 0.961 . S
C777 H785 0.960 . S
C778 C776 1.381 . S
C778 C779 1.394 . S
C778 H786 0.930 . S
C779 C778 1.394 . S
C779 C780 1.383 . S
C779 H787 0.929 . S
C780 C779 1.383 . S
C780 C781 1.377 . S
C781 H765 0.930 . S
C781 C780 1.377 . S
C781 C782 1.379 . S
C782 H766 0.931 . S
C782 C776 1.383 . S
C782 C781 1.379 . S
H783 C777 0.959 . S
H784 C777 0.961 . S
H785 C777 0.960 . S
H786 C778 0.930 . S
H787 C779 0.929 . S
H788 C796 0.929 . S
H789 C798 0.930 . S
H790 C800 0.930 . S
H791 C803 0.929 . S
H792 C806 0.930 . S
H793 C808 0.960 . S
H794 C808 0.960 . S
H795 C808 0.960 . S
C796 H788 0.929 . S
C796 C797 1.377 . S
C796 C798 1.384 . S
C797 C796 1.377 . S
C797 C803 1.390 . S
C798 H789 0.930 . S
C798 C796 1.384 . S
C798 C799 1.372 . S
C799 C798 1.372 . S
C799 C800 1.400 . S
C799 C804 1.490 . S
C800 H790 0.930 . S
C800 C799 1.400 . S
C800 C803 1.386 . S
H801 C817 0.930 . S
H802 C818 0.931 . S
C803 H791 0.929 . S
C803 C797 1.390 . S
C803 C800 1.386 . S
C804 C799 1.490 . S
C804 C806 1.395 . S
C804 C807 1.403 . S
H805 C811 0.930 . S
C806 H792 0.930 . S
C806 C804 1.395 . S
C806 C809 1.403 . S
C807 C804 1.403 . S
C807 C808 1.524 . S
C807 C811 1.400 . S
C808 H793 0.960 . S
C808 H794 0.960 . S
C808 H795 0.960 . S
C808 C807 1.524 . S
C809 C806 1.403 . S
C809 C810 1.392 . S
C809 C813 1.495 . S
C810 C809 1.392 . S
C810 C811 1.385 . S
C810 C812 1.478 . S
C811 H805 0.930 . S
C811 C807 1.400 . S
C811 C810 1.385 . S
C812 C810 1.478 . S
C812 C814 1.381 . S
C812 C818 1.383 . S
C813 C809 1.495 . S
C813 H819 0.959 . S
C813 H820 0.961 . S
C813 H821 0.960 . S
C814 C812 1.381 . S
C814 C815 1.394 . S
C814 H822 0.930 . S
C815 C814 1.394 . S
C815 C816 1.383 . S
C815 H823 0.929 . S
C816 C815 1.383 . S
C816 C817 1.377 . S
C817 H801 0.930 . S
C817 C816 1.377 . S
C817 C818 1.379 . S
C818 H802 0.931 . S
C818 C812 1.383 . S
C818 C817 1.379 . S
H819 C813 0.959 . S
H820 C813 0.961 . S
H821 C813 0.960 . S
H822 C814 0.930 . S
H823 C815 0.929 . S
H824 C832 0.929 . S
H825 C834 0.930 . S
H826 C836 0.930 . S
H827 C839 0.929 . S
H828 C842 0.930 . S
H829 C844 0.960 . S
H830 C844 0.960 . S
H831 C844 0.960 . S
C832 H824 0.929 . S
C832 C833 1.377 . S
C832 C834 1.384 . S
C833 C832 1.377 . S
C833 C839 1.390 . S
C834 H825 0.930 . S
C834 C832 1.384 . S
C834 C835 1.372 . S
C835 C834 1.372 . S
C835 C836 1.400 . S
C835 C840 1.490 . S
C836 H826 0.930 . S
C836 C835 1.400 . S
C836 C839 1.386 . S
H837 C853 0.930 . S
H838 C854 0.931 . S
C839 H827 0.929 . S
C839 C833 1.390 . S
C839 C836 1.386 . S
C840 C835 1.490 . S
C840 C842 1.395 . S
C840 C843 1.403 . S
H841 C847 0.930 . S
C842 H828 0.930 . S
C842 C840 1.395 . S
C842 C845 1.403 . S
C843 C840 1.403 . S
C843 C844 1.524 . S
C843 C847 1.400 . S
C844 H829 0.960 . S
C844 H830 0.960 . S
C844 H831 0.960 . S
C844 C843 1.524 . S
C845 C842 1.403 . S
C845 C846 1.392 . S
C845 C849 1.495 . S
C846 C845 1.392 . S
C846 C847 1.385 . S
C846 C848 1.478 . S
C847 H841 0.930 . S
C847 C843 1.400 . S
C847 C846 1.385 . S
C848 C846 1.478 . S
C848 C850 1.381 1_556 S
C848 C854 1.383 . S
C849 C845 1.495 . S
C849 H855 0.959 . S
C849 H856 0.961 . S
C849 H857 0.960 . S
C850 C848 1.381 1_554 S
C850 C851 1.394 . S
C850 H858 0.930 . S
C851 C850 1.394 . S
C851 C852 1.383 . S
C851 H859 0.929 . S
C852 C851 1.383 . S
C852 C853 1.377 1_554 S
C853 H837 0.930 . S
C853 C852 1.377 1_556 S
C853 C854 1.379 . S
C854 H838 0.931 . S
C854 C848 1.383 . S
C854 C853 1.379 . S
H855 C849 0.959 . S
H856 C849 0.961 . S
H857 C849 0.960 . S
H858 C850 0.930 . S
H859 C851 0.929 . S
H860 C868 0.929 . S
H861 C870 0.930 . S
H862 C872 0.930 . S
H863 C875 0.929 . S
H864 C878 0.930 . S
H865 C880 0.960 . S
H866 C880 0.960 . S
H867 C880 0.960 . S
C868 H860 0.929 . S
C868 C869 1.377 . S
C868 C870 1.384 . S
C869 C868 1.377 . S
C869 C875 1.390 . S
C870 H861 0.930 . S
C870 C868 1.384 . S
C870 C871 1.372 . S
C871 C870 1.372 . S
C871 C872 1.400 . S
C871 C876 1.490 . S
C872 H862 0.930 . S
C872 C871 1.400 . S
C872 C875 1.386 . S
H873 C889 0.930 . S
H874 C890 0.931 . S
C875 H863 0.929 . S
C875 C869 1.390 . S
C875 C872 1.386 . S
C876 C871 1.490 . S
C876 C878 1.395 . S
C876 C879 1.403 . S
H877 C883 0.930 . S
C878 H864 0.930 . S
C878 C876 1.395 . S
C878 C881 1.403 . S
C879 C876 1.403 . S
C879 C880 1.524 . S
C879 C883 1.400 . S
C880 H865 0.960 . S
C880 H866 0.960 . S
C880 H867 0.960 . S
C880 C879 1.524 . S
C881 C878 1.403 . S
C881 C882 1.392 . S
C881 C885 1.495 . S
C882 C881 1.392 . S
C882 C883 1.385 . S
C882 C884 1.478 . S
C883 H877 0.930 . S
C883 C879 1.400 . S
C883 C882 1.385 . S
C884 C882 1.478 . S
C884 C886 1.381 . S
C884 C890 1.383 . S
C885 C881 1.495 . S
C885 H891 0.959 . S
C885 H892 0.961 . S
C885 H893 0.960 . S
C886 C884 1.381 . S
C886 C887 1.394 . S
C886 H894 0.930 . S
C887 C886 1.394 . S
C887 C888 1.383 . S
C887 H895 0.929 . S
C888 C887 1.383 . S
C888 C889 1.377 . S
C889 H873 0.930 . S
C889 C888 1.377 . S
C889 C890 1.379 . S
C890 H874 0.931 . S
C890 C884 1.383 . S
C890 C889 1.379 . S
H891 C885 0.959 . S
H892 C885 0.961 . S
H893 C885 0.960 . S
H894 C886 0.930 . S
H895 C887 0.929 . S
H896 C904 0.929 . S
H897 C906 0.930 . S
H898 C908 0.930 . S
H899 C911 0.929 . S
H900 C914 0.930 . S
H901 C916 0.960 . S
H902 C916 0.960 . S
H903 C916 0.960 . S
C904 H896 0.929 . S
C904 C905 1.377 . S
C904 C906 1.384 . S
C905 C904 1.377 . S
C905 C911 1.390 . S
C906 H897 0.930 . S
C906 C904 1.384 . S
C906 C907 1.372 . S
C907 C906 1.372 . S
C907 C908 1.400 . S
C907 C912 1.490 . S
C908 H898 0.930 . S
C908 C907 1.400 . S
C908 C911 1.386 . S
H909 C925 0.930 . S
H910 C926 0.931 . S
C911 H899 0.929 . S
C911 C905 1.390 . S
C911 C908 1.386 . S
C912 C907 1.490 . S
C912 C914 1.395 . S
C912 C915 1.403 . S
H913 C919 0.930 . S
C914 H900 0.930 . S
C914 C912 1.395 . S
C914 C917 1.403 . S
C915 C912 1.403 . S
C915 C916 1.524 . S
C915 C919 1.400 . S
C916 H901 0.960 . S
C916 H902 0.960 . S
C916 H903 0.960 . S
C916 C915 1.524 . S
C917 C914 1.403 . S
C917 C918 1.392 . S
C917 C921 1.495 . S
C918 C917 1.392 . S
C918 C919 1.385 . S
C918 C920 1.478 . S
C919 H913 0.930 . S
C919 C915 1.400 . S
C919 C918 1.385 . S
C920 C918 1.478 . S
C920 C922 1.381 . S
C920 C926 1.383 . S
C921 C917 1.495 . S
C921 H927 0.959 . S
C921 H928 0.961 . S
C921 H929 0.960 . S
C922 C920 1.381 . S
C922 C923 1.394 . S
C922 H930 0.930 . S
C923 C922 1.394 . S
C923 C924 1.383 . S
C923 H931 0.929 . S
C924 C923 1.383 . S
C924 C925 1.377 . S
C925 H909 0.930 . S
C925 C924 1.377 . S
C925 C926 1.379 . S
C926 H910 0.931 . S
C926 C920 1.383 . S
C926 C925 1.379 . S
H927 C921 0.959 . S
H928 C921 0.961 . S
H929 C921 0.960 . S
H930 C922 0.930 . S
H931 C923 0.929 . S
H932 C940 0.929 . S
H933 C942 0.930 . S
H934 C944 0.930 . S
H935 C947 0.929 . S
H936 C950 0.930 . S
H937 C952 0.960 . S
H938 C952 0.960 . S
H939 C952 0.960 . S
C940 H932 0.929 . S
C940 C941 1.377 . S
C940 C942 1.384 . S
C941 C940 1.377 . S
C941 C947 1.390 . S
C942 H933 0.930 . S
C942 C940 1.384 . S
C942 C943 1.372 . S
C943 C942 1.372 . S
C943 C944 1.400 . S
C943 C948 1.490 . S
C944 H934 0.930 . S
C944 C943 1.400 . S
C944 C947 1.386 . S
H945 C961 0.930 . S
H946 C962 0.931 . S
C947 H935 0.929 . S
C947 C941 1.390 . S
C947 C944 1.386 . S
C948 C943 1.490 . S
C948 C950 1.395 . S
C948 C951 1.403 . S
H949 C955 0.930 . S
C950 H936 0.930 . S
C950 C948 1.395 . S
C950 C953 1.403 . S
C951 C948 1.403 . S
C951 C952 1.524 . S
C951 C955 1.400 . S
C952 H937 0.960 . S
C952 H938 0.960 . S
C952 H939 0.960 . S
C952 C951 1.524 . S
C953 C950 1.403 . S
C953 C954 1.392 . S
C953 C957 1.495 . S
C954 C953 1.392 . S
C954 C955 1.385 . S
C954 C956 1.478 . S
C955 H949 0.930 . S
C955 C951 1.400 . S
C955 C954 1.385 . S
C956 C954 1.478 . S
C956 C958 1.381 . S
C956 C962 1.383 . S
C957 C953 1.495 . S
C957 H963 0.959 . S
C957 H964 0.961 . S
C957 H965 0.960 . S
C958 C956 1.381 . S
C958 C959 1.394 . S
C958 H966 0.930 . S
C959 C958 1.394 . S
C959 C960 1.383 . S
C959 H967 0.929 . S
C960 C959 1.383 . S
C960 C961 1.377 . S
C961 H945 0.930 . S
C961 C960 1.377 . S
C961 C962 1.379 . S
C962 H946 0.931 . S
C962 C956 1.383 . S
C962 C961 1.379 . S
H963 C957 0.959 . S
H964 C957 0.961 . S
H965 C957 0.960 . S
H966 C958 0.930 . S
H967 C959 0.929 . S
H968 C976 0.929 . S
H969 C978 0.930 . S
H970 C980 0.930 . S
H971 C983 0.929 . S
H972 C986 0.930 . S
H973 C988 0.960 . S
H974 C988 0.960 . S
H975 C988 0.960 . S
C976 H968 0.929 . S
C976 C977 1.377 . S
C976 C978 1.384 . S
C977 C976 1.377 . S
C977 C983 1.390 . S
C978 H969 0.930 . S
C978 C976 1.384 . S
C978 C979 1.372 . S
C979 C978 1.372 . S
C979 C980 1.400 . S
C979 C984 1.490 . S
C980 H970 0.930 . S
C980 C979 1.400 . S
C980 C983 1.386 . S
H981 C997 0.930 . S
H982 C998 0.931 . S
C983 H971 0.929 . S
C983 C977 1.390 . S
C983 C980 1.386 . S
C984 C979 1.490 . S
C984 C986 1.395 . S
C984 C987 1.403 . S
H985 C991 0.930 . S
C986 H972 0.930 . S
C986 C984 1.395 . S
C986 C989 1.403 . S
C987 C984 1.403 . S
C987 C988 1.524 . S
C987 C991 1.400 . S
C988 H973 0.960 . S
C988 H974 0.960 . S
C988 H975 0.960 . S
C988 C987 1.524 . S
C989 C986 1.403 . S
C989 C990 1.392 . S
C989 C993 1.495 . S
C990 C989 1.392 . S
C990 C991 1.385 . S
C990 C992 1.478 . S
C991 H985 0.930 . S
C991 C987 1.400 . S
C991 C990 1.385 . S
C992 C990 1.478 . S
C992 C994 1.381 . S
C992 C998 1.383 . S
C993 C989 1.495 . S
C993 H999 0.959 . S
C993 H1000 0.961 . S
C993 H1001 0.960 . S
C994 C992 1.381 . S
C994 C995 1.394 . S
C994 H1002 0.930 . S
C995 C994 1.394 . S
C995 C996 1.383 . S
C995 H1003 0.929 . S
C996 C995 1.383 . S
C996 C997 1.377 . S
C997 H981 0.930 . S
C997 C996 1.377 . S
C997 C998 1.379 . S
C998 H982 0.931 . S
C998 C992 1.383 . S
C998 C997 1.379 . S
H999 C993 0.959 . S
H1000 C993 0.961 . S
H1001 C993 0.960 . S
H1002 C994 0.930 . S
H1003 C995 0.929 . S
H1004 C1012 0.929 . S
H1005 C1014 0.930 . S
H1006 C1016 0.930 . S
H1007 C1019 0.929 . S
H1008 C1022 0.930 . S
H1009 C1024 0.960 . S
H1010 C1024 0.960 . S
H1011 C1024 0.960 . S
C1012 H1004 0.929 . S
C1012 C1013 1.377 . S
C1012 C1014 1.384 . S
C1013 C1012 1.377 . S
C1013 C1019 1.390 . S
C1014 H1005 0.930 . S
C1014 C1012 1.384 . S
C1014 C1015 1.372 . S
C1015 C1014 1.372 . S
C1015 C1016 1.400 . S
C1015 C1020 1.490 . S
C1016 H1006 0.930 . S
C1016 C1015 1.400 . S
C1016 C1019 1.386 . S
H1017 C1033 0.930 . S
H1018 C1034 0.931 . S
C1019 H1007 0.929 . S
C1019 C1013 1.390 . S
C1019 C1016 1.386 . S
C1020 C1015 1.490 . S
C1020 C1022 1.395 . S
C1020 C1023 1.403 . S
H1021 C1027 0.930 . S
C1022 H1008 0.930 . S
C1022 C1020 1.395 . S
C1022 C1025 1.403 . S
C1023 C1020 1.403 . S
C1023 C1024 1.524 . S
C1023 C1027 1.400 . S
C1024 H1009 0.960 . S
C1024 H1010 0.960 . S
C1024 H1011 0.960 . S
C1024 C1023 1.524 . S
C1025 C1022 1.403 . S
C1025 C1026 1.392 . S
C1025 C1029 1.495 . S
C1026 C1025 1.392 . S
C1026 C1027 1.385 . S
C1026 C1028 1.478 . S
C1027 H1021 0.930 . S
C1027 C1023 1.400 . S
C1027 C1026 1.385 . S
C1028 C1026 1.478 . S
C1028 C1030 1.381 . S
C1028 C1034 1.383 . S
C1029 C1025 1.495 . S
C1029 H1035 0.959 . S
C1029 H1036 0.961 . S
C1029 H1037 0.960 . S
C1030 C1028 1.381 . S
C1030 C1031 1.394 . S
C1030 H1038 0.930 . S
C1031 C1030 1.394 . S
C1031 C1032 1.383 . S
C1031 H1039 0.929 . S
C1032 C1031 1.383 . S
C1032 C1033 1.377 . S
C1033 H1017 0.930 . S
C1033 C1032 1.377 . S
C1033 C1034 1.379 . S
C1034 H1018 0.931 . S
C1034 C1028 1.383 . S
C1034 C1033 1.379 . S
H1035 C1029 0.959 . S
H1036 C1029 0.961 . S
H1037 C1029 0.960 . S
H1038 C1030 0.930 . S
H1039 C1031 0.929 . S
H1040 C1048 0.929 . S
H1041 C1050 0.930 . S
H1042 C1052 0.930 . S
H1043 C1055 0.929 . S
H1044 C1058 0.930 . S
H1045 C1060 0.960 . S
H1046 C1060 0.960 . S
H1047 C1060 0.960 . S
C1048 H1040 0.929 . S
C1048 C1049 1.377 . S
C1048 C1050 1.384 . S
C1049 C1048 1.377 . S
C1049 C1055 1.390 . S
C1050 H1041 0.930 . S
C1050 C1048 1.384 . S
C1050 C1051 1.372 . S
C1051 C1050 1.372 . S
C1051 C1052 1.400 . S
C1051 C1056 1.490 . S
C1052 H1042 0.930 . S
C1052 C1051 1.400 . S
C1052 C1055 1.386 . S
H1053 C1069 0.930 . S
H1054 C1070 0.931 . S
C1055 H1043 0.929 . S
C1055 C1049 1.390 . S
C1055 C1052 1.386 . S
C1056 C1051 1.490 . S
C1056 C1058 1.395 . S
C1056 C1059 1.403 . S
H1057 C1063 0.930 . S
C1058 H1044 0.930 . S
C1058 C1056 1.395 . S
C1058 C1061 1.403 . S
C1059 C1056 1.403 . S
C1059 C1060 1.524 . S
C1059 C1063 1.400 . S
C1060 H1045 0.960 . S
C1060 H1046 0.960 . S
C1060 H1047 0.960 . S
C1060 C1059 1.524 . S
C1061 C1058 1.403 . S
C1061 C1062 1.392 . S
C1061 C1065 1.495 . S
C1062 C1061 1.392 . S
C1062 C1063 1.385 . S
C1062 C1064 1.478 . S
C1063 H1057 0.930 . S
C1063 C1059 1.400 . S
C1063 C1062 1.385 . S
C1064 C1062 1.478 . S
C1064 C1066 1.381 . S
C1064 C1070 1.383 . S
C1065 C1061 1.495 . S
C1065 H1071 0.959 . S
C1065 H1072 0.961 . S
C1065 H1073 0.960 . S
C1066 C1064 1.381 . S
C1066 C1067 1.394 . S
C1066 H1074 0.930 . S
C1067 C1066 1.394 . S
C1067 C1068 1.383 . S
C1067 H1075 0.929 . S
C1068 C1067 1.383 . S
C1068 C1069 1.377 . S
C1069 H1053 0.930 . S
C1069 C1068 1.377 . S
C1069 C1070 1.379 . S
C1070 H1054 0.931 . S
C1070 C1064 1.383 . S
C1070 C1069 1.379 . S
H1071 C1065 0.959 . S
H1072 C1065 0.961 . S
H1073 C1065 0.960 . S
H1074 C1066 0.930 . S
H1075 C1067 0.929 . S
H1076 C1084 0.929 . S
H1077 C1086 0.930 . S
H1078 C1088 0.930 . S
H1079 C1091 0.929 . S
H1080 C1094 0.930 . S
H1081 C1096 0.960 . S
H1082 C1096 0.960 . S
H1083 C1096 0.960 . S
C1084 H1076 0.929 . S
C1084 C1085 1.377 . S
C1084 C1086 1.384 . S
C1085 C1084 1.377 . S
C1085 C1091 1.390 . S
C1086 H1077 0.930 . S
C1086 C1084 1.384 . S
C1086 C1087 1.372 . S
C1087 C1086 1.372 . S
C1087 C1088 1.400 . S
C1087 C1092 1.490 . S
C1088 H1078 0.930 . S
C1088 C1087 1.400 . S
C1088 C1091 1.386 . S
H1089 C1105 0.930 . S
H1090 C1106 0.931 . S
C1091 H1079 0.929 . S
C1091 C1085 1.390 . S
C1091 C1088 1.386 . S
C1092 C1087 1.490 . S
C1092 C1094 1.395 . S
C1092 C1095 1.403 . S
H1093 C1099 0.930 . S
C1094 H1080 0.930 . S
C1094 C1092 1.395 . S
C1094 C1097 1.403 . S
C1095 C1092 1.403 . S
C1095 C1096 1.524 . S
C1095 C1099 1.400 . S
C1096 H1081 0.960 . S
C1096 H1082 0.960 . S
C1096 H1083 0.960 . S
C1096 C1095 1.524 . S
C1097 C1094 1.403 . S
C1097 C1098 1.392 . S
C1097 C1101 1.495 . S
C1098 C1097 1.392 . S
C1098 C1099 1.385 . S
C1098 C1100 1.478 . S
C1099 H1093 0.930 . S
C1099 C1095 1.400 . S
C1099 C1098 1.385 . S
C1100 C1098 1.478 . S
C1100 C1102 1.381 . S
C1100 C1106 1.383 . S
C1101 C1097 1.495 . S
C1101 H1107 0.959 . S
C1101 H1108 0.961 . S
C1101 H1109 0.960 . S
C1102 C1100 1.381 . S
C1102 C1103 1.394 . S
C1102 H1110 0.930 . S
C1103 C1102 1.394 . S
C1103 C1104 1.383 . S
C1103 H1111 0.929 . S
C1104 C1103 1.383 . S
C1104 C1105 1.377 . S
C1105 H1089 0.930 . S
C1105 C1104 1.377 . S
C1105 C1106 1.379 . S
C1106 H1090 0.931 . S
C1106 C1100 1.383 . S
C1106 C1105 1.379 . S
H1107 C1101 0.959 . S
H1108 C1101 0.961 . S
H1109 C1101 0.960 . S
H1110 C1102 0.930 . S
H1111 C1103 0.929 . S
C257 C5 0.842 . S
C276 C92 0.961 . S
C293 C18 1.158 . S
C312 C153 1.205 . S
C348 C191 2.299 . S
C329 C30 2.339 . S
C365 C41 1.965 . S
C384 C231 1.917 . S
C420 C151 1.450 . S
C401 C7 1.385 . S
C456 C119 2.182 . S
C437 C16 2.107 . S
C492 C228 1.738 . S
C473 C29 1.666 . S
C528 C188 1.359 . S
C509 C38 1.221 . S
C545 C8 0.981 . S
C564 C233 0.997 . S
C600 C148 2.614 . S
C581 C27 2.311 . S
C617 C40 2.200 . S
C636 C90 2.173 . S
C653 C19 1.201 . S
C672 C193 1.182 . S
C708 C113 0.906 . S
C689 C51 0.865 . S
C725 C62 1.453 . S
C744 C132 1.458 . S
C761 C74 2.429 . S
C780 C170 2.405 . S
C797 C84 1.937 . S
C816 C210 2.005 . S
C833 C49 1.405 . S
C852 C130 1.715 . S
C888 C108 2.094 . S
C869 C63 2.080 . S
C924 C239 1.544 . S
C905 C71 1.346 . S
C960 C199 1.454 . S
C941 C85 1.476 . S
C977 C52 1.017 . S
C996 C212 1.020 . S
C1032 C159 2.724 . S
C1013 C73 2.649 . S
C1068 C111 1.696 . S
C1049 C82 1.494 . S
C1085 C60 1.296 . S
C1104 C172 1.394 . S
