# Generated by pormake.
# Topology gar, (4,6)-cn, num edge types: 1
# Building blocks:
#     Node 0, Type 0, BuildingBlock: NAHDIM_clean_sbu_0, # of connection points: 4
#     Node 1, Type 0, BuildingBlock: NAHDIM_clean_sbu_0, # of connection points: 4
#     Node 2, Type 0, BuildingBlock: NAHDIM_clean_sbu_0, # of connection points: 4
#     Node 3, Type 0, BuildingBlock: NAHDIM_clean_sbu_0, # of connection points: 4
#     Node 4, Type 0, BuildingBlock: NAHDIM_clean_sbu_0, # of connection points: 4
#     Node 5, Type 0, BuildingBlock: NAHDIM_clean_sbu_0, # of connection points: 4
#     Node 6, Type 0, BuildingBlock: NAHDIM_clean_sbu_0, # of connection points: 4
#     Node 7, Type 0, BuildingBlock: NAHDIM_clean_sbu_0, # of connection points: 4
#     Node 8, Type 0, BuildingBlock: NAHDIM_clean_sbu_0, # of connection points: 4
#     Node 9, Type 0, BuildingBlock: NAHDIM_clean_sbu_0, # of connection points: 4
#     Node 10, Type 0, BuildingBlock: NAHDIM_clean_sbu_0, # of connection points: 4
#     Node 11, Type 0, BuildingBlock: NAHDIM_clean_sbu_0, # of connection points: 4
#     Node 12, Type 0, BuildingBlock: NAHDIM_clean_sbu_0, # of connection points: 4
#     Node 13, Type 0, BuildingBlock: NAHDIM_clean_sbu_0, # of connection points: 4
#     Node 14, Type 0, BuildingBlock: NAHDIM_clean_sbu_0, # of connection points: 4
#     Node 15, Type 0, BuildingBlock: NAHDIM_clean_sbu_0, # of connection points: 4
#     Node 16, Type 0, BuildingBlock: NAHDIM_clean_sbu_0, # of connection points: 4
#     Node 17, Type 0, BuildingBlock: NAHDIM_clean_sbu_0, # of connection points: 4
#     Node 18, Type 0, BuildingBlock: NAHDIM_clean_sbu_0, # of connection points: 4
#     Node 19, Type 0, BuildingBlock: NAHDIM_clean_sbu_0, # of connection points: 4
#     Node 20, Type 0, BuildingBlock: NAHDIM_clean_sbu_0, # of connection points: 4
#     Node 21, Type 0, BuildingBlock: NAHDIM_clean_sbu_0, # of connection points: 4
#     Node 22, Type 0, BuildingBlock: NAHDIM_clean_sbu_0, # of connection points: 4
#     Node 23, Type 0, BuildingBlock: NAHDIM_clean_sbu_0, # of connection points: 4
#     Node 24, Type 1, BuildingBlock: KUMBOL_clean_sbu_0, # of connection points: 6
#     Node 25, Type 1, BuildingBlock: KUMBOL_clean_sbu_0, # of connection points: 6
#     Node 26, Type 1, BuildingBlock: KUMBOL_clean_sbu_0, # of connection points: 6
#     Node 27, Type 1, BuildingBlock: KUMBOL_clean_sbu_0, # of connection points: 6
#     Node 28, Type 1, BuildingBlock: KUMBOL_clean_sbu_0, # of connection points: 6
#     Node 29, Type 1, BuildingBlock: KUMBOL_clean_sbu_0, # of connection points: 6
#     Node 30, Type 1, BuildingBlock: KUMBOL_clean_sbu_0, # of connection points: 6
#     Node 31, Type 1, BuildingBlock: KUMBOL_clean_sbu_0, # of connection points: 6
#     Node 32, Type 1, BuildingBlock: KUMBOL_clean_sbu_0, # of connection points: 6
#     Node 33, Type 1, BuildingBlock: KUMBOL_clean_sbu_0, # of connection points: 6
#     Node 34, Type 1, BuildingBlock: KUMBOL_clean_sbu_0, # of connection points: 6
#     Node 35, Type 1, BuildingBlock: KUMBOL_clean_sbu_0, # of connection points: 6
#     Node 36, Type 1, BuildingBlock: KUMBOL_clean_sbu_0, # of connection points: 6
#     Node 37, Type 1, BuildingBlock: KUMBOL_clean_sbu_0, # of connection points: 6
#     Node 38, Type 1, BuildingBlock: KUMBOL_clean_sbu_0, # of connection points: 6
#     Node 39, Type 1, BuildingBlock: KUMBOL_clean_sbu_0, # of connection points: 6
#     Edge 40, Type (0, 1), BuildingBlock: OJICUG_clean_linker_0, # of connection points: 2
#     Edge 41, Type (0, 1), BuildingBlock: OJICUG_clean_linker_0, # of connection points: 2
#     Edge 42, Type (0, 1), BuildingBlock: OJICUG_clean_linker_0, # of connection points: 2
#     Edge 43, Type (0, 1), BuildingBlock: OJICUG_clean_linker_0, # of connection points: 2
#     Edge 44, Type (0, 1), BuildingBlock: OJICUG_clean_linker_0, # of connection points: 2
#     Edge 45, Type (0, 1), BuildingBlock: OJICUG_clean_linker_0, # of connection points: 2
#     Edge 46, Type (0, 1), BuildingBlock: OJICUG_clean_linker_0, # of connection points: 2
#     Edge 47, Type (0, 1), BuildingBlock: OJICUG_clean_linker_0, # of connection points: 2
#     Edge 48, Type (0, 1), BuildingBlock: OJICUG_clean_linker_0, # of connection points: 2
#     Edge 49, Type (0, 1), BuildingBlock: OJICUG_clean_linker_0, # of connection points: 2
#     Edge 50, Type (0, 1), BuildingBlock: OJICUG_clean_linker_0, # of connection points: 2
#     Edge 51, Type (0, 1), BuildingBlock: OJICUG_clean_linker_0, # of connection points: 2
#     Edge 52, Type (0, 1), BuildingBlock: OJICUG_clean_linker_0, # of connection points: 2
#     Edge 53, Type (0, 1), BuildingBlock: OJICUG_clean_linker_0, # of connection points: 2
#     Edge 54, Type (0, 1), BuildingBlock: OJICUG_clean_linker_0, # of connection points: 2
#     Edge 55, Type (0, 1), BuildingBlock: OJICUG_clean_linker_0, # of connection points: 2
#     Edge 56, Type (0, 1), BuildingBlock: OJICUG_clean_linker_0, # of connection points: 2
#     Edge 57, Type (0, 1), BuildingBlock: OJICUG_clean_linker_0, # of connection points: 2
#     Edge 58, Type (0, 1), BuildingBlock: OJICUG_clean_linker_0, # of connection points: 2
#     Edge 59, Type (0, 1), BuildingBlock: OJICUG_clean_linker_0, # of connection points: 2
#     Edge 60, Type (0, 1), BuildingBlock: OJICUG_clean_linker_0, # of connection points: 2
#     Edge 61, Type (0, 1), BuildingBlock: OJICUG_clean_linker_0, # of connection points: 2
#     Edge 62, Type (0, 1), BuildingBlock: OJICUG_clean_linker_0, # of connection points: 2
#     Edge 63, Type (0, 1), BuildingBlock: OJICUG_clean_linker_0, # of connection points: 2
#     Edge 64, Type (0, 1), BuildingBlock: OJICUG_clean_linker_0, # of connection points: 2
#     Edge 65, Type (0, 1), BuildingBlock: OJICUG_clean_linker_0, # of connection points: 2
#     Edge 66, Type (0, 1), BuildingBlock: OJICUG_clean_linker_0, # of connection points: 2
#     Edge 67, Type (0, 1), BuildingBlock: OJICUG_clean_linker_0, # of connection points: 2
#     Edge 68, Type (0, 1), BuildingBlock: OJICUG_clean_linker_0, # of connection points: 2
#     Edge 69, Type (0, 1), BuildingBlock: OJICUG_clean_linker_0, # of connection points: 2
#     Edge 70, Type (0, 1), BuildingBlock: OJICUG_clean_linker_0, # of connection points: 2
#     Edge 71, Type (0, 1), BuildingBlock: OJICUG_clean_linker_0, # of connection points: 2
#     Edge 72, Type (0, 1), BuildingBlock: OJICUG_clean_linker_0, # of connection points: 2
#     Edge 73, Type (0, 1), BuildingBlock: OJICUG_clean_linker_0, # of connection points: 2
#     Edge 74, Type (0, 1), BuildingBlock: OJICUG_clean_linker_0, # of connection points: 2
#     Edge 75, Type (0, 1), BuildingBlock: OJICUG_clean_linker_0, # of connection points: 2
#     Edge 76, Type (0, 1), BuildingBlock: OJICUG_clean_linker_0, # of connection points: 2
#     Edge 77, Type (0, 1), BuildingBlock: OJICUG_clean_linker_0, # of connection points: 2
#     Edge 78, Type (0, 1), BuildingBlock: OJICUG_clean_linker_0, # of connection points: 2
#     Edge 79, Type (0, 1), BuildingBlock: OJICUG_clean_linker_0, # of connection points: 2
#     Edge 80, Type (0, 1), BuildingBlock: OJICUG_clean_linker_0, # of connection points: 2
#     Edge 81, Type (0, 1), BuildingBlock: OJICUG_clean_linker_0, # of connection points: 2
#     Edge 82, Type (0, 1), BuildingBlock: OJICUG_clean_linker_0, # of connection points: 2
#     Edge 83, Type (0, 1), BuildingBlock: OJICUG_clean_linker_0, # of connection points: 2
#     Edge 84, Type (0, 1), BuildingBlock: OJICUG_clean_linker_0, # of connection points: 2
#     Edge 85, Type (0, 1), BuildingBlock: OJICUG_clean_linker_0, # of connection points: 2
#     Edge 86, Type (0, 1), BuildingBlock: OJICUG_clean_linker_0, # of connection points: 2
#     Edge 87, Type (0, 1), BuildingBlock: OJICUG_clean_linker_0, # of connection points: 2
#     Edge 88, Type (0, 1), BuildingBlock: OJICUG_clean_linker_0, # of connection points: 2
#     Edge 89, Type (0, 1), BuildingBlock: OJICUG_clean_linker_0, # of connection points: 2
#     Edge 90, Type (0, 1), BuildingBlock: OJICUG_clean_linker_0, # of connection points: 2
#     Edge 91, Type (0, 1), BuildingBlock: OJICUG_clean_linker_0, # of connection points: 2
#     Edge 92, Type (0, 1), BuildingBlock: OJICUG_clean_linker_0, # of connection points: 2
#     Edge 93, Type (0, 1), BuildingBlock: OJICUG_clean_linker_0, # of connection points: 2
#     Edge 94, Type (0, 1), BuildingBlock: OJICUG_clean_linker_0, # of connection points: 2
#     Edge 95, Type (0, 1), BuildingBlock: OJICUG_clean_linker_0, # of connection points: 2
#     Edge 96, Type (0, 1), BuildingBlock: OJICUG_clean_linker_0, # of connection points: 2
#     Edge 97, Type (0, 1), BuildingBlock: OJICUG_clean_linker_0, # of connection points: 2
#     Edge 98, Type (0, 1), BuildingBlock: OJICUG_clean_linker_0, # of connection points: 2
#     Edge 99, Type (0, 1), BuildingBlock: OJICUG_clean_linker_0, # of connection points: 2
#     Edge 100, Type (0, 1), BuildingBlock: OJICUG_clean_linker_0, # of connection points: 2
#     Edge 101, Type (0, 1), BuildingBlock: OJICUG_clean_linker_0, # of connection points: 2
#     Edge 102, Type (0, 1), BuildingBlock: OJICUG_clean_linker_0, # of connection points: 2
#     Edge 103, Type (0, 1), BuildingBlock: OJICUG_clean_linker_0, # of connection points: 2
#     Edge 104, Type (0, 1), BuildingBlock: OJICUG_clean_linker_0, # of connection points: 2
#     Edge 105, Type (0, 1), BuildingBlock: OJICUG_clean_linker_0, # of connection points: 2
#     Edge 106, Type (0, 1), BuildingBlock: OJICUG_clean_linker_0, # of connection points: 2
#     Edge 107, Type (0, 1), BuildingBlock: OJICUG_clean_linker_0, # of connection points: 2
#     Edge 108, Type (0, 1), BuildingBlock: OJICUG_clean_linker_0, # of connection points: 2
#     Edge 109, Type (0, 1), BuildingBlock: OJICUG_clean_linker_0, # of connection points: 2
#     Edge 110, Type (0, 1), BuildingBlock: OJICUG_clean_linker_0, # of connection points: 2
#     Edge 111, Type (0, 1), BuildingBlock: OJICUG_clean_linker_0, # of connection points: 2
#     Edge 112, Type (0, 1), BuildingBlock: OJICUG_clean_linker_0, # of connection points: 2
#     Edge 113, Type (0, 1), BuildingBlock: OJICUG_clean_linker_0, # of connection points: 2
#     Edge 114, Type (0, 1), BuildingBlock: OJICUG_clean_linker_0, # of connection points: 2
#     Edge 115, Type (0, 1), BuildingBlock: OJICUG_clean_linker_0, # of connection points: 2
#     Edge 116, Type (0, 1), BuildingBlock: OJICUG_clean_linker_0, # of connection points: 2
#     Edge 117, Type (0, 1), BuildingBlock: OJICUG_clean_linker_0, # of connection points: 2
#     Edge 118, Type (0, 1), BuildingBlock: OJICUG_clean_linker_0, # of connection points: 2
#     Edge 119, Type (0, 1), BuildingBlock: OJICUG_clean_linker_0, # of connection points: 2
#     Edge 120, Type (0, 1), BuildingBlock: OJICUG_clean_linker_0, # of connection points: 2
#     Edge 121, Type (0, 1), BuildingBlock: OJICUG_clean_linker_0, # of connection points: 2
#     Edge 122, Type (0, 1), BuildingBlock: OJICUG_clean_linker_0, # of connection points: 2
#     Edge 123, Type (0, 1), BuildingBlock: OJICUG_clean_linker_0, # of connection points: 2
#     Edge 124, Type (0, 1), BuildingBlock: OJICUG_clean_linker_0, # of connection points: 2
#     Edge 125, Type (0, 1), BuildingBlock: OJICUG_clean_linker_0, # of connection points: 2
#     Edge 126, Type (0, 1), BuildingBlock: OJICUG_clean_linker_0, # of connection points: 2
#     Edge 127, Type (0, 1), BuildingBlock: OJICUG_clean_linker_0, # of connection points: 2
#     Edge 128, Type (0, 1), BuildingBlock: OJICUG_clean_linker_0, # of connection points: 2
#     Edge 129, Type (0, 1), BuildingBlock: OJICUG_clean_linker_0, # of connection points: 2
#     Edge 130, Type (0, 1), BuildingBlock: OJICUG_clean_linker_0, # of connection points: 2
#     Edge 131, Type (0, 1), BuildingBlock: OJICUG_clean_linker_0, # of connection points: 2
#     Edge 132, Type (0, 1), BuildingBlock: OJICUG_clean_linker_0, # of connection points: 2
#     Edge 133, Type (0, 1), BuildingBlock: OJICUG_clean_linker_0, # of connection points: 2
#     Edge 134, Type (0, 1), BuildingBlock: OJICUG_clean_linker_0, # of connection points: 2
#     Edge 135, Type (0, 1), BuildingBlock: OJICUG_clean_linker_0, # of connection points: 2
# Relax obj value: 0.159
# Max RMSD: 0.344
# Mean RMSD: 0.182
data_MOF--net-gar--node1-NAHDIM_clean_sbu_0--node2-KUMBOL_clean_sbu_0--edge1-OJICUG_clean_linker_0
_symmetry_space_group_name_H-M    P1
_symmetry_Int_Tables_number       1
_symmetry_cell_setting            triclinic
loop_
_symmetry_equiv_pos_as_xyz
'x, y, z'
_cell_length_a     47.792481
_cell_length_b     41.510645
_cell_length_c     40.654862
_cell_angle_alpha  101.79435
_cell_angle_beta   94.658687
_cell_angle_gamma 103.0205
loop_
_atom_site_label
_atom_site_type_symbol
_atom_site_fract_x
_atom_site_fract_y
_atom_site_fract_z
_atom_type_partial_charge
C0 C 0.18723 0.33375 0.33957 0.0
O1 O 0.17096 0.34701 0.3213 0.0
O2 O 0.13243 0.30094 0.41184 0.0
Zn3 Zn 0.14617 0.3362 0.38712 0.0
O4 O 0.15663 0.37941 0.42181 0.0
C5 C 0.094 0.34828 0.36856 0.0
O6 O 0.09532 0.3523 0.40162 0.0
O7 O 0.18008 0.32755 0.36731 0.0
C8 C 0.15844 0.40756 0.41375 0.0
O9 O 0.15799 0.40862 0.38163 0.0
C10 C 0.14692 0.30531 0.44065 0.0
O11 O 0.17035 0.33036 0.4503 0.0
O12 O 0.11436 0.33908 0.35401 0.0
C13 C 0.96281 0.74021 0.716 0.0
O14 O 0.96486 0.70865 0.71178 0.0
O15 O 0.99648 0.69706 0.65174 0.0
Zn16 Zn 1.00649 0.74639 0.67259 0.0
O17 O 0.01319 0.77192 0.63635 0.0
C18 C 0.06288 0.74324 0.68757 0.0
O19 O 0.05815 0.73081 0.65462 0.0
O20 O 0.97783 0.76013 0.70062 0.0
C21 C 0.02645 0.80304 0.64335 0.0
O22 O 0.03434 0.81922 0.67526 0.0
C23 C 0.99093 0.68683 0.61979 0.0
O24 O 0.98405 0.70748 0.60175 0.0
O25 O 0.04338 0.75435 0.7022 0.0
C26 C 0.70454 0.84521 0.8703 0.0
O27 O 0.70889 0.85816 0.90314 0.0
O28 O 0.63796 0.79767 0.90755 0.0
Zn29 Zn 0.647 0.83473 0.8829 0.0
O30 O 0.65594 0.87799 0.91804 0.0
C31 C 0.59214 0.84462 0.86934 0.0
O32 O 0.59467 0.84899 0.90249 0.0
O33 O 0.67893 0.83226 0.8555 0.0
C34 C 0.65631 0.90587 0.90988 0.0
O35 O 0.65508 0.90678 0.87768 0.0
C36 C 0.65027 0.80444 0.93791 0.0
O37 O 0.67074 0.83253 0.94934 0.0
O38 O 0.61203 0.83566 0.85366 0.0
C39 C 0.45817 0.26114 0.19264 0.0
O40 O 0.45267 0.25422 0.1594 0.0
O41 O 0.50062 0.1996 0.15434 0.0
Zn42 Zn 0.51106 0.24918 0.17584 0.0
O43 O 0.51547 0.27483 0.13944 0.0
C44 C 0.56668 0.2419 0.18855 0.0
O45 O 0.55968 0.22567 0.15658 0.0
O46 O 0.48295 0.26122 0.20624 0.0
C47 C 0.52825 0.30607 0.14596 0.0
O48 O 0.53688 0.3225 0.17769 0.0
C49 C 0.49449 0.18917 0.12242 0.0
O50 O 0.48771 0.2099 0.10441 0.0
O51 O 0.5493 0.25724 0.20312 0.0
C52 C 0.07301 0.81345 0.13995 0.0
O53 O 0.06563 0.80217 0.10704 0.0
O54 O 0.12302 0.77798 0.09392 0.0
Zn55 Zn 0.131 0.82954 0.12068 0.0
O56 O 0.12554 0.87263 0.09969 0.0
C57 C 0.19144 0.82609 0.14574 0.0
O58 O 0.19026 0.80952 0.11424 0.0
O59 O 0.09965 0.82641 0.1516 0.0
C60 C 0.11419 0.87722 0.07162 0.0
O61 O 0.1045 0.85078 0.04607 0.0
C62 C 0.12163 0.75698 0.06553 0.0
O63 O 0.12609 0.76872 0.03826 0.0
O64 O 0.17006 0.83856 0.15386 0.0
C65 C 0.58313 0.76589 0.40764 0.0
O66 O 0.58275 0.74029 0.42213 0.0
O67 O 0.53361 0.73109 0.45996 0.0
Zn68 Zn 0.53042 0.77582 0.44004 0.0
O69 O 0.53909 0.8272 0.46822 0.0
C70 C 0.46579 0.7541 0.40448 0.0
O71 O 0.45905 0.7343 0.42554 0.0
O72 O 0.56327 0.78179 0.41116 0.0
C73 C 0.54065 0.84931 0.49592 0.0
O74 O 0.53488 0.83882 0.52357 0.0
C75 C 0.5457 0.7262 0.48752 0.0
O76 O 0.55768 0.75278 0.51226 0.0
O77 O 0.49227 0.77044 0.40639 0.0
C78 C 0.572 0.31853 0.64187 0.0
O79 O 0.56383 0.31023 0.60897 0.0
O80 O 0.61873 0.27811 0.59321 0.0
Zn81 Zn 0.6292 0.32998 0.62005 0.0
O82 O 0.62487 0.37385 0.59947 0.0
C83 C 0.68639 0.31743 0.64302 0.0
O84 O 0.67937 0.29448 0.61426 0.0
O85 O 0.59901 0.32834 0.65286 0.0
C86 C 0.61302 0.37904 0.57196 0.0
O87 O 0.60138 0.35272 0.54682 0.0
C88 C 0.62065 0.25752 0.56575 0.0
O89 O 0.6318 0.2698 0.54107 0.0
O90 O 0.66949 0.33709 0.6506 0.0
C91 C 0.08675 0.28654 0.91823 0.0
O92 O 0.09482 0.29765 0.95105 0.0
O93 O 0.03478 0.23044 0.96216 0.0
Zn94 Zn 0.03064 0.27469 0.9417 0.0
O95 O 0.04379 0.32705 0.96781 0.0
C96 C 0.97199 0.24914 0.89111 0.0
O97 O 0.97867 0.22015 0.88013 0.0
O98 O 0.05976 0.27473 0.90738 0.0
C99 C 0.04047 0.34834 0.99407 0.0
O100 O 0.02582 0.33695 0.01705 0.0
C101 C 0.04708 0.22517 0.98942 0.0
O102 O 0.05921 0.25151 0.01435 0.0
O103 O 0.98918 0.27151 0.91517 0.0
C104 C 0.412 0.11404 0.33875 0.0
O105 O 0.44013 0.12425 0.34787 0.0
O106 O 0.43501 0.03852 0.29103 0.0
Zn107 Zn 0.42317 0.05097 0.33726 0.0
O108 O 0.45968 0.06844 0.36806 0.0
C109 C 0.38099 0.98999 0.32725 0.0
O110 O 0.36909 1.00311 0.30462 0.0
O111 O 0.39914 0.08361 0.33785 0.0
C112 C 0.47584 0.04802 0.36249 0.0
O113 O 0.46615 0.01928 0.33967 0.0
C114 C 0.45639 0.05831 0.28296 0.0
O115 O 0.46715 0.08872 0.30255 0.0
O116 O 0.40305 1.00808 0.34743 0.0
C117 C 0.35704 0.18206 0.52815 0.0
O118 O 0.36247 0.21436 0.54341 0.0
O119 O 0.30603 0.22139 0.55892 0.0
Zn120 Zn 0.30247 0.19432 0.5098 0.0
O121 O 0.31016 0.21821 0.47086 0.0
C122 C 0.24145 0.17289 0.50798 0.0
O123 O 0.2463 0.20563 0.5211 0.0
O124 O 0.33228 0.16743 0.51121 0.0
C125 C 0.32672 0.24684 0.4706 0.0
O126 O 0.33993 0.26741 0.49938 0.0
C127 C 0.30501 0.25012 0.57664 0.0
O128 O 0.30078 0.2741 0.5616 0.0
O129 O 0.26273 0.16099 0.49935 0.0
C130 C 0.24309 0.95785 0.75996 0.0
O131 O 0.24346 0.9623 0.72892 0.0
O132 O 0.17817 1.01759 0.72606 0.0
Zn133 Zn 0.20377 0.01976 0.77843 0.0
O134 O 0.17639 0.01872 0.82315 0.0
C135 C 0.23826 0.08895 0.76611 0.0
O136 O 0.22556 0.07418 0.73512 0.0
O137 O 0.22967 0.9767 0.78007 0.0
C138 C 0.16798 0.04268 0.84303 0.0
O139 O 0.1746 0.07296 0.8364 0.0
C140 C 0.15861 0.03323 0.71763 0.0
O141 O 0.14928 0.05171 0.74257 0.0
O142 O 0.23376 0.07141 0.78896 0.0
C143 C 0.32278 0.02175 0.01259 0.0
O144 O 0.31195 0.99617 0.98645 0.0
O145 O 0.36244 0.96284 0.0572 0.0
Zn146 Zn 0.36529 0.98555 0.01948 0.0
O147 O 0.34744 0.94948 0.97788 0.0
C148 C 0.4197 0.97462 0.01518 0.0
O149 O 0.40422 0.94431 0.01572 0.0
O150 O 0.34681 0.02354 0.0293 0.0
C151 C 0.36173 0.94657 0.95301 0.0
O152 O 0.38377 0.97151 0.95168 0.0
C153 C 0.34456 0.93433 0.05333 0.0
O154 O 0.32296 0.92473 0.02849 0.0
O155 O 0.40754 0.99916 0.01736 0.0
C156 C 0.31422 0.43649 0.05324 0.0
O157 O 0.31571 0.43123 0.08405 0.0
O158 O 0.35084 0.38078 0.08415 0.0
Zn159 Zn 0.35771 0.3964 0.04054 0.0
O160 O 0.34917 0.35994 0.99588 0.0
C161 C 0.41305 0.44941 0.06841 0.0
O162 O 0.40077 0.45964 0.09505 0.0
O163 O 0.3304 0.42524 0.03282 0.0
C164 C 0.36773 0.36145 0.97504 0.0
O165 O 0.39357 0.38189 0.98532 0.0
C166 C 0.34211 0.35038 0.08711 0.0
O167 O 0.33719 0.32545 0.05996 0.0
O168 O 0.39887 0.42459 0.04482 0.0
C169 C 0.84875 0.11202 0.03909 0.0
O170 O 0.85718 0.14519 0.04348 0.0
O171 O 0.81234 0.16669 0.0857 0.0
Zn172 Zn 0.79823 0.13086 0.04428 0.0
O173 O 0.79991 0.15144 1.00454 0.0
C174 C 0.74234 0.13271 0.05493 0.0
O175 O 0.7549 0.16485 0.05755 0.0
O176 O 0.82236 0.09836 0.03991 0.0
C177 C 0.78307 0.13689 0.97727 0.0
O178 O 0.76537 0.10707 0.97508 0.0
C179 C 0.81597 0.19801 0.08618 0.0
O180 O 0.8158 0.20827 0.0577 0.0
O181 O 0.75698 0.11071 0.04805 0.0
C182 C 0.25241 0.48004 0.19217 0.0
O183 O 0.25306 0.45278 0.16951 0.0
O184 O 0.19896 0.5443 0.19474 0.0
Zn185 Zn 0.23681 0.54308 0.2158 0.0
O186 O 0.22745 0.53859 0.26261 0.0
C187 C 0.2602 0.60568 0.19863 0.0
O188 O 0.23855 0.59349 0.17391 0.0
O189 O 0.24355 0.50358 0.18289 0.0
C190 C 0.23166 0.56645 0.28466 0.0
O191 O 0.24897 0.59373 0.27926 0.0
C192 C 0.18266 0.56316 0.20548 0.0
O193 O 0.19168 0.5881 0.23254 0.0
O194 O 0.26582 0.58682 0.21786 0.0
C195 C 0.80384 0.92293 0.53836 0.0
O196 O 0.7919 0.89247 0.54231 0.0
O197 O 0.8509 0.88476 0.58667 0.0
Zn198 Zn 0.85674 0.9 0.54241 0.0
O199 O 0.84798 0.86411 0.49693 0.0
C200 C 0.91357 0.94989 0.57065 0.0
O201 O 0.90304 0.95745 0.59931 0.0
O202 O 0.83107 0.93165 0.53805 0.0
C203 C 0.86826 0.86188 0.47862 0.0
O204 O 0.89493 0.87837 0.49157 0.0
C205 C 0.83053 0.86157 0.59206 0.0
O206 O 0.81182 0.84196 0.56637 0.0
O207 O 0.89793 0.92758 0.54587 0.0
C208 C 0.91663 0.14658 0.30016 0.0
O209 O 0.91685 0.1422 0.33126 0.0
O210 O 0.97703 0.07453 0.23312 0.0
Zn211 Zn 0.95354 0.08273 0.28144 0.0
O212 O 0.97965 0.0856 0.33401 0.0
C213 C 0.92837 1.00479 0.26965 0.0
O214 O 0.95525 1.00559 0.26435 0.0
O215 O 0.92921 0.12717 0.27945 0.0
C216 C 0.99811 0.06902 0.34353 0.0
O217 O 1.00615 0.04812 0.31944 0.0
C218 C 0.99834 0.09323 0.22186 0.0
O219 O 1.01093 0.12314 0.2416 0.0
O220 O 0.92145 0.03361 0.2762 0.0
C221 C 0.34636 0.60633 0.54421 0.0
O222 O 0.35063 0.63846 0.54301 0.0
O223 O 0.30798 0.66164 0.58831 0.0
Zn224 Zn 0.29344 0.61833 0.55424 0.0
O225 O 0.28867 0.63268 0.5109 0.0
C226 C 0.24177 0.60749 0.5864 0.0
O227 O 0.25657 0.63205 0.61162 0.0
O228 O 0.32217 0.59102 0.55098 0.0
C229 C 0.26406 0.63215 0.4962 0.0
O230 O 0.24051 0.61606 0.50615 0.0
C231 C 0.29414 0.68429 0.58735 0.0
O232 O 0.27117 0.67796 0.56479 0.0
O233 O 0.25466 0.59452 0.56291 0.0
C234 C 0.41572 0.64555 0.79961 0.0
O235 O 0.41608 0.64166 0.83088 0.0
O236 O 0.47638 0.57328 0.73345 0.0
Zn237 Zn 0.4529 0.58164 0.78168 0.0
O238 O 0.47969 0.58583 0.83401 0.0
C239 C 0.41921 0.50315 0.75836 0.0
O240 O 0.4352 0.50248 0.73354 0.0
O241 O 0.42824 0.62584 0.77911 0.0
C242 C 0.49743 0.56844 0.84352 0.0
O243 O 0.50408 0.54607 0.81957 0.0
C244 C 0.49683 0.59288 0.72186 0.0
O245 O 0.508 0.62348 0.74097 0.0
O246 O 0.42175 0.53215 0.77909 0.0
C247 C 0.73849 0.97685 0.72027 0.0
O248 O 0.71085 0.97532 0.72168 0.0
O249 O 0.70302 0.03427 0.68578 0.0
Zn250 Zn 0.73767 0.04044 0.71829 0.0
O251 O 0.72291 0.04399 0.76361 0.0
C252 C 0.76123 0.10644 0.70909 0.0
O253 O 0.73741 0.09958 0.68777 0.0
O254 O 0.75319 1.0004 0.7087 0.0
C255 C 0.72841 0.07176 0.78587 0.0
O256 O 0.74805 0.09793 0.78195 0.0
C257 C 0.68443 0.05038 0.69554 0.0
O258 O 0.68998 0.07248 0.72482 0.0
O259 O 0.76793 0.08292 0.72106 0.0
C260 C 0.85309 0.66781 1.00067 0.0
O261 O 0.85314 0.67604 0.97114 0.0
O262 O 0.80424 0.72777 0.05925 0.0
Zn263 Zn 0.80286 0.69841 0.01178 0.0
O264 O 0.81086 0.72105 0.97187 0.0
C265 C 0.74158 0.67507 1.00823 0.0
O266 O 0.74552 0.70796 0.01978 0.0
O267 O 0.83395 0.67404 0.01929 0.0
C268 C 0.82507 0.75102 0.97206 0.0
O269 O 0.83548 0.77265 1.0012 0.0
C270 C 0.80444 0.75682 0.07731 0.0
O271 O 0.8037 0.78224 0.06288 0.0
O272 O 0.76353 0.66373 1.00123 0.0
C273 C 0.91038 0.61156 0.84612 0.0
O274 O 0.93825 0.62185 0.84479 0.0
O275 O 0.93875 0.55454 0.7945 0.0
Zn276 Zn 0.92454 0.55151 0.83933 0.0
O277 O 0.95927 0.56158 0.87218 0.0
C278 C 0.9112 0.48245 0.81347 0.0
O279 O 0.93728 0.49171 0.80505 0.0
O280 O 0.90091 0.5831 0.85295 0.0
C281 C 0.96802 0.53776 0.8811 0.0
O282 O 0.95096 0.50703 0.87444 0.0
C283 C 0.96477 0.56945 0.79299 0.0
O284 O 0.98077 0.58945 0.82055 0.0
O285 O 0.90052 0.50433 0.83124 0.0
C286 C 0.81569 0.50324 0.51369 0.0
O287 O 0.80526 0.47036 0.50204 0.0
O288 O 0.86395 0.46708 0.56974 0.0
Zn289 Zn 0.86575 0.48145 0.5264 0.0
O290 O 0.85187 0.44024 0.48901 0.0
C291 C 0.92112 0.47572 0.52288 0.0
O292 O 0.90735 0.44603 0.52727 0.0
O293 O 0.84252 0.51473 0.52429 0.0
C294 C 0.86407 0.44053 0.46256 0.0
O295 O 0.88137 0.46881 0.45921 0.0
C296 C 0.8472 0.4393 0.57165 0.0
O297 O 0.82756 0.42225 0.54573 0.0
O298 O 0.90759 0.49888 0.5234 0.0
C299 C 0.74351 0.45925 0.2615 0.0
O300 O 0.7448 0.46426 0.23073 0.0
O301 O 0.67836 0.51831 0.22549 0.0
Zn302 Zn 0.70301 0.52039 0.27824 0.0
O303 O 0.67406 0.52045 0.32144 0.0
C304 C 0.73959 0.58861 0.26566 0.0
O305 O 0.73103 0.57236 0.23388 0.0
O306 O 0.72927 0.47755 0.28105 0.0
C307 C 0.67964 0.54037 0.35181 0.0
O308 O 0.70417 0.56388 0.35841 0.0
C309 C 0.65801 0.53283 0.21702 0.0
O310 O 0.64729 0.5495 0.24194 0.0
O311 O 0.73193 0.57231 0.28876 0.0
Gd312 Gd 0.11141 0.07752 0.05306 0.0
Gd313 Gd 0.04685 0.02191 1.00588 0.0
C314 C 0.02505 0.91126 0.01748 0.0
C315 C 0.02542 0.87972 0.9604 0.0
C316 C 0.03603 0.94159 0.97329 0.0
C317 C 0.03244 0.94215 1.00681 0.0
C318 C 0.03238 0.91025 0.94971 0.0
C319 C 0.02167 0.88022 0.99419 0.0
C320 C 0.02123 0.91231 0.05131 0.0
C321 C 0.02481 0.9435 0.0737 0.0
N322 N 0.03623 0.97264 0.02898 0.0
C323 C 0.03222 0.97337 0.06219 0.0
H324 H 0.03575 0.99658 0.08096 0.0
C325 C 0.04231 0.97108 0.92954 0.0
N326 N 0.04224 0.97143 0.96343 0.0
C327 C 0.04029 0.94097 0.90572 0.0
C328 C 0.03541 0.91037 0.91584 0.0
H329 H 0.04484 0.99441 0.92084 0.0
H330 H 0.01607 0.85641 1.00205 0.0
H331 H 0.11843 0.11454 0.98485 0.0
H332 H 0.0156 0.8892 0.06041 0.0
H333 H 0.02213 0.94466 0.10007 0.0
H334 H 0.02253 0.85553 0.94263 0.0
H335 H 0.12084 0.09104 0.13748 0.0
H336 H 0.14436 0.22148 0.02074 0.0
H337 H 0.13246 0.17055 0.97361 0.0
H338 H 0.15168 0.23778 0.1412 0.0
H339 H 0.04218 0.94139 0.87947 0.0
H340 H 0.03315 0.88691 0.89714 0.0
H341 H 0.15118 0.24624 0.08308 0.0
H342 H 0.13489 0.13899 0.18762 0.0
N343 N 0.12235 0.13152 0.03875 0.0
C344 C 0.13837 0.19649 0.02609 0.0
C345 C 0.13181 0.16787 0.9995 0.0
C346 C 0.13749 0.19251 0.0593 0.0
C347 C 0.12942 0.15934 0.06493 0.0
C348 C 0.12417 0.13562 1.00629 0.0
N349 N 0.1226 0.12251 0.10198 0.0
C350 C 0.12944 0.15467 0.09753 0.0
C351 C 0.13328 0.14382 0.16245 0.0
C352 C 0.13939 0.17707 0.15824 0.0
C353 C 0.12528 0.11675 0.13396 0.0
C354 C 0.13785 0.18286 0.12553 0.0
H355 H 0.14585 0.19805 0.18035 0.0
O356 O 0.14717 0.07164 0.08573 0.0
O357 O 0.08961 0.022 0.03197 0.0
O358 O 0.03591 0.04323 0.06057 0.0
O359 O 0.07736 0.08292 0.08994 0.0
O360 O 0.10537 0.03665 0.08292 0.0
O361 O 0.15263 0.07729 0.03456 0.0
O362 O 0.01329 1.01691 0.96472 0.0
O363 O 0.06831 0.07734 0.0269 0.0
O364 O 0.12039 0.06422 0.997 0.0
O365 O 0.08188 0.01997 0.96922 0.0
O366 O 0.05052 0.06336 0.97674 0.0
O367 O 1.00231 1.01802 0.01639 0.0
C368 C 0.09421 1.01074 0.05836 0.0
C369 C 0.14525 0.21585 0.12004 0.0
C370 C 0.14501 0.22066 0.08698 0.0
C371 C 0.16476 0.07409 0.06316 0.0
C372 C 0.19449 0.09388 0.07467 0.0
C373 C 0.20185 0.12404 0.1 0.0
C374 C 0.21613 0.08096 0.05994 0.0
C375 C 0.24533 0.09792 0.06974 0.0
C376 C 0.23103 0.14104 0.11027 0.0
C377 C 0.25274 0.12809 0.0952 0.0
C378 C 0.05 0.06568 0.08902 0.0
C379 C 0.06284 0.08912 1.00103 0.0
C380 C 0.99334 1.01528 0.98454 0.0
C381 C 0.96308 1.01089 0.97161 0.0
C382 C 0.95114 0.99002 0.93953 0.0
C383 C 0.94652 0.02949 0.99052 0.0
C384 C 0.91818 0.02771 0.97735 0.0
C385 C 0.92262 0.98781 0.92658 0.0
C386 C 0.90619 1.00677 0.94538 0.0
C387 C 0.10772 0.04042 0.96929 0.0
H388 H 0.18526 0.13426 0.11185 0.0
H389 H 0.21009 0.05702 0.04117 0.0
H390 H 0.23684 0.16424 0.12991 0.0
H391 H 0.27518 0.1417 0.10314 0.0
H392 H 0.9639 0.97569 0.92449 0.0
H393 H 0.95589 0.04607 0.01508 0.0
H394 H 0.91345 0.97189 0.90177 0.0
H395 H 0.88448 1.00595 0.93476 0.0
Gd396 Gd 0.30969 0.80239 0.31462 0.0
Gd397 Gd 0.35018 0.78977 0.24085 0.0
C398 C 0.32522 0.68884 0.16016 0.0
C399 C 0.36922 0.66923 0.16395 0.0
C400 C 0.36657 0.72244 0.20068 0.0
C401 C 0.33842 0.71786 0.18628 0.0
C402 C 0.3826 0.69867 0.18892 0.0
C403 C 0.34053 0.66426 0.14968 0.0
C404 C 0.29729 0.68569 0.14465 0.0
C405 C 0.28349 0.71151 0.1545 0.0
N406 N 0.32432 0.74231 0.1968 0.0
C407 C 0.29737 0.73975 0.18034 0.0
H408 H 0.28528 0.75827 0.18735 0.0
C409 C 0.40818 0.75932 0.23518 0.0
N410 N 0.37898 0.75124 0.22454 0.0
C411 C 0.4249 0.73655 0.22446 0.0
C412 C 0.41195 0.7058 0.20161 0.0
H413 H 0.41863 0.78346 0.25228 0.0
H414 H 0.33063 0.64177 0.1299 0.0
H415 H 0.37464 0.83576 0.36693 0.0
H416 H 0.28641 0.66376 0.12469 0.0
H417 H 0.26192 0.70953 0.14248 0.0
H418 H 0.38111 0.65058 0.15486 0.0
H419 H 0.24062 0.80622 0.30758 0.0
H420 H 0.37681 0.93646 0.4183 0.0
H421 H 0.40004 0.88864 0.40617 0.0
H422 H 0.28146 0.94793 0.38724 0.0
H423 H 0.44783 0.74292 0.23357 0.0
H424 H 0.425 0.6883 0.19306 0.0
H425 H 0.3328 0.95874 0.41022 0.0
H426 H 0.21173 0.84821 0.32286 0.0
N427 N 0.33613 0.85197 0.35562 0.0
C428 C 0.36514 0.91285 0.40101 0.0
C429 C 0.37826 0.88591 0.3943 0.0
C430 C 0.33681 0.90867 0.38604 0.0
C431 C 0.32259 0.87742 0.36357 0.0
C432 C 0.3634 0.85552 0.37171 0.0
N433 N 0.2808 0.84075 0.33025 0.0
C434 C 0.29401 0.87163 0.3503 0.0
C435 C 0.23492 0.8553 0.33046 0.0
C436 C 0.24866 0.88817 0.34874 0.0
C437 C 0.25133 0.83161 0.32192 0.0
C438 C 0.27847 0.8965 0.35956 0.0
H439 H 0.23593 0.90651 0.35538 0.0
O440 O 0.27348 0.77005 0.32999 0.0
O441 O 0.32047 0.76569 0.27263 0.0
O442 O 0.30853 0.80542 0.22653 0.0
O443 O 0.2851 0.81983 0.27373 0.0
O444 O 0.27694 0.75931 0.27936 0.0
O445 O 0.31607 0.78363 0.35986 0.0
O446 O 0.38787 0.81877 0.22452 0.0
O447 O 0.3388 0.82534 0.2823 0.0
O448 O 0.35097 0.78615 0.32956 0.0
O449 O 0.37497 0.77414 0.28234 0.0
O450 O 0.38201 0.8347 0.27585 0.0
O451 O 0.3446 0.81469 0.20001 0.0
C452 C 0.29528 0.74714 0.26229 0.0
C453 C 0.2929 0.9283 0.38034 0.0
C454 C 0.32208 0.93441 0.39349 0.0
C455 C 0.28885 0.76781 0.3569 0.0
C456 C 0.27538 0.76997 0.38771 0.0
C457 C 0.26243 0.79628 0.40038 0.0
C458 C 0.27472 0.74356 0.40395 0.0
C459 C 0.26095 0.74261 0.43278 0.0
C460 C 0.24839 0.7954 0.42922 0.0
C461 C 0.24744 0.76847 0.44534 0.0
C462 C 0.28716 0.81623 0.24082 0.0
C463 C 0.36297 0.84589 0.2924 0.0
C464 C 0.37243 0.82505 0.19989 0.0
C465 C 0.3823 0.82016 0.16672 0.0
C466 C 0.40247 0.80106 0.15768 0.0
C467 C 0.37195 0.83701 0.14411 0.0
C468 C 0.38221 0.83623 0.11304 0.0
C469 C 0.41261 0.79992 0.1262 0.0
C470 C 0.40284 0.81797 0.10399 0.0
C471 C 0.37264 0.77664 0.31491 0.0
H472 H 0.26296 0.81708 0.388 0.0
H473 H 0.28463 0.7232 0.39371 0.0
H474 H 0.23822 0.81552 0.43901 0.0
H475 H 0.23664 0.76807 0.46772 0.0
H476 H 0.41071 0.78764 0.17494 0.0
H477 H 0.35673 0.85225 0.1514 0.0
H478 H 0.42848 0.78569 0.11935 0.0
H479 H 0.41152 0.81807 0.08021 0.0
Gd480 Gd 0.54664 0.04905 0.54276 0.0
Gd481 Gd 0.61727 0.05725 0.51294 0.0
C482 C 0.6758 0.15835 0.50625 0.0
C483 C 0.67669 0.15086 0.4455 0.0
C484 C 0.64864 0.10575 0.46804 0.0
C485 C 0.65718 0.12556 0.50065 0.0
C486 C 0.6588 0.11789 0.44015 0.0
C487 C 0.68512 0.17108 0.47847 0.0
C488 C 0.68504 0.17708 0.53963 0.0
C489 C 0.67638 0.16267 0.56645 0.0
N490 N 0.64817 0.11231 0.52698 0.0
C491 C 0.65816 0.12994 0.55965 0.0
H492 H 0.65183 0.11925 0.58075 0.0
C493 C 0.6254 0.05199 0.43251 0.0
N494 N 0.63159 0.07387 0.46374 0.0
C495 C 0.6348 0.06297 0.40407 0.0
C496 C 0.65134 0.09617 0.40784 0.0
H497 H 0.61272 0.02625 0.42949 0.0
H498 H 0.69932 0.19625 0.48227 0.0
H499 H 0.51201 0.98831 0.47388 0.0
H500 H 0.69927 0.20238 0.54498 0.0
H501 H 0.68376 0.17672 0.59238 0.0
H502 H 0.68459 0.16072 0.42437 0.0
H503 H 0.55024 0.07849 0.62627 0.0
H504 H 0.46468 0.90373 0.50759 0.0
H505 H 0.48022 0.93074 0.46104 0.0
H506 H 0.47888 0.94285 0.62848 0.0
H507 H 0.6294 0.04578 0.37929 0.0
H508 H 0.65876 0.10454 0.38579 0.0
H509 H 0.46447 0.90839 0.57011 0.0
H510 H 0.53328 0.05773 0.67576 0.0
N511 N 0.51558 0.99404 0.52753 0.0
C512 C 0.47884 0.9291 0.51348 0.0
C513 C 0.48751 0.94427 0.48715 0.0
C514 C 0.48797 0.94716 0.54711 0.0
C515 C 0.50654 0.98005 0.55341 0.0
C516 C 0.50566 0.97707 0.49464 0.0
N517 N 0.53185 0.03124 0.59123 0.0
C518 C 0.51495 0.99921 0.58627 0.0
C519 C 0.52814 0.04094 0.65077 0.0
C520 C 0.51179 1.00755 0.64632 0.0
C521 C 0.5377 0.05262 0.62273 0.0
C522 C 0.50464 0.98636 0.61373 0.0
H523 H 0.50423 0.99864 0.66806 0.0
O524 O 0.52624 0.08971 0.56054 0.0
O525 O 0.58508 0.08557 0.53204 0.0
O526 O 0.61929 0.06424 0.56974 0.0
O527 O 0.57487 0.03357 0.57979 0.0
O528 O 0.56928 0.10051 0.57664 0.0
O529 O 0.50535 0.04992 0.51647 0.0
O530 O 0.63816 1.01692 0.49574 0.0
O531 O 0.57888 0.02104 0.52394 0.0
O532 O 0.54504 0.04275 0.48604 0.0
O533 O 0.58947 0.0733 0.476 0.0
O534 O 0.59473 1.00494 0.47989 0.0
O535 O 0.65874 0.05729 0.53951 0.0
C536 C 0.5881 0.1103 0.55743 0.0
C537 C 0.48686 0.95326 0.60769 0.0
C538 C 0.47861 0.93366 0.57445 0.0
C539 C 0.50343 0.0771 0.53794 0.0
C540 C 0.4757 0.07658 0.55097 0.0
C541 C 0.46682 0.05732 0.57459 0.0
C542 C 0.45892 0.0977 0.54158 0.0
C543 C 0.43357 0.09976 0.556 0.0
C544 C 0.44155 0.0594 0.58896 0.0
C545 C 0.42496 0.08064 0.57978 0.0
C546 C 0.6026 0.04819 0.58868 0.0
C547 C 0.57577 0.99575 0.49918 0.0
C548 C 0.66094 0.03006 0.51835 0.0
C549 C 0.68882 0.0307 0.50555 0.0
C550 C 0.69684 0.04785 0.48012 0.0
C551 C 0.70662 1.01167 0.51718 0.0
C552 C 0.73221 1.00916 0.5031 0.0
C553 C 0.72221 0.04566 0.46614 0.0
C554 C 0.73974 0.02631 0.47735 0.0
C555 C 0.56169 0.05908 0.46725 0.0
H556 H 0.47948 0.04109 0.58229 0.0
H557 H 0.46579 0.11291 0.52357 0.0
H558 H 0.43495 0.04473 0.60741 0.0
H559 H 0.40547 0.08222 0.59122 0.0
H560 H 0.68337 0.0624 0.47065 0.0
H561 H 0.70035 0.99865 0.53699 0.0
H562 H 0.72808 0.05859 0.44618 0.0
H563 H 0.7589 0.02428 0.46538 0.0
Gd564 Gd 0.36403 0.29089 0.7816 0.0
Gd565 Gd 0.29242 0.30975 0.77281 0.0
C566 C 0.24294 0.29887 0.66812 0.0
C567 C 0.24087 0.35697 0.66917 0.0
C568 C 0.26463 0.34339 0.71793 0.0
C569 C 0.25851 0.30972 0.7011 0.0
C570 C 0.25508 0.36726 0.7026 0.0
C571 C 0.23486 0.32282 0.65193 0.0
C572 C 0.23494 0.26415 0.65293 0.0
C573 C 0.24129 0.24113 0.67118 0.0
N574 N 0.26596 0.28721 0.7179 0.0
C575 C 0.25636 0.25312 0.70395 0.0
H576 H 0.2606 0.23477 0.71743 0.0
C577 C 0.27961 0.38385 0.77007 0.0
N578 N 0.27764 0.35222 0.75045 0.0
C579 C 0.27088 0.40856 0.7559 0.0
C580 C 0.25893 0.40038 0.72185 0.0
H581 H 0.28878 0.39024 0.79646 0.0
H582 H 0.22309 0.315 0.62653 0.0
H583 H 0.39816 0.36978 0.83016 0.0
H584 H 0.22304 0.25479 0.62763 0.0
H585 H 0.23451 0.21411 0.66011 0.0
H586 H 0.23359 0.37499 0.65685 0.0
H587 H 0.36762 0.20994 0.76611 0.0
H588 H 0.43563 0.3583 0.92425 0.0
H589 H 0.4254 0.39489 0.88628 0.0
H590 H 0.42136 0.23808 0.90843 0.0
H591 H 0.27322 0.43383 0.77129 0.0
H592 H 0.25187 0.41945 0.71101 0.0
H593 H 0.43334 0.29967 0.93261 0.0
H594 H 0.38217 0.16962 0.79715 0.0
N595 N 0.39155 0.31834 0.83526 0.0
C596 C 0.42348 0.34684 0.89931 0.0
C597 C 0.41781 0.36754 0.87794 0.0
C598 C 0.41437 0.31156 0.88773 0.0
C599 C 0.39853 0.2979 0.85505 0.0
C600 C 0.40208 0.35287 0.84578 0.0
N601 N 0.37861 0.25152 0.80916 0.0
C602 C 0.39164 0.26333 0.84162 0.0
C603 C 0.38472 0.19584 0.81008 0.0
C604 C 0.39628 0.20709 0.84427 0.0
C605 C 0.37659 0.21869 0.79259 0.0
C606 C 0.40057 0.24138 0.86024 0.0
H607 H 0.40283 0.18943 0.85771 0.0
O608 O 0.38884 0.26821 0.74487 0.0
O609 O 0.32817 0.29587 0.74589 0.0
O610 O 0.28772 0.25256 0.7706 0.0
O611 O 0.3316 0.24567 0.79384 0.0
O612 O 0.34434 0.2534 0.73255 0.0
O613 O 0.40454 0.32081 0.77097 0.0
O614 O 0.26829 0.3278 0.81293 0.0
O615 O 0.32843 0.30485 0.80833 0.0
O616 O 0.36895 0.34729 0.77925 0.0
O617 O 0.32396 0.35531 0.7607 0.0
O618 O 0.31223 0.34736 0.82169 0.0
O619 O 0.25109 0.27844 0.77976 0.0
C620 C 0.32649 0.26972 0.72274 0.0
C621 C 0.41469 0.2546 0.89356 0.0
C622 C 0.42155 0.28965 0.9073 0.0
C623 C 0.40985 0.29549 0.74981 0.0
C624 C 0.43954 0.29077 0.75403 0.0
C625 C 0.44855 0.27732 0.7808 0.0
C626 C 0.45896 0.29934 0.731 0.0
C627 C 0.4873 0.29445 0.7348 0.0
C628 C 0.47629 0.27203 0.78447 0.0
C629 C 0.4955 0.28041 0.7617 0.0
C630 C 0.30336 0.23369 0.78276 0.0
C631 C 0.33036 0.33128 0.83116 0.0
C632 C 0.24651 0.30123 0.80452 0.0
C633 C 0.21744 0.30798 0.80246 0.0
C634 C 0.20812 0.32202 0.7763 0.0
C635 C 0.19888 0.30068 0.82675 0.0
C636 C 0.17097 0.30693 0.82436 0.0
C637 C 0.1809 0.3289 0.77426 0.0
C638 C 0.16243 0.32137 0.79798 0.0
C639 C 0.35258 0.36651 0.76912 0.0
H640 H 0.43414 0.27073 0.79879 0.0
H641 H 0.4521 0.31007 0.71049 0.0
H642 H 0.48293 0.26127 0.80502 0.0
H643 H 0.51672 0.27544 0.76498 0.0
H644 H 0.22184 0.32765 0.75739 0.0
H645 H 0.2059 0.28969 0.84698 0.0
H646 H 0.17403 0.34002 0.7541 0.0
H647 H 0.14142 0.32709 0.79582 0.0
Gd648 Gd 0.08365 1.0153 0.50968 0.0
Gd649 Gd 0.07124 0.09031 0.55474 0.0
C650 C 0.10095 0.13208 0.66792 0.0
C651 C 0.05536 0.13387 0.68973 0.0
C652 C 0.05581 0.11183 0.62957 0.0
C653 C 0.08581 0.11785 0.63494 0.0
C654 C 0.04036 0.12025 0.65688 0.0
C655 C 0.08555 0.13971 0.69523 0.0
C656 C 0.13121 0.13882 0.67245 0.0
C657 C 0.14574 0.13207 0.64447 0.0
N658 N 0.10026 0.11068 0.60798 0.0
C659 C 0.12992 0.11838 0.61225 0.0
H660 H 0.14181 0.11359 0.59115 0.0
C661 C 0.01263 0.09567 0.59073 0.0
N662 N 0.0418 0.09893 0.59753 0.0
C663 C 0.99644 0.10341 0.61702 0.0
C664 C 1.01032 0.11552 0.65028 0.0
H665 H 1.00191 0.08662 0.56492 0.0
H666 H 0.09685 0.15063 0.72068 0.0
H667 H 0.01541 0.9957 0.46636 0.0
H668 H 0.14357 0.14966 0.69737 0.0
H669 H 0.16916 0.13755 0.64765 0.0
H670 H 0.04384 0.14045 0.711 0.0
H671 H 0.15166 1.00886 0.50647 0.0
H672 H 0.01849 0.95255 0.36291 0.0
H673 H 0.99084 0.97043 0.40907 0.0
H674 H 0.11796 0.95075 0.35962 0.0
H675 H 0.9733 0.10022 0.61158 0.0
H676 H 0.99774 0.12175 0.67059 0.0
H677 H 0.06596 0.9455 0.3447 0.0
H678 H 0.18217 0.9895 0.46437 0.0
N679 N 0.05781 0.99357 0.45416 0.0
C680 C 0.0297 0.96393 0.38833 0.0
C681 C 0.01403 0.9739 0.41429 0.0
C682 C 0.05955 0.96808 0.39562 0.0
C683 C 0.07313 0.98303 0.4292 0.0
C684 C 0.02837 0.98834 0.44715 0.0
N685 N 0.11422 0.99895 0.47028 0.0
C686 C 0.10227 0.9859 0.43753 0.0
C687 C 0.15976 0.98846 0.45641 0.0
C688 C 0.14798 0.97587 0.42242 0.0
C689 C 0.14239 0.99947 0.48019 0.0
C690 C 0.11881 0.97404 0.41265 0.0
H691 H 0.1614 0.96705 0.40407 0.0
O692 O 0.1 0.97676 0.52781 0.0
O693 O 0.0871 0.04534 0.56403 0.0
O694 O 0.1152 0.10141 0.53719 0.0
O695 O 0.11895 0.05508 0.4964 0.0
O696 O 0.12258 0.0287 0.55088 0.0
O697 O 0.05409 0.96703 0.50962 0.0
O698 O 0.04829 0.12844 0.54845 0.0
O699 O 0.06904 0.06145 0.50016 0.0
O700 O 0.03749 1.00982 0.52162 0.0
O701 O 0.0422 0.04825 0.57194 0.0
O702 O 0.03345 0.0785 0.51219 0.0
O703 O 0.09614 0.14218 0.55943 0.0
C704 C 0.11216 0.04322 0.57651 0.0
C705 C 0.1056 0.95996 0.37907 0.0
C706 C 0.07601 0.95697 0.37058 0.0
C707 C 0.07451 0.95601 0.52335 0.0
C708 C 0.07283 0.91986 0.51529 0.0
C709 C 0.08508 0.90417 0.48827 0.0
C710 C 0.06118 0.90169 0.5383 0.0
C711 C 0.06289 0.86812 0.53595 0.0
C712 C 0.08571 0.8701 0.48471 0.0
C713 C 0.07489 0.85214 0.50856 0.0
C714 C 0.12885 0.0869 0.51371 0.0
C715 C 0.04444 0.06423 0.48688 0.0
C716 C 0.07237 0.15206 0.55453 0.0
C717 C 0.07244 0.18709 0.55509 0.0
C718 C 0.05474 0.2034 0.57482 0.0
C719 C 0.08978 0.20407 0.53494 0.0
C720 C 0.08945 0.23744 0.53419 0.0
C721 C 0.05487 0.23706 0.57469 0.0
C722 C 0.07223 0.25415 0.55446 0.0
C723 C 0.0279 0.0202 0.55039 0.0
H724 H 0.09452 0.91832 0.47054 0.0
H725 H 0.05161 0.91431 0.55894 0.0
H726 H 0.09532 0.85786 0.464 0.0
H727 H 0.07668 0.82625 0.50613 0.0
H728 H 0.04104 0.1902 0.59034 0.0
H729 H 0.10311 0.1911 0.51931 0.0
H730 H 0.04129 0.24976 0.58997 0.0
H731 H 0.07167 0.27999 0.55394 0.0
Gd732 Gd 0.2977 0.7774 0.78988 0.0
Gd733 Gd 0.36177 0.82723 0.77161 0.0
C734 C 0.35952 0.92851 0.74522 0.0
C735 C 0.37268 0.91998 0.68817 0.0
C736 C 0.37015 0.87542 0.71925 0.0
C737 C 0.36182 0.89545 0.74641 0.0
C738 C 0.37657 0.88789 0.69026 0.0
C739 C 0.36415 0.94024 0.7156 0.0
C740 C 0.35374 0.94927 0.77424 0.0
C741 C 0.35155 0.93745 0.80388 0.0
N742 N 0.35806 0.88358 0.77488 0.0
C743 C 0.35419 0.90461 0.80391 0.0
H744 H 0.35228 0.89618 0.82715 0.0
C745 C 0.38757 0.82706 0.69908 0.0
N746 N 0.37426 0.84484 0.72232 0.0
C747 C 0.39396 0.8381 0.66966 0.0
C748 C 0.38793 0.86836 0.66492 0.0
H749 H 0.3929 0.80413 0.70314 0.0
H750 H 0.36214 0.9654 0.71409 0.0
H751 H 0.30726 0.70739 0.73723 0.0
H752 H 0.35177 0.97479 0.77433 0.0
H753 H 0.34773 0.95355 0.82673 0.0
H754 H 0.37718 0.92984 0.66594 0.0
H755 H 0.26446 0.80165 0.85635 0.0
H756 H 0.30839 0.63141 0.79354 0.0
H757 H 0.31203 0.65037 0.73987 0.0
H758 H 0.28169 0.67948 0.90009 0.0
H759 H 0.40376 0.82345 0.65084 0.0
H760 H 0.39318 0.87707 0.64228 0.0
H761 H 0.29778 0.64289 0.85366 0.0
H762 H 0.25246 0.78385 0.90905 0.0
N763 N 0.30232 0.72192 0.78951 0.0
C764 C 0.3065 0.65676 0.79266 0.0
C765 C 0.30847 0.66729 0.76231 0.0
C766 C 0.30076 0.67847 0.82106 0.0
C767 C 0.2985 0.71123 0.81857 0.0
C768 C 0.30582 0.69987 0.76101 0.0
N769 N 0.28483 0.7617 0.84001 0.0
C770 C 0.28954 0.73184 0.84473 0.0
C771 C 0.26322 0.76921 0.8914 0.0
C772 C 0.26994 0.73988 0.89793 0.0
C773 C 0.27017 0.77932 0.8617 0.0
C774 C 0.28249 0.72025 0.87402 0.0
H775 H 0.26417 0.73182 0.92074 0.0
O776 O 0.25468 0.78596 0.78333 0.0
O777 O 0.31375 0.82615 0.77206 0.0
O778 O 0.3577 0.84122 0.82646 0.0
O779 O 0.32186 0.80158 0.8418 0.0
O780 O 0.28784 0.82862 0.80994 0.0
O781 O 0.26175 0.73754 0.75976 0.0
O782 O 0.40481 0.81874 0.77205 0.0
O783 O 0.34576 0.7784 0.78939 0.0
O784 O 0.30323 0.7631 0.73462 0.0
O785 O 0.33499 0.80814 0.72132 0.0
O786 O 0.37059 0.77557 0.75052 0.0
O787 O 0.39806 0.86385 0.80469 0.0
C788 C 0.30045 0.84619 0.79007 0.0
C789 C 0.28665 0.68865 0.87759 0.0
C790 C 0.29579 0.66779 0.85115 0.0
C791 C 0.24293 0.75544 0.76571 0.0
C792 C 0.21522 0.7389 0.77479 0.0
C793 C 0.21328 0.72249 0.80176 0.0
C794 C 0.19006 0.74164 0.75689 0.0
C795 C 0.1629 0.72869 0.76598 0.0
C796 C 0.1862 0.70987 0.81126 0.0
C797 C 0.16102 0.71317 0.79361 0.0
C798 C 0.34376 0.8286 0.84927 0.0
C799 C 0.35867 0.75822 0.77094 0.0
C800 C 0.41669 0.84692 0.79412 0.0
C801 C 0.44451 0.86594 0.78774 0.0
C802 C 0.44698 0.88602 0.76377 0.0
C803 C 0.46934 0.86171 0.80498 0.0
C804 C 0.49686 0.87704 0.79841 0.0
C805 C 0.47442 0.90135 0.75693 0.0
C806 C 0.49935 0.89673 0.774 0.0
C807 C 0.31495 0.77953 0.71268 0.0
H808 H 0.23246 0.71957 0.81552 0.0
H809 H 0.19166 0.75453 0.73617 0.0
H810 H 0.18475 0.69755 0.83231 0.0
H811 H 0.14016 0.70314 0.80109 0.0
H812 H 0.42791 0.88956 0.75022 0.0
H813 H 0.46717 0.84554 0.82299 0.0
H814 H 0.47637 0.91666 0.73825 0.0
H815 H 0.52045 0.9087 0.76841 0.0
Gd816 Gd 0.57573 0.06102 0.98752 0.0
Gd817 Gd 0.58614 0.03079 0.06649 0.0
C818 C 0.67026 0.08102 0.13889 0.0
C819 C 0.69167 0.03324 0.13928 0.0
C820 C 0.64484 0.02496 0.10617 0.0
C821 C 0.64619 0.05913 0.11661 0.0
C822 C 0.66717 1.01141 0.1181 0.0
C823 C 0.69325 0.06801 0.14958 0.0
C824 C 0.67026 0.11516 0.15031 0.0
C825 C 0.64629 0.12646 0.14029 0.0
N826 N 0.62353 0.07074 0.10585 0.0
C827 C 0.62289 0.10379 0.11828 0.0
H828 H 0.60493 0.11347 0.1107 0.0
C829 C 0.61678 0.97014 0.07844 0.0
N830 N 0.62099 1.00464 0.08563 0.0
C831 C 0.63828 0.95544 0.08962 0.0
C832 C 0.66382 0.97622 0.10912 0.0
H833 H 0.59707 0.95407 0.06318 0.0
H834 H 0.71202 0.08449 0.16643 0.0
H835 H 0.54855 0.97911 0.94439 0.0
H836 H 0.68835 0.1328 0.16736 0.0
H837 H 0.64585 0.15273 0.14936 0.0
H838 H 0.70921 0.02339 0.1484 0.0
H839 H 0.57326 0.14121 0.9931 0.0
H840 H 0.46633 0.97126 0.8897 0.0
H841 H 0.50473 0.94454 0.90692 0.0
H842 H 0.45872 0.08664 0.90901 0.0
H843 H 0.63517 0.92814 0.08313 0.0
H844 H 0.68045 0.9648 0.11779 0.0
H845 H 0.44926 0.02441 0.8908 0.0
H846 H 0.53958 0.17333 0.97431 0.0
N847 N 0.53529 0.02552 0.94961 0.0
C848 C 0.48565 0.98674 0.90628 0.0
C849 C 0.50727 0.97158 0.91591 0.0
C850 C 0.48954 0.02183 0.9175 0.0
C851 C 0.51502 0.04079 0.93921 0.0
C852 C 0.53224 0.99149 0.93726 0.0
N853 N 0.5451 0.09296 0.97006 0.0
C854 C 0.52012 0.07564 0.94976 0.0
C855 C 0.53376 0.14585 0.96739 0.0
C856 C 0.50719 0.1283 0.94796 0.0
C857 C 0.55276 0.12767 0.97794 0.0
C858 C 0.50023 0.09277 0.93851 0.0
H859 H 0.49249 0.14242 0.93981 0.0
O860 O 0.60767 0.09613 0.96879 0.0
O861 O 0.60511 0.06153 0.03219 0.0
O862 O 0.56538 0.07564 0.07479 0.0
O863 O 0.55024 0.08704 0.0229 0.0
O864 O 0.6077 0.10763 0.01994 0.0
O865 O 0.59164 0.04372 0.94043 0.0
O866 O 0.55962 0.99079 0.08522 0.0
O867 O 0.55684 0.03021 0.02195 0.0
O868 O 0.59168 1.01316 0.97853 0.0
O869 O 0.61205 1.00569 0.02995 0.0
O870 O 0.55431 0.98415 0.03381 0.0
O871 O 0.56491 0.04386 0.11059 0.0
C872 C 0.619 0.0921 0.03992 0.0
C873 C 0.47442 0.07398 0.91767 0.0
C874 C 0.46905 0.03856 0.90727 0.0
C875 C 0.60855 0.07347 0.94181 0.0
C876 C 0.60975 0.08472 0.91028 0.0
C877 C 0.58994 0.10169 0.89897 0.0
C878 C 0.63243 0.07956 0.89203 0.0
C879 C 0.6361 0.09212 0.86294 0.0
C880 C 0.59343 0.11412 0.8697 0.0
C881 C 0.61663 0.10968 0.85185 0.0
C882 C 0.55095 0.09095 0.05606 0.0
C883 C 0.54226 0.99989 0.01467 0.0
C884 C 0.55366 1.01209 0.11034 0.0
C885 C 0.55332 1.00296 0.14311 0.0
C886 C 0.56898 0.98065 0.1524 0.0
C887 C 0.53503 1.01551 0.16464 0.0
C888 C 0.53165 1.00549 0.19514 0.0
C889 C 0.56575 0.97061 0.18296 0.0
C890 C 0.54694 0.98272 0.20419 0.0
C891 C 0.60878 1.00019 0.99646 0.0
H892 H 0.57216 0.10564 0.91284 0.0
H893 H 0.64774 0.06649 0.90099 0.0
H894 H 0.57829 0.12742 0.86101 0.0
H895 H 0.61922 0.11958 0.82931 0.0
H896 H 0.58326 0.97068 0.13598 0.0
H897 H 0.52271 0.03245 0.15714 0.0
H898 H 0.57764 0.95321 0.19006 0.0
H899 H 0.54456 0.97464 0.22774 0.0
Gd900 Gd 0.30703 0.26019 0.26033 0.0
Gd901 Gd 0.35429 0.34468 0.30103 0.0
C902 C 0.45141 0.37329 0.29176 0.0
C903 C 0.47252 0.39584 0.35051 0.0
C904 C 0.42071 0.37119 0.3361 0.0
C905 C 0.42373 0.36472 0.3022 0.0
C906 C 0.44505 0.38735 0.36074 0.0
C907 C 0.4758 0.38863 0.31613 0.0
C908 C 0.45367 0.36727 0.25713 0.0
C909 C 0.42865 0.35379 0.23387 0.0
N910 N 0.39946 0.35161 0.27936 0.0
C911 C 0.4017 0.34654 0.24545 0.0
H912 H 0.38305 0.33619 0.22678 0.0
C913 C 0.38943 0.374 0.3779 0.0
N914 N 0.39371 0.36385 0.34489 0.0
C915 C 0.41286 0.38942 0.40337 0.0
C916 C 0.4409 0.39592 0.39478 0.0
H917 H 0.36773 0.37103 0.3845 0.0
H918 H 0.49717 0.39578 0.30863 0.0
H919 H 0.28885 0.21032 0.31607 0.0
H920 H 0.47451 0.37339 0.24811 0.0
H921 H 0.43004 0.34914 0.20694 0.0
H922 H 0.49119 0.40873 0.36892 0.0
H923 H 0.27568 0.27797 0.18928 0.0
H924 H 0.20251 0.20964 0.33551 0.0
H925 H 0.24872 0.19461 0.34825 0.0
H926 H 0.16664 0.25627 0.24771 0.0
H927 H 0.40921 0.39711 0.42942 0.0
H928 H 0.45905 0.40853 0.41441 0.0
H929 H 0.17203 0.23237 0.29764 0.0
H930 H 0.22966 0.28561 0.16747 0.0
N931 N 0.26819 0.24009 0.28988 0.0
C932 C 0.22064 0.21796 0.32232 0.0
C933 C 0.24669 0.20962 0.32973 0.0
C934 C 0.21767 0.23476 0.29626 0.0
C935 C 0.24207 0.24537 0.28002 0.0
C936 C 0.26986 0.2197 0.31222 0.0
N937 N 0.26275 0.26836 0.23641 0.0
C938 C 0.23918 0.25949 0.25228 0.0
C939 C 0.23217 0.27927 0.1919 0.0
C940 C 0.20854 0.27333 0.20956 0.0
C941 C 0.25893 0.27594 0.2053 0.0
C942 C 0.21162 0.26254 0.23969 0.0
H943 H 0.18773 0.27559 0.19891 0.0
O944 O 0.31037 0.23189 0.20998 0.0
O945 O 0.35102 0.29426 0.26802 0.0
O946 O 0.33852 0.3458 0.24705 0.0
O947 O 0.31973 0.28872 0.22017 0.0
O948 O 0.34871 0.24607 0.27418 0.0
O949 O 0.28907 0.20583 0.24518 0.0
O950 O 0.3431 0.38627 0.33497 0.0
O951 O 0.3087 0.31348 0.28346 0.0
O952 O 0.3216 0.26167 0.31576 0.0
O953 O 0.35823 0.31154 0.33862 0.0
O954 O 0.31957 0.33957 0.33437 0.0
O955 O 0.35805 0.39309 0.28664 0.0
C956 C 0.36637 0.27429 0.27295 0.0
C957 C 0.18776 0.2536 0.25679 0.0
C958 C 0.19082 0.23996 0.28518 0.0
C959 C 0.29932 0.20263 0.21639 0.0
C960 C 0.31638 0.17735 0.20981 0.0
C961 C 0.31815 0.16098 0.17659 0.0
C962 C 0.33196 0.17042 0.23702 0.0
C963 C 0.34989 0.14816 0.23142 0.0
C964 C 0.33562 0.13803 0.1708 0.0
C965 C 0.35168 0.1318 0.1981 0.0
C966 C 0.32832 0.32113 0.21948 0.0
C967 C 0.29916 0.32093 0.31122 0.0
C968 C 0.34942 0.40632 0.31475 0.0
C969 C 0.34685 0.44123 0.32286 0.0
C970 C 0.3576 0.4626 0.35494 0.0
C971 C 0.32773 0.4502 0.301 0.0
C972 C 0.31777 0.47939 0.3114 0.0
C973 C 0.34958 0.49329 0.36447 0.0
C974 C 0.32944 0.50167 0.34281 0.0
C975 C 0.34121 0.28211 0.34086 0.0
H976 H 0.30631 0.16621 0.1553 0.0
H977 H 0.33059 0.18283 0.2628 0.0
H978 H 0.33701 0.12538 0.14516 0.0
H979 H 0.36522 0.11409 0.19328 0.0
H980 H 0.37132 0.45498 0.37279 0.0
H981 H 0.31893 0.43301 0.27656 0.0
H982 H 0.35804 0.50991 0.38913 0.0
H983 H 0.32236 0.52471 0.35091 0.0
Gd984 Gd 0.58417 0.51576 1.0093 0.0
Gd985 Gd 0.57141 0.59084 0.05423 0.0
C986 C 0.60221 0.63095 0.16754 0.0
C987 C 0.55694 0.63261 0.19018 0.0
C988 C 0.55684 0.61203 0.12965 0.0
C989 C 0.58679 0.61762 0.1346 0.0
C990 C 0.54169 0.62007 0.15735 0.0
C991 C 0.5871 0.63795 0.19527 0.0
C992 C 0.63245 0.63751 0.17166 0.0
C993 C 0.64669 0.63157 0.1433 0.0
N994 N 0.60093 0.61104 0.10726 0.0
C995 C 0.6306 0.61873 0.11115 0.0
H996 H 0.64231 0.6144 0.08981 0.0
C997 C 0.51354 0.59766 0.0913 0.0
N998 N 0.5426 0.60005 0.09765 0.0
C999 C 0.49764 0.60521 0.11795 0.0
C1000 C 0.51173 0.61614 0.15117 0.0
H1001 H 0.5026 0.58926 0.06555 0.0
H1002 H 0.5986 0.6481 0.2207 0.0
H1003 H 0.51509 0.49572 0.96747 0.0
H1004 H 0.64502 0.64764 0.19653 0.0
H1005 H 0.67011 0.63694 0.14615 0.0
H1006 H 0.54565 0.63879 0.21176 0.0
H1007 H 0.65193 0.50949 1.00417 0.0
H1008 H 0.51663 0.4533 0.86352 0.0
H1009 H 0.48972 0.47065 0.91063 0.0
H1010 H 0.61595 0.45233 0.85748 0.0
H1011 H 0.47457 0.60266 0.11284 0.0
H1012 H 0.49938 0.62214 0.17178 0.0
H1013 H 0.56375 0.44678 0.84393 0.0
H1014 H 0.68181 0.49064 0.96097 0.0
N1015 N 0.55732 0.49395 0.95423 0.0
C1016 C 0.52821 0.46456 0.88878 0.0
C1017 C 0.51297 0.47422 0.91528 0.0
C1018 C 0.55814 0.46889 0.89532 0.0
C1019 C 0.57223 0.48368 0.92872 0.0
C1020 C 0.52779 0.48852 0.94792 0.0
N1021 N 0.61397 0.49968 0.96883 0.0
C1022 C 0.60149 0.48675 0.93626 0.0
C1023 C 0.65927 0.48954 0.95361 0.0
C1024 C 0.64695 0.47715 0.91977 0.0
C1025 C 0.64228 0.50025 0.97799 0.0
C1026 C 0.61763 0.47519 0.91078 0.0
H1027 H 0.66008 0.46857 0.90094 0.0
O1028 O 0.60188 0.47738 0.02597 0.0
O1029 O 0.58736 0.54586 0.06349 0.0
O1030 O 0.61525 0.60246 0.03638 0.0
O1031 O 0.6197 0.55576 0.99657 0.0
O1032 O 0.62309 0.52957 0.0505 0.0
O1033 O 0.55539 0.46753 0.01093 0.0
O1034 O 0.54786 0.62825 0.04667 0.0
O1035 O 0.56934 0.56173 0.99977 0.0
O1036 O 0.53813 0.50911 0.02191 0.0
O1037 O 0.54157 0.54904 0.07104 0.0
O1038 O 0.53345 0.57817 0.01184 0.0
O1039 O 0.59563 0.6428 0.05834 0.0
C1040 C 0.61244 0.54387 0.07605 0.0
C1041 C 0.6039 0.46128 0.87739 0.0
C1042 C 0.5742 0.45812 0.86968 0.0
C1043 C 0.57656 0.45667 0.02319 0.0
C1044 C 0.57472 0.42047 0.0157 0.0
C1045 C 0.58735 0.40438 0.98928 0.0
C1046 C 0.56259 0.40272 0.03879 0.0
C1047 C 0.56422 0.36924 0.03719 0.0
C1048 C 0.58789 0.37035 0.98643 0.0
C1049 C 0.57661 0.35286 0.01041 0.0
C1050 C 0.62925 0.58778 0.01343 0.0
C1051 C 0.54459 0.56416 0.98655 0.0
C1052 C 0.57174 0.65213 0.05241 0.0
C1053 C 0.57167 0.68691 0.05164 0.0
C1054 C 0.55285 0.70311 0.06942 0.0
C1055 C 0.58964 0.7035 0.03171 0.0
C1056 C 0.58885 0.73638 0.02928 0.0
C1057 C 0.55245 0.73623 0.06763 0.0
C1058 C 0.57043 0.75293 0.04765 0.0
C1059 C 0.52792 0.52031 0.05001 0.0
H1060 H 0.59717 0.41818 0.97151 0.0
H1061 H 0.55275 0.41565 0.05897 0.0
H1062 H 0.59781 0.35781 0.96621 0.0
H1063 H 0.57839 0.32703 1.00859 0.0
H1064 H 0.53862 0.69019 0.08467 0.0
H1065 H 0.60385 0.69061 0.01758 0.0
H1066 H 0.53799 0.74883 0.08141 0.0
H1067 H 0.56948 0.77836 0.0459 0.0
Gd1068 Gd 0.79905 0.27939 0.29311 0.0
Gd1069 Gd 0.86197 0.32773 0.27193 0.0
C1070 C 0.86341 0.42828 0.24249 0.0
C1071 C 0.8763 0.41723 0.18538 0.0
C1072 C 0.87138 0.37336 0.21755 0.0
C1073 C 0.86423 0.39497 0.24452 0.0
C1074 C 0.87829 0.38461 0.18807 0.0
C1075 C 0.8688 0.43899 0.2125 0.0
C1076 C 0.85813 0.45023 0.27101 0.0
C1077 C 0.85486 0.43922 0.30097 0.0
N1078 N 0.85979 0.38415 0.27344 0.0
C1079 C 0.85618 0.40613 0.3019 0.0
H1080 H 0.85365 0.39832 0.3254 0.0
C1081 C 0.88451 0.32191 0.19727 0.0
N1082 N 0.87348 0.34214 0.22104 0.0
C1083 C 0.89162 0.33195 0.16758 0.0
C1084 C 0.88806 0.36321 0.16271 0.0
H1085 H 0.88727 0.2977 0.2009 0.0
H1086 H 0.86805 0.46439 0.2104 0.0
H1087 H 0.80822 0.20807 0.24215 0.0
H1088 H 0.85726 0.47597 0.27042 0.0
H1089 H 0.85135 0.45619 0.32339 0.0
H1090 H 0.88128 0.42622 0.16281 0.0
H1091 H 0.76713 0.3063 0.35967 0.0
H1092 H 0.80736 0.13309 0.29997 0.0
H1093 H 0.812 0.15108 0.24592 0.0
H1094 H 0.78046 0.18373 0.40546 0.0
H1095 H 0.89975 0.31555 0.14845 0.0
H1096 H 0.89367 0.37098 0.13972 0.0
H1097 H 0.79624 0.14584 0.35983 0.0
H1098 H 0.75412 0.28962 0.41246 0.0
N1099 N 0.80262 0.22363 0.29403 0.0
C1100 C 0.80587 0.15844 0.29856 0.0
C1101 C 0.80836 0.16842 0.268 0.0
C1102 C 0.80016 0.18076 0.32649 0.0
C1103 C 0.79844 0.21352 0.3233 0.0
C1104 C 0.80618 0.201 0.26602 0.0
N1105 N 0.78569 0.2647 0.34353 0.0
C1106 C 0.78969 0.2348 0.34896 0.0
C1107 C 0.76436 0.2741 0.39497 0.0
C1108 C 0.77012 0.24453 0.40204 0.0
C1109 C 0.77177 0.28348 0.36507 0.0
C1110 C 0.78226 0.22399 0.37851 0.0
H1111 H 0.76408 0.23711 0.42504 0.0
O1112 O 0.75561 0.2871 0.28992 0.0
O1113 O 0.8144 0.3277 0.27428 0.0
O1114 O 0.85879 0.34337 0.32702 0.0
O1115 O 0.82556 0.30215 0.34393 0.0
O1116 O 0.78995 0.33118 0.31321 0.0
O1117 O 0.76373 0.24185 0.25947 0.0
O1118 O 0.90464 0.31833 0.27118 0.0
O1119 O 0.84682 0.27965 0.29129 0.0
O1120 O 0.80504 0.26366 0.23828 0.0
O1121 O 0.83184 0.31065 0.22363 0.0
O1122 O 0.86971 0.27548 0.25077 0.0
O1123 O 0.89926 0.36458 0.30319 0.0
C1124 C 0.80176 0.34826 0.29257 0.0
C1125 C 0.78575 0.19233 0.38277 0.0
C1126 C 0.79472 0.17074 0.35679 0.0
C1127 C 0.74442 0.25815 0.26882 0.0
C1128 C 0.71721 0.23847 0.2761 0.0
C1129 C 0.71624 0.21619 0.29796 0.0
C1130 C 0.69151 0.24269 0.26084 0.0
C1131 C 0.66482 0.22442 0.26672 0.0
C1132 C 0.68949 0.19818 0.30422 0.0
C1133 C 0.66374 0.20205 0.28842 0.0
C1134 C 0.84682 0.32985 0.35061 0.0
C1135 C 0.85895 0.25895 0.27236 0.0
C1136 C 0.91731 0.34684 0.29239 0.0
C1137 C 0.94509 0.36474 0.28464 0.0
C1138 C 0.94727 0.38282 0.25898 0.0
C1139 C 0.97014 0.36114 0.30207 0.0
C1140 C 0.99753 0.3752 0.29407 0.0
C1141 C 0.97452 0.39678 0.25068 0.0
C1142 C 0.99962 0.39285 0.26799 0.0
C1143 C 0.81365 0.28061 0.21534 0.0
H1144 H 0.73594 0.21256 0.30992 0.0
H1145 H 0.69224 0.25983 0.24383 0.0
H1146 H 0.68874 0.18101 0.32108 0.0
H1147 H 0.64311 0.18766 0.29299 0.0
H1148 H 0.92811 0.38583 0.24521 0.0
H1149 H 0.96823 0.34649 0.32141 0.0
H1150 H 0.97618 0.41053 0.2307 0.0
H1151 H 0.02056 0.40385 0.26131 0.0
Gd1152 Gd 0.07784 0.56237 0.48865 0.0
Gd1153 Gd 0.08455 0.53043 0.56768 0.0
C1154 C 0.16651 0.57923 0.64429 0.0
C1155 C 0.18888 0.53196 0.64262 0.0
C1156 C 0.14259 0.52409 0.60853 0.0
C1157 C 0.14335 0.55791 0.62024 0.0
C1158 C 0.1649 0.51044 0.62032 0.0
C1159 C 0.18967 0.56632 0.65463 0.0
C1160 C 0.16535 0.6126 0.6579 0.0
C1161 C 0.1413 0.62376 0.64786 0.0
N1162 N 0.12069 0.5695 0.60944 0.0
C1163 C 0.1191 0.60185 0.62354 0.0
H1164 H 0.10116 0.61155 0.61601 0.0
C1165 C 0.11498 0.46954 0.57944 0.0
N1166 N 0.11905 0.50402 0.58729 0.0
C1167 C 0.13654 0.45474 0.59028 0.0
C1168 C 0.16189 0.47537 0.61031 0.0
H1169 H 0.09545 0.45361 0.56371 0.0
H1170 H 0.20788 0.58246 0.6726 0.0
H1171 H 0.04834 0.48152 0.44371 0.0
H1172 H 0.18264 0.62974 0.67649 0.0
H1173 H 0.14 0.64943 0.65848 0.0
H1174 H 0.20646 0.52206 0.65156 0.0
H1175 H 0.07888 0.64376 0.49496 0.0
H1176 H 0.96646 0.47826 0.39112 0.0
H1177 H 1.00365 0.44916 0.40663 0.0
H1178 H 0.96317 0.59518 0.41283 0.0
H1179 H 0.13363 0.4275 0.58312 0.0
H1180 H 0.17855 0.46388 0.61878 0.0
H1181 H 0.95145 0.53287 0.39377 0.0
H1182 H 0.0467 0.6782 0.47737 0.0
N1183 N 0.03676 0.52901 0.45051 0.0
C1184 C 0.98616 0.49277 0.40757 0.0
C1185 C 1.0071 0.47627 0.41623 0.0
C1186 C 0.99127 0.52795 0.41948 0.0
C1187 C 0.01721 0.54561 0.44098 0.0
C1188 C 0.03257 0.49492 0.43739 0.0
N1189 N 0.0491 0.59664 0.4719 0.0
C1190 C 0.02363 0.58055 0.45195 0.0
C1191 C 0.03989 0.65075 0.47019 0.0
C1192 C 0.01284 0.63452 0.45119 0.0
C1193 C 0.05805 0.63129 0.48002 0.0
C1194 C 1.00457 0.599 0.44141 0.0
H1195 H 0.9988 0.64963 0.44362 0.0
O1196 O 0.11092 0.59576 0.46949 0.0
O1197 O 0.10443 0.56152 0.53459 0.0
O1198 O 0.06465 0.5759 0.57499 0.0
O1199 O 0.05208 0.58893 0.52307 0.0
O1200 O 0.11364 0.60667 0.52051 0.0
O1201 O 0.09307 0.54342 0.44162 0.0
O1202 O 0.05734 0.49 0.58529 0.0
O1203 O 0.0569 0.53109 0.52209 0.0
O1204 O 0.09128 0.51297 0.47978 0.0
O1205 O 0.11101 0.50567 0.5316 0.0
O1206 O 0.05374 0.48451 0.53312 0.0
O1207 O 0.06048 0.54286 0.60927 0.0
C1208 C 0.1213 0.59048 0.54222 0.0
C1209 C 0.97826 0.58149 0.42092 0.0
C1210 C 0.97159 0.54602 0.41004 0.0
C1211 C 0.11114 0.5724 0.44275 0.0
C1212 C 0.11336 0.58305 0.4109 0.0
C1213 C 0.09455 0.60087 0.399 0.0
C1214 C 0.13584 0.57625 0.39285 0.0
C1215 C 0.14025 0.58803 0.3634 0.0
C1216 C 0.09875 0.61246 0.36938 0.0
C1217 C 0.12171 0.60638 0.35176 0.0
C1218 C 0.05151 0.59209 0.55598 0.0
C1219 C 0.04217 0.50077 0.5141 0.0
C1220 C 0.04991 0.51107 0.60941 0.0
C1221 C 0.04908 0.50282 0.64264 0.0
C1222 C 0.06209 0.47809 0.65155 0.0
C1223 C 0.03314 0.51888 0.66514 0.0
C1224 C 0.02948 0.50984 0.69601 0.0
C1225 C 0.05854 0.46916 0.68257 0.0
C1226 C 0.04205 0.48475 0.70468 0.0
C1227 C 0.10799 0.4999 0.49805 0.0
H1228 H 0.07697 0.6061 0.4127 0.0
H1229 H 0.15043 0.56254 0.4022 0.0
H1230 H 0.08437 0.62641 0.36025 0.0
H1231 H 0.12492 0.61578 0.32903 0.0
H1232 H 0.07456 0.46541 0.6345 0.0
H1233 H 0.02291 0.53786 0.65827 0.0
H1234 H 0.06834 0.4499 0.68932 0.0
H1235 H 0.03918 0.4774 0.7285 0.0
Gd1236 Gd 0.86542 0.78893 0.27818 0.0
Gd1237 Gd 0.79565 0.81201 0.27879 0.0
C1238 C 0.74391 0.79227 0.17352 0.0
C1239 C 0.74286 0.84931 0.1686 0.0
C1240 C 0.76686 0.8402 0.2198 0.0
C1241 C 0.76007 0.80574 0.20603 0.0
C1242 C 0.75736 0.86227 0.20177 0.0
C1243 C 0.73618 0.81432 0.15447 0.0
C1244 C 0.73508 0.757 0.16161 0.0
C1245 C 0.74139 0.73613 0.18252 0.0
N1246 N 0.76758 0.78519 0.22535 0.0
C1247 C 0.7574 0.75067 0.21455 0.0
H1248 H 0.76206 0.73379 0.22985 0.0
C1249 C 0.7817 0.88423 0.26926 0.0
N1250 N 0.78017 0.85168 0.25215 0.0
C1251 C 0.77307 0.90723 0.25238 0.0
C1252 C 0.76136 0.89637 0.21824 0.0
H1253 H 0.79059 0.89271 0.29579 0.0
H1254 H 0.7241 0.80447 0.1293 0.0
H1255 H 0.90675 0.86943 0.31475 0.0
H1256 H 0.72268 0.74567 0.13679 0.0
H1257 H 0.7341 0.70878 0.17391 0.0
H1258 H 0.73575 0.86592 0.15419 0.0
H1259 H 0.86864 0.70794 0.27434 0.0
H1260 H 0.94502 0.87057 0.41302 0.0
H1261 H 0.93652 0.90027 0.36782 0.0
H1262 H 0.92329 0.75347 0.41672 0.0
H1263 H 0.7753 0.93324 0.26576 0.0
H1264 H 0.75437 0.91413 0.20528 0.0
H1265 H 0.93894 0.81584 0.43158 0.0
H1266 H 0.88129 0.673 0.31264 0.0
N1267 N 0.89602 0.82151 0.32881 0.0
C1268 C 0.9314 0.85658 0.38954 0.0
C1269 C 0.92667 0.8734 0.36411 0.0
C1270 C 0.91963 0.8216 0.3837 0.0
C1271 C 0.90221 0.80449 0.35251 0.0
C1272 C 0.90913 0.85544 0.33378 0.0
N1273 N 0.87966 0.75407 0.31259 0.0
C1274 C 0.89339 0.76956 0.34425 0.0
C1275 C 0.88442 0.70008 0.32209 0.0
C1276 C 0.89619 0.71535 0.35566 0.0
C1277 C 0.87707 0.72002 0.30056 0.0
C1278 C 0.90177 0.75063 0.3668 0.0
H1279 H 0.9023 0.69994 0.37218 0.0
O1280 O 0.8901 0.75999 0.24678 0.0
O1281 O 0.82848 0.79731 0.24654 0.0
O1282 O 0.78831 0.75626 0.28388 0.0
O1283 O 0.83188 0.7403 0.28002 0.0
O1284 O 0.84212 0.75337 0.22983 0.0
O1285 O 0.90283 0.81457 0.25785 0.0
O1286 O 0.77223 0.8355 0.31673 0.0
O1287 O 0.83287 0.80399 0.31059 0.0
O1288 O 0.87123 0.84348 0.27051 0.0
O1289 O 0.8279 0.86019 0.27229 0.0
O1290 O 0.81932 0.8483 0.32645 0.0
O1291 O 0.75542 0.78304 0.29102 0.0
C1292 C 0.82484 0.77135 0.22242 0.0
C1293 C 0.91705 0.76759 0.39891 0.0
C1294 C 0.926 0.80307 0.40734 0.0
C1295 C 0.90932 0.78657 0.24393 0.0
C1296 C 0.93984 0.78557 0.2504 0.0
C1297 C 0.9499 0.77675 0.27986 0.0
C1298 C 0.95904 0.79302 0.22689 0.0
C1299 C 0.98823 0.79161 0.23284 0.0
C1300 C 0.97857 0.77495 0.28571 0.0
C1301 C 0.99759 0.78221 0.26244 0.0
C1302 C 0.80379 0.7332 0.2828 0.0
C1303 C 0.83705 0.83084 0.33378 0.0
C1304 C 0.75086 0.8087 0.31234 0.0
C1305 C 0.72139 0.81406 0.30869 0.0
C1306 C 0.71272 0.82918 0.28308 0.0
C1307 C 0.70171 0.80419 0.33096 0.0
C1308 C 0.67365 0.8099 0.32786 0.0
C1309 C 0.68516 0.835 0.27994 0.0
C1310 C 0.66576 0.82548 0.30207 0.0
C1311 C 0.85619 0.86687 0.27023 0.0
H1312 H 0.93556 0.77098 0.29822 0.0
H1313 H 0.95132 0.8002 0.20429 0.0
H1314 H 0.98607 0.76775 0.30835 0.0
H1315 H 0.01961 0.78006 0.26747 0.0
H1316 H 0.72715 0.83648 0.26543 0.0
H1317 H 0.70836 0.79253 0.35083 0.0
H1318 H 0.67874 0.84676 0.26009 0.0
H1319 H 0.64431 0.82979 0.29854 0.0
Gd1320 Gd 0.81501 0.30944 0.81334 0.0
Gd1321 Gd 0.8451 0.2784 0.73665 0.0
C1322 C 0.80649 0.17411 0.66487 0.0
C1323 C 0.84713 0.14821 0.66578 0.0
C1324 C 0.85072 0.20362 0.70276 0.0
C1325 C 0.82289 0.20285 0.68951 0.0
C1326 C 0.86318 0.17632 0.69073 0.0
C1327 C 0.81883 0.14706 0.65296 0.0
C1328 C 0.77788 0.17291 0.65336 0.0
C1329 C 0.7658 0.19916 0.6674 0.0
N1330 N 0.81145 0.22944 0.70154 0.0
C1331 C 0.78268 0.22686 0.69191 0.0
H1332 H 0.7716 0.24477 0.70399 0.0
C1333 C 0.89436 0.23372 0.73793 0.0
N1334 N 0.8658 0.23109 0.72699 0.0
C1335 C 0.9074 0.20726 0.72706 0.0
C1336 C 0.89169 0.1783 0.7035 0.0
H1337 H 0.90782 0.25672 0.75444 0.0
H1338 H 0.80657 0.12498 0.63397 0.0
H1339 H 0.88879 0.34412 0.83878 0.0
H1340 H 0.76461 0.15125 0.63465 0.0
H1341 H 0.74319 0.1977 0.66 0.0
H1342 H 0.85643 0.12719 0.65622 0.0
H1343 H 0.7505 0.32844 0.80001 0.0
H1344 H 0.89994 0.44408 0.89787 0.0
H1345 H 0.91991 0.39532 0.87571 0.0
H1346 H 0.80663 0.46586 0.8811 0.0
H1347 H 0.92985 0.20966 0.73622 0.0
H1348 H 0.90201 0.158 0.6947 0.0
H1349 H 0.85787 0.47024 0.89918 0.0
H1350 H 0.72887 0.37641 0.81575 0.0
N1351 N 0.84955 0.36032 0.8429 0.0
C1352 C 0.88566 0.42083 0.88252 0.0
C1353 C 0.89695 0.39332 0.87028 0.0
C1354 C 0.85636 0.41858 0.8735 0.0
C1355 C 0.83864 0.38776 0.85316 0.0
C1356 C 0.87871 0.36348 0.85006 0.0
N1357 N 0.79372 0.35634 0.82137 0.0
C1358 C 0.81002 0.38574 0.84195 0.0
C1359 C 0.75185 0.37969 0.82279 0.0
C1360 C 0.76875 0.41061 0.84202 0.0
C1361 C 0.76454 0.35262 0.81334 0.0
C1362 C 0.79807 0.41386 0.85224 0.0
H1363 H 0.75881 0.43151 0.84958 0.0
O1364 O 0.77188 0.28901 0.82383 0.0
O1365 O 0.81155 0.26695 0.76899 0.0
O1366 O 0.80661 0.29535 0.71617 0.0
O1367 O 0.78702 0.31436 0.7656 0.0
O1368 O 0.80913 0.25427 0.8156 0.0
O1369 O 0.80695 0.31292 0.86567 0.0
O1370 O 0.88967 0.30137 0.7324 0.0
O1371 O 0.84844 0.32153 0.78051 0.0
O1372 O 0.854 0.29375 0.83479 0.0
O1373 O 0.87008 0.27029 0.78446 0.0
O1374 O 0.84734 0.33185 0.73251 0.0
O1375 O 0.85829 0.27797 0.68693 0.0
C1376 C 0.80897 0.24288 0.7837 0.0
C1377 C 0.81548 0.44413 0.87301 0.0
C1378 C 0.84458 0.44653 0.8835 0.0
C1379 C 0.77922 0.29901 0.85659 0.0
C1380 C 0.76346 0.27816 0.87722 0.0
C1381 C 0.73759 0.2852 0.88694 0.0
C1382 C 0.77277 0.2511 0.88625 0.0
C1383 C 0.75583 0.23083 0.90465 0.0
C1384 C 0.72089 0.26525 0.90538 0.0
C1385 C 0.72986 0.23809 0.91413 0.0
C1386 C 0.78674 0.30815 0.73188 0.0
C1387 C 0.84902 0.34459 0.76444 0.0
C1388 C 0.88501 0.29446 0.69933 0.0
C1389 C 0.89915 0.32103 0.68319 0.0
C1390 C 0.92897 0.3262 0.68155 0.0
C1391 C 0.88352 0.34087 0.66914 0.0
C1392 C 0.8977 0.36589 0.6535 0.0
C1393 C 0.94314 0.35102 0.66597 0.0
C1394 C 0.92764 0.37081 0.65199 0.0
C1395 C 0.87201 0.27829 0.81824 0.0
H1396 H 0.73023 0.3061 0.88006 0.0
H1397 H 0.79283 0.24571 0.87884 0.0
H1398 H 0.701 0.27088 0.91296 0.0
H1399 H 0.71683 0.22319 0.92897 0.0
H1400 H 0.94124 0.31089 0.69218 0.0
H1401 H 0.86046 0.3369 0.67035 0.0
H1402 H 0.96612 0.35475 0.66452 0.0
H1403 H 0.93895 0.3895 0.63942 0.0
Gd1404 Gd 0.81249 0.77368 0.76488 0.0
Gd1405 Gd 0.85962 0.85583 0.8061 0.0
C1406 C 0.94761 0.9017 0.77707 0.0
C1407 C 0.97718 0.91984 0.83199 0.0
C1408 C 0.92793 0.8848 0.82568 0.0
C1409 C 0.92404 0.88609 0.79197 0.0
C1410 C 0.95468 0.9016 0.84605 0.0
C1411 C 0.9738 0.91956 0.79747 0.0
C1412 C 0.94469 0.89744 0.7419 0.0
C1413 C 0.91957 0.87612 0.72238 0.0
N1414 N 0.89834 0.86847 0.773 0.0
C1415 C 0.89686 0.86121 0.73827 0.0
H1416 H 0.87871 0.84329 0.72215 0.0
C1417 C 0.90912 0.8652 0.87182 0.0
N1418 N 0.9057 0.86674 0.83837 0.0
C1419 C 0.93521 0.88126 0.89283 0.0
C1420 C 0.95799 0.89987 0.88002 0.0
H1421 H 0.8915 0.85381 0.88374 0.0
H1422 H 0.99185 0.93242 0.78662 0.0
H1423 H 0.78708 0.77893 0.84126 0.0
H1424 H 0.96232 0.90884 0.72951 0.0
H1425 H 0.91773 0.87083 0.69498 0.0
H1426 H 0.99751 0.93357 0.84738 0.0
H1427 H 0.79567 0.75242 0.68107 0.0
H1428 H 0.69515 0.74799 0.82423 0.0
H1429 H 0.74102 0.76663 0.86329 0.0
H1430 H 0.67323 0.72224 0.70372 0.0
H1431 H 0.93734 0.88031 0.91931 0.0
H1432 H 0.97786 0.91304 0.89667 0.0
H1433 H 0.67006 0.7319 0.76471 0.0
H1434 H 0.75227 0.72975 0.63829 0.0
N1435 N 0.76874 0.76779 0.78941 0.0
C1436 C 0.71559 0.75346 0.81421 0.0
C1437 C 0.74139 0.76379 0.83628 0.0
C1438 C 0.71649 0.74985 0.77942 0.0
C1439 C 0.74371 0.75746 0.76763 0.0
C1440 C 0.76778 0.77057 0.82341 0.0
N1441 N 0.77184 0.75925 0.72292 0.0
C1442 C 0.74532 0.75296 0.73333 0.0
C1443 C 0.74993 0.73664 0.66489 0.0
C1444 C 0.72246 0.73191 0.67514 0.0
C1445 C 0.77445 0.74971 0.68924 0.0
C1446 C 0.7199 0.73955 0.70973 0.0
H1447 H 0.70345 0.72129 0.65629 0.0
O1448 O 0.81914 0.73131 0.7278 0.0
O1449 O 0.85899 0.80198 0.78453 0.0
O1450 O 0.84335 0.8599 0.75311 0.0
O1451 O 0.80862 0.80859 0.72923 0.0
O1452 O 0.84908 0.77851 0.73384 0.0
O1453 O 0.80328 0.72355 0.77559 0.0
O1454 O 0.85356 0.88356 0.85546 0.0
O1455 O 0.81573 0.82208 0.80054 0.0
O1456 O 0.82904 0.76776 0.81643 0.0
O1457 O 0.85276 0.82305 0.8448 0.0
O1458 O 0.81784 0.86999 0.79359 0.0
O1459 O 0.87432 0.91062 0.82037 0.0
C1460 C 0.86998 0.79329 0.75802 0.0
C1461 C 0.69285 0.7326 0.72137 0.0
C1462 C 0.6911 0.73795 0.75613 0.0
C1463 C 0.80973 0.71016 0.74619 0.0
C1464 C 0.80816 0.67418 0.73556 0.0
C1465 C 0.80197 0.6572 0.70123 0.0
C1466 C 0.8192 0.65905 0.75929 0.0
C1467 C 0.82702 0.62865 0.74871 0.0
C1468 C 0.80765 0.62527 0.69097 0.0
C1469 C 0.82091 0.61132 0.71455 0.0
C1470 C 0.82411 0.83905 0.72772 0.0
C1471 C 0.80046 0.8421 0.79563 0.0
C1472 C 0.86376 0.91311 0.84909 0.0
C1473 C 0.84564 0.93722 0.85547 0.0
C1474 C 0.84289 0.95287 0.88857 0.0
C1475 C 0.82961 0.94317 0.82813 0.0
C1476 C 0.80971 0.96301 0.83326 0.0
C1477 C 0.82421 0.97444 0.89399 0.0
C1478 C 0.80732 0.9792 0.86645 0.0
C1479 C 0.84198 0.7906 0.84435 0.0
H1480 H 0.79411 0.66926 0.6824 0.0
H1481 H 0.82551 0.6732 0.78548 0.0
H1482 H 0.80362 0.61232 0.66456 0.0
H1483 H 0.82755 0.58804 0.70604 0.0
H1484 H 0.85498 0.9482 0.91006 0.0
H1485 H 0.83182 0.93118 0.80256 0.0
H1486 H 0.82238 0.98691 0.91956 0.0
H1487 H 0.79246 0.99534 0.87105 0.0
Gd1488 Gd 0.61195 0.58213 0.55465 0.0
Gd1489 Gd 0.54868 0.52459 0.50729 0.0
C1490 C 0.52666 0.41401 0.51902 0.0
C1491 C 0.52558 0.38232 0.46161 0.0
C1492 C 0.53749 0.44424 0.47477 0.0
C1493 C 0.53441 0.44487 0.50837 0.0
C1494 C 0.53315 0.41287 0.45104 0.0
C1495 C 0.5222 0.38289 0.4955 0.0
C1496 C 0.52374 0.41517 0.55308 0.0
C1497 C 0.52881 0.44646 0.57576 0.0
N1498 N 0.53934 0.47543 0.53071 0.0
C1499 C 0.53656 0.47629 0.56424 0.0
H1500 H 0.54156 0.49956 0.5832 0.0
C1501 C 0.54396 0.47382 0.43114 0.0
N1502 N 0.54405 0.4741 0.46499 0.0
C1503 C 0.54133 0.44368 0.40716 0.0
C1504 C 0.53609 0.41301 0.41718 0.0
H1505 H 0.5463 0.49713 0.42244 0.0
H1506 H 0.51621 0.35908 0.5033 0.0
H1507 H 0.61983 0.61019 0.48103 0.0
H1508 H 0.51786 0.39209 0.56217 0.0
H1509 H 0.52708 0.44771 0.60235 0.0
H1510 H 0.522 0.3581 0.44369 0.0
H1511 H 0.61874 0.60533 0.63973 0.0
H1512 H 0.63866 0.71782 0.50551 0.0
H1513 H 0.63171 0.66354 0.46366 0.0
H1514 H 0.63754 0.7467 0.62515 0.0
H1515 H 0.54254 0.44408 0.38076 0.0
H1516 H 0.53331 0.3895 0.39837 0.0
H1517 H 0.64047 0.74844 0.56548 0.0
H1518 H 0.62576 0.6574 0.68458 0.0
N1519 N 0.62032 0.63244 0.53357 0.0
C1520 C 0.63372 0.69414 0.51368 0.0
C1521 C 0.62991 0.66361 0.49004 0.0
C1522 C 0.63131 0.69378 0.54761 0.0
C1523 C 0.62474 0.6622 0.55701 0.0
C1524 C 0.62347 0.63302 0.50042 0.0
N1525 N 0.61807 0.63077 0.59918 0.0
C1526 C 0.62312 0.66128 0.59063 0.0
C1527 C 0.62485 0.65887 0.65825 0.0
C1528 C 0.62771 0.69011 0.64958 0.0
C1529 C 0.62075 0.62945 0.6327 0.0
C1530 C 0.62798 0.69179 0.61564 0.0
H1531 H 0.63041 0.71291 0.66927 0.0
O1532 O 0.64713 0.58377 0.59245 0.0
O1533 O 0.59214 0.52614 0.53328 0.0
O1534 O 0.53657 0.54444 0.56154 0.0
O1535 O 0.5773 0.58485 0.59125 0.0
O1536 O 0.60935 0.54083 0.58385 0.0
O1537 O 0.65606 0.59146 0.5419 0.0
O1538 O 0.51425 0.5176 0.46663 0.0
O1539 O 0.56858 0.58052 0.52809 0.0
O1540 O 0.62409 0.56334 0.5011 0.0
O1541 O 0.58323 0.52507 0.46967 0.0
O1542 O 0.55145 0.56542 0.47755 0.0
O1543 O 0.50448 0.52147 0.51901 0.0
C1544 C 0.59797 0.51488 0.55937 0.0
C1545 C 0.63376 0.72308 0.60625 0.0
C1546 C 0.63551 0.72407 0.57232 0.0
C1547 C 0.66628 0.59053 0.57231 0.0
C1548 C 0.69702 0.59597 0.58335 0.0
C1549 C 0.70925 0.61541 0.61583 0.0
C1550 C 0.71412 0.58109 0.56164 0.0
C1551 C 0.74348 0.58491 0.5725 0.0
C1552 C 0.73866 0.62019 0.62638 0.0
C1553 C 0.75574 0.60509 0.60486 0.0
C1554 C 0.55014 0.56697 0.59007 0.0
C1555 C 0.56277 0.59156 0.50181 0.0
C1556 C 0.49482 0.51718 0.4871 0.0
C1557 C 0.46439 0.51209 0.47459 0.0
C1558 C 0.45225 0.4897 0.44338 0.0
C1559 C 0.44757 0.53048 0.49332 0.0
C1560 C 0.41857 0.52647 0.48098 0.0
C1561 C 0.42315 0.48525 0.43136 0.0
C1562 C 0.4062 0.50348 0.45014 0.0
C1563 C 0.61069 0.5424 0.47189 0.0
H1564 H 0.69612 0.62699 0.63286 0.0
H1565 H 0.70437 0.5659 0.53663 0.0
H1566 H 0.74805 0.63519 0.65145 0.0
H1567 H 0.77833 0.60835 0.6138 0.0
H1568 H 0.4652 0.47558 0.42845 0.0
H1569 H 0.4571 0.54829 0.51718 0.0
H1570 H 0.41394 0.46778 0.40742 0.0
H1571 H 0.38371 0.50015 0.44043 0.0
Gd1572 Gd 0.04883 0.54892 0.04451 0.0
Gd1573 Gd 0.12012 0.5572 0.01602 0.0
C1574 C 0.17704 0.6594 1.00962 0.0
C1575 C 0.17781 0.65233 0.94889 0.0
C1576 C 0.15098 0.60636 0.97131 0.0
C1577 C 0.15912 0.62621 1.00394 0.0
C1578 C 0.16081 0.61889 0.94348 0.0
C1579 C 0.18584 0.67257 0.98189 0.0
C1580 C 0.18618 0.67807 0.04303 0.0
C1581 C 0.17819 0.6632 0.06978 0.0
N1582 N 0.15058 0.61257 0.03021 0.0
C1583 C 0.1606 0.63013 0.0629 0.0
H1584 H 0.15478 0.61916 0.08398 0.0
C1585 C 0.12941 0.5521 0.93579 0.0
N1586 N 0.13474 0.57407 0.96696 0.0
C1587 C 0.13853 0.56344 0.9074 0.0
C1588 C 0.154 0.59711 0.91119 0.0
H1589 H 0.11748 0.52604 0.93276 0.0
H1590 H 0.19944 0.69808 0.98575 0.0
H1591 H 0.01478 0.48784 0.9751 0.0
H1592 H 0.19989 0.70366 0.04845 0.0
H1593 H 0.18556 0.67718 0.09574 0.0
H1594 H 0.18537 0.66252 0.92781 0.0
H1595 H 0.05066 0.57866 0.12752 0.0
H1596 H 0.96573 0.40404 1.00826 0.0
H1597 H 0.98261 0.43069 0.96199 0.0
H1598 H 0.9779 0.44353 0.12899 0.0
H1599 H 0.1337 0.5462 0.88265 0.0
H1600 H 0.16118 0.60578 0.88918 0.0
H1601 H 0.9643 0.40895 0.0706 0.0
H1602 H 0.03246 0.55825 0.17669 0.0
N1603 N 0.01747 0.49396 0.02884 0.0
C1604 C 0.98012 0.42928 0.01432 0.0
C1605 C 0.98956 0.44425 0.98815 0.0
C1606 C 0.98879 0.44741 0.04798 0.0
C1607 C 1.00765 0.48015 0.05451 0.0
C1608 C 1.008 0.47688 0.99585 0.0
N1609 N 0.03267 0.53131 0.09252 0.0
C1610 C 0.01556 0.49939 0.08738 0.0
C1611 C 0.02771 0.54136 0.15175 0.0
C1612 C 0.01116 0.50804 0.14716 0.0
C1613 C 0.03796 0.55283 0.12391 0.0
C1614 C 1.0045 0.48675 0.11461 0.0
H1615 H 1.00305 0.49929 0.16874 0.0
O1616 O 0.02778 0.58921 0.06168 0.0
O1617 O 0.08742 0.58519 0.03383 0.0
O1618 O 0.12151 0.56509 0.07298 0.0
O1619 O 0.07681 0.53515 0.08316 0.0
O1620 O 0.07097 0.60093 0.07778 0.0
O1621 O 1.00885 0.55082 0.01597 0.0
O1622 O 0.14095 0.51668 0.99924 0.0
O1623 O 0.08165 0.52081 0.02716 0.0
O1624 O 0.04829 0.54092 0.98809 0.0
O1625 O 0.09239 0.57166 0.9776 0.0
O1626 O 0.09807 0.50487 0.98325 0.0
O1627 O 0.16171 0.55748 0.04248 0.0
C1628 C 0.09014 0.61025 0.05878 0.0
C1629 C 0.98645 0.45378 0.10837 0.0
C1630 C 0.97867 0.43411 0.07512 0.0
C1631 C 1.006 0.57739 0.0376 0.0
C1632 C 0.97732 0.57617 0.04847 0.0
C1633 C 0.96756 0.55683 0.07166 0.0
C1634 C 0.96018 0.59604 0.03696 0.0
C1635 C 0.9333 0.59666 0.04861 0.0
C1636 C 0.94103 0.55732 0.08335 0.0
C1637 C 0.92395 0.57701 0.07193 0.0
C1638 C 0.10431 0.55072 0.09261 0.0
C1639 C 0.07902 0.49553 1.00239 0.0
C1640 C 0.16384 0.53004 0.0216 0.0
C1641 C 0.1916 0.53052 1.00853 0.0
C1642 C 0.1996 0.5479 0.98326 0.0
C1643 C 0.20944 0.51141 0.01995 0.0
C1644 C 0.23527 0.50954 1.00621 0.0
C1645 C 0.22507 0.54605 0.96937 0.0
C1646 C 0.24285 0.52702 0.98071 0.0
C1647 C 0.06489 0.55619 0.96862 0.0
H1648 H 0.98047 0.54161 0.08098 0.0
H1649 H 0.96806 0.61149 0.01953 0.0
H1650 H 0.93366 0.54235 0.10131 0.0
H1651 H 0.90322 0.57646 0.08105 0.0
H1652 H 0.18616 0.5626 0.97399 0.0
H1653 H 0.20285 0.49741 0.03897 0.0
H1654 H 0.23106 0.5594 0.94974 0.0
H1655 H 0.26271 0.52639 0.96983 0.0
C1656 C 0.04657 0.16292 0.96429 0.0
C1657 C 0.04993 0.18993 0.99279 0.0
H1658 H 0.04869 0.11147 0.94461 0.0
C1659 C 0.0577 0.18333 0.0248 0.0
H1660 H 0.04089 0.16651 0.93919 0.0
C1661 C 0.06168 0.15112 0.0281 0.0
C1662 C 0.05905 0.12444 0.99939 0.0
H1663 H 0.06061 0.20318 0.04759 0.0
H1664 H 0.06695 0.14721 0.05315 0.0
C1665 C 0.05122 0.1311 0.96751 0.0
C1666 C 0.21505 0.83256 0.20635 0.0
C1667 C 0.21674 0.82762 0.17127 0.0
H1668 H 0.23537 0.83284 0.25559 0.0
C1669 C 0.24256 0.82134 0.16005 0.0
H1670 H 0.19554 0.83721 0.21607 0.0
C1671 C 0.26553 0.81918 0.18274 0.0
C1672 C 0.26356 0.82264 0.21766 0.0
H1673 H 0.24495 0.81754 0.13337 0.0
H1674 H 0.28467 0.81392 0.17251 0.0
C1675 C 0.23803 0.82996 0.22913 0.0
C1676 C 0.55256 0.89895 0.46712 0.0
C1677 C 0.54852 0.88702 0.49689 0.0
H1678 H 0.56361 0.94198 0.44463 0.0
C1679 C 0.55226 0.91169 0.52766 0.0
H1680 H 0.5499 0.88113 0.4429 0.0
C1681 C 0.56033 0.94687 0.52865 0.0
C1682 C 0.56439 0.95864 0.49882 0.0
H1683 H 0.54941 0.90385 0.55123 0.0
H1684 H 0.56392 0.9648 0.5529 0.0
C1685 C 0.56036 0.93403 0.46811 0.0
C1686 C 0.55853 0.32305 0.70086 0.0
C1687 C 0.55001 0.3147 0.66566 0.0
H1688 H 0.54553 0.32413 0.7501 0.0
C1689 C 0.5203 0.30162 0.65339 0.0
H1690 H 0.58113 0.33344 0.71127 0.0
C1691 C 0.49978 0.29601 0.67574 0.0
C1692 C 0.50847 0.30332 0.71092 0.0
H1693 H 0.5129 0.29497 0.62642 0.0
H1694 H 0.47726 0.28487 0.66535 0.0
C1695 C 0.53806 0.31753 0.72315 0.0
C1696 C 0.05001 0.85411 0.62321 0.0
C1697 C 0.03491 0.81983 0.61576 0.0
H1698 H 0.07145 0.89585 0.60406 0.0
C1699 C 0.02905 0.80131 0.58179 0.0
H1700 H 0.05497 0.86901 0.64909 0.0
C1701 C 0.03826 0.8168 0.55579 0.0
C1702 C 0.05347 0.85108 0.56327 0.0
H1703 H 0.0175 0.77474 0.57525 0.0
H1704 H 0.03319 0.80207 0.52985 0.0
C1705 C 0.05931 0.86951 0.5973 0.0
C1706 C 0.56638 0.85112 0.81597 0.0
C1707 C 0.568 0.85324 0.85107 0.0
H1708 H 0.54255 0.8574 0.77172 0.0
C1709 C 0.54694 0.86498 0.86888 0.0
H1710 H 0.58245 0.84238 0.80163 0.0
C1711 C 0.52441 0.87385 0.85183 0.0
C1712 C 0.52249 0.87116 0.81668 0.0
H1713 H 0.54777 0.86726 0.89599 0.0
H1714 H 0.50826 0.88253 0.8661 0.0
C1715 C 0.54381 0.86008 0.79891 0.0
C1716 C 0.50032 0.149 0.07021 0.0
C1717 C 0.50425 0.15941 0.1057 0.0
H1718 H 0.51162 0.1188 0.02671 0.0
C1719 C 0.52157 0.14469 0.12482 0.0
H1720 H 0.48694 0.15968 0.0548 0.0
C1721 C 0.53635 0.12193 0.10872 0.0
C1722 C 0.53386 0.11318 0.0732 0.0
H1723 H 0.52509 0.15215 0.15226 0.0
H1724 H 0.55042 0.11214 0.12421 0.0
C1725 C 0.51485 0.12595 0.05412 0.0
C1726 C 0.23165 0.31449 0.35104 0.0
C1727 C 0.21485 0.32795 0.32992 0.0
H1728 H 0.27183 0.30159 0.36107 0.0
C1729 C 0.22543 0.33711 0.30106 0.0
H1730 H 0.22413 0.3072 0.37352 0.0
C1731 C 0.25275 0.33348 0.2939 0.0
C1732 C 0.26932 0.32027 0.31533 0.0
H1733 H 0.21296 0.34767 0.28451 0.0
H1734 H 0.26117 0.34157 0.27216 0.0
C1735 C 0.25884 0.31112 0.344 0.0
C1736 C 0.99674 0.05618 0.15923 0.0
C1737 C 1.01027 0.08369 0.18716 0.0
H1738 H 0.99741 0.02898 0.10747 0.0
C1739 C 0.03645 0.10465 0.1812 0.0
H1740 H 0.97661 0.03912 0.16155 0.0
C1741 C 0.0484 0.09889 0.15012 0.0
C1742 C 0.03518 0.0717 0.12211 0.0
H1743 H 0.04822 0.12625 0.201 0.0
H1744 H 0.06833 0.11641 0.14811 0.0
C1745 C 1.0088 0.05044 0.12762 0.0
C1746 C 0.23601 0.66555 0.46836 0.0
C1747 C 0.2625 0.65769 0.47632 0.0
H1748 H 0.21485 0.69948 0.4488 0.0
C1749 C 0.28823 0.6778 0.46951 0.0
H1750 H 0.21585 0.65056 0.47344 0.0
C1751 C 0.28762 0.70587 0.45615 0.0
C1752 C 0.26129 0.71425 0.44908 0.0
H1753 H 0.30902 0.67252 0.47547 0.0
H1754 H 0.30782 0.72127 0.45156 0.0
C1755 C 0.23543 0.69379 0.45491 0.0
C1756 C 0.64739 0.07584 0.67253 0.0
C1757 C 0.65878 0.04749 0.67224 0.0
H1758 H 0.61967 0.098 0.64495 0.0
C1759 C 0.64733 1.0174 0.64738 0.0
H1760 H 0.65611 0.09932 0.69146 0.0
C1761 C 0.62607 1.01646 0.62157 0.0
C1762 C 0.61662 0.04572 0.62039 0.0
H1763 H 0.65582 0.99524 0.64699 0.0
H1764 H 0.61878 0.9939 0.60114 0.0
C1765 C 0.62657 0.07509 0.64628 0.0
C1766 C 0.34856 0.31819 0.91975 0.0
C1767 C 0.35771 0.35208 0.93829 0.0
H1768 H 0.33334 0.28464 0.87041 0.0
C1769 C 0.35835 0.37836 0.92127 0.0
H1770 H 0.34798 0.29756 0.93244 0.0
C1771 C 0.34986 0.37111 0.88642 0.0
C1772 C 0.34139 0.33742 0.86749 0.0
H1773 H 0.36526 0.40468 0.93508 0.0
H1774 H 0.3502 0.39199 0.87409 0.0
C1775 C 0.34053 0.31086 0.8844 0.0
C1776 C 0.99691 0.07939 0.40977 0.0
C1777 C 1.0108 0.07075 0.38095 0.0
H1778 H 0.99571 0.08344 0.46354 0.0
C1779 C 0.03673 0.06016 0.38791 0.0
H1780 H 0.97693 0.08726 0.40668 0.0
C1781 C 0.04811 0.05854 0.42122 0.0
C1782 C 0.03371 0.06612 0.44985 0.0
H1783 H 0.04859 0.05291 0.36719 0.0
H1784 H 0.06815 0.05085 0.42433 0.0
C1785 C 1.00788 0.07688 0.44293 0.0
C1786 C 0.27684 0.72507 0.62926 0.0
C1787 C 0.29994 0.71365 0.6158 0.0
H1788 H 0.2637 0.75539 0.67175 0.0
C1789 C 0.32823 0.72729 0.63247 0.0
H1790 H 0.25475 0.71426 0.61698 0.0
C1791 C 0.33326 0.75096 0.66316 0.0
C1792 C 0.31006 0.76102 0.67754 0.0
H1793 H 0.34622 0.71841 0.6226 0.0
H1794 H 0.3549 0.7592 0.67684 0.0
C1795 C 0.28186 0.74838 0.66039 0.0
C1796 C 0.68666 0.04903 0.81463 0.0
C1797 C 0.7073 0.077 0.80963 0.0
H1798 H 0.64768 0.03215 0.8355 0.0
C1799 C 0.70502 0.11006 0.8237 0.0
H1800 H 0.68784 0.02328 0.80404 0.0
C1801 C 0.68165 0.115 0.84084 0.0
C1802 C 0.66063 0.08701 0.84474 0.0
H1803 H 0.72054 0.13213 0.82022 0.0
H1804 H 0.67991 0.14063 0.85094 0.0
C1805 C 0.66361 0.05404 0.83231 0.0
C1806 C 0.32977 0.3096 0.12459 0.0
C1807 C 0.33771 0.34323 0.12096 0.0
H1808 H 0.32062 0.27631 0.15807 0.0
C1809 C 0.34159 0.36983 0.15 0.0
H1810 H 0.32664 0.28848 0.10288 0.0
C1811 C 0.33797 0.36286 0.18195 0.0
C1812 C 0.33031 0.32915 0.18556 0.0
H1813 H 0.34763 0.39609 0.14812 0.0
H1814 H 0.34145 0.38389 0.20382 0.0
C1815 C 0.32616 0.30265 0.1564 0.0
C1816 C 0.28128 0.04772 1.0055 0.0
C1817 C 0.30519 0.04487 0.02598 0.0
H1818 H 0.24425 0.06823 1.00306 0.0
C1819 C 0.31084 0.06218 0.06031 0.0
H1820 H 0.27653 0.03468 0.97898 0.0
C1821 C 0.29205 0.08074 0.07431 0.0
C1822 C 0.26754 0.08267 0.05411 0.0
H1823 H 0.32899 0.06005 0.0768 0.0
H1824 H 0.29588 0.09211 0.10124 0.0
C1825 C 0.2628 0.06678 0.01936 0.0
C1826 C 0.6897 0.66574 0.01773 0.0
C1827 C 0.71238 0.65199 1.00621 0.0
H1828 H 0.64613 0.6566 0.02846 0.0
C1829 C 0.70689 0.61648 0.99443 0.0
H1830 H 0.69293 0.69289 0.0269 0.0
C1831 C 0.6795 0.59527 0.99515 0.0
C1832 C 0.65724 0.6092 1.00799 0.0
H1833 H 0.72387 0.60503 0.98531 0.0
H1834 H 0.67616 0.56807 0.98683 0.0
C1835 C 0.66268 0.64475 0.01867 0.0
C1836 C 0.75978 0.42166 0.30223 0.0
C1837 C 0.75915 0.43171 0.2709 0.0
H1838 H 0.7731 0.3895 0.33317 0.0
C1839 C 0.77417 0.41407 0.24686 0.0
H1840 H 0.74902 0.43353 0.32198 0.0
C1841 C 0.7883 0.38827 0.25331 0.0
C1842 C 0.78875 0.37812 0.28454 0.0
H1843 H 0.7749 0.42001 0.22219 0.0
H1844 H 0.79858 0.37589 0.23335 0.0
C1845 C 0.77398 0.39587 0.30869 0.0
C1846 C 0.96499 0.45425 0.51209 0.0
C1847 C 0.95121 0.48108 0.51555 0.0
H1848 H 1.00479 0.43936 0.50745 0.0
C1849 C 0.96658 0.51303 0.51237 0.0
H1850 H 0.95349 0.42909 0.51372 0.0
C1851 C 0.99583 0.51874 0.50858 0.0
C1852 C 1.01027 0.49265 0.50772 0.0
H1853 H 0.95639 0.53405 0.51428 0.0
H1854 H 1.00727 0.54413 0.50831 0.0
C1855 C 0.99426 0.45998 0.50807 0.0
C1856 C 0.36862 0.1293 0.3161 0.0
C1857 C 0.39811 0.13048 0.31607 0.0
H1858 H 0.33006 0.13371 0.28882 0.0
C1859 C 0.4122 0.13948 0.28908 0.0
H1860 H 0.35735 0.12174 0.33645 0.0
C1861 C 0.39652 0.1453 0.26142 0.0
C1862 C 0.36672 0.14267 0.26077 0.0
H1863 H 0.43483 0.13963 0.2882 0.0
H1864 H 0.40752 0.15125 0.24034 0.0
C1865 C 0.35305 0.13566 0.28874 0.0
C1866 C 0.37477 0.1294 0.51289 0.0
C1867 C 0.37846 0.16228 0.53307 0.0
H1868 H 0.38994 0.08387 0.50434 0.0
C1869 C 0.4019 0.17531 0.55925 0.0
H1870 H 0.35707 0.11883 0.49235 0.0
C1871 C 0.42048 0.15522 0.56609 0.0
C1872 C 0.41603 0.12207 0.54662 0.0
H1873 H 0.40529 0.20053 0.57524 0.0
H1874 H 0.43785 0.16519 0.58709 0.0
C1875 C 0.3935 0.10946 0.5196 0.0
C1876 C 0.7714 0.63746 0.24633 0.0
C1877 C 0.75752 0.62555 0.2726 0.0
H1878 H 0.79663 0.67928 0.22912 0.0
C1879 C 0.75961 0.64999 0.30321 0.0
H1880 H 0.77046 0.6201 0.2222 0.0
C1881 C 0.77435 0.6848 0.30683 0.0
C1882 C 0.78817 0.69627 0.28031 0.0
H1883 H 0.74919 0.64245 0.32408 0.0
H1884 H 0.77503 0.70276 0.33048 0.0
C1885 C 0.78659 0.67174 0.25023 0.0
C1886 C 0.90976 0.42153 0.79643 0.0
C1887 C 0.89484 0.44716 0.80224 0.0
H1888 H 0.90622 0.36827 0.78017 0.0
C1889 C 0.86448 0.43894 0.79546 0.0
H1890 H 0.93319 0.42745 0.80135 0.0
C1891 C 0.84922 0.40524 0.78258 0.0
C1892 C 0.86421 0.37972 0.7781 0.0
H1893 H 0.85269 0.45855 0.79932 0.0
H1894 H 0.82584 0.39905 0.77663 0.0
C1895 C 0.89447 0.38792 0.78443 0.0
C1896 C 0.10378 0.91848 0.03563 0.0
C1897 C 0.1098 0.91168 0.06793 0.0
H1898 H 0.09522 0.95447 1.00681 0.0
C1899 C 0.11013 0.93773 0.09637 0.0
H1900 H 0.10321 0.89933 0.0129 0.0
C1901 C 0.10441 0.96892 0.09273 0.0
C1902 C 0.09848 0.97583 0.06054 0.0
H1903 H 0.11436 0.93384 0.12166 0.0
H1904 H 0.10473 0.98791 0.1155 0.0
C1905 C 0.09879 0.95014 0.032 0.0
C1906 C 0.93706 0.28673 0.88481 0.0
C1907 C 0.94547 0.25624 0.8738 0.0
H1908 H 0.90723 0.31711 0.87713 0.0
C1909 C 0.92856 0.23266 0.84508 0.0
H1910 H 0.94938 0.30567 0.90663 0.0
C1911 C 0.90474 0.23967 0.82753 0.0
C1912 C 0.89647 0.27019 0.83836 0.0
H1913 H 0.93395 0.20877 0.8357 0.0
H1914 H 0.89261 0.22093 0.80548 0.0
C1915 C 0.91275 0.29336 0.86769 0.0
C1916 C 0.60797 0.20646 0.59196 0.0
C1917 C 0.61294 0.2196 0.56307 0.0
H1918 H 0.59729 0.16237 0.61275 0.0
C1919 C 0.61114 0.19603 0.53196 0.0
H1920 H 0.60935 0.22345 0.61643 0.0
C1921 C 0.60383 0.16059 0.52977 0.0
C1922 C 0.59891 0.14765 0.55882 0.0
H1923 H 0.61488 0.20494 0.50907 0.0
H1924 H 0.60152 0.14338 0.50526 0.0
C1925 C 0.60121 0.17124 0.58987 0.0
C1926 C 0.61164 0.80945 0.38069 0.0
C1927 C 0.60722 0.7774 0.38854 0.0
H1928 H 0.6366 0.84526 0.35669 0.0
C1929 C 0.62615 0.7569 0.37825 0.0
H1930 H 0.59787 0.82621 0.38879 0.0
C1931 C 0.64836 0.76777 0.35945 0.0
C1932 C 0.65216 0.79944 0.35072 0.0
H1933 H 0.62343 0.73214 0.38405 0.0
H1934 H 0.66191 0.75091 0.35083 0.0
C1935 C 0.63389 0.82038 0.36223 0.0
C1936 C 0.14086 0.30108 0.49977 0.0
C1937 C 0.13483 0.28626 0.46486 0.0
H1938 H 0.13049 0.29712 0.54935 0.0
C1939 C 0.11499 0.25458 0.45313 0.0
H1940 H 0.15596 0.32566 0.50933 0.0
C1941 C 0.10075 0.2383 0.47596 0.0
C1942 C 0.10582 0.25385 0.51066 0.0
H1943 H 0.11008 0.24273 0.42629 0.0
H1944 H 0.08511 0.21408 0.46643 0.0
C1945 C 0.12618 0.28507 0.52255 0.0
C1946 C 0.60565 0.26252 0.23786 0.0
C1947 C 0.59197 0.2378 0.20858 0.0
H1948 H 0.64004 0.27747 0.27945 0.0
C1949 C 0.60162 0.20804 0.19948 0.0
H1950 H 0.59851 0.28564 0.24527 0.0
C1951 C 0.62461 0.20302 0.21948 0.0
C1952 C 0.63844 0.2279 0.24844 0.0
H1953 H 0.59114 0.18844 0.1772 0.0
H1954 H 0.63204 0.18012 0.21197 0.0
C1955 C 0.62907 0.25778 0.25747 0.0
C1956 C 0.64479 0.96213 0.92471 0.0
C1957 C 0.64987 0.93343 0.93482 0.0
H1958 H 0.62811 1.00589 0.93664 0.0
C1959 C 0.64453 0.929 0.9674 0.0
H1960 H 0.64892 0.96645 0.89996 0.0
C1961 C 0.63225 0.95152 0.98837 0.0
C1962 C 0.62511 0.97868 0.97703 0.0
H1963 H 0.64831 0.90712 0.976 0.0
H1964 H 0.62692 0.94655 0.01248 0.0
C1965 C 0.63251 0.9845 0.94561 0.0
C1966 C 0.94618 0.787 0.74988 0.0
C1967 C 0.94135 0.75223 0.73558 0.0
H1968 H 0.9282 0.82681 0.77117 0.0
C1969 C 0.91463 0.73032 0.73657 0.0
H1970 H 0.96699 0.80432 0.75033 0.0
C1971 C 0.89188 0.74382 0.74758 0.0
C1972 C 0.89574 0.77922 0.75805 0.0
H1973 H 0.91058 0.70324 0.72624 0.0
H1974 H 0.87084 0.72668 0.74566 0.0
C1975 C 0.92366 0.80016 0.76161 0.0
C1976 C 0.14721 1.01112 0.89016 0.0
C1977 C 0.15122 0.03904 0.87422 0.0
H1978 H 0.13089 0.98913 0.93134 0.0
C1979 C 0.13971 0.06619 0.89 0.0
H1980 H 0.1555 0.98951 0.87982 0.0
C1981 C 0.12582 0.0661 0.91973 0.0
C1982 C 0.12221 0.0388 0.93611 0.0
H1983 H 0.1415 0.08831 0.87933 0.0
H1984 H 0.11753 0.08777 0.92969 0.0
C1985 C 0.13296 1.01097 0.92018 0.0
C1986 C 0.87996 0.43909 0.62224 0.0
C1987 C 0.85556 0.42245 0.59807 0.0
H1988 H 0.91241 0.43404 0.65887 0.0
C1989 C 0.84256 0.38807 0.59601 0.0
H1990 H 0.89033 0.46568 0.62473 0.0
C1991 C 0.85535 0.36995 0.61562 0.0
C1992 C 0.88129 0.38599 0.63743 0.0
H1993 H 0.82366 0.37461 0.57774 0.0
H1994 H 0.846 0.34295 0.61206 0.0
C1995 C 0.89278 0.42098 0.64163 0.0
C1996 C 0.5143 0.08536 0.40767 0.0
C1997 C 0.50328 0.0542 0.38414 0.0
H1998 H 0.54321 0.11157 0.45305 0.0
C1999 C 0.51688 0.02753 0.38411 0.0
H2000 H 0.50436 0.10641 0.40785 0.0
C2001 C 0.53896 0.03063 0.40978 0.0
C2002 C 0.54786 0.06057 0.43504 0.0
H2003 H 0.50894 1.00334 0.36603 0.0
H2004 H 0.54734 1.00875 0.41156 0.0
C2005 C 0.53664 0.08853 0.43314 0.0
C2006 C 0.80403 0.73288 0.129 0.0
C2007 C 0.8066 0.76146 0.11486 0.0
H2008 H 0.80719 0.71397 0.17393 0.0
C2009 C 0.81252 0.79385 0.13697 0.0
H2010 H 0.79927 0.70751 0.11297 0.0
C2011 C 0.81709 0.79751 0.17235 0.0
C2012 C 0.81536 0.76878 0.18612 0.0
H2013 H 0.81461 0.81641 0.12697 0.0
H2014 H 0.82293 0.82273 0.1888 0.0
C2015 C 0.80846 0.73653 0.16403 0.0
C2016 C 0.11951 0.04244 0.67424 0.0
C2017 C 0.14617 0.0332 0.6807 0.0
H2018 H 0.08741 0.0515 0.63854 0.0
C2019 C 0.16084 0.02737 0.65203 0.0
H2020 H 0.10702 0.04746 0.6949 0.0
C2021 C 0.14983 0.03115 0.61944 0.0
C2022 C 0.12324 0.04049 0.61302 0.0
H2023 H 0.18139 0.02069 0.65485 0.0
H2024 H 0.16252 0.02664 0.59886 0.0
C2025 C 0.10815 0.04534 0.64146 0.0
C2026 C 0.837 0.38165 0.43341 0.0
C2027 C 0.86156 0.40879 0.43778 0.0
H2028 H 0.81327 0.33396 0.40229 0.0
C2029 C 0.88392 0.40556 0.41811 0.0
H2030 H 0.81982 0.38337 0.449 0.0
C2031 C 0.88053 0.37694 0.39217 0.0
C2032 C 0.8544 0.35157 0.38493 0.0
H2033 H 0.90361 0.42566 0.42197 0.0
H2034 H 0.89742 0.37603 0.376 0.0
C2035 C 0.83341 0.35313 0.40697 0.0
C2036 C 0.49526 0.06671 0.24613 0.0
C2037 C 0.47341 0.04457 0.25751 0.0
H2038 H 0.53105 0.07147 0.21754 0.0
C2039 C 0.47041 1.00932 0.2476 0.0
H2040 H 0.49812 0.09397 0.2535 0.0
C2041 C 0.48961 0.99655 0.22763 0.0
C2042 C 0.51176 0.01879 0.21689 0.0
H2043 H 0.45392 0.99165 0.25626 0.0
H2044 H 0.48712 0.96934 0.22049 0.0
C2045 C 0.51416 0.0539 0.22578 0.0
C2046 C 0.84042 0.79543 0.93876 0.0
C2047 C 0.83055 0.76106 0.93955 0.0
H2048 H 0.85125 0.83173 0.90845 0.0
C2049 C 0.82606 0.73637 0.90893 0.0
H2050 H 0.84393 0.81514 0.96178 0.0
C2051 C 0.83099 0.74584 0.87829 0.0
C2052 C 0.84038 0.78028 0.87737 0.0
H2053 H 0.81866 0.70964 0.90858 0.0
H2054 H 0.82688 0.72613 0.85519 0.0
C2055 C 0.84503 0.80492 0.90809 0.0
C2056 C 0.8957 0.10523 0.02002 0.0
C2057 C 0.86822 0.09059 0.0276 0.0
H2058 H 0.93315 0.09626 0.99778 0.0
C2059 C 0.85831 0.05505 0.02089 0.0
H2060 H 0.90385 0.13255 0.02487 0.0
C2061 C 0.87488 0.03448 1.00504 0.0
C2062 C 0.9017 0.04919 0.99622 0.0
H2063 H 0.8373 0.04311 0.02675 0.0
H2064 H 0.86659 1.00713 0.99917 0.0
C2065 C 0.9124 0.08459 1.0045 0.0
C2066 C 0.45945 0.49474 0.09017 0.0
C2067 C 0.44297 0.46701 0.06488 0.0
H2068 H 0.49956 0.53269 0.10592 0.0
C2069 C 0.45521 0.45627 0.03555 0.0
H2070 H 0.45078 0.50351 0.1132 0.0
C2071 C 0.4829 0.47322 0.0312 0.0
C2072 C 0.49919 0.50144 0.05603 0.0
H2073 H 0.4433 0.4349 0.0156 0.0
H2074 H 0.49131 0.46428 1.00804 0.0
C2075 C 0.48735 0.51163 0.08588 0.0
C2076 C 0.3983 0.68267 0.75908 0.0
C2077 C 0.40032 0.67348 0.7908 0.0
H2078 H 0.38419 0.71464 0.72839 0.0
C2079 C 0.38705 0.69245 0.81587 0.0
H2080 H 0.40768 0.66974 0.73856 0.0
C2081 C 0.37326 0.71869 0.81001 0.0
C2082 C 0.37143 0.72799 0.7784 0.0
H2083 H 0.38746 0.68723 0.84089 0.0
H2084 H 0.36432 0.73205 0.83069 0.0
C2085 C 0.38448 0.70896 0.75324 0.0
C2086 C 0.19703 0.62909 0.58935 0.0
C2087 C 0.21032 0.60232 0.57907 0.0
H2088 H 0.15813 0.64674 0.58477 0.0
C2089 C 0.19433 0.5725 0.55655 0.0
H2090 H 0.20927 0.6529 0.60583 0.0
C2091 C 0.16569 0.56939 0.54446 0.0
C2092 C 0.15197 0.59548 0.55521 0.0
H2093 H 0.2043 0.55201 0.5472 0.0
H2094 H 0.1548 0.54698 0.52555 0.0
C2095 C 0.16803 0.62585 0.57703 0.0
C2096 C 0.74296 0.96154 0.77606 0.0
C2097 C 0.75462 0.9657 0.7461 0.0
H2098 H 0.75159 0.95814 0.82756 0.0
C2099 C 0.78406 0.96729 0.74451 0.0
H2100 H 0.72037 0.96071 0.77815 0.0
C2101 C 0.80201 0.96724 0.77307 0.0
C2102 C 0.79072 0.96469 0.80357 0.0
H2103 H 0.79357 0.97075 0.72177 0.0
H2104 H 0.82492 0.97008 0.77144 0.0
C2105 C 0.76093 0.96106 0.80462 0.0
C2106 C 0.75532 0.93577 0.53027 0.0
C2107 C 0.7856 0.94594 0.53184 0.0
H2108 H 0.71467 0.94739 0.51943 0.0
C2109 C 0.79822 0.97777 0.52568 0.0
H2110 H 0.74491 0.91143 0.535 0.0
C2111 C 0.78092 0.99855 0.51715 0.0
C2112 C 0.75058 0.98796 0.51443 0.0
H2113 H 0.8215 0.98647 0.52692 0.0
H2114 H 0.79137 0.0229 0.5125 0.0
C2115 C 0.73798 0.95651 0.52157 0.0
C2116 C 0.39185 0.44125 0.73328 0.0
C2117 C 0.39968 0.46935 0.76162 0.0
H2118 H 0.37101 0.3881 0.71313 0.0
C2119 C 0.3906 0.46315 0.79253 0.0
H2120 H 0.39826 0.44431 0.70893 0.0
C2121 C 0.3751 0.4302 0.79494 0.0
C2122 C 0.36761 0.40228 0.76647 0.0
H2123 H 0.39629 0.48349 0.81517 0.0
H2124 H 0.36926 0.42644 0.81932 0.0
C2125 C 0.37608 0.40866 0.73559 0.0
C2126 C 0.25196 0.66335 0.20887 0.0
C2127 C 0.27115 0.64255 0.21094 0.0
H2128 H 0.24467 0.71286 0.22442 0.0
C2129 C 0.29902 0.65665 0.2291 0.0
H2130 H 0.23009 0.65289 0.1958 0.0
C2131 C 0.3075 0.69119 0.24504 0.0
C2132 C 0.28801 0.7117 0.24333 0.0
H2133 H 0.31394 0.64086 0.23149 0.0
H2134 H 0.32892 0.70165 0.25935 0.0
C2135 C 0.26013 0.69747 0.22552 0.0
C2136 C 0.55495 0.68471 0.52386 0.0
C2137 C 0.54857 0.69119 0.49146 0.0
H2138 H 0.56318 0.64886 0.55306 0.0
C2139 C 0.54675 0.66436 0.46322 0.0
H2140 H 0.55661 0.70444 0.54646 0.0
C2141 C 0.5517 0.63287 0.46712 0.0
C2142 C 0.55833 0.62642 0.49941 0.0
H2143 H 0.54214 0.66791 0.43786 0.0
H2144 H 0.55046 0.61336 0.44445 0.0
C2145 C 0.55912 0.65278 0.52777 0.0
C2146 C 0.73313 0.30036 0.65349 0.0
C2147 C 0.71303 0.31826 0.66616 0.0
H2148 H 0.77159 0.28389 0.66327 0.0
C2149 C 0.71817 0.3346 0.70086 0.0
H2150 H 0.73025 0.28747 0.62699 0.0
C2151 C 0.74219 0.33211 0.7222 0.0
C2152 C 0.76189 0.31338 0.70957 0.0
H2153 H 0.70332 0.34867 0.71172 0.0
H2154 H 0.7452 0.34503 0.74849 0.0
C2155 C 0.75711 0.29825 0.67458 0.0
C2156 C 0.05203 0.41016 0.02769 0.0
C2157 C 0.0503 0.38624 0.99682 0.0
H2158 H 0.06298 0.46296 0.05425 0.0
C2159 C 0.05699 0.3991 0.96815 0.0
H2160 H 0.04703 0.4015 0.05041 0.0
C2161 C 0.06508 0.43433 0.9702 0.0
C2162 C 0.06715 0.45826 1.00101 0.0
H2163 H 0.05572 0.38188 0.94385 0.0
H2164 H 0.07009 0.44294 0.94743 0.0
C2165 C 0.0608 0.44557 0.02987 0.0
C2166 C 0.05847 0.82272 0.19839 0.0
C2167 C 0.05072 0.8098 0.16329 0.0
H2168 H 0.0448 0.82792 0.24757 0.0
C2169 C 0.02166 0.79262 0.15093 0.0
H2170 H 0.08054 0.83638 0.20881 0.0
C2171 C 1.00108 0.78754 0.17329 0.0
C2172 C 1.00913 0.7995 0.20852 0.0
H2173 H 0.01489 0.78241 0.12401 0.0
H2174 H 0.97914 0.77325 0.16305 0.0
C2175 C 0.03796 0.81772 0.22066 0.0
C2176 C 0.53022 0.3035 0.08415 0.0
C2177 C 0.53606 0.32251 0.11794 0.0
H2178 H 0.53448 0.30336 0.03205 0.0
C2179 C 0.5509 0.35686 0.12485 0.0
H2180 H 0.51887 0.27687 0.07802 0.0
C2181 C 0.56014 0.37179 0.09862 0.0
C2182 C 0.5545 0.3528 0.06481 0.0
H2183 H 0.55582 0.37214 0.15058 0.0
H2184 H 0.57218 0.39817 0.10501 0.0
C2185 C 0.53939 0.31851 0.05783 0.0
C2186 C 0.06805 0.35177 0.31385 0.0
C2187 C 0.06994 0.35602 0.34923 0.0
H2188 H 0.04347 0.3547 0.26849 0.0
C2189 C 0.04877 0.36832 0.36634 0.0
H2190 H 0.08417 0.34249 0.30004 0.0
C2191 C 0.02581 0.37556 0.34839 0.0
C2192 C 0.02349 0.37059 0.31297 0.0
H2193 H 0.04979 0.37224 0.39363 0.0
H2194 H 1.00966 0.38479 0.36223 0.0
C2195 C 0.04497 0.35905 0.29584 0.0
C2196 C 0.99931 0.64828 0.56799 0.0
C2197 C 1.00186 0.65794 0.60344 0.0
H2198 H 0.01277 0.61962 0.52517 0.0
C2199 C 0.01901 0.64354 0.62314 0.0
H2200 H 0.98611 0.65876 0.55215 0.0
C2201 C 0.03486 0.62176 0.60773 0.0
C2202 C 0.03372 0.61378 0.57232 0.0
H2203 H 0.02148 0.65045 0.65058 0.0
H2204 H 0.04862 0.61206 0.62369 0.0
C2205 C 0.015 0.62628 0.55257 0.0
C2206 C 0.75713 0.85227 0.86777 0.0
C2207 C 0.72905 0.84574 0.8508 0.0
H2208 H 0.80168 0.85543 0.86302 0.0
C2209 C 0.72461 0.83939 0.81515 0.0
H2210 H 0.76115 0.85714 0.89517 0.0
C2211 C 0.74803 0.83909 0.79677 0.0
C2212 C 0.7758 0.84438 0.81392 0.0
H2213 H 0.70309 0.83442 0.8015 0.0
H2214 H 0.74437 0.83374 0.76933 0.0
C2215 C 0.78031 0.85144 0.84943 0.0
C2216 C 0.49722 0.55493 0.66021 0.0
C2217 C 0.50926 0.58369 0.68745 0.0
H2218 H 0.49945 0.52704 0.60921 0.0
C2219 C 0.53429 0.60629 0.68102 0.0
H2220 H 0.478 0.53659 0.66292 0.0
C2221 C 0.54654 0.60088 0.65015 0.0
C2222 C 0.53491 0.57242 0.62288 0.0
H2223 H 0.54485 0.62896 0.70023 0.0
H2224 H 0.56534 0.61979 0.64765 0.0
C2225 C 0.50964 0.54953 0.62881 0.0
C2226 C 0.7532 0.14824 0.92994 0.0
C2227 C 0.77923 0.15682 0.95202 0.0
H2228 H 0.72538 0.16551 0.89726 0.0
C2229 C 0.79965 0.18749 0.95345 0.0
H2230 H 0.73713 0.12472 0.92822 0.0
C2231 C 0.79298 0.21062 0.93553 0.0
C2232 C 0.76573 0.20345 0.91623 0.0
H2233 H 0.82003 0.19455 0.97007 0.0
H2234 H 0.80818 0.23512 0.93889 0.0
C2235 C 0.74642 0.17155 0.91233 0.0
C2236 C 0.14154 0.52718 0.16394 0.0
C2237 C 0.15594 0.55959 0.18362 0.0
H2238 H 0.11276 0.49905 0.11904 0.0
C2239 C 0.14837 0.58847 0.17683 0.0
H2240 H 0.14725 0.50462 0.16888 0.0
C2241 C 0.1291 0.58522 0.14806 0.0
C2242 C 0.11694 0.55308 0.12677 0.0
H2243 H 0.15944 0.61363 0.19158 0.0
H2244 H 0.12532 0.60789 0.14109 0.0
C2245 C 0.12189 0.52392 0.13564 0.0
C2246 C 0.86967 0.8767 0.42279 0.0
C2247 C 0.86148 0.8518 0.44124 0.0
H2248 H 0.86793 0.8893 0.37433 0.0
C2249 C 0.8472 0.81852 0.42364 0.0
H2250 H 0.88062 0.90257 0.43575 0.0
C2251 C 0.84116 0.8105 0.38797 0.0
C2252 C 0.84874 0.83591 0.36977 0.0
H2253 H 0.84064 0.79892 0.4374 0.0
H2254 H 0.82941 0.785 0.37483 0.0
C2255 C 0.86271 0.86905 0.38764 0.0
C2256 C 0.53653 0.56008 0.8876 0.0
C2257 C 0.51058 0.57066 0.88084 0.0
H2258 H 0.56816 0.55091 0.92387 0.0
C2259 C 0.49685 0.5794 0.90977 0.0
H2260 H 0.54823 0.55273 0.86676 0.0
C2261 C 0.50796 0.57691 0.94285 0.0
C2262 C 0.5338 0.56614 0.9496 0.0
H2263 H 0.47683 0.58721 0.90678 0.0
H2264 H 0.49586 0.58347 0.96354 0.0
C2265 C 0.54809 0.55856 0.92088 0.0
C2266 C 0.82304 0.25591 0.12341 0.0
C2267 C 0.8129 0.22055 0.11762 0.0
H2268 H 0.82969 0.30355 0.15904 0.0
C2269 C 0.79832 0.20625 0.14181 0.0
H2270 H 0.8334 0.26752 0.10451 0.0
C2271 C 0.79605 0.22659 0.17246 0.0
C2272 C 0.80897 0.26154 0.17994 0.0
H2273 H 0.78897 0.17916 0.13734 0.0
H2274 H 0.78543 0.21445 0.19086 0.0
C2275 C 0.82094 0.27639 0.15449 0.0
C2276 C 0.21099 0.60357 0.32745 0.0
C2277 C 0.21076 0.57074 0.30921 0.0
H2278 H 0.18834 0.6347 0.35834 0.0
C2279 C 0.18792 0.54329 0.31093 0.0
H2280 H 0.22823 0.62533 0.32682 0.0
C2281 C 0.1652 0.54883 0.3292 0.0
C2282 C 0.16479 0.5819 0.34556 0.0
H2283 H 0.187 0.51775 0.29713 0.0
H2284 H 0.14746 0.52749 0.32964 0.0
C2285 C 0.18808 0.60911 0.34521 0.0
C2286 C 0.80543 0.83152 0.63332 0.0
C2287 C 0.82725 0.85774 0.62726 0.0
H2288 H 0.78598 0.80665 0.66969 0.0
C2289 C 0.84545 0.88065 0.65528 0.0
H2290 H 0.79051 0.81388 0.61252 0.0
C2291 C 0.8429 0.87625 0.6883 0.0
C2292 C 0.8224 0.84852 0.69416 0.0
H2293 H 0.86205 0.90171 0.65171 0.0
H2294 H 0.85788 0.89386 0.70904 0.0
C2295 C 0.80292 0.8272 0.6663 0.0
C2296 C 0.8075 0.56036 0.5355 0.0
C2297 C 0.79606 0.52547 0.52173 0.0
H2298 H 0.79957 0.60683 0.56188 0.0
C2299 C 0.76627 0.51142 0.52032 0.0
H2300 H 0.83035 0.57196 0.53653 0.0
C2301 C 0.74874 0.53132 0.53523 0.0
C2302 C 0.76071 0.56562 0.55149 0.0
H2303 H 0.75683 0.48461 0.50976 0.0
H2304 H 0.72627 0.51923 0.53589 0.0
C2305 C 0.78996 0.58028 0.55023 0.0
C2306 C 0.20566 0.1151 0.49224 0.0
C2307 C 0.2121 0.15037 0.50617 0.0
H2308 H 0.17408 0.06715 0.48301 0.0
C2309 C 0.19033 0.16429 0.52004 0.0
H2310 H 0.22195 0.10357 0.48124 0.0
C2311 C 0.16324 0.1436 0.52114 0.0
C2312 C 0.15686 0.10822 0.50831 0.0
H2313 H 0.19434 0.19126 0.53093 0.0
H2314 H 0.14742 0.15556 0.53275 0.0
C2315 C 0.1782 0.09422 0.49315 0.0
C2316 C 0.27297 0.91207 0.74462 0.0
C2317 C 0.25869 0.93027 0.76909 0.0
H2318 H 0.2966 0.8732 0.73061 0.0
C2319 C 0.25986 0.92067 0.80062 0.0
H2320 H 0.27322 0.91767 0.71978 0.0
C2321 C 0.27386 0.89468 0.80686 0.0
C2322 C 0.2879 0.87638 0.7823 0.0
H2323 H 0.24965 0.93301 0.82067 0.0
H2324 H 0.27342 0.88861 0.83151 0.0
C2325 C 0.28693 0.8861 0.75087 0.0
C2326 C 0.46428 0.95303 1.00958 0.0
C2327 C 0.45045 0.9797 0.01076 0.0
H2328 H 0.50455 0.93844 1.00889 0.0
C2329 C 0.4664 1.0116 1.00837 0.0
H2330 H 0.45236 0.92796 0.01099 0.0
C2331 C 0.49597 1.01737 1.00705 0.0
C2332 C 0.51035 0.99147 1.00779 0.0
H2333 H 0.45631 0.03254 1.00867 0.0
H2334 H 0.50749 0.04266 1.00691 0.0
C2335 C 0.49406 0.9589 1.00809 0.0
C2336 C 0.89782 0.62668 0.79231 0.0
C2337 C 0.89004 0.62094 0.82356 0.0
H2338 H 0.88295 0.63163 0.74299 0.0
C2339 C 0.861 0.61587 0.82928 0.0
H2340 H 0.92001 0.62977 0.78704 0.0
C2341 C 0.83985 0.61608 0.80385 0.0
C2342 C 0.84756 0.62086 0.77237 0.0
H2343 H 0.85463 0.61079 0.85307 0.0
H2344 H 0.81758 0.61304 0.80881 0.0
C2345 C 0.87661 0.62646 0.76676 0.0
C2346 C 0.89189 0.63622 0.99055 0.0
C2347 C 0.87525 0.65164 0.01288 0.0
H2348 H 0.92304 0.60626 0.9842 0.0
C2349 C 0.8795 0.65102 0.04733 0.0
H2350 H 0.88921 0.63646 0.9639 0.0
C2351 C 0.89912 0.6343 0.05902 0.0
C2352 C 0.91475 0.61737 0.03651 0.0
H2353 H 0.8675 0.66331 0.06535 0.0
H2354 H 0.9018 0.63434 0.08574 0.0
C2355 C 0.91139 0.61911 1.00224 0.0
C2356 C 0.27291 0.14522 0.8036 0.0
C2357 C 0.25636 0.1259 0.77241 0.0
H2358 H 0.30103 0.19361 0.83156 0.0
C2359 C 0.25689 0.14265 0.74532 0.0
H2360 H 0.27346 0.13382 0.82525 0.0
C2361 C 0.27239 0.17668 0.74901 0.0
C2362 C 0.28853 0.19627 0.77995 0.0
H2363 H 0.24498 0.12944 0.72065 0.0
H2364 H 0.272 0.18752 0.72703 0.0
C2365 C 0.28892 0.1797 0.8072 0.0
C2366 C 0.39703 0.93792 0.33119 0.0
C2367 C 0.3747 0.95301 0.32273 0.0
H2368 H 0.4108 0.89177 0.32733 0.0
C2369 C 0.34791 0.93244 0.30596 0.0
H2370 H 0.41812 0.95326 0.34365 0.0
C2371 C 0.34372 0.89729 0.2971 0.0
C2372 C 0.36635 0.88238 0.30473 0.0
H2373 H 0.33051 0.94355 0.29894 0.0
H2374 H 0.32308 0.88192 0.28345 0.0
C2375 C 0.39303 0.90288 0.32166 0.0
C2376 C 0.61253 0.44091 0.59696 0.0
C2377 C 0.61034 0.41423 0.56845 0.0
H2378 H 0.60964 0.49214 0.61633 0.0
C2379 C 0.60408 0.42115 0.53625 0.0
H2380 H 0.6171 0.43703 0.62219 0.0
C2381 C 0.60044 0.45341 0.53278 0.0
C2382 C 0.60166 0.47966 0.5614 0.0
H2383 H 0.60216 0.40156 0.51347 0.0
H2384 H 0.59653 0.45769 0.50762 0.0
C2385 C 0.60809 0.47274 0.59349 0.0
C2386 C 0.41279 0.74274 0.3804 0.0
C2387 C 0.44215 0.7589 0.38025 0.0
H2388 H 0.3681 0.73588 0.36052 0.0
C2389 C 0.44823 0.78039 0.35759 0.0
H2390 H 0.407 0.72593 0.39725 0.0
C2391 C 0.42577 0.78547 0.33596 0.0
C2392 C 0.39649 0.76979 0.33674 0.0
H2393 H 0.47037 0.79355 0.35673 0.0
H2394 H 0.43126 0.80248 0.3192 0.0
C2395 C 0.39034 0.74844 0.35933 0.0
C2396 C 0.11259 0.70639 0.09288 0.0
C2397 C 0.11531 0.71918 0.06346 0.0
H2398 H 0.10327 0.66253 0.11428 0.0
C2399 C 0.11166 0.69533 0.03214 0.0
H2400 H 0.11536 0.7236 0.1175 0.0
C2401 C 0.10465 0.65997 0.03031 0.0
C2402 C 0.10147 0.64738 0.0598 0.0
H2403 H 0.11363 0.70393 1.00883 0.0
H2404 H 0.10093 0.64252 1.00573 0.0
C2405 C 0.10576 0.67121 0.09105 0.0
C2406 C 0.10066 0.27732 0.85928 0.0
C2407 C 0.10883 0.28937 0.89442 0.0
H2408 H 0.11398 0.27287 0.80983 0.0
C2409 C 0.13827 0.30511 0.90654 0.0
H2410 H 0.07832 0.26482 0.84903 0.0
C2411 C 0.1588 0.30961 0.88399 0.0
C2412 C 0.15032 0.29867 0.84881 0.0
H2413 H 0.1454 0.31468 0.93347 0.0
H2414 H 0.18106 0.3228 0.89402 0.0
C2415 C 0.12112 0.28195 0.83681 0.0
C2416 C 0.64058 0.80116 0.99639 0.0
C2417 C 0.63742 0.78523 0.96182 0.0
H2418 H 0.62709 0.7981 0.04488 0.0
C2419 C 0.61941 0.75238 0.94997 0.0
H2420 H 0.65413 0.82664 1.00613 0.0
C2421 C 0.60419 0.73607 0.97223 0.0
C2422 C 0.60639 0.7527 1.00643 0.0
H2423 H 0.61659 0.73965 0.92342 0.0
H2424 H 0.58994 0.71096 0.96252 0.0
C2425 C 0.62495 0.7851 0.01848 0.0
C2426 C 0.10923 0.72559 0.69164 0.0
C2427 C 0.08888 0.74058 0.70771 0.0
H2428 H 0.14851 0.70969 0.69785 0.0
C2429 C 0.0928 0.75122 0.74328 0.0
H2430 H 0.10669 0.7169 0.66432 0.0
C2431 C 0.11657 0.74668 0.76244 0.0
C2432 C 0.13684 0.73174 0.74626 0.0
H2433 H 0.07741 0.76283 0.75634 0.0
H2434 H 0.11939 0.75535 0.78978 0.0
C2435 C 0.13305 0.7213 0.71077 0.0
C2436 C 0.146 0.43059 0.47079 0.0
C2437 C 0.15179 0.43514 0.43838 0.0
H2438 H 0.12698 0.44724 0.51494 0.0
C2439 C 0.1464 0.46352 0.42791 0.0
H2440 H 0.15009 0.40899 0.47971 0.0
C2441 C 0.13315 0.48525 0.44817 0.0
C2442 C 0.12506 0.47903 0.47921 0.0
H2443 H 0.15089 0.46794 0.4033 0.0
H2444 H 0.12858 0.50639 0.43893 0.0
C2445 C 0.1327 0.45241 0.49105 0.0
C2446 C 0.44094 0.27304 0.24952 0.0
C2447 C 0.43527 0.26607 0.21385 0.0
H2448 H 0.42318 0.28119 0.29668 0.0
C2449 C 0.40712 0.26242 0.19839 0.0
H2450 H 0.46253 0.27604 0.26212 0.0
C2451 C 0.38497 0.26512 0.21805 0.0
C2452 C 0.39054 0.27197 0.25353 0.0
H2453 H 0.40203 0.25706 0.17107 0.0
H2454 H 0.36344 0.26197 0.20538 0.0
C2455 C 0.41859 0.27587 0.2693 0.0
C2456 C 0.6704 0.56222 0.41313 0.0
C2457 C 0.66043 0.53885 0.38124 0.0
H2458 H 0.66405 0.58156 0.4646 0.0
C2459 C 0.63314 0.51576 0.37972 0.0
H2460 H 0.69096 0.58079 0.4166 0.0
C2461 C 0.61708 0.51641 0.40837 0.0
C2462 C 0.62744 0.53998 0.44025 0.0
H2463 H 0.62404 0.4971 0.35635 0.0
H2464 H 0.59646 0.49816 0.40539 0.0
C2465 C 0.65466 0.56269 0.44145 0.0
C2466 C 0.38214 0.916 0.08542 0.0
C2467 C 0.35355 0.90898 0.06924 0.0
H2468 H 0.41397 0.89719 0.11045 0.0
C2469 C 0.33511 0.87654 0.06526 0.0
H2470 H 0.39697 0.94073 0.08878 0.0
C2471 C 0.34509 0.85165 0.07761 0.0
C2472 C 0.37374 0.85878 0.09324 0.0
H2473 H 0.31303 0.8705 0.05283 0.0
H2474 H 0.33033 0.82717 0.07583 0.0
C2475 C 0.39219 0.89099 0.0971 0.0
C2476 C 0.01361 0.57753 0.91219 0.0
C2477 C 0.99784 0.54424 0.89664 0.0
H2478 H 0.0503 0.60795 0.94739 0.0
C2479 C 1.01056 0.517 0.89675 0.0
H2480 H 1.0044 0.59902 0.91164 0.0
C2481 C 0.0372 0.52242 0.91596 0.0
C2482 C 0.05071 0.55488 0.93567 0.0
H2483 H 0.99916 0.49128 0.88388 0.0
H2484 H 0.04518 0.50062 0.91912 0.0
C2485 C 0.04016 0.58284 0.93181 0.0
C2486 C 0.31181 0.28813 0.63566 0.0
C2487 C 0.30845 0.25574 0.61435 0.0
H2488 H 0.32033 0.31831 0.68695 0.0
C2489 C 0.30902 0.22823 0.62944 0.0
H2490 H 0.31146 0.30989 0.62494 0.0
C2491 C 0.31353 0.23298 0.66465 0.0
C2492 C 0.31761 0.26533 0.68594 0.0
H2493 H 0.30636 0.20287 0.61404 0.0
H2494 H 0.31442 0.21127 0.6753 0.0
C2495 C 0.31664 0.29295 0.67116 0.0
C2496 C 0.6613 0.52886 0.15185 0.0
C2497 C 0.64597 0.53332 0.18012 0.0
H2498 H 0.66359 0.52937 0.09901 0.0
C2499 C 0.61887 0.54148 0.17332 0.0
H2500 H 0.68219 0.52305 0.15497 0.0
C2501 C 0.60773 0.54468 0.14058 0.0
C2502 C 0.6234 0.5411 0.11255 0.0
H2503 H 0.60586 0.5454 0.19366 0.0
H2504 H 0.58667 0.55003 0.13736 0.0
C2505 C 0.65044 0.53284 0.1193 0.0
C2506 C 0.38132 0.90438 0.91573 0.0
C2507 C 0.35768 0.91311 0.93028 0.0
H2508 H 0.39565 0.86842 0.87999 0.0
C2509 C 0.33076 0.88925 0.92385 0.0
H2510 H 0.40263 0.92179 0.92137 0.0
C2511 C 0.32676 0.85853 0.90012 0.0
C2512 C 0.34978 0.85133 0.88306 0.0
H2513 H 0.31242 0.89518 0.93558 0.0
H2514 H 0.30516 0.84222 0.89296 0.0
C2515 C 0.37748 0.87351 0.89268 0.0
C2516 C 1.00672 0.57486 0.76006 0.0
C2517 C 0.97914 0.55666 0.76413 0.0
H2518 H 0.04432 0.574 0.7347 0.0
C2519 C 0.96744 0.52381 0.74366 0.0
H2520 H 0.01617 0.60024 0.77538 0.0
C2521 C 0.9839 0.50855 0.7214 0.0
C2522 C 0.01189 0.52626 0.71866 0.0
H2523 H 0.9462 0.50915 0.74605 0.0
H2524 H 0.97497 0.48278 0.7067 0.0
C2525 C 0.02288 0.55985 0.73716 0.0
C2526 C 0.34274 0.28984 0.43596 0.0
C2527 C 0.33229 0.25586 0.43771 0.0
H2528 H 0.35341 0.32467 0.40426 0.0
C2529 C 0.32757 0.23039 0.40766 0.0
H2530 H 0.34671 0.31009 0.45859 0.0
C2531 C 0.33241 0.23879 0.37655 0.0
C2532 C 0.34144 0.27289 0.37447 0.0
H2533 H 0.32016 0.20386 0.40815 0.0
H2534 H 0.32878 0.21851 0.35404 0.0
C2535 C 0.34702 0.29822 0.40471 0.0
C2536 C 0.36115 0.55184 0.53082 0.0
C2537 C 0.36707 0.58684 0.53205 0.0
H2538 H 0.37297 0.50508 0.51306 0.0
C2539 C 0.39135 0.60219 0.51842 0.0
H2540 H 0.34273 0.5394 0.54138 0.0
C2541 C 0.40861 0.58252 0.50248 0.0
C2542 C 0.40163 0.54735 0.49978 0.0
H2543 H 0.39644 0.62909 0.51898 0.0
H2544 H 0.42682 0.59452 0.49126 0.0
C2545 C 0.37823 0.53217 0.51455 0.0
C2546 C 0.95407 0.95854 0.53561 0.0
C2547 C 0.94327 0.96747 0.56644 0.0
H2548 H 0.98899 0.96775 0.50657 0.0
C2549 C 0.96097 0.99336 0.59259 0.0
H2550 H 0.94114 0.93866 0.51491 0.0
C2551 C 0.98871 1.01022 0.58774 0.0
C2552 C 0.9992 1.00163 0.5566 0.0
H2553 H 0.95338 1.00076 0.61671 0.0
H2554 H 1.00186 0.02997 0.60837 0.0
C2555 C 0.98165 0.9753 0.5308 0.0
C2556 C 0.89888 0.18374 0.26 0.0
C2557 C 0.90122 0.1746 0.2917 0.0
H2558 H 0.88434 0.21555 0.22948 0.0
C2559 C 0.88816 0.19355 0.31701 0.0
H2560 H 0.90807 0.17079 0.23931 0.0
C2561 C 0.87422 0.21973 0.31136 0.0
C2562 C 0.87207 0.22897 0.27975 0.0
H2563 H 0.88881 0.18832 0.34204 0.0
H2564 H 0.86537 0.23304 0.33217 0.0
C2565 C 0.88491 0.20996 0.25436 0.0
C2566 C 0.69688 0.08795 0.05097 0.0
C2567 C 0.71112 0.12241 0.05686 0.0
H2568 H 0.65653 0.05133 0.04125 0.0
C2569 C 0.69491 0.14696 0.06222 0.0
H2570 H 0.70881 0.06847 0.04712 0.0
C2571 C 0.66475 0.13704 0.0591 0.0
C2572 C 0.65043 0.1025 0.05091 0.0
H2573 H 0.70537 0.17381 0.06728 0.0
H2574 H 0.65256 0.15628 0.06152 0.0
C2575 C 0.6668 0.0781 0.04785 0.0
C2576 C 0.25586 0.45662 0.24299 0.0
C2577 C 0.26332 0.48397 0.22763 0.0
H2578 H 0.26662 0.43496 0.28409 0.0
C2579 C 0.2841 0.51358 0.24487 0.0
H2580 H 0.23947 0.43388 0.23022 0.0
C2581 C 0.30002 0.51404 0.27534 0.0
C2582 C 0.29487 0.485 0.28861 0.0
H2583 H 0.2899 0.53503 0.23328 0.0
H2584 H 0.31815 0.53552 0.28649 0.0
C2585 C 0.27119 0.45741 0.27377 0.0
C2586 C 0.28729 0.45298 1.00676 0.0
C2587 C 0.2932 0.45431 0.04152 0.0
H2588 H 0.26381 0.46847 0.96834 0.0
C2589 C 0.27886 0.47264 0.06456 0.0
H2590 H 0.29755 0.43855 0.98826 0.0
C2591 C 0.25969 0.49019 0.0531 0.0
C2592 C 0.25435 0.48952 0.01837 0.0
H2593 H 0.28287 0.474 0.09147 0.0
H2594 H 0.24962 0.50497 0.07153 0.0
C2595 C 0.268 0.47024 0.99532 0.0
C2596 C 0.918 0.94031 0.259 0.0
C2597 C 0.90793 0.97004 0.26846 0.0
H2598 H 0.91046 0.88624 0.25179 0.0
C2599 C 0.87948 0.96516 0.27737 0.0
H2600 H 0.93951 0.94211 0.25178 0.0
C2601 C 0.8623 0.93206 0.27721 0.0
C2602 C 0.87288 0.90253 0.26826 0.0
H2603 H 0.87062 0.98693 0.28501 0.0
H2604 H 0.84095 0.92979 0.28495 0.0
C2605 C 0.90108 0.90767 0.25897 0.0
C2606 C 0.75656 0.16442 0.73299 0.0
C2607 C 0.77419 0.14151 0.72769 0.0
H2608 H 0.75409 0.21469 0.75608 0.0
C2609 C 0.80301 0.15133 0.74362 0.0
H2610 H 0.73396 0.15706 0.72212 0.0
C2611 C 0.81442 0.18433 0.76315 0.0
C2612 C 0.79702 0.20747 0.76672 0.0
H2613 H 0.81673 0.13369 0.74054 0.0
H2614 H 0.83691 0.19206 0.77446 0.0
C2615 C 0.76785 0.19709 0.75273 0.0
loop_
_geom_bond_atom_site_label_1
_geom_bond_atom_site_label_2
_geom_bond_distance
_geom_bond_site_symmetry_2
_ccdc_geom_bond_type
C0 O1 1.160 . S
C0 O7 1.185 . S
O1 C0 1.160 . S
O2 Zn3 1.899 . S
O2 C10 1.284 . S
Zn3 O2 1.899 . S
Zn3 O4 2.032 . S
Zn3 O7 2.086 . S
Zn3 O12 1.977 . S
O4 Zn3 2.032 . S
O4 C8 1.278 . S
C5 O6 1.203 . S
C5 O12 1.267 . S
O6 C5 1.203 . S
O7 C0 1.185 . S
O7 Zn3 2.086 . S
C8 O4 1.278 . S
C8 O9 1.211 . S
O9 C8 1.211 . S
C10 O2 1.284 . S
C10 O11 1.273 . S
O11 C10 1.273 . S
O12 Zn3 1.977 . S
O12 C5 1.267 . S
C13 O14 1.160 . S
C13 O20 1.185 . S
O14 C13 1.160 . S
O15 Zn16 1.899 . S
O15 C23 1.284 . S
Zn16 O15 1.899 . S
Zn16 O17 2.032 . S
Zn16 O20 2.086 . S
Zn16 O25 1.977 1_655 S
O17 Zn16 2.032 . S
O17 C21 1.278 1_655 S
C18 O19 1.203 . S
C18 O25 1.267 . S
O19 C18 1.203 . S
O20 C13 1.185 . S
O20 Zn16 2.086 . S
C21 O17 1.278 1_455 S
C21 O22 1.211 . S
O22 C21 1.211 . S
C23 O15 1.284 . S
C23 O24 1.273 1_655 S
O24 C23 1.273 1_455 S
O25 Zn16 1.977 1_455 S
O25 C18 1.267 . S
C26 O27 1.160 . S
C26 O33 1.185 . S
O27 C26 1.160 . S
O28 Zn29 1.899 . S
O28 C36 1.284 . S
Zn29 O28 1.899 . S
Zn29 O30 2.032 . S
Zn29 O33 2.086 . S
Zn29 O38 1.977 . S
O30 Zn29 2.032 . S
O30 C34 1.278 . S
C31 O32 1.203 . S
C31 O38 1.267 . S
O32 C31 1.203 . S
O33 C26 1.185 . S
O33 Zn29 2.086 . S
C34 O30 1.278 . S
C34 O35 1.211 . S
O35 C34 1.211 . S
C36 O28 1.284 . S
C36 O37 1.273 . S
O37 C36 1.273 . S
O38 Zn29 1.977 . S
O38 C31 1.267 . S
C39 O40 1.160 . S
C39 O46 1.185 . S
O40 C39 1.160 . S
O41 Zn42 1.899 . S
O41 C49 1.284 . S
Zn42 O41 1.899 . S
Zn42 O43 2.032 . S
Zn42 O46 2.086 . S
Zn42 O51 1.977 . S
O43 Zn42 2.032 . S
O43 C47 1.278 . S
C44 O45 1.203 . S
C44 O51 1.267 . S
O45 C44 1.203 . S
O46 C39 1.185 . S
O46 Zn42 2.086 . S
C47 O43 1.278 . S
C47 O48 1.211 . S
O48 C47 1.211 . S
C49 O41 1.284 . S
C49 O50 1.273 . S
O50 C49 1.273 . S
O51 Zn42 1.977 . S
O51 C44 1.267 . S
C52 O53 1.160 . S
C52 O59 1.185 . S
O53 C52 1.160 . S
O54 Zn55 1.899 . S
O54 C62 1.284 . S
Zn55 O54 1.899 . S
Zn55 O56 2.032 . S
Zn55 O59 2.086 . S
Zn55 O64 1.977 . S
O56 Zn55 2.032 . S
O56 C60 1.278 . S
C57 O58 1.203 . S
C57 O64 1.267 . S
O58 C57 1.203 . S
O59 C52 1.185 . S
O59 Zn55 2.086 . S
C60 O56 1.278 . S
C60 O61 1.211 . S
O61 C60 1.211 . S
C62 O54 1.284 . S
C62 O63 1.273 . S
O63 C62 1.273 . S
O64 Zn55 1.977 . S
O64 C57 1.267 . S
C65 O66 1.160 . S
C65 O72 1.185 . S
O66 C65 1.160 . S
O67 Zn68 1.899 . S
O67 C75 1.284 . S
Zn68 O67 1.899 . S
Zn68 O69 2.032 . S
Zn68 O72 2.086 . S
Zn68 O77 1.977 . S
O69 Zn68 2.032 . S
O69 C73 1.278 . S
C70 O71 1.203 . S
C70 O77 1.267 . S
O71 C70 1.203 . S
O72 C65 1.185 . S
O72 Zn68 2.086 . S
C73 O69 1.278 . S
C73 O74 1.211 . S
O74 C73 1.211 . S
C75 O67 1.284 . S
C75 O76 1.273 . S
O76 C75 1.273 . S
O77 Zn68 1.977 . S
O77 C70 1.267 . S
C78 O79 1.160 . S
C78 O85 1.185 . S
O79 C78 1.160 . S
O80 Zn81 1.899 . S
O80 C88 1.284 . S
Zn81 O80 1.899 . S
Zn81 O82 2.032 . S
Zn81 O85 2.086 . S
Zn81 O90 1.977 . S
O82 Zn81 2.032 . S
O82 C86 1.278 . S
C83 O84 1.203 . S
C83 O90 1.267 . S
O84 C83 1.203 . S
O85 C78 1.185 . S
O85 Zn81 2.086 . S
C86 O82 1.278 . S
C86 O87 1.211 . S
O87 C86 1.211 . S
C88 O80 1.284 . S
C88 O89 1.273 . S
O89 C88 1.273 . S
O90 Zn81 1.977 . S
O90 C83 1.267 . S
C91 O92 1.160 . S
C91 O98 1.185 . S
O92 C91 1.160 . S
O93 Zn94 1.899 . S
O93 C101 1.284 . S
Zn94 O93 1.899 . S
Zn94 O95 2.032 . S
Zn94 O98 2.086 . S
Zn94 O103 1.977 1_455 S
O95 Zn94 2.032 . S
O95 C99 1.278 . S
C96 O97 1.203 . S
C96 O103 1.267 . S
O97 C96 1.203 . S
O98 C91 1.185 . S
O98 Zn94 2.086 . S
C99 O95 1.278 . S
C99 O100 1.211 . S
O100 C99 1.211 . S
C101 O93 1.284 . S
C101 O102 1.272 1_556 S
O102 C101 1.272 1_554 S
O103 Zn94 1.977 1_655 S
O103 C96 1.267 . S
C104 O105 1.160 . S
C104 O111 1.185 . S
O105 C104 1.160 . S
O106 Zn107 1.899 . S
O106 C114 1.284 1_545 S
Zn107 O106 1.899 . S
Zn107 O108 2.032 . S
Zn107 O111 2.086 . S
Zn107 O116 1.977 1_545 S
O108 Zn107 2.032 . S
O108 C112 1.278 . S
C109 O110 1.203 . S
C109 O116 1.267 . S
O110 C109 1.203 . S
O111 C104 1.185 . S
O111 Zn107 2.086 . S
C112 O108 1.278 . S
C112 O113 1.211 1_545 S
O113 C112 1.211 1_565 S
C114 O106 1.284 1_565 S
C114 O115 1.273 . S
O115 C114 1.273 . S
O116 Zn107 1.977 1_565 S
O116 C109 1.267 . S
C117 O118 1.160 . S
C117 O124 1.185 . S
O118 C117 1.160 . S
O119 Zn120 1.899 . S
O119 C127 1.284 . S
Zn120 O119 1.899 . S
Zn120 O121 2.032 . S
Zn120 O124 2.086 . S
Zn120 O129 1.977 . S
O121 Zn120 2.032 . S
O121 C125 1.278 . S
C122 O123 1.203 . S
C122 O129 1.267 . S
O123 C122 1.203 . S
O124 C117 1.185 . S
O124 Zn120 2.086 . S
C125 O121 1.278 . S
C125 O126 1.211 . S
O126 C125 1.211 . S
C127 O119 1.284 . S
C127 O128 1.273 . S
O128 C127 1.273 . S
O129 Zn120 1.977 . S
O129 C122 1.267 . S
C130 O131 1.160 . S
C130 O137 1.185 . S
O131 C130 1.160 . S
O132 Zn133 1.899 . S
O132 C140 1.284 . S
Zn133 O132 1.899 . S
Zn133 O134 2.032 . S
Zn133 O137 2.086 . S
Zn133 O142 1.977 1_565 S
O134 Zn133 2.032 . S
O134 C138 1.278 1_565 S
C135 O136 1.203 . S
C135 O142 1.267 . S
O136 C135 1.203 . S
O137 C130 1.185 . S
O137 Zn133 2.086 . S
C138 O134 1.278 1_545 S
C138 O139 1.211 . S
O139 C138 1.211 . S
C140 O132 1.284 . S
C140 O141 1.273 1_565 S
O141 C140 1.273 1_545 S
O142 Zn133 1.977 1_545 S
O142 C135 1.267 . S
C143 O144 1.160 . S
C143 O150 1.185 . S
O144 C143 1.160 . S
O145 Zn146 1.899 . S
O145 C153 1.284 . S
Zn146 O145 1.899 . S
Zn146 O147 2.032 1_554 S
Zn146 O150 2.086 . S
Zn146 O155 1.977 . S
O147 Zn146 2.032 1_556 S
O147 C151 1.278 . S
C148 O149 1.203 . S
C148 O155 1.267 . S
O149 C148 1.203 . S
O150 C143 1.185 . S
O150 Zn146 2.086 . S
C151 O147 1.278 . S
C151 O152 1.211 . S
O152 C151 1.211 . S
C153 O145 1.284 . S
C153 O154 1.273 . S
O154 C153 1.273 . S
O155 Zn146 1.977 . S
O155 C148 1.267 . S
C156 O157 1.160 . S
C156 O163 1.185 . S
O157 C156 1.160 . S
O158 Zn159 1.899 . S
O158 C166 1.284 . S
Zn159 O158 1.899 . S
Zn159 O160 2.057 . S
Zn159 O163 2.086 . S
Zn159 O168 1.977 . S
O160 Zn159 2.057 . S
O160 C164 1.260 1_554 S
C161 O162 1.203 . S
C161 O168 1.267 . S
O162 C161 1.203 . S
O163 C156 1.185 . S
O163 Zn159 2.086 . S
C164 O160 1.260 1_556 S
C164 O165 1.211 . S
O165 C164 1.211 . S
C166 O158 1.284 . S
C166 O167 1.273 . S
O167 C166 1.273 . S
O168 Zn159 1.977 . S
O168 C161 1.267 . S
C169 O170 1.160 . S
C169 O176 1.185 . S
O170 C169 1.160 . S
O171 Zn172 1.899 . S
O171 C179 1.284 . S
Zn172 O171 1.899 . S
Zn172 O173 2.032 . S
Zn172 O176 2.086 . S
Zn172 O181 1.977 . S
O173 Zn172 2.032 . S
O173 C177 1.278 1_554 S
C174 O175 1.203 . S
C174 O181 1.267 . S
O175 C174 1.203 . S
O176 C169 1.185 . S
O176 Zn172 2.086 . S
C177 O173 1.278 1_556 S
C177 O178 1.211 . S
O178 C177 1.211 . S
C179 O171 1.284 . S
C179 O180 1.273 . S
O180 C179 1.273 . S
O181 Zn172 1.977 . S
O181 C174 1.267 . S
C182 O183 1.160 . S
C182 O189 1.185 . S
O183 C182 1.160 . S
O184 Zn185 1.899 . S
O184 C192 1.284 . S
Zn185 O184 1.899 . S
Zn185 O186 2.032 . S
Zn185 O189 2.086 . S
Zn185 O194 1.977 . S
O186 Zn185 2.032 . S
O186 C190 1.278 . S
C187 O188 1.203 . S
C187 O194 1.267 . S
O188 C187 1.203 . S
O189 C182 1.185 . S
O189 Zn185 2.086 . S
C190 O186 1.278 . S
C190 O191 1.211 . S
O191 C190 1.211 . S
C192 O184 1.284 . S
C192 O193 1.273 . S
O193 C192 1.273 . S
O194 Zn185 1.977 . S
O194 C187 1.267 . S
C195 O196 1.160 . S
C195 O202 1.185 . S
O196 C195 1.160 . S
O197 Zn198 1.899 . S
O197 C205 1.284 . S
Zn198 O197 1.899 . S
Zn198 O199 2.032 . S
Zn198 O202 2.086 . S
Zn198 O207 1.977 . S
O199 Zn198 2.032 . S
O199 C203 1.278 . S
C200 O201 1.203 . S
C200 O207 1.267 . S
O201 C200 1.203 . S
O202 C195 1.185 . S
O202 Zn198 2.086 . S
C203 O199 1.278 . S
C203 O204 1.211 . S
O204 C203 1.211 . S
C205 O197 1.284 . S
C205 O206 1.273 . S
O206 C205 1.273 . S
O207 Zn198 1.977 . S
O207 C200 1.267 . S
C208 O209 1.160 . S
C208 O215 1.185 . S
O209 C208 1.160 . S
O210 Zn211 1.899 . S
O210 C218 1.284 . S
Zn211 O210 1.899 . S
Zn211 O212 2.032 . S
Zn211 O215 2.086 . S
Zn211 O220 1.977 . S
O212 Zn211 2.032 . S
O212 C216 1.278 . S
C213 O214 1.205 . S
C213 O220 1.260 1_565 S
O214 C213 1.205 . S
O215 C208 1.185 . S
O215 Zn211 2.086 . S
C216 O212 1.278 . S
C216 O217 1.211 . S
O217 C216 1.211 . S
C218 O210 1.284 . S
C218 O219 1.273 1_655 S
O219 C218 1.273 1_455 S
O220 Zn211 1.977 . S
O220 C213 1.260 1_545 S
C221 O222 1.160 . S
C221 O228 1.185 . S
O222 C221 1.160 . S
O223 Zn224 1.899 . S
O223 C231 1.284 . S
Zn224 O223 1.899 . S
Zn224 O225 2.032 . S
Zn224 O228 2.086 . S
Zn224 O233 1.977 . S
O225 Zn224 2.032 . S
O225 C229 1.278 . S
C226 O227 1.203 . S
C226 O233 1.267 . S
O227 C226 1.203 . S
O228 C221 1.185 . S
O228 Zn224 2.086 . S
C229 O225 1.278 . S
C229 O230 1.211 . S
O230 C229 1.211 . S
C231 O223 1.284 . S
C231 O232 1.273 . S
O232 C231 1.273 . S
O233 Zn224 1.977 . S
O233 C226 1.267 . S
C234 O235 1.160 . S
C234 O241 1.185 . S
O235 C234 1.160 . S
O236 Zn237 1.899 . S
O236 C244 1.284 . S
Zn237 O236 1.899 . S
Zn237 O238 2.032 . S
Zn237 O241 2.086 . S
Zn237 O246 1.977 . S
O238 Zn237 2.032 . S
O238 C242 1.278 . S
C239 O240 1.203 . S
C239 O246 1.267 . S
O240 C239 1.203 . S
O241 C234 1.185 . S
O241 Zn237 2.086 . S
C242 O238 1.278 . S
C242 O243 1.211 . S
O243 C242 1.211 . S
C244 O236 1.284 . S
C244 O245 1.273 . S
O245 C244 1.273 . S
O246 Zn237 1.977 . S
O246 C239 1.267 . S
C247 O248 1.160 1_545 S
C247 O254 1.185 . S
O248 C247 1.160 1_565 S
O249 Zn250 1.899 . S
O249 C257 1.284 . S
Zn250 O249 1.899 . S
Zn250 O251 2.032 . S
Zn250 O254 2.086 . S
Zn250 O259 1.977 . S
O251 Zn250 2.032 . S
O251 C255 1.278 . S
C252 O253 1.203 . S
C252 O259 1.267 . S
O253 C252 1.203 . S
O254 C247 1.185 . S
O254 Zn250 2.086 . S
C255 O251 1.278 . S
C255 O256 1.211 . S
O256 C255 1.211 . S
C257 O249 1.284 . S
C257 O258 1.273 . S
O258 C257 1.273 . S
O259 Zn250 1.977 . S
O259 C252 1.267 . S
C260 O261 1.160 . S
C260 O267 1.185 1_554 S
O261 C260 1.160 . S
O262 Zn263 1.899 . S
O262 C270 1.284 . S
Zn263 O262 1.899 . S
Zn263 O264 2.032 1_554 S
Zn263 O267 2.086 1_554 S
Zn263 O272 1.977 1_554 S
O264 Zn263 2.032 1_556 S
O264 C268 1.278 . S
C265 O266 1.203 1_556 S
C265 O272 1.267 . S
O266 C265 1.203 1_554 S
O267 C260 1.185 1_556 S
O267 Zn263 2.086 1_556 S
C268 O264 1.278 . S
C268 O269 1.211 . S
O269 C268 1.211 . S
C270 O262 1.284 . S
C270 O271 1.273 . S
O271 C270 1.273 . S
O272 Zn263 1.977 1_556 S
O272 C265 1.267 . S
C273 O274 1.160 . S
C273 O280 1.185 . S
O274 C273 1.160 . S
O275 Zn276 1.899 . S
O275 C283 1.284 . S
Zn276 O275 1.899 . S
Zn276 O277 2.032 . S
Zn276 O280 2.086 . S
Zn276 O285 1.977 . S
O277 Zn276 2.032 . S
O277 C281 1.278 . S
C278 O279 1.203 . S
C278 O285 1.267 . S
O279 C278 1.203 . S
O280 C273 1.185 . S
O280 Zn276 2.086 . S
C281 O277 1.278 . S
C281 O282 1.211 . S
O282 C281 1.211 . S
C283 O275 1.284 . S
C283 O284 1.273 . S
O284 C283 1.273 . S
O285 Zn276 1.977 . S
O285 C278 1.267 . S
C286 O287 1.160 . S
C286 O293 1.185 . S
O287 C286 1.160 . S
O288 Zn289 1.899 . S
O288 C296 1.284 . S
Zn289 O288 1.899 . S
Zn289 O290 2.032 . S
Zn289 O293 2.086 . S
Zn289 O298 1.977 . S
O290 Zn289 2.032 . S
O290 C294 1.278 . S
C291 O292 1.203 . S
C291 O298 1.267 . S
O292 C291 1.203 . S
O293 C286 1.185 . S
O293 Zn289 2.086 . S
C294 O290 1.278 . S
C294 O295 1.211 . S
O295 C294 1.211 . S
C296 O288 1.284 . S
C296 O297 1.273 . S
O297 C296 1.273 . S
O298 Zn289 1.977 . S
O298 C291 1.267 . S
C299 O300 1.160 . S
C299 O306 1.185 . S
O300 C299 1.160 . S
O301 Zn302 1.899 . S
O301 C309 1.284 . S
Zn302 O301 1.899 . S
Zn302 O303 2.032 . S
Zn302 O306 2.086 . S
Zn302 O311 1.977 . S
O303 Zn302 2.032 . S
O303 C307 1.278 . S
C304 O305 1.203 . S
C304 O311 1.267 . S
O305 C304 1.203 . S
O306 C299 1.185 . S
O306 Zn302 2.086 . S
C307 O303 1.278 . S
C307 O308 1.211 . S
O308 C307 1.211 . S
C309 O301 1.284 . S
C309 O310 1.273 . S
O310 C309 1.273 . S
O311 Zn302 1.977 . S
O311 C304 1.267 . S
Gd312 N343 2.661 . S
Gd312 N349 2.601 . S
Gd312 O356 2.545 . S
Gd312 O357 2.606 1_545 S
Gd312 O359 2.429 . S
Gd312 O360 2.545 1_545 S
Gd312 O361 2.412 . S
Gd312 O363 2.362 . S
Gd312 O364 2.324 1_554 S
Gd312 C371 2.828 . S
Gd313 N322 2.661 1_546 S
Gd313 N326 2.601 1_545 S
Gd313 O357 2.362 1_546 S
Gd313 O358 2.324 1_556 S
Gd313 O362 2.545 1_455 S
Gd313 O363 2.606 1_556 S
Gd313 O365 2.429 . S
Gd313 O366 2.545 . S
Gd313 O367 2.412 1_456 S
Gd313 C380 2.828 1_455 S
C314 C317 1.417 1_554 S
C314 C319 1.431 1_554 S
C314 C320 1.412 . S
C315 C318 1.437 . S
C315 C319 1.317 . S
C315 H334 0.929 . S
C316 C317 1.426 . S
C316 C318 1.413 . S
C316 N326 1.359 1_655 S
C317 C314 1.417 1_556 S
C317 C316 1.426 . S
C317 N322 1.350 1_656 S
C318 C315 1.437 . S
C318 C316 1.413 . S
C318 C328 1.391 . S
C319 C314 1.431 1_556 S
C319 C315 1.317 . S
C319 H330 0.930 . S
C320 C314 1.412 . S
C320 C321 1.355 . S
C320 H332 0.930 . S
C321 C320 1.355 . S
C321 C323 1.402 1_655 S
C321 H333 0.930 . S
N322 Gd313 2.661 1_564 S
N322 C317 1.350 1_454 S
N322 C323 1.307 . S
C323 C321 1.402 1_455 S
C323 N322 1.307 . S
C323 H324 0.930 . S
H324 C323 0.930 . S
C325 N326 1.334 . S
C325 C327 1.394 1_455 S
C325 H329 0.930 . S
N326 Gd313 2.601 1_565 S
N326 C316 1.359 1_455 S
N326 C325 1.334 . S
C327 C325 1.394 1_655 S
C327 C328 1.359 . S
C327 H339 0.930 . S
C328 C318 1.391 . S
C328 C327 1.359 . S
C328 H340 0.929 . S
H329 C325 0.930 . S
H330 C319 0.930 . S
H331 C348 0.930 . S
H332 C320 0.930 . S
H333 C321 0.930 . S
H334 C315 0.929 . S
H335 C353 0.930 . S
H336 C344 0.930 . S
H337 C345 0.930 . S
H338 C369 0.929 . S
H339 C327 0.930 . S
H340 C328 0.929 . S
H341 C370 0.930 . S
H342 C351 0.930 . S
N343 Gd312 2.661 . S
N343 C347 1.350 . S
N343 C348 1.307 1_554 S
C344 H336 0.930 . S
C344 C345 1.355 . S
C344 C346 1.412 1_556 S
C345 H337 0.930 . S
C345 C344 1.355 . S
C345 C348 1.402 . S
C346 C344 1.412 1_554 S
C346 C347 1.417 . S
C346 C370 1.431 . S
C347 N343 1.350 . S
C347 C346 1.417 . S
C347 C350 1.426 . S
C348 H331 0.930 . S
C348 N343 1.307 1_556 S
C348 C345 1.402 . S
N349 Gd312 2.601 . S
N349 C350 1.359 . S
N349 C353 1.334 . S
C350 C347 1.426 . S
C350 N349 1.359 . S
C350 C354 1.413 . S
C351 H342 0.930 . S
C351 C352 1.359 . S
C351 C353 1.394 . S
C352 C351 1.359 . S
C352 C354 1.391 . S
C352 H355 0.929 . S
C353 H335 0.930 . S
C353 N349 1.334 . S
C353 C351 1.394 . S
C354 C350 1.413 . S
C354 C352 1.391 . S
C354 C369 1.437 . S
H355 C352 0.929 . S
O356 Gd312 2.545 . S
O356 C371 1.258 . S
O357 Gd312 2.606 1_565 S
O357 Gd313 2.362 1_564 S
O357 C368 1.284 . S
O358 Gd313 2.324 1_554 S
O358 C378 1.254 . S
O359 Gd312 2.429 . S
O359 C378 1.268 . S
O360 Gd312 2.545 1_565 S
O360 C368 1.250 . S
O361 Gd312 2.412 . S
O361 C371 1.252 . S
O362 Gd313 2.545 1_655 S
O362 C380 1.258 . S
O363 Gd312 2.362 . S
O363 Gd313 2.606 1_554 S
O363 C379 1.284 . S
O364 Gd312 2.324 1_556 S
O364 C387 1.254 . S
O365 Gd313 2.429 . S
O365 C387 1.268 . S
O366 Gd313 2.545 . S
O366 C379 1.250 1_556 S
O367 Gd313 2.412 1_654 S
O367 C380 1.252 1_554 S
C368 O357 1.284 . S
C368 O360 1.250 . S
C369 H338 0.929 . S
C369 C354 1.437 . S
C369 C370 1.317 . S
C370 H341 0.930 . S
C370 C346 1.431 . S
C370 C369 1.317 . S
C371 Gd312 2.828 . S
C371 O356 1.258 . S
C371 O361 1.252 . S
C371 C372 1.497 . S
C372 C371 1.497 . S
C372 C373 1.395 . S
C372 C374 1.380 . S
C373 C372 1.395 . S
C373 C376 1.398 . S
C373 H388 0.930 . S
C374 C372 1.380 . S
C374 C375 1.391 . S
C374 H389 0.930 . S
C375 C374 1.391 . S
C375 C377 1.387 . S
C376 C373 1.398 . S
C376 C377 1.380 . S
C376 H390 0.930 . S
C377 C375 1.387 . S
C377 C376 1.380 . S
C377 H391 0.930 . S
C378 O358 1.254 . S
C378 O359 1.268 . S
C379 O363 1.284 . S
C379 O366 1.250 1_554 S
C380 Gd313 2.828 1_655 S
C380 O362 1.258 . S
C380 O367 1.252 1_556 S
C380 C381 1.497 . S
C381 C380 1.497 . S
C381 C382 1.395 1_545 S
C381 C383 1.380 . S
C382 C381 1.395 1_565 S
C382 C385 1.398 1_565 S
C382 H392 0.930 . S
C383 C381 1.380 . S
C383 C384 1.391 . S
C383 H393 0.930 1_556 S
C384 C383 1.391 . S
C384 C386 1.387 . S
C385 C382 1.398 1_545 S
C385 C386 1.380 . S
C385 H394 0.930 1_545 S
C386 C384 1.387 . S
C386 C385 1.380 . S
C386 H395 0.930 . S
C387 O364 1.254 . S
C387 O365 1.268 . S
H388 C373 0.930 . S
H389 C374 0.930 . S
H390 C376 0.930 . S
H391 C377 0.930 . S
H392 C382 0.930 . S
H393 C383 0.930 1_554 S
H394 C385 0.930 1_565 S
H395 C386 0.930 . S
Gd396 N427 2.661 . S
Gd396 N433 2.601 . S
Gd396 O440 2.545 . S
Gd396 O441 2.606 . S
Gd396 O443 2.429 . S
Gd396 O444 2.545 . S
Gd396 O445 2.412 . S
Gd396 O447 2.362 . S
Gd396 O448 2.324 . S
Gd396 C455 2.828 . S
Gd397 N406 2.661 . S
Gd397 N410 2.601 . S
Gd397 O441 2.362 . S
Gd397 O442 2.324 . S
Gd397 O446 2.545 . S
Gd397 O447 2.606 . S
Gd397 O449 2.429 . S
Gd397 O450 2.545 . S
Gd397 O451 2.412 . S
Gd397 C464 2.828 . S
C398 C401 1.417 . S
C398 C403 1.431 . S
C398 C404 1.412 . S
C399 C402 1.437 . S
C399 C403 1.317 . S
C399 H418 0.929 . S
C400 C401 1.426 . S
C400 C402 1.413 . S
C400 N410 1.359 . S
C401 C398 1.417 . S
C401 C400 1.426 . S
C401 N406 1.350 . S
C402 C399 1.437 . S
C402 C400 1.413 . S
C402 C412 1.391 . S
C403 C398 1.431 . S
C403 C399 1.317 . S
C403 H414 0.930 . S
C404 C398 1.412 . S
C404 C405 1.355 . S
C404 H416 0.930 . S
C405 C404 1.355 . S
C405 C407 1.402 . S
C405 H417 0.930 . S
N406 Gd397 2.661 . S
N406 C401 1.350 . S
N406 C407 1.307 . S
C407 C405 1.402 . S
C407 N406 1.307 . S
C407 H408 0.930 . S
H408 C407 0.930 . S
C409 N410 1.334 . S
C409 C411 1.394 . S
C409 H413 0.930 . S
N410 Gd397 2.601 . S
N410 C400 1.359 . S
N410 C409 1.334 . S
C411 C409 1.394 . S
C411 C412 1.359 . S
C411 H423 0.930 . S
C412 C402 1.391 . S
C412 C411 1.359 . S
C412 H424 0.929 . S
H413 C409 0.930 . S
H414 C403 0.930 . S
H415 C432 0.930 . S
H416 C404 0.930 . S
H417 C405 0.930 . S
H418 C399 0.929 . S
H419 C437 0.930 . S
H420 C428 0.930 . S
H421 C429 0.930 . S
H422 C453 0.929 . S
H423 C411 0.930 . S
H424 C412 0.929 . S
H425 C454 0.930 . S
H426 C435 0.930 . S
N427 Gd396 2.661 . S
N427 C431 1.350 . S
N427 C432 1.307 . S
C428 H420 0.930 . S
C428 C429 1.355 . S
C428 C430 1.412 . S
C429 H421 0.930 . S
C429 C428 1.355 . S
C429 C432 1.402 . S
C430 C428 1.412 . S
C430 C431 1.417 . S
C430 C454 1.431 . S
C431 N427 1.350 . S
C431 C430 1.417 . S
C431 C434 1.426 . S
C432 H415 0.930 . S
C432 N427 1.307 . S
C432 C429 1.402 . S
N433 Gd396 2.601 . S
N433 C434 1.359 . S
N433 C437 1.334 . S
C434 C431 1.426 . S
C434 N433 1.359 . S
C434 C438 1.413 . S
C435 H426 0.930 . S
C435 C436 1.359 . S
C435 C437 1.394 . S
C436 C435 1.359 . S
C436 C438 1.391 . S
C436 H439 0.929 . S
C437 H419 0.930 . S
C437 N433 1.334 . S
C437 C435 1.394 . S
C438 C434 1.413 . S
C438 C436 1.391 . S
C438 C453 1.437 . S
H439 C436 0.929 . S
O440 Gd396 2.545 . S
O440 C455 1.258 . S
O441 Gd396 2.606 . S
O441 Gd397 2.362 . S
O441 C452 1.284 . S
O442 Gd397 2.324 . S
O442 C462 1.254 . S
O443 Gd396 2.429 . S
O443 C462 1.268 . S
O444 Gd396 2.545 . S
O444 C452 1.250 . S
O445 Gd396 2.412 . S
O445 C455 1.252 . S
O446 Gd397 2.545 . S
O446 C464 1.258 . S
O447 Gd396 2.362 . S
O447 Gd397 2.606 . S
O447 C463 1.284 . S
O448 Gd396 2.324 . S
O448 C471 1.254 . S
O449 Gd397 2.429 . S
O449 C471 1.268 . S
O450 Gd397 2.545 . S
O450 C463 1.250 . S
O451 Gd397 2.412 . S
O451 C464 1.252 . S
C452 O441 1.284 . S
C452 O444 1.250 . S
C453 H422 0.929 . S
C453 C438 1.437 . S
C453 C454 1.317 . S
C454 H425 0.930 . S
C454 C430 1.431 . S
C454 C453 1.317 . S
C455 Gd396 2.828 . S
C455 O440 1.258 . S
C455 O445 1.252 . S
C455 C456 1.497 . S
C456 C455 1.497 . S
C456 C457 1.395 . S
C456 C458 1.380 . S
C457 C456 1.395 . S
C457 C460 1.398 . S
C457 H472 0.930 . S
C458 C456 1.380 . S
C458 C459 1.391 . S
C458 H473 0.930 . S
C459 C458 1.391 . S
C459 C461 1.387 . S
C460 C457 1.398 . S
C460 C461 1.380 . S
C460 H474 0.930 . S
C461 C459 1.387 . S
C461 C460 1.380 . S
C461 H475 0.930 . S
C462 O442 1.254 . S
C462 O443 1.268 . S
C463 O447 1.284 . S
C463 O450 1.250 . S
C464 Gd397 2.828 . S
C464 O446 1.258 . S
C464 O451 1.252 . S
C464 C465 1.497 . S
C465 C464 1.497 . S
C465 C466 1.395 . S
C465 C467 1.380 . S
C466 C465 1.395 . S
C466 C469 1.398 . S
C466 H476 0.930 . S
C467 C465 1.380 . S
C467 C468 1.391 . S
C467 H477 0.930 . S
C468 C467 1.391 . S
C468 C470 1.387 . S
C469 C466 1.398 . S
C469 C470 1.380 . S
C469 H478 0.930 . S
C470 C468 1.387 . S
C470 C469 1.380 . S
C470 H479 0.930 . S
C471 O448 1.254 . S
C471 O449 1.268 . S
H472 C457 0.930 . S
H473 C458 0.930 . S
H474 C460 0.930 . S
H475 C461 0.930 . S
H476 C466 0.930 . S
H477 C467 0.930 . S
H478 C469 0.930 . S
H479 C470 0.930 . S
Gd480 N511 2.661 1_545 S
Gd480 N517 2.624 . S
Gd480 O524 2.545 . S
Gd480 O525 2.606 . S
Gd480 O527 2.429 . S
Gd480 O528 2.545 . S
Gd480 O529 2.412 . S
Gd480 O531 2.365 1_545 S
Gd480 O532 2.324 . S
Gd480 C539 2.828 . S
Gd481 N490 2.661 . S
Gd481 N494 2.601 . S
Gd481 O525 2.362 . S
Gd481 O526 2.324 . S
Gd481 O530 2.545 . S
Gd481 O531 2.608 1_545 S
Gd481 O533 2.429 . S
Gd481 O534 2.545 1_545 S
Gd481 O535 2.412 . S
Gd481 C548 2.828 . S
C482 C485 1.417 . S
C482 C487 1.431 . S
C482 C488 1.412 . S
C483 C486 1.437 . S
C483 C487 1.317 . S
C483 H502 0.929 . S
C484 C485 1.426 . S
C484 C486 1.413 . S
C484 N494 1.359 . S
C485 C482 1.417 . S
C485 C484 1.426 . S
C485 N490 1.350 . S
C486 C483 1.437 . S
C486 C484 1.413 . S
C486 C496 1.391 . S
C487 C482 1.431 . S
C487 C483 1.317 . S
C487 H498 0.930 . S
C488 C482 1.412 . S
C488 C489 1.355 . S
C488 H500 0.930 . S
C489 C488 1.355 . S
C489 C491 1.402 . S
C489 H501 0.930 . S
N490 Gd481 2.661 . S
N490 C485 1.350 . S
N490 C491 1.307 . S
C491 C489 1.402 . S
C491 N490 1.307 . S
C491 H492 0.930 . S
H492 C491 0.930 . S
C493 N494 1.334 . S
C493 C495 1.394 . S
C493 H497 0.930 . S
N494 Gd481 2.601 . S
N494 C484 1.359 . S
N494 C493 1.334 . S
C495 C493 1.394 . S
C495 C496 1.359 . S
C495 H507 0.930 . S
C496 C486 1.391 . S
C496 C495 1.359 . S
C496 H508 0.929 . S
H497 C493 0.930 . S
H498 C487 0.930 . S
H499 C516 0.930 . S
H500 C488 0.930 . S
H501 C489 0.930 . S
H502 C483 0.929 . S
H503 C521 0.930 . S
H504 C512 0.930 . S
H505 C513 0.930 . S
H506 C537 0.929 . S
H507 C495 0.930 . S
H508 C496 0.929 . S
H509 C538 0.930 . S
H510 C519 0.927 1_545 S
N511 Gd480 2.661 1_565 S
N511 C515 1.350 . S
N511 C516 1.307 . S
C512 H504 0.930 . S
C512 C513 1.355 . S
C512 C514 1.412 . S
C513 H505 0.930 . S
C513 C512 1.355 . S
C513 C516 1.402 . S
C514 C512 1.412 . S
C514 C515 1.417 . S
C514 C538 1.431 . S
C515 N511 1.350 . S
C515 C514 1.417 . S
C515 C518 1.426 . S
C516 H499 0.930 . S
C516 N511 1.307 . S
C516 C513 1.402 . S
N517 Gd480 2.624 . S
N517 C518 1.336 1_545 S
N517 C521 1.339 . S
C518 C515 1.426 . S
C518 N517 1.336 1_565 S
C518 C522 1.413 . S
C519 H510 0.927 1_565 S
C519 C520 1.372 . S
C519 C521 1.385 1_565 S
C520 C519 1.372 . S
C520 C522 1.391 . S
C520 H523 0.929 . S
C521 H503 0.930 . S
C521 N517 1.339 . S
C521 C519 1.385 1_545 S
C522 C518 1.413 . S
C522 C520 1.391 . S
C522 C537 1.437 . S
H523 C520 0.929 . S
O524 Gd480 2.545 . S
O524 C539 1.258 . S
O525 Gd480 2.606 . S
O525 Gd481 2.362 . S
O525 C536 1.284 . S
O526 Gd481 2.324 . S
O526 C546 1.254 . S
O527 Gd480 2.429 . S
O527 C546 1.268 . S
O528 Gd480 2.545 . S
O528 C536 1.250 . S
O529 Gd480 2.412 . S
O529 C539 1.252 . S
O530 Gd481 2.545 . S
O530 C548 1.258 . S
O531 Gd480 2.365 1_565 S
O531 Gd481 2.608 1_565 S
O531 C547 1.281 . S
O532 Gd480 2.324 . S
O532 C555 1.254 . S
O533 Gd481 2.429 . S
O533 C555 1.268 . S
O534 Gd481 2.545 1_565 S
O534 C547 1.250 . S
O535 Gd481 2.412 . S
O535 C548 1.252 . S
C536 O525 1.284 . S
C536 O528 1.250 . S
C537 H506 0.929 . S
C537 C522 1.437 . S
C537 C538 1.317 . S
C538 H509 0.930 . S
C538 C514 1.431 . S
C538 C537 1.317 . S
C539 Gd480 2.828 . S
C539 O524 1.258 . S
C539 O529 1.252 . S
C539 C540 1.497 . S
C540 C539 1.497 . S
C540 C541 1.395 . S
C540 C542 1.380 . S
C541 C540 1.395 . S
C541 C544 1.398 . S
C541 H556 0.930 . S
C542 C540 1.380 . S
C542 C543 1.391 . S
C542 H557 0.930 . S
C543 C542 1.391 . S
C543 C545 1.387 . S
C544 C541 1.398 . S
C544 C545 1.380 . S
C544 H558 0.930 . S
C545 C543 1.387 . S
C545 C544 1.380 . S
C545 H559 0.930 . S
C546 O526 1.254 . S
C546 O527 1.268 . S
C547 O531 1.281 . S
C547 O534 1.250 . S
C548 Gd481 2.828 . S
C548 O530 1.258 . S
C548 O535 1.252 . S
C548 C549 1.497 1_545 S
C549 C548 1.497 1_565 S
C549 C550 1.395 . S
C549 C551 1.380 . S
C550 C549 1.395 . S
C550 C553 1.398 . S
C550 H560 0.930 . S
C551 C549 1.380 . S
C551 C552 1.391 . S
C551 H561 0.930 . S
C552 C551 1.391 . S
C552 C554 1.387 . S
C553 C550 1.398 . S
C553 C554 1.380 . S
C553 H562 0.930 . S
C554 C552 1.387 . S
C554 C553 1.380 . S
C554 H563 0.930 . S
C555 O532 1.254 . S
C555 O533 1.268 . S
H556 C541 0.930 . S
H557 C542 0.930 . S
H558 C544 0.930 . S
H559 C545 0.930 . S
H560 C550 0.930 . S
H561 C551 0.930 . S
H562 C553 0.930 . S
H563 C554 0.930 . S
Gd564 N595 2.661 . S
Gd564 N601 2.601 . S
Gd564 O608 2.545 . S
Gd564 O609 2.606 . S
Gd564 O611 2.429 . S
Gd564 O612 2.545 . S
Gd564 O613 2.412 . S
Gd564 O615 2.362 . S
Gd564 O616 2.324 . S
Gd564 C623 2.828 . S
Gd565 N574 2.661 . S
Gd565 N578 2.601 . S
Gd565 O609 2.362 . S
Gd565 O610 2.324 . S
Gd565 O614 2.545 . S
Gd565 O615 2.606 . S
Gd565 O617 2.429 . S
Gd565 O618 2.545 . S
Gd565 O619 2.412 . S
Gd565 C632 2.828 . S
C566 C569 1.417 . S
C566 C571 1.431 . S
C566 C572 1.412 . S
C567 C570 1.437 . S
C567 C571 1.317 . S
C567 H586 0.929 . S
C568 C569 1.426 . S
C568 C570 1.413 . S
C568 N578 1.359 . S
C569 C566 1.417 . S
C569 C568 1.426 . S
C569 N574 1.350 . S
C570 C567 1.437 . S
C570 C568 1.413 . S
C570 C580 1.391 . S
C571 C566 1.431 . S
C571 C567 1.317 . S
C571 H582 0.930 . S
C572 C566 1.412 . S
C572 C573 1.355 . S
C572 H584 0.930 . S
C573 C572 1.355 . S
C573 C575 1.402 . S
C573 H585 0.930 . S
N574 Gd565 2.661 . S
N574 C569 1.350 . S
N574 C575 1.307 . S
C575 C573 1.402 . S
C575 N574 1.307 . S
C575 H576 0.930 . S
H576 C575 0.930 . S
C577 N578 1.334 . S
C577 C579 1.394 . S
C577 H581 0.930 . S
N578 Gd565 2.601 . S
N578 C568 1.359 . S
N578 C577 1.334 . S
C579 C577 1.394 . S
C579 C580 1.359 . S
C579 H591 0.930 . S
C580 C570 1.391 . S
C580 C579 1.359 . S
C580 H592 0.929 . S
H581 C577 0.930 . S
H582 C571 0.930 . S
H583 C600 0.930 . S
H584 C572 0.930 . S
H585 C573 0.930 . S
H586 C567 0.929 . S
H587 C605 0.930 . S
H588 C596 0.930 . S
H589 C597 0.930 . S
H590 C621 0.929 . S
H591 C579 0.930 . S
H592 C580 0.929 . S
H593 C622 0.930 . S
H594 C603 0.930 . S
N595 Gd564 2.661 . S
N595 C599 1.350 . S
N595 C600 1.307 . S
C596 H588 0.930 . S
C596 C597 1.355 . S
C596 C598 1.412 . S
C597 H589 0.930 . S
C597 C596 1.355 . S
C597 C600 1.402 . S
C598 C596 1.412 . S
C598 C599 1.417 . S
C598 C622 1.431 . S
C599 N595 1.350 . S
C599 C598 1.417 . S
C599 C602 1.426 . S
C600 H583 0.930 . S
C600 N595 1.307 . S
C600 C597 1.402 . S
N601 Gd564 2.601 . S
N601 C602 1.359 . S
N601 C605 1.334 . S
C602 C599 1.426 . S
C602 N601 1.359 . S
C602 C606 1.413 . S
C603 H594 0.930 . S
C603 C604 1.359 . S
C603 C605 1.394 . S
C604 C603 1.359 . S
C604 C606 1.391 . S
C604 H607 0.929 . S
C605 H587 0.930 . S
C605 N601 1.334 . S
C605 C603 1.394 . S
C606 C602 1.413 . S
C606 C604 1.391 . S
C606 C621 1.437 . S
H607 C604 0.929 . S
O608 Gd564 2.545 . S
O608 C623 1.258 . S
O609 Gd564 2.606 . S
O609 Gd565 2.362 . S
O609 C620 1.284 . S
O610 Gd565 2.324 . S
O610 C630 1.254 . S
O611 Gd564 2.429 . S
O611 C630 1.268 . S
O612 Gd564 2.545 . S
O612 C620 1.250 . S
O613 Gd564 2.412 . S
O613 C623 1.252 . S
O614 Gd565 2.545 . S
O614 C632 1.258 . S
O615 Gd564 2.362 . S
O615 Gd565 2.606 . S
O615 C631 1.284 . S
O616 Gd564 2.324 . S
O616 C639 1.254 . S
O617 Gd565 2.429 . S
O617 C639 1.268 . S
O618 Gd565 2.545 . S
O618 C631 1.250 . S
O619 Gd565 2.412 . S
O619 C632 1.252 . S
C620 O609 1.284 . S
C620 O612 1.250 . S
C621 H590 0.929 . S
C621 C606 1.437 . S
C621 C622 1.317 . S
C622 H593 0.930 . S
C622 C598 1.431 . S
C622 C621 1.317 . S
C623 Gd564 2.828 . S
C623 O608 1.258 . S
C623 O613 1.252 . S
C623 C624 1.497 . S
C624 C623 1.497 . S
C624 C625 1.395 . S
C624 C626 1.380 . S
C625 C624 1.395 . S
C625 C628 1.398 . S
C625 H640 0.930 . S
C626 C624 1.380 . S
C626 C627 1.391 . S
C626 H641 0.930 . S
C627 C626 1.391 . S
C627 C629 1.387 . S
C628 C625 1.398 . S
C628 C629 1.380 . S
C628 H642 0.930 . S
C629 C627 1.387 . S
C629 C628 1.380 . S
C629 H643 0.930 . S
C630 O610 1.254 . S
C630 O611 1.268 . S
C631 O615 1.284 . S
C631 O618 1.250 . S
C632 Gd565 2.828 . S
C632 O614 1.258 . S
C632 O619 1.252 . S
C632 C633 1.497 . S
C633 C632 1.497 . S
C633 C634 1.395 . S
C633 C635 1.380 . S
C634 C633 1.395 . S
C634 C637 1.398 . S
C634 H644 0.930 . S
C635 C633 1.380 . S
C635 C636 1.391 . S
C635 H645 0.930 . S
C636 C635 1.391 . S
C636 C638 1.387 . S
C637 C634 1.398 . S
C637 C638 1.380 . S
C637 H646 0.930 . S
C638 C636 1.387 . S
C638 C637 1.380 . S
C638 H647 0.930 . S
C639 O616 1.254 . S
C639 O617 1.268 . S
H640 C625 0.930 . S
H641 C626 0.930 . S
H642 C628 0.930 . S
H643 C629 0.930 . S
H644 C634 0.930 . S
H645 C635 0.930 . S
H646 C637 0.930 . S
H647 C638 0.930 . S
Gd648 N679 2.661 . S
Gd648 N685 2.601 . S
Gd648 O692 2.545 . S
Gd648 O693 2.606 1_565 S
Gd648 O695 2.429 1_565 S
Gd648 O696 2.545 . S
Gd648 O697 2.412 . S
Gd648 O699 2.362 1_565 S
Gd648 O700 2.324 . S
Gd648 C707 2.828 . S
Gd649 N658 2.661 . S
Gd649 N662 2.601 . S
Gd649 O693 2.362 . S
Gd649 O694 2.324 . S
Gd649 O698 2.545 . S
Gd649 O699 2.606 . S
Gd649 O701 2.429 . S
Gd649 O702 2.545 . S
Gd649 O703 2.412 . S
Gd649 C716 2.828 . S
C650 C653 1.417 . S
C650 C655 1.431 . S
C650 C656 1.412 . S
C651 C654 1.437 . S
C651 C655 1.317 . S
C651 H670 0.929 . S
C652 C653 1.426 . S
C652 C654 1.413 . S
C652 N662 1.359 . S
C653 C650 1.417 . S
C653 C652 1.426 . S
C653 N658 1.350 . S
C654 C651 1.437 . S
C654 C652 1.413 . S
C654 C664 1.391 . S
C655 C650 1.431 . S
C655 C651 1.317 . S
C655 H666 0.930 . S
C656 C650 1.412 . S
C656 C657 1.355 . S
C656 H668 0.930 . S
C657 C656 1.355 . S
C657 C659 1.402 . S
C657 H669 0.930 . S
N658 Gd649 2.661 . S
N658 C653 1.350 . S
N658 C659 1.307 . S
C659 C657 1.402 . S
C659 N658 1.307 . S
C659 H660 0.930 . S
H660 C659 0.930 . S
C661 N662 1.334 . S
C661 C663 1.394 . S
C661 H665 0.930 . S
N662 Gd649 2.601 . S
N662 C652 1.359 . S
N662 C661 1.334 . S
C663 C661 1.394 . S
C663 C664 1.359 . S
C663 H675 0.930 1_455 S
C664 C654 1.391 . S
C664 C663 1.359 . S
C664 H676 0.929 . S
H665 C661 0.930 . S
H666 C655 0.930 . S
H667 C684 0.951 . S
H668 C656 0.930 . S
H669 C657 0.930 . S
H670 C651 0.929 . S
H671 C689 0.930 . S
H672 C680 0.930 . S
H673 C681 0.930 . S
H674 C705 0.929 . S
H675 C663 0.930 1_655 S
H676 C664 0.929 . S
H677 C706 0.930 . S
H678 C687 0.930 . S
N679 Gd648 2.661 . S
N679 C683 1.350 . S
N679 C684 1.307 . S
C680 H672 0.930 . S
C680 C681 1.355 . S
C680 C682 1.412 1_655 S
C681 H673 0.930 . S
C681 C680 1.355 . S
C681 C684 1.402 1_655 S
C682 C680 1.412 1_455 S
C682 C683 1.417 . S
C682 C706 1.431 . S
C683 N679 1.350 . S
C683 C682 1.417 . S
C683 C686 1.426 . S
C684 H667 0.951 . S
C684 N679 1.307 . S
C684 C681 1.402 1_455 S
N685 Gd648 2.601 . S
N685 C686 1.359 . S
N685 C689 1.334 . S
C686 C683 1.426 . S
C686 N685 1.359 . S
C686 C690 1.413 . S
C687 H678 0.930 . S
C687 C688 1.359 . S
C687 C689 1.394 . S
C688 C687 1.359 . S
C688 C690 1.391 . S
C688 H691 0.929 . S
C689 H671 0.930 . S
C689 N685 1.334 . S
C689 C687 1.394 . S
C690 C686 1.413 . S
C690 C688 1.391 . S
C690 C705 1.437 . S
H691 C688 0.929 . S
O692 Gd648 2.545 . S
O692 C707 1.258 . S
O693 Gd648 2.606 1_545 S
O693 Gd649 2.362 . S
O693 C704 1.284 . S
O694 Gd649 2.324 . S
O694 C714 1.254 . S
O695 Gd648 2.429 1_545 S
O695 C714 1.268 . S
O696 Gd648 2.545 . S
O696 C704 1.250 1_565 S
O697 Gd648 2.412 . S
O697 C707 1.252 . S
O698 Gd649 2.545 . S
O698 C716 1.258 . S
O699 Gd648 2.362 1_545 S
O699 Gd649 2.606 . S
O699 C715 1.284 . S
O700 Gd648 2.324 . S
O700 C723 1.254 1_565 S
O701 Gd649 2.429 . S
O701 C723 1.268 . S
O702 Gd649 2.545 . S
O702 C715 1.250 . S
O703 Gd649 2.412 . S
O703 C716 1.252 . S
C704 O693 1.284 . S
C704 O696 1.250 1_545 S
C705 H674 0.929 . S
C705 C690 1.437 . S
C705 C706 1.317 . S
C706 H677 0.930 . S
C706 C682 1.431 . S
C706 C705 1.317 . S
C707 Gd648 2.828 . S
C707 O692 1.258 . S
C707 O697 1.252 . S
C707 C708 1.497 . S
C708 C707 1.497 . S
C708 C709 1.395 . S
C708 C710 1.380 . S
C709 C708 1.395 . S
C709 C712 1.398 . S
C709 H724 0.930 . S
C710 C708 1.380 . S
C710 C711 1.391 . S
C710 H725 0.930 . S
C711 C710 1.391 . S
C711 C713 1.387 . S
C712 C709 1.398 . S
C712 C713 1.380 . S
C712 H726 0.930 . S
C713 C711 1.387 . S
C713 C712 1.380 . S
C713 H727 0.930 . S
C714 O694 1.254 . S
C714 O695 1.268 . S
C715 O699 1.284 . S
C715 O702 1.250 . S
C716 Gd649 2.828 . S
C716 O698 1.258 . S
C716 O703 1.252 . S
C716 C717 1.497 . S
C717 C716 1.497 . S
C717 C718 1.395 . S
C717 C719 1.380 . S
C718 C717 1.395 . S
C718 C721 1.398 . S
C718 H728 0.930 . S
C719 C717 1.380 . S
C719 C720 1.391 . S
C719 H729 0.930 . S
C720 C719 1.391 . S
C720 C722 1.387 . S
C721 C718 1.398 . S
C721 C722 1.380 . S
C721 H730 0.930 . S
C722 C720 1.387 . S
C722 C721 1.380 . S
C722 H731 0.930 . S
C723 O700 1.254 1_545 S
C723 O701 1.268 . S
H724 C709 0.930 . S
H725 C710 0.930 . S
H726 C712 0.930 . S
H727 C713 0.930 . S
H728 C718 0.930 . S
H729 C719 0.930 . S
H730 C721 0.930 . S
H731 C722 0.930 . S
Gd732 N763 2.661 . S
Gd732 N769 2.601 . S
Gd732 O776 2.545 . S
Gd732 O777 2.606 . S
Gd732 O779 2.429 . S
Gd732 O780 2.545 . S
Gd732 O781 2.412 . S
Gd732 O783 2.362 . S
Gd732 O784 2.324 . S
Gd732 C791 2.828 . S
Gd733 N742 2.661 . S
Gd733 N746 2.601 . S
Gd733 O777 2.362 . S
Gd733 O778 2.324 . S
Gd733 O782 2.545 . S
Gd733 O783 2.606 . S
Gd733 O785 2.429 . S
Gd733 O786 2.545 . S
Gd733 O787 2.412 . S
Gd733 C800 2.828 . S
C734 C737 1.417 . S
C734 C739 1.431 . S
C734 C740 1.412 . S
C735 C738 1.437 . S
C735 C739 1.317 . S
C735 H754 0.929 . S
C736 C737 1.426 . S
C736 C738 1.413 . S
C736 N746 1.359 . S
C737 C734 1.417 . S
C737 C736 1.426 . S
C737 N742 1.350 . S
C738 C735 1.437 . S
C738 C736 1.413 . S
C738 C748 1.391 . S
C739 C734 1.431 . S
C739 C735 1.317 . S
C739 H750 0.930 . S
C740 C734 1.412 . S
C740 C741 1.355 . S
C740 H752 0.930 . S
C741 C740 1.355 . S
C741 C743 1.402 . S
C741 H753 0.930 . S
N742 Gd733 2.661 . S
N742 C737 1.350 . S
N742 C743 1.307 . S
C743 C741 1.402 . S
C743 N742 1.307 . S
C743 H744 0.930 . S
H744 C743 0.930 . S
C745 N746 1.334 . S
C745 C747 1.394 . S
C745 H749 0.930 . S
N746 Gd733 2.601 . S
N746 C736 1.359 . S
N746 C745 1.334 . S
C747 C745 1.394 . S
C747 C748 1.359 . S
C747 H759 0.930 . S
C748 C738 1.391 . S
C748 C747 1.359 . S
C748 H760 0.929 . S
H749 C745 0.930 . S
H750 C739 0.930 . S
H751 C768 0.930 . S
H752 C740 0.930 . S
H753 C741 0.930 . S
H754 C735 0.929 . S
H755 C773 0.930 . S
H756 C764 0.930 . S
H757 C765 0.930 . S
H758 C789 0.929 . S
H759 C747 0.930 . S
H760 C748 0.929 . S
H761 C790 0.930 . S
H762 C771 0.930 . S
N763 Gd732 2.661 . S
N763 C767 1.350 . S
N763 C768 1.307 . S
C764 H756 0.930 . S
C764 C765 1.355 . S
C764 C766 1.412 . S
C765 H757 0.930 . S
C765 C764 1.355 . S
C765 C768 1.402 . S
C766 C764 1.412 . S
C766 C767 1.417 . S
C766 C790 1.431 . S
C767 N763 1.350 . S
C767 C766 1.417 . S
C767 C770 1.426 . S
C768 H751 0.930 . S
C768 N763 1.307 . S
C768 C765 1.402 . S
N769 Gd732 2.601 . S
N769 C770 1.359 . S
N769 C773 1.334 . S
C770 C767 1.426 . S
C770 N769 1.359 . S
C770 C774 1.413 . S
C771 H762 0.930 . S
C771 C772 1.359 . S
C771 C773 1.394 . S
C772 C771 1.359 . S
C772 C774 1.391 . S
C772 H775 0.929 . S
C773 H755 0.930 . S
C773 N769 1.334 . S
C773 C771 1.394 . S
C774 C770 1.413 . S
C774 C772 1.391 . S
C774 C789 1.437 . S
H775 C772 0.929 . S
O776 Gd732 2.545 . S
O776 C791 1.258 . S
O777 Gd732 2.606 . S
O777 Gd733 2.362 . S
O777 C788 1.284 . S
O778 Gd733 2.324 . S
O778 C798 1.254 . S
O779 Gd732 2.429 . S
O779 C798 1.268 . S
O780 Gd732 2.545 . S
O780 C788 1.250 . S
O781 Gd732 2.412 . S
O781 C791 1.252 . S
O782 Gd733 2.545 . S
O782 C800 1.258 . S
O783 Gd732 2.362 . S
O783 Gd733 2.606 . S
O783 C799 1.284 . S
O784 Gd732 2.324 . S
O784 C807 1.254 . S
O785 Gd733 2.429 . S
O785 C807 1.268 . S
O786 Gd733 2.545 . S
O786 C799 1.250 . S
O787 Gd733 2.412 . S
O787 C800 1.252 . S
C788 O777 1.284 . S
C788 O780 1.250 . S
C789 H758 0.929 . S
C789 C774 1.437 . S
C789 C790 1.317 . S
C790 H761 0.930 . S
C790 C766 1.431 . S
C790 C789 1.317 . S
C791 Gd732 2.828 . S
C791 O776 1.258 . S
C791 O781 1.252 . S
C791 C792 1.497 . S
C792 C791 1.497 . S
C792 C793 1.395 . S
C792 C794 1.380 . S
C793 C792 1.395 . S
C793 C796 1.398 . S
C793 H808 0.930 . S
C794 C792 1.380 . S
C794 C795 1.391 . S
C794 H809 0.930 . S
C795 C794 1.391 . S
C795 C797 1.387 . S
C796 C793 1.398 . S
C796 C797 1.380 . S
C796 H810 0.930 . S
C797 C795 1.387 . S
C797 C796 1.380 . S
C797 H811 0.930 . S
C798 O778 1.254 . S
C798 O779 1.268 . S
C799 O783 1.284 . S
C799 O786 1.250 . S
C800 Gd733 2.828 . S
C800 O782 1.258 . S
C800 O787 1.252 . S
C800 C801 1.497 . S
C801 C800 1.497 . S
C801 C802 1.395 . S
C801 C803 1.380 . S
C802 C801 1.395 . S
C802 C805 1.398 . S
C802 H812 0.930 . S
C803 C801 1.380 . S
C803 C804 1.391 . S
C803 H813 0.930 . S
C804 C803 1.391 . S
C804 C806 1.387 . S
C805 C802 1.398 . S
C805 C806 1.380 . S
C805 H814 0.930 . S
C806 C804 1.387 . S
C806 C805 1.380 . S
C806 H815 0.930 . S
C807 O784 1.254 . S
C807 O785 1.268 . S
H808 C793 0.930 . S
H809 C794 0.930 . S
H810 C796 0.930 . S
H811 C797 0.930 . S
H812 C802 0.930 . S
H813 C803 0.930 . S
H814 C805 0.930 . S
H815 C806 0.930 . S
Gd816 N847 2.661 . S
Gd816 N853 2.601 . S
Gd816 O860 2.545 . S
Gd816 O861 2.606 1_556 S
Gd816 O863 2.429 1_556 S
Gd816 O864 2.545 . S
Gd816 O865 2.412 . S
Gd816 O867 2.362 1_556 S
Gd816 O868 2.324 1_545 S
Gd816 C875 2.828 . S
Gd817 N826 2.661 . S
Gd817 N830 2.601 1_545 S
Gd817 O861 2.362 . S
Gd817 O862 2.324 . S
Gd817 O866 2.545 1_545 S
Gd817 O867 2.606 . S
Gd817 O869 2.429 1_545 S
Gd817 O870 2.545 1_545 S
Gd817 O871 2.412 . S
Gd817 C884 2.828 1_545 S
C818 C821 1.417 . S
C818 C823 1.431 . S
C818 C824 1.412 . S
C819 C822 1.437 1_545 S
C819 C823 1.317 . S
C819 H838 0.929 . S
C820 C821 1.426 . S
C820 C822 1.413 1_545 S
C820 N830 1.359 1_545 S
C821 C818 1.417 . S
C821 C820 1.426 . S
C821 N826 1.350 . S
C822 C819 1.437 1_565 S
C822 C820 1.413 1_565 S
C822 C832 1.391 . S
C823 C818 1.431 . S
C823 C819 1.317 . S
C823 H834 0.930 . S
C824 C818 1.412 . S
C824 C825 1.355 . S
C824 H836 0.930 . S
C825 C824 1.355 . S
C825 C827 1.402 . S
C825 H837 0.930 . S
N826 Gd817 2.661 . S
N826 C821 1.350 . S
N826 C827 1.307 . S
C827 C825 1.402 . S
C827 N826 1.307 . S
C827 H828 0.930 . S
H828 C827 0.930 . S
C829 N830 1.334 . S
C829 C831 1.394 . S
C829 H833 0.930 . S
N830 Gd817 2.601 1_565 S
N830 C820 1.359 1_565 S
N830 C829 1.334 . S
C831 C829 1.394 . S
C831 C832 1.359 . S
C831 H843 0.930 . S
C832 C822 1.391 . S
C832 C831 1.359 . S
C832 H844 0.929 . S
H833 C829 0.930 . S
H834 C823 0.930 . S
H835 C852 0.930 . S
H836 C824 0.930 . S
H837 C825 0.930 . S
H838 C819 0.929 . S
H839 C857 0.930 . S
H840 C848 0.930 . S
H841 C849 0.930 . S
H842 C873 0.929 . S
H843 C831 0.930 . S
H844 C832 0.929 . S
H845 C874 0.930 1_565 S
H846 C855 0.930 . S
N847 Gd816 2.661 . S
N847 C851 1.350 . S
N847 C852 1.307 1_545 S
C848 H840 0.930 . S
C848 C849 1.355 . S
C848 C850 1.412 . S
C849 H841 0.930 . S
C849 C848 1.355 . S
C849 C852 1.402 . S
C850 C848 1.412 . S
C850 C851 1.417 1_565 S
C850 C874 1.431 1_565 S
C851 N847 1.350 . S
C851 C850 1.417 1_545 S
C851 C854 1.426 . S
C852 H835 0.930 . S
C852 N847 1.307 1_565 S
C852 C849 1.402 . S
N853 Gd816 2.601 . S
N853 C854 1.359 . S
N853 C857 1.334 . S
C854 C851 1.426 . S
C854 N853 1.359 . S
C854 C858 1.413 . S
C855 H846 0.930 . S
C855 C856 1.359 . S
C855 C857 1.394 . S
C856 C855 1.359 . S
C856 C858 1.391 . S
C856 H859 0.929 . S
C857 H839 0.930 . S
C857 N853 1.334 . S
C857 C855 1.394 . S
C858 C854 1.413 . S
C858 C856 1.391 . S
C858 C873 1.437 . S
H859 C856 0.929 . S
O860 Gd816 2.545 . S
O860 C875 1.258 . S
O861 Gd816 2.606 1_554 S
O861 Gd817 2.362 . S
O861 C872 1.284 . S
O862 Gd817 2.324 . S
O862 C882 1.254 . S
O863 Gd816 2.429 1_554 S
O863 C882 1.268 . S
O864 Gd816 2.545 . S
O864 C872 1.250 1_556 S
O865 Gd816 2.412 . S
O865 C875 1.252 . S
O866 Gd817 2.545 1_565 S
O866 C884 1.258 . S
O867 Gd816 2.362 1_554 S
O867 Gd817 2.606 . S
O867 C883 1.284 . S
O868 Gd816 2.324 1_565 S
O868 C891 1.254 . S
O869 Gd817 2.429 1_565 S
O869 C891 1.268 1_554 S
O870 Gd817 2.545 1_565 S
O870 C883 1.250 1_565 S
O871 Gd817 2.412 . S
O871 C884 1.252 1_545 S
C872 O861 1.284 . S
C872 O864 1.250 1_554 S
C873 H842 0.929 . S
C873 C858 1.437 . S
C873 C874 1.317 . S
C874 H845 0.930 1_545 S
C874 C850 1.431 1_545 S
C874 C873 1.317 . S
C875 Gd816 2.828 . S
C875 O860 1.258 . S
C875 O865 1.252 . S
C875 C876 1.497 . S
C876 C875 1.497 . S
C876 C877 1.395 . S
C876 C878 1.380 . S
C877 C876 1.395 . S
C877 C880 1.398 . S
C877 H892 0.930 . S
C878 C876 1.380 . S
C878 C879 1.391 . S
C878 H893 0.930 . S
C879 C878 1.391 . S
C879 C881 1.387 . S
C880 C877 1.398 . S
C880 C881 1.380 . S
C880 H894 0.930 . S
C881 C879 1.387 . S
C881 C880 1.380 . S
C881 H895 0.930 . S
C882 O862 1.254 . S
C882 O863 1.268 . S
C883 O867 1.284 . S
C883 O870 1.250 1_545 S
C884 Gd817 2.828 1_565 S
C884 O866 1.258 . S
C884 O871 1.252 1_565 S
C884 C885 1.497 . S
C885 C884 1.497 . S
C885 C886 1.395 . S
C885 C887 1.380 1_565 S
C886 C885 1.395 . S
C886 C889 1.398 . S
C886 H896 0.930 . S
C887 C885 1.380 1_545 S
C887 C888 1.391 1_545 S
C887 H897 0.930 . S
C888 C887 1.391 1_565 S
C888 C890 1.387 . S
C889 C886 1.398 . S
C889 C890 1.380 . S
C889 H898 0.930 . S
C890 C888 1.387 . S
C890 C889 1.380 . S
C890 H899 0.930 . S
C891 O868 1.254 . S
C891 O869 1.268 1_556 S
H892 C877 0.930 . S
H893 C878 0.930 . S
H894 C880 0.930 . S
H895 C881 0.930 . S
H896 C886 0.930 . S
H897 C887 0.930 . S
H898 C889 0.930 . S
H899 C890 0.930 . S
Gd900 N931 2.661 . S
Gd900 N937 2.601 . S
Gd900 O944 2.545 . S
Gd900 O945 2.606 . S
Gd900 O947 2.429 . S
Gd900 O948 2.545 . S
Gd900 O949 2.412 . S
Gd900 O951 2.362 . S
Gd900 O952 2.324 . S
Gd900 C959 2.828 . S
Gd901 N910 2.661 . S
Gd901 N914 2.601 . S
Gd901 O945 2.362 . S
Gd901 O946 2.324 . S
Gd901 O950 2.545 . S
Gd901 O951 2.606 . S
Gd901 O953 2.429 . S
Gd901 O954 2.545 . S
Gd901 O955 2.412 . S
Gd901 C968 2.828 . S
C902 C905 1.417 . S
C902 C907 1.431 . S
C902 C908 1.412 . S
C903 C906 1.437 . S
C903 C907 1.317 . S
C903 H922 0.929 . S
C904 C905 1.426 . S
C904 C906 1.413 . S
C904 N914 1.359 . S
C905 C902 1.417 . S
C905 C904 1.426 . S
C905 N910 1.350 . S
C906 C903 1.437 . S
C906 C904 1.413 . S
C906 C916 1.391 . S
C907 C902 1.431 . S
C907 C903 1.317 . S
C907 H918 0.930 . S
C908 C902 1.412 . S
C908 C909 1.355 . S
C908 H920 0.930 . S
C909 C908 1.355 . S
C909 C911 1.402 . S
C909 H921 0.930 . S
N910 Gd901 2.661 . S
N910 C905 1.350 . S
N910 C911 1.307 . S
C911 C909 1.402 . S
C911 N910 1.307 . S
C911 H912 0.930 . S
H912 C911 0.930 . S
C913 N914 1.334 . S
C913 C915 1.394 . S
C913 H917 0.930 . S
N914 Gd901 2.601 . S
N914 C904 1.359 . S
N914 C913 1.334 . S
C915 C913 1.394 . S
C915 C916 1.359 . S
C915 H927 0.930 . S
C916 C906 1.391 . S
C916 C915 1.359 . S
C916 H928 0.929 . S
H917 C913 0.930 . S
H918 C907 0.930 . S
H919 C936 0.930 . S
H920 C908 0.930 . S
H921 C909 0.930 . S
H922 C903 0.929 . S
H923 C941 0.930 . S
H924 C932 0.930 . S
H925 C933 0.930 . S
H926 C957 0.929 . S
H927 C915 0.930 . S
H928 C916 0.929 . S
H929 C958 0.930 . S
H930 C939 0.930 . S
N931 Gd900 2.661 . S
N931 C935 1.350 . S
N931 C936 1.307 . S
C932 H924 0.930 . S
C932 C933 1.355 . S
C932 C934 1.412 . S
C933 H925 0.930 . S
C933 C932 1.355 . S
C933 C936 1.402 . S
C934 C932 1.412 . S
C934 C935 1.417 . S
C934 C958 1.431 . S
C935 N931 1.350 . S
C935 C934 1.417 . S
C935 C938 1.426 . S
C936 H919 0.930 . S
C936 N931 1.307 . S
C936 C933 1.402 . S
N937 Gd900 2.601 . S
N937 C938 1.359 . S
N937 C941 1.334 . S
C938 C935 1.426 . S
C938 N937 1.359 . S
C938 C942 1.413 . S
C939 H930 0.930 . S
C939 C940 1.359 . S
C939 C941 1.394 . S
C940 C939 1.359 . S
C940 C942 1.391 . S
C940 H943 0.929 . S
C941 H923 0.930 . S
C941 N937 1.334 . S
C941 C939 1.394 . S
C942 C938 1.413 . S
C942 C940 1.391 . S
C942 C957 1.437 . S
H943 C940 0.929 . S
O944 Gd900 2.545 . S
O944 C959 1.258 . S
O945 Gd900 2.606 . S
O945 Gd901 2.362 . S
O945 C956 1.284 . S
O946 Gd901 2.324 . S
O946 C966 1.254 . S
O947 Gd900 2.429 . S
O947 C966 1.268 . S
O948 Gd900 2.545 . S
O948 C956 1.250 . S
O949 Gd900 2.412 . S
O949 C959 1.252 . S
O950 Gd901 2.545 . S
O950 C968 1.258 . S
O951 Gd900 2.362 . S
O951 Gd901 2.606 . S
O951 C967 1.284 . S
O952 Gd900 2.324 . S
O952 C975 1.254 . S
O953 Gd901 2.429 . S
O953 C975 1.268 . S
O954 Gd901 2.545 . S
O954 C967 1.250 . S
O955 Gd901 2.412 . S
O955 C968 1.252 . S
C956 O945 1.284 . S
C956 O948 1.250 . S
C957 H926 0.929 . S
C957 C942 1.437 . S
C957 C958 1.317 . S
C958 H929 0.930 . S
C958 C934 1.431 . S
C958 C957 1.317 . S
C959 Gd900 2.828 . S
C959 O944 1.258 . S
C959 O949 1.252 . S
C959 C960 1.497 . S
C960 C959 1.497 . S
C960 C961 1.395 . S
C960 C962 1.380 . S
C961 C960 1.395 . S
C961 C964 1.398 . S
C961 H976 0.930 . S
C962 C960 1.380 . S
C962 C963 1.391 . S
C962 H977 0.930 . S
C963 C962 1.391 . S
C963 C965 1.387 . S
C964 C961 1.398 . S
C964 C965 1.380 . S
C964 H978 0.930 . S
C965 C963 1.387 . S
C965 C964 1.380 . S
C965 H979 0.930 . S
C966 O946 1.254 . S
C966 O947 1.268 . S
C967 O951 1.284 . S
C967 O954 1.250 . S
C968 Gd901 2.828 . S
C968 O950 1.258 . S
C968 O955 1.252 . S
C968 C969 1.497 . S
C969 C968 1.497 . S
C969 C970 1.395 . S
C969 C971 1.380 . S
C970 C969 1.395 . S
C970 C973 1.398 . S
C970 H980 0.930 . S
C971 C969 1.380 . S
C971 C972 1.391 . S
C971 H981 0.930 . S
C972 C971 1.391 . S
C972 C974 1.387 . S
C973 C970 1.398 . S
C973 C974 1.380 . S
C973 H982 0.930 . S
C974 C972 1.387 . S
C974 C973 1.380 . S
C974 H983 0.930 . S
C975 O952 1.254 . S
C975 O953 1.268 . S
H976 C961 0.930 . S
H977 C962 0.930 . S
H978 C964 0.930 . S
H979 C965 0.930 . S
H980 C970 0.930 . S
H981 C971 0.930 . S
H982 C973 0.930 . S
H983 C974 0.930 . S
Gd984 N1015 2.661 1_554 S
Gd984 N1021 2.601 1_554 S
Gd984 O1028 2.545 . S
Gd984 O1029 2.606 . S
Gd984 O1031 2.429 . S
Gd984 O1032 2.545 . S
Gd984 O1033 2.412 . S
Gd984 O1035 2.362 1_554 S
Gd984 O1036 2.324 . S
Gd984 C1043 2.828 . S
Gd985 N994 2.661 . S
Gd985 N998 2.601 . S
Gd985 O1029 2.362 . S
Gd985 O1030 2.324 . S
Gd985 O1034 2.545 . S
Gd985 O1035 2.606 1_554 S
Gd985 O1037 2.429 . S
Gd985 O1038 2.545 1_554 S
Gd985 O1039 2.412 . S
Gd985 C1052 2.828 . S
C986 C989 1.417 . S
C986 C991 1.431 . S
C986 C992 1.412 . S
C987 C990 1.437 . S
C987 C991 1.317 . S
C987 H1006 0.929 . S
C988 C989 1.426 . S
C988 C990 1.413 . S
C988 N998 1.359 . S
C989 C986 1.417 . S
C989 C988 1.426 . S
C989 N994 1.350 . S
C990 C987 1.437 . S
C990 C988 1.413 . S
C990 C1000 1.391 . S
C991 C986 1.431 . S
C991 C987 1.317 . S
C991 H1002 0.930 . S
C992 C986 1.412 . S
C992 C993 1.355 . S
C992 H1004 0.930 . S
C993 C992 1.355 . S
C993 C995 1.402 . S
C993 H1005 0.930 . S
N994 Gd985 2.661 . S
N994 C989 1.350 . S
N994 C995 1.307 . S
C995 C993 1.402 . S
C995 N994 1.307 . S
C995 H996 0.930 . S
H996 C995 0.930 . S
C997 N998 1.334 . S
C997 C999 1.394 . S
C997 H1001 0.930 . S
N998 Gd985 2.601 . S
N998 C988 1.359 . S
N998 C997 1.334 . S
C999 C997 1.394 . S
C999 C1000 1.359 . S
C999 H1011 0.930 . S
C1000 C990 1.391 . S
C1000 C999 1.359 . S
C1000 H1012 0.929 . S
H1001 C997 0.930 . S
H1002 C991 0.930 . S
H1003 C1020 0.930 . S
H1004 C992 0.930 . S
H1005 C993 0.930 . S
H1006 C987 0.929 . S
H1007 C1025 0.930 . S
H1008 C1016 0.930 . S
H1009 C1017 0.930 . S
H1010 C1041 0.929 . S
H1011 C999 0.930 . S
H1012 C1000 0.929 . S
H1013 C1042 0.930 . S
H1014 C1023 0.930 . S
N1015 Gd984 2.661 1_556 S
N1015 C1019 1.350 . S
N1015 C1020 1.307 . S
C1016 H1008 0.930 . S
C1016 C1017 1.355 . S
C1016 C1018 1.412 . S
C1017 H1009 0.930 . S
C1017 C1016 1.355 . S
C1017 C1020 1.402 . S
C1018 C1016 1.412 . S
C1018 C1019 1.417 . S
C1018 C1042 1.431 . S
C1019 N1015 1.350 . S
C1019 C1018 1.417 . S
C1019 C1022 1.426 . S
C1020 H1003 0.930 . S
C1020 N1015 1.307 . S
C1020 C1017 1.402 . S
N1021 Gd984 2.601 1_556 S
N1021 C1022 1.359 . S
N1021 C1025 1.334 . S
C1022 C1019 1.426 . S
C1022 N1021 1.359 . S
C1022 C1026 1.413 . S
C1023 H1014 0.930 . S
C1023 C1024 1.359 . S
C1023 C1025 1.394 . S
C1024 C1023 1.359 . S
C1024 C1026 1.391 . S
C1024 H1027 0.929 . S
C1025 H1007 0.930 . S
C1025 N1021 1.334 . S
C1025 C1023 1.394 . S
C1026 C1022 1.413 . S
C1026 C1024 1.391 . S
C1026 C1041 1.437 . S
H1027 C1024 0.929 . S
O1028 Gd984 2.545 . S
O1028 C1043 1.258 . S
O1029 Gd984 2.606 . S
O1029 Gd985 2.362 . S
O1029 C1040 1.284 . S
O1030 Gd985 2.324 . S
O1030 C1050 1.254 . S
O1031 Gd984 2.429 . S
O1031 C1050 1.268 . S
O1032 Gd984 2.545 . S
O1032 C1040 1.250 . S
O1033 Gd984 2.412 . S
O1033 C1043 1.252 . S
O1034 Gd985 2.545 . S
O1034 C1052 1.258 . S
O1035 Gd984 2.362 1_556 S
O1035 Gd985 2.606 1_556 S
O1035 C1051 1.284 . S
O1036 Gd984 2.324 . S
O1036 C1059 1.254 . S
O1037 Gd985 2.429 . S
O1037 C1059 1.268 . S
O1038 Gd985 2.545 1_556 S
O1038 C1051 1.250 . S
O1039 Gd985 2.412 . S
O1039 C1052 1.252 . S
C1040 O1029 1.284 . S
C1040 O1032 1.250 . S
C1041 H1010 0.929 . S
C1041 C1026 1.437 . S
C1041 C1042 1.317 . S
C1042 H1013 0.930 . S
C1042 C1018 1.431 . S
C1042 C1041 1.317 . S
C1043 Gd984 2.828 . S
C1043 O1028 1.258 . S
C1043 O1033 1.252 . S
C1043 C1044 1.497 . S
C1044 C1043 1.497 . S
C1044 C1045 1.395 . S
C1044 C1046 1.380 . S
C1045 C1044 1.395 . S
C1045 C1048 1.398 . S
C1045 H1060 0.930 1_554 S
C1046 C1044 1.380 . S
C1046 C1047 1.391 . S
C1046 H1061 0.930 . S
C1047 C1046 1.391 . S
C1047 C1049 1.387 . S
C1048 C1045 1.398 . S
C1048 C1049 1.380 . S
C1048 H1062 0.930 . S
C1049 C1047 1.387 . S
C1049 C1048 1.380 . S
C1049 H1063 0.930 . S
C1050 O1030 1.254 . S
C1050 O1031 1.268 . S
C1051 O1035 1.284 . S
C1051 O1038 1.250 . S
C1052 Gd985 2.828 . S
C1052 O1034 1.258 . S
C1052 O1039 1.252 . S
C1052 C1053 1.497 . S
C1053 C1052 1.497 . S
C1053 C1054 1.395 . S
C1053 C1055 1.380 . S
C1054 C1053 1.395 . S
C1054 C1057 1.398 . S
C1054 H1064 0.930 . S
C1055 C1053 1.380 . S
C1055 C1056 1.391 1_554 S
C1055 H1065 0.930 1_554 S
C1056 C1055 1.391 1_556 S
C1056 C1058 1.387 1_556 S
C1057 C1054 1.398 . S
C1057 C1058 1.380 . S
C1057 H1066 0.930 . S
C1058 C1056 1.387 1_554 S
C1058 C1057 1.380 . S
C1058 H1067 0.930 . S
C1059 O1036 1.254 . S
C1059 O1037 1.268 . S
H1060 C1045 0.930 1_556 S
H1061 C1046 0.930 . S
H1062 C1048 0.930 . S
H1063 C1049 0.930 . S
H1064 C1054 0.930 . S
H1065 C1055 0.930 1_556 S
H1066 C1057 0.930 . S
H1067 C1058 0.930 . S
Gd1068 N1099 2.661 . S
Gd1068 N1105 2.601 . S
Gd1068 O1112 2.545 . S
Gd1068 O1113 2.606 . S
Gd1068 O1115 2.429 . S
Gd1068 O1116 2.545 . S
Gd1068 O1117 2.412 . S
Gd1068 O1119 2.362 . S
Gd1068 O1120 2.324 . S
Gd1068 C1127 2.828 . S
Gd1069 N1078 2.661 . S
Gd1069 N1082 2.601 . S
Gd1069 O1113 2.362 . S
Gd1069 O1114 2.324 . S
Gd1069 O1118 2.545 . S
Gd1069 O1119 2.606 . S
Gd1069 O1121 2.429 . S
Gd1069 O1122 2.545 . S
Gd1069 O1123 2.412 . S
Gd1069 C1136 2.828 . S
C1070 C1073 1.417 . S
C1070 C1075 1.431 . S
C1070 C1076 1.412 . S
C1071 C1074 1.437 . S
C1071 C1075 1.317 . S
C1071 H1090 0.929 . S
C1072 C1073 1.426 . S
C1072 C1074 1.413 . S
C1072 N1082 1.359 . S
C1073 C1070 1.417 . S
C1073 C1072 1.426 . S
C1073 N1078 1.350 . S
C1074 C1071 1.437 . S
C1074 C1072 1.413 . S
C1074 C1084 1.391 . S
C1075 C1070 1.431 . S
C1075 C1071 1.317 . S
C1075 H1086 0.930 . S
C1076 C1070 1.412 . S
C1076 C1077 1.355 . S
C1076 H1088 0.930 . S
C1077 C1076 1.355 . S
C1077 C1079 1.402 . S
C1077 H1089 0.930 . S
N1078 Gd1069 2.661 . S
N1078 C1073 1.350 . S
N1078 C1079 1.307 . S
C1079 C1077 1.402 . S
C1079 N1078 1.307 . S
C1079 H1080 0.930 . S
H1080 C1079 0.930 . S
C1081 N1082 1.334 . S
C1081 C1083 1.394 . S
C1081 H1085 0.930 . S
N1082 Gd1069 2.601 . S
N1082 C1072 1.359 . S
N1082 C1081 1.334 . S
C1083 C1081 1.394 . S
C1083 C1084 1.359 . S
C1083 H1095 0.930 . S
C1084 C1074 1.391 . S
C1084 C1083 1.359 . S
C1084 H1096 0.929 . S
H1085 C1081 0.930 . S
H1086 C1075 0.930 . S
H1087 C1104 0.930 . S
H1088 C1076 0.930 . S
H1089 C1077 0.930 . S
H1090 C1071 0.929 . S
H1091 C1109 0.930 . S
H1092 C1100 0.930 . S
H1093 C1101 0.930 . S
H1094 C1125 0.929 . S
H1095 C1083 0.930 . S
H1096 C1084 0.929 . S
H1097 C1126 0.930 . S
H1098 C1107 0.930 . S
N1099 Gd1068 2.661 . S
N1099 C1103 1.350 . S
N1099 C1104 1.307 . S
C1100 H1092 0.930 . S
C1100 C1101 1.355 . S
C1100 C1102 1.412 . S
C1101 H1093 0.930 . S
C1101 C1100 1.355 . S
C1101 C1104 1.402 . S
C1102 C1100 1.412 . S
C1102 C1103 1.417 . S
C1102 C1126 1.431 . S
C1103 N1099 1.350 . S
C1103 C1102 1.417 . S
C1103 C1106 1.426 . S
C1104 H1087 0.930 . S
C1104 N1099 1.307 . S
C1104 C1101 1.402 . S
N1105 Gd1068 2.601 . S
N1105 C1106 1.359 . S
N1105 C1109 1.334 . S
C1106 C1103 1.426 . S
C1106 N1105 1.359 . S
C1106 C1110 1.413 . S
C1107 H1098 0.930 . S
C1107 C1108 1.359 . S
C1107 C1109 1.394 . S
C1108 C1107 1.359 . S
C1108 C1110 1.391 . S
C1108 H1111 0.929 . S
C1109 H1091 0.930 . S
C1109 N1105 1.334 . S
C1109 C1107 1.394 . S
C1110 C1106 1.413 . S
C1110 C1108 1.391 . S
C1110 C1125 1.437 . S
H1111 C1108 0.929 . S
O1112 Gd1068 2.545 . S
O1112 C1127 1.258 . S
O1113 Gd1068 2.606 . S
O1113 Gd1069 2.362 . S
O1113 C1124 1.284 . S
O1114 Gd1069 2.324 . S
O1114 C1134 1.254 . S
O1115 Gd1068 2.429 . S
O1115 C1134 1.268 . S
O1116 Gd1068 2.545 . S
O1116 C1124 1.250 . S
O1117 Gd1068 2.412 . S
O1117 C1127 1.252 . S
O1118 Gd1069 2.545 . S
O1118 C1136 1.258 . S
O1119 Gd1068 2.362 . S
O1119 Gd1069 2.606 . S
O1119 C1135 1.284 . S
O1120 Gd1068 2.324 . S
O1120 C1143 1.254 . S
O1121 Gd1069 2.429 . S
O1121 C1143 1.268 . S
O1122 Gd1069 2.545 . S
O1122 C1135 1.250 . S
O1123 Gd1069 2.412 . S
O1123 C1136 1.252 . S
C1124 O1113 1.284 . S
C1124 O1116 1.250 . S
C1125 H1094 0.929 . S
C1125 C1110 1.437 . S
C1125 C1126 1.317 . S
C1126 H1097 0.930 . S
C1126 C1102 1.431 . S
C1126 C1125 1.317 . S
C1127 Gd1068 2.828 . S
C1127 O1112 1.258 . S
C1127 O1117 1.252 . S
C1127 C1128 1.497 . S
C1128 C1127 1.497 . S
C1128 C1129 1.395 . S
C1128 C1130 1.380 . S
C1129 C1128 1.395 . S
C1129 C1132 1.398 . S
C1129 H1144 0.930 . S
C1130 C1128 1.380 . S
C1130 C1131 1.391 . S
C1130 H1145 0.930 . S
C1131 C1130 1.391 . S
C1131 C1133 1.387 . S
C1132 C1129 1.398 . S
C1132 C1133 1.380 . S
C1132 H1146 0.930 . S
C1133 C1131 1.387 . S
C1133 C1132 1.380 . S
C1133 H1147 0.930 . S
C1134 O1114 1.254 . S
C1134 O1115 1.268 . S
C1135 O1119 1.284 . S
C1135 O1122 1.250 . S
C1136 Gd1069 2.828 . S
C1136 O1118 1.258 . S
C1136 O1123 1.252 . S
C1136 C1137 1.497 . S
C1137 C1136 1.497 . S
C1137 C1138 1.395 . S
C1137 C1139 1.380 . S
C1138 C1137 1.395 . S
C1138 C1141 1.398 . S
C1138 H1148 0.930 . S
C1139 C1137 1.380 . S
C1139 C1140 1.391 . S
C1139 H1149 0.930 . S
C1140 C1139 1.391 . S
C1140 C1142 1.387 1_655 S
C1141 C1138 1.398 . S
C1141 C1142 1.380 1_655 S
C1141 H1150 0.930 1_655 S
C1142 C1140 1.387 1_455 S
C1142 C1141 1.380 1_455 S
C1142 H1151 0.930 . S
C1143 O1120 1.254 . S
C1143 O1121 1.268 . S
H1144 C1129 0.930 . S
H1145 C1130 0.930 . S
H1146 C1132 0.930 . S
H1147 C1133 0.930 . S
H1148 C1138 0.930 . S
H1149 C1139 0.930 . S
H1150 C1141 0.930 1_455 S
H1151 C1142 0.930 . S
Gd1152 N1183 2.661 . S
Gd1152 N1189 2.601 . S
Gd1152 O1196 2.545 . S
Gd1152 O1197 2.606 . S
Gd1152 O1199 2.429 . S
Gd1152 O1200 2.545 . S
Gd1152 O1201 2.412 . S
Gd1152 O1203 2.362 . S
Gd1152 O1204 2.324 . S
Gd1152 C1211 2.828 . S
Gd1153 N1162 2.661 . S
Gd1153 N1166 2.601 . S
Gd1153 O1197 2.362 . S
Gd1153 O1198 2.324 . S
Gd1153 O1202 2.545 . S
Gd1153 O1203 2.606 . S
Gd1153 O1205 2.429 . S
Gd1153 O1206 2.545 . S
Gd1153 O1207 2.412 . S
Gd1153 C1220 2.828 . S
C1154 C1157 1.417 . S
C1154 C1159 1.431 . S
C1154 C1160 1.412 . S
C1155 C1158 1.437 . S
C1155 C1159 1.317 . S
C1155 H1174 0.929 . S
C1156 C1157 1.426 . S
C1156 C1158 1.413 . S
C1156 N1166 1.359 . S
C1157 C1154 1.417 . S
C1157 C1156 1.426 . S
C1157 N1162 1.350 . S
C1158 C1155 1.437 . S
C1158 C1156 1.413 . S
C1158 C1168 1.391 . S
C1159 C1154 1.431 . S
C1159 C1155 1.317 . S
C1159 H1170 0.930 . S
C1160 C1154 1.412 . S
C1160 C1161 1.355 . S
C1160 H1172 0.930 . S
C1161 C1160 1.355 . S
C1161 C1163 1.402 . S
C1161 H1173 0.930 . S
N1162 Gd1153 2.661 . S
N1162 C1157 1.350 . S
N1162 C1163 1.307 . S
C1163 C1161 1.402 . S
C1163 N1162 1.307 . S
C1163 H1164 0.930 . S
H1164 C1163 0.930 . S
C1165 N1166 1.334 . S
C1165 C1167 1.394 . S
C1165 H1169 0.930 . S
N1166 Gd1153 2.601 . S
N1166 C1156 1.359 . S
N1166 C1165 1.334 . S
C1167 C1165 1.394 . S
C1167 C1168 1.359 . S
C1167 H1179 0.930 . S
C1168 C1158 1.391 . S
C1168 C1167 1.359 . S
C1168 H1180 0.929 . S
H1169 C1165 0.930 . S
H1170 C1159 0.930 . S
H1171 C1188 0.930 . S
H1172 C1160 0.930 . S
H1173 C1161 0.930 . S
H1174 C1155 0.929 . S
H1175 C1193 0.930 . S
H1176 C1184 0.930 . S
H1177 C1185 0.930 . S
H1178 C1209 0.929 . S
H1179 C1167 0.930 . S
H1180 C1168 0.929 . S
H1181 C1210 0.930 . S
H1182 C1191 0.930 . S
N1183 Gd1152 2.661 . S
N1183 C1187 1.350 . S
N1183 C1188 1.307 . S
C1184 H1176 0.930 . S
C1184 C1185 1.355 . S
C1184 C1186 1.412 . S
C1185 H1177 0.930 . S
C1185 C1184 1.355 . S
C1185 C1188 1.402 1_655 S
C1186 C1184 1.412 . S
C1186 C1187 1.417 1_655 S
C1186 C1210 1.431 . S
C1187 N1183 1.350 . S
C1187 C1186 1.417 1_455 S
C1187 C1190 1.426 . S
C1188 H1171 0.930 . S
C1188 N1183 1.307 . S
C1188 C1185 1.402 1_455 S
N1189 Gd1152 2.601 . S
N1189 C1190 1.359 . S
N1189 C1193 1.334 . S
C1190 C1187 1.426 . S
C1190 N1189 1.359 . S
C1190 C1194 1.413 1_455 S
C1191 H1182 0.930 . S
C1191 C1192 1.359 1_455 S
C1191 C1193 1.394 . S
C1192 C1191 1.359 1_655 S
C1192 C1194 1.391 . S
C1192 H1195 0.929 . S
C1193 H1175 0.930 . S
C1193 N1189 1.334 . S
C1193 C1191 1.394 . S
C1194 C1190 1.413 1_655 S
C1194 C1192 1.391 . S
C1194 C1209 1.437 . S
H1195 C1192 0.929 . S
O1196 Gd1152 2.545 . S
O1196 C1211 1.258 . S
O1197 Gd1152 2.606 . S
O1197 Gd1153 2.362 . S
O1197 C1208 1.284 . S
O1198 Gd1153 2.324 . S
O1198 C1218 1.254 . S
O1199 Gd1152 2.429 . S
O1199 C1218 1.268 . S
O1200 Gd1152 2.545 . S
O1200 C1208 1.250 . S
O1201 Gd1152 2.412 . S
O1201 C1211 1.252 . S
O1202 Gd1153 2.545 . S
O1202 C1220 1.258 . S
O1203 Gd1152 2.362 . S
O1203 Gd1153 2.606 . S
O1203 C1219 1.284 . S
O1204 Gd1152 2.324 . S
O1204 C1227 1.254 . S
O1205 Gd1153 2.429 . S
O1205 C1227 1.268 . S
O1206 Gd1153 2.545 . S
O1206 C1219 1.250 . S
O1207 Gd1153 2.412 . S
O1207 C1220 1.252 . S
C1208 O1197 1.284 . S
C1208 O1200 1.250 . S
C1209 H1178 0.929 . S
C1209 C1194 1.437 . S
C1209 C1210 1.317 . S
C1210 H1181 0.930 . S
C1210 C1186 1.431 . S
C1210 C1209 1.317 . S
C1211 Gd1152 2.828 . S
C1211 O1196 1.258 . S
C1211 O1201 1.252 . S
C1211 C1212 1.497 . S
C1212 C1211 1.497 . S
C1212 C1213 1.395 . S
C1212 C1214 1.380 . S
C1213 C1212 1.395 . S
C1213 C1216 1.398 . S
C1213 H1228 0.930 . S
C1214 C1212 1.380 . S
C1214 C1215 1.391 . S
C1214 H1229 0.930 . S
C1215 C1214 1.391 . S
C1215 C1217 1.387 . S
C1216 C1213 1.398 . S
C1216 C1217 1.380 . S
C1216 H1230 0.930 . S
C1217 C1215 1.387 . S
C1217 C1216 1.380 . S
C1217 H1231 0.930 . S
C1218 O1198 1.254 . S
C1218 O1199 1.268 . S
C1219 O1203 1.284 . S
C1219 O1206 1.250 . S
C1220 Gd1153 2.828 . S
C1220 O1202 1.258 . S
C1220 O1207 1.252 . S
C1220 C1221 1.497 . S
C1221 C1220 1.497 . S
C1221 C1222 1.395 . S
C1221 C1223 1.380 . S
C1222 C1221 1.395 . S
C1222 C1225 1.398 . S
C1222 H1232 0.930 . S
C1223 C1221 1.380 . S
C1223 C1224 1.391 . S
C1223 H1233 0.930 . S
C1224 C1223 1.391 . S
C1224 C1226 1.387 . S
C1225 C1222 1.398 . S
C1225 C1226 1.380 . S
C1225 H1234 0.930 . S
C1226 C1224 1.387 . S
C1226 C1225 1.380 . S
C1226 H1235 0.914 1_455 S
C1227 O1204 1.254 . S
C1227 O1205 1.268 . S
H1228 C1213 0.930 . S
H1229 C1214 0.930 . S
H1230 C1216 0.930 . S
H1231 C1217 0.930 . S
H1232 C1222 0.930 . S
H1233 C1223 0.930 . S
H1234 C1225 0.930 . S
H1235 C1226 0.914 1_655 S
Gd1236 N1267 2.661 . S
Gd1236 N1273 2.601 . S
Gd1236 O1280 2.545 . S
Gd1236 O1281 2.606 . S
Gd1236 O1283 2.429 . S
Gd1236 O1284 2.545 . S
Gd1236 O1285 2.412 . S
Gd1236 O1287 2.362 . S
Gd1236 O1288 2.324 . S
Gd1236 C1295 2.828 . S
Gd1237 N1246 2.661 . S
Gd1237 N1250 2.601 . S
Gd1237 O1281 2.362 . S
Gd1237 O1282 2.324 . S
Gd1237 O1286 2.545 . S
Gd1237 O1287 2.606 . S
Gd1237 O1289 2.429 . S
Gd1237 O1290 2.545 . S
Gd1237 O1291 2.412 . S
Gd1237 C1304 2.828 . S
C1238 C1241 1.417 . S
C1238 C1243 1.431 . S
C1238 C1244 1.412 . S
C1239 C1242 1.437 . S
C1239 C1243 1.317 . S
C1239 H1258 0.929 . S
C1240 C1241 1.426 . S
C1240 C1242 1.413 . S
C1240 N1250 1.359 . S
C1241 C1238 1.417 . S
C1241 C1240 1.426 . S
C1241 N1246 1.350 . S
C1242 C1239 1.437 . S
C1242 C1240 1.413 . S
C1242 C1252 1.391 . S
C1243 C1238 1.431 . S
C1243 C1239 1.317 . S
C1243 H1254 0.930 . S
C1244 C1238 1.412 . S
C1244 C1245 1.355 . S
C1244 H1256 0.930 . S
C1245 C1244 1.355 . S
C1245 C1247 1.402 . S
C1245 H1257 0.930 . S
N1246 Gd1237 2.661 . S
N1246 C1241 1.350 . S
N1246 C1247 1.307 . S
C1247 C1245 1.402 . S
C1247 N1246 1.307 . S
C1247 H1248 0.930 . S
H1248 C1247 0.930 . S
C1249 N1250 1.334 . S
C1249 C1251 1.394 . S
C1249 H1253 0.930 . S
N1250 Gd1237 2.601 . S
N1250 C1240 1.359 . S
N1250 C1249 1.334 . S
C1251 C1249 1.394 . S
C1251 C1252 1.359 . S
C1251 H1263 0.930 . S
C1252 C1242 1.391 . S
C1252 C1251 1.359 . S
C1252 H1264 0.929 . S
H1253 C1249 0.930 . S
H1254 C1243 0.930 . S
H1255 C1272 0.930 . S
H1256 C1244 0.930 . S
H1257 C1245 0.930 . S
H1258 C1239 0.929 . S
H1259 C1277 0.930 . S
H1260 C1268 0.930 . S
H1261 C1269 0.930 . S
H1262 C1293 0.929 . S
H1263 C1251 0.930 . S
H1264 C1252 0.929 . S
H1265 C1294 0.930 . S
H1266 C1275 0.930 . S
N1267 Gd1236 2.661 . S
N1267 C1271 1.350 . S
N1267 C1272 1.307 . S
C1268 H1260 0.930 . S
C1268 C1269 1.355 . S
C1268 C1270 1.412 . S
C1269 H1261 0.930 . S
C1269 C1268 1.355 . S
C1269 C1272 1.402 . S
C1270 C1268 1.412 . S
C1270 C1271 1.417 . S
C1270 C1294 1.431 . S
C1271 N1267 1.350 . S
C1271 C1270 1.417 . S
C1271 C1274 1.426 . S
C1272 H1255 0.930 . S
C1272 N1267 1.307 . S
C1272 C1269 1.402 . S
N1273 Gd1236 2.601 . S
N1273 C1274 1.359 . S
N1273 C1277 1.334 . S
C1274 C1271 1.426 . S
C1274 N1273 1.359 . S
C1274 C1278 1.413 . S
C1275 H1266 0.930 . S
C1275 C1276 1.359 . S
C1275 C1277 1.394 . S
C1276 C1275 1.359 . S
C1276 C1278 1.391 . S
C1276 H1279 0.929 . S
C1277 H1259 0.930 . S
C1277 N1273 1.334 . S
C1277 C1275 1.394 . S
C1278 C1274 1.413 . S
C1278 C1276 1.391 . S
C1278 C1293 1.437 . S
H1279 C1276 0.929 . S
O1280 Gd1236 2.545 . S
O1280 C1295 1.258 . S
O1281 Gd1236 2.606 . S
O1281 Gd1237 2.362 . S
O1281 C1292 1.284 . S
O1282 Gd1237 2.324 . S
O1282 C1302 1.254 . S
O1283 Gd1236 2.429 . S
O1283 C1302 1.268 . S
O1284 Gd1236 2.545 . S
O1284 C1292 1.250 . S
O1285 Gd1236 2.412 . S
O1285 C1295 1.252 . S
O1286 Gd1237 2.545 . S
O1286 C1304 1.258 . S
O1287 Gd1236 2.362 . S
O1287 Gd1237 2.606 . S
O1287 C1303 1.284 . S
O1288 Gd1236 2.324 . S
O1288 C1311 1.254 . S
O1289 Gd1237 2.429 . S
O1289 C1311 1.268 . S
O1290 Gd1237 2.545 . S
O1290 C1303 1.250 . S
O1291 Gd1237 2.412 . S
O1291 C1304 1.252 . S
C1292 O1281 1.284 . S
C1292 O1284 1.250 . S
C1293 H1262 0.929 . S
C1293 C1278 1.437 . S
C1293 C1294 1.317 . S
C1294 H1265 0.930 . S
C1294 C1270 1.431 . S
C1294 C1293 1.317 . S
C1295 Gd1236 2.828 . S
C1295 O1280 1.258 . S
C1295 O1285 1.252 . S
C1295 C1296 1.497 . S
C1296 C1295 1.497 . S
C1296 C1297 1.395 . S
C1296 C1298 1.380 . S
C1297 C1296 1.395 . S
C1297 C1300 1.398 . S
C1297 H1312 0.930 . S
C1298 C1296 1.380 . S
C1298 C1299 1.391 . S
C1298 H1313 0.930 . S
C1299 C1298 1.391 . S
C1299 C1301 1.387 . S
C1300 C1297 1.398 . S
C1300 C1301 1.380 . S
C1300 H1314 0.930 . S
C1301 C1299 1.387 . S
C1301 C1300 1.380 . S
C1301 H1315 0.930 . S
C1302 O1282 1.254 . S
C1302 O1283 1.268 . S
C1303 O1287 1.284 . S
C1303 O1290 1.250 . S
C1304 Gd1237 2.828 . S
C1304 O1286 1.258 . S
C1304 O1291 1.252 . S
C1304 C1305 1.497 . S
C1305 C1304 1.497 . S
C1305 C1306 1.395 . S
C1305 C1307 1.380 . S
C1306 C1305 1.395 . S
C1306 C1309 1.398 . S
C1306 H1316 0.930 . S
C1307 C1305 1.380 . S
C1307 C1308 1.391 . S
C1307 H1317 0.930 . S
C1308 C1307 1.391 . S
C1308 C1310 1.387 . S
C1309 C1306 1.398 . S
C1309 C1310 1.380 . S
C1309 H1318 0.930 . S
C1310 C1308 1.387 . S
C1310 C1309 1.380 . S
C1310 H1319 0.930 . S
C1311 O1288 1.254 . S
C1311 O1289 1.268 . S
H1312 C1297 0.930 . S
H1313 C1298 0.930 . S
H1314 C1300 0.930 . S
H1315 C1301 0.930 . S
H1316 C1306 0.930 . S
H1317 C1307 0.930 . S
H1318 C1309 0.930 . S
H1319 C1310 0.930 . S
Gd1320 N1351 2.661 . S
Gd1320 N1357 2.601 . S
Gd1320 O1364 2.545 . S
Gd1320 O1365 2.606 . S
Gd1320 O1367 2.429 . S
Gd1320 O1368 2.545 . S
Gd1320 O1369 2.412 . S
Gd1320 O1371 2.362 . S
Gd1320 O1372 2.324 . S
Gd1320 C1379 2.828 . S
Gd1321 N1330 2.661 . S
Gd1321 N1334 2.601 . S
Gd1321 O1365 2.362 . S
Gd1321 O1366 2.324 . S
Gd1321 O1370 2.545 . S
Gd1321 O1371 2.606 . S
Gd1321 O1373 2.429 . S
Gd1321 O1374 2.545 . S
Gd1321 O1375 2.412 . S
Gd1321 C1388 2.828 . S
C1322 C1325 1.417 . S
C1322 C1327 1.431 . S
C1322 C1328 1.412 . S
C1323 C1326 1.437 . S
C1323 C1327 1.317 . S
C1323 H1342 0.929 . S
C1324 C1325 1.426 . S
C1324 C1326 1.413 . S
C1324 N1334 1.359 . S
C1325 C1322 1.417 . S
C1325 C1324 1.426 . S
C1325 N1330 1.350 . S
C1326 C1323 1.437 . S
C1326 C1324 1.413 . S
C1326 C1336 1.391 . S
C1327 C1322 1.431 . S
C1327 C1323 1.317 . S
C1327 H1338 0.930 . S
C1328 C1322 1.412 . S
C1328 C1329 1.355 . S
C1328 H1340 0.930 . S
C1329 C1328 1.355 . S
C1329 C1331 1.402 . S
C1329 H1341 0.930 . S
N1330 Gd1321 2.661 . S
N1330 C1325 1.350 . S
N1330 C1331 1.307 . S
C1331 C1329 1.402 . S
C1331 N1330 1.307 . S
C1331 H1332 0.930 . S
H1332 C1331 0.930 . S
C1333 N1334 1.334 . S
C1333 C1335 1.394 . S
C1333 H1337 0.930 . S
N1334 Gd1321 2.601 . S
N1334 C1324 1.359 . S
N1334 C1333 1.334 . S
C1335 C1333 1.394 . S
C1335 C1336 1.359 . S
C1335 H1347 0.930 . S
C1336 C1326 1.391 . S
C1336 C1335 1.359 . S
C1336 H1348 0.929 . S
H1337 C1333 0.930 . S
H1338 C1327 0.930 . S
H1339 C1356 0.930 . S
H1340 C1328 0.930 . S
H1341 C1329 0.930 . S
H1342 C1323 0.929 . S
H1343 C1361 0.930 . S
H1344 C1352 0.930 . S
H1345 C1353 0.930 . S
H1346 C1377 0.929 . S
H1347 C1335 0.930 . S
H1348 C1336 0.929 . S
H1349 C1378 0.930 . S
H1350 C1359 0.930 . S
N1351 Gd1320 2.661 . S
N1351 C1355 1.350 . S
N1351 C1356 1.307 . S
C1352 H1344 0.930 . S
C1352 C1353 1.355 . S
C1352 C1354 1.412 . S
C1353 H1345 0.930 . S
C1353 C1352 1.355 . S
C1353 C1356 1.402 . S
C1354 C1352 1.412 . S
C1354 C1355 1.417 . S
C1354 C1378 1.431 . S
C1355 N1351 1.350 . S
C1355 C1354 1.417 . S
C1355 C1358 1.426 . S
C1356 H1339 0.930 . S
C1356 N1351 1.307 . S
C1356 C1353 1.402 . S
N1357 Gd1320 2.601 . S
N1357 C1358 1.359 . S
N1357 C1361 1.334 . S
C1358 C1355 1.426 . S
C1358 N1357 1.359 . S
C1358 C1362 1.413 . S
C1359 H1350 0.930 . S
C1359 C1360 1.359 . S
C1359 C1361 1.394 . S
C1360 C1359 1.359 . S
C1360 C1362 1.391 . S
C1360 H1363 0.929 . S
C1361 H1343 0.930 . S
C1361 N1357 1.334 . S
C1361 C1359 1.394 . S
C1362 C1358 1.413 . S
C1362 C1360 1.391 . S
C1362 C1377 1.437 . S
H1363 C1360 0.929 . S
O1364 Gd1320 2.545 . S
O1364 C1379 1.258 . S
O1365 Gd1320 2.606 . S
O1365 Gd1321 2.362 . S
O1365 C1376 1.284 . S
O1366 Gd1321 2.324 . S
O1366 C1386 1.254 . S
O1367 Gd1320 2.429 . S
O1367 C1386 1.268 . S
O1368 Gd1320 2.545 . S
O1368 C1376 1.250 . S
O1369 Gd1320 2.412 . S
O1369 C1379 1.252 . S
O1370 Gd1321 2.545 . S
O1370 C1388 1.258 . S
O1371 Gd1320 2.362 . S
O1371 Gd1321 2.606 . S
O1371 C1387 1.284 . S
O1372 Gd1320 2.324 . S
O1372 C1395 1.254 . S
O1373 Gd1321 2.429 . S
O1373 C1395 1.268 . S
O1374 Gd1321 2.545 . S
O1374 C1387 1.250 . S
O1375 Gd1321 2.412 . S
O1375 C1388 1.252 . S
C1376 O1365 1.284 . S
C1376 O1368 1.250 . S
C1377 H1346 0.929 . S
C1377 C1362 1.437 . S
C1377 C1378 1.317 . S
C1378 H1349 0.930 . S
C1378 C1354 1.431 . S
C1378 C1377 1.317 . S
C1379 Gd1320 2.828 . S
C1379 O1364 1.258 . S
C1379 O1369 1.252 . S
C1379 C1380 1.497 . S
C1380 C1379 1.497 . S
C1380 C1381 1.395 . S
C1380 C1382 1.380 . S
C1381 C1380 1.395 . S
C1381 C1384 1.398 . S
C1381 H1396 0.930 . S
C1382 C1380 1.380 . S
C1382 C1383 1.391 . S
C1382 H1397 0.930 . S
C1383 C1382 1.391 . S
C1383 C1385 1.387 . S
C1384 C1381 1.398 . S
C1384 C1385 1.380 . S
C1384 H1398 0.930 . S
C1385 C1383 1.387 . S
C1385 C1384 1.380 . S
C1385 H1399 0.930 . S
C1386 O1366 1.254 . S
C1386 O1367 1.268 . S
C1387 O1371 1.284 . S
C1387 O1374 1.250 . S
C1388 Gd1321 2.828 . S
C1388 O1370 1.258 . S
C1388 O1375 1.252 . S
C1388 C1389 1.497 . S
C1389 C1388 1.497 . S
C1389 C1390 1.395 . S
C1389 C1391 1.380 . S
C1390 C1389 1.395 . S
C1390 C1393 1.398 . S
C1390 H1400 0.930 . S
C1391 C1389 1.380 . S
C1391 C1392 1.391 . S
C1391 H1401 0.930 . S
C1392 C1391 1.391 . S
C1392 C1394 1.387 . S
C1393 C1390 1.398 . S
C1393 C1394 1.380 . S
C1393 H1402 0.930 . S
C1394 C1392 1.387 . S
C1394 C1393 1.380 . S
C1394 H1403 0.930 . S
C1395 O1372 1.254 . S
C1395 O1373 1.268 . S
H1396 C1381 0.930 . S
H1397 C1382 0.930 . S
H1398 C1384 0.930 . S
H1399 C1385 0.930 . S
H1400 C1390 0.930 . S
H1401 C1391 0.930 . S
H1402 C1393 0.930 . S
H1403 C1394 0.930 . S
Gd1404 N1435 2.661 . S
Gd1404 N1441 2.601 . S
Gd1404 O1448 2.545 . S
Gd1404 O1449 2.606 . S
Gd1404 O1451 2.429 . S
Gd1404 O1452 2.545 . S
Gd1404 O1453 2.412 . S
Gd1404 O1455 2.362 . S
Gd1404 O1456 2.324 . S
Gd1404 C1463 2.828 . S
Gd1405 N1414 2.661 . S
Gd1405 N1418 2.601 . S
Gd1405 O1449 2.362 . S
Gd1405 O1450 2.324 . S
Gd1405 O1454 2.545 . S
Gd1405 O1455 2.606 . S
Gd1405 O1457 2.429 . S
Gd1405 O1458 2.545 . S
Gd1405 O1459 2.412 . S
Gd1405 C1472 2.828 . S
C1406 C1409 1.417 . S
C1406 C1411 1.431 . S
C1406 C1412 1.412 . S
C1407 C1410 1.437 . S
C1407 C1411 1.317 . S
C1407 H1426 0.929 . S
C1408 C1409 1.426 . S
C1408 C1410 1.413 . S
C1408 N1418 1.359 . S
C1409 C1406 1.417 . S
C1409 C1408 1.426 . S
C1409 N1414 1.350 . S
C1410 C1407 1.437 . S
C1410 C1408 1.413 . S
C1410 C1420 1.391 . S
C1411 C1406 1.431 . S
C1411 C1407 1.317 . S
C1411 H1422 0.930 . S
C1412 C1406 1.412 . S
C1412 C1413 1.355 . S
C1412 H1424 0.930 . S
C1413 C1412 1.355 . S
C1413 C1415 1.402 . S
C1413 H1425 0.930 . S
N1414 Gd1405 2.661 . S
N1414 C1409 1.350 . S
N1414 C1415 1.307 . S
C1415 C1413 1.402 . S
C1415 N1414 1.307 . S
C1415 H1416 0.930 . S
H1416 C1415 0.930 . S
C1417 N1418 1.334 . S
C1417 C1419 1.394 . S
C1417 H1421 0.930 . S
N1418 Gd1405 2.601 . S
N1418 C1408 1.359 . S
N1418 C1417 1.334 . S
C1419 C1417 1.394 . S
C1419 C1420 1.359 . S
C1419 H1431 0.930 . S
C1420 C1410 1.391 . S
C1420 C1419 1.359 . S
C1420 H1432 0.929 . S
H1421 C1417 0.930 . S
H1422 C1411 0.930 . S
H1423 C1440 0.930 . S
H1424 C1412 0.930 . S
H1425 C1413 0.930 . S
H1426 C1407 0.929 . S
H1427 C1445 0.930 . S
H1428 C1436 0.930 . S
H1429 C1437 0.930 . S
H1430 C1461 0.929 . S
H1431 C1419 0.930 . S
H1432 C1420 0.929 . S
H1433 C1462 0.930 . S
H1434 C1443 0.930 . S
N1435 Gd1404 2.661 . S
N1435 C1439 1.350 . S
N1435 C1440 1.307 . S
C1436 H1428 0.930 . S
C1436 C1437 1.355 . S
C1436 C1438 1.412 . S
C1437 H1429 0.930 . S
C1437 C1436 1.355 . S
C1437 C1440 1.402 . S
C1438 C1436 1.412 . S
C1438 C1439 1.417 . S
C1438 C1462 1.431 . S
C1439 N1435 1.350 . S
C1439 C1438 1.417 . S
C1439 C1442 1.426 . S
C1440 H1423 0.930 . S
C1440 N1435 1.307 . S
C1440 C1437 1.402 . S
N1441 Gd1404 2.601 . S
N1441 C1442 1.359 . S
N1441 C1445 1.334 . S
C1442 C1439 1.426 . S
C1442 N1441 1.359 . S
C1442 C1446 1.413 . S
C1443 H1434 0.930 . S
C1443 C1444 1.359 . S
C1443 C1445 1.394 . S
C1444 C1443 1.359 . S
C1444 C1446 1.391 . S
C1444 H1447 0.929 . S
C1445 H1427 0.930 . S
C1445 N1441 1.334 . S
C1445 C1443 1.394 . S
C1446 C1442 1.413 . S
C1446 C1444 1.391 . S
C1446 C1461 1.437 . S
H1447 C1444 0.929 . S
O1448 Gd1404 2.545 . S
O1448 C1463 1.258 . S
O1449 Gd1404 2.606 . S
O1449 Gd1405 2.362 . S
O1449 C1460 1.284 . S
O1450 Gd1405 2.324 . S
O1450 C1470 1.254 . S
O1451 Gd1404 2.429 . S
O1451 C1470 1.268 . S
O1452 Gd1404 2.545 . S
O1452 C1460 1.250 . S
O1453 Gd1404 2.412 . S
O1453 C1463 1.252 . S
O1454 Gd1405 2.545 . S
O1454 C1472 1.258 . S
O1455 Gd1404 2.362 . S
O1455 Gd1405 2.606 . S
O1455 C1471 1.284 . S
O1456 Gd1404 2.324 . S
O1456 C1479 1.254 . S
O1457 Gd1405 2.429 . S
O1457 C1479 1.268 . S
O1458 Gd1405 2.545 . S
O1458 C1471 1.250 . S
O1459 Gd1405 2.412 . S
O1459 C1472 1.252 . S
C1460 O1449 1.284 . S
C1460 O1452 1.250 . S
C1461 H1430 0.929 . S
C1461 C1446 1.437 . S
C1461 C1462 1.317 . S
C1462 H1433 0.930 . S
C1462 C1438 1.431 . S
C1462 C1461 1.317 . S
C1463 Gd1404 2.828 . S
C1463 O1448 1.258 . S
C1463 O1453 1.252 . S
C1463 C1464 1.497 . S
C1464 C1463 1.497 . S
C1464 C1465 1.395 . S
C1464 C1466 1.380 . S
C1465 C1464 1.395 . S
C1465 C1468 1.398 . S
C1465 H1480 0.930 . S
C1466 C1464 1.380 . S
C1466 C1467 1.391 . S
C1466 H1481 0.930 . S
C1467 C1466 1.391 . S
C1467 C1469 1.387 . S
C1468 C1465 1.398 . S
C1468 C1469 1.380 . S
C1468 H1482 0.930 . S
C1469 C1467 1.387 . S
C1469 C1468 1.380 . S
C1469 H1483 0.930 . S
C1470 O1450 1.254 . S
C1470 O1451 1.268 . S
C1471 O1455 1.284 . S
C1471 O1458 1.250 . S
C1472 Gd1405 2.828 . S
C1472 O1454 1.258 . S
C1472 O1459 1.252 . S
C1472 C1473 1.497 . S
C1473 C1472 1.497 . S
C1473 C1474 1.395 . S
C1473 C1475 1.380 . S
C1474 C1473 1.395 . S
C1474 C1477 1.398 . S
C1474 H1484 0.930 . S
C1475 C1473 1.380 . S
C1475 C1476 1.391 . S
C1475 H1485 0.930 . S
C1476 C1475 1.391 . S
C1476 C1478 1.387 1_565 S
C1477 C1474 1.398 . S
C1477 C1478 1.380 1_565 S
C1477 H1486 0.930 1_565 S
C1478 C1476 1.387 1_545 S
C1478 C1477 1.380 1_545 S
C1478 H1487 0.930 . S
C1479 O1456 1.254 . S
C1479 O1457 1.268 . S
H1480 C1465 0.930 . S
H1481 C1466 0.930 . S
H1482 C1468 0.930 . S
H1483 C1469 0.930 . S
H1484 C1474 0.930 . S
H1485 C1475 0.930 . S
H1486 C1477 0.930 1_545 S
H1487 C1478 0.930 . S
Gd1488 N1519 2.661 . S
Gd1488 N1525 2.601 . S
Gd1488 O1532 2.545 . S
Gd1488 O1533 2.606 . S
Gd1488 O1535 2.429 . S
Gd1488 O1536 2.545 . S
Gd1488 O1537 2.412 . S
Gd1488 O1539 2.362 . S
Gd1488 O1540 2.324 . S
Gd1488 C1547 2.828 . S
Gd1489 N1498 2.661 . S
Gd1489 N1502 2.601 . S
Gd1489 O1533 2.362 . S
Gd1489 O1534 2.324 . S
Gd1489 O1538 2.545 . S
Gd1489 O1539 2.606 . S
Gd1489 O1541 2.429 . S
Gd1489 O1542 2.545 . S
Gd1489 O1543 2.412 . S
Gd1489 C1556 2.828 . S
C1490 C1493 1.417 . S
C1490 C1495 1.431 . S
C1490 C1496 1.412 . S
C1491 C1494 1.437 . S
C1491 C1495 1.317 . S
C1491 H1510 0.929 . S
C1492 C1493 1.426 . S
C1492 C1494 1.413 . S
C1492 N1502 1.359 . S
C1493 C1490 1.417 . S
C1493 C1492 1.426 . S
C1493 N1498 1.350 . S
C1494 C1491 1.437 . S
C1494 C1492 1.413 . S
C1494 C1504 1.391 . S
C1495 C1490 1.431 . S
C1495 C1491 1.317 . S
C1495 H1506 0.930 . S
C1496 C1490 1.412 . S
C1496 C1497 1.355 . S
C1496 H1508 0.930 . S
C1497 C1496 1.355 . S
C1497 C1499 1.402 . S
C1497 H1509 0.930 . S
N1498 Gd1489 2.661 . S
N1498 C1493 1.350 . S
N1498 C1499 1.307 . S
C1499 C1497 1.402 . S
C1499 N1498 1.307 . S
C1499 H1500 0.930 . S
H1500 C1499 0.930 . S
C1501 N1502 1.334 . S
C1501 C1503 1.394 . S
C1501 H1505 0.930 . S
N1502 Gd1489 2.601 . S
N1502 C1492 1.359 . S
N1502 C1501 1.334 . S
C1503 C1501 1.394 . S
C1503 C1504 1.359 . S
C1503 H1515 0.930 . S
C1504 C1494 1.391 . S
C1504 C1503 1.359 . S
C1504 H1516 0.929 . S
H1505 C1501 0.930 . S
H1506 C1495 0.930 . S
H1507 C1524 0.930 . S
H1508 C1496 0.930 . S
H1509 C1497 0.930 . S
H1510 C1491 0.929 . S
H1511 C1529 0.930 . S
H1512 C1520 0.930 . S
H1513 C1521 0.930 . S
H1514 C1545 0.929 . S
H1515 C1503 0.930 . S
H1516 C1504 0.929 . S
H1517 C1546 0.930 . S
H1518 C1527 0.930 . S
N1519 Gd1488 2.661 . S
N1519 C1523 1.350 . S
N1519 C1524 1.307 . S
C1520 H1512 0.930 . S
C1520 C1521 1.355 . S
C1520 C1522 1.412 . S
C1521 H1513 0.930 . S
C1521 C1520 1.355 . S
C1521 C1524 1.402 . S
C1522 C1520 1.412 . S
C1522 C1523 1.417 . S
C1522 C1546 1.431 . S
C1523 N1519 1.350 . S
C1523 C1522 1.417 . S
C1523 C1526 1.426 . S
C1524 H1507 0.930 . S
C1524 N1519 1.307 . S
C1524 C1521 1.402 . S
N1525 Gd1488 2.601 . S
N1525 C1526 1.359 . S
N1525 C1529 1.334 . S
C1526 C1523 1.426 . S
C1526 N1525 1.359 . S
C1526 C1530 1.413 . S
C1527 H1518 0.930 . S
C1527 C1528 1.359 . S
C1527 C1529 1.394 . S
C1528 C1527 1.359 . S
C1528 C1530 1.391 . S
C1528 H1531 0.929 . S
C1529 H1511 0.930 . S
C1529 N1525 1.334 . S
C1529 C1527 1.394 . S
C1530 C1526 1.413 . S
C1530 C1528 1.391 . S
C1530 C1545 1.437 . S
H1531 C1528 0.929 . S
O1532 Gd1488 2.545 . S
O1532 C1547 1.258 . S
O1533 Gd1488 2.606 . S
O1533 Gd1489 2.362 . S
O1533 C1544 1.284 . S
O1534 Gd1489 2.324 . S
O1534 C1554 1.254 . S
O1535 Gd1488 2.429 . S
O1535 C1554 1.268 . S
O1536 Gd1488 2.545 . S
O1536 C1544 1.250 . S
O1537 Gd1488 2.412 . S
O1537 C1547 1.252 . S
O1538 Gd1489 2.545 . S
O1538 C1556 1.258 . S
O1539 Gd1488 2.362 . S
O1539 Gd1489 2.606 . S
O1539 C1555 1.284 . S
O1540 Gd1488 2.324 . S
O1540 C1563 1.254 . S
O1541 Gd1489 2.429 . S
O1541 C1563 1.268 . S
O1542 Gd1489 2.545 . S
O1542 C1555 1.250 . S
O1543 Gd1489 2.412 . S
O1543 C1556 1.252 . S
C1544 O1533 1.284 . S
C1544 O1536 1.250 . S
C1545 H1514 0.929 . S
C1545 C1530 1.437 . S
C1545 C1546 1.317 . S
C1546 H1517 0.930 . S
C1546 C1522 1.431 . S
C1546 C1545 1.317 . S
C1547 Gd1488 2.828 . S
C1547 O1532 1.258 . S
C1547 O1537 1.252 . S
C1547 C1548 1.497 . S
C1548 C1547 1.497 . S
C1548 C1549 1.395 . S
C1548 C1550 1.380 . S
C1549 C1548 1.395 . S
C1549 C1552 1.398 . S
C1549 H1564 0.930 . S
C1550 C1548 1.380 . S
C1550 C1551 1.391 . S
C1550 H1565 0.930 . S
C1551 C1550 1.391 . S
C1551 C1553 1.387 . S
C1552 C1549 1.398 . S
C1552 C1553 1.380 . S
C1552 H1566 0.930 . S
C1553 C1551 1.387 . S
C1553 C1552 1.380 . S
C1553 H1567 0.930 . S
C1554 O1534 1.254 . S
C1554 O1535 1.268 . S
C1555 O1539 1.284 . S
C1555 O1542 1.250 . S
C1556 Gd1489 2.828 . S
C1556 O1538 1.258 . S
C1556 O1543 1.252 . S
C1556 C1557 1.497 . S
C1557 C1556 1.497 . S
C1557 C1558 1.395 . S
C1557 C1559 1.380 . S
C1558 C1557 1.395 . S
C1558 C1561 1.398 . S
C1558 H1568 0.930 . S
C1559 C1557 1.380 . S
C1559 C1560 1.391 . S
C1559 H1569 0.930 . S
C1560 C1559 1.391 . S
C1560 C1562 1.387 . S
C1561 C1558 1.398 . S
C1561 C1562 1.380 . S
C1561 H1570 0.930 . S
C1562 C1560 1.387 . S
C1562 C1561 1.380 . S
C1562 H1571 0.930 . S
C1563 O1540 1.254 . S
C1563 O1541 1.268 . S
H1564 C1549 0.930 . S
H1565 C1550 0.930 . S
H1566 C1552 0.930 . S
H1567 C1553 0.930 . S
H1568 C1558 0.930 . S
H1569 C1559 0.930 . S
H1570 C1561 0.930 . S
H1571 C1562 0.930 . S
Gd1572 N1603 2.661 1_455 S
Gd1572 N1609 2.601 . S
Gd1572 O1616 2.545 . S
Gd1572 O1617 2.606 . S
Gd1572 O1619 2.429 . S
Gd1572 O1620 2.545 . S
Gd1572 O1621 2.412 1_455 S
Gd1572 O1623 2.362 . S
Gd1572 O1624 2.324 1_554 S
Gd1572 C1631 2.828 1_455 S
Gd1573 N1582 2.661 1_556 S
Gd1573 N1586 2.601 . S
Gd1573 O1617 2.362 1_556 S
Gd1573 O1618 2.324 1_556 S
Gd1573 O1622 2.545 . S
Gd1573 O1623 2.606 1_556 S
Gd1573 O1625 2.429 . S
Gd1573 O1626 2.545 . S
Gd1573 O1627 2.412 1_556 S
Gd1573 C1640 2.828 . S
C1574 C1577 1.417 1_554 S
C1574 C1579 1.431 1_554 S
C1574 C1580 1.412 . S
C1575 C1578 1.437 . S
C1575 C1579 1.317 . S
C1575 H1594 0.929 . S
C1576 C1577 1.426 . S
C1576 C1578 1.413 . S
C1576 N1586 1.359 . S
C1577 C1574 1.417 1_556 S
C1577 C1576 1.426 . S
C1577 N1582 1.350 1_556 S
C1578 C1575 1.437 . S
C1578 C1576 1.413 . S
C1578 C1588 1.391 . S
C1579 C1574 1.431 1_556 S
C1579 C1575 1.317 . S
C1579 H1590 0.930 . S
C1580 C1574 1.412 . S
C1580 C1581 1.355 . S
C1580 H1592 0.930 . S
C1581 C1580 1.355 . S
C1581 C1583 1.402 . S
C1581 H1593 0.930 . S
N1582 Gd1573 2.661 1_554 S
N1582 C1577 1.350 1_554 S
N1582 C1583 1.307 . S
C1583 C1581 1.402 . S
C1583 N1582 1.307 . S
C1583 H1584 0.930 . S
H1584 C1583 0.930 . S
C1585 N1586 1.334 . S
C1585 C1587 1.394 . S
C1585 H1589 0.930 . S
N1586 Gd1573 2.601 . S
N1586 C1576 1.359 . S
N1586 C1585 1.334 . S
C1587 C1585 1.394 . S
C1587 C1588 1.359 . S
C1587 H1599 0.930 . S
C1588 C1578 1.391 . S
C1588 C1587 1.359 . S
C1588 H1600 0.929 . S
H1589 C1585 0.930 . S
H1590 C1579 0.930 . S
H1591 C1608 0.936 . S
H1592 C1580 0.930 . S
H1593 C1581 0.930 . S
H1594 C1575 0.929 . S
H1595 C1613 0.930 . S
H1596 C1604 0.930 . S
H1597 C1605 0.930 . S
H1598 C1629 0.929 . S
H1599 C1587 0.930 . S
H1600 C1588 0.929 . S
H1601 C1630 0.930 . S
H1602 C1611 0.930 . S
N1603 Gd1572 2.661 1_655 S
N1603 C1607 1.350 . S
N1603 C1608 1.307 1_554 S
C1604 H1596 0.930 . S
C1604 C1605 1.355 . S
C1604 C1606 1.412 1_556 S
C1605 H1597 0.930 . S
C1605 C1604 1.355 . S
C1605 C1608 1.402 . S
C1606 C1604 1.412 1_554 S
C1606 C1607 1.417 . S
C1606 C1630 1.431 . S
C1607 N1603 1.350 . S
C1607 C1606 1.417 . S
C1607 C1610 1.426 . S
C1608 H1591 0.936 . S
C1608 N1603 1.307 1_556 S
C1608 C1605 1.402 . S
N1609 Gd1572 2.601 . S
N1609 C1610 1.359 1_455 S
N1609 C1613 1.334 . S
C1610 C1607 1.426 . S
C1610 N1609 1.359 1_655 S
C1610 C1614 1.413 . S
C1611 H1602 0.930 . S
C1611 C1612 1.359 1_455 S
C1611 C1613 1.394 . S
C1612 C1611 1.359 1_655 S
C1612 C1614 1.391 . S
C1612 H1615 0.929 . S
C1613 H1595 0.930 . S
C1613 N1609 1.334 . S
C1613 C1611 1.394 . S
C1614 C1610 1.413 . S
C1614 C1612 1.391 . S
C1614 C1629 1.437 . S
H1615 C1612 0.929 . S
O1616 Gd1572 2.545 . S
O1616 C1631 1.258 1_455 S
O1617 Gd1572 2.606 . S
O1617 Gd1573 2.362 1_554 S
O1617 C1628 1.284 . S
O1618 Gd1573 2.324 1_554 S
O1618 C1638 1.254 . S
O1619 Gd1572 2.429 . S
O1619 C1638 1.268 . S
O1620 Gd1572 2.545 . S
O1620 C1628 1.250 . S
O1621 Gd1572 2.412 1_655 S
O1621 C1631 1.252 . S
O1622 Gd1573 2.545 . S
O1622 C1640 1.258 . S
O1623 Gd1572 2.362 . S
O1623 Gd1573 2.606 1_554 S
O1623 C1639 1.284 . S
O1624 Gd1572 2.324 1_556 S
O1624 C1647 1.254 . S
O1625 Gd1573 2.429 . S
O1625 C1647 1.268 . S
O1626 Gd1573 2.545 . S
O1626 C1639 1.250 1_556 S
O1627 Gd1573 2.412 1_554 S
O1627 C1640 1.252 1_554 S
C1628 O1617 1.284 . S
C1628 O1620 1.250 . S
C1629 H1598 0.929 . S
C1629 C1614 1.437 . S
C1629 C1630 1.317 . S
C1630 H1601 0.930 . S
C1630 C1606 1.431 . S
C1630 C1629 1.317 . S
C1631 Gd1572 2.828 1_655 S
C1631 O1616 1.258 1_655 S
C1631 O1621 1.252 . S
C1631 C1632 1.497 . S
C1632 C1631 1.497 . S
C1632 C1633 1.395 . S
C1632 C1634 1.380 . S
C1633 C1632 1.395 . S
C1633 C1636 1.398 . S
C1633 H1648 0.930 . S
C1634 C1632 1.380 . S
C1634 C1635 1.391 . S
C1634 H1649 0.930 . S
C1635 C1634 1.391 . S
C1635 C1637 1.387 . S
C1636 C1633 1.398 . S
C1636 C1637 1.380 . S
C1636 H1650 0.930 . S
C1637 C1635 1.387 . S
C1637 C1636 1.380 . S
C1637 H1651 0.930 . S
C1638 O1618 1.254 . S
C1638 O1619 1.268 . S
C1639 O1623 1.284 . S
C1639 O1626 1.250 1_554 S
C1640 Gd1573 2.828 . S
C1640 O1622 1.258 . S
C1640 O1627 1.252 1_556 S
C1640 C1641 1.497 . S
C1641 C1640 1.497 . S
C1641 C1642 1.395 . S
C1641 C1643 1.380 . S
C1642 C1641 1.395 . S
C1642 C1645 1.398 . S
C1642 H1652 0.930 . S
C1643 C1641 1.380 . S
C1643 C1644 1.391 . S
C1643 H1653 0.930 1_556 S
C1644 C1643 1.391 . S
C1644 C1646 1.387 . S
C1645 C1642 1.398 . S
C1645 C1646 1.380 . S
C1645 H1654 0.930 . S
C1646 C1644 1.387 . S
C1646 C1645 1.380 . S
C1646 H1655 0.930 . S
C1647 O1624 1.254 . S
C1647 O1625 1.268 . S
H1648 C1633 0.930 . S
H1649 C1634 0.930 . S
H1650 C1636 0.930 . S
H1651 C1637 0.930 . S
H1652 C1642 0.930 . S
H1653 C1643 0.930 1_554 S
H1654 C1645 0.930 . S
H1655 C1646 0.930 . S
C1656 C1657 1.387 . S
C1656 H1660 0.950 . S
C1656 C1665 1.390 . S
C1657 C1656 1.387 . S
C1657 C1659 1.387 1_556 S
H1658 C1665 0.950 . S
C1659 C1657 1.387 1_554 S
C1659 C1661 1.390 . S
C1659 H1663 0.950 . S
H1660 C1656 0.950 . S
C1661 C1659 1.390 . S
C1661 C1662 1.387 . S
C1661 H1664 0.950 . S
C1662 C1661 1.387 . S
C1662 C1665 1.387 1_554 S
H1663 C1659 0.950 . S
H1664 C1661 0.950 . S
C1665 C1656 1.390 . S
C1665 H1658 0.950 . S
C1665 C1662 1.387 1_556 S
C1666 C1667 1.387 . S
C1666 H1670 0.950 . S
C1666 C1675 1.390 . S
C1667 C1666 1.387 . S
C1667 C1669 1.387 . S
H1668 C1675 0.950 . S
C1669 C1667 1.387 . S
C1669 C1671 1.390 . S
C1669 H1673 0.950 . S
H1670 C1666 0.950 . S
C1671 C1669 1.390 . S
C1671 C1672 1.387 . S
C1671 H1674 0.950 . S
C1672 C1671 1.387 . S
C1672 C1675 1.387 . S
H1673 C1669 0.950 . S
H1674 C1671 0.950 . S
C1675 C1666 1.390 . S
C1675 H1668 0.950 . S
C1675 C1672 1.387 . S
C1676 C1677 1.387 . S
C1676 H1680 0.950 . S
C1676 C1685 1.390 . S
C1677 C1676 1.387 . S
C1677 C1679 1.387 . S
H1678 C1685 0.950 . S
C1679 C1677 1.387 . S
C1679 C1681 1.390 . S
C1679 H1683 0.950 . S
H1680 C1676 0.950 . S
C1681 C1679 1.390 . S
C1681 C1682 1.387 . S
C1681 H1684 0.950 . S
C1682 C1681 1.387 . S
C1682 C1685 1.387 . S
H1683 C1679 0.950 . S
H1684 C1681 0.950 . S
C1685 C1676 1.390 . S
C1685 H1678 0.950 . S
C1685 C1682 1.387 . S
C1686 C1687 1.387 . S
C1686 H1690 0.950 . S
C1686 C1695 1.390 . S
C1687 C1686 1.387 . S
C1687 C1689 1.387 . S
H1688 C1695 0.950 . S
C1689 C1687 1.387 . S
C1689 C1691 1.390 . S
C1689 H1693 0.950 . S
H1690 C1686 0.950 . S
C1691 C1689 1.390 . S
C1691 C1692 1.387 . S
C1691 H1694 0.950 . S
C1692 C1691 1.387 . S
C1692 C1695 1.387 . S
H1693 C1689 0.950 . S
H1694 C1691 0.950 . S
C1695 C1686 1.390 . S
C1695 H1688 0.950 . S
C1695 C1692 1.387 . S
C1696 C1697 1.387 . S
C1696 H1700 0.957 . S
C1696 C1705 1.390 . S
C1697 C1696 1.387 . S
C1697 C1699 1.387 . S
H1698 C1705 0.950 . S
C1699 C1697 1.387 . S
C1699 C1701 1.390 . S
C1699 H1703 0.950 . S
H1700 C1696 0.957 . S
C1701 C1699 1.390 . S
C1701 C1702 1.387 . S
C1701 H1704 0.950 . S
C1702 C1701 1.387 . S
C1702 C1705 1.387 . S
H1703 C1699 0.950 . S
H1704 C1701 0.950 . S
C1705 C1696 1.390 . S
C1705 H1698 0.950 . S
C1705 C1702 1.387 . S
C1706 C1707 1.387 . S
C1706 H1710 0.950 . S
C1706 C1715 1.390 . S
C1707 C1706 1.387 . S
C1707 C1709 1.387 . S
H1708 C1715 0.950 . S
C1709 C1707 1.387 . S
C1709 C1711 1.390 . S
C1709 H1713 0.950 . S
H1710 C1706 0.950 . S
C1711 C1709 1.390 . S
C1711 C1712 1.387 . S
C1711 H1714 0.950 . S
C1712 C1711 1.387 . S
C1712 C1715 1.387 . S
H1713 C1709 0.950 . S
H1714 C1711 0.950 . S
C1715 C1706 1.390 . S
C1715 H1708 0.950 . S
C1715 C1712 1.387 . S
C1716 C1717 1.387 . S
C1716 H1720 0.950 . S
C1716 C1725 1.390 . S
C1717 C1716 1.387 . S
C1717 C1719 1.387 . S
H1718 C1725 0.950 . S
C1719 C1717 1.387 . S
C1719 C1721 1.390 . S
C1719 H1723 0.950 . S
H1720 C1716 0.950 . S
C1721 C1719 1.390 . S
C1721 C1722 1.387 . S
C1721 H1724 0.950 . S
C1722 C1721 1.387 . S
C1722 C1725 1.387 . S
H1723 C1719 0.950 . S
H1724 C1721 0.950 . S
C1725 C1716 1.390 . S
C1725 H1718 0.950 . S
C1725 C1722 1.387 . S
C1726 C1727 1.387 . S
C1726 H1730 0.950 . S
C1726 C1735 1.390 . S
C1727 C1726 1.387 . S
C1727 C1729 1.387 . S
H1728 C1735 0.950 . S
C1729 C1727 1.387 . S
C1729 C1731 1.390 . S
C1729 H1733 0.950 . S
H1730 C1726 0.950 . S
C1731 C1729 1.390 . S
C1731 C1732 1.387 . S
C1731 H1734 0.950 . S
C1732 C1731 1.387 . S
C1732 C1735 1.387 . S
H1733 C1729 0.950 . S
H1734 C1731 0.950 . S
C1735 C1726 1.390 . S
C1735 H1728 0.950 . S
C1735 C1732 1.387 . S
C1736 C1737 1.387 . S
C1736 H1740 0.950 . S
C1736 C1745 1.390 . S
C1737 C1736 1.387 . S
C1737 C1739 1.387 . S
H1738 C1745 0.950 . S
C1739 C1737 1.387 . S
C1739 C1741 1.390 . S
C1739 H1743 0.950 . S
H1740 C1736 0.950 . S
C1741 C1739 1.390 . S
C1741 C1742 1.387 . S
C1741 H1744 0.950 . S
C1742 C1741 1.387 . S
C1742 C1745 1.387 . S
H1743 C1739 0.950 . S
H1744 C1741 0.950 . S
C1745 C1736 1.390 . S
C1745 H1738 0.950 . S
C1745 C1742 1.387 . S
C1746 C1747 1.387 . S
C1746 H1750 0.950 . S
C1746 C1755 1.390 . S
C1747 C1746 1.387 . S
C1747 C1749 1.387 . S
H1748 C1755 0.950 . S
C1749 C1747 1.387 . S
C1749 C1751 1.390 . S
C1749 H1753 0.950 . S
H1750 C1746 0.950 . S
C1751 C1749 1.390 . S
C1751 C1752 1.387 . S
C1751 H1754 0.950 . S
C1752 C1751 1.387 . S
C1752 C1755 1.387 . S
H1753 C1749 0.950 . S
H1754 C1751 0.950 . S
C1755 C1746 1.390 . S
C1755 H1748 0.950 . S
C1755 C1752 1.387 . S
C1756 C1757 1.387 . S
C1756 H1760 0.950 . S
C1756 C1765 1.390 . S
C1757 C1756 1.387 . S
C1757 C1759 1.387 . S
H1758 C1765 0.950 . S
C1759 C1757 1.387 . S
C1759 C1761 1.390 . S
C1759 H1763 0.950 . S
H1760 C1756 0.950 . S
C1761 C1759 1.390 . S
C1761 C1762 1.387 . S
C1761 H1764 0.950 1_545 S
C1762 C1761 1.387 . S
C1762 C1765 1.387 . S
H1763 C1759 0.950 . S
H1764 C1761 0.950 1_565 S
C1765 C1756 1.390 . S
C1765 H1758 0.950 . S
C1765 C1762 1.387 . S
C1766 C1767 1.387 . S
C1766 H1770 0.950 . S
C1766 C1775 1.390 . S
C1767 C1766 1.387 . S
C1767 C1769 1.387 . S
H1768 C1775 0.950 . S
C1769 C1767 1.387 . S
C1769 C1771 1.390 . S
C1769 H1773 0.950 . S
H1770 C1766 0.950 . S
C1771 C1769 1.390 . S
C1771 C1772 1.387 . S
C1771 H1774 0.950 . S
C1772 C1771 1.387 . S
C1772 C1775 1.387 . S
H1773 C1769 0.950 . S
H1774 C1771 0.950 . S
C1775 C1766 1.390 . S
C1775 H1768 0.950 . S
C1775 C1772 1.387 . S
C1776 C1777 1.387 . S
C1776 H1780 0.950 . S
C1776 C1785 1.390 . S
C1777 C1776 1.387 . S
C1777 C1779 1.387 . S
H1778 C1785 0.950 . S
C1779 C1777 1.387 . S
C1779 C1781 1.390 . S
C1779 H1783 0.950 . S
H1780 C1776 0.950 . S
C1781 C1779 1.390 . S
C1781 C1782 1.387 . S
C1781 H1784 0.950 . S
C1782 C1781 1.387 . S
C1782 C1785 1.387 . S
H1783 C1779 0.950 . S
H1784 C1781 0.950 . S
C1785 C1776 1.390 . S
C1785 H1778 0.950 . S
C1785 C1782 1.387 . S
C1786 C1787 1.387 . S
C1786 H1790 0.950 . S
C1786 C1795 1.390 . S
C1787 C1786 1.387 . S
C1787 C1789 1.387 . S
H1788 C1795 0.950 . S
C1789 C1787 1.387 . S
C1789 C1791 1.390 . S
C1789 H1793 0.950 . S
H1790 C1786 0.950 . S
C1791 C1789 1.390 . S
C1791 C1792 1.387 . S
C1791 H1794 0.950 . S
C1792 C1791 1.387 . S
C1792 C1795 1.387 . S
H1793 C1789 0.950 . S
H1794 C1791 0.950 . S
C1795 C1786 1.390 . S
C1795 H1788 0.950 . S
C1795 C1792 1.387 . S
C1796 C1797 1.387 . S
C1796 H1800 0.950 . S
C1796 C1805 1.390 . S
C1797 C1796 1.387 . S
C1797 C1799 1.387 . S
H1798 C1805 0.950 . S
C1799 C1797 1.387 . S
C1799 C1801 1.390 . S
C1799 H1803 0.950 . S
H1800 C1796 0.950 . S
C1801 C1799 1.390 . S
C1801 C1802 1.387 . S
C1801 H1804 0.950 . S
C1802 C1801 1.387 . S
C1802 C1805 1.387 . S
H1803 C1799 0.950 . S
H1804 C1801 0.950 . S
C1805 C1796 1.390 . S
C1805 H1798 0.950 . S
C1805 C1802 1.387 . S
C1806 C1807 1.387 . S
C1806 H1810 0.950 . S
C1806 C1815 1.390 . S
C1807 C1806 1.387 . S
C1807 C1809 1.387 . S
H1808 C1815 0.950 . S
C1809 C1807 1.387 . S
C1809 C1811 1.390 . S
C1809 H1813 0.950 . S
H1810 C1806 0.950 . S
C1811 C1809 1.390 . S
C1811 C1812 1.387 . S
C1811 H1814 0.950 . S
C1812 C1811 1.387 . S
C1812 C1815 1.387 . S
H1813 C1809 0.950 . S
H1814 C1811 0.950 . S
C1815 C1806 1.390 . S
C1815 H1808 0.950 . S
C1815 C1812 1.387 . S
C1816 C1817 1.387 1_556 S
C1816 H1820 0.950 . S
C1816 C1825 1.390 . S
C1817 C1816 1.387 1_554 S
C1817 C1819 1.387 1_565 S
H1818 C1825 0.950 . S
C1819 C1817 1.387 1_545 S
C1819 C1821 1.390 . S
C1819 H1823 0.950 . S
H1820 C1816 0.950 . S
C1821 C1819 1.390 . S
C1821 C1822 1.387 . S
C1821 H1824 0.950 . S
C1822 C1821 1.387 . S
C1822 C1825 1.387 1_544 S
H1823 C1819 0.950 . S
H1824 C1821 0.950 . S
C1825 C1816 1.390 . S
C1825 H1818 0.950 . S
C1825 C1822 1.387 1_566 S
C1826 C1827 1.387 1_554 S
C1826 H1830 0.950 . S
C1826 C1835 1.390 . S
C1827 C1826 1.387 1_556 S
C1827 C1829 1.387 . S
H1828 C1835 0.950 . S
C1829 C1827 1.387 . S
C1829 C1831 1.390 . S
C1829 H1833 0.950 . S
H1830 C1826 0.950 . S
C1831 C1829 1.390 . S
C1831 C1832 1.387 . S
C1831 H1834 0.950 . S
C1832 C1831 1.387 . S
C1832 C1835 1.387 1_556 S
H1833 C1829 0.950 . S
H1834 C1831 0.950 . S
C1835 C1826 1.390 . S
C1835 H1828 0.950 . S
C1835 C1832 1.387 1_554 S
C1836 C1837 1.387 . S
C1836 H1840 0.950 . S
C1836 C1845 1.390 . S
C1837 C1836 1.387 . S
C1837 C1839 1.387 . S
H1838 C1845 0.950 . S
C1839 C1837 1.387 . S
C1839 C1841 1.390 . S
C1839 H1843 0.950 . S
H1840 C1836 0.950 . S
C1841 C1839 1.390 . S
C1841 C1842 1.387 . S
C1841 H1844 0.950 . S
C1842 C1841 1.387 . S
C1842 C1845 1.387 . S
H1843 C1839 0.950 . S
H1844 C1841 0.950 . S
C1845 C1836 1.390 . S
C1845 H1838 0.950 . S
C1845 C1842 1.387 . S
C1846 C1847 1.387 . S
C1846 H1850 0.950 . S
C1846 C1855 1.390 . S
C1847 C1846 1.387 . S
C1847 C1849 1.387 . S
H1848 C1855 0.950 . S
C1849 C1847 1.387 . S
C1849 C1851 1.390 . S
C1849 H1853 0.950 . S
H1850 C1846 0.950 . S
C1851 C1849 1.390 . S
C1851 C1852 1.387 1_655 S
C1851 H1854 0.967 . S
C1852 C1851 1.387 1_455 S
C1852 C1855 1.387 1_455 S
H1853 C1849 0.950 . S
H1854 C1851 0.967 . S
C1855 C1846 1.390 . S
C1855 H1848 0.950 . S
C1855 C1852 1.387 1_655 S
C1856 C1857 1.387 . S
C1856 H1860 0.950 . S
C1856 C1865 1.390 . S
C1857 C1856 1.387 . S
C1857 C1859 1.387 . S
H1858 C1865 0.950 . S
C1859 C1857 1.387 . S
C1859 C1861 1.390 . S
C1859 H1863 0.950 . S
H1860 C1856 0.950 . S
C1861 C1859 1.390 . S
C1861 C1862 1.387 . S
C1861 H1864 0.950 . S
C1862 C1861 1.387 . S
C1862 C1865 1.387 . S
H1863 C1859 0.950 . S
H1864 C1861 0.950 . S
C1865 C1856 1.390 . S
C1865 H1858 0.950 . S
C1865 C1862 1.387 . S
C1866 C1867 1.387 . S
C1866 H1870 0.950 . S
C1866 C1875 1.390 . S
C1867 C1866 1.387 . S
C1867 C1869 1.387 . S
H1868 C1875 0.950 . S
C1869 C1867 1.387 . S
C1869 C1871 1.390 . S
C1869 H1873 0.950 . S
H1870 C1866 0.950 . S
C1871 C1869 1.390 . S
C1871 C1872 1.387 . S
C1871 H1874 0.950 . S
C1872 C1871 1.387 . S
C1872 C1875 1.387 . S
H1873 C1869 0.950 . S
H1874 C1871 0.950 . S
C1875 C1866 1.390 . S
C1875 H1868 0.950 . S
C1875 C1872 1.387 . S
C1876 C1877 1.387 . S
C1876 H1880 0.950 . S
C1876 C1885 1.390 . S
C1877 C1876 1.387 . S
C1877 C1879 1.387 . S
H1878 C1885 0.950 . S
C1879 C1877 1.387 . S
C1879 C1881 1.390 . S
C1879 H1883 0.950 . S
H1880 C1876 0.950 . S
C1881 C1879 1.390 . S
C1881 C1882 1.387 . S
C1881 H1884 0.950 . S
C1882 C1881 1.387 . S
C1882 C1885 1.387 . S
H1883 C1879 0.950 . S
H1884 C1881 0.950 . S
C1885 C1876 1.390 . S
C1885 H1878 0.950 . S
C1885 C1882 1.387 . S
C1886 C1887 1.387 . S
C1886 H1890 0.950 . S
C1886 C1895 1.390 . S
C1887 C1886 1.387 . S
C1887 C1889 1.387 . S
H1888 C1895 0.950 . S
C1889 C1887 1.387 . S
C1889 C1891 1.390 . S
C1889 H1893 0.950 . S
H1890 C1886 0.950 . S
C1891 C1889 1.390 . S
C1891 C1892 1.387 . S
C1891 H1894 0.950 . S
C1892 C1891 1.387 . S
C1892 C1895 1.387 . S
H1893 C1889 0.950 . S
H1894 C1891 0.950 . S
C1895 C1886 1.390 . S
C1895 H1888 0.950 . S
C1895 C1892 1.387 . S
C1896 C1897 1.387 . S
C1896 H1900 0.950 1_554 S
C1896 C1905 1.390 . S
C1897 C1896 1.387 . S
C1897 C1899 1.387 . S
H1898 C1905 0.950 1_556 S
C1899 C1897 1.387 . S
C1899 C1901 1.390 . S
C1899 H1903 0.950 . S
H1900 C1896 0.950 1_556 S
C1901 C1899 1.390 . S
C1901 C1902 1.387 . S
C1901 H1904 0.950 . S
C1902 C1901 1.387 . S
C1902 C1905 1.387 . S
H1903 C1899 0.950 . S
H1904 C1901 0.950 . S
C1905 C1896 1.390 . S
C1905 H1898 0.950 1_554 S
C1905 C1902 1.387 . S
C1906 C1907 1.387 . S
C1906 H1910 0.950 . S
C1906 C1915 1.390 . S
C1907 C1906 1.387 . S
C1907 C1909 1.387 . S
H1908 C1915 0.950 . S
C1909 C1907 1.387 . S
C1909 C1911 1.390 . S
C1909 H1913 0.950 . S
H1910 C1906 0.950 . S
C1911 C1909 1.390 . S
C1911 C1912 1.387 . S
C1911 H1914 0.950 . S
C1912 C1911 1.387 . S
C1912 C1915 1.387 . S
H1913 C1909 0.950 . S
H1914 C1911 0.950 . S
C1915 C1906 1.390 . S
C1915 H1908 0.950 . S
C1915 C1912 1.387 . S
C1916 C1917 1.387 . S
C1916 H1920 0.950 . S
C1916 C1925 1.390 . S
C1917 C1916 1.387 . S
C1917 C1919 1.387 . S
H1918 C1925 0.950 . S
C1919 C1917 1.387 . S
C1919 C1921 1.390 . S
C1919 H1923 0.950 . S
H1920 C1916 0.950 . S
C1921 C1919 1.390 . S
C1921 C1922 1.387 . S
C1921 H1924 0.950 . S
C1922 C1921 1.387 . S
C1922 C1925 1.387 . S
H1923 C1919 0.950 . S
H1924 C1921 0.950 . S
C1925 C1916 1.390 . S
C1925 H1918 0.950 . S
C1925 C1922 1.387 . S
C1926 C1927 1.387 . S
C1926 H1930 0.950 . S
C1926 C1935 1.390 . S
C1927 C1926 1.387 . S
C1927 C1929 1.387 . S
H1928 C1935 0.950 . S
C1929 C1927 1.387 . S
C1929 C1931 1.390 . S
C1929 H1933 0.950 . S
H1930 C1926 0.950 . S
C1931 C1929 1.390 . S
C1931 C1932 1.387 . S
C1931 H1934 0.950 . S
C1932 C1931 1.387 . S
C1932 C1935 1.387 . S
H1933 C1929 0.950 . S
H1934 C1931 0.950 . S
C1935 C1926 1.390 . S
C1935 H1928 0.950 . S
C1935 C1932 1.387 . S
C1936 C1937 1.387 . S
C1936 H1940 0.950 . S
C1936 C1945 1.390 . S
C1937 C1936 1.387 . S
C1937 C1939 1.387 . S
H1938 C1945 0.950 . S
C1939 C1937 1.387 . S
C1939 C1941 1.390 . S
C1939 H1943 0.950 . S
H1940 C1936 0.950 . S
C1941 C1939 1.390 . S
C1941 C1942 1.387 . S
C1941 H1944 0.950 . S
C1942 C1941 1.387 . S
C1942 C1945 1.387 . S
H1943 C1939 0.950 . S
H1944 C1941 0.950 . S
C1945 C1936 1.390 . S
C1945 H1938 0.950 . S
C1945 C1942 1.387 . S
C1946 C1947 1.387 . S
C1946 H1950 0.950 . S
C1946 C1955 1.390 . S
C1947 C1946 1.387 . S
C1947 C1949 1.387 . S
H1948 C1955 0.950 . S
C1949 C1947 1.387 . S
C1949 C1951 1.390 . S
C1949 H1953 0.950 . S
H1950 C1946 0.950 . S
C1951 C1949 1.390 . S
C1951 C1952 1.387 . S
C1951 H1954 0.950 . S
C1952 C1951 1.387 . S
C1952 C1955 1.387 . S
H1953 C1949 0.950 . S
H1954 C1951 0.950 . S
C1955 C1946 1.390 . S
C1955 H1948 0.950 . S
C1955 C1952 1.387 . S
C1956 C1957 1.387 . S
C1956 H1960 0.950 . S
C1956 C1965 1.390 . S
C1957 C1956 1.387 . S
C1957 C1959 1.387 . S
H1958 C1965 0.950 . S
C1959 C1957 1.387 . S
C1959 C1961 1.390 . S
C1959 H1963 0.950 . S
H1960 C1956 0.950 . S
C1961 C1959 1.390 . S
C1961 C1962 1.387 . S
C1961 H1964 0.950 . S
C1962 C1961 1.387 . S
C1962 C1965 1.387 . S
H1963 C1959 0.950 . S
H1964 C1961 0.950 . S
C1965 C1956 1.390 . S
C1965 H1958 0.950 . S
C1965 C1962 1.387 . S
C1966 C1967 1.387 . S
C1966 H1970 0.950 . S
C1966 C1975 1.390 . S
C1967 C1966 1.387 . S
C1967 C1969 1.387 . S
H1968 C1975 0.950 . S
C1969 C1967 1.387 . S
C1969 C1971 1.390 . S
C1969 H1973 0.950 . S
H1970 C1966 0.950 . S
C1971 C1969 1.390 . S
C1971 C1972 1.387 . S
C1971 H1974 0.950 . S
C1972 C1971 1.387 . S
C1972 C1975 1.387 . S
H1973 C1969 0.950 . S
H1974 C1971 0.950 . S
C1975 C1966 1.390 . S
C1975 H1968 0.950 . S
C1975 C1972 1.387 . S
C1976 C1977 1.358 1_565 S
C1976 H1980 0.950 . S
C1976 C1985 1.390 . S
C1977 C1976 1.358 1_545 S
C1977 C1979 1.415 . S
H1978 C1985 0.950 . S
C1979 C1977 1.415 . S
C1979 C1981 1.390 . S
C1979 H1983 0.950 . S
H1980 C1976 0.950 . S
C1981 C1979 1.390 . S
C1981 C1982 1.387 . S
C1981 H1984 0.950 . S
C1982 C1981 1.387 . S
C1982 C1985 1.387 1_545 S
H1983 C1979 0.950 . S
H1984 C1981 0.950 . S
C1985 C1976 1.390 . S
C1985 H1978 0.950 . S
C1985 C1982 1.387 1_565 S
C1986 C1987 1.387 . S
C1986 H1990 0.950 . S
C1986 C1995 1.390 . S
C1987 C1986 1.387 . S
C1987 C1989 1.387 . S
H1988 C1995 0.950 . S
C1989 C1987 1.387 . S
C1989 C1991 1.390 . S
C1989 H1993 0.950 . S
H1990 C1986 0.950 . S
C1991 C1989 1.390 . S
C1991 C1992 1.387 . S
C1991 H1994 0.950 . S
C1992 C1991 1.387 . S
C1992 C1995 1.387 . S
H1993 C1989 0.950 . S
H1994 C1991 0.950 . S
C1995 C1986 1.390 . S
C1995 H1988 0.950 . S
C1995 C1992 1.387 . S
C1996 C1997 1.387 . S
C1996 H2000 0.950 . S
C1996 C2005 1.390 . S
C1997 C1996 1.387 . S
C1997 C1999 1.387 1_545 S
H1998 C2005 0.950 . S
C1999 C1997 1.387 1_565 S
C1999 C2001 1.390 1_565 S
C1999 H2003 0.950 . S
H2000 C1996 0.950 . S
C2001 C1999 1.390 1_545 S
C2001 C2002 1.387 . S
C2001 H2004 0.950 1_545 S
C2002 C2001 1.387 . S
C2002 C2005 1.387 . S
H2003 C1999 0.950 . S
H2004 C2001 0.950 1_565 S
C2005 C1996 1.390 . S
C2005 H1998 0.950 . S
C2005 C2002 1.387 . S
C2006 C2007 1.387 . S
C2006 H2010 0.950 . S
C2006 C2015 1.390 . S
C2007 C2006 1.387 . S
C2007 C2009 1.387 . S
H2008 C2015 0.950 . S
C2009 C2007 1.387 . S
C2009 C2011 1.390 . S
C2009 H2013 0.950 . S
H2010 C2006 0.950 . S
C2011 C2009 1.390 . S
C2011 C2012 1.387 . S
C2011 H2014 0.950 . S
C2012 C2011 1.387 . S
C2012 C2015 1.387 . S
H2013 C2009 0.950 . S
H2014 C2011 0.950 . S
C2015 C2006 1.390 . S
C2015 H2008 0.950 . S
C2015 C2012 1.387 . S
C2016 C2017 1.387 1_545 S
C2016 H2020 0.950 . S
C2016 C2025 1.390 . S
C2017 C2016 1.387 1_565 S
C2017 C2019 1.387 . S
H2018 C2025 0.950 . S
C2019 C2017 1.387 . S
C2019 C2021 1.390 . S
C2019 H2023 0.950 . S
H2020 C2016 0.950 . S
C2021 C2019 1.390 . S
C2021 C2022 1.387 1_565 S
C2021 H2024 0.950 . S
C2022 C2021 1.387 1_545 S
C2022 C2025 1.387 . S
H2023 C2019 0.950 . S
H2024 C2021 0.950 . S
C2025 C2016 1.390 . S
C2025 H2018 0.950 . S
C2025 C2022 1.387 . S
C2026 C2027 1.387 . S
C2026 H2030 0.950 . S
C2026 C2035 1.390 . S
C2027 C2026 1.387 . S
C2027 C2029 1.387 . S
H2028 C2035 0.950 . S
C2029 C2027 1.387 . S
C2029 C2031 1.390 . S
C2029 H2033 0.950 . S
H2030 C2026 0.950 . S
C2031 C2029 1.390 . S
C2031 C2032 1.387 . S
C2031 H2034 0.950 . S
C2032 C2031 1.387 . S
C2032 C2035 1.387 . S
H2033 C2029 0.950 . S
H2034 C2031 0.950 . S
C2035 C2026 1.390 . S
C2035 H2028 0.950 . S
C2035 C2032 1.387 . S
C2036 C2037 1.387 1_545 S
C2036 H2040 0.950 . S
C2036 C2045 1.390 . S
C2037 C2036 1.387 1_565 S
C2037 C2039 1.387 . S
H2038 C2045 0.950 . S
C2039 C2037 1.387 . S
C2039 C2041 1.390 . S
C2039 H2043 0.950 . S
H2040 C2036 0.950 . S
C2041 C2039 1.390 . S
C2041 C2042 1.374 1_565 S
C2041 H2044 0.950 . S
C2042 C2041 1.374 1_545 S
C2042 C2045 1.400 . S
H2043 C2039 0.950 . S
H2044 C2041 0.950 . S
C2045 C2036 1.390 . S
C2045 H2038 0.950 . S
C2045 C2042 1.400 . S
C2046 C2047 1.387 . S
C2046 H2050 0.950 . S
C2046 C2055 1.390 . S
C2047 C2046 1.387 . S
C2047 C2049 1.387 . S
H2048 C2055 0.950 . S
C2049 C2047 1.387 . S
C2049 C2051 1.390 . S
C2049 H2053 0.950 . S
H2050 C2046 0.950 . S
C2051 C2049 1.390 . S
C2051 C2052 1.387 . S
C2051 H2054 0.950 . S
C2052 C2051 1.387 . S
C2052 C2055 1.387 . S
H2053 C2049 0.950 . S
H2054 C2051 0.950 . S
C2055 C2046 1.390 . S
C2055 H2048 0.950 . S
C2055 C2052 1.387 . S
C2056 C2057 1.387 1_556 S
C2056 H2060 0.950 . S
C2056 C2065 1.390 . S
C2057 C2056 1.387 1_554 S
C2057 C2059 1.387 . S
H2058 C2065 0.950 . S
C2059 C2057 1.387 . S
C2059 C2061 1.390 . S
C2059 H2063 0.950 . S
H2060 C2056 0.950 . S
C2061 C2059 1.390 . S
C2061 C2062 1.387 . S
C2061 H2064 0.950 . S
C2062 C2061 1.387 . S
C2062 C2065 1.387 1_554 S
H2063 C2059 0.950 . S
H2064 C2061 0.950 . S
C2065 C2056 1.390 . S
C2065 H2058 0.950 . S
C2065 C2062 1.387 1_556 S
C2066 C2067 1.387 . S
C2066 H2070 0.950 . S
C2066 C2075 1.390 . S
C2067 C2066 1.387 . S
C2067 C2069 1.387 . S
H2068 C2075 0.950 . S
C2069 C2067 1.387 . S
C2069 C2071 1.390 . S
C2069 H2073 0.950 . S
H2070 C2066 0.950 . S
C2071 C2069 1.390 . S
C2071 C2072 1.387 . S
C2071 H2074 0.950 1_554 S
C2072 C2071 1.387 . S
C2072 C2075 1.387 . S
H2073 C2069 0.950 . S
H2074 C2071 0.950 1_556 S
C2075 C2066 1.390 . S
C2075 H2068 0.950 . S
C2075 C2072 1.387 . S
C2076 C2077 1.387 . S
C2076 H2080 0.950 . S
C2076 C2085 1.390 . S
C2077 C2076 1.387 . S
C2077 C2079 1.387 . S
H2078 C2085 0.950 . S
C2079 C2077 1.387 . S
C2079 C2081 1.390 . S
C2079 H2083 0.950 . S
H2080 C2076 0.950 . S
C2081 C2079 1.390 . S
C2081 C2082 1.387 . S
C2081 H2084 0.950 . S
C2082 C2081 1.387 . S
C2082 C2085 1.387 . S
H2083 C2079 0.950 . S
H2084 C2081 0.950 . S
C2085 C2076 1.390 . S
C2085 H2078 0.950 . S
C2085 C2082 1.387 . S
C2086 C2087 1.387 . S
C2086 H2090 0.950 . S
C2086 C2095 1.390 . S
C2087 C2086 1.387 . S
C2087 C2089 1.387 . S
H2088 C2095 0.950 . S
C2089 C2087 1.387 . S
C2089 C2091 1.390 . S
C2089 H2093 0.950 . S
H2090 C2086 0.950 . S
C2091 C2089 1.390 . S
C2091 C2092 1.387 . S
C2091 H2094 0.950 . S
C2092 C2091 1.387 . S
C2092 C2095 1.387 . S
H2093 C2089 0.950 . S
H2094 C2091 0.950 . S
C2095 C2086 1.390 . S
C2095 H2088 0.950 . S
C2095 C2092 1.387 . S
C2096 C2097 1.387 1_545 S
C2096 H2100 0.950 . S
C2096 C2105 1.390 . S
C2097 C2096 1.387 1_565 S
C2097 C2099 1.387 . S
H2098 C2105 0.950 . S
C2099 C2097 1.387 . S
C2099 C2101 1.390 . S
C2099 H2103 0.950 . S
H2100 C2096 0.950 . S
C2101 C2099 1.390 . S
C2101 C2102 1.387 . S
C2101 H2104 0.950 . S
C2102 C2101 1.387 . S
C2102 C2105 1.387 1_565 S
H2103 C2099 0.950 . S
H2104 C2101 0.950 . S
C2105 C2096 1.390 . S
C2105 H2098 0.950 . S
C2105 C2102 1.387 1_545 S
C2106 C2107 1.387 . S
C2106 H2110 0.950 . S
C2106 C2115 1.390 . S
C2107 C2106 1.387 . S
C2107 C2109 1.387 . S
H2108 C2115 0.950 . S
C2109 C2107 1.387 . S
C2109 C2111 1.390 . S
C2109 H2113 0.950 . S
H2110 C2106 0.950 . S
C2111 C2109 1.390 . S
C2111 C2112 1.387 . S
C2111 H2114 0.950 . S
C2112 C2111 1.387 . S
C2112 C2115 1.387 . S
H2113 C2109 0.950 . S
H2114 C2111 0.950 . S
C2115 C2106 1.390 . S
C2115 H2108 0.950 . S
C2115 C2112 1.387 . S
C2116 C2117 1.387 . S
C2116 H2120 0.950 . S
C2116 C2125 1.390 . S
C2117 C2116 1.387 . S
C2117 C2119 1.387 . S
H2118 C2125 0.950 . S
C2119 C2117 1.387 . S
C2119 C2121 1.390 . S
C2119 H2123 0.950 . S
H2120 C2116 0.950 . S
C2121 C2119 1.390 . S
C2121 C2122 1.387 . S
C2121 H2124 0.950 . S
C2122 C2121 1.387 . S
C2122 C2125 1.387 . S
H2123 C2119 0.950 . S
H2124 C2121 0.950 . S
C2125 C2116 1.390 . S
C2125 H2118 0.950 . S
C2125 C2122 1.387 . S
C2126 C2127 1.387 . S
C2126 H2130 0.950 . S
C2126 C2135 1.390 . S
C2127 C2126 1.387 . S
C2127 C2129 1.387 . S
H2128 C2135 0.950 . S
C2129 C2127 1.387 . S
C2129 C2131 1.390 . S
C2129 H2133 0.950 . S
H2130 C2126 0.950 . S
C2131 C2129 1.390 . S
C2131 C2132 1.387 . S
C2131 H2134 0.950 . S
C2132 C2131 1.387 . S
C2132 C2135 1.387 . S
H2133 C2129 0.950 . S
H2134 C2131 0.950 . S
C2135 C2126 1.390 . S
C2135 H2128 0.950 . S
C2135 C2132 1.387 . S
C2136 C2137 1.387 . S
C2136 H2140 0.950 . S
C2136 C2145 1.390 . S
C2137 C2136 1.387 . S
C2137 C2139 1.387 . S
H2138 C2145 0.950 . S
C2139 C2137 1.387 . S
C2139 C2141 1.390 . S
C2139 H2143 0.950 . S
H2140 C2136 0.950 . S
C2141 C2139 1.390 . S
C2141 C2142 1.387 . S
C2141 H2144 0.950 . S
C2142 C2141 1.387 . S
C2142 C2145 1.387 . S
H2143 C2139 0.950 . S
H2144 C2141 0.950 . S
C2145 C2136 1.390 . S
C2145 H2138 0.950 . S
C2145 C2142 1.387 . S
C2146 C2147 1.387 . S
C2146 H2150 0.950 . S
C2146 C2155 1.390 . S
C2147 C2146 1.387 . S
C2147 C2149 1.387 . S
H2148 C2155 0.950 . S
C2149 C2147 1.387 . S
C2149 C2151 1.390 . S
C2149 H2153 0.950 . S
H2150 C2146 0.950 . S
C2151 C2149 1.390 . S
C2151 C2152 1.387 . S
C2151 H2154 0.950 . S
C2152 C2151 1.387 . S
C2152 C2155 1.387 . S
H2153 C2149 0.950 . S
H2154 C2151 0.950 . S
C2155 C2146 1.390 . S
C2155 H2148 0.950 . S
C2155 C2152 1.387 . S
C2156 C2157 1.366 1_554 S
C2156 H2160 0.950 . S
C2156 C2165 1.390 . S
C2157 C2156 1.366 1_556 S
C2157 C2159 1.413 . S
H2158 C2165 0.950 . S
C2159 C2157 1.413 . S
C2159 C2161 1.390 . S
C2159 H2163 0.950 . S
H2160 C2156 0.950 . S
C2161 C2159 1.390 . S
C2161 C2162 1.387 1_556 S
C2161 H2164 0.950 . S
C2162 C2161 1.387 1_554 S
C2162 C2165 1.387 . S
H2163 C2159 0.950 . S
H2164 C2161 0.950 . S
C2165 C2156 1.390 . S
C2165 H2158 0.950 . S
C2165 C2162 1.387 . S
C2166 C2167 1.387 . S
C2166 H2170 0.950 . S
C2166 C2175 1.390 . S
C2167 C2166 1.387 . S
C2167 C2169 1.387 . S
H2168 C2175 0.950 1_655 S
C2169 C2167 1.387 . S
C2169 C2171 1.390 1_455 S
C2169 H2173 0.950 . S
H2170 C2166 0.950 . S
C2171 C2169 1.390 1_655 S
C2171 C2172 1.387 . S
C2171 H2174 0.950 . S
C2172 C2171 1.387 . S
C2172 C2175 1.387 1_655 S
H2173 C2169 0.950 . S
H2174 C2171 0.950 . S
C2175 C2166 1.390 . S
C2175 H2168 0.950 1_455 S
C2175 C2172 1.387 1_455 S
C2176 C2177 1.387 . S
C2176 H2180 0.950 . S
C2176 C2185 1.390 . S
C2177 C2176 1.387 . S
C2177 C2179 1.387 . S
H2178 C2185 0.950 . S
C2179 C2177 1.387 . S
C2179 C2181 1.390 . S
C2179 H2183 0.950 . S
H2180 C2176 0.950 . S
C2181 C2179 1.390 . S
C2181 C2182 1.387 . S
C2181 H2184 0.950 . S
C2182 C2181 1.387 . S
C2182 C2185 1.387 . S
H2183 C2179 0.950 . S
H2184 C2181 0.950 . S
C2185 C2176 1.390 . S
C2185 H2178 0.950 . S
C2185 C2182 1.387 . S
C2186 C2187 1.387 . S
C2186 H2190 0.950 . S
C2186 C2195 1.390 . S
C2187 C2186 1.387 . S
C2187 C2189 1.387 . S
H2188 C2195 0.950 . S
C2189 C2187 1.387 . S
C2189 C2191 1.390 . S
C2189 H2193 0.950 . S
H2190 C2186 0.950 . S
C2191 C2189 1.390 . S
C2191 C2192 1.387 . S
C2191 H2194 0.950 . S
C2192 C2191 1.387 . S
C2192 C2195 1.387 . S
H2193 C2189 0.950 . S
H2194 C2191 0.950 . S
C2195 C2186 1.390 . S
C2195 H2188 0.950 . S
C2195 C2192 1.387 . S
C2196 C2197 1.390 . S
C2196 H2200 0.968 . S
C2196 C2205 1.369 1_655 S
C2197 C2196 1.390 . S
C2197 C2199 1.384 1_655 S
H2198 C2205 0.950 . S
C2199 C2197 1.384 1_455 S
C2199 C2201 1.390 . S
C2199 H2203 0.950 . S
H2200 C2196 0.968 . S
C2201 C2199 1.390 . S
C2201 C2202 1.387 . S
C2201 H2204 0.950 . S
C2202 C2201 1.387 . S
C2202 C2205 1.387 . S
H2203 C2199 0.950 . S
H2204 C2201 0.950 . S
C2205 C2196 1.369 1_455 S
C2205 H2198 0.950 . S
C2205 C2202 1.387 . S
C2206 C2207 1.387 . S
C2206 H2210 0.950 . S
C2206 C2215 1.390 . S
C2207 C2206 1.387 . S
C2207 C2209 1.387 . S
H2208 C2215 0.950 . S
C2209 C2207 1.387 . S
C2209 C2211 1.390 . S
C2209 H2213 0.950 . S
H2210 C2206 0.950 . S
C2211 C2209 1.390 . S
C2211 C2212 1.387 . S
C2211 H2214 0.950 . S
C2212 C2211 1.387 . S
C2212 C2215 1.387 . S
H2213 C2209 0.950 . S
H2214 C2211 0.950 . S
C2215 C2206 1.390 . S
C2215 H2208 0.950 . S
C2215 C2212 1.387 . S
C2216 C2217 1.387 . S
C2216 H2220 0.950 . S
C2216 C2225 1.390 . S
C2217 C2216 1.387 . S
C2217 C2219 1.387 . S
H2218 C2225 0.950 . S
C2219 C2217 1.387 . S
C2219 C2221 1.390 . S
C2219 H2223 0.950 . S
H2220 C2216 0.950 . S
C2221 C2219 1.390 . S
C2221 C2222 1.387 . S
C2221 H2224 0.950 . S
C2222 C2221 1.387 . S
C2222 C2225 1.387 . S
H2223 C2219 0.950 . S
H2224 C2221 0.950 . S
C2225 C2216 1.390 . S
C2225 H2218 0.950 . S
C2225 C2222 1.387 . S
C2226 C2227 1.387 . S
C2226 H2230 0.950 . S
C2226 C2235 1.390 . S
C2227 C2226 1.387 . S
C2227 C2229 1.387 . S
H2228 C2235 0.950 . S
C2229 C2227 1.387 . S
C2229 C2231 1.390 . S
C2229 H2233 0.950 . S
H2230 C2226 0.950 . S
C2231 C2229 1.390 . S
C2231 C2232 1.387 . S
C2231 H2234 0.950 . S
C2232 C2231 1.387 . S
C2232 C2235 1.387 . S
H2233 C2229 0.950 . S
H2234 C2231 0.950 . S
C2235 C2226 1.390 . S
C2235 H2228 0.950 . S
C2235 C2232 1.387 . S
C2236 C2237 1.387 . S
C2236 H2240 0.950 . S
C2236 C2245 1.390 . S
C2237 C2236 1.387 . S
C2237 C2239 1.387 . S
H2238 C2245 0.950 . S
C2239 C2237 1.387 . S
C2239 C2241 1.390 . S
C2239 H2243 0.950 . S
H2240 C2236 0.950 . S
C2241 C2239 1.390 . S
C2241 C2242 1.387 . S
C2241 H2244 0.950 . S
C2242 C2241 1.387 . S
C2242 C2245 1.387 . S
H2243 C2239 0.950 . S
H2244 C2241 0.950 . S
C2245 C2236 1.390 . S
C2245 H2238 0.950 . S
C2245 C2242 1.387 . S
C2246 C2247 1.387 . S
C2246 H2250 0.950 . S
C2246 C2255 1.390 . S
C2247 C2246 1.387 . S
C2247 C2249 1.387 . S
H2248 C2255 0.950 . S
C2249 C2247 1.387 . S
C2249 C2251 1.390 . S
C2249 H2253 0.950 . S
H2250 C2246 0.950 . S
C2251 C2249 1.390 . S
C2251 C2252 1.387 . S
C2251 H2254 0.950 . S
C2252 C2251 1.387 . S
C2252 C2255 1.387 . S
H2253 C2249 0.950 . S
H2254 C2251 0.950 . S
C2255 C2246 1.390 . S
C2255 H2248 0.950 . S
C2255 C2252 1.387 . S
C2256 C2257 1.387 . S
C2256 H2260 0.950 . S
C2256 C2265 1.390 . S
C2257 C2256 1.387 . S
C2257 C2259 1.387 . S
H2258 C2265 0.950 . S
C2259 C2257 1.387 . S
C2259 C2261 1.390 . S
C2259 H2263 0.950 . S
H2260 C2256 0.950 . S
C2261 C2259 1.390 . S
C2261 C2262 1.387 . S
C2261 H2264 0.950 . S
C2262 C2261 1.387 . S
C2262 C2265 1.387 . S
H2263 C2259 0.950 . S
H2264 C2261 0.950 . S
C2265 C2256 1.390 . S
C2265 H2258 0.950 . S
C2265 C2262 1.387 . S
C2266 C2267 1.387 . S
C2266 H2270 0.950 . S
C2266 C2275 1.390 . S
C2267 C2266 1.387 . S
C2267 C2269 1.387 . S
H2268 C2275 0.950 . S
C2269 C2267 1.387 . S
C2269 C2271 1.390 . S
C2269 H2273 0.950 . S
H2270 C2266 0.950 . S
C2271 C2269 1.390 . S
C2271 C2272 1.387 . S
C2271 H2274 0.950 . S
C2272 C2271 1.387 . S
C2272 C2275 1.387 . S
H2273 C2269 0.950 . S
H2274 C2271 0.950 . S
C2275 C2266 1.390 . S
C2275 H2268 0.950 . S
C2275 C2272 1.387 . S
C2276 C2277 1.387 . S
C2276 H2280 0.950 . S
C2276 C2285 1.390 . S
C2277 C2276 1.387 . S
C2277 C2279 1.387 . S
H2278 C2285 0.950 . S
C2279 C2277 1.387 . S
C2279 C2281 1.390 . S
C2279 H2283 0.950 . S
H2280 C2276 0.950 . S
C2281 C2279 1.390 . S
C2281 C2282 1.387 . S
C2281 H2284 0.950 . S
C2282 C2281 1.387 . S
C2282 C2285 1.387 . S
H2283 C2279 0.950 . S
H2284 C2281 0.950 . S
C2285 C2276 1.390 . S
C2285 H2278 0.950 . S
C2285 C2282 1.387 . S
C2286 C2287 1.387 . S
C2286 H2290 0.950 . S
C2286 C2295 1.390 . S
C2287 C2286 1.387 . S
C2287 C2289 1.387 . S
H2288 C2295 0.950 . S
C2289 C2287 1.387 . S
C2289 C2291 1.390 . S
C2289 H2293 0.950 . S
H2290 C2286 0.950 . S
C2291 C2289 1.390 . S
C2291 C2292 1.387 . S
C2291 H2294 0.950 . S
C2292 C2291 1.387 . S
C2292 C2295 1.387 . S
H2293 C2289 0.950 . S
H2294 C2291 0.950 . S
C2295 C2286 1.390 . S
C2295 H2288 0.950 . S
C2295 C2292 1.387 . S
C2296 C2297 1.387 . S
C2296 H2300 0.950 . S
C2296 C2305 1.390 . S
C2297 C2296 1.387 . S
C2297 C2299 1.387 . S
H2298 C2305 0.950 . S
C2299 C2297 1.387 . S
C2299 C2301 1.390 . S
C2299 H2303 0.950 . S
H2300 C2296 0.950 . S
C2301 C2299 1.390 . S
C2301 C2302 1.387 . S
C2301 H2304 0.950 . S
C2302 C2301 1.387 . S
C2302 C2305 1.387 . S
H2303 C2299 0.950 . S
H2304 C2301 0.950 . S
C2305 C2296 1.390 . S
C2305 H2298 0.950 . S
C2305 C2302 1.387 . S
C2306 C2307 1.387 . S
C2306 H2310 0.950 . S
C2306 C2315 1.390 . S
C2307 C2306 1.387 . S
C2307 C2309 1.387 . S
H2308 C2315 0.950 . S
C2309 C2307 1.387 . S
C2309 C2311 1.390 . S
C2309 H2313 0.950 . S
H2310 C2306 0.950 . S
C2311 C2309 1.390 . S
C2311 C2312 1.387 . S
C2311 H2314 0.950 . S
C2312 C2311 1.387 . S
C2312 C2315 1.387 . S
H2313 C2309 0.950 . S
H2314 C2311 0.950 . S
C2315 C2306 1.390 . S
C2315 H2308 0.950 . S
C2315 C2312 1.387 . S
C2316 C2317 1.387 . S
C2316 H2320 0.950 . S
C2316 C2325 1.390 . S
C2317 C2316 1.387 . S
C2317 C2319 1.387 . S
H2318 C2325 0.950 . S
C2319 C2317 1.387 . S
C2319 C2321 1.390 . S
C2319 H2323 0.950 . S
H2320 C2316 0.950 . S
C2321 C2319 1.390 . S
C2321 C2322 1.387 . S
C2321 H2324 0.950 . S
C2322 C2321 1.387 . S
C2322 C2325 1.387 . S
H2323 C2319 0.950 . S
H2324 C2321 0.950 . S
C2325 C2316 1.390 . S
C2325 H2318 0.950 . S
C2325 C2322 1.387 . S
C2326 C2327 1.387 . S
C2326 H2330 0.950 . S
C2326 C2335 1.390 . S
C2327 C2326 1.387 . S
C2327 C2329 1.387 1_564 S
H2328 C2335 0.950 . S
C2329 C2327 1.387 1_546 S
C2329 C2331 1.390 . S
C2329 H2333 0.950 . S
H2330 C2326 0.950 . S
C2331 C2329 1.390 . S
C2331 C2332 1.387 1_556 S
C2331 H2334 0.950 . S
C2332 C2331 1.387 1_554 S
C2332 C2335 1.387 1_545 S
H2333 C2329 0.950 . S
H2334 C2331 0.950 . S
C2335 C2326 1.390 . S
C2335 H2328 0.950 . S
C2335 C2332 1.387 1_565 S
C2336 C2337 1.387 . S
C2336 H2340 0.950 . S
C2336 C2345 1.390 . S
C2337 C2336 1.387 . S
C2337 C2339 1.387 . S
H2338 C2345 0.950 . S
C2339 C2337 1.387 . S
C2339 C2341 1.390 . S
C2339 H2343 0.950 . S
H2340 C2336 0.950 . S
C2341 C2339 1.390 . S
C2341 C2342 1.387 . S
C2341 H2344 0.950 . S
C2342 C2341 1.387 . S
C2342 C2345 1.387 . S
H2343 C2339 0.950 . S
H2344 C2341 0.950 . S
C2345 C2336 1.390 . S
C2345 H2338 0.950 . S
C2345 C2342 1.387 . S
C2346 C2347 1.387 1_556 S
C2346 H2350 0.950 . S
C2346 C2355 1.390 . S
C2347 C2346 1.387 1_554 S
C2347 C2349 1.387 . S
H2348 C2355 0.950 . S
C2349 C2347 1.387 . S
C2349 C2351 1.390 . S
C2349 H2353 0.950 . S
H2350 C2346 0.950 . S
C2351 C2349 1.390 . S
C2351 C2352 1.387 . S
C2351 H2354 0.950 . S
C2352 C2351 1.387 . S
C2352 C2355 1.387 1_554 S
H2353 C2349 0.950 . S
H2354 C2351 0.950 . S
C2355 C2346 1.390 . S
C2355 H2348 0.950 . S
C2355 C2352 1.387 1_556 S
C2356 C2357 1.387 . S
C2356 H2360 0.950 . S
C2356 C2365 1.390 . S
C2357 C2356 1.387 . S
C2357 C2359 1.387 . S
H2358 C2365 0.950 . S
C2359 C2357 1.387 . S
C2359 C2361 1.390 . S
C2359 H2363 0.950 . S
H2360 C2356 0.950 . S
C2361 C2359 1.390 . S
C2361 C2362 1.387 . S
C2361 H2364 0.950 . S
C2362 C2361 1.387 . S
C2362 C2365 1.387 . S
H2363 C2359 0.950 . S
H2364 C2361 0.950 . S
C2365 C2356 1.390 . S
C2365 H2358 0.950 . S
C2365 C2362 1.387 . S
C2366 C2367 1.387 . S
C2366 H2370 0.950 . S
C2366 C2375 1.390 . S
C2367 C2366 1.387 . S
C2367 C2369 1.387 . S
H2368 C2375 0.950 . S
C2369 C2367 1.387 . S
C2369 C2371 1.390 . S
C2369 H2373 0.950 . S
H2370 C2366 0.950 . S
C2371 C2369 1.390 . S
C2371 C2372 1.387 . S
C2371 H2374 0.950 . S
C2372 C2371 1.387 . S
C2372 C2375 1.387 . S
H2373 C2369 0.950 . S
H2374 C2371 0.950 . S
C2375 C2366 1.390 . S
C2375 H2368 0.950 . S
C2375 C2372 1.387 . S
C2376 C2377 1.387 . S
C2376 H2380 0.950 . S
C2376 C2385 1.390 . S
C2377 C2376 1.387 . S
C2377 C2379 1.387 . S
H2378 C2385 0.950 . S
C2379 C2377 1.387 . S
C2379 C2381 1.390 . S
C2379 H2383 0.950 . S
H2380 C2376 0.950 . S
C2381 C2379 1.390 . S
C2381 C2382 1.387 . S
C2381 H2384 0.950 . S
C2382 C2381 1.387 . S
C2382 C2385 1.387 . S
H2383 C2379 0.950 . S
H2384 C2381 0.950 . S
C2385 C2376 1.390 . S
C2385 H2378 0.950 . S
C2385 C2382 1.387 . S
C2386 C2387 1.387 . S
C2386 H2390 0.950 . S
C2386 C2395 1.390 . S
C2387 C2386 1.387 . S
C2387 C2389 1.387 . S
H2388 C2395 0.950 . S
C2389 C2387 1.387 . S
C2389 C2391 1.390 . S
C2389 H2393 0.950 . S
H2390 C2386 0.950 . S
C2391 C2389 1.390 . S
C2391 C2392 1.387 . S
C2391 H2394 0.950 . S
C2392 C2391 1.387 . S
C2392 C2395 1.387 . S
H2393 C2389 0.950 . S
H2394 C2391 0.950 . S
C2395 C2386 1.390 . S
C2395 H2388 0.950 . S
C2395 C2392 1.387 . S
C2396 C2397 1.387 . S
C2396 H2400 0.950 . S
C2396 C2405 1.390 . S
C2397 C2396 1.387 . S
C2397 C2399 1.387 . S
H2398 C2405 0.950 . S
C2399 C2397 1.387 . S
C2399 C2401 1.390 . S
C2399 H2403 0.950 1_554 S
H2400 C2396 0.950 . S
C2401 C2399 1.390 . S
C2401 C2402 1.387 . S
C2401 H2404 0.950 1_554 S
C2402 C2401 1.387 . S
C2402 C2405 1.387 . S
H2403 C2399 0.950 1_556 S
H2404 C2401 0.950 1_556 S
C2405 C2396 1.390 . S
C2405 H2398 0.950 . S
C2405 C2402 1.387 . S
C2406 C2407 1.387 . S
C2406 H2410 0.950 . S
C2406 C2415 1.390 . S
C2407 C2406 1.387 . S
C2407 C2409 1.387 . S
H2408 C2415 0.950 . S
C2409 C2407 1.387 . S
C2409 C2411 1.390 . S
C2409 H2413 0.950 . S
H2410 C2406 0.950 . S
C2411 C2409 1.390 . S
C2411 C2412 1.387 . S
C2411 H2414 0.950 . S
C2412 C2411 1.387 . S
C2412 C2415 1.387 . S
H2413 C2409 0.950 . S
H2414 C2411 0.950 . S
C2415 C2406 1.390 . S
C2415 H2408 0.950 . S
C2415 C2412 1.387 . S
C2416 C2417 1.387 . S
C2416 H2420 0.950 . S
C2416 C2425 1.390 . S
C2417 C2416 1.387 . S
C2417 C2419 1.387 . S
H2418 C2425 0.950 1_554 S
C2419 C2417 1.387 . S
C2419 C2421 1.390 . S
C2419 H2423 0.950 . S
H2420 C2416 0.950 . S
C2421 C2419 1.390 . S
C2421 C2422 1.387 . S
C2421 H2424 0.950 . S
C2422 C2421 1.387 . S
C2422 C2425 1.387 . S
H2423 C2419 0.950 . S
H2424 C2421 0.950 . S
C2425 C2416 1.390 . S
C2425 H2418 0.950 1_556 S
C2425 C2422 1.387 . S
C2426 C2427 1.387 . S
C2426 H2430 0.950 . S
C2426 C2435 1.390 . S
C2427 C2426 1.387 . S
C2427 C2429 1.387 . S
H2428 C2435 0.950 . S
C2429 C2427 1.387 . S
C2429 C2431 1.390 . S
C2429 H2433 0.950 . S
H2430 C2426 0.950 . S
C2431 C2429 1.390 . S
C2431 C2432 1.387 . S
C2431 H2434 0.950 . S
C2432 C2431 1.387 . S
C2432 C2435 1.387 . S
H2433 C2429 0.950 . S
H2434 C2431 0.950 . S
C2435 C2426 1.390 . S
C2435 H2428 0.950 . S
C2435 C2432 1.387 . S
C2436 C2437 1.387 . S
C2436 H2440 0.950 . S
C2436 C2445 1.390 . S
C2437 C2436 1.387 . S
C2437 C2439 1.387 . S
H2438 C2445 0.950 . S
C2439 C2437 1.387 . S
C2439 C2441 1.390 . S
C2439 H2443 0.950 . S
H2440 C2436 0.950 . S
C2441 C2439 1.390 . S
C2441 C2442 1.387 . S
C2441 H2444 0.950 . S
C2442 C2441 1.387 . S
C2442 C2445 1.387 . S
H2443 C2439 0.950 . S
H2444 C2441 0.950 . S
C2445 C2436 1.390 . S
C2445 H2438 0.950 . S
C2445 C2442 1.387 . S
C2446 C2447 1.387 . S
C2446 H2450 0.950 . S
C2446 C2455 1.390 . S
C2447 C2446 1.387 . S
C2447 C2449 1.387 . S
H2448 C2455 0.950 . S
C2449 C2447 1.387 . S
C2449 C2451 1.390 . S
C2449 H2453 0.950 . S
H2450 C2446 0.950 . S
C2451 C2449 1.390 . S
C2451 C2452 1.387 . S
C2451 H2454 0.950 . S
C2452 C2451 1.387 . S
C2452 C2455 1.387 . S
H2453 C2449 0.950 . S
H2454 C2451 0.950 . S
C2455 C2446 1.390 . S
C2455 H2448 0.950 . S
C2455 C2452 1.387 . S
C2456 C2457 1.387 . S
C2456 H2460 0.950 . S
C2456 C2465 1.390 . S
C2457 C2456 1.387 . S
C2457 C2459 1.387 . S
H2458 C2465 0.950 . S
C2459 C2457 1.387 . S
C2459 C2461 1.390 . S
C2459 H2463 0.950 . S
H2460 C2456 0.950 . S
C2461 C2459 1.390 . S
C2461 C2462 1.387 . S
C2461 H2464 0.950 . S
C2462 C2461 1.387 . S
C2462 C2465 1.387 . S
H2463 C2459 0.950 . S
H2464 C2461 0.950 . S
C2465 C2456 1.390 . S
C2465 H2458 0.950 . S
C2465 C2462 1.387 . S
C2466 C2467 1.387 . S
C2466 H2470 0.950 . S
C2466 C2475 1.390 . S
C2467 C2466 1.387 . S
C2467 C2469 1.387 . S
H2468 C2475 0.950 . S
C2469 C2467 1.387 . S
C2469 C2471 1.390 . S
C2469 H2473 0.950 . S
H2470 C2466 0.950 . S
C2471 C2469 1.390 . S
C2471 C2472 1.387 . S
C2471 H2474 0.950 . S
C2472 C2471 1.387 . S
C2472 C2475 1.387 . S
H2473 C2469 0.950 . S
H2474 C2471 0.950 . S
C2475 C2466 1.390 . S
C2475 H2468 0.950 . S
C2475 C2472 1.387 . S
C2476 C2477 1.387 . S
C2476 H2480 0.950 . S
C2476 C2485 1.390 1_655 S
C2477 C2476 1.387 . S
C2477 C2479 1.387 . S
H2478 C2485 0.950 . S
C2479 C2477 1.387 . S
C2479 C2481 1.390 1_655 S
C2479 H2483 0.950 . S
H2480 C2476 0.950 . S
C2481 C2479 1.390 1_455 S
C2481 C2482 1.387 . S
C2481 H2484 0.950 . S
C2482 C2481 1.387 . S
C2482 C2485 1.387 . S
H2483 C2479 0.950 . S
H2484 C2481 0.950 . S
C2485 C2476 1.390 1_455 S
C2485 H2478 0.950 . S
C2485 C2482 1.387 . S
C2486 C2487 1.387 . S
C2486 H2490 0.950 . S
C2486 C2495 1.390 . S
C2487 C2486 1.387 . S
C2487 C2489 1.387 . S
H2488 C2495 0.950 . S
C2489 C2487 1.387 . S
C2489 C2491 1.390 . S
C2489 H2493 0.950 . S
H2490 C2486 0.950 . S
C2491 C2489 1.390 . S
C2491 C2492 1.387 . S
C2491 H2494 0.950 . S
C2492 C2491 1.387 . S
C2492 C2495 1.387 . S
H2493 C2489 0.950 . S
H2494 C2491 0.950 . S
C2495 C2486 1.390 . S
C2495 H2488 0.950 . S
C2495 C2492 1.387 . S
C2496 C2497 1.387 . S
C2496 H2500 0.950 . S
C2496 C2505 1.390 . S
C2497 C2496 1.387 . S
C2497 C2499 1.387 . S
H2498 C2505 0.950 . S
C2499 C2497 1.387 . S
C2499 C2501 1.390 . S
C2499 H2503 0.950 . S
H2500 C2496 0.950 . S
C2501 C2499 1.390 . S
C2501 C2502 1.387 . S
C2501 H2504 0.950 . S
C2502 C2501 1.387 . S
C2502 C2505 1.387 . S
H2503 C2499 0.950 . S
H2504 C2501 0.950 . S
C2505 C2496 1.390 . S
C2505 H2498 0.950 . S
C2505 C2502 1.387 . S
C2506 C2507 1.387 . S
C2506 H2510 0.950 . S
C2506 C2515 1.390 . S
C2507 C2506 1.387 . S
C2507 C2509 1.387 . S
H2508 C2515 0.950 . S
C2509 C2507 1.387 . S
C2509 C2511 1.390 . S
C2509 H2513 0.950 . S
H2510 C2506 0.950 . S
C2511 C2509 1.390 . S
C2511 C2512 1.387 . S
C2511 H2514 0.950 . S
C2512 C2511 1.387 . S
C2512 C2515 1.387 . S
H2513 C2509 0.950 . S
H2514 C2511 0.950 . S
C2515 C2506 1.390 . S
C2515 H2508 0.950 . S
C2515 C2512 1.387 . S
C2516 C2517 1.387 . S
C2516 H2520 0.950 . S
C2516 C2525 1.390 . S
C2517 C2516 1.387 . S
C2517 C2519 1.387 . S
H2518 C2525 0.950 1_455 S
C2519 C2517 1.387 . S
C2519 C2521 1.390 . S
C2519 H2523 0.950 . S
H2520 C2516 0.950 . S
C2521 C2519 1.390 . S
C2521 C2522 1.387 . S
C2521 H2524 0.950 . S
C2522 C2521 1.387 . S
C2522 C2525 1.387 . S
H2523 C2519 0.950 . S
H2524 C2521 0.950 . S
C2525 C2516 1.390 . S
C2525 H2518 0.950 1_655 S
C2525 C2522 1.387 . S
C2526 C2527 1.387 . S
C2526 H2530 0.950 . S
C2526 C2535 1.390 . S
C2527 C2526 1.387 . S
C2527 C2529 1.387 . S
H2528 C2535 0.950 . S
C2529 C2527 1.387 . S
C2529 C2531 1.390 . S
C2529 H2533 0.950 . S
H2530 C2526 0.950 . S
C2531 C2529 1.390 . S
C2531 C2532 1.387 . S
C2531 H2534 0.950 . S
C2532 C2531 1.387 . S
C2532 C2535 1.387 . S
H2533 C2529 0.950 . S
H2534 C2531 0.950 . S
C2535 C2526 1.390 . S
C2535 H2528 0.950 . S
C2535 C2532 1.387 . S
C2536 C2537 1.387 . S
C2536 H2540 0.950 . S
C2536 C2545 1.390 . S
C2537 C2536 1.387 . S
C2537 C2539 1.387 . S
H2538 C2545 0.950 . S
C2539 C2537 1.387 . S
C2539 C2541 1.390 . S
C2539 H2543 0.950 . S
H2540 C2536 0.950 . S
C2541 C2539 1.390 . S
C2541 C2542 1.387 . S
C2541 H2544 0.950 . S
C2542 C2541 1.387 . S
C2542 C2545 1.387 . S
H2543 C2539 0.950 . S
H2544 C2541 0.950 . S
C2545 C2536 1.390 . S
C2545 H2538 0.950 . S
C2545 C2542 1.387 . S
C2546 C2547 1.387 . S
C2546 H2550 0.950 . S
C2546 C2555 1.390 . S
C2547 C2546 1.387 . S
C2547 C2549 1.387 . S
H2548 C2555 0.950 . S
C2549 C2547 1.387 . S
C2549 C2551 1.390 . S
C2549 H2553 0.950 . S
H2550 C2546 0.950 . S
C2551 C2549 1.390 . S
C2551 C2552 1.387 . S
C2551 H2554 0.950 . S
C2552 C2551 1.387 . S
C2552 C2555 1.387 . S
H2553 C2549 0.950 . S
H2554 C2551 0.950 . S
C2555 C2546 1.390 . S
C2555 H2548 0.950 . S
C2555 C2552 1.387 . S
C2556 C2557 1.387 . S
C2556 H2560 0.950 . S
C2556 C2565 1.390 . S
C2557 C2556 1.387 . S
C2557 C2559 1.387 . S
H2558 C2565 0.950 . S
C2559 C2557 1.387 . S
C2559 C2561 1.390 . S
C2559 H2563 0.950 . S
H2560 C2556 0.950 . S
C2561 C2559 1.390 . S
C2561 C2562 1.387 . S
C2561 H2564 0.950 . S
C2562 C2561 1.387 . S
C2562 C2565 1.387 . S
H2563 C2559 0.950 . S
H2564 C2561 0.950 . S
C2565 C2556 1.390 . S
C2565 H2558 0.950 . S
C2565 C2562 1.387 . S
C2566 C2567 1.387 . S
C2566 H2570 0.950 1_554 S
C2566 C2575 1.390 . S
C2567 C2566 1.387 . S
C2567 C2569 1.387 . S
H2568 C2575 0.950 1_556 S
C2569 C2567 1.387 . S
C2569 C2571 1.390 . S
C2569 H2573 0.950 . S
H2570 C2566 0.950 1_556 S
C2571 C2569 1.390 . S
C2571 C2572 1.387 . S
C2571 H2574 0.950 . S
C2572 C2571 1.387 . S
C2572 C2575 1.387 . S
H2573 C2569 0.950 . S
H2574 C2571 0.950 . S
C2575 C2566 1.390 . S
C2575 H2568 0.950 1_554 S
C2575 C2572 1.387 . S
C2576 C2577 1.387 . S
C2576 H2580 0.950 . S
C2576 C2585 1.390 . S
C2577 C2576 1.387 . S
C2577 C2579 1.387 . S
H2578 C2585 0.950 . S
C2579 C2577 1.387 . S
C2579 C2581 1.390 . S
C2579 H2583 0.950 . S
H2580 C2576 0.950 . S
C2581 C2579 1.390 . S
C2581 C2582 1.387 . S
C2581 H2584 0.950 . S
C2582 C2581 1.387 . S
C2582 C2585 1.387 . S
H2583 C2579 0.950 . S
H2584 C2581 0.950 . S
C2585 C2576 1.390 . S
C2585 H2578 0.950 . S
C2585 C2582 1.387 . S
C2586 C2587 1.387 1_556 S
C2586 H2590 0.950 . S
C2586 C2595 1.390 . S
C2587 C2586 1.387 1_554 S
C2587 C2589 1.387 . S
H2588 C2595 0.950 . S
C2589 C2587 1.387 . S
C2589 C2591 1.390 . S
C2589 H2593 0.950 . S
H2590 C2586 0.950 . S
C2591 C2589 1.390 . S
C2591 C2592 1.389 . S
C2591 H2594 0.950 . S
C2592 C2591 1.389 . S
C2592 C2595 1.387 1_554 S
H2593 C2589 0.950 . S
H2594 C2591 0.950 . S
C2595 C2586 1.390 . S
C2595 H2588 0.950 . S
C2595 C2592 1.387 1_556 S
C2596 C2597 1.387 . S
C2596 H2600 0.950 . S
C2596 C2605 1.390 . S
C2597 C2596 1.387 . S
C2597 C2599 1.387 . S
H2598 C2605 0.950 . S
C2599 C2597 1.387 . S
C2599 C2601 1.390 . S
C2599 H2603 0.950 . S
H2600 C2596 0.950 . S
C2601 C2599 1.390 . S
C2601 C2602 1.387 . S
C2601 H2604 0.950 . S
C2602 C2601 1.387 . S
C2602 C2605 1.387 . S
H2603 C2599 0.950 . S
H2604 C2601 0.950 . S
C2605 C2596 1.390 . S
C2605 H2598 0.950 . S
C2605 C2602 1.387 . S
C2606 C2607 1.387 . S
C2606 H2610 0.950 . S
C2606 C2615 1.390 . S
C2607 C2606 1.387 . S
C2607 C2609 1.387 . S
H2608 C2615 0.950 . S
C2609 C2607 1.387 . S
C2609 C2611 1.390 . S
C2609 H2613 0.950 . S
H2610 C2606 0.950 . S
C2611 C2609 1.390 . S
C2611 C2612 1.387 . S
C2611 H2614 0.950 . S
C2612 C2611 1.387 . S
C2612 C2615 1.387 . S
H2613 C2609 0.950 . S
H2614 C2611 0.950 . S
C2615 C2606 1.390 . S
C2615 H2608 0.950 . S
C2615 C2612 1.387 . S
C1657 C101 2.085 . S
C1662 C379 1.978 . S
C1667 C57 2.194 . S
C1672 C462 2.184 . S
C1677 C73 1.774 . S
C1682 C547 1.824 . S
C1692 C627 1.327 . S
C1687 C78 1.392 . S
C1697 C21 1.491 . S
C1702 C711 1.584 . S
C1712 C804 1.033 . S
C1707 C31 1.091 . S
C1722 C882 1.357 . S
C1717 C49 1.236 . S
C1727 C0 1.582 . S
C1732 C967 1.495 . S
C1742 C378 2.100 . S
C1737 C218 2.208 1_455 S
C1747 C229 0.836 . S
C1752 C459 0.818 . S
C1762 C546 1.170 . S
C1757 C257 1.202 . S
C1772 C631 1.702 . S
C1767 C164 1.677 . S
C1777 C216 2.056 1_455 S
C1782 C715 2.027 . S
C1792 C807 1.210 . S
C1787 C231 1.297 . S
C1802 C879 0.831 . S
C1797 C255 0.872 . S
C1812 C966 1.677 . S
C1807 C166 1.858 . S
C1822 C375 1.399 . S
C1817 C143 1.353 . S
C1827 C265 1.886 . S
C1832 C1050 1.852 1_556 S
C1842 C1124 2.224 . S
C1837 C299 2.397 . S
C1852 C1219 0.785 . S
C1847 C291 0.778 . S
C1857 C104 1.117 . S
C1862 C963 1.311 . S
C1867 C117 1.405 . S
C1872 C543 1.516 . S
C1877 C304 2.087 . S
C1882 C1302 2.059 . S
C1892 C1387 0.728 . S
C1887 C278 0.720 . S
C1902 C368 1.922 . S
C1897 C60 2.072 . S
C1912 C1395 2.130 . S
C1907 C96 2.198 . S
C1917 C88 1.788 . S
C1922 C536 1.729 . S
C1927 C65 1.367 . S
C1932 C1308 1.273 . S
C1942 C720 1.559 . S
C1937 C10 1.525 . S
C1947 C44 1.034 . S
C1952 C1131 1.007 . S
C1962 C891 1.245 . S
C1957 C34 1.026 . S
C1972 C1460 1.459 . S
C1967 C13 1.786 . S
C1982 C387 2.047 . S
C1977 C138 2.125 . S
C1992 C1392 0.802 . S
C1987 C296 0.804 . S
C1997 C112 1.192 . S
C2002 C555 1.141 . S
C2007 C270 1.703 . S
C2012 C1292 1.626 . S
C2017 C140 2.129 . S
C2022 C704 1.963 . S
C2032 C1134 1.170 . S
C2027 C294 1.289 . S
C2037 C114 0.817 . S
C2042 C888 0.786 1_545 S
C2047 C268 1.827 . S
C2052 C1479 1.626 . S
C2057 C169 1.424 . S
C2062 C384 1.390 1_554 S
C2067 C161 1.861 . S
C2072 C1059 1.804 . S
C2077 C234 2.381 . S
C2082 C799 2.178 . S
C2087 C226 0.683 . S
C2092 C1208 0.663 . S
C2102 C1476 1.485 . S
C2097 C247 1.441 1_565 S
C2107 C195 1.549 . S
C2112 C552 1.534 . S
C2122 C639 2.002 . S
C2117 C239 2.040 . S
C2132 C452 0.714 . S
C2127 C187 0.682 . S
C2137 C75 2.084 . S
C2142 C1555 1.975 . S
C2152 C1386 2.185 . S
C2147 C83 2.194 . S
C2157 C99 1.775 . S
C2162 C1639 1.823 . S
C2167 C52 1.393 . S
C2172 C1299 1.326 . S
C2177 C47 1.488 . S
C2182 C1047 1.586 . S
C2192 C1140 1.034 1_455 S
C2187 C5 1.093 . S
C2202 C1218 1.357 . S
C2197 C23 1.237 . S
C2212 C1471 1.495 . S
C2207 C26 1.583 . S
C2222 C1554 2.100 . S
C2217 C244 2.208 . S
C2227 C177 0.836 . S
C2232 C1383 0.817 . S
C2242 C1638 1.171 . S
C2237 C192 1.205 . S
C2252 C1303 1.704 . S
C2247 C203 1.676 . S
C2262 C1051 2.029 . S
C2257 C242 2.055 . S
C2267 C179 1.299 . S
C2272 C1143 1.215 . S
C2282 C1215 0.825 . S
C2277 C190 0.870 . S
C2287 C205 1.858 . S
C2292 C1470 1.677 . S
C2302 C1551 1.399 . S
C2297 C286 1.350 . S
C2307 C122 1.884 . S
C2312 C714 1.853 . S
C2322 C788 2.227 . S
C2317 C130 2.401 . S
C2332 C883 0.785 . S
C2327 C148 0.778 . S
C2342 C1467 1.311 . S
C2337 C273 1.118 . S
C2347 C260 1.404 . S
C2352 C1635 1.514 . S
C2362 C630 2.058 . S
C2357 C135 2.081 . S
C2372 C463 0.731 . S
C2367 C109 0.719 . S
C2377 C86 2.072 . S
C2382 C1544 1.920 . S
C2392 C471 2.130 . S
C2387 C70 2.198 . S
C2397 C62 1.789 . S
C2402 C1628 1.727 . S
C2407 C91 1.366 . S
C2412 C636 1.270 . S
C2417 C36 1.525 . S
C2422 C1056 1.559 . S
C2432 C795 1.013 . S
C2427 C18 1.034 . S
C2437 C8 1.018 . S
C2442 C1227 1.245 . S
C2447 C39 1.784 . S
C2452 C956 1.464 . S
C2462 C1563 2.046 . S
C2457 C307 2.117 . S
C2467 C153 0.804 . S
C2472 C468 0.802 . S
C2482 C1647 1.141 . S
C2477 C281 1.192 . S
C2487 C127 1.704 . S
C2492 C620 1.628 . S
C2497 C309 2.128 . S
C2502 C1040 1.963 . S
C2512 C798 1.175 . S
C2507 C151 1.290 . S
C2517 C283 0.817 . S
C2522 C1224 0.793 1_655 S
C2532 C975 1.624 . S
C2527 C125 1.827 . S
C2542 C1560 1.386 . S
C2537 C221 1.422 . S
C2552 C723 1.804 1_665 S
C2547 C200 1.860 . S
C2557 C208 2.381 . S
C2562 C1135 2.178 . S
C2572 C872 0.670 . S
C2567 C174 0.680 . S
C2577 C182 1.440 . S
C2582 C972 1.485 . S
C2587 C156 1.550 . S
C2592 C1644 1.534 1_554 S
C2602 C1311 2.002 . S
C2597 C213 2.046 . S
C2612 C1376 0.714 . S
C2607 C252 0.683 . S
