# Generated by pormake.
# Topology pth, (4,4)-cn, num edge types: 1
# Building blocks:
#     Node 0, Type 0, BuildingBlock: CEKHIL_clean_sbu_0, # of connection points: 4
#     Node 1, Type 0, BuildingBlock: CEKHIL_clean_sbu_0, # of connection points: 4
#     Node 2, Type 0, BuildingBlock: CEKHIL_clean_sbu_0, # of connection points: 4
#     Node 3, Type 1, BuildingBlock: NAWXER_clean_sbu_0, # of connection points: 4
#     Node 4, Type 1, BuildingBlock: NAWXER_clean_sbu_0, # of connection points: 4
#     Node 5, Type 1, BuildingBlock: NAWXER_clean_sbu_0, # of connection points: 4
#     Edge 6, Type (0, 1), BuildingBlock: UVAHIK_clean_linker_0, # of connection points: 2
#     Edge 7, Type (0, 1), BuildingBlock: UVAHIK_clean_linker_0, # of connection points: 2
#     Edge 8, Type (0, 1), BuildingBlock: UVAHIK_clean_linker_0, # of connection points: 2
#     Edge 9, Type (0, 1), BuildingBlock: UVAHIK_clean_linker_0, # of connection points: 2
#     Edge 10, Type (0, 1), BuildingBlock: UVAHIK_clean_linker_0, # of connection points: 2
#     Edge 11, Type (0, 1), BuildingBlock: UVAHIK_clean_linker_0, # of connection points: 2
#     Edge 12, Type (0, 1), BuildingBlock: UVAHIK_clean_linker_0, # of connection points: 2
#     Edge 13, Type (0, 1), BuildingBlock: UVAHIK_clean_linker_0, # of connection points: 2
#     Edge 14, Type (0, 1), BuildingBlock: UVAHIK_clean_linker_0, # of connection points: 2
#     Edge 15, Type (0, 1), BuildingBlock: UVAHIK_clean_linker_0, # of connection points: 2
#     Edge 16, Type (0, 1), BuildingBlock: UVAHIK_clean_linker_0, # of connection points: 2
#     Edge 17, Type (0, 1), BuildingBlock: UVAHIK_clean_linker_0, # of connection points: 2
# Relax obj value: 0.003
# Max RMSD: 0.042
# Mean RMSD: 0.026
data_MOF--net-pth--node1-CEKHIL_clean_sbu_0--node2-NAWXER_clean_sbu_0--edge1-UVAHIK_clean_linker_0
_symmetry_space_group_name_H-M    P1
_symmetry_Int_Tables_number       1
_symmetry_cell_setting            triclinic
loop_
_symmetry_equiv_pos_as_xyz
'x, y, z'
_cell_length_a     29.395736
_cell_length_b     29.467244
_cell_length_c     74.60896
_cell_angle_alpha  90.767588
_cell_angle_beta   90.04029
_cell_angle_gamma 120.35892
loop_
_atom_site_label
_atom_site_type_symbol
_atom_site_fract_x
_atom_site_fract_y
_atom_site_fract_z
_atom_type_partial_charge
Co0 Co 0.03208 0.04189 0.08308 0.0
O1 O 0.00904 0.98744 0.10062 0.0
O2 O 0.0803 0.01514 0.08398 0.0
C3 C 0.02214 0.09935 0.10062 0.0
O4 O 0.06976 0.09847 0.06422 0.0
Co5 Co 0.95713 0.07838 0.06863 0.0
O6 O 0.02202 0.1366 0.05807 0.0
C7 C 0.94259 0.9756 0.05696 0.0
C8 C 0.05012 0.9841 0.09645 0.0
C9 C 0.06405 0.13437 0.05663 0.0
O10 O 0.98717 0.98751 0.06418 0.0
O11 O 0.9219 0.00465 0.05859 0.0
O12 O 0.06444 0.09599 0.10183 0.0
O13 O 0.98579 0.06531 0.09002 0.0
Co14 Co 0.02119 0.05576 0.40349 0.0
O15 O 0.98806 0.07905 0.38649 0.0
O16 O 0.05639 0.1318 0.40371 0.0
C17 C 0.02432 0.99709 0.38436 0.0
O18 O 0.06868 0.04844 0.42185 0.0
Co19 Co 0.97158 0.94041 0.41597 0.0
O20 O 0.04213 0.96353 0.42635 0.0
C21 C 0.93118 0.00831 0.42991 0.0
C22 C 0.0238 0.12675 0.39101 0.0
C23 C 0.07538 0.01228 0.42866 0.0
O24 O 0.9697 0.04955 0.42277 0.0
O25 O 0.92364 0.9619 0.42742 0.0
O26 O 0.06059 0.0465 0.38395 0.0
O27 O 0.98686 0.98539 0.39559 0.0
Co28 Co 0.01734 0.04132 0.73734 0.0
O29 O 0.07448 0.06792 0.72054 0.0
O30 O 0.04452 0.99368 0.73534 0.0
C31 C 0.9623 0.05461 0.7199 0.0
O32 O 0.9581 0.99983 0.75515 0.0
Co33 Co 0.97741 0.11206 0.75348 0.0
O34 O 0.91799 0.04522 0.76236 0.0
C35 C 0.0774 0.12287 0.76676 0.0
C36 C 0.07741 0.02627 0.72373 0.0
C37 C 0.92086 0.00354 0.76288 0.0
O38 O 0.06887 0.08221 0.75741 0.0
O39 O 0.04752 0.14279 0.76602 0.0
O40 O 0.96595 0.01274 0.71772 0.0
O41 O 0.99458 0.08869 0.73148 0.0
C42 C 0.01195 0.60636 0.26288 0.0
C43 C 0.00596 0.4788 0.21846 0.0
O44 O 0.05714 0.61375 0.25829 0.0
Zn45 Zn 0.09081 0.57988 0.24152 0.0
O46 O 0.97033 0.56722 0.25636 0.0
Zn47 Zn 0.00527 0.54011 0.24093 0.0
O48 O 0.03763 0.51038 0.25968 0.0
O49 O 0.12449 0.5562 0.25891 0.0
O50 O 0.96606 0.47929 0.22489 0.0
O51 O 0.05237 0.51366 0.22373 0.0
O52 O 0.13071 0.63725 0.22466 0.0
O53 O 0.04447 0.60188 0.22227 0.0
C54 C 0.08232 0.51873 0.26542 0.0
C55 C 0.09097 0.63576 0.21717 0.0
C56 C 0.59714 0.09078 0.60197 0.0
C57 C 0.47442 0.08724 0.55615 0.0
O58 O 0.56249 0.045 0.59618 0.0
Zn59 Zn 0.49808 0.00787 0.57797 0.0
O60 O 0.59734 0.13113 0.59592 0.0
Zn61 Zn 0.53732 0.09314 0.57928 0.0
O62 O 0.47345 0.05267 0.59731 0.0
O63 O 0.43882 0.96691 0.59398 0.0
O64 O 0.51114 0.1286 0.56377 0.0
O65 O 0.46717 0.04221 0.56056 0.0
O66 O 0.52354 0.97487 0.56104 0.0
O67 O 0.56847 0.06162 0.56021 0.0
C68 C 0.43923 0.00577 0.60182 0.0
C69 C 0.56067 0.01705 0.55445 0.0
C70 C 0.45852 0.49249 0.93399 0.0
C71 C 0.57356 0.60815 0.88687 0.0
O72 O 0.45668 0.53061 0.9269 0.0
Zn73 Zn 0.51508 0.55129 0.91059 0.0
O74 O 0.49361 0.48158 0.92881 0.0
Zn75 Zn 0.55722 0.5094 0.90985 0.0
O76 O 0.61868 0.53248 0.92552 0.0
O77 O 0.58009 0.5797 0.92877 0.0
O78 O 0.58448 0.5729 0.89143 0.0
O79 O 0.53597 0.61004 0.89459 0.0
O80 O 0.48332 0.48476 0.89288 0.0
O81 O 0.53274 0.44814 0.89383 0.0
C82 C 0.61627 0.56989 0.93331 0.0
C83 C 0.4926 0.44864 0.88766 0.0
C84 C 0.96661 0.13623 0.11157 0.0
C85 C 0.0159 0.13933 0.11073 0.0
C86 C 0.9604 0.17309 0.12168 0.0
C87 C 0.03501 0.30691 0.14086 0.0
H88 H 0.92213 0.25951 0.17547 0.0
C89 C 0.04613 0.43875 0.19926 0.0
C90 C 1.00062 0.43892 0.20496 0.0
C91 C 0.04299 0.40246 0.18646 0.0
C92 C 0.95328 0.27349 0.16565 0.0
H93 H 0.09743 0.1838 0.11959 0.0
H94 H 0.08678 0.24844 0.13703 0.0
H95 H 0.92625 0.19567 0.15519 0.0
H96 H 0.91577 0.40038 0.20168 0.0
H97 H 0.91026 0.33653 0.179 0.0
H98 H 0.06241 0.38446 0.15124 0.0
C99 C 0.05293 0.21755 0.12988 0.0
C100 C 0.95571 0.23692 0.15407 0.0
C101 C 0.05898 0.18039 0.11997 0.0
C102 C 0.95155 0.40132 0.19757 0.0
C103 C 0.94841 0.36471 0.18463 0.0
C104 C 0.03238 0.34338 0.15228 0.0
C105 C 0.00354 0.21417 0.13093 0.0
C106 C 0.99742 0.25316 0.14189 0.0
C107 C 0.99429 0.36523 0.17884 0.0
C108 C 0.99239 0.327 0.16518 0.0
H109 H 0.93265 0.10494 0.1046 0.0
H110 H 0.92198 0.16971 0.12217 0.0
H111 H 0.06697 0.32071 0.13135 0.0
H112 H 0.08462 0.4667 0.20472 0.0
H113 H 0.07896 0.40325 0.1827 0.0
C114 C 0.89684 0.06181 0.44554 0.0
C115 C 0.89313 0.01314 0.44178 0.0
C116 C 0.86014 0.06464 0.45686 0.0
C117 C 0.72627 0.98115 0.47565 0.0
H118 H 0.77323 0.08929 0.51269 0.0
C119 C 0.59339 0.96917 0.53489 0.0
C120 C 0.59608 0.01621 0.54046 0.0
C121 C 0.62874 0.96987 0.52213 0.0
C122 C 0.75932 0.05915 0.50228 0.0
H123 H 0.84773 0.92933 0.44722 0.0
H124 H 0.7852 0.93458 0.46678 0.0
H125 H 0.83675 0.09059 0.49135 0.0
H126 H 0.63741 0.10075 0.53665 0.0
H127 H 0.69806 0.10171 0.51443 0.0
H128 H 0.64899 0.94939 0.48665 0.0
C129 C 0.81563 0.97046 0.46081 0.0
C130 C 0.79577 0.06003 0.49002 0.0
C131 C 0.85201 0.96763 0.44962 0.0
C132 C 0.63432 0.06372 0.5328 0.0
C133 C 0.66945 0.0644 0.5201 0.0
C134 C 0.68988 0.98026 0.48789 0.0
C135 C 0.81896 0.01882 0.46454 0.0
C136 C 0.77977 0.02068 0.47669 0.0
C137 C 0.66745 0.01762 0.51469 0.0
C138 C 0.70601 0.01899 0.50146 0.0
H139 H 0.92793 0.09761 0.43975 0.0
H140 H 0.86363 0.10253 0.45943 0.0
H141 H 0.71244 0.95072 0.46535 0.0
H142 H 0.56453 0.93196 0.54055 0.0
H143 H 0.62643 0.93314 0.51836 0.0
C144 C 0.8859 0.91445 0.77667 0.0
C145 C 0.8812 0.95894 0.77366 0.0
C146 C 0.85037 0.87431 0.78783 0.0
C147 C 0.71885 0.81918 0.80906 0.0
H148 H 0.77657 0.7633 0.84324 0.0
C149 C 0.59798 0.68843 0.8685 0.0
C150 C 0.60561 0.64649 0.87291 0.0
C151 C 0.62986 0.72521 0.85571 0.0
C152 C 0.7596 0.77793 0.83364 0.0
H153 H 0.83421 0.99506 0.77971 0.0
H154 H 0.77286 0.9255 0.79916 0.0
H155 H 0.83464 0.82832 0.8218 0.0
H156 H 0.65208 0.60977 0.86696 0.0
H157 H 0.70679 0.67311 0.84464 0.0
H158 H 0.64377 0.76887 0.821 0.0
C159 C 0.80373 0.92138 0.79281 0.0
C160 C 0.79297 0.81522 0.82131 0.0
C161 C 0.83925 0.96152 0.78171 0.0
C162 C 0.64525 0.64176 0.86403 0.0
C163 C 0.67695 0.67834 0.85127 0.0
C164 C 0.68541 0.78177 0.82139 0.0
C165 C 0.80917 0.87755 0.7962 0.0
C166 C 0.77308 0.83643 0.80888 0.0
C167 C 0.67006 0.72083 0.84704 0.0
C168 C 0.70537 0.76069 0.83386 0.0
H169 H 0.91755 0.91097 0.77067 0.0
H170 H 0.85527 0.84073 0.78995 0.0
H171 H 0.70209 0.83423 0.79954 0.0
H172 H 0.56786 0.69329 0.8751 0.0
H173 H 0.62375 0.75771 0.85289 0.0
C174 C 0.02183 0.90521 0.11534 0.0
C175 C 0.06189 0.94727 0.10586 0.0
C176 C 0.03256 0.87134 0.12496 0.0
C177 C 0.135 0.86389 0.14945 0.0
H178 H 0.03845 0.71351 0.1455 0.0
C179 C 0.14565 0.71111 0.19622 0.0
C180 C 0.09636 0.67227 0.20268 0.0
C181 C 0.14863 0.74492 0.18254 0.0
C182 C 0.06575 0.7554 0.14684 0.0
H183 H 0.14476 0.98695 0.09906 0.0
H184 H 0.16387 0.92796 0.11636 0.0
H185 H 0.0299 0.77224 0.12491 0.0
H186 H 0.01171 0.63916 0.19985 0.0
H187 H 0.01702 0.6976 0.17661 0.0
H188 H 0.1692 0.84709 0.17201 0.0
C189 C 0.12406 0.92118 0.11612 0.0
C190 C 0.06091 0.78898 0.13498 0.0
C191 C 0.11306 0.95465 0.10616 0.0
C192 C 0.05047 0.66819 0.1952 0.0
C193 C 0.05344 0.7016 0.18168 0.0
C194 C 0.13956 0.83018 0.1615 0.0
C195 C 0.0838 0.87913 0.12558 0.0
C196 C 0.09447 0.84364 0.13647 0.0
C197 C 0.10238 0.74022 0.17504 0.0
C198 C 0.10383 0.77563 0.16068 0.0
H199 H 0.98203 0.89848 0.11538 0.0
H200 H 0.00087 0.83959 0.13227 0.0
H201 H 0.16133 0.90594 0.15091 0.0
H202 H 0.18174 0.71537 0.20171 0.0
H203 H 0.18699 0.77431 0.17773 0.0
C204 C 0.13045 0.98853 0.44764 0.0
C205 C 0.12171 0.02748 0.44054 0.0
C206 C 0.17126 0.00173 0.45991 0.0
C207 C 0.29691 0.10979 0.47812 0.0
H208 H 0.26025 0.01566 0.51828 0.0
C209 C 0.43959 0.1357 0.53804 0.0
C210 C 0.4388 0.08897 0.54239 0.0
C211 C 0.40302 0.1347 0.52562 0.0
C212 C 0.27121 0.04231 0.50713 0.0
H213 H 0.15079 0.11143 0.44039 0.0
H214 H 0.22225 0.1344 0.46198 0.0
H215 H 0.19296 0.00152 0.49636 0.0
H216 H 0.40031 0.00508 0.53646 0.0
H217 H 0.33772 0.00365 0.51515 0.0
H218 H 0.37575 0.15007 0.489 0.0
C219 C 0.19729 0.0936 0.45794 0.0
C220 C 0.23267 0.03409 0.49453 0.0
C221 C 0.15622 0.08036 0.4456 0.0
C222 C 0.40185 0.04183 0.5337 0.0
C223 C 0.36562 0.04086 0.52148 0.0
C224 C 0.33576 0.11808 0.49084 0.0
C225 C 0.20454 0.05423 0.4655 0.0
C226 C 0.24524 0.0668 0.47961 0.0
C227 C 0.36501 0.08692 0.5175 0.0
C228 C 0.32349 0.08347 0.50521 0.0
H229 H 0.10521 0.94749 0.44394 0.0
H230 H 0.17651 0.97056 0.46516 0.0
H231 H 0.30779 0.13574 0.46679 0.0
H232 H 0.46767 0.17267 0.54444 0.0
H233 H 0.4035 0.17087 0.52274 0.0
C234 C 0.12622 0.18414 0.79235 0.0
C235 C 0.12303 0.14757 0.77938 0.0
C236 C 0.16837 0.20756 0.80443 0.0
C237 C 0.30604 0.24567 0.81119 0.0
H238 H 0.27475 0.26321 0.86043 0.0
C239 C 0.46493 0.37037 0.86675 0.0
C240 C 0.45437 0.40697 0.87525 0.0
C241 C 0.42712 0.33104 0.8553 0.0
C242 C 0.28416 0.25838 0.84675 0.0
H243 H 0.16241 0.10747 0.76886 0.0
H244 H 0.23696 0.14932 0.79005 0.0
H245 H 0.20301 0.20749 0.83983 0.0
H246 H 0.3958 0.43075 0.87834 0.0
H247 H 0.33076 0.36274 0.85877 0.0
H248 H 0.3874 0.29847 0.81814 0.0
C249 C 0.20629 0.15937 0.79079 0.0
C250 C 0.24311 0.22658 0.83495 0.0
C251 C 0.16354 0.13533 0.77873 0.0
C252 C 0.40551 0.40339 0.87206 0.0
C253 C 0.36788 0.36407 0.86091 0.0
C254 C 0.34738 0.27766 0.82308 0.0
C255 C 0.2088 0.19541 0.80387 0.0
C256 C 0.25335 0.22145 0.81688 0.0
C257 C 0.37797 0.32725 0.85249 0.0
C258 C 0.33652 0.28582 0.84079 0.0
H259 H 0.0959 0.19464 0.79331 0.0
H260 H 0.16961 0.23585 0.81414 0.0
H261 H 0.31507 0.24243 0.79732 0.0
H262 H 0.50225 0.37218 0.86891 0.0
H263 H 0.43587 0.30314 0.84891 0.0
C264 C 0.9275 0.11234 0.7099 0.0
C265 C 0.92398 0.06292 0.70972 0.0
C266 C 0.89227 0.12059 0.69977 0.0
C267 C 0.76077 0.05023 0.67884 0.0
H268 H 0.81297 0.16826 0.64664 0.0
C269 C 0.63584 0.04846 0.62029 0.0
C270 C 0.63604 0.09457 0.6155 0.0
C271 C 0.67089 0.04977 0.6331 0.0
C272 C 0.79764 0.13567 0.6558 0.0
H273 H 0.88048 0.9833 0.69899 0.0
H274 H 0.81857 0.99744 0.68154 0.0
H275 H 0.87432 0.16044 0.66686 0.0
H276 H 0.6742 0.17867 0.62038 0.0
H277 H 0.73597 0.18095 0.64314 0.0
H278 H 0.68437 0.02508 0.66789 0.0
C279 C 0.84858 0.02982 0.68949 0.0
C280 C 0.83279 0.13111 0.66733 0.0
C281 C 0.88416 0.02178 0.69941 0.0
C282 C 0.67295 0.14245 0.6238 0.0
C283 C 0.70836 0.14375 0.63677 0.0
C284 C 0.72573 0.05498 0.66748 0.0
C285 C 0.85235 0.07935 0.68949 0.0
C286 C 0.81483 0.08756 0.67862 0.0
C287 C 0.70727 0.09717 0.64168 0.0
C288 C 0.74388 0.09687 0.65543 0.0
H289 H 0.95789 0.14485 0.7177 0.0
H290 H 0.89592 0.15906 0.7001 0.0
H291 H 0.74563 0.01685 0.68766 0.0
H292 H 0.60851 0.01083 0.6141 0.0
H293 H 0.66977 0.01338 0.63614 0.0
C294 C 0.86015 0.90684 0.04165 0.0
C295 C 0.91336 0.92625 0.04616 0.0
C296 C 0.83214 0.86109 0.03128 0.0
C297 C 0.84678 0.77964 0.99723 0.0
H298 H 0.70134 0.68137 0.00935 0.0
C299 C 0.70175 0.60372 0.9506 0.0
C300 C 0.65366 0.60221 0.94781 0.0
C301 C 0.73707 0.63662 0.96403 0.0
C302 C 0.74195 0.70832 0.0058 0.0
H303 H 0.97879 0.91235 0.04324 0.0
H304 H 0.92953 0.83219 0.02478 0.0
H305 H 0.75714 0.75176 0.03043 0.0
H306 H 0.60456 0.63313 0.95719 0.0
H307 H 0.66533 0.68953 0.98035 0.0
H308 H 0.83063 0.73709 0.97223 0.0
C309 C 0.90976 0.85271 0.02943 0.0
C310 C 0.77388 0.74864 0.01786 0.0
C311 C 0.93783 0.89844 0.04004 0.0
C312 C 0.64127 0.63333 0.9589 0.0
C313 C 0.67598 0.66545 0.97232 0.0
C314 C 0.81465 0.73914 0.98509 0.0
C315 C 0.85652 0.83352 0.025 0.0
C316 C 0.82607 0.78586 0.01347 0.0
C317 C 0.72435 0.66772 0.97505 0.0
C318 C 0.76134 0.70424 0.989 0.0
H319 H 0.83987 0.92701 0.04612 0.0
H320 H 0.79142 0.84783 0.02787 0.0
H321 H 0.88683 0.80782 0.99347 0.0
H322 H 0.71243 0.58027 0.94225 0.0
H323 H 0.77412 0.63762 0.96584 0.0
C324 C 0.97954 0.90544 0.372 0.0
C325 C 0.02409 0.95631 0.37253 0.0
C326 C 0.97737 0.86689 0.36037 0.0
C327 C 0.05957 0.82812 0.33535 0.0
H328 H 0.93404 0.74518 0.30618 0.0
C329 C 0.05612 0.69352 0.27858 0.0
C330 C 0.01 0.64484 0.27538 0.0
C331 C 0.05623 0.73027 0.29054 0.0
C332 C 0.96905 0.76736 0.31442 0.0
H333 H 0.10168 0.00647 0.36149 0.0
H334 H 0.09823 0.93852 0.34124 0.0
H335 H 0.93836 0.81218 0.32687 0.0
H336 H 0.92749 0.59682 0.28216 0.0
H337 H 0.92786 0.66088 0.30355 0.0
H338 H 0.09008 0.78298 0.32327 0.0
C339 C 0.06494 0.92873 0.34984 0.0
C340 C 0.9716 0.80592 0.32621 0.0
C341 C 0.06688 0.96762 0.36137 0.0
C342 C 0.96361 0.634 0.28433 0.0
C343 C 0.96385 0.67082 0.29652 0.0
C344 C 0.05684 0.78925 0.32372 0.0
C345 C 0.01992 0.8781 0.34912 0.0
C346 C 0.01707 0.83697 0.33669 0.0
C347 C 0.01038 0.71931 0.29986 0.0
C348 C 0.01178 0.75872 0.31294 0.0
H349 H 0.94586 0.89543 0.38043 0.0
H350 H 0.94246 0.8281 0.36027 0.0
H351 H 0.09473 0.85081 0.34349 0.0
H352 H 0.09245 0.7036 0.27173 0.0
H353 H 0.09242 0.7676 0.29234 0.0
C354 C 0.15894 0.0582 0.70561 0.0
C355 C 0.11582 0.01652 0.71417 0.0
C356 C 0.19429 0.04943 0.69582 0.0
C357 C 0.20495 0.95121 0.66931 0.0
H358 H 0.35505 0.04897 0.6744 0.0
C359 C 0.36258 0.94859 0.62202 0.0
C360 C 0.40131 0.99863 0.61619 0.0
C361 C 0.32761 0.94366 0.63573 0.0
C362 C 0.31326 0.02137 0.67275 0.0
H363 H 0.07587 0.93284 0.71921 0.0
H364 H 0.13751 0.91725 0.70162 0.0
H365 H 0.29415 0.05375 0.6954 0.0
H366 H 0.43305 0.08258 0.62015 0.0
H367 H 0.37255 0.07395 0.6435 0.0
H368 H 0.22402 0.92045 0.6461 0.0
C369 C 0.14395 0.95678 0.7027 0.0
C370 C 0.27844 0.02405 0.68483 0.0
C371 C 0.10894 0.96575 0.71282 0.0
C372 C 0.40409 0.04333 0.6243 0.0
C373 C 0.36952 0.03843 0.63788 0.0
C374 C 0.2399 0.9488 0.65707 0.0
C375 C 0.18699 0.99863 0.69412 0.0
C376 C 0.22384 0.99005 0.68294 0.0
C377 C 0.33103 0.98869 0.64389 0.0
C378 C 0.29435 0.98504 0.65832 0.0
H379 H 0.16534 0.09775 0.70641 0.0
H380 H 0.22676 0.08235 0.6892 0.0
H381 H 0.16299 0.9246 0.66753 0.0
H382 H 0.35934 0.91337 0.61605 0.0
H383 H 0.29837 0.90474 0.64006 0.0
C384 C 0.10264 0.21468 0.03745 0.0
C385 C 0.10711 0.17387 0.04528 0.0
C386 C 0.14207 0.25095 0.02627 0.0
C387 C 0.25069 0.26685 0.99736 0.0
H388 H 0.2934 0.41476 0.99937 0.0
C389 C 0.42531 0.41995 0.95622 0.0
C390 C 0.42002 0.45948 0.9478 0.0
C391 C 0.38826 0.38694 0.96866 0.0
C392 C 0.28151 0.3735 0.99849 0.0
H393 H 0.15746 0.14006 0.04762 0.0
H394 H 0.22638 0.20356 0.02817 0.0
H395 H 0.22752 0.35393 0.02026 0.0
H396 H 0.3718 0.49575 0.94613 0.0
H397 H 0.30655 0.43754 0.96779 0.0
H398 H 0.30417 0.28612 0.97553 0.0
C399 C 0.19192 0.20704 0.03056 0.0
C400 C 0.24379 0.33862 0.01049 0.0
C401 C 0.15251 0.17079 0.0418 0.0
C402 C 0.37712 0.46577 0.95239 0.0
C403 C 0.33984 0.43253 0.96486 0.0
C404 C 0.28827 0.30164 0.98536 0.0
C405 C 0.18703 0.24738 0.02257 0.0
C406 C 0.22794 0.28485 0.01008 0.0
C407 C 0.34471 0.39234 0.97302 0.0
C408 C 0.30427 0.35545 0.98578 0.0
H409 H 0.06834 0.21847 0.0398 0.0
H410 H 0.13669 0.28111 0.0202 0.0
H411 H 0.2387 0.22557 0.99643 0.0
H412 H 0.45805 0.41417 0.95314 0.0
H413 H 0.39391 0.35718 0.97493 0.0
C414 C 0.07734 0.22146 0.38212 0.0
C415 C 0.03054 0.17241 0.38071 0.0
C416 C 0.08671 0.26224 0.37048 0.0
C417 C 0.04391 0.28148 0.32583 0.0
H418 H 0.11548 0.42907 0.33973 0.0
C419 C 0.03595 0.43538 0.28245 0.0
C420 C 0.08289 0.48278 0.27908 0.0
C421 C 0.03461 0.40031 0.29505 0.0
C422 C 0.0961 0.38804 0.33563 0.0
H423 H 0.9556 0.12874 0.36671 0.0
H424 H 0.97102 0.19996 0.34689 0.0
H425 H 0.10116 0.36285 0.36204 0.0
H426 H 0.16533 0.53064 0.28659 0.0
H427 H 0.16272 0.46887 0.30907 0.0
H428 H 0.03765 0.30635 0.2996 0.0
C429 C 0.00138 0.20665 0.35655 0.0
C430 C 0.08778 0.35007 0.3484 0.0
C431 C 0.99225 0.16588 0.36805 0.0
C432 C 0.12862 0.49441 0.28883 0.0
C433 C 0.12707 0.45926 0.30173 0.0
C434 C 0.05186 0.31921 0.31318 0.0
C435 C 0.04933 0.2549 0.35725 0.0
C436 C 0.06069 0.29615 0.34371 0.0
C437 C 0.08003 0.41159 0.30481 0.0
C438 C 0.07721 0.37281 0.31798 0.0
H439 H 0.10775 0.22767 0.39169 0.0
H440 H 0.12412 0.29871 0.3714 0.0
H441 H 0.0244 0.24061 0.32154 0.0
H442 H 0.99989 0.4249 0.27522 0.0
H443 H 0.99763 0.3643 0.29728 0.0
loop_
_geom_bond_atom_site_label_1
_geom_bond_atom_site_label_2
_geom_bond_distance
_geom_bond_site_symmetry_2
_ccdc_geom_bond_type
Co0 O1 2.216 1_445 S
Co0 O2 2.110 . S
Co0 O4 2.004 . S
Co0 O10 2.021 1_445 S
Co0 O12 2.137 . S
Co0 O13 2.244 1_455 S
O1 Co0 2.216 1_665 S
O1 C8 1.247 1_655 S
O2 Co0 2.110 . S
O2 C8 1.258 1_545 S
C3 O12 1.247 . S
C3 O13 1.272 1_455 S
O4 Co0 2.004 . S
O4 C9 1.259 . S
Co5 O6 2.061 1_655 S
Co5 O11 2.052 . S
Co5 O13 2.135 . S
O6 Co5 2.061 1_455 S
O6 C9 1.235 . S
C7 O10 1.238 . S
C7 O11 1.241 1_565 S
C8 O1 1.247 1_455 S
C8 O2 1.258 1_565 S
C9 O4 1.259 . S
C9 O6 1.235 . S
O10 Co0 2.021 1_665 S
O10 C7 1.238 . S
O11 Co5 2.052 . S
O11 C7 1.241 1_545 S
O12 Co0 2.137 . S
O12 C3 1.247 . S
O13 Co0 2.244 1_655 S
O13 C3 1.272 1_655 S
O13 Co5 2.135 . S
Co14 O15 2.216 . S
Co14 O16 2.091 . S
Co14 O18 2.004 . S
Co14 O24 2.021 . S
Co14 O26 2.137 . S
Co14 O27 2.244 1_545 S
O15 Co14 2.216 . S
O15 C22 1.247 . S
O16 Co14 2.091 . S
O16 C22 1.261 . S
C17 O26 1.247 1_565 S
C17 O27 1.272 . S
O18 Co14 2.004 . S
O18 C23 1.259 . S
Co19 O20 2.061 1_665 S
Co19 O25 2.052 . S
Co19 O27 2.135 1_655 S
O20 Co19 2.061 1_445 S
O20 C23 1.235 . S
C21 O24 1.238 1_655 S
C21 O25 1.241 1_545 S
C22 O15 1.247 . S
C22 O16 1.261 . S
C23 O18 1.259 . S
C23 O20 1.235 . S
O24 Co14 2.021 . S
O24 C21 1.238 1_455 S
O25 Co19 2.052 . S
O25 C21 1.241 1_565 S
O26 Co14 2.137 . S
O26 C17 1.247 1_545 S
O27 Co14 2.244 1_565 S
O27 C17 1.272 . S
O27 Co19 2.135 1_455 S
Co28 O29 2.216 . S
Co28 O30 2.091 1_545 S
Co28 O32 2.004 1_445 S
Co28 O38 2.021 . S
Co28 O40 2.137 1_455 S
Co28 O41 2.244 1_455 S
O29 Co28 2.216 . S
O29 C36 1.247 . S
O30 Co28 2.091 1_565 S
O30 C36 1.261 1_565 S
C31 O40 1.248 . S
C31 O41 1.272 . S
O32 Co28 2.004 1_665 S
O32 C37 1.259 . S
Co33 O34 2.061 . S
Co33 O39 2.052 1_655 S
Co33 O41 2.135 . S
O34 Co33 2.061 . S
O34 C37 1.235 1_545 S
C35 O38 1.238 . S
C35 O39 1.241 . S
C36 O29 1.247 . S
C36 O30 1.261 1_545 S
C37 O32 1.259 . S
C37 O34 1.235 1_565 S
O38 Co28 2.021 . S
O38 C35 1.238 . S
O39 Co33 2.052 1_455 S
O39 C35 1.241 . S
O40 Co28 2.137 1_655 S
O40 C31 1.248 . S
O41 Co28 2.244 1_655 S
O41 C31 1.272 . S
O41 Co33 2.135 . S
C42 O44 1.247 . S
C42 O46 1.258 1_455 S
C43 O50 1.247 1_455 S
C43 O51 1.258 . S
O44 C42 1.247 . S
O44 Zn45 2.028 . S
Zn45 O44 2.028 . S
Zn45 O49 2.035 . S
Zn45 O51 2.035 . S
Zn45 O52 2.028 . S
O46 C42 1.258 1_655 S
O46 Zn47 2.035 . S
Zn47 O46 2.035 . S
Zn47 O48 2.028 . S
Zn47 O50 2.028 . S
Zn47 O53 2.035 . S
O48 Zn47 2.028 . S
O48 C54 1.247 1_655 S
O49 Zn45 2.035 . S
O49 C54 1.258 . S
O50 C43 1.247 1_655 S
O50 Zn47 2.028 . S
O51 C43 1.258 . S
O51 Zn45 2.035 . S
O52 Zn45 2.028 . S
O52 C55 1.247 . S
O53 Zn47 2.035 . S
O53 C55 1.258 1_655 S
C54 O48 1.247 1_455 S
C54 O49 1.258 . S
C55 O52 1.247 . S
C55 O53 1.258 1_455 S
C56 O58 1.247 1_545 S
C56 O60 1.258 . S
C57 O64 1.247 . S
C57 O65 1.258 1_545 S
O58 C56 1.247 1_565 S
O58 Zn59 2.028 . S
Zn59 O58 2.028 . S
Zn59 O63 2.035 . S
Zn59 O65 2.035 . S
Zn59 O66 2.028 . S
O60 C56 1.258 . S
O60 Zn61 2.035 . S
Zn61 O60 2.035 . S
Zn61 O62 2.028 . S
Zn61 O64 2.028 . S
Zn61 O67 2.035 . S
O62 Zn61 2.028 . S
O62 C68 1.247 . S
O63 Zn59 2.035 . S
O63 C68 1.258 1_565 S
O64 C57 1.247 . S
O64 Zn61 2.028 . S
O65 C57 1.258 1_565 S
O65 Zn59 2.035 . S
O66 Zn59 2.028 . S
O66 C69 1.247 1_565 S
O67 Zn61 2.035 . S
O67 C69 1.258 . S
C68 O62 1.247 . S
C68 O63 1.258 1_545 S
C69 O66 1.247 1_545 S
C69 O67 1.258 . S
C70 O72 1.247 . S
C70 O74 1.258 . S
C71 O78 1.247 . S
C71 O79 1.258 . S
O72 C70 1.247 . S
O72 Zn73 2.028 . S
Zn73 O72 2.028 . S
Zn73 O77 2.035 . S
Zn73 O79 2.035 . S
Zn73 O80 2.028 . S
O74 C70 1.258 . S
O74 Zn75 2.035 . S
Zn75 O74 2.035 . S
Zn75 O76 2.028 . S
Zn75 O78 2.028 . S
Zn75 O81 2.035 . S
O76 Zn75 2.028 . S
O76 C82 1.247 . S
O77 Zn73 2.035 . S
O77 C82 1.258 . S
O78 C71 1.247 . S
O78 Zn75 2.028 . S
O79 C71 1.258 . S
O79 Zn73 2.035 . S
O80 Zn73 2.028 . S
O80 C83 1.247 . S
O81 Zn75 2.035 . S
O81 C83 1.258 . S
C82 O76 1.247 . S
C82 O77 1.258 . S
C83 O80 1.247 . S
C83 O81 1.258 . S
C84 C85 1.349 1_655 S
C84 C86 1.327 . S
C84 H109 0.950 . S
C85 C84 1.349 1_455 S
C85 C101 1.349 . S
C86 C84 1.327 . S
C86 C105 1.429 1_655 S
C86 H110 0.950 . S
C87 C104 1.574 . S
C87 C106 1.368 . S
C87 H111 0.949 . S
H88 C92 0.949 . S
C89 C90 1.349 . S
C89 C91 1.327 . S
C89 H112 0.950 . S
C90 C89 1.349 . S
C90 C102 1.349 1_455 S
C91 C89 1.327 . S
C91 C107 1.429 . S
C91 H113 0.950 . S
C92 H88 0.949 . S
C92 C100 1.574 . S
C92 C108 1.368 1_655 S
H93 C101 0.950 . S
H94 C99 0.950 . S
H95 C100 0.949 . S
H96 C102 0.950 . S
H97 C103 0.950 . S
H98 C104 0.949 . S
C99 H94 0.950 . S
C99 C101 1.327 . S
C99 C105 1.429 . S
C100 C92 1.574 . S
C100 H95 0.949 . S
C100 C106 1.368 1_655 S
C101 C85 1.349 . S
C101 H93 0.950 . S
C101 C99 1.327 . S
C102 C90 1.349 1_655 S
C102 H96 0.950 . S
C102 C103 1.327 . S
C103 H97 0.950 . S
C103 C102 1.327 . S
C103 C107 1.429 1_655 S
C104 C87 1.574 . S
C104 H98 0.949 . S
C104 C108 1.368 . S
C105 C86 1.429 1_455 S
C105 C99 1.429 . S
C105 C106 1.523 . S
C106 C87 1.368 . S
C106 C100 1.368 1_455 S
C106 C105 1.523 . S
C107 C91 1.429 . S
C107 C103 1.429 1_455 S
C107 C108 1.523 . S
C108 C92 1.368 1_455 S
C108 C104 1.368 . S
C108 C107 1.523 . S
H109 C84 0.950 . S
H110 C86 0.950 . S
H111 C87 0.949 . S
H112 C89 0.950 . S
H113 C91 0.950 . S
C114 C115 1.349 . S
C114 C116 1.327 . S
C114 H139 0.950 . S
C115 C114 1.349 . S
C115 C131 1.349 . S
C116 C114 1.327 . S
C116 C135 1.429 . S
C116 H140 0.950 . S
C117 C134 1.574 . S
C117 C136 1.368 . S
C117 H141 0.949 1_545 S
H118 C122 0.949 . S
C119 C120 1.349 . S
C119 C121 1.327 . S
C119 H142 0.950 1_545 S
C120 C119 1.349 . S
C120 C132 1.349 . S
C121 C119 1.327 . S
C121 C137 1.429 . S
C121 H143 0.950 1_545 S
C122 H118 0.949 . S
C122 C130 1.574 . S
C122 C138 1.368 . S
H123 C131 0.950 1_565 S
H124 C129 0.950 1_565 S
H125 C130 0.949 . S
H126 C132 0.950 . S
H127 C133 0.950 . S
H128 C134 0.949 1_565 S
C129 H124 0.950 1_545 S
C129 C131 1.327 . S
C129 C135 1.429 . S
C130 C122 1.574 . S
C130 H125 0.949 . S
C130 C136 1.368 . S
C131 C115 1.349 . S
C131 H123 0.950 1_545 S
C131 C129 1.327 . S
C132 C120 1.349 . S
C132 H126 0.950 . S
C132 C133 1.327 . S
C133 H127 0.950 . S
C133 C132 1.327 . S
C133 C137 1.429 . S
C134 C117 1.574 . S
C134 H128 0.949 1_545 S
C134 C138 1.368 . S
C135 C116 1.429 . S
C135 C129 1.429 . S
C135 C136 1.523 . S
C136 C117 1.368 . S
C136 C130 1.368 . S
C136 C135 1.523 . S
C137 C121 1.429 . S
C137 C133 1.429 . S
C137 C138 1.523 . S
C138 C122 1.368 . S
C138 C134 1.368 . S
C138 C137 1.523 . S
H139 C114 0.950 . S
H140 C116 0.950 . S
H141 C117 0.949 1_565 S
H142 C119 0.950 1_565 S
H143 C121 0.950 1_565 S
C144 C145 1.349 . S
C144 C146 1.327 . S
C144 H169 0.950 . S
C145 C144 1.349 . S
C145 C161 1.349 . S
C146 C144 1.327 . S
C146 C165 1.429 . S
C146 H170 0.950 . S
C147 C164 1.574 . S
C147 C166 1.368 . S
C147 H171 0.949 . S
H148 C152 0.949 . S
C149 C150 1.349 . S
C149 C151 1.327 . S
C149 H172 0.950 . S
C150 C149 1.349 . S
C150 C162 1.349 . S
C151 C149 1.327 . S
C151 C167 1.429 . S
C151 H173 0.950 . S
C152 H148 0.949 . S
C152 C160 1.574 . S
C152 C168 1.368 . S
H153 C161 0.950 . S
H154 C159 0.950 . S
H155 C160 0.949 . S
H156 C162 0.950 . S
H157 C163 0.950 . S
H158 C164 0.949 . S
C159 H154 0.950 . S
C159 C161 1.327 . S
C159 C165 1.429 . S
C160 C152 1.574 . S
C160 H155 0.949 . S
C160 C166 1.368 . S
C161 C145 1.349 . S
C161 H153 0.950 . S
C161 C159 1.327 . S
C162 C150 1.349 . S
C162 H156 0.950 . S
C162 C163 1.327 . S
C163 H157 0.950 . S
C163 C162 1.327 . S
C163 C167 1.429 . S
C164 C147 1.574 . S
C164 H158 0.949 . S
C164 C168 1.368 . S
C165 C146 1.429 . S
C165 C159 1.429 . S
C165 C166 1.523 . S
C166 C147 1.368 . S
C166 C160 1.368 . S
C166 C165 1.523 . S
C167 C151 1.429 . S
C167 C163 1.429 . S
C167 C168 1.523 . S
C168 C152 1.368 . S
C168 C164 1.368 . S
C168 C167 1.523 . S
H169 C144 0.950 . S
H170 C146 0.950 . S
H171 C147 0.949 . S
H172 C149 0.950 . S
H173 C151 0.950 . S
C174 C175 1.348 1_655 S
C174 C176 1.323 . S
C174 H199 0.955 . S
C175 C174 1.348 1_455 S
C175 C191 1.349 . S
C176 C174 1.323 . S
C176 C195 1.429 1_655 S
C176 H200 0.950 . S
C177 C194 1.574 . S
C177 C196 1.368 . S
C177 H201 0.949 . S
H178 C182 0.949 . S
C179 C180 1.349 . S
C179 C181 1.327 . S
C179 H202 0.950 . S
C180 C179 1.349 . S
C180 C192 1.349 1_455 S
C181 C179 1.327 . S
C181 C197 1.429 . S
C181 H203 0.950 . S
C182 H178 0.949 . S
C182 C190 1.574 . S
C182 C198 1.368 1_655 S
H183 C191 0.950 . S
H184 C189 0.950 . S
H185 C190 0.949 . S
H186 C192 0.950 . S
H187 C193 0.950 . S
H188 C194 0.949 . S
C189 H184 0.950 . S
C189 C191 1.327 . S
C189 C195 1.429 . S
C190 C182 1.574 . S
C190 H185 0.949 . S
C190 C196 1.368 1_655 S
C191 C175 1.349 . S
C191 H183 0.950 . S
C191 C189 1.327 . S
C192 C180 1.349 1_655 S
C192 H186 0.950 . S
C192 C193 1.327 . S
C193 H187 0.950 . S
C193 C192 1.327 . S
C193 C197 1.429 1_655 S
C194 C177 1.574 . S
C194 H188 0.949 . S
C194 C198 1.368 . S
C195 C176 1.429 1_455 S
C195 C189 1.429 . S
C195 C196 1.523 . S
C196 C177 1.368 . S
C196 C190 1.368 1_455 S
C196 C195 1.523 . S
C197 C181 1.429 . S
C197 C193 1.429 1_455 S
C197 C198 1.523 . S
C198 C182 1.368 1_455 S
C198 C194 1.368 . S
C198 C197 1.523 . S
H199 C174 0.955 . S
H200 C176 0.950 . S
H201 C177 0.949 . S
H202 C179 0.950 . S
H203 C181 0.950 . S
C204 C205 1.349 . S
C204 C206 1.327 . S
C204 H229 0.950 1_545 S
C205 C204 1.349 . S
C205 C221 1.349 . S
C206 C204 1.327 . S
C206 C225 1.429 . S
C206 H230 0.950 1_545 S
C207 C224 1.574 . S
C207 C226 1.368 . S
C207 H231 0.949 . S
H208 C212 0.949 1_565 S
C209 C210 1.349 . S
C209 C211 1.327 . S
C209 H232 0.950 . S
C210 C209 1.349 . S
C210 C222 1.349 . S
C211 C209 1.327 . S
C211 C227 1.429 . S
C211 H233 0.950 . S
C212 H208 0.949 1_545 S
C212 C220 1.574 . S
C212 C228 1.368 . S
H213 C221 0.950 . S
H214 C219 0.950 . S
H215 C220 0.949 1_565 S
H216 C222 0.950 1_565 S
H217 C223 0.950 1_565 S
H218 C224 0.949 . S
C219 H214 0.950 . S
C219 C221 1.327 . S
C219 C225 1.429 . S
C220 C212 1.574 . S
C220 H215 0.949 1_545 S
C220 C226 1.368 . S
C221 C205 1.349 . S
C221 H213 0.950 . S
C221 C219 1.327 . S
C222 C210 1.349 . S
C222 H216 0.950 1_545 S
C222 C223 1.327 . S
C223 H217 0.950 1_545 S
C223 C222 1.327 . S
C223 C227 1.429 . S
C224 C207 1.574 . S
C224 H218 0.949 . S
C224 C228 1.368 . S
C225 C206 1.429 . S
C225 C219 1.429 . S
C225 C226 1.523 . S
C226 C207 1.368 . S
C226 C220 1.368 . S
C226 C225 1.523 . S
C227 C211 1.429 . S
C227 C223 1.429 . S
C227 C228 1.523 . S
C228 C212 1.368 . S
C228 C224 1.368 . S
C228 C227 1.523 . S
H229 C204 0.950 1_565 S
H230 C206 0.950 1_565 S
H231 C207 0.949 . S
H232 C209 0.950 . S
H233 C211 0.950 . S
C234 C235 1.349 . S
C234 C236 1.327 . S
C234 H259 0.950 . S
C235 C234 1.349 . S
C235 C251 1.349 . S
C236 C234 1.327 . S
C236 C255 1.429 . S
C236 H260 0.950 . S
C237 C254 1.574 . S
C237 C256 1.368 . S
C237 H261 0.949 . S
H238 C242 0.949 . S
C239 C240 1.349 . S
C239 C241 1.327 . S
C239 H262 0.950 . S
C240 C239 1.349 . S
C240 C252 1.349 . S
C241 C239 1.327 . S
C241 C257 1.429 . S
C241 H263 0.950 . S
C242 H238 0.949 . S
C242 C250 1.574 . S
C242 C258 1.368 . S
H243 C251 0.950 . S
H244 C249 0.950 . S
H245 C250 0.949 . S
H246 C252 0.950 . S
H247 C253 0.950 . S
H248 C254 0.949 . S
C249 H244 0.950 . S
C249 C251 1.327 . S
C249 C255 1.429 . S
C250 C242 1.574 . S
C250 H245 0.949 . S
C250 C256 1.368 . S
C251 C235 1.349 . S
C251 H243 0.950 . S
C251 C249 1.327 . S
C252 C240 1.349 . S
C252 H246 0.950 . S
C252 C253 1.327 . S
C253 H247 0.950 . S
C253 C252 1.327 . S
C253 C257 1.429 . S
C254 C237 1.574 . S
C254 H248 0.949 . S
C254 C258 1.368 . S
C255 C236 1.429 . S
C255 C249 1.429 . S
C255 C256 1.523 . S
C256 C237 1.368 . S
C256 C250 1.368 . S
C256 C255 1.523 . S
C257 C241 1.429 . S
C257 C253 1.429 . S
C257 C258 1.523 . S
C258 C242 1.368 . S
C258 C254 1.368 . S
C258 C257 1.523 . S
H259 C234 0.950 . S
H260 C236 0.950 . S
H261 C237 0.949 . S
H262 C239 0.950 . S
H263 C241 0.950 . S
C264 C265 1.349 . S
C264 C266 1.327 . S
C264 H289 0.950 . S
C265 C264 1.349 . S
C265 C281 1.349 . S
C266 C264 1.327 . S
C266 C285 1.429 . S
C266 H290 0.950 . S
C267 C284 1.574 . S
C267 C286 1.368 1_565 S
C267 H291 0.949 . S
H268 C272 0.949 . S
C269 C270 1.349 1_565 S
C269 C271 1.327 . S
C269 H292 0.950 . S
C270 C269 1.349 1_545 S
C270 C282 1.349 . S
C271 C269 1.327 . S
C271 C287 1.429 1_565 S
C271 H293 0.950 . S
C272 H268 0.949 . S
C272 C280 1.574 . S
C272 C288 1.368 . S
H273 C281 0.950 1_565 S
H274 C279 0.950 . S
H275 C280 0.949 . S
H276 C282 0.950 . S
H277 C283 0.950 . S
H278 C284 0.949 . S
C279 H274 0.950 . S
C279 C281 1.327 1_565 S
C279 C285 1.429 1_565 S
C280 C272 1.574 . S
C280 H275 0.949 . S
C280 C286 1.368 . S
C281 C265 1.349 . S
C281 H273 0.950 1_545 S
C281 C279 1.327 1_545 S
C282 C270 1.349 . S
C282 H276 0.950 . S
C282 C283 1.327 . S
C283 H277 0.950 . S
C283 C282 1.327 . S
C283 C287 1.429 . S
C284 C267 1.574 . S
C284 H278 0.949 . S
C284 C288 1.368 1_565 S
C285 C266 1.429 . S
C285 C279 1.429 1_545 S
C285 C286 1.523 . S
C286 C267 1.368 1_545 S
C286 C280 1.368 . S
C286 C285 1.523 . S
C287 C271 1.429 1_545 S
C287 C283 1.429 . S
C287 C288 1.523 . S
C288 C272 1.368 . S
C288 C284 1.368 1_545 S
C288 C287 1.523 . S
H289 C264 0.950 . S
H290 C266 0.950 . S
H291 C267 0.949 . S
H292 C269 0.950 . S
H293 C271 0.950 . S
C294 C295 1.349 . S
C294 C296 1.327 . S
C294 H319 0.950 . S
C295 C294 1.349 . S
C295 C311 1.349 . S
C296 C294 1.327 . S
C296 C315 1.429 . S
C296 H320 0.950 . S
C297 C314 1.574 . S
C297 C316 1.350 1_556 S
C297 H321 0.949 . S
H298 C302 0.949 . S
C299 C300 1.349 . S
C299 C301 1.327 . S
C299 H322 0.950 . S
C300 C299 1.349 . S
C300 C312 1.349 . S
C301 C299 1.327 . S
C301 C317 1.429 . S
C301 H323 0.950 . S
C302 H298 0.949 . S
C302 C310 1.574 1_556 S
C302 C318 1.368 . S
H303 C311 0.950 . S
H304 C309 0.950 . S
H305 C310 0.949 . S
H306 C312 0.950 . S
H307 C313 0.950 . S
H308 C314 0.949 . S
C309 H304 0.950 . S
C309 C311 1.327 . S
C309 C315 1.429 . S
C310 C302 1.574 1_554 S
C310 H305 0.949 . S
C310 C316 1.375 . S
C311 C295 1.349 . S
C311 H303 0.950 . S
C311 C309 1.327 . S
C312 C300 1.349 . S
C312 H306 0.950 . S
C312 C313 1.327 . S
C313 H307 0.950 . S
C313 C312 1.327 . S
C313 C317 1.429 . S
C314 C297 1.574 . S
C314 H308 0.949 . S
C314 C318 1.368 . S
C315 C296 1.429 . S
C315 C309 1.429 . S
C315 C316 1.538 . S
C316 C297 1.350 1_554 S
C316 C310 1.375 . S
C316 C315 1.538 . S
C317 C301 1.429 . S
C317 C313 1.429 . S
C317 C318 1.523 . S
C318 C302 1.368 . S
C318 C314 1.368 . S
C318 C317 1.523 . S
H319 C294 0.950 . S
H320 C296 0.950 . S
H321 C297 0.949 . S
H322 C299 0.950 . S
H323 C301 0.950 . S
C324 C325 1.349 . S
C324 C326 1.329 1_455 S
C324 H349 0.950 1_455 S
C325 C324 1.349 . S
C325 C341 1.349 . S
C326 C324 1.329 1_655 S
C326 C345 1.423 1_655 S
C326 H350 0.953 . S
C327 C344 1.574 . S
C327 C346 1.368 . S
C327 H351 0.949 . S
H328 C332 0.949 . S
C329 C330 1.349 . S
C329 C331 1.327 . S
C329 H352 0.950 . S
C330 C329 1.349 . S
C330 C342 1.349 1_455 S
C331 C329 1.327 . S
C331 C347 1.429 . S
C331 H353 0.950 . S
C332 H328 0.949 . S
C332 C340 1.574 . S
C332 C348 1.368 1_655 S
H333 C341 0.950 . S
H334 C339 0.950 . S
H335 C340 0.949 . S
H336 C342 0.950 . S
H337 C343 0.950 . S
H338 C344 0.949 . S
C339 H334 0.950 . S
C339 C341 1.327 . S
C339 C345 1.429 . S
C340 C332 1.574 . S
C340 H335 0.949 . S
C340 C346 1.368 1_655 S
C341 C325 1.349 . S
C341 H333 0.950 . S
C341 C339 1.327 . S
C342 C330 1.349 1_655 S
C342 H336 0.950 . S
C342 C343 1.327 . S
C343 H337 0.950 . S
C343 C342 1.327 . S
C343 C347 1.429 1_655 S
C344 C327 1.574 . S
C344 H338 0.949 . S
C344 C348 1.368 . S
C345 C326 1.423 1_455 S
C345 C339 1.429 . S
C345 C346 1.523 . S
C346 C327 1.368 . S
C346 C340 1.368 1_455 S
C346 C345 1.523 . S
C347 C331 1.429 . S
C347 C343 1.429 1_455 S
C347 C348 1.523 . S
C348 C332 1.368 1_455 S
C348 C344 1.368 . S
C348 C347 1.523 . S
H349 C324 0.950 1_655 S
H350 C326 0.953 . S
H351 C327 0.949 . S
H352 C329 0.950 . S
H353 C331 0.950 . S
C354 C355 1.349 . S
C354 C356 1.327 . S
C354 H379 0.950 . S
C355 C354 1.349 . S
C355 C371 1.349 . S
C356 C354 1.327 . S
C356 C375 1.429 . S
C356 H380 0.950 . S
C357 C374 1.574 . S
C357 C376 1.368 . S
C357 H381 0.949 1_545 S
H358 C362 0.949 . S
C359 C360 1.349 . S
C359 C361 1.327 . S
C359 H382 0.950 1_545 S
C360 C359 1.349 . S
C360 C372 1.349 . S
C361 C359 1.327 . S
C361 C377 1.429 . S
C361 H383 0.950 1_545 S
C362 H358 0.949 . S
C362 C370 1.574 . S
C362 C378 1.368 . S
H363 C371 0.950 1_565 S
H364 C369 0.950 1_565 S
H365 C370 0.949 . S
H366 C372 0.950 . S
H367 C373 0.950 . S
H368 C374 0.949 1_565 S
C369 H364 0.950 1_545 S
C369 C371 1.327 . S
C369 C375 1.429 . S
C370 C362 1.574 . S
C370 H365 0.949 . S
C370 C376 1.368 . S
C371 C355 1.349 . S
C371 H363 0.950 1_545 S
C371 C369 1.327 . S
C372 C360 1.349 . S
C372 H366 0.950 . S
C372 C373 1.327 . S
C373 H367 0.950 . S
C373 C372 1.327 . S
C373 C377 1.429 . S
C374 C357 1.574 . S
C374 H368 0.949 1_545 S
C374 C378 1.368 . S
C375 C356 1.429 . S
C375 C369 1.429 . S
C375 C376 1.523 . S
C376 C357 1.368 . S
C376 C370 1.368 . S
C376 C375 1.523 . S
C377 C361 1.429 . S
C377 C373 1.429 . S
C377 C378 1.523 . S
C378 C362 1.368 . S
C378 C374 1.368 . S
C378 C377 1.523 . S
H379 C354 0.950 . S
H380 C356 0.950 . S
H381 C357 0.949 1_565 S
H382 C359 0.950 1_565 S
H383 C361 0.950 1_565 S
C384 C385 1.349 . S
C384 C386 1.327 . S
C384 H409 0.950 . S
C385 C384 1.349 . S
C385 C401 1.349 . S
C386 C384 1.327 . S
C386 C405 1.429 . S
C386 H410 0.950 . S
C387 C404 1.574 1_554 S
C387 C406 1.362 1_554 S
C387 H411 0.949 . S
H388 C392 0.949 . S
C389 C390 1.349 . S
C389 C391 1.327 . S
C389 H412 0.950 . S
C390 C389 1.349 . S
C390 C402 1.349 . S
C391 C389 1.327 . S
C391 C407 1.429 . S
C391 H413 0.950 . S
C392 H388 0.949 . S
C392 C400 1.574 . S
C392 C408 1.368 . S
H393 C401 0.950 . S
H394 C399 0.950 . S
H395 C400 0.949 . S
H396 C402 0.950 . S
H397 C403 0.950 . S
H398 C404 0.949 . S
C399 H394 0.950 . S
C399 C401 1.327 . S
C399 C405 1.429 . S
C400 C392 1.574 . S
C400 H395 0.949 . S
C400 C406 1.403 . S
C401 C385 1.349 . S
C401 H393 0.950 . S
C401 C399 1.327 . S
C402 C390 1.349 . S
C402 H396 0.950 . S
C402 C403 1.327 . S
C403 H397 0.950 . S
C403 C402 1.327 . S
C403 C407 1.429 . S
C404 C387 1.574 1_556 S
C404 H398 0.949 . S
C404 C408 1.368 . S
C405 C386 1.429 . S
C405 C399 1.429 . S
C405 C406 1.489 1_554 S
C406 C387 1.362 1_556 S
C406 C400 1.403 . S
C406 C405 1.489 1_556 S
C407 C391 1.429 . S
C407 C403 1.429 . S
C407 C408 1.523 . S
C408 C392 1.368 . S
C408 C404 1.368 . S
C408 C407 1.523 . S
H409 C384 0.950 . S
H410 C386 0.950 . S
H411 C387 0.949 . S
H412 C389 0.950 . S
H413 C391 0.950 . S
C414 C415 1.349 . S
C414 C416 1.327 . S
C414 H439 0.950 . S
C415 C414 1.349 . S
C415 C431 1.349 . S
C416 C414 1.327 . S
C416 C435 1.429 . S
C416 H440 0.950 . S
C417 C434 1.574 . S
C417 C436 1.368 1_655 S
C417 H441 0.949 . S
H418 C422 0.949 . S
C419 C420 1.349 1_655 S
C419 C421 1.327 . S
C419 H442 0.950 . S
C420 C419 1.349 1_455 S
C420 C432 1.349 . S
C421 C419 1.327 . S
C421 C437 1.429 1_655 S
C421 H443 0.950 . S
C422 H418 0.949 . S
C422 C430 1.574 . S
C422 C438 1.368 . S
H423 C431 0.950 1_655 S
H424 C429 0.946 1_655 S
H425 C430 0.949 . S
H426 C432 0.950 . S
H427 C433 0.950 . S
H428 C434 0.949 . S
C429 H424 0.946 1_455 S
C429 C431 1.330 . S
C429 C435 1.429 . S
C430 C422 1.574 . S
C430 H425 0.949 . S
C430 C436 1.368 . S
C431 C415 1.349 . S
C431 H423 0.950 1_455 S
C431 C429 1.330 . S
C432 C420 1.349 . S
C432 H426 0.950 . S
C432 C433 1.327 . S
C433 H427 0.950 . S
C433 C432 1.327 . S
C433 C437 1.429 . S
C434 C417 1.574 . S
C434 H428 0.949 . S
C434 C438 1.368 1_655 S
C435 C416 1.429 . S
C435 C429 1.429 . S
C435 C436 1.523 . S
C436 C417 1.368 1_455 S
C436 C430 1.368 . S
C436 C435 1.523 . S
C437 C421 1.429 1_455 S
C437 C433 1.429 . S
C437 C438 1.523 . S
C438 C422 1.368 . S
C438 C434 1.368 1_455 S
C438 C437 1.523 . S
H439 C414 0.950 . S
H440 C416 0.950 . S
H441 C417 0.949 . S
H442 C419 0.950 . S
H443 C421 0.950 . S
C90 C43 1.465 . S
C85 C3 1.461 . S
C115 C21 1.478 . S
C120 C69 1.501 . S
C145 C37 1.456 . S
C150 C71 1.475 . S
C175 C8 1.465 . S
C180 C55 1.465 . S
C210 C57 1.475 . S
C205 C23 1.455 . S
C235 C35 1.450 . S
C240 C83 1.473 . S
C270 C56 1.463 . S
C265 C31 1.459 . S
C295 C7 1.450 . S
C300 C82 1.473 . S
C330 C42 1.466 . S
C325 C17 1.463 . S
C360 C68 1.434 . S
C355 C36 1.434 . S
C390 C70 1.475 . S
C385 C9 1.455 . S
C415 C22 1.466 . S
C420 C54 1.466 . S
