# Generated by pormake.
# Topology gar, (4,6)-cn, num edge types: 1
# Building blocks:
#     Node 0, Type 0, BuildingBlock: AZAVOO_clean_sbu_0, # of connection points: 4
#     Node 1, Type 0, BuildingBlock: AZAVOO_clean_sbu_0, # of connection points: 4
#     Node 2, Type 0, BuildingBlock: AZAVOO_clean_sbu_0, # of connection points: 4
#     Node 3, Type 0, BuildingBlock: AZAVOO_clean_sbu_0, # of connection points: 4
#     Node 4, Type 0, BuildingBlock: AZAVOO_clean_sbu_0, # of connection points: 4
#     Node 5, Type 0, BuildingBlock: AZAVOO_clean_sbu_0, # of connection points: 4
#     Node 6, Type 0, BuildingBlock: AZAVOO_clean_sbu_0, # of connection points: 4
#     Node 7, Type 0, BuildingBlock: AZAVOO_clean_sbu_0, # of connection points: 4
#     Node 8, Type 0, BuildingBlock: AZAVOO_clean_sbu_0, # of connection points: 4
#     Node 9, Type 0, BuildingBlock: AZAVOO_clean_sbu_0, # of connection points: 4
#     Node 10, Type 0, BuildingBlock: AZAVOO_clean_sbu_0, # of connection points: 4
#     Node 11, Type 0, BuildingBlock: AZAVOO_clean_sbu_0, # of connection points: 4
#     Node 12, Type 0, BuildingBlock: AZAVOO_clean_sbu_0, # of connection points: 4
#     Node 13, Type 0, BuildingBlock: AZAVOO_clean_sbu_0, # of connection points: 4
#     Node 14, Type 0, BuildingBlock: AZAVOO_clean_sbu_0, # of connection points: 4
#     Node 15, Type 0, BuildingBlock: AZAVOO_clean_sbu_0, # of connection points: 4
#     Node 16, Type 0, BuildingBlock: AZAVOO_clean_sbu_0, # of connection points: 4
#     Node 17, Type 0, BuildingBlock: AZAVOO_clean_sbu_0, # of connection points: 4
#     Node 18, Type 0, BuildingBlock: AZAVOO_clean_sbu_0, # of connection points: 4
#     Node 19, Type 0, BuildingBlock: AZAVOO_clean_sbu_0, # of connection points: 4
#     Node 20, Type 0, BuildingBlock: AZAVOO_clean_sbu_0, # of connection points: 4
#     Node 21, Type 0, BuildingBlock: AZAVOO_clean_sbu_0, # of connection points: 4
#     Node 22, Type 0, BuildingBlock: AZAVOO_clean_sbu_0, # of connection points: 4
#     Node 23, Type 0, BuildingBlock: AZAVOO_clean_sbu_0, # of connection points: 4
#     Node 24, Type 1, BuildingBlock: CUKXOW_clean_sbu_0, # of connection points: 6
#     Node 25, Type 1, BuildingBlock: CUKXOW_clean_sbu_0, # of connection points: 6
#     Node 26, Type 1, BuildingBlock: CUKXOW_clean_sbu_0, # of connection points: 6
#     Node 27, Type 1, BuildingBlock: CUKXOW_clean_sbu_0, # of connection points: 6
#     Node 28, Type 1, BuildingBlock: CUKXOW_clean_sbu_0, # of connection points: 6
#     Node 29, Type 1, BuildingBlock: CUKXOW_clean_sbu_0, # of connection points: 6
#     Node 30, Type 1, BuildingBlock: CUKXOW_clean_sbu_0, # of connection points: 6
#     Node 31, Type 1, BuildingBlock: CUKXOW_clean_sbu_0, # of connection points: 6
#     Node 32, Type 1, BuildingBlock: CUKXOW_clean_sbu_0, # of connection points: 6
#     Node 33, Type 1, BuildingBlock: CUKXOW_clean_sbu_0, # of connection points: 6
#     Node 34, Type 1, BuildingBlock: CUKXOW_clean_sbu_0, # of connection points: 6
#     Node 35, Type 1, BuildingBlock: CUKXOW_clean_sbu_0, # of connection points: 6
#     Node 36, Type 1, BuildingBlock: CUKXOW_clean_sbu_0, # of connection points: 6
#     Node 37, Type 1, BuildingBlock: CUKXOW_clean_sbu_0, # of connection points: 6
#     Node 38, Type 1, BuildingBlock: CUKXOW_clean_sbu_0, # of connection points: 6
#     Node 39, Type 1, BuildingBlock: CUKXOW_clean_sbu_0, # of connection points: 6
#     Edge 40, Type (0, 1), BuildingBlock: UVAHIK_clean_linker_0, # of connection points: 2
#     Edge 41, Type (0, 1), BuildingBlock: UVAHIK_clean_linker_0, # of connection points: 2
#     Edge 42, Type (0, 1), BuildingBlock: UVAHIK_clean_linker_0, # of connection points: 2
#     Edge 43, Type (0, 1), BuildingBlock: UVAHIK_clean_linker_0, # of connection points: 2
#     Edge 44, Type (0, 1), BuildingBlock: UVAHIK_clean_linker_0, # of connection points: 2
#     Edge 45, Type (0, 1), BuildingBlock: UVAHIK_clean_linker_0, # of connection points: 2
#     Edge 46, Type (0, 1), BuildingBlock: UVAHIK_clean_linker_0, # of connection points: 2
#     Edge 47, Type (0, 1), BuildingBlock: UVAHIK_clean_linker_0, # of connection points: 2
#     Edge 48, Type (0, 1), BuildingBlock: UVAHIK_clean_linker_0, # of connection points: 2
#     Edge 49, Type (0, 1), BuildingBlock: UVAHIK_clean_linker_0, # of connection points: 2
#     Edge 50, Type (0, 1), BuildingBlock: UVAHIK_clean_linker_0, # of connection points: 2
#     Edge 51, Type (0, 1), BuildingBlock: UVAHIK_clean_linker_0, # of connection points: 2
#     Edge 52, Type (0, 1), BuildingBlock: UVAHIK_clean_linker_0, # of connection points: 2
#     Edge 53, Type (0, 1), BuildingBlock: UVAHIK_clean_linker_0, # of connection points: 2
#     Edge 54, Type (0, 1), BuildingBlock: UVAHIK_clean_linker_0, # of connection points: 2
#     Edge 55, Type (0, 1), BuildingBlock: UVAHIK_clean_linker_0, # of connection points: 2
#     Edge 56, Type (0, 1), BuildingBlock: UVAHIK_clean_linker_0, # of connection points: 2
#     Edge 57, Type (0, 1), BuildingBlock: UVAHIK_clean_linker_0, # of connection points: 2
#     Edge 58, Type (0, 1), BuildingBlock: UVAHIK_clean_linker_0, # of connection points: 2
#     Edge 59, Type (0, 1), BuildingBlock: UVAHIK_clean_linker_0, # of connection points: 2
#     Edge 60, Type (0, 1), BuildingBlock: UVAHIK_clean_linker_0, # of connection points: 2
#     Edge 61, Type (0, 1), BuildingBlock: UVAHIK_clean_linker_0, # of connection points: 2
#     Edge 62, Type (0, 1), BuildingBlock: UVAHIK_clean_linker_0, # of connection points: 2
#     Edge 63, Type (0, 1), BuildingBlock: UVAHIK_clean_linker_0, # of connection points: 2
#     Edge 64, Type (0, 1), BuildingBlock: UVAHIK_clean_linker_0, # of connection points: 2
#     Edge 65, Type (0, 1), BuildingBlock: UVAHIK_clean_linker_0, # of connection points: 2
#     Edge 66, Type (0, 1), BuildingBlock: UVAHIK_clean_linker_0, # of connection points: 2
#     Edge 67, Type (0, 1), BuildingBlock: UVAHIK_clean_linker_0, # of connection points: 2
#     Edge 68, Type (0, 1), BuildingBlock: UVAHIK_clean_linker_0, # of connection points: 2
#     Edge 69, Type (0, 1), BuildingBlock: UVAHIK_clean_linker_0, # of connection points: 2
#     Edge 70, Type (0, 1), BuildingBlock: UVAHIK_clean_linker_0, # of connection points: 2
#     Edge 71, Type (0, 1), BuildingBlock: UVAHIK_clean_linker_0, # of connection points: 2
#     Edge 72, Type (0, 1), BuildingBlock: UVAHIK_clean_linker_0, # of connection points: 2
#     Edge 73, Type (0, 1), BuildingBlock: UVAHIK_clean_linker_0, # of connection points: 2
#     Edge 74, Type (0, 1), BuildingBlock: UVAHIK_clean_linker_0, # of connection points: 2
#     Edge 75, Type (0, 1), BuildingBlock: UVAHIK_clean_linker_0, # of connection points: 2
#     Edge 76, Type (0, 1), BuildingBlock: UVAHIK_clean_linker_0, # of connection points: 2
#     Edge 77, Type (0, 1), BuildingBlock: UVAHIK_clean_linker_0, # of connection points: 2
#     Edge 78, Type (0, 1), BuildingBlock: UVAHIK_clean_linker_0, # of connection points: 2
#     Edge 79, Type (0, 1), BuildingBlock: UVAHIK_clean_linker_0, # of connection points: 2
#     Edge 80, Type (0, 1), BuildingBlock: UVAHIK_clean_linker_0, # of connection points: 2
#     Edge 81, Type (0, 1), BuildingBlock: UVAHIK_clean_linker_0, # of connection points: 2
#     Edge 82, Type (0, 1), BuildingBlock: UVAHIK_clean_linker_0, # of connection points: 2
#     Edge 83, Type (0, 1), BuildingBlock: UVAHIK_clean_linker_0, # of connection points: 2
#     Edge 84, Type (0, 1), BuildingBlock: UVAHIK_clean_linker_0, # of connection points: 2
#     Edge 85, Type (0, 1), BuildingBlock: UVAHIK_clean_linker_0, # of connection points: 2
#     Edge 86, Type (0, 1), BuildingBlock: UVAHIK_clean_linker_0, # of connection points: 2
#     Edge 87, Type (0, 1), BuildingBlock: UVAHIK_clean_linker_0, # of connection points: 2
#     Edge 88, Type (0, 1), BuildingBlock: UVAHIK_clean_linker_0, # of connection points: 2
#     Edge 89, Type (0, 1), BuildingBlock: UVAHIK_clean_linker_0, # of connection points: 2
#     Edge 90, Type (0, 1), BuildingBlock: UVAHIK_clean_linker_0, # of connection points: 2
#     Edge 91, Type (0, 1), BuildingBlock: UVAHIK_clean_linker_0, # of connection points: 2
#     Edge 92, Type (0, 1), BuildingBlock: UVAHIK_clean_linker_0, # of connection points: 2
#     Edge 93, Type (0, 1), BuildingBlock: UVAHIK_clean_linker_0, # of connection points: 2
#     Edge 94, Type (0, 1), BuildingBlock: UVAHIK_clean_linker_0, # of connection points: 2
#     Edge 95, Type (0, 1), BuildingBlock: UVAHIK_clean_linker_0, # of connection points: 2
#     Edge 96, Type (0, 1), BuildingBlock: UVAHIK_clean_linker_0, # of connection points: 2
#     Edge 97, Type (0, 1), BuildingBlock: UVAHIK_clean_linker_0, # of connection points: 2
#     Edge 98, Type (0, 1), BuildingBlock: UVAHIK_clean_linker_0, # of connection points: 2
#     Edge 99, Type (0, 1), BuildingBlock: UVAHIK_clean_linker_0, # of connection points: 2
#     Edge 100, Type (0, 1), BuildingBlock: UVAHIK_clean_linker_0, # of connection points: 2
#     Edge 101, Type (0, 1), BuildingBlock: UVAHIK_clean_linker_0, # of connection points: 2
#     Edge 102, Type (0, 1), BuildingBlock: UVAHIK_clean_linker_0, # of connection points: 2
#     Edge 103, Type (0, 1), BuildingBlock: UVAHIK_clean_linker_0, # of connection points: 2
#     Edge 104, Type (0, 1), BuildingBlock: UVAHIK_clean_linker_0, # of connection points: 2
#     Edge 105, Type (0, 1), BuildingBlock: UVAHIK_clean_linker_0, # of connection points: 2
#     Edge 106, Type (0, 1), BuildingBlock: UVAHIK_clean_linker_0, # of connection points: 2
#     Edge 107, Type (0, 1), BuildingBlock: UVAHIK_clean_linker_0, # of connection points: 2
#     Edge 108, Type (0, 1), BuildingBlock: UVAHIK_clean_linker_0, # of connection points: 2
#     Edge 109, Type (0, 1), BuildingBlock: UVAHIK_clean_linker_0, # of connection points: 2
#     Edge 110, Type (0, 1), BuildingBlock: UVAHIK_clean_linker_0, # of connection points: 2
#     Edge 111, Type (0, 1), BuildingBlock: UVAHIK_clean_linker_0, # of connection points: 2
#     Edge 112, Type (0, 1), BuildingBlock: UVAHIK_clean_linker_0, # of connection points: 2
#     Edge 113, Type (0, 1), BuildingBlock: UVAHIK_clean_linker_0, # of connection points: 2
#     Edge 114, Type (0, 1), BuildingBlock: UVAHIK_clean_linker_0, # of connection points: 2
#     Edge 115, Type (0, 1), BuildingBlock: UVAHIK_clean_linker_0, # of connection points: 2
#     Edge 116, Type (0, 1), BuildingBlock: UVAHIK_clean_linker_0, # of connection points: 2
#     Edge 117, Type (0, 1), BuildingBlock: UVAHIK_clean_linker_0, # of connection points: 2
#     Edge 118, Type (0, 1), BuildingBlock: UVAHIK_clean_linker_0, # of connection points: 2
#     Edge 119, Type (0, 1), BuildingBlock: UVAHIK_clean_linker_0, # of connection points: 2
#     Edge 120, Type (0, 1), BuildingBlock: UVAHIK_clean_linker_0, # of connection points: 2
#     Edge 121, Type (0, 1), BuildingBlock: UVAHIK_clean_linker_0, # of connection points: 2
#     Edge 122, Type (0, 1), BuildingBlock: UVAHIK_clean_linker_0, # of connection points: 2
#     Edge 123, Type (0, 1), BuildingBlock: UVAHIK_clean_linker_0, # of connection points: 2
#     Edge 124, Type (0, 1), BuildingBlock: UVAHIK_clean_linker_0, # of connection points: 2
#     Edge 125, Type (0, 1), BuildingBlock: UVAHIK_clean_linker_0, # of connection points: 2
#     Edge 126, Type (0, 1), BuildingBlock: UVAHIK_clean_linker_0, # of connection points: 2
#     Edge 127, Type (0, 1), BuildingBlock: UVAHIK_clean_linker_0, # of connection points: 2
#     Edge 128, Type (0, 1), BuildingBlock: UVAHIK_clean_linker_0, # of connection points: 2
#     Edge 129, Type (0, 1), BuildingBlock: UVAHIK_clean_linker_0, # of connection points: 2
#     Edge 130, Type (0, 1), BuildingBlock: UVAHIK_clean_linker_0, # of connection points: 2
#     Edge 131, Type (0, 1), BuildingBlock: UVAHIK_clean_linker_0, # of connection points: 2
#     Edge 132, Type (0, 1), BuildingBlock: UVAHIK_clean_linker_0, # of connection points: 2
#     Edge 133, Type (0, 1), BuildingBlock: UVAHIK_clean_linker_0, # of connection points: 2
#     Edge 134, Type (0, 1), BuildingBlock: UVAHIK_clean_linker_0, # of connection points: 2
#     Edge 135, Type (0, 1), BuildingBlock: UVAHIK_clean_linker_0, # of connection points: 2
# Relax obj value: 0.125
# Max RMSD: 0.224
# Mean RMSD: 0.168
data_MOF--net-gar--node1-AZAVOO_clean_sbu_0--node2-CUKXOW_clean_sbu_0--edge1-UVAHIK_clean_linker_0
_symmetry_space_group_name_H-M    P1
_symmetry_Int_Tables_number       1
_symmetry_cell_setting            triclinic
loop_
_symmetry_equiv_pos_as_xyz
'x, y, z'
_cell_length_a     71.577281
_cell_length_b     67.527054
_cell_length_c     69.235374
_cell_angle_alpha  95.76975
_cell_angle_beta   95.331324
_cell_angle_gamma 100.43624
loop_
_atom_site_label
_atom_site_type_symbol
_atom_site_fract_x
_atom_site_fract_y
_atom_site_fract_z
_atom_type_partial_charge
Mg0 Mg 0.01528 0.26313 0.38644 0.0
O1 O 0.01024 0.29196 0.4041 0.0
O2 O 0.98345 0.28328 0.41799 0.0
Mg3 Mg 0.97146 0.24957 0.40932 0.0
C4 C 0.99771 0.29646 0.4149 0.0
C5 C 0.06041 0.28344 0.39344 0.0
O6 O 0.06033 0.28 0.41177 0.0
O7 O 0.02529 0.25145 0.41437 0.0
O8 O 0.99779 0.2422 0.4269 0.0
O9 O 0.99783 0.26936 0.36056 0.0
O10 O 0.98621 0.2509 0.38293 0.0
C11 C 0.01592 0.24379 0.42751 0.0
C12 C 0.9832 0.25919 0.36725 0.0
O13 O 0.04505 0.27861 0.38184 0.0
Mg14 Mg 0.00034 0.81925 0.62131 0.0
O15 O 0.98884 0.78893 0.60306 0.0
O16 O 0.95697 0.78349 0.59787 0.0
Mg17 Mg 0.94814 0.81135 0.61376 0.0
C18 C 0.97288 0.77797 0.59567 0.0
C19 C 0.04334 0.81151 0.61483 0.0
O20 O 0.05714 0.81183 0.60354 0.0
O21 O 0.99303 0.83526 0.59591 0.0
O22 O 0.96132 0.83205 0.59165 0.0
O23 O 0.99845 0.80417 0.64869 0.0
O24 O 0.97508 0.81658 0.63403 0.0
C25 C 0.97793 0.83887 0.58694 0.0
C26 C 0.98089 0.80666 0.64757 0.0
O27 O 0.02889 0.81881 0.60937 0.0
Mg28 Mg 0.50521 0.76591 0.89306 0.0
O29 O 0.50623 0.79536 0.91324 0.0
O30 O 0.48014 0.79056 0.92891 0.0
Mg31 Mg 0.46282 0.75876 0.91911 0.0
C32 C 0.49563 0.80163 0.92546 0.0
C33 C 0.54037 0.76307 0.87431 0.0
O34 O 0.52787 0.74637 0.86796 0.0
O35 O 0.51413 0.75043 0.91901 0.0
O36 O 0.48735 0.74563 0.93365 0.0
O37 O 0.48832 0.77725 0.86956 0.0
O38 O 0.47571 0.75897 0.89161 0.0
C39 C 0.5047 0.74379 0.93256 0.0
C40 C 0.4733 0.769 0.87701 0.0
O41 O 0.53582 0.77584 0.88691 0.0
Mg42 Mg 0.50972 0.31894 0.13082 0.0
O43 O 0.49513 0.28956 0.11255 0.0
O44 O 0.46337 0.28583 0.11021 0.0
Mg45 Mg 0.45782 0.31435 0.12815 0.0
C46 C 0.4785 0.2795 0.10621 0.0
C47 C 0.55096 0.30936 0.12291 0.0
O48 O 0.56387 0.30629 0.11123 0.0
O49 O 0.50158 0.33616 0.10662 0.0
O50 O 0.47005 0.33449 0.10525 0.0
O51 O 0.50914 0.30323 0.15786 0.0
O52 O 0.4861 0.31803 0.14586 0.0
C53 C 0.48619 0.34065 0.09918 0.0
C54 C 0.49214 0.3072 0.15845 0.0
O55 O 0.53625 0.31551 0.1162 0.0
Mg56 Mg 0.97898 0.76649 0.16159 0.0
O57 O 0.9784 0.73584 0.14369 0.0
O58 O 0.9514 0.72798 0.12336 0.0
Mg59 Mg 0.934 0.75284 0.1294 0.0
C60 C 0.96739 0.72408 0.13004 0.0
C61 C 0.02094 0.78469 0.17997 0.0
O62 O 0.01372 0.80125 0.18156 0.0
O63 O 0.98521 0.78292 0.13492 0.0
O64 O 0.95664 0.77531 0.11692 0.0
O65 O 0.96374 0.7518 0.18473 0.0
O66 O 0.94926 0.76188 0.159 0.0
C67 C 0.97409 0.78456 0.11984 0.0
C68 C 0.94796 0.75369 0.17495 0.0
O69 O 0.01046 0.76824 0.17171 0.0
Mg70 Mg 0.50636 0.76837 0.35944 0.0
O71 O 0.50289 0.79716 0.37888 0.0
O72 O 0.47259 0.79112 0.38586 0.0
Mg73 Mg 0.45743 0.75935 0.37282 0.0
C74 C 0.48901 0.80264 0.38707 0.0
C75 C 0.54627 0.7631 0.35573 0.0
O76 O 0.53526 0.74499 0.35285 0.0
O77 O 0.50875 0.75206 0.38674 0.0
O78 O 0.47829 0.74669 0.39315 0.0
O79 O 0.49454 0.78017 0.33249 0.0
O80 O 0.47726 0.76097 0.35081 0.0
C81 C 0.49571 0.74503 0.39704 0.0
C82 C 0.4779 0.77118 0.33613 0.0
O83 O 0.53874 0.77824 0.36067 0.0
Mg84 Mg 0.47585 0.26354 0.66033 0.0
O85 O 0.47609 0.23396 0.64089 0.0
O86 O 0.44974 0.22705 0.61959 0.0
Mg87 Mg 0.43233 0.25179 0.62591 0.0
C88 C 0.4655 0.22282 0.62655 0.0
C89 C 0.51868 0.28218 0.67546 0.0
O90 O 0.51267 0.29894 0.67222 0.0
O91 O 0.48335 0.28208 0.63537 0.0
O92 O 0.45583 0.27519 0.61554 0.0
O93 O 0.45946 0.24683 0.68158 0.0
O94 O 0.44613 0.25873 0.6563 0.0
C95 C 0.47317 0.2845 0.61993 0.0
C96 C 0.44407 0.24922 0.67141 0.0
O97 O 0.50709 0.2653 0.67153 0.0
Mg98 Mg 0.00392 0.26629 0.85769 0.0
O99 O 0.0007 0.29568 0.87619 0.0
O100 O 0.9704 0.29057 0.8832 0.0
Mg101 Mg 0.95499 0.25859 0.8711 0.0
C102 C 0.98696 0.30175 0.88411 0.0
C103 C 0.04409 0.26105 0.85438 0.0
O104 O 0.03326 0.24286 0.85121 0.0
O105 O 0.00603 0.25094 0.88556 0.0
O106 O 0.97561 0.24636 0.8921 0.0
O107 O 0.99227 0.27725 0.8302 0.0
O108 O 0.97481 0.25898 0.84908 0.0
C109 C 0.99298 0.24455 0.8961 0.0
C110 C 0.97557 0.26864 0.83403 0.0
O111 O 0.03631 0.27605 0.85915 0.0
Mg112 Mg 0.40771 0.08014 0.26306 0.0
O113 O 0.38605 0.05063 0.26489 0.0
O114 O 0.37399 0.05555 0.2933 0.0
Mg115 Mg 0.38673 0.08696 0.30892 0.0
C116 C 0.37499 0.0445 0.27748 0.0
C117 C 0.41218 0.05451 0.22294 0.0
O118 O 0.41109 0.03922 0.23337 0.0
O119 O 0.38302 0.09601 0.25533 0.0
O120 O 0.37147 0.10028 0.28402 0.0
O121 O 0.43067 0.06768 0.27894 0.0
O122 O 0.41188 0.08558 0.29344 0.0
C123 C 0.37112 0.1024 0.26586 0.0
C124 C 0.42497 0.07482 0.29495 0.0
O125 O 0.41034 0.07176 0.23085 0.0
Mg126 Mg 0.3111 0.16047 0.49385 0.0
O127 O 0.30935 0.18325 0.51994 0.0
O128 O 0.33827 0.20237 0.52942 0.0
Mg129 Mg 0.35889 0.19108 0.50949 0.0
C130 C 0.32045 0.19759 0.53114 0.0
C131 C 0.27028 0.14757 0.50282 0.0
O132 O 0.28079 0.1471 0.5193 0.0
O133 O 0.31343 0.18598 0.47485 0.0
O134 O 0.34339 0.20288 0.48369 0.0
O135 O 0.31738 0.13807 0.51348 0.0
O136 O 0.33962 0.16118 0.50402 0.0
C137 C 0.32735 0.2002 0.47307 0.0
C138 C 0.33514 0.14691 0.51481 0.0
O139 O 0.27856 0.15323 0.48828 0.0
Mg140 Mg 0.13263 0.99339 0.78659 0.0
O141 O 0.15054 0.02551 0.79159 0.0
O142 O 0.16879 0.02926 0.82018 0.0
Mg143 Mg 0.16253 0.99912 0.83313 0.0
C144 C 0.16309 0.0362 0.80465 0.0
C145 C 0.11325 0.9826 0.74448 0.0
O146 O 0.10662 0.96624 0.75241 0.0
O147 O 0.15869 0.98132 0.77909 0.0
O148 O 0.17608 0.98347 0.80801 0.0
O149 O 0.10986 0.00377 0.80201 0.0
O150 O 0.13376 0.99199 0.81655 0.0
C151 C 0.17342 0.97851 0.78948 0.0
C152 C 0.11875 -0.00011 0.81795 0.0
O153 O 0.12479 0.99706 0.75491 0.0
Mg154 Mg 0.22052 0.89702 0.03102 0.0
O155 O 0.21472 0.87579 0.00165 0.0
O156 O 0.23915 0.85921 0.00167 0.0
Mg157 Mg 0.26091 0.87074 0.02842 0.0
C158 C 0.22341 0.86265 0.99374 0.0
C159 C 0.1913 0.92211 0.03697 0.0
O160 O 0.20812 0.93257 0.04462 0.0
O161 O 0.21309 0.87056 0.04917 0.0
O162 O 0.23941 0.8571 0.04826 0.0
O163 O 0.23701 0.92178 0.0167 0.0
O164 O 0.24974 0.89887 0.03103 0.0
C165 C 0.22321 0.85777 0.05435 0.0
C166 C 0.252 0.91438 0.02153 0.0
O167 O 0.19037 0.90407 0.02899 0.0
Mg168 Mg 0.2696 0.44089 0.05134 0.0
O169 O 0.27567 0.42157 0.02442 0.0
O170 O 0.30323 0.41108 0.03072 0.0
Mg171 Mg 0.31425 0.42293 0.06246 0.0
C172 C 0.28847 0.41189 0.0192 0.0
C173 C 0.22454 0.43595 0.0441 0.0
O174 O 0.22534 0.43229 0.06241 0.0
O175 O 0.26003 0.41208 0.06523 0.0
O176 O 0.288 0.40212 0.07091 0.0
O177 O 0.2868 0.46798 0.04147 0.0
O178 O 0.29872 0.44816 0.06092 0.0
C179 C 0.26992 0.39953 0.07128 0.0
C180 C 0.30159 0.46298 0.05052 0.0
O181 O 0.23989 0.43965 0.03619 0.0
Mg182 Mg 0.79805 0.15775 0.98999 0.0
O183 O 0.79856 0.17791 0.01879 0.0
O184 O 0.82651 0.19943 0.02479 0.0
Mg185 Mg 0.84389 0.19247 -0.00071 0.0
C186 C 0.80996 0.19242 0.02947 0.0
C187 C 0.75979 0.13909 0.00432 0.0
O188 O 0.77217 0.1364 0.01859 0.0
O189 O 0.79388 0.18361 0.97242 0.0
O190 O 0.8229 0.20339 0.97677 0.0
O191 O 0.81101 0.13543 0.00554 0.0
O192 O 0.82803 0.16061 0.99299 0.0
C193 C 0.80557 0.19906 0.96876 0.0
C194 C 0.82762 0.145 0.0024 0.0
O195 O 0.76591 0.14771 0.99002 0.0
Mg196 Mg 0.10858 0.47849 0.28912 0.0
O197 O 0.1298 0.50869 0.2926 0.0
O198 O 0.14518 0.51344 0.32281 0.0
Mg199 Mg 0.13304 0.48672 0.3388 0.0
C200 C 0.14222 0.51914 0.30594 0.0
C201 C 0.08689 0.47554 0.24909 0.0
O202 O 0.07359 0.47153 0.26077 0.0
O203 O 0.13306 0.46154 0.28705 0.0
O204 O 0.14613 0.46533 0.31814 0.0
O205 O 0.08641 0.49447 0.29955 0.0
O206 O 0.10625 0.48179 0.31905 0.0
C207 C 0.14528 0.45799 0.30024 0.0
C208 C 0.09288 0.49218 0.31711 0.0
O209 O 0.10432 0.47891 0.25627 0.0
Mg210 Mg 0.76953 0.94285 0.54303 0.0
O211 O 0.77298 0.91987 0.51772 0.0
O212 O 0.79995 0.90824 0.52363 0.0
Mg213 Mg 0.81327 0.92319 0.55403 0.0
C214 C 0.78468 0.90866 0.51271 0.0
C215 C 0.72444 0.93869 0.53764 0.0
O216 O 0.7259 0.936 0.55621 0.0
O217 O 0.75987 0.91683 0.56055 0.0
O218 O 0.78723 0.90562 0.56616 0.0
O219 O 0.78706 0.96742 0.52976 0.0
O220 O 0.79896 0.94916 0.55086 0.0
C221 C 0.76942 0.9045 0.56765 0.0
C222 C 0.80186 0.96275 0.53911 0.0
O223 O 0.73942 0.94174 0.52902 0.0
Mg224 Mg 0.87141 0.06235 0.24969 0.0
O225 O 0.85785 0.02989 0.25458 0.0
O226 O 0.85303 0.03153 0.28609 0.0
Mg227 Mg 0.86416 0.06374 0.30127 0.0
C228 C 0.85187 0.02153 0.26921 0.0
C229 C 0.87528 0.06988 0.20912 0.0
O230 O 0.88165 0.08707 0.22045 0.0
O231 O 0.84278 0.0722 0.25083 0.0
O232 O 0.84079 0.07534 0.28301 0.0
O233 O 0.90065 0.0566 0.25744 0.0
O234 O 0.88318 0.06899 0.27858 0.0
C235 C 0.83439 0.07721 0.26555 0.0
C236 C 0.89876 0.06295 0.27529 0.0
O237 O 0.86726 0.05472 0.2168 0.0
Mg238 Mg 0.29584 0.65479 0.49982 0.0
O239 O 0.29505 0.67533 0.52801 0.0
O240 O 0.3212 0.69951 0.53288 0.0
Mg241 Mg 0.33944 0.69294 0.50801 0.0
C242 C 0.30521 0.69117 0.53795 0.0
C243 C 0.25177 0.63952 0.48578 0.0
O244 O 0.257 0.64451 0.46895 0.0
O245 O 0.28937 0.6793 0.48132 0.0
O246 O 0.31723 0.70119 0.48499 0.0
O247 O 0.31078 0.63463 0.5163 0.0
O248 O 0.32596 0.66016 0.50265 0.0
C249 C 0.29994 0.69529 0.47713 0.0
C250 C 0.32681 0.64517 0.5127 0.0
O251 O 0.26426 0.64213 0.50057 0.0
Mg252 Mg 0.37133 0.5679 0.74136 0.0
O253 O 0.35625 0.53642 0.74729 0.0
O254 O 0.3534 0.53841 0.77925 0.0
Mg255 Mg 0.36739 0.5702 0.79377 0.0
C256 C 0.35061 0.52845 0.76222 0.0
C257 C 0.36902 0.57373 0.69867 0.0
O258 O 0.37242 0.59235 0.70759 0.0
O259 O 0.34401 0.58005 0.74446 0.0
O260 O 0.34416 0.58314 0.77697 0.0
O261 O 0.39998 0.55986 0.74739 0.0
O262 O 0.38476 0.5742 0.7696 0.0
C263 C 0.33694 0.58553 0.75996 0.0
C264 C 0.39941 0.56678 0.76541 0.0
O265 O 0.36483 0.55918 0.70875 0.0
Mg266 Mg 0.61279 0.98413 0.78922 0.0
O267 O 0.63426 0.01415 0.79489 0.0
O268 O 0.64714 0.0189 0.82605 0.0
Mg269 Mg 0.63418 0.9911 0.84022 0.0
C270 C 0.64553 0.02471 0.80909 0.0
C271 C 0.60538 0.00212 0.75108 0.0
O272 O 0.60219 0.01591 0.7645 0.0
O273 O 0.63745 0.96715 0.78841 0.0
O274 O 0.64865 0.9706 0.82007 0.0
O275 O 0.58978 -0.00041 0.79891 0.0
O276 O 0.60857 0.98618 0.81881 0.0
C277 C 0.64892 0.9635 0.80228 0.0
C278 C 0.59528 0.99659 0.81653 0.0
O279 O 0.6109 0.98644 0.75645 0.0
Mg280 Mg 0.79858 0.64887 0.99097 0.0
O281 O 0.79974 0.6724 0.01728 0.0
O282 O 0.83025 0.68709 0.02671 0.0
Mg283 Mg 0.84841 0.67307 0.00557 0.0
C284 C 0.81246 0.68504 0.02866 0.0
C285 C 0.75692 0.64138 0.96931 0.0
O286 O 0.76575 0.63858 0.95374 0.0
O287 O 0.80384 0.67404 0.97209 0.0
O288 O 0.83484 0.68755 0.9801 0.0
O289 O 0.80153 0.62563 0.01052 0.0
O290 O 0.82606 0.64525 0.00033 0.0
C291 C 0.81879 0.68672 0.96994 0.0
C292 C 0.81984 0.63171 0.01134 0.0
O293 O 0.76665 0.64646 0.98592 0.0
Mg294 Mg 0.90853 0.57929 0.76177 0.0
O295 O 0.88436 0.55189 0.76268 0.0
O296 O 0.87257 0.55729 0.79115 0.0
Mg297 Mg 0.88953 0.58652 0.80874 0.0
C298 C 0.8725 0.54662 0.7748 0.0
C299 C 0.91053 0.55411 0.72102 0.0
O300 O 0.9088 0.53873 0.73136 0.0
O301 O 0.88628 0.59902 0.75613 0.0
O302 O 0.87772 0.60503 0.78615 0.0
O303 O 0.92989 0.5634 0.77629 0.0
O304 O 0.91347 0.58313 0.79205 0.0
C305 C 0.87703 0.60785 0.76815 0.0
C306 C 0.92541 0.57104 0.79275 0.0
O307 O 0.90981 0.57164 0.72919 0.0
Mg308 Mg 0.71609 0.39208 0.52434 0.0
O309 O 0.71403 0.37103 0.49519 0.0
O310 O 0.73958 0.35622 0.49759 0.0
Mg311 Mg 0.75854 0.36864 0.52613 0.0
C312 C 0.72416 0.35881 0.48822 0.0
C313 C 0.67628 0.39945 0.53355 0.0
O314 O 0.68433 0.39733 0.55087 0.0
O315 O 0.70842 0.36542 0.54221 0.0
O316 O 0.73579 0.35375 0.54406 0.0
O317 O 0.73292 0.41766 0.51129 0.0
O318 O 0.74566 0.39576 0.52724 0.0
C319 C 0.71886 0.35345 0.54861 0.0
C320 C 0.74803 0.41116 0.5176 0.0
O321 O 0.68519 0.39657 0.51876 0.0
Mg322 Mg 0.61794 0.48439 0.27985 0.0
O323 O 0.63612 0.51653 0.28494 0.0
O324 O 0.65165 0.52129 0.31504 0.0
Mg325 Mg 0.64378 0.49195 0.3289 0.0
C326 C 0.64758 0.52764 0.2987 0.0
C327 C 0.61212 0.47279 0.23435 0.0
O328 O 0.61623 0.45565 0.23928 0.0
O329 O 0.64445 0.47115 0.27565 0.0
O330 O 0.65886 0.4751 0.30623 0.0
O331 O 0.59397 0.4956 0.29286 0.0
O332 O 0.61664 0.48402 0.30964 0.0
C333 C 0.65799 0.46883 0.28805 0.0
C334 C 0.6016 0.49197 0.30952 0.0
O335 O 0.61233 0.48731 0.2476 0.0
Tb336 Tb 0.00974 0.04886 0.01846 0.0
C337 C 0.01744 0.0171 0.98604 0.0
Tb338 Tb 0.9977 0.0028 0.02249 0.0
O339 O 0.04023 0.0493 0.02721 0.0
O340 O 0.01935 0.0273 0.03507 0.0
O341 O 0.0115 0.03451 0.98933 0.0
C342 C 0.99763 0.96503 0.03073 0.0
O343 O 0.01557 0.00323 0.9984 0.0
C344 C 0.97041 0.02029 0.00804 0.0
C345 C 0.98675 0.03519 0.0534 0.0
O346 O 0.99042 0.96979 0.01427 0.0
O347 O 0.00469 0.98145 0.04242 0.0
O348 O 0.96735 0.00382 0.0165 0.0
O349 O 0.98792 0.02435 0.00577 0.0
O350 O 0.98933 0.01624 0.04956 0.0
O351 O 0.99293 0.05001 0.04298 0.0
C352 C 0.01156 0.08733 0.01163 0.0
O353 O 0.99799 0.07675 0.01958 0.0
O354 O 0.02407 0.0763 0.0077 0.0
C355 C 0.03705 0.03213 0.0343 0.0
Tb356 Tb 0.25369 0.80356 0.27257 0.0
C357 C 0.28698 0.77817 0.26891 0.0
Tb358 Tb 0.24375 0.75747 0.26603 0.0
O359 O 0.24834 0.80364 0.30333 0.0
O360 O 0.25781 0.77953 0.28894 0.0
O361 O 0.28148 0.7958 0.26754 0.0
C362 C 0.2314 0.71925 0.27236 0.0
O363 O 0.27476 0.76148 0.27125 0.0
C364 C 0.24569 0.77521 0.23399 0.0
C365 C 0.2102 0.78312 0.26779 0.0
O366 O 0.23973 0.72471 0.25733 0.0
O367 O 0.23004 0.73527 0.28373 0.0
O368 O 0.24863 0.7569 0.23515 0.0
O369 O 0.23981 0.78137 0.24961 0.0
O370 O 0.21552 0.76535 0.26918 0.0
O371 O 0.22276 0.79995 0.26665 0.0
C372 C 0.26672 0.84226 0.26814 0.0
O373 O 0.25946 0.83591 0.28341 0.0
O374 O 0.26649 0.82683 0.2553 0.0
C375 C 0.25169 0.78551 0.30448 0.0
Tb376 Tb 0.53075 0.0181 0.50984 0.0
C377 C 0.53011 0.01568 0.55468 0.0
Tb378 Tb 0.49386 0.02299 0.52754 0.0
O379 O 0.54412 0.04899 0.52389 0.0
O380 O 0.51505 0.04119 0.51481 0.0
O381 O 0.53817 0.01034 0.53895 0.0
C382 C 0.4713 0.04082 0.54917 0.0
O383 O 0.51358 0.02209 0.55356 0.0
C384 C 0.49496 0.98602 0.5134 0.0
C385 C 0.49466 0.0246 0.48225 0.0
O386 O 0.48951 0.04692 0.54919 0.0
O387 O 0.46564 0.02443 0.53693 0.0
O388 O 0.47909 0.99248 0.51536 0.0
O389 O 0.50886 0.99928 0.5217 0.0
O390 O 0.48672 0.03031 0.49803 0.0
O391 O 0.51108 0.01789 0.48347 0.0
C392 C 0.55744 0.00453 0.49063 0.0
O393 O 0.55952 0.02222 0.50072 0.0
O394 O 0.54023 0.99468 0.49112 0.0
C395 C 0.52789 0.05504 0.52359 0.0
Tb396 Tb 0.25628 0.28662 0.78889 0.0
C397 C 0.26004 0.32094 0.76026 0.0
Tb398 Tb 0.24651 0.27448 0.74441 0.0
O399 O 0.28043 0.27035 0.78848 0.0
O400 O 0.27127 0.28339 0.76437 0.0
O401 O 0.25899 0.31633 0.77841 0.0
C402 C 0.2516 0.26362 0.70768 0.0
O403 O 0.25677 0.307 0.7447 0.0
C404 C 0.21693 0.27564 0.76366 0.0
C405 C 0.24067 0.24124 0.77355 0.0
O406 O 0.24114 0.27666 0.71303 0.0
O407 O 0.25874 0.25666 0.72291 0.0
O408 O 0.21605 0.26483 0.74683 0.0
O409 O 0.2332 0.2869 0.76751 0.0
O410 O 0.24525 0.24534 0.75601 0.0
O411 O 0.24134 0.2556 0.78826 0.0
C412 C 0.26031 0.30353 0.82577 0.0
O413 O 0.24497 0.29146 0.81699 0.0
O414 O 0.27326 0.30587 0.81384 0.0
C415 C 0.28251 0.27254 0.77035 0.0
Tb416 Tb 0.02864 0.04715 0.47874 0.0
C417 C 0.99624 0.03149 0.50378 0.0
Tb418 Tb 0.04018 0.03788 0.52042 0.0
O419 O 0.01647 0.01519 0.46945 0.0
O420 O 0.03906 0.02361 0.49163 0.0
O421 O 0.00073 0.0424 0.48935 0.0
C422 C 0.04578 0.02149 0.55337 0.0
O423 O 0.00935 0.02604 0.51596 0.0
C424 C 0.04065 0.07612 0.5167 0.0
C425 C 0.07248 0.05532 0.49608 0.0
O426 O 0.03662 0.03616 0.55121 0.0
O427 O 0.05186 0.016 0.53695 0.0
O428 O 0.05152 0.07014 0.53012 0.0
O429 O 0.02924 0.06101 0.50757 0.0
O430 O 0.06821 0.04419 0.51039 0.0
O431 O 0.05924 0.06001 0.4835 0.0
C432 C 0.02239 0.06215 0.44514 0.0
O433 O 0.0318 0.04774 0.4477 0.0
O434 O 0.01658 0.06818 0.46153 0.0
C435 C 0.02711 0.00876 0.48271 0.0
Tb436 Tb 0.25466 0.77804 0.76381 0.0
C437 C 0.22586 0.78663 0.79433 0.0
Tb438 Tb 0.21206 0.77257 0.74898 0.0
O439 O 0.26127 0.80375 0.74686 0.0
O440 O 0.23503 0.79705 0.7576 0.0
O441 O 0.2435 0.78446 0.79143 0.0
C442 C 0.17659 0.77767 0.73949 0.0
O443 O 0.21156 0.78344 0.77993 0.0
C444 C 0.22434 0.73912 0.75362 0.0
C445 C 0.24158 0.76372 0.71955 0.0
O446 O 0.18136 0.76492 0.75099 0.0
O447 O 0.19175 0.78727 0.73305 0.0
O448 O 0.21024 0.7401 0.74076 0.0
O449 O 0.22966 0.75596 0.76398 0.0
O450 O 0.2255 0.77071 0.72158 0.0
O451 O 0.25378 0.76239 0.73477 0.0
C452 C 0.28871 0.77605 0.78148 0.0
O453 O 0.28214 0.79257 0.77996 0.0
O454 O 0.27612 0.76055 0.77303 0.0
C455 C 0.24442 0.80829 0.74707 0.0
Tb456 Tb 0.47946 0.03491 0.01231 0.0
C457 C 0.508 0.00548 0.00721 0.0
Tb458 Tb 0.5224 0.05323 0.01651 0.0
O459 O 0.47955 0.02421 0.98156 0.0
O460 O 0.49889 0.05004 0.99478 0.0
O461 O 0.49096 0.00736 0.0124 0.0
C462 C 0.55938 0.06519 0.01272 0.0
O463 O 0.52158 0.02136 0.00577 0.0
C464 C 0.50701 0.04986 0.04921 0.0
C465 C 0.49375 0.08266 0.02142 0.0
O466 O 0.55269 0.05508 0.02636 0.0
O467 O 0.54525 0.06857 0.00119 0.0
O468 O 0.5215 0.06389 0.04732 0.0
O469 O 0.50301 0.03777 0.03374 0.0
O470 O 0.51094 0.08091 0.01649 0.0
O471 O 0.48022 0.06671 0.02278 0.0
C472 C 0.44289 0.0221 0.01688 0.0
O473 O 0.44898 0.03295 0.00349 0.0
O474 O 0.45739 0.01861 0.0278 0.0
C475 C 0.49435 0.03772 0.97941 0.0
Tb476 Tb 0.24907 0.28044 0.26677 0.0
C477 C 0.28396 0.2836 0.29965 0.0
Tb478 Tb 0.29068 0.29098 0.25601 0.0
O479 O 0.24458 0.25056 0.24905 0.0
O480 O 0.27164 0.26522 0.26184 0.0
O481 O 0.26526 0.28233 0.29532 0.0
C482 C 0.32594 0.28938 0.24773 0.0
O483 O 0.29638 0.28583 0.28648 0.0
C484 C 0.27289 0.32136 0.26159 0.0
C485 C 0.25585 0.2871 0.22389 0.0
O486 O 0.3216 0.30233 0.26097 0.0
O487 O 0.31043 0.2776 0.23903 0.0
O488 O 0.28614 0.32137 0.24996 0.0
O489 O 0.27158 0.30582 0.27019 0.0
O490 O 0.27347 0.28374 0.22765 0.0
O491 O 0.24452 0.2895 0.23771 0.0
C492 C 0.21712 0.28289 0.28277 0.0
O493 O 0.22562 0.26742 0.28252 0.0
O494 O 0.22634 0.29669 0.27357 0.0
C495 C 0.26278 0.25021 0.25037 0.0
Tb496 Tb 0.52121 0.5345 0.96974 0.0
C497 C 0.49167 0.52129 0.99849 0.0
Tb498 Tb 0.53668 0.52776 0.01106 0.0
O499 O 0.50868 0.50233 0.96292 0.0
O500 O 0.53325 0.51202 0.98263 0.0
O501 O 0.49461 0.53085 0.98286 0.0
C502 C 0.54499 0.51284 0.04431 0.0
O503 O 0.50582 0.51665 0.00998 0.0
C504 C 0.53611 0.56541 0.0058 0.0
C505 C 0.56605 0.5434 0.98311 0.0
O506 O 0.5478 0.50519 0.02712 0.0
O507 O 0.53763 0.52888 0.04276 0.0
O508 O 0.54825 0.56026 0.01858 0.0
O509 O 0.52416 0.54995 0.99824 0.0
O510 O 0.56352 0.53355 0.99859 0.0
O511 O 0.55169 0.54717 0.97137 0.0
C512 C 0.51345 0.54766 0.93556 0.0
O513 O 0.52197 0.53262 0.93822 0.0
O514 O 0.50913 0.55528 0.95216 0.0
C515 C 0.52081 0.49677 0.97538 0.0
Tb516 Tb 0.7658 0.27159 0.2611 0.0
C517 C 0.73798 0.28135 0.29153 0.0
Tb518 Tb 0.7247 0.27201 0.24527 0.0
O519 O 0.77158 0.30417 0.26991 0.0
O520 O 0.75154 0.29131 0.24592 0.0
O521 O 0.7549 0.27668 0.28907 0.0
C522 C 0.69053 0.28177 0.23784 0.0
O523 O 0.72457 0.28082 0.27672 0.0
C524 C 0.73222 0.23629 0.24976 0.0
C525 C 0.75295 0.26312 0.21523 0.0
O526 O 0.70606 0.29442 0.24496 0.0
O527 O 0.69435 0.2638 0.23442 0.0
O528 O 0.71929 0.2393 0.23657 0.0
O529 O 0.73889 0.25257 0.26065 0.0
O530 O 0.73732 0.2708 0.21765 0.0
O531 O 0.76458 0.25994 0.23024 0.0
C532 C 0.79898 0.26092 0.27129 0.0
O533 O 0.79689 0.27629 0.26204 0.0
O534 O 0.7824 0.25155 0.27481 0.0
C535 C 0.7585 0.30748 0.25699 0.0
Tb536 Tb 0.97613 0.53043 0.51156 0.0
C537 C 0.00278 0.49941 0.50377 0.0
Tb538 Tb 0.01954 0.54675 0.51446 0.0
O539 O 0.97503 0.52081 0.48035 0.0
O540 O 0.99544 0.5455 0.49399 0.0
O541 O 0.98619 0.50199 0.50971 0.0
C542 C 0.05602 0.55773 0.50829 0.0
O543 O 0.01702 0.51482 0.50275 0.0
C544 C 0.00525 0.54294 0.54767 0.0
C545 C 0.99258 0.5777 0.52181 0.0
O546 O 0.05015 0.54852 0.52282 0.0
O547 O 0.04138 0.56075 0.49731 0.0
O548 O 0.02017 0.55642 0.54572 0.0
O549 O 0.00023 0.53148 0.53188 0.0
O550 O 0.00935 0.57526 0.51616 0.0
O551 O 0.97856 0.56221 0.52317 0.0
C552 C 0.93959 0.51893 0.51694 0.0
O553 O 0.94575 0.52991 0.50367 0.0
O554 O 0.95403 0.5146 0.52733 0.0
C555 C 0.99009 0.53399 0.47823 0.0
Tb556 Tb 0.75351 0.77675 0.29048 0.0
C557 C 0.7653 0.81128 0.26442 0.0
Tb558 Tb 0.74753 0.76577 0.2455 0.0
O559 O 0.78475 0.78212 0.29081 0.0
O560 O 0.76697 0.76209 0.26893 0.0
O561 O 0.7602 0.80689 0.28168 0.0
C562 C 0.75414 0.75706 0.20871 0.0
O563 O 0.76312 0.79738 0.2489 0.0
C564 C 0.71718 0.7715 0.26174 0.0
C565 C 0.73503 0.73151 0.27197 0.0
O566 O 0.74206 0.76816 0.21416 0.0
O567 O 0.76213 0.75072 0.22385 0.0
O568 O 0.71647 0.75988 0.2454 0.0
O569 O 0.73413 0.78072 0.26689 0.0
O570 O 0.73965 0.73564 0.25444 0.0
O571 O 0.73777 0.74547 0.28747 0.0
C572 C 0.74951 0.78582 0.32804 0.0
O573 O 0.76231 0.77634 0.32153 0.0
O574 O 0.73883 0.78994 0.31338 0.0
C575 C 0.78392 0.77117 0.27412 0.0
Tb576 Tb 0.75469 0.30693 0.76354 0.0
C577 C 0.78617 0.28045 0.76406 0.0
Tb578 Tb 0.74213 0.26127 0.7643 0.0
O579 O 0.76999 0.30983 0.79291 0.0
O580 O 0.74561 0.28751 0.78461 0.0
O581 O 0.78152 0.29751 0.75899 0.0
C582 C 0.73529 0.22334 0.77342 0.0
O583 O 0.77335 0.26524 0.76853 0.0
C584 C 0.73712 0.27342 0.72981 0.0
C585 C 0.71054 0.28748 0.76098 0.0
O586 O 0.73489 0.23947 0.78511 0.0
O587 O 0.73966 0.22857 0.75664 0.0
O588 O 0.72687 0.25735 0.73502 0.0
O589 O 0.75074 0.28061 0.74303 0.0
O590 O 0.715 0.27077 0.76725 0.0
O591 O 0.72365 0.3026 0.75684 0.0
C592 C 0.76219 0.3457 0.75682 0.0
O593 O 0.75383 0.33896 0.77136 0.0
O594 O 0.76608 0.33055 0.7459 0.0
C595 C 0.75912 0.29413 0.79798 0.0
Tb596 Tb 0.74355 0.78202 0.76763 0.0
C597 C 0.77658 0.77526 0.79749 0.0
Tb598 Tb 0.78454 0.78802 0.75555 0.0
O599 O 0.7429 0.74946 0.7683 0.0
O600 O 0.75927 0.76575 0.74969 0.0
O601 O 0.75943 0.78017 0.79539 0.0
C602 C 0.81913 0.78405 0.74628 0.0
O603 O 0.78766 0.77499 0.78312 0.0
C604 C 0.77221 0.82102 0.76684 0.0
C605 C 0.75124 0.79342 0.72525 0.0
O606 O 0.81581 0.79696 0.76012 0.0
O607 O 0.80303 0.77359 0.73762 0.0
O608 O 0.78443 0.82036 0.75414 0.0
O609 O 0.76884 0.80423 0.77343 0.0
O610 O 0.76841 0.78858 0.72762 0.0
O611 O 0.74005 0.79417 0.73952 0.0
C612 C 0.70973 0.78673 0.77851 0.0
O613 O 0.72587 0.79897 0.78433 0.0
O614 O 0.7126 0.77187 0.76642 0.0
C615 C 0.75539 0.74881 0.75591 0.0
Tb616 Tb 0.51278 0.55051 0.52068 0.0
C617 C 0.51327 0.5181 0.48561 0.0
Tb618 Tb 0.50026 0.50552 0.52594 0.0
O619 O 0.54252 0.54658 0.5211 0.0
O620 O 0.52372 0.52899 0.53653 0.0
O621 O 0.51013 0.5366 0.49063 0.0
C622 C 0.49952 0.4667 0.53117 0.0
O623 O 0.5119 0.504 0.49776 0.0
C624 C 0.47253 0.52462 0.51654 0.0
C625 C 0.49681 0.53831 0.56015 0.0
O626 O 0.51434 0.48124 0.5351 0.0
O627 O 0.48508 0.47398 0.52414 0.0
O628 O 0.47057 0.50902 0.52625 0.0
O629 O 0.4889 0.52728 0.5107 0.0
O630 O 0.49833 0.51914 0.55534 0.0
O631 O 0.50144 0.55281 0.54882 0.0
C632 C 0.51525 0.58962 0.51573 0.0
O633 O 0.52903 0.5796 0.51481 0.0
O634 O 0.50015 0.57767 0.51971 0.0
C635 C 0.54027 0.53143 0.5313 0.0
Tb636 Tb 0.03095 0.51872 0.01134 0.0
C637 C 0.0257 0.51226 0.05474 0.0
Tb638 Tb 0.99228 0.52214 0.02557 0.0
O639 O 0.04381 0.54811 0.02864 0.0
O640 O 0.0153 0.54184 0.01683 0.0
O641 O 0.03536 0.5084 0.0398 0.0
C642 C 0.96569 0.53606 0.04453 0.0
O643 O 0.00945 0.51913 0.05267 0.0
C644 C 0.9941 0.48674 0.00803 0.0
C645 C 0.99728 0.52722 0.98161 0.0
O646 O 0.98203 0.54657 0.04182 0.0
O647 O 0.96415 0.51756 0.03641 0.0
O648 O 0.97835 0.49376 0.00828 0.0
O649 O 0.00738 0.49855 0.01913 0.0
O650 O 0.98739 0.5311 0.99644 0.0
O651 O 0.01392 0.52109 0.98396 0.0
C652 C 0.05933 0.50626 0.99412 0.0
O653 O 0.06059 0.52363 0.00454 0.0
O654 O 0.04202 0.49614 0.99315 0.0
C655 C 0.02777 0.55458 0.02769 0.0
C656 C 0.01441 0.22588 0.91502 0.0
C657 C 0.99756 0.23378 0.91298 0.0
C658 C 0.01733 0.21352 0.92964 0.0
C659 C 0.98904 0.17878 0.95802 0.0
H660 H 0.03807 0.17708 0.98606 0.0
C661 C 0.99625 0.11741 0.00832 0.0
C662 C 0.0117 0.10766 0.00571 0.0
C663 C 0.99552 0.13567 0.00064 0.0
C664 C 0.02428 0.17735 0.9783 0.0
H665 H 0.9713 0.23622 0.92564 0.0
H666 H 0.97654 0.21497 0.95115 0.0
H667 H 0.03531 0.20418 0.96567 0.0
H668 H 0.03884 0.10955 0.99383 0.0
H669 H 0.03745 0.14114 0.98014 0.0
H670 H 0.97807 0.15168 0.96997 0.0
C671 C 0.98725 0.21786 0.94118 0.0
C672 C 0.02273 0.19286 0.96663 0.0
C673 C 0.98429 0.23008 0.92657 0.0
C674 C 0.02677 0.11681 0.99604 0.0
C675 C 0.02603 0.13499 0.98833 0.0
C676 C 0.9906 0.1633 0.9696 0.0
C677 C 0.0035 0.20893 0.94253 0.0
C678 C 0.00512 0.19358 0.95618 0.0
C679 C 0.0102 0.14441 0.99015 0.0
C680 C 0.00828 0.16221 0.97966 0.0
H681 H 0.02493 0.22848 0.9048 0.0
H682 H 0.02997 0.20677 0.93025 0.0
H683 H 0.97534 0.17867 0.94988 0.0
H684 H 0.98447 0.11064 0.01577 0.0
H685 H 0.98325 0.14269 0.00254 0.0
C686 C 0.04682 0.76637 0.19067 0.0
C687 C 0.04047 0.78473 0.18918 0.0
C688 C 0.06477 0.76622 0.20041 0.0
C689 C 0.10312 0.79765 0.23636 0.0
H690 H 0.1332 0.75939 0.21663 0.0
C691 C 0.18342 0.80182 0.2617 0.0
C692 C 0.18958 0.78342 0.26366 0.0
C693 C 0.1645 0.8019 0.25464 0.0
C694 C 0.12486 0.76998 0.22247 0.0
H695 H 0.04819 0.81738 0.19638 0.0
H696 H 0.07975 0.81719 0.2129 0.0
H697 H 0.1022 0.76003 0.19929 0.0
H698 H 0.18033 0.7507 0.26082 0.0
H699 H 0.14735 0.75091 0.24851 0.0
H700 H 0.12616 0.80789 0.2593 0.0
C701 C 0.07067 0.80284 0.20696 0.0
C702 C 0.10706 0.77036 0.21253 0.0
C703 C 0.05263 0.80297 0.19734 0.0
C704 C 0.17613 0.76516 0.25943 0.0
C705 C 0.15725 0.76525 0.25223 0.0
C706 C 0.12102 0.79737 0.24622 0.0
C707 C 0.07691 0.78444 0.20876 0.0
C708 C 0.09594 0.78419 0.21934 0.0
C709 C 0.15137 0.78358 0.24928 0.0
C710 C 0.13205 0.7835 0.23939 0.0
H711 H 0.03777 0.75202 0.18467 0.0
H712 H 0.06895 0.75175 0.20174 0.0
H713 H 0.09482 0.80827 0.24222 0.0
H714 H 0.19338 0.81617 0.26488 0.0
H715 H 0.16039 0.81626 0.25247 0.0
C716 C 0.51022 0.83281 0.40747 0.0
C717 C 0.49192 0.82259 0.39911 0.0
C718 C 0.51237 0.85055 0.42056 0.0
C719 C 0.48415 0.87696 0.45337 0.0
H720 H 0.52486 0.92369 0.45437 0.0
C721 C 0.48005 0.95554 0.49024 0.0
C722 C 0.49622 0.96666 0.50217 0.0
C723 C 0.48108 0.93758 0.47889 0.0
C724 C 0.51356 0.91062 0.45439 0.0
H725 H 0.46169 0.82367 0.39698 0.0
H726 H 0.46546 0.85462 0.41916 0.0
H727 H 0.52387 0.89336 0.43135 0.0
H728 H 0.5259 0.96734 0.51231 0.0
H729 H 0.5279 0.93607 0.49182 0.0
H730 H 0.47353 0.89436 0.47592 0.0
C731 C 0.47813 0.84867 0.41626 0.0
C732 C 0.51299 0.89327 0.44123 0.0
C733 C 0.47597 0.83096 0.4034 0.0
C734 C 0.51338 0.95929 0.50283 0.0
C735 C 0.5145 0.94141 0.4912 0.0
C736 C 0.48464 0.89428 0.46632 0.0
C737 C 0.49627 0.85842 0.42542 0.0
C738 C 0.49802 0.87639 0.44029 0.0
C739 C 0.49831 0.93039 0.47914 0.0
C740 C 0.49912 0.91142 0.46672 0.0
H741 H 0.52278 0.82671 0.40448 0.0
H742 H 0.52656 0.85767 0.42737 0.0
H743 H 0.47274 0.86404 0.45348 0.0
H744 H 0.46663 0.96086 0.48946 0.0
H745 H 0.46842 0.92949 0.46961 0.0
C746 C 0.42323 0.2363 0.69642 0.0
C747 C 0.42505 0.24391 0.67836 0.0
C748 C 0.40615 0.23542 0.70493 0.0
C749 C 0.36754 0.26357 0.70608 0.0
H750 H 0.34277 0.22174 0.73476 0.0
C751 C 0.29984 0.27293 0.74086 0.0
C752 C 0.29754 0.26634 0.75923 0.0
C753 C 0.31415 0.26767 0.73019 0.0
C754 C 0.34966 0.23365 0.72699 0.0
H755 H 0.40983 0.25491 0.65434 0.0
H756 H 0.38013 0.25329 0.66914 0.0
H757 H 0.36968 0.21586 0.71694 0.0
H758 H 0.30853 0.24925 0.78101 0.0
H759 H 0.33432 0.24075 0.76273 0.0
H760 H 0.34832 0.28173 0.71654 0.0
C761 C 0.39199 0.2483 0.67685 0.0
C762 C 0.36498 0.23022 0.71671 0.0
C763 C 0.40899 0.24911 0.66832 0.0
C764 C 0.30995 0.25443 0.76682 0.0
C765 C 0.3246 0.24943 0.75625 0.0
C766 C 0.35246 0.26708 0.71648 0.0
C767 C 0.39063 0.2422 0.69557 0.0
C768 C 0.37398 0.24513 0.70605 0.0
C769 C 0.32699 0.25618 0.73787 0.0
C770 C 0.34319 0.25215 0.72698 0.0
H771 H 0.43533 0.23212 0.70451 0.0
H772 H 0.40551 0.23066 0.71938 0.0
H773 H 0.37449 0.27556 0.69843 0.0
H774 H 0.29068 0.2824 0.73474 0.0
H775 H 0.31522 0.27279 0.71594 0.0
C776 C 0.96522 0.86146 0.5642 0.0
C777 C 0.98034 0.85274 0.57175 0.0
C778 C 0.96869 0.8769 0.55215 0.0
C779 C 0.00607 0.91834 0.54681 0.0
H780 H 0.98237 0.91997 0.49449 0.0
C781 C 0.03481 0.98148 0.50192 0.0
C782 C 0.02148 0.98935 0.4904 0.0
C783 C 0.02901 0.9639 0.51053 0.0
C784 C 0.98892 0.91988 0.50921 0.0
H785 H 0.01061 0.85226 0.57126 0.0
H786 H 0.01653 0.87922 0.55069 0.0
H787 H 0.97238 0.8905 0.51166 0.0
H788 H 0.99174 0.98512 0.47847 0.0
H789 H 0.98144 0.95479 0.49394 0.0
H790 H 0.02226 0.94771 0.54488 0.0
C791 C 0.00211 0.87428 0.55422 0.0
C792 C 0.98321 0.90301 0.51895 0.0
C793 C 0.99866 0.85884 0.56602 0.0
C794 C 0.00234 0.97919 0.48719 0.0
C795 C 0.99645 0.96178 0.49602 0.0
C796 C 0.01156 0.93527 0.53726 0.0
C797 C 0.98732 0.88382 0.54768 0.0
C798 C 0.99199 0.90203 0.53769 0.0
C799 C 0.00968 0.95403 0.50797 0.0
C800 C 0.0033 0.93613 0.51821 0.0
H801 H 0.95095 0.85703 0.56828 0.0
H802 H 0.95709 0.88412 0.54717 0.0
H803 H 0.01284 0.91796 0.5614 0.0
H804 H 0.04969 0.98898 0.50433 0.0
H805 H 0.03968 0.9581 0.51926 0.0
C806 C 0.43804 0.75667 0.87225 0.0
C807 C 0.45402 0.7709 0.86903 0.0
C808 C 0.41988 0.7574 0.86345 0.0
C809 C 0.39011 0.79009 0.8446 0.0
H810 H 0.36372 0.74322 0.80904 0.0
C811 C 0.32156 0.79282 0.79562 0.0
C812 C 0.30747 0.77517 0.79146 0.0
C813 C 0.33938 0.79221 0.80529 0.0
C814 C 0.37067 0.7563 0.81918 0.0
H815 H 0.46355 0.79746 0.85472 0.0
H816 H 0.43153 0.79911 0.83982 0.0
H817 H 0.39474 0.74258 0.82656 0.0
H818 H 0.30061 0.74307 0.79416 0.0
H819 H 0.33144 0.74207 0.81193 0.0
H820 H 0.36595 0.80365 0.83797 0.0
C821 C 0.43322 0.78727 0.84893 0.0
C822 C 0.38848 0.75594 0.82909 0.0
C823 C 0.45146 0.78628 0.85739 0.0
C824 C 0.31137 0.75686 0.79714 0.0
C825 C 0.32908 0.7563 0.8072 0.0
C826 C 0.37213 0.79032 0.83503 0.0
C827 C 0.41738 0.77264 0.85167 0.0
C828 C 0.39835 0.77288 0.84172 0.0
C829 C 0.34333 0.77399 0.81139 0.0
C830 C 0.36224 0.7735 0.82204 0.0
H831 H 0.43965 0.7446 0.88111 0.0
H832 H 0.40779 0.74604 0.86578 0.0
H833 H 0.39749 0.80324 0.85444 0.0
H834 H 0.31888 0.80709 0.79121 0.0
H835 H 0.3501 0.80602 0.80779 0.0
C836 C 0.45977 0.24565 0.09038 0.0
C837 C 0.47706 0.25984 0.09407 0.0
C838 C 0.45905 0.22666 0.07983 0.0
C839 C 0.48512 0.1989 0.04595 0.0
H840 H 0.46257 0.15147 0.06893 0.0
C841 C 0.50408 0.12048 0.02732 0.0
C842 C 0.48967 0.10315 0.02646 0.0
C843 C 0.50049 0.13969 0.03327 0.0
C844 C 0.46863 0.16452 0.0621 0.0
H845 H 0.50698 0.26543 0.08904 0.0
H846 H 0.50566 0.23252 0.07078 0.0
H847 H 0.45942 0.18506 0.08314 0.0
H848 H 0.45998 0.09252 0.03063 0.0
H849 H 0.4537 0.12603 0.04076 0.0
H850 H 0.49464 0.17844 0.02512 0.0
C851 C 0.49265 0.23603 0.07592 0.0
C852 C 0.46681 0.18377 0.07025 0.0
C853 C 0.49342 0.25485 0.08655 0.0
C854 C 0.47146 0.10552 0.03123 0.0
C855 C 0.46786 0.12473 0.03714 0.0
C856 C 0.48689 0.17967 0.03776 0.0
C857 C 0.47554 0.22164 0.0726 0.0
C858 C 0.47538 0.20118 0.06251 0.0
C859 C 0.48239 0.14201 0.03844 0.0
C860 C 0.479 0.16229 0.04598 0.0
H861 H 0.44692 0.24904 0.09598 0.0
H862 H 0.44563 0.21587 0.07739 0.0
H863 H 0.49163 0.21205 0.0395 0.0
H864 H 0.51828 0.11921 0.02382 0.0
H865 H 0.51208 0.15265 0.03438 0.0
C866 C 0.09631 0.29179 0.39624 0.0
C867 C 0.0785 0.29042 0.38528 0.0
C868 C 0.11318 0.29553 0.38734 0.0
C869 C 0.1323 0.31043 0.34128 0.0
H870 H 0.1673 0.27457 0.35301 0.0
C871 C 0.19696 0.30504 0.29811 0.0
C872 C 0.20141 0.28572 0.29434 0.0
C873 C 0.18335 0.30821 0.31071 0.0
C874 C 0.15759 0.28458 0.34944 0.0
H875 H 0.0645 0.29326 0.35676 0.0
H876 H 0.09355 0.2992 0.34129 0.0
H877 H 0.14141 0.27685 0.37293 0.0
H878 H 0.19491 0.25446 0.30016 0.0
H879 H 0.17052 0.25969 0.32144 0.0
H880 H 0.14769 0.31712 0.31699 0.0
C881 C 0.09472 0.29768 0.35675 0.0
C882 C 0.14293 0.28619 0.36113 0.0
C883 C 0.07797 0.29405 0.36562 0.0
C884 C 0.19172 0.2695 0.3029 0.0
C885 C 0.17794 0.2726 0.31528 0.0
C886 C 0.14681 0.30863 0.32945 0.0
C887 C 0.11251 0.29795 0.36733 0.0
C888 C 0.12981 0.29876 0.3569 0.0
C889 C 0.17378 0.29205 0.31959 0.0
C890 C 0.15936 0.29532 0.33311 0.0
H891 H 0.0972 0.28919 0.41145 0.0
H892 H 0.12669 0.29598 0.39598 0.0
H893 H 0.12266 0.32054 0.33781 0.0
H894 H 0.2044 0.31783 0.2918 0.0
H895 H 0.18068 0.32342 0.31381 0.0
C896 C 0.89463 0.08273 0.18333 0.0
C897 C 0.88123 0.06731 0.18928 0.0
C898 C 0.90315 0.0793 0.16634 0.0
C899 C 0.91684 0.07163 0.12719 0.0
H900 H 0.92885 0.01816 0.11689 0.0
C901 C 0.96234 0.05346 0.06584 0.0
C902 C 0.97444 0.03953 0.06855 0.0
C903 C 0.94917 0.05633 0.07896 0.0
C904 C 0.92587 0.03327 0.11971 0.0
H905 H 0.86506 0.03673 0.18124 0.0
H906 H 0.8793 0.03099 0.15095 0.0
H907 H 0.90842 0.02444 0.14193 0.0
H908 H 0.98256 0.01792 0.0872 0.0
H909 H 0.96051 0.02393 0.111 0.0
H910 H 0.93547 0.08093 0.10615 0.0
C911 C 0.88381 0.0455 0.15986 0.0
C912 C 0.91374 0.03677 0.13383 0.0
C913 C 0.87548 0.04885 0.17711 0.0
C914 C 0.9734 0.02878 0.08484 0.0
C915 C 0.96056 0.03207 0.09831 0.0
C916 C 0.9293 0.06825 0.11341 0.0
C917 C 0.89823 0.06047 0.1546 0.0
C918 C 0.90928 0.0561 0.13799 0.0
C919 C 0.9481 0.04574 0.09545 0.0
C920 C 0.93419 0.04908 0.10962 0.0
H921 H 0.8994 0.09715 0.19236 0.0
H922 H 0.91435 0.09114 0.16306 0.0
H923 H 0.91345 0.0866 0.12963 0.0
H924 H 0.96254 0.06162 0.05313 0.0
H925 H 0.93957 0.06659 0.07589 0.0
C926 C 0.27404 0.69937 0.45151 0.0
C927 C 0.29242 0.70645 0.4616 0.0
C928 C 0.26768 0.70862 0.4356 0.0
C929 C 0.27737 0.75513 0.41077 0.0
H930 H 0.25222 0.71923 0.36483 0.0
C931 C 0.26029 0.75776 0.3228 0.0
C932 C 0.25356 0.77605 0.32275 0.0
C933 C 0.26319 0.74933 0.34021 0.0
C934 C 0.25926 0.72947 0.37752 0.0
H935 H 0.31821 0.72938 0.46318 0.0
H936 H 0.30715 0.7454 0.43544 0.0
H937 H 0.26091 0.70505 0.39465 0.0
H938 H 0.24426 0.79968 0.34079 0.0
H939 H 0.24929 0.78493 0.3713 0.0
H940 H 0.27621 0.77951 0.39342 0.0
C941 C 0.29759 0.73276 0.4399 0.0
C942 C 0.26405 0.72136 0.3947 0.0
C943 C 0.30398 0.72348 0.45579 0.0
C944 C 0.24949 0.78558 0.34042 0.0
C945 C 0.25248 0.77719 0.35789 0.0
C946 C 0.27251 0.76326 0.39359 0.0
C947 C 0.27949 0.72522 0.42939 0.0
C948 C 0.27336 0.73406 0.4115 0.0
C949 C 0.25951 0.75903 0.35802 0.0
C950 C 0.26359 0.75051 0.37667 0.0
H951 H 0.26467 0.68636 0.45559 0.0
H952 H 0.25354 0.70262 0.42803 0.0
H953 H 0.28436 0.76537 0.42348 0.0
H954 H 0.26368 0.75013 0.30942 0.0
H955 H 0.26885 0.73548 0.33979 0.0
C956 C 0.60532 0.99036 0.71544 0.0
C957 C 0.60102 0.00418 0.73015 0.0
C958 C 0.60008 0.99186 0.69572 0.0
C959 C 0.58338 0.02705 0.66259 0.0
H960 H 0.5626 0.97748 0.62813 0.0
C961 C 0.53502 0.02484 0.59091 0.0
C962 C 0.53958 0.01396 0.57418 0.0
C963 C 0.54427 0.02372 0.60931 0.0
C964 C 0.56856 0.99142 0.63755 0.0
H965 H 0.58805 0.03056 0.73568 0.0
H966 H 0.57848 0.03281 0.70161 0.0
H967 H 0.57601 0.97556 0.66147 0.0
H968 H 0.55722 0.99316 0.56364 0.0
H969 H 0.5731 0.99089 0.596 0.0
H970 H 0.57514 0.04283 0.63883 0.0
C971 C 0.5863 0.02109 0.70511 0.0
C972 C 0.57633 0.99036 0.65663 0.0
C973 C 0.59168 0.01971 0.72473 0.0
C974 C 0.55344 0.00176 0.57626 0.0
C975 C 0.56247 0.00038 0.59475 0.0
C976 C 0.57538 0.02808 0.64363 0.0
C977 C 0.59031 0.00713 0.69032 0.0
C978 C 0.58359 0.00818 0.6695 0.0
C979 C 0.55806 0.01148 0.61141 0.0
C980 C 0.56767 0.01029 0.63103 0.0
H981 H 0.6126 0.97828 0.71915 0.0
H982 H 0.60365 0.98102 0.68473 0.0
H983 H 0.58924 0.04109 0.67189 0.0
H984 H 0.52448 0.03446 0.58977 0.0
H985 H 0.54049 0.03228 0.62197 0.0
C986 C 0.29628 0.38548 0.99488 0.0
C987 C 0.28573 0.40063 -0.00061 0.0
C988 C 0.29315 0.37427 0.97641 0.0
C989 C 0.29186 0.36064 0.9334 0.0
H990 H 0.24076 0.34632 0.90568 0.0
C991 C 0.27899 0.32866 0.85238 0.0
C992 C 0.26271 0.3137 0.84587 0.0
C993 C 0.28144 0.33866 0.87131 0.0
C994 C 0.25509 0.34996 0.9133 0.0
H995 H 0.26384 0.41613 0.98795 0.0
H996 H 0.25885 0.39706 0.95554 0.0
H997 H 0.24566 0.3645 0.93848 0.0
H998 H 0.23622 0.29729 0.85388 0.0
H999 H 0.24073 0.31438 0.88734 0.0
H1000 H 0.30121 0.34551 0.90857 0.0
C1001 C 0.26917 0.39343 0.96642 0.0
C1002 C 0.25795 0.36068 0.93202 0.0
C1003 C 0.27213 0.40448 0.98497 0.0
C1004 C 0.24889 0.30882 0.85861 0.0
C1005 C 0.25144 0.3187 0.87769 0.0
C1006 C 0.28897 0.34976 0.91481 0.0
C1007 C 0.27957 0.37811 0.96194 0.0
C1008 C 0.2764 0.36629 0.94223 0.0
C1009 C 0.26776 0.33376 0.88425 0.0
C1010 C 0.27059 0.34448 0.90443 0.0
H1011 H 0.30672 0.38199 0.00572 0.0
H1012 H 0.3012 0.36237 0.97361 0.0
H1013 H 0.30629 0.36488 0.94071 0.0
H1014 H 0.28978 0.33282 0.84276 0.0
H1015 H 0.29397 0.35046 0.87568 0.0
C1016 C 0.91312 0.07397 0.30975 0.0
C1017 C 0.9141 0.06379 0.29127 0.0
C1018 C 0.92816 0.07603 0.32457 0.0
C1019 C 0.96778 0.05283 0.34145 0.0
H1020 H 0.98458 0.1041 0.3745 0.0
C1021 C 0.02182 0.05888 0.40896 0.0
C1022 C 0.01613 0.06787 0.42603 0.0
C1023 C 0.0132 0.06139 0.39067 0.0
C1024 C 0.98004 0.08969 0.36541 0.0
H1025 H 0.93149 0.0476 0.27384 0.0
H1026 H 0.95774 0.05099 0.29995 0.0
H1027 H 0.96125 0.1018 0.34591 0.0
H1028 H 0.99809 0.08766 0.43758 0.0
H1029 H 0.98274 0.09175 0.40575 0.0
H1030 H 0.98582 0.04042 0.36132 0.0
C1031 C 0.94532 0.0574 0.30288 0.0
C1032 C 0.9667 0.08838 0.34907 0.0
C1033 C 0.93032 0.05547 0.28797 0.0
C1034 C 0.00268 0.08054 0.42458 0.0
C1035 C 0.99398 0.08296 0.40632 0.0
C1036 C 0.98102 0.0541 0.35785 0.0
C1037 C 0.94444 0.06786 0.32126 0.0
C1038 C 0.96012 0.06982 0.33722 0.0
C1039 C 0.99868 0.07285 0.38919 0.0
C1040 C 0.98696 0.07243 0.37028 0.0
H1041 H 0.90088 0.08065 0.31272 0.0
H1042 H 0.92697 0.08387 0.33871 0.0
H1043 H 0.96284 0.03831 0.33264 0.0
H1044 H 0.0323 0.04916 0.40974 0.0
H1045 H 0.01739 0.05374 0.37773 0.0
C1046 C 0.30811 0.71828 0.56654 0.0
C1047 C 0.29806 0.70009 0.55575 0.0
C1048 C 0.30131 0.72654 0.58328 0.0
C1049 C 0.2905 0.73368 0.62449 0.0
H1050 H 0.23614 0.72933 0.6279 0.0
C1051 C 0.26162 0.74629 0.69836 0.0
C1052 C 0.2465 0.7569 0.69986 0.0
C1053 C 0.26716 0.74037 0.68021 0.0
C1054 C 0.25138 0.73087 0.62714 0.0
H1055 H 0.2728 0.67644 0.55422 0.0
H1056 H 0.26121 0.69059 0.58349 0.0
H1057 H 0.24725 0.7178 0.59717 0.0
H1058 H 0.22508 0.76917 0.68318 0.0
H1059 H 0.23493 0.75891 0.65123 0.0
H1060 H 0.29469 0.74695 0.65431 0.0
C1061 C 0.27419 0.69871 0.57885 0.0
C1062 C 0.25776 0.72402 0.60957 0.0
C1063 C 0.28096 0.69048 0.5621 0.0
C1064 C 0.23678 0.76105 0.68257 0.0
C1065 C 0.24241 0.75512 0.66427 0.0
C1066 C 0.28413 0.74052 0.642 0.0
C1067 C 0.28429 0.71682 0.58974 0.0
C1068 C 0.27742 0.72512 0.60807 0.0
C1069 C 0.25785 0.74491 0.6629 0.0
C1070 C 0.26448 0.73893 0.64369 0.0
H1071 H 0.32126 0.7262 0.56205 0.0
H1072 H 0.30936 0.74065 0.5911 0.0
H1073 H 0.30571 0.73464 0.62403 0.0
H1074 H 0.26929 0.74248 0.71127 0.0
H1075 H 0.27876 0.73208 0.67977 0.0
C1076 C 0.57262 0.01682 0.83046 0.0
C1077 C 0.58686 0.00523 0.83339 0.0
C1078 C 0.56369 0.02385 0.84616 0.0
C1079 C 0.56766 0.03314 0.90005 0.0
H1080 H 0.51223 0.02188 0.89197 0.0
C1081 C 0.50106 0.01965 0.94858 0.0
C1082 C 0.50517 0.037 0.96237 0.0
C1083 C 0.51139 0.01838 0.93255 0.0
C1084 C 0.5277 0.0252 0.89441 0.0
H1085 H 0.60323 0.99237 0.85519 0.0
H1086 H 0.58767 0.0047 0.88258 0.0
H1087 H 0.53028 0.01534 0.86462 0.0
H1088 H 0.52273 0.06693 0.9699 0.0
H1089 H 0.54139 0.06447 0.94204 0.0
H1090 H 0.56496 0.04249 0.93004 0.0
C1091 C 0.58354 0.00849 0.86816 0.0
C1092 C 0.53804 0.02162 0.87873 0.0
C1093 C 0.5924 0.00135 0.85244 0.0
C1094 C 0.51968 0.05319 0.95975 0.0
C1095 C 0.53022 0.05182 0.94378 0.0
C1096 C 0.55729 0.0369 0.91574 0.0
C1097 C 0.56887 0.01952 0.86513 0.0
C1098 C 0.55812 0.02521 0.88145 0.0
C1099 C 0.52612 0.03439 0.93002 0.0
C1100 C 0.53721 0.03255 0.91312 0.0
H1101 H 0.56809 0.02016 0.81598 0.0
H1102 H 0.55256 0.03249 0.84343 0.0
H1103 H 0.58314 0.0362 0.90252 0.0
H1104 H 0.48996 0.00692 0.95027 0.0
H1105 H 0.50808 0.00466 0.92231 0.0
C1106 C 0.2676 0.36356 0.07708 0.0
C1107 C 0.26061 0.38164 0.07969 0.0
C1108 C 0.26147 0.34765 0.08773 0.0
C1109 C 0.22843 0.32972 0.12379 0.0
H1110 H 0.27354 0.31245 0.14639 0.0
C1111 C 0.23679 0.30336 0.20027 0.0
C1112 C 0.24948 0.29016 0.20376 0.0
C1113 C 0.23365 0.30933 0.18168 0.0
C1114 C 0.26063 0.31659 0.13995 0.0
H1115 H 0.24069 0.39682 0.09423 0.0
H1116 H 0.23054 0.3693 0.11366 0.0
H1117 H 0.27591 0.33243 0.11948 0.0
H1118 H 0.26723 0.27119 0.1903 0.0
H1119 H 0.26128 0.28107 0.15773 0.0
H1120 H 0.21344 0.31446 0.14517 0.0
C1121 C 0.24043 0.36719 0.10306 0.0
C1122 C 0.26199 0.32813 0.12443 0.0
C1123 C 0.2463 0.383 0.09203 0.0
C1124 C 0.25764 0.28167 0.18805 0.0
C1125 C 0.25427 0.28738 0.16943 0.0
C1126 C 0.22706 0.31809 0.13944 0.0
C1127 C 0.24861 0.3497 0.10163 0.0
C1128 C 0.24603 0.33517 0.11636 0.0
C1129 C 0.24298 0.30202 0.16624 0.0
C1130 C 0.24327 0.31174 0.14793 0.0
H1131 H 0.27838 0.36202 0.06733 0.0
H1132 H 0.26761 0.33415 0.08584 0.0
H1133 H 0.21583 0.33478 0.11778 0.0
H1134 H 0.23034 0.31017 0.21217 0.0
H1135 H 0.22498 0.32073 0.17979 0.0
C1136 C 0.15576 0.92077 0.03071 0.0
C1137 C 0.17423 0.93164 0.0376 0.0
C1138 C 0.1399 0.93026 0.0315 0.0
C1139 C 0.12484 0.97572 0.05575 0.0
H1140 H 0.08517 0.96579 0.01191 0.0
C1141 C 0.07069 0.02857 0.04355 0.0
C1142 C 0.05159 0.01938 0.03727 0.0
C1143 C 0.08491 0.01685 0.04491 0.0
C1144 C 0.09602 0.96855 0.02438 0.0
H1145 H 0.19051 0.96106 0.05055 0.0
H1146 H 0.16319 0.97752 0.05154 0.0
H1147 H 0.11114 0.94684 0.01167 0.0
H1148 H 0.03279 0.99089 0.02647 0.0
H1149 H 0.05723 0.97034 0.02929 0.0
H1150 H 0.10994 0.99779 0.06821 0.0
C1151 C 0.16075 0.96159 0.04594 0.0
C1152 C 0.11089 0.95764 0.02427 0.0
C1153 C 0.17649 0.95214 0.04523 0.0
C1154 C 0.04705 0.9983 0.03225 0.0
C1155 C 0.06122 0.98657 0.03345 0.0
C1156 C 0.11006 0.98671 0.0558 0.0
C1157 C 0.14223 0.95081 0.03916 0.0
C1158 C 0.12562 0.96127 0.03984 0.0
C1159 C 0.08035 0.99572 0.03968 0.0
C1160 C 0.09558 0.98339 0.04004 0.0
H1161 H 0.15354 0.90495 0.02478 0.0
H1162 H 0.12582 0.92146 0.02628 0.0
H1163 H 0.13571 0.97863 0.06819 0.0
H1164 H 0.07465 0.04488 0.04721 0.0
H1165 H 0.09956 0.02441 0.0495 0.0
C1166 C 0.72707 0.63584 0.98552 0.0
C1167 C 0.7359 0.63567 0.96823 0.0
C1168 C 0.70769 0.62779 0.9851 0.0
C1169 C 0.66924 0.59078 0.95503 0.0
H1170 H 0.63869 0.60996 0.99371 0.0
C1171 C 0.58939 0.55703 0.96085 0.0
C1172 C 0.5856 0.55225 0.97958 0.0
C1173 C 0.60738 0.56747 0.95789 0.0
C1174 C 0.64711 0.60446 0.98287 0.0
H1175 H 0.73105 0.62814 0.93675 0.0
H1176 H 0.6969 0.61457 0.93592 0.0
H1177 H 0.66992 0.63002 0.99045 0.0
H1178 H 0.59765 0.55427 0.00979 0.0
H1179 H 0.62906 0.57289 0.00462 0.0
H1180 H 0.64607 0.56534 0.94735 0.0
C1181 C 0.70515 0.62042 0.94989 0.0
C1182 C 0.66499 0.61589 0.981 0.0
C1183 C 0.72467 0.62834 0.95034 0.0
C1184 C 0.60023 0.55763 0.99519 0.0
C1185 C 0.6181 0.56841 0.99229 0.0
C1186 C 0.65118 0.57952 0.95669 0.0
C1187 C 0.69655 0.61959 0.96734 0.0
C1188 C 0.6765 0.60893 0.96741 0.0
C1189 C 0.62171 0.57363 0.97367 0.0
C1190 C 0.64021 0.58606 0.97094 0.0
H1191 H 0.73528 0.6414 -0.00042 0.0
H1192 H 0.70169 0.62717 0.99887 0.0
H1193 H 0.67778 0.5848 0.94459 0.0
H1194 H 0.57835 0.55301 0.94856 0.0
H1195 H 0.6099 0.57136 0.94342 0.0
C1196 C 0.68831 0.45593 0.29447 0.0
C1197 C 0.67214 0.4568 0.28166 0.0
C1198 C 0.7001 0.44222 0.28982 0.0
C1199 C 0.71176 0.40651 0.25044 0.0
H1200 H 0.72299 0.37665 0.29371 0.0
C1201 C 0.73803 0.32975 0.24223 0.0
C1202 C 0.75131 0.32657 0.25728 0.0
C1203 C 0.73001 0.34719 0.24374 0.0
C1204 C 0.72026 0.38502 0.28153 0.0
H1205 H 0.65642 0.44489 0.25329 0.0
H1206 H 0.67687 0.4207 0.24535 0.0
H1207 H 0.70667 0.4049 0.29881 0.0
H1208 H 0.76766 0.33961 0.285 0.0
H1209 H 0.7541 0.37018 0.28742 0.0
H1210 H 0.72518 0.3862 0.23312 0.0
C1211 C 0.6805 0.43074 0.25892 0.0
C1212 C 0.71092 0.40126 0.28447 0.0
C1213 C 0.66873 0.44457 0.26352 0.0
C1214 C 0.75726 0.34157 0.27329 0.0
C1215 C 0.74939 0.35901 0.27474 0.0
C1216 C 0.72118 0.39018 0.2475 0.0
C1217 C 0.69593 0.42897 0.27233 0.0
C1218 C 0.70657 0.41224 0.269 0.0
C1219 C 0.73533 0.3618 0.26024 0.0
C1220 C 0.72556 0.3793 0.26305 0.0
H1221 H 0.69153 0.46535 0.30842 0.0
H1222 H 0.71216 0.44156 0.30025 0.0
H1223 H 0.70866 0.41473 0.23826 0.0
H1224 H 0.7335 0.31853 0.22956 0.0
H1225 H 0.71918 0.34889 0.23234 0.0
C1226 C 0.77013 0.43765 0.50336 0.0
C1227 C 0.76741 0.42138 0.51461 0.0
C1228 C 0.78855 0.44839 0.50215 0.0
C1229 C 0.8399 0.44551 0.51175 0.0
H1230 H 0.84779 0.50423 0.51618 0.0
C1231 C 0.91458 0.49531 0.5304 0.0
C1232 C 0.91941 0.51025 0.51808 0.0
C1233 C 0.89566 0.48521 0.52972 0.0
C1234 C 0.84575 0.48783 0.5148 0.0
H1235 H 0.78188 0.40349 0.53322 0.0
H1236 H 0.81375 0.42224 0.53134 0.0
H1237 H 0.81538 0.4844 0.51412 0.0
H1238 H 0.90835 0.52709 0.49605 0.0
H1239 H 0.87514 0.50957 0.49503 0.0
H1240 H 0.87031 0.44899 0.51291 0.0
C1241 C 0.8018 0.42653 0.52311 0.0
C1242 C 0.82721 0.47647 0.5135 0.0
C1243 C 0.78346 0.41578 0.52424 0.0
C1244 C 0.90494 0.5156 0.5057 0.0
C1245 C 0.88597 0.50562 0.50514 0.0
C1246 C 0.85841 0.45687 0.51324 0.0
C1247 C 0.80457 0.4431 0.51223 0.0
C1248 C 0.82409 0.45517 0.51216 0.0
C1249 C 0.88125 0.49002 0.51682 0.0
C1250 C 0.86153 0.47813 0.51497 0.0
H1251 H 0.75802 0.4423 0.49576 0.0
H1252 H 0.79023 0.4609 0.49342 0.0
H1253 H 0.838 0.42913 0.51033 0.0
H1254 H 0.92549 0.49096 0.54011 0.0
H1255 H 0.89233 0.47343 0.53908 0.0
C1256 C 0.35758 0.11905 0.23827 0.0
C1257 C 0.35658 0.11291 0.25703 0.0
C1258 C 0.34461 0.13034 0.23075 0.0
C1259 C 0.29887 0.14723 0.23881 0.0
H1260 H 0.32341 0.19724 0.22133 0.0
C1261 C 0.29106 0.23389 0.24908 0.0
C1262 C 0.27153 0.23301 0.24357 0.0
C1263 C 0.29955 0.21741 0.24411 0.0
C1264 C 0.31627 0.18322 0.22591 0.0
H1265 H 0.34052 0.11293 0.28214 0.0
H1266 H 0.3182 0.13267 0.26918 0.0
H1267 H 0.3413 0.17018 0.22518 0.0
H1268 H 0.24552 0.21426 0.22839 0.0
H1269 H 0.26039 0.18486 0.22004 0.0
H1270 H 0.27426 0.16092 0.24085 0.0
C1271 C 0.32885 0.12867 0.26016 0.0
C1272 C 0.32647 0.16764 0.22797 0.0
C1273 C 0.34183 0.11753 0.2677 0.0
C1274 C 0.26064 0.21533 0.23272 0.0
C1275 C 0.26912 0.19857 0.22796 0.0
C1276 C 0.28865 0.16281 0.23671 0.0
C1277 C 0.33029 0.13555 0.24177 0.0
C1278 C 0.31816 0.14984 0.2353 0.0
C1279 C 0.28866 0.19945 0.23377 0.0
C1280 C 0.29756 0.18131 0.23111 0.0
H1281 H 0.3687 0.11565 0.22961 0.0
H1282 H 0.34601 0.13534 0.21647 0.0
H1283 H 0.29198 0.13353 0.24416 0.0
H1284 H 0.29972 0.2471 0.25789 0.0
H1285 H 0.3145 0.21842 0.24924 0.0
C1286 C 0.34584 0.12127 0.53437 0.0
C1287 C 0.34956 0.14066 0.52828 0.0
C1288 C 0.35996 0.1143 0.54554 0.0
C1289 C 0.41242 0.12308 0.55432 0.0
H1290 H 0.40066 0.07789 0.58444 0.0
C1291 C 0.46653 0.0727 0.56756 0.0
C1292 C 0.4588 0.053 0.55844 0.0
C1293 C 0.4545 0.08605 0.57254 0.0
C1294 C 0.40421 0.09072 0.57634 0.0
H1295 H 0.37043 0.1686 0.53051 0.0
H1296 H 0.3949 0.15678 0.55061 0.0
H1297 H 0.37659 0.09837 0.57734 0.0
H1298 H 0.4327 0.03103 0.54915 0.0
H1299 H 0.4116 0.05426 0.55807 0.0
H1300 H 0.43983 0.11511 0.55292 0.0
C1301 C 0.38131 0.14662 0.54615 0.0
C1302 C 0.39041 0.10235 0.5721 0.0
C1303 C 0.36727 0.15344 0.53462 0.0
C1304 C 0.43895 0.04619 0.55609 0.0
C1305 C 0.42691 0.05945 0.56132 0.0
C1306 C 0.42629 0.11171 0.55886 0.0
C1307 C 0.37806 0.12671 0.55122 0.0
C1308 C 0.39398 0.11794 0.56009 0.0
C1309 C 0.43458 0.07974 0.56876 0.0
C1310 C 0.42197 0.0948 0.56903 0.0
H1311 H 0.33229 0.11107 0.52973 0.0
H1312 H 0.35692 0.09876 0.54878 0.0
H1313 H 0.41577 0.13482 0.54494 0.0
H1314 H 0.48184 0.07823 0.56972 0.0
H1315 H 0.46075 0.10159 0.57832 0.0
C1316 C 0.66604 0.56247 0.31148 0.0
C1317 C 0.65643 0.54855 0.29564 0.0
C1318 C 0.67431 0.5822 0.30864 0.0
C1319 C 0.69349 0.61284 0.27157 0.0
H1320 H 0.68539 0.65824 0.30663 0.0
C1321 C 0.71923 0.69604 0.25801 0.0
C1322 C 0.72626 0.71041 0.27438 0.0
C1323 C 0.71056 0.67626 0.26034 0.0
C1324 C 0.68805 0.64575 0.29686 0.0
H1325 H 0.64814 0.54449 0.26431 0.0
H1326 H 0.66277 0.57892 0.25938 0.0
H1327 H 0.67073 0.62381 0.31127 0.0
H1328 H 0.72996 0.71513 0.30608 0.0
H1329 H 0.71537 0.68061 0.31015 0.0
H1330 H 0.71112 0.63465 0.25737 0.0
C1331 C 0.66386 0.5745 0.27399 0.0
C1332 C 0.67957 0.62602 0.2995 0.0
C1333 C 0.6554 0.55482 0.27685 0.0
C1334 C 0.72459 0.7045 0.29313 0.0
C1335 C 0.71609 0.68469 0.29547 0.0
C1336 C 0.70213 0.63257 0.26904 0.0
C1337 C 0.67335 0.58841 0.28987 0.0
C1338 C 0.68222 0.60936 0.2869 0.0
C1339 C 0.70886 0.67032 0.27911 0.0
C1340 C 0.69955 0.64929 0.28167 0.0
H1341 H 0.66709 0.55818 0.32615 0.0
H1342 H 0.68169 0.59254 0.32112 0.0
H1343 H 0.69596 0.60027 0.26177 0.0
H1344 H 0.72015 0.70012 0.24334 0.0
H1345 H 0.70491 0.66573 0.2474 0.0
C1346 C 0.85986 0.51306 0.7543 0.0
C1347 C 0.85853 0.52721 0.77023 0.0
C1348 C 0.84739 0.4942 0.75098 0.0
C1349 C 0.81717 0.45871 0.77764 0.0
H1350 H 0.79634 0.43166 0.72604 0.0
C1351 C 0.76526 0.38235 0.76868 0.0
C1352 C 0.76915 0.36728 0.75501 0.0
C1353 C 0.77406 0.4026 0.76879 0.0
C1354 C 0.80213 0.439 0.74053 0.0
H1355 H 0.8424 0.53295 0.79458 0.0
H1356 H 0.82064 0.50037 0.78863 0.0
H1357 H 0.81599 0.46576 0.7295 0.0
H1358 H 0.78444 0.36153 0.7301 0.0
H1359 H 0.80002 0.39692 0.73039 0.0
H1360 H 0.80365 0.43201 0.78873 0.0
C1361 C 0.83158 0.5036 0.77896 0.0
C1362 C 0.81341 0.4585 0.74251 0.0
C1363 C 0.84403 0.52235 0.78232 0.0
C1364 C 0.7812 0.3729 0.7408 0.0
C1365 C 0.79006 0.39317 0.74093 0.0
C1366 C 0.80593 0.4393 0.77567 0.0
C1367 C 0.83332 0.48914 0.76349 0.0
C1368 C 0.82105 0.46857 0.76112 0.0
C1369 C 0.78699 0.40817 0.75527 0.0
C1370 C 0.79827 0.42918 0.75711 0.0
H1371 H 0.87084 0.51631 0.74469 0.0
H1372 H 0.84921 0.48335 0.73901 0.0
H1373 H 0.82317 0.46581 0.79216 0.0
H1374 H 0.75592 0.37842 0.77973 0.0
H1375 H 0.77109 0.41384 0.77978 0.0
C1376 C 0.99611 0.81544 0.11224 0.0
C1377 C 0.98082 0.79911 0.10616 0.0
C1378 C 0.00024 0.83108 0.10057 0.0
C1379 C 0.97566 0.85465 0.06232 0.0
H1380 H 0.02595 0.88781 0.06269 0.0
C1381 C 0.98721 0.92729 0.02384 0.0
C1382 C 0.99793 0.94438 0.03573 0.0
C1383 C 0.98679 0.90787 0.02947 0.0
C1384 C 0.01182 0.87865 0.06244 0.0
H1385 H 0.95896 0.7855 0.08236 0.0
H1386 H 0.96655 0.81236 0.06178 0.0
H1387 H 0.02267 0.85623 0.07756 0.0
H1388 H 0.01717 0.95468 0.06233 0.0
H1389 H 0.01649 0.9209 0.07212 0.0
H1390 H 0.9648 0.87722 0.04749 0.0
C1391 C 0.97493 0.81352 0.07584 0.0
C1392 C 0.00993 0.86059 0.07101 0.0
C1393 C 0.97065 0.79803 0.0876 0.0
C1394 C 0.00871 0.94173 0.05295 0.0
C1395 C 0.00845 0.92238 0.05846 0.0
C1396 C 0.97758 0.87259 0.05364 0.0
C1397 C 0.98931 0.8306 0.08247 0.0
C1398 C 0.99176 0.84857 0.07142 0.0
C1399 C 0.99727 0.90525 0.04695 0.0
C1400 C 0.99563 0.88501 0.05397 0.0
H1401 H 0.00418 0.81676 0.12649 0.0
H1402 H 0.01133 0.84404 0.10626 0.0
H1403 H 0.9614 0.84604 0.06264 0.0
H1404 H 0.97884 0.92895 0.01045 0.0
H1405 H 0.97814 0.89493 0.02025 0.0
C1406 C 0.95713 0.28529 0.80976 0.0
C1407 C 0.95774 0.27019 0.82224 0.0
C1408 C 0.9398 0.28675 0.79928 0.0
C1409 C 0.89175 0.25717 0.78117 0.0
H1410 H 0.8746 0.30845 0.78749 0.0
C1411 C 0.81236 0.26195 0.77326 0.0
C1412 C 0.80657 0.27871 0.76572 0.0
C1413 C 0.83172 0.26103 0.77631 0.0
C1414 C 0.87928 0.2941 0.7852 0.0
H1415 H 0.9409 0.24444 0.83308 0.0
H1416 H 0.91095 0.24689 0.81478 0.0
H1417 H 0.90739 0.30682 0.79947 0.0
H1418 H 0.81663 0.30735 0.75483 0.0
H1419 H 0.85042 0.30557 0.75995 0.0
H1420 H 0.86363 0.2443 0.76728 0.0
C1421 C 0.92374 0.25761 0.81306 0.0
C1422 C 0.89807 0.2932 0.79208 0.0
C1423 C 0.94088 0.25634 0.82369 0.0
C1424 C 0.82058 0.29425 0.76076 0.0
C1425 C 0.83997 0.29329 0.76377 0.0
C1426 C 0.87304 0.25809 0.77419 0.0
C1427 C 0.92296 0.27288 0.80085 0.0
C1428 C 0.90428 0.27459 0.79066 0.0
C1429 C 0.84578 0.27679 0.77183 0.0
C1430 C 0.86639 0.27643 0.77667 0.0
H1431 H 0.96992 0.29616 0.80839 0.0
H1432 H 0.93955 0.29867 0.78994 0.0
H1433 H 0.89629 0.24269 0.77963 0.0
H1434 H 0.80199 0.24975 0.77732 0.0
H1435 H 0.83567 0.24824 0.78284 0.0
C1436 C 0.46105 0.19278 0.60086 0.0
C1437 C 0.4721 0.20496 0.6171 0.0
C1438 C 0.46777 0.17676 0.59117 0.0
C1439 C 0.50278 0.14294 0.59621 0.0
H1440 H 0.49628 0.13731 0.53958 0.0
C1441 C 0.53625 0.08529 0.54926 0.0
C1442 C 0.52409 0.07415 0.53325 0.0
C1443 C 0.53102 0.10206 0.55954 0.0
C1444 C 0.49809 0.13854 0.55539 0.0
H1445 H 0.49875 0.20939 0.63614 0.0
H1446 H 0.51049 0.1815 0.61914 0.0
H1447 H 0.4842 0.16404 0.55789 0.0
H1448 H 0.49742 0.07212 0.51491 0.0
H1449 H 0.48829 0.10106 0.53272 0.0
H1450 H 0.51648 0.11722 0.59364 0.0
C1451 C 0.49655 0.1843 0.614 0.0
C1452 C 0.49112 0.15386 0.56589 0.0
C1453 C 0.48984 0.20036 0.6237 0.0
C1454 C 0.50707 0.08047 0.52722 0.0
C1455 C 0.50189 0.09715 0.53737 0.0
C1456 C 0.5097 0.12753 0.58568 0.0
C1457 C 0.48571 0.17249 0.59747 0.0
C1458 C 0.49328 0.15618 0.58643 0.0
C1459 C 0.51365 0.10803 0.55382 0.0
C1460 C 0.50734 0.12508 0.56513 0.0
H1461 H 0.44726 0.19576 0.59542 0.0
H1462 H 0.45891 0.16773 0.57869 0.0
H1463 H 0.50451 0.1442 0.61202 0.0
H1464 H 0.54942 0.08065 0.55421 0.0
H1465 H 0.5405 0.11026 0.57202 0.0
C1466 C 0.57784 0.78497 0.35152 0.0
C1467 C 0.56604 0.76569 0.35027 0.0
C1468 C 0.5955 0.78725 0.34388 0.0
C1469 C 0.61716 0.76426 0.30463 0.0
H1470 H 0.66686 0.7897 0.33175 0.0
C1471 C 0.68535 0.75588 0.2703 0.0
C1472 C 0.70086 0.77224 0.27309 0.0
C1473 C 0.66964 0.75634 0.28072 0.0
C1474 C 0.65306 0.78284 0.32386 0.0
H1475 H 0.56406 0.73361 0.34096 0.0
H1476 H 0.59448 0.73771 0.32745 0.0
H1477 H 0.63824 0.7888 0.34883 0.0
H1478 H 0.7122 0.802 0.28877 0.0
H1479 H 0.68444 0.80313 0.30676 0.0
H1480 H 0.6315 0.75863 0.27958 0.0
C1481 C 0.59007 0.75102 0.33426 0.0
C1482 C 0.63672 0.78228 0.33369 0.0
C1483 C 0.57266 0.74871 0.34207 0.0
C1484 C 0.70045 0.7891 0.28655 0.0
C1485 C 0.68458 0.7897 0.29686 0.0
C1486 C 0.63334 0.76507 0.29476 0.0
C1487 C 0.60145 0.77033 0.33468 0.0
C1488 C 0.6187 0.7726 0.32423 0.0
C1489 C 0.66888 0.77336 0.29395 0.0
C1490 C 0.65159 0.77395 0.30433 0.0
H1491 H 0.57318 0.79834 0.3578 0.0
H1492 H 0.60407 0.8023 0.34437 0.0
H1493 H 0.60336 0.75702 0.29692 0.0
H1494 H 0.68544 0.74259 0.26016 0.0
H1495 H 0.65813 0.74322 0.27845 0.0
C1496 C 0.04394 0.22964 0.44042 0.0
C1497 C 0.02589 0.2344 0.44276 0.0
C1498 C 0.05155 0.21706 0.45257 0.0
C1499 C 0.05018 0.1752 0.46527 0.0
H1500 H 0.04509 0.17235 0.5203 0.0
C1501 C 0.02832 0.10192 0.4987 0.0
C1502 C 0.0424 0.09699 0.51182 0.0
C1503 C 0.03054 0.12121 0.49275 0.0
C1504 C 0.04688 0.17317 0.50501 0.0
H1505 H 0.00268 0.23158 0.46098 0.0
H1506 H 0.01596 0.20968 0.48212 0.0
H1507 H 0.04287 0.20399 0.50628 0.0
H1508 H 0.06931 0.1085 0.52993 0.0
H1509 H 0.07288 0.14281 0.51989 0.0
H1510 H 0.05281 0.14401 0.46372 0.0
C1511 C 0.02419 0.21556 0.47087 0.0
C1512 C 0.04556 0.19115 0.497 0.0
C1513 C 0.0165 0.22796 0.45863 0.0
C1514 C 0.05832 0.11197 0.51969 0.0
C1515 C 0.06039 0.13147 0.51398 0.0
C1516 C 0.0512 0.15722 0.4732 0.0
C1517 C 0.04135 0.20926 0.4674 0.0
C1518 C 0.04668 0.19212 0.47694 0.0
C1519 C 0.04666 0.13603 0.50019 0.0
C1520 C 0.04905 0.15595 0.49297 0.0
H1521 H 0.05164 0.2345 0.42843 0.0
H1522 H 0.0649 0.21255 0.44972 0.0
H1523 H 0.05081 0.1754 0.44972 0.0
H1524 H 0.01561 0.09084 0.493 0.0
H1525 H 0.01968 0.1246 0.48229 0.0
C1526 C 0.56072 0.28878 0.14819 0.0
C1527 C 0.55409 0.30614 0.14345 0.0
C1528 C 0.56798 0.28757 0.1673 0.0
C1529 C 0.5986 0.32113 0.2031 0.0
H1530 H 0.59859 0.27243 0.22832 0.0
C1531 C 0.66823 0.3061 0.24118 0.0
C1532 C 0.67135 0.28662 0.2351 0.0
C1533 C 0.64991 0.31056 0.23819 0.0
C1534 C 0.59875 0.28625 0.22158 0.0
H1535 H 0.54842 0.33526 0.15482 0.0
H1536 H 0.56211 0.3336 0.18838 0.0
H1537 H 0.57011 0.27598 0.20767 0.0
H1538 H 0.65795 0.25638 0.22178 0.0
H1539 H 0.62633 0.26421 0.21584 0.0
H1540 H 0.6278 0.33047 0.21499 0.0
C1541 C 0.56119 0.32073 0.17741 0.0
C1542 C 0.58237 0.28835 0.20997 0.0
C1543 C 0.55344 0.32169 0.15829 0.0
C1544 C 0.6559 0.27155 0.22652 0.0
C1545 C 0.63769 0.276 0.22342 0.0
C1546 C 0.61507 0.3189 0.21445 0.0
C1547 C 0.5692 0.30399 0.18186 0.0
C1548 C 0.58262 0.30522 0.19966 0.0
C1549 C 0.63447 0.29562 0.22898 0.0
C1550 C 0.61571 0.30081 0.2227 0.0
H1551 H 0.56132 0.27665 0.13689 0.0
H1552 H 0.5743 0.27461 0.17025 0.0
H1553 H 0.5992 0.33426 0.19522 0.0
H1554 H 0.67995 0.31792 0.24804 0.0
H1555 H 0.64792 0.32578 0.24276 0.0
C1556 C 0.5171 0.83607 0.93137 0.0
C1557 C 0.50121 0.82246 0.93586 0.0
C1558 C 0.52175 0.85594 0.9408 0.0
C1559 C 0.51295 0.88831 0.98426 0.0
H1560 H 0.52254 0.93203 0.95205 0.0
C1561 C 0.49894 0.96788 0.00645 0.0
C1562 C 0.51152 0.98483 0.00188 0.0
C1563 C 0.50128 0.9483 0.00016 0.0
C1564 C 0.52025 0.92002 0.96132 0.0
H1565 H 0.478 0.81903 0.95411 0.0
H1566 H 0.48599 0.85352 0.9703 0.0
H1567 H 0.52016 0.89706 0.9376 0.0
H1568 H 0.5367 0.99452 0.98747 0.0
H1569 H 0.54074 0.96016 0.97642 0.0
H1570 H 0.51239 0.91121 0.00781 0.0
C1571 C 0.49501 0.84883 0.95967 0.0
C1572 C 0.51889 0.89998 0.95304 0.0
C1573 C 0.49033 0.82906 0.95024 0.0
C1574 C 0.5268 0.98177 0.99128 0.0
C1575 C 0.52905 0.96212 0.98485 0.0
C1576 C 0.51427 0.90831 0.99251 0.0
C1577 C 0.51069 0.86254 0.95499 0.0
C1578 C 0.51472 0.88388 0.96431 0.0
C1579 C 0.51619 0.94519 0.98906 0.0
C1580 C 0.51744 0.92433 0.98101 0.0
H1581 H 0.52582 0.83147 0.9204 0.0
H1582 H 0.534 0.86613 0.93698 0.0
H1583 H 0.51011 0.87625 0.99341 0.0
H1584 H 0.48705 0.9697 0.01462 0.0
H1585 H 0.49098 0.93557 0.00342 0.0
C1586 C 0.97331 0.80076 0.6812 0.0
C1587 C 0.96771 0.79817 0.66099 0.0
C1588 C 0.95984 0.79543 0.69413 0.0
C1589 C 0.92298 0.80028 0.71296 0.0
H1590 H 0.88659 0.74938 0.70655 0.0
C1591 C 0.85483 0.79257 0.75195 0.0
C1592 C 0.83806 0.78207 0.74057 0.0
C1593 C 0.87272 0.79145 0.74581 0.0
C1594 C 0.89655 0.76374 0.70848 0.0
H1595 H 0.94429 0.78658 0.63827 0.0
H1596 H 0.92088 0.77676 0.66076 0.0
H1597 H 0.91467 0.75249 0.68875 0.0
H1598 H 0.82669 0.76174 0.71423 0.0
H1599 H 0.85765 0.76045 0.70303 0.0
H1600 H 0.90433 0.81218 0.73137 0.0
C1601 C 0.93553 0.78318 0.66665 0.0
C1602 C 0.9127 0.76541 0.69842 0.0
C1603 C 0.94884 0.78897 0.65381 0.0
C1604 C 0.83944 0.77001 0.72326 0.0
C1605 C 0.85726 0.76911 0.71697 0.0
C1606 C 0.90666 0.79875 0.72273 0.0
C1607 C 0.94077 0.78689 0.68692 0.0
C1608 C 0.92578 0.78385 0.70021 0.0
C1609 C 0.87416 0.78002 0.72802 0.0
C1610 C 0.89292 0.78063 0.72016 0.0
H1611 H 0.98782 0.80789 0.68702 0.0
H1612 H 0.96416 0.79843 0.70972 0.0
H1613 H 0.93278 0.81473 0.71439 0.0
H1614 H 0.8541 0.80182 0.76549 0.0
H1615 H 0.8854 0.79975 0.7549 0.0
C1616 C 0.09732 0.01567 0.8386 0.0
C1617 C 0.11145 0.00382 0.83693 0.0
C1618 C 0.08894 0.01779 0.8559 0.0
C1619 C 0.07709 0.99094 0.89741 0.0
H1620 H 0.06717 0.04253 0.91962 0.0
C1621 C 0.03979 -0.00017 0.9678 0.0
C1622 C 0.02738 0.01373 0.96859 0.0
C1623 C 0.05086 0.9984 0.95227 0.0
C1624 C 0.0696 0.02795 0.91346 0.0
H1625 H 0.12826 0.98532 0.85222 0.0
H1626 H 0.11336 0.98885 0.8825 0.0
H1627 H 0.08594 0.04131 0.89207 0.0
H1628 H 0.0162 0.03639 0.95337 0.0
H1629 H 0.03492 0.03342 0.92605 0.0
H1630 H 0.06027 0.97744 0.91837 0.0
C1631 C 0.10884 0.99648 0.87037 0.0
C1632 C 0.08046 0.02731 0.89777 0.0
C1633 C 0.11743 0.99459 0.85311 0.0
C1634 C 0.02574 0.02564 0.95325 0.0
C1635 C 0.03663 0.02406 0.93767 0.0
C1636 C 0.06605 0.99155 0.91301 0.0
C1637 C 0.09434 0.0079 0.87182 0.0
C1638 C 0.08415 0.00878 0.88946 0.0
C1639 C 0.04961 0.01073 0.93716 0.0
C1640 C 0.06197 0.01004 0.92108 0.0
H1641 H 0.09244 0.023 0.82638 0.0
H1642 H 0.0777 0.02656 0.85657 0.0
H1643 H 0.07955 0.97641 0.89112 0.0
H1644 H 0.04151 0.9906 0.97953 0.0
H1645 H 0.06082 0.98809 0.95245 0.0
C1646 C 0.70252 0.34865 0.57869 0.0
C1647 C 0.71292 0.34117 0.5643 0.0
C1648 C 0.70148 0.3401 0.59628 0.0
C1649 C 0.71824 0.33078 0.636 0.0
H1650 H 0.71124 0.27319 0.64043 0.0
C1651 C 0.74532 0.29785 0.70537 0.0
C1652 C 0.73279 0.28169 0.71132 0.0
C1653 C 0.74089 0.30521 0.68761 0.0
C1654 C 0.7131 0.28932 0.63946 0.0
H1655 H 0.72893 0.31786 0.55627 0.0
H1656 H 0.72667 0.30264 0.58663 0.0
H1657 H 0.705 0.28466 0.60851 0.0
H1658 H 0.70579 0.26066 0.70354 0.0
H1659 H 0.69821 0.2733 0.67258 0.0
H1660 H 0.72675 0.33544 0.66691 0.0
C1661 C 0.71951 0.31521 0.5845 0.0
C1662 C 0.7096 0.29587 0.62117 0.0
C1663 C 0.72081 0.32393 0.56711 0.0
C1664 C 0.71579 0.27307 0.69927 0.0
C1665 C 0.71144 0.28027 0.68152 0.0
C1666 C 0.72195 0.32423 0.65427 0.0
C1667 C 0.71051 0.32371 0.59959 0.0
C1668 C 0.71227 0.31667 0.61922 0.0
C1669 C 0.72397 0.29636 0.67543 0.0
C1670 C 0.71956 0.30343 0.65617 0.0
H1671 H 0.69643 0.36203 0.57702 0.0
H1672 H 0.69426 0.3468 0.60758 0.0
H1673 H 0.72067 0.34692 0.63492 0.0
H1674 H 0.75864 0.30455 0.71424 0.0
H1675 H 0.75093 0.31749 0.68319 0.0
C1676 C 0.44497 0.05606 0.31532 0.0
C1677 C 0.43213 0.06948 0.31412 0.0
C1678 C 0.45147 0.05075 0.3334 0.0
C1679 C 0.45618 0.06749 0.38661 0.0
H1680 H 0.46217 0.01214 0.39114 0.0
C1681 C 0.47146 0.03918 0.46121 0.0
C1682 C 0.48614 0.02794 0.46281 0.0
C1683 C 0.46434 0.04356 0.44297 0.0
C1684 C 0.46069 0.02768 0.39006 0.0
H1685 H 0.41634 0.08812 0.33108 0.0
H1686 H 0.42719 0.07845 0.36245 0.0
H1687 H 0.451 0.02137 0.3595 0.0
H1688 H 0.50442 0.01194 0.44641 0.0
H1689 H 0.49192 0.01956 0.41458 0.0
H1690 H 0.46571 0.07372 0.41722 0.0
C1691 C 0.43247 0.0722 0.34948 0.0
C1692 C 0.45435 0.03301 0.37192 0.0
C1693 C 0.42606 0.07759 0.33142 0.0
C1694 C 0.49316 0.0207 0.44571 0.0
C1695 C 0.48594 0.02496 0.42745 0.0
C1696 C 0.4624 0.06213 0.40475 0.0
C1697 C 0.44524 0.0587 0.35071 0.0
C1698 C 0.45203 0.05299 0.36997 0.0
C1699 C 0.47164 0.03667 0.42591 0.0
C1700 C 0.46473 0.04218 0.40667 0.0
H1701 H 0.45 0.04961 0.30227 0.0
H1702 H 0.46154 0.04057 0.33382 0.0
H1703 H 0.45491 0.0831 0.3856 0.0
H1704 H 0.4657 0.04497 0.47407 0.0
H1705 H 0.45315 0.0524 0.44221 0.0
C1706 C 0.78737 0.70008 0.04444 0.0
C1707 C 0.80632 0.69707 0.04507 0.0
C1708 C 0.78118 0.71027 0.06048 0.0
C1709 C 0.79879 0.74171 0.10852 0.0
H1710 H 0.7483 0.7192 0.12144 0.0
C1711 C 0.77645 0.74672 0.18609 0.0
C1712 C 0.75926 0.75328 0.1888 0.0
C1713 C 0.78166 0.74307 0.16736 0.0
C1714 C 0.76231 0.72583 0.11783 0.0
H1715 H 0.83373 0.70263 0.06284 0.0
H1716 H 0.82282 0.7196 0.09108 0.0
H1717 H 0.7586 0.70678 0.0907 0.0
H1718 H 0.734 0.76123 0.17428 0.0
H1719 H 0.74285 0.75402 0.14115 0.0
H1720 H 0.80278 0.7598 0.1364 0.0
C1721 C 0.81281 0.71471 0.07804 0.0
C1722 C 0.76823 0.7188 0.10019 0.0
C1723 C 0.81907 0.70484 0.06188 0.0
C1724 C 0.74732 0.75616 0.17248 0.0
C1725 C 0.75235 0.75206 0.15363 0.0
C1726 C 0.79297 0.74846 0.12631 0.0
C1727 C 0.79371 0.71736 0.07765 0.0
C1728 C 0.7867 0.72637 0.09546 0.0
C1729 C 0.7696 0.74554 0.15098 0.0
C1730 C 0.77481 0.74033 0.13123 0.0
H1731 H 0.77726 0.69446 0.03158 0.0
H1732 H 0.7665 0.71239 0.05945 0.0
H1733 H 0.81291 0.74826 0.10521 0.0
H1734 H 0.78593 0.74448 0.19847 0.0
H1735 H 0.79493 0.73785 0.16564 0.0
C1736 C 0.09248 0.96946 0.71303 0.0
C1737 C 0.1067 0.98454 0.72401 0.0
C1738 C 0.08558 0.97184 0.69402 0.0
C1739 C 0.08023 0.97655 0.65057 0.0
H1740 H 0.07156 0.03011 0.64167 0.0
C1741 C 0.0628 0.00029 0.57371 0.0
C1742 C 0.05016 0.01383 0.57207 0.0
C1743 C 0.06854 0.99488 0.592 0.0
C1744 C 0.07369 0.015 0.64394 0.0
H1745 H 0.1253 0.01362 0.72343 0.0
H1746 H 0.11346 0.01764 0.69022 0.0
H1747 H 0.08428 0.02435 0.67394 0.0
H1748 H 0.03269 0.03141 0.58783 0.0
H1749 H 0.04238 0.0217 0.61966 0.0
H1750 H 0.06926 0.96718 0.62053 0.0
C1751 C 0.10737 0.00415 0.69642 0.0
C1752 C 0.08126 0.01177 0.66238 0.0
C1753 C 0.11423 0.0018 0.71542 0.0
C1754 C 0.04262 0.02109 0.58876 0.0
C1755 C 0.04826 0.01563 0.60699 0.0
C1756 C 0.07262 0.97978 0.63206 0.0
C1757 C 0.09278 0.98934 0.68561 0.0
C1758 C 0.08469 0.99255 0.66591 0.0
C1759 C 0.06166 0.00289 0.60889 0.0
C1760 C 0.06927 0.99906 0.62856 0.0
H1761 H 0.0864 0.95598 0.71923 0.0
H1762 H 0.07423 0.96025 0.68612 0.0
H1763 H 0.08283 0.96159 0.65281 0.0
H1764 H 0.06876 0.99445 0.561 0.0
H1765 H 0.07895 0.98511 0.59299 0.0
C1766 C 0.72435 0.32988 0.46275 0.0
C1767 C 0.71927 0.34871 0.46791 0.0
C1768 C 0.72278 0.32172 0.44315 0.0
C1769 C 0.72788 0.33792 0.39573 0.0
H1770 H 0.70597 0.28214 0.37502 0.0
C1771 C 0.74916 0.29694 0.32598 0.0
C1772 C 0.73403 0.28795 0.31157 0.0
C1773 C 0.74549 0.30429 0.3446 0.0
C1774 C 0.71205 0.29777 0.38061 0.0
H1775 H 0.70802 0.37348 0.45661 0.0
H1776 H 0.70579 0.35944 0.42218 0.0
H1777 H 0.70166 0.29483 0.40852 0.0
H1778 H 0.70319 0.27925 0.30553 0.0
H1779 H 0.69684 0.29148 0.33841 0.0
H1780 H 0.739 0.34062 0.36817 0.0
C1781 C 0.71073 0.35091 0.4334 0.0
C1782 C 0.70963 0.305 0.39973 0.0
C1783 C 0.71187 0.35886 0.45308 0.0
C1784 C 0.71515 0.28611 0.31632 0.0
C1785 C 0.7115 0.29305 0.33511 0.0
C1786 C 0.73066 0.33056 0.37679 0.0
C1787 C 0.7165 0.33244 0.42825 0.0
C1788 C 0.71759 0.32513 0.4075 0.0
C1789 C 0.72664 0.30242 0.34935 0.0
C1790 C 0.72289 0.31039 0.3691 0.0
H1791 H 0.73013 0.32174 0.47387 0.0
H1792 H 0.72743 0.30752 0.4396 0.0
H1793 H 0.73434 0.35343 0.40142 0.0
H1794 H 0.76385 0.29874 0.32275 0.0
H1795 H 0.75741 0.31135 0.35536 0.0
C1796 C 0.42422 0.07019 0.19415 0.0
C1797 C 0.4183 0.05265 0.20307 0.0
C1798 C 0.43228 0.06893 0.17658 0.0
C1799 C 0.43667 0.03636 0.13276 0.0
H1800 H 0.4867 0.07063 0.13477 0.0
C1801 C 0.48423 0.03145 0.06961 0.0
C1802 C 0.49586 0.04947 0.06603 0.0
C1803 C 0.47396 0.03116 0.08586 0.0
C1804 C 0.47261 0.06121 0.13374 0.0
H1805 H 0.41523 0.0199 0.19994 0.0
H1806 H 0.42903 0.01772 0.16884 0.0
H1807 H 0.46936 0.07139 0.16331 0.0
H1808 H 0.5055 0.08142 0.07604 0.0
H1809 H 0.48712 0.08122 0.10389 0.0
H1810 H 0.4396 0.0266 0.10299 0.0
C1811 C 0.42755 0.03242 0.17569 0.0
C1812 C 0.46274 0.06158 0.15018 0.0
C1813 C 0.41972 0.03369 0.19348 0.0
C1814 C 0.49682 0.06726 0.07867 0.0
C1815 C 0.48634 0.06708 0.0947 0.0
C1816 C 0.44642 0.03623 0.11612 0.0
C1817 C 0.43434 0.0501 0.16737 0.0
C1818 C 0.44467 0.04924 0.14984 0.0
C1819 C 0.47496 0.04897 0.0987 0.0
C1820 C 0.46451 0.04874 0.11638 0.0
H1821 H 0.42331 0.08505 0.20107 0.0
H1822 H 0.43723 0.08277 0.17034 0.0
H1823 H 0.4227 0.02676 0.13214 0.0
H1824 H 0.4834 0.01749 0.0601 0.0
H1825 H 0.46558 0.01688 0.08855 0.0
C1826 C 0.79945 0.70417 0.94778 0.0
C1827 C 0.8174 0.70046 0.9548 0.0
C1828 C 0.79775 0.71598 0.93255 0.0
C1829 C 0.8194 0.72913 0.88941 0.0
H1830 H 0.78678 0.76915 0.88937 0.0
C1831 C 0.80262 0.76756 0.82068 0.0
C1832 C 0.78353 0.76971 0.8166 0.0
C1833 C 0.80903 0.76203 0.83868 0.0
C1834 C 0.79584 0.75792 0.88909 0.0
H1835 H 0.84771 0.70657 0.95166 0.0
H1836 H 0.84462 0.72698 0.92461 0.0
H1837 H 0.79404 0.75447 0.91932 0.0
H1838 H 0.7562 0.76771 0.82823 0.0
H1839 H 0.76719 0.75756 0.85927 0.0
H1840 H 0.82048 0.73173 0.859 0.0
C1841 C 0.83194 0.72079 0.93108 0.0
C1842 C 0.80007 0.74963 0.90626 0.0
C1843 C 0.8337 0.70921 0.94657 0.0
C1844 C 0.77104 0.76633 0.83092 0.0
C1845 C 0.77739 0.76065 0.84883 0.0
C1846 C 0.81501 0.73726 0.87215 0.0
C1847 C 0.81391 0.72412 0.92385 0.0
C1848 C 0.81156 0.73486 0.90647 0.0
C1849 C 0.79645 0.75839 0.85293 0.0
C1850 C 0.80283 0.75142 0.87169 0.0
H1851 H 0.78664 0.69773 0.95389 0.0
H1852 H 0.78366 0.71814 0.92712 0.0
H1853 H 0.82815 0.7176 0.88914 0.0
H1854 H 0.81265 0.7702 0.81 0.0
H1855 H 0.82386 0.76066 0.84145 0.0
C1856 C 0.86186 0.14293 0.9985 0.0
C1857 C 0.84499 0.13641 0.00691 0.0
C1858 C 0.87689 0.13217 -0.00027 0.0
C1859 C 0.88404 0.08025 0.00559 0.0
H1860 H 0.93818 0.10362 0.01147 0.0
C1861 C 0.94043 0.03085 0.01681 0.0
C1862 C 0.9569 0.03446 0.00716 0.0
C1863 C 0.92778 0.04434 0.01693 0.0
C1864 C 0.9231 0.09688 0.00959 0.0
H1865 H 0.83132 0.11441 0.02446 0.0
H1866 H 0.85753 0.09601 0.02696 0.0
H1867 H 0.91471 0.12592 0.01261 0.0
H1868 H 0.97296 0.05491 0.98983 0.0
H1869 H 0.95069 0.07866 0.9899 0.0
H1870 H 0.89222 0.05131 0.00244 0.0
C1871 C 0.859 0.10907 0.01893 0.0
C1872 C 0.90966 0.10965 0.01029 0.0
C1873 C 0.84401 0.11974 0.01765 0.0
C1874 C 0.96043 0.05186 0.9975 0.0
C1875 C 0.94772 0.06546 0.99762 0.0
C1876 C 0.8974 0.06756 0.00487 0.0
C1877 C 0.87535 0.11469 0.00942 0.0
C1878 C 0.88994 0.10146 0.00854 0.0
C1879 C 0.93115 0.06177 0.00726 0.0
C1880 C 0.91712 0.07564 0.00709 0.0
H1881 H 0.86307 0.1557 0.99009 0.0
H1882 H 0.88925 0.13693 0.99222 0.0
H1883 H 0.86899 0.07337 0.0036 0.0
H1884 H 0.93741 0.0177 0.02459 0.0
H1885 H 0.91543 0.04119 0.02484 0.0
C1886 C 0.33701 0.46738 0.05776 0.0
C1887 C 0.32113 0.47182 0.04674 0.0
C1888 C 0.35544 0.4739 0.05296 0.0
C1889 C 0.38442 0.50975 0.02555 0.0
H1890 H 0.41695 0.46962 0.02443 0.0
C1891 C 0.45664 0.52178 0.99301 0.0
C1892 C 0.47195 0.51575 0.00358 0.0
C1893 C 0.43809 0.51683 0.99817 0.0
C1894 C 0.40813 0.48107 0.02487 0.0
H1895 H 0.31214 0.48736 0.0226 0.0
H1896 H 0.34441 0.49873 0.01417 0.0
H1897 H 0.38501 0.46104 0.03432 0.0
H1898 H 0.47974 0.49957 0.02776 0.0
H1899 H 0.44751 0.49116 0.03682 0.0
H1900 H 0.40763 0.52979 0.01608 0.0
C1901 C 0.34258 0.49024 0.02656 0.0
C1902 C 0.38984 0.47616 0.03056 0.0
C1903 C 0.32411 0.48369 0.03136 0.0
C1904 C 0.4683 0.50451 0.0193 0.0
C1905 C 0.44978 0.49956 0.02444 0.0
C1906 C 0.40277 0.51468 0.01987 0.0
C1907 C 0.35839 0.48505 0.03707 0.0
C1908 C 0.37782 0.49047 0.03105 0.0
C1909 C 0.43448 0.50568 0.01396 0.0
C1910 C 0.41485 0.50041 0.01955 0.0
H1911 H 0.33521 0.45858 0.06993 0.0
H1912 H 0.36739 0.47005 0.0616 0.0
H1913 H 0.37553 0.52113 0.02593 0.0
H1914 H 0.45895 0.53042 0.9808 0.0
H1915 H 0.42655 0.52154 0.98967 0.0
C1916 C 0.31557 0.60598 0.77579 0.0
C1917 C 0.32119 0.59697 0.7586 0.0
C1918 C 0.30306 0.61949 0.77483 0.0
C1919 C 0.26666 0.63733 0.74524 0.0
H1920 H 0.28924 0.69018 0.77332 0.0
C1921 C 0.23234 0.70759 0.7377 0.0
C1922 C 0.23406 0.72184 0.75426 0.0
C1923 C 0.2421 0.6915 0.738 0.0
C1924 C 0.28252 0.67546 0.76569 0.0
H1925 H 0.3169 0.59392 0.7269 0.0
H1926 H 0.29461 0.61745 0.72533 0.0
H1927 H 0.30668 0.66251 0.77432 0.0
H1928 H 0.24668 0.73042 0.78424 0.0
H1929 H 0.26317 0.70188 0.78515 0.0
H1930 H 0.24224 0.65003 0.73703 0.0
C1931 C 0.30018 0.61409 0.73947 0.0
C1932 C 0.29259 0.65967 0.76618 0.0
C1933 C 0.31295 0.6007 0.7404 0.0
C1934 C 0.24533 0.71965 0.77125 0.0
C1935 C 0.25485 0.70338 0.77168 0.0
C1936 C 0.25639 0.65307 0.74501 0.0
C1937 C 0.29569 0.62406 0.75671 0.0
C1938 C 0.28474 0.64051 0.756 0.0
C1939 C 0.2535 0.6892 0.755 0.0
C1940 C 0.26422 0.67233 0.75525 0.0
H1941 H 0.32149 0.60336 0.79007 0.0
H1942 H 0.29958 0.62688 0.7883 0.0
H1943 H 0.26036 0.62261 0.73734 0.0
H1944 H 0.22382 0.70915 0.72436 0.0
H1945 H 0.24099 0.68112 0.72478 0.0
C1946 C 0.21724 0.62967 0.47204 0.0
C1947 C 0.23162 0.63066 0.48758 0.0
C1948 C 0.19822 0.62131 0.47387 0.0
C1949 C 0.1655 0.60847 0.51119 0.0
H1950 H 0.13317 0.57513 0.46744 0.0
C1951 C 0.09092 0.56308 0.5194 0.0
C1952 C 0.07612 0.56453 0.50516 0.0
C1953 C 0.10995 0.57049 0.51685 0.0
C1954 C 0.14201 0.58453 0.47973 0.0
H1955 H 0.23733 0.62342 0.51713 0.0
H1956 H 0.20433 0.60852 0.52016 0.0
H1957 H 0.16631 0.58952 0.46377 0.0
H1958 H 0.06945 0.5743 0.47688 0.0
H1959 H 0.10275 0.5872 0.47236 0.0
H1960 H 0.14124 0.6033 0.52719 0.0
C1961 C 0.20762 0.61457 0.5067 0.0
C1962 C 0.16097 0.59283 0.47763 0.0
C1963 C 0.22659 0.62303 0.50492 0.0
C1964 C 0.08064 0.57306 0.48811 0.0
C1965 C 0.09968 0.58033 0.48548 0.0
C1966 C 0.14661 0.60006 0.51332 0.0
C1967 C 0.19318 0.61368 0.49124 0.0
C1968 C 0.17295 0.6049 0.49335 0.0
C1969 C 0.11452 0.57934 0.49993 0.0
C1970 C 0.13466 0.58801 0.49763 0.0
H1971 H 0.22064 0.63549 0.45851 0.0
H1972 H 0.18743 0.62111 0.46177 0.0
H1973 H 0.17419 0.61801 0.52349 0.0
H1974 H 0.08779 0.5565 0.53265 0.0
H1975 H 0.12111 0.56929 0.52812 0.0
C1976 C 0.66668 0.94552 0.77862 0.0
C1977 C 0.66251 0.94999 0.79785 0.0
C1978 C 0.67906 0.93219 0.77454 0.0
C1979 C 0.69637 0.88923 0.7926 0.0
H1980 H 0.73945 0.90341 0.76325 0.0
C1981 C 0.75337 0.83978 0.78789 0.0
C1982 C 0.76118 0.83715 0.77021 0.0
C1983 C 0.7417 0.85402 0.79075 0.0
C1984 C 0.72732 0.89906 0.77121 0.0
H1985 H 0.66815 0.94402 0.82787 0.0
H1986 H 0.68943 0.92057 0.82064 0.0
H1987 H 0.71799 0.92726 0.76871 0.0
H1988 H 0.7633 0.84734 0.7417 0.0
H1989 H 0.74247 0.87198 0.74642 0.0
H1990 H 0.7052 0.86092 0.79478 0.0
C1991 C 0.68317 0.92744 0.80877 0.0
C1992 C 0.7151 0.91277 0.77437 0.0
C1993 C 0.67107 0.94096 0.8129 0.0
C1994 C 0.75752 0.84927 0.75554 0.0
C1995 C 0.74562 0.86338 0.75829 0.0
C1996 C 0.70839 0.87543 0.78922 0.0
C1997 C 0.68722 0.92285 0.78956 0.0
C1998 C 0.69967 0.90806 0.78531 0.0
C1999 C 0.7374 0.86579 0.77588 0.0
C2000 C 0.7242 0.88027 0.77872 0.0
H2001 H 0.66036 0.95228 0.76672 0.0
H2002 H 0.68193 0.92884 0.75959 0.0
H2003 H 0.68438 0.88512 0.80082 0.0
H2004 H 0.75623 0.83072 0.79949 0.0
H2005 H 0.73605 0.85577 0.80467 0.0
C2006 C 0.68949 0.93922 0.53686 0.0
C2007 C 0.70578 0.93953 0.52698 0.0
C2008 C 0.67232 0.94189 0.52708 0.0
C2009 C 0.65516 0.96614 0.48579 0.0
H2010 H 0.6056 0.94179 0.49951 0.0
C2011 C 0.57027 0.97434 0.47833 0.0
C2012 C 0.57328 0.99527 0.48435 0.0
C2013 C 0.58583 0.96464 0.47691 0.0
C2014 C 0.61925 0.94844 0.49511 0.0
H2015 H 0.71656 0.94165 0.49881 0.0
H2016 H 0.68656 0.94613 0.48175 0.0
H2017 H 0.63372 0.92855 0.51035 0.0
H2018 H 0.59462 0.02279 0.49187 0.0
H2019 H 0.62176 0.00596 0.48953 0.0
H2020 H 0.64074 0.98636 0.47095 0.0
C2021 C 0.68715 0.94421 0.49713 0.0
C2022 C 0.63541 0.94102 0.50157 0.0
C2023 C 0.70432 0.9416 0.50691 0.0
C2024 C 0.59196 0.00662 0.48724 0.0
C2025 C 0.6075 0.99695 0.48579 0.0
C2026 C 0.639 0.97355 0.4793 0.0
C2027 C 0.67108 0.94482 0.50719 0.0
C2028 C 0.65362 0.95026 0.49758 0.0
C2029 C 0.60462 0.97574 0.48145 0.0
C2030 C 0.62097 0.96526 0.4845 0.0
H2031 H 0.69014 0.93761 0.5523 0.0
H2032 H 0.66027 0.94253 0.53533 0.0
H2033 H 0.66899 0.97367 0.48251 0.0
H2034 H 0.55595 0.96527 0.47594 0.0
H2035 H 0.58317 0.94833 0.47323 0.0
C2036 C 0.33726 0.49517 0.7415 0.0
C2037 C 0.34007 0.50715 0.75976 0.0
C2038 C 0.32697 0.47521 0.73928 0.0
C2039 C 0.2915 0.44112 0.7623 0.0
H2040 H 0.3113 0.39779 0.73497 0.0
C2041 C 0.26791 0.35768 0.77354 0.0
C2042 C 0.26599 0.34259 0.75756 0.0
C2043 C 0.27497 0.37795 0.7716 0.0
C2044 C 0.30538 0.40975 0.74235 0.0
H2045 H 0.33428 0.50738 0.79002 0.0
H2046 H 0.31653 0.47272 0.78615 0.0
H2047 H 0.32774 0.43291 0.73571 0.0
H2048 H 0.26956 0.33711 0.72681 0.0
H2049 H 0.28185 0.37266 0.72343 0.0
H2050 H 0.26936 0.41802 0.76924 0.0
C2051 C 0.32206 0.47881 0.77348 0.0
C2052 C 0.31483 0.42987 0.74279 0.0
C2053 C 0.3324 0.49867 0.77572 0.0
C2054 C 0.27085 0.34835 0.73942 0.0
C2055 C 0.27801 0.36869 0.73751 0.0
C2056 C 0.28206 0.42106 0.76183 0.0
C2057 C 0.31916 0.46687 0.75524 0.0
C2058 C 0.30821 0.44572 0.75314 0.0
C2059 C 0.28033 0.38368 0.75364 0.0
C2060 C 0.28912 0.4051 0.75221 0.0
H2061 H 0.34296 0.50121 0.72888 0.0
H2062 H 0.32489 0.46641 0.72502 0.0
H2063 H 0.28583 0.45305 0.77004 0.0
H2064 H 0.2643 0.35384 0.78773 0.0
H2065 H 0.27681 0.38905 0.7844 0.0
C2066 C 0.16969 0.54856 0.31424 0.0
C2067 C 0.15326 0.53872 0.30184 0.0
C2068 C 0.17977 0.56733 0.31068 0.0
C2069 C 0.18546 0.60246 0.27252 0.0
H2070 H 0.20543 0.64259 0.31715 0.0
C2071 C 0.22776 0.68184 0.26362 0.0
C2072 C 0.22416 0.69825 0.27585 0.0
C2073 C 0.22055 0.66192 0.26687 0.0
C2074 C 0.19982 0.63163 0.3045 0.0
H2075 H 0.1346 0.54088 0.2759 0.0
H2076 H 0.15178 0.57383 0.27004 0.0
H2077 H 0.18977 0.60883 0.32234 0.0
H2078 H 0.21027 0.7069 0.30101 0.0
H2079 H 0.19719 0.67229 0.30637 0.0
H2080 H 0.19466 0.6256 0.25467 0.0
C2081 C 0.15721 0.56685 0.28225 0.0
C2082 C 0.19107 0.61212 0.30749 0.0
C2083 C 0.14726 0.54798 0.28569 0.0
C2084 C 0.21332 0.69448 0.29141 0.0
C2085 C 0.20595 0.67462 0.29455 0.0
C2086 C 0.19404 0.62204 0.26952 0.0
C2087 C 0.17354 0.57683 0.29476 0.0
C2088 C 0.18365 0.59732 0.29154 0.0
C2089 C 0.20945 0.65807 0.28232 0.0
C2090 C 0.20118 0.63693 0.28548 0.0
H2091 H 0.17481 0.54175 0.32671 0.0
H2092 H 0.19248 0.57436 0.32041 0.0
H2093 H 0.18018 0.59138 0.25988 0.0
H2094 H 0.23618 0.68438 0.25157 0.0
H2095 H 0.22378 0.64957 0.25733 0.0
C2096 C 0.51768 0.72673 0.41586 0.0
C2097 C 0.50041 0.73385 0.41361 0.0
C2098 C 0.52085 0.71422 0.43032 0.0
C2099 C 0.49317 0.67769 0.45742 0.0
H2100 H 0.54141 0.6793 0.4886 0.0
C2101 C 0.49949 0.61891 0.51032 0.0
C2102 C 0.51567 0.60996 0.50971 0.0
C2103 C 0.4988 0.63675 0.5019 0.0
C2104 C 0.52787 0.67861 0.47992 0.0
H2105 H 0.47357 0.73463 0.4257 0.0
H2106 H 0.47919 0.71309 0.4508 0.0
H2107 H 0.53841 0.70561 0.46725 0.0
H2108 H 0.54417 0.613 0.5008 0.0
H2109 H 0.54284 0.64386 0.48565 0.0
H2110 H 0.48271 0.65048 0.46937 0.0
C2111 C 0.49008 0.71674 0.44116 0.0
C2112 C 0.52617 0.69367 0.46772 0.0
C2113 C 0.4869 0.72913 0.42677 0.0
C2114 C 0.53153 0.61966 0.50147 0.0
C2115 C 0.53079 0.6374 0.49288 0.0
C2116 C 0.49489 0.66265 0.46947 0.0
C2117 C 0.50682 0.70867 0.44275 0.0
C2118 C 0.5088 0.69331 0.45631 0.0
C2119 C 0.51419 0.64584 0.4925 0.0
C2120 C 0.51226 0.66283 0.48083 0.0
H2121 H 0.5284 0.73014 0.406 0.0
H2122 H 0.53388 0.70816 0.43116 0.0
H2123 H 0.47971 0.67674 0.4485 0.0
H2124 H 0.4871 0.61176 0.51669 0.0
H2125 H 0.48596 0.64308 0.50225 0.0
C2126 C 0.54386 0.26545 0.69077 0.0
C2127 C 0.53838 0.28298 0.68461 0.0
C2128 C 0.56219 0.26631 0.70011 0.0
C2129 C 0.60413 0.30234 0.72682 0.0
H2130 H 0.63021 0.25765 0.71565 0.0
C2131 C 0.68475 0.3057 0.74964 0.0
C2132 C 0.6901 0.28826 0.75621 0.0
C2133 C 0.66577 0.30552 0.74258 0.0
C2134 C 0.62301 0.27013 0.71912 0.0
H2135 H 0.54798 0.3151 0.68317 0.0
H2136 H 0.58013 0.3165 0.69905 0.0
H2137 H 0.59839 0.25643 0.6992 0.0
H2138 H 0.67946 0.25722 0.76128 0.0
H2139 H 0.64639 0.25698 0.74899 0.0
H2140 H 0.62906 0.31619 0.74646 0.0
C2141 C 0.57012 0.30217 0.69705 0.0
C2142 C 0.60476 0.26944 0.70969 0.0
C2143 C 0.55172 0.30134 0.6878 0.0
C2144 C 0.67589 0.27092 0.75632 0.0
C2145 C 0.65695 0.27071 0.74914 0.0
C2146 C 0.62247 0.30309 0.73616 0.0
C2147 C 0.57556 0.28468 0.7034 0.0
C2148 C 0.59506 0.28552 0.71342 0.0
C2149 C 0.65177 0.28787 0.74182 0.0
C2150 C 0.63209 0.28697 0.73242 0.0
H2151 H 0.5339 0.25108 0.68865 0.0
H2152 H 0.56576 0.2526 0.70506 0.0
H2153 H 0.59697 0.31485 0.73029 0.0
H2154 H 0.69531 0.31932 0.74935 0.0
H2155 H 0.66223 0.31894 0.73695 0.0
C2156 C 0.00853 0.33165 0.90443 0.0
C2157 C 0.99022 0.32203 0.89556 0.0
C2158 C 0.01092 0.34969 0.91713 0.0
C2159 C 0.98255 0.37823 0.94785 0.0
H2160 H 0.02541 0.42309 0.9504 0.0
C2161 C 0.98041 0.45798 0.98254 0.0
C2162 C 0.99574 0.46779 0.99631 0.0
C2163 C 0.98148 0.44004 0.97123 0.0
C2164 C 0.01351 0.41054 0.94996 0.0
H2165 H 0.96033 0.32444 0.89199 0.0
H2166 H 0.96454 0.356 0.91341 0.0
H2167 H 0.02403 0.39227 0.92784 0.0
H2168 H 0.02406 0.46633 0.00946 0.0
H2169 H 0.02624 0.43507 0.98897 0.0
H2170 H 0.97171 0.3967 0.9694 0.0
C2171 C 0.97698 0.34934 0.91127 0.0
C2172 C 0.0127 0.39291 0.93709 0.0
C2173 C 0.97457 0.33129 0.89884 0.0
C2174 C 0.01223 0.4593 0.99861 0.0
C2175 C 0.01344 0.44143 0.98699 0.0
C2176 C 0.98327 0.39584 0.96048 0.0
C2177 C 0.99506 0.35848 0.92103 0.0
C2178 C 0.99697 0.37672 0.93559 0.0
C2179 C 0.99797 0.43158 0.97333 0.0
C2180 C 0.99854 0.41229 0.9614 0.0
H2181 H 0.02085 0.32482 0.90221 0.0
H2182 H 0.02504 0.35631 0.92441 0.0
H2183 H 0.97053 0.36585 0.94757 0.0
H2184 H 0.96753 0.46418 0.98044 0.0
H2185 H 0.96942 0.43283 0.96069 0.0
C2186 C 0.92862 0.74386 0.20209 0.0
C2187 C 0.92941 0.74928 0.18305 0.0
C2188 C 0.91192 0.74363 0.21117 0.0
C2189 C 0.87033 0.76841 0.2095 0.0
H2190 H 0.85144 0.73044 0.24489 0.0
C2191 C 0.80097 0.77225 0.24441 0.0
C2192 C 0.80048 0.7683 0.26384 0.0
C2193 C 0.81632 0.76884 0.23432 0.0
C2194 C 0.85667 0.7413 0.23521 0.0
H2195 H 0.91285 0.75723 0.15813 0.0
H2196 H 0.88372 0.75647 0.17383 0.0
H2197 H 0.87829 0.72489 0.227 0.0
H2198 H 0.81591 0.75875 0.28848 0.0
H2199 H 0.84312 0.75309 0.27101 0.0
H2200 H 0.84905 0.78502 0.21785 0.0
C2201 C 0.89612 0.75285 0.1819 0.0
C2202 C 0.87201 0.73807 0.22492 0.0
C2203 C 0.91278 0.7531 0.17284 0.0
C2204 C 0.81592 0.76162 0.27336 0.0
C2205 C 0.83136 0.75822 0.2633 0.0
C2206 C 0.85509 0.77166 0.21981 0.0
C2207 C 0.8957 0.7488 0.2014 0.0
C2208 C 0.87898 0.75158 0.21191 0.0
C2209 C 0.83168 0.76168 0.2436 0.0
C2210 C 0.84803 0.75815 0.23278 0.0
H2211 H 0.94119 0.74085 0.21037 0.0
H2212 H 0.91209 0.74049 0.22622 0.0
H2213 H 0.87562 0.77938 0.19995 0.0
H2214 H 0.78967 0.77832 0.23706 0.0
H2215 H 0.81604 0.77167 0.21919 0.0
C2216 C 0.50569 0.3614 0.0778 0.0
C2217 C 0.48766 0.35432 0.08378 0.0
C2218 C 0.50784 0.37569 0.06469 0.0
C2219 C 0.48419 0.3979 0.02627 0.0
H2220 H 0.52455 0.44477 0.04341 0.0
C2221 C 0.49743 0.46843 0.9847 0.0
C2222 C 0.51649 0.47816 0.98465 0.0
C2223 C 0.49304 0.45237 0.99572 0.0
C2224 C 0.51342 0.43166 0.03826 0.0
H2225 H 0.45758 0.35604 0.07986 0.0
H2226 H 0.46144 0.38116 0.05654 0.0
H2227 H 0.51784 0.41839 0.06465 0.0
H2228 H 0.54599 0.4781 0.9947 0.0
H2229 H 0.53847 0.44964 0.01366 0.0
H2230 H 0.48005 0.41098 -0.00034 0.0
C2231 C 0.47383 0.37555 0.06228 0.0
C2232 C 0.5095 0.41665 0.05048 0.0
C2233 C 0.47165 0.36126 0.07562 0.0
C2234 C 0.53118 0.47096 0.99485 0.0
C2235 C 0.52683 0.45479 0.00574 0.0
C2236 C 0.48823 0.41288 0.01391 0.0
C2237 C 0.49204 0.38319 0.05711 0.0
C2238 C 0.49502 0.39956 0.04451 0.0
C2239 C 0.50769 0.44565 0.00667 0.0
C2240 C 0.50305 0.4298 0.01971 0.0
H2241 H 0.51834 0.35627 0.08358 0.0
H2242 H 0.52197 0.38112 0.06064 0.0
H2243 H 0.47302 0.38476 0.02137 0.0
H2244 H 0.48584 0.47386 0.97699 0.0
H2245 H 0.47816 0.44579 0.99628 0.0
C2246 C 0.94828 0.24408 0.3629 0.0
C2247 C 0.96376 0.25732 0.35725 0.0
C2248 C 0.93007 0.24161 0.35272 0.0
C2249 C 0.90555 0.24932 0.30542 0.0
H2250 H 0.86136 0.2482 0.33401 0.0
C2251 C 0.83446 0.26748 0.27369 0.0
C2252 C 0.81742 0.25615 0.2784 0.0
C2253 C 0.85206 0.26437 0.28194 0.0
C2254 C 0.87352 0.24813 0.3258 0.0
H2255 H 0.97232 0.27859 0.33674 0.0
H2256 H 0.94052 0.27462 0.31927 0.0
H2257 H 0.89273 0.24955 0.35169 0.0
H2258 H 0.80519 0.23216 0.29467 0.0
H2259 H 0.83608 0.22675 0.30924 0.0
H2260 H 0.88638 0.24855 0.2796 0.0
C2261 C 0.94249 0.2658 0.33128 0.0
C2262 C 0.89148 0.24892 0.33592 0.0
C2263 C 0.96067 0.26821 0.3414 0.0
C2264 C 0.81819 0.24113 0.2909 0.0
C2265 C 0.83581 0.23811 0.29928 0.0
C2266 C 0.88761 0.24862 0.29532 0.0
C2267 C 0.92701 0.25236 0.33673 0.0
C2268 C 0.90774 0.24989 0.32587 0.0
C2269 C 0.85289 0.24994 0.29511 0.0
C2270 C 0.87149 0.24837 0.30545 0.0
H2271 H 0.95026 0.23535 0.37496 0.0
H2272 H 0.91845 0.23102 0.35717 0.0
H2273 H 0.91775 0.24961 0.29723 0.0
H2274 H 0.83419 0.27914 0.26405 0.0
H2275 H 0.86499 0.27384 0.27862 0.0
C2276 C 0.99042 0.75319 0.57971 0.0
C2277 C 0.97306 0.75796 0.58487 0.0
C2278 C 0.99105 0.73395 0.5707 0.0
C2279 C 0.96627 0.68127 0.56653 0.0
H2280 H 0.99756 0.67365 0.52458 0.0
C2281 C 0.97114 0.60165 0.53118 0.0
C2282 C 0.98933 0.59848 0.52711 0.0
C2283 C 0.96808 0.62116 0.53665 0.0
C2284 C 0.9889 0.67553 0.53641 0.0
H2285 H 0.94266 0.74633 0.58418 0.0
H2286 H 0.94383 0.71254 0.56843 0.0
H2287 H 0.99378 0.70778 0.53653 0.0
H2288 H 0.01858 0.6134 0.52557 0.0
H2289 H 0.01332 0.64742 0.53546 0.0
H2290 H 0.96176 0.64914 0.56682 0.0
C2291 C 0.95693 0.72378 0.57148 0.0
C2292 C 0.98669 0.69506 0.54319 0.0
C2293 C 0.95625 0.74314 0.58039 0.0
C2294 C 0.00436 0.6153 0.5285 0.0
C2295 C 0.00132 0.63483 0.53407 0.0
C2296 C 0.96856 0.66175 0.55982 0.0
C2297 C 0.97438 0.71896 0.56671 0.0
C2298 C 0.9755 0.69815 0.55845 0.0
C2299 C 0.98315 0.63798 0.53829 0.0
C2300 C 0.98005 0.65866 0.54481 0.0
H2301 H 0.00364 0.76424 0.58289 0.0
H2302 H 0.00474 0.73062 0.5674 0.0
H2303 H 0.95779 0.68322 0.57851 0.0
H2304 H 0.95919 0.58905 0.53015 0.0
H2305 H 0.95385 0.62307 0.5395 0.0
C2306 C 0.56234 0.75363 0.85058 0.0
C2307 C 0.55845 0.76753 0.86547 0.0
C2308 C 0.57857 0.75824 0.841 0.0
C2309 C 0.6264 0.78969 0.84533 0.0
H2310 H 0.6203 0.7769 0.78892 0.0
C2311 C 0.69032 0.80436 0.80015 0.0
C2312 C 0.69152 0.78813 0.78626 0.0
C2313 C 0.67359 0.80455 0.80904 0.0
C2314 C 0.62226 0.78048 0.80467 0.0
H2315 H 0.56887 0.79695 0.88239 0.0
H2316 H 0.59747 0.80495 0.86561 0.0
H2317 H 0.59233 0.77176 0.80671 0.0
H2318 H 0.67616 0.75979 0.7702 0.0
H2319 H 0.64704 0.75996 0.78578 0.0
H2320 H 0.65642 0.79788 0.84335 0.0
C2321 C 0.58784 0.79051 0.8614 0.0
C2322 C 0.60625 0.77753 0.81485 0.0
C2323 C 0.57148 0.78593 0.87097 0.0
C2324 C 0.67556 0.7725 0.78084 0.0
C2325 C 0.65886 0.77267 0.78972 0.0
C2326 C 0.64247 0.79257 0.83514 0.0
C2327 C 0.59136 0.77682 0.84611 0.0
C2328 C 0.6082 0.78171 0.83531 0.0
C2329 C 0.65779 0.78853 0.80415 0.0
C2330 C 0.6406 0.78761 0.81473 0.0
H2331 H 0.55268 0.73927 0.84606 0.0
H2332 H 0.58112 0.74722 0.82955 0.0
H2333 H 0.62833 0.79293 0.86111 0.0
H2334 H 0.70246 0.81666 0.80449 0.0
H2335 H 0.67311 0.81711 0.8199 0.0
C2336 C 0.37798 0.55001 0.67256 0.0
C2337 C 0.376 0.56973 0.67949 0.0
C2338 C 0.38933 0.54692 0.65761 0.0
C2339 C 0.43134 0.57471 0.63902 0.0
H2340 H 0.42424 0.52701 0.60097 0.0
C2341 C 0.48334 0.56288 0.58164 0.0
C2342 C 0.48662 0.54311 0.57713 0.0
C2343 C 0.47005 0.5666 0.59441 0.0
C2344 C 0.4265 0.54029 0.6117 0.0
H2345 H 0.38245 0.60136 0.67458 0.0
H2346 H 0.40192 0.59588 0.64821 0.0
H2347 H 0.39824 0.53266 0.62001 0.0
H2348 H 0.47948 0.51201 0.58363 0.0
H2349 H 0.45654 0.51864 0.60616 0.0
H2350 H 0.45963 0.58227 0.63079 0.0
C2351 C 0.39522 0.5829 0.65479 0.0
C2352 C 0.41157 0.54358 0.6225 0.0
C2353 C 0.38392 0.58601 0.66978 0.0
C2354 C 0.47731 0.52742 0.58673 0.0
C2355 C 0.46397 0.53115 0.59946 0.0
C2356 C 0.44624 0.57144 0.62818 0.0
C2357 C 0.3988 0.56347 0.64921 0.0
C2358 C 0.41388 0.56076 0.63639 0.0
C2359 C 0.45977 0.55064 0.60293 0.0
C2360 C 0.44403 0.55411 0.61454 0.0
H2361 H 0.37197 0.5371 0.67963 0.0
H2362 H 0.39176 0.53174 0.65365 0.0
H2363 H 0.43375 0.58787 0.64989 0.0
H2364 H 0.49023 0.57533 0.57451 0.0
H2365 H 0.46711 0.58178 0.59679 0.0
C2366 C 0.81231 0.22689 0.94728 0.0
C2367 C 0.79929 0.21124 0.95348 0.0
C2368 C 0.80692 0.23685 0.93148 0.0
C2369 C 0.77186 0.22927 0.88734 0.0
H2370 H 0.79022 0.28668 0.88587 0.0
C2371 C 0.74837 0.27111 0.82276 0.0
C2372 C 0.76268 0.28515 0.81626 0.0
C2373 C 0.75204 0.26255 0.84001 0.0
C2374 C 0.78511 0.27059 0.88596 0.0
H2375 H 0.77005 0.19443 0.94828 0.0
H2376 H 0.76064 0.21196 0.92099 0.0
H2377 H 0.79789 0.2714 0.91533 0.0
H2378 H 0.79194 0.30146 0.82273 0.0
H2379 H 0.79841 0.28653 0.85272 0.0
H2380 H 0.75921 0.22843 0.85791 0.0
C2381 C 0.77515 0.21628 0.9281 0.0
C2382 C 0.7895 0.26182 0.90288 0.0
C2383 C 0.78053 0.20632 0.94389 0.0
C2384 C 0.78062 0.2907 0.82743 0.0
C2385 C 0.78429 0.2822 0.84467 0.0
C2386 C 0.76745 0.23804 0.87042 0.0
C2387 C 0.78836 0.23144 0.92147 0.0
C2388 C 0.78304 0.24102 0.90376 0.0
C2389 C 0.77006 0.26799 0.85118 0.0
C2390 C 0.77414 0.25879 0.86946 0.0
H2391 H 0.82689 0.23109 0.95424 0.0
H2392 H 0.81754 0.24833 0.92669 0.0
H2393 H 0.76689 0.21314 0.88734 0.0
H2394 H 0.73428 0.26694 0.81466 0.0
H2395 H 0.74066 0.25189 0.84472 0.0
C2396 C 0.06225 0.47673 0.22151 0.0
C2397 C 0.08146 0.47725 0.22829 0.0
C2398 C 0.05701 0.47923 0.20213 0.0
C2399 C 0.07672 0.49976 0.1592 0.0
H2400 H 0.02792 0.47075 0.1325 0.0
C2401 C 0.0515 0.50427 0.07797 0.0
C2402 C 0.0328 0.50778 0.07424 0.0
C2403 C 0.05813 0.49984 0.09636 0.0
C2404 C 0.04155 0.47901 0.13983 0.0
H2405 H 0.11023 0.48038 0.21998 0.0
H2406 H 0.10099 0.48427 0.18591 0.0
H2407 H 0.03849 0.46342 0.16505 0.0
H2408 H 0.0064 0.50938 0.08689 0.0
H2409 H 0.01796 0.50142 0.11891 0.0
H2410 H 0.07975 0.51518 0.13374 0.0
C2411 C 0.09003 0.48234 0.19571 0.0
C2412 C 0.0476 0.47487 0.15848 0.0
C2413 C 0.09531 0.47999 0.21519 0.0
C2414 C 0.02088 0.50677 0.08928 0.0
C2415 C 0.02744 0.50209 0.10757 0.0
C2416 C 0.07074 0.50374 0.14042 0.0
C2417 C 0.07081 0.48212 0.18899 0.0
C2418 C 0.06511 0.48543 0.16854 0.0
C2419 C 0.04611 0.49857 0.11128 0.0
C2420 C 0.05297 0.49361 0.1307 0.0
H2421 H 0.05123 0.47478 0.23125 0.0
H2422 H 0.04214 0.47937 0.19761 0.0
H2423 H 0.09017 0.50837 0.16659 0.0
H2424 H 0.06106 0.50502 0.06671 0.0
H2425 H 0.07257 0.49709 0.09883 0.0
C2426 C 0.79165 0.88139 0.48859 0.0
C2427 C 0.77991 0.89512 0.49403 0.0
C2428 C 0.78667 0.86808 0.47133 0.0
C2429 C 0.7579 0.86128 0.42349 0.0
H2430 H 0.76408 0.80531 0.42259 0.0
C2431 C 0.73574 0.80551 0.3536 0.0
C2432 C 0.74935 0.79393 0.34852 0.0
C2433 C 0.73734 0.81588 0.37236 0.0
C2434 C 0.76235 0.82092 0.4226 0.0
H2435 H 0.75373 0.90563 0.4855 0.0
H2436 H 0.74513 0.88239 0.45547 0.0
H2437 H 0.77166 0.82795 0.45323 0.0
H2438 H 0.77464 0.78312 0.35916 0.0
H2439 H 0.7776 0.80138 0.39186 0.0
H2440 H 0.74897 0.85446 0.39286 0.0
C2441 C 0.75823 0.88204 0.46448 0.0
C2442 C 0.76673 0.83388 0.44012 0.0
C2443 C 0.76317 0.89531 0.48174 0.0
C2444 C 0.76396 0.79195 0.36275 0.0
C2445 C 0.76559 0.80236 0.3815 0.0
C2446 C 0.75356 0.84835 0.40599 0.0
C2447 C 0.76989 0.86824 0.45912 0.0
C2448 C 0.76469 0.85425 0.4407 0.0
C2449 C 0.75261 0.81489 0.38634 0.0
C2450 C 0.75587 0.82806 0.4053 0.0
H2451 H 0.80463 0.88082 0.49769 0.0
H2452 H 0.79609 0.8578 0.46743 0.0
H2453 H 0.75642 0.87696 0.42341 0.0
H2454 H 0.72427 0.80716 0.34288 0.0
H2455 H 0.72689 0.82509 0.37576 0.0
C2456 C 0.42966 0.55571 0.77697 0.0
C2457 C 0.41494 0.56627 0.78075 0.0
C2458 C 0.4445 0.55573 0.7916 0.0
C2459 C 0.46831 0.58348 0.83866 0.0
H2460 H 0.47873 0.53126 0.85009 0.0
C2461 C 0.49629 0.56817 0.91478 0.0
C2462 C 0.50796 0.55372 0.91642 0.0
C2463 C 0.4892 0.57208 0.89638 0.0
C2464 C 0.47637 0.54604 0.84686 0.0
H2465 H 0.40438 0.58545 0.80261 0.0
H2466 H 0.43007 0.58529 0.82808 0.0
H2467 H 0.45811 0.53333 0.82067 0.0
H2468 H 0.52249 0.53297 0.90044 0.0
H2469 H 0.5103 0.54 0.86824 0.0
H2470 H 0.48608 0.59611 0.86519 0.0
C2471 C 0.43027 0.57715 0.81381 0.0
C2472 C 0.46453 0.54719 0.83001 0.0
C2473 C 0.41542 0.57701 0.79929 0.0
C2474 C 0.51333 0.54406 0.89949 0.0
C2475 C 0.50632 0.54802 0.8811 0.0
C2476 C 0.48022 0.58234 0.85547 0.0
C2477 C 0.44493 0.5665 0.81014 0.0
C2478 C 0.45991 0.56582 0.8261 0.0
C2479 C 0.49375 0.56166 0.87935 0.0
C2480 C 0.48388 0.56351 0.86005 0.0
H2481 H 0.42968 0.54738 0.76276 0.0
H2482 H 0.45566 0.5474 0.78842 0.0
H2483 H 0.4652 0.59809 0.83577 0.0
H2484 H 0.492 0.57583 0.92767 0.0
H2485 H 0.47938 0.58251 0.89554 0.0
C2486 C 0.78431 0.1975 0.05095 0.0
C2487 C 0.80376 0.2011 0.0479 0.0
C2488 C 0.77845 0.20527 0.06844 0.0
C2489 C 0.79541 0.22073 0.1201 0.0
H2490 H 0.75301 0.24921 0.12084 0.0
C2491 C 0.77735 0.25786 0.19267 0.0
C2492 C 0.75815 0.25802 0.19531 0.0
C2493 C 0.78255 0.2519 0.17433 0.0
C2494 C 0.76469 0.24102 0.12097 0.0
H2495 H 0.83225 0.21577 0.06095 0.0
H2496 H 0.82203 0.22892 0.09164 0.0
H2497 H 0.76264 0.23677 0.08962 0.0
H2498 H 0.72931 0.25225 0.18062 0.0
H2499 H 0.73822 0.24104 0.14861 0.0
H2500 H 0.79718 0.22414 0.15123 0.0
C2501 C 0.81133 0.22019 0.08039 0.0
C2502 C 0.77027 0.234 0.10303 0.0
C2503 C 0.81718 0.21273 0.06277 0.0
C2504 C 0.74424 0.25239 0.17903 0.0
C2505 C 0.74941 0.24604 0.16064 0.0
C2506 C 0.78967 0.22743 0.13799 0.0
C2507 C 0.79191 0.21651 0.08344 0.0
C2508 C 0.7858 0.22392 0.10241 0.0
C2509 C 0.76865 0.24547 0.15807 0.0
C2510 C 0.77434 0.23789 0.13877 0.0
H2511 H 0.77357 0.18866 0.03981 0.0
H2512 H 0.76341 0.20207 0.0704 0.0
H2513 H 0.80721 0.2127 0.12011 0.0
H2514 H 0.78848 0.26239 0.20484 0.0
H2515 H 0.79756 0.25237 0.17298 0.0
C2516 C 0.09096 0.4976 0.3532 0.0
C2517 C 0.08502 0.50118 0.33415 0.0
C2518 C 0.08209 0.50457 0.369 0.0
C2519 C 0.0359 0.51581 0.37924 0.0
H2520 H 0.06183 0.53831 0.43058 0.0
C2521 C 0.01528 0.54911 0.45839 0.0
C2522 C 0.0011 0.5328 0.4614 0.0
C2523 C 0.02629 0.54734 0.44286 0.0
C2524 C 0.05444 0.53221 0.41626 0.0
H2525 H 0.0658 0.51574 0.31687 0.0
H2526 H 0.05035 0.52781 0.3444 0.0
H2527 H 0.08063 0.53225 0.40347 0.0
H2528 H 0.98683 0.50207 0.4504 0.0
H2529 H 0.0057 0.4991 0.42307 0.0
H2530 H 0.00976 0.51537 0.39201 0.0
C2531 C 0.06171 0.51945 0.34709 0.0
C2532 C 0.06517 0.52861 0.40083 0.0
C2533 C 0.07061 0.51257 0.33134 0.0
C2534 C 0.99766 0.51491 0.44836 0.0
C2535 C 0.00846 0.51321 0.43274 0.0
C2536 C 0.02522 0.51921 0.39466 0.0
C2537 C 0.06707 0.51515 0.36601 0.0
C2538 C 0.05598 0.52024 0.38221 0.0
C2539 C 0.02293 0.52935 0.42989 0.0
C2540 C 0.03438 0.52721 0.41335 0.0
H2541 H 0.10201 0.48885 0.35584 0.0
H2542 H 0.08641 0.50091 0.38342 0.0
H2543 H 0.02842 0.50914 0.36511 0.0
H2544 H 0.01775 0.56326 0.46795 0.0
H2545 H 0.03721 0.56008 0.44082 0.0
C2546 C 0.76583 0.86987 0.57759 0.0
C2547 C 0.76002 0.88865 0.57857 0.0
C2548 C 0.75949 0.85587 0.59015 0.0
C2549 C 0.72715 0.84424 0.62847 0.0
H2550 H 0.77042 0.82343 0.65057 0.0
C2551 C 0.73441 0.81444 0.70439 0.0
C2552 C 0.74497 0.79895 0.70603 0.0
C2553 C 0.7318 0.82223 0.68654 0.0
C2554 C 0.75803 0.82872 0.64435 0.0
H2555 H 0.74205 0.9071 0.59236 0.0
H2556 H 0.73157 0.88293 0.6151 0.0
H2557 H 0.77385 0.84275 0.62321 0.0
H2558 H 0.75934 0.77801 0.69013 0.0
H2559 H 0.75433 0.79112 0.65897 0.0
H2560 H 0.71167 0.83066 0.6505 0.0
C2561 C 0.74069 0.87881 0.60434 0.0
C2562 C 0.75999 0.83982 0.62857 0.0
C2563 C 0.74674 0.89269 0.59141 0.0
C2564 C 0.75143 0.79021 0.68929 0.0
C2565 C 0.74859 0.79774 0.67149 0.0
C2566 C 0.72521 0.8331 0.64446 0.0
C2567 C 0.74763 0.86059 0.60434 0.0
C2568 C 0.74463 0.84774 0.6204 0.0
C2569 C 0.73957 0.81446 0.67013 0.0
C2570 C 0.74068 0.82525 0.65253 0.0
H2571 H 0.77578 0.86626 0.56752 0.0
H2572 H 0.76462 0.84171 0.58934 0.0
H2573 H 0.71504 0.85012 0.62248 0.0
H2574 H 0.72933 0.82144 0.71715 0.0
H2575 H 0.72484 0.83516 0.68595 0.0
C2576 C 0.65351 0.41701 0.51513 0.0
C2577 C 0.65878 0.40833 0.53193 0.0
C2578 C 0.63874 0.42807 0.5148 0.0
C2579 C 0.61317 0.45655 0.54886 0.0
H2580 H 0.58087 0.45971 0.50156 0.0
C2581 C 0.55358 0.50451 0.54727 0.0
C2582 C 0.55294 0.51648 0.53188 0.0
C2583 C 0.56522 0.48992 0.54734 0.0
C2584 C 0.58986 0.45904 0.51487 0.0
H2585 H 0.65184 0.40335 0.5611 0.0
H2586 H 0.62574 0.42202 0.56031 0.0
H2587 H 0.60265 0.43577 0.50124 0.0
H2588 H 0.56396 0.52283 0.50459 0.0
H2589 H 0.58432 0.49743 0.50471 0.0
H2590 H 0.60031 0.47982 0.56245 0.0
C2591 C 0.63339 0.42089 0.54759 0.0
C2592 C 0.60238 0.44534 0.51469 0.0
C2593 C 0.64827 0.41001 0.54799 0.0
C2594 C 0.56424 0.5138 0.51667 0.0
C2595 C 0.57573 0.49912 0.51663 0.0
C2596 C 0.60053 0.4701 0.54907 0.0
C2597 C 0.62876 0.43055 0.5312 0.0
C2598 C 0.6144 0.44408 0.53162 0.0
C2599 C 0.57636 0.48701 0.53196 0.0
C2600 C 0.58892 0.4717 0.53202 0.0
H2601 H 0.66137 0.41609 0.50254 0.0
H2602 H 0.63576 0.43542 0.50197 0.0
H2603 H 0.62241 0.45634 0.5621 0.0
H2604 H 0.54503 0.5064 0.5592 0.0
H2605 H 0.56532 0.48075 0.5593 0.0
C2606 C 0.24095 0.13279 0.51712 0.0
C2607 C 0.24936 0.14039 0.50116 0.0
C2608 C 0.22141 0.12495 0.51556 0.0
C2609 C 0.17989 0.10307 0.47937 0.0
H2610 H 0.15196 0.11048 0.52411 0.0
C2611 C 0.09819 0.07406 0.47885 0.0
C2612 C 0.09275 0.06418 0.49497 0.0
C2613 C 0.11711 0.08382 0.47854 0.0
C2614 C 0.15962 0.1082 0.51154 0.0
H2615 H 0.24375 0.14614 0.47111 0.0
H2616 H 0.20938 0.13271 0.46847 0.0
H2617 H 0.18501 0.12802 0.52549 0.0
H2618 H 0.10299 0.05649 0.52324 0.0
H2619 H 0.13593 0.07359 0.52269 0.0
H2620 H 0.15427 0.08329 0.46544 0.0
C2621 C 0.21804 0.13253 0.48211 0.0
C2622 C 0.17855 0.11822 0.51232 0.0
C2623 C 0.2377 0.14034 0.48366 0.0
C2624 C 0.10669 0.06392 0.51058 0.0
C2625 C 0.12553 0.07384 0.51035 0.0
C2626 C 0.16085 0.09317 0.47853 0.0
C2627 C 0.20971 0.12463 0.49803 0.0
C2628 C 0.18904 0.11547 0.49639 0.0
C2629 C 0.13087 0.08408 0.49444 0.0
C2630 C 0.15067 0.09537 0.49476 0.0
H2631 H 0.24952 0.13253 0.53081 0.0
H2632 H 0.21558 0.11866 0.528 0.0
H2633 H 0.18761 0.10045 0.46692 0.0
H2634 H 0.0878 0.07453 0.46657 0.0
H2635 H 0.12086 0.09166 0.46613 0.0
C2636 C 0.20057 0.95966 0.79096 0.0
C2637 C 0.18693 0.96768 0.77984 0.0
C2638 C 0.21111 0.94667 0.78186 0.0
C2639 C 0.23464 0.92155 0.75898 0.0
H2640 H 0.20023 0.87942 0.72381 0.0
C2641 C 0.25344 0.84312 0.73704 0.0
C2642 C 0.23966 0.82778 0.74261 0.0
C2643 C 0.24948 0.86257 0.73579 0.0
C2644 C 0.21014 0.89122 0.73332 0.0
H2645 H 0.17502 0.96992 0.7503 0.0
H2646 H 0.19354 0.94744 0.73449 0.0
H2647 H 0.19013 0.91109 0.7335 0.0
H2648 H 0.21093 0.82056 0.75075 0.0
H2649 H 0.20378 0.85392 0.74781 0.0
H2650 H 0.25407 0.90086 0.75981 0.0
C2651 C 0.19577 0.95081 0.75026 0.0
C2652 C 0.20443 0.90945 0.7388 0.0
C2653 C 0.18516 0.96371 0.75934 0.0
C2654 C 0.22164 0.83188 0.74594 0.0
C2655 C 0.21757 0.85106 0.74431 0.0
C2656 C 0.24039 0.90328 0.75342 0.0
C2657 C 0.20831 0.94152 0.76145 0.0
C2658 C 0.21627 0.92447 0.75236 0.0
C2659 C 0.23157 0.86673 0.73969 0.0
C2660 C 0.22781 0.88763 0.74125 0.0
H2661 H 0.20236 0.96248 0.80676 0.0
H2662 H 0.22053 0.93965 0.79096 0.0
H2663 H 0.24419 0.93296 0.76923 0.0
H2664 H 0.26751 0.84036 0.73452 0.0
H2665 H 0.26052 0.87445 0.73226 0.0
C2666 C 0.27371 0.94083 0.00689 0.0
C2667 C 0.27124 0.92421 0.01773 0.0
C2668 C 0.29204 0.95178 0.00567 0.0
C2669 C 0.33889 0.96508 0.03394 0.0
H2670 H 0.35805 0.98054 0.98598 0.0
C2671 C 0.41812 0.99874 0.0309 0.0
C2672 C 0.42277 0.01324 0.0181 0.0
C2673 C 0.39919 0.98894 0.03086 0.0
C2674 C 0.35281 0.97666 -0.00044 0.0
H2675 H 0.28607 0.90554 0.0351 0.0
H2676 H 0.31792 0.92468 0.03299 0.0
H2677 H 0.32573 0.96075 0.98487 0.0
H2678 H 0.41143 0.02949 0.99574 0.0
H2679 H 0.37821 0.01283 0.99605 0.0
H2680 H 0.36566 0.98117 0.04876 0.0
C2681 C 0.3057 0.92929 0.02556 0.0
C2682 C 0.33435 0.96525 0.99887 0.0
C2683 C 0.28746 0.91825 0.02662 0.0
C2684 C 0.40816 0.01827 0.00569 0.0
C2685 C 0.38918 0.00861 0.00577 0.0
C2686 C 0.35722 0.97667 0.03468 0.0
C2687 C 0.30813 0.94641 0.01545 0.0
C2688 C 0.32736 0.95912 0.01603 0.0
C2689 C 0.3845 0.9936 0.01815 0.0
C2690 C 0.36453 0.98238 0.01747 0.0
H2691 H 0.26147 0.94577 -0.00011 0.0
H2692 H 0.29357 0.96495 0.99778 0.0
H2693 H 0.33368 0.96087 0.04744 0.0
H2694 H 0.42917 0.99454 0.04054 0.0
H2695 H 0.39619 0.97727 0.04039 0.0
C2696 C 0.85422 0.61816 0.74308 0.0
C2697 C 0.86522 0.62209 0.76142 0.0
C2698 C 0.84178 0.631 0.73776 0.0
C2699 C 0.80718 0.65346 0.74449 0.0
H2700 H 0.82556 0.71116 0.74441 0.0
C2701 C 0.76434 0.71616 0.76344 0.0
C2702 C 0.76519 0.73181 0.75149 0.0
C2703 C 0.77522 0.70113 0.76034 0.0
C2704 C 0.82023 0.69505 0.74411 0.0
H2705 H 0.87261 0.64282 0.78818 0.0
H2706 H 0.85147 0.66561 0.77856 0.0
H2707 H 0.84846 0.68835 0.74656 0.0
H2708 H 0.77651 0.74311 0.72592 0.0
H2709 H 0.79635 0.71743 0.7211 0.0
H2710 H 0.77901 0.66035 0.74338 0.0
C2711 C 0.85222 0.65248 0.76848 0.0
C2712 C 0.8333 0.68206 0.74536 0.0
C2713 C 0.8642 0.63942 0.77399 0.0
C2714 C 0.77625 0.73164 0.73579 0.0
C2715 C 0.78739 0.71686 0.7329 0.0
C2716 C 0.79411 0.66651 0.74365 0.0
C2717 C 0.8407 0.64821 0.75049 0.0
C2718 C 0.82688 0.66125 0.74589 0.0
C2719 C 0.78719 0.70167 0.74535 0.0
C2720 C 0.80058 0.68746 0.7438 0.0
H2721 H 0.85472 0.60481 0.73321 0.0
H2722 H 0.83292 0.62747 0.72384 0.0
H2723 H 0.802 0.63746 0.7451 0.0
H2724 H 0.75581 0.71591 0.77558 0.0
H2725 H 0.77493 0.68963 0.7702 0.0
C2726 C 0.82589 0.60642 0.03392 0.0
C2727 C 0.83297 0.62326 0.02448 0.0
C2728 C 0.83841 0.59691 0.04465 0.0
C2729 C 0.86982 0.57182 0.04687 0.0
H2730 H 0.91519 0.59895 0.08096 0.0
C2731 C 0.95241 0.56582 0.05654 0.0
C2732 C 0.95038 0.54471 0.05283 0.0
C2733 C 0.93686 0.57445 0.06103 0.0
C2734 C 0.90259 0.59111 0.07147 0.0
H2735 H 0.8586 0.64404 0.01989 0.0
H2736 H 0.88042 0.62757 0.0388 0.0
H2737 H 0.88946 0.61728 0.07349 0.0
H2738 H 0.93132 0.51591 0.05288 0.0
H2739 H 0.90419 0.53094 0.06155 0.0
H2740 H 0.88336 0.54636 0.04318 0.0
C2741 C 0.86518 0.62178 0.0379 0.0
C2742 C 0.88785 0.60159 0.06733 0.0
C2743 C 0.85269 0.63111 0.02694 0.0
C2744 C 0.93309 0.53227 0.05539 0.0
C2745 C 0.91756 0.5409 0.06025 0.0
C2746 C 0.88466 0.56148 0.05069 0.0
C2747 C 0.85818 0.60427 0.04638 0.0
C2748 C 0.87168 0.59224 0.0544 0.0
C2749 C 0.919 0.56211 0.06221 0.0
C2750 C 0.90161 0.57129 0.06235 0.0
H2751 H 0.81074 0.60004 0.03238 0.0
H2752 H 0.83271 0.58341 0.05105 0.0
H2753 H 0.85754 0.56433 0.03673 0.0
H2754 H 0.96569 0.57574 0.05476 0.0
H2755 H 0.93859 0.59081 0.06219 0.0
C2756 C 0.18156 0.07111 0.81709 0.0
C2757 C 0.17145 0.05719 0.80151 0.0
C2758 C 0.18942 0.09091 0.81404 0.0
C2759 C 0.18641 0.12845 0.77856 0.0
H2760 H 0.23486 0.15573 0.80726 0.0
C2761 C 0.22793 0.20482 0.76065 0.0
C2762 C 0.23406 0.21987 0.77666 0.0
C2763 C 0.22078 0.18481 0.76359 0.0
C2764 C 0.22127 0.14831 0.79923 0.0
H2765 H 0.16194 0.05308 0.77044 0.0
H2766 H 0.1761 0.08731 0.76501 0.0
H2767 H 0.22146 0.12105 0.81244 0.0
H2768 H 0.23789 0.22563 0.80832 0.0
H2769 H 0.22565 0.1906 0.81341 0.0
H2770 H 0.18652 0.15566 0.76507 0.0
C2771 C 0.17754 0.08318 0.77972 0.0
C2772 C 0.21352 0.12847 0.80225 0.0
C2773 C 0.16948 0.06348 0.78281 0.0
C2774 C 0.23324 0.21441 0.79567 0.0
C2775 C 0.22633 0.19434 0.79861 0.0
C2776 C 0.19429 0.14817 0.77537 0.0
C2777 C 0.18755 0.09721 0.7953 0.0
C2778 C 0.19594 0.11829 0.792 0.0
C2779 C 0.21985 0.1794 0.7826 0.0
C2780 C 0.21175 0.15832 0.78572 0.0
H2781 H 0.18323 0.06679 0.8317 0.0
H2782 H 0.19674 0.10135 0.82647 0.0
H2783 H 0.17267 0.1213 0.77068 0.0
H2784 H 0.22832 0.20854 0.74581 0.0
H2785 H 0.216 0.17353 0.751 0.0
C2786 C 0.36412 0.01017 0.25765 0.0
C2787 C 0.36312 0.02379 0.27414 0.0
C2788 C 0.35335 0.99038 0.25532 0.0
C2789 C 0.33033 0.95234 0.28452 0.0
H2790 H 0.30112 0.92648 0.23566 0.0
C2791 C 0.27583 0.87862 0.2819 0.0
C2792 C 0.27582 0.86333 0.26662 0.0
C2793 C 0.28599 0.89823 0.28143 0.0
C2794 C 0.30937 0.93345 0.24935 0.0
H2795 H 0.34952 0.02737 0.30075 0.0
H2796 H 0.33092 0.99321 0.29659 0.0
H2797 H 0.32044 0.96062 0.2372 0.0
H2798 H 0.28579 0.85655 0.23854 0.0
H2799 H 0.30376 0.89088 0.23778 0.0
H2800 H 0.31943 0.92538 0.29674 0.0
C2801 C 0.3402 0.99764 0.28564 0.0
C2802 C 0.32043 0.95295 0.25021 0.0
C2803 C 0.35084 0.01731 0.28794 0.0
C2804 C 0.28558 0.86812 0.25051 0.0
C2805 C 0.2958 0.88777 0.25005 0.0
C2806 C 0.31935 0.93293 0.28366 0.0
C2807 C 0.34151 0.98386 0.26947 0.0
C2808 C 0.33078 0.9627 0.2679 0.0
C2809 C 0.29642 0.90293 0.2657 0.0
C2810 C 0.30851 0.92336 0.26616 0.0
H2811 H 0.37339 0.01468 0.24672 0.0
H2812 H 0.35466 0.98004 0.24272 0.0
H2813 H 0.33849 0.95928 0.29826 0.0
H2814 H 0.26832 0.87533 0.29444 0.0
H2815 H 0.28585 0.90967 0.29353 0.0
C2816 C 0.47446 0.29809 0.5877 0.0
C2817 C 0.48083 0.30011 0.60772 0.0
C2818 C 0.47946 0.31411 0.57671 0.0
C2819 C 0.47909 0.35357 0.5602 0.0
H2820 H 0.52353 0.39628 0.57549 0.0
C2821 C 0.48118 0.43345 0.53759 0.0
C2822 C 0.49878 0.44585 0.53601 0.0
C2823 C 0.4805 0.4144 0.54403 0.0
C2824 C 0.51118 0.3844 0.57068 0.0
H2825 H 0.4979 0.3202 0.63184 0.0
H2826 H 0.50576 0.34851 0.61312 0.0
H2827 H 0.52115 0.36492 0.59008 0.0
H2828 H 0.52947 0.4479 0.53903 0.0
H2829 H 0.52835 0.41419 0.5492 0.0
H2830 H 0.46955 0.37258 0.54011 0.0
C2831 C 0.4975 0.3344 0.60553 0.0
C2832 C 0.50963 0.36644 0.57938 0.0
C2833 C 0.49292 0.31816 0.61638 0.0
C2834 C 0.5157 0.43861 0.54025 0.0
C2835 C 0.51503 0.41935 0.54627 0.0
C2836 C 0.48084 0.3713 0.55117 0.0
C2837 C 0.49046 0.33281 0.58561 0.0
C2838 C 0.49332 0.35094 0.57467 0.0
C2839 C 0.49742 0.40709 0.54862 0.0
C2840 C 0.49664 0.38725 0.55666 0.0
H2841 H 0.46527 0.28423 0.58062 0.0
H2842 H 0.47426 0.31194 0.56132 0.0
H2843 H 0.46615 0.34225 0.55622 0.0
H2844 H 0.46794 0.43879 0.53458 0.0
H2845 H 0.46667 0.40577 0.54601 0.0
C2846 C 0.45906 0.7888 0.31314 0.0
C2847 C 0.46002 0.77283 0.3245 0.0
C2848 C 0.44165 0.79032 0.30284 0.0
C2849 C 0.39466 0.76026 0.28236 0.0
H2850 H 0.37481 0.80935 0.29381 0.0
C2851 C 0.31434 0.76038 0.27512 0.0
C2852 C 0.30765 0.77767 0.27001 0.0
C2853 C 0.33393 0.76044 0.27779 0.0
C2854 C 0.38024 0.79567 0.29006 0.0
H2855 H 0.44379 0.74563 0.33353 0.0
H2856 H 0.41371 0.74811 0.31541 0.0
H2857 H 0.40791 0.80853 0.30537 0.0
H2858 H 0.3163 0.80832 0.26286 0.0
H2859 H 0.35049 0.80828 0.26721 0.0
H2860 H 0.36704 0.74721 0.26735 0.0
C2861 C 0.42627 0.75949 0.31449 0.0
C2862 C 0.39921 0.79523 0.29671 0.0
C2863 C 0.44347 0.75818 0.325 0.0
C2864 C 0.32097 0.79479 0.26696 0.0
C2865 C 0.34059 0.79481 0.26953 0.0
C2866 C 0.37579 0.76074 0.27555 0.0
C2867 C 0.42513 0.77562 0.30343 0.0
C2868 C 0.40637 0.77731 0.29346 0.0
C2869 C 0.34732 0.77774 0.27528 0.0
C2870 C 0.36814 0.77823 0.27988 0.0
H2871 H 0.47162 0.8003 0.31254 0.0
H2872 H 0.44109 0.80292 0.29442 0.0
H2873 H 0.39995 0.74633 0.27945 0.0
H2874 H 0.30451 0.74694 0.27765 0.0
H2875 H 0.33855 0.74712 0.28254 0.0
C2876 C 0.99128 0.70099 0.12806 0.0
C2877 C 0.97393 0.70607 0.12084 0.0
C2878 C 0.99808 0.68492 0.1185 0.0
C2879 C 0.9944 0.65557 0.07008 0.0
H2880 H 0.01596 0.61655 0.09811 0.0
C2881 C 0.00829 0.58144 0.03081 0.0
C2882 C 0.02418 0.57363 0.03772 0.0
C2883 C 0.00355 0.59839 0.041 0.0
C2884 C 0.01027 0.62751 0.09007 0.0
H2885 H 0.94992 0.69775 0.09811 0.0
H2886 H 0.96177 0.66978 0.08154 0.0
H2887 H 0.00451 0.64406 0.11625 0.0
H2888 H 0.04814 0.57785 0.06019 0.0
H2889 H 0.0401 0.60792 0.07799 0.0
H2890 H 0.00018 0.63922 0.04395 0.0
C2891 C 0.97021 0.67839 0.09448 0.0
C2892 C 0.00364 0.64323 0.10047 0.0
C2893 C 0.96336 0.69436 0.10409 0.0
C2894 C 0.03577 0.58357 0.05463 0.0
C2895 C 0.03103 0.60064 0.06488 0.0
C2896 C 0.00111 0.63997 0.05971 0.0
C2897 C 0.98776 0.67364 0.10142 0.0
C2898 C 0.99541 0.65728 0.09057 0.0
C2899 C 0.01472 0.6081 0.0583 0.0
C2900 C 0.00891 0.62557 0.06953 0.0
H2901 H -0.00019 0.70965 0.14093 0.0
H2902 H 0.01169 0.6817 0.12416 0.0
H2903 H 0.98851 0.6664 0.06204 0.0
H2904 H -0.0008 0.57413 0.0177 0.0
H2905 H 0.99076 0.60348 0.0356 0.0
C2906 C 0.07593 0.28331 0.85193 0.0
C2907 C 0.06409 0.26397 0.84958 0.0
C2908 C 0.09393 0.28603 0.84501 0.0
C2909 C 0.11672 0.26544 0.80569 0.0
H2910 H 0.16601 0.28842 0.83504 0.0
C2911 C 0.18536 0.25895 0.77187 0.0
C2912 C 0.20093 0.27523 0.77562 0.0
C2913 C 0.16962 0.25861 0.78235 0.0
C2914 C 0.15233 0.28227 0.82656 0.0
H2915 H 0.0623 0.2322 0.83903 0.0
H2916 H 0.09334 0.23709 0.82672 0.0
H2917 H 0.13682 0.2866 0.85134 0.0
H2918 H 0.21262 0.30373 0.79355 0.0
H2919 H 0.18469 0.30357 0.81155 0.0
H2920 H 0.13172 0.2615 0.78084 0.0
C2921 C 0.08872 0.2501 0.83389 0.0
C2922 C 0.13568 0.28118 0.83593 0.0
C2923 C 0.07095 0.24734 0.84099 0.0
C2924 C 0.20072 0.29101 0.79039 0.0
C2925 C 0.18476 0.29085 0.80074 0.0
C2926 C 0.13321 0.26681 0.79629 0.0
C2927 C 0.10018 0.26949 0.83544 0.0
C2928 C 0.1178 0.27236 0.82562 0.0
C2929 C 0.16887 0.27476 0.79663 0.0
C2930 C 0.15131 0.27478 0.80666 0.0
H2931 H 0.07107 0.29642 0.85854 0.0
H2932 H 0.10256 0.30114 0.84634 0.0
H2933 H 0.10303 0.2589 0.79736 0.0
H2934 H 0.18533 0.24642 0.76078 0.0
H2935 H 0.15799 0.24564 0.77918 0.0
C2936 C 0.52795 0.72169 0.94111 0.0
C2937 C 0.51333 0.73179 0.94635 0.0
C2938 C 0.53355 0.70729 0.95238 0.0
C2939 C 0.51216 0.67218 0.9849 0.0
H2940 H 0.56137 0.65569 0.98635 0.0
C2941 C 0.51916 0.59023 0.99108 0.0
C2942 C 0.53514 0.5863 0.00225 0.0
C2943 C 0.51809 0.60998 0.98764 0.0
C2944 C 0.54762 0.66025 0.98636 0.0
H2945 H 0.49454 0.73639 0.96853 0.0
H2946 H 0.50478 0.7118 0.98856 0.0
H2947 H 0.55814 0.68849 0.97591 0.0
H2948 H 0.56245 0.59974 0.01882 0.0
H2949 H 0.56049 0.63454 0.01303 0.0
H2950 H 0.50162 0.64405 0.99534 0.0
C2951 C 0.51141 0.71438 0.97536 0.0
C2952 C 0.54572 0.67895 0.98019 0.0
C2953 C 0.50561 0.72854 0.96394 0.0
C2954 C 0.54999 0.60245 0.0101 0.0
C2955 C 0.54891 0.6223 0.00671 0.0
C2956 C 0.51409 0.65363 0.99118 0.0
C2957 C 0.52482 0.70292 0.96925 0.0
C2958 C 0.52783 0.68486 0.97885 0.0
C2959 C 0.53291 0.62627 0.99546 0.0
C2960 C 0.53167 0.64715 0.99138 0.0
H2961 H 0.53419 0.72389 0.92763 0.0
H2962 H 0.54381 0.69868 0.94711 0.0
H2963 H 0.4981 0.67605 0.98388 0.0
H2964 H 0.50741 0.57805 0.98509 0.0
H2965 H 0.50572 0.61245 0.97862 0.0
C2966 C 0.04119 0.81376 0.65068 0.0
C2967 C 0.04531 0.80326 0.63356 0.0
C2968 C 0.04716 0.80843 0.66894 0.0
C2969 C 0.07201 0.77145 0.69294 0.0
H2970 H 0.10449 0.82036 0.72019 0.0
C2971 C 0.15402 0.79662 0.72364 0.0
C2972 C 0.15707 0.78096 0.73464 0.0
C2973 C 0.13551 0.79932 0.7182 0.0
C2974 C 0.09533 0.80655 0.71296 0.0
H2975 H 0.05743 0.77819 0.62172 0.0
H2976 H 0.06804 0.76898 0.65331 0.0
H2977 H 0.07767 0.82303 0.69708 0.0
H2978 H 0.1434 0.75628 0.7493 0.0
H2979 H 0.11079 0.76083 0.73946 0.0
H2980 H 0.09094 0.7551 0.70741 0.0
C2981 C 0.05998 0.78108 0.65294 0.0
C2982 C 0.07977 0.80804 0.69987 0.0
C2983 C 0.05411 0.78646 0.63479 0.0
C2984 C 0.14135 0.7684 0.74068 0.0
C2985 C 0.12275 0.77102 0.7351 0.0
C2986 C 0.08766 0.76996 0.70597 0.0
C2987 C 0.05739 0.79258 0.67024 0.0
C2988 C 0.06874 0.79056 0.68874 0.0
C2989 C 0.11965 0.78636 0.72359 0.0
C2990 C 0.10018 0.78758 0.71509 0.0
H2991 H 0.03461 0.82695 0.65001 0.0
H2992 H 0.04486 0.81749 0.682 0.0
H2993 H 0.0635 0.75769 0.68488 0.0
H2994 H 0.16594 0.80657 0.71891 0.0
H2995 H 0.13363 0.81103 0.70899 0.0
C2996 C 0.0151 0.33279 0.42138 0.0
C2997 C -0.00034 0.3176 0.4242 0.0
C2998 C 0.01667 0.35273 0.43012 0.0
C2999 C 0.98742 0.38742 0.45093 0.0
H3000 H 0.03588 0.41912 0.47584 0.0
C3001 C 0.9908 0.46194 0.49945 0.0
C3002 C 0.00481 0.47858 0.49669 0.0
C3003 C 0.99142 0.44246 0.49102 0.0
C3004 C 0.0223 0.4105 0.46878 0.0
H3005 H 0.97395 0.31151 0.4387 0.0
H3006 H 0.97679 0.34604 0.45396 0.0
H3007 H 0.03453 0.3848 0.45982 0.0
H3008 H 0.03082 0.48767 0.48338 0.0
H3009 H 0.03183 0.45353 0.46857 0.0
H3010 H 0.97514 0.41294 0.45986 0.0
C3011 C 0.98753 0.34265 0.44476 0.0
C3012 C 0.02152 0.39089 0.45958 0.0
C3013 C 0.98596 0.32279 0.43608 0.0
C3014 C 0.01986 0.47517 0.48588 0.0
C3015 C 0.02046 0.45561 0.4774 0.0
C3016 C 0.98819 0.40694 0.4601 0.0
C3017 C 0.00281 0.35788 0.44179 0.0
C3018 C 0.00402 0.37905 0.45077 0.0
C3019 C 0.00601 0.43913 0.47957 0.0
C3020 C 0.00557 0.41862 0.46934 0.0
H3021 H 0.02593 0.32933 0.41234 0.0
H3022 H 0.02854 0.36416 0.42745 0.0
H3023 H 0.97379 0.37887 0.4439 0.0
H3024 H 0.9791 0.46396 0.50783 0.0
H3025 H 0.9803 0.43 0.4933 0.0
C3026 C 0.46108 0.28778 0.16494 0.0
C3027 C 0.47937 0.2987 0.17215 0.0
C3028 C 0.44749 0.2827 0.17769 0.0
C3029 C 0.42327 0.26859 0.20962 0.0
H3030 H 0.41255 0.31777 0.23651 0.0
C3031 C 0.34795 0.27495 0.22705 0.0
C3032 C 0.34538 0.28796 0.24326 0.0
C3033 C 0.36629 0.27388 0.22232 0.0
C3034 C 0.41551 0.30375 0.22959 0.0
H3035 H 0.49829 0.31231 0.19814 0.0
H3036 H 0.47412 0.304 0.22064 0.0
H3037 H 0.44221 0.31886 0.22175 0.0
H3038 H 0.35981 0.30951 0.26773 0.0
H3039 H 0.392 0.30731 0.25981 0.0
H3040 H 0.39649 0.25346 0.2171 0.0
C3041 C 0.47048 0.29904 0.20515 0.0
C3042 C 0.43255 0.30441 0.22112 0.0
C3043 C 0.48426 0.3037 0.19237 0.0
C3044 C 0.36145 0.2995 0.25502 0.0
C3045 C 0.37987 0.29827 0.25043 0.0
C3046 C 0.40637 0.26783 0.21835 0.0
C3047 C 0.45186 0.28889 0.19783 0.0
C3048 C 0.43622 0.28701 0.21044 0.0
C3049 C 0.38251 0.28561 0.23387 0.0
C3050 C 0.40191 0.28558 0.22774 0.0
H3051 H 0.45708 0.28379 0.14937 0.0
H3052 H 0.43319 0.27506 0.17165 0.0
H3053 H 0.42589 0.25494 0.20157 0.0
H3054 H 0.33576 0.26588 0.21775 0.0
H3055 H 0.36766 0.26429 0.20923 0.0
C3056 C 0.59883 0.48804 0.34462 0.0
C3057 C 0.5932 0.49641 0.32776 0.0
C3058 C 0.58987 0.49074 0.36148 0.0
C3059 C 0.54542 0.50399 0.37812 0.0
H3060 H 0.57384 0.50842 0.42936 0.0
C3061 C 0.51642 0.52552 0.4513 0.0
C3062 C 0.51968 0.51359 0.4663 0.0
C3063 C 0.52442 0.5228 0.43381 0.0
C3064 C 0.56572 0.50703 0.41512 0.0
H3065 H 0.57426 0.51474 0.3155 0.0
H3066 H 0.55906 0.52011 0.3452 0.0
H3067 H 0.59054 0.50653 0.40034 0.0
H3068 H 0.53358 0.48924 0.47469 0.0
H3069 H 0.54775 0.48468 0.44416 0.0
H3070 H 0.52068 0.50509 0.39315 0.0
C3071 C 0.57 0.51095 0.34524 0.0
C3072 C 0.57525 0.5059 0.39848 0.0
C3073 C 0.57881 0.50802 0.32826 0.0
C3074 C 0.53067 0.49853 0.46331 0.0
C3075 C 0.53892 0.49604 0.44594 0.0
C3076 C 0.53593 0.50541 0.39481 0.0
C3077 C 0.57524 0.5021 0.36198 0.0
C3078 C 0.56521 0.5042 0.37974 0.0
C3079 C 0.53607 0.50834 0.43116 0.0
C3080 C 0.54598 0.50677 0.41343 0.0
H3081 H 0.60976 0.47885 0.34463 0.0
H3082 H 0.59408 0.4834 0.37394 0.0
H3083 H 0.53714 0.50234 0.36394 0.0
H3084 H 0.508 0.53725 0.45322 0.0
H3085 H 0.52209 0.53253 0.42265 0.0
C3086 C 0.20791 0.8525 0.08503 0.0
C3087 C 0.21778 0.84526 0.07004 0.0
C3088 C 0.20719 0.84339 0.10232 0.0
C3089 C 0.21625 0.79834 0.12568 0.0
H3090 H 0.23449 0.8373 0.1716 0.0
C3091 C 0.2466 0.77417 0.19788 0.0
C3092 C 0.24229 0.78369 0.21542 0.0
C3093 C 0.24193 0.78129 0.18011 0.0
C3094 C 0.22909 0.82617 0.15902 0.0
H3095 H 0.23307 0.82173 0.06064 0.0
H3096 H 0.23153 0.80569 0.09055 0.0
H3097 H 0.22682 0.84922 0.14033 0.0
H3098 H 0.23004 0.80832 0.22824 0.0
H3099 H 0.2216 0.82053 0.1973 0.0
H3100 H 0.21863 0.77528 0.14431 0.0
C3101 C 0.2245 0.81847 0.08911 0.0
C3102 C 0.22464 0.83303 0.14109 0.0
C3103 C 0.22542 0.8277 0.07197 0.0
C3104 C 0.23359 0.80071 0.21494 0.0
C3105 C 0.22881 0.80775 0.19718 0.0
C3106 C 0.22057 0.79146 0.14365 0.0
C3107 C 0.21607 0.8267 0.10478 0.0
C3108 C 0.21844 0.81921 0.12415 0.0
C3109 C 0.23276 0.79803 0.17949 0.0
C3110 C 0.22734 0.8053 0.16051 0.0
H3111 H 0.20196 0.86606 0.08401 0.0
H3112 H 0.20038 0.8499 0.11408 0.0
H3113 H 0.21136 0.78732 0.11291 0.0
H3114 H 0.25337 0.76106 0.19786 0.0
H3115 H 0.24557 0.77368 0.16685 0.0
C3116 C 0.94548 0.55169 0.81246 0.0
C3117 C 0.93312 0.56564 0.81166 0.0
C3118 C 0.95301 0.54707 0.83049 0.0
C3119 C 0.96156 0.5672 0.88313 0.0
H3120 H 0.96652 0.51217 0.89063 0.0
C3121 C 0.97555 0.54222 0.95932 0.0
C3122 C 0.99002 0.53086 0.96184 0.0
C3123 C 0.96905 0.5461 0.94069 0.0
C3124 C 0.96535 0.52763 0.88867 0.0
H3125 H 0.91912 0.58575 0.8292 0.0
H3126 H 0.93155 0.57718 0.86035 0.0
H3127 H 0.9544 0.51959 0.85851 0.0
H3128 H 0.00874 0.51426 0.94673 0.0
H3129 H 0.99722 0.52094 0.91415 0.0
H3130 H 0.97211 0.57512 0.91339 0.0
C3131 C 0.93578 0.57006 0.84716 0.0
C3132 C 0.95847 0.5319 0.87028 0.0
C3133 C 0.92841 0.57478 0.82922 0.0
C3134 C 0.99764 0.52317 0.94529 0.0
C3135 C 0.99098 0.52686 0.92663 0.0
C3136 C 0.96824 0.56288 0.90151 0.0
C3137 C 0.94829 0.55628 0.84806 0.0
C3138 C 0.95634 0.55173 0.86734 0.0
C3139 C 0.97674 0.53852 0.92418 0.0
C3140 C 0.97007 0.54304 0.9045 0.0
H3141 H 0.94946 0.54447 0.79919 0.0
H3142 H 0.96277 0.53656 0.83066 0.0
H3143 H 0.96055 0.58272 0.8813 0.0
H3144 H 0.96938 0.54836 0.97176 0.0
H3145 H 0.95792 0.55496 0.93918 0.0
C3146 C 0.29358 0.20183 0.55091 0.0
C3147 C 0.31243 0.20864 0.54692 0.0
C3148 C 0.28637 0.21137 0.56662 0.0
C3149 C 0.2717 0.23845 0.59696 0.0
H3150 H 0.30632 0.25012 0.64493 0.0
C3151 C 0.25033 0.26845 0.67217 0.0
C3152 C 0.25669 0.25886 0.6879 0.0
C3153 C 0.25669 0.26477 0.65385 0.0
C3154 C 0.29647 0.24695 0.63164 0.0
H3155 H 0.33813 0.23149 0.5557 0.0
H3156 H 0.32543 0.24829 0.58295 0.0
H3157 H 0.31812 0.23971 0.6145 0.0
H3158 H 0.27425 0.23765 0.69688 0.0
H3159 H 0.28507 0.23104 0.66509 0.0
H3160 H 0.24983 0.24479 0.61449 0.0
C3161 C 0.31637 0.23531 0.57416 0.0
C3162 C 0.3033 0.24124 0.61414 0.0
C3163 C 0.32363 0.2257 0.55851 0.0
C3164 C 0.26914 0.24528 0.685 0.0
C3165 C 0.27549 0.24165 0.66683 0.0
C3166 C 0.26484 0.24415 0.61454 0.0
C3167 C 0.29779 0.22799 0.57863 0.0
C3168 C 0.29091 0.23649 0.59666 0.0
C3169 C 0.26958 0.25156 0.65113 0.0
C3170 C 0.27708 0.24793 0.63212 0.0
H3171 H 0.28452 0.18875 0.54226 0.0
H3172 H 0.2721 0.20516 0.56979 0.0
H3173 H 0.26186 0.23516 0.58367 0.0
H3174 H 0.24078 0.27906 0.67412 0.0
H3175 H 0.25194 0.27262 0.64198 0.0
C3176 C 0.59795 0.49163 0.20934 0.0
C3177 C 0.60558 0.47467 0.21384 0.0
C3178 C 0.59049 0.49291 0.19028 0.0
C3179 C 0.59221 0.47552 0.13909 0.0
H3180 H 0.54324 0.49235 0.1321 0.0
C3181 C 0.55736 0.48728 0.06315 0.0
C3182 C 0.54995 0.50513 0.06285 0.0
C3183 C 0.56276 0.48062 0.08097 0.0
C3184 C 0.55696 0.48773 0.1338 0.0
H3185 H 0.6119 0.44602 0.20175 0.0
H3186 H 0.59902 0.44848 0.16822 0.0
H3187 H 0.55605 0.48664 0.16447 0.0
H3188 H 0.54203 0.52986 0.08068 0.0
H3189 H 0.5517 0.51855 0.11166 0.0
H3190 H 0.59344 0.47733 0.10852 0.0
C3191 C 0.59875 0.46066 0.17957 0.0
C3192 C 0.56427 0.48444 0.15233 0.0
C3193 C 0.60607 0.45926 0.19874 0.0
C3194 C 0.54768 0.51602 0.08053 0.0
C3195 C 0.55309 0.50943 0.09827 0.0
C3196 C 0.58494 0.47897 0.12052 0.0
C3197 C 0.59063 0.47737 0.17526 0.0
C3198 C 0.58215 0.47876 0.15523 0.0
C3199 C 0.56081 0.49173 0.09873 0.0
C3200 C 0.56745 0.48559 0.11779 0.0
H3201 H 0.59739 0.5038 0.22059 0.0
H3202 H 0.5846 0.50613 0.18729 0.0
H3203 H 0.60606 0.4712 0.14098 0.0
H3204 H 0.55911 0.47856 0.04965 0.0
H3205 H 0.56847 0.46682 0.08084 0.0
C3206 C 0.20962 0.86249 0.95905 0.0
C3207 C 0.21625 0.85202 0.97399 0.0
C3208 C 0.20691 0.85361 0.93953 0.0
C3209 C 0.19823 0.82989 0.8986 0.0
H3210 H 0.23674 0.79836 0.88656 0.0
C3211 C 0.20377 0.79299 0.81974 0.0
C3212 C 0.22237 0.79334 0.81457 0.0
C3213 C 0.20087 0.79915 0.83904 0.0
C3214 C 0.22595 0.80725 0.88957 0.0
H3215 H 0.22357 0.82351 0.98057 0.0
H3216 H 0.21781 0.80761 0.9469 0.0
H3217 H 0.23481 0.81076 0.92013 0.0
H3218 H 0.25251 0.80113 0.82561 0.0
H3219 H 0.24752 0.81217 0.85874 0.0
H3220 H 0.19015 0.82715 0.86766 0.0
C3221 C 0.21554 0.82298 0.94993 0.0
C3222 C 0.22459 0.8141 0.90898 0.0
C3223 C 0.21864 0.832 0.96929 0.0
C3224 C 0.23795 0.80033 0.82903 0.0
C3225 C 0.23508 0.80659 0.84816 0.0
C3226 C 0.19971 0.82314 0.87905 0.0
C3227 C 0.2105 0.83397 0.93465 0.0
C3228 C 0.21081 0.82565 0.91384 0.0
C3229 C 0.21652 0.80587 0.85354 0.0
C3230 C 0.2138 0.81198 0.87428 0.0
H3231 H 0.20782 0.87802 0.96228 0.0
H3232 H 0.20311 0.86262 0.92824 0.0
H3233 H 0.1873 0.83856 0.90173 0.0
H3234 H 0.19144 0.78771 0.80896 0.0
H3235 H 0.18637 0.79828 0.84266 0.0
C3236 C 0.92316 0.56919 0.69218 0.0
C3237 C 0.91631 0.55186 0.70104 0.0
C3238 C 0.93112 0.56738 0.6746 0.0
C3239 C 0.93415 0.53408 0.63075 0.0
H3240 H 0.98558 0.56539 0.63328 0.0
C3241 C 0.98176 0.52574 0.56812 0.0
C3242 C 0.99425 0.54321 0.56459 0.0
C3243 C 0.97144 0.52614 0.58432 0.0
C3244 C 0.97112 0.5568 0.63212 0.0
H3245 H 0.91139 0.51898 0.69774 0.0
H3246 H 0.92503 0.51587 0.66662 0.0
H3247 H 0.96803 0.56746 0.6616 0.0
H3248 H 0.00545 0.57489 0.57468 0.0
H3249 H 0.98704 0.57592 0.60245 0.0
H3250 H 0.93695 0.52385 0.60106 0.0
C3251 C 0.92436 0.53081 0.67352 0.0
C3252 C 0.96112 0.55793 0.64842 0.0
C3253 C 0.91662 0.53261 0.69133 0.0
C3254 C 0.99609 0.56114 0.57727 0.0
C3255 C 0.98558 0.56166 0.59325 0.0
C3256 C 0.94405 0.5332 0.61425 0.0
C3257 C 0.93215 0.54822 0.66532 0.0
C3258 C 0.94254 0.54666 0.64788 0.0
C3259 C 0.97326 0.54412 0.59716 0.0
C3260 C 0.96266 0.54464 0.6147 0.0
H3261 H 0.92311 0.58425 0.69921 0.0
H3262 H 0.93686 0.58103 0.66843 0.0
H3263 H 0.91979 0.52529 0.62999 0.0
H3264 H 0.98024 0.51168 0.55857 0.0
H3265 H 0.96233 0.51226 0.58694 0.0
C3266 C 0.30664 0.21482 0.44944 0.0
C3267 C 0.32497 0.21382 0.45801 0.0
C3268 C 0.30445 0.22709 0.43465 0.0
C3269 C 0.32844 0.24691 0.39511 0.0
H3270 H 0.28979 0.28036 0.39286 0.0
C3271 C 0.31063 0.28345 0.32584 0.0
C3272 C 0.29098 0.28135 0.31991 0.0
C3273 C 0.31696 0.27968 0.34459 0.0
C3274 C 0.3006 0.27103 0.39323 0.0
H3275 H 0.35537 0.22517 0.45804 0.0
H3276 H 0.35146 0.24631 0.43188 0.0
H3277 H 0.29656 0.26492 0.42249 0.0
H3278 H 0.26263 0.27432 0.32927 0.0
H3279 H 0.27357 0.26724 0.36149 0.0
H3280 H 0.3318 0.25196 0.36557 0.0
C3281 C 0.33885 0.23767 0.43674 0.0
C3282 C 0.3045 0.26228 0.41021 0.0
C3283 C 0.34105 0.22561 0.45173 0.0
C3284 C 0.27788 0.2761 0.33331 0.0
C3285 C 0.28418 0.2722 0.35194 0.0
C3286 C 0.3244 0.25546 0.37805 0.0
C3287 C 0.32054 0.23839 0.428 0.0
C3288 C 0.31814 0.24978 0.41111 0.0
C3289 C 0.30377 0.27363 0.35772 0.0
C3290 C 0.31007 0.26719 0.37674 0.0
H3291 H 0.29398 0.20601 0.45403 0.0
H3292 H 0.29017 0.22723 0.42798 0.0
H3293 H 0.33893 0.23718 0.39541 0.0
H3294 H 0.32111 0.28766 0.31592 0.0
H3295 H 0.33218 0.2812 0.34869 0.0
C3296 C 0.34574 0.62322 0.53001 0.0
C3297 C 0.34496 0.63799 0.51721 0.0
C3298 C 0.36126 0.61331 0.53143 0.0
C3299 C 0.41052 0.61313 0.5176 0.0
H3300 H 0.39517 0.55531 0.51933 0.0
C3301 C 0.46033 0.55433 0.50415 0.0
C3302 C 0.45933 0.53915 0.51669 0.0
C3303 C 0.44757 0.56788 0.5047 0.0
C3304 C 0.39978 0.57145 0.51905 0.0
H3305 H 0.36048 0.65483 0.49672 0.0
H3306 H 0.38747 0.63728 0.49892 0.0
H3307 H 0.37139 0.5767 0.52036 0.0
H3308 H 0.4445 0.52647 0.53987 0.0
H3309 H 0.42235 0.54983 0.54078 0.0
H3310 H 0.439 0.60755 0.51593 0.0
C3311 C 0.37617 0.63347 0.50805 0.0
C3312 C 0.38612 0.58379 0.51973 0.0
C3313 C 0.36067 0.64356 0.50678 0.0
C3314 C 0.44548 0.53784 0.52984 0.0
C3315 C 0.43276 0.55124 0.53035 0.0
C3316 C 0.42425 0.60069 0.51683 0.0
C3317 C 0.37634 0.61771 0.51989 0.0
C3318 C 0.39127 0.60484 0.51923 0.0
C3319 C 0.43347 0.5663 0.51767 0.0
C3320 C 0.41904 0.57971 0.51774 0.0
H3321 H 0.33397 0.61871 0.5384 0.0
H3322 H 0.36114 0.60172 0.54117 0.0
H3323 H 0.41505 0.62927 0.51724 0.0
H3324 H 0.47082 0.55557 0.4938 0.0
H3325 H 0.44844 0.57923 0.49467 0.0
C3326 C 0.83726 0.96744 0.5468 0.0
C3327 C 0.82145 0.97145 0.53534 0.0
C3328 C 0.85582 0.97525 0.5431 0.0
C3329 C 0.88355 0.99478 0.50462 0.0
H3330 H 0.92295 0.01463 0.54807 0.0
C3331 C 0.96141 0.0313 0.49482 0.0
C3332 C 0.97589 0.02519 0.50661 0.0
C3333 C 0.94224 0.02563 0.49791 0.0
C3334 C 0.91213 0.009 0.53579 0.0
H3335 H 0.81267 0.98705 0.51116 0.0
H3336 H 0.8452 0.0009 0.50481 0.0
H3337 H 0.88999 0.0036 0.55441 0.0
H3338 H 0.98152 0.00793 0.53063 0.0
H3339 H 0.9482 0.99806 0.53591 0.0
H3340 H 0.9058 0.00011 0.48603 0.0
C3341 C 0.84319 0.99147 0.5165 0.0
C3342 C 0.89326 0.00268 0.53942 0.0
C3343 C 0.82458 0.98365 0.52022 0.0
C3344 C 0.97078 0.01309 0.52138 0.0
C3345 C 0.95167 0.00749 0.52449 0.0
C3346 C 0.90246 0.00115 0.50099 0.0
C3347 C 0.859 0.98731 0.5279 0.0
C3348 C 0.8788 0.99524 0.5239 0.0
C3349 C 0.93721 0.01381 0.51289 0.0
C3350 C 0.91697 0.00806 0.51656 0.0
H3351 H 0.83536 0.95824 0.55866 0.0
H3352 H 0.86768 0.97154 0.55199 0.0
H3353 H 0.87276 0.98893 0.49237 0.0
H3354 H 0.96485 0.0406 0.4833 0.0
H3355 H 0.9314 0.03082 0.48882 0.0
C3356 C 0.80983 0.08934 0.2438 0.0
C3357 C 0.81804 0.08765 0.26266 0.0
C3358 C 0.79644 0.10184 0.24116 0.0
C3359 C 0.76684 0.13322 0.26819 0.0
H3360 H 0.77555 0.16688 0.22647 0.0
C3361 C 0.74858 0.21307 0.26803 0.0
C3362 C 0.73901 0.21712 0.25069 0.0
C3363 C 0.75534 0.19497 0.26864 0.0
C3364 C 0.7728 0.15743 0.23803 0.0
H3365 H 0.81778 0.09689 0.29359 0.0
H3366 H 0.79514 0.11903 0.28899 0.0
H3367 H 0.79183 0.13839 0.22873 0.0
H3368 H 0.72875 0.20562 0.2205 0.0
H3369 H 0.74095 0.17408 0.22146 0.0
H3370 H 0.74863 0.15319 0.27803 0.0
C3371 C 0.79862 0.11047 0.27619 0.0
C3372 C 0.78201 0.14099 0.23928 0.0
C3373 C 0.81178 0.09781 0.27883 0.0
C3374 C 0.7361 0.20277 0.23404 0.0
C3375 C 0.7431 0.18482 0.23456 0.0
C3376 C 0.75788 0.14987 0.2671 0.0
C3377 C 0.79116 0.11309 0.25731 0.0
C3378 C 0.77942 0.12888 0.25458 0.0
C3379 C 0.75281 0.18079 0.25185 0.0
C3380 C 0.76102 0.16227 0.25218 0.0
H3381 H 0.81418 0.08153 0.23104 0.0
H3382 H 0.79066 0.10312 0.22642 0.0
H3383 H 0.76419 0.124 0.27993 0.0
H3384 H 0.7508 0.22387 0.28109 0.0
H3385 H 0.76294 0.19225 0.2821 0.0
C3386 C 0.72565 0.13508 0.98985 0.0
C3387 C 0.73906 0.1319 0.00483 0.0
C3388 C 0.70609 0.12809 0.99034 0.0
C3389 C 0.67075 0.11182 0.02413 0.0
H3390 H 0.63866 0.08662 0.97663 0.0
C3391 C 0.59377 0.06881 0.02521 0.0
C3392 C 0.5798 0.0723 0.01103 0.0
C3393 C 0.61312 0.07611 0.02405 0.0
C3394 C 0.6474 0.09381 0.98997 0.0
H3395 H 0.74244 0.11885 0.03203 0.0
H3396 H 0.70843 0.10648 0.03275 0.0
H3397 H 0.67262 0.09956 0.97543 0.0
H3398 H 0.57496 0.0858 0.98437 0.0
H3399 H 0.60886 0.09866 0.98234 0.0
H3400 H 0.64559 0.10596 0.03869 0.0
C3401 C 0.71297 0.11463 0.02077 0.0
C3402 C 0.66685 0.10125 0.98929 0.0
C3403 C 0.7325 0.12163 0.0203 0.0
C3404 C 0.58549 0.08294 0.9955 0.0
C3405 C 0.60488 0.09019 0.99429 0.0
C3406 C 0.65135 0.10435 0.02481 0.0
C3407 C 0.69953 0.11777 0.00581 0.0
C3408 C 0.67877 0.11026 0.00638 0.0
C3409 C 0.6189 0.087 0.00865 0.0
C3410 C 0.63947 0.09517 0.00777 0.0
H3411 H 0.73024 0.14299 0.97775 0.0
H3412 H 0.6961 0.13098 0.97871 0.0
H3413 H 0.67945 0.119 0.0375 0.0
H3414 H 0.58973 0.06057 0.0373 0.0
H3415 H 0.62359 0.07313 0.03518 0.0
C3416 C 0.16209 0.44067 0.27523 0.0
C3417 C 0.15862 0.44456 0.29479 0.0
C3418 C 0.17444 0.42763 0.27016 0.0
C3419 C 0.1929 0.38444 0.28587 0.0
H3420 H 0.23568 0.40092 0.25674 0.0
C3421 C 0.2524 0.33867 0.28165 0.0
C3422 C 0.26071 0.33653 0.2642 0.0
C3423 C 0.23983 0.35199 0.2841 0.0
C3424 C 0.22362 0.39593 0.26459 0.0
H3425 H 0.16539 0.43782 0.32434 0.0
H3426 H 0.18661 0.4148 0.31539 0.0
H3427 H 0.21354 0.42387 0.26308 0.0
H3428 H 0.26276 0.34666 0.23567 0.0
H3429 H 0.2403 0.36983 0.23971 0.0
H3430 H 0.20253 0.35645 0.28719 0.0
C3431 C 0.17984 0.42193 0.30404 0.0
C3432 C 0.21101 0.40911 0.26826 0.0
C3433 C 0.16778 0.43519 0.30916 0.0
C3434 C 0.25657 0.34822 0.24931 0.0
C3435 C 0.24375 0.36145 0.25166 0.0
C3436 C 0.20529 0.37118 0.28198 0.0
C3437 C 0.18324 0.41799 0.28451 0.0
C3438 C 0.19578 0.4036 0.27926 0.0
C3439 C 0.23507 0.36333 0.26904 0.0
C3440 C 0.22106 0.37691 0.27167 0.0
H3441 H 0.15529 0.44773 0.26384 0.0
H3442 H 0.17682 0.42477 0.25499 0.0
H3443 H 0.18105 0.37972 0.2941 0.0
H3444 H 0.25556 0.32994 0.29342 0.0
H3445 H 0.23388 0.3534 0.29788 0.0
C3446 C 0.2056 0.44114 0.01344 0.0
C3447 C 0.20625 0.43753 0.03313 0.0
C3448 C 0.18886 0.44473 0.00356 0.0
C3449 C 0.13691 0.44176 0.00631 0.0
H3450 H 0.14433 0.48977 0.97936 0.0
C3451 C 0.09434 0.50873 0.99354 0.0
C3452 C 0.07574 0.49741 0.98882 0.0
C3453 C 0.11004 0.49919 0.99273 0.0
C3454 C 0.14201 0.47624 0.98669 0.0
H3455 H 0.18958 0.43384 0.05758 0.0
H3456 H 0.16046 0.4404 0.04043 0.0
H3457 H 0.17191 0.47595 0.99093 0.0
H3458 H 0.05884 0.46772 0.97794 0.0
H3459 H 0.08633 0.45103 0.97634 0.0
H3460 H 0.10714 0.4428 0.00317 0.0
C3461 C 0.17282 0.44025 0.03255 0.0
C3462 C 0.1578 0.4682 0.99317 0.0
C3463 C 0.18956 0.43662 0.04244 0.0
C3464 C 0.07309 0.47676 0.98174 0.0
C3465 C 0.08879 0.46719 0.98096 0.0
C3466 C 0.12113 0.4498 -0.00016 0.0
C3467 C 0.17242 0.44478 0.01314 0.0
C3468 C 0.15546 0.45125 0.0036 0.0
C3469 C 0.10738 0.47816 0.9872 0.0
C3470 C 0.12358 0.46751 0.99051 0.0
H3471 H 0.21816 0.44171 0.00576 0.0
H3472 H 0.18891 0.44787 0.98852 0.0
H3473 H 0.13464 0.42852 0.01405 0.0
H3474 H 0.09674 0.52469 0.99903 0.0
H3475 H 0.12414 0.50806 0.99779 0.0
C3476 C 0.83713 0.99018 0.28287 0.0
C3477 C 0.84348 -0.00048 0.26677 0.0
C3478 C 0.82951 0.96947 0.28093 0.0
C3479 C 0.80692 0.92557 0.24524 0.0
H3480 H 0.82061 0.89546 0.28751 0.0
C3481 C 0.78031 0.83845 0.24508 0.0
C3482 C 0.77415 0.83259 0.26275 0.0
C3483 C 0.78939 0.85848 0.24405 0.0
C3484 C 0.81655 0.90367 0.27563 0.0
H3485 H 0.84653 0.99427 0.23588 0.0
H3486 H 0.83322 0.9579 0.23254 0.0
H3487 H 0.83554 0.93095 0.28841 0.0
H3488 H 0.77241 0.84339 0.29305 0.0
H3489 H 0.78806 0.87801 0.29116 0.0
H3490 H 0.78776 0.89814 0.23259 0.0
C3491 C 0.83411 0.96677 0.24665 0.0
C3492 C 0.8251 0.92402 0.27615 0.0
C3493 C 0.84181 0.98758 0.24859 0.0
C3494 C 0.77702 0.84725 0.27921 0.0
C3495 C 0.78613 0.86713 0.27819 0.0
C3496 C 0.79836 0.9051 0.2447 0.0
C3497 C 0.82801 0.95746 0.26286 0.0
C3498 C 0.8201 0.93535 0.26119 0.0
C3499 C 0.7926 0.87296 0.26068 0.0
C3500 C 0.8028 0.89408 0.26012 0.0
H3501 H 0.83806 0.99885 0.29708 0.0
H3502 H 0.82461 0.96288 0.29363 0.0
H3503 H 0.8027 0.9339 0.23353 0.0
H3504 H 0.77834 0.82755 0.23212 0.0
H3505 H 0.79428 0.86253 0.23036 0.0
C3506 C 0.66523 0.05906 0.82149 0.0
C3507 C 0.65688 0.04441 0.80572 0.0
C3508 C 0.67527 0.07796 0.81818 0.0
C3509 C 0.6808 0.11209 0.77938 0.0
H3510 H 0.72487 0.14076 0.81456 0.0
C3511 C 0.72658 0.1862 0.7627 0.0
C3512 C 0.72959 0.20235 0.77777 0.0
C3513 C 0.71932 0.16647 0.76634 0.0
C3514 C 0.71254 0.13292 0.80467 0.0
H3515 H 0.65306 0.03788 0.77412 0.0
H3516 H 0.67106 0.07046 0.76837 0.0
H3517 H 0.70916 0.10693 0.82026 0.0
H3518 H 0.7282 0.2106 0.8086 0.0
H3519 H 0.71571 0.17594 0.81506 0.0
H3520 H 0.68439 0.13798 0.76366 0.0
C3521 C 0.66939 0.06768 0.7833 0.0
C3522 C 0.70347 0.11359 0.80796 0.0
C3523 C 0.65915 0.04891 0.7866 0.0
C3524 C 0.72596 0.19837 0.79673 0.0
C3525 C 0.7189 0.17857 0.80043 0.0
C3526 C 0.69 0.13126 0.77597 0.0
C3527 C 0.67738 0.08257 0.79902 0.0
C3528 C 0.68742 0.10295 0.79539 0.0
C3529 C 0.71514 0.16251 0.78517 0.0
C3530 C 0.70591 0.1419 0.78861 0.0
H3531 H 0.66366 0.05611 0.8364 0.0
H3532 H 0.68097 0.08912 0.83065 0.0
H3533 H 0.66824 0.10463 0.76963 0.0
H3534 H 0.7293 0.18889 0.74796 0.0
H3535 H 0.71674 0.15432 0.75438 0.0
loop_
_geom_bond_atom_site_label_1
_geom_bond_atom_site_label_2
_geom_bond_distance
_geom_bond_site_symmetry_2
_ccdc_geom_bond_type
Mg0 O1 2.028 . S
Mg0 O7 1.986 . S
Mg0 O9 2.114 1_455 S
Mg0 O10 2.251 1_455 S
Mg0 O13 2.010 . S
O1 Mg0 2.028 . S
O1 C4 1.250 . S
O2 Mg3 2.053 . S
O2 C4 1.210 1_655 S
Mg3 O2 2.053 . S
Mg3 O8 2.032 . S
Mg3 O10 2.079 . S
C4 O1 1.250 . S
C4 O2 1.210 1_455 S
C5 O6 1.264 . S
C5 O13 1.249 . S
O6 C5 1.264 . S
O7 Mg0 1.986 . S
O7 C11 1.246 . S
O8 Mg3 2.032 . S
O8 C11 1.259 1_655 S
O9 Mg0 2.114 1_655 S
O9 C12 1.252 . S
O10 Mg0 2.251 1_655 S
O10 Mg3 2.079 . S
O10 C12 1.273 . S
C11 O7 1.246 . S
C11 O8 1.259 1_455 S
C12 O9 1.252 . S
C12 O10 1.273 . S
O13 Mg0 2.010 . S
O13 C5 1.249 . S
Mg14 O15 2.028 . S
Mg14 O21 1.986 . S
Mg14 O23 2.114 1_455 S
Mg14 O24 2.251 1_455 S
Mg14 O27 2.010 . S
O15 Mg14 2.028 . S
O15 C18 1.250 1_455 S
O16 Mg17 2.028 . S
O16 C18 1.248 . S
Mg17 O16 2.028 . S
Mg17 O22 2.032 . S
Mg17 O24 2.079 . S
C18 O15 1.250 1_655 S
C18 O16 1.248 . S
C19 O20 1.264 . S
C19 O27 1.249 . S
O20 C19 1.264 . S
O21 Mg14 1.986 . S
O21 C25 1.246 1_455 S
O22 Mg17 2.032 . S
O22 C25 1.259 . S
O23 Mg14 2.114 1_655 S
O23 C26 1.252 . S
O24 Mg14 2.251 1_655 S
O24 Mg17 2.079 . S
O24 C26 1.273 . S
C25 O21 1.246 1_655 S
C25 O22 1.259 . S
C26 O23 1.252 . S
C26 O24 1.273 . S
O27 Mg14 2.010 . S
O27 C19 1.249 . S
Mg28 O29 2.028 . S
Mg28 O35 1.986 . S
Mg28 O37 2.114 . S
Mg28 O38 2.251 . S
Mg28 O41 2.010 . S
O29 Mg28 2.028 . S
O29 C32 1.250 . S
O30 Mg31 2.028 . S
O30 C32 1.248 . S
Mg31 O30 2.028 . S
Mg31 O36 2.032 . S
Mg31 O38 2.079 . S
C32 O29 1.250 . S
C32 O30 1.248 . S
C33 O34 1.264 . S
C33 O41 1.249 . S
O34 C33 1.264 . S
O35 Mg28 1.986 . S
O35 C39 1.246 . S
O36 Mg31 2.032 . S
O36 C39 1.259 . S
O37 Mg28 2.114 . S
O37 C40 1.252 . S
O38 Mg28 2.251 . S
O38 Mg31 2.079 . S
O38 C40 1.273 . S
C39 O35 1.246 . S
C39 O36 1.259 . S
C40 O37 1.252 . S
C40 O38 1.273 . S
O41 Mg28 2.010 . S
O41 C33 1.249 . S
Mg42 O43 2.028 . S
Mg42 O49 1.986 . S
Mg42 O51 2.114 . S
Mg42 O52 2.251 . S
Mg42 O55 2.010 . S
O43 Mg42 2.028 . S
O43 C46 1.250 . S
O44 Mg45 2.028 . S
O44 C46 1.248 . S
Mg45 O44 2.028 . S
Mg45 O50 2.032 . S
Mg45 O52 2.079 . S
C46 O43 1.250 . S
C46 O44 1.248 . S
C47 O48 1.264 . S
C47 O55 1.249 . S
O48 C47 1.264 . S
O49 Mg42 1.986 . S
O49 C53 1.246 . S
O50 Mg45 2.032 . S
O50 C53 1.259 . S
O51 Mg42 2.114 . S
O51 C54 1.252 . S
O52 Mg42 2.251 . S
O52 Mg45 2.079 . S
O52 C54 1.273 . S
C53 O49 1.246 . S
C53 O50 1.259 . S
C54 O51 1.252 . S
C54 O52 1.273 . S
O55 Mg42 2.010 . S
O55 C47 1.249 . S
Mg56 O57 2.028 . S
Mg56 O63 1.986 . S
Mg56 O65 2.114 1_455 S
Mg56 O66 2.251 1_455 S
Mg56 O69 2.010 . S
O57 Mg56 2.028 . S
O57 C60 1.250 . S
O58 Mg59 2.028 . S
O58 C60 1.248 1_655 S
Mg59 O58 2.028 . S
Mg59 O64 2.032 . S
Mg59 O66 2.079 . S
C60 O57 1.250 . S
C60 O58 1.248 1_455 S
C61 O62 1.264 . S
C61 O69 1.249 . S
O62 C61 1.264 . S
O63 Mg56 1.986 . S
O63 C67 1.246 . S
O64 Mg59 2.032 . S
O64 C67 1.259 1_655 S
O65 Mg56 2.114 1_655 S
O65 C68 1.252 . S
O66 Mg56 2.251 1_655 S
O66 Mg59 2.079 . S
O66 C68 1.273 . S
C67 O63 1.246 . S
C67 O64 1.259 1_455 S
C68 O65 1.252 . S
C68 O66 1.273 . S
O69 Mg56 2.010 . S
O69 C61 1.249 . S
Mg70 O71 2.028 . S
Mg70 O77 1.986 . S
Mg70 O79 2.114 . S
Mg70 O80 2.251 . S
Mg70 O83 2.010 . S
O71 Mg70 2.028 . S
O71 C74 1.250 . S
O72 Mg73 2.028 . S
O72 C74 1.248 . S
Mg73 O72 2.028 . S
Mg73 O78 2.032 . S
Mg73 O80 2.079 . S
C74 O71 1.250 . S
C74 O72 1.248 . S
C75 O76 1.264 . S
C75 O83 1.249 . S
O76 C75 1.264 . S
O77 Mg70 1.986 . S
O77 C81 1.246 . S
O78 Mg73 2.032 . S
O78 C81 1.259 . S
O79 Mg70 2.114 . S
O79 C82 1.252 . S
O80 Mg70 2.251 . S
O80 Mg73 2.079 . S
O80 C82 1.273 . S
C81 O77 1.246 . S
C81 O78 1.259 . S
C82 O79 1.252 . S
C82 O80 1.273 . S
O83 Mg70 2.010 . S
O83 C75 1.249 . S
Mg84 O85 2.028 . S
Mg84 O91 1.986 . S
Mg84 O93 2.114 . S
Mg84 O94 2.251 . S
Mg84 O97 2.010 . S
O85 Mg84 2.028 . S
O85 C88 1.250 . S
O86 Mg87 2.028 . S
O86 C88 1.248 . S
Mg87 O86 2.028 . S
Mg87 O92 2.032 . S
Mg87 O94 2.079 . S
C88 O85 1.250 . S
C88 O86 1.248 . S
C89 O90 1.264 . S
C89 O97 1.249 . S
O90 C89 1.264 . S
O91 Mg84 1.986 . S
O91 C95 1.246 . S
O92 Mg87 2.032 . S
O92 C95 1.259 . S
O93 Mg84 2.114 . S
O93 C96 1.252 . S
O94 Mg84 2.251 . S
O94 Mg87 2.079 . S
O94 C96 1.273 . S
C95 O91 1.246 . S
C95 O92 1.259 . S
C96 O93 1.252 . S
C96 O94 1.273 . S
O97 Mg84 2.010 . S
O97 C89 1.249 . S
Mg98 O99 2.028 . S
Mg98 O105 1.986 . S
Mg98 O107 2.114 1_455 S
Mg98 O108 2.251 1_455 S
Mg98 O111 2.010 . S
O99 Mg98 2.028 . S
O99 C102 1.250 . S
O100 Mg101 2.028 . S
O100 C102 1.248 1_655 S
Mg101 O100 2.028 . S
Mg101 O106 2.032 . S
Mg101 O108 2.079 . S
C102 O99 1.250 . S
C102 O100 1.248 1_455 S
C103 O104 1.264 . S
C103 O111 1.249 . S
O104 C103 1.264 . S
O105 Mg98 1.986 . S
O105 C109 1.246 . S
O106 Mg101 2.032 . S
O106 C109 1.259 1_655 S
O107 Mg98 2.114 1_655 S
O107 C110 1.252 . S
O108 Mg98 2.251 1_655 S
O108 Mg101 2.079 . S
O108 C110 1.273 . S
C109 O105 1.246 . S
C109 O106 1.259 1_455 S
C110 O107 1.252 . S
C110 O108 1.273 . S
O111 Mg98 2.010 . S
O111 C103 1.249 . S
Mg112 O113 2.028 . S
Mg112 O119 1.986 . S
Mg112 O121 2.114 . S
Mg112 O122 2.251 . S
Mg112 O125 2.010 . S
O113 Mg112 2.028 . S
O113 C116 1.250 . S
O114 Mg115 2.028 . S
O114 C116 1.248 . S
Mg115 O114 2.028 . S
Mg115 O120 2.032 . S
Mg115 O122 2.079 . S
C116 O113 1.250 . S
C116 O114 1.248 . S
C117 O118 1.264 . S
C117 O125 1.249 . S
O118 C117 1.264 . S
O119 Mg112 1.986 . S
O119 C123 1.246 . S
O120 Mg115 2.032 . S
O120 C123 1.259 . S
O121 Mg112 2.114 . S
O121 C124 1.252 . S
O122 Mg112 2.251 . S
O122 Mg115 2.079 . S
O122 C124 1.273 . S
C123 O119 1.246 . S
C123 O120 1.259 . S
C124 O121 1.252 . S
C124 O122 1.273 . S
O125 Mg112 2.010 . S
O125 C117 1.249 . S
Mg126 O127 2.028 . S
Mg126 O133 1.986 . S
Mg126 O135 2.114 . S
Mg126 O136 2.251 . S
Mg126 O139 2.010 . S
O127 Mg126 2.028 . S
O127 C130 1.250 . S
O128 Mg129 2.028 . S
O128 C130 1.248 . S
Mg129 O128 2.028 . S
Mg129 O134 2.032 . S
Mg129 O136 2.079 . S
C130 O127 1.250 . S
C130 O128 1.248 . S
C131 O132 1.264 . S
C131 O139 1.249 . S
O132 C131 1.264 . S
O133 Mg126 1.986 . S
O133 C137 1.246 . S
O134 Mg129 2.032 . S
O134 C137 1.259 . S
O135 Mg126 2.114 . S
O135 C138 1.252 . S
O136 Mg126 2.251 . S
O136 Mg129 2.079 . S
O136 C138 1.273 . S
C137 O133 1.246 . S
C137 O134 1.259 . S
C138 O135 1.252 . S
C138 O136 1.273 . S
O139 Mg126 2.010 . S
O139 C131 1.249 . S
Mg140 O141 2.028 1_565 S
Mg140 O147 1.986 . S
Mg140 O149 2.114 1_565 S
Mg140 O150 2.251 . S
Mg140 O153 2.010 . S
O141 Mg140 2.028 1_545 S
O141 C144 1.250 . S
O142 Mg143 2.028 . S
O142 C144 1.248 . S
Mg143 O142 2.028 . S
Mg143 O148 2.032 1_545 S
Mg143 O150 2.079 1_545 S
C144 O141 1.250 . S
C144 O142 1.248 . S
C145 O146 1.264 . S
C145 O153 1.249 . S
O146 C145 1.264 . S
O147 Mg140 1.986 . S
O147 C151 1.246 . S
O148 Mg143 2.032 1_565 S
O148 C151 1.259 . S
O149 Mg140 2.114 1_545 S
O149 C152 1.252 . S
O150 Mg140 2.251 . S
O150 Mg143 2.079 1_565 S
O150 C152 1.273 1_565 S
C151 O147 1.246 . S
C151 O148 1.259 . S
C152 O149 1.252 . S
C152 O150 1.273 1_545 S
O153 Mg140 2.010 . S
O153 C145 1.249 . S
Mg154 O155 2.028 . S
Mg154 O161 1.986 . S
Mg154 O163 2.114 . S
Mg154 O164 2.251 . S
Mg154 O167 2.010 . S
O155 Mg154 2.028 . S
O155 C158 1.250 . S
O156 Mg157 2.028 . S
O156 C158 1.248 . S
Mg157 O156 2.028 . S
Mg157 O162 2.032 . S
Mg157 O164 2.079 . S
C158 O155 1.250 . S
C158 O156 1.248 . S
C159 O160 1.264 . S
C159 O167 1.249 . S
O160 C159 1.264 . S
O161 Mg154 1.986 . S
O161 C165 1.246 . S
O162 Mg157 2.032 . S
O162 C165 1.259 . S
O163 Mg154 2.114 . S
O163 C166 1.252 . S
O164 Mg154 2.251 . S
O164 Mg157 2.079 . S
O164 C166 1.273 . S
C165 O161 1.246 . S
C165 O162 1.259 . S
C166 O163 1.252 . S
C166 O164 1.273 . S
O167 Mg154 2.010 . S
O167 C159 1.249 . S
Mg168 O169 2.028 . S
Mg168 O175 1.986 . S
Mg168 O177 2.114 . S
Mg168 O178 2.251 . S
Mg168 O181 2.010 . S
O169 Mg168 2.028 . S
O169 C172 1.250 1_554 S
O170 Mg171 2.028 . S
O170 C172 1.248 1_554 S
Mg171 O170 2.028 . S
Mg171 O176 2.032 . S
Mg171 O178 2.079 . S
C172 O169 1.250 1_556 S
C172 O170 1.248 1_556 S
C173 O174 1.264 . S
C173 O181 1.249 . S
O174 C173 1.264 . S
O175 Mg168 1.986 . S
O175 C179 1.246 . S
O176 Mg171 2.032 . S
O176 C179 1.259 . S
O177 Mg168 2.114 . S
O177 C180 1.252 . S
O178 Mg168 2.251 . S
O178 Mg171 2.079 . S
O178 C180 1.273 . S
C179 O175 1.246 . S
C179 O176 1.259 . S
C180 O177 1.252 . S
C180 O178 1.273 . S
O181 Mg168 2.010 . S
O181 C173 1.249 . S
Mg182 O183 2.028 1_556 S
Mg182 O189 1.986 . S
Mg182 O191 2.114 1_556 S
Mg182 O192 2.251 . S
Mg182 O195 2.010 . S
O183 Mg182 2.028 1_554 S
O183 C186 1.250 . S
O184 Mg185 2.028 . S
O184 C186 1.248 . S
Mg185 O184 2.028 . S
Mg185 O190 2.032 1_554 S
Mg185 O192 2.079 1_554 S
C186 O183 1.250 . S
C186 O184 1.248 . S
C187 O188 1.264 . S
C187 O195 1.249 . S
O188 C187 1.264 . S
O189 Mg182 1.986 . S
O189 C193 1.246 . S
O190 Mg185 2.032 1_556 S
O190 C193 1.259 . S
O191 Mg182 2.114 1_554 S
O191 C194 1.252 . S
O192 Mg182 2.251 . S
O192 Mg185 2.079 1_556 S
O192 C194 1.273 1_556 S
C193 O189 1.246 . S
C193 O190 1.259 . S
C194 O191 1.252 . S
C194 O192 1.273 1_554 S
O195 Mg182 2.010 . S
O195 C187 1.249 . S
Mg196 O197 2.028 . S
Mg196 O203 1.986 . S
Mg196 O205 2.114 . S
Mg196 O206 2.251 . S
Mg196 O209 2.010 . S
O197 Mg196 2.028 . S
O197 C200 1.250 . S
O198 Mg199 2.028 . S
O198 C200 1.248 . S
Mg199 O198 2.028 . S
Mg199 O204 2.032 . S
Mg199 O206 2.079 . S
C200 O197 1.250 . S
C200 O198 1.248 . S
C201 O202 1.264 . S
C201 O209 1.249 . S
O202 C201 1.264 . S
O203 Mg196 1.986 . S
O203 C207 1.246 . S
O204 Mg199 2.032 . S
O204 C207 1.259 . S
O205 Mg196 2.114 . S
O205 C208 1.252 . S
O206 Mg196 2.251 . S
O206 Mg199 2.079 . S
O206 C208 1.273 . S
C207 O203 1.246 . S
C207 O204 1.259 . S
C208 O205 1.252 . S
C208 O206 1.273 . S
O209 Mg196 2.010 . S
O209 C201 1.249 . S
Mg210 O211 2.028 . S
Mg210 O217 1.986 . S
Mg210 O219 2.114 . S
Mg210 O220 2.251 . S
Mg210 O223 2.010 . S
O211 Mg210 2.028 . S
O211 C214 1.250 . S
O212 Mg213 2.028 . S
O212 C214 1.248 . S
Mg213 O212 2.028 . S
Mg213 O218 2.032 . S
Mg213 O220 2.079 . S
C214 O211 1.250 . S
C214 O212 1.248 . S
C215 O216 1.264 . S
C215 O223 1.249 . S
O216 C215 1.264 . S
O217 Mg210 1.986 . S
O217 C221 1.246 . S
O218 Mg213 2.032 . S
O218 C221 1.259 . S
O219 Mg210 2.114 . S
O219 C222 1.252 . S
O220 Mg210 2.251 . S
O220 Mg213 2.079 . S
O220 C222 1.273 . S
C221 O217 1.246 . S
C221 O218 1.259 . S
C222 O219 1.252 . S
C222 O220 1.273 . S
O223 Mg210 2.010 . S
O223 C215 1.249 . S
Mg224 O225 2.028 . S
Mg224 O231 1.986 . S
Mg224 O233 2.114 . S
Mg224 O234 2.251 . S
Mg224 O237 2.010 . S
O225 Mg224 2.028 . S
O225 C228 1.250 . S
O226 Mg227 2.028 . S
O226 C228 1.248 . S
Mg227 O226 2.028 . S
Mg227 O232 2.032 . S
Mg227 O234 2.079 . S
C228 O225 1.250 . S
C228 O226 1.248 . S
C229 O230 1.264 . S
C229 O237 1.249 . S
O230 C229 1.264 . S
O231 Mg224 1.986 . S
O231 C235 1.246 . S
O232 Mg227 2.032 . S
O232 C235 1.259 . S
O233 Mg224 2.114 . S
O233 C236 1.252 . S
O234 Mg224 2.251 . S
O234 Mg227 2.079 . S
O234 C236 1.273 . S
C235 O231 1.246 . S
C235 O232 1.259 . S
C236 O233 1.252 . S
C236 O234 1.273 . S
O237 Mg224 2.010 . S
O237 C229 1.249 . S
Mg238 O239 2.028 . S
Mg238 O245 1.986 . S
Mg238 O247 2.114 . S
Mg238 O248 2.251 . S
Mg238 O251 2.010 . S
O239 Mg238 2.028 . S
O239 C242 1.250 . S
O240 Mg241 2.028 . S
O240 C242 1.248 . S
Mg241 O240 2.028 . S
Mg241 O246 2.032 . S
Mg241 O248 2.079 . S
C242 O239 1.250 . S
C242 O240 1.248 . S
C243 O244 1.264 . S
C243 O251 1.249 . S
O244 C243 1.264 . S
O245 Mg238 1.986 . S
O245 C249 1.246 . S
O246 Mg241 2.032 . S
O246 C249 1.259 . S
O247 Mg238 2.114 . S
O247 C250 1.252 . S
O248 Mg238 2.251 . S
O248 Mg241 2.079 . S
O248 C250 1.273 . S
C249 O245 1.246 . S
C249 O246 1.259 . S
C250 O247 1.252 . S
C250 O248 1.273 . S
O251 Mg238 2.010 . S
O251 C243 1.249 . S
Mg252 O253 2.028 . S
Mg252 O259 1.986 . S
Mg252 O261 2.114 . S
Mg252 O262 2.251 . S
Mg252 O265 2.010 . S
O253 Mg252 2.028 . S
O253 C256 1.250 . S
O254 Mg255 2.028 . S
O254 C256 1.248 . S
Mg255 O254 2.028 . S
Mg255 O260 2.032 . S
Mg255 O262 2.079 . S
C256 O253 1.250 . S
C256 O254 1.248 . S
C257 O258 1.264 . S
C257 O265 1.249 . S
O258 C257 1.264 . S
O259 Mg252 1.986 . S
O259 C263 1.246 . S
O260 Mg255 2.032 . S
O260 C263 1.259 . S
O261 Mg252 2.114 . S
O261 C264 1.252 . S
O262 Mg252 2.251 . S
O262 Mg255 2.079 . S
O262 C264 1.273 . S
C263 O259 1.246 . S
C263 O260 1.259 . S
C264 O261 1.252 . S
C264 O262 1.273 . S
O265 Mg252 2.010 . S
O265 C257 1.249 . S
Mg266 O267 2.028 . S
Mg266 O273 1.986 1_545 S
Mg266 O275 2.114 . S
Mg266 O276 2.251 . S
Mg266 O279 2.010 . S
O267 Mg266 2.028 . S
O267 C270 1.250 . S
O268 Mg269 2.028 . S
O268 C270 1.248 . S
Mg269 O268 2.028 . S
Mg269 O274 2.032 1_545 S
Mg269 O276 2.079 . S
C270 O267 1.250 . S
C270 O268 1.248 . S
C271 O272 1.264 1_545 S
C271 O279 1.249 . S
O272 C271 1.264 1_565 S
O273 Mg266 1.986 1_565 S
O273 C277 1.246 . S
O274 Mg269 2.032 1_565 S
O274 C277 1.259 . S
O275 Mg266 2.114 . S
O275 C278 1.252 . S
O276 Mg266 2.251 . S
O276 Mg269 2.079 . S
O276 C278 1.273 . S
C277 O273 1.246 . S
C277 O274 1.259 . S
C278 O275 1.252 . S
C278 O276 1.273 . S
O279 Mg266 2.010 . S
O279 C271 1.249 . S
Mg280 O281 2.028 1_556 S
Mg280 O287 1.986 . S
Mg280 O289 2.114 1_556 S
Mg280 O290 2.252 1_556 S
Mg280 O293 2.010 . S
O281 Mg280 2.028 1_554 S
O281 C284 1.250 . S
O282 Mg283 2.028 . S
O282 C284 1.248 . S
Mg283 O282 2.028 . S
Mg283 O288 2.032 1_554 S
Mg283 O290 2.082 . S
C284 O281 1.250 . S
C284 O282 1.248 . S
C285 O286 1.264 . S
C285 O293 1.249 . S
O286 C285 1.264 . S
O287 Mg280 1.986 . S
O287 C291 1.246 . S
O288 Mg283 2.032 1_556 S
O288 C291 1.259 . S
O289 Mg280 2.114 1_554 S
O289 C292 1.252 . S
O290 Mg280 2.252 1_554 S
O290 Mg283 2.082 . S
O290 C292 1.289 . S
C291 O287 1.246 . S
C291 O288 1.259 . S
C292 O289 1.252 . S
C292 O290 1.289 . S
O293 Mg280 2.010 . S
O293 C285 1.249 . S
Mg294 O295 2.028 . S
Mg294 O301 1.986 . S
Mg294 O303 2.114 . S
Mg294 O304 2.251 . S
Mg294 O307 2.010 . S
O295 Mg294 2.028 . S
O295 C298 1.250 . S
O296 Mg297 2.028 . S
O296 C298 1.248 . S
Mg297 O296 2.028 . S
Mg297 O302 2.032 . S
Mg297 O304 2.079 . S
C298 O295 1.250 . S
C298 O296 1.248 . S
C299 O300 1.264 . S
C299 O307 1.249 . S
O300 C299 1.264 . S
O301 Mg294 1.986 . S
O301 C305 1.246 . S
O302 Mg297 2.032 . S
O302 C305 1.259 . S
O303 Mg294 2.114 . S
O303 C306 1.252 . S
O304 Mg294 2.251 . S
O304 Mg297 2.079 . S
O304 C306 1.273 . S
C305 O301 1.246 . S
C305 O302 1.259 . S
C306 O303 1.252 . S
C306 O304 1.273 . S
O307 Mg294 2.010 . S
O307 C299 1.249 . S
Mg308 O309 2.028 . S
Mg308 O315 1.986 . S
Mg308 O317 2.114 . S
Mg308 O318 2.251 . S
Mg308 O321 2.010 . S
O309 Mg308 2.028 . S
O309 C312 1.250 . S
O310 Mg311 2.028 . S
O310 C312 1.248 . S
Mg311 O310 2.028 . S
Mg311 O316 2.032 . S
Mg311 O318 2.079 . S
C312 O309 1.250 . S
C312 O310 1.248 . S
C313 O314 1.264 . S
C313 O321 1.249 . S
O314 C313 1.264 . S
O315 Mg308 1.986 . S
O315 C319 1.246 . S
O316 Mg311 2.032 . S
O316 C319 1.259 . S
O317 Mg308 2.114 . S
O317 C320 1.252 . S
O318 Mg308 2.251 . S
O318 Mg311 2.079 . S
O318 C320 1.273 . S
C319 O315 1.246 . S
C319 O316 1.259 . S
C320 O317 1.252 . S
C320 O318 1.273 . S
O321 Mg308 2.010 . S
O321 C313 1.249 . S
Mg322 O323 2.028 . S
Mg322 O329 1.986 . S
Mg322 O331 2.114 . S
Mg322 O332 2.251 . S
Mg322 O335 2.010 . S
O323 Mg322 2.028 . S
O323 C326 1.250 . S
O324 Mg325 2.028 . S
O324 C326 1.248 . S
Mg325 O324 2.028 . S
Mg325 O330 2.032 . S
Mg325 O332 2.079 . S
C326 O323 1.250 . S
C326 O324 1.248 . S
C327 O328 1.264 . S
C327 O335 1.249 . S
O328 C327 1.264 . S
O329 Mg322 1.986 . S
O329 C333 1.246 . S
O330 Mg325 2.032 . S
O330 C333 1.259 . S
O331 Mg322 2.114 . S
O331 C334 1.252 . S
O332 Mg322 2.251 . S
O332 Mg325 2.079 . S
O332 C334 1.273 . S
C333 O329 1.246 . S
C333 O330 1.259 . S
C334 O331 1.252 . S
C334 O332 1.273 . S
O335 Mg322 2.010 . S
O335 C327 1.249 . S
Tb336 O339 2.453 . S
Tb336 O340 2.596 . S
Tb336 O341 2.374 1_554 S
Tb336 O349 2.343 1_455 S
Tb336 O351 2.353 . S
Tb336 O353 2.427 . S
Tb336 O354 2.513 1_554 S
C337 O341 1.251 . S
C337 O343 1.246 1_455 S
Tb338 O340 2.343 1_655 S
Tb338 O343 2.364 1_554 S
Tb338 O346 2.427 1_545 S
Tb338 O347 2.513 1_545 S
Tb338 O348 2.453 1_554 S
Tb338 O349 2.596 . S
Tb338 O350 2.374 . S
O339 Tb336 2.453 . S
O339 C355 1.245 . S
O340 Tb336 2.596 . S
O340 Tb338 2.343 1_455 S
O340 C355 1.259 . S
O341 Tb336 2.374 1_556 S
O341 C337 1.251 . S
C342 O346 1.275 1_455 S
C342 O347 1.246 1_455 S
O343 C337 1.246 1_655 S
O343 Tb338 2.364 1_556 S
C344 O348 1.243 1_554 S
C344 O349 1.265 . S
C345 O350 1.250 . S
C345 O351 1.263 1_655 S
O346 Tb338 2.427 1_565 S
O346 C342 1.275 1_655 S
O347 Tb338 2.513 1_565 S
O347 C342 1.246 1_655 S
O348 Tb338 2.453 1_556 S
O348 C344 1.243 1_556 S
O349 Tb336 2.343 1_655 S
O349 Tb338 2.596 . S
O349 C344 1.265 . S
O350 Tb338 2.374 . S
O350 C345 1.250 . S
O351 Tb336 2.353 . S
O351 C345 1.263 1_455 S
C352 O353 1.275 1_556 S
C352 O354 1.246 . S
O353 Tb336 2.427 . S
O353 C352 1.275 1_554 S
O354 Tb336 2.513 1_556 S
O354 C352 1.246 . S
C355 O339 1.245 . S
C355 O340 1.259 . S
Tb356 O359 2.453 . S
Tb356 O360 2.596 . S
Tb356 O361 2.374 . S
Tb356 O369 2.343 . S
Tb356 O371 2.353 . S
Tb356 O373 2.427 . S
Tb356 O374 2.513 . S
C357 O361 1.251 . S
C357 O363 1.263 . S
Tb358 O360 2.343 . S
Tb358 O363 2.353 . S
Tb358 O366 2.427 . S
Tb358 O367 2.513 . S
Tb358 O368 2.453 . S
Tb358 O369 2.596 . S
Tb358 O370 2.374 . S
O359 Tb356 2.453 . S
O359 C375 1.245 . S
O360 Tb356 2.596 . S
O360 Tb358 2.343 . S
O360 C375 1.259 . S
O361 Tb356 2.374 . S
O361 C357 1.251 . S
C362 O366 1.275 . S
C362 O367 1.246 . S
O363 C357 1.263 . S
O363 Tb358 2.353 . S
C364 O368 1.245 . S
C364 O369 1.259 . S
C365 O370 1.250 . S
C365 O371 1.263 . S
O366 Tb358 2.427 . S
O366 C362 1.275 . S
O367 Tb358 2.513 . S
O367 C362 1.246 . S
O368 Tb358 2.453 . S
O368 C364 1.245 . S
O369 Tb356 2.343 . S
O369 Tb358 2.596 . S
O369 C364 1.259 . S
O370 Tb358 2.374 . S
O370 C365 1.250 . S
O371 Tb356 2.353 . S
O371 C365 1.263 . S
C372 O373 1.275 . S
C372 O374 1.246 . S
O373 Tb356 2.427 . S
O373 C372 1.275 . S
O374 Tb356 2.513 . S
O374 C372 1.246 . S
C375 O359 1.245 . S
C375 O360 1.259 . S
Tb376 O379 2.453 . S
Tb376 O380 2.596 . S
Tb376 O381 2.374 . S
Tb376 O389 2.343 . S
Tb376 O391 2.353 . S
Tb376 O393 2.427 . S
Tb376 O394 2.513 . S
C377 O381 1.251 . S
C377 O383 1.263 . S
Tb378 O380 2.343 . S
Tb378 O383 2.353 . S
Tb378 O386 2.427 . S
Tb378 O387 2.513 . S
Tb378 O388 2.453 1_545 S
Tb378 O389 2.596 . S
Tb378 O390 2.374 . S
O379 Tb376 2.453 . S
O379 C395 1.245 . S
O380 Tb376 2.596 . S
O380 Tb378 2.343 . S
O380 C395 1.259 . S
O381 Tb376 2.374 . S
O381 C377 1.251 . S
C382 O386 1.275 . S
C382 O387 1.246 . S
O383 C377 1.263 . S
O383 Tb378 2.353 . S
C384 O388 1.245 . S
C384 O389 1.259 1_565 S
C385 O390 1.250 . S
C385 O391 1.263 . S
O386 Tb378 2.427 . S
O386 C382 1.275 . S
O387 Tb378 2.513 . S
O387 C382 1.246 . S
O388 Tb378 2.453 1_565 S
O388 C384 1.245 . S
O389 Tb376 2.343 . S
O389 Tb378 2.596 . S
O389 C384 1.259 1_545 S
O390 Tb378 2.374 . S
O390 C385 1.250 . S
O391 Tb376 2.353 . S
O391 C385 1.263 . S
C392 O393 1.275 . S
C392 O394 1.246 . S
O393 Tb376 2.427 . S
O393 C392 1.275 . S
O394 Tb376 2.513 . S
O394 C392 1.246 . S
C395 O379 1.245 . S
C395 O380 1.259 . S
Tb396 O399 2.453 . S
Tb396 O400 2.596 . S
Tb396 O401 2.374 . S
Tb396 O409 2.343 . S
Tb396 O411 2.353 . S
Tb396 O413 2.427 . S
Tb396 O414 2.513 . S
C397 O401 1.251 . S
C397 O403 1.263 . S
Tb398 O400 2.343 . S
Tb398 O403 2.353 . S
Tb398 O406 2.427 . S
Tb398 O407 2.513 . S
Tb398 O408 2.453 . S
Tb398 O409 2.596 . S
Tb398 O410 2.374 . S
O399 Tb396 2.453 . S
O399 C415 1.245 . S
O400 Tb396 2.596 . S
O400 Tb398 2.343 . S
O400 C415 1.259 . S
O401 Tb396 2.374 . S
O401 C397 1.251 . S
C402 O406 1.275 . S
C402 O407 1.246 . S
O403 C397 1.263 . S
O403 Tb398 2.353 . S
C404 O408 1.245 . S
C404 O409 1.259 . S
C405 O410 1.250 . S
C405 O411 1.263 . S
O406 Tb398 2.427 . S
O406 C402 1.275 . S
O407 Tb398 2.513 . S
O407 C402 1.246 . S
O408 Tb398 2.453 . S
O408 C404 1.245 . S
O409 Tb396 2.343 . S
O409 Tb398 2.596 . S
O409 C404 1.259 . S
O410 Tb398 2.374 . S
O410 C405 1.250 . S
O411 Tb396 2.353 . S
O411 C405 1.263 . S
C412 O413 1.275 . S
C412 O414 1.246 . S
O413 Tb396 2.427 . S
O413 C412 1.275 . S
O414 Tb396 2.513 . S
O414 C412 1.246 . S
C415 O399 1.245 . S
C415 O400 1.259 . S
Tb416 O419 2.447 1_645 S
Tb416 O420 2.594 1_655 S
Tb416 O421 2.390 . S
Tb416 O429 2.345 . S
Tb416 O431 2.337 1_655 S
Tb416 O433 2.423 1_655 S
Tb416 O434 2.525 . S
C417 O421 1.251 . S
C417 O423 1.263 . S
Tb418 O420 2.343 . S
Tb418 O423 2.353 1_455 S
Tb418 O426 2.427 1_455 S
Tb418 O427 2.513 . S
Tb418 O428 2.453 1_455 S
Tb418 O429 2.595 1_455 S
Tb418 O430 2.374 . S
O419 Tb416 2.447 1_465 S
O419 C435 1.245 . S
O420 Tb416 2.594 1_455 S
O420 Tb418 2.343 . S
O420 C435 1.259 1_545 S
O421 Tb416 2.390 . S
O421 C417 1.251 . S
C422 O426 1.274 1_455 S
C422 O427 1.246 . S
O423 C417 1.263 . S
O423 Tb418 2.353 1_655 S
C424 O428 1.250 . S
C424 O429 1.256 . S
C425 O430 1.250 . S
C425 O431 1.263 . S
O426 Tb418 2.427 1_655 S
O426 C422 1.274 1_655 S
O427 Tb418 2.513 . S
O427 C422 1.246 . S
O428 Tb418 2.453 1_655 S
O428 C424 1.250 . S
O429 Tb416 2.345 . S
O429 Tb418 2.595 1_655 S
O429 C424 1.256 . S
O430 Tb418 2.374 . S
O430 C425 1.250 . S
O431 Tb416 2.337 1_455 S
O431 C425 1.263 . S
C432 O433 1.275 1_655 S
C432 O434 1.246 . S
O433 Tb416 2.423 1_455 S
O433 C432 1.275 1_455 S
O434 Tb416 2.525 . S
O434 C432 1.246 . S
C435 O419 1.245 . S
C435 O420 1.259 1_565 S
Tb436 O439 2.453 . S
Tb436 O440 2.596 . S
Tb436 O441 2.374 . S
Tb436 O449 2.343 . S
Tb436 O451 2.353 . S
Tb436 O453 2.427 . S
Tb436 O454 2.513 . S
C437 O441 1.251 . S
C437 O443 1.263 . S
Tb438 O440 2.343 . S
Tb438 O443 2.353 . S
Tb438 O446 2.427 . S
Tb438 O447 2.513 . S
Tb438 O448 2.453 . S
Tb438 O449 2.596 . S
Tb438 O450 2.374 . S
O439 Tb436 2.453 . S
O439 C455 1.245 . S
O440 Tb436 2.596 . S
O440 Tb438 2.343 . S
O440 C455 1.259 . S
O441 Tb436 2.374 . S
O441 C437 1.251 . S
C442 O446 1.275 . S
C442 O447 1.246 . S
O443 C437 1.263 . S
O443 Tb438 2.353 . S
C444 O448 1.245 . S
C444 O449 1.259 . S
C445 O450 1.250 . S
C445 O451 1.263 . S
O446 Tb438 2.427 . S
O446 C442 1.275 . S
O447 Tb438 2.513 . S
O447 C442 1.246 . S
O448 Tb438 2.453 . S
O448 C444 1.245 . S
O449 Tb436 2.343 . S
O449 Tb438 2.596 . S
O449 C444 1.259 . S
O450 Tb438 2.374 . S
O450 C445 1.250 . S
O451 Tb436 2.353 . S
O451 C445 1.263 . S
C452 O453 1.275 . S
C452 O454 1.246 . S
O453 Tb436 2.427 . S
O453 C452 1.275 . S
O454 Tb436 2.513 . S
O454 C452 1.246 . S
C455 O439 1.245 . S
C455 O440 1.259 . S
Tb456 O459 2.453 . S
Tb456 O460 2.596 . S
Tb456 O461 2.374 1_545 S
Tb456 O469 2.343 1_556 S
Tb456 O471 2.353 1_556 S
Tb456 O473 2.427 1_556 S
Tb456 O474 2.515 1_556 S
C457 O461 1.251 1_554 S
C457 O463 1.268 . S
Tb458 O460 2.343 1_554 S
Tb458 O463 2.336 1_545 S
Tb458 O466 2.427 . S
Tb458 O467 2.513 . S
Tb458 O468 2.453 . S
Tb458 O469 2.596 . S
Tb458 O470 2.374 . S
O459 Tb456 2.453 . S
O459 C475 1.245 . S
O460 Tb456 2.596 . S
O460 Tb458 2.343 1_556 S
O460 C475 1.259 . S
O461 Tb456 2.374 1_565 S
O461 C457 1.251 1_556 S
C462 O466 1.275 . S
C462 O467 1.246 . S
O463 C457 1.268 . S
O463 Tb458 2.336 1_565 S
C464 O468 1.245 . S
C464 O469 1.259 . S
C465 O470 1.250 . S
C465 O471 1.263 . S
O466 Tb458 2.427 . S
O466 C462 1.275 . S
O467 Tb458 2.513 . S
O467 C462 1.246 . S
O468 Tb458 2.453 . S
O468 C464 1.245 . S
O469 Tb456 2.343 1_554 S
O469 Tb458 2.596 . S
O469 C464 1.259 . S
O470 Tb458 2.374 . S
O470 C465 1.250 . S
O471 Tb456 2.353 1_554 S
O471 C465 1.263 . S
C472 O473 1.275 . S
C472 O474 1.248 . S
O473 Tb456 2.427 1_554 S
O473 C472 1.275 . S
O474 Tb456 2.515 1_554 S
O474 C472 1.248 . S
C475 O459 1.245 . S
C475 O460 1.259 . S
Tb476 O479 2.453 . S
Tb476 O480 2.596 . S
Tb476 O481 2.374 . S
Tb476 O489 2.343 . S
Tb476 O491 2.353 . S
Tb476 O493 2.427 . S
Tb476 O494 2.513 . S
C477 O481 1.251 . S
C477 O483 1.263 . S
Tb478 O480 2.343 . S
Tb478 O483 2.353 . S
Tb478 O486 2.427 . S
Tb478 O487 2.513 . S
Tb478 O488 2.453 . S
Tb478 O489 2.596 . S
Tb478 O490 2.374 . S
O479 Tb476 2.453 . S
O479 C495 1.245 . S
O480 Tb476 2.596 . S
O480 Tb478 2.343 . S
O480 C495 1.259 . S
O481 Tb476 2.374 . S
O481 C477 1.251 . S
C482 O486 1.275 . S
C482 O487 1.246 . S
O483 C477 1.263 . S
O483 Tb478 2.353 . S
C484 O488 1.245 . S
C484 O489 1.259 . S
C485 O490 1.250 . S
C485 O491 1.263 . S
O486 Tb478 2.427 . S
O486 C482 1.275 . S
O487 Tb478 2.513 . S
O487 C482 1.246 . S
O488 Tb478 2.453 . S
O488 C484 1.245 . S
O489 Tb476 2.343 . S
O489 Tb478 2.596 . S
O489 C484 1.259 . S
O490 Tb478 2.374 . S
O490 C485 1.250 . S
O491 Tb476 2.353 . S
O491 C485 1.263 . S
C492 O493 1.275 . S
C492 O494 1.246 . S
O493 Tb476 2.427 . S
O493 C492 1.275 . S
O494 Tb476 2.513 . S
O494 C492 1.246 . S
C495 O479 1.245 . S
C495 O480 1.259 . S
Tb496 O499 2.453 1_556 S
Tb496 O500 2.596 1_556 S
Tb496 O501 2.374 1_556 S
Tb496 O509 2.343 1_556 S
Tb496 O511 2.353 . S
Tb496 O513 2.427 . S
Tb496 O514 2.513 . S
C497 O501 1.251 . S
C497 O503 1.263 . S
Tb498 O500 2.343 . S
Tb498 O503 2.353 . S
Tb498 O506 2.427 . S
Tb498 O507 2.513 . S
Tb498 O508 2.453 . S
Tb498 O509 2.596 . S
Tb498 O510 2.374 . S
O499 Tb496 2.453 1_554 S
O499 C515 1.245 . S
O500 Tb496 2.596 1_554 S
O500 Tb498 2.343 . S
O500 C515 1.259 . S
O501 Tb496 2.374 1_554 S
O501 C497 1.251 . S
C502 O506 1.275 . S
C502 O507 1.246 . S
O503 C497 1.263 . S
O503 Tb498 2.353 . S
C504 O508 1.245 . S
C504 O509 1.259 . S
C505 O510 1.250 . S
C505 O511 1.263 1_554 S
O506 Tb498 2.427 . S
O506 C502 1.275 . S
O507 Tb498 2.513 . S
O507 C502 1.246 . S
O508 Tb498 2.453 . S
O508 C504 1.245 . S
O509 Tb496 2.343 1_554 S
O509 Tb498 2.596 . S
O509 C504 1.259 . S
O510 Tb498 2.374 . S
O510 C505 1.250 . S
O511 Tb496 2.353 . S
O511 C505 1.263 1_556 S
C512 O513 1.275 . S
C512 O514 1.246 . S
O513 Tb496 2.427 . S
O513 C512 1.275 . S
O514 Tb496 2.513 . S
O514 C512 1.246 . S
C515 O499 1.245 . S
C515 O500 1.259 . S
Tb516 O519 2.453 . S
Tb516 O520 2.596 . S
Tb516 O521 2.374 . S
Tb516 O529 2.343 . S
Tb516 O531 2.353 . S
Tb516 O533 2.427 . S
Tb516 O534 2.513 . S
C517 O521 1.251 . S
C517 O523 1.263 . S
Tb518 O520 2.343 . S
Tb518 O523 2.353 . S
Tb518 O526 2.427 . S
Tb518 O527 2.513 . S
Tb518 O528 2.453 . S
Tb518 O529 2.596 . S
Tb518 O530 2.374 . S
O519 Tb516 2.453 . S
O519 C535 1.245 . S
O520 Tb516 2.596 . S
O520 Tb518 2.343 . S
O520 C535 1.259 . S
O521 Tb516 2.374 . S
O521 C517 1.251 . S
C522 O526 1.275 . S
C522 O527 1.246 . S
O523 C517 1.263 . S
O523 Tb518 2.353 . S
C524 O528 1.245 . S
C524 O529 1.259 . S
C525 O530 1.250 . S
C525 O531 1.263 . S
O526 Tb518 2.427 . S
O526 C522 1.275 . S
O527 Tb518 2.513 . S
O527 C522 1.246 . S
O528 Tb518 2.453 . S
O528 C524 1.245 . S
O529 Tb516 2.343 . S
O529 Tb518 2.596 . S
O529 C524 1.259 . S
O530 Tb518 2.374 . S
O530 C525 1.250 . S
O531 Tb516 2.353 . S
O531 C525 1.263 . S
C532 O533 1.275 . S
C532 O534 1.246 . S
O533 Tb516 2.427 . S
O533 C532 1.275 . S
O534 Tb516 2.513 . S
O534 C532 1.246 . S
C535 O519 1.245 . S
C535 O520 1.259 . S
Tb536 O539 2.453 1_655 S
Tb536 O540 2.596 1_655 S
Tb536 O541 2.374 . S
Tb536 O549 2.343 . S
Tb536 O551 2.353 . S
Tb536 O553 2.427 . S
Tb536 O554 2.513 . S
C537 O541 1.251 1_455 S
C537 O543 1.263 . S
Tb538 O540 2.343 . S
Tb538 O543 2.353 . S
Tb538 O546 2.427 . S
Tb538 O547 2.513 . S
Tb538 O548 2.453 . S
Tb538 O549 2.596 1_455 S
Tb538 O550 2.374 . S
O539 Tb536 2.453 1_455 S
O539 C555 1.245 . S
O540 Tb536 2.596 1_455 S
O540 Tb538 2.343 . S
O540 C555 1.259 . S
O541 Tb536 2.374 . S
O541 C537 1.251 1_655 S
C542 O546 1.275 . S
C542 O547 1.246 . S
O543 C537 1.263 . S
O543 Tb538 2.353 . S
C544 O548 1.245 1_655 S
C544 O549 1.259 . S
C545 O550 1.250 . S
C545 O551 1.263 1_455 S
O546 Tb538 2.427 . S
O546 C542 1.275 . S
O547 Tb538 2.513 . S
O547 C542 1.246 . S
O548 Tb538 2.453 . S
O548 C544 1.245 1_455 S
O549 Tb536 2.343 . S
O549 Tb538 2.596 1_655 S
O549 C544 1.259 . S
O550 Tb538 2.374 . S
O550 C545 1.250 . S
O551 Tb536 2.353 . S
O551 C545 1.263 1_655 S
C552 O553 1.275 . S
C552 O554 1.246 . S
O553 Tb536 2.427 . S
O553 C552 1.275 . S
O554 Tb536 2.513 . S
O554 C552 1.246 . S
C555 O539 1.245 . S
C555 O540 1.259 . S
Tb556 O559 2.453 . S
Tb556 O560 2.596 . S
Tb556 O561 2.374 . S
Tb556 O569 2.343 . S
Tb556 O571 2.353 . S
Tb556 O573 2.427 . S
Tb556 O574 2.513 . S
C557 O561 1.251 . S
C557 O563 1.263 . S
Tb558 O560 2.343 . S
Tb558 O563 2.353 . S
Tb558 O566 2.427 . S
Tb558 O567 2.513 . S
Tb558 O568 2.453 . S
Tb558 O569 2.596 . S
Tb558 O570 2.374 . S
O559 Tb556 2.453 . S
O559 C575 1.245 . S
O560 Tb556 2.596 . S
O560 Tb558 2.343 . S
O560 C575 1.259 . S
O561 Tb556 2.374 . S
O561 C557 1.251 . S
C562 O566 1.275 . S
C562 O567 1.246 . S
O563 C557 1.263 . S
O563 Tb558 2.353 . S
C564 O568 1.245 . S
C564 O569 1.259 . S
C565 O570 1.250 . S
C565 O571 1.263 . S
O566 Tb558 2.427 . S
O566 C562 1.275 . S
O567 Tb558 2.513 . S
O567 C562 1.246 . S
O568 Tb558 2.453 . S
O568 C564 1.245 . S
O569 Tb556 2.343 . S
O569 Tb558 2.596 . S
O569 C564 1.259 . S
O570 Tb558 2.374 . S
O570 C565 1.250 . S
O571 Tb556 2.353 . S
O571 C565 1.263 . S
C572 O573 1.275 . S
C572 O574 1.246 . S
O573 Tb556 2.427 . S
O573 C572 1.275 . S
O574 Tb556 2.513 . S
O574 C572 1.246 . S
C575 O559 1.245 . S
C575 O560 1.259 . S
Tb576 O579 2.453 . S
Tb576 O580 2.596 . S
Tb576 O581 2.374 . S
Tb576 O589 2.343 . S
Tb576 O591 2.353 . S
Tb576 O593 2.427 . S
Tb576 O594 2.513 . S
C577 O581 1.251 . S
C577 O583 1.263 . S
Tb578 O580 2.343 . S
Tb578 O583 2.353 . S
Tb578 O586 2.427 . S
Tb578 O587 2.513 . S
Tb578 O588 2.453 . S
Tb578 O589 2.596 . S
Tb578 O590 2.374 . S
O579 Tb576 2.453 . S
O579 C595 1.245 . S
O580 Tb576 2.596 . S
O580 Tb578 2.343 . S
O580 C595 1.259 . S
O581 Tb576 2.374 . S
O581 C577 1.251 . S
C582 O586 1.275 . S
C582 O587 1.246 . S
O583 C577 1.263 . S
O583 Tb578 2.353 . S
C584 O588 1.245 . S
C584 O589 1.259 . S
C585 O590 1.250 . S
C585 O591 1.263 . S
O586 Tb578 2.427 . S
O586 C582 1.275 . S
O587 Tb578 2.513 . S
O587 C582 1.246 . S
O588 Tb578 2.453 . S
O588 C584 1.245 . S
O589 Tb576 2.343 . S
O589 Tb578 2.596 . S
O589 C584 1.259 . S
O590 Tb578 2.374 . S
O590 C585 1.250 . S
O591 Tb576 2.353 . S
O591 C585 1.263 . S
C592 O593 1.275 . S
C592 O594 1.246 . S
O593 Tb576 2.427 . S
O593 C592 1.275 . S
O594 Tb576 2.513 . S
O594 C592 1.246 . S
C595 O579 1.245 . S
C595 O580 1.259 . S
Tb596 O599 2.453 . S
Tb596 O600 2.596 . S
Tb596 O601 2.374 . S
Tb596 O609 2.343 . S
Tb596 O611 2.353 . S
Tb596 O613 2.427 . S
Tb596 O614 2.513 . S
C597 O601 1.251 . S
C597 O603 1.263 . S
Tb598 O600 2.343 . S
Tb598 O603 2.353 . S
Tb598 O606 2.427 . S
Tb598 O607 2.513 . S
Tb598 O608 2.453 . S
Tb598 O609 2.596 . S
Tb598 O610 2.374 . S
O599 Tb596 2.453 . S
O599 C615 1.245 . S
O600 Tb596 2.596 . S
O600 Tb598 2.343 . S
O600 C615 1.259 . S
O601 Tb596 2.374 . S
O601 C597 1.251 . S
C602 O606 1.275 . S
C602 O607 1.246 . S
O603 C597 1.263 . S
O603 Tb598 2.353 . S
C604 O608 1.245 . S
C604 O609 1.259 . S
C605 O610 1.250 . S
C605 O611 1.263 . S
O606 Tb598 2.427 . S
O606 C602 1.275 . S
O607 Tb598 2.513 . S
O607 C602 1.246 . S
O608 Tb598 2.453 . S
O608 C604 1.245 . S
O609 Tb596 2.343 . S
O609 Tb598 2.596 . S
O609 C604 1.259 . S
O610 Tb598 2.374 . S
O610 C605 1.250 . S
O611 Tb596 2.353 . S
O611 C605 1.263 . S
C612 O613 1.275 . S
C612 O614 1.246 . S
O613 Tb596 2.427 . S
O613 C612 1.275 . S
O614 Tb596 2.513 . S
O614 C612 1.246 . S
C615 O599 1.245 . S
C615 O600 1.259 . S
Tb616 O619 2.453 . S
Tb616 O620 2.596 . S
Tb616 O621 2.374 . S
Tb616 O629 2.343 . S
Tb616 O631 2.353 . S
Tb616 O633 2.427 . S
Tb616 O634 2.513 . S
C617 O621 1.251 . S
C617 O623 1.263 . S
Tb618 O620 2.343 . S
Tb618 O623 2.353 . S
Tb618 O626 2.427 . S
Tb618 O627 2.513 . S
Tb618 O628 2.453 . S
Tb618 O629 2.596 . S
Tb618 O630 2.374 . S
O619 Tb616 2.453 . S
O619 C635 1.245 . S
O620 Tb616 2.596 . S
O620 Tb618 2.343 . S
O620 C635 1.259 . S
O621 Tb616 2.374 . S
O621 C617 1.251 . S
C622 O626 1.275 . S
C622 O627 1.246 . S
O623 C617 1.263 . S
O623 Tb618 2.353 . S
C624 O628 1.245 . S
C624 O629 1.259 . S
C625 O630 1.250 . S
C625 O631 1.263 . S
O626 Tb618 2.427 . S
O626 C622 1.275 . S
O627 Tb618 2.513 . S
O627 C622 1.246 . S
O628 Tb618 2.453 . S
O628 C624 1.245 . S
O629 Tb616 2.343 . S
O629 Tb618 2.596 . S
O629 C624 1.259 . S
O630 Tb618 2.374 . S
O630 C625 1.250 . S
O631 Tb616 2.353 . S
O631 C625 1.263 . S
C632 O633 1.275 . S
C632 O634 1.246 . S
O633 Tb616 2.427 . S
O633 C632 1.275 . S
O634 Tb616 2.513 . S
O634 C632 1.246 . S
C635 O619 1.245 . S
C635 O620 1.259 . S
Tb636 O639 2.453 . S
Tb636 O640 2.596 . S
Tb636 O641 2.374 . S
Tb636 O649 2.343 . S
Tb636 O651 2.353 1_554 S
Tb636 O653 2.427 1_554 S
Tb636 O654 2.513 . S
C637 O641 1.251 . S
C637 O643 1.263 1_455 S
Tb638 O640 2.343 1_655 S
Tb638 O643 2.353 . S
Tb638 O646 2.427 . S
Tb638 O647 2.513 . S
Tb638 O648 2.453 . S
Tb638 O649 2.596 1_655 S
Tb638 O650 2.374 1_554 S
O639 Tb636 2.453 . S
O639 C655 1.245 . S
O640 Tb636 2.596 . S
O640 Tb638 2.343 1_455 S
O640 C655 1.259 . S
O641 Tb636 2.374 . S
O641 C637 1.251 . S
C642 O646 1.275 . S
C642 O647 1.246 . S
O643 C637 1.263 1_655 S
O643 Tb638 2.353 . S
C644 O648 1.243 1_556 S
C644 O649 1.259 1_656 S
C645 O650 1.250 . S
C645 O651 1.263 1_655 S
O646 Tb638 2.427 . S
O646 C642 1.275 . S
O647 Tb638 2.513 . S
O647 C642 1.246 . S
O648 Tb638 2.453 . S
O648 C644 1.243 1_554 S
O649 Tb636 2.343 . S
O649 Tb638 2.596 1_455 S
O649 C644 1.259 1_454 S
O650 Tb638 2.374 1_556 S
O650 C645 1.250 . S
O651 Tb636 2.353 1_556 S
O651 C645 1.263 1_455 S
C652 O653 1.257 1_554 S
C652 O654 1.270 . S
O653 Tb636 2.427 1_556 S
O653 C652 1.257 1_556 S
O654 Tb636 2.513 . S
O654 C652 1.270 . S
C655 O639 1.245 . S
C655 O640 1.259 . S
C656 C657 1.349 . S
C656 C658 1.327 . S
C656 H681 0.950 . S
C657 C656 1.349 . S
C657 C673 1.349 1_455 S
C658 C656 1.327 . S
C658 C677 1.429 . S
C658 H682 0.950 . S
C659 C676 1.574 . S
C659 C678 1.368 1_655 S
C659 H683 0.949 . S
H660 C664 0.949 . S
C661 C662 1.349 1_654 S
C661 C663 1.327 1_554 S
C661 H684 0.950 . S
C662 C661 1.349 1_456 S
C662 C674 1.349 . S
C663 C661 1.327 1_556 S
C663 C679 1.429 1_655 S
C663 H685 0.950 . S
C664 H660 0.949 . S
C664 C672 1.574 . S
C664 C680 1.368 . S
H665 C673 0.950 . S
H666 C671 0.950 . S
H667 C672 0.949 . S
H668 C674 0.950 . S
H669 C675 0.950 . S
H670 C676 0.949 . S
C671 H666 0.950 . S
C671 C673 1.327 . S
C671 C677 1.429 1_655 S
C672 C664 1.574 . S
C672 H667 0.949 . S
C672 C678 1.368 . S
C673 C657 1.349 1_655 S
C673 H665 0.950 . S
C673 C671 1.327 . S
C674 C662 1.349 . S
C674 H668 0.950 . S
C674 C675 1.327 . S
C675 H669 0.950 . S
C675 C674 1.327 . S
C675 C679 1.429 . S
C676 C659 1.574 . S
C676 H670 0.949 . S
C676 C680 1.368 1_655 S
C677 C658 1.429 . S
C677 C671 1.429 1_455 S
C677 C678 1.523 . S
C678 C659 1.368 1_455 S
C678 C672 1.368 . S
C678 C677 1.523 . S
C679 C663 1.429 1_455 S
C679 C675 1.429 . S
C679 C680 1.523 . S
C680 C664 1.368 . S
C680 C676 1.368 1_455 S
C680 C679 1.523 . S
H681 C656 0.950 . S
H682 C658 0.950 . S
H683 C659 0.949 . S
H684 C661 0.950 . S
H685 C663 0.950 . S
C686 C687 1.349 . S
C686 C688 1.327 . S
C686 H711 0.950 . S
C687 C686 1.349 . S
C687 C703 1.349 . S
C688 C686 1.327 . S
C688 C707 1.429 . S
C688 H712 0.950 . S
C689 C706 1.574 . S
C689 C708 1.368 . S
C689 H713 0.949 . S
H690 C694 0.949 . S
C691 C692 1.349 . S
C691 C693 1.327 . S
C691 H714 0.950 . S
C692 C691 1.349 . S
C692 C704 1.349 . S
C693 C691 1.327 . S
C693 C709 1.429 . S
C693 H715 0.950 . S
C694 H690 0.949 . S
C694 C702 1.574 . S
C694 C710 1.368 . S
H695 C703 0.950 . S
H696 C701 0.950 . S
H697 C702 0.949 . S
H698 C704 0.950 . S
H699 C705 0.950 . S
H700 C706 0.949 . S
C701 H696 0.950 . S
C701 C703 1.327 . S
C701 C707 1.429 . S
C702 C694 1.574 . S
C702 H697 0.949 . S
C702 C708 1.368 . S
C703 C687 1.349 . S
C703 H695 0.950 . S
C703 C701 1.327 . S
C704 C692 1.349 . S
C704 H698 0.950 . S
C704 C705 1.327 . S
C705 H699 0.950 . S
C705 C704 1.327 . S
C705 C709 1.429 . S
C706 C689 1.574 . S
C706 H700 0.949 . S
C706 C710 1.368 . S
C707 C688 1.429 . S
C707 C701 1.429 . S
C707 C708 1.523 . S
C708 C689 1.368 . S
C708 C702 1.368 . S
C708 C707 1.523 . S
C709 C693 1.429 . S
C709 C705 1.429 . S
C709 C710 1.523 . S
C710 C694 1.368 . S
C710 C706 1.368 . S
C710 C709 1.523 . S
H711 C686 0.950 . S
H712 C688 0.950 . S
H713 C689 0.949 . S
H714 C691 0.950 . S
H715 C693 0.950 . S
C716 C717 1.349 . S
C716 C718 1.327 . S
C716 H741 0.950 . S
C717 C716 1.349 . S
C717 C733 1.349 . S
C718 C716 1.327 . S
C718 C737 1.429 . S
C718 H742 0.950 . S
C719 C736 1.574 . S
C719 C738 1.368 . S
C719 H743 0.949 . S
H720 C724 0.949 . S
C721 C722 1.349 . S
C721 C723 1.327 . S
C721 H744 0.950 . S
C722 C721 1.349 . S
C722 C734 1.349 . S
C723 C721 1.327 . S
C723 C739 1.429 . S
C723 H745 0.950 . S
C724 H720 0.949 . S
C724 C732 1.574 . S
C724 C740 1.368 . S
H725 C733 0.950 . S
H726 C731 0.950 . S
H727 C732 0.949 . S
H728 C734 0.950 . S
H729 C735 0.950 . S
H730 C736 0.949 . S
C731 H726 0.950 . S
C731 C733 1.327 . S
C731 C737 1.429 . S
C732 C724 1.574 . S
C732 H727 0.949 . S
C732 C738 1.368 . S
C733 C717 1.349 . S
C733 H725 0.950 . S
C733 C731 1.327 . S
C734 C722 1.349 . S
C734 H728 0.950 . S
C734 C735 1.327 . S
C735 H729 0.950 . S
C735 C734 1.327 . S
C735 C739 1.429 . S
C736 C719 1.574 . S
C736 H730 0.949 . S
C736 C740 1.368 . S
C737 C718 1.429 . S
C737 C731 1.429 . S
C737 C738 1.523 . S
C738 C719 1.368 . S
C738 C732 1.368 . S
C738 C737 1.523 . S
C739 C723 1.429 . S
C739 C735 1.429 . S
C739 C740 1.523 . S
C740 C724 1.368 . S
C740 C736 1.368 . S
C740 C739 1.523 . S
H741 C716 0.950 . S
H742 C718 0.950 . S
H743 C719 0.949 . S
H744 C721 0.950 . S
H745 C723 0.950 . S
C746 C747 1.349 . S
C746 C748 1.327 . S
C746 H771 0.950 . S
C747 C746 1.349 . S
C747 C763 1.349 . S
C748 C746 1.327 . S
C748 C767 1.429 . S
C748 H772 0.950 . S
C749 C766 1.574 . S
C749 C768 1.368 . S
C749 H773 0.949 . S
H750 C754 0.949 . S
C751 C752 1.349 . S
C751 C753 1.327 . S
C751 H774 0.950 . S
C752 C751 1.349 . S
C752 C764 1.349 . S
C753 C751 1.327 . S
C753 C769 1.429 . S
C753 H775 0.950 . S
C754 H750 0.949 . S
C754 C762 1.574 . S
C754 C770 1.368 . S
H755 C763 0.950 . S
H756 C761 0.950 . S
H757 C762 0.949 . S
H758 C764 0.950 . S
H759 C765 0.950 . S
H760 C766 0.949 . S
C761 H756 0.950 . S
C761 C763 1.327 . S
C761 C767 1.429 . S
C762 C754 1.574 . S
C762 H757 0.949 . S
C762 C768 1.368 . S
C763 C747 1.349 . S
C763 H755 0.950 . S
C763 C761 1.327 . S
C764 C752 1.349 . S
C764 H758 0.950 . S
C764 C765 1.327 . S
C765 H759 0.950 . S
C765 C764 1.327 . S
C765 C769 1.429 . S
C766 C749 1.574 . S
C766 H760 0.949 . S
C766 C770 1.368 . S
C767 C748 1.429 . S
C767 C761 1.429 . S
C767 C768 1.523 . S
C768 C749 1.368 . S
C768 C762 1.368 . S
C768 C767 1.523 . S
C769 C753 1.429 . S
C769 C765 1.429 . S
C769 C770 1.523 . S
C770 C754 1.368 . S
C770 C766 1.368 . S
C770 C769 1.523 . S
H771 C746 0.950 . S
H772 C748 0.950 . S
H773 C749 0.949 . S
H774 C751 0.950 . S
H775 C753 0.950 . S
C776 C777 1.349 1_655 S
C776 C778 1.327 . S
C776 H801 0.950 . S
C777 C776 1.349 1_455 S
C777 C793 1.349 . S
C778 C776 1.327 . S
C778 C797 1.429 1_655 S
C778 H802 0.950 . S
C779 C796 1.574 . S
C779 C798 1.368 . S
C779 H803 0.949 . S
H780 C784 0.949 . S
C781 C782 1.349 . S
C781 C783 1.327 . S
C781 H804 0.950 . S
C782 C781 1.349 . S
C782 C794 1.349 1_455 S
C783 C781 1.327 . S
C783 C799 1.429 . S
C783 H805 0.950 . S
C784 H780 0.949 . S
C784 C792 1.574 . S
C784 C800 1.368 1_655 S
H785 C793 0.950 . S
H786 C791 0.950 . S
H787 C792 0.949 . S
H788 C794 0.950 . S
H789 C795 0.950 . S
H790 C796 0.949 . S
C791 H786 0.950 . S
C791 C793 1.327 . S
C791 C797 1.429 . S
C792 C784 1.574 . S
C792 H787 0.949 . S
C792 C798 1.368 1_655 S
C793 C777 1.349 . S
C793 H785 0.950 . S
C793 C791 1.327 . S
C794 C782 1.349 1_655 S
C794 H788 0.950 . S
C794 C795 1.327 . S
C795 H789 0.950 . S
C795 C794 1.327 . S
C795 C799 1.429 1_655 S
C796 C779 1.574 . S
C796 H790 0.949 . S
C796 C800 1.368 . S
C797 C778 1.429 1_455 S
C797 C791 1.429 . S
C797 C798 1.523 . S
C798 C779 1.368 . S
C798 C792 1.368 1_455 S
C798 C797 1.523 . S
C799 C783 1.429 . S
C799 C795 1.429 1_455 S
C799 C800 1.523 . S
C800 C784 1.368 1_455 S
C800 C796 1.368 . S
C800 C799 1.523 . S
H801 C776 0.950 . S
H802 C778 0.950 . S
H803 C779 0.949 . S
H804 C781 0.950 . S
H805 C783 0.950 . S
C806 C807 1.349 . S
C806 C808 1.327 . S
C806 H831 0.950 . S
C807 C806 1.349 . S
C807 C823 1.349 . S
C808 C806 1.327 . S
C808 C827 1.429 . S
C808 H832 0.950 . S
C809 C826 1.574 . S
C809 C828 1.368 . S
C809 H833 0.949 . S
H810 C814 0.949 . S
C811 C812 1.349 . S
C811 C813 1.327 . S
C811 H834 0.950 . S
C812 C811 1.349 . S
C812 C824 1.349 . S
C813 C811 1.327 . S
C813 C829 1.429 . S
C813 H835 0.950 . S
C814 H810 0.949 . S
C814 C822 1.574 . S
C814 C830 1.368 . S
H815 C823 0.950 . S
H816 C821 0.950 . S
H817 C822 0.949 . S
H818 C824 0.950 . S
H819 C825 0.950 . S
H820 C826 0.949 . S
C821 H816 0.950 . S
C821 C823 1.327 . S
C821 C827 1.429 . S
C822 C814 1.574 . S
C822 H817 0.949 . S
C822 C828 1.368 . S
C823 C807 1.349 . S
C823 H815 0.950 . S
C823 C821 1.327 . S
C824 C812 1.349 . S
C824 H818 0.950 . S
C824 C825 1.327 . S
C825 H819 0.950 . S
C825 C824 1.327 . S
C825 C829 1.429 . S
C826 C809 1.574 . S
C826 H820 0.949 . S
C826 C830 1.368 . S
C827 C808 1.429 . S
C827 C821 1.429 . S
C827 C828 1.523 . S
C828 C809 1.368 . S
C828 C822 1.368 . S
C828 C827 1.523 . S
C829 C813 1.429 . S
C829 C825 1.429 . S
C829 C830 1.523 . S
C830 C814 1.368 . S
C830 C826 1.368 . S
C830 C829 1.523 . S
H831 C806 0.950 . S
H832 C808 0.950 . S
H833 C809 0.949 . S
H834 C811 0.950 . S
H835 C813 0.950 . S
C836 C837 1.349 . S
C836 C838 1.327 . S
C836 H861 0.950 . S
C837 C836 1.349 . S
C837 C853 1.349 . S
C838 C836 1.327 . S
C838 C857 1.429 . S
C838 H862 0.950 . S
C839 C856 1.574 . S
C839 C858 1.368 . S
C839 H863 0.949 . S
H840 C844 0.949 . S
C841 C842 1.349 . S
C841 C843 1.327 . S
C841 H864 0.950 . S
C842 C841 1.349 . S
C842 C854 1.349 . S
C843 C841 1.327 . S
C843 C859 1.429 . S
C843 H865 0.950 . S
C844 H840 0.949 . S
C844 C852 1.574 . S
C844 C860 1.368 . S
H845 C853 0.950 . S
H846 C851 0.950 . S
H847 C852 0.949 . S
H848 C854 0.950 . S
H849 C855 0.950 . S
H850 C856 0.949 . S
C851 H846 0.950 . S
C851 C853 1.327 . S
C851 C857 1.429 . S
C852 C844 1.574 . S
C852 H847 0.949 . S
C852 C858 1.368 . S
C853 C837 1.349 . S
C853 H845 0.950 . S
C853 C851 1.327 . S
C854 C842 1.349 . S
C854 H848 0.950 . S
C854 C855 1.327 . S
C855 H849 0.950 . S
C855 C854 1.327 . S
C855 C859 1.429 . S
C856 C839 1.574 . S
C856 H850 0.949 . S
C856 C860 1.368 . S
C857 C838 1.429 . S
C857 C851 1.429 . S
C857 C858 1.523 . S
C858 C839 1.368 . S
C858 C852 1.368 . S
C858 C857 1.523 . S
C859 C843 1.429 . S
C859 C855 1.429 . S
C859 C860 1.523 . S
C860 C844 1.368 . S
C860 C856 1.368 . S
C860 C859 1.523 . S
H861 C836 0.950 . S
H862 C838 0.950 . S
H863 C839 0.949 . S
H864 C841 0.950 . S
H865 C843 0.950 . S
C866 C867 1.349 . S
C866 C868 1.327 . S
C866 H891 0.950 . S
C867 C866 1.349 . S
C867 C883 1.349 . S
C868 C866 1.327 . S
C868 C887 1.429 . S
C868 H892 0.950 . S
C869 C886 1.574 . S
C869 C888 1.368 . S
C869 H893 0.949 . S
H870 C874 0.949 . S
C871 C872 1.349 . S
C871 C873 1.327 . S
C871 H894 0.950 . S
C872 C871 1.349 . S
C872 C884 1.349 . S
C873 C871 1.327 . S
C873 C889 1.429 . S
C873 H895 0.950 . S
C874 H870 0.949 . S
C874 C882 1.574 . S
C874 C890 1.368 . S
H875 C883 0.950 . S
H876 C881 0.950 . S
H877 C882 0.949 . S
H878 C884 0.950 . S
H879 C885 0.950 . S
H880 C886 0.949 . S
C881 H876 0.950 . S
C881 C883 1.327 . S
C881 C887 1.429 . S
C882 C874 1.574 . S
C882 H877 0.949 . S
C882 C888 1.368 . S
C883 C867 1.349 . S
C883 H875 0.950 . S
C883 C881 1.327 . S
C884 C872 1.349 . S
C884 H878 0.950 . S
C884 C885 1.327 . S
C885 H879 0.950 . S
C885 C884 1.327 . S
C885 C889 1.429 . S
C886 C869 1.574 . S
C886 H880 0.949 . S
C886 C890 1.368 . S
C887 C868 1.429 . S
C887 C881 1.429 . S
C887 C888 1.523 . S
C888 C869 1.368 . S
C888 C882 1.368 . S
C888 C887 1.523 . S
C889 C873 1.429 . S
C889 C885 1.429 . S
C889 C890 1.523 . S
C890 C874 1.368 . S
C890 C886 1.368 . S
C890 C889 1.523 . S
H891 C866 0.950 . S
H892 C868 0.950 . S
H893 C869 0.949 . S
H894 C871 0.950 . S
H895 C873 0.950 . S
C896 C897 1.349 . S
C896 C898 1.327 . S
C896 H921 0.950 . S
C897 C896 1.349 . S
C897 C913 1.349 . S
C898 C896 1.327 . S
C898 C917 1.429 . S
C898 H922 0.950 . S
C899 C916 1.574 . S
C899 C918 1.368 . S
C899 H923 0.949 . S
H900 C904 0.949 . S
C901 C902 1.349 . S
C901 C903 1.327 . S
C901 H924 0.950 . S
C902 C901 1.349 . S
C902 C914 1.349 . S
C903 C901 1.327 . S
C903 C919 1.429 . S
C903 H925 0.950 . S
C904 H900 0.949 . S
C904 C912 1.574 . S
C904 C920 1.368 . S
H905 C913 0.950 . S
H906 C911 0.950 . S
H907 C912 0.949 . S
H908 C914 0.916 1_455 S
H909 C915 0.950 . S
H910 C916 0.949 . S
C911 H906 0.950 . S
C911 C913 1.327 . S
C911 C917 1.429 . S
C912 C904 1.574 . S
C912 H907 0.949 . S
C912 C918 1.368 . S
C913 C897 1.349 . S
C913 H905 0.950 . S
C913 C911 1.327 . S
C914 C902 1.349 . S
C914 H908 0.916 1_655 S
C914 C915 1.327 . S
C915 H909 0.950 . S
C915 C914 1.327 . S
C915 C919 1.429 . S
C916 C899 1.574 . S
C916 H910 0.949 . S
C916 C920 1.368 . S
C917 C898 1.429 . S
C917 C911 1.429 . S
C917 C918 1.523 . S
C918 C899 1.368 . S
C918 C912 1.368 . S
C918 C917 1.523 . S
C919 C903 1.429 . S
C919 C915 1.429 . S
C919 C920 1.523 . S
C920 C904 1.368 . S
C920 C916 1.368 . S
C920 C919 1.523 . S
H921 C896 0.950 . S
H922 C898 0.950 . S
H923 C899 0.949 . S
H924 C901 0.950 . S
H925 C903 0.950 . S
C926 C927 1.349 . S
C926 C928 1.327 . S
C926 H951 0.950 . S
C927 C926 1.349 . S
C927 C943 1.349 . S
C928 C926 1.327 . S
C928 C947 1.429 . S
C928 H952 0.950 . S
C929 C946 1.574 . S
C929 C948 1.368 . S
C929 H953 0.949 . S
H930 C934 0.949 . S
C931 C932 1.349 . S
C931 C933 1.327 . S
C931 H954 0.950 . S
C932 C931 1.349 . S
C932 C944 1.349 . S
C933 C931 1.327 . S
C933 C949 1.429 . S
C933 H955 0.950 . S
C934 H930 0.949 . S
C934 C942 1.574 . S
C934 C950 1.368 . S
H935 C943 0.950 . S
H936 C941 0.950 . S
H937 C942 0.949 . S
H938 C944 0.950 . S
H939 C945 0.950 . S
H940 C946 0.949 . S
C941 H936 0.950 . S
C941 C943 1.327 . S
C941 C947 1.429 . S
C942 C934 1.574 . S
C942 H937 0.949 . S
C942 C948 1.368 . S
C943 C927 1.349 . S
C943 H935 0.950 . S
C943 C941 1.327 . S
C944 C932 1.349 . S
C944 H938 0.950 . S
C944 C945 1.327 . S
C945 H939 0.950 . S
C945 C944 1.327 . S
C945 C949 1.429 . S
C946 C929 1.574 . S
C946 H940 0.949 . S
C946 C950 1.368 . S
C947 C928 1.429 . S
C947 C941 1.429 . S
C947 C948 1.523 . S
C948 C929 1.368 . S
C948 C942 1.368 . S
C948 C947 1.523 . S
C949 C933 1.429 . S
C949 C945 1.429 . S
C949 C950 1.523 . S
C950 C934 1.368 . S
C950 C946 1.368 . S
C950 C949 1.523 . S
H951 C926 0.950 . S
H952 C928 0.950 . S
H953 C929 0.949 . S
H954 C931 0.950 . S
H955 C933 0.950 . S
C956 C957 1.350 . S
C956 C958 1.328 . S
C956 H981 0.948 1_545 S
C957 C956 1.350 . S
C957 C973 1.349 . S
C958 C956 1.328 . S
C958 C977 1.429 . S
C958 H982 0.950 1_545 S
C959 C976 1.574 . S
C959 C978 1.368 . S
C959 H983 0.949 . S
H960 C964 0.949 1_565 S
C961 C962 1.349 . S
C961 C963 1.327 . S
C961 H984 0.950 . S
C962 C961 1.349 . S
C962 C974 1.349 . S
C963 C961 1.327 . S
C963 C979 1.429 . S
C963 H985 0.950 . S
C964 H960 0.949 1_545 S
C964 C972 1.574 . S
C964 C980 1.368 . S
H965 C973 0.950 . S
H966 C971 0.950 . S
H967 C972 0.949 1_565 S
H968 C974 0.974 . S
H969 C975 0.950 1_565 S
H970 C976 0.949 . S
C971 H966 0.950 . S
C971 C973 1.327 . S
C971 C977 1.429 . S
C972 C964 1.574 . S
C972 H967 0.949 1_545 S
C972 C978 1.368 . S
C973 C957 1.349 . S
C973 H965 0.950 . S
C973 C971 1.327 . S
C974 C962 1.349 . S
C974 H968 0.974 . S
C974 C975 1.327 . S
C975 H969 0.950 1_545 S
C975 C974 1.327 . S
C975 C979 1.429 . S
C976 C959 1.574 . S
C976 H970 0.949 . S
C976 C980 1.368 . S
C977 C958 1.429 . S
C977 C971 1.429 . S
C977 C978 1.523 . S
C978 C959 1.368 . S
C978 C972 1.368 . S
C978 C977 1.523 . S
C979 C963 1.429 . S
C979 C975 1.429 . S
C979 C980 1.523 . S
C980 C964 1.368 . S
C980 C976 1.368 . S
C980 C979 1.523 . S
H981 C956 0.948 1_565 S
H982 C958 0.950 1_565 S
H983 C959 0.949 . S
H984 C961 0.950 . S
H985 C963 0.950 . S
C986 C987 1.349 . S
C986 C988 1.327 . S
C986 H1011 0.950 . S
C987 C986 1.349 . S
C987 C1003 1.349 . S
C988 C986 1.327 . S
C988 C1007 1.429 . S
C988 H1012 0.950 . S
C989 C1006 1.574 . S
C989 C1008 1.368 . S
C989 H1013 0.949 . S
H990 C994 0.949 . S
C991 C992 1.349 . S
C991 C993 1.327 . S
C991 H1014 0.950 . S
C992 C991 1.349 . S
C992 C1004 1.349 . S
C993 C991 1.327 . S
C993 C1009 1.429 . S
C993 H1015 0.950 . S
C994 H990 0.949 . S
C994 C1002 1.574 . S
C994 C1010 1.368 . S
H995 C1003 0.950 . S
H996 C1001 0.950 . S
H997 C1002 0.949 . S
H998 C1004 0.950 . S
H999 C1005 0.950 . S
H1000 C1006 0.949 . S
C1001 H996 0.950 . S
C1001 C1003 1.327 . S
C1001 C1007 1.429 . S
C1002 C994 1.574 . S
C1002 H997 0.949 . S
C1002 C1008 1.368 . S
C1003 C987 1.349 . S
C1003 H995 0.950 . S
C1003 C1001 1.327 . S
C1004 C992 1.349 . S
C1004 H998 0.950 . S
C1004 C1005 1.327 . S
C1005 H999 0.950 . S
C1005 C1004 1.327 . S
C1005 C1009 1.429 . S
C1006 C989 1.574 . S
C1006 H1000 0.949 . S
C1006 C1010 1.368 . S
C1007 C988 1.429 . S
C1007 C1001 1.429 . S
C1007 C1008 1.523 . S
C1008 C989 1.368 . S
C1008 C1002 1.368 . S
C1008 C1007 1.523 . S
C1009 C993 1.429 . S
C1009 C1005 1.429 . S
C1009 C1010 1.523 . S
C1010 C994 1.368 . S
C1010 C1006 1.368 . S
C1010 C1009 1.523 . S
H1011 C986 0.950 . S
H1012 C988 0.950 . S
H1013 C989 0.949 . S
H1014 C991 0.950 . S
H1015 C993 0.950 . S
C1016 C1017 1.349 . S
C1016 C1018 1.327 . S
C1016 H1041 0.950 . S
C1017 C1016 1.349 . S
C1017 C1033 1.349 . S
C1018 C1016 1.327 . S
C1018 C1037 1.429 . S
C1018 H1042 0.950 . S
C1019 C1036 1.574 . S
C1019 C1038 1.368 . S
C1019 H1043 0.949 . S
H1020 C1024 0.949 . S
C1021 C1022 1.349 . S
C1021 C1023 1.327 . S
C1021 H1044 0.950 1_655 S
C1022 C1021 1.349 . S
C1022 C1034 1.349 . S
C1023 C1021 1.327 . S
C1023 C1039 1.429 . S
C1023 H1045 0.950 . S
C1024 H1020 0.949 . S
C1024 C1032 1.574 . S
C1024 C1040 1.368 . S
H1025 C1033 0.950 . S
H1026 C1031 0.950 . S
H1027 C1032 0.949 . S
H1028 C1034 0.950 . S
H1029 C1035 0.950 . S
H1030 C1036 0.949 . S
C1031 H1026 0.950 . S
C1031 C1033 1.327 . S
C1031 C1037 1.429 . S
C1032 C1024 1.574 . S
C1032 H1027 0.949 . S
C1032 C1038 1.368 . S
C1033 C1017 1.349 . S
C1033 H1025 0.950 . S
C1033 C1031 1.327 . S
C1034 C1022 1.349 . S
C1034 H1028 0.950 . S
C1034 C1035 1.327 . S
C1035 H1029 0.950 . S
C1035 C1034 1.327 . S
C1035 C1039 1.429 . S
C1036 C1019 1.574 . S
C1036 H1030 0.949 . S
C1036 C1040 1.368 . S
C1037 C1018 1.429 . S
C1037 C1031 1.429 . S
C1037 C1038 1.523 . S
C1038 C1019 1.368 . S
C1038 C1032 1.368 . S
C1038 C1037 1.523 . S
C1039 C1023 1.429 . S
C1039 C1035 1.429 . S
C1039 C1040 1.523 . S
C1040 C1024 1.368 . S
C1040 C1036 1.368 . S
C1040 C1039 1.523 . S
H1041 C1016 0.950 . S
H1042 C1018 0.950 . S
H1043 C1019 0.949 . S
H1044 C1021 0.950 1_455 S
H1045 C1023 0.950 . S
C1046 C1047 1.349 . S
C1046 C1048 1.327 . S
C1046 H1071 0.950 . S
C1047 C1046 1.349 . S
C1047 C1063 1.349 . S
C1048 C1046 1.327 . S
C1048 C1067 1.429 . S
C1048 H1072 0.950 . S
C1049 C1066 1.574 . S
C1049 C1068 1.368 . S
C1049 H1073 0.949 . S
H1050 C1054 0.949 . S
C1051 C1052 1.349 . S
C1051 C1053 1.327 . S
C1051 H1074 0.950 . S
C1052 C1051 1.349 . S
C1052 C1064 1.349 . S
C1053 C1051 1.327 . S
C1053 C1069 1.429 . S
C1053 H1075 0.950 . S
C1054 H1050 0.949 . S
C1054 C1062 1.574 . S
C1054 C1070 1.368 . S
H1055 C1063 0.950 . S
H1056 C1061 0.950 . S
H1057 C1062 0.949 . S
H1058 C1064 0.950 . S
H1059 C1065 0.950 . S
H1060 C1066 0.949 . S
C1061 H1056 0.950 . S
C1061 C1063 1.327 . S
C1061 C1067 1.429 . S
C1062 C1054 1.574 . S
C1062 H1057 0.949 . S
C1062 C1068 1.368 . S
C1063 C1047 1.349 . S
C1063 H1055 0.950 . S
C1063 C1061 1.327 . S
C1064 C1052 1.349 . S
C1064 H1058 0.950 . S
C1064 C1065 1.327 . S
C1065 H1059 0.950 . S
C1065 C1064 1.327 . S
C1065 C1069 1.429 . S
C1066 C1049 1.574 . S
C1066 H1060 0.949 . S
C1066 C1070 1.368 . S
C1067 C1048 1.429 . S
C1067 C1061 1.429 . S
C1067 C1068 1.523 . S
C1068 C1049 1.368 . S
C1068 C1062 1.368 . S
C1068 C1067 1.523 . S
C1069 C1053 1.429 . S
C1069 C1065 1.429 . S
C1069 C1070 1.523 . S
C1070 C1054 1.368 . S
C1070 C1066 1.368 . S
C1070 C1069 1.523 . S
H1071 C1046 0.950 . S
H1072 C1048 0.950 . S
H1073 C1049 0.949 . S
H1074 C1051 0.950 . S
H1075 C1053 0.950 . S
C1076 C1077 1.349 . S
C1076 C1078 1.327 . S
C1076 H1101 0.950 . S
C1077 C1076 1.349 . S
C1077 C1093 1.349 . S
C1078 C1076 1.327 . S
C1078 C1097 1.429 . S
C1078 H1102 0.950 . S
C1079 C1096 1.574 . S
C1079 C1098 1.368 . S
C1079 H1103 0.949 . S
H1080 C1084 0.949 . S
C1081 C1082 1.349 . S
C1081 C1083 1.327 . S
C1081 H1104 0.950 . S
C1082 C1081 1.349 . S
C1082 C1094 1.349 . S
C1083 C1081 1.327 . S
C1083 C1099 1.429 . S
C1083 H1105 0.950 . S
C1084 H1080 0.949 . S
C1084 C1092 1.574 . S
C1084 C1100 1.368 . S
H1085 C1093 0.946 1_565 S
H1086 C1091 0.950 . S
H1087 C1092 0.949 . S
H1088 C1094 0.950 . S
H1089 C1095 0.950 . S
H1090 C1096 0.949 . S
C1091 H1086 0.950 . S
C1091 C1093 1.327 . S
C1091 C1097 1.429 . S
C1092 C1084 1.574 . S
C1092 H1087 0.949 . S
C1092 C1098 1.368 . S
C1093 C1077 1.349 . S
C1093 H1085 0.946 1_545 S
C1093 C1091 1.327 . S
C1094 C1082 1.349 . S
C1094 H1088 0.950 . S
C1094 C1095 1.327 . S
C1095 H1089 0.950 . S
C1095 C1094 1.327 . S
C1095 C1099 1.429 . S
C1096 C1079 1.574 . S
C1096 H1090 0.949 . S
C1096 C1100 1.368 . S
C1097 C1078 1.429 . S
C1097 C1091 1.429 . S
C1097 C1098 1.523 . S
C1098 C1079 1.368 . S
C1098 C1092 1.368 . S
C1098 C1097 1.523 . S
C1099 C1083 1.429 . S
C1099 C1095 1.429 . S
C1099 C1100 1.523 . S
C1100 C1084 1.368 . S
C1100 C1096 1.368 . S
C1100 C1099 1.523 . S
H1101 C1076 0.950 . S
H1102 C1078 0.950 . S
H1103 C1079 0.949 . S
H1104 C1081 0.950 . S
H1105 C1083 0.950 . S
C1106 C1107 1.349 . S
C1106 C1108 1.327 . S
C1106 H1131 0.950 . S
C1107 C1106 1.349 . S
C1107 C1123 1.349 . S
C1108 C1106 1.327 . S
C1108 C1127 1.429 . S
C1108 H1132 0.950 . S
C1109 C1126 1.574 . S
C1109 C1128 1.368 . S
C1109 H1133 0.949 . S
H1110 C1114 0.949 . S
C1111 C1112 1.349 . S
C1111 C1113 1.327 . S
C1111 H1134 0.950 . S
C1112 C1111 1.349 . S
C1112 C1124 1.349 . S
C1113 C1111 1.327 . S
C1113 C1129 1.429 . S
C1113 H1135 0.950 . S
C1114 H1110 0.949 . S
C1114 C1122 1.574 . S
C1114 C1130 1.368 . S
H1115 C1123 0.950 . S
H1116 C1121 0.950 . S
H1117 C1122 0.949 . S
H1118 C1124 0.950 . S
H1119 C1125 0.950 . S
H1120 C1126 0.949 . S
C1121 H1116 0.950 . S
C1121 C1123 1.327 . S
C1121 C1127 1.429 . S
C1122 C1114 1.574 . S
C1122 H1117 0.949 . S
C1122 C1128 1.368 . S
C1123 C1107 1.349 . S
C1123 H1115 0.950 . S
C1123 C1121 1.327 . S
C1124 C1112 1.349 . S
C1124 H1118 0.950 . S
C1124 C1125 1.327 . S
C1125 H1119 0.950 . S
C1125 C1124 1.327 . S
C1125 C1129 1.429 . S
C1126 C1109 1.574 . S
C1126 H1120 0.949 . S
C1126 C1130 1.368 . S
C1127 C1108 1.429 . S
C1127 C1121 1.429 . S
C1127 C1128 1.523 . S
C1128 C1109 1.368 . S
C1128 C1122 1.368 . S
C1128 C1127 1.523 . S
C1129 C1113 1.429 . S
C1129 C1125 1.429 . S
C1129 C1130 1.523 . S
C1130 C1114 1.368 . S
C1130 C1126 1.368 . S
C1130 C1129 1.523 . S
H1131 C1106 0.950 . S
H1132 C1108 0.950 . S
H1133 C1109 0.949 . S
H1134 C1111 0.950 . S
H1135 C1113 0.950 . S
C1136 C1137 1.349 . S
C1136 C1138 1.327 . S
C1136 H1161 0.950 . S
C1137 C1136 1.349 . S
C1137 C1153 1.349 . S
C1138 C1136 1.327 . S
C1138 C1157 1.429 . S
C1138 H1162 0.950 . S
C1139 C1156 1.574 . S
C1139 C1158 1.368 . S
C1139 H1163 0.949 . S
H1140 C1144 0.980 . S
C1141 C1142 1.349 . S
C1141 C1143 1.327 . S
C1141 H1164 0.950 . S
C1142 C1141 1.349 . S
C1142 C1154 1.349 1_545 S
C1143 C1141 1.327 . S
C1143 C1159 1.429 1_545 S
C1143 H1165 0.950 . S
C1144 H1140 0.980 . S
C1144 C1152 1.574 . S
C1144 C1160 1.368 . S
H1145 C1153 0.950 . S
H1146 C1151 0.950 . S
H1147 C1152 0.949 . S
H1148 C1154 0.947 1_556 S
H1149 C1155 0.955 . S
H1150 C1156 0.949 1_545 S
C1151 H1146 0.950 . S
C1151 C1153 1.327 . S
C1151 C1157 1.429 . S
C1152 C1144 1.574 . S
C1152 H1147 0.949 . S
C1152 C1158 1.368 . S
C1153 C1137 1.349 . S
C1153 H1145 0.950 . S
C1153 C1151 1.327 . S
C1154 C1142 1.349 1_565 S
C1154 H1148 0.947 1_554 S
C1154 C1155 1.327 . S
C1155 H1149 0.955 . S
C1155 C1154 1.327 . S
C1155 C1159 1.429 . S
C1156 C1139 1.574 . S
C1156 H1150 0.949 1_565 S
C1156 C1160 1.368 . S
C1157 C1138 1.429 . S
C1157 C1151 1.429 . S
C1157 C1158 1.523 . S
C1158 C1139 1.368 . S
C1158 C1152 1.368 . S
C1158 C1157 1.523 . S
C1159 C1143 1.429 1_565 S
C1159 C1155 1.429 . S
C1159 C1160 1.523 . S
C1160 C1144 1.368 . S
C1160 C1156 1.368 . S
C1160 C1159 1.523 . S
H1161 C1136 0.950 . S
H1162 C1138 0.950 . S
H1163 C1139 0.949 . S
H1164 C1141 0.950 . S
H1165 C1143 0.950 . S
C1166 C1167 1.349 . S
C1166 C1168 1.327 . S
C1166 H1191 0.950 . S
C1167 C1166 1.349 . S
C1167 C1183 1.349 1_554 S
C1168 C1166 1.327 . S
C1168 C1187 1.429 . S
C1168 H1192 0.950 . S
C1169 C1186 1.574 . S
C1169 C1188 1.368 1_556 S
C1169 H1193 0.949 . S
H1170 C1174 0.949 . S
C1171 C1172 1.349 1_556 S
C1171 C1173 1.327 . S
C1171 H1194 0.950 . S
C1172 C1171 1.349 1_554 S
C1172 C1184 1.349 . S
C1173 C1171 1.327 . S
C1173 C1189 1.429 1_556 S
C1173 H1195 0.950 . S
C1174 H1170 0.949 . S
C1174 C1182 1.574 . S
C1174 C1190 1.368 . S
H1175 C1183 0.950 . S
H1176 C1181 0.950 . S
H1177 C1182 0.949 . S
H1178 C1184 0.950 . S
H1179 C1185 0.950 . S
H1180 C1186 0.949 . S
C1181 H1176 0.950 . S
C1181 C1183 1.327 . S
C1181 C1187 1.429 1_556 S
C1182 C1174 1.574 . S
C1182 H1177 0.949 . S
C1182 C1188 1.368 . S
C1183 C1167 1.349 1_556 S
C1183 H1175 0.950 . S
C1183 C1181 1.327 . S
C1184 C1172 1.349 . S
C1184 H1178 0.950 . S
C1184 C1185 1.327 . S
C1185 H1179 0.950 . S
C1185 C1184 1.327 . S
C1185 C1189 1.429 . S
C1186 C1169 1.574 . S
C1186 H1180 0.949 . S
C1186 C1190 1.368 1_556 S
C1187 C1168 1.429 . S
C1187 C1181 1.429 1_554 S
C1187 C1188 1.523 . S
C1188 C1169 1.368 1_554 S
C1188 C1182 1.368 . S
C1188 C1187 1.523 . S
C1189 C1173 1.429 1_554 S
C1189 C1185 1.429 . S
C1189 C1190 1.523 . S
C1190 C1174 1.368 . S
C1190 C1186 1.368 1_554 S
C1190 C1189 1.523 . S
H1191 C1166 0.950 . S
H1192 C1168 0.950 . S
H1193 C1169 0.949 . S
H1194 C1171 0.950 . S
H1195 C1173 0.950 . S
C1196 C1197 1.349 . S
C1196 C1198 1.327 . S
C1196 H1221 0.950 . S
C1197 C1196 1.349 . S
C1197 C1213 1.349 . S
C1198 C1196 1.327 . S
C1198 C1217 1.429 . S
C1198 H1222 0.950 . S
C1199 C1216 1.574 . S
C1199 C1218 1.368 . S
C1199 H1223 0.949 . S
H1200 C1204 0.949 . S
C1201 C1202 1.349 . S
C1201 C1203 1.327 . S
C1201 H1224 0.950 . S
C1202 C1201 1.349 . S
C1202 C1214 1.349 . S
C1203 C1201 1.327 . S
C1203 C1219 1.429 . S
C1203 H1225 0.950 . S
C1204 H1200 0.949 . S
C1204 C1212 1.574 . S
C1204 C1220 1.368 . S
H1205 C1213 0.950 . S
H1206 C1211 0.950 . S
H1207 C1212 0.949 . S
H1208 C1214 0.950 . S
H1209 C1215 0.950 . S
H1210 C1216 0.949 . S
C1211 H1206 0.950 . S
C1211 C1213 1.327 . S
C1211 C1217 1.429 . S
C1212 C1204 1.574 . S
C1212 H1207 0.949 . S
C1212 C1218 1.368 . S
C1213 C1197 1.349 . S
C1213 H1205 0.950 . S
C1213 C1211 1.327 . S
C1214 C1202 1.349 . S
C1214 H1208 0.950 . S
C1214 C1215 1.327 . S
C1215 H1209 0.950 . S
C1215 C1214 1.327 . S
C1215 C1219 1.429 . S
C1216 C1199 1.574 . S
C1216 H1210 0.949 . S
C1216 C1220 1.368 . S
C1217 C1198 1.429 . S
C1217 C1211 1.429 . S
C1217 C1218 1.523 . S
C1218 C1199 1.368 . S
C1218 C1212 1.368 . S
C1218 C1217 1.523 . S
C1219 C1203 1.429 . S
C1219 C1215 1.429 . S
C1219 C1220 1.523 . S
C1220 C1204 1.368 . S
C1220 C1216 1.368 . S
C1220 C1219 1.523 . S
H1221 C1196 0.950 . S
H1222 C1198 0.950 . S
H1223 C1199 0.949 . S
H1224 C1201 0.950 . S
H1225 C1203 0.950 . S
C1226 C1227 1.349 . S
C1226 C1228 1.327 . S
C1226 H1251 0.950 . S
C1227 C1226 1.349 . S
C1227 C1243 1.349 . S
C1228 C1226 1.327 . S
C1228 C1247 1.429 . S
C1228 H1252 0.950 . S
C1229 C1246 1.574 . S
C1229 C1248 1.368 . S
C1229 H1253 0.949 . S
H1230 C1234 0.949 . S
C1231 C1232 1.349 . S
C1231 C1233 1.327 . S
C1231 H1254 0.950 . S
C1232 C1231 1.349 . S
C1232 C1244 1.349 . S
C1233 C1231 1.327 . S
C1233 C1249 1.429 . S
C1233 H1255 0.950 . S
C1234 H1230 0.949 . S
C1234 C1242 1.574 . S
C1234 C1250 1.368 . S
H1235 C1243 0.950 . S
H1236 C1241 0.950 . S
H1237 C1242 0.949 . S
H1238 C1244 0.950 . S
H1239 C1245 0.950 . S
H1240 C1246 0.949 . S
C1241 H1236 0.950 . S
C1241 C1243 1.327 . S
C1241 C1247 1.429 . S
C1242 C1234 1.574 . S
C1242 H1237 0.949 . S
C1242 C1248 1.368 . S
C1243 C1227 1.349 . S
C1243 H1235 0.950 . S
C1243 C1241 1.327 . S
C1244 C1232 1.349 . S
C1244 H1238 0.950 . S
C1244 C1245 1.327 . S
C1245 H1239 0.950 . S
C1245 C1244 1.327 . S
C1245 C1249 1.429 . S
C1246 C1229 1.574 . S
C1246 H1240 0.949 . S
C1246 C1250 1.368 . S
C1247 C1228 1.429 . S
C1247 C1241 1.429 . S
C1247 C1248 1.523 . S
C1248 C1229 1.368 . S
C1248 C1242 1.368 . S
C1248 C1247 1.523 . S
C1249 C1233 1.429 . S
C1249 C1245 1.429 . S
C1249 C1250 1.523 . S
C1250 C1234 1.368 . S
C1250 C1246 1.368 . S
C1250 C1249 1.523 . S
H1251 C1226 0.950 . S
H1252 C1228 0.950 . S
H1253 C1229 0.949 . S
H1254 C1231 0.950 . S
H1255 C1233 0.950 . S
C1256 C1257 1.349 . S
C1256 C1258 1.327 . S
C1256 H1281 0.950 . S
C1257 C1256 1.349 . S
C1257 C1273 1.349 . S
C1258 C1256 1.327 . S
C1258 C1277 1.429 . S
C1258 H1282 0.950 . S
C1259 C1276 1.574 . S
C1259 C1278 1.368 . S
C1259 H1283 0.949 . S
H1260 C1264 0.949 . S
C1261 C1262 1.349 . S
C1261 C1263 1.327 . S
C1261 H1284 0.950 . S
C1262 C1261 1.349 . S
C1262 C1274 1.349 . S
C1263 C1261 1.327 . S
C1263 C1279 1.429 . S
C1263 H1285 0.950 . S
C1264 H1260 0.949 . S
C1264 C1272 1.574 . S
C1264 C1280 1.368 . S
H1265 C1273 0.950 . S
H1266 C1271 0.950 . S
H1267 C1272 0.949 . S
H1268 C1274 0.950 . S
H1269 C1275 0.950 . S
H1270 C1276 0.949 . S
C1271 H1266 0.950 . S
C1271 C1273 1.327 . S
C1271 C1277 1.429 . S
C1272 C1264 1.574 . S
C1272 H1267 0.949 . S
C1272 C1278 1.368 . S
C1273 C1257 1.349 . S
C1273 H1265 0.950 . S
C1273 C1271 1.327 . S
C1274 C1262 1.349 . S
C1274 H1268 0.950 . S
C1274 C1275 1.327 . S
C1275 H1269 0.950 . S
C1275 C1274 1.327 . S
C1275 C1279 1.429 . S
C1276 C1259 1.574 . S
C1276 H1270 0.949 . S
C1276 C1280 1.368 . S
C1277 C1258 1.429 . S
C1277 C1271 1.429 . S
C1277 C1278 1.523 . S
C1278 C1259 1.368 . S
C1278 C1272 1.368 . S
C1278 C1277 1.523 . S
C1279 C1263 1.429 . S
C1279 C1275 1.429 . S
C1279 C1280 1.523 . S
C1280 C1264 1.368 . S
C1280 C1276 1.368 . S
C1280 C1279 1.523 . S
H1281 C1256 0.950 . S
H1282 C1258 0.950 . S
H1283 C1259 0.949 . S
H1284 C1261 0.950 . S
H1285 C1263 0.950 . S
C1286 C1287 1.349 . S
C1286 C1288 1.327 . S
C1286 H1311 0.950 . S
C1287 C1286 1.349 . S
C1287 C1303 1.349 . S
C1288 C1286 1.327 . S
C1288 C1307 1.429 . S
C1288 H1312 0.950 . S
C1289 C1306 1.574 . S
C1289 C1308 1.368 . S
C1289 H1313 0.949 . S
H1290 C1294 0.949 . S
C1291 C1292 1.349 . S
C1291 C1293 1.327 . S
C1291 H1314 0.950 . S
C1292 C1291 1.349 . S
C1292 C1304 1.349 . S
C1293 C1291 1.327 . S
C1293 C1309 1.429 . S
C1293 H1315 0.950 . S
C1294 H1290 0.949 . S
C1294 C1302 1.574 . S
C1294 C1310 1.368 . S
H1295 C1303 0.950 . S
H1296 C1301 0.950 . S
H1297 C1302 0.949 . S
H1298 C1304 0.950 . S
H1299 C1305 0.950 . S
H1300 C1306 0.949 . S
C1301 H1296 0.950 . S
C1301 C1303 1.327 . S
C1301 C1307 1.429 . S
C1302 C1294 1.574 . S
C1302 H1297 0.949 . S
C1302 C1308 1.368 . S
C1303 C1287 1.349 . S
C1303 H1295 0.950 . S
C1303 C1301 1.327 . S
C1304 C1292 1.349 . S
C1304 H1298 0.950 . S
C1304 C1305 1.327 . S
C1305 H1299 0.950 . S
C1305 C1304 1.327 . S
C1305 C1309 1.429 . S
C1306 C1289 1.574 . S
C1306 H1300 0.949 . S
C1306 C1310 1.368 . S
C1307 C1288 1.429 . S
C1307 C1301 1.429 . S
C1307 C1308 1.523 . S
C1308 C1289 1.368 . S
C1308 C1302 1.368 . S
C1308 C1307 1.523 . S
C1309 C1293 1.429 . S
C1309 C1305 1.429 . S
C1309 C1310 1.523 . S
C1310 C1294 1.368 . S
C1310 C1306 1.368 . S
C1310 C1309 1.523 . S
H1311 C1286 0.950 . S
H1312 C1288 0.950 . S
H1313 C1289 0.949 . S
H1314 C1291 0.950 . S
H1315 C1293 0.950 . S
C1316 C1317 1.349 . S
C1316 C1318 1.327 . S
C1316 H1341 0.950 . S
C1317 C1316 1.349 . S
C1317 C1333 1.349 . S
C1318 C1316 1.327 . S
C1318 C1337 1.429 . S
C1318 H1342 0.950 . S
C1319 C1336 1.574 . S
C1319 C1338 1.368 . S
C1319 H1343 0.949 . S
H1320 C1324 0.949 . S
C1321 C1322 1.349 . S
C1321 C1323 1.327 . S
C1321 H1344 0.950 . S
C1322 C1321 1.349 . S
C1322 C1334 1.349 . S
C1323 C1321 1.327 . S
C1323 C1339 1.429 . S
C1323 H1345 0.950 . S
C1324 H1320 0.949 . S
C1324 C1332 1.574 . S
C1324 C1340 1.368 . S
H1325 C1333 0.950 . S
H1326 C1331 0.950 . S
H1327 C1332 0.949 . S
H1328 C1334 0.950 . S
H1329 C1335 0.950 . S
H1330 C1336 0.949 . S
C1331 H1326 0.950 . S
C1331 C1333 1.327 . S
C1331 C1337 1.429 . S
C1332 C1324 1.574 . S
C1332 H1327 0.949 . S
C1332 C1338 1.368 . S
C1333 C1317 1.349 . S
C1333 H1325 0.950 . S
C1333 C1331 1.327 . S
C1334 C1322 1.349 . S
C1334 H1328 0.950 . S
C1334 C1335 1.327 . S
C1335 H1329 0.950 . S
C1335 C1334 1.327 . S
C1335 C1339 1.429 . S
C1336 C1319 1.574 . S
C1336 H1330 0.949 . S
C1336 C1340 1.368 . S
C1337 C1318 1.429 . S
C1337 C1331 1.429 . S
C1337 C1338 1.523 . S
C1338 C1319 1.368 . S
C1338 C1332 1.368 . S
C1338 C1337 1.523 . S
C1339 C1323 1.429 . S
C1339 C1335 1.429 . S
C1339 C1340 1.523 . S
C1340 C1324 1.368 . S
C1340 C1336 1.368 . S
C1340 C1339 1.523 . S
H1341 C1316 0.950 . S
H1342 C1318 0.950 . S
H1343 C1319 0.949 . S
H1344 C1321 0.950 . S
H1345 C1323 0.950 . S
C1346 C1347 1.349 . S
C1346 C1348 1.327 . S
C1346 H1371 0.950 . S
C1347 C1346 1.349 . S
C1347 C1363 1.349 . S
C1348 C1346 1.327 . S
C1348 C1367 1.429 . S
C1348 H1372 0.950 . S
C1349 C1366 1.574 . S
C1349 C1368 1.368 . S
C1349 H1373 0.949 . S
H1350 C1354 0.949 . S
C1351 C1352 1.349 . S
C1351 C1353 1.327 . S
C1351 H1374 0.950 . S
C1352 C1351 1.349 . S
C1352 C1364 1.349 . S
C1353 C1351 1.327 . S
C1353 C1369 1.429 . S
C1353 H1375 0.950 . S
C1354 H1350 0.949 . S
C1354 C1362 1.574 . S
C1354 C1370 1.368 . S
H1355 C1363 0.950 . S
H1356 C1361 0.950 . S
H1357 C1362 0.949 . S
H1358 C1364 0.950 . S
H1359 C1365 0.950 . S
H1360 C1366 0.949 . S
C1361 H1356 0.950 . S
C1361 C1363 1.327 . S
C1361 C1367 1.429 . S
C1362 C1354 1.574 . S
C1362 H1357 0.949 . S
C1362 C1368 1.368 . S
C1363 C1347 1.349 . S
C1363 H1355 0.950 . S
C1363 C1361 1.327 . S
C1364 C1352 1.349 . S
C1364 H1358 0.950 . S
C1364 C1365 1.327 . S
C1365 H1359 0.950 . S
C1365 C1364 1.327 . S
C1365 C1369 1.429 . S
C1366 C1349 1.574 . S
C1366 H1360 0.949 . S
C1366 C1370 1.368 . S
C1367 C1348 1.429 . S
C1367 C1361 1.429 . S
C1367 C1368 1.523 . S
C1368 C1349 1.368 . S
C1368 C1362 1.368 . S
C1368 C1367 1.523 . S
C1369 C1353 1.429 . S
C1369 C1365 1.429 . S
C1369 C1370 1.523 . S
C1370 C1354 1.368 . S
C1370 C1366 1.368 . S
C1370 C1369 1.523 . S
H1371 C1346 0.950 . S
H1372 C1348 0.950 . S
H1373 C1349 0.949 . S
H1374 C1351 0.950 . S
H1375 C1353 0.950 . S
C1376 C1377 1.349 . S
C1376 C1378 1.327 . S
C1376 H1401 0.950 . S
C1377 C1376 1.349 . S
C1377 C1393 1.323 1_455 S
C1378 C1376 1.327 . S
C1378 C1397 1.429 . S
C1378 H1402 0.950 . S
C1379 C1396 1.574 . S
C1379 C1398 1.368 1_655 S
C1379 H1403 0.949 . S
H1380 C1384 0.949 . S
C1381 C1382 1.349 1_655 S
C1381 C1383 1.327 . S
C1381 H1404 0.950 . S
C1382 C1381 1.349 1_455 S
C1382 C1394 1.349 . S
C1383 C1381 1.327 . S
C1383 C1399 1.429 1_655 S
C1383 H1405 0.950 . S
C1384 H1380 0.949 . S
C1384 C1392 1.574 . S
C1384 C1400 1.368 . S
H1385 C1393 0.971 . S
H1386 C1391 0.950 . S
H1387 C1392 0.949 . S
H1388 C1394 0.950 . S
H1389 C1395 0.950 . S
H1390 C1396 0.949 . S
C1391 H1386 0.950 . S
C1391 C1393 1.336 . S
C1391 C1397 1.429 1_655 S
C1392 C1384 1.574 . S
C1392 H1387 0.949 . S
C1392 C1398 1.368 . S
C1393 C1377 1.323 1_655 S
C1393 H1385 0.971 . S
C1393 C1391 1.336 . S
C1394 C1382 1.349 . S
C1394 H1388 0.950 . S
C1394 C1395 1.327 . S
C1395 H1389 0.950 . S
C1395 C1394 1.327 . S
C1395 C1399 1.429 . S
C1396 C1379 1.574 . S
C1396 H1390 0.949 . S
C1396 C1400 1.368 1_655 S
C1397 C1378 1.429 . S
C1397 C1391 1.429 1_455 S
C1397 C1398 1.523 . S
C1398 C1379 1.368 1_455 S
C1398 C1392 1.368 . S
C1398 C1397 1.523 . S
C1399 C1383 1.429 1_455 S
C1399 C1395 1.429 . S
C1399 C1400 1.523 . S
C1400 C1384 1.368 . S
C1400 C1396 1.368 1_455 S
C1400 C1399 1.523 . S
H1401 C1376 0.950 . S
H1402 C1378 0.950 . S
H1403 C1379 0.949 . S
H1404 C1381 0.950 . S
H1405 C1383 0.950 . S
C1406 C1407 1.349 . S
C1406 C1408 1.327 . S
C1406 H1431 0.950 . S
C1407 C1406 1.349 . S
C1407 C1423 1.349 . S
C1408 C1406 1.327 . S
C1408 C1427 1.429 . S
C1408 H1432 0.950 . S
C1409 C1426 1.574 . S
C1409 C1428 1.368 . S
C1409 H1433 0.949 . S
H1410 C1414 0.949 . S
C1411 C1412 1.349 . S
C1411 C1413 1.327 . S
C1411 H1434 0.950 . S
C1412 C1411 1.349 . S
C1412 C1424 1.349 . S
C1413 C1411 1.327 . S
C1413 C1429 1.429 . S
C1413 H1435 0.950 . S
C1414 H1410 0.949 . S
C1414 C1422 1.574 . S
C1414 C1430 1.368 . S
H1415 C1423 0.950 . S
H1416 C1421 0.950 . S
H1417 C1422 0.949 . S
H1418 C1424 0.950 . S
H1419 C1425 0.950 . S
H1420 C1426 0.949 . S
C1421 H1416 0.950 . S
C1421 C1423 1.327 . S
C1421 C1427 1.429 . S
C1422 C1414 1.574 . S
C1422 H1417 0.949 . S
C1422 C1428 1.368 . S
C1423 C1407 1.349 . S
C1423 H1415 0.950 . S
C1423 C1421 1.327 . S
C1424 C1412 1.349 . S
C1424 H1418 0.950 . S
C1424 C1425 1.327 . S
C1425 H1419 0.950 . S
C1425 C1424 1.327 . S
C1425 C1429 1.429 . S
C1426 C1409 1.574 . S
C1426 H1420 0.949 . S
C1426 C1430 1.368 . S
C1427 C1408 1.429 . S
C1427 C1421 1.429 . S
C1427 C1428 1.523 . S
C1428 C1409 1.368 . S
C1428 C1422 1.368 . S
C1428 C1427 1.523 . S
C1429 C1413 1.429 . S
C1429 C1425 1.429 . S
C1429 C1430 1.523 . S
C1430 C1414 1.368 . S
C1430 C1426 1.368 . S
C1430 C1429 1.523 . S
H1431 C1406 0.950 . S
H1432 C1408 0.950 . S
H1433 C1409 0.949 . S
H1434 C1411 0.950 . S
H1435 C1413 0.950 . S
C1436 C1437 1.349 . S
C1436 C1438 1.327 . S
C1436 H1461 0.950 . S
C1437 C1436 1.349 . S
C1437 C1453 1.349 . S
C1438 C1436 1.327 . S
C1438 C1457 1.429 . S
C1438 H1462 0.950 . S
C1439 C1456 1.574 . S
C1439 C1458 1.368 . S
C1439 H1463 0.949 . S
H1440 C1444 0.949 . S
C1441 C1442 1.349 . S
C1441 C1443 1.327 . S
C1441 H1464 0.950 . S
C1442 C1441 1.349 . S
C1442 C1454 1.349 . S
C1443 C1441 1.327 . S
C1443 C1459 1.429 . S
C1443 H1465 0.950 . S
C1444 H1440 0.949 . S
C1444 C1452 1.574 . S
C1444 C1460 1.368 . S
H1445 C1453 0.950 . S
H1446 C1451 0.950 . S
H1447 C1452 0.949 . S
H1448 C1454 0.950 . S
H1449 C1455 0.950 . S
H1450 C1456 0.949 . S
C1451 H1446 0.950 . S
C1451 C1453 1.327 . S
C1451 C1457 1.429 . S
C1452 C1444 1.574 . S
C1452 H1447 0.949 . S
C1452 C1458 1.368 . S
C1453 C1437 1.349 . S
C1453 H1445 0.950 . S
C1453 C1451 1.327 . S
C1454 C1442 1.349 . S
C1454 H1448 0.950 . S
C1454 C1455 1.327 . S
C1455 H1449 0.950 . S
C1455 C1454 1.327 . S
C1455 C1459 1.429 . S
C1456 C1439 1.574 . S
C1456 H1450 0.949 . S
C1456 C1460 1.368 . S
C1457 C1438 1.429 . S
C1457 C1451 1.429 . S
C1457 C1458 1.523 . S
C1458 C1439 1.368 . S
C1458 C1452 1.368 . S
C1458 C1457 1.523 . S
C1459 C1443 1.429 . S
C1459 C1455 1.429 . S
C1459 C1460 1.523 . S
C1460 C1444 1.368 . S
C1460 C1456 1.368 . S
C1460 C1459 1.523 . S
H1461 C1436 0.950 . S
H1462 C1438 0.950 . S
H1463 C1439 0.949 . S
H1464 C1441 0.950 . S
H1465 C1443 0.950 . S
C1466 C1467 1.349 . S
C1466 C1468 1.327 . S
C1466 H1491 0.950 . S
C1467 C1466 1.349 . S
C1467 C1483 1.349 . S
C1468 C1466 1.327 . S
C1468 C1487 1.429 . S
C1468 H1492 0.950 . S
C1469 C1486 1.574 . S
C1469 C1488 1.368 . S
C1469 H1493 0.949 . S
H1470 C1474 0.949 . S
C1471 C1472 1.349 . S
C1471 C1473 1.327 . S
C1471 H1494 0.950 . S
C1472 C1471 1.349 . S
C1472 C1484 1.349 . S
C1473 C1471 1.327 . S
C1473 C1489 1.429 . S
C1473 H1495 0.950 . S
C1474 H1470 0.949 . S
C1474 C1482 1.574 . S
C1474 C1490 1.368 . S
H1475 C1483 0.950 . S
H1476 C1481 0.950 . S
H1477 C1482 0.949 . S
H1478 C1484 0.950 . S
H1479 C1485 0.950 . S
H1480 C1486 0.949 . S
C1481 H1476 0.950 . S
C1481 C1483 1.327 . S
C1481 C1487 1.429 . S
C1482 C1474 1.574 . S
C1482 H1477 0.949 . S
C1482 C1488 1.368 . S
C1483 C1467 1.349 . S
C1483 H1475 0.950 . S
C1483 C1481 1.327 . S
C1484 C1472 1.349 . S
C1484 H1478 0.950 . S
C1484 C1485 1.327 . S
C1485 H1479 0.950 . S
C1485 C1484 1.327 . S
C1485 C1489 1.429 . S
C1486 C1469 1.574 . S
C1486 H1480 0.949 . S
C1486 C1490 1.368 . S
C1487 C1468 1.429 . S
C1487 C1481 1.429 . S
C1487 C1488 1.523 . S
C1488 C1469 1.368 . S
C1488 C1482 1.368 . S
C1488 C1487 1.523 . S
C1489 C1473 1.429 . S
C1489 C1485 1.429 . S
C1489 C1490 1.523 . S
C1490 C1474 1.368 . S
C1490 C1486 1.368 . S
C1490 C1489 1.523 . S
H1491 C1466 0.950 . S
H1492 C1468 0.950 . S
H1493 C1469 0.949 . S
H1494 C1471 0.950 . S
H1495 C1473 0.950 . S
C1496 C1497 1.349 . S
C1496 C1498 1.327 . S
C1496 H1521 0.950 . S
C1497 C1496 1.349 . S
C1497 C1513 1.349 . S
C1498 C1496 1.327 . S
C1498 C1517 1.429 . S
C1498 H1522 0.950 . S
C1499 C1516 1.574 . S
C1499 C1518 1.368 1_655 S
C1499 H1523 0.949 . S
H1500 C1504 0.949 . S
C1501 C1502 1.332 1_655 S
C1501 C1503 1.327 . S
C1501 H1524 0.950 . S
C1502 C1501 1.332 1_455 S
C1502 C1514 1.366 . S
C1503 C1501 1.327 . S
C1503 C1519 1.429 1_655 S
C1503 H1525 0.950 . S
C1504 H1500 0.949 . S
C1504 C1512 1.574 . S
C1504 C1520 1.368 . S
H1505 C1513 0.950 1_655 S
H1506 C1511 0.938 1_655 S
H1507 C1512 0.949 . S
H1508 C1514 0.950 . S
H1509 C1515 0.950 . S
H1510 C1516 0.949 . S
C1511 H1506 0.938 1_455 S
C1511 C1513 1.326 . S
C1511 C1517 1.442 . S
C1512 C1504 1.574 . S
C1512 H1507 0.949 . S
C1512 C1518 1.368 . S
C1513 C1497 1.349 . S
C1513 H1505 0.950 1_455 S
C1513 C1511 1.326 . S
C1514 C1502 1.366 . S
C1514 H1508 0.950 . S
C1514 C1515 1.327 . S
C1515 H1509 0.950 . S
C1515 C1514 1.327 . S
C1515 C1519 1.429 . S
C1516 C1499 1.574 . S
C1516 H1510 0.949 . S
C1516 C1520 1.368 1_655 S
C1517 C1498 1.429 . S
C1517 C1511 1.442 . S
C1517 C1518 1.523 . S
C1518 C1499 1.368 1_455 S
C1518 C1512 1.368 . S
C1518 C1517 1.523 . S
C1519 C1503 1.429 1_455 S
C1519 C1515 1.429 . S
C1519 C1520 1.523 . S
C1520 C1504 1.368 . S
C1520 C1516 1.368 1_455 S
C1520 C1519 1.523 . S
H1521 C1496 0.950 . S
H1522 C1498 0.950 . S
H1523 C1499 0.949 . S
H1524 C1501 0.950 . S
H1525 C1503 0.950 . S
C1526 C1527 1.349 . S
C1526 C1528 1.327 . S
C1526 H1551 0.950 . S
C1527 C1526 1.349 . S
C1527 C1543 1.349 . S
C1528 C1526 1.327 . S
C1528 C1547 1.429 . S
C1528 H1552 0.950 . S
C1529 C1546 1.574 . S
C1529 C1548 1.368 . S
C1529 H1553 0.949 . S
H1530 C1534 0.949 . S
C1531 C1532 1.349 . S
C1531 C1533 1.327 . S
C1531 H1554 0.950 . S
C1532 C1531 1.349 . S
C1532 C1544 1.349 . S
C1533 C1531 1.327 . S
C1533 C1549 1.429 . S
C1533 H1555 0.950 . S
C1534 H1530 0.949 . S
C1534 C1542 1.574 . S
C1534 C1550 1.368 . S
H1535 C1543 0.950 . S
H1536 C1541 0.950 . S
H1537 C1542 0.949 . S
H1538 C1544 0.950 . S
H1539 C1545 0.950 . S
H1540 C1546 0.949 . S
C1541 H1536 0.950 . S
C1541 C1543 1.327 . S
C1541 C1547 1.429 . S
C1542 C1534 1.574 . S
C1542 H1537 0.949 . S
C1542 C1548 1.368 . S
C1543 C1527 1.349 . S
C1543 H1535 0.950 . S
C1543 C1541 1.327 . S
C1544 C1532 1.349 . S
C1544 H1538 0.950 . S
C1544 C1545 1.327 . S
C1545 H1539 0.950 . S
C1545 C1544 1.327 . S
C1545 C1549 1.429 . S
C1546 C1529 1.574 . S
C1546 H1540 0.949 . S
C1546 C1550 1.368 . S
C1547 C1528 1.429 . S
C1547 C1541 1.429 . S
C1547 C1548 1.523 . S
C1548 C1529 1.368 . S
C1548 C1542 1.368 . S
C1548 C1547 1.523 . S
C1549 C1533 1.429 . S
C1549 C1545 1.429 . S
C1549 C1550 1.523 . S
C1550 C1534 1.368 . S
C1550 C1546 1.368 . S
C1550 C1549 1.523 . S
H1551 C1526 0.950 . S
H1552 C1528 0.950 . S
H1553 C1529 0.949 . S
H1554 C1531 0.950 . S
H1555 C1533 0.950 . S
C1556 C1557 1.349 . S
C1556 C1558 1.327 . S
C1556 H1581 0.950 . S
C1557 C1556 1.349 . S
C1557 C1573 1.349 . S
C1558 C1556 1.327 . S
C1558 C1577 1.429 . S
C1558 H1582 0.950 . S
C1559 C1576 1.574 . S
C1559 C1578 1.368 . S
C1559 H1583 0.949 . S
H1560 C1564 0.949 . S
C1561 C1562 1.349 . S
C1561 C1563 1.327 . S
C1561 H1584 0.950 . S
C1562 C1561 1.349 . S
C1562 C1574 1.349 . S
C1563 C1561 1.327 . S
C1563 C1579 1.429 . S
C1563 H1585 0.950 . S
C1564 H1560 0.949 . S
C1564 C1572 1.574 . S
C1564 C1580 1.368 . S
H1565 C1573 0.950 . S
H1566 C1571 0.950 . S
H1567 C1572 0.949 . S
H1568 C1574 0.950 1_554 S
H1569 C1575 0.950 . S
H1570 C1576 0.949 . S
C1571 H1566 0.950 . S
C1571 C1573 1.327 . S
C1571 C1577 1.429 . S
C1572 C1564 1.574 . S
C1572 H1567 0.949 . S
C1572 C1578 1.368 . S
C1573 C1557 1.349 . S
C1573 H1565 0.950 . S
C1573 C1571 1.327 . S
C1574 C1562 1.349 . S
C1574 H1568 0.950 1_556 S
C1574 C1575 1.327 . S
C1575 H1569 0.950 . S
C1575 C1574 1.327 . S
C1575 C1579 1.429 . S
C1576 C1559 1.574 . S
C1576 H1570 0.949 . S
C1576 C1580 1.368 . S
C1577 C1558 1.429 . S
C1577 C1571 1.429 . S
C1577 C1578 1.523 . S
C1578 C1559 1.368 . S
C1578 C1572 1.368 . S
C1578 C1577 1.523 . S
C1579 C1563 1.429 . S
C1579 C1575 1.429 . S
C1579 C1580 1.523 . S
C1580 C1564 1.368 . S
C1580 C1576 1.368 . S
C1580 C1579 1.523 . S
H1581 C1556 0.950 . S
H1582 C1558 0.950 . S
H1583 C1559 0.949 . S
H1584 C1561 0.950 . S
H1585 C1563 0.950 . S
C1586 C1587 1.349 . S
C1586 C1588 1.327 . S
C1586 H1611 0.950 . S
C1587 C1586 1.349 . S
C1587 C1603 1.349 . S
C1588 C1586 1.327 . S
C1588 C1607 1.429 . S
C1588 H1612 0.950 . S
C1589 C1606 1.574 . S
C1589 C1608 1.368 . S
C1589 H1613 0.949 . S
H1590 C1594 0.949 . S
C1591 C1592 1.349 . S
C1591 C1593 1.327 . S
C1591 H1614 0.950 . S
C1592 C1591 1.349 . S
C1592 C1604 1.349 . S
C1593 C1591 1.327 . S
C1593 C1609 1.429 . S
C1593 H1615 0.950 . S
C1594 H1590 0.949 . S
C1594 C1602 1.574 . S
C1594 C1610 1.368 . S
H1595 C1603 0.950 . S
H1596 C1601 0.950 . S
H1597 C1602 0.949 . S
H1598 C1604 0.950 . S
H1599 C1605 0.950 . S
H1600 C1606 0.949 . S
C1601 H1596 0.950 . S
C1601 C1603 1.327 . S
C1601 C1607 1.429 . S
C1602 C1594 1.574 . S
C1602 H1597 0.949 . S
C1602 C1608 1.368 . S
C1603 C1587 1.349 . S
C1603 H1595 0.950 . S
C1603 C1601 1.327 . S
C1604 C1592 1.349 . S
C1604 H1598 0.950 . S
C1604 C1605 1.327 . S
C1605 H1599 0.950 . S
C1605 C1604 1.327 . S
C1605 C1609 1.429 . S
C1606 C1589 1.574 . S
C1606 H1600 0.949 . S
C1606 C1610 1.368 . S
C1607 C1588 1.429 . S
C1607 C1601 1.429 . S
C1607 C1608 1.523 . S
C1608 C1589 1.368 . S
C1608 C1602 1.368 . S
C1608 C1607 1.523 . S
C1609 C1593 1.429 . S
C1609 C1605 1.429 . S
C1609 C1610 1.523 . S
C1610 C1594 1.368 . S
C1610 C1606 1.368 . S
C1610 C1609 1.523 . S
H1611 C1586 0.950 . S
H1612 C1588 0.950 . S
H1613 C1589 0.949 . S
H1614 C1591 0.950 . S
H1615 C1593 0.950 . S
C1616 C1617 1.349 . S
C1616 C1618 1.327 . S
C1616 H1641 0.950 . S
C1617 C1616 1.349 . S
C1617 C1633 1.349 1_545 S
C1618 C1616 1.327 . S
C1618 C1637 1.429 . S
C1618 H1642 0.950 . S
C1619 C1636 1.574 . S
C1619 C1638 1.368 1_565 S
C1619 H1643 0.949 . S
H1620 C1624 0.949 . S
C1621 C1622 1.349 1_565 S
C1621 C1623 1.327 . S
C1621 H1644 0.950 . S
C1622 C1621 1.349 1_545 S
C1622 C1634 1.349 . S
C1623 C1621 1.327 . S
C1623 C1639 1.429 1_565 S
C1623 H1645 0.950 . S
C1624 H1620 0.949 . S
C1624 C1632 1.574 . S
C1624 C1640 1.368 . S
H1625 C1633 0.950 . S
H1626 C1631 0.950 . S
H1627 C1632 0.949 . S
H1628 C1634 0.950 . S
H1629 C1635 0.950 . S
H1630 C1636 0.949 . S
C1631 H1626 0.950 . S
C1631 C1633 1.327 . S
C1631 C1637 1.429 1_565 S
C1632 C1624 1.574 . S
C1632 H1627 0.949 . S
C1632 C1638 1.368 . S
C1633 C1617 1.349 1_565 S
C1633 H1625 0.950 . S
C1633 C1631 1.327 . S
C1634 C1622 1.349 . S
C1634 H1628 0.950 . S
C1634 C1635 1.327 . S
C1635 H1629 0.950 . S
C1635 C1634 1.327 . S
C1635 C1639 1.429 . S
C1636 C1619 1.574 . S
C1636 H1630 0.949 . S
C1636 C1640 1.368 1_565 S
C1637 C1618 1.429 . S
C1637 C1631 1.429 1_545 S
C1637 C1638 1.523 . S
C1638 C1619 1.368 1_545 S
C1638 C1632 1.368 . S
C1638 C1637 1.523 . S
C1639 C1623 1.429 1_545 S
C1639 C1635 1.429 . S
C1639 C1640 1.523 . S
C1640 C1624 1.368 . S
C1640 C1636 1.368 1_545 S
C1640 C1639 1.523 . S
H1641 C1616 0.950 . S
H1642 C1618 0.950 . S
H1643 C1619 0.949 . S
H1644 C1621 0.950 . S
H1645 C1623 0.950 . S
C1646 C1647 1.349 . S
C1646 C1648 1.327 . S
C1646 H1671 0.950 . S
C1647 C1646 1.349 . S
C1647 C1663 1.349 . S
C1648 C1646 1.327 . S
C1648 C1667 1.429 . S
C1648 H1672 0.950 . S
C1649 C1666 1.574 . S
C1649 C1668 1.368 . S
C1649 H1673 0.949 . S
H1650 C1654 0.949 . S
C1651 C1652 1.349 . S
C1651 C1653 1.327 . S
C1651 H1674 0.950 . S
C1652 C1651 1.349 . S
C1652 C1664 1.349 . S
C1653 C1651 1.327 . S
C1653 C1669 1.429 . S
C1653 H1675 0.950 . S
C1654 H1650 0.949 . S
C1654 C1662 1.574 . S
C1654 C1670 1.368 . S
H1655 C1663 0.950 . S
H1656 C1661 0.950 . S
H1657 C1662 0.949 . S
H1658 C1664 0.950 . S
H1659 C1665 0.950 . S
H1660 C1666 0.949 . S
C1661 H1656 0.950 . S
C1661 C1663 1.327 . S
C1661 C1667 1.429 . S
C1662 C1654 1.574 . S
C1662 H1657 0.949 . S
C1662 C1668 1.368 . S
C1663 C1647 1.349 . S
C1663 H1655 0.950 . S
C1663 C1661 1.327 . S
C1664 C1652 1.349 . S
C1664 H1658 0.950 . S
C1664 C1665 1.327 . S
C1665 H1659 0.950 . S
C1665 C1664 1.327 . S
C1665 C1669 1.429 . S
C1666 C1649 1.574 . S
C1666 H1660 0.949 . S
C1666 C1670 1.368 . S
C1667 C1648 1.429 . S
C1667 C1661 1.429 . S
C1667 C1668 1.523 . S
C1668 C1649 1.368 . S
C1668 C1662 1.368 . S
C1668 C1667 1.523 . S
C1669 C1653 1.429 . S
C1669 C1665 1.429 . S
C1669 C1670 1.523 . S
C1670 C1654 1.368 . S
C1670 C1666 1.368 . S
C1670 C1669 1.523 . S
H1671 C1646 0.950 . S
H1672 C1648 0.950 . S
H1673 C1649 0.949 . S
H1674 C1651 0.950 . S
H1675 C1653 0.950 . S
C1676 C1677 1.349 . S
C1676 C1678 1.327 . S
C1676 H1701 0.950 . S
C1677 C1676 1.349 . S
C1677 C1693 1.349 . S
C1678 C1676 1.327 . S
C1678 C1697 1.429 . S
C1678 H1702 0.950 . S
C1679 C1696 1.574 . S
C1679 C1698 1.368 . S
C1679 H1703 0.949 . S
H1680 C1684 0.949 . S
C1681 C1682 1.349 . S
C1681 C1683 1.327 . S
C1681 H1704 0.950 . S
C1682 C1681 1.349 . S
C1682 C1694 1.349 . S
C1683 C1681 1.327 . S
C1683 C1699 1.429 . S
C1683 H1705 0.950 . S
C1684 H1680 0.949 . S
C1684 C1692 1.574 . S
C1684 C1700 1.368 . S
H1685 C1693 0.950 . S
H1686 C1691 0.950 . S
H1687 C1692 0.949 . S
H1688 C1694 0.950 . S
H1689 C1695 0.950 . S
H1690 C1696 0.949 . S
C1691 H1686 0.950 . S
C1691 C1693 1.327 . S
C1691 C1697 1.429 . S
C1692 C1684 1.574 . S
C1692 H1687 0.949 . S
C1692 C1698 1.368 . S
C1693 C1677 1.349 . S
C1693 H1685 0.950 . S
C1693 C1691 1.327 . S
C1694 C1682 1.349 . S
C1694 H1688 0.950 . S
C1694 C1695 1.327 . S
C1695 H1689 0.950 . S
C1695 C1694 1.327 . S
C1695 C1699 1.429 . S
C1696 C1679 1.574 . S
C1696 H1690 0.949 . S
C1696 C1700 1.368 . S
C1697 C1678 1.429 . S
C1697 C1691 1.429 . S
C1697 C1698 1.523 . S
C1698 C1679 1.368 . S
C1698 C1692 1.368 . S
C1698 C1697 1.523 . S
C1699 C1683 1.429 . S
C1699 C1695 1.429 . S
C1699 C1700 1.523 . S
C1700 C1684 1.368 . S
C1700 C1696 1.368 . S
C1700 C1699 1.523 . S
H1701 C1676 0.950 . S
H1702 C1678 0.950 . S
H1703 C1679 0.949 . S
H1704 C1681 0.950 . S
H1705 C1683 0.950 . S
C1706 C1707 1.349 . S
C1706 C1708 1.327 . S
C1706 H1731 0.950 . S
C1707 C1706 1.349 . S
C1707 C1723 1.349 . S
C1708 C1706 1.327 . S
C1708 C1727 1.429 . S
C1708 H1732 0.950 . S
C1709 C1726 1.574 . S
C1709 C1728 1.368 . S
C1709 H1733 0.949 . S
H1710 C1714 0.949 . S
C1711 C1712 1.349 . S
C1711 C1713 1.327 . S
C1711 H1734 0.950 . S
C1712 C1711 1.349 . S
C1712 C1724 1.349 . S
C1713 C1711 1.327 . S
C1713 C1729 1.429 . S
C1713 H1735 0.950 . S
C1714 H1710 0.949 . S
C1714 C1722 1.574 . S
C1714 C1730 1.368 . S
H1715 C1723 0.950 . S
H1716 C1721 0.950 . S
H1717 C1722 0.949 . S
H1718 C1724 0.950 . S
H1719 C1725 0.950 . S
H1720 C1726 0.949 . S
C1721 H1716 0.950 . S
C1721 C1723 1.327 . S
C1721 C1727 1.429 . S
C1722 C1714 1.574 . S
C1722 H1717 0.949 . S
C1722 C1728 1.368 . S
C1723 C1707 1.349 . S
C1723 H1715 0.950 . S
C1723 C1721 1.327 . S
C1724 C1712 1.349 . S
C1724 H1718 0.950 . S
C1724 C1725 1.327 . S
C1725 H1719 0.950 . S
C1725 C1724 1.327 . S
C1725 C1729 1.429 . S
C1726 C1709 1.574 . S
C1726 H1720 0.949 . S
C1726 C1730 1.368 . S
C1727 C1708 1.429 . S
C1727 C1721 1.429 . S
C1727 C1728 1.523 . S
C1728 C1709 1.368 . S
C1728 C1722 1.368 . S
C1728 C1727 1.523 . S
C1729 C1713 1.429 . S
C1729 C1725 1.429 . S
C1729 C1730 1.523 . S
C1730 C1714 1.368 . S
C1730 C1726 1.368 . S
C1730 C1729 1.523 . S
H1731 C1706 0.950 . S
H1732 C1708 0.950 . S
H1733 C1709 0.949 . S
H1734 C1711 0.950 . S
H1735 C1713 0.950 . S
C1736 C1737 1.349 1_545 S
C1736 C1738 1.327 . S
C1736 H1761 0.950 . S
C1737 C1736 1.349 1_565 S
C1737 C1753 1.349 . S
C1738 C1736 1.327 . S
C1738 C1757 1.429 . S
C1738 H1762 0.950 . S
C1739 C1756 1.574 . S
C1739 C1758 1.368 1_565 S
C1739 H1763 0.949 . S
H1740 C1744 0.949 . S
C1741 C1742 1.349 . S
C1741 C1743 1.327 . S
C1741 H1764 0.961 . S
C1742 C1741 1.349 . S
C1742 C1754 1.349 . S
C1743 C1741 1.327 . S
C1743 C1759 1.429 . S
C1743 H1765 0.950 1_545 S
C1744 H1740 0.949 . S
C1744 C1752 1.574 . S
C1744 C1760 1.368 . S
H1745 C1753 0.950 . S
H1746 C1751 0.950 . S
H1747 C1752 0.949 . S
H1748 C1754 0.950 . S
H1749 C1755 0.950 . S
H1750 C1756 0.949 . S
C1751 H1746 0.950 . S
C1751 C1753 1.327 . S
C1751 C1757 1.429 1_565 S
C1752 C1744 1.574 . S
C1752 H1747 0.949 . S
C1752 C1758 1.368 . S
C1753 C1737 1.349 . S
C1753 H1745 0.950 . S
C1753 C1751 1.327 . S
C1754 C1742 1.349 . S
C1754 H1748 0.950 . S
C1754 C1755 1.327 . S
C1755 H1749 0.950 . S
C1755 C1754 1.327 . S
C1755 C1759 1.429 . S
C1756 C1739 1.574 . S
C1756 H1750 0.949 . S
C1756 C1760 1.368 1_565 S
C1757 C1738 1.429 . S
C1757 C1751 1.429 1_545 S
C1757 C1758 1.523 . S
C1758 C1739 1.368 1_545 S
C1758 C1752 1.368 . S
C1758 C1757 1.523 . S
C1759 C1743 1.429 . S
C1759 C1755 1.429 . S
C1759 C1760 1.523 . S
C1760 C1744 1.368 . S
C1760 C1756 1.368 1_545 S
C1760 C1759 1.523 . S
H1761 C1736 0.950 . S
H1762 C1738 0.950 . S
H1763 C1739 0.949 . S
H1764 C1741 0.961 . S
H1765 C1743 0.950 1_565 S
C1766 C1767 1.349 . S
C1766 C1768 1.327 . S
C1766 H1791 0.950 . S
C1767 C1766 1.349 . S
C1767 C1783 1.349 . S
C1768 C1766 1.327 . S
C1768 C1787 1.429 . S
C1768 H1792 0.950 . S
C1769 C1786 1.574 . S
C1769 C1788 1.368 . S
C1769 H1793 0.949 . S
H1770 C1774 0.949 . S
C1771 C1772 1.349 . S
C1771 C1773 1.327 . S
C1771 H1794 0.950 . S
C1772 C1771 1.349 . S
C1772 C1784 1.349 . S
C1773 C1771 1.327 . S
C1773 C1789 1.429 . S
C1773 H1795 0.950 . S
C1774 H1770 0.949 . S
C1774 C1782 1.574 . S
C1774 C1790 1.368 . S
H1775 C1783 0.950 . S
H1776 C1781 0.950 . S
H1777 C1782 0.949 . S
H1778 C1784 0.950 . S
H1779 C1785 0.950 . S
H1780 C1786 0.949 . S
C1781 H1776 0.950 . S
C1781 C1783 1.327 . S
C1781 C1787 1.429 . S
C1782 C1774 1.574 . S
C1782 H1777 0.949 . S
C1782 C1788 1.368 . S
C1783 C1767 1.349 . S
C1783 H1775 0.950 . S
C1783 C1781 1.327 . S
C1784 C1772 1.349 . S
C1784 H1778 0.950 . S
C1784 C1785 1.327 . S
C1785 H1779 0.950 . S
C1785 C1784 1.327 . S
C1785 C1789 1.429 . S
C1786 C1769 1.574 . S
C1786 H1780 0.949 . S
C1786 C1790 1.368 . S
C1787 C1768 1.429 . S
C1787 C1781 1.429 . S
C1787 C1788 1.523 . S
C1788 C1769 1.368 . S
C1788 C1782 1.368 . S
C1788 C1787 1.523 . S
C1789 C1773 1.429 . S
C1789 C1785 1.429 . S
C1789 C1790 1.523 . S
C1790 C1774 1.368 . S
C1790 C1786 1.368 . S
C1790 C1789 1.523 . S
H1791 C1766 0.950 . S
H1792 C1768 0.950 . S
H1793 C1769 0.949 . S
H1794 C1771 0.950 . S
H1795 C1773 0.950 . S
C1796 C1797 1.349 . S
C1796 C1798 1.327 . S
C1796 H1821 0.950 . S
C1797 C1796 1.349 . S
C1797 C1813 1.349 . S
C1798 C1796 1.327 . S
C1798 C1817 1.429 . S
C1798 H1822 0.950 . S
C1799 C1816 1.574 . S
C1799 C1818 1.368 . S
C1799 H1823 0.949 . S
H1800 C1804 0.949 . S
C1801 C1802 1.349 . S
C1801 C1803 1.327 . S
C1801 H1824 0.950 1_545 S
C1802 C1801 1.349 . S
C1802 C1814 1.349 . S
C1803 C1801 1.327 . S
C1803 C1819 1.429 . S
C1803 H1825 0.952 . S
C1804 H1800 0.949 . S
C1804 C1812 1.574 . S
C1804 C1820 1.368 . S
H1805 C1813 0.950 . S
H1806 C1811 0.950 . S
H1807 C1812 0.949 . S
H1808 C1814 0.950 . S
H1809 C1815 0.950 . S
H1810 C1816 0.949 . S
C1811 H1806 0.950 . S
C1811 C1813 1.327 . S
C1811 C1817 1.429 . S
C1812 C1804 1.574 . S
C1812 H1807 0.949 . S
C1812 C1818 1.368 . S
C1813 C1797 1.349 . S
C1813 H1805 0.950 . S
C1813 C1811 1.327 . S
C1814 C1802 1.349 . S
C1814 H1808 0.950 . S
C1814 C1815 1.327 . S
C1815 H1809 0.950 . S
C1815 C1814 1.327 . S
C1815 C1819 1.429 . S
C1816 C1799 1.574 . S
C1816 H1810 0.949 . S
C1816 C1820 1.368 . S
C1817 C1798 1.429 . S
C1817 C1811 1.429 . S
C1817 C1818 1.523 . S
C1818 C1799 1.368 . S
C1818 C1812 1.368 . S
C1818 C1817 1.523 . S
C1819 C1803 1.429 . S
C1819 C1815 1.429 . S
C1819 C1820 1.523 . S
C1820 C1804 1.368 . S
C1820 C1816 1.368 . S
C1820 C1819 1.523 . S
H1821 C1796 0.950 . S
H1822 C1798 0.950 . S
H1823 C1799 0.949 . S
H1824 C1801 0.950 1_565 S
H1825 C1803 0.952 . S
C1826 C1827 1.349 . S
C1826 C1828 1.327 . S
C1826 H1851 0.950 . S
C1827 C1826 1.349 . S
C1827 C1843 1.349 . S
C1828 C1826 1.327 . S
C1828 C1847 1.429 . S
C1828 H1852 0.950 . S
C1829 C1846 1.574 . S
C1829 C1848 1.368 . S
C1829 H1853 0.949 . S
H1830 C1834 0.949 . S
C1831 C1832 1.349 . S
C1831 C1833 1.327 . S
C1831 H1854 0.950 . S
C1832 C1831 1.349 . S
C1832 C1844 1.349 . S
C1833 C1831 1.327 . S
C1833 C1849 1.429 . S
C1833 H1855 0.950 . S
C1834 H1830 0.949 . S
C1834 C1842 1.574 . S
C1834 C1850 1.368 . S
H1835 C1843 0.950 . S
H1836 C1841 0.950 . S
H1837 C1842 0.949 . S
H1838 C1844 0.950 . S
H1839 C1845 0.950 . S
H1840 C1846 0.949 . S
C1841 H1836 0.950 . S
C1841 C1843 1.327 . S
C1841 C1847 1.429 . S
C1842 C1834 1.574 . S
C1842 H1837 0.949 . S
C1842 C1848 1.368 . S
C1843 C1827 1.349 . S
C1843 H1835 0.950 . S
C1843 C1841 1.327 . S
C1844 C1832 1.349 . S
C1844 H1838 0.950 . S
C1844 C1845 1.327 . S
C1845 H1839 0.950 . S
C1845 C1844 1.327 . S
C1845 C1849 1.429 . S
C1846 C1829 1.574 . S
C1846 H1840 0.949 . S
C1846 C1850 1.368 . S
C1847 C1828 1.429 . S
C1847 C1841 1.429 . S
C1847 C1848 1.523 . S
C1848 C1829 1.368 . S
C1848 C1842 1.368 . S
C1848 C1847 1.523 . S
C1849 C1833 1.429 . S
C1849 C1845 1.429 . S
C1849 C1850 1.523 . S
C1850 C1834 1.368 . S
C1850 C1846 1.368 . S
C1850 C1849 1.523 . S
H1851 C1826 0.950 . S
H1852 C1828 0.950 . S
H1853 C1829 0.949 . S
H1854 C1831 0.950 . S
H1855 C1833 0.950 . S
C1856 C1857 1.349 1_556 S
C1856 C1858 1.327 . S
C1856 H1881 0.950 . S
C1857 C1856 1.349 1_554 S
C1857 C1873 1.349 . S
C1858 C1856 1.327 . S
C1858 C1877 1.429 1_556 S
C1858 H1882 0.950 . S
C1859 C1876 1.574 . S
C1859 C1878 1.368 . S
C1859 H1883 0.949 . S
H1860 C1864 0.949 . S
C1861 C1862 1.373 . S
C1861 C1863 1.327 . S
C1861 H1884 0.950 . S
C1862 C1861 1.373 . S
C1862 C1874 1.326 1_554 S
C1863 C1861 1.327 . S
C1863 C1879 1.429 . S
C1863 H1885 0.950 . S
C1864 H1860 0.949 . S
C1864 C1872 1.574 . S
C1864 C1880 1.368 1_556 S
H1865 C1873 0.950 . S
H1866 C1871 0.950 . S
H1867 C1872 0.949 . S
H1868 C1874 0.950 . S
H1869 C1875 0.950 . S
H1870 C1876 0.949 . S
C1871 H1866 0.950 . S
C1871 C1873 1.327 . S
C1871 C1877 1.429 . S
C1872 C1864 1.574 . S
C1872 H1867 0.949 . S
C1872 C1878 1.368 1_556 S
C1873 C1857 1.349 . S
C1873 H1865 0.950 . S
C1873 C1871 1.327 . S
C1874 C1862 1.326 1_556 S
C1874 H1868 0.950 . S
C1874 C1875 1.327 . S
C1875 H1869 0.950 . S
C1875 C1874 1.327 . S
C1875 C1879 1.429 1_556 S
C1876 C1859 1.574 . S
C1876 H1870 0.949 . S
C1876 C1880 1.368 . S
C1877 C1858 1.429 1_554 S
C1877 C1871 1.429 . S
C1877 C1878 1.523 . S
C1878 C1859 1.368 . S
C1878 C1872 1.368 1_554 S
C1878 C1877 1.523 . S
C1879 C1863 1.429 . S
C1879 C1875 1.429 1_554 S
C1879 C1880 1.523 . S
C1880 C1864 1.368 1_554 S
C1880 C1876 1.368 . S
C1880 C1879 1.523 . S
H1881 C1856 0.950 . S
H1882 C1858 0.950 . S
H1883 C1859 0.949 . S
H1884 C1861 0.950 . S
H1885 C1863 0.950 . S
C1886 C1887 1.349 . S
C1886 C1888 1.327 . S
C1886 H1911 0.950 . S
C1887 C1886 1.349 . S
C1887 C1903 1.349 . S
C1888 C1886 1.327 . S
C1888 C1907 1.429 . S
C1888 H1912 0.950 . S
C1889 C1906 1.574 . S
C1889 C1908 1.368 . S
C1889 H1913 0.949 . S
H1890 C1894 0.949 . S
C1891 C1892 1.349 . S
C1891 C1893 1.327 . S
C1891 H1914 0.950 . S
C1892 C1891 1.349 . S
C1892 C1904 1.349 . S
C1893 C1891 1.327 . S
C1893 C1909 1.429 . S
C1893 H1915 0.950 . S
C1894 H1890 0.949 . S
C1894 C1902 1.574 . S
C1894 C1910 1.368 . S
H1895 C1903 0.950 . S
H1896 C1901 0.950 . S
H1897 C1902 0.949 . S
H1898 C1904 0.950 . S
H1899 C1905 0.950 . S
H1900 C1906 0.949 . S
C1901 H1896 0.950 . S
C1901 C1903 1.327 . S
C1901 C1907 1.429 . S
C1902 C1894 1.574 . S
C1902 H1897 0.949 . S
C1902 C1908 1.368 . S
C1903 C1887 1.349 . S
C1903 H1895 0.950 . S
C1903 C1901 1.327 . S
C1904 C1892 1.349 . S
C1904 H1898 0.950 . S
C1904 C1905 1.327 . S
C1905 H1899 0.950 . S
C1905 C1904 1.327 . S
C1905 C1909 1.429 . S
C1906 C1889 1.574 . S
C1906 H1900 0.949 . S
C1906 C1910 1.368 . S
C1907 C1888 1.429 . S
C1907 C1901 1.429 . S
C1907 C1908 1.523 . S
C1908 C1889 1.368 . S
C1908 C1902 1.368 . S
C1908 C1907 1.523 . S
C1909 C1893 1.429 . S
C1909 C1905 1.429 . S
C1909 C1910 1.523 . S
C1910 C1894 1.368 . S
C1910 C1906 1.368 . S
C1910 C1909 1.523 . S
H1911 C1886 0.950 . S
H1912 C1888 0.950 . S
H1913 C1889 0.949 . S
H1914 C1891 0.950 . S
H1915 C1893 0.950 . S
C1916 C1917 1.349 . S
C1916 C1918 1.327 . S
C1916 H1941 0.950 . S
C1917 C1916 1.349 . S
C1917 C1933 1.349 . S
C1918 C1916 1.327 . S
C1918 C1937 1.429 . S
C1918 H1942 0.950 . S
C1919 C1936 1.574 . S
C1919 C1938 1.368 . S
C1919 H1943 0.949 . S
H1920 C1924 0.949 . S
C1921 C1922 1.349 . S
C1921 C1923 1.327 . S
C1921 H1944 0.950 . S
C1922 C1921 1.349 . S
C1922 C1934 1.349 . S
C1923 C1921 1.327 . S
C1923 C1939 1.429 . S
C1923 H1945 0.950 . S
C1924 H1920 0.949 . S
C1924 C1932 1.574 . S
C1924 C1940 1.368 . S
H1925 C1933 0.950 . S
H1926 C1931 0.950 . S
H1927 C1932 0.949 . S
H1928 C1934 0.950 . S
H1929 C1935 0.950 . S
H1930 C1936 0.949 . S
C1931 H1926 0.950 . S
C1931 C1933 1.327 . S
C1931 C1937 1.429 . S
C1932 C1924 1.574 . S
C1932 H1927 0.949 . S
C1932 C1938 1.368 . S
C1933 C1917 1.349 . S
C1933 H1925 0.950 . S
C1933 C1931 1.327 . S
C1934 C1922 1.349 . S
C1934 H1928 0.950 . S
C1934 C1935 1.327 . S
C1935 H1929 0.950 . S
C1935 C1934 1.327 . S
C1935 C1939 1.429 . S
C1936 C1919 1.574 . S
C1936 H1930 0.949 . S
C1936 C1940 1.368 . S
C1937 C1918 1.429 . S
C1937 C1931 1.429 . S
C1937 C1938 1.523 . S
C1938 C1919 1.368 . S
C1938 C1932 1.368 . S
C1938 C1937 1.523 . S
C1939 C1923 1.429 . S
C1939 C1935 1.429 . S
C1939 C1940 1.523 . S
C1940 C1924 1.368 . S
C1940 C1936 1.368 . S
C1940 C1939 1.523 . S
H1941 C1916 0.950 . S
H1942 C1918 0.950 . S
H1943 C1919 0.949 . S
H1944 C1921 0.950 . S
H1945 C1923 0.950 . S
C1946 C1947 1.349 . S
C1946 C1948 1.327 . S
C1946 H1971 0.950 . S
C1947 C1946 1.349 . S
C1947 C1963 1.349 . S
C1948 C1946 1.327 . S
C1948 C1967 1.429 . S
C1948 H1972 0.950 . S
C1949 C1966 1.574 . S
C1949 C1968 1.368 . S
C1949 H1973 0.949 . S
H1950 C1954 0.949 . S
C1951 C1952 1.349 . S
C1951 C1953 1.327 . S
C1951 H1974 0.950 . S
C1952 C1951 1.349 . S
C1952 C1964 1.349 . S
C1953 C1951 1.327 . S
C1953 C1969 1.429 . S
C1953 H1975 0.950 . S
C1954 H1950 0.949 . S
C1954 C1962 1.574 . S
C1954 C1970 1.368 . S
H1955 C1963 0.950 . S
H1956 C1961 0.950 . S
H1957 C1962 0.949 . S
H1958 C1964 0.950 . S
H1959 C1965 0.950 . S
H1960 C1966 0.949 . S
C1961 H1956 0.950 . S
C1961 C1963 1.327 . S
C1961 C1967 1.429 . S
C1962 C1954 1.574 . S
C1962 H1957 0.949 . S
C1962 C1968 1.368 . S
C1963 C1947 1.349 . S
C1963 H1955 0.950 . S
C1963 C1961 1.327 . S
C1964 C1952 1.349 . S
C1964 H1958 0.950 . S
C1964 C1965 1.327 . S
C1965 H1959 0.950 . S
C1965 C1964 1.327 . S
C1965 C1969 1.429 . S
C1966 C1949 1.574 . S
C1966 H1960 0.949 . S
C1966 C1970 1.368 . S
C1967 C1948 1.429 . S
C1967 C1961 1.429 . S
C1967 C1968 1.523 . S
C1968 C1949 1.368 . S
C1968 C1962 1.368 . S
C1968 C1967 1.523 . S
C1969 C1953 1.429 . S
C1969 C1965 1.429 . S
C1969 C1970 1.523 . S
C1970 C1954 1.368 . S
C1970 C1966 1.368 . S
C1970 C1969 1.523 . S
H1971 C1946 0.950 . S
H1972 C1948 0.950 . S
H1973 C1949 0.949 . S
H1974 C1951 0.950 . S
H1975 C1953 0.950 . S
C1976 C1977 1.349 . S
C1976 C1978 1.327 . S
C1976 H2001 0.950 . S
C1977 C1976 1.349 . S
C1977 C1993 1.349 . S
C1978 C1976 1.327 . S
C1978 C1997 1.429 . S
C1978 H2002 0.950 . S
C1979 C1996 1.574 . S
C1979 C1998 1.368 . S
C1979 H2003 0.949 . S
H1980 C1984 0.949 . S
C1981 C1982 1.349 . S
C1981 C1983 1.327 . S
C1981 H2004 0.950 . S
C1982 C1981 1.349 . S
C1982 C1994 1.349 . S
C1983 C1981 1.327 . S
C1983 C1999 1.429 . S
C1983 H2005 0.950 . S
C1984 H1980 0.949 . S
C1984 C1992 1.574 . S
C1984 C2000 1.368 . S
H1985 C1993 0.950 . S
H1986 C1991 0.950 . S
H1987 C1992 0.949 . S
H1988 C1994 0.950 . S
H1989 C1995 0.950 . S
H1990 C1996 0.949 . S
C1991 H1986 0.950 . S
C1991 C1993 1.327 . S
C1991 C1997 1.429 . S
C1992 C1984 1.574 . S
C1992 H1987 0.949 . S
C1992 C1998 1.368 . S
C1993 C1977 1.349 . S
C1993 H1985 0.950 . S
C1993 C1991 1.327 . S
C1994 C1982 1.349 . S
C1994 H1988 0.950 . S
C1994 C1995 1.327 . S
C1995 H1989 0.950 . S
C1995 C1994 1.327 . S
C1995 C1999 1.429 . S
C1996 C1979 1.574 . S
C1996 H1990 0.949 . S
C1996 C2000 1.368 . S
C1997 C1978 1.429 . S
C1997 C1991 1.429 . S
C1997 C1998 1.523 . S
C1998 C1979 1.368 . S
C1998 C1992 1.368 . S
C1998 C1997 1.523 . S
C1999 C1983 1.429 . S
C1999 C1995 1.429 . S
C1999 C2000 1.523 . S
C2000 C1984 1.368 . S
C2000 C1996 1.368 . S
C2000 C1999 1.523 . S
H2001 C1976 0.950 . S
H2002 C1978 0.950 . S
H2003 C1979 0.949 . S
H2004 C1981 0.950 . S
H2005 C1983 0.950 . S
C2006 C2007 1.349 . S
C2006 C2008 1.327 . S
C2006 H2031 0.950 . S
C2007 C2006 1.349 . S
C2007 C2023 1.349 . S
C2008 C2006 1.327 . S
C2008 C2027 1.429 . S
C2008 H2032 0.950 . S
C2009 C2026 1.574 . S
C2009 C2028 1.368 . S
C2009 H2033 0.949 . S
H2010 C2014 0.949 . S
C2011 C2012 1.366 . S
C2011 C2013 1.327 . S
C2011 H2034 0.950 . S
C2012 C2011 1.366 . S
C2012 C2024 1.347 1_565 S
C2013 C2011 1.327 . S
C2013 C2029 1.429 . S
C2013 H2035 0.950 . S
C2014 H2010 0.949 . S
C2014 C2022 1.574 . S
C2014 C2030 1.368 . S
H2015 C2023 0.950 . S
H2016 C2021 0.950 . S
H2017 C2022 0.949 . S
H2018 C2024 0.950 . S
H2019 C2025 0.950 1_545 S
H2020 C2026 0.949 . S
C2021 H2016 0.950 . S
C2021 C2023 1.327 . S
C2021 C2027 1.429 . S
C2022 C2014 1.574 . S
C2022 H2017 0.949 . S
C2022 C2028 1.368 . S
C2023 C2007 1.349 . S
C2023 H2015 0.950 . S
C2023 C2021 1.327 . S
C2024 C2012 1.347 1_545 S
C2024 H2018 0.950 . S
C2024 C2025 1.327 1_545 S
C2025 H2019 0.950 1_565 S
C2025 C2024 1.327 1_565 S
C2025 C2029 1.429 . S
C2026 C2009 1.574 . S
C2026 H2020 0.949 . S
C2026 C2030 1.368 . S
C2027 C2008 1.429 . S
C2027 C2021 1.429 . S
C2027 C2028 1.523 . S
C2028 C2009 1.368 . S
C2028 C2022 1.368 . S
C2028 C2027 1.523 . S
C2029 C2013 1.429 . S
C2029 C2025 1.429 . S
C2029 C2030 1.523 . S
C2030 C2014 1.368 . S
C2030 C2026 1.368 . S
C2030 C2029 1.523 . S
H2031 C2006 0.950 . S
H2032 C2008 0.950 . S
H2033 C2009 0.949 . S
H2034 C2011 0.950 . S
H2035 C2013 0.950 . S
C2036 C2037 1.349 . S
C2036 C2038 1.327 . S
C2036 H2061 0.950 . S
C2037 C2036 1.349 . S
C2037 C2053 1.349 . S
C2038 C2036 1.327 . S
C2038 C2057 1.429 . S
C2038 H2062 0.950 . S
C2039 C2056 1.574 . S
C2039 C2058 1.368 . S
C2039 H2063 0.949 . S
H2040 C2044 0.949 . S
C2041 C2042 1.349 . S
C2041 C2043 1.327 . S
C2041 H2064 0.950 . S
C2042 C2041 1.349 . S
C2042 C2054 1.349 . S
C2043 C2041 1.327 . S
C2043 C2059 1.429 . S
C2043 H2065 0.950 . S
C2044 H2040 0.949 . S
C2044 C2052 1.574 . S
C2044 C2060 1.368 . S
H2045 C2053 0.950 . S
H2046 C2051 0.950 . S
H2047 C2052 0.949 . S
H2048 C2054 0.950 . S
H2049 C2055 0.950 . S
H2050 C2056 0.949 . S
C2051 H2046 0.950 . S
C2051 C2053 1.327 . S
C2051 C2057 1.429 . S
C2052 C2044 1.574 . S
C2052 H2047 0.949 . S
C2052 C2058 1.368 . S
C2053 C2037 1.349 . S
C2053 H2045 0.950 . S
C2053 C2051 1.327 . S
C2054 C2042 1.349 . S
C2054 H2048 0.950 . S
C2054 C2055 1.327 . S
C2055 H2049 0.950 . S
C2055 C2054 1.327 . S
C2055 C2059 1.429 . S
C2056 C2039 1.574 . S
C2056 H2050 0.949 . S
C2056 C2060 1.368 . S
C2057 C2038 1.429 . S
C2057 C2051 1.429 . S
C2057 C2058 1.523 . S
C2058 C2039 1.368 . S
C2058 C2052 1.368 . S
C2058 C2057 1.523 . S
C2059 C2043 1.429 . S
C2059 C2055 1.429 . S
C2059 C2060 1.523 . S
C2060 C2044 1.368 . S
C2060 C2056 1.368 . S
C2060 C2059 1.523 . S
H2061 C2036 0.950 . S
H2062 C2038 0.950 . S
H2063 C2039 0.949 . S
H2064 C2041 0.950 . S
H2065 C2043 0.950 . S
C2066 C2067 1.349 . S
C2066 C2068 1.327 . S
C2066 H2091 0.950 . S
C2067 C2066 1.349 . S
C2067 C2083 1.349 . S
C2068 C2066 1.327 . S
C2068 C2087 1.429 . S
C2068 H2092 0.950 . S
C2069 C2086 1.574 . S
C2069 C2088 1.368 . S
C2069 H2093 0.949 . S
H2070 C2074 0.949 . S
C2071 C2072 1.349 . S
C2071 C2073 1.327 . S
C2071 H2094 0.950 . S
C2072 C2071 1.349 . S
C2072 C2084 1.349 . S
C2073 C2071 1.327 . S
C2073 C2089 1.429 . S
C2073 H2095 0.950 . S
C2074 H2070 0.949 . S
C2074 C2082 1.574 . S
C2074 C2090 1.368 . S
H2075 C2083 0.950 . S
H2076 C2081 0.950 . S
H2077 C2082 0.949 . S
H2078 C2084 0.950 . S
H2079 C2085 0.950 . S
H2080 C2086 0.949 . S
C2081 H2076 0.950 . S
C2081 C2083 1.327 . S
C2081 C2087 1.429 . S
C2082 C2074 1.574 . S
C2082 H2077 0.949 . S
C2082 C2088 1.368 . S
C2083 C2067 1.349 . S
C2083 H2075 0.950 . S
C2083 C2081 1.327 . S
C2084 C2072 1.349 . S
C2084 H2078 0.950 . S
C2084 C2085 1.327 . S
C2085 H2079 0.950 . S
C2085 C2084 1.327 . S
C2085 C2089 1.429 . S
C2086 C2069 1.574 . S
C2086 H2080 0.949 . S
C2086 C2090 1.368 . S
C2087 C2068 1.429 . S
C2087 C2081 1.429 . S
C2087 C2088 1.523 . S
C2088 C2069 1.368 . S
C2088 C2082 1.368 . S
C2088 C2087 1.523 . S
C2089 C2073 1.429 . S
C2089 C2085 1.429 . S
C2089 C2090 1.523 . S
C2090 C2074 1.368 . S
C2090 C2086 1.368 . S
C2090 C2089 1.523 . S
H2091 C2066 0.950 . S
H2092 C2068 0.950 . S
H2093 C2069 0.949 . S
H2094 C2071 0.950 . S
H2095 C2073 0.950 . S
C2096 C2097 1.349 . S
C2096 C2098 1.327 . S
C2096 H2121 0.950 . S
C2097 C2096 1.349 . S
C2097 C2113 1.349 . S
C2098 C2096 1.327 . S
C2098 C2117 1.429 . S
C2098 H2122 0.950 . S
C2099 C2116 1.574 . S
C2099 C2118 1.368 . S
C2099 H2123 0.949 . S
H2100 C2104 0.949 . S
C2101 C2102 1.349 . S
C2101 C2103 1.327 . S
C2101 H2124 0.950 . S
C2102 C2101 1.349 . S
C2102 C2114 1.349 . S
C2103 C2101 1.327 . S
C2103 C2119 1.429 . S
C2103 H2125 0.950 . S
C2104 H2100 0.949 . S
C2104 C2112 1.574 . S
C2104 C2120 1.368 . S
H2105 C2113 0.950 . S
H2106 C2111 0.950 . S
H2107 C2112 0.949 . S
H2108 C2114 0.950 . S
H2109 C2115 0.950 . S
H2110 C2116 0.949 . S
C2111 H2106 0.950 . S
C2111 C2113 1.327 . S
C2111 C2117 1.429 . S
C2112 C2104 1.574 . S
C2112 H2107 0.949 . S
C2112 C2118 1.368 . S
C2113 C2097 1.349 . S
C2113 H2105 0.950 . S
C2113 C2111 1.327 . S
C2114 C2102 1.349 . S
C2114 H2108 0.950 . S
C2114 C2115 1.327 . S
C2115 H2109 0.950 . S
C2115 C2114 1.327 . S
C2115 C2119 1.429 . S
C2116 C2099 1.574 . S
C2116 H2110 0.949 . S
C2116 C2120 1.368 . S
C2117 C2098 1.429 . S
C2117 C2111 1.429 . S
C2117 C2118 1.523 . S
C2118 C2099 1.368 . S
C2118 C2112 1.368 . S
C2118 C2117 1.523 . S
C2119 C2103 1.429 . S
C2119 C2115 1.429 . S
C2119 C2120 1.523 . S
C2120 C2104 1.368 . S
C2120 C2116 1.368 . S
C2120 C2119 1.523 . S
H2121 C2096 0.950 . S
H2122 C2098 0.950 . S
H2123 C2099 0.949 . S
H2124 C2101 0.950 . S
H2125 C2103 0.950 . S
C2126 C2127 1.349 . S
C2126 C2128 1.327 . S
C2126 H2151 0.950 . S
C2127 C2126 1.349 . S
C2127 C2143 1.349 . S
C2128 C2126 1.327 . S
C2128 C2147 1.429 . S
C2128 H2152 0.950 . S
C2129 C2146 1.574 . S
C2129 C2148 1.368 . S
C2129 H2153 0.949 . S
H2130 C2134 0.949 . S
C2131 C2132 1.349 . S
C2131 C2133 1.327 . S
C2131 H2154 0.950 . S
C2132 C2131 1.349 . S
C2132 C2144 1.349 . S
C2133 C2131 1.327 . S
C2133 C2149 1.429 . S
C2133 H2155 0.950 . S
C2134 H2130 0.949 . S
C2134 C2142 1.574 . S
C2134 C2150 1.368 . S
H2135 C2143 0.950 . S
H2136 C2141 0.950 . S
H2137 C2142 0.949 . S
H2138 C2144 0.950 . S
H2139 C2145 0.950 . S
H2140 C2146 0.949 . S
C2141 H2136 0.950 . S
C2141 C2143 1.327 . S
C2141 C2147 1.429 . S
C2142 C2134 1.574 . S
C2142 H2137 0.949 . S
C2142 C2148 1.368 . S
C2143 C2127 1.349 . S
C2143 H2135 0.950 . S
C2143 C2141 1.327 . S
C2144 C2132 1.349 . S
C2144 H2138 0.950 . S
C2144 C2145 1.327 . S
C2145 H2139 0.950 . S
C2145 C2144 1.327 . S
C2145 C2149 1.429 . S
C2146 C2129 1.574 . S
C2146 H2140 0.949 . S
C2146 C2150 1.368 . S
C2147 C2128 1.429 . S
C2147 C2141 1.429 . S
C2147 C2148 1.523 . S
C2148 C2129 1.368 . S
C2148 C2142 1.368 . S
C2148 C2147 1.523 . S
C2149 C2133 1.429 . S
C2149 C2145 1.429 . S
C2149 C2150 1.523 . S
C2150 C2134 1.368 . S
C2150 C2146 1.368 . S
C2150 C2149 1.523 . S
H2151 C2126 0.950 . S
H2152 C2128 0.950 . S
H2153 C2129 0.949 . S
H2154 C2131 0.950 . S
H2155 C2133 0.950 . S
C2156 C2157 1.349 . S
C2156 C2158 1.327 . S
C2156 H2181 0.950 . S
C2157 C2156 1.349 . S
C2157 C2173 1.349 1_455 S
C2158 C2156 1.327 . S
C2158 C2177 1.429 . S
C2158 H2182 0.950 . S
C2159 C2176 1.574 . S
C2159 C2178 1.368 1_655 S
C2159 H2183 0.949 . S
H2160 C2164 0.949 . S
C2161 C2162 1.349 1_655 S
C2161 C2163 1.327 . S
C2161 H2184 0.950 . S
C2162 C2161 1.349 1_455 S
C2162 C2174 1.349 . S
C2163 C2161 1.327 . S
C2163 C2179 1.429 1_655 S
C2163 H2185 0.950 . S
C2164 H2160 0.949 . S
C2164 C2172 1.574 . S
C2164 C2180 1.368 . S
H2165 C2173 0.950 . S
H2166 C2171 0.950 . S
H2167 C2172 0.949 . S
H2168 C2174 0.950 1_554 S
H2169 C2175 0.950 . S
H2170 C2176 0.949 . S
C2171 H2166 0.950 . S
C2171 C2173 1.327 . S
C2171 C2177 1.429 1_655 S
C2172 C2164 1.574 . S
C2172 H2167 0.949 . S
C2172 C2178 1.368 . S
C2173 C2157 1.349 1_655 S
C2173 H2165 0.950 . S
C2173 C2171 1.327 . S
C2174 C2162 1.349 . S
C2174 H2168 0.950 1_556 S
C2174 C2175 1.327 . S
C2175 H2169 0.950 . S
C2175 C2174 1.327 . S
C2175 C2179 1.429 . S
C2176 C2159 1.574 . S
C2176 H2170 0.949 . S
C2176 C2180 1.368 1_655 S
C2177 C2158 1.429 . S
C2177 C2171 1.429 1_455 S
C2177 C2178 1.523 . S
C2178 C2159 1.368 1_455 S
C2178 C2172 1.368 . S
C2178 C2177 1.523 . S
C2179 C2163 1.429 1_455 S
C2179 C2175 1.429 . S
C2179 C2180 1.523 . S
C2180 C2164 1.368 . S
C2180 C2176 1.368 1_455 S
C2180 C2179 1.523 . S
H2181 C2156 0.950 . S
H2182 C2158 0.950 . S
H2183 C2159 0.949 . S
H2184 C2161 0.950 . S
H2185 C2163 0.950 . S
C2186 C2187 1.349 . S
C2186 C2188 1.327 . S
C2186 H2211 0.950 . S
C2187 C2186 1.349 . S
C2187 C2203 1.349 . S
C2188 C2186 1.327 . S
C2188 C2207 1.429 . S
C2188 H2212 0.950 . S
C2189 C2206 1.574 . S
C2189 C2208 1.368 . S
C2189 H2213 0.949 . S
H2190 C2194 0.949 . S
C2191 C2192 1.349 . S
C2191 C2193 1.327 . S
C2191 H2214 0.950 . S
C2192 C2191 1.349 . S
C2192 C2204 1.349 . S
C2193 C2191 1.327 . S
C2193 C2209 1.429 . S
C2193 H2215 0.950 . S
C2194 H2190 0.949 . S
C2194 C2202 1.574 . S
C2194 C2210 1.368 . S
H2195 C2203 0.950 . S
H2196 C2201 0.950 . S
H2197 C2202 0.949 . S
H2198 C2204 0.950 . S
H2199 C2205 0.950 . S
H2200 C2206 0.949 . S
C2201 H2196 0.950 . S
C2201 C2203 1.327 . S
C2201 C2207 1.429 . S
C2202 C2194 1.574 . S
C2202 H2197 0.949 . S
C2202 C2208 1.368 . S
C2203 C2187 1.349 . S
C2203 H2195 0.950 . S
C2203 C2201 1.327 . S
C2204 C2192 1.349 . S
C2204 H2198 0.950 . S
C2204 C2205 1.327 . S
C2205 H2199 0.950 . S
C2205 C2204 1.327 . S
C2205 C2209 1.429 . S
C2206 C2189 1.574 . S
C2206 H2200 0.949 . S
C2206 C2210 1.368 . S
C2207 C2188 1.429 . S
C2207 C2201 1.429 . S
C2207 C2208 1.523 . S
C2208 C2189 1.368 . S
C2208 C2202 1.368 . S
C2208 C2207 1.523 . S
C2209 C2193 1.429 . S
C2209 C2205 1.429 . S
C2209 C2210 1.523 . S
C2210 C2194 1.368 . S
C2210 C2206 1.368 . S
C2210 C2209 1.523 . S
H2211 C2186 0.950 . S
H2212 C2188 0.950 . S
H2213 C2189 0.949 . S
H2214 C2191 0.950 . S
H2215 C2193 0.950 . S
C2216 C2217 1.349 . S
C2216 C2218 1.327 . S
C2216 H2241 0.950 . S
C2217 C2216 1.349 . S
C2217 C2233 1.349 . S
C2218 C2216 1.327 . S
C2218 C2237 1.429 . S
C2218 H2242 0.950 . S
C2219 C2236 1.574 . S
C2219 C2238 1.368 . S
C2219 H2243 0.949 . S
H2220 C2224 0.949 . S
C2221 C2222 1.349 . S
C2221 C2223 1.327 . S
C2221 H2244 0.950 . S
C2222 C2221 1.349 . S
C2222 C2234 1.349 . S
C2223 C2221 1.327 . S
C2223 C2239 1.429 . S
C2223 H2245 0.950 . S
C2224 H2220 0.949 . S
C2224 C2232 1.574 . S
C2224 C2240 1.368 . S
H2225 C2233 0.950 . S
H2226 C2231 0.950 . S
H2227 C2232 0.949 . S
H2228 C2234 0.950 . S
H2229 C2235 0.950 . S
H2230 C2236 0.949 . S
C2231 H2226 0.950 . S
C2231 C2233 1.327 . S
C2231 C2237 1.429 . S
C2232 C2224 1.574 . S
C2232 H2227 0.949 . S
C2232 C2238 1.368 . S
C2233 C2217 1.349 . S
C2233 H2225 0.950 . S
C2233 C2231 1.327 . S
C2234 C2222 1.349 . S
C2234 H2228 0.950 . S
C2234 C2235 1.327 . S
C2235 H2229 0.950 . S
C2235 C2234 1.327 . S
C2235 C2239 1.429 . S
C2236 C2219 1.574 . S
C2236 H2230 0.949 . S
C2236 C2240 1.368 . S
C2237 C2218 1.429 . S
C2237 C2231 1.429 . S
C2237 C2238 1.523 . S
C2238 C2219 1.368 . S
C2238 C2232 1.368 . S
C2238 C2237 1.523 . S
C2239 C2223 1.429 . S
C2239 C2235 1.429 . S
C2239 C2240 1.523 . S
C2240 C2224 1.368 . S
C2240 C2236 1.368 . S
C2240 C2239 1.523 . S
H2241 C2216 0.950 . S
H2242 C2218 0.950 . S
H2243 C2219 0.949 . S
H2244 C2221 0.950 . S
H2245 C2223 0.950 . S
C2246 C2247 1.349 . S
C2246 C2248 1.327 . S
C2246 H2271 0.950 . S
C2247 C2246 1.349 . S
C2247 C2263 1.349 . S
C2248 C2246 1.327 . S
C2248 C2267 1.429 . S
C2248 H2272 0.950 . S
C2249 C2266 1.574 . S
C2249 C2268 1.368 . S
C2249 H2273 0.949 . S
H2250 C2254 0.949 . S
C2251 C2252 1.349 . S
C2251 C2253 1.327 . S
C2251 H2274 0.950 . S
C2252 C2251 1.349 . S
C2252 C2264 1.349 . S
C2253 C2251 1.327 . S
C2253 C2269 1.429 . S
C2253 H2275 0.950 . S
C2254 H2250 0.949 . S
C2254 C2262 1.574 . S
C2254 C2270 1.368 . S
H2255 C2263 0.950 . S
H2256 C2261 0.950 . S
H2257 C2262 0.949 . S
H2258 C2264 0.950 . S
H2259 C2265 0.950 . S
H2260 C2266 0.949 . S
C2261 H2256 0.950 . S
C2261 C2263 1.327 . S
C2261 C2267 1.429 . S
C2262 C2254 1.574 . S
C2262 H2257 0.949 . S
C2262 C2268 1.368 . S
C2263 C2247 1.349 . S
C2263 H2255 0.950 . S
C2263 C2261 1.327 . S
C2264 C2252 1.349 . S
C2264 H2258 0.950 . S
C2264 C2265 1.327 . S
C2265 H2259 0.950 . S
C2265 C2264 1.327 . S
C2265 C2269 1.429 . S
C2266 C2249 1.574 . S
C2266 H2260 0.949 . S
C2266 C2270 1.368 . S
C2267 C2248 1.429 . S
C2267 C2261 1.429 . S
C2267 C2268 1.523 . S
C2268 C2249 1.368 . S
C2268 C2262 1.368 . S
C2268 C2267 1.523 . S
C2269 C2253 1.429 . S
C2269 C2265 1.429 . S
C2269 C2270 1.523 . S
C2270 C2254 1.368 . S
C2270 C2266 1.368 . S
C2270 C2269 1.523 . S
H2271 C2246 0.950 . S
H2272 C2248 0.950 . S
H2273 C2249 0.949 . S
H2274 C2251 0.950 . S
H2275 C2253 0.950 . S
C2276 C2277 1.349 1_455 S
C2276 C2278 1.327 . S
C2276 H2301 0.950 . S
C2277 C2276 1.349 1_655 S
C2277 C2293 1.349 . S
C2278 C2276 1.327 . S
C2278 C2297 1.429 1_455 S
C2278 H2302 0.950 . S
C2279 C2296 1.574 . S
C2279 C2298 1.368 . S
C2279 H2303 0.949 . S
H2280 C2284 0.949 . S
C2281 C2282 1.349 1_655 S
C2281 C2283 1.327 . S
C2281 H2304 0.950 . S
C2282 C2281 1.349 1_455 S
C2282 C2294 1.349 . S
C2283 C2281 1.327 . S
C2283 C2299 1.428 . S
C2283 H2305 0.950 . S
C2284 H2280 0.949 . S
C2284 C2292 1.574 . S
C2284 C2300 1.351 1_455 S
H2285 C2293 0.950 . S
H2286 C2291 0.950 . S
H2287 C2292 0.949 . S
H2288 C2294 0.950 . S
H2289 C2295 0.950 . S
H2290 C2296 0.949 . S
C2291 H2286 0.950 . S
C2291 C2293 1.327 . S
C2291 C2297 1.429 . S
C2292 C2284 1.574 . S
C2292 H2287 0.949 . S
C2292 C2298 1.368 1_455 S
C2293 C2277 1.349 . S
C2293 H2285 0.950 . S
C2293 C2291 1.327 . S
C2294 C2282 1.349 . S
C2294 H2288 0.950 . S
C2294 C2295 1.327 . S
C2295 H2289 0.950 . S
C2295 C2294 1.327 . S
C2295 C2299 1.430 1_455 S
C2296 C2279 1.574 . S
C2296 H2290 0.949 . S
C2296 C2300 1.395 . S
C2297 C2278 1.429 1_655 S
C2297 C2291 1.429 . S
C2297 C2298 1.523 . S
C2298 C2279 1.368 . S
C2298 C2292 1.368 1_655 S
C2298 C2297 1.523 . S
C2299 C2283 1.428 . S
C2299 C2295 1.430 1_655 S
C2299 C2300 1.512 . S
C2300 C2284 1.351 1_655 S
C2300 C2296 1.395 . S
C2300 C2299 1.512 . S
H2301 C2276 0.950 . S
H2302 C2278 0.950 . S
H2303 C2279 0.949 . S
H2304 C2281 0.950 . S
H2305 C2283 0.950 . S
C2306 C2307 1.349 . S
C2306 C2308 1.327 . S
C2306 H2331 0.950 . S
C2307 C2306 1.349 . S
C2307 C2323 1.349 . S
C2308 C2306 1.327 . S
C2308 C2327 1.429 . S
C2308 H2332 0.950 . S
C2309 C2326 1.574 . S
C2309 C2328 1.368 . S
C2309 H2333 0.949 . S
H2310 C2314 0.949 . S
C2311 C2312 1.349 . S
C2311 C2313 1.327 . S
C2311 H2334 0.950 . S
C2312 C2311 1.349 . S
C2312 C2324 1.349 . S
C2313 C2311 1.327 . S
C2313 C2329 1.429 . S
C2313 H2335 0.950 . S
C2314 H2310 0.949 . S
C2314 C2322 1.574 . S
C2314 C2330 1.368 . S
H2315 C2323 0.950 . S
H2316 C2321 0.950 . S
H2317 C2322 0.949 . S
H2318 C2324 0.950 . S
H2319 C2325 0.950 . S
H2320 C2326 0.949 . S
C2321 H2316 0.950 . S
C2321 C2323 1.327 . S
C2321 C2327 1.429 . S
C2322 C2314 1.574 . S
C2322 H2317 0.949 . S
C2322 C2328 1.368 . S
C2323 C2307 1.349 . S
C2323 H2315 0.950 . S
C2323 C2321 1.327 . S
C2324 C2312 1.349 . S
C2324 H2318 0.950 . S
C2324 C2325 1.327 . S
C2325 H2319 0.950 . S
C2325 C2324 1.327 . S
C2325 C2329 1.429 . S
C2326 C2309 1.574 . S
C2326 H2320 0.949 . S
C2326 C2330 1.368 . S
C2327 C2308 1.429 . S
C2327 C2321 1.429 . S
C2327 C2328 1.523 . S
C2328 C2309 1.368 . S
C2328 C2322 1.368 . S
C2328 C2327 1.523 . S
C2329 C2313 1.429 . S
C2329 C2325 1.429 . S
C2329 C2330 1.523 . S
C2330 C2314 1.368 . S
C2330 C2326 1.368 . S
C2330 C2329 1.523 . S
H2331 C2306 0.950 . S
H2332 C2308 0.950 . S
H2333 C2309 0.949 . S
H2334 C2311 0.950 . S
H2335 C2313 0.950 . S
C2336 C2337 1.349 . S
C2336 C2338 1.327 . S
C2336 H2361 0.950 . S
C2337 C2336 1.349 . S
C2337 C2353 1.349 . S
C2338 C2336 1.327 . S
C2338 C2357 1.429 . S
C2338 H2362 0.950 . S
C2339 C2356 1.574 . S
C2339 C2358 1.368 . S
C2339 H2363 0.949 . S
H2340 C2344 0.949 . S
C2341 C2342 1.349 . S
C2341 C2343 1.327 . S
C2341 H2364 0.950 . S
C2342 C2341 1.349 . S
C2342 C2354 1.349 . S
C2343 C2341 1.327 . S
C2343 C2359 1.429 . S
C2343 H2365 0.950 . S
C2344 H2340 0.949 . S
C2344 C2352 1.574 . S
C2344 C2360 1.368 . S
H2345 C2353 0.950 . S
H2346 C2351 0.950 . S
H2347 C2352 0.949 . S
H2348 C2354 0.950 . S
H2349 C2355 0.950 . S
H2350 C2356 0.949 . S
C2351 H2346 0.950 . S
C2351 C2353 1.327 . S
C2351 C2357 1.429 . S
C2352 C2344 1.574 . S
C2352 H2347 0.949 . S
C2352 C2358 1.368 . S
C2353 C2337 1.349 . S
C2353 H2345 0.950 . S
C2353 C2351 1.327 . S
C2354 C2342 1.349 . S
C2354 H2348 0.950 . S
C2354 C2355 1.327 . S
C2355 H2349 0.950 . S
C2355 C2354 1.327 . S
C2355 C2359 1.429 . S
C2356 C2339 1.574 . S
C2356 H2350 0.949 . S
C2356 C2360 1.368 . S
C2357 C2338 1.429 . S
C2357 C2351 1.429 . S
C2357 C2358 1.523 . S
C2358 C2339 1.368 . S
C2358 C2352 1.368 . S
C2358 C2357 1.523 . S
C2359 C2343 1.429 . S
C2359 C2355 1.429 . S
C2359 C2360 1.523 . S
C2360 C2344 1.368 . S
C2360 C2356 1.368 . S
C2360 C2359 1.523 . S
H2361 C2336 0.950 . S
H2362 C2338 0.950 . S
H2363 C2339 0.949 . S
H2364 C2341 0.950 . S
H2365 C2343 0.950 . S
C2366 C2367 1.349 . S
C2366 C2368 1.327 . S
C2366 H2391 0.950 . S
C2367 C2366 1.349 . S
C2367 C2383 1.349 . S
C2368 C2366 1.327 . S
C2368 C2387 1.429 . S
C2368 H2392 0.950 . S
C2369 C2386 1.574 . S
C2369 C2388 1.368 . S
C2369 H2393 0.949 . S
H2370 C2374 0.949 . S
C2371 C2372 1.349 . S
C2371 C2373 1.327 . S
C2371 H2394 0.950 . S
C2372 C2371 1.349 . S
C2372 C2384 1.349 . S
C2373 C2371 1.327 . S
C2373 C2389 1.429 . S
C2373 H2395 0.950 . S
C2374 H2370 0.949 . S
C2374 C2382 1.574 . S
C2374 C2390 1.368 . S
H2375 C2383 0.950 . S
H2376 C2381 0.950 . S
H2377 C2382 0.949 . S
H2378 C2384 0.950 . S
H2379 C2385 0.950 . S
H2380 C2386 0.949 . S
C2381 H2376 0.950 . S
C2381 C2383 1.327 . S
C2381 C2387 1.429 . S
C2382 C2374 1.574 . S
C2382 H2377 0.949 . S
C2382 C2388 1.368 . S
C2383 C2367 1.349 . S
C2383 H2375 0.950 . S
C2383 C2381 1.327 . S
C2384 C2372 1.349 . S
C2384 H2378 0.950 . S
C2384 C2385 1.327 . S
C2385 H2379 0.950 . S
C2385 C2384 1.327 . S
C2385 C2389 1.429 . S
C2386 C2369 1.574 . S
C2386 H2380 0.949 . S
C2386 C2390 1.368 . S
C2387 C2368 1.429 . S
C2387 C2381 1.429 . S
C2387 C2388 1.523 . S
C2388 C2369 1.368 . S
C2388 C2382 1.368 . S
C2388 C2387 1.523 . S
C2389 C2373 1.429 . S
C2389 C2385 1.429 . S
C2389 C2390 1.523 . S
C2390 C2374 1.368 . S
C2390 C2386 1.368 . S
C2390 C2389 1.523 . S
H2391 C2366 0.950 . S
H2392 C2368 0.950 . S
H2393 C2369 0.949 . S
H2394 C2371 0.950 . S
H2395 C2373 0.950 . S
C2396 C2397 1.349 . S
C2396 C2398 1.327 . S
C2396 H2421 0.950 . S
C2397 C2396 1.349 . S
C2397 C2413 1.349 . S
C2398 C2396 1.327 . S
C2398 C2417 1.429 . S
C2398 H2422 0.950 . S
C2399 C2416 1.574 . S
C2399 C2418 1.368 . S
C2399 H2423 0.949 . S
H2400 C2404 0.949 . S
C2401 C2402 1.349 . S
C2401 C2403 1.327 . S
C2401 H2424 0.950 . S
C2402 C2401 1.349 . S
C2402 C2414 1.349 . S
C2403 C2401 1.327 . S
C2403 C2419 1.429 . S
C2403 H2425 0.950 . S
C2404 H2400 0.949 . S
C2404 C2412 1.574 . S
C2404 C2420 1.368 . S
H2405 C2413 0.950 . S
H2406 C2411 0.950 . S
H2407 C2412 0.949 . S
H2408 C2414 0.950 . S
H2409 C2415 0.950 . S
H2410 C2416 0.949 . S
C2411 H2406 0.950 . S
C2411 C2413 1.327 . S
C2411 C2417 1.429 . S
C2412 C2404 1.574 . S
C2412 H2407 0.949 . S
C2412 C2418 1.368 . S
C2413 C2397 1.349 . S
C2413 H2405 0.950 . S
C2413 C2411 1.327 . S
C2414 C2402 1.349 . S
C2414 H2408 0.950 . S
C2414 C2415 1.327 . S
C2415 H2409 0.950 . S
C2415 C2414 1.327 . S
C2415 C2419 1.429 . S
C2416 C2399 1.574 . S
C2416 H2410 0.949 . S
C2416 C2420 1.368 . S
C2417 C2398 1.429 . S
C2417 C2411 1.429 . S
C2417 C2418 1.523 . S
C2418 C2399 1.368 . S
C2418 C2412 1.368 . S
C2418 C2417 1.523 . S
C2419 C2403 1.429 . S
C2419 C2415 1.429 . S
C2419 C2420 1.523 . S
C2420 C2404 1.368 . S
C2420 C2416 1.368 . S
C2420 C2419 1.523 . S
H2421 C2396 0.950 . S
H2422 C2398 0.950 . S
H2423 C2399 0.949 . S
H2424 C2401 0.950 . S
H2425 C2403 0.950 . S
C2426 C2427 1.349 . S
C2426 C2428 1.327 . S
C2426 H2451 0.950 . S
C2427 C2426 1.349 . S
C2427 C2443 1.349 . S
C2428 C2426 1.327 . S
C2428 C2447 1.429 . S
C2428 H2452 0.950 . S
C2429 C2446 1.574 . S
C2429 C2448 1.368 . S
C2429 H2453 0.949 . S
H2430 C2434 0.949 . S
C2431 C2432 1.349 . S
C2431 C2433 1.327 . S
C2431 H2454 0.950 . S
C2432 C2431 1.349 . S
C2432 C2444 1.349 . S
C2433 C2431 1.327 . S
C2433 C2449 1.429 . S
C2433 H2455 0.950 . S
C2434 H2430 0.949 . S
C2434 C2442 1.574 . S
C2434 C2450 1.368 . S
H2435 C2443 0.950 . S
H2436 C2441 0.950 . S
H2437 C2442 0.949 . S
H2438 C2444 0.950 . S
H2439 C2445 0.950 . S
H2440 C2446 0.949 . S
C2441 H2436 0.950 . S
C2441 C2443 1.327 . S
C2441 C2447 1.429 . S
C2442 C2434 1.574 . S
C2442 H2437 0.949 . S
C2442 C2448 1.368 . S
C2443 C2427 1.349 . S
C2443 H2435 0.950 . S
C2443 C2441 1.327 . S
C2444 C2432 1.349 . S
C2444 H2438 0.950 . S
C2444 C2445 1.327 . S
C2445 H2439 0.950 . S
C2445 C2444 1.327 . S
C2445 C2449 1.429 . S
C2446 C2429 1.574 . S
C2446 H2440 0.949 . S
C2446 C2450 1.368 . S
C2447 C2428 1.429 . S
C2447 C2441 1.429 . S
C2447 C2448 1.523 . S
C2448 C2429 1.368 . S
C2448 C2442 1.368 . S
C2448 C2447 1.523 . S
C2449 C2433 1.429 . S
C2449 C2445 1.429 . S
C2449 C2450 1.523 . S
C2450 C2434 1.368 . S
C2450 C2446 1.368 . S
C2450 C2449 1.523 . S
H2451 C2426 0.950 . S
H2452 C2428 0.950 . S
H2453 C2429 0.949 . S
H2454 C2431 0.950 . S
H2455 C2433 0.950 . S
C2456 C2457 1.349 . S
C2456 C2458 1.327 . S
C2456 H2481 0.950 . S
C2457 C2456 1.349 . S
C2457 C2473 1.349 . S
C2458 C2456 1.327 . S
C2458 C2477 1.429 . S
C2458 H2482 0.950 . S
C2459 C2476 1.574 . S
C2459 C2478 1.368 . S
C2459 H2483 0.949 . S
H2460 C2464 0.949 . S
C2461 C2462 1.349 . S
C2461 C2463 1.327 . S
C2461 H2484 0.950 . S
C2462 C2461 1.349 . S
C2462 C2474 1.349 . S
C2463 C2461 1.327 . S
C2463 C2479 1.429 . S
C2463 H2485 0.950 . S
C2464 H2460 0.949 . S
C2464 C2472 1.574 . S
C2464 C2480 1.368 . S
H2465 C2473 0.950 . S
H2466 C2471 0.950 . S
H2467 C2472 0.949 . S
H2468 C2474 0.950 . S
H2469 C2475 0.950 . S
H2470 C2476 0.949 . S
C2471 H2466 0.950 . S
C2471 C2473 1.327 . S
C2471 C2477 1.429 . S
C2472 C2464 1.574 . S
C2472 H2467 0.949 . S
C2472 C2478 1.368 . S
C2473 C2457 1.349 . S
C2473 H2465 0.950 . S
C2473 C2471 1.327 . S
C2474 C2462 1.349 . S
C2474 H2468 0.950 . S
C2474 C2475 1.327 . S
C2475 H2469 0.950 . S
C2475 C2474 1.327 . S
C2475 C2479 1.429 . S
C2476 C2459 1.574 . S
C2476 H2470 0.949 . S
C2476 C2480 1.368 . S
C2477 C2458 1.429 . S
C2477 C2471 1.429 . S
C2477 C2478 1.523 . S
C2478 C2459 1.368 . S
C2478 C2472 1.368 . S
C2478 C2477 1.523 . S
C2479 C2463 1.429 . S
C2479 C2475 1.429 . S
C2479 C2480 1.523 . S
C2480 C2464 1.368 . S
C2480 C2476 1.368 . S
C2480 C2479 1.523 . S
H2481 C2456 0.950 . S
H2482 C2458 0.950 . S
H2483 C2459 0.949 . S
H2484 C2461 0.950 . S
H2485 C2463 0.950 . S
C2486 C2487 1.349 . S
C2486 C2488 1.327 . S
C2486 H2511 0.950 . S
C2487 C2486 1.349 . S
C2487 C2503 1.349 . S
C2488 C2486 1.327 . S
C2488 C2507 1.429 . S
C2488 H2512 0.950 . S
C2489 C2506 1.574 . S
C2489 C2508 1.368 . S
C2489 H2513 0.949 . S
H2490 C2494 0.949 . S
C2491 C2492 1.349 . S
C2491 C2493 1.327 . S
C2491 H2514 0.950 . S
C2492 C2491 1.349 . S
C2492 C2504 1.349 . S
C2493 C2491 1.327 . S
C2493 C2509 1.429 . S
C2493 H2515 0.950 . S
C2494 H2490 0.949 . S
C2494 C2502 1.574 . S
C2494 C2510 1.368 . S
H2495 C2503 0.950 . S
H2496 C2501 0.950 . S
H2497 C2502 0.949 . S
H2498 C2504 0.950 . S
H2499 C2505 0.950 . S
H2500 C2506 0.949 . S
C2501 H2496 0.950 . S
C2501 C2503 1.327 . S
C2501 C2507 1.429 . S
C2502 C2494 1.574 . S
C2502 H2497 0.949 . S
C2502 C2508 1.368 . S
C2503 C2487 1.349 . S
C2503 H2495 0.950 . S
C2503 C2501 1.327 . S
C2504 C2492 1.349 . S
C2504 H2498 0.950 . S
C2504 C2505 1.327 . S
C2505 H2499 0.950 . S
C2505 C2504 1.327 . S
C2505 C2509 1.429 . S
C2506 C2489 1.574 . S
C2506 H2500 0.949 . S
C2506 C2510 1.368 . S
C2507 C2488 1.429 . S
C2507 C2501 1.429 . S
C2507 C2508 1.523 . S
C2508 C2489 1.368 . S
C2508 C2502 1.368 . S
C2508 C2507 1.523 . S
C2509 C2493 1.429 . S
C2509 C2505 1.429 . S
C2509 C2510 1.523 . S
C2510 C2494 1.368 . S
C2510 C2506 1.368 . S
C2510 C2509 1.523 . S
H2511 C2486 0.950 . S
H2512 C2488 0.950 . S
H2513 C2489 0.949 . S
H2514 C2491 0.950 . S
H2515 C2493 0.950 . S
C2516 C2517 1.349 . S
C2516 C2518 1.327 . S
C2516 H2541 0.950 . S
C2517 C2516 1.349 . S
C2517 C2533 1.349 . S
C2518 C2516 1.327 . S
C2518 C2537 1.429 . S
C2518 H2542 0.950 . S
C2519 C2536 1.574 . S
C2519 C2538 1.368 . S
C2519 H2543 0.949 . S
H2520 C2524 0.949 . S
C2521 C2522 1.349 . S
C2521 C2523 1.327 . S
C2521 H2544 0.950 . S
C2522 C2521 1.349 . S
C2522 C2534 1.349 . S
C2523 C2521 1.327 . S
C2523 C2539 1.429 . S
C2523 H2545 0.950 . S
C2524 H2520 0.949 . S
C2524 C2532 1.574 . S
C2524 C2540 1.368 . S
H2525 C2533 0.950 . S
H2526 C2531 0.950 . S
H2527 C2532 0.949 . S
H2528 C2534 0.950 . S
H2529 C2535 0.950 . S
H2530 C2536 0.949 . S
C2531 H2526 0.950 . S
C2531 C2533 1.327 . S
C2531 C2537 1.429 . S
C2532 C2524 1.574 . S
C2532 H2527 0.949 . S
C2532 C2538 1.368 . S
C2533 C2517 1.349 . S
C2533 H2525 0.950 . S
C2533 C2531 1.327 . S
C2534 C2522 1.349 . S
C2534 H2528 0.950 . S
C2534 C2535 1.327 . S
C2535 H2529 0.950 . S
C2535 C2534 1.327 . S
C2535 C2539 1.429 . S
C2536 C2519 1.574 . S
C2536 H2530 0.949 . S
C2536 C2540 1.368 . S
C2537 C2518 1.429 . S
C2537 C2531 1.429 . S
C2537 C2538 1.523 . S
C2538 C2519 1.368 . S
C2538 C2532 1.368 . S
C2538 C2537 1.523 . S
C2539 C2523 1.429 . S
C2539 C2535 1.429 . S
C2539 C2540 1.523 . S
C2540 C2524 1.368 . S
C2540 C2536 1.368 . S
C2540 C2539 1.523 . S
H2541 C2516 0.950 . S
H2542 C2518 0.950 . S
H2543 C2519 0.949 . S
H2544 C2521 0.950 . S
H2545 C2523 0.950 . S
C2546 C2547 1.349 . S
C2546 C2548 1.327 . S
C2546 H2571 0.950 . S
C2547 C2546 1.349 . S
C2547 C2563 1.349 . S
C2548 C2546 1.327 . S
C2548 C2567 1.429 . S
C2548 H2572 0.950 . S
C2549 C2566 1.574 . S
C2549 C2568 1.368 . S
C2549 H2573 0.949 . S
H2550 C2554 0.949 . S
C2551 C2552 1.349 . S
C2551 C2553 1.327 . S
C2551 H2574 0.950 . S
C2552 C2551 1.349 . S
C2552 C2564 1.349 . S
C2553 C2551 1.327 . S
C2553 C2569 1.429 . S
C2553 H2575 0.950 . S
C2554 H2550 0.949 . S
C2554 C2562 1.574 . S
C2554 C2570 1.368 . S
H2555 C2563 0.950 . S
H2556 C2561 0.950 . S
H2557 C2562 0.949 . S
H2558 C2564 0.950 . S
H2559 C2565 0.950 . S
H2560 C2566 0.949 . S
C2561 H2556 0.950 . S
C2561 C2563 1.327 . S
C2561 C2567 1.429 . S
C2562 C2554 1.574 . S
C2562 H2557 0.949 . S
C2562 C2568 1.368 . S
C2563 C2547 1.349 . S
C2563 H2555 0.950 . S
C2563 C2561 1.327 . S
C2564 C2552 1.349 . S
C2564 H2558 0.950 . S
C2564 C2565 1.327 . S
C2565 H2559 0.950 . S
C2565 C2564 1.327 . S
C2565 C2569 1.429 . S
C2566 C2549 1.574 . S
C2566 H2560 0.949 . S
C2566 C2570 1.368 . S
C2567 C2548 1.429 . S
C2567 C2561 1.429 . S
C2567 C2568 1.523 . S
C2568 C2549 1.368 . S
C2568 C2562 1.368 . S
C2568 C2567 1.523 . S
C2569 C2553 1.429 . S
C2569 C2565 1.429 . S
C2569 C2570 1.523 . S
C2570 C2554 1.368 . S
C2570 C2566 1.368 . S
C2570 C2569 1.523 . S
H2571 C2546 0.950 . S
H2572 C2548 0.950 . S
H2573 C2549 0.949 . S
H2574 C2551 0.950 . S
H2575 C2553 0.950 . S
C2576 C2577 1.349 . S
C2576 C2578 1.327 . S
C2576 H2601 0.950 . S
C2577 C2576 1.349 . S
C2577 C2593 1.349 . S
C2578 C2576 1.327 . S
C2578 C2597 1.429 . S
C2578 H2602 0.950 . S
C2579 C2596 1.574 . S
C2579 C2598 1.368 . S
C2579 H2603 0.949 . S
H2580 C2584 0.949 . S
C2581 C2582 1.349 . S
C2581 C2583 1.327 . S
C2581 H2604 0.950 . S
C2582 C2581 1.349 . S
C2582 C2594 1.349 . S
C2583 C2581 1.327 . S
C2583 C2599 1.429 . S
C2583 H2605 0.950 . S
C2584 H2580 0.949 . S
C2584 C2592 1.574 . S
C2584 C2600 1.368 . S
H2585 C2593 0.950 . S
H2586 C2591 0.950 . S
H2587 C2592 0.949 . S
H2588 C2594 0.950 . S
H2589 C2595 0.950 . S
H2590 C2596 0.949 . S
C2591 H2586 0.950 . S
C2591 C2593 1.327 . S
C2591 C2597 1.429 . S
C2592 C2584 1.574 . S
C2592 H2587 0.949 . S
C2592 C2598 1.368 . S
C2593 C2577 1.349 . S
C2593 H2585 0.950 . S
C2593 C2591 1.327 . S
C2594 C2582 1.349 . S
C2594 H2588 0.950 . S
C2594 C2595 1.327 . S
C2595 H2589 0.950 . S
C2595 C2594 1.327 . S
C2595 C2599 1.429 . S
C2596 C2579 1.574 . S
C2596 H2590 0.949 . S
C2596 C2600 1.368 . S
C2597 C2578 1.429 . S
C2597 C2591 1.429 . S
C2597 C2598 1.523 . S
C2598 C2579 1.368 . S
C2598 C2592 1.368 . S
C2598 C2597 1.523 . S
C2599 C2583 1.429 . S
C2599 C2595 1.429 . S
C2599 C2600 1.523 . S
C2600 C2584 1.368 . S
C2600 C2596 1.368 . S
C2600 C2599 1.523 . S
H2601 C2576 0.950 . S
H2602 C2578 0.950 . S
H2603 C2579 0.949 . S
H2604 C2581 0.950 . S
H2605 C2583 0.950 . S
C2606 C2607 1.349 . S
C2606 C2608 1.327 . S
C2606 H2631 0.950 . S
C2607 C2606 1.349 . S
C2607 C2623 1.349 . S
C2608 C2606 1.327 . S
C2608 C2627 1.429 . S
C2608 H2632 0.950 . S
C2609 C2626 1.574 . S
C2609 C2628 1.368 . S
C2609 H2633 0.949 . S
H2610 C2614 0.949 . S
C2611 C2612 1.349 . S
C2611 C2613 1.327 . S
C2611 H2634 0.950 . S
C2612 C2611 1.349 . S
C2612 C2624 1.349 . S
C2613 C2611 1.327 . S
C2613 C2629 1.429 . S
C2613 H2635 0.950 . S
C2614 H2610 0.949 . S
C2614 C2622 1.574 . S
C2614 C2630 1.368 . S
H2615 C2623 0.950 . S
H2616 C2621 0.950 . S
H2617 C2622 0.949 . S
H2618 C2624 0.950 . S
H2619 C2625 0.950 . S
H2620 C2626 0.949 . S
C2621 H2616 0.950 . S
C2621 C2623 1.327 . S
C2621 C2627 1.429 . S
C2622 C2614 1.574 . S
C2622 H2617 0.949 . S
C2622 C2628 1.368 . S
C2623 C2607 1.349 . S
C2623 H2615 0.950 . S
C2623 C2621 1.327 . S
C2624 C2612 1.349 . S
C2624 H2618 0.950 . S
C2624 C2625 1.327 . S
C2625 H2619 0.950 . S
C2625 C2624 1.327 . S
C2625 C2629 1.429 . S
C2626 C2609 1.574 . S
C2626 H2620 0.949 . S
C2626 C2630 1.368 . S
C2627 C2608 1.429 . S
C2627 C2621 1.429 . S
C2627 C2628 1.523 . S
C2628 C2609 1.368 . S
C2628 C2622 1.368 . S
C2628 C2627 1.523 . S
C2629 C2613 1.429 . S
C2629 C2625 1.429 . S
C2629 C2630 1.523 . S
C2630 C2614 1.368 . S
C2630 C2626 1.368 . S
C2630 C2629 1.523 . S
H2631 C2606 0.950 . S
H2632 C2608 0.950 . S
H2633 C2609 0.949 . S
H2634 C2611 0.950 . S
H2635 C2613 0.950 . S
C2636 C2637 1.349 . S
C2636 C2638 1.327 . S
C2636 H2661 0.950 . S
C2637 C2636 1.349 . S
C2637 C2653 1.349 . S
C2638 C2636 1.327 . S
C2638 C2657 1.429 . S
C2638 H2662 0.950 . S
C2639 C2656 1.574 . S
C2639 C2658 1.368 . S
C2639 H2663 0.949 . S
H2640 C2644 0.949 . S
C2641 C2642 1.349 . S
C2641 C2643 1.327 . S
C2641 H2664 0.950 . S
C2642 C2641 1.349 . S
C2642 C2654 1.349 . S
C2643 C2641 1.327 . S
C2643 C2659 1.429 . S
C2643 H2665 0.950 . S
C2644 H2640 0.949 . S
C2644 C2652 1.574 . S
C2644 C2660 1.368 . S
H2645 C2653 0.950 . S
H2646 C2651 0.950 . S
H2647 C2652 0.949 . S
H2648 C2654 0.950 . S
H2649 C2655 0.950 . S
H2650 C2656 0.949 . S
C2651 H2646 0.950 . S
C2651 C2653 1.327 . S
C2651 C2657 1.429 . S
C2652 C2644 1.574 . S
C2652 H2647 0.949 . S
C2652 C2658 1.368 . S
C2653 C2637 1.349 . S
C2653 H2645 0.950 . S
C2653 C2651 1.327 . S
C2654 C2642 1.349 . S
C2654 H2648 0.950 . S
C2654 C2655 1.327 . S
C2655 H2649 0.950 . S
C2655 C2654 1.327 . S
C2655 C2659 1.429 . S
C2656 C2639 1.574 . S
C2656 H2650 0.949 . S
C2656 C2660 1.368 . S
C2657 C2638 1.429 . S
C2657 C2651 1.429 . S
C2657 C2658 1.523 . S
C2658 C2639 1.368 . S
C2658 C2652 1.368 . S
C2658 C2657 1.523 . S
C2659 C2643 1.429 . S
C2659 C2655 1.429 . S
C2659 C2660 1.523 . S
C2660 C2644 1.368 . S
C2660 C2656 1.368 . S
C2660 C2659 1.523 . S
H2661 C2636 0.950 . S
H2662 C2638 0.950 . S
H2663 C2639 0.949 . S
H2664 C2641 0.950 . S
H2665 C2643 0.950 . S
C2666 C2667 1.349 . S
C2666 C2668 1.327 . S
C2666 H2691 0.950 . S
C2667 C2666 1.349 . S
C2667 C2683 1.349 . S
C2668 C2666 1.327 . S
C2668 C2687 1.429 . S
C2668 H2692 0.950 . S
C2669 C2686 1.574 . S
C2669 C2688 1.368 . S
C2669 H2693 0.949 . S
H2670 C2674 0.949 1_556 S
C2671 C2672 1.349 . S
C2671 C2673 1.327 1_545 S
C2671 H2694 0.950 . S
C2672 C2671 1.349 . S
C2672 C2684 1.349 . S
C2673 C2671 1.327 1_565 S
C2673 C2689 1.429 . S
C2673 H2695 0.950 . S
C2674 H2670 0.949 1_554 S
C2674 C2682 1.574 . S
C2674 C2690 1.368 . S
H2675 C2683 0.950 . S
H2676 C2681 0.950 . S
H2677 C2682 0.949 1_556 S
H2678 C2684 0.950 1_556 S
H2679 C2685 0.950 1_556 S
H2680 C2686 0.949 . S
C2681 H2676 0.950 . S
C2681 C2683 1.327 . S
C2681 C2687 1.429 . S
C2682 C2674 1.574 . S
C2682 H2677 0.949 1_554 S
C2682 C2688 1.368 . S
C2683 C2667 1.349 . S
C2683 H2675 0.950 . S
C2683 C2681 1.327 . S
C2684 C2672 1.349 . S
C2684 H2678 0.950 1_554 S
C2684 C2685 1.327 1_545 S
C2685 H2679 0.950 1_554 S
C2685 C2684 1.327 1_565 S
C2685 C2689 1.429 . S
C2686 C2669 1.574 . S
C2686 H2680 0.949 . S
C2686 C2690 1.368 . S
C2687 C2668 1.429 . S
C2687 C2681 1.429 . S
C2687 C2688 1.523 . S
C2688 C2669 1.368 . S
C2688 C2682 1.368 . S
C2688 C2687 1.523 . S
C2689 C2673 1.429 . S
C2689 C2685 1.429 . S
C2689 C2690 1.523 . S
C2690 C2674 1.368 . S
C2690 C2686 1.368 . S
C2690 C2689 1.523 . S
H2691 C2666 0.950 . S
H2692 C2668 0.950 . S
H2693 C2669 0.949 . S
H2694 C2671 0.950 . S
H2695 C2673 0.950 . S
C2696 C2697 1.349 . S
C2696 C2698 1.327 . S
C2696 H2721 0.950 . S
C2697 C2696 1.349 . S
C2697 C2713 1.349 . S
C2698 C2696 1.327 . S
C2698 C2717 1.429 . S
C2698 H2722 0.950 . S
C2699 C2716 1.574 . S
C2699 C2718 1.368 . S
C2699 H2723 0.949 . S
H2700 C2704 0.949 . S
C2701 C2702 1.349 . S
C2701 C2703 1.327 . S
C2701 H2724 0.950 . S
C2702 C2701 1.349 . S
C2702 C2714 1.349 . S
C2703 C2701 1.327 . S
C2703 C2719 1.429 . S
C2703 H2725 0.950 . S
C2704 H2700 0.949 . S
C2704 C2712 1.574 . S
C2704 C2720 1.368 . S
H2705 C2713 0.950 . S
H2706 C2711 0.950 . S
H2707 C2712 0.949 . S
H2708 C2714 0.950 . S
H2709 C2715 0.950 . S
H2710 C2716 0.949 . S
C2711 H2706 0.950 . S
C2711 C2713 1.327 . S
C2711 C2717 1.429 . S
C2712 C2704 1.574 . S
C2712 H2707 0.949 . S
C2712 C2718 1.368 . S
C2713 C2697 1.349 . S
C2713 H2705 0.950 . S
C2713 C2711 1.327 . S
C2714 C2702 1.349 . S
C2714 H2708 0.950 . S
C2714 C2715 1.327 . S
C2715 H2709 0.950 . S
C2715 C2714 1.327 . S
C2715 C2719 1.429 . S
C2716 C2699 1.574 . S
C2716 H2710 0.949 . S
C2716 C2720 1.368 . S
C2717 C2698 1.429 . S
C2717 C2711 1.429 . S
C2717 C2718 1.523 . S
C2718 C2699 1.368 . S
C2718 C2712 1.368 . S
C2718 C2717 1.523 . S
C2719 C2703 1.429 . S
C2719 C2715 1.429 . S
C2719 C2720 1.523 . S
C2720 C2704 1.368 . S
C2720 C2716 1.368 . S
C2720 C2719 1.523 . S
H2721 C2696 0.950 . S
H2722 C2698 0.950 . S
H2723 C2699 0.949 . S
H2724 C2701 0.950 . S
H2725 C2703 0.950 . S
C2726 C2727 1.349 . S
C2726 C2728 1.327 . S
C2726 H2751 0.950 . S
C2727 C2726 1.349 . S
C2727 C2743 1.349 1_554 S
C2728 C2726 1.327 . S
C2728 C2747 1.429 . S
C2728 H2752 0.950 . S
C2729 C2746 1.571 1_556 S
C2729 C2748 1.343 1_556 S
C2729 H2753 0.975 . S
H2730 C2734 0.949 . S
C2731 C2732 1.349 . S
C2731 C2733 1.327 . S
C2731 H2754 0.950 . S
C2732 C2731 1.349 . S
C2732 C2744 1.349 . S
C2733 C2731 1.327 . S
C2733 C2749 1.429 . S
C2733 H2755 0.950 1_554 S
C2734 H2730 0.949 . S
C2734 C2742 1.574 . S
C2734 C2750 1.368 . S
H2735 C2743 0.950 . S
H2736 C2741 0.950 . S
H2737 C2742 0.949 . S
H2738 C2744 0.950 . S
H2739 C2745 0.950 . S
H2740 C2746 0.949 1_556 S
C2741 H2736 0.950 . S
C2741 C2743 1.327 . S
C2741 C2747 1.429 1_556 S
C2742 C2734 1.574 . S
C2742 H2737 0.949 . S
C2742 C2748 1.368 . S
C2743 C2727 1.349 1_556 S
C2743 H2735 0.950 . S
C2743 C2741 1.327 . S
C2744 C2732 1.349 . S
C2744 H2738 0.950 . S
C2744 C2745 1.327 . S
C2745 H2739 0.950 . S
C2745 C2744 1.327 . S
C2745 C2749 1.429 . S
C2746 C2729 1.571 1_554 S
C2746 H2740 0.949 1_554 S
C2746 C2750 1.368 . S
C2747 C2728 1.429 . S
C2747 C2741 1.429 1_554 S
C2747 C2748 1.523 . S
C2748 C2729 1.343 1_554 S
C2748 C2742 1.368 . S
C2748 C2747 1.523 . S
C2749 C2733 1.429 . S
C2749 C2745 1.429 . S
C2749 C2750 1.523 . S
C2750 C2734 1.368 . S
C2750 C2746 1.368 . S
C2750 C2749 1.523 . S
H2751 C2726 0.950 . S
H2752 C2728 0.950 . S
H2753 C2729 0.975 . S
H2754 C2731 0.950 . S
H2755 C2733 0.950 1_556 S
C2756 C2757 1.349 . S
C2756 C2758 1.327 . S
C2756 H2781 0.950 . S
C2757 C2756 1.349 . S
C2757 C2773 1.349 . S
C2758 C2756 1.327 . S
C2758 C2777 1.429 . S
C2758 H2782 0.950 . S
C2759 C2776 1.574 . S
C2759 C2778 1.368 . S
C2759 H2783 0.949 . S
H2760 C2764 0.949 . S
C2761 C2762 1.349 . S
C2761 C2763 1.327 . S
C2761 H2784 0.950 . S
C2762 C2761 1.349 . S
C2762 C2774 1.349 . S
C2763 C2761 1.327 . S
C2763 C2779 1.429 . S
C2763 H2785 0.950 . S
C2764 H2760 0.949 . S
C2764 C2772 1.574 . S
C2764 C2780 1.368 . S
H2765 C2773 0.950 . S
H2766 C2771 0.950 . S
H2767 C2772 0.949 . S
H2768 C2774 0.950 . S
H2769 C2775 0.950 . S
H2770 C2776 0.949 . S
C2771 H2766 0.950 . S
C2771 C2773 1.327 . S
C2771 C2777 1.429 . S
C2772 C2764 1.574 . S
C2772 H2767 0.949 . S
C2772 C2778 1.368 . S
C2773 C2757 1.349 . S
C2773 H2765 0.950 . S
C2773 C2771 1.327 . S
C2774 C2762 1.349 . S
C2774 H2768 0.950 . S
C2774 C2775 1.327 . S
C2775 H2769 0.950 . S
C2775 C2774 1.327 . S
C2775 C2779 1.429 . S
C2776 C2759 1.574 . S
C2776 H2770 0.949 . S
C2776 C2780 1.368 . S
C2777 C2758 1.429 . S
C2777 C2771 1.429 . S
C2777 C2778 1.523 . S
C2778 C2759 1.368 . S
C2778 C2772 1.368 . S
C2778 C2777 1.523 . S
C2779 C2763 1.429 . S
C2779 C2775 1.429 . S
C2779 C2780 1.523 . S
C2780 C2764 1.368 . S
C2780 C2776 1.368 . S
C2780 C2779 1.523 . S
H2781 C2756 0.950 . S
H2782 C2758 0.950 . S
H2783 C2759 0.949 . S
H2784 C2761 0.950 . S
H2785 C2763 0.950 . S
C2786 C2787 1.349 1_565 S
C2786 C2788 1.327 . S
C2786 H2811 0.950 . S
C2787 C2786 1.349 1_545 S
C2787 C2803 1.349 . S
C2788 C2786 1.327 . S
C2788 C2807 1.429 . S
C2788 H2812 0.950 . S
C2789 C2806 1.574 . S
C2789 C2808 1.368 . S
C2789 H2813 0.949 . S
H2790 C2794 0.949 . S
C2791 C2792 1.349 . S
C2791 C2793 1.327 . S
C2791 H2814 0.950 . S
C2792 C2791 1.349 . S
C2792 C2804 1.349 . S
C2793 C2791 1.327 . S
C2793 C2809 1.429 . S
C2793 H2815 0.950 . S
C2794 H2790 0.949 . S
C2794 C2802 1.574 . S
C2794 C2810 1.368 . S
H2795 C2803 0.950 . S
H2796 C2801 0.950 . S
H2797 C2802 0.949 . S
H2798 C2804 0.950 . S
H2799 C2805 0.950 . S
H2800 C2806 0.949 . S
C2801 H2796 0.950 . S
C2801 C2803 1.327 1_565 S
C2801 C2807 1.429 . S
C2802 C2794 1.574 . S
C2802 H2797 0.949 . S
C2802 C2808 1.368 . S
C2803 C2787 1.349 . S
C2803 H2795 0.950 . S
C2803 C2801 1.327 1_545 S
C2804 C2792 1.349 . S
C2804 H2798 0.950 . S
C2804 C2805 1.327 . S
C2805 H2799 0.950 . S
C2805 C2804 1.327 . S
C2805 C2809 1.429 . S
C2806 C2789 1.574 . S
C2806 H2800 0.949 . S
C2806 C2810 1.368 . S
C2807 C2788 1.429 . S
C2807 C2801 1.429 . S
C2807 C2808 1.523 . S
C2808 C2789 1.368 . S
C2808 C2802 1.368 . S
C2808 C2807 1.523 . S
C2809 C2793 1.429 . S
C2809 C2805 1.429 . S
C2809 C2810 1.523 . S
C2810 C2794 1.368 . S
C2810 C2806 1.368 . S
C2810 C2809 1.523 . S
H2811 C2786 0.950 . S
H2812 C2788 0.950 . S
H2813 C2789 0.949 . S
H2814 C2791 0.950 . S
H2815 C2793 0.950 . S
C2816 C2817 1.349 . S
C2816 C2818 1.327 . S
C2816 H2841 0.950 . S
C2817 C2816 1.349 . S
C2817 C2833 1.349 . S
C2818 C2816 1.327 . S
C2818 C2837 1.429 . S
C2818 H2842 0.950 . S
C2819 C2836 1.574 . S
C2819 C2838 1.368 . S
C2819 H2843 0.949 . S
H2820 C2824 0.949 . S
C2821 C2822 1.349 . S
C2821 C2823 1.327 . S
C2821 H2844 0.950 . S
C2822 C2821 1.349 . S
C2822 C2834 1.349 . S
C2823 C2821 1.327 . S
C2823 C2839 1.429 . S
C2823 H2845 0.950 . S
C2824 H2820 0.949 . S
C2824 C2832 1.574 . S
C2824 C2840 1.368 . S
H2825 C2833 0.950 . S
H2826 C2831 0.950 . S
H2827 C2832 0.949 . S
H2828 C2834 0.950 . S
H2829 C2835 0.950 . S
H2830 C2836 0.949 . S
C2831 H2826 0.950 . S
C2831 C2833 1.327 . S
C2831 C2837 1.429 . S
C2832 C2824 1.574 . S
C2832 H2827 0.949 . S
C2832 C2838 1.368 . S
C2833 C2817 1.349 . S
C2833 H2825 0.950 . S
C2833 C2831 1.327 . S
C2834 C2822 1.349 . S
C2834 H2828 0.950 . S
C2834 C2835 1.327 . S
C2835 H2829 0.950 . S
C2835 C2834 1.327 . S
C2835 C2839 1.429 . S
C2836 C2819 1.574 . S
C2836 H2830 0.949 . S
C2836 C2840 1.368 . S
C2837 C2818 1.429 . S
C2837 C2831 1.429 . S
C2837 C2838 1.523 . S
C2838 C2819 1.368 . S
C2838 C2832 1.368 . S
C2838 C2837 1.523 . S
C2839 C2823 1.429 . S
C2839 C2835 1.429 . S
C2839 C2840 1.523 . S
C2840 C2824 1.368 . S
C2840 C2836 1.368 . S
C2840 C2839 1.523 . S
H2841 C2816 0.950 . S
H2842 C2818 0.950 . S
H2843 C2819 0.949 . S
H2844 C2821 0.950 . S
H2845 C2823 0.950 . S
C2846 C2847 1.349 . S
C2846 C2848 1.327 . S
C2846 H2871 0.950 . S
C2847 C2846 1.349 . S
C2847 C2863 1.349 . S
C2848 C2846 1.327 . S
C2848 C2867 1.429 . S
C2848 H2872 0.950 . S
C2849 C2866 1.574 . S
C2849 C2868 1.368 . S
C2849 H2873 0.949 . S
H2850 C2854 0.949 . S
C2851 C2852 1.349 . S
C2851 C2853 1.327 . S
C2851 H2874 0.950 . S
C2852 C2851 1.349 . S
C2852 C2864 1.349 . S
C2853 C2851 1.327 . S
C2853 C2869 1.429 . S
C2853 H2875 0.950 . S
C2854 H2850 0.949 . S
C2854 C2862 1.574 . S
C2854 C2870 1.368 . S
H2855 C2863 0.950 . S
H2856 C2861 0.950 . S
H2857 C2862 0.949 . S
H2858 C2864 0.950 . S
H2859 C2865 0.950 . S
H2860 C2866 0.949 . S
C2861 H2856 0.950 . S
C2861 C2863 1.327 . S
C2861 C2867 1.429 . S
C2862 C2854 1.574 . S
C2862 H2857 0.949 . S
C2862 C2868 1.368 . S
C2863 C2847 1.349 . S
C2863 H2855 0.950 . S
C2863 C2861 1.327 . S
C2864 C2852 1.349 . S
C2864 H2858 0.950 . S
C2864 C2865 1.327 . S
C2865 H2859 0.950 . S
C2865 C2864 1.327 . S
C2865 C2869 1.429 . S
C2866 C2849 1.574 . S
C2866 H2860 0.949 . S
C2866 C2870 1.368 . S
C2867 C2848 1.429 . S
C2867 C2861 1.429 . S
C2867 C2868 1.523 . S
C2868 C2849 1.368 . S
C2868 C2862 1.368 . S
C2868 C2867 1.523 . S
C2869 C2853 1.429 . S
C2869 C2865 1.429 . S
C2869 C2870 1.523 . S
C2870 C2854 1.368 . S
C2870 C2866 1.368 . S
C2870 C2869 1.523 . S
H2871 C2846 0.950 . S
H2872 C2848 0.950 . S
H2873 C2849 0.949 . S
H2874 C2851 0.950 . S
H2875 C2853 0.950 . S
C2876 C2877 1.349 1_655 S
C2876 C2878 1.327 . S
C2876 H2901 0.950 . S
C2877 C2876 1.349 1_455 S
C2877 C2893 1.349 . S
C2878 C2876 1.327 . S
C2878 C2897 1.429 1_655 S
C2878 H2902 0.950 . S
C2879 C2896 1.574 . S
C2879 C2898 1.368 . S
C2879 H2903 0.949 . S
H2880 C2884 0.949 . S
C2881 C2882 1.349 . S
C2881 C2883 1.327 . S
C2881 H2904 0.950 . S
C2882 C2881 1.349 . S
C2882 C2894 1.349 1_455 S
C2883 C2881 1.327 . S
C2883 C2899 1.429 . S
C2883 H2905 0.950 . S
C2884 H2880 0.949 . S
C2884 C2892 1.574 . S
C2884 C2900 1.368 1_655 S
H2885 C2893 0.950 . S
H2886 C2891 0.950 . S
H2887 C2892 0.949 . S
H2888 C2894 0.950 . S
H2889 C2895 0.950 . S
H2890 C2896 0.949 . S
C2891 H2886 0.950 . S
C2891 C2893 1.327 . S
C2891 C2897 1.429 . S
C2892 C2884 1.574 . S
C2892 H2887 0.949 . S
C2892 C2898 1.368 1_655 S
C2893 C2877 1.349 . S
C2893 H2885 0.950 . S
C2893 C2891 1.327 . S
C2894 C2882 1.349 1_655 S
C2894 H2888 0.950 . S
C2894 C2895 1.327 . S
C2895 H2889 0.950 . S
C2895 C2894 1.327 . S
C2895 C2899 1.429 1_655 S
C2896 C2879 1.574 . S
C2896 H2890 0.949 . S
C2896 C2900 1.368 . S
C2897 C2878 1.429 1_455 S
C2897 C2891 1.429 . S
C2897 C2898 1.523 . S
C2898 C2879 1.368 . S
C2898 C2892 1.368 1_455 S
C2898 C2897 1.523 . S
C2899 C2883 1.429 . S
C2899 C2895 1.429 1_455 S
C2899 C2900 1.523 . S
C2900 C2884 1.368 1_455 S
C2900 C2896 1.368 . S
C2900 C2899 1.523 . S
H2901 C2876 0.950 . S
H2902 C2878 0.950 . S
H2903 C2879 0.949 . S
H2904 C2881 0.950 . S
H2905 C2883 0.950 . S
C2906 C2907 1.349 . S
C2906 C2908 1.327 . S
C2906 H2931 0.950 . S
C2907 C2906 1.349 . S
C2907 C2923 1.349 . S
C2908 C2906 1.327 . S
C2908 C2927 1.429 . S
C2908 H2932 0.950 . S
C2909 C2926 1.574 . S
C2909 C2928 1.368 . S
C2909 H2933 0.949 . S
H2910 C2914 0.949 . S
C2911 C2912 1.349 . S
C2911 C2913 1.327 . S
C2911 H2934 0.950 . S
C2912 C2911 1.349 . S
C2912 C2924 1.349 . S
C2913 C2911 1.327 . S
C2913 C2929 1.429 . S
C2913 H2935 0.950 . S
C2914 H2910 0.949 . S
C2914 C2922 1.574 . S
C2914 C2930 1.368 . S
H2915 C2923 0.950 . S
H2916 C2921 0.950 . S
H2917 C2922 0.949 . S
H2918 C2924 0.950 . S
H2919 C2925 0.950 . S
H2920 C2926 0.949 . S
C2921 H2916 0.950 . S
C2921 C2923 1.327 . S
C2921 C2927 1.429 . S
C2922 C2914 1.574 . S
C2922 H2917 0.949 . S
C2922 C2928 1.368 . S
C2923 C2907 1.349 . S
C2923 H2915 0.950 . S
C2923 C2921 1.327 . S
C2924 C2912 1.349 . S
C2924 H2918 0.950 . S
C2924 C2925 1.327 . S
C2925 H2919 0.950 . S
C2925 C2924 1.327 . S
C2925 C2929 1.429 . S
C2926 C2909 1.574 . S
C2926 H2920 0.949 . S
C2926 C2930 1.368 . S
C2927 C2908 1.429 . S
C2927 C2921 1.429 . S
C2927 C2928 1.523 . S
C2928 C2909 1.368 . S
C2928 C2922 1.368 . S
C2928 C2927 1.523 . S
C2929 C2913 1.429 . S
C2929 C2925 1.429 . S
C2929 C2930 1.523 . S
C2930 C2914 1.368 . S
C2930 C2926 1.368 . S
C2930 C2929 1.523 . S
H2931 C2906 0.950 . S
H2932 C2908 0.950 . S
H2933 C2909 0.949 . S
H2934 C2911 0.950 . S
H2935 C2913 0.950 . S
C2936 C2937 1.349 . S
C2936 C2938 1.327 . S
C2936 H2961 0.950 . S
C2937 C2936 1.349 . S
C2937 C2953 1.349 . S
C2938 C2936 1.327 . S
C2938 C2957 1.429 . S
C2938 H2962 0.950 . S
C2939 C2956 1.574 . S
C2939 C2958 1.368 . S
C2939 H2963 0.949 . S
H2940 C2944 0.949 . S
C2941 C2942 1.349 . S
C2941 C2943 1.327 . S
C2941 H2964 0.950 . S
C2942 C2941 1.349 . S
C2942 C2954 1.349 . S
C2943 C2941 1.327 . S
C2943 C2959 1.429 . S
C2943 H2965 0.950 . S
C2944 H2940 0.949 . S
C2944 C2952 1.574 . S
C2944 C2960 1.368 . S
H2945 C2953 0.950 . S
H2946 C2951 0.950 . S
H2947 C2952 0.949 . S
H2948 C2954 0.950 . S
H2949 C2955 0.950 . S
H2950 C2956 0.949 . S
C2951 H2946 0.950 . S
C2951 C2953 1.327 . S
C2951 C2957 1.429 . S
C2952 C2944 1.574 . S
C2952 H2947 0.949 . S
C2952 C2958 1.368 . S
C2953 C2937 1.349 . S
C2953 H2945 0.950 . S
C2953 C2951 1.327 . S
C2954 C2942 1.349 . S
C2954 H2948 0.950 . S
C2954 C2955 1.327 . S
C2955 H2949 0.950 . S
C2955 C2954 1.327 . S
C2955 C2959 1.429 . S
C2956 C2939 1.574 . S
C2956 H2950 0.949 . S
C2956 C2960 1.368 . S
C2957 C2938 1.429 . S
C2957 C2951 1.429 . S
C2957 C2958 1.523 . S
C2958 C2939 1.368 . S
C2958 C2952 1.368 . S
C2958 C2957 1.523 . S
C2959 C2943 1.429 . S
C2959 C2955 1.429 . S
C2959 C2960 1.523 . S
C2960 C2944 1.368 . S
C2960 C2956 1.368 . S
C2960 C2959 1.523 . S
H2961 C2936 0.950 . S
H2962 C2938 0.950 . S
H2963 C2939 0.949 . S
H2964 C2941 0.950 . S
H2965 C2943 0.950 . S
C2966 C2967 1.349 . S
C2966 C2968 1.327 . S
C2966 H2991 0.950 . S
C2967 C2966 1.349 . S
C2967 C2983 1.349 . S
C2968 C2966 1.327 . S
C2968 C2987 1.429 . S
C2968 H2992 0.950 . S
C2969 C2986 1.574 . S
C2969 C2988 1.368 . S
C2969 H2993 0.949 . S
H2970 C2974 0.949 . S
C2971 C2972 1.349 . S
C2971 C2973 1.327 . S
C2971 H2994 0.950 . S
C2972 C2971 1.349 . S
C2972 C2984 1.349 . S
C2973 C2971 1.327 . S
C2973 C2989 1.429 . S
C2973 H2995 0.950 . S
C2974 H2970 0.949 . S
C2974 C2982 1.574 . S
C2974 C2990 1.368 . S
H2975 C2983 0.950 . S
H2976 C2981 0.950 . S
H2977 C2982 0.949 . S
H2978 C2984 0.950 . S
H2979 C2985 0.950 . S
H2980 C2986 0.949 . S
C2981 H2976 0.950 . S
C2981 C2983 1.327 . S
C2981 C2987 1.429 . S
C2982 C2974 1.574 . S
C2982 H2977 0.949 . S
C2982 C2988 1.368 . S
C2983 C2967 1.349 . S
C2983 H2975 0.950 . S
C2983 C2981 1.327 . S
C2984 C2972 1.349 . S
C2984 H2978 0.950 . S
C2984 C2985 1.327 . S
C2985 H2979 0.950 . S
C2985 C2984 1.327 . S
C2985 C2989 1.429 . S
C2986 C2969 1.574 . S
C2986 H2980 0.949 . S
C2986 C2990 1.368 . S
C2987 C2968 1.429 . S
C2987 C2981 1.429 . S
C2987 C2988 1.523 . S
C2988 C2969 1.368 . S
C2988 C2982 1.368 . S
C2988 C2987 1.523 . S
C2989 C2973 1.429 . S
C2989 C2985 1.429 . S
C2989 C2990 1.523 . S
C2990 C2974 1.368 . S
C2990 C2986 1.368 . S
C2990 C2989 1.523 . S
H2991 C2966 0.950 . S
H2992 C2968 0.950 . S
H2993 C2969 0.949 . S
H2994 C2971 0.950 . S
H2995 C2973 0.950 . S
C2996 C2997 1.349 . S
C2996 C2998 1.327 . S
C2996 H3021 0.950 . S
C2997 C2996 1.349 . S
C2997 C3013 1.349 . S
C2998 C2996 1.327 . S
C2998 C3017 1.429 . S
C2998 H3022 0.950 . S
C2999 C3016 1.574 . S
C2999 C3018 1.368 . S
C2999 H3023 0.949 . S
H3000 C3004 0.949 . S
C3001 C3002 1.349 . S
C3001 C3003 1.327 . S
C3001 H3024 0.950 . S
C3002 C3001 1.349 . S
C3002 C3014 1.349 . S
C3003 C3001 1.327 . S
C3003 C3019 1.429 . S
C3003 H3025 0.950 . S
C3004 H3000 0.949 . S
C3004 C3012 1.574 . S
C3004 C3020 1.368 . S
H3005 C3013 0.950 . S
H3006 C3011 0.950 . S
H3007 C3012 0.949 . S
H3008 C3014 0.950 . S
H3009 C3015 0.950 . S
H3010 C3016 0.949 . S
C3011 H3006 0.950 . S
C3011 C3013 1.327 . S
C3011 C3017 1.429 . S
C3012 C3004 1.574 . S
C3012 H3007 0.949 . S
C3012 C3018 1.368 . S
C3013 C2997 1.349 . S
C3013 H3005 0.950 . S
C3013 C3011 1.327 . S
C3014 C3002 1.349 . S
C3014 H3008 0.950 . S
C3014 C3015 1.327 . S
C3015 H3009 0.950 . S
C3015 C3014 1.327 . S
C3015 C3019 1.429 . S
C3016 C2999 1.574 . S
C3016 H3010 0.949 . S
C3016 C3020 1.368 . S
C3017 C2998 1.429 . S
C3017 C3011 1.429 . S
C3017 C3018 1.523 . S
C3018 C2999 1.368 . S
C3018 C3012 1.368 . S
C3018 C3017 1.523 . S
C3019 C3003 1.429 . S
C3019 C3015 1.429 . S
C3019 C3020 1.523 . S
C3020 C3004 1.368 . S
C3020 C3016 1.368 . S
C3020 C3019 1.523 . S
H3021 C2996 0.950 . S
H3022 C2998 0.950 . S
H3023 C2999 0.949 . S
H3024 C3001 0.950 . S
H3025 C3003 0.950 . S
C3026 C3027 1.349 . S
C3026 C3028 1.327 . S
C3026 H3051 0.950 . S
C3027 C3026 1.349 . S
C3027 C3043 1.349 . S
C3028 C3026 1.327 . S
C3028 C3047 1.429 . S
C3028 H3052 0.950 . S
C3029 C3046 1.574 . S
C3029 C3048 1.368 . S
C3029 H3053 0.949 . S
H3030 C3034 0.949 . S
C3031 C3032 1.349 . S
C3031 C3033 1.327 . S
C3031 H3054 0.950 . S
C3032 C3031 1.349 . S
C3032 C3044 1.349 . S
C3033 C3031 1.327 . S
C3033 C3049 1.429 . S
C3033 H3055 0.950 . S
C3034 H3030 0.949 . S
C3034 C3042 1.574 . S
C3034 C3050 1.368 . S
H3035 C3043 0.950 . S
H3036 C3041 0.950 . S
H3037 C3042 0.949 . S
H3038 C3044 0.950 . S
H3039 C3045 0.950 . S
H3040 C3046 0.949 . S
C3041 H3036 0.950 . S
C3041 C3043 1.327 . S
C3041 C3047 1.429 . S
C3042 C3034 1.574 . S
C3042 H3037 0.949 . S
C3042 C3048 1.368 . S
C3043 C3027 1.349 . S
C3043 H3035 0.950 . S
C3043 C3041 1.327 . S
C3044 C3032 1.349 . S
C3044 H3038 0.950 . S
C3044 C3045 1.327 . S
C3045 H3039 0.950 . S
C3045 C3044 1.327 . S
C3045 C3049 1.429 . S
C3046 C3029 1.574 . S
C3046 H3040 0.949 . S
C3046 C3050 1.368 . S
C3047 C3028 1.429 . S
C3047 C3041 1.429 . S
C3047 C3048 1.523 . S
C3048 C3029 1.368 . S
C3048 C3042 1.368 . S
C3048 C3047 1.523 . S
C3049 C3033 1.429 . S
C3049 C3045 1.429 . S
C3049 C3050 1.523 . S
C3050 C3034 1.368 . S
C3050 C3046 1.368 . S
C3050 C3049 1.523 . S
H3051 C3026 0.950 . S
H3052 C3028 0.950 . S
H3053 C3029 0.949 . S
H3054 C3031 0.950 . S
H3055 C3033 0.950 . S
C3056 C3057 1.349 . S
C3056 C3058 1.327 . S
C3056 H3081 0.950 . S
C3057 C3056 1.349 . S
C3057 C3073 1.349 . S
C3058 C3056 1.327 . S
C3058 C3077 1.429 . S
C3058 H3082 0.950 . S
C3059 C3076 1.574 . S
C3059 C3078 1.368 . S
C3059 H3083 0.949 . S
H3060 C3064 0.949 . S
C3061 C3062 1.349 . S
C3061 C3063 1.327 . S
C3061 H3084 0.950 . S
C3062 C3061 1.349 . S
C3062 C3074 1.349 . S
C3063 C3061 1.327 . S
C3063 C3079 1.429 . S
C3063 H3085 0.950 . S
C3064 H3060 0.949 . S
C3064 C3072 1.574 . S
C3064 C3080 1.368 . S
H3065 C3073 0.950 . S
H3066 C3071 0.950 . S
H3067 C3072 0.949 . S
H3068 C3074 0.950 . S
H3069 C3075 0.950 . S
H3070 C3076 0.949 . S
C3071 H3066 0.950 . S
C3071 C3073 1.327 . S
C3071 C3077 1.429 . S
C3072 C3064 1.574 . S
C3072 H3067 0.949 . S
C3072 C3078 1.368 . S
C3073 C3057 1.349 . S
C3073 H3065 0.950 . S
C3073 C3071 1.327 . S
C3074 C3062 1.349 . S
C3074 H3068 0.950 . S
C3074 C3075 1.327 . S
C3075 H3069 0.950 . S
C3075 C3074 1.327 . S
C3075 C3079 1.429 . S
C3076 C3059 1.574 . S
C3076 H3070 0.949 . S
C3076 C3080 1.368 . S
C3077 C3058 1.429 . S
C3077 C3071 1.429 . S
C3077 C3078 1.523 . S
C3078 C3059 1.368 . S
C3078 C3072 1.368 . S
C3078 C3077 1.523 . S
C3079 C3063 1.429 . S
C3079 C3075 1.429 . S
C3079 C3080 1.523 . S
C3080 C3064 1.368 . S
C3080 C3076 1.368 . S
C3080 C3079 1.523 . S
H3081 C3056 0.950 . S
H3082 C3058 0.950 . S
H3083 C3059 0.949 . S
H3084 C3061 0.950 . S
H3085 C3063 0.950 . S
C3086 C3087 1.349 . S
C3086 C3088 1.327 . S
C3086 H3111 0.950 . S
C3087 C3086 1.349 . S
C3087 C3103 1.349 . S
C3088 C3086 1.327 . S
C3088 C3107 1.429 . S
C3088 H3112 0.950 . S
C3089 C3106 1.574 . S
C3089 C3108 1.368 . S
C3089 H3113 0.949 . S
H3090 C3094 0.949 . S
C3091 C3092 1.349 . S
C3091 C3093 1.327 . S
C3091 H3114 0.950 . S
C3092 C3091 1.349 . S
C3092 C3104 1.349 . S
C3093 C3091 1.327 . S
C3093 C3109 1.429 . S
C3093 H3115 0.950 . S
C3094 H3090 0.949 . S
C3094 C3102 1.574 . S
C3094 C3110 1.368 . S
H3095 C3103 0.950 . S
H3096 C3101 0.950 . S
H3097 C3102 0.949 . S
H3098 C3104 0.950 . S
H3099 C3105 0.950 . S
H3100 C3106 0.949 . S
C3101 H3096 0.950 . S
C3101 C3103 1.327 . S
C3101 C3107 1.429 . S
C3102 C3094 1.574 . S
C3102 H3097 0.949 . S
C3102 C3108 1.368 . S
C3103 C3087 1.349 . S
C3103 H3095 0.950 . S
C3103 C3101 1.327 . S
C3104 C3092 1.349 . S
C3104 H3098 0.950 . S
C3104 C3105 1.327 . S
C3105 H3099 0.950 . S
C3105 C3104 1.327 . S
C3105 C3109 1.429 . S
C3106 C3089 1.574 . S
C3106 H3100 0.949 . S
C3106 C3110 1.368 . S
C3107 C3088 1.429 . S
C3107 C3101 1.429 . S
C3107 C3108 1.523 . S
C3108 C3089 1.368 . S
C3108 C3102 1.368 . S
C3108 C3107 1.523 . S
C3109 C3093 1.429 . S
C3109 C3105 1.429 . S
C3109 C3110 1.523 . S
C3110 C3094 1.368 . S
C3110 C3106 1.368 . S
C3110 C3109 1.523 . S
H3111 C3086 0.950 . S
H3112 C3088 0.950 . S
H3113 C3089 0.949 . S
H3114 C3091 0.950 . S
H3115 C3093 0.950 . S
C3116 C3117 1.349 . S
C3116 C3118 1.327 . S
C3116 H3141 0.950 . S
C3117 C3116 1.349 . S
C3117 C3133 1.349 . S
C3118 C3116 1.327 . S
C3118 C3137 1.429 . S
C3118 H3142 0.950 . S
C3119 C3136 1.574 . S
C3119 C3138 1.368 . S
C3119 H3143 0.949 . S
H3120 C3124 0.949 . S
C3121 C3122 1.349 . S
C3121 C3123 1.327 . S
C3121 H3144 0.950 . S
C3122 C3121 1.349 . S
C3122 C3134 1.349 . S
C3123 C3121 1.327 . S
C3123 C3139 1.429 . S
C3123 H3145 0.950 . S
C3124 H3120 0.949 . S
C3124 C3132 1.574 . S
C3124 C3140 1.368 . S
H3125 C3133 0.950 . S
H3126 C3131 0.950 . S
H3127 C3132 0.949 . S
H3128 C3134 0.950 1_455 S
H3129 C3135 0.950 . S
H3130 C3136 0.949 . S
C3131 H3126 0.950 . S
C3131 C3133 1.327 . S
C3131 C3137 1.429 . S
C3132 C3124 1.574 . S
C3132 H3127 0.949 . S
C3132 C3138 1.368 . S
C3133 C3117 1.349 . S
C3133 H3125 0.950 . S
C3133 C3131 1.327 . S
C3134 C3122 1.349 . S
C3134 H3128 0.950 1_655 S
C3134 C3135 1.327 . S
C3135 H3129 0.950 . S
C3135 C3134 1.327 . S
C3135 C3139 1.429 . S
C3136 C3119 1.574 . S
C3136 H3130 0.949 . S
C3136 C3140 1.368 . S
C3137 C3118 1.429 . S
C3137 C3131 1.429 . S
C3137 C3138 1.523 . S
C3138 C3119 1.368 . S
C3138 C3132 1.368 . S
C3138 C3137 1.523 . S
C3139 C3123 1.429 . S
C3139 C3135 1.429 . S
C3139 C3140 1.523 . S
C3140 C3124 1.368 . S
C3140 C3136 1.368 . S
C3140 C3139 1.523 . S
H3141 C3116 0.950 . S
H3142 C3118 0.950 . S
H3143 C3119 0.949 . S
H3144 C3121 0.950 . S
H3145 C3123 0.950 . S
C3146 C3147 1.349 . S
C3146 C3148 1.327 . S
C3146 H3171 0.950 . S
C3147 C3146 1.349 . S
C3147 C3163 1.349 . S
C3148 C3146 1.327 . S
C3148 C3167 1.429 . S
C3148 H3172 0.950 . S
C3149 C3166 1.574 . S
C3149 C3168 1.368 . S
C3149 H3173 0.949 . S
H3150 C3154 0.949 . S
C3151 C3152 1.349 . S
C3151 C3153 1.327 . S
C3151 H3174 0.950 . S
C3152 C3151 1.349 . S
C3152 C3164 1.349 . S
C3153 C3151 1.327 . S
C3153 C3169 1.429 . S
C3153 H3175 0.950 . S
C3154 H3150 0.949 . S
C3154 C3162 1.574 . S
C3154 C3170 1.368 . S
H3155 C3163 0.950 . S
H3156 C3161 0.950 . S
H3157 C3162 0.949 . S
H3158 C3164 0.950 . S
H3159 C3165 0.950 . S
H3160 C3166 0.949 . S
C3161 H3156 0.950 . S
C3161 C3163 1.327 . S
C3161 C3167 1.429 . S
C3162 C3154 1.574 . S
C3162 H3157 0.949 . S
C3162 C3168 1.368 . S
C3163 C3147 1.349 . S
C3163 H3155 0.950 . S
C3163 C3161 1.327 . S
C3164 C3152 1.349 . S
C3164 H3158 0.950 . S
C3164 C3165 1.327 . S
C3165 H3159 0.950 . S
C3165 C3164 1.327 . S
C3165 C3169 1.429 . S
C3166 C3149 1.574 . S
C3166 H3160 0.949 . S
C3166 C3170 1.368 . S
C3167 C3148 1.429 . S
C3167 C3161 1.429 . S
C3167 C3168 1.523 . S
C3168 C3149 1.368 . S
C3168 C3162 1.368 . S
C3168 C3167 1.523 . S
C3169 C3153 1.429 . S
C3169 C3165 1.429 . S
C3169 C3170 1.523 . S
C3170 C3154 1.368 . S
C3170 C3166 1.368 . S
C3170 C3169 1.523 . S
H3171 C3146 0.950 . S
H3172 C3148 0.950 . S
H3173 C3149 0.949 . S
H3174 C3151 0.950 . S
H3175 C3153 0.950 . S
C3176 C3177 1.349 . S
C3176 C3178 1.327 . S
C3176 H3201 0.950 . S
C3177 C3176 1.349 . S
C3177 C3193 1.349 . S
C3178 C3176 1.327 . S
C3178 C3197 1.429 . S
C3178 H3202 0.950 . S
C3179 C3196 1.574 . S
C3179 C3198 1.368 . S
C3179 H3203 0.949 . S
H3180 C3184 0.949 . S
C3181 C3182 1.349 . S
C3181 C3183 1.327 . S
C3181 H3204 0.950 . S
C3182 C3181 1.349 . S
C3182 C3194 1.349 . S
C3183 C3181 1.327 . S
C3183 C3199 1.429 . S
C3183 H3205 0.950 . S
C3184 H3180 0.949 . S
C3184 C3192 1.574 . S
C3184 C3200 1.368 . S
H3185 C3193 0.950 . S
H3186 C3191 0.950 . S
H3187 C3192 0.949 . S
H3188 C3194 0.950 . S
H3189 C3195 0.950 . S
H3190 C3196 0.949 . S
C3191 H3186 0.950 . S
C3191 C3193 1.327 . S
C3191 C3197 1.429 . S
C3192 C3184 1.574 . S
C3192 H3187 0.949 . S
C3192 C3198 1.368 . S
C3193 C3177 1.349 . S
C3193 H3185 0.950 . S
C3193 C3191 1.327 . S
C3194 C3182 1.349 . S
C3194 H3188 0.950 . S
C3194 C3195 1.327 . S
C3195 H3189 0.950 . S
C3195 C3194 1.327 . S
C3195 C3199 1.429 . S
C3196 C3179 1.574 . S
C3196 H3190 0.949 . S
C3196 C3200 1.368 . S
C3197 C3178 1.429 . S
C3197 C3191 1.429 . S
C3197 C3198 1.523 . S
C3198 C3179 1.368 . S
C3198 C3192 1.368 . S
C3198 C3197 1.523 . S
C3199 C3183 1.429 . S
C3199 C3195 1.429 . S
C3199 C3200 1.523 . S
C3200 C3184 1.368 . S
C3200 C3196 1.368 . S
C3200 C3199 1.523 . S
H3201 C3176 0.950 . S
H3202 C3178 0.950 . S
H3203 C3179 0.949 . S
H3204 C3181 0.950 . S
H3205 C3183 0.950 . S
C3206 C3207 1.349 . S
C3206 C3208 1.327 . S
C3206 H3231 0.950 . S
C3207 C3206 1.349 . S
C3207 C3223 1.349 . S
C3208 C3206 1.327 . S
C3208 C3227 1.429 . S
C3208 H3232 0.950 . S
C3209 C3226 1.574 . S
C3209 C3228 1.368 . S
C3209 H3233 0.949 . S
H3210 C3214 0.949 . S
C3211 C3212 1.349 . S
C3211 C3213 1.327 . S
C3211 H3234 0.950 . S
C3212 C3211 1.349 . S
C3212 C3224 1.349 . S
C3213 C3211 1.327 . S
C3213 C3229 1.429 . S
C3213 H3235 0.950 . S
C3214 H3210 0.949 . S
C3214 C3222 1.574 . S
C3214 C3230 1.368 . S
H3215 C3223 0.950 . S
H3216 C3221 0.950 . S
H3217 C3222 0.949 . S
H3218 C3224 0.950 . S
H3219 C3225 0.950 . S
H3220 C3226 0.949 . S
C3221 H3216 0.950 . S
C3221 C3223 1.327 . S
C3221 C3227 1.429 . S
C3222 C3214 1.574 . S
C3222 H3217 0.949 . S
C3222 C3228 1.368 . S
C3223 C3207 1.349 . S
C3223 H3215 0.950 . S
C3223 C3221 1.327 . S
C3224 C3212 1.349 . S
C3224 H3218 0.950 . S
C3224 C3225 1.327 . S
C3225 H3219 0.950 . S
C3225 C3224 1.327 . S
C3225 C3229 1.429 . S
C3226 C3209 1.574 . S
C3226 H3220 0.949 . S
C3226 C3230 1.368 . S
C3227 C3208 1.429 . S
C3227 C3221 1.429 . S
C3227 C3228 1.523 . S
C3228 C3209 1.368 . S
C3228 C3222 1.368 . S
C3228 C3227 1.523 . S
C3229 C3213 1.429 . S
C3229 C3225 1.429 . S
C3229 C3230 1.523 . S
C3230 C3214 1.368 . S
C3230 C3226 1.368 . S
C3230 C3229 1.523 . S
H3231 C3206 0.950 . S
H3232 C3208 0.950 . S
H3233 C3209 0.949 . S
H3234 C3211 0.950 . S
H3235 C3213 0.950 . S
C3236 C3237 1.349 . S
C3236 C3238 1.327 . S
C3236 H3261 0.950 . S
C3237 C3236 1.349 . S
C3237 C3253 1.349 . S
C3238 C3236 1.327 . S
C3238 C3257 1.429 . S
C3238 H3262 0.950 . S
C3239 C3256 1.574 . S
C3239 C3258 1.368 . S
C3239 H3263 0.949 . S
H3240 C3244 0.949 . S
C3241 C3242 1.349 . S
C3241 C3243 1.327 . S
C3241 H3264 0.950 . S
C3242 C3241 1.349 . S
C3242 C3254 1.349 . S
C3243 C3241 1.327 . S
C3243 C3259 1.429 . S
C3243 H3265 0.950 . S
C3244 H3240 0.949 . S
C3244 C3252 1.574 . S
C3244 C3260 1.368 . S
H3245 C3253 0.950 . S
H3246 C3251 0.950 . S
H3247 C3252 0.949 . S
H3248 C3254 0.950 1_455 S
H3249 C3255 0.950 . S
H3250 C3256 0.949 . S
C3251 H3246 0.950 . S
C3251 C3253 1.327 . S
C3251 C3257 1.429 . S
C3252 C3244 1.574 . S
C3252 H3247 0.949 . S
C3252 C3258 1.368 . S
C3253 C3237 1.349 . S
C3253 H3245 0.950 . S
C3253 C3251 1.327 . S
C3254 C3242 1.349 . S
C3254 H3248 0.950 1_655 S
C3254 C3255 1.327 . S
C3255 H3249 0.950 . S
C3255 C3254 1.327 . S
C3255 C3259 1.429 . S
C3256 C3239 1.574 . S
C3256 H3250 0.949 . S
C3256 C3260 1.368 . S
C3257 C3238 1.429 . S
C3257 C3251 1.429 . S
C3257 C3258 1.523 . S
C3258 C3239 1.368 . S
C3258 C3252 1.368 . S
C3258 C3257 1.523 . S
C3259 C3243 1.429 . S
C3259 C3255 1.429 . S
C3259 C3260 1.523 . S
C3260 C3244 1.368 . S
C3260 C3256 1.368 . S
C3260 C3259 1.523 . S
H3261 C3236 0.950 . S
H3262 C3238 0.950 . S
H3263 C3239 0.949 . S
H3264 C3241 0.950 . S
H3265 C3243 0.950 . S
C3266 C3267 1.349 . S
C3266 C3268 1.327 . S
C3266 H3291 0.950 . S
C3267 C3266 1.349 . S
C3267 C3283 1.349 . S
C3268 C3266 1.327 . S
C3268 C3287 1.429 . S
C3268 H3292 0.950 . S
C3269 C3286 1.574 . S
C3269 C3288 1.368 . S
C3269 H3293 0.949 . S
H3270 C3274 0.949 . S
C3271 C3272 1.349 . S
C3271 C3273 1.327 . S
C3271 H3294 0.950 . S
C3272 C3271 1.349 . S
C3272 C3284 1.349 . S
C3273 C3271 1.327 . S
C3273 C3289 1.429 . S
C3273 H3295 0.950 . S
C3274 H3270 0.949 . S
C3274 C3282 1.574 . S
C3274 C3290 1.368 . S
H3275 C3283 0.950 . S
H3276 C3281 0.950 . S
H3277 C3282 0.949 . S
H3278 C3284 0.950 . S
H3279 C3285 0.950 . S
H3280 C3286 0.949 . S
C3281 H3276 0.950 . S
C3281 C3283 1.327 . S
C3281 C3287 1.429 . S
C3282 C3274 1.574 . S
C3282 H3277 0.949 . S
C3282 C3288 1.368 . S
C3283 C3267 1.349 . S
C3283 H3275 0.950 . S
C3283 C3281 1.327 . S
C3284 C3272 1.349 . S
C3284 H3278 0.950 . S
C3284 C3285 1.327 . S
C3285 H3279 0.950 . S
C3285 C3284 1.327 . S
C3285 C3289 1.429 . S
C3286 C3269 1.574 . S
C3286 H3280 0.949 . S
C3286 C3290 1.368 . S
C3287 C3268 1.429 . S
C3287 C3281 1.429 . S
C3287 C3288 1.523 . S
C3288 C3269 1.368 . S
C3288 C3282 1.368 . S
C3288 C3287 1.523 . S
C3289 C3273 1.429 . S
C3289 C3285 1.429 . S
C3289 C3290 1.523 . S
C3290 C3274 1.368 . S
C3290 C3286 1.368 . S
C3290 C3289 1.523 . S
H3291 C3266 0.950 . S
H3292 C3268 0.950 . S
H3293 C3269 0.949 . S
H3294 C3271 0.950 . S
H3295 C3273 0.950 . S
C3296 C3297 1.349 . S
C3296 C3298 1.327 . S
C3296 H3321 0.950 . S
C3297 C3296 1.349 . S
C3297 C3313 1.349 . S
C3298 C3296 1.327 . S
C3298 C3317 1.429 . S
C3298 H3322 0.950 . S
C3299 C3316 1.574 . S
C3299 C3318 1.368 . S
C3299 H3323 0.949 . S
H3300 C3304 0.949 . S
C3301 C3302 1.349 . S
C3301 C3303 1.327 . S
C3301 H3324 0.950 . S
C3302 C3301 1.349 . S
C3302 C3314 1.349 . S
C3303 C3301 1.327 . S
C3303 C3319 1.429 . S
C3303 H3325 0.950 . S
C3304 H3300 0.949 . S
C3304 C3312 1.574 . S
C3304 C3320 1.368 . S
H3305 C3313 0.950 . S
H3306 C3311 0.950 . S
H3307 C3312 0.949 . S
H3308 C3314 0.950 . S
H3309 C3315 0.950 . S
H3310 C3316 0.949 . S
C3311 H3306 0.950 . S
C3311 C3313 1.327 . S
C3311 C3317 1.429 . S
C3312 C3304 1.574 . S
C3312 H3307 0.949 . S
C3312 C3318 1.368 . S
C3313 C3297 1.349 . S
C3313 H3305 0.950 . S
C3313 C3311 1.327 . S
C3314 C3302 1.349 . S
C3314 H3308 0.950 . S
C3314 C3315 1.327 . S
C3315 H3309 0.950 . S
C3315 C3314 1.327 . S
C3315 C3319 1.429 . S
C3316 C3299 1.574 . S
C3316 H3310 0.949 . S
C3316 C3320 1.368 . S
C3317 C3298 1.429 . S
C3317 C3311 1.429 . S
C3317 C3318 1.523 . S
C3318 C3299 1.368 . S
C3318 C3312 1.368 . S
C3318 C3317 1.523 . S
C3319 C3303 1.429 . S
C3319 C3315 1.429 . S
C3319 C3320 1.523 . S
C3320 C3304 1.368 . S
C3320 C3316 1.368 . S
C3320 C3319 1.523 . S
H3321 C3296 0.950 . S
H3322 C3298 0.950 . S
H3323 C3299 0.949 . S
H3324 C3301 0.950 . S
H3325 C3303 0.950 . S
C3326 C3327 1.349 . S
C3326 C3328 1.327 . S
C3326 H3351 0.950 . S
C3327 C3326 1.349 . S
C3327 C3343 1.349 . S
C3328 C3326 1.327 . S
C3328 C3347 1.429 . S
C3328 H3352 0.950 . S
C3329 C3346 1.574 . S
C3329 C3348 1.368 . S
C3329 H3353 0.949 . S
H3330 C3334 0.949 . S
C3331 C3332 1.349 . S
C3331 C3333 1.327 1_545 S
C3331 H3354 0.950 . S
C3332 C3331 1.349 . S
C3332 C3344 1.349 1_545 S
C3333 C3331 1.327 1_565 S
C3333 C3349 1.429 . S
C3333 H3355 0.950 . S
C3334 H3330 0.949 . S
C3334 C3342 1.574 . S
C3334 C3350 1.368 . S
H3335 C3343 0.950 . S
H3336 C3341 0.950 . S
H3337 C3342 0.949 . S
H3338 C3344 0.950 . S
H3339 C3345 0.950 . S
H3340 C3346 0.949 . S
C3341 H3336 0.950 . S
C3341 C3343 1.327 . S
C3341 C3347 1.429 . S
C3342 C3334 1.574 . S
C3342 H3337 0.949 . S
C3342 C3348 1.368 . S
C3343 C3327 1.349 . S
C3343 H3335 0.950 . S
C3343 C3341 1.327 . S
C3344 C3332 1.349 1_565 S
C3344 H3338 0.950 . S
C3344 C3345 1.327 . S
C3345 H3339 0.950 . S
C3345 C3344 1.327 . S
C3345 C3349 1.429 . S
C3346 C3329 1.574 . S
C3346 H3340 0.949 . S
C3346 C3350 1.368 . S
C3347 C3328 1.429 . S
C3347 C3341 1.429 . S
C3347 C3348 1.523 . S
C3348 C3329 1.368 . S
C3348 C3342 1.368 . S
C3348 C3347 1.523 . S
C3349 C3333 1.429 . S
C3349 C3345 1.429 . S
C3349 C3350 1.523 . S
C3350 C3334 1.368 . S
C3350 C3346 1.368 . S
C3350 C3349 1.523 . S
H3351 C3326 0.950 . S
H3352 C3328 0.950 . S
H3353 C3329 0.949 . S
H3354 C3331 0.950 . S
H3355 C3333 0.950 . S
C3356 C3357 1.349 . S
C3356 C3358 1.327 . S
C3356 H3381 0.950 . S
C3357 C3356 1.349 . S
C3357 C3373 1.349 . S
C3358 C3356 1.327 . S
C3358 C3377 1.429 . S
C3358 H3382 0.950 . S
C3359 C3376 1.574 . S
C3359 C3378 1.368 . S
C3359 H3383 0.949 . S
H3360 C3364 0.949 . S
C3361 C3362 1.349 . S
C3361 C3363 1.327 . S
C3361 H3384 0.950 . S
C3362 C3361 1.349 . S
C3362 C3374 1.349 . S
C3363 C3361 1.327 . S
C3363 C3379 1.429 . S
C3363 H3385 0.950 . S
C3364 H3360 0.949 . S
C3364 C3372 1.574 . S
C3364 C3380 1.368 . S
H3365 C3373 0.950 . S
H3366 C3371 0.950 . S
H3367 C3372 0.949 . S
H3368 C3374 0.950 . S
H3369 C3375 0.950 . S
H3370 C3376 0.949 . S
C3371 H3366 0.950 . S
C3371 C3373 1.327 . S
C3371 C3377 1.429 . S
C3372 C3364 1.574 . S
C3372 H3367 0.949 . S
C3372 C3378 1.368 . S
C3373 C3357 1.349 . S
C3373 H3365 0.950 . S
C3373 C3371 1.327 . S
C3374 C3362 1.349 . S
C3374 H3368 0.950 . S
C3374 C3375 1.327 . S
C3375 H3369 0.950 . S
C3375 C3374 1.327 . S
C3375 C3379 1.429 . S
C3376 C3359 1.574 . S
C3376 H3370 0.949 . S
C3376 C3380 1.368 . S
C3377 C3358 1.429 . S
C3377 C3371 1.429 . S
C3377 C3378 1.523 . S
C3378 C3359 1.368 . S
C3378 C3372 1.368 . S
C3378 C3377 1.523 . S
C3379 C3363 1.429 . S
C3379 C3375 1.429 . S
C3379 C3380 1.523 . S
C3380 C3364 1.368 . S
C3380 C3376 1.368 . S
C3380 C3379 1.523 . S
H3381 C3356 0.950 . S
H3382 C3358 0.950 . S
H3383 C3359 0.949 . S
H3384 C3361 0.950 . S
H3385 C3363 0.950 . S
C3386 C3387 1.376 . S
C3386 C3388 1.327 . S
C3386 H3411 0.950 . S
C3387 C3386 1.376 . S
C3387 C3403 1.315 1_556 S
C3388 C3386 1.327 . S
C3388 C3407 1.429 1_556 S
C3388 H3412 0.950 . S
C3389 C3406 1.574 . S
C3389 C3408 1.368 . S
C3389 H3413 0.949 . S
H3390 C3394 0.949 . S
C3391 C3392 1.349 . S
C3391 C3393 1.327 . S
C3391 H3414 0.950 . S
C3392 C3391 1.349 . S
C3392 C3404 1.349 1_554 S
C3393 C3391 1.327 . S
C3393 C3409 1.429 . S
C3393 H3415 0.950 . S
C3394 H3390 0.949 . S
C3394 C3402 1.574 . S
C3394 C3410 1.368 1_556 S
H3395 C3403 0.950 . S
H3396 C3401 0.950 . S
H3397 C3402 0.949 . S
H3398 C3404 0.950 . S
H3399 C3405 0.950 . S
H3400 C3406 0.949 . S
C3401 H3396 0.950 . S
C3401 C3403 1.327 . S
C3401 C3407 1.429 . S
C3402 C3394 1.574 . S
C3402 H3397 0.949 . S
C3402 C3408 1.368 1_556 S
C3403 C3387 1.315 1_554 S
C3403 H3395 0.950 . S
C3403 C3401 1.327 . S
C3404 C3392 1.349 1_556 S
C3404 H3398 0.950 . S
C3404 C3405 1.327 . S
C3405 H3399 0.950 . S
C3405 C3404 1.327 . S
C3405 C3409 1.429 1_556 S
C3406 C3389 1.574 . S
C3406 H3400 0.949 . S
C3406 C3410 1.368 . S
C3407 C3388 1.429 1_554 S
C3407 C3401 1.429 . S
C3407 C3408 1.523 . S
C3408 C3389 1.368 . S
C3408 C3402 1.368 1_554 S
C3408 C3407 1.523 . S
C3409 C3393 1.429 . S
C3409 C3405 1.429 1_554 S
C3409 C3410 1.523 . S
C3410 C3394 1.368 1_554 S
C3410 C3406 1.368 . S
C3410 C3409 1.523 . S
H3411 C3386 0.950 . S
H3412 C3388 0.950 . S
H3413 C3389 0.949 . S
H3414 C3391 0.950 . S
H3415 C3393 0.950 . S
C3416 C3417 1.349 . S
C3416 C3418 1.327 . S
C3416 H3441 0.950 . S
C3417 C3416 1.349 . S
C3417 C3433 1.349 . S
C3418 C3416 1.327 . S
C3418 C3437 1.429 . S
C3418 H3442 0.950 . S
C3419 C3436 1.574 . S
C3419 C3438 1.368 . S
C3419 H3443 0.949 . S
H3420 C3424 0.949 . S
C3421 C3422 1.349 . S
C3421 C3423 1.327 . S
C3421 H3444 0.950 . S
C3422 C3421 1.349 . S
C3422 C3434 1.349 . S
C3423 C3421 1.327 . S
C3423 C3439 1.429 . S
C3423 H3445 0.950 . S
C3424 H3420 0.949 . S
C3424 C3432 1.574 . S
C3424 C3440 1.368 . S
H3425 C3433 0.950 . S
H3426 C3431 0.950 . S
H3427 C3432 0.949 . S
H3428 C3434 0.950 . S
H3429 C3435 0.950 . S
H3430 C3436 0.949 . S
C3431 H3426 0.950 . S
C3431 C3433 1.327 . S
C3431 C3437 1.429 . S
C3432 C3424 1.574 . S
C3432 H3427 0.949 . S
C3432 C3438 1.368 . S
C3433 C3417 1.349 . S
C3433 H3425 0.950 . S
C3433 C3431 1.327 . S
C3434 C3422 1.349 . S
C3434 H3428 0.950 . S
C3434 C3435 1.327 . S
C3435 H3429 0.950 . S
C3435 C3434 1.327 . S
C3435 C3439 1.429 . S
C3436 C3419 1.574 . S
C3436 H3430 0.949 . S
C3436 C3440 1.368 . S
C3437 C3418 1.429 . S
C3437 C3431 1.429 . S
C3437 C3438 1.523 . S
C3438 C3419 1.368 . S
C3438 C3432 1.368 . S
C3438 C3437 1.523 . S
C3439 C3423 1.429 . S
C3439 C3435 1.429 . S
C3439 C3440 1.523 . S
C3440 C3424 1.368 . S
C3440 C3436 1.368 . S
C3440 C3439 1.523 . S
H3441 C3416 0.950 . S
H3442 C3418 0.950 . S
H3443 C3419 0.949 . S
H3444 C3421 0.950 . S
H3445 C3423 0.950 . S
C3446 C3447 1.349 . S
C3446 C3448 1.328 1_554 S
C3446 H3471 0.950 1_554 S
C3447 C3446 1.349 . S
C3447 C3463 1.349 . S
C3448 C3446 1.328 1_556 S
C3448 C3467 1.431 1_556 S
C3448 H3472 0.946 . S
C3449 C3466 1.574 . S
C3449 C3468 1.368 . S
C3449 H3473 0.949 . S
H3450 C3454 0.949 . S
C3451 C3452 1.349 1_554 S
C3451 C3453 1.327 . S
C3451 H3474 0.950 . S
C3452 C3451 1.349 1_556 S
C3452 C3464 1.349 . S
C3453 C3451 1.327 . S
C3453 C3469 1.429 . S
C3453 H3475 0.950 . S
C3454 H3450 0.949 . S
C3454 C3462 1.574 . S
C3454 C3470 1.368 1_556 S
H3455 C3463 0.950 . S
H3456 C3461 0.950 . S
H3457 C3462 0.949 . S
H3458 C3464 0.950 . S
H3459 C3465 0.950 . S
H3460 C3466 0.949 . S
C3461 H3456 0.950 . S
C3461 C3463 1.327 . S
C3461 C3467 1.429 . S
C3462 C3454 1.574 . S
C3462 H3457 0.949 . S
C3462 C3468 1.368 1_556 S
C3463 C3447 1.349 . S
C3463 H3455 0.950 . S
C3463 C3461 1.327 . S
C3464 C3452 1.349 . S
C3464 H3458 0.950 . S
C3464 C3465 1.327 . S
C3465 H3459 0.950 . S
C3465 C3464 1.327 . S
C3465 C3469 1.429 1_556 S
C3466 C3449 1.574 . S
C3466 H3460 0.949 . S
C3466 C3470 1.368 . S
C3467 C3448 1.431 1_554 S
C3467 C3461 1.429 . S
C3467 C3468 1.523 . S
C3468 C3449 1.368 . S
C3468 C3462 1.368 1_554 S
C3468 C3467 1.523 . S
C3469 C3453 1.429 . S
C3469 C3465 1.429 1_554 S
C3469 C3470 1.523 . S
C3470 C3454 1.368 1_554 S
C3470 C3466 1.368 . S
C3470 C3469 1.523 . S
H3471 C3446 0.950 1_556 S
H3472 C3448 0.946 . S
H3473 C3449 0.949 . S
H3474 C3451 0.950 . S
H3475 C3453 0.950 . S
C3476 C3477 1.349 . S
C3476 C3478 1.327 1_545 S
C3476 H3501 0.950 . S
C3477 C3476 1.349 . S
C3477 C3493 1.349 1_545 S
C3478 C3476 1.327 1_565 S
C3478 C3497 1.429 . S
C3478 H3502 0.950 . S
C3479 C3496 1.574 . S
C3479 C3498 1.368 . S
C3479 H3503 0.949 . S
H3480 C3484 0.949 . S
C3481 C3482 1.349 . S
C3481 C3483 1.327 . S
C3481 H3504 0.950 . S
C3482 C3481 1.349 . S
C3482 C3494 1.349 . S
C3483 C3481 1.327 . S
C3483 C3499 1.429 . S
C3483 H3505 0.950 . S
C3484 H3480 0.949 . S
C3484 C3492 1.574 . S
C3484 C3500 1.368 . S
H3485 C3493 0.950 . S
H3486 C3491 0.950 . S
H3487 C3492 0.949 . S
H3488 C3494 0.950 . S
H3489 C3495 0.950 . S
H3490 C3496 0.949 . S
C3491 H3486 0.950 . S
C3491 C3493 1.327 . S
C3491 C3497 1.429 . S
C3492 C3484 1.574 . S
C3492 H3487 0.949 . S
C3492 C3498 1.368 . S
C3493 C3477 1.349 1_565 S
C3493 H3485 0.950 . S
C3493 C3491 1.327 . S
C3494 C3482 1.349 . S
C3494 H3488 0.950 . S
C3494 C3495 1.327 . S
C3495 H3489 0.950 . S
C3495 C3494 1.327 . S
C3495 C3499 1.429 . S
C3496 C3479 1.574 . S
C3496 H3490 0.949 . S
C3496 C3500 1.368 . S
C3497 C3478 1.429 . S
C3497 C3491 1.429 . S
C3497 C3498 1.523 . S
C3498 C3479 1.368 . S
C3498 C3492 1.368 . S
C3498 C3497 1.523 . S
C3499 C3483 1.429 . S
C3499 C3495 1.429 . S
C3499 C3500 1.523 . S
C3500 C3484 1.368 . S
C3500 C3496 1.368 . S
C3500 C3499 1.523 . S
H3501 C3476 0.950 . S
H3502 C3478 0.950 . S
H3503 C3479 0.949 . S
H3504 C3481 0.950 . S
H3505 C3483 0.950 . S
C3506 C3507 1.349 . S
C3506 C3508 1.327 . S
C3506 H3531 0.950 . S
C3507 C3506 1.349 . S
C3507 C3523 1.349 . S
C3508 C3506 1.327 . S
C3508 C3527 1.429 . S
C3508 H3532 0.950 . S
C3509 C3526 1.574 . S
C3509 C3528 1.368 . S
C3509 H3533 0.949 . S
H3510 C3514 0.949 . S
C3511 C3512 1.349 . S
C3511 C3513 1.327 . S
C3511 H3534 0.950 . S
C3512 C3511 1.349 . S
C3512 C3524 1.349 . S
C3513 C3511 1.327 . S
C3513 C3529 1.429 . S
C3513 H3535 0.950 . S
C3514 H3510 0.949 . S
C3514 C3522 1.574 . S
C3514 C3530 1.368 . S
H3515 C3523 0.950 . S
H3516 C3521 0.950 . S
H3517 C3522 0.949 . S
H3518 C3524 0.950 . S
H3519 C3525 0.950 . S
H3520 C3526 0.949 . S
C3521 H3516 0.950 . S
C3521 C3523 1.327 . S
C3521 C3527 1.429 . S
C3522 C3514 1.574 . S
C3522 H3517 0.949 . S
C3522 C3528 1.368 . S
C3523 C3507 1.349 . S
C3523 H3515 0.950 . S
C3523 C3521 1.327 . S
C3524 C3512 1.349 . S
C3524 H3518 0.950 . S
C3524 C3525 1.327 . S
C3525 H3519 0.950 . S
C3525 C3524 1.327 . S
C3525 C3529 1.429 . S
C3526 C3509 1.574 . S
C3526 H3520 0.949 . S
C3526 C3530 1.368 . S
C3527 C3508 1.429 . S
C3527 C3521 1.429 . S
C3527 C3528 1.523 . S
C3528 C3509 1.368 . S
C3528 C3522 1.368 . S
C3528 C3527 1.523 . S
C3529 C3513 1.429 . S
C3529 C3525 1.429 . S
C3529 C3530 1.523 . S
C3530 C3514 1.368 . S
C3530 C3526 1.368 . S
C3530 C3529 1.523 . S
H3531 C3506 0.950 . S
H3532 C3508 0.950 . S
H3533 C3509 0.949 . S
H3534 C3511 0.950 . S
H3535 C3513 0.950 . S
C657 C109 1.039 . S
C662 C352 1.021 . S
C687 C61 1.003 . S
C692 C365 1.123 . S
C717 C74 1.180 . S
C722 C384 1.204 . S
C752 C415 1.958 . S
C747 C96 2.008 . S
C777 C25 1.661 1_455 S
C782 C435 1.641 . S
C812 C452 0.661 . S
C807 C40 0.658 . S
C842 C465 1.477 . S
C837 C46 1.475 . S
C867 C5 0.791 . S
C872 C492 0.836 . S
C902 C345 0.951 . S
C897 C229 0.873 . S
C927 C249 1.311 . S
C932 C375 1.273 . S
C962 C377 1.543 . S
C957 C271 1.409 . S
C992 C412 0.823 . S
C987 C172 0.813 . S
C1017 C236 0.983 . S
C1022 C432 0.981 . S
C1052 C445 1.931 . S
C1047 C242 1.939 . S
C1082 C475 1.056 . S
C1077 C278 1.081 . S
C1112 C485 1.168 . S
C1107 C179 1.171 . S
C1142 C355 1.523 . S
C1137 C159 1.317 . S
C1167 C285 1.546 1_554 S
C1172 C505 1.742 . S
C1202 C535 1.407 . S
C1197 C333 1.427 . S
C1232 C552 1.046 . S
C1227 C320 1.057 . S
C1257 C123 1.859 . S
C1262 C495 1.834 . S
C1287 C138 1.178 . S
C1292 C382 1.142 . S
C1317 C326 1.990 . S
C1322 C565 1.985 . S
C1352 C592 0.828 . S
C1347 C298 0.822 . S
C1382 C342 1.007 . S
C1377 C67 1.018 . S
C1412 C577 1.081 . S
C1407 C110 1.094 . S
C1437 C88 1.211 . S
C1442 C395 1.194 . S
C1467 C75 1.613 . S
C1472 C564 1.870 . S
C1502 C424 1.592 1_455 S
C1497 C11 1.606 . S
C1527 C47 0.700 . S
C1532 C522 0.659 . S
C1562 C457 1.405 1_556 S
C1557 C32 1.362 . S
C1592 C602 0.837 . S
C1587 C26 0.845 . S
C1622 C337 1.047 . S
C1617 C152 1.063 . S
C1652 C584 1.291 . S
C1647 C319 1.296 . S
C1677 C124 1.562 . S
C1682 C385 1.530 . S
C1707 C284 0.832 . S
C1712 C562 0.829 . S
C1737 C145 0.886 . S
C1742 C422 0.936 . S
C1772 C517 1.831 . S
C1767 C312 1.769 . S
C1797 C117 0.848 . S
C1802 C464 0.902 . S
C1827 C291 1.074 . S
C1832 C597 1.060 . S
C1857 C194 1.555 . S
C1862 C344 1.519 . S
C1887 C180 1.743 . S
C1892 C497 1.724 . S
C1917 C263 1.286 . S
C1922 C444 1.287 . S
C1947 C243 0.893 . S
C1952 C542 0.960 . S
C1982 C604 1.856 . S
C1977 C277 1.878 . S
C2007 C215 0.985 . S
C2012 C392 1.082 1_565 S
C2042 C397 1.890 . S
C2037 C256 1.845 . S
C2072 C362 0.871 . S
C2067 C200 0.879 . S
C2097 C81 1.039 . S
C2102 C632 1.020 . S
C2132 C585 1.123 . S
C2127 C89 1.003 . S
C2157 C102 1.180 . S
C2162 C644 1.207 1_455 S
C2187 C68 2.008 . S
C2192 C575 1.958 . S
C2217 C53 1.661 . S
C2222 C515 1.641 . S
C2252 C532 0.661 . S
C2247 C12 0.658 . S
C2282 C545 1.477 . S
C2277 C18 1.475 . S
C2312 C612 0.836 . S
C2307 C33 0.791 . S
C2342 C625 0.951 . S
C2337 C257 0.874 . S
C2367 C193 1.311 . S
C2372 C595 1.274 . S
C2402 C637 1.542 . S
C2397 C201 1.409 . S
C2432 C572 0.823 . S
C2427 C214 0.813 . S
C2462 C512 0.981 . S
C2457 C264 0.983 . S
C2487 C186 1.938 . S
C2492 C525 1.931 . S
C2522 C555 1.056 . S
C2517 C208 1.081 . S
C2547 C221 1.171 . S
C2552 C605 1.168 . S
C2582 C635 1.523 . S
C2577 C313 1.317 . S
C2607 C131 1.546 . S
C2612 C425 1.742 . S
C2642 C455 1.407 . S
C2637 C151 1.433 . S
C2672 C472 1.045 . S
C2667 C166 1.057 . S
C2702 C615 1.834 . S
C2697 C305 1.859 . S
C2727 C292 1.178 . S
C2732 C642 1.142 . S
C2762 C405 1.984 . S
C2757 C144 1.983 . S
C2792 C372 0.828 . S
C2787 C116 0.822 . S
C2817 C95 1.018 . S
C2822 C622 1.006 . S
C2852 C357 1.081 . S
C2847 C82 1.093 . S
C2877 C60 1.211 . S
C2882 C655 1.195 . S
C2907 C103 1.614 . S
C2912 C404 1.870 . S
C2937 C39 1.606 . S
C2942 C504 1.589 1_556 S
C2972 C442 0.659 . S
C2967 C19 0.699 . S
C2997 C4 1.362 . S
C3002 C537 1.405 . S
C3027 C54 0.845 . S
C3032 C482 0.837 . S
C3062 C617 1.047 . S
C3057 C334 1.063 . S
C3087 C165 1.296 . S
C3092 C364 1.291 . S
C3122 C645 1.530 . S
C3117 C306 1.562 . S
C3147 C130 0.833 . S
C3152 C402 0.829 . S
C3177 C327 0.886 . S
C3182 C502 0.940 . S
C3212 C437 1.830 . S
C3207 C158 1.768 1_556 S
C3237 C299 0.848 . S
C3242 C544 0.902 . S
C3272 C477 1.060 . S
C3267 C137 1.074 . S
C3302 C624 1.519 . S
C3297 C250 1.556 . S
C3332 C417 1.724 . S
C3327 C222 1.744 . S
C3357 C235 1.286 . S
C3362 C524 1.287 . S
C3392 C462 0.960 . S
C3387 C187 0.921 . S
C3417 C207 1.878 . S
C3422 C484 1.856 . S
C3447 C173 0.985 . S
C3452 C652 1.095 1_556 S
C3482 C557 1.890 . S
C3477 C228 1.845 . S
C3512 C582 0.871 . S
C3507 C270 0.879 . S
