# Generated by pormake.
# Topology anh, (6,3)-cn, num edge types: 1
# Building blocks:
#     Node 0, Type 0, BuildingBlock: VOLQOD_clean_sbu_1, # of connection points: 6
#     Node 1, Type 0, BuildingBlock: VOLQOD_clean_sbu_1, # of connection points: 6
#     Node 2, Type 0, BuildingBlock: VOLQOD_clean_sbu_1, # of connection points: 6
#     Node 3, Type 1, BuildingBlock: WUSLED_clean_sbu_0, # of connection points: 3
#     Node 4, Type 1, BuildingBlock: WUSLED_clean_sbu_0, # of connection points: 3
#     Node 5, Type 1, BuildingBlock: WUSLED_clean_sbu_0, # of connection points: 3
#     Node 6, Type 1, BuildingBlock: WUSLED_clean_sbu_0, # of connection points: 3
#     Node 7, Type 1, BuildingBlock: WUSLED_clean_sbu_0, # of connection points: 3
#     Node 8, Type 1, BuildingBlock: WUSLED_clean_sbu_0, # of connection points: 3
#     Edge 9, Type (0, 1), BuildingBlock: EZIPEK_clean_linker_0, # of connection points: 2
#     Edge 10, Type (0, 1), BuildingBlock: EZIPEK_clean_linker_0, # of connection points: 2
#     Edge 11, Type (0, 1), BuildingBlock: EZIPEK_clean_linker_0, # of connection points: 2
#     Edge 12, Type (0, 1), BuildingBlock: EZIPEK_clean_linker_0, # of connection points: 2
#     Edge 13, Type (0, 1), BuildingBlock: EZIPEK_clean_linker_0, # of connection points: 2
#     Edge 14, Type (0, 1), BuildingBlock: EZIPEK_clean_linker_0, # of connection points: 2
#     Edge 15, Type (0, 1), BuildingBlock: EZIPEK_clean_linker_0, # of connection points: 2
#     Edge 16, Type (0, 1), BuildingBlock: EZIPEK_clean_linker_0, # of connection points: 2
#     Edge 17, Type (0, 1), BuildingBlock: EZIPEK_clean_linker_0, # of connection points: 2
#     Edge 18, Type (0, 1), BuildingBlock: EZIPEK_clean_linker_0, # of connection points: 2
#     Edge 19, Type (0, 1), BuildingBlock: EZIPEK_clean_linker_0, # of connection points: 2
#     Edge 20, Type (0, 1), BuildingBlock: EZIPEK_clean_linker_0, # of connection points: 2
#     Edge 21, Type (0, 1), BuildingBlock: EZIPEK_clean_linker_0, # of connection points: 2
#     Edge 22, Type (0, 1), BuildingBlock: EZIPEK_clean_linker_0, # of connection points: 2
#     Edge 23, Type (0, 1), BuildingBlock: EZIPEK_clean_linker_0, # of connection points: 2
#     Edge 24, Type (0, 1), BuildingBlock: EZIPEK_clean_linker_0, # of connection points: 2
#     Edge 25, Type (0, 1), BuildingBlock: EZIPEK_clean_linker_0, # of connection points: 2
#     Edge 26, Type (0, 1), BuildingBlock: EZIPEK_clean_linker_0, # of connection points: 2
# Relax obj value: 0.164
# Max RMSD: 0.228
# Mean RMSD: 0.110
data_MOF--net-anh--node1-VOLQOD_clean_sbu_1--node2-WUSLED_clean_sbu_0--edge1-EZIPEK_clean_linker_0
_symmetry_space_group_name_H-M    P1
_symmetry_Int_Tables_number       1
_symmetry_cell_setting            triclinic
loop_
_symmetry_equiv_pos_as_xyz
'x, y, z'
_cell_length_a     29.385895
_cell_length_b     29.333807
_cell_length_c     62.614415
_cell_angle_alpha  89.750834
_cell_angle_beta   89.997994
_cell_angle_gamma 120.14755
loop_
_atom_site_label
_atom_site_type_symbol
_atom_site_fract_x
_atom_site_fract_y
_atom_site_fract_z
_atom_type_partial_charge
O0 O 0.98501 0.51452 0.22298 0.0
Zn1 Zn 0.99359 0.54753 0.19359 0.0
O2 O 1.00523 0.50578 0.17228 0.0
Zn3 Zn 0.94629 0.47419 0.15274 0.0
Zn4 Zn 0.0118 0.44977 0.18642 0.0
Zn5 Zn 0.06843 0.55049 0.15579 0.0
O6 O 0.97015 0.48749 0.12208 0.0
O7 O 0.05146 0.55629 0.1248 0.0
O8 O 0.92905 0.55372 0.18647 0.0
O9 O 0.90003 0.50523 0.15701 0.0
O10 O 0.89916 0.39722 0.15925 0.0
O11 O 0.94407 0.38003 0.18339 0.0
O12 O 0.07459 0.44537 0.1751 0.0
O13 O 0.05851 0.61985 0.19573 0.0
O14 O 0.11421 0.51792 0.15496 0.0
O15 O 0.11156 0.62128 0.17 0.0
C16 C 1.00082 0.48426 0.23036 0.0
C17 C 0.01178 0.52473 0.1136 0.0
C18 C 0.90288 0.36577 0.17224 0.0
C19 C 0.89652 0.5345 0.17104 0.0
C20 C 0.11208 0.47682 0.16281 0.0
C21 C 0.10246 0.64271 0.18584 0.0
O22 O 0.01786 0.46129 0.21824 0.0
O23 O 0.48484 0.0332 0.45868 0.0
Zn24 Zn 0.45938 0.02023 0.48934 0.0
O25 O 0.50934 0.01193 0.50739 0.0
Zn26 Zn 0.54361 0.07071 0.52694 0.0
Zn27 Zn 0.56291 0.00903 0.48963 0.0
Zn28 Zn 0.47149 0.94788 0.52437 0.0
O29 O 0.53973 0.04645 0.55747 0.0
O30 O 0.47511 0.96276 0.55597 0.0
O31 O 0.4493 0.08078 0.49969 0.0
O32 O 0.50823 0.11367 0.52592 0.0
O33 O 0.61811 0.12037 0.51782 0.0
O34 O 0.63303 0.07717 0.49219 0.0
O35 O 0.56953 0.94448 0.49685 0.0
O36 O 0.38995 0.95121 0.48832 0.0
O37 O 0.50471 0.9034 0.52055 0.0
O38 O 0.39717 0.90249 0.51397 0.0
C39 C 0.51583 0.02205 0.44872 0.0
C40 C 0.50759 1.00305 0.56659 0.0
C41 C 0.64803 0.11795 0.50373 0.0
C42 C 0.47258 0.11413 0.51459 0.0
C43 C 0.54228 0.90602 0.50954 0.0
C44 C 0.37135 0.9083 0.49891 0.0
O45 O 0.54431 0.00721 0.45847 0.0
O46 O 0.47783 0.50245 0.79029 0.0
Zn47 Zn 0.461 0.47269 0.82059 0.0
O48 O 0.51966 0.5163 0.83979 0.0
Zn49 Zn 0.49767 0.54889 0.86109 0.0
Zn50 Zn 0.57806 0.57153 0.82342 0.0
Zn51 Zn 0.54256 0.47341 0.85486 0.0
O52 O 0.51749 0.5393 0.89088 0.0
O53 O 0.52873 0.4702 0.88674 0.0
O54 O 0.39237 0.46651 0.83126 0.0
O55 O 0.41958 0.51545 0.86068 0.0
O56 O 0.5244 0.62498 0.85395 0.0
O57 O 0.58077 0.64122 0.82734 0.0
O58 O 0.64786 0.57672 0.83104 0.0
O59 O 0.45283 0.40009 0.81842 0.0
O60 O 0.62056 0.50586 0.85182 0.0
O61 O 0.51112 0.40152 0.84154 0.0
C62 C 0.52205 0.53276 0.7813 0.0
C63 C 0.52417 0.50286 0.89865 0.0
C64 C 0.55628 0.65578 0.83982 0.0
C65 C 0.38319 0.48559 0.84792 0.0
C66 C 0.65718 0.54622 0.84246 0.0
C67 C 0.47654 0.37841 0.8271 0.0
O68 O 0.56446 0.55754 0.79198 0.0
C69 C 0.61543 0.08918 0.21005 0.0
C70 C 0.65346 0.12116 0.2251 0.0
C71 C 0.71268 0.17385 0.19645 0.0
C72 C 0.7018 0.16325 0.21833 0.0
C73 C 0.6752 0.14102 0.18141 0.0
C74 C 0.62681 0.09889 0.18819 0.0
U75 U 0.51657 0.01553 0.25436 0.0
O76 O 0.43177 0.98802 0.25615 0.0
O77 O 0.45947 0.93127 0.2587 0.0
C78 C 0.41864 0.93807 0.25699 0.0
C79 C 0.56303 0.0475 0.21704 0.0
C80 C 0.37528 0.90138 0.24279 0.0
C81 C 0.28817 0.87123 0.22777 0.0
C82 C 0.33246 0.90911 0.23881 0.0
C83 C 0.32907 0.81772 0.22395 0.0
C84 C 0.28586 0.82488 0.22064 0.0
C85 C 0.37337 0.85556 0.23493 0.0
C86 C 0.55818 0.05523 0.31237 0.0
C87 C 0.49752 0.01909 0.34237 0.0
C88 C 0.59126 0.07324 0.34872 0.0
C89 C 0.60034 0.07928 0.3267 0.0
C90 C 0.53984 0.04307 0.35671 0.0
C91 C 0.50665 0.02499 0.32031 0.0
C92 C 0.56887 0.06142 0.28927 0.0
O93 O 0.56189 0.00844 0.22786 0.0
O94 O 0.53338 0.06449 0.22551 0.0
O95 O 0.54272 0.0788 0.27812 0.0
O96 O 0.57066 0.0222 0.28005 0.0
H97 H 0.64521 0.11429 0.24204 0.0
H98 H 0.73016 0.1885 0.23013 0.0
H99 H 0.68283 0.14899 0.16448 0.0
H100 H 0.59781 0.07466 0.17639 0.0
H101 H 0.25488 0.87706 0.22555 0.0
H102 H 0.3324 0.94359 0.2449 0.0
H103 H 0.32764 0.78186 0.21873 0.0
H104 H 0.40525 0.84791 0.23787 0.0
H105 H 0.4576 0.99569 0.34829 0.0
H106 H 0.62434 0.09197 0.35956 0.0
H107 H 0.64033 0.1026 0.32084 0.0
H108 H 0.47365 0.00592 0.30945 0.0
C109 C 0.52198 0.61379 0.54232 0.0
C110 C 0.50717 0.64307 0.55535 0.0
C111 C 0.53987 0.71328 0.52874 0.0
C112 C 0.51588 0.69236 0.54856 0.0
C113 C 0.55581 0.68458 0.51594 0.0
C114 C 0.54674 0.63508 0.52267 0.0
U115 U 0.50102 0.51425 0.58607 0.0
O116 O 0.44659 0.42873 0.58812 0.0
O117 O 0.53188 0.45986 0.58926 0.0
C118 C 0.48478 0.41771 0.58857 0.0
C119 C 0.51211 0.56132 0.54907 0.0
C120 C 0.47887 0.37487 0.57451 0.0
C121 C 0.45243 0.32626 0.54106 0.0
C122 C 0.45888 0.36859 0.55365 0.0
C123 C 0.48625 0.29661 0.56997 0.0
C124 C 0.46618 0.29006 0.54918 0.0
C125 C 0.49253 0.33864 0.58251 0.0
C126 C 0.50757 0.55793 0.6446 0.0
C127 C 0.53475 0.52912 0.67608 0.0
C128 C 0.49149 0.57965 0.68013 0.0
C129 C 0.48639 0.58065 0.65794 0.0
C130 C 0.52134 0.55921 0.68966 0.0
C131 C 0.52944 0.52978 0.65387 0.0
C132 C 0.50821 0.56584 0.62128 0.0
O133 O 0.55121 0.56092 0.55907 0.0
O134 O 0.46608 0.53025 0.55801 0.0
O135 O 0.46357 0.53723 0.61113 0.0
O136 O 0.54914 0.56999 0.61101 0.0
H137 H 0.48853 0.62766 0.57068 0.0
H138 H 0.50351 0.71403 0.55868 0.0
H139 H 0.57454 0.7002 0.50064 0.0
H140 H 0.55879 0.61326 0.51247 0.0
H141 H 0.43688 0.32175 0.52504 0.0
H142 H 0.44811 0.39616 0.54717 0.0
H143 H 0.49707 0.26909 0.57648 0.0
H144 H 0.50788 0.34273 0.59856 0.0
H145 H 0.54948 0.50462 0.68227 0.0
H146 H 0.47141 0.59503 0.68944 0.0
H147 H 0.46635 0.59987 0.65118 0.0
H148 H 0.54311 0.50887 0.64394 0.0
C149 C 0.94084 0.54917 0.87527 0.0
C150 C 0.90245 0.5439 0.89 0.0
C151 C 0.85502 0.55925 0.86172 0.0
C152 C 0.85974 0.5488 0.88325 0.0
C153 C 0.89432 0.56622 0.84712 0.0
C154 C 0.93693 0.56105 0.85386 0.0
U155 U 0.02118 0.53271 0.91904 0.0
O156 O 0.04992 0.47676 0.922 0.0
O157 O 0.10621 0.56187 0.92133 0.0
C158 C 0.09964 0.51408 0.921 0.0
C159 C 0.98401 0.54069 0.88195 0.0
C160 C 0.1342 0.50556 0.90628 0.0
C161 C 0.22238 0.53466 0.89283 0.0
C162 C 0.18789 0.54376 0.905 0.0
C163 C 0.15021 0.44915 0.88265 0.0
C164 C 0.20394 0.48705 0.88185 0.0
C165 C 0.11555 0.45828 0.89479 0.0
C166 C 0.98723 0.54139 0.97737 0.0
C167 C 0.04057 0.54292 0.00736 0.0
C168 C 0.9557 0.53555 0.01369 0.0
C169 C 0.94855 0.53702 0.99168 0.0
C170 C 1.00172 0.53849 0.02168 0.0
C171 C 0.0333 0.54421 0.9853 0.0
C172 C 0.97882 0.54303 0.95429 0.0
O173 O 0.02375 0.58082 0.89143 0.0
O174 O 0.96922 0.49541 0.89156 0.0
O175 O 0.96074 0.49799 0.94423 0.0
O176 O 0.01669 0.58311 0.94385 0.0
H177 H 0.905 0.53497 0.90662 0.0
H178 H 0.82974 0.5433 0.89471 0.0
H179 H 0.89122 0.57429 0.83045 0.0
H180 H 0.96631 0.56538 0.84231 0.0
H181 H 0.26381 0.56421 0.89244 0.0
H182 H 0.2035 0.58023 0.91384 0.0
H183 H 0.13545 0.41209 0.87432 0.0
H184 H 0.07451 0.42781 0.89554 0.0
H185 H 0.07629 0.5452 0.01327 0.0
H186 H 0.92535 0.53207 0.02452 0.0
H187 H 0.91277 0.53476 0.98583 0.0
H188 H 0.06352 0.54745 0.97445 0.0
C189 C 0.92165 0.41146 0.46825 0.0
C190 C 0.88957 0.37482 0.45279 0.0
C191 C 0.83686 0.31286 0.48073 0.0
C192 C 0.84741 0.32587 0.459 0.0
C193 C 0.86953 0.34907 0.49619 0.0
C194 C 0.91173 0.39813 0.48997 0.0
U195 U 1.00119 0.50773 0.4243 0.0
O196 O 0.03179 0.59298 0.42089 0.0
O197 O 0.08628 0.56232 0.42082 0.0
C198 C 0.08111 0.6043 0.42057 0.0
C199 C 0.96469 0.46379 0.46174 0.0
C200 C 0.11773 0.6481 0.43425 0.0
C201 C 0.14971 0.68746 0.46915 0.0
C202 C 0.11261 0.64579 0.45661 0.0
C203 C 0.19654 0.73409 0.43709 0.0
C204 C 0.19216 0.73162 0.45942 0.0
C205 C 0.15955 0.69268 0.42462 0.0
C206 C 0.96426 0.45838 0.36643 0.0
C207 C 0.02037 0.48614 0.33497 0.0
C208 C 0.9265 0.43327 0.33101 0.0
C209 C 0.92033 0.43362 0.35314 0.0
C210 C 0.97699 0.45458 0.32152 0.0
C211 C 0.01428 0.48681 0.35713 0.0
C212 C 0.95696 0.45256 0.38978 0.0
O213 O 1.00472 0.46399 0.4523 0.0
O214 O 0.94975 0.49392 0.45203 0.0
O215 O 0.94066 0.48184 0.39914 0.0
O216 O 0.99398 0.44982 0.4005 0.0
H217 H 0.89671 0.38446 0.43594 0.0
H218 H 0.82236 0.29852 0.44688 0.0
H219 H 0.86166 0.33977 0.51303 0.0
H220 H 0.93613 0.42593 0.50209 0.0
H221 H 0.14608 0.68479 0.48639 0.0
H222 H 0.08055 0.61155 0.4643 0.0
H223 H 0.22926 0.76767 0.42936 0.0
H224 H 0.16411 0.69508 0.4074 0.0
H225 H 0.05952 0.51102 0.32873 0.0
H226 H 0.89091 0.4163 0.32169 0.0
H227 H 0.88102 0.414 0.3599 0.0
H228 H 0.04876 0.50912 0.367 0.0
C229 C 0.54165 0.93108 0.80439 0.0
C230 C 0.54418 0.89738 0.78919 0.0
C231 C 0.55503 0.84679 0.81751 0.0
C232 C 0.55077 0.85544 0.79572 0.0
C233 C 0.55389 0.88129 0.83267 0.0
C234 C 0.54721 0.92326 0.82613 0.0
U235 U 0.51642 1.00456 0.76036 0.0
O236 O 0.45942 0.0322 0.75836 0.0
O237 O 0.54406 0.08886 0.75585 0.0
C238 C 0.49642 0.08213 0.75743 0.0
C239 C 0.531 0.97287 0.79768 0.0
C240 C 0.48994 0.11919 0.77142 0.0
C241 C 0.43265 0.14571 0.78885 0.0
C242 C 0.43947 0.10788 0.77803 0.0
C243 C 0.52661 0.20638 0.78717 0.0
C244 C 0.47612 0.19546 0.79315 0.0
C245 C 0.53349 0.16869 0.77637 0.0
C246 C 0.51759 0.96516 0.70252 0.0
C247 C 0.5121 0.0156 0.67273 0.0
C248 C 0.51462 0.93548 0.66615 0.0
C249 C 0.51729 0.92856 0.68812 0.0
C250 C 0.5123 0.97917 0.65831 0.0
C251 C 0.51463 0.00858 0.69474 0.0
C252 C 0.52219 0.95823 0.72552 0.0
O253 O 0.56897 0.01195 0.78685 0.0
O254 O 0.48423 0.95602 0.78931 0.0
O255 O 0.47867 0.94103 0.73668 0.0
O256 O 0.56347 0.99714 0.7348 0.0
H257 H 0.53988 0.90286 0.77234 0.0
H258 H 0.55118 0.82889 0.78385 0.0
H259 H 0.55669 0.87482 0.84955 0.0
H260 H 0.54526 0.9489 0.83805 0.0
H261 H 0.39334 0.13692 0.79315 0.0
H262 H 0.405 0.07049 0.77419 0.0
H263 H 0.5605 0.24485 0.79018 0.0
H264 H 0.57277 0.17911 0.77127 0.0
H265 H 0.51041 0.04956 0.66693 0.0
H266 H 0.51486 0.90707 0.65522 0.0
H267 H 0.51957 0.89488 0.69388 0.0
H268 H 0.51481 0.03721 0.70567 0.0
C269 C 0.60752 0.51866 0.13752 0.0
C270 C 0.63772 0.5053 0.12435 0.0
C271 C 0.7052 0.53398 0.15172 0.0
C272 C 0.68612 0.51276 0.13143 0.0
C273 C 0.67556 0.5484 0.16471 0.0
C274 C 0.62692 0.54062 0.15766 0.0
U275 U 0.51095 0.49683 0.0929 0.0
O276 O 0.42548 0.44339 0.09069 0.0
O277 O 0.45811 0.52893 0.08803 0.0
C278 C 0.41546 0.48222 0.08917 0.0
C279 C 0.55599 0.50994 0.13036 0.0
C280 C 0.37257 0.47826 0.10271 0.0
C281 C 0.32191 0.45356 0.13578 0.0
C282 C 0.3643 0.45831 0.1237 0.0
C283 C 0.29621 0.48913 0.10615 0.0
C284 C 0.28763 0.46901 0.12704 0.0
C285 C 0.33831 0.4937 0.0941 0.0
C286 C 0.55379 0.49551 0.03522 0.0
C287 C 0.50546 0.49849 1.00423 0.0
C288 C 0.58189 0.48851 0.9995 0.0
C289 C 0.5884 0.48958 0.02165 0.0
C290 C 0.54071 0.49348 0.99064 0.0
C291 C 0.5119 0.49941 0.02642 0.0
C292 C 0.56313 0.49943 0.0584 0.0
O293 O 0.55731 0.54882 0.11934 0.0
O294 O 0.52428 0.46334 0.12211 0.0
O295 O 0.53409 0.45617 0.06951 0.0
O296 O 0.56756 0.54181 0.06744 0.0
H297 H 0.62365 0.48875 0.10866 0.0
H298 H 0.70857 0.5016 0.12117 0.0
H299 H 0.6898 0.56502 0.18037 0.0
H300 H 0.60432 0.55146 0.16798 0.0
H301 H 0.31581 0.43795 0.15189 0.0
H302 H 0.39034 0.4462 0.13066 0.0
H303 H 0.27017 0.50124 0.09917 0.0
H304 H 0.34397 0.50906 0.07795 0.0
H305 H 0.47353 0.50245 0.99764 0.0
H306 H 0.60945 0.48468 0.98923 0.0
H307 H 0.62092 0.48654 0.02818 0.0
H308 H 0.48477 0.50396 0.03668 0.0
C309 C 0.14681 0.42763 0.14201 0.0
C310 C 0.1552 0.46663 0.1573 0.0
C311 C 0.25068 0.50329 0.15489 0.0
C312 C 0.24238 0.46448 0.1395 0.0
N313 N 0.18345 0.38252 0.12217 0.0
N314 N 0.21271 0.53277 0.18222 0.0
C315 C 0.19058 0.42418 0.13433 0.0
C316 C 0.2065 0.50156 0.16504 0.0
N317 N 0.09749 0.39586 0.13398 0.0
N318 N 0.30059 0.54334 0.159 0.0
H319 H 0.18092 0.53205 0.18998 0.0
H320 H 0.24845 0.55555 0.18998 0.0
H321 H 0.334 0.54556 0.15216 0.0
H322 H 0.30887 0.57623 0.1681 0.0
H323 H 0.08976 0.37119 0.12092 0.0
H324 H 0.06435 0.39642 0.13958 0.0
H325 H 0.14683 0.34932 0.11946 0.0
H326 H 0.2148 0.37902 0.11631 0.0
C327 C 0.69298 0.21009 0.48945 0.0
C328 C 0.69704 0.16726 0.49794 0.0
C329 C 0.79312 0.21861 0.4938 0.0
C330 C 0.78909 0.26286 0.48722 0.0
N331 N 0.7363 0.30391 0.48242 0.0
N332 N 0.7505 0.13195 0.51059 0.0
C333 C 0.73931 0.25951 0.48613 0.0
C334 C 0.74704 0.17176 0.50074 0.0
N335 N 0.64496 0.20289 0.48356 0.0
N336 N 0.84073 0.22098 0.49287 0.0
H337 H 0.71747 0.0971 0.51567 0.0
H338 H 0.78594 0.13489 0.51515 0.0
H339 H 0.87527 0.25489 0.4882 0.0
H340 H 0.84549 0.18847 0.49523 0.0
H341 H 0.64026 0.23093 0.47513 0.0
H342 H 0.60997 0.16698 0.48516 0.0
H343 H 0.70156 0.30502 0.48389 0.0
H344 H 0.76932 0.34092 0.47975 0.0
C345 C 0.50952 0.70255 0.82763 0.0
C346 C 0.55665 0.70543 0.83499 0.0
C347 C 0.60399 0.80148 0.83004 0.0
C348 C 0.55585 0.79871 0.82442 0.0
N349 N 0.4612 0.74828 0.82188 0.0
N350 N 0.64712 0.75732 0.84592 0.0
C351 C 0.50812 0.74971 0.82447 0.0
C352 C 0.60356 0.75488 0.83695 0.0
N353 N 0.46685 0.65487 0.82248 0.0
N354 N 0.65016 0.84833 0.8282 0.0
H355 H 0.64797 0.72385 0.85104 0.0
H356 H 0.68095 0.79248 0.8498 0.0
H357 H 0.65169 0.88329 0.82358 0.0
H358 H 0.68709 0.85196 0.8298 0.0
H359 H 0.43367 0.65103 0.8148 0.0
H360 H 0.46631 0.61917 0.82389 0.0
H361 H 0.42483 0.71431 0.82419 0.0
H362 H 0.45843 0.78198 0.81933 0.0
C363 C 0.80457 0.50899 0.18116 0.0
C364 C 0.85104 0.54304 0.16961 0.0
C365 C 0.80396 0.57952 0.15014 0.0
C366 C 0.75597 0.54004 0.15934 0.0
N367 N 0.70926 0.46399 0.18232 0.0
N368 N 0.89593 0.60974 0.14265 0.0
C369 C 0.75594 0.50432 0.17475 0.0
C370 C 0.85111 0.57841 0.15408 0.0
N371 N 0.80694 0.48078 0.19813 0.0
N372 N 0.80443 0.61849 0.13792 0.0
H373 H 0.93176 0.61184 0.14594 0.0
H374 H 0.89712 0.63159 0.1293 0.0
H375 H 0.77056 0.62046 0.13483 0.0
H376 H 0.83872 0.65124 0.13238 0.0
H377 H 0.77559 0.45912 0.20851 0.0
H378 H 0.84182 0.48273 0.203 0.0
H379 H 0.70626 0.43305 0.19159 0.0
H380 H 0.67277 0.45903 0.17803 0.0
C381 C 0.27448 0.8598 0.4902 0.0
C382 C 0.32335 0.86103 0.49089 0.0
C383 C 0.2818 0.77225 0.47555 0.0
C384 C 0.2349 0.77381 0.47235 0.0
N385 N 0.18653 0.81982 0.47514 0.0
N386 N 0.37596 0.82236 0.48055 0.0
C387 C 0.23105 0.81771 0.47939 0.0
C388 C 0.32762 0.81809 0.48277 0.0
N389 N 0.26939 0.89824 0.50028 0.0
N390 N 0.28251 0.72676 0.47169 0.0
H391 H 0.41112 0.85583 0.4848 0.0
H392 H 0.38187 0.79477 0.47248 0.0
H393 H 0.24983 0.69252 0.46609 0.0
H394 H 0.31382 0.72144 0.47594 0.0
H395 H 0.23363 0.89708 0.50218 0.0
H396 H 0.30046 0.92939 0.50834 0.0
H397 H 0.18335 0.85318 0.47762 0.0
H398 H 0.15351 0.78894 0.46789 0.0
C399 C 0.47948 0.32583 0.79608 0.0
C400 C 0.46949 0.32845 0.81815 0.0
C401 C 0.46169 0.24193 0.824 0.0
C402 C 0.46883 0.23846 0.80179 0.0
N403 N 0.47072 0.27032 0.76606 0.0
N404 N 0.44047 0.28471 0.85225 0.0
C405 C 0.47305 0.2782 0.78764 0.0
C406 C 0.45735 0.2851 0.83188 0.0
N407 N 0.49888 0.36981 0.7834 0.0
N408 N 0.46087 0.205 0.83763 0.0
H409 H 0.43597 0.31529 0.85833 0.0
H410 H 0.42633 0.2522 0.86242 0.0
H411 H 0.46286 0.17236 0.83233 0.0
H412 H 0.46181 0.20853 0.85418 0.0
H413 H 0.51233 0.37131 0.76787 0.0
H414 H 0.50685 0.40652 0.78891 0.0
H415 H 0.46795 0.29558 0.75507 0.0
H416 H 0.46627 0.23592 0.75925 0.0
C417 C 0.58421 0.85968 0.52745 0.0
C418 C 0.55154 0.86094 0.51108 0.0
C419 C 0.51401 0.76624 0.50504 0.0
C420 C 0.54701 0.76484 0.52132 0.0
N421 N 0.62166 0.81156 0.54457 0.0
N422 N 0.49523 0.8197 0.4809 0.0
C423 C 0.5848 0.81213 0.53143 0.0
C424 C 0.51985 0.81553 0.4987 0.0
N425 N 0.61312 0.90341 0.53969 0.0
N426 N 0.47505 0.72025 0.49653 0.0
H427 H 0.49884 0.85539 0.47594 0.0
H428 H 0.47547 0.78926 0.47001 0.0
H429 H 0.46915 0.68326 0.50079 0.0
H430 H 0.44591 0.71827 0.48647 0.0
H431 H 0.63272 0.90339 0.55354 0.0
H432 H 0.61531 0.93943 0.53653 0.0
H433 H 0.6533 0.84545 0.55087 0.0
H434 H 0.6232 0.7774 0.54771 0.0
C435 C 0.75006 0.59843 0.85617 0.0
C436 C 0.71135 0.55526 0.84428 0.0
C437 C 0.76768 0.51587 0.84301 0.0
C438 C 0.80716 0.55974 0.85435 0.0
N439 N 0.84107 0.64778 0.86779 0.0
N440 N 0.68809 0.48022 0.82184 0.0
C441 C 0.79996 0.60271 0.85967 0.0
C442 C 0.7218 0.51632 0.83624 0.0
N443 N 0.73826 0.63376 0.86504 0.0
N444 N 0.77272 0.47258 0.83962 0.0
H445 H 0.65438 0.4799 0.81636 0.0
H446 H 0.69613 0.45409 0.81376 0.0
H447 H 0.8056 0.4704 0.84435 0.0
H448 H 0.7425 0.43711 0.83369 0.0
H449 H 0.76247 0.6624 0.87596 0.0
H450 H 0.70245 0.6323 0.86259 0.0
H451 H 0.84002 0.68239 0.87004 0.0
H452 H 0.87802 0.65202 0.87058 0.0
C453 C 0.16264 0.69087 0.21642 0.0
C454 C 0.14681 0.69151 0.195 0.0
C455 C 0.22283 0.78058 0.1901 0.0
C456 C 0.23616 0.78091 0.2119 0.0
N457 N 0.212 0.74177 0.24701 0.0
N458 N 0.15612 0.74009 0.16258 0.0
C459 C 0.20376 0.73778 0.22544 0.0
C460 C 0.1753 0.73735 0.18213 0.0
N461 N 0.14104 0.64466 0.22775 0.0
N462 N 0.25633 0.82078 0.17691 0.0
H463 H 0.12109 0.70943 0.15645 0.0
H464 H 0.17225 0.77421 0.15328 0.0
H465 H 0.29077 0.85348 0.18236 0.0
H466 H 0.25192 0.82006 0.16039 0.0
H467 H 0.1553 0.64102 0.24252 0.0
H468 H 0.11258 0.60854 0.22159 0.0
H469 H 0.18599 0.71376 0.25787 0.0
H470 H 0.24208 0.77539 0.25427 0.0
C471 C 0.49703 0.20825 0.51094 0.0
C472 C 0.46096 0.15697 0.51859 0.0
C473 C 0.41847 0.19329 0.541 0.0
C474 C 0.46013 0.24491 0.5362 0.0
N475 N 0.53996 0.30254 0.51691 0.0
N476 N 0.38681 0.09917 0.54056 0.0
C477 C 0.4992 0.25278 0.52094 0.0
C478 C 0.42087 0.14895 0.53327 0.0
N479 N 0.52929 0.21402 0.49416 0.0
N480 N 0.37672 0.18697 0.55293 0.0
H481 H 0.38632 0.06585 0.53449 0.0
H482 H 0.36074 0.09099 0.55319 0.0
H483 H 0.37408 0.21884 0.55877 0.0
H484 H 0.34284 0.15073 0.55553 0.0
H485 H 0.55355 0.24983 0.48652 0.0
H486 H 0.5281 0.18183 0.48657 0.0
H487 H 0.57298 0.31049 0.50794 0.0
H488 H 0.54239 0.33617 0.52362 0.0
C489 C 0.30489 0.4444 0.87179 0.0
C490 C 0.32925 0.47397 0.85307 0.0
C491 C 0.2609 0.49831 0.85012 0.0
C492 C 0.24214 0.47628 0.87067 0.0
N493 N 0.24619 0.42917 0.90161 0.0
N494 N 0.33218 0.53026 0.8243 0.0
C495 C 0.26355 0.44876 0.88153 0.0
C496 C 0.30716 0.50047 0.84193 0.0
N497 N 0.32155 0.41216 0.88016 0.0
N498 N 0.23438 0.51713 0.83853 0.0
H499 H 0.36525 0.53157 0.81754 0.0
H500 H 0.32201 0.55586 0.81702 0.0
H501 H 0.20065 0.51637 0.84426 0.0
H502 H 0.24295 0.52925 0.82267 0.0
H503 H 0.30268 0.38589 0.8927 0.0
H504 H 0.35166 0.40821 0.87319 0.0
H505 H 0.26445 0.41444 0.91143 0.0
H506 H 0.21511 0.43042 0.90907 0.0
C507 C 0.81222 0.31871 0.18768 0.0
C508 C 0.85436 0.31593 0.17786 0.0
C509 C 0.80498 0.2195 0.18142 0.0
C510 C 0.76125 0.22235 0.18943 0.0
N511 N 0.7194 0.27363 0.1963 0.0
N512 N 0.88935 0.26428 0.163 0.0
C513 C 0.76375 0.27168 0.19138 0.0
C514 C 0.85039 0.26642 0.17408 0.0
N515 N 0.8193 0.3661 0.19452 0.0
N516 N 0.80358 0.17222 0.1814 0.0
H517 H 0.92312 0.29799 0.1576 0.0
H518 H 0.88655 0.22932 0.15779 0.0
H519 H 0.77071 0.13713 0.18638 0.0
H520 H 0.83604 0.16824 0.17791 0.0
H521 H 0.792 0.36958 0.20394 0.0
H522 H 0.85455 0.40165 0.19269 0.0
H523 H 0.71755 0.30814 0.19555 0.0
H524 H 0.683 0.24005 0.19923 0.0
C525 C 0.01018 0.48905 0.07718 0.0
C526 C 0.014 0.53055 0.09004 0.0
C527 C 0.01934 0.58089 0.05782 0.0
C528 C 0.00875 0.53665 0.04513 0.0
N529 N 0.98746 0.44596 0.04274 0.0
N530 N 0.01558 0.61334 0.09293 0.0
C531 C 1.0026 0.49002 0.0548 0.0
C532 C 0.01719 0.57602 0.08046 0.0
N533 N 0.01537 0.44947 0.08631 0.0
N534 N 0.03249 0.62786 0.04819 0.0
H535 H 0.01379 0.61117 0.10957 0.0
H536 H 0.01166 0.64423 0.08679 0.0
H537 H 0.03447 0.63284 0.03164 0.0
H538 H 0.04597 0.66294 0.05654 0.0
H539 H 0.01845 0.42108 0.07751 0.0
H540 H 0.02169 0.44784 0.10263 0.0
H541 H 0.97651 0.40913 0.04926 0.0
H542 H 0.98169 0.44507 0.02628 0.0
C543 C 0.5067 0.98184 0.41253 0.0
C544 C 0.51937 0.02684 0.4251 0.0
C545 C 0.53732 0.08008 0.39253 0.0
C546 C 0.53068 0.0367 0.38019 0.0
N547 N 0.51652 0.94833 0.37858 0.0
N548 N 0.55499 0.1209 0.42741 0.0
C549 C 0.51728 0.98803 0.39022 0.0
C550 C 0.53669 0.07656 0.4152 0.0
N551 N 0.48287 0.93291 0.4218 0.0
N552 N 0.54307 0.12425 0.38258 0.0
H553 H 0.5561 0.12028 0.44405 0.0
H554 H 0.57352 0.15889 0.42103 0.0
H555 H 0.54361 0.12819 0.366 0.0
H556 H 0.54249 0.15489 0.39067 0.0
H557 H 0.4677 0.89812 0.41311 0.0
H558 H 0.47371 0.92667 0.43804 0.0
H559 H 0.51289 0.91424 0.38544 0.0
H560 H 0.52395 0.95123 0.36219 0.0
C561 C 0.50587 0.57467 0.74937 0.0
C562 C 0.52477 0.54244 0.75795 0.0
C563 C 0.56342 0.5438 0.7231 0.0
C564 C 0.53368 0.56455 0.7136 0.0
N565 N 0.52058 0.6374 0.72152 0.0
N566 N 0.57294 0.49654 0.75285 0.0
C567 C 0.51645 0.5908 0.72764 0.0
C568 C 0.55421 0.52727 0.7448 0.0
N569 N 0.47896 0.59114 0.76194 0.0
N570 N 0.60654 0.54872 0.71276 0.0
H571 H 0.56797 0.48435 0.76877 0.0
H572 H 0.58981 0.48 0.74324 0.0
H573 H 0.62036 0.57038 0.6986 0.0
H574 H 0.63259 0.53869 0.7197 0.0
H575 H 0.46012 0.61035 0.75572 0.0
H576 H 0.4726 0.5827 0.77823 0.0
H577 H 0.51317 0.66087 0.73176 0.0
H578 H 0.53958 0.65629 0.70735 0.0
C579 C 0.55537 1.00484 0.60008 0.0
C580 C 0.50919 0.99867 0.59014 0.0
C581 C 0.46393 0.97693 0.6248 0.0
C582 C 0.51139 0.98727 0.6349 0.0
N583 N 0.60488 0.02075 0.63284 0.0
N584 N 0.42272 0.98841 0.59327 0.0
C585 C 0.55793 1.00414 0.62273 0.0
C586 C 0.46428 0.98735 0.60257 0.0
N587 N 0.59587 0.00888 0.58788 0.0
N588 N 0.41817 0.95555 0.6363 0.0
H589 H 0.42181 0.99646 0.57708 0.0
H590 H 0.39129 0.98604 0.60189 0.0
H591 H 0.4164 0.94768 0.65263 0.0
H592 H 0.38134 0.94168 0.62938 0.0
H593 H 0.62794 0.00754 0.59422 0.0
H594 H 0.5953 0.00869 0.57123 0.0
H595 H 0.64098 0.03885 0.62493 0.0
H596 H 0.60835 0.02081 0.64943 0.0
C597 C 0.48967 0.45532 0.93364 0.0
C598 C 0.52851 0.49969 0.92214 0.0
C599 C 0.57199 0.54185 0.9557 0.0
C600 C 0.53595 0.4956 0.96705 0.0
N601 N 0.46535 0.40518 0.96675 0.0
N602 N 0.61199 0.58087 0.92163 0.0
C603 C 0.49609 0.45139 0.95599 0.0
C604 C 0.57116 0.54183 0.93301 0.0
N605 N 0.44564 0.41798 0.92337 0.0
N606 N 0.60598 0.58637 0.96664 0.0
H607 H 0.61322 0.58196 0.90497 0.0
H608 H 0.64685 0.60947 0.92861 0.0
H609 H 0.60781 0.58802 0.98328 0.0
H610 H 0.62912 0.62291 0.95933 0.0
H611 H 0.41325 0.38782 0.93128 0.0
H612 H 0.43947 0.41959 0.90705 0.0
H613 H 0.43955 0.36992 0.95921 0.0
H614 H 0.46866 0.40098 0.98313 0.0
C615 C 0.0407 0.48779 0.26627 0.0
C616 C 0.9953 0.47152 0.25346 0.0
C617 C 0.94042 0.42089 0.28381 0.0
C618 C 0.98402 0.44875 0.29766 0.0
N619 N 0.07402 0.46839 0.29814 0.0
N620 N 0.90071 0.41891 0.2498 0.0
C621 C 0.03451 0.47129 0.28796 0.0
C622 C 0.94471 0.43707 0.26216 0.0
N623 N 0.08971 0.51962 0.25793 0.0
N624 N 0.89922 0.37346 0.2901 0.0
H625 H 0.90201 0.42736 0.23354 0.0
H626 H 0.8628 0.39798 0.25617 0.0
H627 H 0.90039 0.35545 0.30435 0.0
H628 H 0.86848 0.34893 0.27997 0.0
H629 H 0.12353 0.5371 0.26732 0.0
H630 H 0.09606 0.53137 0.24195 0.0
H631 H 0.11034 0.47985 0.29107 0.0
H632 H 0.06727 0.44714 0.31235 0.0
loop_
_geom_bond_atom_site_label_1
_geom_bond_atom_site_label_2
_geom_bond_distance
_geom_bond_site_symmetry_2
_ccdc_geom_bond_type
O0 Zn1 1.953 . S
O0 C16 1.225 1_655 S
Zn1 O0 1.953 . S
Zn1 O2 1.949 1_655 S
Zn1 O8 1.919 . S
Zn1 O13 1.924 1_655 S
O2 Zn1 1.949 1_455 S
O2 Zn3 1.923 1_455 S
O2 Zn4 1.950 . S
O2 Zn5 1.945 . S
Zn3 O2 1.923 1_655 S
Zn3 O6 1.933 . S
Zn3 O9 1.941 . S
Zn3 O10 1.965 . S
Zn4 O2 1.950 . S
Zn4 O11 1.938 1_455 S
Zn4 O12 1.906 . S
Zn4 O22 1.953 . S
Zn5 O2 1.945 . S
Zn5 O7 1.932 . S
Zn5 O14 1.977 . S
Zn5 O15 1.910 . S
O6 Zn3 1.933 . S
O6 C17 1.226 1_655 S
O7 Zn5 1.932 . S
O7 C17 1.307 . S
O8 Zn1 1.919 . S
O8 C19 1.253 . S
O9 Zn3 1.941 . S
O9 C19 1.283 . S
O10 Zn3 1.965 . S
O10 C18 1.303 . S
O11 Zn4 1.938 1_655 S
O11 C18 1.247 . S
O12 Zn4 1.906 . S
O12 C20 1.304 . S
O13 Zn1 1.924 1_455 S
O13 C21 1.311 . S
O14 Zn5 1.977 . S
O14 C20 1.272 . S
O15 Zn5 1.910 . S
O15 C21 1.231 . S
C16 O0 1.225 1_455 S
C16 O22 1.298 . S
C17 O6 1.226 1_455 S
C17 O7 1.307 . S
C18 O10 1.303 . S
C18 O11 1.247 . S
C19 O8 1.253 . S
C19 O9 1.283 . S
C20 O12 1.304 . S
C20 O14 1.272 . S
C21 O13 1.311 . S
C21 O15 1.231 . S
O22 Zn4 1.953 . S
O22 C16 1.298 . S
O23 Zn24 1.953 . S
O23 C39 1.225 . S
Zn24 O23 1.953 . S
Zn24 O25 1.949 . S
Zn24 O31 1.919 . S
Zn24 O36 1.924 1_545 S
O25 Zn24 1.949 . S
O25 Zn26 1.923 . S
O25 Zn27 1.950 1_545 S
O25 Zn28 1.945 1_545 S
Zn26 O25 1.923 . S
Zn26 O29 1.933 . S
Zn26 O32 1.941 . S
Zn26 O33 1.965 . S
Zn27 O25 1.950 1_565 S
Zn27 O34 1.938 1_565 S
Zn27 O35 1.906 . S
Zn27 O45 1.953 . S
Zn28 O25 1.945 1_565 S
Zn28 O30 1.932 . S
Zn28 O37 1.977 . S
Zn28 O38 1.910 . S
O29 Zn26 1.933 . S
O29 C40 1.226 . S
O30 Zn28 1.932 . S
O30 C40 1.307 1_565 S
O31 Zn24 1.919 . S
O31 C42 1.253 . S
O32 Zn26 1.941 . S
O32 C42 1.283 . S
O33 Zn26 1.965 . S
O33 C41 1.303 . S
O34 Zn27 1.938 1_545 S
O34 C41 1.247 . S
O35 Zn27 1.906 . S
O35 C43 1.304 . S
O36 Zn24 1.924 1_565 S
O36 C44 1.311 . S
O37 Zn28 1.977 . S
O37 C43 1.272 . S
O38 Zn28 1.910 . S
O38 C44 1.231 . S
C39 O23 1.225 . S
C39 O45 1.298 1_545 S
C40 O29 1.226 . S
C40 O30 1.307 1_545 S
C41 O33 1.303 . S
C41 O34 1.247 . S
C42 O31 1.253 . S
C42 O32 1.283 . S
C43 O35 1.304 . S
C43 O37 1.272 . S
C44 O36 1.311 . S
C44 O38 1.231 . S
O45 Zn27 1.953 . S
O45 C39 1.298 1_565 S
O46 Zn47 1.953 . S
O46 C62 1.225 . S
Zn47 O46 1.953 . S
Zn47 O48 1.949 . S
Zn47 O54 1.919 . S
Zn47 O59 1.924 . S
O48 Zn47 1.949 . S
O48 Zn49 1.923 . S
O48 Zn50 1.950 . S
O48 Zn51 1.945 . S
Zn49 O48 1.923 . S
Zn49 O52 1.933 . S
Zn49 O55 1.941 . S
Zn49 O56 1.965 . S
Zn50 O48 1.950 . S
Zn50 O57 1.938 . S
Zn50 O58 1.906 . S
Zn50 O68 1.953 . S
Zn51 O48 1.945 . S
Zn51 O53 1.932 . S
Zn51 O60 1.977 . S
Zn51 O61 1.910 . S
O52 Zn49 1.933 . S
O52 C63 1.226 . S
O53 Zn51 1.932 . S
O53 C63 1.307 . S
O54 Zn47 1.919 . S
O54 C65 1.253 . S
O55 Zn49 1.941 . S
O55 C65 1.283 . S
O56 Zn49 1.965 . S
O56 C64 1.303 . S
O57 Zn50 1.938 . S
O57 C64 1.247 . S
O58 Zn50 1.906 . S
O58 C66 1.304 . S
O59 Zn47 1.924 . S
O59 C67 1.311 . S
O60 Zn51 1.977 . S
O60 C66 1.272 . S
O61 Zn51 1.910 . S
O61 C67 1.231 . S
C62 O46 1.225 . S
C62 O68 1.298 . S
C63 O52 1.226 . S
C63 O53 1.307 . S
C64 O56 1.303 . S
C64 O57 1.247 . S
C65 O54 1.253 . S
C65 O55 1.283 . S
C66 O58 1.304 . S
C66 O60 1.272 . S
C67 O59 1.311 . S
C67 O61 1.231 . S
O68 Zn50 1.953 . S
O68 C62 1.298 . S
C69 C70 1.264 . S
C69 C74 1.479 . S
C69 C79 1.465 . S
C70 C69 1.264 . S
C70 C72 1.339 . S
C70 H97 0.931 . S
C71 C72 1.395 . S
C71 C73 1.320 . S
C72 C70 1.339 . S
C72 C71 1.395 . S
C72 H98 0.929 . S
C73 C71 1.320 . S
C73 C74 1.405 . S
C73 H99 0.930 . S
C74 C69 1.479 . S
C74 C73 1.405 . S
C74 H100 0.931 . S
U75 O76 2.454 1_545 S
U75 O77 2.458 1_545 S
U75 C78 2.984 1_545 S
U75 C79 2.847 . S
U75 C92 2.882 . S
U75 O93 2.441 . S
U75 O94 2.420 . S
U75 O95 2.455 1_545 S
U75 O96 2.449 . S
O76 U75 2.454 1_565 S
O76 C78 1.353 . S
O77 U75 2.458 1_565 S
O77 C78 1.286 . S
C78 U75 2.984 1_565 S
C78 O76 1.353 . S
C78 O77 1.286 . S
C78 C80 1.363 . S
C79 C69 1.465 . S
C79 U75 2.847 . S
C79 O93 1.249 . S
C79 O94 1.202 . S
C80 C78 1.363 . S
C80 C82 1.408 . S
C80 C85 1.342 . S
C81 C82 1.310 . S
C81 C84 1.461 . S
C81 H101 0.932 . S
C82 C80 1.408 . S
C82 C81 1.310 . S
C82 H102 0.930 . S
C83 C84 1.474 . S
C83 C85 1.285 . S
C83 H103 0.929 . S
C84 C81 1.461 . S
C84 C83 1.474 . S
C85 C80 1.342 . S
C85 C83 1.285 . S
C85 H104 0.930 . S
C86 C89 1.424 . S
C86 C91 1.245 1_545 S
C86 C92 1.428 . S
C87 C90 1.260 1_565 S
C87 C91 1.477 . S
C87 H105 0.932 . S
C88 C89 1.384 . S
C88 C90 1.479 . S
C88 H106 0.929 . S
C89 C86 1.424 . S
C89 C88 1.384 . S
C89 H107 0.928 . S
C90 C87 1.260 1_545 S
C90 C88 1.479 . S
C91 C86 1.245 1_565 S
C91 C87 1.477 . S
C91 H108 0.932 . S
C92 U75 2.882 . S
C92 C86 1.428 . S
C92 O95 1.301 1_545 S
C92 O96 1.282 . S
O93 U75 2.441 . S
O93 C79 1.249 . S
O94 U75 2.420 . S
O94 C79 1.202 . S
O95 U75 2.455 1_565 S
O95 C92 1.301 1_565 S
O96 U75 2.449 . S
O96 C92 1.282 . S
H97 C70 0.931 . S
H98 C72 0.929 . S
H99 C73 0.930 . S
H100 C74 0.931 . S
H101 C81 0.932 . S
H102 C82 0.930 . S
H103 C83 0.929 . S
H104 C85 0.930 . S
H105 C87 0.932 . S
H106 C88 0.929 . S
H107 C89 0.928 . S
H108 C91 0.932 . S
C109 C110 1.264 . S
C109 C114 1.479 . S
C109 C119 1.465 . S
C110 C109 1.264 . S
C110 C112 1.339 . S
C110 H137 0.931 . S
C111 C112 1.395 . S
C111 C113 1.320 . S
C112 C110 1.339 . S
C112 C111 1.395 . S
C112 H138 0.929 . S
C113 C111 1.320 . S
C113 C114 1.405 . S
C113 H139 0.930 . S
C114 C109 1.479 . S
C114 C113 1.405 . S
C114 H140 0.931 . S
U115 O116 2.454 . S
U115 O117 2.458 . S
U115 C118 2.984 . S
U115 C119 2.847 . S
U115 C132 2.882 . S
U115 O133 2.441 . S
U115 O134 2.420 . S
U115 O135 2.455 . S
U115 O136 2.449 . S
O116 U115 2.454 . S
O116 C118 1.353 . S
O117 U115 2.458 . S
O117 C118 1.286 . S
C118 U115 2.984 . S
C118 O116 1.353 . S
C118 O117 1.286 . S
C118 C120 1.363 . S
C119 C109 1.465 . S
C119 U115 2.847 . S
C119 O133 1.249 . S
C119 O134 1.202 . S
C120 C118 1.363 . S
C120 C122 1.408 . S
C120 C125 1.342 . S
C121 C122 1.310 . S
C121 C124 1.461 . S
C121 H141 0.932 . S
C122 C120 1.408 . S
C122 C121 1.310 . S
C122 H142 0.930 . S
C123 C124 1.474 . S
C123 C125 1.285 . S
C123 H143 0.929 . S
C124 C121 1.461 . S
C124 C123 1.474 . S
C125 C120 1.342 . S
C125 C123 1.285 . S
C125 H144 0.930 . S
C126 C129 1.424 . S
C126 C131 1.245 . S
C126 C132 1.428 . S
C127 C130 1.260 . S
C127 C131 1.477 . S
C127 H145 0.932 . S
C128 C129 1.384 . S
C128 C130 1.479 . S
C128 H146 0.929 . S
C129 C126 1.424 . S
C129 C128 1.384 . S
C129 H147 0.928 . S
C130 C127 1.260 . S
C130 C128 1.479 . S
C131 C126 1.245 . S
C131 C127 1.477 . S
C131 H148 0.932 . S
C132 U115 2.882 . S
C132 C126 1.428 . S
C132 O135 1.301 . S
C132 O136 1.282 . S
O133 U115 2.441 . S
O133 C119 1.249 . S
O134 U115 2.420 . S
O134 C119 1.202 . S
O135 U115 2.455 . S
O135 C132 1.301 . S
O136 U115 2.449 . S
O136 C132 1.282 . S
H137 C110 0.931 . S
H138 C112 0.929 . S
H139 C113 0.930 . S
H140 C114 0.931 . S
H141 C121 0.932 . S
H142 C122 0.930 . S
H143 C123 0.929 . S
H144 C125 0.930 . S
H145 C127 0.932 . S
H146 C128 0.929 . S
H147 C129 0.928 . S
H148 C131 0.932 . S
C149 C150 1.264 . S
C149 C154 1.479 . S
C149 C159 1.465 . S
C150 C149 1.264 . S
C150 C152 1.339 . S
C150 H177 0.931 . S
C151 C152 1.395 . S
C151 C153 1.320 . S
C152 C150 1.339 . S
C152 C151 1.395 . S
C152 H178 0.929 . S
C153 C151 1.320 . S
C153 C154 1.405 . S
C153 H179 0.930 . S
C154 C149 1.479 . S
C154 C153 1.405 . S
C154 H180 0.931 . S
U155 O156 2.454 . S
U155 O157 2.458 . S
U155 C158 2.984 . S
U155 C159 2.847 1_455 S
U155 C172 2.882 . S
U155 O173 2.441 1_455 S
U155 O174 2.420 1_455 S
U155 O175 2.455 . S
U155 O176 2.449 1_455 S
O156 U155 2.454 . S
O156 C158 1.353 . S
O157 U155 2.458 . S
O157 C158 1.286 . S
C158 U155 2.984 . S
C158 O156 1.353 . S
C158 O157 1.286 . S
C158 C160 1.363 . S
C159 C149 1.465 . S
C159 U155 2.847 1_655 S
C159 O173 1.249 . S
C159 O174 1.202 . S
C160 C158 1.363 . S
C160 C162 1.408 . S
C160 C165 1.342 . S
C161 C162 1.310 . S
C161 C164 1.461 . S
C161 H181 0.932 . S
C162 C160 1.408 . S
C162 C161 1.310 . S
C162 H182 0.930 . S
C163 C164 1.474 . S
C163 C165 1.285 . S
C163 H183 0.929 . S
C164 C161 1.461 . S
C164 C163 1.474 . S
C165 C160 1.342 . S
C165 C163 1.285 . S
C165 H184 0.930 . S
C166 C169 1.424 1_455 S
C166 C171 1.245 . S
C166 C172 1.428 . S
C167 C170 1.260 . S
C167 C171 1.477 1_554 S
C167 H185 0.932 . S
C168 C169 1.384 1_554 S
C168 C170 1.479 1_655 S
C168 H186 0.929 . S
C169 C166 1.424 1_655 S
C169 C168 1.384 1_556 S
C169 H187 0.928 . S
C170 C167 1.260 . S
C170 C168 1.479 1_455 S
C171 C166 1.245 . S
C171 C167 1.477 1_556 S
C171 H188 0.932 . S
C172 U155 2.882 . S
C172 C166 1.428 . S
C172 O175 1.301 . S
C172 O176 1.282 1_455 S
O173 U155 2.441 1_655 S
O173 C159 1.249 . S
O174 U155 2.420 1_655 S
O174 C159 1.202 . S
O175 U155 2.455 . S
O175 C172 1.301 . S
O176 U155 2.449 1_655 S
O176 C172 1.282 1_655 S
H177 C150 0.931 . S
H178 C152 0.929 . S
H179 C153 0.930 . S
H180 C154 0.931 . S
H181 C161 0.932 . S
H182 C162 0.930 . S
H183 C163 0.929 . S
H184 C165 0.930 . S
H185 C167 0.932 . S
H186 C168 0.929 . S
H187 C169 0.928 . S
H188 C171 0.932 . S
C189 C190 1.264 . S
C189 C194 1.479 . S
C189 C199 1.465 . S
C190 C189 1.264 . S
C190 C192 1.339 . S
C190 H217 0.931 . S
C191 C192 1.395 . S
C191 C193 1.320 . S
C192 C190 1.339 . S
C192 C191 1.395 . S
C192 H218 0.929 . S
C193 C191 1.320 . S
C193 C194 1.405 . S
C193 H219 0.930 . S
C194 C189 1.479 . S
C194 C193 1.405 . S
C194 H220 0.931 . S
U195 O196 2.454 1_655 S
U195 O197 2.458 1_655 S
U195 C198 2.984 1_655 S
U195 C199 2.847 . S
U195 C212 2.882 . S
U195 O213 2.441 . S
U195 O214 2.420 . S
U195 O215 2.455 1_655 S
U195 O216 2.449 . S
O196 U195 2.454 1_455 S
O196 C198 1.353 . S
O197 U195 2.458 1_455 S
O197 C198 1.286 . S
C198 U195 2.984 1_455 S
C198 O196 1.353 . S
C198 O197 1.286 . S
C198 C200 1.363 . S
C199 C189 1.465 . S
C199 U195 2.847 . S
C199 O213 1.249 . S
C199 O214 1.202 . S
C200 C198 1.363 . S
C200 C202 1.408 . S
C200 C205 1.342 . S
C201 C202 1.310 . S
C201 C204 1.461 . S
C201 H221 0.932 . S
C202 C200 1.408 . S
C202 C201 1.310 . S
C202 H222 0.930 . S
C203 C204 1.474 . S
C203 C205 1.285 . S
C203 H223 0.929 . S
C204 C201 1.461 . S
C204 C203 1.474 . S
C205 C200 1.342 . S
C205 C203 1.285 . S
C205 H224 0.930 . S
C206 C209 1.424 . S
C206 C211 1.245 1_655 S
C206 C212 1.428 . S
C207 C210 1.260 1_455 S
C207 C211 1.477 . S
C207 H225 0.932 . S
C208 C209 1.384 . S
C208 C210 1.479 . S
C208 H226 0.929 . S
C209 C206 1.424 . S
C209 C208 1.384 . S
C209 H227 0.928 . S
C210 C207 1.260 1_655 S
C210 C208 1.479 . S
C211 C206 1.245 1_455 S
C211 C207 1.477 . S
C211 H228 0.932 . S
C212 U195 2.882 . S
C212 C206 1.428 . S
C212 O215 1.301 1_655 S
C212 O216 1.282 . S
O213 U195 2.441 . S
O213 C199 1.249 . S
O214 U195 2.420 . S
O214 C199 1.202 . S
O215 U195 2.455 1_455 S
O215 C212 1.301 1_455 S
O216 U195 2.449 . S
O216 C212 1.282 . S
H217 C190 0.931 . S
H218 C192 0.929 . S
H219 C193 0.930 . S
H220 C194 0.931 . S
H221 C201 0.932 . S
H222 C202 0.930 . S
H223 C203 0.929 . S
H224 C205 0.930 . S
H225 C207 0.932 . S
H226 C208 0.929 . S
H227 C209 0.928 . S
H228 C211 0.932 . S
C229 C230 1.264 . S
C229 C234 1.479 . S
C229 C239 1.465 . S
C230 C229 1.264 . S
C230 C232 1.339 . S
C230 H257 0.931 . S
C231 C232 1.395 . S
C231 C233 1.320 . S
C232 C230 1.339 . S
C232 C231 1.395 . S
C232 H258 0.929 . S
C233 C231 1.320 . S
C233 C234 1.405 . S
C233 H259 0.930 . S
C234 C229 1.479 . S
C234 C233 1.405 . S
C234 H260 0.931 . S
U235 O236 2.454 1_565 S
U235 O237 2.458 1_565 S
U235 C238 2.984 1_565 S
U235 C239 2.847 . S
U235 C252 2.882 . S
U235 O253 2.441 . S
U235 O254 2.420 . S
U235 O255 2.455 1_565 S
U235 O256 2.449 . S
O236 U235 2.454 1_545 S
O236 C238 1.353 . S
O237 U235 2.458 1_545 S
O237 C238 1.286 . S
C238 U235 2.984 1_545 S
C238 O236 1.353 . S
C238 O237 1.286 . S
C238 C240 1.363 . S
C239 C229 1.465 . S
C239 U235 2.847 . S
C239 O253 1.249 . S
C239 O254 1.202 . S
C240 C238 1.363 . S
C240 C242 1.408 . S
C240 C245 1.342 . S
C241 C242 1.310 . S
C241 C244 1.461 . S
C241 H261 0.932 . S
C242 C240 1.408 . S
C242 C241 1.310 . S
C242 H262 0.930 . S
C243 C244 1.474 . S
C243 C245 1.285 . S
C243 H263 0.929 . S
C244 C241 1.461 . S
C244 C243 1.474 . S
C245 C240 1.342 . S
C245 C243 1.285 . S
C245 H264 0.930 . S
C246 C249 1.424 . S
C246 C251 1.245 1_565 S
C246 C252 1.428 . S
C247 C250 1.260 1_545 S
C247 C251 1.477 . S
C247 H265 0.932 . S
C248 C249 1.384 . S
C248 C250 1.479 . S
C248 H266 0.929 . S
C249 C246 1.424 . S
C249 C248 1.384 . S
C249 H267 0.928 . S
C250 C247 1.260 1_565 S
C250 C248 1.479 . S
C251 C246 1.245 1_545 S
C251 C247 1.477 . S
C251 H268 0.932 . S
C252 U235 2.882 . S
C252 C246 1.428 . S
C252 O255 1.301 1_565 S
C252 O256 1.282 . S
O253 U235 2.441 . S
O253 C239 1.249 . S
O254 U235 2.420 . S
O254 C239 1.202 . S
O255 U235 2.455 1_545 S
O255 C252 1.301 1_545 S
O256 U235 2.449 . S
O256 C252 1.282 . S
H257 C230 0.931 . S
H258 C232 0.929 . S
H259 C233 0.930 . S
H260 C234 0.931 . S
H261 C241 0.932 . S
H262 C242 0.930 . S
H263 C243 0.929 . S
H264 C245 0.930 . S
H265 C247 0.932 . S
H266 C248 0.929 . S
H267 C249 0.928 . S
H268 C251 0.932 . S
C269 C270 1.264 . S
C269 C274 1.479 . S
C269 C279 1.465 . S
C270 C269 1.264 . S
C270 C272 1.339 . S
C270 H297 0.931 . S
C271 C272 1.395 . S
C271 C273 1.320 . S
C272 C270 1.339 . S
C272 C271 1.395 . S
C272 H298 0.929 . S
C273 C271 1.320 . S
C273 C274 1.405 . S
C273 H299 0.930 . S
C274 C269 1.479 . S
C274 C273 1.405 . S
C274 H300 0.931 . S
U275 O276 2.454 . S
U275 O277 2.458 . S
U275 C278 2.984 . S
U275 C279 2.847 . S
U275 C292 2.882 . S
U275 O293 2.441 . S
U275 O294 2.420 . S
U275 O295 2.455 . S
U275 O296 2.449 . S
O276 U275 2.454 . S
O276 C278 1.353 . S
O277 U275 2.458 . S
O277 C278 1.286 . S
C278 U275 2.984 . S
C278 O276 1.353 . S
C278 O277 1.286 . S
C278 C280 1.363 . S
C279 C269 1.465 . S
C279 U275 2.847 . S
C279 O293 1.249 . S
C279 O294 1.202 . S
C280 C278 1.363 . S
C280 C282 1.408 . S
C280 C285 1.342 . S
C281 C282 1.310 . S
C281 C284 1.461 . S
C281 H301 0.932 . S
C282 C280 1.408 . S
C282 C281 1.310 . S
C282 H302 0.930 . S
C283 C284 1.474 . S
C283 C285 1.285 . S
C283 H303 0.929 . S
C284 C281 1.461 . S
C284 C283 1.474 . S
C285 C280 1.342 . S
C285 C283 1.285 . S
C285 H304 0.930 . S
C286 C289 1.424 . S
C286 C291 1.245 . S
C286 C292 1.428 . S
C287 C290 1.260 . S
C287 C291 1.477 1_556 S
C287 H305 0.932 . S
C288 C289 1.384 1_556 S
C288 C290 1.479 . S
C288 H306 0.929 . S
C289 C286 1.424 . S
C289 C288 1.384 1_554 S
C289 H307 0.928 . S
C290 C287 1.260 . S
C290 C288 1.479 . S
C291 C286 1.245 . S
C291 C287 1.477 1_554 S
C291 H308 0.932 . S
C292 U275 2.882 . S
C292 C286 1.428 . S
C292 O295 1.301 . S
C292 O296 1.282 . S
O293 U275 2.441 . S
O293 C279 1.249 . S
O294 U275 2.420 . S
O294 C279 1.202 . S
O295 U275 2.455 . S
O295 C292 1.301 . S
O296 U275 2.449 . S
O296 C292 1.282 . S
H297 C270 0.931 . S
H298 C272 0.929 . S
H299 C273 0.930 . S
H300 C274 0.931 . S
H301 C281 0.932 . S
H302 C282 0.930 . S
H303 C283 0.929 . S
H304 C285 0.930 . S
H305 C287 0.932 . S
H306 C288 0.929 . S
H307 C289 0.928 . S
H308 C291 0.932 . S
C309 C310 1.363 . S
C309 C315 1.379 . S
C309 N317 1.356 . S
C310 C309 1.363 . S
C310 C316 1.363 . S
C311 C312 1.363 . S
C311 C316 1.379 . S
C311 N318 1.356 . S
C312 C311 1.363 . S
C312 C315 1.363 . S
N313 C315 1.356 . S
N313 H325 0.984 . S
N313 H326 0.985 . S
N314 C316 1.356 . S
N314 H319 0.984 . S
N314 H320 0.985 . S
C315 C309 1.379 . S
C315 C312 1.363 . S
C315 N313 1.356 . S
C316 C310 1.363 . S
C316 C311 1.379 . S
C316 N314 1.356 . S
N317 C309 1.356 . S
N317 H323 0.984 . S
N317 H324 0.984 . S
N318 C311 1.356 . S
N318 H321 0.984 . S
N318 H322 0.985 . S
H319 N314 0.984 . S
H320 N314 0.985 . S
H321 N318 0.984 . S
H322 N318 0.985 . S
H323 N317 0.984 . S
H324 N317 0.984 . S
H325 N313 0.984 . S
H326 N313 0.985 . S
C327 C328 1.363 . S
C327 C333 1.379 . S
C327 N335 1.356 . S
C328 C327 1.363 . S
C328 C334 1.363 . S
C329 C330 1.363 . S
C329 C334 1.379 . S
C329 N336 1.356 . S
C330 C329 1.363 . S
C330 C333 1.363 . S
N331 C333 1.356 . S
N331 H343 0.984 . S
N331 H344 0.985 . S
N332 C334 1.356 . S
N332 H337 0.984 . S
N332 H338 0.985 . S
C333 C327 1.379 . S
C333 C330 1.363 . S
C333 N331 1.356 . S
C334 C328 1.363 . S
C334 C329 1.379 . S
C334 N332 1.356 . S
N335 C327 1.356 . S
N335 H341 0.984 . S
N335 H342 0.984 . S
N336 C329 1.356 . S
N336 H339 0.984 . S
N336 H340 0.985 . S
H337 N332 0.984 . S
H338 N332 0.985 . S
H339 N336 0.984 . S
H340 N336 0.985 . S
H341 N335 0.984 . S
H342 N335 0.984 . S
H343 N331 0.984 . S
H344 N331 0.985 . S
C345 C346 1.363 . S
C345 C351 1.379 . S
C345 N353 1.356 . S
C346 C345 1.363 . S
C346 C352 1.363 . S
C347 C348 1.363 . S
C347 C352 1.379 . S
C347 N354 1.356 . S
C348 C347 1.363 . S
C348 C351 1.363 . S
N349 C351 1.356 . S
N349 H361 0.984 . S
N349 H362 0.985 . S
N350 C352 1.356 . S
N350 H355 0.984 . S
N350 H356 0.985 . S
C351 C345 1.379 . S
C351 C348 1.363 . S
C351 N349 1.356 . S
C352 C346 1.363 . S
C352 C347 1.379 . S
C352 N350 1.356 . S
N353 C345 1.356 . S
N353 H359 0.984 . S
N353 H360 0.984 . S
N354 C347 1.356 . S
N354 H357 0.984 . S
N354 H358 0.985 . S
H355 N350 0.984 . S
H356 N350 0.985 . S
H357 N354 0.984 . S
H358 N354 0.985 . S
H359 N353 0.984 . S
H360 N353 0.984 . S
H361 N349 0.984 . S
H362 N349 0.985 . S
C363 C364 1.363 . S
C363 C369 1.379 . S
C363 N371 1.356 . S
C364 C363 1.363 . S
C364 C370 1.363 . S
C365 C366 1.363 . S
C365 C370 1.379 . S
C365 N372 1.356 . S
C366 C365 1.363 . S
C366 C369 1.363 . S
N367 C369 1.356 . S
N367 H379 0.984 . S
N367 H380 0.985 . S
N368 C370 1.356 . S
N368 H373 0.984 . S
N368 H374 0.985 . S
C369 C363 1.379 . S
C369 C366 1.363 . S
C369 N367 1.356 . S
C370 C364 1.363 . S
C370 C365 1.379 . S
C370 N368 1.356 . S
N371 C363 1.356 . S
N371 H377 0.984 . S
N371 H378 0.984 . S
N372 C365 1.356 . S
N372 H375 0.984 . S
N372 H376 0.985 . S
H373 N368 0.984 . S
H374 N368 0.985 . S
H375 N372 0.984 . S
H376 N372 0.985 . S
H377 N371 0.984 . S
H378 N371 0.984 . S
H379 N367 0.984 . S
H380 N367 0.985 . S
C381 C382 1.363 . S
C381 C387 1.379 . S
C381 N389 1.356 . S
C382 C381 1.363 . S
C382 C388 1.363 . S
C383 C384 1.363 . S
C383 C388 1.379 . S
C383 N390 1.356 . S
C384 C383 1.363 . S
C384 C387 1.363 . S
N385 C387 1.356 . S
N385 H397 0.984 . S
N385 H398 0.985 . S
N386 C388 1.356 . S
N386 H391 0.984 . S
N386 H392 0.985 . S
C387 C381 1.379 . S
C387 C384 1.363 . S
C387 N385 1.356 . S
C388 C382 1.363 . S
C388 C383 1.379 . S
C388 N386 1.356 . S
N389 C381 1.356 . S
N389 H395 0.984 . S
N389 H396 0.984 . S
N390 C383 1.356 . S
N390 H393 0.984 . S
N390 H394 0.985 . S
H391 N386 0.984 . S
H392 N386 0.985 . S
H393 N390 0.984 . S
H394 N390 0.985 . S
H395 N389 0.984 . S
H396 N389 0.984 . S
H397 N385 0.984 . S
H398 N385 0.985 . S
C399 C400 1.363 . S
C399 C405 1.379 . S
C399 N407 1.356 . S
C400 C399 1.363 . S
C400 C406 1.363 . S
C401 C402 1.363 . S
C401 C406 1.379 . S
C401 N408 1.356 . S
C402 C401 1.363 . S
C402 C405 1.363 . S
N403 C405 1.356 . S
N403 H415 0.984 . S
N403 H416 0.985 . S
N404 C406 1.356 . S
N404 H409 0.984 . S
N404 H410 0.985 . S
C405 C399 1.379 . S
C405 C402 1.363 . S
C405 N403 1.356 . S
C406 C400 1.363 . S
C406 C401 1.379 . S
C406 N404 1.356 . S
N407 C399 1.356 . S
N407 H413 0.984 . S
N407 H414 0.984 . S
N408 C401 1.356 . S
N408 H411 0.984 . S
N408 H412 0.985 . S
H409 N404 0.984 . S
H410 N404 0.985 . S
H411 N408 0.984 . S
H412 N408 0.985 . S
H413 N407 0.984 . S
H414 N407 0.984 . S
H415 N403 0.984 . S
H416 N403 0.985 . S
C417 C418 1.363 . S
C417 C423 1.379 . S
C417 N425 1.356 . S
C418 C417 1.363 . S
C418 C424 1.363 . S
C419 C420 1.363 . S
C419 C424 1.379 . S
C419 N426 1.356 . S
C420 C419 1.363 . S
C420 C423 1.363 . S
N421 C423 1.356 . S
N421 H433 0.984 . S
N421 H434 0.985 . S
N422 C424 1.356 . S
N422 H427 0.984 . S
N422 H428 0.985 . S
C423 C417 1.379 . S
C423 C420 1.363 . S
C423 N421 1.356 . S
C424 C418 1.363 . S
C424 C419 1.379 . S
C424 N422 1.356 . S
N425 C417 1.356 . S
N425 H431 0.984 . S
N425 H432 0.984 . S
N426 C419 1.356 . S
N426 H429 0.984 . S
N426 H430 0.985 . S
H427 N422 0.984 . S
H428 N422 0.985 . S
H429 N426 0.984 . S
H430 N426 0.985 . S
H431 N425 0.984 . S
H432 N425 0.984 . S
H433 N421 0.984 . S
H434 N421 0.985 . S
C435 C436 1.363 . S
C435 C441 1.379 . S
C435 N443 1.356 . S
C436 C435 1.363 . S
C436 C442 1.363 . S
C437 C438 1.363 . S
C437 C442 1.379 . S
C437 N444 1.356 . S
C438 C437 1.363 . S
C438 C441 1.363 . S
N439 C441 1.356 . S
N439 H451 0.984 . S
N439 H452 0.985 . S
N440 C442 1.356 . S
N440 H445 0.984 . S
N440 H446 0.985 . S
C441 C435 1.379 . S
C441 C438 1.363 . S
C441 N439 1.356 . S
C442 C436 1.363 . S
C442 C437 1.379 . S
C442 N440 1.356 . S
N443 C435 1.356 . S
N443 H449 0.984 . S
N443 H450 0.984 . S
N444 C437 1.356 . S
N444 H447 0.984 . S
N444 H448 0.985 . S
H445 N440 0.984 . S
H446 N440 0.985 . S
H447 N444 0.984 . S
H448 N444 0.985 . S
H449 N443 0.984 . S
H450 N443 0.984 . S
H451 N439 0.984 . S
H452 N439 0.985 . S
C453 C454 1.363 . S
C453 C459 1.379 . S
C453 N461 1.356 . S
C454 C453 1.363 . S
C454 C460 1.363 . S
C455 C456 1.363 . S
C455 C460 1.379 . S
C455 N462 1.356 . S
C456 C455 1.363 . S
C456 C459 1.363 . S
N457 C459 1.356 . S
N457 H469 0.984 . S
N457 H470 0.985 . S
N458 C460 1.356 . S
N458 H463 0.984 . S
N458 H464 0.985 . S
C459 C453 1.379 . S
C459 C456 1.363 . S
C459 N457 1.356 . S
C460 C454 1.363 . S
C460 C455 1.379 . S
C460 N458 1.356 . S
N461 C453 1.356 . S
N461 H467 0.984 . S
N461 H468 0.984 . S
N462 C455 1.356 . S
N462 H465 0.984 . S
N462 H466 0.985 . S
H463 N458 0.984 . S
H464 N458 0.985 . S
H465 N462 0.984 . S
H466 N462 0.985 . S
H467 N461 0.984 . S
H468 N461 0.984 . S
H469 N457 0.984 . S
H470 N457 0.985 . S
C471 C472 1.363 . S
C471 C477 1.379 . S
C471 N479 1.356 . S
C472 C471 1.363 . S
C472 C478 1.363 . S
C473 C474 1.363 . S
C473 C478 1.379 . S
C473 N480 1.356 . S
C474 C473 1.363 . S
C474 C477 1.363 . S
N475 C477 1.356 . S
N475 H487 0.984 . S
N475 H488 0.985 . S
N476 C478 1.356 . S
N476 H481 0.984 . S
N476 H482 0.985 . S
C477 C471 1.379 . S
C477 C474 1.363 . S
C477 N475 1.356 . S
C478 C472 1.363 . S
C478 C473 1.379 . S
C478 N476 1.356 . S
N479 C471 1.356 . S
N479 H485 0.984 . S
N479 H486 0.984 . S
N480 C473 1.356 . S
N480 H483 0.984 . S
N480 H484 0.985 . S
H481 N476 0.984 . S
H482 N476 0.985 . S
H483 N480 0.984 . S
H484 N480 0.985 . S
H485 N479 0.984 . S
H486 N479 0.984 . S
H487 N475 0.984 . S
H488 N475 0.985 . S
C489 C490 1.363 . S
C489 C495 1.379 . S
C489 N497 1.356 . S
C490 C489 1.363 . S
C490 C496 1.363 . S
C491 C492 1.363 . S
C491 C496 1.379 . S
C491 N498 1.356 . S
C492 C491 1.363 . S
C492 C495 1.363 . S
N493 C495 1.356 . S
N493 H505 0.984 . S
N493 H506 0.985 . S
N494 C496 1.356 . S
N494 H499 0.984 . S
N494 H500 0.985 . S
C495 C489 1.379 . S
C495 C492 1.363 . S
C495 N493 1.356 . S
C496 C490 1.363 . S
C496 C491 1.379 . S
C496 N494 1.356 . S
N497 C489 1.356 . S
N497 H503 0.984 . S
N497 H504 0.984 . S
N498 C491 1.356 . S
N498 H501 0.984 . S
N498 H502 0.985 . S
H499 N494 0.984 . S
H500 N494 0.985 . S
H501 N498 0.984 . S
H502 N498 0.985 . S
H503 N497 0.984 . S
H504 N497 0.984 . S
H505 N493 0.984 . S
H506 N493 0.985 . S
C507 C508 1.363 . S
C507 C513 1.379 . S
C507 N515 1.356 . S
C508 C507 1.363 . S
C508 C514 1.363 . S
C509 C510 1.363 . S
C509 C514 1.379 . S
C509 N516 1.356 . S
C510 C509 1.363 . S
C510 C513 1.363 . S
N511 C513 1.356 . S
N511 H523 0.984 . S
N511 H524 0.985 . S
N512 C514 1.356 . S
N512 H517 0.984 . S
N512 H518 0.985 . S
C513 C507 1.379 . S
C513 C510 1.363 . S
C513 N511 1.356 . S
C514 C508 1.363 . S
C514 C509 1.379 . S
C514 N512 1.356 . S
N515 C507 1.356 . S
N515 H521 0.984 . S
N515 H522 0.984 . S
N516 C509 1.356 . S
N516 H519 0.984 . S
N516 H520 0.985 . S
H517 N512 0.984 . S
H518 N512 0.985 . S
H519 N516 0.984 . S
H520 N516 0.985 . S
H521 N515 0.984 . S
H522 N515 0.984 . S
H523 N511 0.984 . S
H524 N511 0.985 . S
C525 C526 1.363 . S
C525 C531 1.379 . S
C525 N533 1.356 . S
C526 C525 1.363 . S
C526 C532 1.363 . S
C527 C528 1.363 . S
C527 C532 1.379 . S
C527 N534 1.356 . S
C528 C527 1.363 . S
C528 C531 1.363 . S
N529 C531 1.356 . S
N529 H541 0.984 . S
N529 H542 0.985 . S
N530 C532 1.356 1_655 S
N530 H535 0.988 . S
N530 H536 0.985 . S
C531 C525 1.379 . S
C531 C528 1.363 . S
C531 N529 1.356 . S
C532 C526 1.363 . S
C532 C527 1.379 . S
C532 N530 1.356 1_455 S
N533 C525 1.356 . S
N533 H539 0.984 . S
N533 H540 0.984 . S
N534 C527 1.356 . S
N534 H537 0.984 . S
N534 H538 0.985 . S
H535 N530 0.988 . S
H536 N530 0.985 . S
H537 N534 0.984 . S
H538 N534 0.985 . S
H539 N533 0.984 . S
H540 N533 0.984 . S
H541 N529 0.984 . S
H542 N529 0.985 . S
C543 C544 1.363 1_565 S
C543 C549 1.379 . S
C543 N551 1.356 . S
C544 C543 1.363 1_545 S
C544 C550 1.363 . S
C545 C546 1.363 . S
C545 C550 1.379 . S
C545 N552 1.356 . S
C546 C545 1.363 . S
C546 C549 1.363 1_545 S
N547 C549 1.356 . S
N547 H559 0.984 . S
N547 H560 0.985 . S
N548 C550 1.356 . S
N548 H553 0.984 . S
N548 H554 0.985 . S
C549 C543 1.379 . S
C549 C546 1.363 1_565 S
C549 N547 1.356 . S
C550 C544 1.363 . S
C550 C545 1.379 . S
C550 N548 1.356 . S
N551 C543 1.356 . S
N551 H557 0.984 . S
N551 H558 0.984 . S
N552 C545 1.356 . S
N552 H555 0.984 . S
N552 H556 0.985 . S
H553 N548 0.984 . S
H554 N548 0.985 . S
H555 N552 0.984 . S
H556 N552 0.985 . S
H557 N551 0.984 . S
H558 N551 0.984 . S
H559 N547 0.984 . S
H560 N547 0.985 . S
C561 C562 1.363 . S
C561 C567 1.379 . S
C561 N569 1.356 . S
C562 C561 1.363 . S
C562 C568 1.363 . S
C563 C564 1.363 . S
C563 C568 1.379 . S
C563 N570 1.356 . S
C564 C563 1.363 . S
C564 C567 1.363 . S
N565 C567 1.356 . S
N565 H577 0.984 . S
N565 H578 0.985 . S
N566 C568 1.356 . S
N566 H571 0.984 . S
N566 H572 0.985 . S
C567 C561 1.379 . S
C567 C564 1.363 . S
C567 N565 1.356 . S
C568 C562 1.363 . S
C568 C563 1.379 . S
C568 N566 1.356 . S
N569 C561 1.356 . S
N569 H575 0.984 . S
N569 H576 0.984 . S
N570 C563 1.356 . S
N570 H573 0.984 . S
N570 H574 0.985 . S
H571 N566 0.984 . S
H572 N566 0.985 . S
H573 N570 0.984 . S
H574 N570 0.985 . S
H575 N569 0.984 . S
H576 N569 0.984 . S
H577 N565 0.984 . S
H578 N565 0.985 . S
C579 C580 1.363 . S
C579 C585 1.379 . S
C579 N587 1.356 . S
C580 C579 1.363 . S
C580 C586 1.363 1_545 S
C581 C582 1.364 . S
C581 C586 1.379 . S
C581 N588 1.356 . S
C582 C581 1.364 . S
C582 C585 1.362 1_565 S
N583 C585 1.356 . S
N583 H595 0.984 . S
N583 H596 0.985 . S
N584 C586 1.356 . S
N584 H589 0.984 . S
N584 H590 0.985 . S
C585 C579 1.379 . S
C585 C582 1.362 1_545 S
C585 N583 1.356 . S
C586 C580 1.363 1_565 S
C586 C581 1.379 . S
C586 N584 1.356 . S
N587 C579 1.356 . S
N587 H593 0.984 . S
N587 H594 0.984 . S
N588 C581 1.356 . S
N588 H591 0.984 . S
N588 H592 0.985 . S
H589 N584 0.984 . S
H590 N584 0.985 . S
H591 N588 0.984 . S
H592 N588 0.985 . S
H593 N587 0.984 . S
H594 N587 0.984 . S
H595 N583 0.984 . S
H596 N583 0.985 . S
C597 C598 1.363 . S
C597 C603 1.379 . S
C597 N605 1.356 . S
C598 C597 1.363 . S
C598 C604 1.363 . S
C599 C600 1.363 . S
C599 C604 1.379 . S
C599 N606 1.356 . S
C600 C599 1.363 . S
C600 C603 1.363 . S
N601 C603 1.356 . S
N601 H613 0.984 . S
N601 H614 0.985 . S
N602 C604 1.356 . S
N602 H607 0.984 . S
N602 H608 0.985 . S
C603 C597 1.379 . S
C603 C600 1.363 . S
C603 N601 1.356 . S
C604 C598 1.363 . S
C604 C599 1.379 . S
C604 N602 1.356 . S
N605 C597 1.356 . S
N605 H611 0.984 . S
N605 H612 0.984 . S
N606 C599 1.356 . S
N606 H609 0.984 . S
N606 H610 0.985 . S
H607 N602 0.984 . S
H608 N602 0.985 . S
H609 N606 0.984 . S
H610 N606 0.985 . S
H611 N605 0.984 . S
H612 N605 0.984 . S
H613 N601 0.984 . S
H614 N601 0.985 . S
C615 C616 1.363 . S
C615 C621 1.379 . S
C615 N623 1.356 . S
C616 C615 1.363 . S
C616 C622 1.363 1_455 S
C617 C618 1.357 1_655 S
C617 C622 1.379 . S
C617 N624 1.356 . S
C618 C617 1.357 1_455 S
C618 C621 1.369 . S
N619 C621 1.356 . S
N619 H631 0.984 . S
N619 H632 0.985 . S
N620 C622 1.356 . S
N620 H625 0.984 . S
N620 H626 0.985 . S
C621 C615 1.379 . S
C621 C618 1.369 . S
C621 N619 1.356 . S
C622 C616 1.363 1_655 S
C622 C617 1.379 . S
C622 N620 1.356 . S
N623 C615 1.356 . S
N623 H629 0.984 . S
N623 H630 0.984 . S
N624 C617 1.356 . S
N624 H627 0.984 . S
N624 H628 0.985 . S
H625 N620 0.984 . S
H626 N620 0.985 . S
H627 N624 0.984 . S
H628 N624 0.985 . S
H629 N623 0.984 . S
H630 N623 0.984 . S
H631 N619 0.984 . S
H632 N619 0.985 . S
C310 C20 1.273 . S
C312 C284 1.310 . S
C328 C41 1.363 . S
C330 C191 1.371 . S
C346 C64 1.399 . S
C348 C231 1.409 . S
C364 C19 1.316 . S
C366 C271 1.416 . S
C384 C204 1.341 . S
C382 C44 1.343 . S
C402 C244 1.327 . S
C400 C67 1.331 . S
C418 C43 1.259 . S
C420 C111 1.331 . S
C436 C66 1.260 . S
C438 C151 1.324 . S
C454 C21 1.344 . S
C456 C84 1.342 . S
C474 C124 1.362 . S
C472 C42 1.308 . S
C492 C164 1.382 . S
C490 C65 1.322 . S
C508 C18 1.362 . S
C510 C71 1.369 . S
C528 C170 1.451 . S
C526 C17 1.469 . S
C544 C39 1.464 . S
C546 C90 1.456 . S
C562 C62 1.481 . S
C564 C130 1.465 . S
C582 C250 1.447 . S
C580 C40 1.453 . S
C600 C290 1.468 . S
C598 C63 1.472 . S
C616 C16 1.464 . S
C618 C210 1.455 1_455 S
