# Generated by pormake.
# Topology ctn, (3,4)-cn, num edge types: 1
# Building blocks:
#     Node 0, Type 0, BuildingBlock: WUSLED_clean_sbu_0, # of connection points: 3
#     Node 1, Type 0, BuildingBlock: WUSLED_clean_sbu_0, # of connection points: 3
#     Node 2, Type 0, BuildingBlock: WUSLED_clean_sbu_0, # of connection points: 3
#     Node 3, Type 0, BuildingBlock: WUSLED_clean_sbu_0, # of connection points: 3
#     Node 4, Type 0, BuildingBlock: WUSLED_clean_sbu_0, # of connection points: 3
#     Node 5, Type 0, BuildingBlock: WUSLED_clean_sbu_0, # of connection points: 3
#     Node 6, Type 0, BuildingBlock: WUSLED_clean_sbu_0, # of connection points: 3
#     Node 7, Type 0, BuildingBlock: WUSLED_clean_sbu_0, # of connection points: 3
#     Node 8, Type 0, BuildingBlock: WUSLED_clean_sbu_0, # of connection points: 3
#     Node 9, Type 0, BuildingBlock: WUSLED_clean_sbu_0, # of connection points: 3
#     Node 10, Type 0, BuildingBlock: WUSLED_clean_sbu_0, # of connection points: 3
#     Node 11, Type 0, BuildingBlock: WUSLED_clean_sbu_0, # of connection points: 3
#     Node 12, Type 0, BuildingBlock: WUSLED_clean_sbu_0, # of connection points: 3
#     Node 13, Type 0, BuildingBlock: WUSLED_clean_sbu_0, # of connection points: 3
#     Node 14, Type 0, BuildingBlock: WUSLED_clean_sbu_0, # of connection points: 3
#     Node 15, Type 0, BuildingBlock: WUSLED_clean_sbu_0, # of connection points: 3
#     Node 16, Type 1, BuildingBlock: NAHDIM_clean_sbu_0, # of connection points: 4
#     Node 17, Type 1, BuildingBlock: NAHDIM_clean_sbu_0, # of connection points: 4
#     Node 18, Type 1, BuildingBlock: NAHDIM_clean_sbu_0, # of connection points: 4
#     Node 19, Type 1, BuildingBlock: NAHDIM_clean_sbu_0, # of connection points: 4
#     Node 20, Type 1, BuildingBlock: NAHDIM_clean_sbu_0, # of connection points: 4
#     Node 21, Type 1, BuildingBlock: NAHDIM_clean_sbu_0, # of connection points: 4
#     Node 22, Type 1, BuildingBlock: NAHDIM_clean_sbu_0, # of connection points: 4
#     Node 23, Type 1, BuildingBlock: NAHDIM_clean_sbu_0, # of connection points: 4
#     Node 24, Type 1, BuildingBlock: NAHDIM_clean_sbu_0, # of connection points: 4
#     Node 25, Type 1, BuildingBlock: NAHDIM_clean_sbu_0, # of connection points: 4
#     Node 26, Type 1, BuildingBlock: NAHDIM_clean_sbu_0, # of connection points: 4
#     Node 27, Type 1, BuildingBlock: NAHDIM_clean_sbu_0, # of connection points: 4
#     Edge 28, Type (0, 1), BuildingBlock: UVAHIK_clean_linker_0, # of connection points: 2
#     Edge 29, Type (0, 1), BuildingBlock: UVAHIK_clean_linker_0, # of connection points: 2
#     Edge 30, Type (0, 1), BuildingBlock: UVAHIK_clean_linker_0, # of connection points: 2
#     Edge 31, Type (0, 1), BuildingBlock: UVAHIK_clean_linker_0, # of connection points: 2
#     Edge 32, Type (0, 1), BuildingBlock: UVAHIK_clean_linker_0, # of connection points: 2
#     Edge 33, Type (0, 1), BuildingBlock: UVAHIK_clean_linker_0, # of connection points: 2
#     Edge 34, Type (0, 1), BuildingBlock: UVAHIK_clean_linker_0, # of connection points: 2
#     Edge 35, Type (0, 1), BuildingBlock: UVAHIK_clean_linker_0, # of connection points: 2
#     Edge 36, Type (0, 1), BuildingBlock: UVAHIK_clean_linker_0, # of connection points: 2
#     Edge 37, Type (0, 1), BuildingBlock: UVAHIK_clean_linker_0, # of connection points: 2
#     Edge 38, Type (0, 1), BuildingBlock: UVAHIK_clean_linker_0, # of connection points: 2
#     Edge 39, Type (0, 1), BuildingBlock: UVAHIK_clean_linker_0, # of connection points: 2
#     Edge 40, Type (0, 1), BuildingBlock: UVAHIK_clean_linker_0, # of connection points: 2
#     Edge 41, Type (0, 1), BuildingBlock: UVAHIK_clean_linker_0, # of connection points: 2
#     Edge 42, Type (0, 1), BuildingBlock: UVAHIK_clean_linker_0, # of connection points: 2
#     Edge 43, Type (0, 1), BuildingBlock: UVAHIK_clean_linker_0, # of connection points: 2
#     Edge 44, Type (0, 1), BuildingBlock: UVAHIK_clean_linker_0, # of connection points: 2
#     Edge 45, Type (0, 1), BuildingBlock: UVAHIK_clean_linker_0, # of connection points: 2
#     Edge 46, Type (0, 1), BuildingBlock: UVAHIK_clean_linker_0, # of connection points: 2
#     Edge 47, Type (0, 1), BuildingBlock: UVAHIK_clean_linker_0, # of connection points: 2
#     Edge 48, Type (0, 1), BuildingBlock: UVAHIK_clean_linker_0, # of connection points: 2
#     Edge 49, Type (0, 1), BuildingBlock: UVAHIK_clean_linker_0, # of connection points: 2
#     Edge 50, Type (0, 1), BuildingBlock: UVAHIK_clean_linker_0, # of connection points: 2
#     Edge 51, Type (0, 1), BuildingBlock: UVAHIK_clean_linker_0, # of connection points: 2
#     Edge 52, Type (0, 1), BuildingBlock: UVAHIK_clean_linker_0, # of connection points: 2
#     Edge 53, Type (0, 1), BuildingBlock: UVAHIK_clean_linker_0, # of connection points: 2
#     Edge 54, Type (0, 1), BuildingBlock: UVAHIK_clean_linker_0, # of connection points: 2
#     Edge 55, Type (0, 1), BuildingBlock: UVAHIK_clean_linker_0, # of connection points: 2
#     Edge 56, Type (0, 1), BuildingBlock: UVAHIK_clean_linker_0, # of connection points: 2
#     Edge 57, Type (0, 1), BuildingBlock: UVAHIK_clean_linker_0, # of connection points: 2
#     Edge 58, Type (0, 1), BuildingBlock: UVAHIK_clean_linker_0, # of connection points: 2
#     Edge 59, Type (0, 1), BuildingBlock: UVAHIK_clean_linker_0, # of connection points: 2
#     Edge 60, Type (0, 1), BuildingBlock: UVAHIK_clean_linker_0, # of connection points: 2
#     Edge 61, Type (0, 1), BuildingBlock: UVAHIK_clean_linker_0, # of connection points: 2
#     Edge 62, Type (0, 1), BuildingBlock: UVAHIK_clean_linker_0, # of connection points: 2
#     Edge 63, Type (0, 1), BuildingBlock: UVAHIK_clean_linker_0, # of connection points: 2
#     Edge 64, Type (0, 1), BuildingBlock: UVAHIK_clean_linker_0, # of connection points: 2
#     Edge 65, Type (0, 1), BuildingBlock: UVAHIK_clean_linker_0, # of connection points: 2
#     Edge 66, Type (0, 1), BuildingBlock: UVAHIK_clean_linker_0, # of connection points: 2
#     Edge 67, Type (0, 1), BuildingBlock: UVAHIK_clean_linker_0, # of connection points: 2
#     Edge 68, Type (0, 1), BuildingBlock: UVAHIK_clean_linker_0, # of connection points: 2
#     Edge 69, Type (0, 1), BuildingBlock: UVAHIK_clean_linker_0, # of connection points: 2
#     Edge 70, Type (0, 1), BuildingBlock: UVAHIK_clean_linker_0, # of connection points: 2
#     Edge 71, Type (0, 1), BuildingBlock: UVAHIK_clean_linker_0, # of connection points: 2
#     Edge 72, Type (0, 1), BuildingBlock: UVAHIK_clean_linker_0, # of connection points: 2
#     Edge 73, Type (0, 1), BuildingBlock: UVAHIK_clean_linker_0, # of connection points: 2
#     Edge 74, Type (0, 1), BuildingBlock: UVAHIK_clean_linker_0, # of connection points: 2
#     Edge 75, Type (0, 1), BuildingBlock: UVAHIK_clean_linker_0, # of connection points: 2
# Relax obj value: 0.002
# Max RMSD: 0.034
# Mean RMSD: 0.020
data_MOF--net-ctn--node1-WUSLED_clean_sbu_0--node2-NAHDIM_clean_sbu_0--edge1-UVAHIK_clean_linker_0
_symmetry_space_group_name_H-M    P1
_symmetry_Int_Tables_number       1
_symmetry_cell_setting            triclinic
loop_
_symmetry_equiv_pos_as_xyz
'x, y, z'
_cell_length_a     86.986247
_cell_length_b     87.880661
_cell_length_c     86.842415
_cell_angle_alpha  91.604106
_cell_angle_beta   89.985829
_cell_angle_gamma 91.846704
loop_
_atom_site_label
_atom_site_type_symbol
_atom_site_fract_x
_atom_site_fract_y
_atom_site_fract_z
_atom_type_partial_charge
C0 C 0.01504 0.06289 0.08228 0.0
C1 C 0.01792 0.0496 0.09023 0.0
C2 C 0.99773 0.05558 0.10876 0.0
C3 C 0.00933 0.04596 0.10336 0.0
C4 C 0.99503 0.06896 0.10076 0.0
C5 C 1.0036 0.07255 0.08765 0.0
U6 U 0.04809 0.05669 0.0539 0.0
O7 O 0.04817 0.05746 0.02856 0.0
O8 O 0.06298 0.07341 0.04218 0.0
C9 C 0.05757 0.06946 0.02846 0.0
C10 C 0.02375 0.06682 0.06834 0.0
C11 C 0.05281 0.08201 0.0188 0.0
C12 C 0.04052 0.10621 0.0156 0.0
C13 C 0.04458 0.09425 0.02497 0.0
C14 C 0.0526 0.09368 0.99377 0.0
C15 C 0.0445 0.10608 0.99988 0.0
C16 C 0.05672 0.0818 1.00315 0.0
C17 C 0.07638 0.02491 0.06077 0.0
C18 C 0.09502 0.01598 0.04197 0.0
C19 C 0.09616 1.0077 0.06831 0.0
C20 C 0.08344 0.0164 0.07202 0.0
C21 C 0.10208 1.00729 0.05321 0.0
C22 C 0.08229 0.02474 0.04573 0.0
C23 C 0.06285 0.03378 0.06498 0.0
O24 O 0.03772 0.07256 0.07068 0.0
O25 O 0.02299 0.05662 0.05699 0.0
O26 O 0.05092 0.03203 0.05573 0.0
O27 O 0.06572 0.04804 0.0693 0.0
H28 H 0.02673 0.042 0.08623 0.0
H29 H 0.01162 0.03551 0.10912 0.0
H30 H 0.98639 0.07676 0.10472 0.0
H31 H 1.00128 0.0829 0.08169 0.0
H32 H 0.03413 0.11549 0.02062 0.0
H33 H 0.04136 0.09458 0.03702 0.0
H34 H 0.05601 0.0933 0.98177 0.0
H35 H 0.06308 0.07246 0.99819 0.0
H36 H 0.09915 0.01584 0.03021 0.0
H37 H 0.10145 1.0014 0.07733 0.0
H38 H 0.07909 0.01648 0.08371 0.0
H39 H 0.07701 0.03128 0.03688 0.0
C40 C 0.27743 0.73996 0.18698 0.0
C41 C 0.29045 0.74797 0.18148 0.0
C42 C 0.27441 0.76157 0.16372 0.0
C43 C 0.28896 0.75865 0.16993 0.0
C44 C 0.26141 0.75367 0.16952 0.0
C45 C 0.26293 0.74297 0.18099 0.0
U46 U 0.2971 0.72261 0.22171 0.0
O47 O 0.28661 0.71255 0.2423 0.0
O48 O 0.30064 0.6986 0.22677 0.0
C49 C 0.29147 0.69888 0.2388 0.0
C50 C 0.27863 0.72836 0.19881 0.0
C51 C 0.27978 0.68643 0.23941 0.0
C52 C 0.25914 0.67081 0.22764 0.0
C53 C 0.27003 0.68286 0.22685 0.0
C54 C 0.2675 0.66595 0.2536 0.0
C55 C 0.25777 0.66216 0.24102 0.0
C56 C 0.27839 0.67795 0.25278 0.0
C57 C 0.33347 0.74133 0.23937 0.0
C58 C 0.34723 0.73019 0.26043 0.0
C59 C 0.35501 0.75518 0.25156 0.0
C60 C 0.34331 0.75424 0.24051 0.0
C61 C 0.3571 0.74319 0.26169 0.0
C62 C 0.33548 0.72929 0.24939 0.0
C63 C 0.32107 0.7407 0.22783 0.0
O64 O 0.29026 0.71923 0.19745 0.0
O65 O 0.27624 0.73311 0.21307 0.0
O66 O 0.30724 0.74318 0.23324 0.0
O67 O 0.32135 0.72925 0.21778 0.0
H68 H 0.30176 0.74586 0.18601 0.0
H69 H 0.29923 0.76441 0.16568 0.0
H70 H 0.25 0.75581 0.16528 0.0
H71 H 0.25273 0.73699 0.18516 0.0
H72 H 0.25196 0.66814 0.21768 0.0
H73 H 0.27092 0.68933 0.21643 0.0
H74 H 0.26661 0.65974 0.26418 0.0
H75 H 0.28576 0.68061 0.26261 0.0
H76 H 0.34842 0.72084 0.26816 0.0
H77 H 0.36253 0.76525 0.25206 0.0
H78 H 0.34192 0.76362 0.23285 0.0
H79 H 0.32791 0.71925 0.24871 0.0
C80 C 0.96641 0.44896 0.0137 0.0
C81 C 0.97493 0.43757 0.02043 0.0
C82 C 0.97549 0.4234 0.9959 0.0
C83 C 0.97937 0.42487 0.01162 0.0
C84 C 0.96708 0.43494 0.98921 0.0
C85 C 0.96257 0.44757 0.99805 0.0
U86 U 0.97029 0.4763 0.04857 0.0
O87 O 0.9682 0.50116 0.05023 0.0
O88 O 0.95242 0.48638 0.06324 0.0
C89 C 0.95588 0.5003 0.05898 0.0
C90 C 0.96143 0.4623 0.02281 0.0
C91 C 0.9428 0.50923 0.0541 0.0
C92 C 0.92479 0.51687 0.03456 0.0
C93 C 0.93717 0.50814 0.03895 0.0
C94 C 0.92344 0.52771 0.06046 0.0
C95 C 0.91779 0.52681 0.04526 0.0
C96 C 0.93582 0.51902 0.06481 0.0
C97 C 1.00218 0.4702 0.0781 0.0
C98 C 0.00845 0.48791 0.09937 0.0
C99 C 0.02125 0.46387 0.0971 0.0
C100 C 0.0128 0.46011 0.08377 0.0
C101 C 0.01926 0.47785 0.10504 0.0
C102 C 0.99997 0.48411 0.08601 0.0
C103 C 0.99368 0.46606 0.06388 0.0
O104 O 0.95529 0.4594 0.03629 0.0
O105 O 0.97116 0.47406 0.02325 0.0
O106 O 0.9952 0.47571 0.05265 0.0
O107 O 0.97944 0.46098 0.06574 0.0
H108 H 0.97811 0.4385 0.03249 0.0
H109 H 0.98599 0.41628 0.01707 0.0
H110 H 0.96377 0.43407 0.97719 0.0
H111 H 0.95601 0.45625 0.99266 0.0
H112 H 0.92086 0.51599 0.02272 0.0
H113 H 0.9424 0.5006 0.03052 0.0
H114 H 0.91819 0.535 0.06908 0.0
H115 H 0.93995 0.51993 0.07658 0.0
H116 H 1.00672 0.49882 0.1051 0.0
H117 H 0.02925 0.45574 0.10126 0.0
H118 H 0.01459 0.44929 0.07784 0.0
H119 H 0.9918 0.49205 0.08178 0.0
C120 C 0.71055 0.778 0.18675 0.0
C121 C 0.72605 0.77462 0.18419 0.0
C122 C 0.71915 0.76067 0.16039 0.0
C123 C 0.73029 0.76597 0.17118 0.0
C124 C 0.70368 0.76424 0.16292 0.0
C125 C 0.69944 0.77277 0.17599 0.0
U126 U 0.7156 0.81131 0.21595 0.0
O127 O 0.69823 0.82612 0.22638 0.0
O128 O 0.7123 0.81214 0.24106 0.0
C129 C 0.70063 0.82124 0.24031 0.0
C130 C 0.70566 0.78682 0.20053 0.0
C131 C 0.68676 0.81663 0.24897 0.0
C132 C 0.66812 0.79733 0.25729 0.0
C133 C 0.68116 0.80145 0.24871 0.0
C134 C 0.66598 0.82353 0.26624 0.0
C135 C 0.66038 0.80833 0.26618 0.0
C136 C 0.67905 0.82762 0.25774 0.0
C137 C 0.74983 0.83958 0.21142 0.0
C138 C 0.75791 0.85886 0.23065 0.0
C139 C 0.76947 0.8587 0.20527 0.0
C140 C 0.76022 0.846 0.20094 0.0
C141 C 0.76855 0.86523 0.22021 0.0
C142 C 0.74861 0.84614 0.22628 0.0
C143 C 0.74054 0.82598 0.20662 0.0
O144 O 0.71458 0.7864 0.21273 0.0
O145 O 0.7007 0.8005 0.19798 0.0
O146 O 0.72673 0.82854 0.20135 0.0
O147 O 0.74077 0.81444 0.21593 0.0
H148 H 0.73488 0.77864 0.19224 0.0
H149 H 0.74231 0.76356 0.16947 0.0
H150 H 0.69481 0.7602 0.15492 0.0
H151 H 0.68742 0.77522 0.17773 0.0
H152 H 0.664 0.78556 0.25686 0.0
H153 H 0.6869 0.79281 0.24191 0.0
H154 H 0.66043 0.83225 0.2731 0.0
H155 H 0.68321 0.83938 0.25809 0.0
H156 H 0.75697 0.8635 0.24228 0.0
H157 H 0.7773 0.86346 0.19684 0.0
H158 H 0.76124 0.84114 0.18939 0.0
H159 H 0.7406 0.84134 0.23452 0.0
C160 C 0.0138 0.97253 0.4449 0.0
C161 C 0.01839 0.98462 0.43554 0.0
C162 C 0.9956 0.98007 0.41944 0.0
C163 C 0.00936 0.98838 0.42292 0.0
C164 C 0.99104 0.96808 0.42902 0.0
C165 C 1.00006 0.96435 0.4416 0.0
U166 U 0.04858 0.97802 0.47193 0.0
O167 O 0.04992 0.97527 0.49701 0.0
O168 O 0.06346 0.96085 0.48149 0.0
C169 C 0.05897 0.96361 0.49572 0.0
C170 C 0.02318 0.96814 0.45806 0.0
C171 C 0.05428 0.95016 0.5045 0.0
C172 C 0.03755 0.92788 0.50833 0.0
C173 C 0.04171 0.94071 0.49986 0.0
C174 C 0.05843 0.93389 0.52616 0.0
C175 C 0.0459 0.92428 0.52158 0.0
C176 C 0.06257 0.94668 0.51769 0.0
C177 C 0.0778 0.0109 0.46659 0.0
C178 C 0.10079 0.01433 0.4824 0.0
C179 C 0.0952 0.03269 0.46304 0.0
C180 C 0.08179 0.02431 0.459 0.0
C181 C 0.1049 0.0278 0.47477 0.0
C182 C 0.08735 1.00595 0.47834 0.0
C183 C 0.06368 1.00223 0.4621 0.0
O184 O 0.03683 0.96305 0.45462 0.0
O185 O 0.02333 0.97762 0.47004 0.0
O186 O 0.05227 1.00292 0.47199 0.0
O187 O 0.0657 0.98841 0.45645 0.0
H188 H 0.029 0.99105 0.43794 0.0
H189 H 0.01328 0.99759 0.41572 0.0
H190 H 0.98041 0.96161 0.42687 0.0
H191 H 0.99631 0.95503 0.44875 0.0
H192 H 0.02795 0.92066 0.50437 0.0
H193 H 0.03518 0.94323 0.48967 0.0
H194 H 0.06496 0.93163 0.53642 0.0
H195 H 0.07226 0.95389 0.52147 0.0
H196 H 0.10806 0.01014 0.49136 0.0
H197 H 0.09785 0.04312 0.45709 0.0
H198 H 0.07451 0.02833 0.44995 0.0
H199 H 0.08443 0.99559 0.48432 0.0
C200 C 0.20794 0.75697 0.83662 0.0
C201 C 0.22301 0.75673 0.84238 0.0
C202 C 0.21636 0.77449 0.86327 0.0
C203 C 0.22719 0.76544 0.85557 0.0
C204 C 0.20122 0.77447 0.85752 0.0
C205 C 0.19709 0.76582 0.84432 0.0
U206 U 0.21342 0.72442 0.80708 0.0
O207 O 0.19621 0.70911 0.79562 0.0
O208 O 0.21098 0.72417 0.78184 0.0
C209 C 0.19919 0.71445 0.78191 0.0
C210 C 0.20336 0.74818 0.82258 0.0
C211 C 0.18575 0.71872 0.77288 0.0
C212 C 0.16246 0.73295 0.76998 0.0
C213 C 0.17525 0.7292 0.77874 0.0
C214 C 0.17066 0.7159 0.74939 0.0
C215 C 0.15996 0.72628 0.75521 0.0
C216 C 0.18341 0.71216 0.75816 0.0
C217 C 0.24683 0.69744 0.81185 0.0
C218 C 0.24891 0.67262 0.79903 0.0
C219 C 0.27103 0.68437 0.81212 0.0
C220 C 0.2623 0.69694 0.81624 0.0
C221 C 0.26442 0.67201 0.80355 0.0
C222 C 0.2402 0.68525 0.8031 0.0
C223 C 0.2378 0.71062 0.81677 0.0
O224 O 0.21285 0.74923 0.81084 0.0
O225 O 0.19814 0.7342 0.82473 0.0
O226 O 0.22379 0.70748 0.82169 0.0
O227 O 0.2386 0.72238 0.80776 0.0
H228 H 0.23156 0.74992 0.83662 0.0
H229 H 0.23897 0.76528 0.85956 0.0
H230 H 0.1925 0.78105 0.86328 0.0
H231 H 0.18538 0.76606 0.84009 0.0
H232 H 0.15439 0.74086 0.77489 0.0
H233 H 0.17691 0.7344 0.7901 0.0
H234 H 0.16928 0.71075 0.73798 0.0
H235 H 0.19145 0.70412 0.75342 0.0
H236 H 0.24353 0.66337 0.79227 0.0
H237 H 0.28287 0.6842 0.81593 0.0
H238 H 0.26761 0.70623 0.82301 0.0
H239 H 0.22829 0.68546 0.79949 0.0
C240 C 0.96444 0.58092 0.50832 0.0
C241 C 0.97854 0.58843 0.50524 0.0
C242 C 0.97328 0.60784 0.52502 0.0
C243 C 0.98294 0.60176 0.51354 0.0
C244 C 0.95912 0.60025 0.52797 0.0
C245 C 0.95477 0.58692 0.51969 0.0
U246 U 0.96982 0.55163 0.47559 0.0
O247 O 0.96726 0.52664 0.47548 0.0
O248 O 0.95263 0.5398 0.46057 0.0
C249 C 0.95553 0.52635 0.46593 0.0
C250 C 0.95967 0.56685 0.49979 0.0
C251 C 0.94203 0.51709 0.47063 0.0
C252 C 0.92025 0.51237 0.4876 0.0
C253 C 0.93296 0.52147 0.48326 0.0
C254 C 0.92557 0.49447 0.46671 0.0
C255 C 0.91643 0.49871 0.4794 0.0
C256 C 0.93823 0.50357 0.46238 0.0
C257 C 1.00375 0.55746 0.44772 0.0
C258 C 1.00779 0.54209 0.42442 0.0
C259 C 0.02675 0.56154 0.43234 0.0
C260 C 0.01779 0.56522 0.44519 0.0
C261 C 0.02182 0.55002 0.42171 0.0
C262 C 0.99881 0.54579 0.43732 0.0
C263 C 0.99441 0.56191 0.46113 0.0
O264 O 0.95455 0.56871 0.48575 0.0
O265 O 0.96908 0.5555 0.50071 0.0
O266 O 0.995 0.553 0.473 0.0
O267 O 0.98042 0.56621 0.45808 0.0
H268 H 0.98613 0.58398 0.49642 0.0
H269 H 0.99382 0.6074 0.51085 0.0
H270 H 0.9515 0.60449 0.53685 0.0
H271 H 0.94385 0.58126 0.52223 0.0
H272 H 0.91356 0.5159 0.49752 0.0
H273 H 0.93577 0.53188 0.48979 0.0
H274 H 0.92284 0.48417 0.45998 0.0
H275 H 0.94508 0.50004 0.45257 0.0
H276 H 1.00359 0.53324 0.41642 0.0
H277 H 0.0376 0.56769 0.43079 0.0
H278 H 0.02181 0.5742 0.45314 0.0
H279 H 0.98798 0.53966 0.43912 0.0
C280 C 0.78335 0.78781 0.83751 0.0
C281 C 0.79492 0.77709 0.83828 0.0
C282 C 0.78238 0.7657 0.86052 0.0
C283 C 0.79444 0.76612 0.84969 0.0
C284 C 0.77082 0.77649 0.85961 0.0
C285 C 0.77131 0.78742 0.84821 0.0
U286 U 0.80062 0.80565 0.80147 0.0
O287 O 0.78904 0.81505 0.78149 0.0
O288 O 0.80433 0.82976 0.79592 0.0
C289 C 0.79439 0.82897 0.78451 0.0
C290 C 0.78361 0.79941 0.82563 0.0
C291 C 0.78291 0.8409 0.78463 0.0
C292 C 0.76128 0.85363 0.79645 0.0
C293 C 0.77201 0.84207 0.79649 0.0
C294 C 0.77221 0.86285 0.77266 0.0
C295 C 0.76129 0.86421 0.78455 0.0
C296 C 0.7829 0.85131 0.77272 0.0
C297 C 0.83569 0.78794 0.78215 0.0
C298 C 0.84973 0.79945 0.761 0.0
C299 C 0.85581 0.77415 0.769 0.0
C300 C 0.84448 0.77494 0.78038 0.0
C301 C 0.85858 0.78639 0.75915 0.0
C302 C 0.83834 0.8002 0.77238 0.0
C303 C 0.82384 0.78844 0.79423 0.0
O304 O 0.79546 0.80909 0.8261 0.0
O305 O 0.7802 0.7944 0.8116 0.0
O306 O 0.80967 0.78537 0.78957 0.0
O307 O 0.82494 0.80009 0.80404 0.0
H308 H 0.80431 0.77723 0.83008 0.0
H309 H 0.80361 0.7581 0.85014 0.0
H310 H 0.76124 0.77636 0.86757 0.0
H311 H 0.76225 0.79557 0.84774 0.0
H312 H 0.75315 0.85442 0.80586 0.0
H313 H 0.77187 0.83411 0.8058 0.0
H314 H 0.7724 0.87062 0.7632 0.0
H315 H 0.79119 0.85052 0.76344 0.0
H316 H 0.85146 0.80901 0.75351 0.0
H317 H 0.86255 0.76402 0.76804 0.0
H318 H 0.84261 0.76538 0.78785 0.0
H319 H 0.83159 0.81032 0.77355 0.0
C320 C 0.28413 0.28955 0.33893 0.0
C321 C 0.29512 0.27824 0.33947 0.0
C322 C 0.28309 0.26815 0.36261 0.0
C323 C 0.29461 0.26761 0.35122 0.0
C324 C 0.27212 0.27955 0.36194 0.0
C325 C 0.27265 0.29013 0.35022 0.0
U326 U 0.30128 0.30646 0.30232 0.0
O327 O 0.28948 0.3151 0.28206 0.0
O328 O 0.30462 0.33041 0.29603 0.0
C329 C 0.29455 0.32917 0.28475 0.0
C330 C 0.28434 0.30075 0.32666 0.0
C331 C 0.28276 0.34082 0.2848 0.0
C332 C 0.26264 0.35486 0.29777 0.0
C333 C 0.27367 0.3436 0.29787 0.0
C334 C 0.26951 0.36049 0.27145 0.0
C335 C 0.26044 0.36346 0.28455 0.0
C336 C 0.28057 0.34929 0.2716 0.0
C337 C 0.33666 0.28845 0.28372 0.0
C338 C 0.35021 0.29871 0.26161 0.0
C339 C 0.35765 0.27473 0.27201 0.0
C340 C 0.3462 0.27591 0.28322 0.0
C341 C 0.3598 0.28609 0.26103 0.0
C342 C 0.3387 0.29986 0.27285 0.0
C343 C 0.32472 0.28934 0.29567 0.0
O344 O 0.29611 0.31053 0.32687 0.0
O345 O 0.28101 0.29528 0.31279 0.0
O346 O 0.31059 0.286 0.29104 0.0
O347 O 0.32569 0.30133 0.30505 0.0
H348 H 0.30409 0.27764 0.33083 0.0
H349 H 0.30332 0.25909 0.35146 0.0
H350 H 0.26295 0.28016 0.37035 0.0
H351 H 0.26403 0.29875 0.34992 0.0
H352 H 0.25573 0.35672 0.30798 0.0
H353 H 0.27514 0.33709 0.30815 0.0
H354 H 0.26826 0.36702 0.26116 0.0
H355 H 0.28749 0.34729 0.2614 0.0
H356 H 0.35146 0.30758 0.25325 0.0
H357 H 0.36496 0.26499 0.27206 0.0
H358 H 0.34481 0.26702 0.29156 0.0
H359 H 0.33138 0.30961 0.27305 0.0
C360 C 0.46486 0.94538 0.51401 0.0
C361 C 0.47794 0.93763 0.51842 0.0
C362 C 0.4739 0.9192 0.49716 0.0
C363 C 0.48243 0.92466 0.51006 0.0
C364 C 0.46081 0.92707 0.49281 0.0
C365 C 0.45635 0.94003 0.50117 0.0
U366 U 0.46925 0.97377 0.54789 0.0
O367 O 0.4671 0.99864 0.54888 0.0
O368 O 0.45161 0.98421 0.56258 0.0
C369 C 0.45495 0.99801 0.55788 0.0
C370 C 0.45993 0.95897 0.52271 0.0
C371 C 0.44177 1.00683 0.55305 0.0
C372 C 0.42346 0.01417 0.53365 0.0
C373 C 0.43588 1.00547 0.53801 0.0
C374 C 0.42257 0.02549 0.55938 0.0
C375 C 0.41668 0.02434 0.54428 0.0
C376 C 0.43499 0.01683 0.56369 0.0
C377 C 0.5017 0.96849 0.57708 0.0
C378 C 0.50828 0.98661 0.5979 0.0
C379 C 0.52096 0.96248 0.59601 0.0
C380 C 0.51235 0.95848 0.58284 0.0
C381 C 0.51911 0.97663 0.60369 0.0
C382 C 0.49965 0.98257 0.58471 0.0
C383 C 0.49294 0.96402 0.56309 0.0
O384 O 0.45411 0.95641 0.5364 0.0
O385 O 0.4696 0.97078 0.52265 0.0
O386 O 0.49424 0.97337 0.55159 0.0
O387 O 0.47875 0.95898 0.56533 0.0
H388 H 0.48462 0.94159 0.52836 0.0
H389 H 0.49245 0.91879 0.51384 0.0
H390 H 0.4541 0.92332 0.48283 0.0
H391 H 0.44624 0.9459 0.49758 0.0
H392 H 0.41933 0.01309 0.5219 0.0
H393 H 0.44095 0.99777 0.52963 0.0
H394 H 0.41749 0.03297 0.56795 0.0
H395 H 0.43933 0.01796 0.57538 0.0
H396 H 0.50666 0.99764 0.60343 0.0
H397 H 0.52896 0.9544 0.60027 0.0
H398 H 0.51401 0.94753 0.57715 0.0
H399 H 0.49144 0.99044 0.5804 0.0
C400 C 0.21031 0.27611 0.6879 0.0
C401 C 0.22493 0.27787 0.6812 0.0
C402 C 0.21793 0.25879 0.66125 0.0
C403 C 0.22873 0.26924 0.66801 0.0
C404 C 0.20327 0.25721 0.66799 0.0
C405 C 0.19953 0.26578 0.68119 0.0
U406 U 0.21594 0.30969 0.71679 0.0
O407 O 0.19866 0.32365 0.72841 0.0
O408 O 0.21405 0.31007 0.7421 0.0
C409 C 0.202 0.31871 0.74212 0.0
C410 C 0.20609 0.28481 0.70192 0.0
C411 C 0.18881 0.31331 0.75133 0.0
C412 C 0.16534 0.29783 0.7541 0.0
C413 C 0.17802 0.30253 0.74527 0.0
C414 C 0.17428 0.31443 0.77521 0.0
C415 C 0.1633 0.30376 0.76918 0.0
C416 C 0.18689 0.31916 0.76635 0.0
C417 C 0.2482 0.33969 0.71079 0.0
C418 C 0.25559 0.35941 0.72982 0.0
C419 C 0.26589 0.36035 0.70394 0.0
C420 C 0.25757 0.34695 0.69993 0.0
C421 C 0.26502 0.36675 0.71893 0.0
C422 C 0.2472 0.34601 0.72577 0.0
C423 C 0.23955 0.32561 0.70623 0.0
O424 O 0.21602 0.28481 0.71334 0.0
O425 O 0.20046 0.29827 0.6997 0.0
O426 O 0.22534 0.32741 0.70168 0.0
O427 O 0.24094 0.31405 0.71537 0.0
H428 H 0.23339 0.28587 0.68619 0.0
H429 H 0.24005 0.27085 0.66301 0.0
H430 H 0.19476 0.24914 0.66322 0.0
H431 H 0.1882 0.26426 0.68622 0.0
H432 H 0.15721 0.28947 0.74918 0.0
H433 H 0.17936 0.29782 0.73371 0.0
H434 H 0.17297 0.31937 0.78668 0.0
H435 H 0.1951 0.32751 0.7712 0.0
H436 H 0.25453 0.36413 0.74142 0.0
H437 H 0.27318 0.36559 0.69533 0.0
H438 H 0.25849 0.34222 0.68832 0.0
H439 H 0.23993 0.3406 0.7343 0.0
C440 C 0.78106 0.23895 0.68814 0.0
C441 C 0.78758 0.25365 0.69057 0.0
C442 C 0.77997 0.26057 0.66471 0.0
C443 C 0.78698 0.26439 0.67898 0.0
C444 C 0.77357 0.24578 0.66235 0.0
C445 C 0.7741 0.2351 0.67395 0.0
U446 U 0.79848 0.22188 0.72412 0.0
O447 O 0.78697 0.21201 0.74426 0.0
O448 O 0.80161 0.19787 0.72955 0.0
C449 C 0.79191 0.19829 0.74115 0.0
C450 C 0.78131 0.22748 0.70018 0.0
C451 C 0.78014 0.18591 0.74127 0.0
C452 C 0.75714 0.17308 0.73071 0.0
C453 C 0.76824 0.18498 0.73035 0.0
C454 C 0.76977 0.16295 0.75289 0.0
C455 C 0.75779 0.1619 0.74199 0.0
C456 C 0.78083 0.17484 0.75252 0.0
C457 C 0.83435 0.24057 0.74301 0.0
C458 C 0.848 0.22932 0.76408 0.0
C459 C 0.85535 0.25465 0.75588 0.0
C460 C 0.84386 0.25368 0.74461 0.0
C461 C 0.85757 0.24249 0.76577 0.0
C462 C 0.83645 0.22838 0.75282 0.0
C463 C 0.82234 0.23984 0.73106 0.0
O464 O 0.79288 0.21822 0.69953 0.0
O465 O 0.77823 0.23236 0.71426 0.0
O466 O 0.80833 0.24245 0.73591 0.0
O467 O 0.82292 0.22828 0.72116 0.0
H468 H 0.79311 0.25682 0.70142 0.0
H469 H 0.79216 0.27563 0.6811 0.0
H470 H 0.76792 0.24251 0.65159 0.0
H471 H 0.76899 0.22382 0.67187 0.0
H472 H 0.74817 0.17253 0.72205 0.0
H473 H 0.76756 0.19343 0.72155 0.0
H474 H 0.7705 0.1547 0.76187 0.0
H475 H 0.78991 0.17542 0.76107 0.0
H476 H 0.84929 0.21982 0.77161 0.0
H477 H 0.86264 0.26486 0.75671 0.0
H478 H 0.84242 0.26318 0.73711 0.0
H479 H 0.82914 0.21818 0.75177 0.0
C480 C 0.51507 0.56308 0.58161 0.0
C481 C 0.51587 0.54846 0.58759 0.0
C482 C 0.49725 0.55503 0.60754 0.0
C483 C 0.50702 0.54445 0.60042 0.0
C484 C 0.49665 0.56971 0.60153 0.0
C485 C 0.50545 0.57367 0.58869 0.0
U486 U 0.54868 0.55785 0.55365 0.0
O487 O 0.54957 0.56006 0.52851 0.0
O488 O 0.56408 0.57517 0.54336 0.0
C489 C 0.55901 0.57205 0.52933 0.0
C490 C 0.52415 0.56754 0.56806 0.0
C491 C 0.55447 0.58527 0.52053 0.0
C492 C 0.53533 0.60308 0.51265 0.0
C493 C 0.53941 0.59054 0.52119 0.0
C494 C 0.56137 0.60537 0.5029 0.0
C495 C 0.54627 0.61066 0.50341 0.0
C496 C 0.5654 0.59279 0.51137 0.0
C497 C 0.57641 0.5253 0.55978 0.0
C498 C 0.59512 0.51618 0.54115 0.0
C499 C 0.59599 0.50794 0.56751 0.0
C500 C 0.58332 0.51676 0.5711 0.0
C501 C 0.60201 0.50743 0.55246 0.0
C502 C 0.58245 0.52505 0.54478 0.0
C503 C 0.56288 0.5342 0.5639 0.0
O504 O 0.53811 0.57301 0.57098 0.0
O505 O 0.52353 0.55793 0.55618 0.0
O506 O 0.55124 0.53306 0.55422 0.0
O507 O 0.56578 0.54821 0.56901 0.0
H508 H 0.52328 0.54013 0.5823 0.0
H509 H 0.50767 0.533 0.60462 0.0
H510 H 0.48949 0.57824 0.60685 0.0
H511 H 0.50476 0.58505 0.58429 0.0
H512 H 0.52366 0.60698 0.51344 0.0
H513 H 0.53082 0.58495 0.52831 0.0
H514 H 0.57003 0.61081 0.49577 0.0
H515 H 0.57708 0.58889 0.51072 0.0
H516 H 0.59935 0.51597 0.52942 0.0
H517 H 0.60115 0.50161 0.57658 0.0
H518 H 0.57888 0.51688 0.58276 0.0
H519 H 0.57729 0.53161 0.53588 0.0
C520 C 0.51385 0.47122 0.94395 0.0
C521 C 0.51687 0.48488 0.93634 0.0
C522 C 0.49478 0.4796 0.91947 0.0
C523 C 0.50742 0.48903 0.92418 0.0
C524 C 0.49196 0.46587 0.9271 0.0
C525 C 0.5014 0.46174 0.93921 0.0
U526 U 0.54866 0.47694 0.97084 0.0
O527 O 0.55018 0.47397 0.99586 0.0
O528 O 0.56392 0.45992 0.98016 0.0
C529 C 0.55942 0.46247 0.99442 0.0
C530 C 0.52343 0.4667 0.9569 0.0
C531 C 0.5549 0.44888 1.00306 0.0
C532 C 0.53709 0.42772 1.00814 0.0
C533 C 0.54127 0.44051 0.99961 0.0
C534 C 0.56017 0.43154 0.02356 0.0
C535 C 0.54649 0.42308 0.02024 0.0
C536 C 0.56431 0.44431 0.01505 0.0
C537 C 0.57688 0.51086 0.96598 0.0
C538 C 0.60191 0.51352 0.97844 0.0
C539 C 0.59112 0.5351 0.96602 0.0
C540 C 0.57812 0.52615 0.96187 0.0
C541 C 0.60319 0.5289 0.97434 0.0
C542 C 0.58883 0.50459 0.97435 0.0
C543 C 0.56306 0.50171 0.96142 0.0
O544 O 0.5372 0.46204 0.95325 0.0
O545 O 0.52342 0.47588 0.96912 0.0
O546 O 0.55162 0.50194 0.97129 0.0
O547 O 0.56548 0.48804 0.95555 0.0
H548 H 0.52646 0.49235 0.93986 0.0
H549 H 0.50985 0.49974 0.91866 0.0
H550 H 0.48251 0.4582 0.92362 0.0
H551 H 0.49895 0.45112 0.94492 0.0
H552 H 0.52658 0.42138 1.00515 0.0
H553 H 0.53387 0.44388 0.99035 0.0
H554 H 0.56757 0.42846 0.03293 0.0
H555 H 0.57485 0.45068 0.0179 0.0
H556 H 0.61092 0.50845 0.98499 0.0
H557 H 0.59182 0.54684 0.96252 0.0
H558 H 0.56901 0.53118 0.95541 0.0
H559 H 0.58804 0.49282 0.97772 0.0
C560 C 0.70885 0.26066 0.33536 0.0
C561 C 0.71791 0.25502 0.34716 0.0
C562 C 0.71768 0.27966 0.36083 0.0
C563 C 0.72224 0.26443 0.35983 0.0
C564 C 0.70869 0.28523 0.34889 0.0
C565 C 0.70431 0.27581 0.3363 0.0
U566 U 0.71294 0.22573 0.30838 0.0
O567 O 0.69502 0.21029 0.2982 0.0
O568 O 0.71028 0.22365 0.28322 0.0
C569 C 0.69809 0.21446 0.28409 0.0
C570 C 0.70394 0.25097 0.32203 0.0
C571 C 0.68473 0.21851 0.27482 0.0
C572 C 0.66639 0.23685 0.26634 0.0
C573 C 0.67906 0.23329 0.27537 0.0
C574 C 0.66484 0.21085 0.2563 0.0
C575 C 0.65911 0.22566 0.2567 0.0
C576 C 0.67752 0.20733 0.26526 0.0
C577 C 0.74525 0.19791 0.31505 0.0
C578 C 0.754 0.17897 0.29634 0.0
C579 C 0.76185 0.17786 0.32303 0.0
C580 C 0.75342 0.19078 0.32657 0.0
C581 C 0.76231 0.17183 0.30786 0.0
C582 C 0.74549 0.19187 0.29992 0.0
C583 C 0.73674 0.2117 0.31908 0.0
O584 O 0.71347 0.25079 0.31029 0.0
O585 O 0.69819 0.2374 0.32521 0.0
O586 O 0.72266 0.20937 0.32419 0.0
O587 O 0.73792 0.22282 0.30929 0.0
H588 H 0.72161 0.24337 0.34659 0.0
H589 H 0.7293 0.25984 0.36874 0.0
H590 H 0.70481 0.29682 0.34938 0.0
H591 H 0.6973 0.28034 0.3273 0.0
H592 H 0.66218 0.24831 0.26704 0.0
H593 H 0.68443 0.24206 0.28277 0.0
H594 H 0.65966 0.20201 0.24886 0.0
H595 H 0.68174 0.19587 0.26468 0.0
H596 H 0.75397 0.17452 0.28458 0.0
H597 H 0.76826 0.17276 0.33214 0.0
H598 H 0.75339 0.19528 0.33831 0.0
H599 H 0.73915 0.19715 0.29087 0.0
C600 C 0.46592 0.08178 1.00758 0.0
C601 C 0.47849 0.09079 1.00266 0.0
C602 C 0.47471 0.10882 0.02412 0.0
C603 C 0.48286 0.10419 0.01086 0.0
C604 C 0.46213 0.09967 0.02897 0.0
C605 C 0.45779 0.0863 0.02077 0.0
U606 U 0.47122 0.05203 0.97518 0.0
O607 O 0.46853 0.02705 0.97558 0.0
O608 O 0.45398 0.04 0.96039 0.0
C609 C 0.45679 0.02665 0.96604 0.0
C610 C 0.46116 0.06766 0.99915 0.0
C611 C 0.44326 0.01754 0.97095 0.0
C612 C 0.41972 0.01456 0.98584 0.0
C613 C 0.43248 0.0235 0.98132 0.0
C614 C 0.42848 0.99361 0.96975 0.0
C615 C 0.4176 0.99947 0.98013 0.0
C616 C 0.44117 1.00256 0.96521 0.0
C617 C 0.50536 0.05674 0.94725 0.0
C618 C 0.50796 0.04694 0.9209 0.0
C619 C 0.53067 0.05445 0.93571 0.0
C620 C 0.5214 0.05839 0.94826 0.0
C621 C 0.52408 0.04885 0.92178 0.0
C622 C 0.49869 0.05081 0.93352 0.0
C623 C 0.49593 0.06165 0.96052 0.0
O624 O 0.45611 0.06937 0.98506 0.0
O625 O 0.47053 0.05631 1.00025 0.0
O626 O 0.49645 0.05313 0.97269 0.0
O627 O 0.48203 0.06618 0.95744 0.0
H628 H 0.4849 0.08747 0.99247 0.0
H629 H 0.49249 0.11103 1.00669 0.0
H630 H 0.45575 0.10273 0.03924 0.0
H631 H 0.44809 0.07944 0.02476 0.0
H632 H 0.41164 0.01937 0.99397 0.0
H633 H 0.43396 0.03504 0.98595 0.0
H634 H 0.4271 0.98213 0.96496 0.0
H635 H 0.44937 0.99778 0.95717 0.0
H636 H 0.50246 0.04278 0.91035 0.0
H637 H 0.54303 0.05579 0.93696 0.0
H638 H 0.52679 0.06286 0.95876 0.0
H639 H 0.48632 0.04936 0.93246 0.0
C640 C 0.23429 0.91651 0.019 0.0
O641 O 0.24416 0.92082 0.0084 0.0
O642 O 0.25054 0.87882 1.00173 0.0
Zn643 Zn 0.25515 0.89169 0.02107 0.0
O644 O 0.27361 0.90581 0.01728 0.0
C645 C 0.25043 0.86663 0.04146 0.0
O646 O 0.23849 0.86404 0.03238 0.0
O647 O 0.23659 0.90432 0.0261 0.0
C648 C 0.28731 0.90121 0.01782 0.0
O649 O 0.28957 0.88695 0.02108 0.0
C650 C 0.25734 0.86649 0.99867 0.0
O651 O 0.26781 0.86194 1.00825 0.0
O652 O 0.2594 0.87802 0.03897 0.0
C653 C 0.15576 0.48752 0.27817 0.0
O654 O 0.1559 0.49817 0.28911 0.0
O655 O 0.1211 0.51059 0.28312 0.0
Zn656 Zn 0.1346 0.50779 0.26413 0.0
O657 O 0.14942 0.52594 0.26183 0.0
C658 C 0.10777 0.50927 0.24383 0.0
O659 O 0.10159 0.51631 0.25573 0.0
O660 O 0.14731 0.48906 0.2664 0.0
C661 C 0.14655 0.53726 0.25359 0.0
O662 O 0.13333 0.53746 0.2463 0.0
C663 C 0.1182 0.52375 0.28864 0.0
O664 O 0.12406 0.5358 0.2819 0.0
O665 O 0.12149 0.50478 0.24485 0.0
C666 C 0.78714 0.61601 1.00647 0.0
O667 O 0.77699 0.61069 0.99631 0.0
O668 O 0.77037 0.65419 0.99048 0.0
Zn669 Zn 0.76604 0.64092 0.00893 0.0
O670 O 0.74779 0.62622 1.00489 0.0
C671 C 0.75576 0.66741 0.02649 0.0
O672 O 0.75213 0.67204 0.01274 0.0
O673 O 0.78492 0.62876 0.01328 0.0
C674 C 0.73399 0.62982 1.00767 0.0
O675 O 0.73134 0.64355 0.01319 0.0
C676 C 0.76116 0.65514 0.97919 0.0
O677 O 0.74825 0.64698 0.97909 0.0
O678 O 0.76181 0.6545 0.02771 0.0
C679 C 0.85902 0.04318 0.28037 0.0
O680 O 0.85775 0.0315 0.28946 0.0
O681 O 0.89518 0.02131 0.28457 0.0
Zn682 Zn 0.88171 0.02431 0.26574 0.0
O683 O 0.86725 1.00593 0.262 0.0
C684 C 0.90892 0.02424 0.24573 0.0
O685 O 0.91542 0.01792 0.2575 0.0
O686 O 0.86872 0.04279 0.26941 0.0
C687 C 0.87064 0.99491 0.25294 0.0
O688 O 0.88398 0.99534 0.24583 0.0
C689 C 0.89852 1.00808 0.28886 0.0
O690 O 0.89313 0.99613 0.28094 0.0
O691 O 0.89489 0.02783 0.24671 0.0
C692 C 0.2867 0.11499 0.50662 0.0
O693 O 0.27613 0.10971 0.4969 0.0
O694 O 0.27123 0.15453 0.49083 0.0
Zn695 Zn 0.26663 0.14084 0.50885 0.0
O696 O 0.24798 0.12708 0.50391 0.0
C697 C 0.24989 0.16122 0.52909 0.0
O698 O 0.23955 0.15958 0.51809 0.0
O699 O 0.28511 0.12804 0.51306 0.0
C700 C 0.24061 0.12002 0.51432 0.0
O701 O 0.24526 0.12161 0.52869 0.0
C702 C 0.2605 0.15857 0.48203 0.0
O703 O 0.24637 0.15351 0.48457 0.0
O704 O 0.2624 0.15418 0.52775 0.0
C705 C 0.35575 0.5396 0.7749 0.0
O706 O 0.34997 0.52603 0.77799 0.0
O707 O 0.39694 0.51937 0.78257 0.0
Zn708 Zn 0.38233 0.52244 0.7648 0.0
O709 O 0.3687 0.50347 0.76152 0.0
C710 C 0.40721 0.51971 0.74267 0.0
O711 O 0.41228 0.51014 0.7527 0.0
O712 O 0.36928 0.54078 0.76938 0.0
C713 C 0.36008 0.50196 0.74971 0.0
O714 O 0.3602 0.51287 0.73966 0.0
C715 C 0.39209 0.51389 0.79514 0.0
O716 O 0.37736 0.51042 0.79656 0.0
O717 O 0.39463 0.52629 0.74538 0.0
C718 C 0.73414 0.4158 0.52066 0.0
O719 O 0.74456 0.42041 0.51072 0.0
O720 O 0.75058 0.37691 0.50457 0.0
Zn721 Zn 0.75478 0.39072 0.52333 0.0
O722 O 0.77333 0.40475 0.51955 0.0
C723 C 0.76395 0.36433 0.53993 0.0
O724 O 0.767 0.3593 0.52591 0.0
O725 O 0.73605 0.4034 0.52754 0.0
C726 C 0.7862 0.39959 0.51533 0.0
O727 O 0.78752 0.3848 0.5135 0.0
C728 C 0.75248 0.38126 0.49083 0.0
O729 O 0.75729 0.39533 0.48852 0.0
O730 O 0.75871 0.37761 0.5418 0.0
C731 C 0.65597 0.98766 0.777 0.0
O732 O 0.65652 0.99882 0.7874 0.0
O733 O 0.62075 0.01073 0.78109 0.0
Zn734 Zn 0.63464 1.00745 0.7625 0.0
O735 O 0.64946 0.02549 0.75989 0.0
C736 C 0.6082 0.00906 0.74193 0.0
O737 O 0.60213 0.01643 0.75369 0.0
O738 O 0.64722 0.98871 0.76537 0.0
C739 C 0.64513 0.03855 0.75605 0.0
O740 O 0.63042 0.0406 0.75378 0.0
C741 C 0.62398 0.02056 0.79174 0.0
O742 O 0.63679 0.02883 0.79082 0.0
O743 O 0.62179 1.00427 0.7431 0.0
C744 C 0.01358 0.22942 0.89869 0.0
O745 O 0.00866 0.22643 0.88459 0.0
O746 O 0.99288 0.25599 0.87606 0.0
Zn747 Zn 0.01183 0.26095 0.88933 0.0
O748 O 0.00833 0.27956 0.90316 0.0
C749 C 0.02943 0.26768 0.86155 0.0
O750 O 0.01569 0.26817 0.85535 0.0
O751 O 0.01578 0.24324 0.90314 0.0
C752 C 0.01205 0.29304 0.89927 0.0
O753 O 0.01837 0.29516 0.88572 0.0
C754 C 0.98297 0.26593 0.87332 0.0
O755 O 0.98493 0.27972 0.87935 0.0
O756 O 0.03059 0.26477 0.87577 0.0
C757 C 0.50833 0.73936 0.41194 0.0
O758 O 0.4982 0.74911 0.41693 0.0
O759 O 0.49209 0.755 0.37251 0.0
Zn760 Zn 0.51062 0.75988 0.38623 0.0
O761 O 0.50621 0.77813 0.40021 0.0
C762 C 0.52961 0.77568 0.36385 0.0
O763 O 0.51788 0.78471 0.36366 0.0
O764 O 0.51502 0.74161 0.39913 0.0
C765 C 0.51664 0.78714 0.4058 0.0
O766 O 0.53111 0.78458 0.40262 0.0
C767 C 0.4826 0.76523 0.36946 0.0
O768 O 0.48487 0.77901 0.37544 0.0
O769 O 0.52915 0.76439 0.37272 0.0
C770 C 1.00634 0.79515 0.61513 0.0
O771 O 0.9919 0.79078 0.61704 0.0
O772 O 0.99306 0.77489 0.64869 0.0
Zn773 Zn 0.0115 0.77 0.6352 0.0
O774 O 1.00639 0.75146 0.62142 0.0
C775 C 0.02826 0.75914 0.66149 0.0
O776 O 0.01441 0.75466 0.66583 0.0
O777 O 0.01679 0.78798 0.62181 0.0
C778 C 0.01638 0.74181 0.61753 0.0
O779 O 0.03059 0.74393 0.62245 0.0
C780 C 0.98252 0.76487 0.65118 0.0
O781 O 0.98364 0.75121 0.64483 0.0
O782 O 0.02986 0.76592 0.64881 0.0
C783 C 0.5064 0.29624 0.1166 0.0
O784 O 0.49195 0.29295 0.11992 0.0
O785 O 0.49356 0.27479 0.14941 0.0
Zn786 Zn 0.51182 0.2702 0.13559 0.0
O787 O 0.50674 0.25158 0.12195 0.0
C788 C 0.53064 0.25457 0.15724 0.0
O789 O 0.51894 0.24474 0.15665 0.0
O790 O 0.51685 0.28814 0.12207 0.0
C791 C 0.5171 0.2437 0.11557 0.0
O792 O 0.53162 0.24776 0.11778 0.0
C793 C 0.4839 0.26425 0.15289 0.0
O794 O 0.4858 0.25042 0.14725 0.0
O795 O 0.53027 0.26635 0.14908 0.0
C796 C 0.23091 0.77855 0.88825 0.0
C797 C 0.2208 0.78399 0.87717 0.0
C798 C 0.23499 0.78748 0.90131 0.0
C799 C 0.22204 0.8198 0.92559 0.0
H800 H 0.26437 0.82204 0.93967 0.0
C801 C 0.24266 0.86229 0.97391 0.0
C802 C 0.25331 0.8572 0.98463 0.0
C803 C 0.2388 0.85342 0.96075 0.0
C804 C 0.25245 0.8214 0.93603 0.0
H805 H 0.20734 0.80331 0.87109 0.0
H806 H 0.21432 0.81876 0.8939 0.0
H807 H 0.25743 0.80635 0.91697 0.0
H808 H 0.26823 0.83872 0.98991 0.0
H809 H 0.26134 0.82319 0.96714 0.0
H810 H 0.21701 0.83474 0.94469 0.0
C811 C 0.21894 0.8075 0.89258 0.0
C812 C 0.24849 0.81241 0.92299 0.0
C813 C 0.21492 0.79861 0.8795 0.0
C814 C 0.26003 0.84304 0.98186 0.0
C815 C 0.25614 0.83415 0.96874 0.0
C816 C 0.22599 0.82875 0.93867 0.0
C817 C 0.22901 0.80204 0.90365 0.0
C818 C 0.23324 0.81152 0.91759 0.0
C819 C 0.24546 0.83921 0.958 0.0
C820 C 0.24126 0.82969 0.94405 0.0
H821 H 0.23549 0.76727 0.88698 0.0
H822 H 0.24262 0.78286 0.90972 0.0
H823 H 0.21014 0.81919 0.92189 0.0
H824 H 0.23731 0.87316 0.97564 0.0
H825 H 0.23071 0.85779 0.95264 0.0
C826 C 0.03324 0.53139 0.40258 0.0
C827 C 0.03127 0.54651 0.4078 0.0
C828 C 0.04256 0.52821 0.38979 0.0
C829 C 0.07432 0.5452 0.36687 0.0
H830 H 0.06217 0.51451 0.33591 0.0
C831 C 0.10544 0.54022 0.30854 0.0
C832 C 0.10825 0.5256 0.30243 0.0
C833 C 0.09614 0.54212 0.32153 0.0
C834 C 0.06583 0.52299 0.34455 0.0
H835 H 0.0371 0.57014 0.40322 0.0
H836 H 0.05328 0.56462 0.38104 0.0
H837 H 0.04565 0.51899 0.35825 0.0
H838 H 0.1034 0.50146 0.30519 0.0
H839 H 0.0872 0.50479 0.32798 0.0
H840 H 0.09442 0.54927 0.35322 0.0
C841 C 0.04791 0.55518 0.38701 0.0
C842 C 0.05635 0.52556 0.35736 0.0
C843 C 0.03862 0.55835 0.39975 0.0
C844 C 0.10147 0.51289 0.3096 0.0
C845 C 0.09211 0.5148 0.32261 0.0
C846 C 0.08376 0.54264 0.35411 0.0
C847 C 0.05012 0.54007 0.38194 0.0
C848 C 0.06041 0.53682 0.36859 0.0
C849 C 0.08939 0.52945 0.32878 0.0
C850 C 0.07958 0.53162 0.34269 0.0
H851 H 0.02787 0.52199 0.40859 0.0
H852 H 0.04411 0.51644 0.38628 0.0
H853 H 0.07798 0.55373 0.37546 0.0
H854 H 0.11041 0.55027 0.30329 0.0
H855 H 0.09409 0.55357 0.3258 0.0
C856 C 0.77703 0.75798 0.88774 0.0
C857 C 0.78177 0.75406 0.8727 0.0
C858 C 0.77597 0.747 0.89907 0.0
C859 C 0.77187 0.70538 0.90388 0.0
H860 H 0.783 0.71574 0.9462 0.0
C861 C 0.75415 0.66722 0.95442 0.0
C862 C 0.76464 0.66577 0.96657 0.0
C863 C 0.75714 0.67755 0.94275 0.0
C864 C 0.77998 0.71259 0.93442 0.0
H865 H 0.78921 0.73545 0.85786 0.0
H866 H 0.78765 0.71636 0.87771 0.0
H867 H 0.78705 0.73453 0.92637 0.0
H868 H 0.78666 0.67394 0.9758 0.0
H869 H 0.79196 0.69184 0.95534 0.0
H870 H 0.76497 0.68338 0.91189 0.0
C871 C 0.78457 0.72791 0.88069 0.0
C872 C 0.78213 0.72344 0.92306 0.0
C873 C 0.78564 0.73891 0.86934 0.0
C874 C 0.7783 0.67479 0.96665 0.0
C875 C 0.7813 0.68513 0.95496 0.0
C876 C 0.76972 0.69453 0.91523 0.0
C877 C 0.77964 0.7318 0.89568 0.0
C878 C 0.77798 0.72002 0.90766 0.0
C879 C 0.77072 0.68669 0.94289 0.0
C880 C 0.77363 0.69803 0.93068 0.0
H881 H 0.77415 0.76957 0.8908 0.0
H882 H 0.77197 0.75038 0.91043 0.0
H883 H 0.76841 0.70238 0.89217 0.0
H884 H 0.7435 0.66049 0.954 0.0
H885 H 0.74863 0.67859 0.93377 0.0
C886 C 0.98356 0.99892 0.40207 0.0
C887 C 0.98605 0.98374 0.40586 0.0
C888 C 0.97415 1.00225 0.38958 0.0
C889 C 0.94303 0.98507 0.36497 0.0
H890 H 0.95411 0.01735 0.33712 0.0
C891 C 0.9118 0.99133 0.30718 0.0
C892 C 0.90848 1.00604 0.30249 0.0
C893 C 0.92114 0.98924 0.31998 0.0
C894 C 0.95075 0.00842 0.3449 0.0
H895 H 0.98104 0.96016 0.39907 0.0
H896 H 0.96472 0.96592 0.3774 0.0
H897 H 0.97077 0.01256 0.359 0.0
H898 H 0.91246 0.03015 0.30762 0.0
H899 H 0.92874 0.02648 0.33009 0.0
H900 H 0.92308 0.98086 0.35091 0.0
C901 C 0.96974 0.97529 0.38426 0.0
C902 C 0.96031 1.00567 0.35745 0.0
C903 C 0.97912 0.97198 0.3967 0.0
C904 C 0.91479 0.01865 0.31091 0.0
C905 C 0.92419 0.01655 0.32374 0.0
C906 C 0.93351 0.98781 0.35246 0.0
C907 C 0.96701 0.99046 0.3806 0.0
C908 C 0.95664 0.99385 0.36755 0.0
C909 C 0.92743 1.0018 0.32847 0.0
C910 C 0.93731 0.99941 0.34217 0.0
H911 H 0.98859 0.00826 0.40896 0.0
H912 H 0.97219 0.01405 0.38717 0.0
H913 H 0.93967 0.97609 0.3727 0.0
H914 H 0.90721 0.98135 0.30094 0.0
H915 H 0.92359 0.97772 0.32313 0.0
C916 C 0.21113 0.2469 0.63537 0.0
C917 C 0.22189 0.24944 0.64732 0.0
C918 C 0.21454 0.23761 0.62257 0.0
C919 C 0.24682 0.22032 0.60112 0.0
H920 H 0.21461 0.19275 0.58506 0.0
C921 C 0.25812 0.17343 0.55444 0.0
C922 C 0.24701 0.17125 0.54275 0.0
C923 C 0.25534 0.183 0.56725 0.0
C924 C 0.2237 0.20049 0.58929 0.0
H925 H 0.24477 0.24423 0.65508 0.0
H926 H 0.25072 0.22795 0.63278 0.0
H927 H 0.20935 0.2095 0.60711 0.0
H928 H 0.22429 0.17748 0.53538 0.0
H929 H 0.21951 0.19417 0.5576 0.0
H930 H 0.26118 0.21122 0.58328 0.0
C931 C 0.23969 0.23332 0.63321 0.0
C932 C 0.22068 0.21012 0.60194 0.0
C933 C 0.23628 0.24266 0.64601 0.0
C934 C 0.23308 0.17884 0.54418 0.0
C935 C 0.2303 0.18836 0.55698 0.0
C936 C 0.24986 0.21065 0.58846 0.0
C937 C 0.22881 0.23057 0.62139 0.0
C938 C 0.23217 0.22022 0.60798 0.0
C939 C 0.24138 0.19056 0.56869 0.0
C940 C 0.23831 0.20066 0.58234 0.0
H941 H 0.20005 0.25217 0.63586 0.0
H942 H 0.206 0.23602 0.61355 0.0
H943 H 0.25589 0.22807 0.60534 0.0
H944 H 0.26897 0.16775 0.55372 0.0
H945 H 0.26406 0.1843 0.57614 0.0
C946 C 0.49362 0.5417 0.63269 0.0
C947 C 0.48773 0.55082 0.62116 0.0
C948 C 0.48474 0.53801 0.64559 0.0
C949 C 0.4517 0.55101 0.66859 0.0
H950 H 0.45128 0.51015 0.68434 0.0
C951 C 0.4104 0.53248 0.71727 0.0
C952 C 0.41616 0.52296 0.72851 0.0
C953 C 0.41894 0.53564 0.70401 0.0
C954 C 0.4514 0.52167 0.68022 0.0
H955 H 0.46763 0.56286 0.61406 0.0
H956 H 0.45227 0.55657 0.6366 0.0
H957 H 0.4666 0.51608 0.66162 0.0
H958 H 0.43546 0.50929 0.73458 0.0
H959 H 0.45044 0.51498 0.71164 0.0
H960 H 0.43666 0.55668 0.68723 0.0
C961 C 0.46384 0.55243 0.63575 0.0
C962 C 0.46018 0.52506 0.66717 0.0
C963 C 0.47268 0.55606 0.62283 0.0
C964 C 0.43064 0.51663 0.72614 0.0
C965 C 0.4392 0.51982 0.71291 0.0
C966 C 0.44298 0.54765 0.68166 0.0
C967 C 0.46978 0.54341 0.64732 0.0
C968 C 0.46043 0.53977 0.66119 0.0
C969 C 0.43348 0.52939 0.70168 0.0
C970 C 0.4427 0.53293 0.68766 0.0
H971 H 0.50522 0.53764 0.63192 0.0
H972 H 0.48973 0.53119 0.65438 0.0
H973 H 0.45182 0.56252 0.66442 0.0
H974 H 0.39925 0.53749 0.71869 0.0
H975 H 0.41405 0.54286 0.69551 0.0
C976 C 0.78197 0.26753 0.6369 0.0
C977 C 0.77923 0.27191 0.65232 0.0
C978 C 0.78068 0.27796 0.62514 0.0
C979 C 0.77949 0.3193 0.61752 0.0
H980 H 0.76075 0.3048 0.57912 0.0
C981 C 0.76308 0.35949 0.56839 0.0
C982 C 0.7662 0.35438 0.55324 0.0
C983 C 0.76487 0.34983 0.5808 0.0
C984 C 0.76615 0.30901 0.58971 0.0
H985 H 0.77307 0.29077 0.66747 0.0
H986 H 0.77069 0.30897 0.64692 0.0
H987 H 0.76356 0.28731 0.60009 0.0
H988 H 0.77388 0.33518 0.53934 0.0
H989 H 0.77704 0.31847 0.5609 0.0
H990 H 0.78196 0.34107 0.60707 0.0
C991 C 0.77406 0.2975 0.64394 0.0
C992 C 0.76779 0.29897 0.60175 0.0
C993 C 0.77541 0.28707 0.65573 0.0
C994 C 0.7713 0.33949 0.55083 0.0
C995 C 0.77303 0.32985 0.56319 0.0
C996 C 0.7778 0.32939 0.60546 0.0
C997 C 0.77654 0.29304 0.62847 0.0
C998 C 0.77459 0.30393 0.61579 0.0
C999 C 0.76974 0.33485 0.57832 0.0
C1000 C 0.77122 0.32432 0.59137 0.0
H1001 H 0.78521 0.25602 0.63391 0.0
H1002 H 0.78302 0.27419 0.61342 0.0
H1003 H 0.78492 0.3235 0.6281 0.0
H1004 H 0.75914 0.3709 0.57066 0.0
H1005 H 0.76214 0.354 0.5923 0.0
C1006 C 0.52187 0.98844 0.63038 0.0
C1007 C 0.52845 0.98085 0.61764 0.0
C1008 C 0.53058 0.99196 0.64364 0.0
C1009 C 0.56532 0.98044 0.66429 0.0
H1010 H 0.56171 0.01921 0.68619 0.0
C1011 C 0.60577 0.99874 0.71473 0.0
C1012 C 0.59923 1.00626 0.72752 0.0
C1013 C 0.59724 0.99596 0.70122 0.0
C1014 C 0.56273 0.00826 0.68032 0.0
H1015 H 0.54957 0.9715 0.60874 0.0
H1016 H 0.56469 0.97755 0.63183 0.0
H1017 H 0.5466 0.01386 0.66288 0.0
H1018 H 0.57858 0.01679 0.73609 0.0
H1019 H 0.56367 0.01177 0.71265 0.0
H1020 H 0.58134 0.97477 0.68174 0.0
C1021 C 0.55271 0.98055 0.63168 0.0
C1022 C 0.55407 1.0052 0.66694 0.0
C1023 C 0.54402 0.97707 0.61843 0.0
C1024 C 0.58399 0.011 0.72645 0.0
C1025 C 0.57546 1.0082 0.71296 0.0
C1026 C 0.57394 0.98348 0.67767 0.0
C1027 C 0.54608 0.98795 0.6445 0.0
C1028 C 0.55527 0.99126 0.65875 0.0
C1029 C 0.58195 1.00061 0.70017 0.0
C1030 C 0.57278 0.99743 0.68586 0.0
H1031 H 0.50987 0.99136 0.63026 0.0
H1032 H 0.52507 0.9975 0.65337 0.0
H1033 H 0.56633 0.96948 0.65842 0.0
H1034 H 0.6175 0.99499 0.71512 0.0
H1035 H 0.60269 0.99029 0.69154 0.0
C1036 C 0.87244 0.25728 0.78633 0.0
C1037 C 0.86982 0.24363 0.77777 0.0
C1038 C 0.88418 0.25856 0.79732 0.0
C1039 C 0.9209 0.24189 0.80821 0.0
H1040 H 0.91445 0.26416 0.84672 0.0
C1041 C 0.96762 0.24774 0.85596 0.0
C1042 C 0.9696 0.26222 0.86313 0.0
C1043 C 0.95511 0.24449 0.8461 0.0
C1044 C 0.91649 0.25801 0.83597 0.0
H1045 H 0.87751 0.22058 0.77412 0.0
H1046 H 0.89792 0.22276 0.79346 0.0
H1047 H 0.89322 0.26025 0.82859 0.0
H1048 H 0.95992 0.28461 0.86557 0.0
H1049 H 0.93831 0.27901 0.84836 0.0
H1050 H 0.94424 0.23982 0.81553 0.0
C1051 C 0.89095 0.23252 0.79157 0.0
C1052 C 0.90431 0.25577 0.82557 0.0
C1053 C 0.87914 0.23122 0.78059 0.0
C1054 C 0.95875 0.27332 0.86029 0.0
C1055 C 0.94627 0.27007 0.85048 0.0
C1056 C 0.93311 0.24415 0.81862 0.0
C1057 C 0.89364 0.24623 0.80004 0.0
C1058 C 0.9064 0.24784 0.81147 0.0
C1059 C 0.94429 0.25564 0.84323 0.0
C1060 C 0.9311 0.25241 0.83255 0.0
H1061 H 0.86537 0.26701 0.78458 0.0
H1062 H 0.88603 0.26934 0.80351 0.0
H1063 H 0.92296 0.23587 0.79739 0.0
H1064 H 0.97575 0.23892 0.8579 0.0
H1065 H 0.95386 0.23321 0.84082 0.0
C1066 C 0.46747 0.89455 0.48278 0.0
C1067 C 0.47858 0.90536 0.48826 0.0
C1068 C 0.47181 0.88165 0.47426 0.0
C1069 C 0.50358 0.86671 0.45047 0.0
H1070 H 0.48299 0.82766 0.4571 0.0
C1071 C 0.52392 0.8108 0.42137 0.0
C1072 C 0.51248 0.80048 0.41562 0.0
C1073 C 0.51998 0.82347 0.43048 0.0
C1074 C 0.48875 0.83851 0.45499 0.0
H1075 H 0.50303 0.91103 0.48896 0.0
H1076 H 0.51063 0.8884 0.47431 0.0
H1077 H 0.47583 0.8499 0.47258 0.0
H1078 H 0.4879 0.79544 0.41498 0.0
H1079 H 0.48105 0.81757 0.43077 0.0
H1080 H 0.51648 0.85532 0.43286 0.0
C1081 C 0.49852 0.88999 0.47649 0.0
C1082 C 0.48464 0.85127 0.46387 0.0
C1083 C 0.49417 0.90288 0.48505 0.0
C1084 C 0.49702 0.80312 0.41925 0.0
C1085 C 0.49309 0.81577 0.42838 0.0
C1086 C 0.5077 0.85394 0.4416 0.0
C1087 C 0.48739 0.87921 0.47096 0.0
C1088 C 0.49197 0.86555 0.46169 0.0
C1089 C 0.50452 0.82613 0.4341 0.0
C1090 C 0.5003 0.83968 0.44371 0.0
H1091 H 0.45538 0.89599 0.48518 0.0
H1092 H 0.46292 0.87368 0.47005 0.0
H1093 H 0.5093 0.87757 0.44831 0.0
H1094 H 0.53594 0.80911 0.41883 0.0
H1095 H 0.52909 0.83111 0.43484 0.0
C1096 C 0.13497 0.29764 0.77177 0.0
C1097 C 0.14966 0.29908 0.77851 0.0
C1098 C 0.12208 0.29379 0.78066 0.0
C1099 C 0.11027 0.27637 0.81735 0.0
H1100 H 0.0728 0.29818 0.81132 0.0
C1101 C 0.05811 0.2711 0.85867 0.0
C1102 C 0.04334 0.27076 0.85207 0.0
C1103 C 0.07115 0.27425 0.84969 0.0
C1104 C 0.0831 0.29183 0.81304 0.0
H1105 H 0.16233 0.29719 0.79983 0.0
H1106 H 0.13983 0.29062 0.81537 0.0
H1107 H 0.09531 0.30399 0.79559 0.0
H1108 H 0.03075 0.27328 0.83078 0.0
H1109 H 0.05342 0.27854 0.81514 0.0
H1110 H 0.09804 0.26418 0.83479 0.0
C1111 C 0.13828 0.29241 0.80319 0.0
C1112 C 0.09602 0.29518 0.80401 0.0
C1113 C 0.15117 0.29634 0.79431 0.0
C1114 C 0.04193 0.27352 0.83627 0.0
C1115 C 0.05495 0.27664 0.82731 0.0
C1116 C 0.09733 0.27299 0.82637 0.0
C1117 C 0.12356 0.2912 0.7965 0.0
C1118 C 0.10977 0.28749 0.80604 0.0
C1119 C 0.06973 0.27711 0.8339 0.0
C1120 C 0.08356 0.28068 0.82433 0.0
H1121 H 0.13337 0.2998 0.75967 0.0
H1122 H 0.11093 0.29278 0.7751 0.0
H1123 H 0.12061 0.27009 0.81909 0.0
H1124 H 0.05962 0.26907 0.87081 0.0
H1125 H 0.08233 0.27469 0.8552 0.0
C1126 C 0.55201 0.63683 0.49343 0.0
C1127 C 0.54201 0.62399 0.49427 0.0
C1128 C 0.54818 0.64924 0.48461 0.0
C1129 C 0.51515 0.66729 0.46607 0.0
H1130 H 0.54722 0.68799 0.44285 0.0
C1131 C 0.50509 0.72389 0.43567 0.0
C1132 C 0.51198 0.72598 0.4212 0.0
C1133 C 0.50861 0.71137 0.44448 0.0
C1134 C 0.53809 0.68227 0.44914 0.0
H1135 H 0.52014 0.61412 0.48639 0.0
H1136 H 0.5135 0.6357 0.47089 0.0
H1137 H 0.5535 0.66625 0.45816 0.0
H1138 H 0.52788 0.71641 0.4046 0.0
H1139 H 0.53385 0.69449 0.41985 0.0
H1140 H 0.49967 0.6831 0.45675 0.0
C1141 C 0.52421 0.6363 0.47727 0.0
C1142 C 0.54173 0.6699 0.4581 0.0
C1143 C 0.52802 0.62391 0.48615 0.0
C1144 C 0.52241 0.7152 0.41572 0.0
C1145 C 0.5259 0.70266 0.42452 0.0
C1146 C 0.5115 0.67965 0.45708 0.0
C1147 C 0.53426 0.64912 0.47634 0.0
C1148 C 0.53033 0.66226 0.46672 0.0
C1149 C 0.51907 0.70059 0.43904 0.0
C1150 C 0.52292 0.68732 0.44851 0.0
H1151 H 0.56276 0.63738 0.49974 0.0
H1152 H 0.55608 0.65901 0.48442 0.0
H1153 H 0.50609 0.6618 0.47266 0.0
H1154 H 0.49704 0.73198 0.44028 0.0
H1155 H 0.50329 0.71028 0.45569 0.0
C1156 C 0.8725 0.77186 0.73839 0.0
C1157 C 0.87067 0.78544 0.74704 0.0
C1158 C 0.88413 0.77074 0.72734 0.0
C1159 C 0.92177 0.78778 0.7165 0.0
H1160 H 0.91406 0.76565 0.67788 0.0
C1161 C 0.96816 0.78273 0.66873 0.0
C1162 C 0.96935 0.76833 0.66142 0.0
C1163 C 0.95583 0.78576 0.67861 0.0
C1164 C 0.91645 0.77176 0.68866 0.0
H1165 H 0.87966 0.80855 0.75077 0.0
H1166 H 0.89988 0.80666 0.73133 0.0
H1167 H 0.89305 0.76928 0.69605 0.0
H1168 H 0.95843 0.74586 0.65875 0.0
H1169 H 0.93711 0.75109 0.67601 0.0
H1170 H 0.94523 0.7901 0.70919 0.0
C1171 C 0.89236 0.79682 0.73321 0.0
C1172 C 0.90439 0.77384 0.69908 0.0
C1173 C 0.88067 0.79796 0.74423 0.0
C1174 C 0.95788 0.75709 0.66414 0.0
C1175 C 0.94557 0.76012 0.67398 0.0
C1176 C 0.93385 0.78569 0.70608 0.0
C1177 C 0.89427 0.78317 0.72466 0.0
C1178 C 0.90693 0.78173 0.71321 0.0
C1179 C 0.94438 0.77448 0.68137 0.0
C1180 C 0.93138 0.77749 0.6921 0.0
H1181 H 0.8649 0.76205 0.74013 0.0
H1182 H 0.88535 0.76001 0.7211 0.0
H1183 H 0.92418 0.79376 0.72735 0.0
H1184 H 0.97678 0.79166 0.66687 0.0
H1185 H 0.95519 0.79699 0.68399 0.0
C1186 C 0.0261 0.9065 0.5333 0.0
C1187 C 0.04162 0.91058 0.53061 0.0
C1188 C 0.02214 0.89384 0.54209 0.0
C1189 C 0.03773 0.85813 0.55678 0.0
H1190 H 1.00419 0.86091 0.58603 0.0
C1191 C 0.0258 0.81258 0.60256 0.0
C1192 C 0.01035 0.80826 0.6053 0.0
C1193 C 0.02952 0.82491 0.59325 0.0
C1194 C 0.01348 0.85988 0.5778 0.0
H1195 H 0.06512 0.90426 0.53481 0.0
H1196 H 0.05825 0.88246 0.55037 0.0
H1197 H 0.01075 0.88255 0.57007 0.0
H1198 H 0.9867 0.81357 0.60034 0.0
H1199 H 0.9932 0.83501 0.58408 0.0
H1200 H 0.0405 0.83549 0.56461 0.0
C1201 C 0.04911 0.88895 0.54558 0.0
C1202 C 0.01723 0.87229 0.56862 0.0
C1203 C 0.05306 0.90159 0.5368 0.0
C1204 C 0.99872 0.81659 0.59851 0.0
C1205 C 1.00244 0.82895 0.58925 0.0
C1206 C 0.03399 0.84573 0.56599 0.0
C1207 C 0.0336 0.88493 0.5484 0.0
C1208 C 0.02943 0.8716 0.558 0.0
C1209 C 0.01788 0.83327 0.58649 0.0
C1210 C 0.02183 0.84645 0.57664 0.0
H1211 H 0.01698 0.91323 0.52884 0.0
H1212 H 0.01008 0.89099 0.54386 0.0
H1213 H 0.04702 0.85709 0.54856 0.0
H1214 H 0.03505 0.80643 0.60762 0.0
H1215 H 0.04152 0.82804 0.59152 0.0
C1216 C 0.13831 0.71856 0.73712 0.0
C1217 C 0.14623 0.73 0.74591 0.0
C1218 C 0.12556 0.722 0.72822 0.0
C1219 C 0.10648 0.75409 0.71004 0.0
H1220 H 0.07173 0.72539 0.70746 0.0
C1221 C 0.05679 0.75999 0.66633 0.0
C1222 C 0.04178 0.75626 0.67129 0.0
C1223 C 0.0695 0.7571 0.67558 0.0
C1224 C 0.08126 0.73361 0.70814 0.0
H1225 H 0.14687 0.75409 0.75212 0.0
H1226 H 0.1244 0.76003 0.73686 0.0
H1227 H 0.0936 0.71997 0.72364 0.0
H1228 H 0.02839 0.74675 0.69 0.0
H1229 H 0.05046 0.74194 0.70617 0.0
H1230 H 0.09396 0.76789 0.69479 0.0
C1231 C 0.1282 0.74841 0.73671 0.0
C1232 C 0.09392 0.7304 0.71729 0.0
C1233 C 0.14098 0.74497 0.74562 0.0
C1234 C 0.03979 0.74969 0.68576 0.0
C1235 C 0.05247 0.74684 0.69501 0.0
C1236 C 0.0938 0.75731 0.7009 0.0
C1237 C 0.12032 0.73697 0.72788 0.0
C1238 C 0.10673 0.74057 0.71833 0.0
C1239 C 0.06751 0.75044 0.69003 0.0
C1240 C 0.08102 0.7471 0.69981 0.0
H1241 H 0.14188 0.70688 0.73721 0.0
H1242 H 0.11991 0.71292 0.72144 0.0
H1243 H 0.11619 0.76212 0.71044 0.0
H1244 H 0.05876 0.76503 0.65523 0.0
H1245 H 0.08091 0.75985 0.67127 0.0
C1246 C 0.99317 0.62431 0.53918 0.0
C1247 C 0.97795 0.62195 0.53398 0.0
C1248 C 0.99746 0.6374 0.5479 0.0
C1249 C 0.9855 0.67663 0.55766 0.0
H1250 H 0.01247 0.67286 0.59279 0.0
C1251 C 0.99691 0.726 0.60218 0.0
C1252 C 0.01203 0.72827 0.60769 0.0
C1253 C 0.99284 0.71316 0.59299 0.0
C1254 C 1.00508 0.67416 0.58291 0.0
H1255 H 0.95537 0.63172 0.53364 0.0
H1256 H 0.96278 0.6544 0.54904 0.0
H1257 H 1.00532 0.65034 0.57705 0.0
H1258 H 0.03475 0.71878 0.60778 0.0
H1259 H 0.02768 0.69648 0.59169 0.0
H1260 H 0.98523 0.70045 0.56355 0.0
C1261 C 0.97145 0.64618 0.54629 0.0
C1262 C 1.00098 0.66123 0.57387 0.0
C1263 C 0.96716 0.63308 0.5376 0.0
C1264 C 0.02299 0.71739 0.60377 0.0
C1265 C 0.01891 0.70454 0.59461 0.0
C1266 C 0.9896 0.68956 0.5667 0.0
C1267 C 0.98664 0.64848 0.55161 0.0
C1268 C 0.99112 0.66229 0.56113 0.0
C1269 C 1.00378 0.70224 0.58912 0.0
C1270 C 0.99943 0.68849 0.57945 0.0
H1271 H 1.00175 0.61591 0.53673 0.0
H1272 H 0.00929 0.63887 0.55166 0.0
H1273 H 0.97808 0.67791 0.5478 0.0
H1274 H 0.98816 0.73412 0.60501 0.0
H1275 H 0.98104 0.71167 0.58912 0.0
C1276 C 0.77332 0.89057 0.23406 0.0
C1277 C 0.77881 0.87848 0.22486 0.0
C1278 C 0.78297 0.90311 0.23813 0.0
C1279 C 0.82423 0.91534 0.24072 0.0
H1280 H 0.80848 0.95607 0.23962 0.0
C1281 C 0.86418 0.969 0.24148 0.0
C1282 C 0.85984 0.98163 0.25057 0.0
C1283 C 0.85409 0.95643 0.23922 0.0
C1284 C 0.81301 0.94476 0.24016 0.0
H1285 H 0.79893 0.87002 0.21306 0.0
H1286 H 0.81556 0.89195 0.21978 0.0
H1287 H 0.79126 0.9341 0.23419 0.0
H1288 H 0.84143 0.99095 0.2644 0.0
H1289 H 0.8238 0.96897 0.26043 0.0
H1290 H 0.84603 0.92601 0.24646 0.0
C1291 C 0.80385 0.89171 0.22402 0.0
C1292 C 0.80313 0.93215 0.23707 0.0
C1293 C 0.79423 0.8792 0.21998 0.0
C1294 C 0.84514 0.98141 0.25732 0.0
C1295 C 0.835 0.96885 0.25499 0.0
C1296 C 0.83411 0.92793 0.24375 0.0
C1297 C 0.79836 0.90385 0.23312 0.0
C1298 C 0.80865 0.91728 0.23716 0.0
C1299 C 0.83937 0.95619 0.24593 0.0
C1300 C 0.82866 0.9428 0.24337 0.0
H1301 H 0.76148 0.89047 0.23793 0.0
H1302 H 0.77839 0.91218 0.24528 0.0
H1303 H 0.82883 0.90405 0.24121 0.0
H1304 H 0.8754 0.96878 0.23609 0.0
H1305 H 0.85775 0.94697 0.23201 0.0
C1306 C 0.78079 0.15772 0.2908 0.0
C1307 C 0.77159 0.15826 0.30411 0.0
C1308 C 0.78995 0.14521 0.28761 0.0
C1309 C 0.79459 0.10474 0.29688 0.0
H1310 H 0.83658 0.1119 0.28321 0.0
C1311 C 0.83869 0.057 0.29513 0.0
C1312 C 0.84906 0.05646 0.28272 0.0
C1313 C 0.82913 0.06938 0.29728 0.0
C1314 C 0.82482 0.10967 0.28682 0.0
H1315 H 0.76454 0.14587 0.32431 0.0
H1316 H 0.7806 0.12413 0.31883 0.0
H1317 H 0.81993 0.13341 0.28753 0.0
H1318 H 0.85749 0.06856 0.26283 0.0
H1319 H 0.84069 0.09007 0.26648 0.0
H1320 H 0.79944 0.08102 0.29615 0.0
C1321 C 0.78069 0.13335 0.31081 0.0
C1322 C 0.81527 0.12202 0.2893 0.0
C1323 C 0.77161 0.14589 0.31403 0.0
C1324 C 0.84968 0.06863 0.27254 0.0
C1325 C 0.84009 0.08101 0.27468 0.0
C1326 C 0.80412 0.0924 0.29434 0.0
C1327 C 0.79006 0.13289 0.29761 0.0
C1328 C 0.80007 0.11972 0.29446 0.0
C1329 C 0.82966 0.08154 0.28707 0.0
C1330 C 0.8194 0.09469 0.28938 0.0
H1331 H 0.78114 0.16711 0.28298 0.0
H1332 H 0.79692 0.14515 0.27727 0.0
H1333 H 0.78287 0.10254 0.30061 0.0
H1334 H 0.83794 0.04787 0.30323 0.0
H1335 H 0.82144 0.0695 0.30709 0.0
C1336 C 0.38936 0.99585 0.98598 0.0
C1337 C 0.40412 0.98983 0.98491 0.0
C1338 C 0.37664 0.98658 0.98992 0.0
C1339 C 0.36366 0.94599 0.9907 0.0
H1340 H 0.33147 0.96116 0.01733 0.0
C1341 C 0.31562 0.90637 0.01445 0.0
C1342 C 0.30056 0.9117 0.01454 0.0
C1343 C 0.32813 0.91612 0.01108 0.0
C1344 C 0.34029 0.9568 0.00975 0.0
H1345 H 0.41713 0.96946 0.98772 0.0
H1346 H 0.39505 0.95336 0.99468 0.0
H1347 H 0.35352 0.97778 0.01116 0.0
H1348 H 0.28686 0.93155 0.01128 0.0
H1349 H 0.30869 0.94855 1.00533 0.0
H1350 H 0.35048 0.92501 0.98932 0.0
C1351 C 0.3932 0.96516 0.99212 0.0
C1352 C 0.35293 0.96633 1.0062 0.0
C1353 C 0.40589 0.9744 0.98815 0.0
C1354 C 0.29831 0.92707 0.01132 0.0
C1355 C 0.31083 0.93684 1.00799 0.0
C1356 C 0.35106 0.93646 0.99427 0.0
C1357 C 0.37838 0.97108 0.99293 0.0
C1358 C 0.36482 0.96103 0.99667 0.0
C1359 C 0.32589 0.93146 1.00775 0.0
C1360 C 0.33923 0.94172 1.00388 0.0
H1361 H 0.38756 1.00765 0.9834 0.0
H1362 H 0.36538 0.9915 0.99024 0.0
H1363 H 0.37242 0.9416 0.98307 0.0
H1364 H 0.3178 0.89462 0.01693 0.0
H1365 H 0.33958 0.91165 0.01121 0.0
C1366 C 0.23957 0.37749 0.27144 0.0
C1367 C 0.24889 0.37561 0.28445 0.0
C1368 C 0.22901 0.38916 0.27118 0.0
C1369 C 0.22098 0.42659 0.28925 0.0
H1370 H 0.18039 0.41949 0.2715 0.0
C1371 C 0.1748 0.47237 0.29249 0.0
C1372 C 0.1657 0.47418 0.27933 0.0
C1373 C 0.18452 0.46005 0.29345 0.0
C1374 C 0.19174 0.42172 0.27634 0.0
H1375 H 0.25435 0.38456 0.30739 0.0
H1376 H 0.23581 0.4048 0.307 0.0
H1377 H 0.19808 0.39855 0.27257 0.0
H1378 H 0.15962 0.46434 0.25688 0.0
H1379 H 0.1767 0.44298 0.25846 0.0
H1380 H 0.21474 0.44976 0.29289 0.0
C1381 C 0.23676 0.39731 0.29695 0.0
C1382 C 0.20188 0.4097 0.27698 0.0
C1383 C 0.24727 0.3856 0.29724 0.0
C1384 C 0.16644 0.46328 0.26721 0.0
C1385 C 0.17618 0.45097 0.26815 0.0
C1386 C 0.21086 0.43861 0.28858 0.0
C1387 C 0.22754 0.39928 0.28389 0.0
C1388 C 0.21663 0.41199 0.28342 0.0
C1389 C 0.18542 0.44923 0.28125 0.0
C1390 C 0.19611 0.43635 0.28211 0.0
H1391 H 0.2404 0.3699 0.26146 0.0
H1392 H 0.22219 0.39042 0.26089 0.0
H1393 H 0.23234 0.42882 0.29406 0.0
H1394 H 0.17448 0.4805 0.30208 0.0
H1395 H 0.19127 0.45897 0.30381 0.0
C1396 C 0.12372 0.03883 0.49448 0.0
C1397 C 0.11922 0.03676 0.47898 0.0
C1398 C 0.13701 0.04748 0.49842 0.0
C1399 C 0.17359 0.0629 0.48212 0.0
H1400 H 0.17288 0.09041 0.51778 0.0
C1401 C 0.22217 0.10804 0.49491 0.0
C1402 C 0.2269 0.11021 0.51032 0.0
C1403 C 0.20919 0.09884 0.49118 0.0
C1404 C 0.17334 0.08266 0.50788 0.0
H1405 H 0.12543 0.04195 0.45547 0.0
H1406 H 0.14836 0.05727 0.46234 0.0
H1407 H 0.15006 0.07476 0.51116 0.0
H1408 H 0.22166 0.10435 0.5339 0.0
H1409 H 0.1991 0.08828 0.52738 0.0
H1410 H 0.19685 0.07089 0.4788 0.0
C1411 C 0.1417 0.05209 0.47147 0.0
C1412 C 0.16025 0.07367 0.50409 0.0
C1413 C 0.12843 0.04345 0.46753 0.0
C1414 C 0.21834 0.10296 0.52191 0.0
C1415 C 0.20534 0.09381 0.51818 0.0
C1416 C 0.18667 0.07192 0.4859 0.0
C1417 C 0.14615 0.05426 0.48696 0.0
C1418 C 0.16019 0.06368 0.49114 0.0
C1419 C 0.20059 0.09163 0.50277 0.0
C1420 C 0.18671 0.08194 0.49881 0.0
H1421 H 0.11684 0.03396 0.50362 0.0
H1422 H 0.14017 0.04876 0.51046 0.0
H1423 H 0.17406 0.05516 0.47221 0.0
H1424 H 0.22847 0.11348 0.4857 0.0
H1425 H 0.20577 0.09757 0.47921 0.0
C1426 C 0.75036 0.13435 0.74577 0.0
C1427 C 0.74603 0.1492 0.74247 0.0
C1428 C 0.73932 0.12248 0.74665 0.0
C1429 C 0.6977 0.11504 0.75284 0.0
H1430 H 0.70656 0.07471 0.73661 0.0
C1431 C 0.65179 0.06581 0.75025 0.0
C1432 C 0.65654 0.05129 0.75422 0.0
C1433 C 0.66255 0.07782 0.74848 0.0
C1434 C 0.70396 0.08587 0.74135 0.0
H1435 H 0.72663 0.16315 0.73749 0.0
H1436 H 0.70739 0.14238 0.73876 0.0
H1437 H 0.72552 0.09549 0.73389 0.0
H1438 H 0.6764 0.03804 0.75948 0.0
H1439 H 0.69513 0.05898 0.75651 0.0
H1440 H 0.67614 0.10539 0.76033 0.0
C1441 C 0.71933 0.13996 0.74083 0.0
C1442 C 0.71484 0.09779 0.73978 0.0
C1443 C 0.73039 0.15183 0.73992 0.0
C1444 C 0.67232 0.04906 0.75638 0.0
C1445 C 0.68309 0.06105 0.75458 0.0
C1446 C 0.68681 0.10311 0.75439 0.0
C1447 C 0.72365 0.12513 0.74427 0.0
C1448 C 0.71188 0.11252 0.74557 0.0
C1449 C 0.67834 0.07558 0.7506 0.0
C1450 C 0.68983 0.08835 0.74873 0.0
H1451 H 0.76232 0.13186 0.74761 0.0
H1452 H 0.74306 0.11126 0.74948 0.0
H1453 H 0.69513 0.12617 0.75765 0.0
H1454 H 0.63973 0.06793 0.74846 0.0
H1455 H 0.65851 0.08881 0.74524 0.0
C1456 C 0.40255 0.04892 0.54516 0.0
C1457 C 0.40354 0.03376 0.5397 0.0
C1458 C 0.3901 0.05769 0.54117 0.0
C1459 C 0.34995 0.05429 0.52682 0.0
H1460 H 0.3563 0.09721 0.51871 0.0
C1461 C 0.30153 0.09105 0.50359 0.0
C1462 C 0.30023 0.10579 0.5101 0.0
C1463 C 0.31419 0.08229 0.50693 0.0
C1464 C 0.35431 0.08527 0.52109 0.0
H1465 H 0.3921 0.01599 0.52568 0.0
H1466 H 0.37059 0.0314 0.51841 0.0
H1467 H 0.37827 0.08189 0.52476 0.0
H1468 H 0.31133 0.12287 0.52522 0.0
H1469 H 0.33339 0.10757 0.53107 0.0
H1470 H 0.32598 0.05768 0.52309 0.0
C1471 C 0.37936 0.03645 0.52598 0.0
C1472 C 0.36691 0.07648 0.52457 0.0
C1473 C 0.39181 0.02766 0.53 0.0
C1474 C 0.31196 0.11158 0.51998 0.0
C1475 C 0.32466 0.10283 0.52327 0.0
C1476 C 0.33735 0.06308 0.52329 0.0
C1477 C 0.3783 0.05157 0.53156 0.0
C1478 C 0.3649 0.06088 0.52754 0.0
C1479 C 0.32592 0.08806 0.51681 0.0
C1480 C 0.33936 0.07869 0.52043 0.0
H1481 H 0.41146 0.05409 0.55248 0.0
H1482 H 0.38962 0.06923 0.54583 0.0
H1483 H 0.34791 0.04239 0.52928 0.0
H1484 H 0.29274 0.08623 0.4959 0.0
H1485 H 0.31488 0.07104 0.50161 0.0
C1486 C 0.61657 0.48334 0.55511 0.0
C1487 C 0.61535 0.49776 0.54865 0.0
C1488 C 0.62923 0.47437 0.55188 0.0
C1489 C 0.66073 0.46881 0.52388 0.0
H1490 H 0.6796 0.44768 0.55724 0.0
C1491 C 0.71867 0.43896 0.51655 0.0
C1492 C 0.72039 0.42499 0.52378 0.0
C1493 C 0.70577 0.44769 0.51946 0.0
C1494 C 0.67436 0.45333 0.54774 0.0
H1495 H 0.62664 0.514 0.53367 0.0
H1496 H 0.64867 0.4983 0.52794 0.0
H1497 H 0.6573 0.46311 0.56241 0.0
H1498 H 0.70979 0.40923 0.53969 0.0
H1499 H 0.68719 0.42435 0.54461 0.0
H1500 H 0.67775 0.45899 0.50919 0.0
C1501 C 0.63972 0.49388 0.53542 0.0
C1502 C 0.66157 0.46221 0.55072 0.0
C1503 C 0.62707 0.50288 0.53869 0.0
C1504 C 0.70887 0.41996 0.53397 0.0
C1505 C 0.69594 0.42868 0.53686 0.0
C1506 C 0.6735 0.4599 0.5209 0.0
C1507 C 0.641 0.47955 0.54205 0.0
C1508 C 0.6546 0.47007 0.53883 0.0
C1509 C 0.69422 0.44268 0.52965 0.0
C1510 C 0.68051 0.45205 0.53279 0.0
H1511 H 0.60764 0.47887 0.56258 0.0
H1512 H 0.62971 0.46328 0.55696 0.0
H1513 H 0.65551 0.47454 0.51442 0.0
H1514 H 0.72734 0.44323 0.50867 0.0
H1515 H 0.70496 0.4585 0.51387 0.0
C1516 C 0.72682 0.30498 0.37219 0.0
C1517 C 0.72214 0.28972 0.37429 0.0
C1518 C 0.73049 0.31462 0.38482 0.0
C1519 C 0.741 0.31467 0.42627 0.0
H1520 H 0.72751 0.35629 0.4258 0.0
C1521 C 0.7446 0.35536 0.47997 0.0
C1522 C 0.74929 0.37058 0.47759 0.0
C1523 C 0.74153 0.34534 0.46746 0.0
C1524 C 0.73152 0.34476 0.42606 0.0
H1525 H 0.7177 0.27263 0.3914 0.0
H1526 H 0.72402 0.28946 0.41348 0.0
H1527 H 0.72182 0.33911 0.40392 0.0
H1528 H 0.75455 0.38714 0.46012 0.0
H1529 H 0.74928 0.36966 0.43834 0.0
H1530 H 0.75061 0.32035 0.4485 0.0
C1531 C 0.72507 0.29393 0.40202 0.0
C1532 C 0.72826 0.33489 0.41349 0.0
C1533 C 0.72144 0.28427 0.38936 0.0
C1534 C 0.7509 0.37551 0.4624 0.0
C1535 C 0.74779 0.36551 0.44989 0.0
C1536 C 0.74422 0.32455 0.43888 0.0
C1537 C 0.72955 0.30927 0.39992 0.0
C1538 C 0.733 0.31973 0.4134 0.0
C1539 C 0.74303 0.3503 0.45225 0.0
C1540 C 0.73955 0.33973 0.43891 0.0
H1541 H 0.72775 0.30948 0.36072 0.0
H1542 H 0.73419 0.32627 0.38274 0.0
H1543 H 0.745 0.30314 0.42653 0.0
H1544 H 0.74323 0.35117 0.49152 0.0
H1545 H 0.73773 0.33376 0.4697 0.0
C1546 C 0.54705 0.0546 0.90505 0.0
C1547 C 0.53402 0.0453 0.90822 0.0
C1548 C 0.55654 0.05126 0.89249 0.0
C1549 C 0.55734 0.03076 0.8549 0.0
H1550 H 0.60156 0.03436 0.8604 0.0
C1551 C 0.60018 0.01341 0.80672 0.0
C1552 C 0.61346 0.02276 0.80502 0.0
C1553 C 0.59034 0.01555 0.81932 0.0
C1554 C 0.58924 0.03347 0.85859 0.0
H1555 H 0.52083 0.02513 0.90052 0.0
H1556 H 0.53733 0.01942 0.87846 0.0
H1557 H 0.58466 0.03926 0.88222 0.0
H1558 H 0.6267 0.04182 0.8152 0.0
H1559 H 0.6095 0.04571 0.83692 0.0
H1560 H 0.56193 0.02517 0.83121 0.0
C1561 C 0.54011 0.02936 0.88571 0.0
C1562 C 0.57955 0.03625 0.87113 0.0
C1563 C 0.53065 0.03265 0.89834 0.0
C1564 C 0.61663 0.03434 0.81617 0.0
C1565 C 0.60679 0.03651 0.82872 0.0
C1566 C 0.56705 0.02804 0.84232 0.0
C1567 C 0.55323 0.03858 0.88269 0.0
C1568 C 0.56348 0.03505 0.86942 0.0
C1569 C 0.59354 0.02712 0.8305 0.0
C1570 C 0.58314 0.02948 0.84397 0.0
H1571 H 0.54985 0.06462 0.91216 0.0
H1572 H 0.56638 0.05876 0.89034 0.0
H1573 H 0.54502 0.02988 0.85316 0.0
H1574 H 0.5974 1.00436 0.79835 0.0
H1575 H 0.58035 1.00799 0.82039 0.0
C1576 C 0.27849 0.2614 0.39023 0.0
C1577 C 0.28236 0.25685 0.3751 0.0
C1578 C 0.27703 0.25073 0.40182 0.0
C1579 C 0.28717 0.21176 0.41238 0.0
H1580 H 0.2523 0.21521 0.43995 0.0
C1581 C 0.27872 0.17476 0.4664 0.0
C1582 C 0.26368 0.16926 0.4694 0.0
C1583 C 0.28152 0.1852 0.45475 0.0
C1584 C 0.26205 0.21402 0.4323 0.0
H1585 H 0.28793 0.23743 0.36041 0.0
H1586 H 0.28542 0.21881 0.38068 0.0
H1587 H 0.25637 0.2338 0.41996 0.0
H1588 H 0.23983 0.17029 0.46229 0.0
H1589 H 0.24472 0.18839 0.44201 0.0
H1590 H 0.29269 0.1918 0.42463 0.0
C1591 C 0.28365 0.23069 0.38358 0.0
C1592 C 0.26449 0.22479 0.42094 0.0
C1593 C 0.2851 0.24138 0.37196 0.0
C1594 C 0.25155 0.17432 0.46036 0.0
C1595 C 0.25434 0.18478 0.44877 0.0
C1596 C 0.28477 0.201 0.42381 0.0
C1597 C 0.27942 0.23522 0.39862 0.0
C1598 C 0.27705 0.22379 0.41082 0.0
C1599 C 0.26934 0.19044 0.44589 0.0
C1600 C 0.27213 0.20196 0.43386 0.0
H1601 H 0.27661 0.27326 0.39315 0.0
H1602 H 0.27404 0.25466 0.41334 0.0
H1603 H 0.29703 0.21073 0.40485 0.0
H1604 H 0.28833 0.1711 0.47315 0.0
H1605 H 0.29319 0.18943 0.45291 0.0
C1606 C 0.49052 0.49066 0.89337 0.0
C1607 C 0.48449 0.48401 0.90673 0.0
C1608 C 0.48081 0.49432 0.88124 0.0
C1609 C 0.44224 0.48474 0.86496 0.0
H1610 H 0.44843 0.52217 0.84286 0.0
C1611 C 0.39748 0.50485 0.82168 0.0
C1612 C 0.40291 0.51109 0.8079 0.0
C1613 C 0.40764 0.50186 0.83362 0.0
C1614 C 0.44665 0.51159 0.8488 0.0
H1615 H 0.4634 0.47657 0.91798 0.0
H1616 H 0.44654 0.48293 0.89691 0.0
H1617 H 0.46579 0.51646 0.86388 0.0
H1618 H 0.42335 0.51921 0.79594 0.0
H1619 H 0.4411 0.51388 0.81675 0.0
H1620 H 0.42314 0.47983 0.84992 0.0
C1621 C 0.4588 0.48503 0.89565 0.0
C1622 C 0.4566 0.50831 0.86086 0.0
C1623 C 0.46849 0.48137 0.90775 0.0
C1624 C 0.41876 0.51442 0.80641 0.0
C1625 C 0.42894 0.51144 0.81837 0.0
C1626 C 0.43231 0.488 0.85293 0.0
C1627 C 0.46483 0.49143 0.88218 0.0
C1628 C 0.45447 0.49488 0.86915 0.0
C1629 C 0.42351 0.50503 0.8321 0.0
C1630 C 0.43432 0.50151 0.84474 0.0
H1631 H 0.50279 0.4927 0.89212 0.0
H1632 H 0.48586 0.4991 0.87098 0.0
H1633 H 0.44043 0.47414 0.87088 0.0
H1634 H 0.38534 0.50221 0.82327 0.0
H1635 H 0.40302 0.49716 0.84411 0.0
C1636 C 0.71736 0.75418 0.13208 0.0
C1637 C 0.72357 0.75136 0.14662 0.0
C1638 C 0.72121 0.74522 0.11917 0.0
C1639 C 0.74992 0.71772 0.10469 0.0
H1640 H 0.71823 0.70743 0.07442 0.0
C1641 C 0.75769 0.67302 0.055 0.0
C1642 C 0.75246 0.67699 0.04037 0.0
C1643 C 0.75446 0.68209 0.06805 0.0
C1644 C 0.72725 0.71031 0.0827 0.0
H1645 H 0.73865 0.73684 0.15902 0.0
H1646 H 0.74519 0.72102 0.13659 0.0
H1647 H 0.71209 0.72317 0.09697 0.0
H1648 H 0.73975 0.69364 0.02801 0.0
H1649 H 0.73407 0.70936 0.05074 0.0
H1650 H 0.765 0.70461 0.09044 0.0
C1651 C 0.73759 0.73037 0.13505 0.0
C1652 C 0.72374 0.71939 0.09563 0.0
C1653 C 0.73381 0.73942 0.14794 0.0
C1654 C 0.74394 0.69022 0.03909 0.0
C1655 C 0.74061 0.69921 0.05214 0.0
C1656 C 0.75339 0.70854 0.0918 0.0
C1657 C 0.73128 0.7331 0.12049 0.0
C1658 C 0.73505 0.72329 0.10678 0.0
C1659 C 0.74581 0.69525 0.06677 0.0
C1660 C 0.74211 0.70479 0.08062 0.0
H1661 H 0.70961 0.76345 0.13063 0.0
H1662 H 0.71637 0.7479 0.10812 0.0
H1663 H 0.75899 0.72066 0.11289 0.0
H1664 H 0.76429 0.66291 0.05639 0.0
H1665 H 0.75852 0.67867 0.07918 0.0
C1666 C 0.99535 0.04548 0.13558 0.0
C1667 C 0.98845 0.05174 0.12265 0.0
C1668 C 0.98666 0.04217 0.1487 0.0
C1669 C 0.9506 0.05207 0.16865 0.0
H1670 H 0.95697 0.01505 0.19072 0.0
C1671 C 0.91089 0.0334 0.21861 0.0
C1672 C 0.91786 0.02713 0.23148 0.0
C1673 C 0.91938 0.03615 0.20522 0.0
C1674 C 0.95516 0.02553 0.1848 0.0
H1675 H 0.96683 0.05898 0.1133 0.0
H1676 H 0.95172 0.05328 0.13618 0.0
H1677 H 0.97203 0.02026 0.16765 0.0
H1678 H 0.93927 0.01884 0.24032 0.0
H1679 H 0.95408 0.02382 0.21709 0.0
H1680 H 0.93381 0.05741 0.18582 0.0
C1681 C 0.96392 0.05117 0.13627 0.0
C1682 C 0.9638 0.02851 0.17156 0.0
C1683 C 0.9726 0.05445 0.12314 0.0
C1684 C 0.93351 0.02364 0.23062 0.0
C1685 C 0.94199 0.02641 0.21724 0.0
C1686 C 0.94199 0.04911 0.1819 0.0
C1687 C 0.97085 0.04505 0.14924 0.0
C1688 C 0.96163 0.04182 0.16332 0.0
C1689 C 0.93505 0.03272 0.20437 0.0
C1690 C 0.94415 0.0358 0.19016 0.0
H1691 H 1.00756 0.04343 0.13569 0.0
H1692 H 0.9924 0.03764 0.15856 0.0
H1693 H 0.9488 0.06255 0.16273 0.0
H1694 H 0.89884 0.03616 0.21884 0.0
H1695 H 0.91359 0.04082 0.19546 0.0
C1696 C 0.28156 0.78636 0.15109 0.0
C1697 C 0.27272 0.77266 0.15117 0.0
C1698 C 0.27963 0.79686 0.13945 0.0
C1699 C 0.25134 0.80839 0.11071 0.0
H1700 H 0.28636 0.82812 0.09103 0.0
C1701 C 0.24433 0.84289 0.05589 0.0
C1702 C 0.25342 0.85627 0.05426 0.0
C1703 C 0.24701 0.83307 0.06792 0.0
C1704 C 0.27643 0.82288 0.09654 0.0
H1705 H 0.25529 0.7591 0.13865 0.0
H1706 H 0.25181 0.77743 0.11856 0.0
H1707 H 0.29052 0.81038 0.11167 0.0
H1708 H 0.2725 0.86978 0.06403 0.0
H1709 H 0.27701 0.85276 0.08521 0.0
H1710 H 0.23722 0.82091 0.09577 0.0
C1711 C 0.26007 0.78017 0.12764 0.0
C1712 C 0.27883 0.81268 0.10836 0.0
C1713 C 0.26206 0.76966 0.1392 0.0
C1714 C 0.2653 0.85956 0.06493 0.0
C1715 C 0.26794 0.84974 0.07703 0.0
C1716 C 0.24893 0.81863 0.09899 0.0
C1717 C 0.26876 0.79394 0.12766 0.0
C1718 C 0.26631 0.8052 0.11547 0.0
C1719 C 0.2588 0.83638 0.07871 0.0
C1720 C 0.26144 0.8259 0.09162 0.0
H1721 H 0.28975 0.78914 0.1602 0.0
H1722 H 0.2864 0.80742 0.13987 0.0
H1723 H 0.24142 0.80304 0.11615 0.0
H1724 H 0.23515 0.83993 0.04782 0.0
H1725 H 0.23992 0.82276 0.06863 0.0
C1726 C 0.04409 0.4782 0.11992 0.0
C1727 C 0.02849 0.48187 0.11912 0.0
C1728 C 0.05269 0.48155 0.13325 0.0
C1729 C 0.05366 0.50571 0.16885 0.0
H1730 H 0.08132 0.47542 0.18324 0.0
C1731 C 0.0835 0.51104 0.22844 0.0
C1732 C 0.09882 0.50653 0.22941 0.0
C1733 C 0.07499 0.50831 0.21491 0.0
C1734 C 0.07381 0.4841 0.17929 0.0
H1735 H 0.00975 0.49201 0.13182 0.0
H1736 H 0.02479 0.49791 0.15508 0.0
H1737 H 0.06639 0.47027 0.15984 0.0
H1738 H 0.11726 0.49575 0.21681 0.0
H1739 H 0.1025 0.49117 0.19319 0.0
H1740 H 0.0611 0.51955 0.1883 0.0
C1741 C 0.0304 0.49256 0.1453 0.0
C1742 C 0.06522 0.48113 0.16586 0.0
C1743 C 0.02177 0.48918 0.13195 0.0
C1744 C 0.10547 0.49932 0.21649 0.0
C1745 C 0.09696 0.49661 0.20297 0.0
C1746 C 0.06227 0.50869 0.18228 0.0
C1747 C 0.04594 0.48869 0.14615 0.0
C1748 C 0.05505 0.4919 0.16046 0.0
C1749 C 0.08159 0.50102 0.20201 0.0
C1750 C 0.07246 0.49792 0.18767 0.0
H1751 H 0.04973 0.47284 0.11016 0.0
H1752 H 0.06469 0.47866 0.1334 0.0
H1753 H 0.04609 0.51434 0.1649 0.0
H1754 H 0.078 0.51659 0.23817 0.0
H1755 H 0.06313 0.5117 0.21467 0.0
C1756 C 0.37851 0.7318 0.27666 0.0
C1757 C 0.36947 0.74435 0.27357 0.0
C1758 C 0.39034 0.73308 0.28759 0.0
C1759 C 0.40418 0.7567 0.32114 0.0
H1760 H 0.44366 0.73948 0.31162 0.0
C1761 C 0.45884 0.77323 0.35599 0.0
C1762 C 0.46927 0.76183 0.35912 0.0
C1763 C 0.44637 0.77023 0.3461 0.0
C1764 C 0.43265 0.74418 0.31456 0.0
H1765 H 0.36558 0.76798 0.27986 0.0
H1766 H 0.38631 0.77026 0.29871 0.0
H1767 H 0.42239 0.73577 0.29343 0.0
H1768 H 0.47469 0.73824 0.35433 0.0
H1769 H 0.45282 0.73297 0.33712 0.0
H1770 H 0.41443 0.76522 0.34219 0.0
C1771 C 0.38421 0.75939 0.29276 0.0
C1772 C 0.42045 0.74205 0.30413 0.0
C1773 C 0.37243 0.75814 0.28181 0.0
C1774 C 0.46689 0.7473 0.35215 0.0
C1775 C 0.4544 0.7443 0.34222 0.0
C1776 C 0.41635 0.75882 0.33156 0.0
C1777 C 0.39336 0.7469 0.29576 0.0
C1778 C 0.40611 0.74844 0.30721 0.0
C1779 C 0.44399 0.75574 0.33907 0.0
C1780 C 0.4308 0.75274 0.32833 0.0
H1781 H 0.37661 0.72106 0.27044 0.0
H1782 H 0.39708 0.7232 0.28972 0.0
H1783 H 0.39321 0.76153 0.32402 0.0
H1784 H 0.46033 0.78456 0.3611 0.0
H1785 H 0.43873 0.77938 0.34376 0.0
C1786 C 0.97857 0.39514 0.99242 0.0
C1787 C 0.98006 0.40985 0.98651 0.0
C1788 C 0.98248 0.38238 0.98343 0.0
C1789 C 1.00527 0.3706 0.94945 0.0
H1790 H 0.97784 0.33493 0.94872 0.0
C1791 C 0.01178 0.3212 0.90485 0.0
C1792 C 0.00888 0.30625 0.90969 0.0
C1793 C 0.00862 0.33368 0.91456 0.0
C1794 C 0.98575 0.3447 0.94894 0.0
H1795 H 0.98714 0.42269 0.96661 0.0
H1796 H 0.99386 0.40043 0.95089 0.0
H1797 H 0.97185 0.35691 0.96513 0.0
H1798 H 1.00053 0.29271 0.92864 0.0
H1799 H 0.99526 0.31445 0.94566 0.0
H1800 H 0.01921 0.35842 0.93332 0.0
C1801 C 0.98972 0.39876 0.96251 0.0
C1802 C 0.9823 0.35732 0.95835 0.0
C1803 C 0.98572 0.41151 0.97146 0.0
C1804 C 1.00284 0.30407 0.92451 0.0
C1805 C 0.99973 0.31656 0.93425 0.0
C1806 C 0.00876 0.35796 0.9401 0.0
C1807 C 0.98807 0.38403 0.96835 0.0
C1808 C 0.99197 0.37046 0.95865 0.0
C1809 C 1.00253 0.33153 0.92939 0.0
C1810 C 0.99901 0.34487 0.93965 0.0
H1811 H 0.97413 0.39346 1.00392 0.0
H1812 H 0.9812 0.37121 0.98832 0.0
H1813 H 0.01308 0.38046 0.94959 0.0
H1814 H 0.01637 0.32331 0.89349 0.0
H1815 H 0.01071 0.34503 0.91032 0.0
C1816 C 0.6338 0.81338 0.27608 0.0
C1817 C 0.64661 0.80402 0.27549 0.0
C1818 C 0.62107 0.80964 0.28522 0.0
C1819 C 0.60965 0.78746 0.31906 0.0
H1820 H 0.56828 0.79331 0.30421 0.0
C1821 C 0.55554 0.7687 0.35353 0.0
C1822 C 0.54308 0.77851 0.35371 0.0
C1823 C 0.56813 0.77132 0.34381 0.0
C1824 C 0.57976 0.79177 0.30861 0.0
H1825 H 0.65602 0.78332 0.28404 0.0
H1826 H 0.63371 0.77669 0.29988 0.0
H1827 H 0.59019 0.79862 0.28746 0.0
H1828 H 0.53418 0.79885 0.34383 0.0
H1829 H 0.55617 0.80352 0.32706 0.0
H1830 H 0.59924 0.78074 0.34027 0.0
C1831 C 0.63358 0.78701 0.29334 0.0
C1832 C 0.59232 0.79479 0.29899 0.0
C1833 C 0.6463 0.79072 0.28414 0.0
C1834 C 0.54354 0.79102 0.34397 0.0
C1835 C 0.55613 0.79365 0.33426 0.0
C1836 C 0.59708 0.78446 0.32871 0.0
C1837 C 0.62083 0.79646 0.29404 0.0
C1838 C 0.60743 0.79276 0.30412 0.0
C1839 C 0.56858 0.78382 0.33402 0.0
C1840 C 0.58197 0.78666 0.32364 0.0
H1841 H 0.6336 0.82363 0.26944 0.0
H1842 H 0.61151 0.81724 0.28558 0.0
H1843 H 0.62113 0.78597 0.32346 0.0
H1844 H 0.55555 0.75892 0.36085 0.0
H1845 H 0.57743 0.76341 0.34381 0.0
C1846 C 0.04219 0.13407 0.9952 0.0
C1847 C 0.04042 0.11885 0.98987 0.0
C1848 C 0.03893 0.14606 0.98556 0.0
C1849 C 0.03486 0.15492 0.94428 0.0
H1850 H 0.01524 0.19107 0.96025 0.0
C1851 C 0.01392 0.20158 0.9044 0.0
C1852 C 0.01645 0.21685 0.90929 0.0
C1853 C 0.01665 0.18971 0.91435 0.0
C1854 C 0.02088 0.18112 0.95564 0.0
H1855 H 0.03332 0.10434 0.97039 0.0
H1856 H 0.02752 0.1252 0.95365 0.0
H1857 H 0.02014 0.17024 0.9774 0.0
H1858 H 0.02384 0.23156 0.92855 0.0
H1859 H 0.02871 0.21084 0.94584 0.0
H1860 H 0.03559 0.16577 0.92252 0.0
C1861 C 0.03176 0.1279 0.96516 0.0
C1862 C 0.02369 0.16917 0.96548 0.0
C1863 C 0.03507 0.11592 0.97477 0.0
C1864 C 0.02174 0.21994 0.9244 0.0
C1865 C 0.02445 0.20806 0.93436 0.0
C1866 C 0.03203 0.16684 0.93444 0.0
C1867 C 0.03377 0.14314 0.97037 0.0
C1868 C 0.03071 0.1559 0.95993 0.0
C1869 C 0.02197 0.19278 0.92945 0.0
C1870 C 0.02499 0.1801 0.93998 0.0
H1871 H 0.04648 0.13673 1.0067 0.0
H1872 H 0.04081 0.15764 0.98991 0.0
H1873 H 0.04055 0.14501 0.93964 0.0
H1874 H 0.0098 0.19877 0.89287 0.0
H1875 H 0.01441 0.1781 0.91025 0.0
C1876 C 0.38135 0.29734 0.24511 0.0
C1877 C 0.37203 0.28468 0.24911 0.0
C1878 C 0.3933 0.29575 0.23442 0.0
C1879 C 0.41829 0.26654 0.21716 0.0
H1880 H 0.42724 0.29687 0.18657 0.0
C1881 C 0.46057 0.25544 0.16746 0.0
C1882 C 0.47089 0.26733 0.16347 0.0
C1883 C 0.44852 0.25808 0.17773 0.0
C1884 C 0.425 0.28838 0.19515 0.0
H1885 H 0.36759 0.26056 0.24448 0.0
H1886 H 0.38832 0.2578 0.22589 0.0
H1887 H 0.40609 0.30055 0.20469 0.0
H1888 H 0.47647 0.2914 0.16703 0.0
H1889 H 0.45543 0.29599 0.18508 0.0
H1890 H 0.43713 0.25435 0.20768 0.0
C1891 C 0.38665 0.2689 0.23125 0.0
C1892 C 0.41287 0.29049 0.20554 0.0
C1893 C 0.37473 0.27049 0.24191 0.0
C1894 C 0.46873 0.28199 0.16986 0.0
C1895 C 0.45663 0.28464 0.18014 0.0
C1896 C 0.43037 0.26443 0.2068 0.0
C1897 C 0.39621 0.28147 0.22749 0.0
C1898 C 0.4093 0.27952 0.2166 0.0
C1899 C 0.44645 0.27268 0.1843 0.0
C1900 C 0.43382 0.27526 0.19558 0.0
H1901 H 0.37968 0.3084 0.25054 0.0
H1902 H 0.40053 0.30564 0.23191 0.0
H1903 H 0.4161 0.25802 0.22574 0.0
H1904 H 0.46182 0.24402 0.16271 0.0
H1905 H 0.44075 0.24866 0.18047 0.0
C1906 C 0.52669 0.40687 0.03396 0.0
C1907 C 0.54206 0.40958 0.02948 0.0
C1908 C 0.52264 0.39444 0.04302 0.0
C1909 C 0.53638 0.35712 0.05546 0.0
H1910 H 0.50702 0.36264 0.08859 0.0
C1911 C 0.52573 0.31212 0.10204 0.0
C1912 C 0.51042 0.30916 0.10654 0.0
C1913 C 0.52946 0.32424 0.09245 0.0
C1914 C 0.51511 0.36085 0.07929 0.0
H1915 H 0.56514 0.40105 0.03077 0.0
H1916 H 0.55814 0.37961 0.0468 0.0
H1917 H 0.51366 0.38386 0.0721 0.0
H1918 H 0.48702 0.3167 0.10448 0.0
H1919 H 0.49352 0.33778 0.08776 0.0
H1920 H 0.53791 0.33413 0.06274 0.0
C1921 C 0.54917 0.38701 0.04321 0.0
C1922 C 0.51891 0.37302 0.0698 0.0
C1923 C 0.55323 0.39943 0.03415 0.0
C1924 C 0.49894 0.31865 0.10126 0.0
C1925 C 0.50268 0.3308 0.09174 0.0
C1926 C 0.53261 0.34496 0.06497 0.0
C1927 C 0.53384 0.38439 0.04783 0.0
C1928 C 0.52961 0.37133 0.05778 0.0
C1929 C 0.51798 0.33374 0.08719 0.0
C1930 C 0.52195 0.34667 0.07702 0.0
H1931 H 0.51781 0.41451 0.03069 0.0
H1932 H 0.51069 0.39268 0.04621 0.0
H1933 H 0.54448 0.35532 0.04617 0.0
H1934 H 0.53487 0.30505 0.1059 0.0
H1935 H 0.54139 0.32628 0.08933 0.0
C1936 C 0.64546 0.24299 0.23897 0.0
C1937 C 0.64567 0.22932 0.247 0.0
C1938 C 0.63308 0.2461 0.22937 0.0
C1939 C 0.60083 0.22678 0.20787 0.0
H1940 H 0.58507 0.26745 0.20592 0.0
C1941 C 0.54438 0.2388 0.17618 0.0
C1942 C 0.54399 0.25196 0.16737 0.0
C1943 C 0.55688 0.2363 0.1858 0.0
C1944 C 0.58944 0.25606 0.2062 0.0
H1945 H 0.63271 0.20847 0.25167 0.0
H1946 H 0.61111 0.21391 0.23508 0.0
H1947 H 0.60653 0.26271 0.22306 0.0
H1948 H 0.5565 0.27285 0.16182 0.0
H1949 H 0.57837 0.26843 0.17856 0.0
H1950 H 0.58374 0.22011 0.19107 0.0
C1951 C 0.62068 0.22209 0.23589 0.0
C1952 C 0.60176 0.25334 0.21603 0.0
C1953 C 0.63306 0.21898 0.24543 0.0
C1954 C 0.55642 0.26259 0.16845 0.0
C1955 C 0.56892 0.2601 0.17812 0.0
C1956 C 0.58852 0.22949 0.19808 0.0
C1957 C 0.62057 0.23562 0.22761 0.0
C1958 C 0.60757 0.23864 0.21704 0.0
C1959 C 0.56932 0.24691 0.1869 0.0
C1960 C 0.58262 0.24415 0.19715 0.0
H1961 H 0.65507 0.25113 0.23978 0.0
H1962 H 0.63348 0.25655 0.22305 0.0
H1963 H 0.60519 0.21538 0.2081 0.0
H1964 H 0.535 0.23039 0.17568 0.0
H1965 H 0.5567 0.22612 0.19256 0.0
C1966 C 0.49489 0.12708 0.03541 0.0
C1967 C 0.47929 0.12306 0.03291 0.0
C1968 C 0.49915 0.14029 0.04397 0.0
C1969 C 0.48437 0.17729 0.05816 0.0
H1970 H 0.51804 0.17599 0.08728 0.0
C1971 C 0.49735 0.22583 0.10314 0.0
C1972 C 0.51287 0.23004 0.10584 0.0
C1973 C 0.49339 0.21292 0.094 0.0
C1974 C 0.50872 0.1766 0.07908 0.0
H1975 H 0.45595 0.13004 0.03723 0.0
H1976 H 0.46335 0.15284 0.05238 0.0
H1977 H 0.51096 0.15333 0.07172 0.0
H1978 H 0.53639 0.22396 0.10099 0.0
H1979 H 0.52947 0.20154 0.085 0.0
H1980 H 0.48208 0.20055 0.0656 0.0
C1981 C 0.47232 0.14586 0.04761 0.0
C1982 C 0.50466 0.1636 0.07013 0.0
C1983 C 0.46807 0.13267 0.03907 0.0
C1984 C 0.52432 0.22104 0.09918 0.0
C1985 C 0.52036 0.20812 0.09008 0.0
C1986 C 0.48841 0.19028 0.06712 0.0
C1987 C 0.48791 0.14983 0.05022 0.0
C1988 C 0.49241 0.16376 0.05957 0.0
C1989 C 0.50484 0.20389 0.08737 0.0
C1990 C 0.50062 0.1901 0.07772 0.0
H1991 H 0.50385 0.11989 0.03097 0.0
H1992 H 0.51127 0.14307 0.04559 0.0
H1993 H 0.47503 0.17791 0.04997 0.0
H1994 H 0.48823 0.23247 0.10812 0.0
H1995 H 0.48132 0.2099 0.09232 0.0
C1996 C 0.27499 0.39307 0.71284 0.0
C1997 C 0.27397 0.381 0.72313 0.0
C1998 C 0.28376 0.40629 0.71653 0.0
C1999 C 0.31606 0.42057 0.741 0.0
H2000 H 0.30129 0.46021 0.7308 0.0
C2001 C 0.3493 0.47669 0.75829 0.0
C2002 C 0.34994 0.48819 0.74735 0.0
C2003 C 0.3397 0.46373 0.75599 0.0
C2004 C 0.30566 0.44922 0.73358 0.0
H2005 H 0.28136 0.37343 0.74541 0.0
H2006 H 0.29655 0.39658 0.75192 0.0
H2007 H 0.28506 0.43749 0.7257 0.0
H2008 H 0.34098 0.49501 0.72536 0.0
H2009 H 0.32446 0.47238 0.72126 0.0
H2010 H 0.33674 0.43227 0.74872 0.0
C2011 C 0.29065 0.39576 0.74094 0.0
C2012 C 0.29634 0.43619 0.73067 0.0
C2013 C 0.28181 0.38255 0.73728 0.0
C2014 C 0.34075 0.48642 0.73406 0.0
C2015 C 0.33118 0.47346 0.73176 0.0
C2016 C 0.32541 0.43361 0.74388 0.0
C2017 C 0.29177 0.40777 0.73058 0.0
C2018 C 0.30146 0.42169 0.73425 0.0
C2019 C 0.33051 0.46194 0.74269 0.0
C2020 C 0.32037 0.44809 0.74011 0.0
H2021 H 0.26897 0.39233 0.70192 0.0
H2022 H 0.28448 0.41525 0.70822 0.0
H2023 H 0.32045 0.40956 0.74371 0.0
H2024 H 0.35618 0.47771 0.76869 0.0
H2025 H 0.33935 0.45518 0.76474 0.0
C2026 C 0.289 0.66018 0.79477 0.0
C2027 C 0.27363 0.65844 0.79962 0.0
C2028 C 0.29783 0.64744 0.79159 0.0
C2029 C 0.29472 0.60576 0.78303 0.0
H2030 H 0.33741 0.60683 0.796 0.0
C2031 C 0.33121 0.55188 0.78281 0.0
C2032 C 0.34647 0.55332 0.77758 0.0
C2033 C 0.32236 0.56476 0.78518 0.0
C2034 C 0.32555 0.6064 0.79215 0.0
H2035 H 0.25553 0.6419 0.80495 0.0
H2036 H 0.27093 0.61968 0.79954 0.0
H2037 H 0.32188 0.6291 0.80059 0.0
H2038 H 0.36441 0.56949 0.77079 0.0
H2039 H 0.34897 0.59195 0.77492 0.0
H2040 H 0.29839 0.58298 0.77475 0.0
C2041 C 0.27611 0.6309 0.79792 0.0
C2042 C 0.31664 0.61919 0.79476 0.0
C2043 C 0.26726 0.64364 0.80104 0.0
C2044 C 0.35271 0.56796 0.77485 0.0
C2045 C 0.34388 0.58085 0.77729 0.0
C2046 C 0.30363 0.59295 0.78048 0.0
C2047 C 0.29154 0.63262 0.79322 0.0
C2048 C 0.30109 0.61904 0.79026 0.0
C2049 C 0.32858 0.57941 0.78245 0.0
C2050 C 0.31915 0.5931 0.78503 0.0
H2051 H 0.29419 0.67142 0.79333 0.0
H2052 H 0.30957 0.64923 0.78772 0.0
H2053 H 0.28287 0.6053 0.77917 0.0
H2054 H 0.32603 0.54079 0.78505 0.0
H2055 H 0.31069 0.56324 0.78935 0.0
C2056 C 0.90405 0.4729 0.48357 0.0
C2057 C 0.90304 0.48884 0.48401 0.0
C2058 C 0.89137 0.46356 0.48736 0.0
C2059 C 0.85388 0.46339 0.50761 0.0
H2060 H 0.84569 0.42693 0.48238 0.0
C2061 C 0.79805 0.42597 0.51346 0.0
C2062 C 0.79949 0.41009 0.51224 0.0
C2063 C 0.81057 0.43581 0.51028 0.0
C2064 C 0.84789 0.43697 0.48967 0.0
H2065 H 0.88783 0.50744 0.48891 0.0
H2066 H 0.86569 0.49113 0.49555 0.0
H2067 H 0.86766 0.44362 0.47651 0.0
H2068 H 0.81533 0.39211 0.50689 0.0
H2069 H 0.83714 0.40921 0.50154 0.0
H2070 H 0.83408 0.45669 0.52078 0.0
C2071 C 0.87637 0.48586 0.49241 0.0
C2072 C 0.86051 0.44655 0.48629 0.0
C2073 C 0.88907 0.49522 0.48861 0.0
C2074 C 0.81377 0.40428 0.50788 0.0
C2075 C 0.82627 0.4141 0.50471 0.0
C2076 C 0.84124 0.45378 0.511 0.0
C2077 C 0.87733 0.4699 0.4917 0.0
C2078 C 0.86372 0.45985 0.49525 0.0
C2079 C 0.82483 0.42999 0.50579 0.0
C2080 C 0.83813 0.4404 0.50211 0.0
H2081 H 0.9147 0.46759 0.48039 0.0
H2082 H 0.89263 0.45133 0.48699 0.0
H2083 H 0.8561 0.47345 0.51486 0.0
H2084 H 0.78721 0.43084 0.51675 0.0
H2085 H 0.80899 0.44798 0.51107 0.0
C2086 C 0.73464 0.87398 0.7888 0.0
C2087 C 0.75007 0.87668 0.78454 0.0
C2088 C 0.7241 0.88569 0.78853 0.0
C2089 C 0.72194 0.92778 0.78853 0.0
H2090 H 0.68064 0.91935 0.77306 0.0
C2091 C 0.67542 0.97318 0.7915 0.0
C2092 C 0.66588 0.97435 0.77854 0.0
C2093 C 0.6852 0.96095 0.79275 0.0
C2094 C 0.69215 0.92192 0.77733 0.0
H2095 H 0.76653 0.89395 0.77692 0.0
H2096 H 0.74815 0.91421 0.77615 0.0
H2097 H 0.69877 0.89879 0.77407 0.0
H2098 H 0.65903 0.9634 0.75681 0.0
H2099 H 0.67621 0.94216 0.7589 0.0
H2100 H 0.71549 0.95097 0.79142 0.0
C2101 C 0.74419 0.90309 0.77985 0.0
C2102 C 0.7025 0.91009 0.77808 0.0
C2103 C 0.75471 0.8914 0.7801 0.0
C2104 C 0.6662 0.96285 0.76696 0.0
C2105 C 0.676 0.95061 0.7682 0.0
C2106 C 0.7116 0.9396 0.78779 0.0
C2107 C 0.72874 0.9004 0.78403 0.0
C2108 C 0.71756 0.91288 0.78361 0.0
C2109 C 0.68572 0.94956 0.78106 0.0
C2110 C 0.69659 0.93685 0.78213 0.0
H2111 H 0.73063 0.86276 0.79215 0.0
H2112 H 0.71233 0.88324 0.79198 0.0
H2113 H 0.73337 0.93033 0.79302 0.0
H2114 H 0.67542 0.98178 0.80068 0.0
H2115 H 0.69233 0.96039 0.80292 0.0
C2116 C 0.63189 0.53275 0.97712 0.0
C2117 C 0.61704 0.53849 0.97866 0.0
C2118 C 0.64489 0.54196 0.98075 0.0
C2119 C 0.65734 0.57686 1.0028 0.0
H2120 H 0.69226 0.57696 0.97505 0.0
C2121 C 0.70577 0.62311 1.00718 0.0
C2122 C 0.721 0.61879 1.00463 0.0
C2123 C 0.69346 0.6128 1.00438 0.0
C2124 C 0.68271 0.57693 0.98305 0.0
H2125 H 0.60423 0.55831 0.98558 0.0
H2126 H 0.62687 0.57438 0.99178 0.0
H2127 H 0.67017 0.5598 0.96971 0.0
H2128 H 0.7352 0.60015 0.99711 0.0
H2129 H 0.7137 0.58207 0.99239 0.0
H2130 H 0.66981 0.59397 0.01614 0.0
C2131 C 0.62848 0.56275 0.98782 0.0
C2132 C 0.67003 0.56709 0.97997 0.0
C2133 C 0.6155 0.55358 0.98411 0.0
C2134 C 0.72361 0.60387 0.99917 0.0
C2135 C 0.71127 0.59353 0.99639 0.0
C2136 C 0.67001 0.58665 1.0059 0.0
C2137 C 0.64334 0.55709 0.98612 0.0
C2138 C 0.65713 0.56704 0.98973 0.0
C2139 C 0.69603 0.59785 0.99898 0.0
C2140 C 0.68281 0.58693 0.99598 0.0
H2141 H 0.63348 0.52121 0.97284 0.0
H2142 H 0.65617 0.53721 0.97944 0.0
H2143 H 0.6477 0.57692 0.01071 0.0
H2144 H 0.70331 0.63452 0.01131 0.0
H2145 H 0.68188 0.61663 1.00626 0.0
C2146 C 0.23153 0.6502 0.23552 0.0
C2147 C 0.24632 0.64921 0.2419 0.0
C2148 C 0.22074 0.63811 0.2366 0.0
C2149 C 0.21134 0.60419 0.25941 0.0
H2150 H 0.18578 0.59193 0.22437 0.0
C2151 C 0.17249 0.54955 0.25922 0.0
C2152 C 0.15792 0.55011 0.25228 0.0
C2153 C 0.18323 0.56164 0.25789 0.0
C2154 C 0.19268 0.59532 0.23434 0.0
H2155 H 0.26142 0.63446 0.25408 0.0
H2156 H 0.24258 0.61349 0.25607 0.0
H2157 H 0.20449 0.61302 0.22212 0.0
H2158 H 0.14322 0.5639 0.23857 0.0
H2159 H 0.16182 0.58506 0.23646 0.0
H2160 H 0.1995 0.5866 0.27169 0.0
C2161 C 0.23926 0.62372 0.25042 0.0
C2162 C 0.20343 0.60741 0.23303 0.0
C2163 C 0.25006 0.63577 0.24929 0.0
C2164 C 0.15435 0.56306 0.24401 0.0
C2165 C 0.16507 0.57517 0.24272 0.0
C2166 C 0.20056 0.59214 0.26074 0.0
C2167 C 0.22445 0.62476 0.24414 0.0
C2168 C 0.21292 0.61197 0.24554 0.0
C2169 C 0.17966 0.57462 0.24962 0.0
C2170 C 0.19111 0.58752 0.24822 0.0
H2171 H 0.22817 0.66044 0.22993 0.0
H2172 H 0.20937 0.63935 0.2318 0.0
H2173 H 0.2183 0.60756 0.26935 0.0
H2174 H 0.17566 0.53972 0.26562 0.0
H2175 H 0.19442 0.56071 0.26317 0.0
C2176 C 0.90346 0.55126 0.04642 0.0
C2177 C 0.90467 0.53622 0.04066 0.0
C2178 C 0.89098 0.56 0.04245 0.0
C2179 C 0.86024 0.5631 0.01343 0.0
H2180 H 0.84069 0.58741 0.04534 0.0
C2181 C 0.80272 0.59257 1.00332 0.0
C2182 C 0.80085 0.60712 0.01008 0.0
C2183 C 0.81552 0.58407 1.00685 0.0
C2184 C 0.84612 0.58086 0.03623 0.0
H2185 H 0.89356 0.51863 0.02614 0.0
H2186 H 0.87186 0.53394 0.01911 0.0
H2187 H 0.86274 0.57238 0.05174 0.0
H2188 H 0.81113 0.62421 0.02575 0.0
H2189 H 0.83356 0.60951 0.03171 0.0
H2190 H 0.84369 0.57163 0.99789 0.0
C2191 C 0.88068 0.539 0.02662 0.0
C2192 C 0.85877 0.57221 0.03991 0.0
C2193 C 0.89314 0.53023 0.03064 0.0
C2194 C 0.81216 0.61301 0.02038 0.0
C2195 C 0.82499 0.60453 0.02387 0.0
C2196 C 0.84763 0.57179 0.00972 0.0
C2197 C 0.8794 0.55397 0.03255 0.0
C2198 C 0.86598 0.56321 0.02857 0.0
C2199 C 0.82682 0.58992 0.01719 0.0
C2200 C 0.84038 0.58077 0.02108 0.0
H2201 H 0.91226 0.55638 0.05392 0.0
H2202 H 0.8905 0.57157 0.04701 0.0
H2203 H 0.86565 0.55646 1.00436 0.0
H2204 H 0.79421 0.58765 0.99538 0.0
H2205 H 0.81641 0.57279 1.00165 0.0
C2206 C 0.12709 1.0031 0.03925 0.0
C2207 C 0.11553 0.9978 0.04928 0.0
C2208 C 0.13981 0.99426 0.03579 0.0
C2209 C 0.15343 0.95462 0.0368 0.0
H2210 H 0.19378 0.97435 0.03377 0.0
C2211 C 0.20944 0.92075 0.03307 0.0
C2212 C 0.22067 0.92575 0.02254 0.0
C2213 C 0.19657 0.92948 0.03627 0.0
C2214 C 0.18257 0.96868 0.03442 0.0
H2215 H 0.10823 0.97881 0.06327 0.0
H2216 H 0.13054 0.96363 0.05759 0.0
H2217 H 0.17144 0.98964 0.03931 0.0
H2218 H 0.22714 0.94388 1.00713 0.0
H2219 H 0.20472 0.95904 0.01269 0.0
H2220 H 0.16461 0.93364 0.03204 0.0
C2221 C 0.12971 0.97456 0.05224 0.0
C2222 C 0.16974 0.97745 0.03758 0.0
C2223 C 0.11699 0.98337 0.05567 0.0
C2224 C 0.21874 0.93969 0.01533 0.0
C2225 C 0.20592 0.94844 0.01858 0.0
C2226 C 0.16627 0.94584 0.03371 0.0
C2227 C 0.14132 0.97989 0.04229 0.0
C2228 C 0.15499 0.97054 0.0388 0.0
C2229 C 0.19467 0.94344 0.02907 0.0
C2230 C 0.181 0.95276 0.03247 0.0
H2231 H 0.12644 0.0142 0.03422 0.0
H2232 H 0.14842 0.99867 0.02793 0.0
H2233 H 0.14223 0.94892 0.03741 0.0
H2234 H 0.21057 0.91008 0.03885 0.0
H2235 H 0.1882 0.92537 0.04454 0.0
loop_
_geom_bond_atom_site_label_1
_geom_bond_atom_site_label_2
_geom_bond_distance
_geom_bond_site_symmetry_2
_ccdc_geom_bond_type
C0 C1 1.264 . S
C0 C5 1.479 1_455 S
C0 C10 1.465 . S
C1 C0 1.264 . S
C1 C3 1.339 1_455 S
C1 H28 0.931 . S
C2 C3 1.395 . S
C2 C4 1.320 . S
C3 C1 1.339 1_655 S
C3 C2 1.395 . S
C3 H29 0.929 . S
C4 C2 1.320 . S
C4 C5 1.405 . S
C4 H30 0.930 . S
C5 C0 1.479 1_655 S
C5 C4 1.405 . S
C5 H31 0.931 . S
U6 O7 2.454 . S
U6 O8 2.458 . S
U6 C9 2.984 . S
U6 C10 2.847 . S
U6 C23 2.882 . S
U6 O24 2.441 . S
U6 O25 2.420 . S
U6 O26 2.455 . S
U6 O27 2.449 . S
O7 U6 2.454 . S
O7 C9 1.353 . S
O8 U6 2.458 . S
O8 C9 1.286 . S
C9 U6 2.984 . S
C9 O7 1.353 . S
C9 O8 1.286 . S
C9 C11 1.363 . S
C10 C0 1.465 . S
C10 U6 2.847 . S
C10 O24 1.249 . S
C10 O25 1.202 . S
C11 C9 1.363 . S
C11 C13 1.408 . S
C11 C16 1.342 . S
C12 C13 1.310 . S
C12 C15 1.461 1_554 S
C12 H32 0.932 . S
C13 C11 1.408 . S
C13 C12 1.310 . S
C13 H33 0.930 . S
C14 C15 1.474 . S
C14 C16 1.285 1_556 S
C14 H34 0.929 . S
C15 C12 1.461 1_556 S
C15 C14 1.474 . S
C16 C11 1.342 . S
C16 C14 1.285 1_554 S
C16 H35 0.930 . S
C17 C20 1.424 . S
C17 C22 1.245 . S
C17 C23 1.428 . S
C18 C21 1.260 1_545 S
C18 C22 1.477 . S
C18 H36 0.932 . S
C19 C20 1.384 1_565 S
C19 C21 1.479 . S
C19 H37 0.929 . S
C20 C17 1.424 . S
C20 C19 1.384 1_545 S
C20 H38 0.928 . S
C21 C18 1.260 1_565 S
C21 C19 1.479 . S
C22 C17 1.245 . S
C22 C18 1.477 . S
C22 H39 0.932 . S
C23 U6 2.882 . S
C23 C17 1.428 . S
C23 O26 1.301 . S
C23 O27 1.282 . S
O24 U6 2.441 . S
O24 C10 1.249 . S
O25 U6 2.420 . S
O25 C10 1.202 . S
O26 U6 2.455 . S
O26 C23 1.301 . S
O27 U6 2.449 . S
O27 C23 1.282 . S
H28 C1 0.931 . S
H29 C3 0.929 . S
H30 C4 0.930 . S
H31 C5 0.931 . S
H32 C12 0.932 . S
H33 C13 0.930 . S
H34 C14 0.929 . S
H35 C16 0.930 . S
H36 C18 0.932 . S
H37 C19 0.929 . S
H38 C20 0.928 . S
H39 C22 0.932 . S
C40 C41 1.264 . S
C40 C45 1.479 . S
C40 C50 1.465 . S
C41 C40 1.264 . S
C41 C43 1.339 . S
C41 H68 0.931 . S
C42 C43 1.395 . S
C42 C44 1.320 . S
C43 C41 1.339 . S
C43 C42 1.395 . S
C43 H69 0.929 . S
C44 C42 1.320 . S
C44 C45 1.405 . S
C44 H70 0.930 . S
C45 C40 1.479 . S
C45 C44 1.405 . S
C45 H71 0.931 . S
U46 O47 2.454 . S
U46 O48 2.458 . S
U46 C49 2.984 . S
U46 C50 2.847 . S
U46 C63 2.882 . S
U46 O64 2.441 . S
U46 O65 2.420 . S
U46 O66 2.455 . S
U46 O67 2.449 . S
O47 U46 2.454 . S
O47 C49 1.353 . S
O48 U46 2.458 . S
O48 C49 1.286 . S
C49 U46 2.984 . S
C49 O47 1.353 . S
C49 O48 1.286 . S
C49 C51 1.363 . S
C50 C40 1.465 . S
C50 U46 2.847 . S
C50 O64 1.249 . S
C50 O65 1.202 . S
C51 C49 1.363 . S
C51 C53 1.408 . S
C51 C56 1.342 . S
C52 C53 1.310 . S
C52 C55 1.461 . S
C52 H72 0.932 . S
C53 C51 1.408 . S
C53 C52 1.310 . S
C53 H73 0.930 . S
C54 C55 1.474 . S
C54 C56 1.285 . S
C54 H74 0.929 . S
C55 C52 1.461 . S
C55 C54 1.474 . S
C56 C51 1.342 . S
C56 C54 1.285 . S
C56 H75 0.930 . S
C57 C60 1.424 . S
C57 C62 1.245 . S
C57 C63 1.428 . S
C58 C61 1.260 . S
C58 C62 1.477 . S
C58 H76 0.932 . S
C59 C60 1.384 . S
C59 C61 1.479 . S
C59 H77 0.929 . S
C60 C57 1.424 . S
C60 C59 1.384 . S
C60 H78 0.928 . S
C61 C58 1.260 . S
C61 C59 1.479 . S
C62 C57 1.245 . S
C62 C58 1.477 . S
C62 H79 0.932 . S
C63 U46 2.882 . S
C63 C57 1.428 . S
C63 O66 1.301 . S
C63 O67 1.282 . S
O64 U46 2.441 . S
O64 C50 1.249 . S
O65 U46 2.420 . S
O65 C50 1.202 . S
O66 U46 2.455 . S
O66 C63 1.301 . S
O67 U46 2.449 . S
O67 C63 1.282 . S
H68 C41 0.931 . S
H69 C43 0.929 . S
H70 C44 0.930 . S
H71 C45 0.931 . S
H72 C52 0.932 . S
H73 C53 0.930 . S
H74 C54 0.929 . S
H75 C56 0.930 . S
H76 C58 0.932 . S
H77 C59 0.929 . S
H78 C60 0.928 . S
H79 C62 0.932 . S
C80 C81 1.264 . S
C80 C85 1.479 1_554 S
C80 C90 1.465 . S
C81 C80 1.264 . S
C81 C83 1.339 1_554 S
C81 H108 0.931 . S
C82 C83 1.395 . S
C82 C84 1.320 . S
C83 C81 1.339 1_556 S
C83 C82 1.395 . S
C83 H109 0.947 . S
C84 C82 1.320 . S
C84 C85 1.405 . S
C84 H110 0.930 . S
C85 C80 1.479 1_556 S
C85 C84 1.405 . S
C85 H111 0.931 . S
U86 O87 2.454 . S
U86 O88 2.458 . S
U86 C89 2.984 . S
U86 C90 2.847 . S
U86 C103 2.882 . S
U86 O104 2.441 . S
U86 O105 2.420 . S
U86 O106 2.455 . S
U86 O107 2.449 . S
O87 U86 2.454 . S
O87 C89 1.353 . S
O88 U86 2.458 . S
O88 C89 1.286 . S
C89 U86 2.984 . S
C89 O87 1.353 . S
C89 O88 1.286 . S
C89 C91 1.363 . S
C90 C80 1.465 . S
C90 U86 2.847 . S
C90 O104 1.249 . S
C90 O105 1.202 . S
C91 C89 1.363 . S
C91 C93 1.408 . S
C91 C96 1.342 . S
C92 C93 1.310 . S
C92 C95 1.461 . S
C92 H112 0.932 . S
C93 C91 1.408 . S
C93 C92 1.310 . S
C93 H113 0.930 . S
C94 C95 1.474 . S
C94 C96 1.285 . S
C94 H114 0.929 . S
C95 C92 1.461 . S
C95 C94 1.474 . S
C96 C91 1.342 . S
C96 C94 1.285 . S
C96 H115 0.930 . S
C97 C100 1.424 1_655 S
C97 C102 1.245 . S
C97 C103 1.428 . S
C98 C101 1.260 . S
C98 C102 1.477 1_455 S
C98 H116 0.932 . S
C99 C100 1.384 . S
C99 C101 1.479 . S
C99 H117 0.929 . S
C100 C97 1.424 1_455 S
C100 C99 1.384 . S
C100 H118 0.928 . S
C101 C98 1.260 . S
C101 C99 1.479 . S
C102 C97 1.245 . S
C102 C98 1.477 1_655 S
C102 H119 0.932 . S
C103 U86 2.882 . S
C103 C97 1.428 . S
C103 O106 1.301 . S
C103 O107 1.282 . S
O104 U86 2.441 . S
O104 C90 1.249 . S
O105 U86 2.420 . S
O105 C90 1.202 . S
O106 U86 2.455 . S
O106 C103 1.301 . S
O107 U86 2.449 . S
O107 C103 1.282 . S
H108 C81 0.931 . S
H109 C83 0.947 . S
H110 C84 0.930 . S
H111 C85 0.931 . S
H112 C92 0.932 . S
H113 C93 0.930 . S
H114 C94 0.929 . S
H115 C96 0.930 . S
H116 C98 0.932 . S
H117 C99 0.929 . S
H118 C100 0.928 . S
H119 C102 0.932 . S
C120 C121 1.264 . S
C120 C125 1.479 . S
C120 C130 1.465 . S
C121 C120 1.264 . S
C121 C123 1.339 . S
C121 H148 0.931 . S
C122 C123 1.395 . S
C122 C124 1.320 . S
C123 C121 1.339 . S
C123 C122 1.395 . S
C123 H149 0.929 . S
C124 C122 1.320 . S
C124 C125 1.405 . S
C124 H150 0.930 . S
C125 C120 1.479 . S
C125 C124 1.405 . S
C125 H151 0.931 . S
U126 O127 2.454 . S
U126 O128 2.458 . S
U126 C129 2.984 . S
U126 C130 2.847 . S
U126 C143 2.882 . S
U126 O144 2.441 . S
U126 O145 2.420 . S
U126 O146 2.455 . S
U126 O147 2.449 . S
O127 U126 2.454 . S
O127 C129 1.353 . S
O128 U126 2.458 . S
O128 C129 1.286 . S
C129 U126 2.984 . S
C129 O127 1.353 . S
C129 O128 1.286 . S
C129 C131 1.363 . S
C130 C120 1.465 . S
C130 U126 2.847 . S
C130 O144 1.249 . S
C130 O145 1.202 . S
C131 C129 1.363 . S
C131 C133 1.408 . S
C131 C136 1.342 . S
C132 C133 1.310 . S
C132 C135 1.461 . S
C132 H152 0.932 . S
C133 C131 1.408 . S
C133 C132 1.310 . S
C133 H153 0.930 . S
C134 C135 1.474 . S
C134 C136 1.285 . S
C134 H154 0.929 . S
C135 C132 1.461 . S
C135 C134 1.474 . S
C136 C131 1.342 . S
C136 C134 1.285 . S
C136 H155 0.930 . S
C137 C140 1.424 . S
C137 C142 1.245 . S
C137 C143 1.428 . S
C138 C141 1.260 . S
C138 C142 1.477 . S
C138 H156 0.932 . S
C139 C140 1.384 . S
C139 C141 1.479 . S
C139 H157 0.929 . S
C140 C137 1.424 . S
C140 C139 1.384 . S
C140 H158 0.928 . S
C141 C138 1.260 . S
C141 C139 1.479 . S
C142 C137 1.245 . S
C142 C138 1.477 . S
C142 H159 0.932 . S
C143 U126 2.882 . S
C143 C137 1.428 . S
C143 O146 1.301 . S
C143 O147 1.282 . S
O144 U126 2.441 . S
O144 C130 1.249 . S
O145 U126 2.420 . S
O145 C130 1.202 . S
O146 U126 2.455 . S
O146 C143 1.301 . S
O147 U126 2.449 . S
O147 C143 1.282 . S
H148 C121 0.931 . S
H149 C123 0.929 . S
H150 C124 0.930 . S
H151 C125 0.931 . S
H152 C132 0.932 . S
H153 C133 0.930 . S
H154 C134 0.929 . S
H155 C136 0.930 . S
H156 C138 0.932 . S
H157 C139 0.929 . S
H158 C140 0.928 . S
H159 C142 0.932 . S
C160 C161 1.264 . S
C160 C165 1.479 1_455 S
C160 C170 1.465 . S
C161 C160 1.264 . S
C161 C163 1.339 1_455 S
C161 H188 0.931 1_565 S
C162 C163 1.395 . S
C162 C164 1.320 . S
C163 C161 1.339 1_655 S
C163 C162 1.395 . S
C163 H189 0.922 1_665 S
C164 C162 1.320 . S
C164 C165 1.405 . S
C164 H190 0.930 . S
C165 C160 1.479 1_655 S
C165 C164 1.405 . S
C165 H191 0.931 . S
U166 O167 2.454 . S
U166 O168 2.458 . S
U166 C169 2.984 . S
U166 C170 2.847 . S
U166 C183 2.882 . S
U166 O184 2.441 . S
U166 O185 2.420 . S
U166 O186 2.455 . S
U166 O187 2.467 . S
O167 U166 2.454 . S
O167 C169 1.353 . S
O168 U166 2.458 . S
O168 C169 1.286 . S
C169 U166 2.984 . S
C169 O167 1.353 . S
C169 O168 1.286 . S
C169 C171 1.363 . S
C170 C160 1.465 . S
C170 U166 2.847 . S
C170 O184 1.249 . S
C170 O185 1.202 . S
C171 C169 1.363 . S
C171 C173 1.408 . S
C171 C176 1.342 . S
C172 C173 1.310 . S
C172 C175 1.461 . S
C172 H192 0.932 . S
C173 C171 1.408 . S
C173 C172 1.310 . S
C173 H193 0.930 . S
C174 C175 1.474 . S
C174 C176 1.285 . S
C174 H194 0.929 . S
C175 C172 1.461 . S
C175 C174 1.474 . S
C176 C171 1.342 . S
C176 C174 1.285 . S
C176 H195 0.930 . S
C177 C180 1.424 . S
C177 C182 1.245 . S
C177 C183 1.428 1_545 S
C178 C181 1.260 . S
C178 C182 1.477 . S
C178 H196 0.932 . S
C179 C180 1.384 . S
C179 C181 1.479 . S
C179 H197 0.929 . S
C180 C177 1.424 . S
C180 C179 1.384 . S
C180 H198 0.928 . S
C181 C178 1.260 . S
C181 C179 1.479 . S
C182 C177 1.245 . S
C182 C178 1.477 . S
C182 H199 0.932 1_545 S
C183 U166 2.882 . S
C183 C177 1.428 1_565 S
C183 O186 1.301 . S
C183 O187 1.287 . S
O184 U166 2.441 . S
O184 C170 1.249 . S
O185 U166 2.420 . S
O185 C170 1.202 . S
O186 U166 2.455 . S
O186 C183 1.301 . S
O187 U166 2.467 . S
O187 C183 1.287 . S
H188 C161 0.931 1_545 S
H189 C163 0.922 1_445 S
H190 C164 0.930 . S
H191 C165 0.931 . S
H192 C172 0.932 . S
H193 C173 0.930 . S
H194 C174 0.929 . S
H195 C176 0.930 . S
H196 C178 0.932 . S
H197 C179 0.929 . S
H198 C180 0.928 . S
H199 C182 0.932 1_565 S
C200 C201 1.264 . S
C200 C205 1.479 . S
C200 C210 1.465 . S
C201 C200 1.264 . S
C201 C203 1.339 . S
C201 H228 0.931 . S
C202 C203 1.395 . S
C202 C204 1.320 . S
C203 C201 1.339 . S
C203 C202 1.395 . S
C203 H229 0.929 . S
C204 C202 1.320 . S
C204 C205 1.405 . S
C204 H230 0.930 . S
C205 C200 1.479 . S
C205 C204 1.405 . S
C205 H231 0.931 . S
U206 O207 2.454 . S
U206 O208 2.458 . S
U206 C209 2.984 . S
U206 C210 2.847 . S
U206 C223 2.882 . S
U206 O224 2.441 . S
U206 O225 2.420 . S
U206 O226 2.455 . S
U206 O227 2.449 . S
O207 U206 2.454 . S
O207 C209 1.353 . S
O208 U206 2.458 . S
O208 C209 1.286 . S
C209 U206 2.984 . S
C209 O207 1.353 . S
C209 O208 1.286 . S
C209 C211 1.363 . S
C210 C200 1.465 . S
C210 U206 2.847 . S
C210 O224 1.249 . S
C210 O225 1.202 . S
C211 C209 1.363 . S
C211 C213 1.408 . S
C211 C216 1.342 . S
C212 C213 1.310 . S
C212 C215 1.461 . S
C212 H232 0.932 . S
C213 C211 1.408 . S
C213 C212 1.310 . S
C213 H233 0.930 . S
C214 C215 1.474 . S
C214 C216 1.285 . S
C214 H234 0.929 . S
C215 C212 1.461 . S
C215 C214 1.474 . S
C216 C211 1.342 . S
C216 C214 1.285 . S
C216 H235 0.930 . S
C217 C220 1.424 . S
C217 C222 1.245 . S
C217 C223 1.428 . S
C218 C221 1.260 . S
C218 C222 1.477 . S
C218 H236 0.932 . S
C219 C220 1.384 . S
C219 C221 1.479 . S
C219 H237 0.929 . S
C220 C217 1.424 . S
C220 C219 1.384 . S
C220 H238 0.928 . S
C221 C218 1.260 . S
C221 C219 1.479 . S
C222 C217 1.245 . S
C222 C218 1.477 . S
C222 H239 0.932 . S
C223 U206 2.882 . S
C223 C217 1.428 . S
C223 O226 1.301 . S
C223 O227 1.282 . S
O224 U206 2.441 . S
O224 C210 1.249 . S
O225 U206 2.420 . S
O225 C210 1.202 . S
O226 U206 2.455 . S
O226 C223 1.301 . S
O227 U206 2.449 . S
O227 C223 1.282 . S
H228 C201 0.931 . S
H229 C203 0.929 . S
H230 C204 0.930 . S
H231 C205 0.931 . S
H232 C212 0.932 . S
H233 C213 0.930 . S
H234 C214 0.929 . S
H235 C216 0.930 . S
H236 C218 0.932 . S
H237 C219 0.929 . S
H238 C220 0.928 . S
H239 C222 0.932 . S
C240 C241 1.264 . S
C240 C245 1.479 . S
C240 C250 1.465 . S
C241 C240 1.264 . S
C241 C243 1.339 . S
C241 H268 0.931 . S
C242 C243 1.395 . S
C242 C244 1.320 . S
C243 C241 1.339 . S
C243 C242 1.395 . S
C243 H269 0.929 . S
C244 C242 1.320 . S
C244 C245 1.405 . S
C244 H270 0.930 . S
C245 C240 1.479 . S
C245 C244 1.405 . S
C245 H271 0.931 . S
U246 O247 2.454 . S
U246 O248 2.458 . S
U246 C249 2.984 . S
U246 C250 2.847 . S
U246 C263 2.882 . S
U246 O264 2.441 . S
U246 O265 2.420 . S
U246 O266 2.455 . S
U246 O267 2.449 . S
O247 U246 2.454 . S
O247 C249 1.353 . S
O248 U246 2.458 . S
O248 C249 1.286 . S
C249 U246 2.984 . S
C249 O247 1.353 . S
C249 O248 1.286 . S
C249 C251 1.363 . S
C250 C240 1.465 . S
C250 U246 2.847 . S
C250 O264 1.249 . S
C250 O265 1.202 . S
C251 C249 1.363 . S
C251 C253 1.408 . S
C251 C256 1.342 . S
C252 C253 1.310 . S
C252 C255 1.461 . S
C252 H272 0.932 . S
C253 C251 1.408 . S
C253 C252 1.310 . S
C253 H273 0.930 . S
C254 C255 1.474 . S
C254 C256 1.285 . S
C254 H274 0.929 . S
C255 C252 1.461 . S
C255 C254 1.474 . S
C256 C251 1.342 . S
C256 C254 1.285 . S
C256 H275 0.930 . S
C257 C260 1.424 1_655 S
C257 C262 1.245 . S
C257 C263 1.428 . S
C258 C261 1.260 . S
C258 C262 1.477 1_455 S
C258 H276 0.932 . S
C259 C260 1.384 . S
C259 C261 1.479 . S
C259 H277 0.929 . S
C260 C257 1.424 1_455 S
C260 C259 1.384 . S
C260 H278 0.928 . S
C261 C258 1.260 . S
C261 C259 1.479 . S
C262 C257 1.245 . S
C262 C258 1.477 1_655 S
C262 H279 0.932 . S
C263 U246 2.882 . S
C263 C257 1.428 . S
C263 O266 1.301 . S
C263 O267 1.282 . S
O264 U246 2.441 . S
O264 C250 1.249 . S
O265 U246 2.420 . S
O265 C250 1.202 . S
O266 U246 2.455 . S
O266 C263 1.301 . S
O267 U246 2.449 . S
O267 C263 1.282 . S
H268 C241 0.931 . S
H269 C243 0.929 . S
H270 C244 0.930 . S
H271 C245 0.931 . S
H272 C252 0.932 . S
H273 C253 0.930 . S
H274 C254 0.929 . S
H275 C256 0.930 . S
H276 C258 0.932 . S
H277 C259 0.929 . S
H278 C260 0.928 . S
H279 C262 0.932 . S
C280 C281 1.264 . S
C280 C285 1.479 . S
C280 C290 1.465 . S
C281 C280 1.264 . S
C281 C283 1.339 . S
C281 H308 0.931 . S
C282 C283 1.395 . S
C282 C284 1.320 . S
C283 C281 1.339 . S
C283 C282 1.395 . S
C283 H309 0.929 . S
C284 C282 1.320 . S
C284 C285 1.405 . S
C284 H310 0.930 . S
C285 C280 1.479 . S
C285 C284 1.405 . S
C285 H311 0.931 . S
U286 O287 2.454 . S
U286 O288 2.458 . S
U286 C289 2.984 . S
U286 C290 2.847 . S
U286 C303 2.882 . S
U286 O304 2.441 . S
U286 O305 2.420 . S
U286 O306 2.455 . S
U286 O307 2.449 . S
O287 U286 2.454 . S
O287 C289 1.353 . S
O288 U286 2.458 . S
O288 C289 1.286 . S
C289 U286 2.984 . S
C289 O287 1.353 . S
C289 O288 1.286 . S
C289 C291 1.363 . S
C290 C280 1.465 . S
C290 U286 2.847 . S
C290 O304 1.249 . S
C290 O305 1.202 . S
C291 C289 1.363 . S
C291 C293 1.408 . S
C291 C296 1.342 . S
C292 C293 1.310 . S
C292 C295 1.461 . S
C292 H312 0.932 . S
C293 C291 1.408 . S
C293 C292 1.310 . S
C293 H313 0.930 . S
C294 C295 1.474 . S
C294 C296 1.285 . S
C294 H314 0.929 . S
C295 C292 1.461 . S
C295 C294 1.474 . S
C296 C291 1.342 . S
C296 C294 1.285 . S
C296 H315 0.930 . S
C297 C300 1.424 . S
C297 C302 1.245 . S
C297 C303 1.428 . S
C298 C301 1.260 . S
C298 C302 1.477 . S
C298 H316 0.932 . S
C299 C300 1.384 . S
C299 C301 1.479 . S
C299 H317 0.929 . S
C300 C297 1.424 . S
C300 C299 1.384 . S
C300 H318 0.928 . S
C301 C298 1.260 . S
C301 C299 1.479 . S
C302 C297 1.245 . S
C302 C298 1.477 . S
C302 H319 0.932 . S
C303 U286 2.882 . S
C303 C297 1.428 . S
C303 O306 1.301 . S
C303 O307 1.282 . S
O304 U286 2.441 . S
O304 C290 1.249 . S
O305 U286 2.420 . S
O305 C290 1.202 . S
O306 U286 2.455 . S
O306 C303 1.301 . S
O307 U286 2.449 . S
O307 C303 1.282 . S
H308 C281 0.931 . S
H309 C283 0.929 . S
H310 C284 0.930 . S
H311 C285 0.931 . S
H312 C292 0.932 . S
H313 C293 0.930 . S
H314 C294 0.929 . S
H315 C296 0.930 . S
H316 C298 0.932 . S
H317 C299 0.929 . S
H318 C300 0.928 . S
H319 C302 0.932 . S
C320 C321 1.264 . S
C320 C325 1.479 . S
C320 C330 1.465 . S
C321 C320 1.264 . S
C321 C323 1.339 . S
C321 H348 0.931 . S
C322 C323 1.395 . S
C322 C324 1.320 . S
C323 C321 1.339 . S
C323 C322 1.395 . S
C323 H349 0.929 . S
C324 C322 1.320 . S
C324 C325 1.405 . S
C324 H350 0.930 . S
C325 C320 1.479 . S
C325 C324 1.405 . S
C325 H351 0.931 . S
U326 O327 2.454 . S
U326 O328 2.458 . S
U326 C329 2.984 . S
U326 C330 2.847 . S
U326 C343 2.882 . S
U326 O344 2.441 . S
U326 O345 2.420 . S
U326 O346 2.455 . S
U326 O347 2.449 . S
O327 U326 2.454 . S
O327 C329 1.353 . S
O328 U326 2.458 . S
O328 C329 1.286 . S
C329 U326 2.984 . S
C329 O327 1.353 . S
C329 O328 1.286 . S
C329 C331 1.363 . S
C330 C320 1.465 . S
C330 U326 2.847 . S
C330 O344 1.249 . S
C330 O345 1.202 . S
C331 C329 1.363 . S
C331 C333 1.408 . S
C331 C336 1.342 . S
C332 C333 1.310 . S
C332 C335 1.461 . S
C332 H352 0.932 . S
C333 C331 1.408 . S
C333 C332 1.310 . S
C333 H353 0.930 . S
C334 C335 1.474 . S
C334 C336 1.285 . S
C334 H354 0.929 . S
C335 C332 1.461 . S
C335 C334 1.474 . S
C336 C331 1.342 . S
C336 C334 1.285 . S
C336 H355 0.930 . S
C337 C340 1.424 . S
C337 C342 1.245 . S
C337 C343 1.428 . S
C338 C341 1.260 . S
C338 C342 1.477 . S
C338 H356 0.932 . S
C339 C340 1.384 . S
C339 C341 1.479 . S
C339 H357 0.929 . S
C340 C337 1.424 . S
C340 C339 1.384 . S
C340 H358 0.928 . S
C341 C338 1.260 . S
C341 C339 1.479 . S
C342 C337 1.245 . S
C342 C338 1.477 . S
C342 H359 0.932 . S
C343 U326 2.882 . S
C343 C337 1.428 . S
C343 O346 1.301 . S
C343 O347 1.282 . S
O344 U326 2.441 . S
O344 C330 1.249 . S
O345 U326 2.420 . S
O345 C330 1.202 . S
O346 U326 2.455 . S
O346 C343 1.301 . S
O347 U326 2.449 . S
O347 C343 1.282 . S
H348 C321 0.931 . S
H349 C323 0.929 . S
H350 C324 0.930 . S
H351 C325 0.931 . S
H352 C332 0.932 . S
H353 C333 0.930 . S
H354 C334 0.929 . S
H355 C336 0.930 . S
H356 C338 0.932 . S
H357 C339 0.929 . S
H358 C340 0.928 . S
H359 C342 0.932 . S
C360 C361 1.264 . S
C360 C365 1.479 . S
C360 C370 1.465 . S
C361 C360 1.264 . S
C361 C363 1.339 . S
C361 H388 0.931 . S
C362 C363 1.395 . S
C362 C364 1.320 . S
C363 C361 1.339 . S
C363 C362 1.395 . S
C363 H389 0.929 . S
C364 C362 1.320 . S
C364 C365 1.405 . S
C364 H390 0.930 . S
C365 C360 1.479 . S
C365 C364 1.405 . S
C365 H391 0.931 . S
U366 O367 2.454 . S
U366 O368 2.458 . S
U366 C369 2.984 . S
U366 C370 2.847 . S
U366 C383 2.882 . S
U366 O384 2.441 . S
U366 O385 2.420 . S
U366 O386 2.455 . S
U366 O387 2.449 . S
O367 U366 2.454 . S
O367 C369 1.353 . S
O368 U366 2.458 . S
O368 C369 1.286 . S
C369 U366 2.984 . S
C369 O367 1.353 . S
C369 O368 1.286 . S
C369 C371 1.328 1_565 S
C370 C360 1.465 . S
C370 U366 2.847 . S
C370 O384 1.249 . S
C370 O385 1.202 . S
C371 C369 1.328 1_545 S
C371 C373 1.402 1_545 S
C371 C376 1.382 . S
C372 C373 1.310 1_545 S
C372 C375 1.461 . S
C372 H392 0.932 . S
C373 C371 1.402 1_565 S
C373 C372 1.310 1_565 S
C373 H393 0.930 . S
C374 C375 1.474 . S
C374 C376 1.285 . S
C374 H394 0.929 . S
C375 C372 1.461 . S
C375 C374 1.474 . S
C376 C371 1.382 . S
C376 C374 1.285 . S
C376 H395 0.930 . S
C377 C380 1.424 . S
C377 C382 1.245 . S
C377 C383 1.428 . S
C378 C381 1.260 . S
C378 C382 1.477 . S
C378 H396 0.932 . S
C379 C380 1.384 . S
C379 C381 1.479 . S
C379 H397 0.929 . S
C380 C377 1.424 . S
C380 C379 1.384 . S
C380 H398 0.928 . S
C381 C378 1.260 . S
C381 C379 1.479 . S
C382 C377 1.245 . S
C382 C378 1.477 . S
C382 H399 0.932 . S
C383 U366 2.882 . S
C383 C377 1.428 . S
C383 O386 1.301 . S
C383 O387 1.282 . S
O384 U366 2.441 . S
O384 C370 1.249 . S
O385 U366 2.420 . S
O385 C370 1.202 . S
O386 U366 2.455 . S
O386 C383 1.301 . S
O387 U366 2.449 . S
O387 C383 1.282 . S
H388 C361 0.931 . S
H389 C363 0.929 . S
H390 C364 0.930 . S
H391 C365 0.931 . S
H392 C372 0.932 . S
H393 C373 0.930 . S
H394 C374 0.929 . S
H395 C376 0.930 . S
H396 C378 0.932 . S
H397 C379 0.929 . S
H398 C380 0.928 . S
H399 C382 0.932 . S
C400 C401 1.264 . S
C400 C405 1.479 . S
C400 C410 1.465 . S
C401 C400 1.264 . S
C401 C403 1.339 . S
C401 H428 0.931 . S
C402 C403 1.395 . S
C402 C404 1.320 . S
C403 C401 1.339 . S
C403 C402 1.395 . S
C403 H429 0.929 . S
C404 C402 1.320 . S
C404 C405 1.405 . S
C404 H430 0.930 . S
C405 C400 1.479 . S
C405 C404 1.405 . S
C405 H431 0.931 . S
U406 O407 2.454 . S
U406 O408 2.458 . S
U406 C409 2.984 . S
U406 C410 2.847 . S
U406 C423 2.882 . S
U406 O424 2.441 . S
U406 O425 2.420 . S
U406 O426 2.455 . S
U406 O427 2.449 . S
O407 U406 2.454 . S
O407 C409 1.353 . S
O408 U406 2.458 . S
O408 C409 1.286 . S
C409 U406 2.984 . S
C409 O407 1.353 . S
C409 O408 1.286 . S
C409 C411 1.363 . S
C410 C400 1.465 . S
C410 U406 2.847 . S
C410 O424 1.249 . S
C410 O425 1.202 . S
C411 C409 1.363 . S
C411 C413 1.408 . S
C411 C416 1.342 . S
C412 C413 1.310 . S
C412 C415 1.461 . S
C412 H432 0.932 . S
C413 C411 1.408 . S
C413 C412 1.310 . S
C413 H433 0.930 . S
C414 C415 1.474 . S
C414 C416 1.285 . S
C414 H434 0.929 . S
C415 C412 1.461 . S
C415 C414 1.474 . S
C416 C411 1.342 . S
C416 C414 1.285 . S
C416 H435 0.930 . S
C417 C420 1.424 . S
C417 C422 1.245 . S
C417 C423 1.428 . S
C418 C421 1.260 . S
C418 C422 1.477 . S
C418 H436 0.932 . S
C419 C420 1.384 . S
C419 C421 1.479 . S
C419 H437 0.929 . S
C420 C417 1.424 . S
C420 C419 1.384 . S
C420 H438 0.928 . S
C421 C418 1.260 . S
C421 C419 1.479 . S
C422 C417 1.245 . S
C422 C418 1.477 . S
C422 H439 0.932 . S
C423 U406 2.882 . S
C423 C417 1.428 . S
C423 O426 1.301 . S
C423 O427 1.282 . S
O424 U406 2.441 . S
O424 C410 1.249 . S
O425 U406 2.420 . S
O425 C410 1.202 . S
O426 U406 2.455 . S
O426 C423 1.301 . S
O427 U406 2.449 . S
O427 C423 1.282 . S
H428 C401 0.931 . S
H429 C403 0.929 . S
H430 C404 0.930 . S
H431 C405 0.931 . S
H432 C412 0.932 . S
H433 C413 0.930 . S
H434 C414 0.929 . S
H435 C416 0.930 . S
H436 C418 0.932 . S
H437 C419 0.929 . S
H438 C420 0.928 . S
H439 C422 0.932 . S
C440 C441 1.264 . S
C440 C445 1.479 . S
C440 C450 1.465 . S
C441 C440 1.264 . S
C441 C443 1.339 . S
C441 H468 0.931 . S
C442 C443 1.395 . S
C442 C444 1.320 . S
C443 C441 1.339 . S
C443 C442 1.395 . S
C443 H469 0.929 . S
C444 C442 1.320 . S
C444 C445 1.405 . S
C444 H470 0.930 . S
C445 C440 1.479 . S
C445 C444 1.405 . S
C445 H471 0.931 . S
U446 O447 2.454 . S
U446 O448 2.458 . S
U446 C449 2.984 . S
U446 C450 2.847 . S
U446 C463 2.882 . S
U446 O464 2.441 . S
U446 O465 2.420 . S
U446 O466 2.455 . S
U446 O467 2.449 . S
O447 U446 2.454 . S
O447 C449 1.353 . S
O448 U446 2.458 . S
O448 C449 1.286 . S
C449 U446 2.984 . S
C449 O447 1.353 . S
C449 O448 1.286 . S
C449 C451 1.363 . S
C450 C440 1.465 . S
C450 U446 2.847 . S
C450 O464 1.249 . S
C450 O465 1.202 . S
C451 C449 1.363 . S
C451 C453 1.408 . S
C451 C456 1.342 . S
C452 C453 1.310 . S
C452 C455 1.461 . S
C452 H472 0.932 . S
C453 C451 1.408 . S
C453 C452 1.310 . S
C453 H473 0.930 . S
C454 C455 1.474 . S
C454 C456 1.285 . S
C454 H474 0.929 . S
C455 C452 1.461 . S
C455 C454 1.474 . S
C456 C451 1.342 . S
C456 C454 1.285 . S
C456 H475 0.930 . S
C457 C460 1.424 . S
C457 C462 1.245 . S
C457 C463 1.428 . S
C458 C461 1.260 . S
C458 C462 1.477 . S
C458 H476 0.932 . S
C459 C460 1.384 . S
C459 C461 1.479 . S
C459 H477 0.929 . S
C460 C457 1.424 . S
C460 C459 1.384 . S
C460 H478 0.928 . S
C461 C458 1.260 . S
C461 C459 1.479 . S
C462 C457 1.245 . S
C462 C458 1.477 . S
C462 H479 0.932 . S
C463 U446 2.882 . S
C463 C457 1.428 . S
C463 O466 1.301 . S
C463 O467 1.282 . S
O464 U446 2.441 . S
O464 C450 1.249 . S
O465 U446 2.420 . S
O465 C450 1.202 . S
O466 U446 2.455 . S
O466 C463 1.301 . S
O467 U446 2.449 . S
O467 C463 1.282 . S
H468 C441 0.931 . S
H469 C443 0.929 . S
H470 C444 0.930 . S
H471 C445 0.931 . S
H472 C452 0.932 . S
H473 C453 0.930 . S
H474 C454 0.929 . S
H475 C456 0.930 . S
H476 C458 0.932 . S
H477 C459 0.929 . S
H478 C460 0.928 . S
H479 C462 0.932 . S
C480 C481 1.264 . S
C480 C485 1.479 . S
C480 C490 1.465 . S
C481 C480 1.264 . S
C481 C483 1.339 . S
C481 H508 0.931 . S
C482 C483 1.395 . S
C482 C484 1.320 . S
C483 C481 1.339 . S
C483 C482 1.395 . S
C483 H509 0.929 . S
C484 C482 1.320 . S
C484 C485 1.405 . S
C484 H510 0.930 . S
C485 C480 1.479 . S
C485 C484 1.405 . S
C485 H511 0.931 . S
U486 O487 2.454 . S
U486 O488 2.458 . S
U486 C489 2.984 . S
U486 C490 2.847 . S
U486 C503 2.882 . S
U486 O504 2.441 . S
U486 O505 2.420 . S
U486 O506 2.455 . S
U486 O507 2.449 . S
O487 U486 2.454 . S
O487 C489 1.353 . S
O488 U486 2.458 . S
O488 C489 1.286 . S
C489 U486 2.984 . S
C489 O487 1.353 . S
C489 O488 1.286 . S
C489 C491 1.363 . S
C490 C480 1.465 . S
C490 U486 2.847 . S
C490 O504 1.249 . S
C490 O505 1.202 . S
C491 C489 1.363 . S
C491 C493 1.408 . S
C491 C496 1.342 . S
C492 C493 1.310 . S
C492 C495 1.461 . S
C492 H512 0.932 . S
C493 C491 1.408 . S
C493 C492 1.310 . S
C493 H513 0.930 . S
C494 C495 1.474 . S
C494 C496 1.285 . S
C494 H514 0.929 . S
C495 C492 1.461 . S
C495 C494 1.474 . S
C496 C491 1.342 . S
C496 C494 1.285 . S
C496 H515 0.930 . S
C497 C500 1.424 . S
C497 C502 1.245 . S
C497 C503 1.428 . S
C498 C501 1.260 . S
C498 C502 1.477 . S
C498 H516 0.932 . S
C499 C500 1.384 . S
C499 C501 1.479 . S
C499 H517 0.929 . S
C500 C497 1.424 . S
C500 C499 1.384 . S
C500 H518 0.928 . S
C501 C498 1.260 . S
C501 C499 1.479 . S
C502 C497 1.245 . S
C502 C498 1.477 . S
C502 H519 0.932 . S
C503 U486 2.882 . S
C503 C497 1.428 . S
C503 O506 1.301 . S
C503 O507 1.282 . S
O504 U486 2.441 . S
O504 C490 1.249 . S
O505 U486 2.420 . S
O505 C490 1.202 . S
O506 U486 2.455 . S
O506 C503 1.301 . S
O507 U486 2.449 . S
O507 C503 1.282 . S
H508 C481 0.931 . S
H509 C483 0.929 . S
H510 C484 0.930 . S
H511 C485 0.931 . S
H512 C492 0.932 . S
H513 C493 0.930 . S
H514 C494 0.929 . S
H515 C496 0.930 . S
H516 C498 0.932 . S
H517 C499 0.929 . S
H518 C500 0.928 . S
H519 C502 0.932 . S
C520 C521 1.264 . S
C520 C525 1.479 . S
C520 C530 1.465 . S
C521 C520 1.264 . S
C521 C523 1.339 . S
C521 H548 0.931 . S
C522 C523 1.395 . S
C522 C524 1.320 . S
C523 C521 1.339 . S
C523 C522 1.395 . S
C523 H549 0.929 . S
C524 C522 1.320 . S
C524 C525 1.405 . S
C524 H550 0.930 . S
C525 C520 1.479 . S
C525 C524 1.405 . S
C525 H551 0.931 . S
U526 O527 2.454 . S
U526 O528 2.458 . S
U526 C529 2.984 . S
U526 C530 2.847 . S
U526 C543 2.882 . S
U526 O544 2.441 . S
U526 O545 2.420 . S
U526 O546 2.455 . S
U526 O547 2.449 . S
O527 U526 2.454 . S
O527 C529 1.353 . S
O528 U526 2.458 . S
O528 C529 1.286 . S
C529 U526 2.984 . S
C529 O527 1.353 . S
C529 O528 1.286 . S
C529 C531 1.363 . S
C530 C520 1.465 . S
C530 U526 2.847 . S
C530 O544 1.249 . S
C530 O545 1.202 . S
C531 C529 1.363 . S
C531 C533 1.408 . S
C531 C536 1.342 1_556 S
C532 C533 1.332 . S
C532 C535 1.435 1_556 S
C532 H552 0.937 . S
C533 C531 1.408 . S
C533 C532 1.332 . S
C533 H553 0.930 . S
C534 C535 1.474 . S
C534 C536 1.285 . S
C534 H554 0.929 . S
C535 C532 1.435 1_554 S
C535 C534 1.474 . S
C536 C531 1.342 1_554 S
C536 C534 1.285 . S
C536 H555 0.930 . S
C537 C540 1.424 . S
C537 C542 1.245 . S
C537 C543 1.428 . S
C538 C541 1.260 . S
C538 C542 1.477 . S
C538 H556 0.932 . S
C539 C540 1.384 . S
C539 C541 1.479 . S
C539 H557 0.929 . S
C540 C537 1.424 . S
C540 C539 1.384 . S
C540 H558 0.928 . S
C541 C538 1.260 . S
C541 C539 1.479 . S
C542 C537 1.245 . S
C542 C538 1.477 . S
C542 H559 0.932 . S
C543 U526 2.882 . S
C543 C537 1.428 . S
C543 O546 1.301 . S
C543 O547 1.282 . S
O544 U526 2.441 . S
O544 C530 1.249 . S
O545 U526 2.420 . S
O545 C530 1.202 . S
O546 U526 2.455 . S
O546 C543 1.301 . S
O547 U526 2.449 . S
O547 C543 1.282 . S
H548 C521 0.931 . S
H549 C523 0.929 . S
H550 C524 0.930 . S
H551 C525 0.931 . S
H552 C532 0.937 . S
H553 C533 0.930 . S
H554 C534 0.929 . S
H555 C536 0.930 . S
H556 C538 0.932 . S
H557 C539 0.929 . S
H558 C540 0.928 . S
H559 C542 0.932 . S
C560 C561 1.264 . S
C560 C565 1.479 . S
C560 C570 1.465 . S
C561 C560 1.264 . S
C561 C563 1.339 . S
C561 H588 0.931 . S
C562 C563 1.395 . S
C562 C564 1.320 . S
C563 C561 1.339 . S
C563 C562 1.395 . S
C563 H589 0.929 . S
C564 C562 1.320 . S
C564 C565 1.405 . S
C564 H590 0.930 . S
C565 C560 1.479 . S
C565 C564 1.405 . S
C565 H591 0.931 . S
U566 O567 2.454 . S
U566 O568 2.458 . S
U566 C569 2.984 . S
U566 C570 2.847 . S
U566 C583 2.882 . S
U566 O584 2.441 . S
U566 O585 2.420 . S
U566 O586 2.455 . S
U566 O587 2.449 . S
O567 U566 2.454 . S
O567 C569 1.353 . S
O568 U566 2.458 . S
O568 C569 1.286 . S
C569 U566 2.984 . S
C569 O567 1.353 . S
C569 O568 1.286 . S
C569 C571 1.363 . S
C570 C560 1.465 . S
C570 U566 2.847 . S
C570 O584 1.249 . S
C570 O585 1.202 . S
C571 C569 1.363 . S
C571 C573 1.408 . S
C571 C576 1.342 . S
C572 C573 1.310 . S
C572 C575 1.461 . S
C572 H592 0.932 . S
C573 C571 1.408 . S
C573 C572 1.310 . S
C573 H593 0.930 . S
C574 C575 1.474 . S
C574 C576 1.285 . S
C574 H594 0.929 . S
C575 C572 1.461 . S
C575 C574 1.474 . S
C576 C571 1.342 . S
C576 C574 1.285 . S
C576 H595 0.930 . S
C577 C580 1.424 . S
C577 C582 1.245 . S
C577 C583 1.428 . S
C578 C581 1.260 . S
C578 C582 1.477 . S
C578 H596 0.932 . S
C579 C580 1.384 . S
C579 C581 1.479 . S
C579 H597 0.929 . S
C580 C577 1.424 . S
C580 C579 1.384 . S
C580 H598 0.928 . S
C581 C578 1.260 . S
C581 C579 1.479 . S
C582 C577 1.245 . S
C582 C578 1.477 . S
C582 H599 0.932 . S
C583 U566 2.882 . S
C583 C577 1.428 . S
C583 O586 1.301 . S
C583 O587 1.282 . S
O584 U566 2.441 . S
O584 C570 1.249 . S
O585 U566 2.420 . S
O585 C570 1.202 . S
O586 U566 2.455 . S
O586 C583 1.301 . S
O587 U566 2.449 . S
O587 C583 1.282 . S
H588 C561 0.931 . S
H589 C563 0.929 . S
H590 C564 0.930 . S
H591 C565 0.931 . S
H592 C572 0.932 . S
H593 C573 0.930 . S
H594 C574 0.929 . S
H595 C576 0.930 . S
H596 C578 0.932 . S
H597 C579 0.929 . S
H598 C580 0.928 . S
H599 C582 0.932 . S
C600 C601 1.265 . S
C600 C605 1.479 . S
C600 C610 1.465 1_554 S
C601 C600 1.265 . S
C601 C603 1.340 . S
C601 H628 0.929 1_554 S
C602 C603 1.395 . S
C602 C604 1.320 . S
C603 C601 1.340 . S
C603 C602 1.395 . S
C603 H629 0.929 . S
C604 C602 1.320 . S
C604 C605 1.405 . S
C604 H630 0.930 . S
C605 C600 1.479 . S
C605 C604 1.405 . S
C605 H631 0.931 . S
U606 O607 2.454 . S
U606 O608 2.458 . S
U606 C609 2.984 . S
U606 C610 2.847 . S
U606 C623 2.882 . S
U606 O624 2.441 . S
U606 O625 2.420 . S
U606 O626 2.455 . S
U606 O627 2.449 . S
O607 U606 2.454 . S
O607 C609 1.353 . S
O608 U606 2.458 . S
O608 C609 1.286 . S
C609 U606 2.984 . S
C609 O607 1.353 . S
C609 O608 1.286 . S
C609 C611 1.363 . S
C610 C600 1.465 1_556 S
C610 U606 2.847 . S
C610 O624 1.249 . S
C610 O625 1.202 . S
C611 C609 1.363 . S
C611 C613 1.408 . S
C611 C616 1.342 1_545 S
C612 C613 1.310 . S
C612 C615 1.461 1_545 S
C612 H632 0.911 1_556 S
C613 C611 1.408 . S
C613 C612 1.310 . S
C613 H633 0.930 . S
C614 C615 1.474 . S
C614 C616 1.285 . S
C614 H634 0.929 . S
C615 C612 1.461 1_565 S
C615 C614 1.474 . S
C616 C611 1.342 1_565 S
C616 C614 1.285 . S
C616 H635 0.930 . S
C617 C620 1.424 . S
C617 C622 1.245 . S
C617 C623 1.428 . S
C618 C621 1.260 . S
C618 C622 1.477 . S
C618 H636 0.932 . S
C619 C620 1.384 . S
C619 C621 1.479 . S
C619 H637 0.929 . S
C620 C617 1.424 . S
C620 C619 1.384 . S
C620 H638 0.928 . S
C621 C618 1.260 . S
C621 C619 1.479 . S
C622 C617 1.245 . S
C622 C618 1.477 . S
C622 H639 0.932 . S
C623 U606 2.882 . S
C623 C617 1.428 . S
C623 O626 1.301 . S
C623 O627 1.282 . S
O624 U606 2.441 . S
O624 C610 1.249 . S
O625 U606 2.420 . S
O625 C610 1.202 . S
O626 U606 2.455 . S
O626 C623 1.301 . S
O627 U606 2.449 . S
O627 C623 1.282 . S
H628 C601 0.929 1_556 S
H629 C603 0.929 . S
H630 C604 0.930 . S
H631 C605 0.931 . S
H632 C612 0.911 1_554 S
H633 C613 0.930 . S
H634 C614 0.929 . S
H635 C616 0.930 . S
H636 C618 0.932 . S
H637 C619 0.929 . S
H638 C620 0.928 . S
H639 C622 0.932 . S
C640 O641 1.160 . S
C640 O647 1.185 . S
O641 C640 1.160 . S
O642 Zn643 1.899 . S
O642 C650 1.284 1_554 S
Zn643 O642 1.899 . S
Zn643 O644 2.032 . S
Zn643 O647 2.086 . S
Zn643 O652 1.977 . S
O644 Zn643 2.032 . S
O644 C648 1.278 . S
C645 O646 1.203 . S
C645 O652 1.267 . S
O646 C645 1.203 . S
O647 C640 1.185 . S
O647 Zn643 2.086 . S
C648 O644 1.278 . S
C648 O649 1.211 . S
O649 C648 1.211 . S
C650 O642 1.284 1_556 S
C650 O651 1.273 . S
O651 C650 1.273 . S
O652 Zn643 1.977 . S
O652 C645 1.267 . S
C653 O654 1.160 . S
C653 O660 1.185 . S
O654 C653 1.160 . S
O655 Zn656 1.899 . S
O655 C663 1.284 . S
Zn656 O655 1.899 . S
Zn656 O657 2.032 . S
Zn656 O660 2.086 . S
Zn656 O665 1.977 . S
O657 Zn656 2.032 . S
O657 C661 1.278 . S
C658 O659 1.203 . S
C658 O665 1.267 . S
O659 C658 1.203 . S
O660 C653 1.185 . S
O660 Zn656 2.086 . S
C661 O657 1.278 . S
C661 O662 1.211 . S
O662 C661 1.211 . S
C663 O655 1.284 . S
C663 O664 1.273 . S
O664 C663 1.273 . S
O665 Zn656 1.977 . S
O665 C658 1.267 . S
C666 O667 1.160 1_554 S
C666 O673 1.185 . S
O667 C666 1.160 1_556 S
O668 Zn669 1.899 1_556 S
O668 C676 1.284 . S
Zn669 O668 1.899 1_554 S
Zn669 O670 2.032 1_554 S
Zn669 O673 2.086 . S
Zn669 O678 1.977 . S
O670 Zn669 2.032 1_556 S
O670 C674 1.278 . S
C671 O672 1.203 . S
C671 O678 1.267 . S
O672 C671 1.203 . S
O673 C666 1.185 . S
O673 Zn669 2.086 . S
C674 O670 1.278 . S
C674 O675 1.211 1_556 S
O675 C674 1.211 1_554 S
C676 O668 1.284 . S
C676 O677 1.273 . S
O677 C676 1.273 . S
O678 Zn669 1.977 . S
O678 C671 1.267 . S
C679 O680 1.160 . S
C679 O686 1.185 . S
O680 C679 1.160 . S
O681 Zn682 1.899 . S
O681 C689 1.284 . S
Zn682 O681 1.899 . S
Zn682 O683 2.032 . S
Zn682 O686 2.086 . S
Zn682 O691 1.977 . S
O683 Zn682 2.032 . S
O683 C687 1.278 1_545 S
C684 O685 1.203 . S
C684 O691 1.267 . S
O685 C684 1.203 . S
O686 C679 1.185 . S
O686 Zn682 2.086 . S
C687 O683 1.278 1_565 S
C687 O688 1.211 . S
O688 C687 1.211 . S
C689 O681 1.284 . S
C689 O690 1.273 1_545 S
O690 C689 1.273 1_565 S
O691 Zn682 1.977 . S
O691 C684 1.267 . S
C692 O693 1.160 . S
C692 O699 1.185 . S
O693 C692 1.160 . S
O694 Zn695 1.899 . S
O694 C702 1.284 . S
Zn695 O694 1.899 . S
Zn695 O696 2.032 . S
Zn695 O699 2.086 . S
Zn695 O704 1.977 . S
O696 Zn695 2.032 . S
O696 C700 1.278 . S
C697 O698 1.203 . S
C697 O704 1.267 . S
O698 C697 1.203 . S
O699 C692 1.185 . S
O699 Zn695 2.086 . S
C700 O696 1.278 . S
C700 O701 1.211 . S
O701 C700 1.211 . S
C702 O694 1.284 . S
C702 O703 1.273 . S
O703 C702 1.273 . S
O704 Zn695 1.977 . S
O704 C697 1.267 . S
C705 O706 1.160 . S
C705 O712 1.185 . S
O706 C705 1.160 . S
O707 Zn708 1.899 . S
O707 C715 1.284 . S
Zn708 O707 1.899 . S
Zn708 O709 2.032 . S
Zn708 O712 2.086 . S
Zn708 O717 1.977 . S
O709 Zn708 2.032 . S
O709 C713 1.278 . S
C710 O711 1.203 . S
C710 O717 1.267 . S
O711 C710 1.203 . S
O712 C705 1.185 . S
O712 Zn708 2.086 . S
C713 O709 1.278 . S
C713 O714 1.211 . S
O714 C713 1.211 . S
C715 O707 1.284 . S
C715 O716 1.273 . S
O716 C715 1.273 . S
O717 Zn708 1.977 . S
O717 C710 1.267 . S
C718 O719 1.160 . S
C718 O725 1.185 . S
O719 C718 1.160 . S
O720 Zn721 1.899 . S
O720 C728 1.284 . S
Zn721 O720 1.899 . S
Zn721 O722 2.032 . S
Zn721 O725 2.086 . S
Zn721 O730 1.977 . S
O722 Zn721 2.032 . S
O722 C726 1.278 . S
C723 O724 1.203 . S
C723 O730 1.267 . S
O724 C723 1.203 . S
O725 C718 1.185 . S
O725 Zn721 2.086 . S
C726 O722 1.278 . S
C726 O727 1.211 . S
O727 C726 1.211 . S
C728 O720 1.284 . S
C728 O729 1.273 . S
O729 C728 1.273 . S
O730 Zn721 1.977 . S
O730 C723 1.267 . S
C731 O732 1.160 . S
C731 O738 1.185 . S
O732 C731 1.160 . S
O733 Zn734 1.899 . S
O733 C741 1.284 1_565 S
Zn734 O733 1.899 . S
Zn734 O735 2.032 1_565 S
Zn734 O738 2.086 . S
Zn734 O743 1.977 . S
O735 Zn734 2.032 1_545 S
O735 C739 1.278 . S
C736 O737 1.158 1_565 S
C736 O743 1.305 . S
O737 C736 1.158 1_545 S
O738 C731 1.185 . S
O738 Zn734 2.086 . S
C739 O735 1.278 . S
C739 O740 1.211 . S
O740 C739 1.211 . S
C741 O733 1.284 1_545 S
C741 O742 1.273 . S
O742 C741 1.273 . S
O743 Zn734 1.977 . S
O743 C736 1.305 . S
C744 O745 1.160 1_455 S
C744 O751 1.185 . S
O745 C744 1.160 1_655 S
O746 Zn747 1.899 1_655 S
O746 C754 1.284 . S
Zn747 O746 1.899 1_455 S
Zn747 O748 2.032 . S
Zn747 O751 2.086 . S
Zn747 O756 1.977 . S
O748 Zn747 2.032 . S
O748 C752 1.278 . S
C749 O750 1.203 . S
C749 O756 1.267 . S
O750 C749 1.203 . S
O751 C744 1.185 . S
O751 Zn747 2.086 . S
C752 O748 1.278 . S
C752 O753 1.211 . S
O753 C752 1.211 . S
C754 O746 1.284 . S
C754 O755 1.273 . S
O755 C754 1.273 . S
O756 Zn747 1.977 . S
O756 C749 1.267 . S
C757 O758 1.160 . S
C757 O764 1.185 . S
O758 C757 1.160 . S
O759 Zn760 1.899 . S
O759 C767 1.284 . S
Zn760 O759 1.899 . S
Zn760 O761 2.032 . S
Zn760 O764 2.086 . S
Zn760 O769 1.977 . S
O761 Zn760 2.032 . S
O761 C765 1.278 . S
C762 O763 1.203 . S
C762 O769 1.267 . S
O763 C762 1.203 . S
O764 C757 1.185 . S
O764 Zn760 2.086 . S
C765 O761 1.278 . S
C765 O766 1.211 . S
O766 C765 1.211 . S
C767 O759 1.284 . S
C767 O768 1.273 . S
O768 C767 1.273 . S
O769 Zn760 1.977 . S
O769 C762 1.267 . S
C770 O771 1.160 1_455 S
C770 O777 1.185 . S
O771 C770 1.160 1_655 S
O772 Zn773 1.899 1_655 S
O772 C780 1.284 . S
Zn773 O772 1.899 1_455 S
Zn773 O774 2.031 . S
Zn773 O777 2.086 . S
Zn773 O782 1.977 . S
O774 Zn773 2.031 . S
O774 C778 1.277 . S
C775 O776 1.203 . S
C775 O782 1.267 . S
O776 C775 1.203 . S
O777 C770 1.185 . S
O777 Zn773 2.086 . S
C778 O774 1.277 . S
C778 O779 1.211 . S
O779 C778 1.211 . S
C780 O772 1.284 . S
C780 O781 1.273 . S
O781 C780 1.273 . S
O782 Zn773 1.977 . S
O782 C775 1.267 . S
C783 O784 1.160 . S
C783 O790 1.185 . S
O784 C783 1.160 . S
O785 Zn786 1.899 . S
O785 C793 1.284 . S
Zn786 O785 1.899 . S
Zn786 O787 2.032 . S
Zn786 O790 2.086 . S
Zn786 O795 1.977 . S
O787 Zn786 2.032 . S
O787 C791 1.278 . S
C788 O789 1.203 . S
C788 O795 1.267 . S
O789 C788 1.203 . S
O790 C783 1.185 . S
O790 Zn786 2.086 . S
C791 O787 1.278 . S
C791 O792 1.211 . S
O792 C791 1.211 . S
C793 O785 1.284 . S
C793 O794 1.273 . S
O794 C793 1.273 . S
O795 Zn786 1.977 . S
O795 C788 1.267 . S
C796 C797 1.349 . S
C796 C798 1.327 . S
C796 H821 0.950 . S
C797 C796 1.349 . S
C797 C813 1.349 . S
C798 C796 1.327 . S
C798 C817 1.429 . S
C798 H822 0.950 . S
C799 C816 1.574 . S
C799 C818 1.368 . S
C799 H823 0.949 . S
H800 C804 0.949 . S
C801 C802 1.349 . S
C801 C803 1.327 . S
C801 H824 0.950 . S
C802 C801 1.349 . S
C802 C814 1.349 . S
C803 C801 1.327 . S
C803 C819 1.429 . S
C803 H825 0.950 . S
C804 H800 0.949 . S
C804 C812 1.574 . S
C804 C820 1.368 . S
H805 C813 0.950 . S
H806 C811 0.950 . S
H807 C812 0.949 . S
H808 C814 0.950 . S
H809 C815 0.950 . S
H810 C816 0.949 . S
C811 H806 0.950 . S
C811 C813 1.327 . S
C811 C817 1.429 . S
C812 C804 1.574 . S
C812 H807 0.949 . S
C812 C818 1.368 . S
C813 C797 1.349 . S
C813 H805 0.950 . S
C813 C811 1.327 . S
C814 C802 1.349 . S
C814 H808 0.950 . S
C814 C815 1.327 . S
C815 H809 0.950 . S
C815 C814 1.327 . S
C815 C819 1.429 . S
C816 C799 1.574 . S
C816 H810 0.949 . S
C816 C820 1.368 . S
C817 C798 1.429 . S
C817 C811 1.429 . S
C817 C818 1.523 . S
C818 C799 1.368 . S
C818 C812 1.368 . S
C818 C817 1.523 . S
C819 C803 1.429 . S
C819 C815 1.429 . S
C819 C820 1.523 . S
C820 C804 1.368 . S
C820 C816 1.368 . S
C820 C819 1.523 . S
H821 C796 0.950 . S
H822 C798 0.950 . S
H823 C799 0.949 . S
H824 C801 0.950 . S
H825 C803 0.950 . S
C826 C827 1.349 . S
C826 C828 1.327 . S
C826 H851 0.950 . S
C827 C826 1.349 . S
C827 C843 1.349 . S
C828 C826 1.327 . S
C828 C847 1.429 . S
C828 H852 0.950 . S
C829 C846 1.574 . S
C829 C848 1.368 . S
C829 H853 0.949 . S
H830 C834 0.949 . S
C831 C832 1.349 . S
C831 C833 1.327 . S
C831 H854 0.950 . S
C832 C831 1.349 . S
C832 C844 1.349 . S
C833 C831 1.327 . S
C833 C849 1.429 . S
C833 H855 0.950 . S
C834 H830 0.949 . S
C834 C842 1.574 . S
C834 C850 1.368 . S
H835 C843 0.950 . S
H836 C841 0.950 . S
H837 C842 0.949 . S
H838 C844 0.950 . S
H839 C845 0.950 . S
H840 C846 0.949 . S
C841 H836 0.950 . S
C841 C843 1.327 . S
C841 C847 1.429 . S
C842 C834 1.574 . S
C842 H837 0.949 . S
C842 C848 1.368 . S
C843 C827 1.349 . S
C843 H835 0.950 . S
C843 C841 1.327 . S
C844 C832 1.349 . S
C844 H838 0.950 . S
C844 C845 1.327 . S
C845 H839 0.950 . S
C845 C844 1.327 . S
C845 C849 1.429 . S
C846 C829 1.574 . S
C846 H840 0.949 . S
C846 C850 1.368 . S
C847 C828 1.429 . S
C847 C841 1.429 . S
C847 C848 1.523 . S
C848 C829 1.368 . S
C848 C842 1.368 . S
C848 C847 1.523 . S
C849 C833 1.429 . S
C849 C845 1.429 . S
C849 C850 1.523 . S
C850 C834 1.368 . S
C850 C846 1.368 . S
C850 C849 1.523 . S
H851 C826 0.950 . S
H852 C828 0.950 . S
H853 C829 0.949 . S
H854 C831 0.950 . S
H855 C833 0.950 . S
C856 C857 1.349 . S
C856 C858 1.327 . S
C856 H881 0.950 . S
C857 C856 1.349 . S
C857 C873 1.349 . S
C858 C856 1.327 . S
C858 C877 1.429 . S
C858 H882 0.950 . S
C859 C876 1.574 . S
C859 C878 1.368 . S
C859 H883 0.949 . S
H860 C864 0.949 . S
C861 C862 1.349 . S
C861 C863 1.327 . S
C861 H884 0.950 . S
C862 C861 1.349 . S
C862 C874 1.349 . S
C863 C861 1.327 . S
C863 C879 1.429 . S
C863 H885 0.950 . S
C864 H860 0.949 . S
C864 C872 1.574 . S
C864 C880 1.368 . S
H865 C873 0.950 . S
H866 C871 0.950 . S
H867 C872 0.949 . S
H868 C874 0.950 . S
H869 C875 0.950 . S
H870 C876 0.949 . S
C871 H866 0.950 . S
C871 C873 1.327 . S
C871 C877 1.429 . S
C872 C864 1.574 . S
C872 H867 0.949 . S
C872 C878 1.368 . S
C873 C857 1.349 . S
C873 H865 0.950 . S
C873 C871 1.327 . S
C874 C862 1.349 . S
C874 H868 0.950 . S
C874 C875 1.327 . S
C875 H869 0.950 . S
C875 C874 1.327 . S
C875 C879 1.429 . S
C876 C859 1.574 . S
C876 H870 0.949 . S
C876 C880 1.368 . S
C877 C858 1.429 . S
C877 C871 1.429 . S
C877 C878 1.523 . S
C878 C859 1.368 . S
C878 C872 1.368 . S
C878 C877 1.523 . S
C879 C863 1.429 . S
C879 C875 1.429 . S
C879 C880 1.523 . S
C880 C864 1.368 . S
C880 C876 1.368 . S
C880 C879 1.523 . S
H881 C856 0.950 . S
H882 C858 0.950 . S
H883 C859 0.949 . S
H884 C861 0.950 . S
H885 C863 0.950 . S
C886 C887 1.349 1_545 S
C886 C888 1.327 . S
C886 H911 0.950 . S
C887 C886 1.349 1_565 S
C887 C903 1.349 . S
C888 C886 1.327 . S
C888 C907 1.429 1_545 S
C888 H912 0.950 . S
C889 C906 1.574 . S
C889 C908 1.368 . S
C889 H913 0.949 . S
H890 C894 0.949 . S
C891 C892 1.349 1_565 S
C891 C893 1.327 . S
C891 H914 0.950 . S
C892 C891 1.349 1_545 S
C892 C904 1.349 . S
C893 C891 1.327 . S
C893 C909 1.429 1_565 S
C893 H915 0.950 . S
C894 H890 0.949 . S
C894 C902 1.574 . S
C894 C910 1.376 . S
H895 C903 0.950 . S
H896 C901 0.950 . S
H897 C902 0.949 . S
H898 C904 0.950 . S
H899 C905 0.950 . S
H900 C906 0.949 . S
C901 H896 0.950 . S
C901 C903 1.327 . S
C901 C907 1.429 . S
C902 C894 1.574 . S
C902 H897 0.949 . S
C902 C908 1.368 1_545 S
C903 C887 1.349 . S
C903 H895 0.950 . S
C903 C901 1.327 . S
C904 C892 1.349 . S
C904 H898 0.950 . S
C904 C905 1.327 . S
C905 H899 0.950 . S
C905 C904 1.327 . S
C905 C909 1.429 . S
C906 C889 1.574 . S
C906 H900 0.949 . S
C906 C910 1.359 1_565 S
C907 C888 1.429 1_565 S
C907 C901 1.429 . S
C907 C908 1.523 . S
C908 C889 1.368 . S
C908 C902 1.368 1_565 S
C908 C907 1.523 . S
C909 C893 1.429 1_545 S
C909 C905 1.429 . S
C909 C910 1.525 . S
C910 C894 1.376 . S
C910 C906 1.359 1_545 S
C910 C909 1.525 . S
H911 C886 0.950 . S
H912 C888 0.950 . S
H913 C889 0.949 . S
H914 C891 0.950 . S
H915 C893 0.950 . S
C916 C917 1.349 . S
C916 C918 1.327 . S
C916 H941 0.950 . S
C917 C916 1.349 . S
C917 C933 1.349 . S
C918 C916 1.327 . S
C918 C937 1.429 . S
C918 H942 0.950 . S
C919 C936 1.574 . S
C919 C938 1.368 . S
C919 H943 0.949 . S
H920 C924 0.949 . S
C921 C922 1.349 . S
C921 C923 1.327 . S
C921 H944 0.950 . S
C922 C921 1.349 . S
C922 C934 1.349 . S
C923 C921 1.327 . S
C923 C939 1.429 . S
C923 H945 0.950 . S
C924 H920 0.949 . S
C924 C932 1.574 . S
C924 C940 1.368 . S
H925 C933 0.950 . S
H926 C931 0.950 . S
H927 C932 0.949 . S
H928 C934 0.950 . S
H929 C935 0.950 . S
H930 C936 0.949 . S
C931 H926 0.950 . S
C931 C933 1.327 . S
C931 C937 1.429 . S
C932 C924 1.574 . S
C932 H927 0.949 . S
C932 C938 1.368 . S
C933 C917 1.349 . S
C933 H925 0.950 . S
C933 C931 1.327 . S
C934 C922 1.349 . S
C934 H928 0.950 . S
C934 C935 1.327 . S
C935 H929 0.950 . S
C935 C934 1.327 . S
C935 C939 1.429 . S
C936 C919 1.574 . S
C936 H930 0.949 . S
C936 C940 1.368 . S
C937 C918 1.429 . S
C937 C931 1.429 . S
C937 C938 1.523 . S
C938 C919 1.368 . S
C938 C932 1.368 . S
C938 C937 1.523 . S
C939 C923 1.429 . S
C939 C935 1.429 . S
C939 C940 1.523 . S
C940 C924 1.368 . S
C940 C936 1.368 . S
C940 C939 1.523 . S
H941 C916 0.950 . S
H942 C918 0.950 . S
H943 C919 0.949 . S
H944 C921 0.950 . S
H945 C923 0.950 . S
C946 C947 1.349 . S
C946 C948 1.327 . S
C946 H971 0.950 . S
C947 C946 1.349 . S
C947 C963 1.349 . S
C948 C946 1.327 . S
C948 C967 1.429 . S
C948 H972 0.950 . S
C949 C966 1.574 . S
C949 C968 1.368 . S
C949 H973 0.949 . S
H950 C954 0.949 . S
C951 C952 1.349 . S
C951 C953 1.327 . S
C951 H974 0.950 . S
C952 C951 1.349 . S
C952 C964 1.349 . S
C953 C951 1.327 . S
C953 C969 1.429 . S
C953 H975 0.950 . S
C954 H950 0.949 . S
C954 C962 1.574 . S
C954 C970 1.368 . S
H955 C963 0.950 . S
H956 C961 0.950 . S
H957 C962 0.949 . S
H958 C964 0.950 . S
H959 C965 0.950 . S
H960 C966 0.949 . S
C961 H956 0.950 . S
C961 C963 1.327 . S
C961 C967 1.429 . S
C962 C954 1.574 . S
C962 H957 0.949 . S
C962 C968 1.368 . S
C963 C947 1.349 . S
C963 H955 0.950 . S
C963 C961 1.327 . S
C964 C952 1.349 . S
C964 H958 0.950 . S
C964 C965 1.327 . S
C965 H959 0.950 . S
C965 C964 1.327 . S
C965 C969 1.429 . S
C966 C949 1.574 . S
C966 H960 0.949 . S
C966 C970 1.368 . S
C967 C948 1.429 . S
C967 C961 1.429 . S
C967 C968 1.523 . S
C968 C949 1.368 . S
C968 C962 1.368 . S
C968 C967 1.523 . S
C969 C953 1.429 . S
C969 C965 1.429 . S
C969 C970 1.523 . S
C970 C954 1.368 . S
C970 C966 1.368 . S
C970 C969 1.523 . S
H971 C946 0.950 . S
H972 C948 0.950 . S
H973 C949 0.949 . S
H974 C951 0.950 . S
H975 C953 0.950 . S
C976 C977 1.349 . S
C976 C978 1.327 . S
C976 H1001 0.950 . S
C977 C976 1.349 . S
C977 C993 1.349 . S
C978 C976 1.327 . S
C978 C997 1.429 . S
C978 H1002 0.950 . S
C979 C996 1.574 . S
C979 C998 1.368 . S
C979 H1003 0.949 . S
H980 C984 0.949 . S
C981 C982 1.349 . S
C981 C983 1.327 . S
C981 H1004 0.950 . S
C982 C981 1.349 . S
C982 C994 1.349 . S
C983 C981 1.327 . S
C983 C999 1.429 . S
C983 H1005 0.950 . S
C984 H980 0.949 . S
C984 C992 1.574 . S
C984 C1000 1.368 . S
H985 C993 0.950 . S
H986 C991 0.950 . S
H987 C992 0.949 . S
H988 C994 0.950 . S
H989 C995 0.950 . S
H990 C996 0.949 . S
C991 H986 0.950 . S
C991 C993 1.327 . S
C991 C997 1.429 . S
C992 C984 1.574 . S
C992 H987 0.949 . S
C992 C998 1.368 . S
C993 C977 1.349 . S
C993 H985 0.950 . S
C993 C991 1.327 . S
C994 C982 1.349 . S
C994 H988 0.950 . S
C994 C995 1.327 . S
C995 H989 0.950 . S
C995 C994 1.327 . S
C995 C999 1.429 . S
C996 C979 1.574 . S
C996 H990 0.949 . S
C996 C1000 1.368 . S
C997 C978 1.429 . S
C997 C991 1.429 . S
C997 C998 1.523 . S
C998 C979 1.368 . S
C998 C992 1.368 . S
C998 C997 1.523 . S
C999 C983 1.429 . S
C999 C995 1.429 . S
C999 C1000 1.523 . S
C1000 C984 1.368 . S
C1000 C996 1.368 . S
C1000 C999 1.523 . S
H1001 C976 0.950 . S
H1002 C978 0.950 . S
H1003 C979 0.949 . S
H1004 C981 0.950 . S
H1005 C983 0.950 . S
C1006 C1007 1.349 . S
C1006 C1008 1.327 . S
C1006 H1031 0.975 . S
C1007 C1006 1.349 . S
C1007 C1023 1.349 . S
C1008 C1006 1.327 . S
C1008 C1027 1.429 . S
C1008 H1032 0.950 1_565 S
C1009 C1026 1.574 . S
C1009 C1028 1.368 . S
C1009 H1033 0.949 . S
H1010 C1014 0.987 . S
C1011 C1012 1.349 . S
C1011 C1013 1.327 . S
C1011 H1034 0.950 . S
C1012 C1011 1.349 . S
C1012 C1024 1.349 1_565 S
C1013 C1011 1.327 . S
C1013 C1029 1.429 . S
C1013 H1035 0.950 . S
C1014 H1010 0.987 . S
C1014 C1022 1.571 1_545 S
C1014 C1030 1.331 1_545 S
H1015 C1023 0.950 . S
H1016 C1021 0.950 . S
H1017 C1022 0.949 1_545 S
H1018 C1024 0.950 . S
H1019 C1025 0.950 . S
H1020 C1026 0.949 . S
C1021 H1016 0.950 . S
C1021 C1023 1.327 . S
C1021 C1027 1.429 . S
C1022 C1014 1.571 1_565 S
C1022 H1017 0.949 1_565 S
C1022 C1028 1.368 . S
C1023 C1007 1.349 . S
C1023 H1015 0.950 . S
C1023 C1021 1.327 . S
C1024 C1012 1.349 1_545 S
C1024 H1018 0.950 . S
C1024 C1025 1.327 . S
C1025 H1019 0.950 . S
C1025 C1024 1.327 . S
C1025 C1029 1.429 1_545 S
C1026 C1009 1.574 . S
C1026 H1020 0.949 . S
C1026 C1030 1.368 . S
C1027 C1008 1.429 . S
C1027 C1021 1.429 . S
C1027 C1028 1.523 . S
C1028 C1009 1.368 . S
C1028 C1022 1.368 . S
C1028 C1027 1.523 . S
C1029 C1013 1.429 . S
C1029 C1025 1.429 1_565 S
C1029 C1030 1.523 . S
C1030 C1014 1.331 1_565 S
C1030 C1026 1.368 . S
C1030 C1029 1.523 . S
H1031 C1006 0.975 . S
H1032 C1008 0.950 1_545 S
H1033 C1009 0.949 . S
H1034 C1011 0.950 . S
H1035 C1013 0.950 . S
C1036 C1037 1.349 . S
C1036 C1038 1.327 . S
C1036 H1061 0.950 . S
C1037 C1036 1.349 . S
C1037 C1053 1.349 . S
C1038 C1036 1.327 . S
C1038 C1057 1.429 . S
C1038 H1062 0.950 . S
C1039 C1056 1.574 . S
C1039 C1058 1.368 . S
C1039 H1063 0.949 . S
H1040 C1044 0.949 . S
C1041 C1042 1.349 . S
C1041 C1043 1.327 . S
C1041 H1064 0.950 . S
C1042 C1041 1.349 . S
C1042 C1054 1.349 . S
C1043 C1041 1.327 . S
C1043 C1059 1.429 . S
C1043 H1065 0.950 . S
C1044 H1040 0.949 . S
C1044 C1052 1.574 . S
C1044 C1060 1.368 . S
H1045 C1053 0.950 . S
H1046 C1051 0.950 . S
H1047 C1052 0.949 . S
H1048 C1054 0.950 . S
H1049 C1055 0.950 . S
H1050 C1056 0.949 . S
C1051 H1046 0.950 . S
C1051 C1053 1.327 . S
C1051 C1057 1.429 . S
C1052 C1044 1.574 . S
C1052 H1047 0.949 . S
C1052 C1058 1.368 . S
C1053 C1037 1.349 . S
C1053 H1045 0.950 . S
C1053 C1051 1.327 . S
C1054 C1042 1.349 . S
C1054 H1048 0.950 . S
C1054 C1055 1.327 . S
C1055 H1049 0.950 . S
C1055 C1054 1.327 . S
C1055 C1059 1.429 . S
C1056 C1039 1.574 . S
C1056 H1050 0.949 . S
C1056 C1060 1.368 . S
C1057 C1038 1.429 . S
C1057 C1051 1.429 . S
C1057 C1058 1.523 . S
C1058 C1039 1.368 . S
C1058 C1052 1.368 . S
C1058 C1057 1.523 . S
C1059 C1043 1.429 . S
C1059 C1055 1.429 . S
C1059 C1060 1.523 . S
C1060 C1044 1.368 . S
C1060 C1056 1.368 . S
C1060 C1059 1.523 . S
H1061 C1036 0.950 . S
H1062 C1038 0.950 . S
H1063 C1039 0.949 . S
H1064 C1041 0.950 . S
H1065 C1043 0.950 . S
C1066 C1067 1.349 . S
C1066 C1068 1.327 . S
C1066 H1091 0.950 . S
C1067 C1066 1.349 . S
C1067 C1083 1.349 . S
C1068 C1066 1.327 . S
C1068 C1087 1.429 . S
C1068 H1092 0.950 . S
C1069 C1086 1.574 . S
C1069 C1088 1.368 . S
C1069 H1093 0.949 . S
H1070 C1074 0.949 . S
C1071 C1072 1.349 . S
C1071 C1073 1.327 . S
C1071 H1094 0.950 . S
C1072 C1071 1.349 . S
C1072 C1084 1.349 . S
C1073 C1071 1.327 . S
C1073 C1089 1.429 . S
C1073 H1095 0.950 . S
C1074 H1070 0.949 . S
C1074 C1082 1.574 . S
C1074 C1090 1.368 . S
H1075 C1083 0.950 . S
H1076 C1081 0.950 . S
H1077 C1082 0.949 . S
H1078 C1084 0.950 . S
H1079 C1085 0.950 . S
H1080 C1086 0.949 . S
C1081 H1076 0.950 . S
C1081 C1083 1.327 . S
C1081 C1087 1.429 . S
C1082 C1074 1.574 . S
C1082 H1077 0.949 . S
C1082 C1088 1.368 . S
C1083 C1067 1.349 . S
C1083 H1075 0.950 . S
C1083 C1081 1.327 . S
C1084 C1072 1.349 . S
C1084 H1078 0.950 . S
C1084 C1085 1.327 . S
C1085 H1079 0.950 . S
C1085 C1084 1.327 . S
C1085 C1089 1.429 . S
C1086 C1069 1.574 . S
C1086 H1080 0.949 . S
C1086 C1090 1.368 . S
C1087 C1068 1.429 . S
C1087 C1081 1.429 . S
C1087 C1088 1.523 . S
C1088 C1069 1.368 . S
C1088 C1082 1.368 . S
C1088 C1087 1.523 . S
C1089 C1073 1.429 . S
C1089 C1085 1.429 . S
C1089 C1090 1.523 . S
C1090 C1074 1.368 . S
C1090 C1086 1.368 . S
C1090 C1089 1.523 . S
H1091 C1066 0.950 . S
H1092 C1068 0.950 . S
H1093 C1069 0.949 . S
H1094 C1071 0.950 . S
H1095 C1073 0.950 . S
C1096 C1097 1.349 . S
C1096 C1098 1.327 . S
C1096 H1121 0.950 . S
C1097 C1096 1.349 . S
C1097 C1113 1.349 . S
C1098 C1096 1.327 . S
C1098 C1117 1.429 . S
C1098 H1122 0.950 . S
C1099 C1116 1.574 . S
C1099 C1118 1.368 . S
C1099 H1123 0.949 . S
H1100 C1104 0.949 . S
C1101 C1102 1.349 . S
C1101 C1103 1.327 . S
C1101 H1124 0.950 . S
C1102 C1101 1.349 . S
C1102 C1114 1.349 . S
C1103 C1101 1.327 . S
C1103 C1119 1.429 . S
C1103 H1125 0.950 . S
C1104 H1100 0.949 . S
C1104 C1112 1.574 . S
C1104 C1120 1.368 . S
H1105 C1113 0.950 . S
H1106 C1111 0.950 . S
H1107 C1112 0.949 . S
H1108 C1114 0.950 . S
H1109 C1115 0.950 . S
H1110 C1116 0.949 . S
C1111 H1106 0.950 . S
C1111 C1113 1.327 . S
C1111 C1117 1.429 . S
C1112 C1104 1.574 . S
C1112 H1107 0.949 . S
C1112 C1118 1.368 . S
C1113 C1097 1.349 . S
C1113 H1105 0.950 . S
C1113 C1111 1.327 . S
C1114 C1102 1.349 . S
C1114 H1108 0.950 . S
C1114 C1115 1.327 . S
C1115 H1109 0.950 . S
C1115 C1114 1.327 . S
C1115 C1119 1.429 . S
C1116 C1099 1.574 . S
C1116 H1110 0.949 . S
C1116 C1120 1.368 . S
C1117 C1098 1.429 . S
C1117 C1111 1.429 . S
C1117 C1118 1.523 . S
C1118 C1099 1.368 . S
C1118 C1112 1.368 . S
C1118 C1117 1.523 . S
C1119 C1103 1.429 . S
C1119 C1115 1.429 . S
C1119 C1120 1.523 . S
C1120 C1104 1.368 . S
C1120 C1116 1.368 . S
C1120 C1119 1.523 . S
H1121 C1096 0.950 . S
H1122 C1098 0.950 . S
H1123 C1099 0.949 . S
H1124 C1101 0.950 . S
H1125 C1103 0.950 . S
C1126 C1127 1.349 . S
C1126 C1128 1.327 . S
C1126 H1151 0.950 . S
C1127 C1126 1.349 . S
C1127 C1143 1.349 . S
C1128 C1126 1.327 . S
C1128 C1147 1.429 . S
C1128 H1152 0.950 . S
C1129 C1146 1.574 . S
C1129 C1148 1.368 . S
C1129 H1153 0.949 . S
H1130 C1134 0.949 . S
C1131 C1132 1.349 . S
C1131 C1133 1.327 . S
C1131 H1154 0.950 . S
C1132 C1131 1.349 . S
C1132 C1144 1.349 . S
C1133 C1131 1.327 . S
C1133 C1149 1.429 . S
C1133 H1155 0.950 . S
C1134 H1130 0.949 . S
C1134 C1142 1.574 . S
C1134 C1150 1.368 . S
H1135 C1143 0.950 . S
H1136 C1141 0.950 . S
H1137 C1142 0.949 . S
H1138 C1144 0.950 . S
H1139 C1145 0.950 . S
H1140 C1146 0.949 . S
C1141 H1136 0.950 . S
C1141 C1143 1.327 . S
C1141 C1147 1.429 . S
C1142 C1134 1.574 . S
C1142 H1137 0.949 . S
C1142 C1148 1.368 . S
C1143 C1127 1.349 . S
C1143 H1135 0.950 . S
C1143 C1141 1.327 . S
C1144 C1132 1.349 . S
C1144 H1138 0.950 . S
C1144 C1145 1.327 . S
C1145 H1139 0.950 . S
C1145 C1144 1.327 . S
C1145 C1149 1.429 . S
C1146 C1129 1.574 . S
C1146 H1140 0.949 . S
C1146 C1150 1.368 . S
C1147 C1128 1.429 . S
C1147 C1141 1.429 . S
C1147 C1148 1.523 . S
C1148 C1129 1.368 . S
C1148 C1142 1.368 . S
C1148 C1147 1.523 . S
C1149 C1133 1.429 . S
C1149 C1145 1.429 . S
C1149 C1150 1.523 . S
C1150 C1134 1.368 . S
C1150 C1146 1.368 . S
C1150 C1149 1.523 . S
H1151 C1126 0.950 . S
H1152 C1128 0.950 . S
H1153 C1129 0.949 . S
H1154 C1131 0.950 . S
H1155 C1133 0.950 . S
C1156 C1157 1.349 . S
C1156 C1158 1.327 . S
C1156 H1181 0.950 . S
C1157 C1156 1.349 . S
C1157 C1173 1.349 . S
C1158 C1156 1.327 . S
C1158 C1177 1.429 . S
C1158 H1182 0.950 . S
C1159 C1176 1.574 . S
C1159 C1178 1.368 . S
C1159 H1183 0.949 . S
H1160 C1164 0.949 . S
C1161 C1162 1.349 . S
C1161 C1163 1.327 . S
C1161 H1184 0.950 . S
C1162 C1161 1.349 . S
C1162 C1174 1.349 . S
C1163 C1161 1.327 . S
C1163 C1179 1.429 . S
C1163 H1185 0.950 . S
C1164 H1160 0.949 . S
C1164 C1172 1.574 . S
C1164 C1180 1.368 . S
H1165 C1173 0.950 . S
H1166 C1171 0.950 . S
H1167 C1172 0.949 . S
H1168 C1174 0.950 . S
H1169 C1175 0.950 . S
H1170 C1176 0.949 . S
C1171 H1166 0.950 . S
C1171 C1173 1.327 . S
C1171 C1177 1.429 . S
C1172 C1164 1.574 . S
C1172 H1167 0.949 . S
C1172 C1178 1.368 . S
C1173 C1157 1.349 . S
C1173 H1165 0.950 . S
C1173 C1171 1.327 . S
C1174 C1162 1.349 . S
C1174 H1168 0.950 . S
C1174 C1175 1.327 . S
C1175 H1169 0.950 . S
C1175 C1174 1.327 . S
C1175 C1179 1.429 . S
C1176 C1159 1.574 . S
C1176 H1170 0.949 . S
C1176 C1180 1.368 . S
C1177 C1158 1.429 . S
C1177 C1171 1.429 . S
C1177 C1178 1.523 . S
C1178 C1159 1.368 . S
C1178 C1172 1.368 . S
C1178 C1177 1.523 . S
C1179 C1163 1.429 . S
C1179 C1175 1.429 . S
C1179 C1180 1.523 . S
C1180 C1164 1.368 . S
C1180 C1176 1.368 . S
C1180 C1179 1.523 . S
H1181 C1156 0.950 . S
H1182 C1158 0.950 . S
H1183 C1159 0.949 . S
H1184 C1161 0.950 . S
H1185 C1163 0.950 . S
C1186 C1187 1.349 . S
C1186 C1188 1.327 . S
C1186 H1211 0.950 . S
C1187 C1186 1.349 . S
C1187 C1203 1.349 . S
C1188 C1186 1.327 . S
C1188 C1207 1.429 . S
C1188 H1212 0.950 . S
C1189 C1206 1.574 . S
C1189 C1208 1.368 . S
C1189 H1213 0.949 . S
H1190 C1194 0.949 1_655 S
C1191 C1192 1.349 . S
C1191 C1193 1.327 . S
C1191 H1214 0.950 . S
C1192 C1191 1.349 . S
C1192 C1204 1.310 1_455 S
C1193 C1191 1.327 . S
C1193 C1209 1.429 . S
C1193 H1215 0.950 . S
C1194 H1190 0.949 1_455 S
C1194 C1202 1.574 . S
C1194 C1210 1.368 . S
H1195 C1203 0.950 . S
H1196 C1201 0.950 . S
H1197 C1202 0.911 1_655 S
H1198 C1204 0.995 . S
H1199 C1205 0.904 1_655 S
H1200 C1206 0.949 . S
C1201 H1196 0.950 . S
C1201 C1203 1.327 . S
C1201 C1207 1.429 . S
C1202 C1194 1.574 . S
C1202 H1197 0.911 1_455 S
C1202 C1208 1.368 . S
C1203 C1187 1.349 . S
C1203 H1195 0.950 . S
C1203 C1201 1.327 . S
C1204 C1192 1.310 1_655 S
C1204 H1198 0.995 . S
C1204 C1205 1.323 1_655 S
C1205 H1199 0.904 1_455 S
C1205 C1204 1.323 1_455 S
C1205 C1209 1.480 . S
C1206 C1189 1.574 . S
C1206 H1200 0.949 . S
C1206 C1210 1.368 . S
C1207 C1188 1.429 . S
C1207 C1201 1.429 . S
C1207 C1208 1.523 . S
C1208 C1189 1.368 . S
C1208 C1202 1.368 . S
C1208 C1207 1.523 . S
C1209 C1193 1.429 . S
C1209 C1205 1.480 . S
C1209 C1210 1.523 . S
C1210 C1194 1.368 . S
C1210 C1206 1.368 . S
C1210 C1209 1.523 . S
H1211 C1186 0.950 . S
H1212 C1188 0.950 . S
H1213 C1189 0.949 . S
H1214 C1191 0.950 . S
H1215 C1193 0.950 . S
C1216 C1217 1.349 . S
C1216 C1218 1.327 . S
C1216 H1241 0.950 . S
C1217 C1216 1.349 . S
C1217 C1233 1.349 . S
C1218 C1216 1.327 . S
C1218 C1237 1.429 . S
C1218 H1242 0.950 . S
C1219 C1236 1.574 . S
C1219 C1238 1.368 . S
C1219 H1243 0.949 . S
H1220 C1224 0.949 . S
C1221 C1222 1.349 . S
C1221 C1223 1.327 . S
C1221 H1244 0.950 . S
C1222 C1221 1.349 . S
C1222 C1234 1.349 . S
C1223 C1221 1.327 . S
C1223 C1239 1.429 . S
C1223 H1245 0.950 . S
C1224 H1220 0.949 . S
C1224 C1232 1.574 . S
C1224 C1240 1.368 . S
H1225 C1233 0.950 . S
H1226 C1231 0.950 . S
H1227 C1232 0.949 . S
H1228 C1234 0.950 . S
H1229 C1235 0.950 . S
H1230 C1236 0.949 . S
C1231 H1226 0.950 . S
C1231 C1233 1.327 . S
C1231 C1237 1.429 . S
C1232 C1224 1.574 . S
C1232 H1227 0.949 . S
C1232 C1238 1.368 . S
C1233 C1217 1.349 . S
C1233 H1225 0.950 . S
C1233 C1231 1.327 . S
C1234 C1222 1.349 . S
C1234 H1228 0.950 . S
C1234 C1235 1.327 . S
C1235 H1229 0.950 . S
C1235 C1234 1.327 . S
C1235 C1239 1.429 . S
C1236 C1219 1.574 . S
C1236 H1230 0.949 . S
C1236 C1240 1.368 . S
C1237 C1218 1.429 . S
C1237 C1231 1.429 . S
C1237 C1238 1.523 . S
C1238 C1219 1.368 . S
C1238 C1232 1.368 . S
C1238 C1237 1.523 . S
C1239 C1223 1.429 . S
C1239 C1235 1.429 . S
C1239 C1240 1.523 . S
C1240 C1224 1.368 . S
C1240 C1236 1.368 . S
C1240 C1239 1.523 . S
H1241 C1216 0.950 . S
H1242 C1218 0.950 . S
H1243 C1219 0.949 . S
H1244 C1221 0.950 . S
H1245 C1223 0.950 . S
C1246 C1247 1.349 . S
C1246 C1248 1.327 . S
C1246 H1271 0.950 . S
C1247 C1246 1.349 . S
C1247 C1263 1.349 . S
C1248 C1246 1.327 . S
C1248 C1267 1.429 . S
C1248 H1272 0.950 . S
C1249 C1266 1.574 . S
C1249 C1268 1.368 . S
C1249 H1273 0.949 . S
H1250 C1254 0.949 1_455 S
C1251 C1252 1.349 . S
C1251 C1253 1.327 . S
C1251 H1274 0.950 . S
C1252 C1251 1.349 . S
C1252 C1264 1.349 1_655 S
C1253 C1251 1.327 . S
C1253 C1269 1.429 . S
C1253 H1275 0.950 . S
C1254 H1250 0.949 1_655 S
C1254 C1262 1.574 . S
C1254 C1270 1.368 . S
H1255 C1263 0.950 . S
H1256 C1261 0.950 . S
H1257 C1262 0.949 1_455 S
H1258 C1264 0.950 . S
H1259 C1265 0.950 . S
H1260 C1266 0.949 . S
C1261 H1256 0.950 . S
C1261 C1263 1.327 . S
C1261 C1267 1.429 . S
C1262 C1254 1.574 . S
C1262 H1257 0.949 1_655 S
C1262 C1268 1.368 . S
C1263 C1247 1.349 . S
C1263 H1255 0.950 . S
C1263 C1261 1.327 . S
C1264 C1252 1.349 1_455 S
C1264 H1258 0.950 . S
C1264 C1265 1.327 . S
C1265 H1259 0.950 . S
C1265 C1264 1.327 . S
C1265 C1269 1.429 1_455 S
C1266 C1249 1.574 . S
C1266 H1260 0.949 . S
C1266 C1270 1.368 . S
C1267 C1248 1.429 . S
C1267 C1261 1.429 . S
C1267 C1268 1.523 . S
C1268 C1249 1.368 . S
C1268 C1262 1.368 . S
C1268 C1267 1.523 . S
C1269 C1253 1.429 . S
C1269 C1265 1.429 1_655 S
C1269 C1270 1.523 . S
C1270 C1254 1.368 . S
C1270 C1266 1.368 . S
C1270 C1269 1.523 . S
H1271 C1246 0.950 . S
H1272 C1248 0.950 . S
H1273 C1249 0.949 . S
H1274 C1251 0.950 . S
H1275 C1253 0.950 . S
C1276 C1277 1.349 . S
C1276 C1278 1.327 . S
C1276 H1301 0.950 . S
C1277 C1276 1.349 . S
C1277 C1293 1.349 . S
C1278 C1276 1.327 . S
C1278 C1297 1.429 . S
C1278 H1302 0.950 . S
C1279 C1296 1.574 . S
C1279 C1298 1.368 . S
C1279 H1303 0.949 . S
H1280 C1284 0.949 . S
C1281 C1282 1.349 . S
C1281 C1283 1.327 . S
C1281 H1304 0.950 . S
C1282 C1281 1.349 . S
C1282 C1294 1.349 . S
C1283 C1281 1.327 . S
C1283 C1299 1.429 . S
C1283 H1305 0.950 . S
C1284 H1280 0.949 . S
C1284 C1292 1.574 . S
C1284 C1300 1.368 . S
H1285 C1293 0.950 . S
H1286 C1291 0.950 . S
H1287 C1292 0.949 . S
H1288 C1294 0.950 . S
H1289 C1295 0.950 . S
H1290 C1296 0.949 . S
C1291 H1286 0.950 . S
C1291 C1293 1.327 . S
C1291 C1297 1.429 . S
C1292 C1284 1.574 . S
C1292 H1287 0.949 . S
C1292 C1298 1.368 . S
C1293 C1277 1.349 . S
C1293 H1285 0.950 . S
C1293 C1291 1.327 . S
C1294 C1282 1.349 . S
C1294 H1288 0.950 . S
C1294 C1295 1.327 . S
C1295 H1289 0.950 . S
C1295 C1294 1.327 . S
C1295 C1299 1.429 . S
C1296 C1279 1.574 . S
C1296 H1290 0.949 . S
C1296 C1300 1.368 . S
C1297 C1278 1.429 . S
C1297 C1291 1.429 . S
C1297 C1298 1.523 . S
C1298 C1279 1.368 . S
C1298 C1292 1.368 . S
C1298 C1297 1.523 . S
C1299 C1283 1.429 . S
C1299 C1295 1.429 . S
C1299 C1300 1.523 . S
C1300 C1284 1.368 . S
C1300 C1296 1.368 . S
C1300 C1299 1.523 . S
H1301 C1276 0.950 . S
H1302 C1278 0.950 . S
H1303 C1279 0.949 . S
H1304 C1281 0.950 . S
H1305 C1283 0.950 . S
C1306 C1307 1.349 . S
C1306 C1308 1.327 . S
C1306 H1331 0.950 . S
C1307 C1306 1.349 . S
C1307 C1323 1.349 . S
C1308 C1306 1.327 . S
C1308 C1327 1.429 . S
C1308 H1332 0.950 . S
C1309 C1326 1.574 . S
C1309 C1328 1.368 . S
C1309 H1333 0.949 . S
H1310 C1314 0.949 . S
C1311 C1312 1.349 . S
C1311 C1313 1.327 . S
C1311 H1334 0.950 . S
C1312 C1311 1.349 . S
C1312 C1324 1.349 . S
C1313 C1311 1.327 . S
C1313 C1329 1.429 . S
C1313 H1335 0.950 . S
C1314 H1310 0.949 . S
C1314 C1322 1.574 . S
C1314 C1330 1.368 . S
H1315 C1323 0.950 . S
H1316 C1321 0.950 . S
H1317 C1322 0.949 . S
H1318 C1324 0.950 . S
H1319 C1325 0.950 . S
H1320 C1326 0.949 . S
C1321 H1316 0.950 . S
C1321 C1323 1.327 . S
C1321 C1327 1.429 . S
C1322 C1314 1.574 . S
C1322 H1317 0.949 . S
C1322 C1328 1.368 . S
C1323 C1307 1.349 . S
C1323 H1315 0.950 . S
C1323 C1321 1.327 . S
C1324 C1312 1.349 . S
C1324 H1318 0.950 . S
C1324 C1325 1.327 . S
C1325 H1319 0.950 . S
C1325 C1324 1.327 . S
C1325 C1329 1.429 . S
C1326 C1309 1.574 . S
C1326 H1320 0.949 . S
C1326 C1330 1.368 . S
C1327 C1308 1.429 . S
C1327 C1321 1.429 . S
C1327 C1328 1.523 . S
C1328 C1309 1.368 . S
C1328 C1322 1.368 . S
C1328 C1327 1.523 . S
C1329 C1313 1.429 . S
C1329 C1325 1.429 . S
C1329 C1330 1.523 . S
C1330 C1314 1.368 . S
C1330 C1326 1.368 . S
C1330 C1329 1.523 . S
H1331 C1306 0.950 . S
H1332 C1308 0.950 . S
H1333 C1309 0.949 . S
H1334 C1311 0.950 . S
H1335 C1313 0.950 . S
C1336 C1337 1.349 . S
C1336 C1338 1.327 . S
C1336 H1361 0.971 . S
C1337 C1336 1.349 . S
C1337 C1353 1.349 . S
C1338 C1336 1.327 . S
C1338 C1357 1.429 . S
C1338 H1362 0.950 1_556 S
C1339 C1356 1.574 . S
C1339 C1358 1.368 . S
C1339 H1363 0.949 . S
H1340 C1344 0.949 . S
C1341 C1342 1.349 1_556 S
C1341 C1343 1.327 . S
C1341 H1364 0.950 . S
C1342 C1341 1.349 1_554 S
C1342 C1354 1.349 . S
C1343 C1341 1.327 . S
C1343 C1359 1.429 1_556 S
C1343 H1365 0.950 . S
C1344 H1340 0.949 . S
C1344 C1352 1.574 . S
C1344 C1360 1.368 1_554 S
H1345 C1353 0.950 . S
H1346 C1351 0.950 . S
H1347 C1352 0.949 . S
H1348 C1354 0.950 . S
H1349 C1355 0.950 . S
H1350 C1356 0.949 . S
C1351 H1346 0.950 . S
C1351 C1353 1.327 . S
C1351 C1357 1.429 . S
C1352 C1344 1.574 . S
C1352 H1347 0.949 . S
C1352 C1358 1.368 1_554 S
C1353 C1337 1.349 . S
C1353 H1345 0.950 . S
C1353 C1351 1.327 . S
C1354 C1342 1.349 . S
C1354 H1348 0.950 . S
C1354 C1355 1.327 . S
C1355 H1349 0.950 . S
C1355 C1354 1.327 . S
C1355 C1359 1.429 . S
C1356 C1339 1.574 . S
C1356 H1350 0.949 . S
C1356 C1360 1.368 . S
C1357 C1338 1.429 . S
C1357 C1351 1.429 . S
C1357 C1358 1.523 . S
C1358 C1339 1.368 . S
C1358 C1352 1.368 1_556 S
C1358 C1357 1.523 . S
C1359 C1343 1.429 1_554 S
C1359 C1355 1.429 . S
C1359 C1360 1.523 1_554 S
C1360 C1344 1.368 1_556 S
C1360 C1356 1.368 . S
C1360 C1359 1.523 1_556 S
H1361 C1336 0.971 . S
H1362 C1338 0.950 1_554 S
H1363 C1339 0.949 . S
H1364 C1341 0.950 . S
H1365 C1343 0.950 . S
C1366 C1367 1.349 . S
C1366 C1368 1.327 . S
C1366 H1391 0.950 . S
C1367 C1366 1.349 . S
C1367 C1383 1.349 . S
C1368 C1366 1.327 . S
C1368 C1387 1.429 . S
C1368 H1392 0.950 . S
C1369 C1386 1.574 . S
C1369 C1388 1.368 . S
C1369 H1393 0.949 . S
H1370 C1374 0.949 . S
C1371 C1372 1.349 . S
C1371 C1373 1.327 . S
C1371 H1394 0.950 . S
C1372 C1371 1.349 . S
C1372 C1384 1.349 . S
C1373 C1371 1.327 . S
C1373 C1389 1.429 . S
C1373 H1395 0.950 . S
C1374 H1370 0.949 . S
C1374 C1382 1.574 . S
C1374 C1390 1.368 . S
H1375 C1383 0.950 . S
H1376 C1381 0.950 . S
H1377 C1382 0.949 . S
H1378 C1384 0.950 . S
H1379 C1385 0.950 . S
H1380 C1386 0.949 . S
C1381 H1376 0.950 . S
C1381 C1383 1.327 . S
C1381 C1387 1.429 . S
C1382 C1374 1.574 . S
C1382 H1377 0.949 . S
C1382 C1388 1.368 . S
C1383 C1367 1.349 . S
C1383 H1375 0.950 . S
C1383 C1381 1.327 . S
C1384 C1372 1.349 . S
C1384 H1378 0.950 . S
C1384 C1385 1.327 . S
C1385 H1379 0.950 . S
C1385 C1384 1.327 . S
C1385 C1389 1.429 . S
C1386 C1369 1.574 . S
C1386 H1380 0.949 . S
C1386 C1390 1.368 . S
C1387 C1368 1.429 . S
C1387 C1381 1.429 . S
C1387 C1388 1.523 . S
C1388 C1369 1.368 . S
C1388 C1382 1.368 . S
C1388 C1387 1.523 . S
C1389 C1373 1.429 . S
C1389 C1385 1.429 . S
C1389 C1390 1.523 . S
C1390 C1374 1.368 . S
C1390 C1386 1.368 . S
C1390 C1389 1.523 . S
H1391 C1366 0.950 . S
H1392 C1368 0.950 . S
H1393 C1369 0.949 . S
H1394 C1371 0.950 . S
H1395 C1373 0.950 . S
C1396 C1397 1.349 . S
C1396 C1398 1.327 . S
C1396 H1421 0.950 . S
C1397 C1396 1.349 . S
C1397 C1413 1.349 . S
C1398 C1396 1.327 . S
C1398 C1417 1.429 . S
C1398 H1422 0.950 . S
C1399 C1416 1.574 . S
C1399 C1418 1.368 . S
C1399 H1423 0.949 . S
H1400 C1404 0.949 . S
C1401 C1402 1.349 . S
C1401 C1403 1.327 . S
C1401 H1424 0.950 . S
C1402 C1401 1.349 . S
C1402 C1414 1.349 . S
C1403 C1401 1.327 . S
C1403 C1419 1.429 . S
C1403 H1425 0.950 . S
C1404 H1400 0.949 . S
C1404 C1412 1.574 . S
C1404 C1420 1.368 . S
H1405 C1413 0.950 . S
H1406 C1411 0.950 . S
H1407 C1412 0.949 . S
H1408 C1414 0.950 . S
H1409 C1415 0.950 . S
H1410 C1416 0.949 . S
C1411 H1406 0.950 . S
C1411 C1413 1.327 . S
C1411 C1417 1.429 . S
C1412 C1404 1.574 . S
C1412 H1407 0.949 . S
C1412 C1418 1.368 . S
C1413 C1397 1.349 . S
C1413 H1405 0.950 . S
C1413 C1411 1.327 . S
C1414 C1402 1.349 . S
C1414 H1408 0.950 . S
C1414 C1415 1.327 . S
C1415 H1409 0.950 . S
C1415 C1414 1.327 . S
C1415 C1419 1.429 . S
C1416 C1399 1.574 . S
C1416 H1410 0.949 . S
C1416 C1420 1.368 . S
C1417 C1398 1.429 . S
C1417 C1411 1.429 . S
C1417 C1418 1.523 . S
C1418 C1399 1.368 . S
C1418 C1412 1.368 . S
C1418 C1417 1.523 . S
C1419 C1403 1.429 . S
C1419 C1415 1.429 . S
C1419 C1420 1.523 . S
C1420 C1404 1.368 . S
C1420 C1416 1.368 . S
C1420 C1419 1.523 . S
H1421 C1396 0.950 . S
H1422 C1398 0.950 . S
H1423 C1399 0.949 . S
H1424 C1401 0.950 . S
H1425 C1403 0.950 . S
C1426 C1427 1.349 . S
C1426 C1428 1.327 . S
C1426 H1451 0.950 . S
C1427 C1426 1.349 . S
C1427 C1443 1.349 . S
C1428 C1426 1.327 . S
C1428 C1447 1.429 . S
C1428 H1452 0.950 . S
C1429 C1446 1.574 . S
C1429 C1448 1.368 . S
C1429 H1453 0.949 . S
H1430 C1434 0.949 . S
C1431 C1432 1.349 . S
C1431 C1433 1.327 . S
C1431 H1454 0.950 . S
C1432 C1431 1.349 . S
C1432 C1444 1.349 . S
C1433 C1431 1.327 . S
C1433 C1449 1.429 . S
C1433 H1455 0.950 . S
C1434 H1430 0.949 . S
C1434 C1442 1.574 . S
C1434 C1450 1.368 . S
H1435 C1443 0.950 . S
H1436 C1441 0.950 . S
H1437 C1442 0.949 . S
H1438 C1444 0.950 . S
H1439 C1445 0.950 . S
H1440 C1446 0.949 . S
C1441 H1436 0.950 . S
C1441 C1443 1.327 . S
C1441 C1447 1.429 . S
C1442 C1434 1.574 . S
C1442 H1437 0.949 . S
C1442 C1448 1.368 . S
C1443 C1427 1.349 . S
C1443 H1435 0.950 . S
C1443 C1441 1.327 . S
C1444 C1432 1.349 . S
C1444 H1438 0.950 . S
C1444 C1445 1.327 . S
C1445 H1439 0.950 . S
C1445 C1444 1.327 . S
C1445 C1449 1.429 . S
C1446 C1429 1.574 . S
C1446 H1440 0.949 . S
C1446 C1450 1.368 . S
C1447 C1428 1.429 . S
C1447 C1441 1.429 . S
C1447 C1448 1.523 . S
C1448 C1429 1.368 . S
C1448 C1442 1.368 . S
C1448 C1447 1.523 . S
C1449 C1433 1.429 . S
C1449 C1445 1.429 . S
C1449 C1450 1.523 . S
C1450 C1434 1.368 . S
C1450 C1446 1.368 . S
C1450 C1449 1.523 . S
H1451 C1426 0.950 . S
H1452 C1428 0.950 . S
H1453 C1429 0.949 . S
H1454 C1431 0.950 . S
H1455 C1433 0.950 . S
C1456 C1457 1.349 . S
C1456 C1458 1.327 . S
C1456 H1481 0.950 . S
C1457 C1456 1.349 . S
C1457 C1473 1.349 . S
C1458 C1456 1.327 . S
C1458 C1477 1.429 . S
C1458 H1482 0.950 . S
C1459 C1476 1.574 . S
C1459 C1478 1.368 . S
C1459 H1483 0.949 . S
H1460 C1464 0.949 . S
C1461 C1462 1.349 . S
C1461 C1463 1.327 . S
C1461 H1484 0.950 . S
C1462 C1461 1.349 . S
C1462 C1474 1.349 . S
C1463 C1461 1.327 . S
C1463 C1479 1.429 . S
C1463 H1485 0.950 . S
C1464 H1460 0.949 . S
C1464 C1472 1.574 . S
C1464 C1480 1.368 . S
H1465 C1473 0.950 . S
H1466 C1471 0.950 . S
H1467 C1472 0.949 . S
H1468 C1474 0.950 . S
H1469 C1475 0.950 . S
H1470 C1476 0.949 . S
C1471 H1466 0.950 . S
C1471 C1473 1.327 . S
C1471 C1477 1.429 . S
C1472 C1464 1.574 . S
C1472 H1467 0.949 . S
C1472 C1478 1.368 . S
C1473 C1457 1.349 . S
C1473 H1465 0.950 . S
C1473 C1471 1.327 . S
C1474 C1462 1.349 . S
C1474 H1468 0.950 . S
C1474 C1475 1.327 . S
C1475 H1469 0.950 . S
C1475 C1474 1.327 . S
C1475 C1479 1.429 . S
C1476 C1459 1.574 . S
C1476 H1470 0.949 . S
C1476 C1480 1.368 . S
C1477 C1458 1.429 . S
C1477 C1471 1.429 . S
C1477 C1478 1.523 . S
C1478 C1459 1.368 . S
C1478 C1472 1.368 . S
C1478 C1477 1.523 . S
C1479 C1463 1.429 . S
C1479 C1475 1.429 . S
C1479 C1480 1.523 . S
C1480 C1464 1.368 . S
C1480 C1476 1.368 . S
C1480 C1479 1.523 . S
H1481 C1456 0.950 . S
H1482 C1458 0.950 . S
H1483 C1459 0.949 . S
H1484 C1461 0.950 . S
H1485 C1463 0.950 . S
C1486 C1487 1.349 . S
C1486 C1488 1.327 . S
C1486 H1511 0.950 . S
C1487 C1486 1.349 . S
C1487 C1503 1.349 . S
C1488 C1486 1.327 . S
C1488 C1507 1.429 . S
C1488 H1512 0.950 . S
C1489 C1506 1.574 . S
C1489 C1508 1.368 . S
C1489 H1513 0.949 . S
H1490 C1494 0.949 . S
C1491 C1492 1.349 . S
C1491 C1493 1.327 . S
C1491 H1514 0.950 . S
C1492 C1491 1.349 . S
C1492 C1504 1.349 . S
C1493 C1491 1.327 . S
C1493 C1509 1.429 . S
C1493 H1515 0.950 . S
C1494 H1490 0.949 . S
C1494 C1502 1.574 . S
C1494 C1510 1.368 . S
H1495 C1503 0.950 . S
H1496 C1501 0.950 . S
H1497 C1502 0.949 . S
H1498 C1504 0.950 . S
H1499 C1505 0.950 . S
H1500 C1506 0.949 . S
C1501 H1496 0.950 . S
C1501 C1503 1.327 . S
C1501 C1507 1.429 . S
C1502 C1494 1.574 . S
C1502 H1497 0.949 . S
C1502 C1508 1.368 . S
C1503 C1487 1.349 . S
C1503 H1495 0.950 . S
C1503 C1501 1.327 . S
C1504 C1492 1.349 . S
C1504 H1498 0.950 . S
C1504 C1505 1.327 . S
C1505 H1499 0.950 . S
C1505 C1504 1.327 . S
C1505 C1509 1.429 . S
C1506 C1489 1.574 . S
C1506 H1500 0.949 . S
C1506 C1510 1.368 . S
C1507 C1488 1.429 . S
C1507 C1501 1.429 . S
C1507 C1508 1.523 . S
C1508 C1489 1.368 . S
C1508 C1502 1.368 . S
C1508 C1507 1.523 . S
C1509 C1493 1.429 . S
C1509 C1505 1.429 . S
C1509 C1510 1.523 . S
C1510 C1494 1.368 . S
C1510 C1506 1.368 . S
C1510 C1509 1.523 . S
H1511 C1486 0.950 . S
H1512 C1488 0.950 . S
H1513 C1489 0.949 . S
H1514 C1491 0.950 . S
H1515 C1493 0.950 . S
C1516 C1517 1.349 . S
C1516 C1518 1.327 . S
C1516 H1541 0.950 . S
C1517 C1516 1.349 . S
C1517 C1533 1.349 . S
C1518 C1516 1.327 . S
C1518 C1537 1.429 . S
C1518 H1542 0.950 . S
C1519 C1536 1.574 . S
C1519 C1538 1.368 . S
C1519 H1543 0.949 . S
H1520 C1524 0.949 . S
C1521 C1522 1.349 . S
C1521 C1523 1.327 . S
C1521 H1544 0.950 . S
C1522 C1521 1.349 . S
C1522 C1534 1.349 . S
C1523 C1521 1.327 . S
C1523 C1539 1.429 . S
C1523 H1545 0.950 . S
C1524 H1520 0.949 . S
C1524 C1532 1.574 . S
C1524 C1540 1.368 . S
H1525 C1533 0.950 . S
H1526 C1531 0.950 . S
H1527 C1532 0.949 . S
H1528 C1534 0.950 . S
H1529 C1535 0.950 . S
H1530 C1536 0.949 . S
C1531 H1526 0.950 . S
C1531 C1533 1.327 . S
C1531 C1537 1.429 . S
C1532 C1524 1.574 . S
C1532 H1527 0.949 . S
C1532 C1538 1.368 . S
C1533 C1517 1.349 . S
C1533 H1525 0.950 . S
C1533 C1531 1.327 . S
C1534 C1522 1.349 . S
C1534 H1528 0.950 . S
C1534 C1535 1.327 . S
C1535 H1529 0.950 . S
C1535 C1534 1.327 . S
C1535 C1539 1.429 . S
C1536 C1519 1.574 . S
C1536 H1530 0.949 . S
C1536 C1540 1.368 . S
C1537 C1518 1.429 . S
C1537 C1531 1.429 . S
C1537 C1538 1.523 . S
C1538 C1519 1.368 . S
C1538 C1532 1.368 . S
C1538 C1537 1.523 . S
C1539 C1523 1.429 . S
C1539 C1535 1.429 . S
C1539 C1540 1.523 . S
C1540 C1524 1.368 . S
C1540 C1536 1.368 . S
C1540 C1539 1.523 . S
H1541 C1516 0.950 . S
H1542 C1518 0.950 . S
H1543 C1519 0.949 . S
H1544 C1521 0.950 . S
H1545 C1523 0.950 . S
C1546 C1547 1.349 . S
C1546 C1548 1.327 . S
C1546 H1571 0.950 . S
C1547 C1546 1.349 . S
C1547 C1563 1.349 . S
C1548 C1546 1.327 . S
C1548 C1567 1.429 . S
C1548 H1572 0.950 . S
C1549 C1566 1.574 . S
C1549 C1568 1.368 . S
C1549 H1573 0.949 1_545 S
H1550 C1554 0.949 . S
C1551 C1552 1.349 1_565 S
C1551 C1553 1.327 . S
C1551 H1574 0.950 . S
C1552 C1551 1.349 1_545 S
C1552 C1564 1.349 . S
C1553 C1551 1.327 . S
C1553 C1569 1.429 1_565 S
C1553 H1575 0.950 . S
C1554 H1550 0.949 . S
C1554 C1562 1.574 . S
C1554 C1570 1.368 . S
H1555 C1563 0.950 . S
H1556 C1561 1.003 . S
H1557 C1562 0.949 . S
H1558 C1564 0.950 . S
H1559 C1565 0.950 . S
H1560 C1566 0.949 1_565 S
C1561 H1556 1.003 . S
C1561 C1563 1.327 . S
C1561 C1567 1.429 . S
C1562 C1554 1.574 . S
C1562 H1557 0.949 . S
C1562 C1568 1.368 . S
C1563 C1547 1.349 . S
C1563 H1555 0.950 . S
C1563 C1561 1.327 . S
C1564 C1552 1.349 . S
C1564 H1558 0.950 . S
C1564 C1565 1.327 . S
C1565 H1559 0.950 . S
C1565 C1564 1.327 . S
C1565 C1569 1.429 . S
C1566 C1549 1.574 . S
C1566 H1560 0.949 1_545 S
C1566 C1570 1.368 . S
C1567 C1548 1.429 . S
C1567 C1561 1.429 . S
C1567 C1568 1.523 . S
C1568 C1549 1.368 . S
C1568 C1562 1.368 . S
C1568 C1567 1.523 . S
C1569 C1553 1.429 1_545 S
C1569 C1565 1.429 . S
C1569 C1570 1.523 . S
C1570 C1554 1.368 . S
C1570 C1566 1.368 . S
C1570 C1569 1.523 . S
H1571 C1546 0.950 . S
H1572 C1548 0.950 . S
H1573 C1549 0.949 1_565 S
H1574 C1551 0.950 . S
H1575 C1553 0.950 . S
C1576 C1577 1.349 . S
C1576 C1578 1.327 . S
C1576 H1601 0.950 . S
C1577 C1576 1.349 . S
C1577 C1593 1.349 . S
C1578 C1576 1.327 . S
C1578 C1597 1.429 . S
C1578 H1602 0.950 . S
C1579 C1596 1.574 . S
C1579 C1598 1.368 . S
C1579 H1603 0.949 . S
H1580 C1584 0.949 . S
C1581 C1582 1.349 . S
C1581 C1583 1.327 . S
C1581 H1604 0.950 . S
C1582 C1581 1.349 . S
C1582 C1594 1.349 . S
C1583 C1581 1.327 . S
C1583 C1599 1.429 . S
C1583 H1605 0.950 . S
C1584 H1580 0.949 . S
C1584 C1592 1.574 . S
C1584 C1600 1.368 . S
H1585 C1593 0.950 . S
H1586 C1591 0.950 . S
H1587 C1592 0.949 . S
H1588 C1594 0.950 . S
H1589 C1595 0.950 . S
H1590 C1596 0.949 . S
C1591 H1586 0.950 . S
C1591 C1593 1.327 . S
C1591 C1597 1.429 . S
C1592 C1584 1.574 . S
C1592 H1587 0.949 . S
C1592 C1598 1.368 . S
C1593 C1577 1.349 . S
C1593 H1585 0.950 . S
C1593 C1591 1.327 . S
C1594 C1582 1.349 . S
C1594 H1588 0.950 . S
C1594 C1595 1.327 . S
C1595 H1589 0.950 . S
C1595 C1594 1.327 . S
C1595 C1599 1.429 . S
C1596 C1579 1.574 . S
C1596 H1590 0.949 . S
C1596 C1600 1.368 . S
C1597 C1578 1.429 . S
C1597 C1591 1.429 . S
C1597 C1598 1.523 . S
C1598 C1579 1.368 . S
C1598 C1592 1.368 . S
C1598 C1597 1.523 . S
C1599 C1583 1.429 . S
C1599 C1595 1.429 . S
C1599 C1600 1.523 . S
C1600 C1584 1.368 . S
C1600 C1596 1.368 . S
C1600 C1599 1.523 . S
H1601 C1576 0.950 . S
H1602 C1578 0.950 . S
H1603 C1579 0.949 . S
H1604 C1581 0.950 . S
H1605 C1583 0.950 . S
C1606 C1607 1.349 . S
C1606 C1608 1.327 . S
C1606 H1631 0.950 . S
C1607 C1606 1.349 . S
C1607 C1623 1.349 . S
C1608 C1606 1.327 . S
C1608 C1627 1.429 . S
C1608 H1632 0.950 . S
C1609 C1626 1.574 . S
C1609 C1628 1.368 . S
C1609 H1633 0.949 . S
H1610 C1614 0.949 . S
C1611 C1612 1.349 . S
C1611 C1613 1.327 . S
C1611 H1634 0.950 . S
C1612 C1611 1.349 . S
C1612 C1624 1.349 . S
C1613 C1611 1.327 . S
C1613 C1629 1.429 . S
C1613 H1635 0.950 . S
C1614 H1610 0.949 . S
C1614 C1622 1.574 . S
C1614 C1630 1.368 . S
H1615 C1623 0.950 . S
H1616 C1621 0.950 . S
H1617 C1622 0.949 . S
H1618 C1624 0.950 . S
H1619 C1625 0.950 . S
H1620 C1626 0.949 . S
C1621 H1616 0.950 . S
C1621 C1623 1.327 . S
C1621 C1627 1.429 . S
C1622 C1614 1.574 . S
C1622 H1617 0.949 . S
C1622 C1628 1.368 . S
C1623 C1607 1.349 . S
C1623 H1615 0.950 . S
C1623 C1621 1.327 . S
C1624 C1612 1.349 . S
C1624 H1618 0.950 . S
C1624 C1625 1.327 . S
C1625 H1619 0.950 . S
C1625 C1624 1.327 . S
C1625 C1629 1.429 . S
C1626 C1609 1.574 . S
C1626 H1620 0.949 . S
C1626 C1630 1.368 . S
C1627 C1608 1.429 . S
C1627 C1621 1.429 . S
C1627 C1628 1.523 . S
C1628 C1609 1.368 . S
C1628 C1622 1.368 . S
C1628 C1627 1.523 . S
C1629 C1613 1.429 . S
C1629 C1625 1.429 . S
C1629 C1630 1.523 . S
C1630 C1614 1.368 . S
C1630 C1626 1.368 . S
C1630 C1629 1.523 . S
H1631 C1606 0.950 . S
H1632 C1608 0.950 . S
H1633 C1609 0.949 . S
H1634 C1611 0.950 . S
H1635 C1613 0.950 . S
C1636 C1637 1.349 . S
C1636 C1638 1.327 . S
C1636 H1661 0.950 . S
C1637 C1636 1.349 . S
C1637 C1653 1.349 . S
C1638 C1636 1.327 . S
C1638 C1657 1.429 . S
C1638 H1662 0.950 . S
C1639 C1656 1.574 . S
C1639 C1658 1.368 . S
C1639 H1663 0.949 . S
H1640 C1644 0.949 . S
C1641 C1642 1.349 . S
C1641 C1643 1.327 . S
C1641 H1664 0.950 . S
C1642 C1641 1.349 . S
C1642 C1654 1.349 . S
C1643 C1641 1.327 . S
C1643 C1659 1.429 . S
C1643 H1665 0.950 . S
C1644 H1640 0.949 . S
C1644 C1652 1.574 . S
C1644 C1660 1.368 . S
H1645 C1653 0.950 . S
H1646 C1651 0.950 . S
H1647 C1652 0.949 . S
H1648 C1654 0.950 . S
H1649 C1655 0.950 . S
H1650 C1656 0.949 . S
C1651 H1646 0.950 . S
C1651 C1653 1.327 . S
C1651 C1657 1.429 . S
C1652 C1644 1.574 . S
C1652 H1647 0.949 . S
C1652 C1658 1.368 . S
C1653 C1637 1.349 . S
C1653 H1645 0.950 . S
C1653 C1651 1.327 . S
C1654 C1642 1.349 . S
C1654 H1648 0.950 . S
C1654 C1655 1.327 . S
C1655 H1649 0.950 . S
C1655 C1654 1.327 . S
C1655 C1659 1.429 . S
C1656 C1639 1.574 . S
C1656 H1650 0.949 . S
C1656 C1660 1.368 . S
C1657 C1638 1.429 . S
C1657 C1651 1.429 . S
C1657 C1658 1.523 . S
C1658 C1639 1.368 . S
C1658 C1652 1.368 . S
C1658 C1657 1.523 . S
C1659 C1643 1.429 . S
C1659 C1655 1.429 . S
C1659 C1660 1.523 . S
C1660 C1644 1.368 . S
C1660 C1656 1.368 . S
C1660 C1659 1.523 . S
H1661 C1636 0.950 . S
H1662 C1638 0.950 . S
H1663 C1639 0.949 . S
H1664 C1641 0.950 . S
H1665 C1643 0.950 . S
C1666 C1667 1.349 . S
C1666 C1668 1.327 . S
C1666 H1691 0.950 . S
C1667 C1666 1.349 . S
C1667 C1683 1.349 . S
C1668 C1666 1.327 . S
C1668 C1687 1.429 . S
C1668 H1692 0.950 . S
C1669 C1686 1.574 . S
C1669 C1688 1.368 . S
C1669 H1693 0.949 . S
H1670 C1674 0.949 . S
C1671 C1672 1.349 . S
C1671 C1673 1.327 . S
C1671 H1694 0.950 . S
C1672 C1671 1.349 . S
C1672 C1684 1.349 . S
C1673 C1671 1.327 . S
C1673 C1689 1.429 . S
C1673 H1695 0.950 . S
C1674 H1670 0.949 . S
C1674 C1682 1.574 . S
C1674 C1690 1.368 . S
H1675 C1683 0.950 . S
H1676 C1681 0.950 . S
H1677 C1682 0.949 . S
H1678 C1684 0.950 . S
H1679 C1685 0.950 . S
H1680 C1686 0.949 . S
C1681 H1676 0.950 . S
C1681 C1683 1.327 . S
C1681 C1687 1.429 . S
C1682 C1674 1.574 . S
C1682 H1677 0.949 . S
C1682 C1688 1.368 . S
C1683 C1667 1.349 . S
C1683 H1675 0.950 . S
C1683 C1681 1.327 . S
C1684 C1672 1.349 . S
C1684 H1678 0.950 . S
C1684 C1685 1.327 . S
C1685 H1679 0.950 . S
C1685 C1684 1.327 . S
C1685 C1689 1.429 . S
C1686 C1669 1.574 . S
C1686 H1680 0.949 . S
C1686 C1690 1.368 . S
C1687 C1668 1.429 . S
C1687 C1681 1.429 . S
C1687 C1688 1.523 . S
C1688 C1669 1.368 . S
C1688 C1682 1.368 . S
C1688 C1687 1.523 . S
C1689 C1673 1.429 . S
C1689 C1685 1.429 . S
C1689 C1690 1.523 . S
C1690 C1674 1.368 . S
C1690 C1686 1.368 . S
C1690 C1689 1.523 . S
H1691 C1666 0.950 . S
H1692 C1668 0.950 . S
H1693 C1669 0.949 . S
H1694 C1671 0.950 . S
H1695 C1673 0.950 . S
C1696 C1697 1.349 . S
C1696 C1698 1.327 . S
C1696 H1721 0.950 . S
C1697 C1696 1.349 . S
C1697 C1713 1.349 . S
C1698 C1696 1.327 . S
C1698 C1717 1.429 . S
C1698 H1722 0.950 . S
C1699 C1716 1.574 . S
C1699 C1718 1.368 . S
C1699 H1723 0.949 . S
H1700 C1704 0.949 . S
C1701 C1702 1.349 . S
C1701 C1703 1.327 . S
C1701 H1724 0.950 . S
C1702 C1701 1.349 . S
C1702 C1714 1.349 . S
C1703 C1701 1.327 . S
C1703 C1719 1.429 . S
C1703 H1725 0.950 . S
C1704 H1700 0.949 . S
C1704 C1712 1.574 . S
C1704 C1720 1.368 . S
H1705 C1713 0.950 . S
H1706 C1711 0.950 . S
H1707 C1712 0.949 . S
H1708 C1714 0.950 . S
H1709 C1715 0.950 . S
H1710 C1716 0.949 . S
C1711 H1706 0.950 . S
C1711 C1713 1.327 . S
C1711 C1717 1.429 . S
C1712 C1704 1.574 . S
C1712 H1707 0.949 . S
C1712 C1718 1.368 . S
C1713 C1697 1.349 . S
C1713 H1705 0.950 . S
C1713 C1711 1.327 . S
C1714 C1702 1.349 . S
C1714 H1708 0.950 . S
C1714 C1715 1.327 . S
C1715 H1709 0.950 . S
C1715 C1714 1.327 . S
C1715 C1719 1.429 . S
C1716 C1699 1.574 . S
C1716 H1710 0.949 . S
C1716 C1720 1.368 . S
C1717 C1698 1.429 . S
C1717 C1711 1.429 . S
C1717 C1718 1.523 . S
C1718 C1699 1.368 . S
C1718 C1712 1.368 . S
C1718 C1717 1.523 . S
C1719 C1703 1.429 . S
C1719 C1715 1.429 . S
C1719 C1720 1.523 . S
C1720 C1704 1.368 . S
C1720 C1716 1.368 . S
C1720 C1719 1.523 . S
H1721 C1696 0.950 . S
H1722 C1698 0.950 . S
H1723 C1699 0.949 . S
H1724 C1701 0.950 . S
H1725 C1703 0.950 . S
C1726 C1727 1.349 . S
C1726 C1728 1.327 . S
C1726 H1751 0.950 . S
C1727 C1726 1.349 . S
C1727 C1743 1.349 . S
C1728 C1726 1.327 . S
C1728 C1747 1.429 . S
C1728 H1752 0.950 . S
C1729 C1746 1.574 . S
C1729 C1748 1.368 . S
C1729 H1753 0.949 . S
H1730 C1734 0.949 . S
C1731 C1732 1.349 . S
C1731 C1733 1.327 . S
C1731 H1754 0.950 . S
C1732 C1731 1.349 . S
C1732 C1744 1.349 . S
C1733 C1731 1.327 . S
C1733 C1749 1.429 . S
C1733 H1755 0.950 . S
C1734 H1730 0.949 . S
C1734 C1742 1.574 . S
C1734 C1750 1.368 . S
H1735 C1743 0.950 . S
H1736 C1741 0.950 . S
H1737 C1742 0.949 . S
H1738 C1744 0.950 . S
H1739 C1745 0.950 . S
H1740 C1746 0.949 . S
C1741 H1736 0.950 . S
C1741 C1743 1.327 . S
C1741 C1747 1.429 . S
C1742 C1734 1.574 . S
C1742 H1737 0.949 . S
C1742 C1748 1.368 . S
C1743 C1727 1.349 . S
C1743 H1735 0.950 . S
C1743 C1741 1.327 . S
C1744 C1732 1.349 . S
C1744 H1738 0.950 . S
C1744 C1745 1.327 . S
C1745 H1739 0.950 . S
C1745 C1744 1.327 . S
C1745 C1749 1.429 . S
C1746 C1729 1.574 . S
C1746 H1740 0.949 . S
C1746 C1750 1.368 . S
C1747 C1728 1.429 . S
C1747 C1741 1.429 . S
C1747 C1748 1.523 . S
C1748 C1729 1.368 . S
C1748 C1742 1.368 . S
C1748 C1747 1.523 . S
C1749 C1733 1.429 . S
C1749 C1745 1.429 . S
C1749 C1750 1.523 . S
C1750 C1734 1.368 . S
C1750 C1746 1.368 . S
C1750 C1749 1.523 . S
H1751 C1726 0.950 . S
H1752 C1728 0.950 . S
H1753 C1729 0.949 . S
H1754 C1731 0.950 . S
H1755 C1733 0.950 . S
C1756 C1757 1.349 . S
C1756 C1758 1.327 . S
C1756 H1781 0.950 . S
C1757 C1756 1.349 . S
C1757 C1773 1.349 . S
C1758 C1756 1.327 . S
C1758 C1777 1.429 . S
C1758 H1782 0.950 . S
C1759 C1776 1.574 . S
C1759 C1778 1.368 . S
C1759 H1783 0.949 . S
H1760 C1764 0.949 . S
C1761 C1762 1.349 . S
C1761 C1763 1.327 . S
C1761 H1784 0.950 . S
C1762 C1761 1.349 . S
C1762 C1774 1.349 . S
C1763 C1761 1.327 . S
C1763 C1779 1.429 . S
C1763 H1785 0.950 . S
C1764 H1760 0.949 . S
C1764 C1772 1.574 . S
C1764 C1780 1.368 . S
H1765 C1773 0.950 . S
H1766 C1771 0.950 . S
H1767 C1772 0.949 . S
H1768 C1774 0.950 . S
H1769 C1775 0.950 . S
H1770 C1776 0.949 . S
C1771 H1766 0.950 . S
C1771 C1773 1.327 . S
C1771 C1777 1.429 . S
C1772 C1764 1.574 . S
C1772 H1767 0.949 . S
C1772 C1778 1.368 . S
C1773 C1757 1.349 . S
C1773 H1765 0.950 . S
C1773 C1771 1.327 . S
C1774 C1762 1.349 . S
C1774 H1768 0.950 . S
C1774 C1775 1.327 . S
C1775 H1769 0.950 . S
C1775 C1774 1.327 . S
C1775 C1779 1.429 . S
C1776 C1759 1.574 . S
C1776 H1770 0.949 . S
C1776 C1780 1.368 . S
C1777 C1758 1.429 . S
C1777 C1771 1.429 . S
C1777 C1778 1.523 . S
C1778 C1759 1.368 . S
C1778 C1772 1.368 . S
C1778 C1777 1.523 . S
C1779 C1763 1.429 . S
C1779 C1775 1.429 . S
C1779 C1780 1.523 . S
C1780 C1764 1.368 . S
C1780 C1776 1.368 . S
C1780 C1779 1.523 . S
H1781 C1756 0.950 . S
H1782 C1758 0.950 . S
H1783 C1759 0.949 . S
H1784 C1761 0.950 . S
H1785 C1763 0.950 . S
C1786 C1787 1.349 . S
C1786 C1788 1.327 . S
C1786 H1811 0.950 . S
C1787 C1786 1.349 . S
C1787 C1803 1.349 . S
C1788 C1786 1.327 . S
C1788 C1807 1.429 . S
C1788 H1812 0.950 . S
C1789 C1806 1.574 . S
C1789 C1808 1.368 . S
C1789 H1813 0.949 . S
H1790 C1794 0.949 . S
C1791 C1792 1.350 1_455 S
C1791 C1793 1.328 1_455 S
C1791 H1814 0.948 . S
C1792 C1791 1.350 1_655 S
C1792 C1804 1.349 . S
C1793 C1791 1.328 1_655 S
C1793 C1809 1.429 . S
C1793 H1815 0.949 . S
C1794 H1790 0.949 . S
C1794 C1802 1.574 . S
C1794 C1810 1.368 . S
H1795 C1803 0.950 . S
H1796 C1801 0.950 . S
H1797 C1802 0.949 . S
H1798 C1804 0.950 . S
H1799 C1805 0.950 . S
H1800 C1806 0.949 . S
C1801 H1796 0.950 . S
C1801 C1803 1.327 . S
C1801 C1807 1.429 . S
C1802 C1794 1.574 . S
C1802 H1797 0.949 . S
C1802 C1808 1.368 . S
C1803 C1787 1.349 . S
C1803 H1795 0.950 . S
C1803 C1801 1.327 . S
C1804 C1792 1.349 . S
C1804 H1798 0.950 . S
C1804 C1805 1.327 . S
C1805 H1799 0.950 . S
C1805 C1804 1.327 . S
C1805 C1809 1.429 . S
C1806 C1789 1.574 . S
C1806 H1800 0.949 . S
C1806 C1810 1.368 . S
C1807 C1788 1.429 . S
C1807 C1801 1.429 . S
C1807 C1808 1.523 . S
C1808 C1789 1.368 . S
C1808 C1802 1.368 . S
C1808 C1807 1.523 . S
C1809 C1793 1.429 . S
C1809 C1805 1.429 . S
C1809 C1810 1.523 . S
C1810 C1794 1.368 . S
C1810 C1806 1.368 . S
C1810 C1809 1.523 . S
H1811 C1786 0.950 . S
H1812 C1788 0.950 . S
H1813 C1789 0.949 . S
H1814 C1791 0.948 . S
H1815 C1793 0.949 . S
C1816 C1817 1.349 . S
C1816 C1818 1.327 . S
C1816 H1841 0.950 . S
C1817 C1816 1.349 . S
C1817 C1833 1.349 . S
C1818 C1816 1.327 . S
C1818 C1837 1.429 . S
C1818 H1842 0.950 . S
C1819 C1836 1.574 . S
C1819 C1838 1.368 . S
C1819 H1843 0.949 . S
H1820 C1824 0.949 . S
C1821 C1822 1.349 . S
C1821 C1823 1.327 . S
C1821 H1844 0.950 . S
C1822 C1821 1.349 . S
C1822 C1834 1.349 . S
C1823 C1821 1.327 . S
C1823 C1839 1.429 . S
C1823 H1845 0.950 . S
C1824 H1820 0.949 . S
C1824 C1832 1.574 . S
C1824 C1840 1.368 . S
H1825 C1833 0.950 . S
H1826 C1831 0.950 . S
H1827 C1832 0.949 . S
H1828 C1834 0.950 . S
H1829 C1835 0.950 . S
H1830 C1836 0.949 . S
C1831 H1826 0.950 . S
C1831 C1833 1.327 . S
C1831 C1837 1.429 . S
C1832 C1824 1.574 . S
C1832 H1827 0.949 . S
C1832 C1838 1.368 . S
C1833 C1817 1.349 . S
C1833 H1825 0.950 . S
C1833 C1831 1.327 . S
C1834 C1822 1.349 . S
C1834 H1828 0.950 . S
C1834 C1835 1.327 . S
C1835 H1829 0.950 . S
C1835 C1834 1.327 . S
C1835 C1839 1.429 . S
C1836 C1819 1.574 . S
C1836 H1830 0.949 . S
C1836 C1840 1.368 . S
C1837 C1818 1.429 . S
C1837 C1831 1.429 . S
C1837 C1838 1.523 . S
C1838 C1819 1.368 . S
C1838 C1832 1.368 . S
C1838 C1837 1.523 . S
C1839 C1823 1.429 . S
C1839 C1835 1.429 . S
C1839 C1840 1.523 . S
C1840 C1824 1.368 . S
C1840 C1836 1.368 . S
C1840 C1839 1.523 . S
H1841 C1816 0.950 . S
H1842 C1818 0.950 . S
H1843 C1819 0.949 . S
H1844 C1821 0.950 . S
H1845 C1823 0.950 . S
C1846 C1847 1.349 . S
C1846 C1848 1.327 . S
C1846 H1871 0.950 . S
C1847 C1846 1.349 . S
C1847 C1863 1.349 . S
C1848 C1846 1.327 . S
C1848 C1867 1.429 . S
C1848 H1872 0.950 . S
C1849 C1866 1.574 . S
C1849 C1868 1.368 . S
C1849 H1873 0.949 . S
H1850 C1854 0.949 . S
C1851 C1852 1.349 . S
C1851 C1853 1.327 . S
C1851 H1874 0.972 . S
C1852 C1851 1.349 . S
C1852 C1864 1.349 . S
C1853 C1851 1.327 . S
C1853 C1869 1.429 . S
C1853 H1875 0.950 . S
C1854 H1850 0.949 . S
C1854 C1862 1.574 . S
C1854 C1870 1.368 . S
H1855 C1863 0.950 . S
H1856 C1861 0.950 . S
H1857 C1862 0.949 . S
H1858 C1864 0.950 . S
H1859 C1865 0.950 . S
H1860 C1866 0.949 . S
C1861 H1856 0.950 . S
C1861 C1863 1.327 . S
C1861 C1867 1.429 . S
C1862 C1854 1.574 . S
C1862 H1857 0.949 . S
C1862 C1868 1.368 . S
C1863 C1847 1.349 . S
C1863 H1855 0.950 . S
C1863 C1861 1.327 . S
C1864 C1852 1.349 . S
C1864 H1858 0.950 . S
C1864 C1865 1.327 . S
C1865 H1859 0.950 . S
C1865 C1864 1.327 . S
C1865 C1869 1.429 . S
C1866 C1849 1.574 . S
C1866 H1860 0.949 . S
C1866 C1870 1.368 . S
C1867 C1848 1.429 . S
C1867 C1861 1.429 . S
C1867 C1868 1.523 . S
C1868 C1849 1.368 . S
C1868 C1862 1.368 . S
C1868 C1867 1.523 . S
C1869 C1853 1.429 . S
C1869 C1865 1.429 . S
C1869 C1870 1.523 . S
C1870 C1854 1.368 . S
C1870 C1866 1.368 . S
C1870 C1869 1.523 . S
H1871 C1846 0.950 . S
H1872 C1848 0.950 . S
H1873 C1849 0.949 . S
H1874 C1851 0.972 . S
H1875 C1853 0.950 . S
C1876 C1877 1.349 . S
C1876 C1878 1.327 . S
C1876 H1901 0.950 . S
C1877 C1876 1.349 . S
C1877 C1893 1.349 . S
C1878 C1876 1.327 . S
C1878 C1897 1.429 . S
C1878 H1902 0.950 . S
C1879 C1896 1.574 . S
C1879 C1898 1.368 . S
C1879 H1903 0.949 . S
H1880 C1884 0.949 . S
C1881 C1882 1.349 . S
C1881 C1883 1.327 . S
C1881 H1904 0.950 . S
C1882 C1881 1.349 . S
C1882 C1894 1.349 . S
C1883 C1881 1.327 . S
C1883 C1899 1.429 . S
C1883 H1905 0.950 . S
C1884 H1880 0.949 . S
C1884 C1892 1.574 . S
C1884 C1900 1.368 . S
H1885 C1893 0.950 . S
H1886 C1891 0.950 . S
H1887 C1892 0.949 . S
H1888 C1894 0.950 . S
H1889 C1895 0.950 . S
H1890 C1896 0.949 . S
C1891 H1886 0.950 . S
C1891 C1893 1.327 . S
C1891 C1897 1.429 . S
C1892 C1884 1.574 . S
C1892 H1887 0.949 . S
C1892 C1898 1.368 . S
C1893 C1877 1.349 . S
C1893 H1885 0.950 . S
C1893 C1891 1.327 . S
C1894 C1882 1.349 . S
C1894 H1888 0.950 . S
C1894 C1895 1.327 . S
C1895 H1889 0.950 . S
C1895 C1894 1.327 . S
C1895 C1899 1.429 . S
C1896 C1879 1.574 . S
C1896 H1890 0.949 . S
C1896 C1900 1.368 . S
C1897 C1878 1.429 . S
C1897 C1891 1.429 . S
C1897 C1898 1.523 . S
C1898 C1879 1.368 . S
C1898 C1892 1.368 . S
C1898 C1897 1.523 . S
C1899 C1883 1.429 . S
C1899 C1895 1.429 . S
C1899 C1900 1.523 . S
C1900 C1884 1.368 . S
C1900 C1896 1.368 . S
C1900 C1899 1.523 . S
H1901 C1876 0.950 . S
H1902 C1878 0.950 . S
H1903 C1879 0.949 . S
H1904 C1881 0.950 . S
H1905 C1883 0.950 . S
C1906 C1907 1.349 . S
C1906 C1908 1.327 . S
C1906 H1931 0.950 . S
C1907 C1906 1.349 . S
C1907 C1923 1.349 . S
C1908 C1906 1.327 . S
C1908 C1927 1.429 . S
C1908 H1932 0.950 . S
C1909 C1926 1.574 . S
C1909 C1928 1.368 . S
C1909 H1933 0.949 . S
H1910 C1914 0.949 . S
C1911 C1912 1.349 . S
C1911 C1913 1.327 . S
C1911 H1934 0.950 . S
C1912 C1911 1.349 . S
C1912 C1924 1.349 . S
C1913 C1911 1.327 . S
C1913 C1929 1.429 . S
C1913 H1935 0.950 . S
C1914 H1910 0.949 . S
C1914 C1922 1.574 . S
C1914 C1930 1.368 . S
H1915 C1923 0.950 . S
H1916 C1921 0.950 . S
H1917 C1922 0.949 . S
H1918 C1924 0.950 . S
H1919 C1925 0.950 . S
H1920 C1926 0.949 . S
C1921 H1916 0.950 . S
C1921 C1923 1.327 . S
C1921 C1927 1.429 . S
C1922 C1914 1.574 . S
C1922 H1917 0.949 . S
C1922 C1928 1.368 . S
C1923 C1907 1.349 . S
C1923 H1915 0.950 . S
C1923 C1921 1.327 . S
C1924 C1912 1.349 . S
C1924 H1918 0.950 . S
C1924 C1925 1.327 . S
C1925 H1919 0.950 . S
C1925 C1924 1.327 . S
C1925 C1929 1.429 . S
C1926 C1909 1.574 . S
C1926 H1920 0.949 . S
C1926 C1930 1.368 . S
C1927 C1908 1.429 . S
C1927 C1921 1.429 . S
C1927 C1928 1.523 . S
C1928 C1909 1.368 . S
C1928 C1922 1.368 . S
C1928 C1927 1.523 . S
C1929 C1913 1.429 . S
C1929 C1925 1.429 . S
C1929 C1930 1.523 . S
C1930 C1914 1.368 . S
C1930 C1926 1.368 . S
C1930 C1929 1.523 . S
H1931 C1906 0.950 . S
H1932 C1908 0.950 . S
H1933 C1909 0.949 . S
H1934 C1911 0.950 . S
H1935 C1913 0.950 . S
C1936 C1937 1.349 . S
C1936 C1938 1.327 . S
C1936 H1961 0.950 . S
C1937 C1936 1.349 . S
C1937 C1953 1.349 . S
C1938 C1936 1.327 . S
C1938 C1957 1.429 . S
C1938 H1962 0.950 . S
C1939 C1956 1.574 . S
C1939 C1958 1.368 . S
C1939 H1963 0.949 . S
H1940 C1944 0.949 . S
C1941 C1942 1.349 . S
C1941 C1943 1.327 . S
C1941 H1964 0.950 . S
C1942 C1941 1.349 . S
C1942 C1954 1.349 . S
C1943 C1941 1.327 . S
C1943 C1959 1.429 . S
C1943 H1965 0.950 . S
C1944 H1940 0.949 . S
C1944 C1952 1.574 . S
C1944 C1960 1.368 . S
H1945 C1953 0.950 . S
H1946 C1951 0.950 . S
H1947 C1952 0.949 . S
H1948 C1954 0.950 . S
H1949 C1955 0.950 . S
H1950 C1956 0.949 . S
C1951 H1946 0.950 . S
C1951 C1953 1.327 . S
C1951 C1957 1.429 . S
C1952 C1944 1.574 . S
C1952 H1947 0.949 . S
C1952 C1958 1.368 . S
C1953 C1937 1.349 . S
C1953 H1945 0.950 . S
C1953 C1951 1.327 . S
C1954 C1942 1.349 . S
C1954 H1948 0.950 . S
C1954 C1955 1.327 . S
C1955 H1949 0.950 . S
C1955 C1954 1.327 . S
C1955 C1959 1.429 . S
C1956 C1939 1.574 . S
C1956 H1950 0.949 . S
C1956 C1960 1.368 . S
C1957 C1938 1.429 . S
C1957 C1951 1.429 . S
C1957 C1958 1.523 . S
C1958 C1939 1.368 . S
C1958 C1952 1.368 . S
C1958 C1957 1.523 . S
C1959 C1943 1.429 . S
C1959 C1955 1.429 . S
C1959 C1960 1.523 . S
C1960 C1944 1.368 . S
C1960 C1956 1.368 . S
C1960 C1959 1.523 . S
H1961 C1936 0.950 . S
H1962 C1938 0.950 . S
H1963 C1939 0.949 . S
H1964 C1941 0.950 . S
H1965 C1943 0.950 . S
C1966 C1967 1.349 . S
C1966 C1968 1.327 . S
C1966 H1991 0.950 . S
C1967 C1966 1.349 . S
C1967 C1983 1.349 . S
C1968 C1966 1.327 . S
C1968 C1987 1.429 . S
C1968 H1992 0.950 . S
C1969 C1986 1.574 . S
C1969 C1988 1.368 . S
C1969 H1993 0.949 . S
H1970 C1974 0.949 . S
C1971 C1972 1.349 . S
C1971 C1973 1.327 . S
C1971 H1994 0.950 . S
C1972 C1971 1.349 . S
C1972 C1984 1.349 . S
C1973 C1971 1.327 . S
C1973 C1989 1.429 . S
C1973 H1995 0.950 . S
C1974 H1970 0.949 . S
C1974 C1982 1.574 . S
C1974 C1990 1.368 . S
H1975 C1983 0.950 . S
H1976 C1981 0.950 . S
H1977 C1982 0.949 . S
H1978 C1984 0.950 . S
H1979 C1985 0.950 . S
H1980 C1986 0.949 . S
C1981 H1976 0.950 . S
C1981 C1983 1.327 . S
C1981 C1987 1.429 . S
C1982 C1974 1.574 . S
C1982 H1977 0.949 . S
C1982 C1988 1.368 . S
C1983 C1967 1.349 . S
C1983 H1975 0.950 . S
C1983 C1981 1.327 . S
C1984 C1972 1.349 . S
C1984 H1978 0.950 . S
C1984 C1985 1.327 . S
C1985 H1979 0.950 . S
C1985 C1984 1.327 . S
C1985 C1989 1.429 . S
C1986 C1969 1.574 . S
C1986 H1980 0.949 . S
C1986 C1990 1.368 . S
C1987 C1968 1.429 . S
C1987 C1981 1.429 . S
C1987 C1988 1.523 . S
C1988 C1969 1.368 . S
C1988 C1982 1.368 . S
C1988 C1987 1.523 . S
C1989 C1973 1.429 . S
C1989 C1985 1.429 . S
C1989 C1990 1.523 . S
C1990 C1974 1.368 . S
C1990 C1986 1.368 . S
C1990 C1989 1.523 . S
H1991 C1966 0.950 . S
H1992 C1968 0.950 . S
H1993 C1969 0.949 . S
H1994 C1971 0.950 . S
H1995 C1973 0.950 . S
C1996 C1997 1.349 . S
C1996 C1998 1.327 . S
C1996 H2021 0.950 . S
C1997 C1996 1.349 . S
C1997 C2013 1.349 . S
C1998 C1996 1.327 . S
C1998 C2017 1.429 . S
C1998 H2022 0.950 . S
C1999 C2016 1.574 . S
C1999 C2018 1.368 . S
C1999 H2023 0.949 . S
H2000 C2004 0.949 . S
C2001 C2002 1.349 . S
C2001 C2003 1.327 . S
C2001 H2024 0.950 . S
C2002 C2001 1.349 . S
C2002 C2014 1.349 . S
C2003 C2001 1.327 . S
C2003 C2019 1.429 . S
C2003 H2025 0.950 . S
C2004 H2000 0.949 . S
C2004 C2012 1.574 . S
C2004 C2020 1.368 . S
H2005 C2013 0.950 . S
H2006 C2011 0.950 . S
H2007 C2012 0.949 . S
H2008 C2014 0.950 . S
H2009 C2015 0.950 . S
H2010 C2016 0.949 . S
C2011 H2006 0.950 . S
C2011 C2013 1.327 . S
C2011 C2017 1.429 . S
C2012 C2004 1.574 . S
C2012 H2007 0.949 . S
C2012 C2018 1.368 . S
C2013 C1997 1.349 . S
C2013 H2005 0.950 . S
C2013 C2011 1.327 . S
C2014 C2002 1.349 . S
C2014 H2008 0.950 . S
C2014 C2015 1.327 . S
C2015 H2009 0.950 . S
C2015 C2014 1.327 . S
C2015 C2019 1.429 . S
C2016 C1999 1.574 . S
C2016 H2010 0.949 . S
C2016 C2020 1.368 . S
C2017 C1998 1.429 . S
C2017 C2011 1.429 . S
C2017 C2018 1.523 . S
C2018 C1999 1.368 . S
C2018 C2012 1.368 . S
C2018 C2017 1.523 . S
C2019 C2003 1.429 . S
C2019 C2015 1.429 . S
C2019 C2020 1.523 . S
C2020 C2004 1.368 . S
C2020 C2016 1.368 . S
C2020 C2019 1.523 . S
H2021 C1996 0.950 . S
H2022 C1998 0.950 . S
H2023 C1999 0.949 . S
H2024 C2001 0.950 . S
H2025 C2003 0.950 . S
C2026 C2027 1.349 . S
C2026 C2028 1.327 . S
C2026 H2051 0.950 . S
C2027 C2026 1.349 . S
C2027 C2043 1.349 . S
C2028 C2026 1.327 . S
C2028 C2047 1.429 . S
C2028 H2052 0.950 . S
C2029 C2046 1.574 . S
C2029 C2048 1.368 . S
C2029 H2053 0.949 . S
H2030 C2034 0.949 . S
C2031 C2032 1.349 . S
C2031 C2033 1.327 . S
C2031 H2054 0.950 . S
C2032 C2031 1.349 . S
C2032 C2044 1.349 . S
C2033 C2031 1.327 . S
C2033 C2049 1.429 . S
C2033 H2055 0.950 . S
C2034 H2030 0.949 . S
C2034 C2042 1.574 . S
C2034 C2050 1.368 . S
H2035 C2043 0.950 . S
H2036 C2041 0.950 . S
H2037 C2042 0.949 . S
H2038 C2044 0.950 . S
H2039 C2045 0.950 . S
H2040 C2046 0.949 . S
C2041 H2036 0.950 . S
C2041 C2043 1.327 . S
C2041 C2047 1.429 . S
C2042 C2034 1.574 . S
C2042 H2037 0.949 . S
C2042 C2048 1.368 . S
C2043 C2027 1.349 . S
C2043 H2035 0.950 . S
C2043 C2041 1.327 . S
C2044 C2032 1.349 . S
C2044 H2038 0.950 . S
C2044 C2045 1.327 . S
C2045 H2039 0.950 . S
C2045 C2044 1.327 . S
C2045 C2049 1.429 . S
C2046 C2029 1.574 . S
C2046 H2040 0.949 . S
C2046 C2050 1.368 . S
C2047 C2028 1.429 . S
C2047 C2041 1.429 . S
C2047 C2048 1.523 . S
C2048 C2029 1.368 . S
C2048 C2042 1.368 . S
C2048 C2047 1.523 . S
C2049 C2033 1.429 . S
C2049 C2045 1.429 . S
C2049 C2050 1.523 . S
C2050 C2034 1.368 . S
C2050 C2046 1.368 . S
C2050 C2049 1.523 . S
H2051 C2026 0.950 . S
H2052 C2028 0.950 . S
H2053 C2029 0.949 . S
H2054 C2031 0.950 . S
H2055 C2033 0.950 . S
C2056 C2057 1.349 . S
C2056 C2058 1.327 . S
C2056 H2081 0.950 . S
C2057 C2056 1.349 . S
C2057 C2073 1.349 . S
C2058 C2056 1.327 . S
C2058 C2077 1.429 . S
C2058 H2082 0.950 . S
C2059 C2076 1.574 . S
C2059 C2078 1.368 . S
C2059 H2083 0.949 . S
H2060 C2064 0.949 . S
C2061 C2062 1.349 . S
C2061 C2063 1.327 . S
C2061 H2084 0.950 . S
C2062 C2061 1.349 . S
C2062 C2074 1.349 . S
C2063 C2061 1.327 . S
C2063 C2079 1.429 . S
C2063 H2085 0.950 . S
C2064 H2060 0.949 . S
C2064 C2072 1.574 . S
C2064 C2080 1.368 . S
H2065 C2073 0.950 . S
H2066 C2071 0.950 . S
H2067 C2072 0.949 . S
H2068 C2074 0.950 . S
H2069 C2075 0.950 . S
H2070 C2076 0.949 . S
C2071 H2066 0.950 . S
C2071 C2073 1.327 . S
C2071 C2077 1.429 . S
C2072 C2064 1.574 . S
C2072 H2067 0.949 . S
C2072 C2078 1.368 . S
C2073 C2057 1.349 . S
C2073 H2065 0.950 . S
C2073 C2071 1.327 . S
C2074 C2062 1.349 . S
C2074 H2068 0.950 . S
C2074 C2075 1.327 . S
C2075 H2069 0.950 . S
C2075 C2074 1.327 . S
C2075 C2079 1.429 . S
C2076 C2059 1.574 . S
C2076 H2070 0.949 . S
C2076 C2080 1.368 . S
C2077 C2058 1.429 . S
C2077 C2071 1.429 . S
C2077 C2078 1.523 . S
C2078 C2059 1.368 . S
C2078 C2072 1.368 . S
C2078 C2077 1.523 . S
C2079 C2063 1.429 . S
C2079 C2075 1.429 . S
C2079 C2080 1.523 . S
C2080 C2064 1.368 . S
C2080 C2076 1.368 . S
C2080 C2079 1.523 . S
H2081 C2056 0.950 . S
H2082 C2058 0.950 . S
H2083 C2059 0.949 . S
H2084 C2061 0.950 . S
H2085 C2063 0.950 . S
C2086 C2087 1.349 . S
C2086 C2088 1.327 . S
C2086 H2111 0.950 . S
C2087 C2086 1.349 . S
C2087 C2103 1.349 . S
C2088 C2086 1.327 . S
C2088 C2107 1.429 . S
C2088 H2112 0.950 . S
C2089 C2106 1.574 . S
C2089 C2108 1.368 . S
C2089 H2113 0.949 . S
H2090 C2094 0.949 . S
C2091 C2092 1.349 . S
C2091 C2093 1.327 . S
C2091 H2114 0.950 . S
C2092 C2091 1.349 . S
C2092 C2104 1.349 . S
C2093 C2091 1.327 . S
C2093 C2109 1.429 . S
C2093 H2115 0.950 . S
C2094 H2090 0.949 . S
C2094 C2102 1.574 . S
C2094 C2110 1.368 . S
H2095 C2103 0.950 . S
H2096 C2101 0.950 . S
H2097 C2102 0.949 . S
H2098 C2104 0.950 . S
H2099 C2105 0.950 . S
H2100 C2106 0.949 . S
C2101 H2096 0.950 . S
C2101 C2103 1.327 . S
C2101 C2107 1.429 . S
C2102 C2094 1.574 . S
C2102 H2097 0.949 . S
C2102 C2108 1.368 . S
C2103 C2087 1.349 . S
C2103 H2095 0.950 . S
C2103 C2101 1.327 . S
C2104 C2092 1.349 . S
C2104 H2098 0.950 . S
C2104 C2105 1.327 . S
C2105 H2099 0.950 . S
C2105 C2104 1.327 . S
C2105 C2109 1.429 . S
C2106 C2089 1.574 . S
C2106 H2100 0.949 . S
C2106 C2110 1.368 . S
C2107 C2088 1.429 . S
C2107 C2101 1.429 . S
C2107 C2108 1.523 . S
C2108 C2089 1.368 . S
C2108 C2102 1.368 . S
C2108 C2107 1.523 . S
C2109 C2093 1.429 . S
C2109 C2105 1.429 . S
C2109 C2110 1.523 . S
C2110 C2094 1.368 . S
C2110 C2106 1.368 . S
C2110 C2109 1.523 . S
H2111 C2086 0.950 . S
H2112 C2088 0.950 . S
H2113 C2089 0.949 . S
H2114 C2091 0.950 . S
H2115 C2093 0.950 . S
C2116 C2117 1.349 . S
C2116 C2118 1.327 . S
C2116 H2141 0.950 . S
C2117 C2116 1.349 . S
C2117 C2133 1.349 . S
C2118 C2116 1.327 . S
C2118 C2137 1.429 . S
C2118 H2142 0.950 . S
C2119 C2136 1.574 . S
C2119 C2138 1.368 . S
C2119 H2143 0.949 . S
H2120 C2124 0.949 . S
C2121 C2122 1.349 . S
C2121 C2123 1.327 . S
C2121 H2144 0.950 1_556 S
C2122 C2121 1.349 . S
C2122 C2134 1.349 . S
C2123 C2121 1.327 . S
C2123 C2139 1.429 . S
C2123 H2145 0.926 1_556 S
C2124 H2120 0.949 . S
C2124 C2132 1.574 . S
C2124 C2140 1.368 . S
H2125 C2133 0.950 . S
H2126 C2131 0.950 . S
H2127 C2132 0.949 . S
H2128 C2134 0.950 . S
H2129 C2135 0.950 . S
H2130 C2136 0.949 . S
C2131 H2126 0.950 . S
C2131 C2133 1.327 . S
C2131 C2137 1.429 . S
C2132 C2124 1.574 . S
C2132 H2127 0.949 . S
C2132 C2138 1.368 . S
C2133 C2117 1.349 . S
C2133 H2125 0.950 . S
C2133 C2131 1.327 . S
C2134 C2122 1.349 . S
C2134 H2128 0.950 . S
C2134 C2135 1.327 . S
C2135 H2129 0.950 . S
C2135 C2134 1.327 . S
C2135 C2139 1.429 . S
C2136 C2119 1.574 . S
C2136 H2130 0.949 . S
C2136 C2140 1.368 . S
C2137 C2118 1.429 . S
C2137 C2131 1.429 . S
C2137 C2138 1.523 . S
C2138 C2119 1.368 . S
C2138 C2132 1.368 . S
C2138 C2137 1.523 . S
C2139 C2123 1.429 . S
C2139 C2135 1.429 . S
C2139 C2140 1.523 . S
C2140 C2124 1.368 . S
C2140 C2136 1.368 . S
C2140 C2139 1.523 . S
H2141 C2116 0.950 . S
H2142 C2118 0.950 . S
H2143 C2119 0.949 . S
H2144 C2121 0.950 1_554 S
H2145 C2123 0.926 1_554 S
C2146 C2147 1.349 . S
C2146 C2148 1.327 . S
C2146 H2171 0.950 . S
C2147 C2146 1.349 . S
C2147 C2163 1.349 . S
C2148 C2146 1.327 . S
C2148 C2167 1.429 . S
C2148 H2172 0.950 . S
C2149 C2166 1.574 . S
C2149 C2168 1.368 . S
C2149 H2173 0.949 . S
H2150 C2154 0.949 . S
C2151 C2152 1.349 . S
C2151 C2153 1.327 . S
C2151 H2174 0.950 . S
C2152 C2151 1.349 . S
C2152 C2164 1.349 . S
C2153 C2151 1.327 . S
C2153 C2169 1.429 . S
C2153 H2175 0.950 . S
C2154 H2150 0.949 . S
C2154 C2162 1.574 . S
C2154 C2170 1.368 . S
H2155 C2163 0.950 . S
H2156 C2161 0.950 . S
H2157 C2162 0.949 . S
H2158 C2164 0.950 . S
H2159 C2165 0.950 . S
H2160 C2166 0.949 . S
C2161 H2156 0.950 . S
C2161 C2163 1.327 . S
C2161 C2167 1.429 . S
C2162 C2154 1.574 . S
C2162 H2157 0.949 . S
C2162 C2168 1.368 . S
C2163 C2147 1.349 . S
C2163 H2155 0.950 . S
C2163 C2161 1.327 . S
C2164 C2152 1.349 . S
C2164 H2158 0.950 . S
C2164 C2165 1.327 . S
C2165 H2159 0.950 . S
C2165 C2164 1.327 . S
C2165 C2169 1.429 . S
C2166 C2149 1.574 . S
C2166 H2160 0.949 . S
C2166 C2170 1.368 . S
C2167 C2148 1.429 . S
C2167 C2161 1.429 . S
C2167 C2168 1.523 . S
C2168 C2149 1.368 . S
C2168 C2162 1.368 . S
C2168 C2167 1.523 . S
C2169 C2153 1.429 . S
C2169 C2165 1.429 . S
C2169 C2170 1.523 . S
C2170 C2154 1.368 . S
C2170 C2166 1.368 . S
C2170 C2169 1.523 . S
H2171 C2146 0.950 . S
H2172 C2148 0.950 . S
H2173 C2149 0.949 . S
H2174 C2151 0.950 . S
H2175 C2153 0.950 . S
C2176 C2177 1.349 . S
C2176 C2178 1.327 . S
C2176 H2201 0.950 . S
C2177 C2176 1.349 . S
C2177 C2193 1.349 . S
C2178 C2176 1.327 . S
C2178 C2197 1.429 . S
C2178 H2202 0.950 . S
C2179 C2196 1.574 . S
C2179 C2198 1.368 . S
C2179 H2203 0.960 . S
H2180 C2184 0.949 . S
C2181 C2182 1.349 1_556 S
C2181 C2183 1.333 . S
C2181 H2204 0.950 . S
C2182 C2181 1.349 1_554 S
C2182 C2194 1.349 . S
C2183 C2181 1.333 . S
C2183 C2199 1.404 1_556 S
C2183 H2205 0.970 . S
C2184 H2180 0.949 . S
C2184 C2192 1.574 . S
C2184 C2200 1.368 . S
H2185 C2193 0.950 . S
H2186 C2191 0.950 . S
H2187 C2192 0.949 . S
H2188 C2194 0.950 . S
H2189 C2195 0.950 . S
H2190 C2196 0.949 1_556 S
C2191 H2186 0.950 . S
C2191 C2193 1.327 . S
C2191 C2197 1.429 . S
C2192 C2184 1.574 . S
C2192 H2187 0.949 . S
C2192 C2198 1.368 . S
C2193 C2177 1.349 . S
C2193 H2185 0.950 . S
C2193 C2191 1.327 . S
C2194 C2182 1.349 . S
C2194 H2188 0.950 . S
C2194 C2195 1.327 . S
C2195 H2189 0.950 . S
C2195 C2194 1.327 . S
C2195 C2199 1.429 . S
C2196 C2179 1.574 . S
C2196 H2190 0.949 1_554 S
C2196 C2200 1.368 . S
C2197 C2178 1.429 . S
C2197 C2191 1.429 . S
C2197 C2198 1.523 . S
C2198 C2179 1.368 . S
C2198 C2192 1.368 . S
C2198 C2197 1.523 . S
C2199 C2183 1.404 1_554 S
C2199 C2195 1.429 . S
C2199 C2200 1.523 . S
C2200 C2184 1.368 . S
C2200 C2196 1.368 . S
C2200 C2199 1.523 . S
H2201 C2176 0.950 . S
H2202 C2178 0.950 . S
H2203 C2179 0.960 . S
H2204 C2181 0.950 . S
H2205 C2183 0.970 . S
C2206 C2207 1.349 . S
C2206 C2208 1.327 . S
C2206 H2231 0.950 1_565 S
C2207 C2206 1.349 . S
C2207 C2223 1.349 . S
C2208 C2206 1.327 . S
C2208 C2227 1.429 . S
C2208 H2232 0.950 . S
C2209 C2226 1.574 . S
C2209 C2228 1.368 . S
C2209 H2233 0.949 . S
H2210 C2214 0.949 . S
C2211 C2212 1.349 . S
C2211 C2213 1.327 . S
C2211 H2234 0.950 . S
C2212 C2211 1.349 . S
C2212 C2224 1.349 . S
C2213 C2211 1.327 . S
C2213 C2229 1.429 . S
C2213 H2235 0.950 . S
C2214 H2210 0.949 . S
C2214 C2222 1.574 . S
C2214 C2230 1.368 . S
H2215 C2223 0.950 . S
H2216 C2221 0.950 . S
H2217 C2222 0.949 . S
H2218 C2224 0.950 . S
H2219 C2225 0.950 . S
H2220 C2226 0.949 . S
C2221 H2216 0.950 . S
C2221 C2223 1.327 . S
C2221 C2227 1.429 . S
C2222 C2214 1.574 . S
C2222 H2217 0.949 . S
C2222 C2228 1.368 . S
C2223 C2207 1.349 . S
C2223 H2215 0.950 . S
C2223 C2221 1.327 . S
C2224 C2212 1.349 . S
C2224 H2218 0.950 . S
C2224 C2225 1.327 . S
C2225 H2219 0.950 . S
C2225 C2224 1.327 . S
C2225 C2229 1.429 . S
C2226 C2209 1.574 . S
C2226 H2220 0.949 . S
C2226 C2230 1.368 . S
C2227 C2208 1.429 . S
C2227 C2221 1.429 . S
C2227 C2228 1.523 . S
C2228 C2209 1.368 . S
C2228 C2222 1.368 . S
C2228 C2227 1.523 . S
C2229 C2213 1.429 . S
C2229 C2225 1.429 . S
C2229 C2230 1.523 . S
C2230 C2214 1.368 . S
C2230 C2226 1.368 . S
C2230 C2229 1.523 . S
H2231 C2206 0.950 1_545 S
H2232 C2208 0.950 . S
H2233 C2209 0.949 . S
H2234 C2211 0.950 . S
H2235 C2213 0.950 . S
C802 C650 1.384 . S
C797 C202 1.384 . S
C832 C663 1.639 . S
C827 C261 1.646 . S
C857 C282 1.434 . S
C862 C676 1.440 . S
C892 C689 1.535 . S
C887 C162 1.535 . S
C922 C697 1.446 . S
C917 C402 1.465 . S
C952 C710 1.407 . S
C947 C482 1.417 . S
C977 C442 1.515 . S
C982 C723 1.503 . S
C1012 C736 1.529 . S
C1007 C381 1.526 . S
C1037 C461 1.459 . S
C1042 C754 1.457 . S
C1072 C765 1.490 . S
C1067 C362 1.511 . S
C1097 C415 1.402 . S
C1102 C749 1.376 . S
C1132 C757 1.481 . S
C1127 C495 1.509 . S
C1157 C301 1.529 . S
C1162 C780 1.527 . S
C1187 C175 1.544 . S
C1192 C770 1.512 . S
C1217 C215 1.466 . S
C1222 C775 1.436 . S
C1247 C242 1.548 . S
C1252 C778 1.528 1_655 S
C1277 C141 1.479 . S
C1282 C687 1.457 . S
C1307 C581 1.444 . S
C1312 C679 1.430 . S
C1342 C648 1.512 . S
C1337 C615 1.538 . S
C1372 C653 1.473 . S
C1367 C335 1.495 . S
C1397 C181 1.609 . S
C1402 C700 1.586 . S
C1432 C739 1.491 . S
C1427 C455 1.516 . S
C1462 C692 1.435 . S
C1457 C375 1.461 . S
C1492 C718 1.506 . S
C1487 C501 1.531 . S
C1522 C728 1.384 . S
C1517 C562 1.384 . S
C1547 C621 1.646 . S
C1552 C741 1.639 . S
C1577 C322 1.434 . S
C1582 C702 1.435 . S
C1612 C715 1.535 . S
C1607 C522 1.535 . S
C1637 C122 1.465 . S
C1642 C671 1.441 . S
C1672 C684 1.407 . S
C1667 C2 1.417 . S
C1702 C645 1.503 . S
C1697 C42 1.515 . S
C1732 C658 1.514 . S
C1727 C101 1.526 . S
C1757 C61 1.459 . S
C1762 C767 1.457 . S
C1787 C82 1.511 . S
C1792 C752 1.490 1_655 S
C1817 C135 1.402 . S
C1822 C762 1.376 . S
C1847 C15 1.509 . S
C1852 C744 1.481 . S
C1882 C793 1.527 . S
C1877 C341 1.529 . S
C1912 C783 1.512 . S
C1907 C535 1.544 . S
C1942 C788 1.436 . S
C1937 C575 1.466 . S
C1967 C602 1.548 . S
C1972 C791 1.528 . S
C1997 C421 1.479 . S
C2002 C713 1.457 . S
C2032 C705 1.430 . S
C2027 C221 1.444 . S
C2062 C726 1.512 . S
C2057 C255 1.538 . S
C2092 C731 1.473 . S
C2087 C295 1.497 . S
C2117 C541 1.609 . S
C2122 C674 1.588 . S
C2152 C661 1.491 . S
C2147 C55 1.519 . S
C2177 C95 1.461 . S
C2182 C666 1.433 . S
C2212 C640 1.506 . S
C2207 C21 1.531 . S
