# Generated by pormake.
# Topology ibd, (4,6)-cn, num edge types: 1
# Building blocks:
#     Node 0, Type 0, BuildingBlock: NAHDIM_clean_sbu_0, # of connection points: 4
#     Node 1, Type 0, BuildingBlock: NAHDIM_clean_sbu_0, # of connection points: 4
#     Node 2, Type 0, BuildingBlock: NAHDIM_clean_sbu_0, # of connection points: 4
#     Node 3, Type 0, BuildingBlock: NAHDIM_clean_sbu_0, # of connection points: 4
#     Node 4, Type 0, BuildingBlock: NAHDIM_clean_sbu_0, # of connection points: 4
#     Node 5, Type 0, BuildingBlock: NAHDIM_clean_sbu_0, # of connection points: 4
#     Node 6, Type 0, BuildingBlock: NAHDIM_clean_sbu_0, # of connection points: 4
#     Node 7, Type 0, BuildingBlock: NAHDIM_clean_sbu_0, # of connection points: 4
#     Node 8, Type 0, BuildingBlock: NAHDIM_clean_sbu_0, # of connection points: 4
#     Node 9, Type 0, BuildingBlock: NAHDIM_clean_sbu_0, # of connection points: 4
#     Node 10, Type 0, BuildingBlock: NAHDIM_clean_sbu_0, # of connection points: 4
#     Node 11, Type 0, BuildingBlock: NAHDIM_clean_sbu_0, # of connection points: 4
#     Node 12, Type 0, BuildingBlock: NAHDIM_clean_sbu_0, # of connection points: 4
#     Node 13, Type 0, BuildingBlock: NAHDIM_clean_sbu_0, # of connection points: 4
#     Node 14, Type 0, BuildingBlock: NAHDIM_clean_sbu_0, # of connection points: 4
#     Node 15, Type 0, BuildingBlock: NAHDIM_clean_sbu_0, # of connection points: 4
#     Node 16, Type 0, BuildingBlock: NAHDIM_clean_sbu_0, # of connection points: 4
#     Node 17, Type 0, BuildingBlock: NAHDIM_clean_sbu_0, # of connection points: 4
#     Node 18, Type 0, BuildingBlock: NAHDIM_clean_sbu_0, # of connection points: 4
#     Node 19, Type 0, BuildingBlock: NAHDIM_clean_sbu_0, # of connection points: 4
#     Node 20, Type 0, BuildingBlock: NAHDIM_clean_sbu_0, # of connection points: 4
#     Node 21, Type 0, BuildingBlock: NAHDIM_clean_sbu_0, # of connection points: 4
#     Node 22, Type 0, BuildingBlock: NAHDIM_clean_sbu_0, # of connection points: 4
#     Node 23, Type 0, BuildingBlock: NAHDIM_clean_sbu_0, # of connection points: 4
#     Node 24, Type 1, BuildingBlock: LEVNOQ01_clean_sbu_1, # of connection points: 6
#     Node 25, Type 1, BuildingBlock: LEVNOQ01_clean_sbu_1, # of connection points: 6
#     Node 26, Type 1, BuildingBlock: LEVNOQ01_clean_sbu_1, # of connection points: 6
#     Node 27, Type 1, BuildingBlock: LEVNOQ01_clean_sbu_1, # of connection points: 6
#     Node 28, Type 1, BuildingBlock: LEVNOQ01_clean_sbu_1, # of connection points: 6
#     Node 29, Type 1, BuildingBlock: LEVNOQ01_clean_sbu_1, # of connection points: 6
#     Node 30, Type 1, BuildingBlock: LEVNOQ01_clean_sbu_1, # of connection points: 6
#     Node 31, Type 1, BuildingBlock: LEVNOQ01_clean_sbu_1, # of connection points: 6
#     Node 32, Type 1, BuildingBlock: LEVNOQ01_clean_sbu_1, # of connection points: 6
#     Node 33, Type 1, BuildingBlock: LEVNOQ01_clean_sbu_1, # of connection points: 6
#     Node 34, Type 1, BuildingBlock: LEVNOQ01_clean_sbu_1, # of connection points: 6
#     Node 35, Type 1, BuildingBlock: LEVNOQ01_clean_sbu_1, # of connection points: 6
#     Node 36, Type 1, BuildingBlock: LEVNOQ01_clean_sbu_1, # of connection points: 6
#     Node 37, Type 1, BuildingBlock: LEVNOQ01_clean_sbu_1, # of connection points: 6
#     Node 38, Type 1, BuildingBlock: LEVNOQ01_clean_sbu_1, # of connection points: 6
#     Node 39, Type 1, BuildingBlock: LEVNOQ01_clean_sbu_1, # of connection points: 6
#     Edge 40, Type (0, 1), BuildingBlock: KIFKEQ_clean_linker_1, # of connection points: 2
#     Edge 41, Type (0, 1), BuildingBlock: KIFKEQ_clean_linker_1, # of connection points: 2
#     Edge 42, Type (0, 1), BuildingBlock: KIFKEQ_clean_linker_1, # of connection points: 2
#     Edge 43, Type (0, 1), BuildingBlock: KIFKEQ_clean_linker_1, # of connection points: 2
#     Edge 44, Type (0, 1), BuildingBlock: KIFKEQ_clean_linker_1, # of connection points: 2
#     Edge 45, Type (0, 1), BuildingBlock: KIFKEQ_clean_linker_1, # of connection points: 2
#     Edge 46, Type (0, 1), BuildingBlock: KIFKEQ_clean_linker_1, # of connection points: 2
#     Edge 47, Type (0, 1), BuildingBlock: KIFKEQ_clean_linker_1, # of connection points: 2
#     Edge 48, Type (0, 1), BuildingBlock: KIFKEQ_clean_linker_1, # of connection points: 2
#     Edge 49, Type (0, 1), BuildingBlock: KIFKEQ_clean_linker_1, # of connection points: 2
#     Edge 50, Type (0, 1), BuildingBlock: KIFKEQ_clean_linker_1, # of connection points: 2
#     Edge 51, Type (0, 1), BuildingBlock: KIFKEQ_clean_linker_1, # of connection points: 2
#     Edge 52, Type (0, 1), BuildingBlock: KIFKEQ_clean_linker_1, # of connection points: 2
#     Edge 53, Type (0, 1), BuildingBlock: KIFKEQ_clean_linker_1, # of connection points: 2
#     Edge 54, Type (0, 1), BuildingBlock: KIFKEQ_clean_linker_1, # of connection points: 2
#     Edge 55, Type (0, 1), BuildingBlock: KIFKEQ_clean_linker_1, # of connection points: 2
#     Edge 56, Type (0, 1), BuildingBlock: KIFKEQ_clean_linker_1, # of connection points: 2
#     Edge 57, Type (0, 1), BuildingBlock: KIFKEQ_clean_linker_1, # of connection points: 2
#     Edge 58, Type (0, 1), BuildingBlock: KIFKEQ_clean_linker_1, # of connection points: 2
#     Edge 59, Type (0, 1), BuildingBlock: KIFKEQ_clean_linker_1, # of connection points: 2
#     Edge 60, Type (0, 1), BuildingBlock: KIFKEQ_clean_linker_1, # of connection points: 2
#     Edge 61, Type (0, 1), BuildingBlock: KIFKEQ_clean_linker_1, # of connection points: 2
#     Edge 62, Type (0, 1), BuildingBlock: KIFKEQ_clean_linker_1, # of connection points: 2
#     Edge 63, Type (0, 1), BuildingBlock: KIFKEQ_clean_linker_1, # of connection points: 2
#     Edge 64, Type (0, 1), BuildingBlock: KIFKEQ_clean_linker_1, # of connection points: 2
#     Edge 65, Type (0, 1), BuildingBlock: KIFKEQ_clean_linker_1, # of connection points: 2
#     Edge 66, Type (0, 1), BuildingBlock: KIFKEQ_clean_linker_1, # of connection points: 2
#     Edge 67, Type (0, 1), BuildingBlock: KIFKEQ_clean_linker_1, # of connection points: 2
#     Edge 68, Type (0, 1), BuildingBlock: KIFKEQ_clean_linker_1, # of connection points: 2
#     Edge 69, Type (0, 1), BuildingBlock: KIFKEQ_clean_linker_1, # of connection points: 2
#     Edge 70, Type (0, 1), BuildingBlock: KIFKEQ_clean_linker_1, # of connection points: 2
#     Edge 71, Type (0, 1), BuildingBlock: KIFKEQ_clean_linker_1, # of connection points: 2
#     Edge 72, Type (0, 1), BuildingBlock: KIFKEQ_clean_linker_1, # of connection points: 2
#     Edge 73, Type (0, 1), BuildingBlock: KIFKEQ_clean_linker_1, # of connection points: 2
#     Edge 74, Type (0, 1), BuildingBlock: KIFKEQ_clean_linker_1, # of connection points: 2
#     Edge 75, Type (0, 1), BuildingBlock: KIFKEQ_clean_linker_1, # of connection points: 2
#     Edge 76, Type (0, 1), BuildingBlock: KIFKEQ_clean_linker_1, # of connection points: 2
#     Edge 77, Type (0, 1), BuildingBlock: KIFKEQ_clean_linker_1, # of connection points: 2
#     Edge 78, Type (0, 1), BuildingBlock: KIFKEQ_clean_linker_1, # of connection points: 2
#     Edge 79, Type (0, 1), BuildingBlock: KIFKEQ_clean_linker_1, # of connection points: 2
#     Edge 80, Type (0, 1), BuildingBlock: KIFKEQ_clean_linker_1, # of connection points: 2
#     Edge 81, Type (0, 1), BuildingBlock: KIFKEQ_clean_linker_1, # of connection points: 2
#     Edge 82, Type (0, 1), BuildingBlock: KIFKEQ_clean_linker_1, # of connection points: 2
#     Edge 83, Type (0, 1), BuildingBlock: KIFKEQ_clean_linker_1, # of connection points: 2
#     Edge 84, Type (0, 1), BuildingBlock: KIFKEQ_clean_linker_1, # of connection points: 2
#     Edge 85, Type (0, 1), BuildingBlock: KIFKEQ_clean_linker_1, # of connection points: 2
#     Edge 86, Type (0, 1), BuildingBlock: KIFKEQ_clean_linker_1, # of connection points: 2
#     Edge 87, Type (0, 1), BuildingBlock: KIFKEQ_clean_linker_1, # of connection points: 2
#     Edge 88, Type (0, 1), BuildingBlock: KIFKEQ_clean_linker_1, # of connection points: 2
#     Edge 89, Type (0, 1), BuildingBlock: KIFKEQ_clean_linker_1, # of connection points: 2
#     Edge 90, Type (0, 1), BuildingBlock: KIFKEQ_clean_linker_1, # of connection points: 2
#     Edge 91, Type (0, 1), BuildingBlock: KIFKEQ_clean_linker_1, # of connection points: 2
#     Edge 92, Type (0, 1), BuildingBlock: KIFKEQ_clean_linker_1, # of connection points: 2
#     Edge 93, Type (0, 1), BuildingBlock: KIFKEQ_clean_linker_1, # of connection points: 2
#     Edge 94, Type (0, 1), BuildingBlock: KIFKEQ_clean_linker_1, # of connection points: 2
#     Edge 95, Type (0, 1), BuildingBlock: KIFKEQ_clean_linker_1, # of connection points: 2
#     Edge 96, Type (0, 1), BuildingBlock: KIFKEQ_clean_linker_1, # of connection points: 2
#     Edge 97, Type (0, 1), BuildingBlock: KIFKEQ_clean_linker_1, # of connection points: 2
#     Edge 98, Type (0, 1), BuildingBlock: KIFKEQ_clean_linker_1, # of connection points: 2
#     Edge 99, Type (0, 1), BuildingBlock: KIFKEQ_clean_linker_1, # of connection points: 2
#     Edge 100, Type (0, 1), BuildingBlock: KIFKEQ_clean_linker_1, # of connection points: 2
#     Edge 101, Type (0, 1), BuildingBlock: KIFKEQ_clean_linker_1, # of connection points: 2
#     Edge 102, Type (0, 1), BuildingBlock: KIFKEQ_clean_linker_1, # of connection points: 2
#     Edge 103, Type (0, 1), BuildingBlock: KIFKEQ_clean_linker_1, # of connection points: 2
#     Edge 104, Type (0, 1), BuildingBlock: KIFKEQ_clean_linker_1, # of connection points: 2
#     Edge 105, Type (0, 1), BuildingBlock: KIFKEQ_clean_linker_1, # of connection points: 2
#     Edge 106, Type (0, 1), BuildingBlock: KIFKEQ_clean_linker_1, # of connection points: 2
#     Edge 107, Type (0, 1), BuildingBlock: KIFKEQ_clean_linker_1, # of connection points: 2
#     Edge 108, Type (0, 1), BuildingBlock: KIFKEQ_clean_linker_1, # of connection points: 2
#     Edge 109, Type (0, 1), BuildingBlock: KIFKEQ_clean_linker_1, # of connection points: 2
#     Edge 110, Type (0, 1), BuildingBlock: KIFKEQ_clean_linker_1, # of connection points: 2
#     Edge 111, Type (0, 1), BuildingBlock: KIFKEQ_clean_linker_1, # of connection points: 2
#     Edge 112, Type (0, 1), BuildingBlock: KIFKEQ_clean_linker_1, # of connection points: 2
#     Edge 113, Type (0, 1), BuildingBlock: KIFKEQ_clean_linker_1, # of connection points: 2
#     Edge 114, Type (0, 1), BuildingBlock: KIFKEQ_clean_linker_1, # of connection points: 2
#     Edge 115, Type (0, 1), BuildingBlock: KIFKEQ_clean_linker_1, # of connection points: 2
#     Edge 116, Type (0, 1), BuildingBlock: KIFKEQ_clean_linker_1, # of connection points: 2
#     Edge 117, Type (0, 1), BuildingBlock: KIFKEQ_clean_linker_1, # of connection points: 2
#     Edge 118, Type (0, 1), BuildingBlock: KIFKEQ_clean_linker_1, # of connection points: 2
#     Edge 119, Type (0, 1), BuildingBlock: KIFKEQ_clean_linker_1, # of connection points: 2
#     Edge 120, Type (0, 1), BuildingBlock: KIFKEQ_clean_linker_1, # of connection points: 2
#     Edge 121, Type (0, 1), BuildingBlock: KIFKEQ_clean_linker_1, # of connection points: 2
#     Edge 122, Type (0, 1), BuildingBlock: KIFKEQ_clean_linker_1, # of connection points: 2
#     Edge 123, Type (0, 1), BuildingBlock: KIFKEQ_clean_linker_1, # of connection points: 2
#     Edge 124, Type (0, 1), BuildingBlock: KIFKEQ_clean_linker_1, # of connection points: 2
#     Edge 125, Type (0, 1), BuildingBlock: KIFKEQ_clean_linker_1, # of connection points: 2
#     Edge 126, Type (0, 1), BuildingBlock: KIFKEQ_clean_linker_1, # of connection points: 2
#     Edge 127, Type (0, 1), BuildingBlock: KIFKEQ_clean_linker_1, # of connection points: 2
#     Edge 128, Type (0, 1), BuildingBlock: KIFKEQ_clean_linker_1, # of connection points: 2
#     Edge 129, Type (0, 1), BuildingBlock: KIFKEQ_clean_linker_1, # of connection points: 2
#     Edge 130, Type (0, 1), BuildingBlock: KIFKEQ_clean_linker_1, # of connection points: 2
#     Edge 131, Type (0, 1), BuildingBlock: KIFKEQ_clean_linker_1, # of connection points: 2
#     Edge 132, Type (0, 1), BuildingBlock: KIFKEQ_clean_linker_1, # of connection points: 2
#     Edge 133, Type (0, 1), BuildingBlock: KIFKEQ_clean_linker_1, # of connection points: 2
#     Edge 134, Type (0, 1), BuildingBlock: KIFKEQ_clean_linker_1, # of connection points: 2
#     Edge 135, Type (0, 1), BuildingBlock: KIFKEQ_clean_linker_1, # of connection points: 2
# Relax obj value: 0.367
# Max RMSD: 0.330
# Mean RMSD: 0.289
data_MOF--net-ibd--node1-NAHDIM_clean_sbu_0--node2-LEVNOQ01_clean_sbu_1--edge1-KIFKEQ_clean_linker_1
_symmetry_space_group_name_H-M    P1
_symmetry_Int_Tables_number       1
_symmetry_cell_setting            triclinic
loop_
_symmetry_equiv_pos_as_xyz
'x, y, z'
_cell_length_a     47.921568
_cell_length_b     48.833808
_cell_length_c     49.842551
_cell_angle_alpha  92.058534
_cell_angle_beta   89.590981
_cell_angle_gamma 95.477388
loop_
_atom_site_label
_atom_site_type_symbol
_atom_site_fract_x
_atom_site_fract_y
_atom_site_fract_z
_atom_type_partial_charge
C0 C 0.06434 0.28138 0.34636 0.0
O1 O 0.08165 0.28799 0.36636 0.0
O2 O 0.06251 0.33055 0.39686 0.0
Zn3 Zn 0.0294 0.31849 0.37411 0.0
O4 O 0.01411 0.34719 0.35272 0.0
C5 C -0.00222 0.31919 0.421 0.0
O6 O 0.01018 0.34438 0.42103 0.0
O7 O 0.04024 0.29021 0.34678 0.0
C8 C 0.02928 0.36487 0.33965 0.0
O9 O 0.05592 0.36989 0.34559 0.0
C10 C 0.08679 0.34334 0.3981 0.0
O11 O 0.09796 0.35637 0.37748 0.0
O12 O 0.0008 0.30326 0.40061 0.0
C13 C 0.02744 0.70573 0.6809 0.0
O14 O 0.00024 0.70676 0.67908 0.0
O15 O -0.00644 0.73557 0.62343 0.0
Zn16 Zn 0.02681 0.74835 0.64559 0.0
O17 O 0.01651 0.77263 0.67674 0.0
C18 C 0.04969 0.79274 0.61385 0.0
O19 O 0.03388 0.80635 0.63008 0.0
O20 O 0.04334 0.71806 0.6637 0.0
C21 C -0.00144 0.7901 0.67866 0.0
O22 O 0.98437 0.79579 0.65744 0.0
C23 C 0.96747 0.73556 0.62782 0.0
O24 O 0.95807 0.74161 0.65188 0.0
O25 O 0.05297 0.76785 0.61867 0.0
C26 C 0.57819 0.79095 0.84169 0.0
O27 O 0.58853 0.78394 0.86453 0.0
O28 O 0.56324 0.84969 0.8923 0.0
Zn29 Zn 0.53733 0.8238 0.87115 0.0
O30 O 0.51093 0.84431 0.85152 0.0
C31 C 0.50372 0.80672 0.91584 0.0
O32 O 0.49779 0.83239 0.91504 0.0
O33 O 0.55788 0.80576 0.84165 0.0
C34 C 0.52269 0.86472 0.83927 0.0
O35 O 0.54783 0.8751 0.84674 0.0
C36 C 0.58924 0.85611 0.88862 0.0
O37 O 0.60194 0.84626 0.86747 0.0
O38 O 0.51895 0.79726 0.89736 0.0
C39 C 0.54789 0.24272 0.17849 0.0
O40 O 0.52202 0.2451 0.17108 0.0
O41 O 0.52623 0.279 0.12414 0.0
Zn42 Zn 0.55482 0.29118 0.15195 0.0
O43 O 0.53997 0.31201 0.18319 0.0
C44 C 0.57907 0.33509 0.12369 0.0
O45 O 0.55884 0.34692 0.136 0.0
O46 O 0.56759 0.2584 0.16838 0.0
C47 C 0.51945 0.32656 0.18406 0.0
O48 O 0.5069 0.33186 0.16175 0.0
C49 C 0.49967 0.27602 0.12307 0.0
O50 O 0.48418 0.28079 0.14422 0.0
O51 O 0.58529 0.31213 0.13184 0.0
C52 C 0.01873 0.75021 0.09222 0.0
O53 O 0.03406 0.76737 0.10826 0.0
O54 O 0.00085 0.78608 0.15068 0.0
Zn55 Zn 0.97325 0.76549 0.12519 0.0
O56 O 0.95269 0.79029 0.10334 0.0
C57 C 0.93846 0.75611 0.16723 0.0
O58 O 0.93423 0.78153 0.16187 0.0
O59 O -0.00696 0.74406 0.09763 0.0
C60 C 0.9391 0.77867 0.08355 0.0
O61 O 0.93448 0.75169 0.08244 0.0
C62 C -0.00153 0.80944 0.16212 0.0
O63 O 0.97833 0.82399 0.15479 0.0
O64 O 0.94895 0.74147 0.14898 0.0
C65 C 0.60963 0.77063 0.43017 0.0
O66 O 0.5844 0.76361 0.42062 0.0
O67 O 0.58345 0.78762 0.36418 0.0
Zn68 Zn 0.60119 0.80971 0.39583 0.0
O69 O 0.57424 0.82191 0.42332 0.0
C70 C 0.60854 0.85834 0.36841 0.0
O71 O 0.58232 0.85976 0.37575 0.0
O72 O 0.62546 0.78843 0.41796 0.0
C73 C 0.54925 0.82822 0.42533 0.0
O74 O 0.53359 0.82864 0.40385 0.0
C75 C 0.55878 0.77558 0.36271 0.0
O76 O 0.54256 0.77517 0.38406 0.0
O77 O 0.62284 0.84192 0.38035 0.0
C78 C 0.55986 0.28026 0.57842 0.0
O79 O 0.55803 0.30688 0.58132 0.0
O80 O 0.54638 0.30981 0.6437 0.0
Zn81 Zn 0.52318 0.28132 0.62214 0.0
O82 O 0.49426 0.29818 0.60145 0.0
C83 C 0.48735 0.26466 0.66358 0.0
O84 O 0.47806 0.28798 0.65704 0.0
O85 O 0.54738 0.26422 0.59516 0.0
C86 C 0.47965 0.28382 0.58397 0.0
O87 O 0.48129 0.25711 0.58222 0.0
C88 C 0.53825 0.33289 0.65112 0.0
O89 O 0.51509 0.34057 0.64104 0.0
O90 O 0.50633 0.25507 0.64914 0.0
C91 C 0.11056 0.26634 0.92573 0.0
O92 O 0.08643 0.25687 0.91503 0.0
O93 O 0.08162 0.28764 0.86098 0.0
Zn94 Zn 0.09705 0.30794 0.89479 0.0
O95 O 0.06709 0.31407 0.92194 0.0
C96 C 0.09939 0.3598 0.87261 0.0
O97 O 0.07554 0.36251 0.88505 0.0
O98 O 0.12338 0.2878 0.91621 0.0
C99 C 0.04187 0.31961 0.92044 0.0
O100 O 0.03077 0.32423 0.89722 0.0
C101 C 0.05811 0.2733 0.85883 0.0
O102 O 0.04275 0.26858 0.88039 0.0
O103 O 0.11573 0.34358 0.88207 0.0
C104 C 0.43213 0.94071 0.22423 0.0
O105 O 0.42293 0.93862 0.24904 0.0
O106 O 0.36685 0.95837 0.24875 0.0
Zn107 Zn 0.39665 0.98048 0.22853 0.0
O108 O 0.42597 0.00351 0.25047 0.0
C109 C 0.35575 0.0143 0.21956 0.0
O110 O 0.35569 0.01165 0.24566 0.0
O111 O 0.41947 0.9551 0.20832 0.0
C112 C 0.42545 0.01996 0.27071 0.0
O113 O 0.40144 0.02489 0.28182 0.0
C114 C 0.36078 0.95931 0.27354 0.0
O115 O 0.37938 0.97052 0.29085 0.0
O116 O 0.3747 0.00405 0.20549 0.0
C117 C 0.31563 0.12293 0.54633 0.0
O118 O 0.32184 0.13069 0.52185 0.0
O119 O 0.30372 0.18549 0.51669 0.0
Zn120 Zn 0.27747 0.1561 0.53312 0.0
O121 O 0.26198 0.12561 0.50806 0.0
C122 C 0.23528 0.19058 0.53214 0.0
O123 O 0.23679 0.18313 0.50665 0.0
O124 O 0.29721 0.13497 0.55942 0.0
C125 C 0.25194 0.12066 0.48474 0.0
O126 O 0.24834 0.14092 0.46887 0.0
C127 C 0.31024 0.18771 0.49211 0.0
O128 O 0.30264 0.16735 0.475 0.0
O129 O 0.24796 0.17755 0.5492 0.0
C130 C 0.18164 0.00693 0.70041 0.0
O131 O 0.16878 -0.00317 0.72174 0.0
O132 O 0.12396 0.03148 0.73812 0.0
Zn133 Zn 0.15736 0.05205 0.72088 0.0
O134 O 0.18907 0.06287 0.74598 0.0
C135 C 0.13679 0.10386 0.72408 0.0
O136 O 0.14719 0.10365 0.74832 0.0
O137 O 0.17548 0.03 0.69246 0.0
C138 C 0.19117 0.06929 0.77082 0.0
O139 O 0.16858 0.07031 0.78576 0.0
C140 C 0.12374 0.01906 0.76005 0.0
O141 O 0.14746 0.01673 0.77242 0.0
O142 O 0.14245 0.08529 0.70692 0.0
C143 C 0.36778 0.88328 0.03689 0.0
O144 O 0.36987 0.89042 0.01174 0.0
O145 O 0.33924 0.93835 0.00764 0.0
Zn146 Zn 0.32137 0.91075 0.03221 0.0
O147 O 0.30108 0.8785 0.01266 0.0
C148 C 0.27635 0.9404 0.04219 0.0
O149 O 0.27169 0.93063 0.01762 0.0
O150 O 0.35058 0.89457 0.05221 0.0
C151 C 0.27966 0.86484 0.02226 0.0
O152 O 0.26809 0.87351 0.04456 0.0
C153 C 0.32864 0.94425 0.98558 0.0
O154 O 0.30747 0.92828 0.97537 0.0
O155 O 0.29611 0.93192 0.05548 0.0
C156 C 0.27892 0.46702 0.95277 0.0
O157 O 0.30638 0.46743 0.95201 0.0
O158 O 0.31394 0.40666 0.96896 0.0
Zn159 Zn 0.28786 0.4284 -0.01009 0.0
O160 O 0.30848 0.45911 0.01086 0.0
C161 C 0.27749 0.3853 0.02529 0.0
O162 O 0.30467 0.39073 0.02786 0.0
O163 O 0.26494 0.44819 0.96552 0.0
C164 C 0.30726 0.4664 0.03545 0.0
O165 O 0.29321 0.45039 0.05249 0.0
C166 C 0.33725 0.40113 0.9783 0.0
O167 O 0.34788 0.41521 -0.00061 0.0
O168 O 0.26389 0.40109 0.01177 0.0
C169 C 0.73406 0.20413 0.96159 0.0
O170 O 0.75918 0.20349 0.951 0.0
O171 O 0.76536 0.13788 0.95344 0.0
Zn172 Zn 0.75523 0.16204 0.98423 0.0
O173 O 0.78725 0.18943 -0.00394 0.0
C174 C 0.7623 0.12043 0.01985 0.0
O175 O 0.78802 0.12488 0.0106 0.0
O176 O 0.72438 0.18459 0.97599 0.0
C177 C 0.78972 0.19639 0.02073 0.0
O178 O 0.7736 0.18301 0.03829 0.0
C179 C 0.79059 0.13846 0.94553 0.0
O180 O 0.80804 0.16001 0.95213 0.0
O181 O 0.74399 0.1359 0.01279 0.0
C182 C 0.1304 0.5962 0.31782 0.0
O183 O 0.13713 0.57279 0.32691 0.0
O184 O 0.19626 0.56636 0.31312 0.0
Zn185 Zn 0.17122 0.58076 0.28563 0.0
O186 O 0.14275 0.55251 0.26866 0.0
C187 C 0.21432 0.57808 0.24958 0.0
O188 O 0.20884 0.5524 0.25633 0.0
O189 O 0.14653 0.60827 0.30073 0.0
C190 C 0.14132 0.52796 0.25912 0.0
O191 O 0.16356 0.5142 0.25876 0.0
C192 C 0.19383 0.54185 0.32101 0.0
O193 O 0.17098 0.52582 0.31507 0.0
O194 O 0.19831 0.59581 0.25818 0.0
C195 C 0.76521 0.9349 0.44267 0.0
O196 O 0.79124 0.93113 0.43627 0.0
O197 O 0.80511 0.89082 0.47893 0.0
Zn198 Zn 0.78153 0.91912 0.49424 0.0
O199 O 0.80257 0.95448 0.50774 0.0
C200 C 0.76852 0.89561 0.54455 0.0
O201 O 0.79375 0.90705 0.55048 0.0
O202 O 0.75623 0.92905 0.46597 0.0
C203 C 0.79249 0.96873 0.52666 0.0
O204 O 0.76937 0.95925 0.53886 0.0
C205 C 0.82496 0.88054 0.49058 0.0
O206 O 0.83484 0.89176 0.51333 0.0
O207 O 0.75792 0.90025 0.52215 0.0
C208 C 0.85798 0.03149 0.31627 0.0
O209 O 0.85435 0.00737 0.30359 0.0
O210 O 0.92105 -0.00295 0.289 0.0
Zn211 Zn 0.90454 0.03246 0.282 0.0
O212 O 0.87724 0.02611 0.25183 0.0
C213 C 0.95228 0.04462 0.25333 0.0
O214 O 0.94107 0.02091 0.24329 0.0
O215 O 0.88086 0.0465 0.31252 0.0
C216 C 0.87273 0.0028 0.23979 0.0
O217 O 0.89001 0.98397 0.24342 0.0
C218 C 0.91627 0.97338 0.2987 0.0
O219 O 0.89258 0.96639 0.3112 0.0
O220 O 0.93852 0.0575 0.27083 0.0
C221 C 0.21994 0.68964 0.45612 0.0
O222 O 0.24247 0.68456 0.44234 0.0
O223 O 0.26589 0.63747 0.46366 0.0
Zn224 Zn 0.24801 0.66165 0.49086 0.0
O225 O 0.27191 0.69634 0.50177 0.0
C226 C 0.25738 0.62446 0.53057 0.0
O227 O 0.28311 0.62979 0.52166 0.0
O228 O 0.21397 0.67594 0.47682 0.0
C229 C 0.29736 0.70137 0.50875 0.0
O230 O 0.31339 0.68112 0.51029 0.0
C231 C 0.28914 0.64357 0.45201 0.0
O232 O 0.30177 0.66852 0.45513 0.0
O233 O 0.23824 0.63801 0.5218 0.0
C234 C 0.37695 0.55094 0.83886 0.0
O235 O 0.37875 0.52458 0.83375 0.0
O236 O 0.43422 0.52106 0.80731 0.0
Zn237 Zn 0.41314 0.55168 0.79633 0.0
O238 O 0.38177 0.53851 0.77161 0.0
C239 C 0.44574 0.57592 0.75371 0.0
O240 O 0.42476 0.56482 0.73898 0.0
O241 O 0.39447 0.56821 0.82772 0.0
C242 C 0.38256 0.51926 0.75399 0.0
O243 O 0.40606 0.50805 0.74939 0.0
C244 C 0.43173 0.49495 0.80563 0.0
O245 O 0.40882 0.48133 0.79599 0.0
O246 O 0.44316 0.57665 0.77909 0.0
C247 C 0.62991 0.09381 0.81208 0.0
O248 O 0.63619 0.07181 0.82433 0.0
O249 O 0.70033 0.06911 0.81326 0.0
Zn250 Zn 0.67313 0.07559 0.78426 0.0
O251 O 0.6481 0.04173 0.77315 0.0
C252 C 0.71433 0.06826 0.74677 0.0
O253 O 0.70894 0.04331 0.75569 0.0
O254 O 0.64648 0.10342 0.79404 0.0
C255 C 0.63963 0.04046 0.74902 0.0
O256 O 0.64948 0.05947 0.73254 0.0
C257 C 0.70235 0.04553 0.82253 0.0
O258 O 0.68223 0.02579 0.81775 0.0
O259 O 0.69885 0.08682 0.75443 0.0
C260 C 0.82647 0.62963 0.05985 0.0
O261 O 0.84605 0.64164 0.04452 0.0
O262 O 0.824 0.68481 0.01408 0.0
Zn263 Zn 0.79207 0.65958 0.02799 0.0
O264 O 0.77778 0.6317 9e-05 0.0
C265 C 0.7557 0.70046 0.01994 0.0
O266 O 0.76257 0.69519 -0.00515 0.0
O267 O 0.80169 0.6365 0.05837 0.0
C268 C 0.75188 0.62408 -0.0021 0.0
O269 O 0.73379 0.63731 0.01198 0.0
C270 C 0.82762 0.68498 0.98885 0.0
O271 O 0.81613 0.6642 0.97402 0.0
O272 O 0.76369 0.6854 0.03818 0.0
C273 C 0.94012 0.47683 0.72746 0.0
O274 O 0.93017 0.47504 0.75202 0.0
O275 O 0.87265 0.48532 0.75048 0.0
Zn276 Zn 0.89813 0.51006 0.72816 0.0
O277 O 0.92024 0.53741 0.7522 0.0
C278 C 0.85483 0.53885 0.72137 0.0
O279 O 0.86177 0.54195 0.74681 0.0
O280 O 0.92684 0.48918 0.71029 0.0
C281 C 0.93606 0.5584 0.74548 0.0
O282 O 0.9364 0.56597 0.72045 0.0
C283 C 0.86935 0.49064 0.77535 0.0
O284 O 0.88758 0.50832 0.78788 0.0
O285 O 0.87125 0.52764 0.70512 0.0
C286 C 0.82456 0.37598 0.53355 0.0
O287 O 0.81332 0.37815 0.50987 0.0
O288 O 0.78827 0.44232 0.52931 0.0
Zn289 Zn 0.77985 0.40684 0.54777 0.0
O290 O 0.75557 0.38064 0.52419 0.0
C291 C 0.73762 0.42573 0.57951 0.0
O292 O 0.72183 0.41399 0.56011 0.0
O293 O 0.81475 0.38855 0.55378 0.0
C294 C 0.73875 0.36046 0.53118 0.0
O295 O 0.73313 0.3569 0.55672 0.0
C296 C 0.78682 0.44563 0.50425 0.0
O297 O 0.78126 0.42418 0.48784 0.0
O298 O 0.76207 0.41831 0.58214 0.0
C299 C 0.68188 0.50258 0.19863 0.0
O300 O 0.66931 0.49081 0.2193 0.0
O301 O 0.6197 0.52282 0.23561 0.0
Zn302 Zn 0.65334 0.54507 0.22019 0.0
O303 O 0.68303 0.55634 0.24717 0.0
C304 C 0.63379 0.59736 0.22534 0.0
O305 O 0.64579 0.5968 0.24886 0.0
O306 O 0.67433 0.52549 0.1916 0.0
C307 C 0.68396 0.55843 0.27257 0.0
O308 O 0.6614 0.553 0.28725 0.0
C309 C 0.61899 0.50755 0.25573 0.0
O310 O 0.64251 0.50254 0.26712 0.0
O311 O 0.63802 0.5788 0.2076 0.0
O312 O 0.16079 0.1084 0.07908 0.0
Mg313 Mg 0.12514 0.12599 0.09528 0.0
O314 O 0.19124 0.12739 0.10965 0.0
Mg315 Mg 0.17236 0.16073 0.13649 0.0
O316 O 0.13921 0.16516 0.1059 0.0
O317 O 0.10586 0.15662 0.07586 0.0
O318 O 0.15141 0.1918 0.16513 0.0
O319 O 0.19888 0.19612 0.11462 0.0
Mg320 Mg 0.21783 0.19583 0.1772 0.0
O321 O 0.20761 0.15595 0.16581 0.0
O322 O 0.18227 0.20921 0.19597 0.0
O323 O 0.23088 0.21691 0.14262 0.0
O324 O 0.24125 0.16817 0.19539 0.0
C325 C 0.12117 0.11123 0.15429 0.0
C326 C 0.18498 0.1108 0.0897 0.0
C327 C 0.12318 0.17432 0.08842 0.0
C328 C 0.15769 0.20637 0.18643 0.0
C329 C 0.21911 0.21455 0.11981 0.0
C330 C 0.22711 0.1491 0.18127 0.0
O331 O 0.11 0.10878 0.13118 0.0
O332 O 0.14349 0.12724 0.1591 0.0
O333 O 0.12859 0.83638 0.33465 0.0
Mg334 Mg 0.16751 0.85462 0.34833 0.0
O335 O 0.10304 0.86963 0.34965 0.0
Mg336 Mg 0.12844 0.8969 0.38332 0.0
O337 O 0.16044 0.86715 0.38614 0.0
O338 O 0.19115 0.83732 0.37727 0.0
O339 O 0.15511 0.9257 0.41364 0.0
O340 O 0.10425 0.87451 0.41871 0.0
Mg341 Mg 0.0893 0.93913 0.41974 0.0
O342 O 0.0964 0.92657 0.38154 0.0
O343 O 0.12893 0.95605 0.43356 0.0
O344 O 0.07507 0.90205 0.43874 0.0
O345 O 0.06582 0.95638 0.38992 0.0
C346 C 0.17275 0.91484 0.3324 0.0
C347 C 0.10623 0.8484 0.33439 0.0
C348 C 0.17756 0.8509 0.39479 0.0
C349 C 0.15238 0.94644 0.42952 0.0
C350 C 0.0855 0.87907 0.43639 0.0
C351 C 0.07746 0.94071 0.37276 0.0
O352 O 0.18087 0.89092 0.32929 0.0
O353 O 0.15449 0.92061 0.35005 0.0
O354 O 0.47647 0.97552 0.63706 0.0
Mg355 Mg 0.46268 0.96225 0.59799 0.0
O356 O 0.45284 0.9406 0.6574 0.0
Mg357 Mg 0.41871 0.91677 0.63039 0.0
O358 O 0.42121 0.95076 0.60156 0.0
O359 O 0.43621 0.98419 0.57516 0.0
O360 O 0.38592 0.89035 0.60332 0.0
O361 O 0.3835 0.93798 0.65247 0.0
Mg362 Mg 0.37598 0.87244 0.6678 0.0
O363 O 0.41614 0.88432 0.65985 0.0
O364 O 0.36145 0.85974 0.62898 0.0
O365 O 0.36077 0.91005 0.68166 0.0
O366 O 0.4064 0.85297 0.68943 0.0
C367 C 0.47275 0.90136 0.59065 0.0
C368 C 0.471 0.96151 0.65774 0.0
C369 C 0.41549 0.9698 0.586 0.0
C370 C 0.36736 0.86996 0.60626 0.0
C371 C 0.36519 0.93336 0.67095 0.0
C372 C 0.42499 0.86901 0.6775 0.0
O373 O 0.47934 0.92604 0.58404 0.0
O374 O 0.45261 0.89477 0.60682 0.0
O375 O 0.4736 0.17403 0.94353 0.0
Mg376 Mg 0.45455 0.13573 0.92873 0.0
O377 O 0.44083 0.19903 0.92869 0.0
Mg378 Mg 0.41171 0.17395 0.89766 0.0
O379 O 0.44243 0.14291 0.89104 0.0
O380 O 0.47297 0.11308 0.898 0.0
O381 O 0.38194 0.14792 0.86827 0.0
O382 O 0.43646 0.19618 0.86218 0.0
Mg383 Mg 0.38455 0.21055 0.86754 0.0
O384 O 0.37946 0.20578 0.90791 0.0
O385 O 0.3693 0.17866 0.84072 0.0
O386 O 0.42003 0.23585 0.85662 0.0
O387 O 0.35296 0.23057 0.88293 0.0
C388 C 0.39349 0.12992 0.94704 0.0
C389 C 0.46269 0.19671 0.94268 0.0
C390 C 0.45975 0.12666 0.88131 0.0
C391 C 0.36909 0.15392 0.84735 0.0
C392 C 0.43836 0.21956 0.85135 0.0
C393 C 0.36018 0.22263 0.90608 0.0
O394 O 0.41764 0.12149 0.94896 0.0
O395 O 0.38838 0.1483 0.93065 0.0
O396 O 0.63268 0.35393 0.82822 0.0
Mg397 Mg 0.67334 0.36898 0.84075 0.0
O398 O 0.61197 0.38697 0.85022 0.0
Mg399 Mg 0.63956 0.40728 0.88501 0.0
O400 O 0.67002 0.37582 0.88072 0.0
O401 O 0.69842 0.34646 0.86443 0.0
O402 O 0.66686 0.43008 0.91852 0.0
O403 O 0.61526 0.38142 0.91748 0.0
Mg404 Mg 0.59929 0.44551 0.92663 0.0
O405 O 0.60966 0.43789 0.88867 0.0
O406 O 0.63972 0.45699 0.9424 0.0
O407 O 0.58368 0.40565 0.93844 0.0
O408 O 0.57816 0.4663 0.89694 0.0
C409 C 0.68219 0.43159 0.83548 0.0
C410 C 0.61161 0.3674 0.83249 0.0
C411 C 0.68736 0.35805 0.88499 0.0
C412 C 0.66335 0.44794 0.93736 0.0
C413 C 0.59538 0.3835 0.93456 0.0
C414 C 0.59152 0.45245 0.87954 0.0
O415 O 0.68785 0.40804 0.82656 0.0
O416 O 0.66578 0.43462 0.85542 0.0
O417 O 0.97982 0.47501 0.12292 0.0
Mg418 Mg 0.96224 0.45915 0.08567 0.0
O419 O 0.95653 0.44462 0.14945 0.0
Mg420 Mg 0.92122 0.41779 0.12639 0.0
O421 O 0.92169 0.44888 0.0948 0.0
O422 O 0.93255 0.48007 0.06507 0.0
O423 O 0.8875 0.38898 0.10251 0.0
O424 O 0.88643 0.44067 0.14793 0.0
Mg425 Mg 0.88081 0.37712 0.16811 0.0
O426 O 0.92104 0.38835 0.15926 0.0
O427 O 0.86484 0.36041 0.13123 0.0
O428 O 0.86505 0.41498 0.1796 0.0
O429 O 0.91073 0.35953 0.19134 0.0
C430 C 0.9718 0.39786 0.08407 0.0
C431 C 0.97533 0.46458 0.14576 0.0
C432 C 0.91373 0.46758 0.07998 0.0
C433 C 0.86944 0.36875 0.10758 0.0
C434 C 0.8687 0.43732 0.16712 0.0
C435 C 0.92949 0.37451 0.17844 0.0
O436 O 0.97662 0.4212 0.07359 0.0
O437 O 0.95407 0.39353 0.10312 0.0
O438 O 0.9504 0.67106 0.45045 0.0
Mg439 Mg 0.93974 0.63072 0.43394 0.0
O440 O 0.9174 0.69033 0.42858 0.0
Mg441 Mg 0.89955 0.66325 0.39279 0.0
O442 O 0.93395 0.63616 0.39457 0.0
O443 O 0.96629 0.61061 0.40737 0.0
O444 O 0.87913 0.63489 0.35853 0.0
O445 O 0.92745 0.68931 0.36272 0.0
Mg446 Mg 0.86111 0.69824 0.35216 0.0
O447 O 0.8659 0.69178 0.39131 0.0
O448 O 0.85128 0.65878 0.33462 0.0
O449 O 0.90095 0.71691 0.34162 0.0
O450 O 0.83472 0.71867 0.3784 0.0
C451 C 0.87582 0.61807 0.43974 0.0
C452 C 0.93605 0.69119 0.44679 0.0
C453 C 0.95427 0.62194 0.38821 0.0
C454 C 0.8616 0.63651 0.3396 0.0
C455 C 0.9247 0.70877 0.34675 0.0
C456 C 0.84824 0.70913 0.39767 0.0
O457 O 0.90018 0.61285 0.44672 0.0
O458 O 0.87191 0.63538 0.42176 0.0
O459 O 0.83989 0.86855 0.8805 0.0
Mg460 Mg 0.85932 0.88642 0.8466 0.0
O461 O 0.87582 0.88406 0.90631 0.0
Mg462 Mg 0.90392 0.91967 0.88671 0.0
O463 O 0.87114 0.92695 0.85492 0.0
O464 O 0.83957 0.91295 0.82364 0.0
O465 O 0.93423 0.95292 0.86579 0.0
O466 O 0.884 0.95246 0.91378 0.0
Mg467 Mg 0.94987 0.95274 0.92892 0.0
O468 O 0.93548 0.91331 0.91898 0.0
O469 O 0.96763 0.97011 0.89417 0.0
O470 O 0.91473 0.97161 0.94387 0.0
O471 O 0.96835 0.92283 0.94962 0.0
C472 C 0.91828 0.87054 0.84017 0.0
C473 C 0.85338 0.86821 0.90225 0.0
C474 C 0.85287 0.93285 0.83746 0.0
C475 C 0.95679 0.96834 0.87095 0.0
C476 C 0.89038 0.96925 0.93358 0.0
C477 C 0.95139 0.90477 0.93706 0.0
O478 O 0.89339 0.86665 0.83147 0.0
O479 O 0.92525 0.88813 0.85909 0.0
O480 O 0.93121 0.23866 0.69214 0.0
Mg481 Mg 0.89154 0.22214 0.67687 0.0
O482 O 0.95593 0.20885 0.66957 0.0
Mg483 Mg 0.92991 0.18451 0.6351 0.0
O484 O 0.89794 0.21471 0.63725 0.0
O485 O 0.86777 0.24354 0.65042 0.0
O486 O 0.90332 0.15759 0.60241 0.0
O487 O 0.95324 0.21056 0.60166 0.0
Mg488 Mg 0.97105 0.14602 0.59541 0.0
O489 O 0.96168 0.15514 0.63349 0.0
O490 O 0.9316 0.13011 0.58083 0.0
O491 O 0.98347 0.18526 0.58011 0.0
O492 O -0.00703 0.12629 0.62501 0.0
C493 C 0.88749 0.15983 0.68482 0.0
C494 C 0.95402 0.22795 0.68762 0.0
C495 C 0.88099 0.23224 0.63106 0.0
C496 C 0.90745 0.13815 0.58522 0.0
C497 C 0.9721 0.20766 0.58367 0.0
C498 C 0.97932 0.13981 0.64247 0.0
O499 O 0.87848 0.18282 0.69137 0.0
O500 O 0.90556 0.15732 0.66618 0.0
O501 O 0.70008 0.20794 0.37273 0.0
Mg502 Mg 0.6847 0.18606 0.33741 0.0
O503 O 0.67489 0.18444 0.40368 0.0
Mg504 Mg 0.64684 0.14842 0.38309 0.0
O505 O 0.67824 0.14705 0.34944 0.0
O506 O 0.70855 0.1572 0.31733 0.0
O507 O 0.61674 0.11348 0.36191 0.0
O508 O 0.67139 0.11643 0.40247 0.0
Mg509 Mg 0.61074 0.11075 0.42844 0.0
O510 O 0.61728 0.15039 0.41787 0.0
O511 O 0.5922 0.09087 0.39386 0.0
O512 O 0.65031 0.09796 0.4383 0.0
O513 O 0.58919 0.13872 0.45153 0.0
C514 C 0.62259 0.19353 0.34155 0.0
C515 C 0.69277 0.20424 0.39706 0.0
C516 C 0.69809 0.13959 0.33414 0.0
C517 C 0.59774 0.09491 0.36924 0.0
C518 C 0.671 0.10053 0.42221 0.0
C519 C 0.60084 0.15769 0.43672 0.0
O520 O 0.64473 0.19664 0.32736 0.0
O521 O 0.62068 0.17866 0.3621 0.0
O522 O 0.59494 0.89171 0.08053 0.0
Mg523 Mg 0.61018 0.93161 0.09484 0.0
O524 O 0.63383 0.87472 0.09292 0.0
Mg525 Mg 0.65491 0.89885 0.12873 0.0
O526 O 0.62115 0.92725 0.13329 0.0
O527 O 0.58849 0.95397 0.12336 0.0
O528 O 0.67801 0.92284 0.1633 0.0
O529 O 0.63054 0.8719 0.16012 0.0
Mg530 Mg 0.68928 0.85617 0.16098 0.0
O531 O 0.68994 0.87114 0.12376 0.0
O532 O 0.69694 0.89165 0.1871 0.0
O533 O 0.64955 0.83315 0.16066 0.0
O534 O 0.72051 0.84285 0.13596 0.0
C535 C 0.67281 0.945 0.08194 0.0
C536 C 0.61207 0.87348 0.07827 0.0
C537 C 0.60251 0.94292 0.14137 0.0
C538 C 0.69185 0.91637 0.18349 0.0
C539 C 0.63126 0.84813 0.16957 0.0
C540 C 0.70964 0.85594 0.11729 0.0
O541 O 0.64755 0.94874 0.07669 0.0
O542 O 0.67913 0.92845 0.09971 0.0
O543 O 0.43516 0.74398 0.19116 0.0
Mg544 Mg 0.39537 0.72755 0.17693 0.0
O545 O 0.46257 0.71367 0.17289 0.0
Mg546 Mg 0.43616 0.68584 0.14027 0.0
O547 O 0.40485 0.71555 0.13958 0.0
O548 O 0.37335 0.74462 0.14547 0.0
O549 O 0.40925 0.65802 0.1097 0.0
O550 O 0.45992 0.70823 0.10447 0.0
Mg551 Mg 0.47641 0.64577 0.10255 0.0
O552 O 0.46578 0.65416 0.14069 0.0
O553 O 0.43714 0.63262 0.0852 0.0
O554 O 0.49384 0.68392 0.08845 0.0
O555 O 0.49377 0.62214 0.13189 0.0
C556 C 0.39186 0.66645 0.19076 0.0
C557 C 0.45882 0.73422 0.18896 0.0
C558 C 0.38805 0.73083 0.12916 0.0
C559 C 0.41302 0.63997 0.09113 0.0
C560 C 0.48053 0.70523 0.08844 0.0
C561 C 0.48013 0.63564 0.14943 0.0
O562 O 0.38222 0.6897 0.19427 0.0
O563 O 0.41091 0.66222 0.17344 0.0
O564 O 0.09841 0.59558 0.89039 0.0
Mg565 Mg 0.11354 0.61645 0.92547 0.0
O566 O 0.11518 0.63028 0.86564 0.0
Mg567 Mg 0.15055 0.65843 0.88808 0.0
O568 O 0.15495 0.62865 0.9216 0.0
O569 O 0.13866 0.59898 0.95199 0.0
O570 O 0.18461 0.68815 0.91025 0.0
O571 O 0.18414 0.63601 0.86447 0.0
Mg572 Mg 0.18783 0.69926 0.8458 0.0
O573 O 0.14735 0.68809 0.85525 0.0
O574 O 0.20606 0.71708 0.88138 0.0
O575 O 0.20419 0.66219 0.83272 0.0
O576 O 0.15808 0.718 0.82393 0.0
C577 C 0.09789 0.67498 0.92897 0.0
C578 C 0.09923 0.60807 0.86852 0.0
C579 C 0.15978 0.61211 0.94037 0.0
C580 C 0.20233 0.70857 0.90504 0.0
C581 C 0.20112 0.63954 0.84473 0.0
C582 C 0.13913 0.70329 0.83691 0.0
O583 O 0.09275 0.65063 0.93687 0.0
O584 O 0.11758 0.6815 0.91231 0.0
O585 O 0.09672 0.39082 0.59158 0.0
Mg586 Mg 0.11633 0.42924 0.60543 0.0
O587 O 0.13679 0.37615 0.60268 0.0
Mg588 Mg 0.16005 0.39983 0.63772 0.0
O589 O 0.12762 0.43039 0.64503 0.0
O590 O 0.0954 0.45561 0.62923 0.0
O591 O 0.18794 0.4235 0.67038 0.0
O592 O 0.1356 0.37196 0.66952 0.0
Mg593 Mg 0.19729 0.35717 0.66753 0.0
O594 O 0.1924 0.37022 0.63021 0.0
O595 O 0.21188 0.39275 0.68992 0.0
O596 O 0.1588 0.3363 0.67849 0.0
O597 O 0.22276 0.34038 0.63859 0.0
C598 C 0.17659 0.44394 0.58875 0.0
C599 C 0.11458 0.37349 0.58866 0.0
C600 C 0.1092 0.44776 0.64926 0.0
C601 C 0.20628 0.41736 0.68705 0.0
C602 C 0.13712 0.34914 0.68109 0.0
C603 C 0.2102 0.35393 0.62138 0.0
O604 O 0.15102 0.44581 0.58332 0.0
O605 O 0.18375 0.42905 0.60763 0.0
O606 O 0.65999 0.61198 0.57411 0.0
Mg607 Mg 0.62398 0.62675 0.59163 0.0
O608 O 0.68812 0.629 0.60705 0.0
Mg609 Mg 0.66751 0.66217 0.63315 0.0
O610 O 0.63436 0.66699 0.60215 0.0
O611 O 0.60128 0.65432 0.57231 0.0
O612 O 0.64809 0.69461 0.66034 0.0
O613 O 0.69442 0.69755 0.61205 0.0
Mg614 Mg 0.71646 0.69598 0.66606 0.0
O615 O 0.69927 0.65655 0.66551 0.0
O616 O 0.68444 0.72131 0.67739 0.0
O617 O 0.73673 0.70121 0.62902 0.0
O618 O 0.73319 0.67206 0.69381 0.0
C619 C 0.61826 0.61098 0.64976 0.0
C620 C 0.68347 0.61354 0.586 0.0
C621 C 0.61652 0.67378 0.58494 0.0
C622 C 0.6582 0.71562 0.67434 0.0
C623 C 0.71978 0.70809 0.6118 0.0
C624 C 0.71684 0.65176 0.68387 0.0
O625 O 0.60854 0.60668 0.6262 0.0
O626 O 0.63866 0.62915 0.65486 0.0
O627 O 0.33414 0.36879 0.38932 0.0
Mg628 Mg 0.35364 0.38373 0.35443 0.0
O629 O 0.36988 0.38588 0.41461 0.0
Mg630 Mg 0.39943 0.41763 0.39017 0.0
O631 O 0.36561 0.42476 0.35914 0.0
O632 O 0.33297 0.40744 0.32989 0.0
O633 O 0.43027 0.44715 0.3648 0.0
O634 O 0.3812 0.45456 0.41359 0.0
Mg635 Mg 0.44139 0.45181 0.42597 0.0
O636 O 0.43301 0.41009 0.42192 0.0
O637 O 0.46013 0.47044 0.39273 0.0
O638 O 0.41028 0.47207 0.44523 0.0
O639 O 0.46657 0.43124 0.44851 0.0
C640 C 0.41039 0.36488 0.34615 0.0
C641 C 0.3468 0.37056 0.41163 0.0
C642 C 0.34655 0.42859 0.34164 0.0
C643 C 0.45136 0.4648 0.36914 0.0
C644 C 0.38718 0.4717 0.43311 0.0
C645 C 0.45266 0.40883 0.43962 0.0
O646 O 0.38527 0.36173 0.33808 0.0
O647 O 0.41809 0.38282 0.36455 0.0
H648 H 0.03551 0.26868 0.29968 0.0
H649 H 0.11602 0.26378 0.33707 0.0
H650 H 0.05367 0.24972 0.2576 0.0
H651 H 0.13371 0.24455 0.29509 0.0
H652 H 0.13678 0.17754 0.22724 0.0
H653 H 0.11085 0.19489 0.26559 0.0
H654 H 0.10474 0.27111 0.2258 0.0
H655 H 0.13158 0.25383 0.18738 0.0
C656 C 0.05693 0.26336 0.29902 0.0
C657 C 0.0743 0.26759 0.32176 0.0
C658 C 0.06727 0.25274 0.27494 0.0
C659 C 0.09494 0.2459 0.27338 0.0
C660 C 0.1122 0.24968 0.29607 0.0
C661 C 0.10202 0.26053 0.32005 0.0
C662 C 0.12893 0.19758 0.2263 0.0
C663 C 0.13552 0.21427 0.20443 0.0
C664 C 0.11439 0.20752 0.24823 0.0
C665 C 0.10599 0.23419 0.24841 0.0
C666 C 0.11092 0.25035 0.22577 0.0
C667 C 0.12598 0.24049 0.20387 0.0
H668 H 0.08047 0.76991 0.57349 0.0
H669 H 0.0369 0.84132 0.59431 0.0
H670 H 0.0883 0.78667 0.52801 0.0
H671 H 0.0446 0.85774 0.54919 0.0
H672 H 0.03517 0.86602 0.4607 0.0
H673 H 0.02727 0.84272 0.50311 0.0
H674 H 0.11444 0.82717 0.50469 0.0
H675 H 0.12229 0.85126 0.46288 0.0
C676 C 0.07286 0.78928 0.5685 0.0
C677 C 0.05801 0.80423 0.58754 0.0
C678 C 0.07725 0.79879 0.54246 0.0
C679 C 0.06656 0.82321 0.53493 0.0
C680 C 0.05251 0.83851 0.55422 0.0
C681 C 0.0484 0.82922 0.58021 0.0
C682 C 0.05239 0.85686 0.46974 0.0
C683 C 0.07919 0.85956 0.45802 0.0
C684 C 0.04797 0.84377 0.49409 0.0
C685 C 0.0703 0.83326 0.50727 0.0
C686 C 0.09674 0.83466 0.49481 0.0
C687 C 0.10117 0.84795 0.47055 0.0
H688 H 0.54127 0.90687 0.80697 0.0
H689 H 0.48366 0.83318 0.80977 0.0
H690 H 0.53024 0.9108 0.7593 0.0
H691 H 0.4732 0.83696 0.76277 0.0
H692 H 0.46309 0.83189 0.68158 0.0
H693 H 0.49835 0.83431 0.71698 0.0
H694 H 0.4831 0.91857 0.73586 0.0
H695 H 0.44789 0.91593 0.70094 0.0
C696 C 0.5262 0.89167 0.79748 0.0
C697 C 0.51319 0.86982 0.8121 0.0
C698 C 0.52028 0.89372 0.77024 0.0
C699 C 0.50173 0.87363 0.75727 0.0
C700 C 0.4884 0.85217 0.77207 0.0
C701 C 0.49391 0.85037 0.79919 0.0
C702 C 0.46863 0.85137 0.69223 0.0
C703 C 0.45315 0.87381 0.68855 0.0
C704 C 0.4887 0.85278 0.71244 0.0
C705 C 0.49273 0.8764 0.72945 0.0
C706 C 0.48038 0.90017 0.72297 0.0
C707 C 0.46038 0.89876 0.70273 0.0
H708 H 0.50031 0.22524 0.10136 0.0
H709 H 0.47377 0.30536 0.08719 0.0
H710 H 0.49278 0.21187 0.05423 0.0
H711 H 0.46685 0.29238 0.03943 0.0
H712 H 0.43401 0.23905 0.96187 0.0
H713 H 0.44013 0.26106 0.00637 0.0
H714 H 0.51901 0.22599 0.01388 0.0
H715 H 0.51206 0.20293 0.97007 0.0
C716 C 0.49206 0.23965 0.08814 0.0
C717 C 0.48719 0.26607 0.09761 0.0
C718 C 0.48831 0.2323 0.06113 0.0
C719 C 0.48016 0.25146 0.04304 0.0
C720 C 0.47339 0.27733 0.05292 0.0
C721 C 0.47699 0.28464 0.08016 0.0
C722 C 0.45288 0.23658 0.97277 0.0
C723 C 0.47181 0.21826 0.96309 0.0
C724 C 0.45644 0.24922 -0.00175 0.0
C725 C 0.47939 0.24411 0.01402 0.0
C726 C 0.50046 0.22924 0.00256 0.0
C727 C 0.49666 0.21632 0.97734 0.0
H728 H -0.00714 0.85287 0.19778 0.0
H729 H 0.04002 0.78262 0.18308 0.0
H730 H 0.01688 0.8623 0.24087 0.0
H731 H 0.0632 0.7916 0.22595 0.0
H732 H 0.12385 0.83389 0.28524 0.0
H733 H 0.09751 0.82651 0.24425 0.0
H734 H 0.02159 0.84217 0.28699 0.0
H735 H 0.04861 0.84981 0.32898 0.0
C736 C 0.00848 0.83962 0.20359 0.0
C737 C 0.01474 0.81717 0.18684 0.0
C738 C 0.02189 0.84479 0.22841 0.0
C739 C 0.04189 0.82769 0.23681 0.0
C740 C 0.04814 0.80538 0.21995 0.0
C741 C 0.03485 0.80025 0.19529 0.0
C742 C 0.10143 0.83535 0.28623 0.0
C743 C 0.08823 0.84218 0.31053 0.0
C744 C 0.08634 0.8312 0.26257 0.0
C745 C 0.05742 0.83344 0.26237 0.0
C746 C 0.04396 0.84048 0.28655 0.0
C747 C 0.05931 0.84483 0.31053 0.0
H748 H 0.57833 0.8321 0.47205 0.0
H749 H 0.4951 0.83576 0.44023 0.0
H750 H 0.56078 0.83884 0.51715 0.0
H751 H 0.47779 0.84459 0.48567 0.0
H752 H 0.44866 0.85295 0.56884 0.0
H753 H 0.46799 0.82771 0.5308 0.0
H754 H 0.54662 0.87851 0.53987 0.0
H755 H 0.52749 0.90299 0.57775 0.0
C756 C 0.55618 0.83425 0.47466 0.0
C757 C 0.53805 0.83331 0.4525 0.0
C758 C 0.54617 0.83821 0.5006 0.0
C759 C 0.51791 0.84225 0.50504 0.0
C760 C 0.49959 0.84099 0.48296 0.0
C761 C 0.50957 0.83645 0.45689 0.0
C762 C 0.47047 0.85769 0.56339 0.0
C763 C 0.48659 0.88004 0.57579 0.0
C764 C 0.48139 0.84358 0.54141 0.0
C765 C 0.50855 0.85159 0.53191 0.0
C766 C 0.52563 0.87174 0.54659 0.0
C767 C 0.51471 0.88584 0.56833 0.0
H768 H 0.44872 0.28158 0.6991 0.0
H769 H 0.51008 0.22264 0.6884 0.0
H770 H 0.44242 0.26908 0.74564 0.0
H771 H 0.5037 0.21019 0.73538 0.0
H772 H 0.4598 0.26852 0.8322 0.0
H773 H 0.47385 0.27692 0.78585 0.0
H774 H 0.4668 0.18934 0.76802 0.0
H775 H 0.45288 0.18094 0.81443 0.0
C776 C 0.46068 0.26574 0.70658 0.0
C777 C 0.48018 0.25338 0.69014 0.0
C778 C 0.45727 0.2588 0.73334 0.0
C779 C 0.47321 0.23927 0.74428 0.0
C780 C 0.49141 0.22554 0.72748 0.0
C781 C 0.49494 0.23261 0.7006 0.0
C782 C 0.46224 0.25107 0.81862 0.0
C783 C 0.45532 0.22413 0.8269 0.0
C784 C 0.46994 0.25585 0.79205 0.0
C785 C 0.47068 0.23377 0.77325 0.0
C786 C 0.46636 0.20672 0.7821 0.0
C787 C 0.45871 0.20192 0.80877 0.0
H788 H 0.15608 0.28442 0.95756 0.0
H789 H 0.08061 0.22823 0.95515 0.0
H790 H 0.16319 0.27316 0.00462 0.0
H791 H 0.08749 0.2176 0.00143 0.0
H792 H 0.08525 0.21137 0.0836 0.0
H793 H 0.08627 0.24305 0.04681 0.0
H794 H 0.17214 0.22844 0.02975 0.0
H795 H 0.1711 0.19723 0.06696 0.0
C796 C 0.14118 0.26959 0.96693 0.0
C797 C 0.11775 0.25725 0.9526 0.0
C798 C 0.14511 0.26342 -0.00614 0.0
C799 C 0.12537 0.24527 0.00688 0.0
C800 C 0.10254 0.23243 -0.00777 0.0
C801 C 0.09886 0.23821 0.96547 0.0
C802 C 0.10486 0.21641 0.07312 0.0
C803 C 0.1281 0.20197 0.07793 0.0
C804 C 0.1054 0.23429 0.05191 0.0
C805 C 0.12898 0.23735 0.03493 0.0
C806 C 0.15367 0.22635 0.04245 0.0
C807 C 0.1532 0.20869 0.06396 0.0
H808 H 0.35675 0.04781 0.17652 0.0
H809 H 0.30188 0.00842 0.23555 0.0
H810 H 0.31878 0.07416 0.16252 0.0
H811 H 0.26349 0.03284 0.22048 0.0
H812 H 0.2276 0.11742 0.22416 0.0
H813 H 0.25466 0.07834 0.22862 0.0
H814 H 0.27453 0.07979 0.14379 0.0
H815 H 0.24826 0.12012 0.14003 0.0
C816 C 0.33631 0.04419 0.18586 0.0
C817 C 0.33229 0.0266 0.20741 0.0
C818 C 0.31443 0.05906 0.17774 0.0
C819 C 0.2881 0.05601 0.19073 0.0
C820 C 0.28363 0.03636 0.21058 0.0
C821 C 0.30561 0.02222 0.21913 0.0
C822 C 0.2369 0.10863 0.20634 0.0
C823 C 0.23547 0.12115 0.18167 0.0
C824 C 0.25241 0.08615 0.20878 0.0
C825 C 0.267 0.07587 0.18654 0.0
C826 C 0.26388 0.08737 0.16138 0.0
C827 C 0.24844 0.11007 0.15906 0.0
H828 H 0.25789 0.07508 0.51337 0.0
H829 H 0.22983 0.10047 0.43659 0.0
H830 H 0.24281 0.02737 0.50091 0.0
H831 H 0.21488 0.05245 0.42419 0.0
H832 H 0.20016 0.96343 0.403 0.0
H833 H 0.23243 0.00351 0.41637 0.0
H834 H 0.19183 0.00667 0.49391 0.0
H835 H 0.15927 0.96731 0.48022 0.0
C836 C 0.24878 0.0705 0.4937 0.0
C837 C 0.24464 0.09165 0.47605 0.0
C838 C 0.24035 0.04313 0.48658 0.0
C839 C 0.22788 0.0363 0.4616 0.0
C840 C 0.2249 0.0572 0.44344 0.0
C841 C 0.23315 0.08469 0.45063 0.0
C842 C 0.199 0.97205 0.42324 0.0
C843 C 0.17722 0.96267 0.44055 0.0
C844 C 0.21723 -0.00495 0.43078 0.0
C845 C 0.21423 0.00833 0.45596 0.0
C846 C 0.19458 -0.00321 0.47439 0.0
C847 C 0.17599 0.97428 0.46662 0.0
H848 H 0.20391 0.96156 0.71767 0.0
H849 H 0.22078 0.03004 0.6654 0.0
H850 H 0.25167 0.94987 0.71149 0.0
H851 H 0.26896 0.01846 0.65954 0.0
H852 H 0.33983 0.96148 0.63413 0.0
H853 H 0.2962 0.9827 0.64007 0.0
H854 H 0.29851 0.96891 0.72518 0.0
H855 H 0.34219 0.94737 0.71896 0.0
C856 C 0.2177 0.97394 0.70459 0.0
C857 C 0.20856 -0.00319 0.69215 0.0
C858 C 0.24524 0.96751 0.70141 0.0
C859 C 0.26428 0.98374 0.68566 0.0
C860 C 0.2548 0.00573 0.672 0.0
C861 C 0.22716 0.01222 0.67521 0.0
C862 C 0.33178 0.96433 0.65426 0.0
C863 C 0.34441 0.95311 0.67612 0.0
C864 C 0.30658 0.97617 0.65765 0.0
C865 C 0.29361 0.97684 0.68298 0.0
C866 C 0.30769 0.96796 0.70528 0.0
C867 C 0.33279 0.95595 0.70183 0.0
H868 H 0.29327 0.97538 0.96013 0.0
H869 H 0.37653 0.97748 -0.00676 0.0
H870 H 0.29922 0.02539 0.95634 0.0
H871 H 0.38295 0.02694 0.98855 0.0
H872 H 0.38965 0.11247 -0.00195 0.0
H873 H 0.36673 0.06764 0.00927 0.0
H874 H 0.32521 0.06152 0.93227 0.0
H875 H 0.34685 0.10701 0.92194 0.0
C876 C 0.31312 0.98645 0.96585 0.0
C877 C 0.33445 0.97268 0.97704 0.0
C878 C 0.31638 0.01508 0.96401 0.0
C879 C 0.34115 0.03023 0.97302 0.0
C880 C 0.36309 0.01607 0.98255 0.0
C881 C 0.35971 0.98766 0.98469 0.0
C882 C 0.37424 0.10223 0.98433 0.0
C883 C 0.37035 0.11273 0.95897 0.0
C884 C 0.36153 0.07637 -0.00953 0.0
C885 C 0.34542 0.06052 0.97101 0.0
C886 C 0.33788 0.07303 0.94752 0.0
C887 C 0.35011 0.09925 0.94166 0.0
H888 H 0.31676 0.95784 0.23933 0.0
H889 H 0.33682 0.95603 0.32364 0.0
H890 H 0.26797 0.95996 0.25026 0.0
H891 H 0.28708 0.95566 0.33465 0.0
H892 H 0.20038 0.9614 0.35409 0.0
H893 H 0.2464 0.97916 0.33752 0.0
H894 H 0.23068 0.93128 0.26346 0.0
H895 H 0.18481 0.91501 0.27969 0.0
C896 C 0.31068 0.95726 0.2603 0.0
C897 C 0.33073 0.95655 0.28068 0.0
C898 C 0.28252 0.95855 0.26656 0.0
C899 C 0.27335 0.95807 0.29335 0.0
C900 C 0.29337 0.95687 0.3138 0.0
C901 C 0.32183 0.95645 0.30753 0.0
C902 C 0.2062 0.95625 0.33363 0.0
C903 C 0.18952 0.93646 0.31831 0.0
C904 C 0.23285 0.9658 0.32436 0.0
C905 C 0.24287 0.95563 0.29968 0.0
C906 C 0.22404 0.9395 0.28266 0.0
C907 C 0.19745 0.93026 0.29184 0.0
H908 H 0.3543 0.09363 0.52201 0.0
H909 H 0.29818 0.09318 0.59035 0.0
H910 H 0.36726 0.04884 0.53303 0.0
H911 H 0.31131 0.04755 0.60147 0.0
H912 H 0.38771 -0.00512 0.6252 0.0
H913 H 0.35463 0.02863 0.61721 0.0
H914 H 0.34852 0.00052 0.53406 0.0
H915 H 0.38254 0.96758 0.54206 0.0
C916 C 0.34469 0.08395 0.53946 0.0
C917 C 0.3253 0.09703 0.55536 0.0
C918 C 0.35176 0.05797 0.54552 0.0
C919 C 0.33969 0.0443 0.5677 0.0
C920 C 0.32066 0.05751 0.58406 0.0
C921 C 0.31342 0.08368 0.57787 0.0
C922 C 0.37806 -0.00501 0.60561 0.0
C923 C 0.38753 0.97894 0.58416 0.0
C924 C 0.35917 0.01435 0.60099 0.0
C925 C 0.34979 0.01779 0.5748 0.0
C926 C 0.35605 -0.00127 0.55431 0.0
C927 C 0.37523 0.97968 0.55887 0.0
H928 H 0.20509 0.08605 0.82247 0.0
H929 H 0.24109 0.06834 0.74463 0.0
H930 H 0.25202 0.10021 0.83988 0.0
H931 H 0.28766 0.0823 0.76212 0.0
H932 H 0.35155 0.1544 0.79586 0.0
H933 H 0.3098 0.12874 0.77704 0.0
H934 H 0.2993 0.08233 0.8492 0.0
H935 H 0.34128 0.10815 0.86814 0.0
C936 C 0.22297 0.08485 0.80921 0.0
C937 C 0.21936 0.0763 0.78217 0.0
C938 C 0.24981 0.09272 0.81921 0.0
C939 C 0.27338 0.0922 0.8023 0.0
C940 C 0.2698 0.08296 0.7755 0.0
C941 C 0.24309 0.07502 0.76555 0.0
C942 C 0.34084 0.1381 0.80733 0.0
C943 C 0.34946 0.13333 0.83347 0.0
C944 C 0.31696 0.12342 0.79658 0.0
C945 C 0.30121 0.10385 0.81187 0.0
C946 C 0.31099 0.09758 0.83721 0.0
C947 C 0.33515 0.11209 0.84787 0.0
H948 H 0.24849 0.95323 0.08822 0.0
H949 H 0.28112 0.98625 0.01406 0.0
H950 H 0.22948 -0.003 0.09966 0.0
H951 H 0.26393 0.03043 0.02588 0.0
H952 H 0.19596 0.09025 0.03953 0.0
H953 H 0.22065 0.04978 0.0286 0.0
H954 H 0.24057 0.04364 0.11258 0.0
H955 H 0.214 0.08263 0.12328 0.0
C956 C 0.25181 0.97006 0.07461 0.0
C957 C 0.2657 0.96655 0.05015 0.0
C958 C 0.24125 -0.00483 0.08117 0.0
C959 C 0.2451 0.01725 0.0636 0.0
C960 C 0.25998 0.01374 0.03956 0.0
C961 C 0.2699 0.98853 0.0328 0.0
C962 C 0.20618 0.08049 0.05545 0.0
C963 C 0.20409 0.09006 0.08215 0.0
C964 C 0.2204 0.05739 0.04927 0.0
C965 C 0.23262 0.04341 0.06976 0.0
C966 C 0.23127 0.05373 0.09634 0.0
C967 C 0.21686 0.07661 0.10245 0.0
H968 H 0.29934 0.33654 0.02053 0.0
H969 H 0.22614 0.37412 0.04885 0.0
H970 H 0.2802 0.29246 0.0379 0.0
H971 H 0.20732 0.32994 0.06711 0.0
H972 H 0.22931 0.26765 0.13494 0.0
H973 H 0.23773 0.30723 0.10697 0.0
H974 H 0.23082 0.25398 0.03587 0.0
H975 H 0.22165 0.2136 0.06426 0.0
C976 C 0.279 0.33522 0.03027 0.0
C977 C 0.26432 0.35865 0.03384 0.0
C978 C 0.26793 0.30997 0.0398 0.0
C979 C 0.2423 0.30794 0.05357 0.0
C980 C 0.22702 0.33111 0.05621 0.0
C981 C 0.2378 0.35628 0.04602 0.0
C982 C 0.22957 0.26423 0.11334 0.0
C983 C 0.22507 0.23755 0.10172 0.0
C984 C 0.23396 0.28694 0.09739 0.0
C985 C 0.23445 0.28354 0.06943 0.0
C986 C 0.23016 0.25694 0.0575 0.0
C987 C 0.22505 0.23398 0.07362 0.0
H988 H 0.75859 0.25052 0.98468 0.0
H989 H 0.68315 0.21642 0.94442 0.0
H990 H 0.74345 0.29668 0.98248 0.0
H991 H 0.66834 0.26257 0.94088 0.0
H992 H 0.64834 0.33946 0.92056 0.0
H993 H 0.65588 0.30741 0.95566 0.0
H994 H 0.74528 0.32046 0.94146 0.0
H995 H 0.73744 0.35317 0.90757 0.0
C996 C 0.73849 0.25306 0.97576 0.0
C997 C 0.72221 0.23046 0.96404 0.0
C998 C 0.72975 0.27934 0.97466 0.0
C999 C 0.70498 0.28339 0.96111 0.0
C1000 C 0.68743 0.26023 0.95171 0.0
C1001 C 0.69598 0.23382 0.95331 0.0
C1002 C 0.66959 0.33684 0.92645 0.0
C1003 C 0.69234 0.34855 0.91169 0.0
C1004 C 0.67393 0.31822 0.94621 0.0
C1005 C 0.70105 0.31072 0.95071 0.0
C1006 C 0.72406 0.32564 0.93855 0.0
C1007 C 0.71967 0.3443 0.91896 0.0
H1008 H 0.13223 0.48153 0.22674 0.0
H1009 H 0.09014 0.5476 0.26403 0.0
H1010 H 0.08924 0.46518 0.20286 0.0
H1011 H 0.04712 0.53096 0.24059 0.0
H1012 H -0.00633 0.51676 0.16268 0.0
H1013 H 0.0321 0.53048 0.19386 0.0
H1014 H 0.04124 0.44481 0.20731 0.0
H1015 H 0.00389 0.43144 0.17506 0.0
C1016 C 0.1137 0.49226 0.23019 0.0
C1017 C 0.11469 0.51602 0.24697 0.0
C1018 C 0.08902 0.48284 0.21662 0.0
C1019 C 0.06484 0.49693 0.2197 0.0
C1020 C 0.06553 0.51996 0.23744 0.0
C1021 C 0.09018 0.52942 0.25091 0.0
C1022 C 0.00361 0.50101 0.17279 0.0
C1023 C -0.00469 0.47309 0.16733 0.0
C1024 C 0.02548 0.50877 0.1907 0.0
C1025 C 0.03965 0.4887 0.20314 0.0
C1026 C 0.03081 0.46075 0.19803 0.0
C1027 C 0.00899 0.45306 0.18011 0.0
H1028 H 0.86469 0.84969 0.51084 0.0
H1029 H 0.80103 0.84876 0.44961 0.0
H1030 H 0.87206 0.8018 0.4979 0.0
H1031 H 0.80811 0.80161 0.4373 0.0
H1032 H 0.80337 0.71555 0.42954 0.0
H1033 H 0.79978 0.75512 0.46031 0.0
H1034 H 0.88889 0.77685 0.45306 0.0
H1035 H 0.89241 0.7371 0.42255 0.0
C1036 C 0.85241 0.83939 0.49463 0.0
C1037 C 0.83221 0.85301 0.48133 0.0
C1038 C 0.85648 0.81202 0.48744 0.0
C1039 C 0.84001 0.79786 0.46724 0.0
C1040 C 0.82045 0.81177 0.45357 0.0
C1041 C 0.81669 0.83898 0.4604 0.0
C1042 C 0.82237 0.72785 0.43586 0.0
C1043 C 0.84815 0.72332 0.42397 0.0
C1044 C 0.82033 0.75057 0.45324 0.0
C1045 C 0.84398 0.76929 0.45844 0.0
C1046 C 0.87039 0.76271 0.44937 0.0
C1047 C 0.87243 0.73982 0.43207 0.0
H1048 H 0.97747 0.09756 0.25103 0.0
H1049 H -0.00705 0.01229 0.23939 0.0
H1050 H 0.02431 0.11157 0.23321 0.0
H1051 H 0.03977 0.02604 0.22286 0.0
H1052 H 0.09206 0.0612 0.15147 0.0
H1053 H 0.05472 0.04433 0.18128 0.0
H1054 H 0.07552 0.11377 0.23615 0.0
H1055 H 0.11298 0.13101 0.20554 0.0
C1056 C -0.00889 0.0819 0.24521 0.0
C1057 C 0.98143 0.05391 0.24596 0.0
C1058 C 0.018 0.08985 0.23523 0.0
C1059 C 0.03569 0.06989 0.22627 0.0
C1060 C 0.02651 0.04194 0.22896 0.0
C1061 C -0.00036 0.03407 0.23842 0.0
C1062 C 0.08926 0.07239 0.17032 0.0
C1063 C 0.10527 0.09743 0.17618 0.0
C1064 C 0.06784 0.06271 0.18752 0.0
C1065 C 0.06184 0.07787 0.21104 0.0
C1066 C 0.07936 0.10185 0.21799 0.0
C1067 C 0.10106 0.1115 0.20072 0.0
H1068 H 0.26912 0.74731 0.50761 0.0
H1069 H 0.35013 0.72048 0.5257 0.0
H1070 H 0.2854 0.79389 0.52322 0.0
H1071 H 0.36627 0.76717 0.54143 0.0
H1072 H 0.3935 0.85514 0.56007 0.0
H1073 H 0.37649 0.81713 0.52913 0.0
H1074 H 0.29647 0.81113 0.57005 0.0
H1075 H 0.31352 0.84872 0.60083 0.0
C1076 C 0.29051 0.75137 0.51464 0.0
C1077 C 0.30824 0.73006 0.51583 0.0
C1078 C 0.2998 0.7781 0.52349 0.0
C1079 C 0.32706 0.78415 0.53353 0.0
C1080 C 0.34526 0.76319 0.53343 0.0
C1081 C 0.33592 0.73638 0.52469 0.0
C1082 C 0.37191 0.84644 0.5616 0.0
C1083 C 0.35477 0.85469 0.58275 0.0
C1084 C 0.36231 0.82451 0.54415 0.0
C1085 C 0.3353 0.81099 0.54742 0.0
C1086 C 0.31731 0.82123 0.56691 0.0
C1087 C 0.32703 0.84277 0.58453 0.0
H1088 H 0.10459 0.63786 0.29504 0.0
H1089 H 0.09052 0.57064 0.3492 0.0
H1090 H 0.05471 0.64563 0.2986 0.0
H1091 H 0.04163 0.57817 0.35245 0.0
H1092 H 0.95777 0.57851 0.35363 0.0
H1093 H -0.00167 0.57418 0.32451 0.0
H1094 H 0.02322 0.66103 0.33686 0.0
H1095 H 0.98189 0.66543 0.36488 0.0
C1096 C 0.09097 0.62489 0.30775 0.0
C1097 C 0.10151 0.60368 0.32191 0.0
C1098 C 0.06246 0.62913 0.30949 0.0
C1099 C 0.04413 0.61193 0.32505 0.0
C1100 C 0.05494 0.59113 0.33944 0.0
C1101 C 0.08319 0.58713 0.33798 0.0
C1102 C 0.97088 0.59694 0.34854 0.0
C1103 C 0.9672 0.62218 0.36162 0.0
C1104 C -0.0058 0.59448 0.33209 0.0
C1105 C 0.01449 0.61704 0.32954 0.0
C1106 C 0.00812 0.64324 0.33877 0.0
C1107 C 0.98439 0.64578 0.35479 0.0
H1108 H 0.44661 0.44595 0.78316 0.0
H1109 H 0.47481 0.5141 0.83716 0.0
H1110 H 0.49328 0.42871 0.7857 0.0
H1111 H 0.5205 0.49756 0.83913 0.0
H1112 H 0.59869 0.48704 0.83817 0.0
H1113 H 0.56211 0.49044 0.80498 0.0
H1114 H 0.52083 0.41282 0.82931 0.0
H1115 H 0.55796 0.40896 0.86161 0.0
C1116 C 0.46261 0.45702 0.79567 0.0
C1117 C 0.45726 0.48138 0.80991 0.0
C1118 C 0.48929 0.44751 0.79665 0.0
C1119 C 0.51072 0.46258 0.81152 0.0
C1120 C 0.50479 0.48627 0.82642 0.0
C1121 C 0.47843 0.49546 0.82571 0.0
C1122 C 0.58293 0.46982 0.83492 0.0
C1123 C 0.58056 0.44803 0.85247 0.0
C1124 C 0.56208 0.47163 0.8159 0.0
C1125 C 0.53823 0.45241 0.81559 0.0
C1126 C 0.53882 0.42805 0.82947 0.0
C1127 C 0.55997 0.42596 0.84811 0.0
H1128 H 0.00983 0.77051 0.72752 0.0
H1129 H 0.97334 0.83698 0.68978 0.0
H1130 H -0.00259 0.78931 0.77171 0.0
H1131 H 0.96161 0.85599 0.73408 0.0
H1132 H 0.96544 0.8947 0.81763 0.0
H1133 H -0.00896 0.87493 0.78002 0.0
H1134 H 0.94367 0.79627 0.79025 0.0
H1135 H 0.91744 0.81627 0.82716 0.0
C1136 C -0.0004 0.78938 0.72868 0.0
C1137 C -0.00744 0.80238 0.70524 0.0
C1138 C -0.00742 0.80005 0.75392 0.0
C1139 C 0.97903 0.82422 0.7561 0.0
C1140 C 0.97257 0.83757 0.73277 0.0
C1141 C 0.97904 0.8266 0.7075 0.0
C1142 C 0.96142 0.87293 0.81254 0.0
C1143 C 0.93963 0.85689 0.82509 0.0
C1144 C 0.97583 0.86174 0.79096 0.0
C1145 C 0.96903 0.83425 0.7823 0.0
C1146 C 0.94929 0.81749 0.79673 0.0
C1147 C 0.9344 0.82885 0.81781 0.0
H1148 H 0.96285 0.27234 0.42744 0.0
H1149 H 0.00804 0.33994 0.47187 0.0
H1150 H 0.95316 0.24858 0.4692 0.0
H1151 H -0.00075 0.31571 0.51346 0.0
H1152 H 0.9667 0.26366 0.58618 0.0
H1153 H 0.9665 0.29399 0.54779 0.0
H1154 H 0.9879 0.22705 0.49495 0.0
H1155 H 0.98726 0.19712 0.5324 0.0
C1156 C 0.97028 0.28231 0.44616 0.0
C1157 C 0.98662 0.30771 0.44634 0.0
C1158 C 0.96487 0.2687 0.47005 0.0
C1159 C 0.97613 0.27999 0.49448 0.0
C1160 C -0.00967 0.30649 0.49498 0.0
C1161 C -0.00458 0.32031 0.47109 0.0
C1162 C 0.97108 0.25555 0.56629 0.0
C1163 C 0.97645 0.2279 0.56232 0.0
C1164 C 0.97111 0.27286 0.54439 0.0
C1165 C 0.97629 0.2626 0.51825 0.0
C1166 C 0.98289 0.23535 0.51466 0.0
C1167 C 0.98305 0.2183 0.53633 0.0
H1168 H 0.50884 0.21946 0.2134 0.0
H1169 H 0.59809 0.2392 0.20247 0.0
H1170 H 0.51667 0.21079 0.26077 0.0
H1171 H 0.60556 0.23077 0.24941 0.0
H1172 H 0.61675 0.2462 0.33053 0.0
H1173 H 0.58919 0.25865 0.29273 0.0
H1174 H 0.54694 0.1765 0.2885 0.0
H1175 H 0.57405 0.16431 0.32694 0.0
C1176 C 0.53011 0.22143 0.22092 0.0
C1177 C 0.55285 0.23049 0.20435 0.0
C1178 C 0.53444 0.21678 0.24801 0.0
C1179 C 0.56147 0.22132 0.25872 0.0
C1180 C 0.58434 0.22821 0.2417 0.0
C1181 C 0.58011 0.23261 0.21475 0.0
C1182 C 0.60023 0.23144 0.32265 0.0
C1183 C 0.59773 0.20424 0.33098 0.0
C1184 C 0.58465 0.23845 0.30097 0.0
C1185 C 0.5669 0.21812 0.28733 0.0
C1186 C 0.56076 0.19235 0.29866 0.0
C1187 C 0.57616 0.18543 0.32069 0.0
H1188 H 0.57592 0.89531 0.92443 0.0
H1189 H 0.63623 0.83663 0.90754 0.0
H1190 H 0.58508 0.89323 0.97224 0.0
H1191 H 0.64544 0.83454 0.95564 0.0
H1192 H 0.65839 0.86667 0.04875 0.0
H1193 H 0.65975 0.86313 0.0002 0.0
H1194 H 0.56949 0.84872 -0.0014 0.0
H1195 H 0.56809 0.85169 0.04762 0.0
C1196 C 0.59218 0.88307 0.93092 0.0
C1197 C 0.60498 0.8657 0.91261 0.0
C1198 C 0.59694 0.88139 0.95821 0.0
C1199 C 0.61481 0.86261 0.96734 0.0
C1200 C 0.63101 0.84859 0.94886 0.0
C1201 C 0.62614 0.8502 0.9214 0.0
C1202 C 0.63897 0.86064 0.03829 0.0
C1203 C 0.61309 0.85917 0.052 0.0
C1204 C 0.63978 0.85927 0.01038 0.0
C1205 C 0.61473 0.85663 -0.00403 0.0
C1206 C 0.58906 0.85152 0.00957 0.0
C1207 C 0.58824 0.85277 0.03751 0.0
H1208 H 0.07887 0.28859 0.80954 0.0
H1209 H 0.01144 0.23855 0.84728 0.0
H1210 H 0.05796 0.27657 0.76552 0.0
H1211 H -0.00931 0.22667 0.80344 0.0
H1212 H 0.97152 0.19129 0.72099 0.0
H1213 H 0.00076 0.20057 0.76079 0.0
H1214 H 0.01269 0.28659 0.74211 0.0
H1215 H 0.9835 0.27699 0.7019 0.0
C1216 C 0.05981 0.27476 0.80845 0.0
C1217 C 0.04686 0.26442 0.83195 0.0
C1218 C 0.04777 0.26805 0.78325 0.0
C1219 C 0.02277 0.25058 0.78102 0.0
C1220 C 0.0102 0.23983 0.80446 0.0
C1221 C 0.02203 0.24675 0.82962 0.0
C1222 C 0.98144 0.21193 0.72477 0.0
C1223 C 0.97612 0.23327 0.70799 0.0
C1224 C -0.00226 0.21735 0.7478 0.0
C1225 C 0.00894 0.24432 0.75462 0.0
C1226 C 0.00458 0.26555 0.73719 0.0
C1227 C 0.98796 0.26012 0.71423 0.0
H1228 H 0.56521 0.22643 0.56622 0.0
H1229 H 0.58113 0.30779 0.53449 0.0
H1230 H 0.57697 0.20623 0.52288 0.0
H1231 H 0.59311 0.28704 0.49069 0.0
H1232 H 0.64036 0.2005 0.44514 0.0
H1233 H 0.63376 0.24003 0.47557 0.0
H1234 H 0.54441 0.21816 0.4739 0.0
H1235 H 0.55122 0.17843 0.4444 0.0
C1236 C 0.57164 0.24004 0.55016 0.0
C1237 C 0.57181 0.26867 0.55366 0.0
C1238 C 0.57829 0.22846 0.52537 0.0
C1239 C 0.58536 0.24521 0.50361 0.0
C1240 C 0.58743 0.27389 0.50729 0.0
C1241 C 0.58064 0.28561 0.53228 0.0
C1242 C 0.61934 0.20523 0.45007 0.0
C1243 C 0.59638 0.18643 0.44308 0.0
C1244 C 0.61554 0.22778 0.46739 0.0
C1245 C 0.58863 0.23162 0.4772 0.0
C1246 C 0.56533 0.21542 0.4665 0.0
C1247 C 0.56921 0.19271 0.44972 0.0
H1248 H 0.65187 0.83999 0.33997 0.0
H1249 H 0.58264 0.88999 0.33352 0.0
H1250 H 0.65555 0.83651 0.2923 0.0
H1251 H 0.58838 0.88922 0.28482 0.0
H1252 H 0.58272 0.85494 0.19805 0.0
H1253 H 0.57909 0.86188 0.24689 0.0
H1254 H 0.66796 0.85317 0.25347 0.0
H1255 H 0.6702 0.84269 0.2065 0.0
C1256 C 0.63813 0.85132 0.32834 0.0
C1257 C 0.61654 0.86477 0.34058 0.0
C1258 C 0.64035 0.84949 0.30061 0.0
C1259 C 0.62202 0.86231 0.28422 0.0
C1260 C 0.60224 0.87824 0.29662 0.0
C1261 C 0.59932 0.8792 0.32458 0.0
C1262 C 0.601 0.85352 0.21039 0.0
C1263 C 0.62647 0.84754 0.19865 0.0
C1264 C 0.59922 0.85813 0.23826 0.0
C1265 C 0.62323 0.85794 0.25453 0.0
C1266 C 0.64864 0.85239 0.24227 0.0
C1267 C 0.65 0.84645 0.21499 0.0
H1268 H 0.91177 0.76093 0.03695 0.0
H1269 H 0.96 0.83129 0.07447 0.0
H1270 H 0.91381 0.7845 -0.00588 0.0
H1271 H 0.96209 0.85421 0.03194 0.0
H1272 H -0.00783 0.87372 0.9513 0.0
H1273 H 0.98654 0.83723 0.98372 0.0
H1274 H 0.89678 0.83779 0.98005 0.0
H1275 H 0.9024 0.87463 0.94796 0.0
C1276 C 0.9224 0.78149 0.03619 0.0
C1277 C 0.93579 0.79424 0.0591 0.0
C1278 C 0.92362 0.79479 0.01172 0.0
C1279 C 0.93854 0.82076 0.00986 0.0
C1280 C 0.95092 0.83389 0.03291 0.0
C1281 C 0.94941 0.82087 0.05731 0.0
C1282 C 0.97121 0.86505 0.95637 0.0
C1283 C 0.94767 0.87673 0.94698 0.0
C1284 C 0.96801 0.84431 0.97493 0.0
C1285 C 0.94123 0.83506 0.98435 0.0
C1286 C 0.91754 0.84442 0.97267 0.0
C1287 C 0.92076 0.86527 0.95407 0.0
H1288 H 0.71394 0.00467 0.85536 0.0
H1289 H 0.75343 0.06923 0.80701 0.0
H1290 H 0.7595 0.98684 0.86118 0.0
H1291 H 0.79867 0.05063 0.81205 0.0
H1292 H 0.83417 0.95582 0.79309 0.0
H1293 H 0.80313 -0.0073 0.79319 0.0
H1294 H 0.8176 0.00816 0.87772 0.0
H1295 H 0.84958 0.97162 0.87754 0.0
C1296 C 0.73244 0.01547 0.84666 0.0
C1297 C 0.73016 0.03836 0.83088 0.0
C1298 C 0.75845 0.00537 0.85004 0.0
C1299 C 0.78243 0.01759 0.83718 0.0
C1300 C 0.78048 0.04118 0.82241 0.0
C1301 C 0.7546 0.05177 0.81963 0.0
C1302 C 0.83178 0.96795 0.81146 0.0
C1303 C 0.84377 0.96065 0.83552 0.0
C1304 C 0.81405 -0.01099 0.81149 0.0
C1305 C 0.80777 0.00272 0.83566 0.0
C1306 C 0.82213 -0.00246 0.85906 0.0
C1307 C 0.84044 0.97685 0.8589 0.0
H1308 H 0.79761 -0.00602 0.57613 0.0
H1309 H 0.8153 0.00645 0.49226 0.0
H1310 H 0.82007 0.03983 0.58744 0.0
H1311 H 0.83582 0.05306 0.50303 0.0
H1312 H 0.90829 0.11216 0.53662 0.0
H1313 H 0.87661 0.07374 0.5209 0.0
H1314 H 0.82085 0.08783 0.58765 0.0
H1315 H 0.85399 0.12578 0.60428 0.0
C1316 C 0.80598 0.00681 0.56011 0.0
C1317 C 0.8053 -0.00334 0.53344 0.0
C1318 C 0.81851 0.03326 0.56649 0.0
C1319 C 0.82991 0.05035 0.54619 0.0
C1320 C 0.82796 0.04038 0.51932 0.0
C1321 C 0.8162 0.01368 0.51308 0.0
C1322 C 0.88891 0.10751 0.5476 0.0
C1323 C 0.88381 0.12165 0.57189 0.0
C1324 C 0.87052 0.08545 0.53847 0.0
C1325 C 0.84626 0.07714 0.55323 0.0
C1326 C 0.83972 0.09315 0.57615 0.0
C1327 C 0.8584 0.11523 0.58546 0.0
H1328 H 0.80539 0.00571 0.32324 0.0
H1329 H 0.8547 0.08354 0.33805 0.0
H1330 H 0.76282 0.02719 0.33492 0.0
H1331 H 0.81206 0.10492 0.34968 0.0
H1332 H 0.73237 0.13732 0.37623 0.0
H1333 H 0.77006 0.10711 0.37986 0.0
H1334 H 0.73986 0.06178 0.30817 0.0
H1335 H 0.70253 0.09234 0.30448 0.0
C1336 C 0.80728 0.02727 0.32956 0.0
C1337 C 0.83347 0.04304 0.32923 0.0
C1338 C 0.78282 0.03954 0.33616 0.0
C1339 C 0.78402 0.0678 0.34282 0.0
C1340 C 0.81043 0.08305 0.34473 0.0
C1341 C 0.83491 0.07081 0.33796 0.0
C1342 C 0.73327 0.12021 0.36188 0.0
C1343 C 0.71436 0.11668 0.34037 0.0
C1344 C 0.75496 0.10314 0.36379 0.0
C1345 C 0.75803 0.08218 0.34424 0.0
C1346 C 0.73785 0.07752 0.32375 0.0
C1347 C 0.71644 0.0949 0.32162 0.0
H1348 H 0.70909 0.10074 0.03274 0.0
H1349 H 0.79527 0.0817 0.03691 0.0
H1350 H 0.6934 0.05466 0.04679 0.0
H1351 H 0.77921 0.03531 0.05136 0.0
H1352 H 0.72102 0.96809 0.10553 0.0
H1353 H 0.74754 0.01082 0.09185 0.0
H1354 H 0.69929 0.00802 0.01884 0.0
H1355 H 0.67283 0.96565 0.0324 0.0
C1356 C 0.72473 0.08692 0.03712 0.0
C1357 C 0.75341 0.09469 0.03333 0.0
C1358 C 0.71571 0.0605 0.04495 0.0
C1359 C 0.73517 0.04145 0.04943 0.0
C1360 C 0.76392 0.04969 0.04767 0.0
C1361 C 0.77301 0.07617 0.03949 0.0
C1362 C 0.717 0.976 0.08603 0.0
C1363 C 0.6947 0.96395 0.07011 0.0
C1364 C 0.732 0.00047 0.07834 0.0
C1365 C 0.72481 0.01282 0.0547 0.0
C1366 C 0.70473 -0.00097 0.03744 0.0
C1367 C 0.68977 0.97476 0.04509 0.0
H1368 H 0.75319 0.03428 0.72856 0.0
H1369 H 0.7371 0.11991 0.73635 0.0
H1370 H 0.80168 0.04831 0.71497 0.0
H1371 H 0.78518 0.13353 0.72324 0.0
H1372 H 0.87287 0.15312 0.73671 0.0
H1373 H 0.83259 0.12311 0.7516 0.0
H1374 H 0.82682 0.08262 0.67319 0.0
H1375 H 0.8676 0.11246 0.6583 0.0
C1376 C 0.75984 0.05599 0.72699 0.0
C1377 C 0.74146 0.07604 0.73378 0.0
C1378 C 0.78751 0.0639 0.71938 0.0
C1379 C 0.79704 0.09188 0.71887 0.0
C1380 C 0.77828 0.11179 0.72414 0.0
C1381 C 0.75071 0.10397 0.73138 0.0
C1382 C 0.86392 0.13684 0.72313 0.0
C1383 C 0.8728 0.1353 0.69631 0.0
C1384 C 0.84089 0.11979 0.73158 0.0
C1385 C 0.82646 0.10123 0.71323 0.0
C1386 C 0.83775 0.0969 0.68757 0.0
C1387 C 0.86107 0.11389 0.67913 0.0
H1388 H 0.78631 0.9726 0.40672 0.0
H1389 H 0.70971 0.94118 0.44602 0.0
H1390 H 0.76545 0.01521 0.39795 0.0
H1391 H 0.68926 0.98378 0.43752 0.0
H1392 H 0.6887 0.07378 0.46502 0.0
H1393 H 0.71149 0.03101 0.4628 0.0
H1394 H 0.7192 0.03613 0.37675 0.0
H1395 H 0.69523 0.07795 0.3788 0.0
C1396 C 0.76469 0.9743 0.41248 0.0
C1397 C 0.74987 0.95407 0.42782 0.0
C1398 C 0.75293 -0.00127 0.40767 0.0
C1399 C 0.72637 0.00285 0.41814 0.0
C1400 C 0.71017 0.98113 0.43006 0.0
C1401 C 0.72177 0.95675 0.43467 0.0
C1402 C 0.69597 0.06616 0.44578 0.0
C1403 C 0.6909 0.07953 0.42215 0.0
C1404 C 0.70872 0.04169 0.44446 0.0
C1405 C 0.71659 0.03039 0.41953 0.0
C1406 C 0.71334 0.04466 0.39613 0.0
C1407 C 0.70021 0.0689 0.39742 0.0
H1408 H 0.83152 0.0361 0.22954 0.0
H1409 H 0.84981 0.95097 0.22687 0.0
H1410 H 0.78197 0.02134 0.22123 0.0
H1411 H 0.80061 0.93651 0.21874 0.0
H1412 H 0.71375 0.91285 0.23329 0.0
H1413 H 0.75664 0.93934 0.24872 0.0
H1414 H 0.75137 -0.00518 0.18383 0.0
H1415 H 0.70831 0.96858 0.16846 0.0
C1416 C 0.82506 0.01432 0.22677 0.0
C1417 C 0.84449 -0.00535 0.22911 0.0
C1418 C 0.79675 0.00596 0.22225 0.0
C1419 C 0.78752 0.97786 0.22033 0.0
C1420 C 0.80717 0.95833 0.22106 0.0
C1421 C 0.83541 0.96663 0.22528 0.0
C1422 C 0.72105 0.93141 0.22305 0.0
C1423 C 0.70836 0.93814 0.19918 0.0
C1424 C 0.74566 0.94641 0.23174 0.0
C1425 C 0.75768 0.96832 0.21674 0.0
C1426 C 0.74261 0.97773 0.19547 0.0
C1427 C 0.71787 0.96275 0.18679 0.0
H1428 H 0.76318 0.08681 0.94718 0.0
H1429 H 0.84353 0.13027 0.92877 0.0
H1430 H 0.78469 0.0438 0.94773 0.0
H1431 H 0.86482 0.08698 0.92815 0.0
H1432 H 0.90367 0.01779 0.96108 0.0
H1433 H 0.8769 0.05741 0.96257 0.0
H1434 H 0.80719 0.00873 0.92448 0.0
H1435 H 0.83403 0.96862 0.92331 0.0
C1436 C 0.7853 0.08709 0.94244 0.0
C1437 C 0.80181 0.11206 0.93839 0.0
C1438 C 0.79763 0.06236 0.94285 0.0
C1439 C 0.82662 0.06209 0.93887 0.0
C1440 C 0.84259 0.08668 0.93236 0.0
C1441 C 0.83034 0.11144 0.93226 0.0
C1442 C 0.88243 0.01526 0.95346 0.0
C1443 C 0.87133 -0.00969 0.94109 0.0
C1444 C 0.86724 0.03817 0.95393 0.0
C1445 C 0.84056 0.0366 0.9422 0.0
C1446 C 0.82811 0.01084 0.93282 0.0
C1447 C 0.84344 0.98786 0.93216 0.0
H1448 H 0.85501 0.73193 0.01182 0.0
H1449 H 0.81703 0.69827 0.93789 0.0
H1450 H 0.86173 0.77737 -0.0077 0.0
H1451 H 0.82224 0.74324 0.91915 0.0
H1452 H 0.8574 0.81857 0.88044 0.0
H1453 H 0.85513 0.77497 0.90197 0.0
H1454 H 0.83864 0.81558 0.97828 0.0
H1455 H 0.84321 0.86025 0.95637 0.0
C1456 C 0.84845 0.73417 -0.00868 0.0
C1457 C 0.83588 0.71143 0.97626 0.0
C1458 C 0.85197 0.76025 0.98027 0.0
C1459 C 0.84276 0.76405 0.95405 0.0
C1460 C 0.83039 0.74113 0.93909 0.0
C1461 C 0.82736 0.71516 0.94989 0.0
C1462 C 0.85302 0.81816 0.90181 0.0
C1463 C 0.84972 0.84251 0.91671 0.0
C1464 C 0.85162 0.79311 0.91419 0.0
C1465 C 0.84604 0.79151 0.94181 0.0
C1466 C 0.84302 0.81605 0.95696 0.0
C1467 C 0.84525 0.84153 0.94449 0.0
H1468 H 0.40223 0.85065 0.00873 0.0
H1469 H 0.35154 0.85455 0.08077 0.0
H1470 H 0.40833 0.80217 0.01697 0.0
H1471 H 0.35702 0.8068 0.08822 0.0
H1472 H 0.34397 0.72739 0.09518 0.0
H1473 H 0.34154 0.7585 0.05825 0.0
H1474 H 0.43059 0.78062 0.06404 0.0
H1475 H 0.43292 0.74977 0.10083 0.0
C1476 C 0.39258 0.84127 0.0263 0.0
C1477 C 0.37626 0.85633 0.04403 0.0
C1478 C 0.3957 0.81358 0.03066 0.0
C1479 C 0.38198 0.80069 0.05239 0.0
C1480 C 0.36678 0.81609 0.07063 0.0
C1481 C 0.36414 0.84362 0.06665 0.0
C1482 C 0.36326 0.73737 0.08717 0.0
C1483 C 0.38864 0.73644 0.10067 0.0
C1484 C 0.36194 0.75499 0.06595 0.0
C1485 C 0.38583 0.77231 0.05905 0.0
C1486 C 0.41202 0.76731 0.06902 0.0
C1487 C 0.41338 0.74951 0.09008 0.0
H1488 H 0.97588 0.60234 0.7393 0.0
H1489 H 0.94613 0.53979 0.79471 0.0
H1490 H 0.01574 0.61619 0.76896 0.0
H1491 H 0.986 0.55243 0.82308 0.0
H1492 H 0.04583 0.5938 0.88188 0.0
H1493 H 0.00546 0.5865 0.85288 0.0
H1494 H 0.05915 0.59897 0.78339 0.0
H1495 H 0.09998 0.6077 0.81314 0.0
C1496 C 0.9777 0.59173 0.75782 0.0
C1497 C 0.95791 0.5699 0.76457 0.0
C1498 C 0.00065 0.59944 0.77463 0.0
C1499 C 0.00418 0.58531 0.7983 0.0
C1500 C 0.98381 0.56412 0.80528 0.0
C1501 C 0.96087 0.55675 0.78884 0.0
C1502 C 0.04913 0.59466 0.86038 0.0
C1503 C 0.07602 0.60096 0.84966 0.0
C1504 C 0.02593 0.59055 0.84371 0.0
C1505 C 0.02903 0.5919 0.81575 0.0
C1506 C 0.05603 0.59812 0.80489 0.0
C1507 C 0.07939 0.60282 0.82179 0.0
H1508 H 0.20327 0.22271 0.50352 0.0
H1509 H 0.25183 0.22197 0.57626 0.0
H1510 H 0.19772 0.2718 0.51232 0.0
H1511 H 0.2468 0.27044 0.58447 0.0
H1512 H 0.25777 0.35313 0.5921 0.0
H1513 H 0.26353 0.31648 0.55861 0.0
H1514 H 0.17375 0.29792 0.55514 0.0
H1515 H 0.16815 0.33431 0.58875 0.0
C1516 C 0.21255 0.23294 0.5214 0.0
C1517 C 0.22786 0.2185 0.53927 0.0
C1518 C 0.20968 0.26097 0.52616 0.0
C1519 C 0.22273 0.27493 0.54844 0.0
C1520 C 0.23735 0.26029 0.5666 0.0
C1521 C 0.23972 0.23237 0.5622 0.0
C1522 C 0.23926 0.34255 0.58269 0.0
C1523 C 0.21255 0.34617 0.593 0.0
C1524 C 0.24253 0.32152 0.56363 0.0
C1525 C 0.21908 0.30396 0.55517 0.0
C1526 C 0.19212 0.31114 0.56154 0.0
C1527 C 0.18888 0.33221 0.58062 0.0
H1528 H 0.11477 0.00843 0.81273 0.0
H1529 H 0.07161 0.01229 0.73728 0.0
H1530 H 0.0699 -1e-05 0.83562 0.0
H1531 H 0.02647 0.00351 0.76042 0.0
H1532 H 0.96163 0.94956 0.81892 0.0
H1533 H 0.0004 0.96346 0.78844 0.0
H1534 H 0.02884 0.02989 0.84408 0.0
H1535 H -0.00954 0.01601 0.87447 0.0
C1536 C 0.09573 0.00714 0.80098 0.0
C1537 C 0.0967 0.01103 0.77324 0.0
C1538 C 0.07004 0.00262 0.81412 0.0
C1539 C 0.0448 0.00157 0.79978 0.0
C1540 C 0.04568 0.00441 0.77188 0.0
C1541 C 0.07146 0.00938 0.75873 0.0
C1542 C 0.97553 0.96777 0.82408 0.0
C1543 C 0.97343 0.98147 0.84918 0.0
C1544 C -0.00225 0.97562 0.80673 0.0
C1545 C 0.01791 -0.00275 0.81437 0.0
C1546 C 0.01389 0.01274 0.83809 0.0
C1547 C -0.00814 0.00491 0.85536 0.0
H1548 H 0.6928 0.32236 0.53145 0.0
H1549 H 0.76695 0.34852 0.4858 0.0
H1550 H 0.68205 0.28394 0.49895 0.0
H1551 H 0.75732 0.30981 0.45459 0.0
H1552 H 0.71746 0.25548 0.38789 0.0
H1553 H 0.72668 0.29348 0.41997 0.0
H1554 H 0.69899 0.24049 0.48454 0.0
H1555 H 0.68934 0.20214 0.45205 0.0
C1556 C 0.70675 0.31984 0.51453 0.0
C1557 C 0.73059 0.33843 0.51104 0.0
C1558 C 0.7008 0.29777 0.4961 0.0
C1559 C 0.71892 0.29373 0.47424 0.0
C1560 C 0.74262 0.31254 0.47085 0.0
C1561 C 0.74819 0.33476 0.48883 0.0
C1562 C 0.71364 0.25171 0.40895 0.0
C1563 C 0.70228 0.22582 0.41737 0.0
C1564 C 0.71893 0.2736 0.4274 0.0
C1565 C 0.71336 0.27013 0.45484 0.0
C1566 C 0.70293 0.24399 0.46346 0.0
C1567 C 0.69756 0.22199 0.44489 0.0
H1568 H 0.97125 0.48949 0.68307 0.0
H1569 H 0.97524 0.45247 0.76034 0.0
H1570 H 0.02111 0.48703 0.67712 0.0
H1571 H 0.02577 0.45002 0.7542 0.0
H1572 H 0.09549 0.41541 0.6905 0.0
H1573 H 0.05654 0.42434 0.72042 0.0
H1574 H 0.06599 0.5096 0.69886 0.0
H1575 H 0.10346 0.49975 0.66776 0.0
C1576 C 0.98273 0.48067 0.69873 0.0
C1577 C 0.96934 0.47133 0.72221 0.0
C1578 C 0.01143 0.47975 0.69559 0.0
C1579 C 0.02743 0.46936 0.71576 0.0
C1580 C 0.01395 0.45876 0.73873 0.0
C1581 C 0.98508 0.45991 0.74202 0.0
C1582 C 0.09017 0.43621 0.69354 0.0
C1583 C 0.10118 0.4565 0.6763 0.0
C1584 C 0.06793 0.44145 0.71061 0.0
C1585 C 0.05751 0.46736 0.71072 0.0
C1586 C 0.07317 0.4892 0.69827 0.0
C1587 C 0.09472 0.48366 0.68064 0.0
H1588 H 0.60385 0.62043 0.26581 0.0
H1589 H 0.60601 0.60606 0.17968 0.0
H1590 H 0.55482 0.63067 0.26291 0.0
H1591 H 0.55755 0.61654 0.17703 0.0
H1592 H 0.47991 0.58683 0.17367 0.0
H1593 H 0.51343 0.58119 0.20892 0.0
H1594 H 0.52442 0.66913 0.22308 0.0
H1595 H 0.4892 0.67434 0.18892 0.0
C1596 C 0.5942 0.62029 0.24623 0.0
C1597 C 0.60849 0.61188 0.22296 0.0
C1598 C 0.56617 0.62589 0.24474 0.0
C1599 C 0.55255 0.62333 0.21997 0.0
C1600 C 0.56771 0.61785 0.19647 0.0
C1601 C 0.59545 0.61214 0.19793 0.0
C1602 C 0.48773 0.60471 0.18586 0.0
C1603 C 0.48354 0.63125 0.17798 0.0
C1604 C 0.50681 0.60151 0.20615 0.0
C1605 C 0.52233 0.6249 0.21743 0.0
C1606 C 0.51299 0.65088 0.21414 0.0
C1607 C 0.49305 0.65394 0.19447 0.0
H1608 H 0.57109 0.81316 0.79325 0.0
H1609 H 0.61219 0.74975 0.83136 0.0
H1610 H 0.58758 0.79728 0.74946 0.0
H1611 H 0.62822 0.73368 0.7872 0.0
H1612 H 0.6138 0.69317 0.70229 0.0
H1613 H 0.59393 0.71358 0.74276 0.0
H1614 H 0.64231 0.79085 0.72849 0.0
H1615 H 0.66302 0.77019 0.68836 0.0
C1616 C 0.58364 0.79583 0.79229 0.0
C1617 C 0.59001 0.78236 0.81569 0.0
C1618 C 0.59307 0.78689 0.76726 0.0
C1619 C 0.60862 0.7641 0.76519 0.0
C1620 C 0.61578 0.75109 0.78851 0.0
C1621 C 0.60675 0.76032 0.81367 0.0
C1622 C 0.61938 0.71479 0.70722 0.0
C1623 C 0.63987 0.7302 0.69234 0.0
C1624 C 0.60835 0.72628 0.73051 0.0
C1625 C 0.61711 0.75348 0.73872 0.0
C1626 C 0.6355 0.76974 0.72247 0.0
C1627 C 0.6471 0.75804 0.69953 0.0
H1628 H 0.61539 0.31114 0.08959 0.0
H1629 H 0.55783 0.37422 0.09429 0.0
H1630 H 0.61805 0.31519 0.04096 0.0
H1631 H 0.56076 0.37833 0.04589 0.0
H1632 H 0.54715 0.36384 0.95944 0.0
H1633 H 0.54458 0.34908 0.00586 0.0
H1634 H 0.63468 0.34884 0.00705 0.0
H1635 H 0.63709 0.36408 0.96137 0.0
C1636 C 0.60373 0.32621 0.08034 0.0
C1637 C 0.58614 0.34212 0.09577 0.0
C1638 C 0.6051 0.32834 0.0525 0.0
C1639 C 0.58887 0.34638 0.03963 0.0
C1640 C 0.57271 0.36353 0.05522 0.0
C1641 C 0.57145 0.36152 0.08302 0.0
C1642 C 0.56617 0.35921 0.96925 0.0
C1643 C 0.59227 0.36425 0.95653 0.0
C1644 C 0.56479 0.35124 -0.00412 0.0
C1645 C 0.58952 0.34836 0.01012 0.0
C1646 C 0.61528 0.35064 -0.00349 0.0
C1647 C 0.61663 0.35871 0.96999 0.0
H1648 H 0.05043 0.40672 0.30767 0.0
H1649 H 0.98653 0.33806 0.31119 0.0
H1650 H 0.03716 0.41357 0.26081 0.0
H1651 H 0.97427 0.34441 0.26504 0.0
H1652 H 0.96885 0.3387 0.18198 0.0
H1653 H 0.00328 0.34097 0.21814 0.0
H1654 H 0.9847 0.4237 0.23953 0.0
H1655 H 0.95061 0.42151 0.20312 0.0
C1656 C 0.03357 0.39328 0.29854 0.0
C1657 C 0.01943 0.37198 0.31311 0.0
C1658 C 0.02628 0.39701 0.27181 0.0
C1659 C 0.00542 0.37891 0.25931 0.0
C1660 C -0.00899 0.35812 0.27409 0.0
C1661 C -0.00227 0.35483 0.30071 0.0
C1662 C 0.97353 0.35793 0.19331 0.0
C1663 C 0.95741 0.37997 0.18991 0.0
C1664 C -0.00689 0.35924 0.21397 0.0
C1665 C -0.00385 0.38237 0.23169 0.0
C1666 C 0.98277 0.40575 0.22599 0.0
C1667 C 0.9633 0.40448 0.20519 0.0
H1668 H 0.92932 0.69746 0.60426 0.0
H1669 H 0.96996 0.77962 0.59741 0.0
H1670 H 0.9148 0.69755 0.55718 0.0
H1671 H 0.95613 0.7795 0.55028 0.0
H1672 H 0.98046 0.7199 0.47186 0.0
H1673 H 0.97931 0.74062 0.51722 0.0
H1674 H 0.88905 0.7262 0.51809 0.0
H1675 H 0.89016 0.70599 0.47264 0.0
C1676 C 0.9338 0.71599 0.59305 0.0
C1677 C 0.95041 0.73859 0.6042 0.0
C1678 C 0.92562 0.71609 0.5662 0.0
C1679 C 0.93446 0.73859 0.55034 0.0
C1680 C 0.94895 0.7621 0.56225 0.0
C1681 C 0.95673 0.76215 0.58911 0.0
C1682 C 0.96038 0.72257 0.48124 0.0
C1683 C 0.93541 0.7118 0.46877 0.0
C1684 C 0.95966 0.73436 0.50711 0.0
C1685 C 0.93404 0.7348 0.52095 0.0
C1686 C 0.90894 0.7262 0.50762 0.0
C1687 C 0.90963 0.71496 0.48155 0.0
H1688 H 0.51703 0.37317 0.68283 0.0
H1689 H 0.58567 0.3218 0.67646 0.0
H1690 H 0.52917 0.38431 0.72994 0.0
H1691 H 0.59728 0.33267 0.72324 0.0
H1692 H 0.58512 0.32084 0.80987 0.0
H1693 H 0.56511 0.31711 0.76476 0.0
H1694 H 0.57339 0.40566 0.76074 0.0
H1695 H 0.59392 0.40934 0.80555 0.0
C1696 C 0.53506 0.36482 0.69123 0.0
C1697 C 0.54995 0.34603 0.67619 0.0
C1698 C 0.5418 0.37104 0.71816 0.0
C1699 C 0.56335 0.35839 0.73022 0.0
C1700 C 0.57993 0.34188 0.71447 0.0
C1701 C 0.57342 0.33589 0.68765 0.0
C1702 C 0.58141 0.33946 0.79981 0.0
C1703 C 0.59047 0.36535 0.81129 0.0
C1704 C 0.57031 0.33737 0.774 0.0
C1705 C 0.5683 0.36114 0.75933 0.0
C1706 C 0.57467 0.38712 0.77179 0.0
C1707 C 0.58594 0.3892 0.79761 0.0
H1708 H 0.02374 0.28301 0.95787 0.0
H1709 H 0.02997 0.36915 0.94001 0.0
H1710 H 0.00795 0.2941 0.00384 0.0
H1711 H 0.0152 0.38033 0.98588 0.0
H1712 H 0.02633 0.39646 0.07135 0.0
H1713 H 0.04326 0.37064 0.03276 0.0
H1714 H 0.96264 0.32347 0.02588 0.0
H1715 H 0.94567 0.3493 0.06485 0.0
C1716 C 0.02108 0.30419 0.96372 0.0
C1717 C 0.02737 0.32528 0.94558 0.0
C1718 C 0.01235 0.31048 -0.01011 0.0
C1719 C 0.01085 0.33801 -0.00175 0.0
C1720 C 0.01649 0.35895 0.9798 0.0
C1721 C 0.02452 0.35261 0.95358 0.0
C1722 C 0.01274 0.37957 0.06249 0.0
C1723 C 0.98467 0.375 0.07067 0.0
C1724 C 0.02233 0.36498 0.04035 0.0
C1725 C 0.00393 0.34572 0.02616 0.0
C1726 C 0.97708 0.33837 0.03658 0.0
C1727 C 0.96747 0.35297 0.05893 0.0
H1728 H 0.96185 0.79128 0.20565 0.0
H1729 H 0.92944 0.70665 0.19105 0.0
H1730 H 0.97663 0.78073 0.25016 0.0
H1731 H 0.9411 0.69641 0.23692 0.0
H1732 H 0.95705 0.67727 0.31618 0.0
H1733 H 0.97221 0.68997 0.27122 0.0
H1734 H 0.95505 0.77395 0.29029 0.0
H1735 H 0.94162 0.76128 0.33517 0.0
C1736 C 0.95746 0.77044 0.21222 0.0
C1737 C 0.94411 0.74983 0.19515 0.0
C1738 C 0.96594 0.76434 0.23781 0.0
C1739 C 0.95997 0.73773 0.2475 0.0
C1740 C 0.94675 0.71702 0.23016 0.0
C1741 C 0.93937 0.72293 0.20406 0.0
C1742 C 0.95855 0.69879 0.31127 0.0
C1743 C 0.9476 0.71825 0.32875 0.0
C1744 C 0.9665 0.70598 0.28523 0.0
C1745 C 0.96326 0.73262 0.27652 0.0
C1746 C 0.95741 0.75308 0.29583 0.0
C1747 C 0.9498 0.74591 0.32183 0.0
H1748 H 0.65554 0.75411 0.45521 0.0
H1749 H 0.57353 0.78109 0.46956 0.0
H1750 H 0.65893 0.74397 0.50267 0.0
H1751 H 0.57799 0.77438 0.51725 0.0
H1752 H 0.57079 0.69703 0.56944 0.0
H1753 H 0.57149 0.7332 0.53784 0.0
H1754 H 0.66086 0.75127 0.54959 0.0
H1755 H 0.65988 0.71377 0.58066 0.0
C1756 C 0.63868 0.75863 0.46877 0.0
C1757 C 0.61399 0.76757 0.4589 0.0
C1758 C 0.64074 0.75338 0.49606 0.0
C1759 C 0.61841 0.75785 0.51386 0.0
C1760 C 0.59517 0.76982 0.50411 0.0
C1761 C 0.59263 0.7738 0.47681 0.0
C1762 C 0.59036 0.70953 0.56615 0.0
C1763 C 0.61543 0.70219 0.57677 0.0
C1764 C 0.59087 0.73053 0.54802 0.0
C1765 C 0.61656 0.7445 0.54022 0.0
C1766 C 0.64091 0.74021 0.55445 0.0
C1767 C 0.64034 0.71901 0.57261 0.0
H1768 H 0.80843 0.5325 0.75208 0.0
H1769 H 0.83713 0.55623 0.67316 0.0
H1770 H 0.76254 0.54738 0.74292 0.0
H1771 H 0.79113 0.5719 0.66414 0.0
H1772 H 0.7109 0.60435 0.65312 0.0
H1773 H 0.73728 0.56458 0.66081 0.0
H1774 H 0.75689 0.59706 0.74095 0.0
H1775 H 0.73178 0.63664 0.7328 0.0
C1776 C 0.80474 0.54064 0.7326 0.0
C1777 C 0.82643 0.54413 0.71357 0.0
C1778 C 0.7784 0.54881 0.72729 0.0
C1779 C 0.77339 0.56105 0.703 0.0
C1780 C 0.79434 0.56226 0.68297 0.0
C1781 C 0.82074 0.55368 0.6882 0.0
C1782 C 0.72017 0.60229 0.67256 0.0
C1783 C 0.72063 0.62385 0.69194 0.0
C1784 C 0.7352 0.57968 0.67694 0.0
C1785 C 0.7498 0.57824 0.70111 0.0
C1786 C 0.74603 0.59763 0.72202 0.0
C1787 C 0.7317 0.6204 0.71738 0.0
H1788 H 0.7854 0.58689 0.97562 0.0
H1789 H 0.69871 0.59974 -0.00808 0.0
H1790 H 0.77147 0.53854 0.96364 0.0
H1791 H 0.68503 0.55169 0.97978 0.0
H1792 H 0.66737 0.46562 0.98928 0.0
H1793 H 0.69494 0.50789 0.00397 0.0
H1794 H 0.74026 0.50852 0.92876 0.0
H1795 H 0.71304 0.46567 0.91441 0.0
C1796 C 0.76336 0.57954 0.97622 0.0
C1797 C 0.74314 0.59695 0.98525 0.0
C1798 C 0.75551 0.55189 0.96951 0.0
C1799 C 0.72742 0.54135 0.97183 0.0
C1800 C 0.70702 0.55921 0.97885 0.0
C1801 C 0.7148 0.58677 0.98548 0.0
C1802 C 0.68426 0.474 0.97652 0.0
C1803 C 0.68766 0.46306 0.95044 0.0
C1804 C 0.69975 0.49831 0.98475 0.0
C1805 C 0.71871 0.51188 0.96693 0.0
C1806 C 0.72539 0.49856 0.94264 0.0
C1807 C 0.70997 0.47398 0.9345 0.0
H1808 H 0.70783 0.45951 0.21624 0.0
H1809 H 0.71857 0.52682 0.16189 0.0
H1810 H 0.7562 0.45042 0.20878 0.0
H1811 H 0.76741 0.51754 0.15443 0.0
H1812 H 0.84035 0.46105 0.12893 0.0
H1813 H 0.79574 0.48069 0.13496 0.0
H1814 H 0.80275 0.47443 0.22084 0.0
H1815 H 0.84752 0.45486 0.21467 0.0
C1816 C 0.72038 0.47218 0.20241 0.0
C1817 C 0.70935 0.49402 0.1898 0.0
C1818 C 0.74826 0.4672 0.19845 0.0
C1819 C 0.76577 0.48379 0.18163 0.0
C1820 C 0.75442 0.50465 0.16775 0.0
C1821 C 0.72644 0.50981 0.17189 0.0
C1822 C 0.83314 0.46536 0.14914 0.0
C1823 C 0.84748 0.45685 0.17137 0.0
C1824 C 0.80738 0.47624 0.15258 0.0
C1825 C 0.79552 0.47847 0.17831 0.0
C1826 C 0.81117 0.47233 0.20072 0.0
C1827 C 0.83688 0.46145 0.19726 0.0
H1828 H 0.78112 0.49394 0.53168 0.0
H1829 H 0.80279 0.46047 0.4537 0.0
H1830 H 0.79299 0.54045 0.51626 0.0
H1831 H 0.8154 0.507 0.43846 0.0
H1832 H 0.83049 0.59288 0.41302 0.0
H1833 H 0.80055 0.55294 0.42837 0.0
H1834 H 0.83912 0.56376 0.50664 0.0
H1835 H 0.86886 0.6032 0.49116 0.0
C1836 C 0.78829 0.49656 0.51118 0.0
C1837 C 0.79151 0.47363 0.49397 0.0
C1838 C 0.79497 0.52318 0.50234 0.0
C1839 C 0.80526 0.52739 0.47621 0.0
C1840 C 0.80711 0.50446 0.45859 0.0
C1841 C 0.80016 0.4778 0.46736 0.0
C1842 C 0.83167 0.58726 0.43374 0.0
C1843 C 0.85206 0.60079 0.45087 0.0
C1844 C 0.81479 0.56429 0.44247 0.0
C1845 C 0.8178 0.55496 0.46858 0.0
C1846 C 0.83616 0.57043 0.48645 0.0
C1847 C 0.85326 0.59301 0.47761 0.0
H1848 H 0.84731 0.51429 0.82016 0.0
H1849 H 0.82733 0.4544 0.75551 0.0
H1850 H 0.79826 0.5108 0.83375 0.0
H1851 H 0.77874 0.44995 0.7697 0.0
H1852 H 0.69195 0.45049 0.78531 0.0
H1853 H 0.73739 0.47202 0.77085 0.0
H1854 H 0.76371 0.48135 0.85382 0.0
H1855 H 0.71775 0.46208 0.86785 0.0
C1856 C 0.83254 0.49995 0.8092 0.0
C1857 C 0.84115 0.48459 0.78679 0.0
C1858 C 0.80438 0.49811 0.81686 0.0
C1859 C 0.78435 0.48062 0.80244 0.0
C1860 C 0.79331 0.46445 0.78069 0.0
C1861 C 0.82133 0.46651 0.77288 0.0
C1862 C 0.70696 0.45882 0.80035 0.0
C1863 C 0.70161 0.45476 0.82762 0.0
C1864 C 0.73317 0.47055 0.79216 0.0
C1865 C 0.75461 0.47724 0.81113 0.0
C1866 C 0.74785 0.47642 0.83859 0.0
C1867 C 0.72135 0.46556 0.84674 0.0
H1868 H 0.78923 0.5848 0.06841 0.0
H1869 H 0.87578 0.61648 0.07977 0.0
H1870 H 0.80078 0.53894 0.08053 0.0
H1871 H 0.88694 0.57105 0.0927 0.0
H1872 H 0.89942 0.4922 0.12625 0.0
H1873 H 0.86943 0.52994 0.12982 0.0
H1874 H 0.84173 0.51194 0.0484 0.0
H1875 H 0.87241 0.47464 0.04461 0.0
C1876 C 0.81045 0.58222 0.07451 0.0
C1877 C 0.83171 0.60415 0.07315 0.0
C1878 C 0.81697 0.55602 0.08135 0.0
C1879 C 0.84462 0.55171 0.0877 0.0
C1880 C 0.86536 0.57407 0.08828 0.0
C1881 C 0.85903 0.59999 0.0808 0.0
C1882 C 0.88566 0.49528 0.1097 0.0
C1883 C 0.88783 0.48045 0.08526 0.0
C1884 C 0.86867 0.51695 0.1117 0.0
C1885 C 0.85345 0.52374 0.08937 0.0
C1886 C 0.85303 0.50677 0.06598 0.0
C1887 C 0.8705 0.48545 0.0638 0.0
H1888 H 0.71014 0.53165 0.31052 0.0
H1889 H 0.71905 0.6024 0.26077 0.0
H1890 H 0.75938 0.54065 0.32394 0.0
H1891 H 0.76729 0.6126 0.27511 0.0
H1892 H 0.85401 0.62381 0.28663 0.0
H1893 H 0.81182 0.59762 0.26922 0.0
H1894 H 0.79104 0.57063 0.34928 0.0
H1895 H 0.83442 0.5949 0.36582 0.0
C1896 C 0.72256 0.54952 0.3031 0.0
C1897 C 0.71117 0.56648 0.28483 0.0
C1898 C 0.75073 0.55457 0.31052 0.0
C1899 C 0.76762 0.57688 0.30001 0.0
C1900 C 0.75542 0.59451 0.28272 0.0
C1901 C 0.72762 0.58912 0.27492 0.0
C1902 C 0.84128 0.61075 0.30002 0.0
C1903 C 0.84704 0.6115 0.32755 0.0
C1904 C 0.81677 0.59629 0.29028 0.0
C1905 C 0.7973 0.58329 0.30815 0.0
C1906 C 0.8053 0.58066 0.33495 0.0
C1907 C 0.83033 0.59441 0.34448 0.0
H1908 H 0.68776 0.44762 0.583 0.0
H1909 H 0.77684 0.46829 0.59356 0.0
H1910 H 0.68104 0.49639 0.58253 0.0
H1911 H 0.77012 0.51712 0.59236 0.0
H1912 H 0.732 0.60299 0.61139 0.0
H1913 H 0.74832 0.55713 0.61326 0.0
H1914 H 0.69447 0.52939 0.54671 0.0
H1915 H 0.67755 0.57451 0.54536 0.0
C1916 C 0.70579 0.46259 0.58586 0.0
C1917 C 0.7328 0.45414 0.58787 0.0
C1918 C 0.70204 0.49047 0.58516 0.0
C1919 C 0.72526 0.5104 0.58626 0.0
C1920 C 0.75195 0.50214 0.59106 0.0
C1921 C 0.7557 0.47416 0.59196 0.0
C1922 C 0.72396 0.58718 0.59695 0.0
C1923 C 0.70209 0.59177 0.57949 0.0
C1924 C 0.73334 0.56098 0.59801 0.0
C1925 C 0.72123 0.5394 0.58127 0.0
C1926 C 0.70301 0.54538 0.56081 0.0
C1927 C 0.6936 0.57138 0.55983 0.0
H1928 H 0.7175 0.86632 0.53674 0.0
H1929 H 0.79181 0.87143 0.58607 0.0
H1930 H 0.70234 0.82138 0.5545 0.0
H1931 H 0.77725 0.82649 0.60302 0.0
H1932 H 0.73876 0.75229 0.64165 0.0
H1933 H 0.74469 0.79986 0.62912 0.0
H1934 H 0.71773 0.77543 0.5484 0.0
H1935 H 0.71034 0.72726 0.56168 0.0
C1936 C 0.73034 0.85808 0.55172 0.0
C1937 C 0.75607 0.87218 0.55974 0.0
C1938 C 0.7218 0.83224 0.56163 0.0
C1939 C 0.73885 0.82016 0.57971 0.0
C1940 C 0.76351 0.83524 0.58919 0.0
C1941 C 0.77193 0.86107 0.57945 0.0
C1942 C 0.73447 0.75701 0.62108 0.0
C1943 C 0.72504 0.73613 0.60228 0.0
C1944 C 0.73771 0.7843 0.61397 0.0
C1945 C 0.73214 0.7914 0.5877 0.0
C1946 C 0.72206 0.77057 0.56889 0.0
C1947 C 0.71823 0.74305 0.57626 0.0
H1948 H 0.23894 0.7304 0.42323 0.0
H1949 H 0.17748 0.71055 0.48531 0.0
H1950 H 0.22727 0.77746 0.42484 0.0
H1951 H 0.16548 0.75833 0.48657 0.0
H1952 H 0.13527 0.82399 0.42097 0.0
H1953 H 0.14387 0.7866 0.44965 0.0
H1954 H 0.23023 0.81984 0.45799 0.0
H1955 H 0.2215 0.85716 0.42894 0.0
C1956 C 0.2228 0.73602 0.43714 0.0
C1957 C 0.20917 0.71672 0.45416 0.0
C1958 C 0.21655 0.76319 0.43851 0.0
C1959 C 0.19628 0.77172 0.45667 0.0
C1960 C 0.18174 0.75232 0.47298 0.0
C1961 C 0.1883 0.725 0.47189 0.0
C1962 C 0.15548 0.82452 0.43069 0.0
C1963 C 0.17788 0.84294 0.42258 0.0
C1964 C 0.16047 0.80299 0.44707 0.0
C1965 C 0.18799 0.79985 0.4549 0.0
C1966 C 0.20894 0.82167 0.4516 0.0
C1967 C 0.20394 0.84311 0.43513 0.0
H1968 H 0.59665 0.01807 0.77993 0.0
H1969 H 0.62872 0.01964 0.69872 0.0
H1970 H 0.55299 -0.00749 0.76375 0.0
H1971 H 0.58562 -0.00648 0.68286 0.0
H1972 H 0.51259 0.93016 0.66643 0.0
H1973 H 0.55432 0.94293 0.69387 0.0
H1974 H 0.51736 0.01485 0.72484 0.0
H1975 H 0.47594 0.00254 0.69651 0.0
C1976 C 0.59471 0.01219 0.75881 0.0
C1977 C 0.61594 0.02078 0.74049 0.0
C1978 C 0.56977 -0.00226 0.74963 0.0
C1979 C 0.5662 -0.0089 0.72218 0.0
C1980 C 0.58812 -0.00179 0.70418 0.0
C1981 C 0.61267 0.01319 0.71321 0.0
C1982 C 0.51302 0.94813 0.67989 0.0
C1983 C 0.49121 0.96535 0.67971 0.0
C1984 C 0.53681 0.95539 0.69548 0.0
C1985 C 0.53882 0.97974 0.7114 0.0
C1986 C 0.51599 -0.00421 0.71291 0.0
C1987 C 0.49241 -0.01117 0.69679 0.0
H1988 H 0.33103 0.37309 0.93085 0.0
H1989 H 0.35944 0.36611 0.01216 0.0
H1990 H 0.33153 0.32379 0.92332 0.0
H1991 H 0.35952 0.31619 0.00472 0.0
H1992 H 0.38912 0.23787 0.9515 0.0
H1993 H 0.38334 0.28097 0.97639 0.0
H1994 H 0.30211 0.28308 0.93992 0.0
H1995 H 0.30897 0.24108 0.91394 0.0
C1996 C 0.3379 0.361 0.94694 0.0
C1997 C 0.3452 0.37334 0.972 0.0
C1998 C 0.33761 0.33271 0.94288 0.0
C1999 C 0.34441 0.31607 0.96385 0.0
C2000 C 0.3537 0.32855 0.98841 0.0
C2001 C 0.35409 0.35709 -0.00752 0.0
C2002 C 0.36963 0.247 0.9498 0.0
C2003 C 0.35023 0.23725 0.92996 0.0
C2004 C 0.36625 0.27165 0.96403 0.0
C2005 C 0.34295 0.28599 0.95883 0.0
C2006 C 0.32084 0.2729 0.94333 0.0
C2007 C 0.3246 0.24875 0.92867 0.0
H2008 H 0.45933 0.57203 0.70071 0.0
H2009 H 0.49593 0.58939 0.77927 0.0
H2010 H 0.50582 0.57436 0.68089 0.0
H2011 H 0.54275 0.59129 0.75929 0.0
H2012 H 0.6118 0.63279 0.70017 0.0
H2013 H 0.57198 0.62104 0.72955 0.0
H2014 H 0.54745 0.5493 0.67878 0.0
H2015 H 0.58678 0.56162 0.64891 0.0
C2016 C 0.47729 0.57649 0.71376 0.0
C2017 C 0.47388 0.58072 0.74154 0.0
C2018 C 0.504 0.57735 0.70245 0.0
C2019 C 0.52798 0.58245 0.71863 0.0
C2020 C 0.52465 0.58722 0.74636 0.0
C2021 C 0.49784 0.58634 0.75773 0.0
C2022 C 0.59855 0.61392 0.69589 0.0
C2023 C 0.60181 0.5985 0.67194 0.0
C2024 C 0.57568 0.6072 0.71271 0.0
C2025 C 0.55606 0.58482 0.70587 0.0
C2026 C 0.56173 0.56723 0.68399 0.0
C2027 C 0.58435 0.57412 0.66703 0.0
H2028 H 0.81183 0.23783 0.9888 0.0
H2029 H 0.80392 0.21403 0.07144 0.0
H2030 H 0.83062 0.28431 0.0039 0.0
H2031 H 0.82267 0.26009 0.08623 0.0
H2032 H 0.81582 0.34661 0.10687 0.0
H2033 H 0.79796 0.3057 0.08074 0.0
H2034 H 0.8744 0.30977 0.03412 0.0
H2035 H 0.89234 0.35125 0.06034 0.0
C2036 C 0.81466 0.24231 0.0101 0.0
C2037 C 0.80602 0.22243 0.02902 0.0
C2038 C 0.8253 0.26889 0.01865 0.0
C2039 C 0.82735 0.27579 0.04616 0.0
C2040 C 0.82056 0.25537 0.06489 0.0
C2041 C 0.81 0.22898 0.05642 0.0
C2042 C 0.82834 0.33945 0.09031 0.0
C2043 C 0.85555 0.35173 0.08578 0.0
C2044 C 0.81824 0.31596 0.07554 0.0
C2045 C 0.83522 0.30429 0.05605 0.0
C2046 C 0.86108 0.31838 0.04923 0.0
C2047 C 0.87123 0.34214 0.06407 0.0
H2048 H 0.58811 0.0713 0.84335 0.0
H2049 H 0.60699 0.13587 0.78698 0.0
H2050 H 0.53991 0.08164 0.84527 0.0
H2051 H 0.55784 0.14656 0.7893 0.0
H2052 H 0.48677 0.17024 0.85781 0.0
H2053 H 0.52692 0.16454 0.82872 0.0
H2054 H 0.49724 0.07907 0.81431 0.0
H2055 H 0.45767 0.08466 0.84429 0.0
C2056 C 0.58199 0.08777 0.83133 0.0
C2057 C 0.60142 0.10271 0.81498 0.0
C2058 C 0.55415 0.09338 0.83206 0.0
C2059 C 0.54491 0.11425 0.81664 0.0
C2060 C 0.56438 0.12994 0.80086 0.0
C2061 C 0.59245 0.12403 0.79982 0.0
C2062 C 0.48774 0.15077 0.84687 0.0
C2063 C 0.46969 0.12769 0.8536 0.0
C2064 C 0.51087 0.14747 0.83026 0.0
C2065 C 0.5157 0.12107 0.82034 0.0
C2066 C 0.49424 0.09949 0.82238 0.0
C2067 C 0.47144 0.1027 0.83933 0.0
H2068 H 0.95712 0.97253 0.26081 0.0
H2069 H 0.92699 0.93322 0.3331 0.0
H2070 H 0.00184 0.95331 0.26521 0.0
H2071 H 0.97176 0.914 0.33756 0.0
H2072 H 0.05219 0.8926 0.35423 0.0
H2073 H 0.01305 0.88844 0.3227 0.0
H2074 H 0.03299 0.97345 0.30268 0.0
H2075 H 0.07167 0.97734 0.33428 0.0
C2076 C 0.95978 0.95909 0.27722 0.0
C2077 C 0.93905 0.95513 0.29722 0.0
C2078 C 0.98529 0.9479 0.27955 0.0
C2079 C -0.00951 0.93265 0.30196 0.0
C2080 C 0.96835 0.92563 0.31997 0.0
C2081 C 0.94274 0.93681 0.3176 0.0
C2082 C 0.04931 0.90968 0.34159 0.0
C2083 C 0.06473 0.93521 0.34639 0.0
C2084 C 0.02674 0.90742 0.32382 0.0
C2085 C 0.01965 0.93072 0.31068 0.0
C2086 C 0.03793 0.95506 0.31246 0.0
C2087 C 0.06013 0.95739 0.33056 0.0
H2088 H 0.46731 0.34245 0.19416 0.0
H2089 H 0.543 0.32354 0.23344 0.0
H2090 H 0.44439 0.34626 0.23778 0.0
H2091 H 0.5199 0.32764 0.27715 0.0
H2092 H 0.46684 0.37981 0.34285 0.0
H2093 H 0.49685 0.36813 0.30506 0.0
H2094 H 0.43103 0.30905 0.27442 0.0
H2095 H 0.40115 0.32028 0.31212 0.0
C2096 C 0.47917 0.33951 0.21208 0.0
C2097 C 0.50691 0.3327 0.21039 0.0
C2098 C 0.46597 0.34135 0.23698 0.0
C2099 C 0.48036 0.33674 0.26061 0.0
C2100 C 0.50843 0.33108 0.25912 0.0
C2101 C 0.52157 0.32887 0.23415 0.0
C2102 C 0.45921 0.36351 0.32868 0.0
C2103 C 0.43141 0.35147 0.32999 0.0
C2104 C 0.47634 0.35696 0.30702 0.0
C2105 C 0.46576 0.33836 0.28661 0.0
C2106 C 0.4393 0.32393 0.2897 0.0
C2107 C 0.42231 0.33029 0.31133 0.0
H2108 H 0.52349 0.75854 0.92934 0.0
H2109 H 0.46921 0.81923 0.95771 0.0
H2110 H 0.51752 0.73556 0.97156 0.0
H2111 H 0.46221 0.79543 -0.0001 0.0
H2112 H 0.48261 0.76178 0.08319 0.0
H2113 H 0.48604 0.78637 0.04084 0.0
H2114 H 0.48509 0.70846 -0.00338 0.0
H2115 H 0.48309 0.68461 0.03829 0.0
C2116 C 0.5098 0.76669 0.9444 0.0
C2117 C 0.4969 0.79077 0.94014 0.0
C2118 C 0.50629 0.75345 0.9687 0.0
C2119 C 0.48941 0.76365 0.98929 0.0
C2120 C 0.47577 0.78729 0.98472 0.0
C2121 C 0.47954 0.80075 0.96042 0.0
C2122 C 0.48346 0.75017 0.06433 0.0
C2123 C 0.48335 0.72143 0.06399 0.0
C2124 C 0.48515 0.76412 0.04009 0.0
C2125 C 0.48628 0.74941 0.01524 0.0
C2126 C 0.48522 0.7206 0.01524 0.0
C2127 C 0.48407 0.70689 0.03921 0.0
H2128 H 0.07744 0.72719 0.70121 0.0
H2129 H 0.00358 0.67346 0.72058 0.0
H2130 H 0.09353 0.72584 0.74703 0.0
H2131 H 0.02052 0.67157 0.767 0.0
H2132 H 0.10711 0.65711 0.82209 0.0
H2133 H 0.07065 0.65504 0.78781 0.0
H2134 H 0.07138 0.74341 0.79404 0.0
H2135 H 0.10794 0.74532 0.8281 0.0
C2136 C 0.06488 0.7146 0.71509 0.0
C2137 C 0.03927 0.70032 0.70722 0.0
C2138 C 0.07387 0.71424 0.74148 0.0
C2139 C 0.05779 0.69924 0.76057 0.0
C2140 C 0.03291 0.68369 0.75262 0.0
C2141 C 0.02347 0.68456 0.72613 0.0
C2142 C 0.09793 0.67575 0.81755 0.0
C2143 C 0.11014 0.70128 0.82752 0.0
C2144 C 0.07723 0.67462 0.79782 0.0
C2145 C 0.06877 0.6991 0.78809 0.0
C2146 C 0.07787 0.7243 0.80117 0.0
C2147 C 0.09868 0.7254 0.82066 0.0
H2148 H 0.08786 0.29955 0.42904 0.0
H2149 H 0.11798 0.38549 0.42454 0.0
H2150 H 0.10022 0.30052 0.47648 0.0
H2151 H 0.13058 0.38639 0.47224 0.0
H2152 H 0.15977 0.37406 0.55651 0.0
H2153 H 0.16059 0.36185 0.5088 0.0
H2154 H 0.07311 0.33148 0.51256 0.0
H2155 H 0.07214 0.344 0.56067 0.0
C2156 C 0.09795 0.31842 0.4381 0.0
C2157 C 0.10174 0.34258 0.42348 0.0
C2158 C 0.10492 0.31892 0.46513 0.0
C2159 C 0.11592 0.34355 0.47782 0.0
C2160 C 0.12223 0.36711 0.46264 0.0
C2161 C 0.11516 0.36662 0.43546 0.0
C2162 C 0.14103 0.36352 0.54749 0.0
C2163 C 0.11599 0.35925 0.56236 0.0
C2164 C 0.1415 0.35696 0.52014 0.0
C2165 C 0.11699 0.34578 0.50726 0.0
C2166 C 0.09236 0.33983 0.52233 0.0
C2167 C 0.09176 0.34687 0.54973 0.0
H2168 H 0.50419 0.75973 0.35019 0.0
H2169 H 0.58716 0.76988 0.31516 0.0
H2170 H 0.48419 0.75048 0.30565 0.0
H2171 H 0.5669 0.7605 0.2704 0.0
H2172 H 0.51101 0.71599 0.19845 0.0
H2173 H 0.5374 0.72327 0.24051 0.0
H2174 H 0.4822 0.78357 0.26735 0.0
H2175 H 0.45549 0.77581 0.22637 0.0
C2176 C 0.51822 0.75958 0.33306 0.0
C2177 C 0.54723 0.76591 0.3362 0.0
C2178 C 0.50674 0.75446 0.30753 0.0
C2179 C 0.524 0.75531 0.28458 0.0
C2180 C 0.55316 0.75986 0.28776 0.0
C2181 C 0.56468 0.76529 0.31336 0.0
C2182 C 0.50448 0.7307 0.21333 0.0
C2183 C 0.48014 0.74408 0.20955 0.0
C2184 C 0.51975 0.73506 0.23729 0.0
C2185 C 0.51107 0.75317 0.25757 0.0
C2186 C 0.4887 0.76872 0.25247 0.0
C2187 C 0.47355 0.76437 0.22876 0.0
H2188 H 0.07277 0.74472 0.0771 0.0
H2189 H 0.98833 0.74127 0.04659 0.0
H2190 H 0.08991 0.7344 0.03196 0.0
H2191 H 0.00545 0.73251 0.00139 0.0
H2192 H 0.04291 0.67111 0.94083 0.0
H2193 H 0.02227 0.6948 0.97833 0.0
H2194 H 0.09838 0.74959 0.98707 0.0
H2195 H 0.11938 0.72484 0.94968 0.0
C2196 C 0.05797 0.74194 0.06067 0.0
C2197 C 0.02925 0.74318 0.06534 0.0
C2198 C 0.06778 0.73651 0.03475 0.0
C2199 C 0.04905 0.7328 0.01299 0.0
C2200 C 0.02039 0.73487 0.01771 0.0
C2201 C 0.01055 0.73971 0.04364 0.0
C2202 C 0.05476 0.68897 0.95007 0.0
C2203 C 0.08275 0.69602 0.94276 0.0
C2204 C 0.04296 0.70261 0.97163 0.0
C2205 C 0.05896 0.72365 0.98619 0.0
C2206 C 0.08582 0.73295 0.97665 0.0
C2207 C 0.09767 0.71919 0.95497 0.0
H2208 H 0.1457 0.36247 0.84087 0.0
H2209 H 0.05563 0.36319 0.83816 0.0
H2210 H 0.1468 0.35571 0.79224 0.0
H2211 H 0.0568 0.35601 0.78936 0.0
H2212 H 0.08894 0.37179 0.69768 0.0
H2213 H 0.0761 0.37706 0.74524 0.0
H2214 H 0.1285 0.31327 0.76404 0.0
H2215 H 0.1425 0.30941 0.71741 0.0
C2216 C 0.12623 0.36173 0.82982 0.0
C2217 C 0.10062 0.36308 0.84333 0.0
C2218 C 0.12678 0.3575 0.80206 0.0
C2219 C 0.10173 0.35441 0.78727 0.0
C2220 C 0.07632 0.35801 0.8004 0.0
C2221 C 0.07576 0.36235 0.82829 0.0
C2222 C 0.09759 0.35903 0.71207 0.0
C2223 C 0.11861 0.34217 0.70429 0.0
C2224 C 0.08998 0.3617 0.73915 0.0
C2225 C 0.10274 0.3467 0.75837 0.0
C2226 C 0.11947 0.32603 0.74969 0.0
C2227 C 0.1272 0.32362 0.72283 0.0
H2228 H 0.47364 0.33843 0.58167 0.0
H2229 H 0.45853 0.26143 0.5361 0.0
H2230 H 0.46586 0.36343 0.54161 0.0
H2231 H 0.45065 0.2869 0.49572 0.0
H2232 H 0.41811 0.36063 0.44059 0.0
H2233 H 0.4197 0.32572 0.47498 0.0
H2234 H 0.50071 0.36358 0.50034 0.0
H2235 H 0.49869 0.39846 0.46716 0.0
C2236 C 0.46802 0.32679 0.56326 0.0
C2237 C 0.46742 0.29798 0.56188 0.0
C2238 C 0.46372 0.34112 0.5403 0.0
C2239 C 0.45857 0.32699 0.51555 0.0
C2240 C 0.45499 0.29815 0.51458 0.0
C2241 C 0.45944 0.28367 0.53768 0.0
C2242 C 0.43629 0.36107 0.45336 0.0
C2243 C 0.45747 0.38297 0.45237 0.0
C2244 C 0.43727 0.34114 0.47282 0.0
C2245 C 0.45975 0.34291 0.49092 0.0
C2246 C 0.48268 0.36248 0.48719 0.0
C2247 C 0.48156 0.38234 0.4681 0.0
H2248 H 0.24353 0.56879 0.33899 0.0
H2249 H 0.20213 0.48761 0.32124 0.0
H2250 H 0.28823 0.54865 0.34414 0.0
H2251 H 0.24653 0.468 0.32585 0.0
H2252 H 0.32744 0.44695 0.29548 0.0
H2253 H 0.29346 0.48077 0.29279 0.0
H2254 H 0.3075 0.50439 0.37617 0.0
H2255 H 0.34178 0.47029 0.3789 0.0
C2256 C 0.24385 0.54668 0.33668 0.0
C2257 C 0.21931 0.52977 0.32958 0.0
C2258 C 0.26939 0.53529 0.33952 0.0
C2259 C 0.27069 0.50699 0.33481 0.0
C2260 C 0.24598 0.49 0.32918 0.0
C2261 C 0.22052 0.50122 0.32679 0.0
C2262 C 0.32429 0.46025 0.3129 0.0
C2263 C 0.33674 0.45574 0.33755 0.0
C2264 C 0.30478 0.47948 0.31138 0.0
C2265 C 0.29752 0.49451 0.33447 0.0
C2266 C 0.31278 0.49284 0.35819 0.0
C2267 C 0.33248 0.47349 0.3597 0.0
H2268 H 0.32322 0.48735 0.08538 0.0
H2269 H 0.31438 0.50979 0.00298 0.0
H2270 H 0.34203 0.53466 0.09702 0.0
H2271 H 0.33211 0.55688 0.0147 0.0
H2272 H 0.40934 0.61758 0.04076 0.0
H2273 H 0.3782 0.57766 0.02656 0.0
H2274 H 0.33177 0.58344 0.10092 0.0
H2275 H 0.36342 0.62349 0.11526 0.0
C2276 C 0.32497 0.50245 0.06991 0.0
C2277 C 0.31784 0.49484 0.04328 0.0
C2278 C 0.3354 0.52956 0.07657 0.0
C2279 C 0.33846 0.54947 0.05673 0.0
C2280 C 0.33032 0.54194 0.03032 0.0
C2281 C 0.32029 0.51491 0.02364 0.0
C2282 C 0.39183 0.61092 0.05361 0.0
C2283 C 0.38891 0.62327 0.07919 0.0
C2284 C 0.37397 0.58804 0.04552 0.0
C2285 C 0.35291 0.57708 0.06292 0.0
C2286 C 0.3482 0.59119 0.08737 0.0
C2287 C 0.36601 0.61431 0.09539 0.0
H2288 H 0.36555 0.6032 0.85244 0.0
H2289 H 0.32693 0.51962 0.84439 0.0
H2290 H 0.31943 0.62009 0.85244 0.0
H2291 H 0.28073 0.53669 0.8438 0.0
H2292 H 0.20284 0.58807 0.86528 0.0
H2293 H 0.24454 0.56282 0.86696 0.0
H2294 H 0.28751 0.62016 0.8132 0.0
H2295 H 0.24636 0.64518 0.81131 0.0
C2296 C 0.3472 0.58841 0.85131 0.0
C2297 C 0.34988 0.56018 0.84771 0.0
C2298 C 0.32083 0.59807 0.85094 0.0
C2299 C 0.29668 0.5797 0.8469 0.0
C2300 C 0.29907 0.55129 0.84644 0.0
C2301 C 0.32555 0.54157 0.84693 0.0
C2302 C 0.22106 0.595 0.85349 0.0
C2303 C 0.22176 0.6194 0.83921 0.0
C2304 C 0.24489 0.5806 0.85454 0.0
C2305 C 0.26966 0.59066 0.84157 0.0
C2306 C 0.26905 0.61283 0.8245 0.0
C2307 C 0.2453 0.62698 0.8232 0.0
H2308 H 0.292 0.58699 0.54717 0.0
H2309 H 0.2049 0.60328 0.54473 0.0
H2310 H 0.27774 0.53979 0.56009 0.0
H2311 H 0.19095 0.55634 0.55745 0.0
H2312 H 0.17286 0.46729 0.54057 0.0
H2313 H 0.19644 0.51153 0.52857 0.0
H2314 H 0.24969 0.51157 0.59805 0.0
H2315 H 0.22599 0.46706 0.61027 0.0
C2316 C 0.26991 0.58072 0.54991 0.0
C2317 C 0.24953 0.59867 0.54442 0.0
C2318 C 0.26183 0.55373 0.5572 0.0
C2319 C 0.23332 0.54439 0.55887 0.0
C2320 C 0.21309 0.56296 0.55551 0.0
C2321 C 0.22111 0.58989 0.54847 0.0
C2322 C 0.19025 0.47624 0.55279 0.0
C2323 C 0.19727 0.46406 0.57661 0.0
C2324 C 0.20352 0.50165 0.54607 0.0
C2325 C 0.22413 0.51518 0.56294 0.0
C2326 C 0.23359 0.50154 0.58495 0.0
C2327 C 0.2202 0.47601 0.59177 0.0
H2328 H 0.25304 0.54544 0.22898 0.0
H2329 H 0.23834 0.63054 0.24496 0.0
H2330 H 0.30198 0.55977 0.21782 0.0
H2331 H 0.28694 0.6446 0.23385 0.0
H2332 H 0.37494 0.66445 0.24245 0.0
H2333 H 0.33304 0.63695 0.25758 0.0
H2334 H 0.33002 0.59015 0.18231 0.0
H2335 H 0.37247 0.61734 0.16742 0.0
C2336 C 0.26014 0.56718 0.22977 0.0
C2337 C 0.24197 0.58689 0.23811 0.0
C2338 C 0.28811 0.57527 0.22353 0.0
C2339 C 0.29827 0.60311 0.22585 0.0
C2340 C 0.27973 0.62288 0.23275 0.0
C2341 C 0.25181 0.61487 0.23873 0.0
C2342 C 0.36615 0.64733 0.22976 0.0
C2343 C 0.37641 0.6432 0.20368 0.0
C2344 C 0.34207 0.63183 0.23826 0.0
C2345 C 0.32792 0.61226 0.22064 0.0
C2346 C 0.34051 0.60536 0.19611 0.0
C2347 C 0.36487 0.62076 0.18768 0.0
H2348 H 0.30401 0.51576 0.93443 0.0
H2349 H 0.22386 0.47528 0.9582 0.0
H2350 H 0.28351 0.55993 0.93461 0.0
H2351 H 0.20382 0.519 0.95848 0.0
H2352 H 0.17725 0.59316 0.98708 0.0
H2353 H 0.21374 0.56214 -0.00984 0.0
H2354 H 0.24299 0.58335 0.91095 0.0
H2355 H 0.20622 0.61482 0.9078 0.0
C2356 C 0.28198 0.51618 0.93926 0.0
C2357 C 0.26563 0.49211 0.94676 0.0
C2358 C 0.27042 0.54146 0.93957 0.0
C2359 C 0.24251 0.54291 0.94766 0.0
C2360 C 0.22575 0.51855 0.95318 0.0
C2361 C 0.23713 0.49343 0.95265 0.0
C2362 C 0.19214 0.59208 0.9707 0.0
C2363 C 0.18809 0.60503 0.94655 0.0
C2364 C 0.21295 0.57428 0.97245 0.0
C2365 C 0.22983 0.56924 0.95004 0.0
C2366 C 0.22932 0.58618 0.92794 0.0
C2367 C 0.20841 0.60419 0.9262 0.0
H2368 H 0.36941 0.466 0.73863 0.0
H2369 H 0.33616 0.54521 0.74353 0.0
H2370 H 0.32447 0.44483 0.72223 0.0
H2371 H 0.29111 0.52405 0.72607 0.0
H2372 H 0.20745 0.46106 0.72432 0.0
H2373 H 0.2504 0.48919 0.73966 0.0
H2374 H 0.29867 0.4472 0.68026 0.0
H2375 H 0.25662 0.41954 0.66553 0.0
C2376 C 0.35263 0.47895 0.73559 0.0
C2377 C 0.35625 0.50722 0.74185 0.0
C2378 C 0.32689 0.46687 0.72633 0.0
C2379 C 0.30445 0.48293 0.72265 0.0
C2380 C 0.30803 0.51126 0.72893 0.0
C2381 C 0.33378 0.52332 0.73862 0.0
C2382 C 0.22727 0.45845 0.71444 0.0
C2383 C 0.22917 0.43811 0.69416 0.0
C2384 C 0.2517 0.47439 0.7231 0.0
C2385 C 0.27786 0.46977 0.71151 0.0
C2386 C 0.27896 0.45071 0.68997 0.0
C2387 C 0.25491 0.43504 0.68146 0.0
H2388 H 0.34102 0.63581 0.46792 0.0
H2389 H 0.27242 0.59926 0.41916 0.0
H2390 H 0.36357 0.59373 0.46391 0.0
H2391 H 0.2963 0.55741 0.41255 0.0
H2392 H 0.33018 0.47565 0.43119 0.0
H2393 H 0.30684 0.51821 0.43309 0.0
H2394 H 0.38797 0.56539 0.43921 0.0
H2395 H 0.41031 0.52343 0.43995 0.0
C2396 C 0.33145 0.61903 0.45526 0.0
C2397 C 0.30527 0.62074 0.44357 0.0
C2398 C 0.34437 0.59473 0.45287 0.0
C2399 C 0.33189 0.57182 0.43784 0.0
C2400 C 0.30628 0.57424 0.42484 0.0
C2401 C 0.29283 0.59834 0.42812 0.0
C2402 C 0.34269 0.49525 0.43362 0.0
C2403 C 0.37187 0.4963 0.43624 0.0
C2404 C 0.32948 0.51969 0.43424 0.0
C2405 C 0.34541 0.54554 0.43657 0.0
C2406 C 0.3747 0.54617 0.43845 0.0
C2407 C 0.38763 0.52196 0.43882 0.0
H2408 H 0.33024 0.23332 0.52207 0.0
H2409 H 0.3119 0.20457 0.44048 0.0
H2410 H 0.3376 0.2806 0.50721 0.0
H2411 H 0.31953 0.25166 0.42571 0.0
H2412 H 0.29894 0.33562 0.41092 0.0
H2413 H 0.29206 0.29195 0.43281 0.0
H2414 H 0.36742 0.31313 0.47893 0.0
H2415 H 0.37382 0.35771 0.45759 0.0
C2416 C 0.32826 0.23702 0.50091 0.0
C2417 C 0.32016 0.21523 0.48247 0.0
C2418 C 0.33246 0.2641 0.49245 0.0
C2419 C 0.32841 0.26987 0.46546 0.0
C2420 C 0.32203 0.24789 0.4468 0.0
C2421 C 0.31802 0.22085 0.4552 0.0
C2422 C 0.31378 0.33139 0.42617 0.0
C2423 C 0.33782 0.34959 0.4315 0.0
C2424 C 0.30998 0.30615 0.43847 0.0
C2425 C 0.32998 0.2986 0.45653 0.0
C2426 C 0.35208 0.31815 0.4645 0.0
C2427 C 0.35583 0.34361 0.4522 0.0
H2428 H 0.82868 0.32916 0.50302 0.0
H2429 H 0.86177 0.37361 0.57416 0.0
H2430 H 0.85018 0.28831 0.51648 0.0
H2431 H 0.88385 0.33311 0.58707 0.0
H2432 H 0.92334 0.26097 0.60677 0.0
H2433 H 0.91844 0.29464 0.57226 0.0
H2434 H 0.8314 0.2642 0.56286 0.0
H2435 H 0.83639 0.23108 0.59776 0.0
C2436 C 0.84149 0.33056 0.52093 0.0
C2437 C 0.84332 0.35438 0.5378 0.0
C2438 C 0.85375 0.3072 0.52854 0.0
C2439 C 0.86862 0.30769 0.5527 0.0
C2440 C 0.87277 0.33237 0.56814 0.0
C2441 C 0.85998 0.35547 0.56089 0.0
C2442 C 0.90379 0.26037 0.59594 0.0
C2443 C 0.8804 0.24338 0.60433 0.0
C2444 C 0.9009 0.27971 0.57646 0.0
C2445 C 0.8746 0.28189 0.56499 0.0
C2446 C 0.852 0.26261 0.57117 0.0
C2447 C 0.85478 0.24371 0.5911 0.0
H2448 H 0.47657 0.02679 0.24604 0.0
H2449 H 0.43503 0.03945 0.32211 0.0
H2450 H 0.52168 0.04348 0.26644 0.0
H2451 H 0.48017 0.05555 0.34247 0.0
H2452 H 0.56604 0.04659 0.37583 0.0
H2453 H 0.52543 0.0285 0.3495 0.0
H2454 H 0.54431 0.09139 0.29172 0.0
H2455 H 0.58509 0.11009 0.31844 0.0
C2456 C 0.47707 0.03327 0.26706 0.0
C2457 C 0.45229 0.03183 0.28254 0.0
C2458 C 0.50283 0.04284 0.27863 0.0
C2459 C 0.5043 0.05054 0.30598 0.0
C2460 C 0.47952 0.04949 0.32134 0.0
C2461 C 0.45372 0.04046 0.30968 0.0
C2462 C 0.56197 0.05629 0.35722 0.0
C2463 C 0.57854 0.08003 0.3494 0.0
C2464 C 0.53863 0.04599 0.34227 0.0
C2465 C 0.53152 0.05896 0.319 0.0
C2466 C 0.54941 0.08116 0.30973 0.0
C2467 C 0.5728 0.09172 0.3249 0.0
H2468 H 0.75348 0.72394 0.06997 0.0
H2469 H 0.73415 0.73714 0.98702 0.0
H2470 H 0.74289 0.7704 0.08204 0.0
H2471 H 0.72286 0.78407 -0.00034 0.0
H2472 H 0.67215 0.83522 0.08057 0.0
H2473 H 0.68247 0.80131 0.04573 0.0
H2474 H 0.77093 0.82159 0.0591 0.0
H2475 H 0.76054 0.85591 0.09362 0.0
C2476 C 0.74656 0.73656 0.05435 0.0
C2477 C 0.74481 0.72691 0.02751 0.0
C2478 C 0.7408 0.76324 0.06124 0.0
C2479 C 0.73282 0.78074 0.04158 0.0
C2480 C 0.72951 0.7709 0.01495 0.0
C2481 C 0.73575 0.74412 0.00787 0.0
C2482 C 0.69374 0.83417 0.07437 0.0
C2483 C 0.71559 0.84822 0.08943 0.0
C2484 C 0.69965 0.81455 0.05461 0.0
C2485 C 0.72742 0.80882 0.05015 0.0
C2486 C 0.74936 0.82591 0.06223 0.0
C2487 C 0.74344 0.84552 0.08193 0.0
H2488 H 0.61022 0.49207 0.30721 0.0
H2489 H 0.56643 0.50631 0.23421 0.0
H2490 H 0.56551 0.48486 0.33074 0.0
H2491 H 0.52146 0.49851 0.25795 0.0
H2492 H 0.45514 0.44386 0.31746 0.0
H2493 H 0.49406 0.45511 0.28621 0.0
H2494 H 0.52691 0.52118 0.34025 0.0
H2495 H 0.48815 0.51052 0.37108 0.0
C2496 C 0.59106 0.49317 0.29606 0.0
C2497 C 0.59184 0.49972 0.26886 0.0
C2498 C 0.56551 0.48928 0.30958 0.0
C2499 C 0.54022 0.49143 0.29611 0.0
C2500 C 0.54077 0.49682 0.26867 0.0
C2501 C 0.56644 0.50123 0.25519 0.0
C2502 C 0.47006 0.46144 0.32213 0.0
C2503 C 0.46891 0.476 0.3469 0.0
C2504 C 0.49235 0.46775 0.30435 0.0
C2505 C 0.51364 0.48855 0.31128 0.0
C2506 C 0.51094 0.50474 0.33476 0.0
C2507 C 0.4887 0.49865 0.35232 0.0
H2508 H 0.22574 0.84163 0.0183 0.0
H2509 H 0.31118 0.82787 -0.00169 0.0
H2510 H 0.20922 0.79875 -0.00592 0.0
H2511 H 0.29501 0.78441 0.97538 0.0
H2512 H 0.2521 0.73942 0.90156 0.0
H2513 H 0.2721 0.77375 0.93395 0.0
H2514 H 0.20656 0.74899 -0.00936 0.0
H2515 H 0.18597 0.71477 0.95753 0.0
C2516 C 0.24094 0.82912 0.0091 0.0
C2517 C 0.26958 0.83818 0.00955 0.0
C2518 C 0.23157 0.80445 -0.00451 0.0
C2519 C 0.2508 0.78823 0.98261 0.0
C2520 C 0.27961 0.7967 0.98453 0.0
C2521 C 0.28888 0.82157 -0.0024 0.0
C2522 C 0.24223 0.74093 0.92112 0.0
C2523 C 0.21731 0.72471 0.92693 0.0
C2524 C 0.25383 0.76051 0.93982 0.0
C2525 C 0.24078 0.76434 0.96484 0.0
C2526 C 0.21684 0.7468 0.97137 0.0
C2527 C 0.20524 0.72703 0.95257 0.0
H2528 H 0.46032 0.94961 0.17738 0.0
H2529 H 0.47038 0.92139 0.25777 0.0
H2530 H 0.51074 0.95273 0.17105 0.0
H2531 H 0.52138 0.9243 0.25096 0.0
H2532 H 0.59363 0.90164 0.17596 0.0
H2533 H 0.55546 0.90011 0.20843 0.0
H2534 H 0.55128 0.98734 0.20131 0.0
H2535 H 0.58939 0.98878 0.16869 0.0
C2536 C 0.4732 0.94364 0.19355 0.0
C2537 C 0.46138 0.93571 0.21822 0.0
C2538 C 0.50207 0.94582 0.19006 0.0
C2539 C 0.51969 0.93986 0.21102 0.0
C2540 C 0.50803 0.9297 0.23491 0.0
C2541 C 0.47894 0.92776 0.23856 0.0
C2542 C 0.58616 0.92081 0.18293 0.0
C2543 C 0.59375 0.94513 0.16945 0.0
C2544 C 0.56416 0.91991 0.20147 0.0
C2545 C 0.55005 0.94342 0.20639 0.0
C2546 C 0.56178 0.9689 0.19736 0.0
C2547 C 0.58353 0.96972 0.17869 0.0
H2548 H 0.1095 0.10775 0.67709 0.0
H2549 H 0.10715 0.13205 0.76142 0.0
H2550 H 0.06218 0.12065 0.67196 0.0
H2551 H 0.05931 0.14513 0.75587 0.0
H2552 H 0.00196 0.18411 0.67053 0.0
H2553 H 0.03705 0.18148 0.70507 0.0
H2554 H 0.0132 0.09448 0.71027 0.0
H2555 H 0.97795 0.09712 0.67564 0.0
C2556 C 0.09918 0.11642 0.69438 0.0
C2557 C 0.11188 0.11851 0.71971 0.0
C2558 C 0.07207 0.12353 0.6915 0.0
C2559 C 0.05726 0.13303 0.71377 0.0
C2560 C 0.07045 0.13733 0.73868 0.0
C2561 C 0.09779 0.13012 0.74164 0.0
C2562 C 0.00258 0.16493 0.68064 0.0
C2563 C 0.98758 0.14078 0.67054 0.0
C2564 C 0.02268 0.16345 0.70045 0.0
C2565 C 0.02796 0.13774 0.7097 0.0
C2566 C 0.00925 0.11454 0.70334 0.0
C2567 C 0.98928 0.11599 0.6834 0.0
loop_
_geom_bond_atom_site_label_1
_geom_bond_atom_site_label_2
_geom_bond_distance
_geom_bond_site_symmetry_2
_ccdc_geom_bond_type
C0 O1 1.160 . S
C0 O7 1.185 . S
O1 C0 1.160 . S
O2 Zn3 1.899 . S
O2 C10 1.284 . S
Zn3 O2 1.899 . S
Zn3 O4 2.032 . S
Zn3 O7 2.086 . S
Zn3 O12 1.977 . S
O4 Zn3 2.032 . S
O4 C8 1.278 . S
C5 O6 1.203 . S
C5 O12 1.267 . S
O6 C5 1.203 . S
O7 C0 1.185 . S
O7 Zn3 2.086 . S
C8 O4 1.278 . S
C8 O9 1.211 . S
O9 C8 1.211 . S
C10 O2 1.284 . S
C10 O11 1.273 . S
O11 C10 1.273 . S
O12 Zn3 1.977 . S
O12 C5 1.267 . S
C13 O14 1.160 . S
C13 O20 1.185 . S
O14 C13 1.160 . S
O15 Zn16 1.899 . S
O15 C23 1.284 1_455 S
Zn16 O15 1.899 . S
Zn16 O17 2.032 . S
Zn16 O20 2.086 . S
Zn16 O25 1.977 . S
O17 Zn16 2.032 . S
O17 C21 1.278 1_455 S
C18 O19 1.203 . S
C18 O25 1.267 . S
O19 C18 1.203 . S
O20 C13 1.185 . S
O20 Zn16 2.086 . S
C21 O17 1.278 1_655 S
C21 O22 1.211 . S
O22 C21 1.211 . S
C23 O15 1.284 1_655 S
C23 O24 1.273 . S
O24 C23 1.273 . S
O25 Zn16 1.977 . S
O25 C18 1.267 . S
C26 O27 1.160 . S
C26 O33 1.185 . S
O27 C26 1.160 . S
O28 Zn29 1.899 . S
O28 C36 1.284 . S
Zn29 O28 1.899 . S
Zn29 O30 2.032 . S
Zn29 O33 2.086 . S
Zn29 O38 1.977 . S
O30 Zn29 2.032 . S
O30 C34 1.278 . S
C31 O32 1.203 . S
C31 O38 1.267 . S
O32 C31 1.203 . S
O33 C26 1.185 . S
O33 Zn29 2.086 . S
C34 O30 1.278 . S
C34 O35 1.211 . S
O35 C34 1.211 . S
C36 O28 1.284 . S
C36 O37 1.273 . S
O37 C36 1.273 . S
O38 Zn29 1.977 . S
O38 C31 1.267 . S
C39 O40 1.160 . S
C39 O46 1.185 . S
O40 C39 1.160 . S
O41 Zn42 1.899 . S
O41 C49 1.284 . S
Zn42 O41 1.899 . S
Zn42 O43 2.032 . S
Zn42 O46 2.086 . S
Zn42 O51 1.977 . S
O43 Zn42 2.032 . S
O43 C47 1.278 . S
C44 O45 1.203 . S
C44 O51 1.267 . S
O45 C44 1.203 . S
O46 C39 1.185 . S
O46 Zn42 2.086 . S
C47 O43 1.278 . S
C47 O48 1.211 . S
O48 C47 1.211 . S
C49 O41 1.284 . S
C49 O50 1.273 . S
O50 C49 1.273 . S
O51 Zn42 1.977 . S
O51 C44 1.267 . S
C52 O53 1.160 . S
C52 O59 1.185 . S
O53 C52 1.160 . S
O54 Zn55 1.899 . S
O54 C62 1.284 . S
Zn55 O54 1.899 . S
Zn55 O56 2.032 1_455 S
Zn55 O59 2.086 . S
Zn55 O64 1.977 1_455 S
O56 Zn55 2.032 1_655 S
O56 C60 1.278 . S
C57 O58 1.203 . S
C57 O64 1.267 . S
O58 C57 1.203 . S
O59 C52 1.185 . S
O59 Zn55 2.086 . S
C60 O56 1.278 . S
C60 O61 1.211 . S
O61 C60 1.211 . S
C62 O54 1.284 . S
C62 O63 1.273 . S
O63 C62 1.273 . S
O64 Zn55 1.977 1_655 S
O64 C57 1.267 . S
C65 O66 1.160 . S
C65 O72 1.185 . S
O66 C65 1.160 . S
O67 Zn68 1.899 . S
O67 C75 1.284 . S
Zn68 O67 1.899 . S
Zn68 O69 2.032 . S
Zn68 O72 2.086 . S
Zn68 O77 1.977 . S
O69 Zn68 2.032 . S
O69 C73 1.278 . S
C70 O71 1.203 . S
C70 O77 1.267 . S
O71 C70 1.203 . S
O72 C65 1.185 . S
O72 Zn68 2.086 . S
C73 O69 1.278 . S
C73 O74 1.211 . S
O74 C73 1.211 . S
C75 O67 1.284 . S
C75 O76 1.273 . S
O76 C75 1.273 . S
O77 Zn68 1.977 . S
O77 C70 1.267 . S
C78 O79 1.160 . S
C78 O85 1.185 . S
O79 C78 1.160 . S
O80 Zn81 1.899 . S
O80 C88 1.284 . S
Zn81 O80 1.899 . S
Zn81 O82 2.032 . S
Zn81 O85 2.086 . S
Zn81 O90 1.977 . S
O82 Zn81 2.032 . S
O82 C86 1.278 . S
C83 O84 1.203 . S
C83 O90 1.267 . S
O84 C83 1.203 . S
O85 C78 1.185 . S
O85 Zn81 2.086 . S
C86 O82 1.278 . S
C86 O87 1.211 . S
O87 C86 1.211 . S
C88 O80 1.284 . S
C88 O89 1.273 . S
O89 C88 1.273 . S
O90 Zn81 1.977 . S
O90 C83 1.267 . S
C91 O92 1.160 . S
C91 O98 1.185 . S
O92 C91 1.160 . S
O93 Zn94 1.899 . S
O93 C101 1.284 . S
Zn94 O93 1.899 . S
Zn94 O95 2.032 . S
Zn94 O98 2.086 . S
Zn94 O103 1.977 . S
O95 Zn94 2.032 . S
O95 C99 1.278 . S
C96 O97 1.203 . S
C96 O103 1.267 . S
O97 C96 1.203 . S
O98 C91 1.185 . S
O98 Zn94 2.086 . S
C99 O95 1.278 . S
C99 O100 1.211 . S
O100 C99 1.211 . S
C101 O93 1.284 . S
C101 O102 1.273 . S
O102 C101 1.273 . S
O103 Zn94 1.977 . S
O103 C96 1.267 . S
C104 O105 1.160 . S
C104 O111 1.185 . S
O105 C104 1.160 . S
O106 Zn107 1.899 . S
O106 C114 1.284 . S
Zn107 O106 1.899 . S
Zn107 O108 2.032 1_565 S
Zn107 O111 2.086 . S
Zn107 O116 1.977 1_565 S
O108 Zn107 2.032 1_545 S
O108 C112 1.278 . S
C109 O110 1.203 . S
C109 O116 1.267 . S
O110 C109 1.203 . S
O111 C104 1.185 . S
O111 Zn107 2.086 . S
C112 O108 1.278 . S
C112 O113 1.211 . S
O113 C112 1.211 . S
C114 O106 1.284 . S
C114 O115 1.273 . S
O115 C114 1.273 . S
O116 Zn107 1.977 1_545 S
O116 C109 1.267 . S
C117 O118 1.160 . S
C117 O124 1.185 . S
O118 C117 1.160 . S
O119 Zn120 1.899 . S
O119 C127 1.284 . S
Zn120 O119 1.899 . S
Zn120 O121 2.032 . S
Zn120 O124 2.086 . S
Zn120 O129 1.977 . S
O121 Zn120 2.032 . S
O121 C125 1.278 . S
C122 O123 1.203 . S
C122 O129 1.267 . S
O123 C122 1.203 . S
O124 C117 1.185 . S
O124 Zn120 2.086 . S
C125 O121 1.278 . S
C125 O126 1.211 . S
O126 C125 1.211 . S
C127 O119 1.284 . S
C127 O128 1.273 . S
O128 C127 1.273 . S
O129 Zn120 1.977 . S
O129 C122 1.267 . S
C130 O131 1.160 . S
C130 O137 1.185 . S
O131 C130 1.160 . S
O132 Zn133 1.899 . S
O132 C140 1.284 . S
Zn133 O132 1.899 . S
Zn133 O134 2.032 . S
Zn133 O137 2.086 . S
Zn133 O142 1.977 . S
O134 Zn133 2.032 . S
O134 C138 1.278 . S
C135 O136 1.203 . S
C135 O142 1.267 . S
O136 C135 1.203 . S
O137 C130 1.185 . S
O137 Zn133 2.086 . S
C138 O134 1.278 . S
C138 O139 1.211 . S
O139 C138 1.211 . S
C140 O132 1.284 . S
C140 O141 1.273 . S
O141 C140 1.273 . S
O142 Zn133 1.977 . S
O142 C135 1.267 . S
C143 O144 1.160 . S
C143 O150 1.185 . S
O144 C143 1.160 . S
O145 Zn146 1.899 . S
O145 C153 1.284 . S
Zn146 O145 1.899 . S
Zn146 O147 2.032 . S
Zn146 O150 2.086 . S
Zn146 O155 1.977 . S
O147 Zn146 2.032 . S
O147 C151 1.278 . S
C148 O149 1.203 . S
C148 O155 1.267 . S
O149 C148 1.203 . S
O150 C143 1.185 . S
O150 Zn146 2.086 . S
C151 O147 1.278 . S
C151 O152 1.211 . S
O152 C151 1.211 . S
C153 O145 1.284 . S
C153 O154 1.273 1_554 S
O154 C153 1.273 1_556 S
O155 Zn146 1.977 . S
O155 C148 1.267 . S
C156 O157 1.160 . S
C156 O163 1.185 1_556 S
O157 C156 1.160 . S
O158 Zn159 1.899 1_556 S
O158 C166 1.284 . S
Zn159 O158 1.899 1_554 S
Zn159 O160 2.032 . S
Zn159 O163 2.086 . S
Zn159 O168 1.977 . S
O160 Zn159 2.032 . S
O160 C164 1.278 . S
C161 O162 1.203 . S
C161 O168 1.267 . S
O162 C161 1.203 . S
O163 C156 1.185 1_554 S
O163 Zn159 2.086 . S
C164 O160 1.278 . S
C164 O165 1.211 . S
O165 C164 1.211 . S
C166 O158 1.284 . S
C166 O167 1.273 1_556 S
O167 C166 1.273 1_554 S
O168 Zn159 1.977 . S
O168 C161 1.267 . S
C169 O170 1.160 . S
C169 O176 1.185 . S
O170 C169 1.160 . S
O171 Zn172 1.899 . S
O171 C179 1.284 . S
Zn172 O171 1.899 . S
Zn172 O173 2.032 1_556 S
Zn172 O176 2.086 . S
Zn172 O181 1.977 1_556 S
O173 Zn172 2.032 1_554 S
O173 C177 1.278 . S
C174 O175 1.203 . S
C174 O181 1.267 . S
O175 C174 1.203 . S
O176 C169 1.185 . S
O176 Zn172 2.086 . S
C177 O173 1.278 . S
C177 O178 1.211 . S
O178 C177 1.211 . S
C179 O171 1.284 . S
C179 O180 1.273 . S
O180 C179 1.273 . S
O181 Zn172 1.977 1_554 S
O181 C174 1.267 . S
C182 O183 1.160 . S
C182 O189 1.185 . S
O183 C182 1.160 . S
O184 Zn185 1.899 . S
O184 C192 1.284 . S
Zn185 O184 1.899 . S
Zn185 O186 2.032 . S
Zn185 O189 2.086 . S
Zn185 O194 1.977 . S
O186 Zn185 2.032 . S
O186 C190 1.278 . S
C187 O188 1.203 . S
C187 O194 1.267 . S
O188 C187 1.203 . S
O189 C182 1.185 . S
O189 Zn185 2.086 . S
C190 O186 1.278 . S
C190 O191 1.211 . S
O191 C190 1.211 . S
C192 O184 1.284 . S
C192 O193 1.273 . S
O193 C192 1.273 . S
O194 Zn185 1.977 . S
O194 C187 1.267 . S
C195 O196 1.160 . S
C195 O202 1.185 . S
O196 C195 1.160 . S
O197 Zn198 1.899 . S
O197 C205 1.284 . S
Zn198 O197 1.899 . S
Zn198 O199 2.032 . S
Zn198 O202 2.086 . S
Zn198 O207 1.977 . S
O199 Zn198 2.032 . S
O199 C203 1.278 . S
C200 O201 1.203 . S
C200 O207 1.267 . S
O201 C200 1.203 . S
O202 C195 1.185 . S
O202 Zn198 2.086 . S
C203 O199 1.278 . S
C203 O204 1.211 . S
O204 C203 1.211 . S
C205 O197 1.284 . S
C205 O206 1.273 . S
O206 C205 1.273 . S
O207 Zn198 1.977 . S
O207 C200 1.267 . S
C208 O209 1.160 . S
C208 O215 1.185 . S
O209 C208 1.160 . S
O210 Zn211 1.899 . S
O210 C218 1.284 1_545 S
Zn211 O210 1.899 . S
Zn211 O212 2.051 . S
Zn211 O215 2.086 . S
Zn211 O220 1.977 . S
O212 Zn211 2.051 . S
O212 C216 1.260 1_545 S
C213 O214 1.203 . S
C213 O220 1.267 . S
O214 C213 1.203 . S
O215 C208 1.185 . S
O215 Zn211 2.086 . S
C216 O212 1.260 1_565 S
C216 O217 1.211 . S
O217 C216 1.211 . S
C218 O210 1.284 1_565 S
C218 O219 1.273 . S
O219 C218 1.273 . S
O220 Zn211 1.977 . S
O220 C213 1.267 . S
C221 O222 1.160 . S
C221 O228 1.185 . S
O222 C221 1.160 . S
O223 Zn224 1.899 . S
O223 C231 1.284 . S
Zn224 O223 1.899 . S
Zn224 O225 2.032 . S
Zn224 O228 2.086 . S
Zn224 O233 1.977 . S
O225 Zn224 2.032 . S
O225 C229 1.278 . S
C226 O227 1.203 . S
C226 O233 1.267 . S
O227 C226 1.203 . S
O228 C221 1.185 . S
O228 Zn224 2.086 . S
C229 O225 1.278 . S
C229 O230 1.211 . S
O230 C229 1.211 . S
C231 O223 1.284 . S
C231 O232 1.273 . S
O232 C231 1.273 . S
O233 Zn224 1.977 . S
O233 C226 1.267 . S
C234 O235 1.160 . S
C234 O241 1.185 . S
O235 C234 1.160 . S
O236 Zn237 1.899 . S
O236 C244 1.284 . S
Zn237 O236 1.899 . S
Zn237 O238 2.032 . S
Zn237 O241 2.086 . S
Zn237 O246 1.977 . S
O238 Zn237 2.032 . S
O238 C242 1.278 . S
C239 O240 1.203 . S
C239 O246 1.267 . S
O240 C239 1.203 . S
O241 C234 1.185 . S
O241 Zn237 2.086 . S
C242 O238 1.278 . S
C242 O243 1.211 . S
O243 C242 1.211 . S
C244 O236 1.284 . S
C244 O245 1.273 . S
O245 C244 1.273 . S
O246 Zn237 1.977 . S
O246 C239 1.267 . S
C247 O248 1.160 . S
C247 O254 1.185 . S
O248 C247 1.160 . S
O249 Zn250 1.899 . S
O249 C257 1.284 . S
Zn250 O249 1.899 . S
Zn250 O251 2.032 . S
Zn250 O254 2.086 . S
Zn250 O259 1.977 . S
O251 Zn250 2.032 . S
O251 C255 1.278 . S
C252 O253 1.203 . S
C252 O259 1.267 . S
O253 C252 1.203 . S
O254 C247 1.185 . S
O254 Zn250 2.086 . S
C255 O251 1.278 . S
C255 O256 1.211 . S
O256 C255 1.211 . S
C257 O249 1.284 . S
C257 O258 1.273 . S
O258 C257 1.273 . S
O259 Zn250 1.977 . S
O259 C252 1.267 . S
C260 O261 1.160 . S
C260 O267 1.185 . S
O261 C260 1.160 . S
O262 Zn263 1.899 . S
O262 C270 1.284 1_554 S
Zn263 O262 1.899 . S
Zn263 O264 2.032 . S
Zn263 O267 2.086 . S
Zn263 O272 1.977 . S
O264 Zn263 2.032 . S
O264 C268 1.278 1_554 S
C265 O266 1.203 . S
C265 O272 1.267 . S
O266 C265 1.203 . S
O267 C260 1.185 . S
O267 Zn263 2.086 . S
C268 O264 1.278 1_556 S
C268 O269 1.211 . S
O269 C268 1.211 . S
C270 O262 1.284 1_556 S
C270 O271 1.273 . S
O271 C270 1.273 . S
O272 Zn263 1.977 . S
O272 C265 1.267 . S
C273 O274 1.160 . S
C273 O280 1.185 . S
O274 C273 1.160 . S
O275 Zn276 1.899 . S
O275 C283 1.284 . S
Zn276 O275 1.899 . S
Zn276 O277 2.032 . S
Zn276 O280 2.086 . S
Zn276 O285 1.977 . S
O277 Zn276 2.032 . S
O277 C281 1.278 . S
C278 O279 1.203 . S
C278 O285 1.267 . S
O279 C278 1.203 . S
O280 C273 1.185 . S
O280 Zn276 2.086 . S
C281 O277 1.278 . S
C281 O282 1.211 . S
O282 C281 1.211 . S
C283 O275 1.284 . S
C283 O284 1.273 . S
O284 C283 1.273 . S
O285 Zn276 1.977 . S
O285 C278 1.267 . S
C286 O287 1.160 . S
C286 O293 1.185 . S
O287 C286 1.160 . S
O288 Zn289 1.899 . S
O288 C296 1.284 . S
Zn289 O288 1.899 . S
Zn289 O290 2.032 . S
Zn289 O293 2.086 . S
Zn289 O298 1.977 . S
O290 Zn289 2.032 . S
O290 C294 1.278 . S
C291 O292 1.203 . S
C291 O298 1.267 . S
O292 C291 1.203 . S
O293 C286 1.185 . S
O293 Zn289 2.086 . S
C294 O290 1.278 . S
C294 O295 1.211 . S
O295 C294 1.211 . S
C296 O288 1.284 . S
C296 O297 1.273 . S
O297 C296 1.273 . S
O298 Zn289 1.977 . S
O298 C291 1.267 . S
C299 O300 1.160 . S
C299 O306 1.185 . S
O300 C299 1.160 . S
O301 Zn302 1.899 . S
O301 C309 1.284 . S
Zn302 O301 1.899 . S
Zn302 O303 2.032 . S
Zn302 O306 2.086 . S
Zn302 O311 1.977 . S
O303 Zn302 2.032 . S
O303 C307 1.278 . S
C304 O305 1.203 . S
C304 O311 1.267 . S
O305 C304 1.203 . S
O306 C299 1.185 . S
O306 Zn302 2.086 . S
C307 O303 1.278 . S
C307 O308 1.211 . S
O308 C307 1.211 . S
C309 O301 1.284 . S
C309 O310 1.273 . S
O310 C309 1.273 . S
O311 Zn302 1.977 . S
O311 C304 1.267 . S
O312 Mg313 1.990 . S
O312 C326 1.253 . S
Mg313 O312 1.990 . S
Mg313 O316 2.180 . S
Mg313 O317 2.117 . S
Mg313 O331 2.030 . S
O314 Mg315 2.072 . S
O314 C326 1.260 . S
Mg315 O314 2.072 . S
Mg315 O316 2.099 . S
Mg315 O318 2.079 . S
Mg315 O319 2.072 . S
Mg315 O321 2.099 . S
Mg315 O332 2.079 . S
O316 Mg313 2.180 . S
O316 Mg315 2.099 . S
O316 C327 1.279 . S
O317 Mg313 2.117 . S
O317 C327 1.250 . S
O318 Mg315 2.079 . S
O318 C328 1.264 . S
O319 Mg315 2.072 . S
O319 C329 1.260 . S
Mg320 O321 2.180 . S
Mg320 O322 2.030 . S
Mg320 O323 1.990 . S
Mg320 O324 2.117 . S
O321 Mg315 2.099 . S
O321 Mg320 2.180 . S
O321 C330 1.279 . S
O322 Mg320 2.030 . S
O322 C328 1.248 . S
O323 Mg320 1.990 . S
O323 C329 1.253 . S
O324 Mg320 2.117 . S
O324 C330 1.250 . S
C325 O331 1.248 . S
C325 O332 1.264 . S
C326 O312 1.253 . S
C326 O314 1.260 . S
C327 O316 1.279 . S
C327 O317 1.250 . S
C328 O318 1.264 . S
C328 O322 1.248 . S
C329 O319 1.260 . S
C329 O323 1.253 . S
C330 O321 1.279 . S
C330 O324 1.250 . S
O331 Mg313 2.030 . S
O331 C325 1.248 . S
O332 Mg315 2.079 . S
O332 C325 1.264 . S
O333 Mg334 1.990 . S
O333 C347 1.253 . S
Mg334 O333 1.990 . S
Mg334 O337 2.180 . S
Mg334 O338 2.117 . S
Mg334 O352 2.030 . S
O335 Mg336 2.072 . S
O335 C347 1.260 . S
Mg336 O335 2.072 . S
Mg336 O337 2.099 . S
Mg336 O339 2.079 . S
Mg336 O340 2.072 . S
Mg336 O342 2.099 . S
Mg336 O353 2.079 . S
O337 Mg334 2.180 . S
O337 Mg336 2.099 . S
O337 C348 1.279 . S
O338 Mg334 2.117 . S
O338 C348 1.250 . S
O339 Mg336 2.079 . S
O339 C349 1.264 . S
O340 Mg336 2.072 . S
O340 C350 1.260 . S
Mg341 O342 2.180 . S
Mg341 O343 2.030 . S
Mg341 O344 1.990 . S
Mg341 O345 2.117 . S
O342 Mg336 2.099 . S
O342 Mg341 2.180 . S
O342 C351 1.279 . S
O343 Mg341 2.030 . S
O343 C349 1.248 . S
O344 Mg341 1.990 . S
O344 C350 1.253 . S
O345 Mg341 2.117 . S
O345 C351 1.250 . S
C346 O352 1.248 . S
C346 O353 1.264 . S
C347 O333 1.253 . S
C347 O335 1.260 . S
C348 O337 1.279 . S
C348 O338 1.250 . S
C349 O339 1.264 . S
C349 O343 1.248 . S
C350 O340 1.260 . S
C350 O344 1.253 . S
C351 O342 1.279 . S
C351 O345 1.250 . S
O352 Mg334 2.030 . S
O352 C346 1.248 . S
O353 Mg336 2.079 . S
O353 C346 1.264 . S
O354 Mg355 1.990 . S
O354 C368 1.253 . S
Mg355 O354 1.990 . S
Mg355 O358 2.180 . S
Mg355 O359 2.117 1_565 S
Mg355 O373 2.030 . S
O356 Mg357 2.072 . S
O356 C368 1.260 . S
Mg357 O356 2.072 . S
Mg357 O358 2.099 . S
Mg357 O360 2.079 . S
Mg357 O361 2.072 . S
Mg357 O363 2.099 . S
Mg357 O374 2.079 . S
O358 Mg355 2.180 . S
O358 Mg357 2.099 . S
O358 C369 1.279 . S
O359 Mg355 2.117 1_545 S
O359 C369 1.250 1_545 S
O360 Mg357 2.079 . S
O360 C370 1.264 . S
O361 Mg357 2.072 . S
O361 C371 1.260 . S
Mg362 O363 2.180 . S
Mg362 O364 2.030 . S
Mg362 O365 1.990 . S
Mg362 O366 2.117 . S
O363 Mg357 2.099 . S
O363 Mg362 2.180 . S
O363 C372 1.279 . S
O364 Mg362 2.030 . S
O364 C370 1.248 . S
O365 Mg362 1.990 . S
O365 C371 1.253 . S
O366 Mg362 2.117 . S
O366 C372 1.250 . S
C367 O373 1.248 . S
C367 O374 1.264 . S
C368 O354 1.253 . S
C368 O356 1.260 . S
C369 O358 1.279 . S
C369 O359 1.250 1_565 S
C370 O360 1.264 . S
C370 O364 1.248 . S
C371 O361 1.260 . S
C371 O365 1.253 . S
C372 O363 1.279 . S
C372 O366 1.250 . S
O373 Mg355 2.030 . S
O373 C367 1.248 . S
O374 Mg357 2.079 . S
O374 C367 1.264 . S
O375 Mg376 1.990 . S
O375 C389 1.253 . S
Mg376 O375 1.990 . S
Mg376 O379 2.180 . S
Mg376 O380 2.117 . S
Mg376 O394 2.030 . S
O377 Mg378 2.072 . S
O377 C389 1.260 . S
Mg378 O377 2.072 . S
Mg378 O379 2.099 . S
Mg378 O381 2.079 . S
Mg378 O382 2.072 . S
Mg378 O384 2.099 . S
Mg378 O395 2.079 . S
O379 Mg376 2.180 . S
O379 Mg378 2.099 . S
O379 C390 1.279 . S
O380 Mg376 2.117 . S
O380 C390 1.250 . S
O381 Mg378 2.079 . S
O381 C391 1.264 . S
O382 Mg378 2.072 . S
O382 C392 1.260 . S
Mg383 O384 2.180 . S
Mg383 O385 2.030 . S
Mg383 O386 1.990 . S
Mg383 O387 2.117 . S
O384 Mg378 2.099 . S
O384 Mg383 2.180 . S
O384 C393 1.279 . S
O385 Mg383 2.030 . S
O385 C391 1.248 . S
O386 Mg383 1.990 . S
O386 C392 1.253 . S
O387 Mg383 2.117 . S
O387 C393 1.250 . S
C388 O394 1.248 . S
C388 O395 1.264 . S
C389 O375 1.253 . S
C389 O377 1.260 . S
C390 O379 1.279 . S
C390 O380 1.250 . S
C391 O381 1.264 . S
C391 O385 1.248 . S
C392 O382 1.260 . S
C392 O386 1.253 . S
C393 O384 1.279 . S
C393 O387 1.250 . S
O394 Mg376 2.030 . S
O394 C388 1.248 . S
O395 Mg378 2.079 . S
O395 C388 1.264 . S
O396 Mg397 1.990 . S
O396 C410 1.253 . S
Mg397 O396 1.990 . S
Mg397 O400 2.180 . S
Mg397 O401 2.117 . S
Mg397 O415 2.030 . S
O398 Mg399 2.072 . S
O398 C410 1.260 . S
Mg399 O398 2.072 . S
Mg399 O400 2.099 . S
Mg399 O402 2.079 . S
Mg399 O403 2.072 . S
Mg399 O405 2.099 . S
Mg399 O416 2.079 . S
O400 Mg397 2.180 . S
O400 Mg399 2.099 . S
O400 C411 1.279 . S
O401 Mg397 2.117 . S
O401 C411 1.250 . S
O402 Mg399 2.079 . S
O402 C412 1.264 . S
O403 Mg399 2.072 . S
O403 C413 1.260 . S
Mg404 O405 2.180 . S
Mg404 O406 2.030 . S
Mg404 O407 1.990 . S
Mg404 O408 2.117 . S
O405 Mg399 2.099 . S
O405 Mg404 2.180 . S
O405 C414 1.279 . S
O406 Mg404 2.030 . S
O406 C412 1.248 . S
O407 Mg404 1.990 . S
O407 C413 1.253 . S
O408 Mg404 2.117 . S
O408 C414 1.250 . S
C409 O415 1.248 . S
C409 O416 1.264 . S
C410 O396 1.253 . S
C410 O398 1.260 . S
C411 O400 1.279 . S
C411 O401 1.250 . S
C412 O402 1.264 . S
C412 O406 1.248 . S
C413 O403 1.260 . S
C413 O407 1.253 . S
C414 O405 1.279 . S
C414 O408 1.250 . S
O415 Mg397 2.030 . S
O415 C409 1.248 . S
O416 Mg399 2.079 . S
O416 C409 1.264 . S
O417 Mg418 1.990 . S
O417 C431 1.253 . S
Mg418 O417 1.990 . S
Mg418 O421 2.180 . S
Mg418 O422 2.117 . S
Mg418 O436 2.030 . S
O419 Mg420 2.072 . S
O419 C431 1.260 . S
Mg420 O419 2.072 . S
Mg420 O421 2.099 . S
Mg420 O423 2.079 . S
Mg420 O424 2.072 . S
Mg420 O426 2.099 . S
Mg420 O437 2.079 . S
O421 Mg418 2.180 . S
O421 Mg420 2.099 . S
O421 C432 1.279 . S
O422 Mg418 2.117 . S
O422 C432 1.250 . S
O423 Mg420 2.079 . S
O423 C433 1.264 . S
O424 Mg420 2.072 . S
O424 C434 1.260 . S
Mg425 O426 2.180 . S
Mg425 O427 2.030 . S
Mg425 O428 1.990 . S
Mg425 O429 2.117 . S
O426 Mg420 2.099 . S
O426 Mg425 2.180 . S
O426 C435 1.279 . S
O427 Mg425 2.030 . S
O427 C433 1.248 . S
O428 Mg425 1.990 . S
O428 C434 1.253 . S
O429 Mg425 2.117 . S
O429 C435 1.250 . S
C430 O436 1.248 . S
C430 O437 1.264 . S
C431 O417 1.253 . S
C431 O419 1.260 . S
C432 O421 1.279 . S
C432 O422 1.250 . S
C433 O423 1.264 . S
C433 O427 1.248 . S
C434 O424 1.260 . S
C434 O428 1.253 . S
C435 O426 1.279 . S
C435 O429 1.250 . S
O436 Mg418 2.030 . S
O436 C430 1.248 . S
O437 Mg420 2.079 . S
O437 C430 1.264 . S
O438 Mg439 1.990 . S
O438 C452 1.253 . S
Mg439 O438 1.990 . S
Mg439 O442 2.180 . S
Mg439 O443 2.117 . S
Mg439 O457 2.030 . S
O440 Mg441 2.072 . S
O440 C452 1.260 . S
Mg441 O440 2.072 . S
Mg441 O442 2.099 . S
Mg441 O444 2.079 . S
Mg441 O445 2.072 . S
Mg441 O447 2.099 . S
Mg441 O458 2.079 . S
O442 Mg439 2.180 . S
O442 Mg441 2.099 . S
O442 C453 1.279 . S
O443 Mg439 2.117 . S
O443 C453 1.250 . S
O444 Mg441 2.079 . S
O444 C454 1.264 . S
O445 Mg441 2.072 . S
O445 C455 1.260 . S
Mg446 O447 2.180 . S
Mg446 O448 2.030 . S
Mg446 O449 1.990 . S
Mg446 O450 2.117 . S
O447 Mg441 2.099 . S
O447 Mg446 2.180 . S
O447 C456 1.279 . S
O448 Mg446 2.030 . S
O448 C454 1.248 . S
O449 Mg446 1.990 . S
O449 C455 1.253 . S
O450 Mg446 2.117 . S
O450 C456 1.250 . S
C451 O457 1.248 . S
C451 O458 1.264 . S
C452 O438 1.253 . S
C452 O440 1.260 . S
C453 O442 1.279 . S
C453 O443 1.250 . S
C454 O444 1.264 . S
C454 O448 1.248 . S
C455 O445 1.260 . S
C455 O449 1.253 . S
C456 O447 1.279 . S
C456 O450 1.250 . S
O457 Mg439 2.030 . S
O457 C451 1.248 . S
O458 Mg441 2.079 . S
O458 C451 1.264 . S
O459 Mg460 1.990 . S
O459 C473 1.253 . S
Mg460 O459 1.990 . S
Mg460 O463 2.180 . S
Mg460 O464 2.117 . S
Mg460 O478 2.030 . S
O461 Mg462 2.072 . S
O461 C473 1.260 . S
Mg462 O461 2.072 . S
Mg462 O463 2.099 . S
Mg462 O465 2.079 . S
Mg462 O466 2.072 . S
Mg462 O468 2.099 . S
Mg462 O479 2.079 . S
O463 Mg460 2.180 . S
O463 Mg462 2.099 . S
O463 C474 1.279 . S
O464 Mg460 2.117 . S
O464 C474 1.250 . S
O465 Mg462 2.079 . S
O465 C475 1.264 . S
O466 Mg462 2.072 . S
O466 C476 1.260 . S
Mg467 O468 2.180 . S
Mg467 O469 2.030 . S
Mg467 O470 1.990 . S
Mg467 O471 2.117 . S
O468 Mg462 2.099 . S
O468 Mg467 2.180 . S
O468 C477 1.279 . S
O469 Mg467 2.030 . S
O469 C475 1.248 . S
O470 Mg467 1.990 . S
O470 C476 1.253 . S
O471 Mg467 2.117 . S
O471 C477 1.250 . S
C472 O478 1.248 . S
C472 O479 1.264 . S
C473 O459 1.253 . S
C473 O461 1.260 . S
C474 O463 1.279 . S
C474 O464 1.250 . S
C475 O465 1.264 . S
C475 O469 1.248 . S
C476 O466 1.260 . S
C476 O470 1.253 . S
C477 O468 1.279 . S
C477 O471 1.250 . S
O478 Mg460 2.030 . S
O478 C472 1.248 . S
O479 Mg462 2.079 . S
O479 C472 1.264 . S
O480 Mg481 1.990 . S
O480 C494 1.253 . S
Mg481 O480 1.990 . S
Mg481 O484 2.180 . S
Mg481 O485 2.117 . S
Mg481 O499 2.030 . S
O482 Mg483 2.072 . S
O482 C494 1.260 . S
Mg483 O482 2.072 . S
Mg483 O484 2.099 . S
Mg483 O486 2.079 . S
Mg483 O487 2.072 . S
Mg483 O489 2.099 . S
Mg483 O500 2.079 . S
O484 Mg481 2.180 . S
O484 Mg483 2.099 . S
O484 C495 1.279 . S
O485 Mg481 2.117 . S
O485 C495 1.250 . S
O486 Mg483 2.079 . S
O486 C496 1.264 . S
O487 Mg483 2.072 . S
O487 C497 1.260 . S
Mg488 O489 2.180 . S
Mg488 O490 2.030 . S
Mg488 O491 1.990 . S
Mg488 O492 2.117 1_655 S
O489 Mg483 2.099 . S
O489 Mg488 2.180 . S
O489 C498 1.279 . S
O490 Mg488 2.030 . S
O490 C496 1.248 . S
O491 Mg488 1.990 . S
O491 C497 1.253 . S
O492 Mg488 2.117 1_455 S
O492 C498 1.250 1_455 S
C493 O499 1.248 . S
C493 O500 1.264 . S
C494 O480 1.253 . S
C494 O482 1.260 . S
C495 O484 1.279 . S
C495 O485 1.250 . S
C496 O486 1.264 . S
C496 O490 1.248 . S
C497 O487 1.260 . S
C497 O491 1.253 . S
C498 O489 1.279 . S
C498 O492 1.250 1_655 S
O499 Mg481 2.030 . S
O499 C493 1.248 . S
O500 Mg483 2.079 . S
O500 C493 1.264 . S
O501 Mg502 1.990 . S
O501 C515 1.253 . S
Mg502 O501 1.990 . S
Mg502 O505 2.180 . S
Mg502 O506 2.117 . S
Mg502 O520 2.030 . S
O503 Mg504 2.072 . S
O503 C515 1.260 . S
Mg504 O503 2.072 . S
Mg504 O505 2.099 . S
Mg504 O507 2.079 . S
Mg504 O508 2.072 . S
Mg504 O510 2.099 . S
Mg504 O521 2.079 . S
O505 Mg502 2.180 . S
O505 Mg504 2.099 . S
O505 C516 1.279 . S
O506 Mg502 2.117 . S
O506 C516 1.250 . S
O507 Mg504 2.079 . S
O507 C517 1.264 . S
O508 Mg504 2.072 . S
O508 C518 1.260 . S
Mg509 O510 2.180 . S
Mg509 O511 2.030 . S
Mg509 O512 1.990 . S
Mg509 O513 2.117 . S
O510 Mg504 2.099 . S
O510 Mg509 2.180 . S
O510 C519 1.279 . S
O511 Mg509 2.030 . S
O511 C517 1.248 . S
O512 Mg509 1.990 . S
O512 C518 1.253 . S
O513 Mg509 2.117 . S
O513 C519 1.250 . S
C514 O520 1.248 . S
C514 O521 1.264 . S
C515 O501 1.253 . S
C515 O503 1.260 . S
C516 O505 1.279 . S
C516 O506 1.250 . S
C517 O507 1.264 . S
C517 O511 1.248 . S
C518 O508 1.260 . S
C518 O512 1.253 . S
C519 O510 1.279 . S
C519 O513 1.250 . S
O520 Mg502 2.030 . S
O520 C514 1.248 . S
O521 Mg504 2.079 . S
O521 C514 1.264 . S
O522 Mg523 1.990 . S
O522 C536 1.253 . S
Mg523 O522 1.990 . S
Mg523 O526 2.180 . S
Mg523 O527 2.117 . S
Mg523 O541 2.030 . S
O524 Mg525 2.072 . S
O524 C536 1.260 . S
Mg525 O524 2.072 . S
Mg525 O526 2.099 . S
Mg525 O528 2.079 . S
Mg525 O529 2.072 . S
Mg525 O531 2.099 . S
Mg525 O542 2.079 . S
O526 Mg523 2.180 . S
O526 Mg525 2.099 . S
O526 C537 1.279 . S
O527 Mg523 2.117 . S
O527 C537 1.250 . S
O528 Mg525 2.079 . S
O528 C538 1.264 . S
O529 Mg525 2.072 . S
O529 C539 1.260 . S
Mg530 O531 2.180 . S
Mg530 O532 2.030 . S
Mg530 O533 1.990 . S
Mg530 O534 2.117 . S
O531 Mg525 2.099 . S
O531 Mg530 2.180 . S
O531 C540 1.279 . S
O532 Mg530 2.030 . S
O532 C538 1.248 . S
O533 Mg530 1.990 . S
O533 C539 1.253 . S
O534 Mg530 2.117 . S
O534 C540 1.250 . S
C535 O541 1.248 . S
C535 O542 1.264 . S
C536 O522 1.253 . S
C536 O524 1.260 . S
C537 O526 1.279 . S
C537 O527 1.250 . S
C538 O528 1.264 . S
C538 O532 1.248 . S
C539 O529 1.260 . S
C539 O533 1.253 . S
C540 O531 1.279 . S
C540 O534 1.250 . S
O541 Mg523 2.030 . S
O541 C535 1.248 . S
O542 Mg525 2.079 . S
O542 C535 1.264 . S
O543 Mg544 1.990 . S
O543 C557 1.253 . S
Mg544 O543 1.990 . S
Mg544 O547 2.180 . S
Mg544 O548 2.117 . S
Mg544 O562 2.030 . S
O545 Mg546 2.072 . S
O545 C557 1.260 . S
Mg546 O545 2.072 . S
Mg546 O547 2.099 . S
Mg546 O549 2.079 . S
Mg546 O550 2.072 . S
Mg546 O552 2.099 . S
Mg546 O563 2.079 . S
O547 Mg544 2.180 . S
O547 Mg546 2.099 . S
O547 C558 1.279 . S
O548 Mg544 2.117 . S
O548 C558 1.250 . S
O549 Mg546 2.079 . S
O549 C559 1.264 . S
O550 Mg546 2.072 . S
O550 C560 1.260 . S
Mg551 O552 2.180 . S
Mg551 O553 2.030 . S
Mg551 O554 1.990 . S
Mg551 O555 2.117 . S
O552 Mg546 2.099 . S
O552 Mg551 2.180 . S
O552 C561 1.279 . S
O553 Mg551 2.030 . S
O553 C559 1.248 . S
O554 Mg551 1.990 . S
O554 C560 1.253 . S
O555 Mg551 2.117 . S
O555 C561 1.250 . S
C556 O562 1.248 . S
C556 O563 1.264 . S
C557 O543 1.253 . S
C557 O545 1.260 . S
C558 O547 1.279 . S
C558 O548 1.250 . S
C559 O549 1.264 . S
C559 O553 1.248 . S
C560 O550 1.260 . S
C560 O554 1.253 . S
C561 O552 1.279 . S
C561 O555 1.250 . S
O562 Mg544 2.030 . S
O562 C556 1.248 . S
O563 Mg546 2.079 . S
O563 C556 1.264 . S
O564 Mg565 1.990 . S
O564 C578 1.253 . S
Mg565 O564 1.990 . S
Mg565 O568 2.180 . S
Mg565 O569 2.117 . S
Mg565 O583 2.030 . S
O566 Mg567 2.072 . S
O566 C578 1.260 . S
Mg567 O566 2.072 . S
Mg567 O568 2.099 . S
Mg567 O570 2.079 . S
Mg567 O571 2.072 . S
Mg567 O573 2.099 . S
Mg567 O584 2.079 . S
O568 Mg565 2.180 . S
O568 Mg567 2.099 . S
O568 C579 1.279 . S
O569 Mg565 2.117 . S
O569 C579 1.250 . S
O570 Mg567 2.079 . S
O570 C580 1.264 . S
O571 Mg567 2.072 . S
O571 C581 1.260 . S
Mg572 O573 2.180 . S
Mg572 O574 2.030 . S
Mg572 O575 1.990 . S
Mg572 O576 2.117 . S
O573 Mg567 2.099 . S
O573 Mg572 2.180 . S
O573 C582 1.279 . S
O574 Mg572 2.030 . S
O574 C580 1.248 . S
O575 Mg572 1.990 . S
O575 C581 1.253 . S
O576 Mg572 2.117 . S
O576 C582 1.250 . S
C577 O583 1.248 . S
C577 O584 1.264 . S
C578 O564 1.253 . S
C578 O566 1.260 . S
C579 O568 1.279 . S
C579 O569 1.250 . S
C580 O570 1.264 . S
C580 O574 1.248 . S
C581 O571 1.260 . S
C581 O575 1.253 . S
C582 O573 1.279 . S
C582 O576 1.250 . S
O583 Mg565 2.030 . S
O583 C577 1.248 . S
O584 Mg567 2.079 . S
O584 C577 1.264 . S
O585 Mg586 1.990 . S
O585 C599 1.253 . S
Mg586 O585 1.990 . S
Mg586 O589 2.180 . S
Mg586 O590 2.117 . S
Mg586 O604 2.030 . S
O587 Mg588 2.072 . S
O587 C599 1.260 . S
Mg588 O587 2.072 . S
Mg588 O589 2.099 . S
Mg588 O591 2.079 . S
Mg588 O592 2.072 . S
Mg588 O594 2.099 . S
Mg588 O605 2.079 . S
O589 Mg586 2.180 . S
O589 Mg588 2.099 . S
O589 C600 1.279 . S
O590 Mg586 2.117 . S
O590 C600 1.250 . S
O591 Mg588 2.079 . S
O591 C601 1.264 . S
O592 Mg588 2.072 . S
O592 C602 1.260 . S
Mg593 O594 2.180 . S
Mg593 O595 2.030 . S
Mg593 O596 1.990 . S
Mg593 O597 2.117 . S
O594 Mg588 2.099 . S
O594 Mg593 2.180 . S
O594 C603 1.279 . S
O595 Mg593 2.030 . S
O595 C601 1.248 . S
O596 Mg593 1.990 . S
O596 C602 1.253 . S
O597 Mg593 2.117 . S
O597 C603 1.250 . S
C598 O604 1.248 . S
C598 O605 1.264 . S
C599 O585 1.253 . S
C599 O587 1.260 . S
C600 O589 1.279 . S
C600 O590 1.250 . S
C601 O591 1.264 . S
C601 O595 1.248 . S
C602 O592 1.260 . S
C602 O596 1.253 . S
C603 O594 1.279 . S
C603 O597 1.250 . S
O604 Mg586 2.030 . S
O604 C598 1.248 . S
O605 Mg588 2.079 . S
O605 C598 1.264 . S
O606 Mg607 1.990 . S
O606 C620 1.253 . S
Mg607 O606 1.990 . S
Mg607 O610 2.180 . S
Mg607 O611 2.117 . S
Mg607 O625 2.030 . S
O608 Mg609 2.072 . S
O608 C620 1.260 . S
Mg609 O608 2.072 . S
Mg609 O610 2.099 . S
Mg609 O612 2.079 . S
Mg609 O613 2.072 . S
Mg609 O615 2.099 . S
Mg609 O626 2.079 . S
O610 Mg607 2.180 . S
O610 Mg609 2.099 . S
O610 C621 1.279 . S
O611 Mg607 2.117 . S
O611 C621 1.250 . S
O612 Mg609 2.079 . S
O612 C622 1.264 . S
O613 Mg609 2.072 . S
O613 C623 1.260 . S
Mg614 O615 2.180 . S
Mg614 O616 2.030 . S
Mg614 O617 1.990 . S
Mg614 O618 2.117 . S
O615 Mg609 2.099 . S
O615 Mg614 2.180 . S
O615 C624 1.279 . S
O616 Mg614 2.030 . S
O616 C622 1.248 . S
O617 Mg614 1.990 . S
O617 C623 1.253 . S
O618 Mg614 2.117 . S
O618 C624 1.250 . S
C619 O625 1.248 . S
C619 O626 1.264 . S
C620 O606 1.253 . S
C620 O608 1.260 . S
C621 O610 1.279 . S
C621 O611 1.250 . S
C622 O612 1.264 . S
C622 O616 1.248 . S
C623 O613 1.260 . S
C623 O617 1.253 . S
C624 O615 1.279 . S
C624 O618 1.250 . S
O625 Mg607 2.030 . S
O625 C619 1.248 . S
O626 Mg609 2.079 . S
O626 C619 1.264 . S
O627 Mg628 1.990 . S
O627 C641 1.253 . S
Mg628 O627 1.990 . S
Mg628 O631 2.180 . S
Mg628 O632 2.117 . S
Mg628 O646 2.030 . S
O629 Mg630 2.072 . S
O629 C641 1.260 . S
Mg630 O629 2.072 . S
Mg630 O631 2.099 . S
Mg630 O633 2.079 . S
Mg630 O634 2.072 . S
Mg630 O636 2.099 . S
Mg630 O647 2.079 . S
O631 Mg628 2.180 . S
O631 Mg630 2.099 . S
O631 C642 1.279 . S
O632 Mg628 2.117 . S
O632 C642 1.250 . S
O633 Mg630 2.079 . S
O633 C643 1.264 . S
O634 Mg630 2.072 . S
O634 C644 1.260 . S
Mg635 O636 2.180 . S
Mg635 O637 2.030 . S
Mg635 O638 1.990 . S
Mg635 O639 2.117 . S
O636 Mg630 2.099 . S
O636 Mg635 2.180 . S
O636 C645 1.279 . S
O637 Mg635 2.030 . S
O637 C643 1.248 . S
O638 Mg635 1.990 . S
O638 C644 1.253 . S
O639 Mg635 2.117 . S
O639 C645 1.250 . S
C640 O646 1.248 . S
C640 O647 1.264 . S
C641 O627 1.253 . S
C641 O629 1.260 . S
C642 O631 1.279 . S
C642 O632 1.250 . S
C643 O633 1.264 . S
C643 O637 1.248 . S
C644 O634 1.260 . S
C644 O638 1.253 . S
C645 O636 1.279 . S
C645 O639 1.250 . S
O646 Mg628 2.030 . S
O646 C640 1.248 . S
O647 Mg630 2.079 . S
O647 C640 1.264 . S
H648 C656 0.950 . S
H649 C661 0.950 . S
H650 C658 0.950 . S
H651 C660 0.950 . S
H652 C662 0.950 . S
H653 C664 0.950 . S
H654 C666 0.950 . S
H655 C667 0.950 . S
C656 H648 0.950 . S
C656 C657 1.386 . S
C656 C658 1.391 . S
C657 C656 1.386 . S
C657 C661 1.393 . S
C658 H650 0.950 . S
C658 C656 1.391 . S
C658 C659 1.400 . S
C659 C658 1.400 . S
C659 C660 1.398 . S
C659 C665 1.491 . S
C660 H651 0.950 . S
C660 C659 1.398 . S
C660 C661 1.391 . S
C661 H649 0.950 . S
C661 C657 1.393 . S
C661 C660 1.391 . S
C662 H652 0.950 . S
C662 C663 1.386 . S
C662 C664 1.391 . S
C663 C662 1.386 . S
C663 C667 1.393 . S
C664 H653 0.950 . S
C664 C662 1.391 . S
C664 C665 1.400 . S
C665 C659 1.491 . S
C665 C664 1.400 . S
C665 C666 1.398 . S
C666 H654 0.950 . S
C666 C665 1.398 . S
C666 C667 1.391 . S
C667 H655 0.950 . S
C667 C663 1.393 . S
C667 C666 1.391 . S
H668 C676 0.950 . S
H669 C681 0.950 . S
H670 C678 0.950 . S
H671 C680 0.950 . S
H672 C682 0.950 . S
H673 C684 0.950 . S
H674 C686 0.950 . S
H675 C687 0.950 . S
C676 H668 0.950 . S
C676 C677 1.386 . S
C676 C678 1.391 . S
C677 C676 1.386 . S
C677 C681 1.393 . S
C678 H670 0.950 . S
C678 C676 1.391 . S
C678 C679 1.400 . S
C679 C678 1.400 . S
C679 C680 1.398 . S
C679 C685 1.491 . S
C680 H671 0.950 . S
C680 C679 1.398 . S
C680 C681 1.391 . S
C681 H669 0.950 . S
C681 C677 1.393 . S
C681 C680 1.391 . S
C682 H672 0.950 . S
C682 C683 1.386 . S
C682 C684 1.391 . S
C683 C682 1.386 . S
C683 C687 1.393 . S
C684 H673 0.950 . S
C684 C682 1.391 . S
C684 C685 1.400 . S
C685 C679 1.491 . S
C685 C684 1.400 . S
C685 C686 1.398 . S
C686 H674 0.950 . S
C686 C685 1.398 . S
C686 C687 1.391 . S
C687 H675 0.950 . S
C687 C683 1.393 . S
C687 C686 1.391 . S
H688 C696 0.950 . S
H689 C701 0.950 . S
H690 C698 0.950 . S
H691 C700 0.950 . S
H692 C702 0.950 . S
H693 C704 0.950 . S
H694 C706 0.950 . S
H695 C707 0.950 . S
C696 H688 0.950 . S
C696 C697 1.386 . S
C696 C698 1.391 . S
C697 C696 1.386 . S
C697 C701 1.393 . S
C698 H690 0.950 . S
C698 C696 1.391 . S
C698 C699 1.400 . S
C699 C698 1.400 . S
C699 C700 1.398 . S
C699 C705 1.491 . S
C700 H691 0.950 . S
C700 C699 1.398 . S
C700 C701 1.391 . S
C701 H689 0.950 . S
C701 C697 1.393 . S
C701 C700 1.391 . S
C702 H692 0.950 . S
C702 C703 1.386 . S
C702 C704 1.391 . S
C703 C702 1.386 . S
C703 C707 1.393 . S
C704 H693 0.950 . S
C704 C702 1.391 . S
C704 C705 1.400 . S
C705 C699 1.491 . S
C705 C704 1.400 . S
C705 C706 1.398 . S
C706 H694 0.950 . S
C706 C705 1.398 . S
C706 C707 1.391 . S
C707 H695 0.950 . S
C707 C703 1.393 . S
C707 C706 1.391 . S
H708 C716 0.950 . S
H709 C721 0.950 . S
H710 C718 0.950 . S
H711 C720 0.950 . S
H712 C722 0.950 . S
H713 C724 0.950 . S
H714 C726 0.950 . S
H715 C727 0.950 . S
C716 H708 0.950 . S
C716 C717 1.386 . S
C716 C718 1.391 . S
C717 C716 1.386 . S
C717 C721 1.393 . S
C718 H710 0.950 . S
C718 C716 1.391 . S
C718 C719 1.400 . S
C719 C718 1.400 . S
C719 C720 1.398 . S
C719 C725 1.491 . S
C720 H711 0.950 . S
C720 C719 1.398 . S
C720 C721 1.391 . S
C721 H709 0.950 . S
C721 C717 1.393 . S
C721 C720 1.391 . S
C722 H712 0.950 . S
C722 C723 1.386 . S
C722 C724 1.391 1_556 S
C723 C722 1.386 . S
C723 C727 1.393 . S
C724 H713 0.950 . S
C724 C722 1.391 1_554 S
C724 C725 1.400 . S
C725 C719 1.491 . S
C725 C724 1.400 . S
C725 C726 1.398 . S
C726 H714 0.950 . S
C726 C725 1.398 . S
C726 C727 1.391 1_554 S
C727 H715 0.950 . S
C727 C723 1.393 . S
C727 C726 1.391 1_556 S
H728 C736 0.950 . S
H729 C741 0.950 . S
H730 C738 0.950 . S
H731 C740 0.950 . S
H732 C742 0.950 . S
H733 C744 0.950 . S
H734 C746 0.950 . S
H735 C747 0.950 . S
C736 H728 0.950 . S
C736 C737 1.386 . S
C736 C738 1.391 . S
C737 C736 1.386 . S
C737 C741 1.393 . S
C738 H730 0.950 . S
C738 C736 1.391 . S
C738 C739 1.400 . S
C739 C738 1.400 . S
C739 C740 1.398 . S
C739 C745 1.491 . S
C740 H731 0.950 . S
C740 C739 1.398 . S
C740 C741 1.391 . S
C741 H729 0.950 . S
C741 C737 1.393 . S
C741 C740 1.391 . S
C742 H732 0.950 . S
C742 C743 1.386 . S
C742 C744 1.391 . S
C743 C742 1.386 . S
C743 C747 1.393 . S
C744 H733 0.950 . S
C744 C742 1.391 . S
C744 C745 1.400 . S
C745 C739 1.491 . S
C745 C744 1.400 . S
C745 C746 1.398 . S
C746 H734 0.950 . S
C746 C745 1.398 . S
C746 C747 1.391 . S
C747 H735 0.950 . S
C747 C743 1.393 . S
C747 C746 1.391 . S
H748 C756 0.950 . S
H749 C761 0.950 . S
H750 C758 0.950 . S
H751 C760 0.950 . S
H752 C762 0.950 . S
H753 C764 0.950 . S
H754 C766 0.950 . S
H755 C767 0.950 . S
C756 H748 0.950 . S
C756 C757 1.386 . S
C756 C758 1.391 . S
C757 C756 1.386 . S
C757 C761 1.393 . S
C758 H750 0.950 . S
C758 C756 1.391 . S
C758 C759 1.400 . S
C759 C758 1.400 . S
C759 C760 1.398 . S
C759 C765 1.491 . S
C760 H751 0.950 . S
C760 C759 1.398 . S
C760 C761 1.391 . S
C761 H749 0.950 . S
C761 C757 1.393 . S
C761 C760 1.391 . S
C762 H752 0.950 . S
C762 C763 1.386 . S
C762 C764 1.391 . S
C763 C762 1.386 . S
C763 C767 1.393 . S
C764 H753 0.950 . S
C764 C762 1.391 . S
C764 C765 1.400 . S
C765 C759 1.491 . S
C765 C764 1.400 . S
C765 C766 1.398 . S
C766 H754 0.950 . S
C766 C765 1.398 . S
C766 C767 1.391 . S
C767 H755 0.950 . S
C767 C763 1.393 . S
C767 C766 1.391 . S
H768 C776 0.950 . S
H769 C781 0.950 . S
H770 C778 0.950 . S
H771 C780 0.950 . S
H772 C782 0.950 . S
H773 C784 0.950 . S
H774 C786 0.950 . S
H775 C787 0.950 . S
C776 H768 0.950 . S
C776 C777 1.386 . S
C776 C778 1.391 . S
C777 C776 1.386 . S
C777 C781 1.393 . S
C778 H770 0.950 . S
C778 C776 1.391 . S
C778 C779 1.400 . S
C779 C778 1.400 . S
C779 C780 1.398 . S
C779 C785 1.491 . S
C780 H771 0.950 . S
C780 C779 1.398 . S
C780 C781 1.391 . S
C781 H769 0.950 . S
C781 C777 1.393 . S
C781 C780 1.391 . S
C782 H772 0.950 . S
C782 C783 1.386 . S
C782 C784 1.391 . S
C783 C782 1.386 . S
C783 C787 1.393 . S
C784 H773 0.950 . S
C784 C782 1.391 . S
C784 C785 1.400 . S
C785 C779 1.491 . S
C785 C784 1.400 . S
C785 C786 1.398 . S
C786 H774 0.950 . S
C786 C785 1.398 . S
C786 C787 1.391 . S
C787 H775 0.950 . S
C787 C783 1.393 . S
C787 C786 1.391 . S
H788 C796 0.950 . S
H789 C801 0.950 . S
H790 C798 0.948 1_554 S
H791 C800 0.950 . S
H792 C802 0.950 . S
H793 C804 0.950 . S
H794 C806 0.950 . S
H795 C807 0.950 . S
C796 H788 0.950 . S
C796 C797 1.386 . S
C796 C798 1.391 . S
C797 C796 1.386 . S
C797 C801 1.393 . S
C798 H790 0.948 1_556 S
C798 C796 1.391 . S
C798 C799 1.400 1_556 S
C799 C798 1.400 1_554 S
C799 C800 1.398 . S
C799 C805 1.491 . S
C800 H791 0.950 . S
C800 C799 1.398 . S
C800 C801 1.391 1_554 S
C801 H789 0.950 . S
C801 C797 1.393 . S
C801 C800 1.391 1_556 S
C802 H792 0.950 . S
C802 C803 1.386 . S
C802 C804 1.391 . S
C803 C802 1.386 . S
C803 C807 1.393 . S
C804 H793 0.950 . S
C804 C802 1.391 . S
C804 C805 1.400 . S
C805 C799 1.491 . S
C805 C804 1.400 . S
C805 C806 1.398 . S
C806 H794 0.950 . S
C806 C805 1.398 . S
C806 C807 1.391 . S
C807 H795 0.950 . S
C807 C803 1.393 . S
C807 C806 1.391 . S
H808 C816 0.950 . S
H809 C821 0.950 . S
H810 C818 0.950 . S
H811 C820 0.950 . S
H812 C822 0.950 . S
H813 C824 0.950 . S
H814 C826 0.950 . S
H815 C827 0.950 . S
C816 H808 0.950 . S
C816 C817 1.386 . S
C816 C818 1.391 . S
C817 C816 1.386 . S
C817 C821 1.393 . S
C818 H810 0.950 . S
C818 C816 1.391 . S
C818 C819 1.400 . S
C819 C818 1.400 . S
C819 C820 1.398 . S
C819 C825 1.491 . S
C820 H811 0.950 . S
C820 C819 1.398 . S
C820 C821 1.391 . S
C821 H809 0.950 . S
C821 C817 1.393 . S
C821 C820 1.391 . S
C822 H812 0.950 . S
C822 C823 1.386 . S
C822 C824 1.391 . S
C823 C822 1.386 . S
C823 C827 1.393 . S
C824 H813 0.950 . S
C824 C822 1.391 . S
C824 C825 1.400 . S
C825 C819 1.491 . S
C825 C824 1.400 . S
C825 C826 1.398 . S
C826 H814 0.950 . S
C826 C825 1.398 . S
C826 C827 1.391 . S
C827 H815 0.950 . S
C827 C823 1.393 . S
C827 C826 1.391 . S
H828 C836 0.950 . S
H829 C841 0.950 . S
H830 C838 0.950 . S
H831 C840 0.950 . S
H832 C842 0.950 . S
H833 C844 0.950 . S
H834 C846 0.950 . S
H835 C847 0.950 . S
C836 H828 0.950 . S
C836 C837 1.386 . S
C836 C838 1.391 . S
C837 C836 1.386 . S
C837 C841 1.393 . S
C838 H830 0.950 . S
C838 C836 1.391 . S
C838 C839 1.400 . S
C839 C838 1.400 . S
C839 C840 1.398 . S
C839 C845 1.491 . S
C840 H831 0.950 . S
C840 C839 1.398 . S
C840 C841 1.391 . S
C841 H829 0.950 . S
C841 C837 1.393 . S
C841 C840 1.391 . S
C842 H832 0.950 . S
C842 C843 1.386 . S
C842 C844 1.391 1_565 S
C843 C842 1.386 . S
C843 C847 1.393 . S
C844 H833 0.950 . S
C844 C842 1.391 1_545 S
C844 C845 1.400 . S
C845 C839 1.491 . S
C845 C844 1.400 . S
C845 C846 1.398 . S
C846 H834 0.950 . S
C846 C845 1.398 . S
C846 C847 1.391 1_545 S
C847 H835 0.950 . S
C847 C843 1.393 . S
C847 C846 1.391 1_565 S
H848 C856 0.950 . S
H849 C861 0.950 . S
H850 C858 0.950 . S
H851 C860 0.950 . S
H852 C862 0.950 . S
H853 C864 0.950 . S
H854 C866 0.950 . S
H855 C867 0.950 . S
C856 H848 0.950 . S
C856 C857 1.386 . S
C856 C858 1.391 1_545 S
C857 C856 1.386 . S
C857 C861 1.393 . S
C858 H850 0.950 . S
C858 C856 1.391 1_565 S
C858 C859 1.400 . S
C859 C858 1.400 . S
C859 C860 1.398 1_565 S
C859 C865 1.491 . S
C860 H851 0.950 . S
C860 C859 1.398 1_545 S
C860 C861 1.391 . S
C861 H849 0.950 . S
C861 C857 1.393 . S
C861 C860 1.391 . S
C862 H852 0.950 . S
C862 C863 1.386 . S
C862 C864 1.391 . S
C863 C862 1.386 . S
C863 C867 1.393 . S
C864 H853 0.950 . S
C864 C862 1.391 . S
C864 C865 1.400 . S
C865 C859 1.491 . S
C865 C864 1.400 . S
C865 C866 1.398 . S
C866 H854 0.950 . S
C866 C865 1.398 . S
C866 C867 1.391 . S
C867 H855 0.950 . S
C867 C863 1.393 . S
C867 C866 1.391 . S
H868 C876 0.950 . S
H869 C881 0.950 . S
H870 C878 0.950 . S
H871 C880 0.950 . S
H872 C882 0.950 . S
H873 C884 0.950 . S
H874 C886 0.950 . S
H875 C887 0.950 . S
C876 H868 0.950 . S
C876 C877 1.386 . S
C876 C878 1.391 1_565 S
C877 C876 1.386 . S
C877 C881 1.393 1_556 S
C878 H870 0.950 . S
C878 C876 1.391 1_545 S
C878 C879 1.400 . S
C879 C878 1.400 . S
C879 C880 1.398 . S
C879 C885 1.491 . S
C880 H871 0.950 . S
C880 C879 1.398 . S
C880 C881 1.390 1_546 S
C881 H869 0.950 . S
C881 C877 1.393 1_554 S
C881 C880 1.390 1_564 S
C882 H872 0.950 . S
C882 C883 1.386 . S
C882 C884 1.391 . S
C883 C882 1.386 . S
C883 C887 1.393 . S
C884 H873 0.950 . S
C884 C882 1.391 . S
C884 C885 1.400 . S
C885 C879 1.491 . S
C885 C884 1.400 . S
C885 C886 1.398 . S
C886 H874 0.950 . S
C886 C885 1.398 . S
C886 C887 1.391 . S
C887 H875 0.950 . S
C887 C883 1.393 . S
C887 C886 1.391 . S
H888 C896 0.950 . S
H889 C901 0.950 . S
H890 C898 0.950 . S
H891 C900 0.950 . S
H892 C902 0.950 . S
H893 C904 0.950 . S
H894 C906 0.950 . S
H895 C907 0.950 . S
C896 H888 0.950 . S
C896 C897 1.386 . S
C896 C898 1.391 . S
C897 C896 1.386 . S
C897 C901 1.393 . S
C898 H890 0.950 . S
C898 C896 1.391 . S
C898 C899 1.400 . S
C899 C898 1.400 . S
C899 C900 1.398 . S
C899 C905 1.491 . S
C900 H891 0.950 . S
C900 C899 1.398 . S
C900 C901 1.391 . S
C901 H889 0.950 . S
C901 C897 1.393 . S
C901 C900 1.391 . S
C902 H892 0.950 . S
C902 C903 1.386 . S
C902 C904 1.391 . S
C903 C902 1.386 . S
C903 C907 1.393 . S
C904 H893 0.950 . S
C904 C902 1.391 . S
C904 C905 1.400 . S
C905 C899 1.491 . S
C905 C904 1.400 . S
C905 C906 1.398 . S
C906 H894 0.950 . S
C906 C905 1.398 . S
C906 C907 1.391 . S
C907 H895 0.950 . S
C907 C903 1.393 . S
C907 C906 1.391 . S
H908 C916 0.950 . S
H909 C921 0.950 . S
H910 C918 0.950 . S
H911 C920 0.950 . S
H912 C922 0.950 . S
H913 C924 0.950 . S
H914 C926 0.950 . S
H915 C927 0.950 . S
C916 H908 0.950 . S
C916 C917 1.386 . S
C916 C918 1.391 . S
C917 C916 1.386 . S
C917 C921 1.393 . S
C918 H910 0.950 . S
C918 C916 1.391 . S
C918 C919 1.400 . S
C919 C918 1.400 . S
C919 C920 1.398 . S
C919 C925 1.491 . S
C920 H911 0.950 . S
C920 C919 1.398 . S
C920 C921 1.391 . S
C921 H909 0.950 . S
C921 C917 1.393 . S
C921 C920 1.391 . S
C922 H912 0.950 . S
C922 C923 1.386 1_545 S
C922 C924 1.391 . S
C923 C922 1.386 1_565 S
C923 C927 1.393 . S
C924 H913 0.950 . S
C924 C922 1.391 . S
C924 C925 1.400 . S
C925 C919 1.491 . S
C925 C924 1.400 . S
C925 C926 1.398 . S
C926 H914 0.950 . S
C926 C925 1.398 . S
C926 C927 1.391 1_545 S
C927 H915 0.950 . S
C927 C923 1.393 . S
C927 C926 1.391 1_565 S
H928 C936 0.950 . S
H929 C941 0.950 . S
H930 C938 0.950 . S
H931 C940 0.950 . S
H932 C942 0.950 . S
H933 C944 0.950 . S
H934 C946 0.950 . S
H935 C947 0.950 . S
C936 H928 0.950 . S
C936 C937 1.386 . S
C936 C938 1.391 . S
C937 C936 1.386 . S
C937 C941 1.393 . S
C938 H930 0.950 . S
C938 C936 1.391 . S
C938 C939 1.400 . S
C939 C938 1.400 . S
C939 C940 1.398 . S
C939 C945 1.491 . S
C940 H931 0.950 . S
C940 C939 1.398 . S
C940 C941 1.391 . S
C941 H929 0.950 . S
C941 C937 1.393 . S
C941 C940 1.391 . S
C942 H932 0.950 . S
C942 C943 1.386 . S
C942 C944 1.391 . S
C943 C942 1.386 . S
C943 C947 1.393 . S
C944 H933 0.950 . S
C944 C942 1.391 . S
C944 C945 1.400 . S
C945 C939 1.491 . S
C945 C944 1.400 . S
C945 C946 1.398 . S
C946 H934 0.950 . S
C946 C945 1.398 . S
C946 C947 1.391 . S
C947 H935 0.950 . S
C947 C943 1.393 . S
C947 C946 1.391 . S
H948 C956 0.950 . S
H949 C961 0.950 . S
H950 C958 0.950 . S
H951 C960 0.950 . S
H952 C962 0.950 . S
H953 C964 0.950 . S
H954 C966 0.950 . S
H955 C967 0.950 . S
C956 H948 0.950 . S
C956 C957 1.386 . S
C956 C958 1.391 1_565 S
C957 C956 1.386 . S
C957 C961 1.393 . S
C958 H950 0.950 . S
C958 C956 1.391 1_545 S
C958 C959 1.400 . S
C959 C958 1.400 . S
C959 C960 1.398 . S
C959 C965 1.491 . S
C960 H951 0.950 . S
C960 C959 1.398 . S
C960 C961 1.391 1_545 S
C961 H949 0.950 . S
C961 C957 1.393 . S
C961 C960 1.391 1_565 S
C962 H952 0.950 . S
C962 C963 1.386 . S
C962 C964 1.391 . S
C963 C962 1.386 . S
C963 C967 1.393 . S
C964 H953 0.950 . S
C964 C962 1.391 . S
C964 C965 1.400 . S
C965 C959 1.491 . S
C965 C964 1.400 . S
C965 C966 1.398 . S
C966 H954 0.950 . S
C966 C965 1.398 . S
C966 C967 1.391 . S
C967 H955 0.950 . S
C967 C963 1.393 . S
C967 C966 1.391 . S
H968 C976 0.950 . S
H969 C981 0.950 . S
H970 C978 0.950 . S
H971 C980 0.950 . S
H972 C982 0.950 . S
H973 C984 0.950 . S
H974 C986 0.950 . S
H975 C987 0.950 . S
C976 H968 0.950 . S
C976 C977 1.386 . S
C976 C978 1.391 . S
C977 C976 1.386 . S
C977 C981 1.393 . S
C978 H970 0.950 . S
C978 C976 1.391 . S
C978 C979 1.400 . S
C979 C978 1.400 . S
C979 C980 1.398 . S
C979 C985 1.491 . S
C980 H971 0.950 . S
C980 C979 1.398 . S
C980 C981 1.391 . S
C981 H969 0.950 . S
C981 C977 1.393 . S
C981 C980 1.391 . S
C982 H972 0.950 . S
C982 C983 1.386 . S
C982 C984 1.391 . S
C983 C982 1.386 . S
C983 C987 1.393 . S
C984 H973 0.950 . S
C984 C982 1.391 . S
C984 C985 1.400 . S
C985 C979 1.491 . S
C985 C984 1.400 . S
C985 C986 1.398 . S
C986 H974 0.950 . S
C986 C985 1.398 . S
C986 C987 1.391 . S
C987 H975 0.950 . S
C987 C983 1.393 . S
C987 C986 1.391 . S
H988 C996 0.950 . S
H989 C1001 0.950 . S
H990 C998 0.950 . S
H991 C1000 0.950 . S
H992 C1002 0.950 . S
H993 C1004 0.950 . S
H994 C1006 0.950 . S
H995 C1007 0.950 . S
C996 H988 0.950 . S
C996 C997 1.386 . S
C996 C998 1.391 . S
C997 C996 1.386 . S
C997 C1001 1.393 . S
C998 H990 0.950 . S
C998 C996 1.391 . S
C998 C999 1.400 . S
C999 C998 1.400 . S
C999 C1000 1.398 . S
C999 C1005 1.491 . S
C1000 H991 0.950 . S
C1000 C999 1.398 . S
C1000 C1001 1.391 . S
C1001 H989 0.950 . S
C1001 C997 1.393 . S
C1001 C1000 1.391 . S
C1002 H992 0.950 . S
C1002 C1003 1.386 . S
C1002 C1004 1.391 . S
C1003 C1002 1.386 . S
C1003 C1007 1.393 . S
C1004 H993 0.950 . S
C1004 C1002 1.391 . S
C1004 C1005 1.400 . S
C1005 C999 1.491 . S
C1005 C1004 1.400 . S
C1005 C1006 1.398 . S
C1006 H994 0.950 . S
C1006 C1005 1.398 . S
C1006 C1007 1.391 . S
C1007 H995 0.950 . S
C1007 C1003 1.393 . S
C1007 C1006 1.391 . S
H1008 C1016 0.950 . S
H1009 C1021 0.950 . S
H1010 C1018 0.950 . S
H1011 C1020 0.950 . S
H1012 C1022 0.950 1_655 S
H1013 C1024 0.950 . S
H1014 C1026 0.950 . S
H1015 C1027 0.950 . S
C1016 H1008 0.950 . S
C1016 C1017 1.386 . S
C1016 C1018 1.391 . S
C1017 C1016 1.386 . S
C1017 C1021 1.393 . S
C1018 H1010 0.950 . S
C1018 C1016 1.391 . S
C1018 C1019 1.400 . S
C1019 C1018 1.400 . S
C1019 C1020 1.398 . S
C1019 C1025 1.491 . S
C1020 H1011 0.950 . S
C1020 C1019 1.398 . S
C1020 C1021 1.391 . S
C1021 H1009 0.950 . S
C1021 C1017 1.393 . S
C1021 C1020 1.391 . S
C1022 H1012 0.950 1_455 S
C1022 C1023 1.386 . S
C1022 C1024 1.391 . S
C1023 C1022 1.386 . S
C1023 C1027 1.393 . S
C1024 H1013 0.950 . S
C1024 C1022 1.391 . S
C1024 C1025 1.400 . S
C1025 C1019 1.491 . S
C1025 C1024 1.400 . S
C1025 C1026 1.398 . S
C1026 H1014 0.950 . S
C1026 C1025 1.398 . S
C1026 C1027 1.391 . S
C1027 H1015 0.950 . S
C1027 C1023 1.393 . S
C1027 C1026 1.391 . S
H1028 C1036 0.950 . S
H1029 C1041 0.950 . S
H1030 C1038 0.950 . S
H1031 C1040 0.950 . S
H1032 C1042 0.950 . S
H1033 C1044 0.950 . S
H1034 C1046 0.950 . S
H1035 C1047 0.950 . S
C1036 H1028 0.950 . S
C1036 C1037 1.386 . S
C1036 C1038 1.391 . S
C1037 C1036 1.386 . S
C1037 C1041 1.393 . S
C1038 H1030 0.950 . S
C1038 C1036 1.391 . S
C1038 C1039 1.400 . S
C1039 C1038 1.400 . S
C1039 C1040 1.398 . S
C1039 C1045 1.491 . S
C1040 H1031 0.950 . S
C1040 C1039 1.398 . S
C1040 C1041 1.391 . S
C1041 H1029 0.950 . S
C1041 C1037 1.393 . S
C1041 C1040 1.391 . S
C1042 H1032 0.950 . S
C1042 C1043 1.386 . S
C1042 C1044 1.391 . S
C1043 C1042 1.386 . S
C1043 C1047 1.393 . S
C1044 H1033 0.950 . S
C1044 C1042 1.391 . S
C1044 C1045 1.400 . S
C1045 C1039 1.491 . S
C1045 C1044 1.400 . S
C1045 C1046 1.398 . S
C1046 H1034 0.950 . S
C1046 C1045 1.398 . S
C1046 C1047 1.391 . S
C1047 H1035 0.950 . S
C1047 C1043 1.393 . S
C1047 C1046 1.391 . S
H1048 C1056 0.950 . S
H1049 C1061 0.950 . S
H1050 C1058 0.950 . S
H1051 C1060 0.950 . S
H1052 C1062 0.950 . S
H1053 C1064 0.950 . S
H1054 C1066 0.950 . S
H1055 C1067 0.950 . S
C1056 H1048 0.950 . S
C1056 C1057 1.386 . S
C1056 C1058 1.391 1_655 S
C1057 C1056 1.386 . S
C1057 C1061 1.393 . S
C1058 H1050 0.950 . S
C1058 C1056 1.391 1_455 S
C1058 C1059 1.400 . S
C1059 C1058 1.400 . S
C1059 C1060 1.398 . S
C1059 C1065 1.491 . S
C1060 H1051 0.950 . S
C1060 C1059 1.398 . S
C1060 C1061 1.391 1_455 S
C1061 H1049 0.950 . S
C1061 C1057 1.393 . S
C1061 C1060 1.391 1_655 S
C1062 H1052 0.950 . S
C1062 C1063 1.386 . S
C1062 C1064 1.391 . S
C1063 C1062 1.386 . S
C1063 C1067 1.393 . S
C1064 H1053 0.950 . S
C1064 C1062 1.391 . S
C1064 C1065 1.400 . S
C1065 C1059 1.491 . S
C1065 C1064 1.400 . S
C1065 C1066 1.398 . S
C1066 H1054 0.950 . S
C1066 C1065 1.398 . S
C1066 C1067 1.391 . S
C1067 H1055 0.950 . S
C1067 C1063 1.393 . S
C1067 C1066 1.391 . S
H1068 C1076 0.950 . S
H1069 C1081 0.950 . S
H1070 C1078 0.950 . S
H1071 C1080 0.950 . S
H1072 C1082 0.950 . S
H1073 C1084 0.950 . S
H1074 C1086 0.950 . S
H1075 C1087 0.950 . S
C1076 H1068 0.950 . S
C1076 C1077 1.386 . S
C1076 C1078 1.391 . S
C1077 C1076 1.386 . S
C1077 C1081 1.393 . S
C1078 H1070 0.950 . S
C1078 C1076 1.391 . S
C1078 C1079 1.400 . S
C1079 C1078 1.400 . S
C1079 C1080 1.398 . S
C1079 C1085 1.491 . S
C1080 H1071 0.950 . S
C1080 C1079 1.398 . S
C1080 C1081 1.391 . S
C1081 H1069 0.950 . S
C1081 C1077 1.393 . S
C1081 C1080 1.391 . S
C1082 H1072 0.950 . S
C1082 C1083 1.386 . S
C1082 C1084 1.391 . S
C1083 C1082 1.386 . S
C1083 C1087 1.393 . S
C1084 H1073 0.950 . S
C1084 C1082 1.391 . S
C1084 C1085 1.400 . S
C1085 C1079 1.491 . S
C1085 C1084 1.400 . S
C1085 C1086 1.398 . S
C1086 H1074 0.950 . S
C1086 C1085 1.398 . S
C1086 C1087 1.391 . S
C1087 H1075 0.950 . S
C1087 C1083 1.393 . S
C1087 C1086 1.391 . S
H1088 C1096 0.950 . S
H1089 C1101 0.950 . S
H1090 C1098 0.950 . S
H1091 C1100 0.950 . S
H1092 C1102 0.950 . S
H1093 C1104 0.950 . S
H1094 C1106 0.950 . S
H1095 C1107 0.950 . S
C1096 H1088 0.950 . S
C1096 C1097 1.386 . S
C1096 C1098 1.391 . S
C1097 C1096 1.386 . S
C1097 C1101 1.393 . S
C1098 H1090 0.950 . S
C1098 C1096 1.391 . S
C1098 C1099 1.400 . S
C1099 C1098 1.400 . S
C1099 C1100 1.398 . S
C1099 C1105 1.491 . S
C1100 H1091 0.950 . S
C1100 C1099 1.398 . S
C1100 C1101 1.391 . S
C1101 H1089 0.950 . S
C1101 C1097 1.393 . S
C1101 C1100 1.391 . S
C1102 H1092 0.950 . S
C1102 C1103 1.386 . S
C1102 C1104 1.391 1_655 S
C1103 C1102 1.386 . S
C1103 C1107 1.393 . S
C1104 H1093 0.950 . S
C1104 C1102 1.391 1_455 S
C1104 C1105 1.400 . S
C1105 C1099 1.491 . S
C1105 C1104 1.400 . S
C1105 C1106 1.398 . S
C1106 H1094 0.950 . S
C1106 C1105 1.398 . S
C1106 C1107 1.391 1_455 S
C1107 H1095 0.950 . S
C1107 C1103 1.393 . S
C1107 C1106 1.391 1_655 S
H1108 C1116 0.950 . S
H1109 C1121 0.950 . S
H1110 C1118 0.950 . S
H1111 C1120 0.950 . S
H1112 C1122 0.950 . S
H1113 C1124 0.950 . S
H1114 C1126 0.950 . S
H1115 C1127 0.950 . S
C1116 H1108 0.950 . S
C1116 C1117 1.386 . S
C1116 C1118 1.391 . S
C1117 C1116 1.386 . S
C1117 C1121 1.393 . S
C1118 H1110 0.950 . S
C1118 C1116 1.391 . S
C1118 C1119 1.400 . S
C1119 C1118 1.400 . S
C1119 C1120 1.398 . S
C1119 C1125 1.491 . S
C1120 H1111 0.950 . S
C1120 C1119 1.398 . S
C1120 C1121 1.391 . S
C1121 H1109 0.950 . S
C1121 C1117 1.393 . S
C1121 C1120 1.391 . S
C1122 H1112 0.950 . S
C1122 C1123 1.386 . S
C1122 C1124 1.391 . S
C1123 C1122 1.386 . S
C1123 C1127 1.393 . S
C1124 H1113 0.950 . S
C1124 C1122 1.391 . S
C1124 C1125 1.400 . S
C1125 C1119 1.491 . S
C1125 C1124 1.400 . S
C1125 C1126 1.398 . S
C1126 H1114 0.950 . S
C1126 C1125 1.398 . S
C1126 C1127 1.391 . S
C1127 H1115 0.950 . S
C1127 C1123 1.393 . S
C1127 C1126 1.391 . S
H1128 C1136 0.950 . S
H1129 C1141 0.950 . S
H1130 C1138 0.950 . S
H1131 C1140 0.950 . S
H1132 C1142 0.950 . S
H1133 C1144 0.950 . S
H1134 C1146 0.950 . S
H1135 C1147 0.950 . S
C1136 H1128 0.950 . S
C1136 C1137 1.386 . S
C1136 C1138 1.391 . S
C1137 C1136 1.386 . S
C1137 C1141 1.393 . S
C1138 H1130 0.950 . S
C1138 C1136 1.391 . S
C1138 C1139 1.400 . S
C1139 C1138 1.400 . S
C1139 C1140 1.398 . S
C1139 C1145 1.491 . S
C1140 H1131 0.950 . S
C1140 C1139 1.398 . S
C1140 C1141 1.391 . S
C1141 H1129 0.950 . S
C1141 C1137 1.393 . S
C1141 C1140 1.391 . S
C1142 H1132 0.950 . S
C1142 C1143 1.386 . S
C1142 C1144 1.391 . S
C1143 C1142 1.386 . S
C1143 C1147 1.393 . S
C1144 H1133 0.950 . S
C1144 C1142 1.391 . S
C1144 C1145 1.400 . S
C1145 C1139 1.491 . S
C1145 C1144 1.400 . S
C1145 C1146 1.398 . S
C1146 H1134 0.950 . S
C1146 C1145 1.398 . S
C1146 C1147 1.391 . S
C1147 H1135 0.950 . S
C1147 C1143 1.393 . S
C1147 C1146 1.391 . S
H1148 C1156 0.950 . S
H1149 C1161 0.950 . S
H1150 C1158 0.950 . S
H1151 C1160 0.950 . S
H1152 C1162 0.950 1_455 S
H1153 C1164 0.950 . S
H1154 C1166 0.950 . S
H1155 C1167 0.950 . S
C1156 H1148 0.950 . S
C1156 C1157 1.386 1_655 S
C1156 C1158 1.391 . S
C1157 C1156 1.386 1_455 S
C1157 C1161 1.393 . S
C1158 H1150 0.950 . S
C1158 C1156 1.391 . S
C1158 C1159 1.400 1_655 S
C1159 C1158 1.400 1_455 S
C1159 C1160 1.398 . S
C1159 C1165 1.491 1_455 S
C1160 H1151 0.950 . S
C1160 C1159 1.398 . S
C1160 C1161 1.391 . S
C1161 H1149 0.950 . S
C1161 C1157 1.393 . S
C1161 C1160 1.391 . S
C1162 H1152 0.950 1_655 S
C1162 C1163 1.386 . S
C1162 C1164 1.391 1_655 S
C1163 C1162 1.386 . S
C1163 C1167 1.393 . S
C1164 H1153 0.950 . S
C1164 C1162 1.391 1_455 S
C1164 C1165 1.400 1_455 S
C1165 C1159 1.491 1_655 S
C1165 C1164 1.400 1_655 S
C1165 C1166 1.398 . S
C1166 H1154 0.950 . S
C1166 C1165 1.398 . S
C1166 C1167 1.391 . S
C1167 H1155 0.950 . S
C1167 C1163 1.393 . S
C1167 C1166 1.391 . S
H1168 C1176 0.950 . S
H1169 C1181 0.950 . S
H1170 C1178 0.950 . S
H1171 C1180 0.950 . S
H1172 C1182 0.950 . S
H1173 C1184 0.950 . S
H1174 C1186 0.950 . S
H1175 C1187 0.950 . S
C1176 H1168 0.950 . S
C1176 C1177 1.386 . S
C1176 C1178 1.391 . S
C1177 C1176 1.386 . S
C1177 C1181 1.393 . S
C1178 H1170 0.950 . S
C1178 C1176 1.391 . S
C1178 C1179 1.400 . S
C1179 C1178 1.400 . S
C1179 C1180 1.398 . S
C1179 C1185 1.491 . S
C1180 H1171 0.950 . S
C1180 C1179 1.398 . S
C1180 C1181 1.391 . S
C1181 H1169 0.950 . S
C1181 C1177 1.393 . S
C1181 C1180 1.391 . S
C1182 H1172 0.950 . S
C1182 C1183 1.386 . S
C1182 C1184 1.391 . S
C1183 C1182 1.386 . S
C1183 C1187 1.393 . S
C1184 H1173 0.950 . S
C1184 C1182 1.391 . S
C1184 C1185 1.400 . S
C1185 C1179 1.491 . S
C1185 C1184 1.400 . S
C1185 C1186 1.398 . S
C1186 H1174 0.950 . S
C1186 C1185 1.398 . S
C1186 C1187 1.391 . S
C1187 H1175 0.950 . S
C1187 C1183 1.393 . S
C1187 C1186 1.391 . S
H1188 C1196 0.950 . S
H1189 C1201 0.950 . S
H1190 C1198 0.950 . S
H1191 C1200 0.950 . S
H1192 C1202 0.950 . S
H1193 C1204 0.950 . S
H1194 C1206 0.950 . S
H1195 C1207 0.950 . S
C1196 H1188 0.950 . S
C1196 C1197 1.386 . S
C1196 C1198 1.391 . S
C1197 C1196 1.386 . S
C1197 C1201 1.393 . S
C1198 H1190 0.950 . S
C1198 C1196 1.391 . S
C1198 C1199 1.400 . S
C1199 C1198 1.400 . S
C1199 C1200 1.398 . S
C1199 C1205 1.491 1_556 S
C1200 H1191 0.950 . S
C1200 C1199 1.398 . S
C1200 C1201 1.391 . S
C1201 H1189 0.950 . S
C1201 C1197 1.393 . S
C1201 C1200 1.391 . S
C1202 H1192 0.950 . S
C1202 C1203 1.386 . S
C1202 C1204 1.391 . S
C1203 C1202 1.386 . S
C1203 C1207 1.393 . S
C1204 H1193 0.950 . S
C1204 C1202 1.391 . S
C1204 C1205 1.400 . S
C1205 C1199 1.491 1_554 S
C1205 C1204 1.400 . S
C1205 C1206 1.398 . S
C1206 H1194 0.950 . S
C1206 C1205 1.398 . S
C1206 C1207 1.391 . S
C1207 H1195 0.950 . S
C1207 C1203 1.393 . S
C1207 C1206 1.391 . S
H1208 C1216 0.950 . S
H1209 C1221 0.950 1_655 S
H1210 C1218 0.950 . S
H1211 C1220 0.950 . S
H1212 C1222 0.950 . S
H1213 C1224 0.950 . S
H1214 C1226 0.950 . S
H1215 C1227 0.943 1_455 S
C1216 H1208 0.950 . S
C1216 C1217 1.386 . S
C1216 C1218 1.391 . S
C1217 C1216 1.386 . S
C1217 C1221 1.393 . S
C1218 H1210 0.950 . S
C1218 C1216 1.391 . S
C1218 C1219 1.400 . S
C1219 C1218 1.400 . S
C1219 C1220 1.398 1_455 S
C1219 C1225 1.491 1_455 S
C1220 H1211 0.950 . S
C1220 C1219 1.398 1_655 S
C1220 C1221 1.391 1_655 S
C1221 H1209 0.950 1_455 S
C1221 C1217 1.393 . S
C1221 C1220 1.391 1_455 S
C1222 H1212 0.950 . S
C1222 C1223 1.386 . S
C1222 C1224 1.391 . S
C1223 C1222 1.386 . S
C1223 C1227 1.405 . S
C1224 H1213 0.950 . S
C1224 C1222 1.391 . S
C1224 C1225 1.400 . S
C1225 C1219 1.491 1_655 S
C1225 C1224 1.400 . S
C1225 C1226 1.398 1_655 S
C1226 H1214 0.950 . S
C1226 C1225 1.398 1_455 S
C1226 C1227 1.385 1_455 S
C1227 H1215 0.943 1_655 S
C1227 C1223 1.405 . S
C1227 C1226 1.385 1_655 S
H1228 C1236 0.950 . S
H1229 C1241 0.950 . S
H1230 C1238 0.950 . S
H1231 C1240 0.950 . S
H1232 C1242 0.950 . S
H1233 C1244 0.950 . S
H1234 C1246 0.950 . S
H1235 C1247 0.950 . S
C1236 H1228 0.950 . S
C1236 C1237 1.386 . S
C1236 C1238 1.391 . S
C1237 C1236 1.386 . S
C1237 C1241 1.393 . S
C1238 H1230 0.950 . S
C1238 C1236 1.391 . S
C1238 C1239 1.400 . S
C1239 C1238 1.400 . S
C1239 C1240 1.398 . S
C1239 C1245 1.491 . S
C1240 H1231 0.950 . S
C1240 C1239 1.398 . S
C1240 C1241 1.391 . S
C1241 H1229 0.950 . S
C1241 C1237 1.393 . S
C1241 C1240 1.391 . S
C1242 H1232 0.950 . S
C1242 C1243 1.386 . S
C1242 C1244 1.391 . S
C1243 C1242 1.386 . S
C1243 C1247 1.393 . S
C1244 H1233 0.950 . S
C1244 C1242 1.391 . S
C1244 C1245 1.400 . S
C1245 C1239 1.491 . S
C1245 C1244 1.400 . S
C1245 C1246 1.398 . S
C1246 H1234 0.950 . S
C1246 C1245 1.398 . S
C1246 C1247 1.391 . S
C1247 H1235 0.950 . S
C1247 C1243 1.393 . S
C1247 C1246 1.391 . S
H1248 C1256 0.950 . S
H1249 C1261 0.950 . S
H1250 C1258 0.950 . S
H1251 C1260 0.950 . S
H1252 C1262 0.950 . S
H1253 C1264 0.950 . S
H1254 C1266 0.950 . S
H1255 C1267 0.950 . S
C1256 H1248 0.950 . S
C1256 C1257 1.386 . S
C1256 C1258 1.391 . S
C1257 C1256 1.386 . S
C1257 C1261 1.393 . S
C1258 H1250 0.950 . S
C1258 C1256 1.391 . S
C1258 C1259 1.400 . S
C1259 C1258 1.400 . S
C1259 C1260 1.398 . S
C1259 C1265 1.491 . S
C1260 H1251 0.950 . S
C1260 C1259 1.398 . S
C1260 C1261 1.391 . S
C1261 H1249 0.950 . S
C1261 C1257 1.393 . S
C1261 C1260 1.391 . S
C1262 H1252 0.950 . S
C1262 C1263 1.386 . S
C1262 C1264 1.391 . S
C1263 C1262 1.386 . S
C1263 C1267 1.393 . S
C1264 H1253 0.950 . S
C1264 C1262 1.391 . S
C1264 C1265 1.400 . S
C1265 C1259 1.491 . S
C1265 C1264 1.400 . S
C1265 C1266 1.398 . S
C1266 H1254 0.950 . S
C1266 C1265 1.398 . S
C1266 C1267 1.391 . S
C1267 H1255 0.950 . S
C1267 C1263 1.393 . S
C1267 C1266 1.391 . S
H1268 C1276 0.950 . S
H1269 C1281 0.950 1_455 S
H1270 C1278 0.950 . S
H1271 C1280 0.947 . S
H1272 C1282 0.950 . S
H1273 C1284 0.950 1_554 S
H1274 C1286 0.950 . S
H1275 C1287 0.950 . S
C1276 H1268 0.950 . S
C1276 C1277 1.386 . S
C1276 C1278 1.391 . S
C1277 C1276 1.386 . S
C1277 C1281 1.393 . S
C1278 H1270 0.950 . S
C1278 C1276 1.391 . S
C1278 C1279 1.400 . S
C1279 C1278 1.400 . S
C1279 C1280 1.398 . S
C1279 C1285 1.491 . S
C1280 H1271 0.947 . S
C1280 C1279 1.398 . S
C1280 C1281 1.391 . S
C1281 H1269 0.950 1_655 S
C1281 C1277 1.393 . S
C1281 C1280 1.391 . S
C1282 H1272 0.950 . S
C1282 C1283 1.386 . S
C1282 C1284 1.391 . S
C1283 C1282 1.386 . S
C1283 C1287 1.393 . S
C1284 H1273 0.950 1_556 S
C1284 C1282 1.391 . S
C1284 C1285 1.400 1_556 S
C1285 C1279 1.491 . S
C1285 C1284 1.400 1_554 S
C1285 C1286 1.398 1_554 S
C1286 H1274 0.950 . S
C1286 C1285 1.398 1_556 S
C1286 C1287 1.391 . S
C1287 H1275 0.950 . S
C1287 C1283 1.393 . S
C1287 C1286 1.391 . S
H1288 C1296 0.950 . S
H1289 C1301 0.950 . S
H1290 C1298 0.950 . S
H1291 C1300 0.950 . S
H1292 C1302 0.950 . S
H1293 C1304 0.965 . S
H1294 C1306 0.950 . S
H1295 C1307 0.950 . S
C1296 H1288 0.950 . S
C1296 C1297 1.386 . S
C1296 C1298 1.391 1_545 S
C1297 C1296 1.386 . S
C1297 C1301 1.393 . S
C1298 H1290 0.950 . S
C1298 C1296 1.391 1_565 S
C1298 C1299 1.400 1_565 S
C1299 C1298 1.400 1_545 S
C1299 C1300 1.401 . S
C1299 C1305 1.488 1_545 S
C1300 H1291 0.950 . S
C1300 C1299 1.401 . S
C1300 C1301 1.391 . S
C1301 H1289 0.950 . S
C1301 C1297 1.393 . S
C1301 C1300 1.391 . S
C1302 H1292 0.950 . S
C1302 C1303 1.386 . S
C1302 C1304 1.391 . S
C1303 C1302 1.386 . S
C1303 C1307 1.393 . S
C1304 H1293 0.965 . S
C1304 C1302 1.391 . S
C1304 C1305 1.400 . S
C1305 C1299 1.488 1_565 S
C1305 C1304 1.400 . S
C1305 C1306 1.398 . S
C1306 H1294 0.950 . S
C1306 C1305 1.398 . S
C1306 C1307 1.391 . S
C1307 H1295 0.950 . S
C1307 C1303 1.393 . S
C1307 C1306 1.391 . S
H1308 C1316 0.950 1_565 S
H1309 C1321 0.940 1_565 S
H1310 C1318 0.950 . S
H1311 C1320 0.950 . S
H1312 C1322 0.950 . S
H1313 C1324 0.950 . S
H1314 C1326 0.950 . S
H1315 C1327 0.950 . S
C1316 H1308 0.950 1_545 S
C1316 C1317 1.386 1_545 S
C1316 C1318 1.391 . S
C1317 C1316 1.386 1_565 S
C1317 C1321 1.386 1_565 S
C1318 H1310 0.950 . S
C1318 C1316 1.391 . S
C1318 C1319 1.400 . S
C1319 C1318 1.400 . S
C1319 C1320 1.398 . S
C1319 C1325 1.491 . S
C1320 H1311 0.950 . S
C1320 C1319 1.398 . S
C1320 C1321 1.408 . S
C1321 H1309 0.940 1_545 S
C1321 C1317 1.386 1_545 S
C1321 C1320 1.408 . S
C1322 H1312 0.950 . S
C1322 C1323 1.386 . S
C1322 C1324 1.391 . S
C1323 C1322 1.386 . S
C1323 C1327 1.393 . S
C1324 H1313 0.950 . S
C1324 C1322 1.391 . S
C1324 C1325 1.400 . S
C1325 C1319 1.491 . S
C1325 C1324 1.400 . S
C1325 C1326 1.398 . S
C1326 H1314 0.950 . S
C1326 C1325 1.398 . S
C1326 C1327 1.391 . S
C1327 H1315 0.950 . S
C1327 C1323 1.393 . S
C1327 C1326 1.391 . S
H1328 C1336 0.950 . S
H1329 C1341 0.950 . S
H1330 C1338 0.950 . S
H1331 C1340 0.950 . S
H1332 C1342 0.950 . S
H1333 C1344 0.950 . S
H1334 C1346 0.950 . S
H1335 C1347 0.950 . S
C1336 H1328 0.950 . S
C1336 C1337 1.386 . S
C1336 C1338 1.391 . S
C1337 C1336 1.386 . S
C1337 C1341 1.393 . S
C1338 H1330 0.950 . S
C1338 C1336 1.391 . S
C1338 C1339 1.400 . S
C1339 C1338 1.400 . S
C1339 C1340 1.398 . S
C1339 C1345 1.491 . S
C1340 H1331 0.950 . S
C1340 C1339 1.398 . S
C1340 C1341 1.391 . S
C1341 H1329 0.950 . S
C1341 C1337 1.393 . S
C1341 C1340 1.391 . S
C1342 H1332 0.950 . S
C1342 C1343 1.386 . S
C1342 C1344 1.391 . S
C1343 C1342 1.386 . S
C1343 C1347 1.393 . S
C1344 H1333 0.950 . S
C1344 C1342 1.391 . S
C1344 C1345 1.400 . S
C1345 C1339 1.491 . S
C1345 C1344 1.400 . S
C1345 C1346 1.398 . S
C1346 H1334 0.950 . S
C1346 C1345 1.398 . S
C1346 C1347 1.391 . S
C1347 H1335 0.950 . S
C1347 C1343 1.393 . S
C1347 C1346 1.391 . S
H1348 C1356 0.950 . S
H1349 C1361 0.950 . S
H1350 C1358 0.950 . S
H1351 C1360 0.950 . S
H1352 C1362 0.950 . S
H1353 C1364 0.950 . S
H1354 C1366 0.950 . S
H1355 C1367 0.950 . S
C1356 H1348 0.950 . S
C1356 C1357 1.386 . S
C1356 C1358 1.391 . S
C1357 C1356 1.386 . S
C1357 C1361 1.393 . S
C1358 H1350 0.950 . S
C1358 C1356 1.391 . S
C1358 C1359 1.400 . S
C1359 C1358 1.400 . S
C1359 C1360 1.398 . S
C1359 C1365 1.491 . S
C1360 H1351 0.950 . S
C1360 C1359 1.398 . S
C1360 C1361 1.391 . S
C1361 H1349 0.950 . S
C1361 C1357 1.393 . S
C1361 C1360 1.391 . S
C1362 H1352 0.950 . S
C1362 C1363 1.386 . S
C1362 C1364 1.391 1_565 S
C1363 C1362 1.386 . S
C1363 C1367 1.393 . S
C1364 H1353 0.950 . S
C1364 C1362 1.391 1_545 S
C1364 C1365 1.400 . S
C1365 C1359 1.491 . S
C1365 C1364 1.400 . S
C1365 C1366 1.398 . S
C1366 H1354 0.950 . S
C1366 C1365 1.398 . S
C1366 C1367 1.391 1_545 S
C1367 H1355 0.950 . S
C1367 C1363 1.393 . S
C1367 C1366 1.391 1_565 S
H1368 C1376 0.950 . S
H1369 C1381 0.950 . S
H1370 C1378 0.950 . S
H1371 C1380 0.950 . S
H1372 C1382 0.950 . S
H1373 C1384 0.950 . S
H1374 C1386 0.950 . S
H1375 C1387 0.950 . S
C1376 H1368 0.950 . S
C1376 C1377 1.386 . S
C1376 C1378 1.391 . S
C1377 C1376 1.386 . S
C1377 C1381 1.393 . S
C1378 H1370 0.950 . S
C1378 C1376 1.391 . S
C1378 C1379 1.400 . S
C1379 C1378 1.400 . S
C1379 C1380 1.398 . S
C1379 C1385 1.491 . S
C1380 H1371 0.950 . S
C1380 C1379 1.398 . S
C1380 C1381 1.391 . S
C1381 H1369 0.950 . S
C1381 C1377 1.393 . S
C1381 C1380 1.391 . S
C1382 H1372 0.950 . S
C1382 C1383 1.386 . S
C1382 C1384 1.391 . S
C1383 C1382 1.386 . S
C1383 C1387 1.393 . S
C1384 H1373 0.950 . S
C1384 C1382 1.391 . S
C1384 C1385 1.400 . S
C1385 C1379 1.491 . S
C1385 C1384 1.400 . S
C1385 C1386 1.398 . S
C1386 H1374 0.950 . S
C1386 C1385 1.398 . S
C1386 C1387 1.391 . S
C1387 H1375 0.950 . S
C1387 C1383 1.393 . S
C1387 C1386 1.391 . S
H1388 C1396 0.950 . S
H1389 C1401 0.950 . S
H1390 C1398 0.950 . S
H1391 C1400 0.950 . S
H1392 C1402 0.950 . S
H1393 C1404 0.950 . S
H1394 C1406 0.950 . S
H1395 C1407 0.950 . S
C1396 H1388 0.950 . S
C1396 C1397 1.386 . S
C1396 C1398 1.391 1_565 S
C1397 C1396 1.386 . S
C1397 C1401 1.393 . S
C1398 H1390 0.950 . S
C1398 C1396 1.391 1_545 S
C1398 C1399 1.400 . S
C1399 C1398 1.400 . S
C1399 C1400 1.398 . S
C1399 C1405 1.491 . S
C1400 H1391 0.950 . S
C1400 C1399 1.398 . S
C1400 C1401 1.391 1_545 S
C1401 H1389 0.950 . S
C1401 C1397 1.393 . S
C1401 C1400 1.391 1_565 S
C1402 H1392 0.950 . S
C1402 C1403 1.386 . S
C1402 C1404 1.391 . S
C1403 C1402 1.386 . S
C1403 C1407 1.393 . S
C1404 H1393 0.950 . S
C1404 C1402 1.391 . S
C1404 C1405 1.400 . S
C1405 C1399 1.491 . S
C1405 C1404 1.400 . S
C1405 C1406 1.398 . S
C1406 H1394 0.950 . S
C1406 C1405 1.398 . S
C1406 C1407 1.391 . S
C1407 H1395 0.950 . S
C1407 C1403 1.393 . S
C1407 C1406 1.391 . S
H1408 C1416 0.946 . S
H1409 C1421 0.950 . S
H1410 C1418 0.950 1_545 S
H1411 C1420 0.950 . S
H1412 C1422 0.950 . S
H1413 C1424 0.950 . S
H1414 C1426 0.965 . S
H1415 C1427 0.950 . S
C1416 H1408 0.946 . S
C1416 C1417 1.389 1_545 S
C1416 C1418 1.392 1_545 S
C1417 C1416 1.389 1_565 S
C1417 C1421 1.393 . S
C1418 H1410 0.950 1_565 S
C1418 C1416 1.392 1_565 S
C1418 C1419 1.400 . S
C1419 C1418 1.400 . S
C1419 C1420 1.398 . S
C1419 C1425 1.491 . S
C1420 H1411 0.950 . S
C1420 C1419 1.398 . S
C1420 C1421 1.391 . S
C1421 H1409 0.950 . S
C1421 C1417 1.393 . S
C1421 C1420 1.391 . S
C1422 H1412 0.950 . S
C1422 C1423 1.386 . S
C1422 C1424 1.391 . S
C1423 C1422 1.386 . S
C1423 C1427 1.393 . S
C1424 H1413 0.950 . S
C1424 C1422 1.391 . S
C1424 C1425 1.400 . S
C1425 C1419 1.491 . S
C1425 C1424 1.400 . S
C1425 C1426 1.398 . S
C1426 H1414 0.965 . S
C1426 C1425 1.398 . S
C1426 C1427 1.391 . S
C1427 H1415 0.950 . S
C1427 C1423 1.393 . S
C1427 C1426 1.391 . S
H1428 C1436 0.950 . S
H1429 C1441 0.950 . S
H1430 C1438 0.950 . S
H1431 C1440 0.950 . S
H1432 C1442 0.950 . S
H1433 C1444 0.950 . S
H1434 C1446 0.950 . S
H1435 C1447 0.950 . S
C1436 H1428 0.950 . S
C1436 C1437 1.386 . S
C1436 C1438 1.391 . S
C1437 C1436 1.386 . S
C1437 C1441 1.393 . S
C1438 H1430 0.950 . S
C1438 C1436 1.391 . S
C1438 C1439 1.400 . S
C1439 C1438 1.400 . S
C1439 C1440 1.398 . S
C1439 C1445 1.491 . S
C1440 H1431 0.950 . S
C1440 C1439 1.398 . S
C1440 C1441 1.391 . S
C1441 H1429 0.950 . S
C1441 C1437 1.393 . S
C1441 C1440 1.391 . S
C1442 H1432 0.950 . S
C1442 C1443 1.386 1_545 S
C1442 C1444 1.391 . S
C1443 C1442 1.386 1_565 S
C1443 C1447 1.393 . S
C1444 H1433 0.950 . S
C1444 C1442 1.391 . S
C1444 C1445 1.400 . S
C1445 C1439 1.491 . S
C1445 C1444 1.400 . S
C1445 C1446 1.398 . S
C1446 H1434 0.950 . S
C1446 C1445 1.398 . S
C1446 C1447 1.391 1_545 S
C1447 H1435 0.950 . S
C1447 C1443 1.393 . S
C1447 C1446 1.391 1_565 S
H1448 C1456 0.950 1_554 S
H1449 C1461 0.950 . S
H1450 C1458 0.950 . S
H1451 C1460 0.950 . S
H1452 C1462 0.950 . S
H1453 C1464 0.950 . S
H1454 C1466 0.950 . S
H1455 C1467 0.950 . S
C1456 H1448 0.950 1_556 S
C1456 C1457 1.386 . S
C1456 C1458 1.391 . S
C1457 C1456 1.386 . S
C1457 C1461 1.393 . S
C1458 H1450 0.950 . S
C1458 C1456 1.391 . S
C1458 C1459 1.400 . S
C1459 C1458 1.400 . S
C1459 C1460 1.398 . S
C1459 C1465 1.491 . S
C1460 H1451 0.950 . S
C1460 C1459 1.398 . S
C1460 C1461 1.391 . S
C1461 H1449 0.950 . S
C1461 C1457 1.393 . S
C1461 C1460 1.391 . S
C1462 H1452 0.950 . S
C1462 C1463 1.386 . S
C1462 C1464 1.391 . S
C1463 C1462 1.386 . S
C1463 C1467 1.393 . S
C1464 H1453 0.950 . S
C1464 C1462 1.391 . S
C1464 C1465 1.400 . S
C1465 C1459 1.491 . S
C1465 C1464 1.400 . S
C1465 C1466 1.398 . S
C1466 H1454 0.950 . S
C1466 C1465 1.398 . S
C1466 C1467 1.391 . S
C1467 H1455 0.950 . S
C1467 C1463 1.393 . S
C1467 C1466 1.391 . S
H1468 C1476 0.950 . S
H1469 C1481 0.950 . S
H1470 C1478 0.950 . S
H1471 C1480 0.950 . S
H1472 C1482 0.950 . S
H1473 C1484 0.950 . S
H1474 C1486 0.950 . S
H1475 C1487 0.950 . S
C1476 H1468 0.950 . S
C1476 C1477 1.386 . S
C1476 C1478 1.391 . S
C1477 C1476 1.386 . S
C1477 C1481 1.393 . S
C1478 H1470 0.950 . S
C1478 C1476 1.391 . S
C1478 C1479 1.400 . S
C1479 C1478 1.400 . S
C1479 C1480 1.398 . S
C1479 C1485 1.491 . S
C1480 H1471 0.950 . S
C1480 C1479 1.398 . S
C1480 C1481 1.391 . S
C1481 H1469 0.950 . S
C1481 C1477 1.393 . S
C1481 C1480 1.391 . S
C1482 H1472 0.950 . S
C1482 C1483 1.386 . S
C1482 C1484 1.391 . S
C1483 C1482 1.386 . S
C1483 C1487 1.393 . S
C1484 H1473 0.950 . S
C1484 C1482 1.391 . S
C1484 C1485 1.400 . S
C1485 C1479 1.491 . S
C1485 C1484 1.400 . S
C1485 C1486 1.398 . S
C1486 H1474 0.950 . S
C1486 C1485 1.398 . S
C1486 C1487 1.391 . S
C1487 H1475 0.950 . S
C1487 C1483 1.393 . S
C1487 C1486 1.391 . S
H1488 C1496 0.950 . S
H1489 C1501 0.950 . S
H1490 C1498 0.950 . S
H1491 C1500 0.950 . S
H1492 C1502 0.950 . S
H1493 C1504 0.950 . S
H1494 C1506 0.950 . S
H1495 C1507 0.950 . S
C1496 H1488 0.950 . S
C1496 C1497 1.386 . S
C1496 C1498 1.391 1_655 S
C1497 C1496 1.386 . S
C1497 C1501 1.393 . S
C1498 H1490 0.950 . S
C1498 C1496 1.391 1_455 S
C1498 C1499 1.400 . S
C1499 C1498 1.400 . S
C1499 C1500 1.398 1_455 S
C1499 C1505 1.491 . S
C1500 H1491 0.950 . S
C1500 C1499 1.398 1_655 S
C1500 C1501 1.391 . S
C1501 H1489 0.950 . S
C1501 C1497 1.393 . S
C1501 C1500 1.391 . S
C1502 H1492 0.950 . S
C1502 C1503 1.386 . S
C1502 C1504 1.391 . S
C1503 C1502 1.386 . S
C1503 C1507 1.393 . S
C1504 H1493 0.950 . S
C1504 C1502 1.391 . S
C1504 C1505 1.400 . S
C1505 C1499 1.491 . S
C1505 C1504 1.400 . S
C1505 C1506 1.398 . S
C1506 H1494 0.950 . S
C1506 C1505 1.398 . S
C1506 C1507 1.391 . S
C1507 H1495 0.950 . S
C1507 C1503 1.393 . S
C1507 C1506 1.391 . S
H1508 C1516 0.950 . S
H1509 C1521 0.950 . S
H1510 C1518 0.950 . S
H1511 C1520 0.950 . S
H1512 C1522 0.950 . S
H1513 C1524 0.950 . S
H1514 C1526 0.950 . S
H1515 C1527 0.950 . S
C1516 H1508 0.950 . S
C1516 C1517 1.386 . S
C1516 C1518 1.391 . S
C1517 C1516 1.386 . S
C1517 C1521 1.393 . S
C1518 H1510 0.950 . S
C1518 C1516 1.391 . S
C1518 C1519 1.400 . S
C1519 C1518 1.400 . S
C1519 C1520 1.398 . S
C1519 C1525 1.491 . S
C1520 H1511 0.950 . S
C1520 C1519 1.398 . S
C1520 C1521 1.391 . S
C1521 H1509 0.950 . S
C1521 C1517 1.393 . S
C1521 C1520 1.391 . S
C1522 H1512 0.950 . S
C1522 C1523 1.386 . S
C1522 C1524 1.391 . S
C1523 C1522 1.386 . S
C1523 C1527 1.393 . S
C1524 H1513 0.950 . S
C1524 C1522 1.391 . S
C1524 C1525 1.400 . S
C1525 C1519 1.491 . S
C1525 C1524 1.400 . S
C1525 C1526 1.398 . S
C1526 H1514 0.950 . S
C1526 C1525 1.398 . S
C1526 C1527 1.391 . S
C1527 H1515 0.950 . S
C1527 C1523 1.393 . S
C1527 C1526 1.391 . S
H1528 C1536 0.950 . S
H1529 C1541 0.950 . S
H1530 C1538 0.950 . S
H1531 C1540 0.950 1_565 S
H1532 C1542 0.950 . S
H1533 C1544 0.950 . S
H1534 C1546 0.950 . S
H1535 C1547 0.949 1_655 S
C1536 H1528 0.950 . S
C1536 C1537 1.386 . S
C1536 C1538 1.391 . S
C1537 C1536 1.386 . S
C1537 C1541 1.393 . S
C1538 H1530 0.950 . S
C1538 C1536 1.391 . S
C1538 C1539 1.400 . S
C1539 C1538 1.400 . S
C1539 C1540 1.398 . S
C1539 C1545 1.491 . S
C1540 H1531 0.950 1_545 S
C1540 C1539 1.398 . S
C1540 C1541 1.391 . S
C1541 H1529 0.950 . S
C1541 C1537 1.393 . S
C1541 C1540 1.391 . S
C1542 H1532 0.950 . S
C1542 C1543 1.386 . S
C1542 C1544 1.391 1_655 S
C1543 C1542 1.386 . S
C1543 C1547 1.393 1_665 S
C1544 H1533 0.950 . S
C1544 C1542 1.391 1_455 S
C1544 C1545 1.400 1_565 S
C1545 C1539 1.491 . S
C1545 C1544 1.400 1_545 S
C1545 C1546 1.398 . S
C1546 H1534 0.950 . S
C1546 C1545 1.398 . S
C1546 C1547 1.391 . S
C1547 H1535 0.949 1_455 S
C1547 C1543 1.393 1_445 S
C1547 C1546 1.391 . S
H1548 C1556 0.950 . S
H1549 C1561 0.950 . S
H1550 C1558 0.950 . S
H1551 C1560 0.950 . S
H1552 C1562 0.950 . S
H1553 C1564 0.950 . S
H1554 C1566 0.950 . S
H1555 C1567 0.950 . S
C1556 H1548 0.950 . S
C1556 C1557 1.386 . S
C1556 C1558 1.391 . S
C1557 C1556 1.386 . S
C1557 C1561 1.393 . S
C1558 H1550 0.950 . S
C1558 C1556 1.391 . S
C1558 C1559 1.400 . S
C1559 C1558 1.400 . S
C1559 C1560 1.398 . S
C1559 C1565 1.491 . S
C1560 H1551 0.950 . S
C1560 C1559 1.398 . S
C1560 C1561 1.391 . S
C1561 H1549 0.950 . S
C1561 C1557 1.393 . S
C1561 C1560 1.391 . S
C1562 H1552 0.950 . S
C1562 C1563 1.386 . S
C1562 C1564 1.391 . S
C1563 C1562 1.386 . S
C1563 C1567 1.393 . S
C1564 H1553 0.950 . S
C1564 C1562 1.391 . S
C1564 C1565 1.400 . S
C1565 C1559 1.491 . S
C1565 C1564 1.400 . S
C1565 C1566 1.398 . S
C1566 H1554 0.950 . S
C1566 C1565 1.398 . S
C1566 C1567 1.391 . S
C1567 H1555 0.950 . S
C1567 C1563 1.393 . S
C1567 C1566 1.391 . S
H1568 C1576 0.950 . S
H1569 C1581 0.950 . S
H1570 C1578 0.950 . S
H1571 C1580 0.950 . S
H1572 C1582 0.950 . S
H1573 C1584 0.950 . S
H1574 C1586 0.950 . S
H1575 C1587 0.950 . S
C1576 H1568 0.950 . S
C1576 C1577 1.386 . S
C1576 C1578 1.391 1_655 S
C1577 C1576 1.386 . S
C1577 C1581 1.393 . S
C1578 H1570 0.950 . S
C1578 C1576 1.391 1_455 S
C1578 C1579 1.400 . S
C1579 C1578 1.400 . S
C1579 C1580 1.398 . S
C1579 C1585 1.491 . S
C1580 H1571 0.950 . S
C1580 C1579 1.398 . S
C1580 C1581 1.391 1_455 S
C1581 H1569 0.950 . S
C1581 C1577 1.393 . S
C1581 C1580 1.391 1_655 S
C1582 H1572 0.950 . S
C1582 C1583 1.386 . S
C1582 C1584 1.391 . S
C1583 C1582 1.386 . S
C1583 C1587 1.393 . S
C1584 H1573 0.950 . S
C1584 C1582 1.391 . S
C1584 C1585 1.400 . S
C1585 C1579 1.491 . S
C1585 C1584 1.400 . S
C1585 C1586 1.398 . S
C1586 H1574 0.950 . S
C1586 C1585 1.398 . S
C1586 C1587 1.391 . S
C1587 H1575 0.950 . S
C1587 C1583 1.393 . S
C1587 C1586 1.391 . S
H1588 C1596 0.950 . S
H1589 C1601 0.950 . S
H1590 C1598 0.950 . S
H1591 C1600 0.950 . S
H1592 C1602 0.950 . S
H1593 C1604 0.950 . S
H1594 C1606 0.950 . S
H1595 C1607 0.950 . S
C1596 H1588 0.950 . S
C1596 C1597 1.386 . S
C1596 C1598 1.391 . S
C1597 C1596 1.386 . S
C1597 C1601 1.393 . S
C1598 H1590 0.950 . S
C1598 C1596 1.391 . S
C1598 C1599 1.400 . S
C1599 C1598 1.400 . S
C1599 C1600 1.398 . S
C1599 C1605 1.491 . S
C1600 H1591 0.950 . S
C1600 C1599 1.398 . S
C1600 C1601 1.391 . S
C1601 H1589 0.950 . S
C1601 C1597 1.393 . S
C1601 C1600 1.391 . S
C1602 H1592 0.950 . S
C1602 C1603 1.386 . S
C1602 C1604 1.391 . S
C1603 C1602 1.386 . S
C1603 C1607 1.393 . S
C1604 H1593 0.950 . S
C1604 C1602 1.391 . S
C1604 C1605 1.400 . S
C1605 C1599 1.491 . S
C1605 C1604 1.400 . S
C1605 C1606 1.398 . S
C1606 H1594 0.950 . S
C1606 C1605 1.398 . S
C1606 C1607 1.391 . S
C1607 H1595 0.950 . S
C1607 C1603 1.393 . S
C1607 C1606 1.391 . S
H1608 C1616 0.950 . S
H1609 C1621 0.950 . S
H1610 C1618 0.950 . S
H1611 C1620 0.950 . S
H1612 C1622 0.950 . S
H1613 C1624 0.950 . S
H1614 C1626 0.950 . S
H1615 C1627 0.950 . S
C1616 H1608 0.950 . S
C1616 C1617 1.386 . S
C1616 C1618 1.391 . S
C1617 C1616 1.386 . S
C1617 C1621 1.393 . S
C1618 H1610 0.950 . S
C1618 C1616 1.391 . S
C1618 C1619 1.400 . S
C1619 C1618 1.400 . S
C1619 C1620 1.398 . S
C1619 C1625 1.491 . S
C1620 H1611 0.950 . S
C1620 C1619 1.398 . S
C1620 C1621 1.391 . S
C1621 H1609 0.950 . S
C1621 C1617 1.393 . S
C1621 C1620 1.391 . S
C1622 H1612 0.950 . S
C1622 C1623 1.386 . S
C1622 C1624 1.391 . S
C1623 C1622 1.386 . S
C1623 C1627 1.393 . S
C1624 H1613 0.950 . S
C1624 C1622 1.391 . S
C1624 C1625 1.400 . S
C1625 C1619 1.491 . S
C1625 C1624 1.400 . S
C1625 C1626 1.398 . S
C1626 H1614 0.950 . S
C1626 C1625 1.398 . S
C1626 C1627 1.391 . S
C1627 H1615 0.950 . S
C1627 C1623 1.393 . S
C1627 C1626 1.391 . S
H1628 C1636 0.950 . S
H1629 C1641 0.950 . S
H1630 C1638 0.950 . S
H1631 C1640 0.950 . S
H1632 C1642 0.950 . S
H1633 C1644 0.950 . S
H1634 C1646 0.950 . S
H1635 C1647 0.950 . S
C1636 H1628 0.950 . S
C1636 C1637 1.386 . S
C1636 C1638 1.391 . S
C1637 C1636 1.386 . S
C1637 C1641 1.393 . S
C1638 H1630 0.950 . S
C1638 C1636 1.391 . S
C1638 C1639 1.400 . S
C1639 C1638 1.400 . S
C1639 C1640 1.398 . S
C1639 C1645 1.491 . S
C1640 H1631 0.950 . S
C1640 C1639 1.398 . S
C1640 C1641 1.391 . S
C1641 H1629 0.950 . S
C1641 C1637 1.393 . S
C1641 C1640 1.391 . S
C1642 H1632 0.950 . S
C1642 C1643 1.386 . S
C1642 C1644 1.391 1_556 S
C1643 C1642 1.386 . S
C1643 C1647 1.393 . S
C1644 H1633 0.950 . S
C1644 C1642 1.391 1_554 S
C1644 C1645 1.400 . S
C1645 C1639 1.491 . S
C1645 C1644 1.400 . S
C1645 C1646 1.398 . S
C1646 H1634 0.950 . S
C1646 C1645 1.398 . S
C1646 C1647 1.391 1_554 S
C1647 H1635 0.950 . S
C1647 C1643 1.393 . S
C1647 C1646 1.391 1_556 S
H1648 C1656 0.950 . S
H1649 C1661 0.950 . S
H1650 C1658 0.950 . S
H1651 C1660 0.950 1_655 S
H1652 C1662 0.950 . S
H1653 C1664 0.950 . S
H1654 C1666 0.950 . S
H1655 C1667 0.950 . S
C1656 H1648 0.950 . S
C1656 C1657 1.386 . S
C1656 C1658 1.391 . S
C1657 C1656 1.386 . S
C1657 C1661 1.393 . S
C1658 H1650 0.950 . S
C1658 C1656 1.391 . S
C1658 C1659 1.400 . S
C1659 C1658 1.400 . S
C1659 C1660 1.398 . S
C1659 C1665 1.491 1_455 S
C1660 H1651 0.950 1_455 S
C1660 C1659 1.398 . S
C1660 C1661 1.391 . S
C1661 H1649 0.950 . S
C1661 C1657 1.393 . S
C1661 C1660 1.391 . S
C1662 H1652 0.950 . S
C1662 C1663 1.386 . S
C1662 C1664 1.391 . S
C1663 C1662 1.386 . S
C1663 C1667 1.393 . S
C1664 H1653 0.950 . S
C1664 C1662 1.391 . S
C1664 C1665 1.400 . S
C1665 C1659 1.491 1_655 S
C1665 C1664 1.400 . S
C1665 C1666 1.398 . S
C1666 H1654 0.950 . S
C1666 C1665 1.398 . S
C1666 C1667 1.391 . S
C1667 H1655 0.950 . S
C1667 C1663 1.393 . S
C1667 C1666 1.391 . S
H1668 C1676 0.950 . S
H1669 C1681 0.950 1_455 S
H1670 C1678 0.950 . S
H1671 C1680 0.950 . S
H1672 C1682 0.950 . S
H1673 C1684 0.950 . S
H1674 C1686 0.950 . S
H1675 C1687 0.950 . S
C1676 H1668 0.950 . S
C1676 C1677 1.386 . S
C1676 C1678 1.391 . S
C1677 C1676 1.386 . S
C1677 C1681 1.393 . S
C1678 H1670 0.950 . S
C1678 C1676 1.391 . S
C1678 C1679 1.400 . S
C1679 C1678 1.400 . S
C1679 C1680 1.398 . S
C1679 C1685 1.491 . S
C1680 H1671 0.950 . S
C1680 C1679 1.398 . S
C1680 C1681 1.391 . S
C1681 H1669 0.950 1_655 S
C1681 C1677 1.393 . S
C1681 C1680 1.391 . S
C1682 H1672 0.950 . S
C1682 C1683 1.386 . S
C1682 C1684 1.391 . S
C1683 C1682 1.386 . S
C1683 C1687 1.393 . S
C1684 H1673 0.950 . S
C1684 C1682 1.391 . S
C1684 C1685 1.400 . S
C1685 C1679 1.491 . S
C1685 C1684 1.400 . S
C1685 C1686 1.398 . S
C1686 H1674 0.950 . S
C1686 C1685 1.398 . S
C1686 C1687 1.391 . S
C1687 H1675 0.950 . S
C1687 C1683 1.393 . S
C1687 C1686 1.391 . S
H1688 C1696 0.950 . S
H1689 C1701 0.950 . S
H1690 C1698 0.950 . S
H1691 C1700 0.950 . S
H1692 C1702 0.950 . S
H1693 C1704 0.950 . S
H1694 C1706 0.950 . S
H1695 C1707 0.950 . S
C1696 H1688 0.950 . S
C1696 C1697 1.386 . S
C1696 C1698 1.391 . S
C1697 C1696 1.386 . S
C1697 C1701 1.393 . S
C1698 H1690 0.950 . S
C1698 C1696 1.391 . S
C1698 C1699 1.400 . S
C1699 C1698 1.400 . S
C1699 C1700 1.398 . S
C1699 C1705 1.491 . S
C1700 H1691 0.950 . S
C1700 C1699 1.398 . S
C1700 C1701 1.391 . S
C1701 H1689 0.950 . S
C1701 C1697 1.393 . S
C1701 C1700 1.391 . S
C1702 H1692 0.950 . S
C1702 C1703 1.386 . S
C1702 C1704 1.391 . S
C1703 C1702 1.386 . S
C1703 C1707 1.393 . S
C1704 H1693 0.950 . S
C1704 C1702 1.391 . S
C1704 C1705 1.400 . S
C1705 C1699 1.491 . S
C1705 C1704 1.400 . S
C1705 C1706 1.398 . S
C1706 H1694 0.950 . S
C1706 C1705 1.398 . S
C1706 C1707 1.391 . S
C1707 H1695 0.950 . S
C1707 C1703 1.393 . S
C1707 C1706 1.391 . S
H1708 C1716 0.950 . S
H1709 C1721 0.950 . S
H1710 C1718 0.948 1_554 S
H1711 C1720 0.950 1_554 S
H1712 C1722 0.950 . S
H1713 C1724 0.950 . S
H1714 C1726 0.950 . S
H1715 C1727 0.950 . S
C1716 H1708 0.950 . S
C1716 C1717 1.386 . S
C1716 C1718 1.391 . S
C1717 C1716 1.386 . S
C1717 C1721 1.393 . S
C1718 H1710 0.948 1_556 S
C1718 C1716 1.391 . S
C1718 C1719 1.400 1_556 S
C1719 C1718 1.400 1_554 S
C1719 C1720 1.398 1_554 S
C1719 C1725 1.491 . S
C1720 H1711 0.950 1_556 S
C1720 C1719 1.398 1_556 S
C1720 C1721 1.391 . S
C1721 H1709 0.950 . S
C1721 C1717 1.393 . S
C1721 C1720 1.391 . S
C1722 H1712 0.950 . S
C1722 C1723 1.386 1_455 S
C1722 C1724 1.391 . S
C1723 C1722 1.386 1_655 S
C1723 C1727 1.393 . S
C1724 H1713 0.950 . S
C1724 C1722 1.391 . S
C1724 C1725 1.400 . S
C1725 C1719 1.491 . S
C1725 C1724 1.400 . S
C1725 C1726 1.398 1_455 S
C1726 H1714 0.950 . S
C1726 C1725 1.398 1_655 S
C1726 C1727 1.391 . S
C1727 H1715 0.950 . S
C1727 C1723 1.393 . S
C1727 C1726 1.391 . S
H1728 C1736 0.950 . S
H1729 C1741 0.950 . S
H1730 C1738 0.950 . S
H1731 C1740 0.950 . S
H1732 C1742 0.950 . S
H1733 C1744 0.950 . S
H1734 C1746 0.950 . S
H1735 C1747 0.950 . S
C1736 H1728 0.950 . S
C1736 C1737 1.386 . S
C1736 C1738 1.391 . S
C1737 C1736 1.386 . S
C1737 C1741 1.393 . S
C1738 H1730 0.950 . S
C1738 C1736 1.391 . S
C1738 C1739 1.400 . S
C1739 C1738 1.400 . S
C1739 C1740 1.398 . S
C1739 C1745 1.491 . S
C1740 H1731 0.950 . S
C1740 C1739 1.398 . S
C1740 C1741 1.391 . S
C1741 H1729 0.950 . S
C1741 C1737 1.393 . S
C1741 C1740 1.391 . S
C1742 H1732 0.950 . S
C1742 C1743 1.386 . S
C1742 C1744 1.391 . S
C1743 C1742 1.386 . S
C1743 C1747 1.393 . S
C1744 H1733 0.950 . S
C1744 C1742 1.391 . S
C1744 C1745 1.400 . S
C1745 C1739 1.491 . S
C1745 C1744 1.400 . S
C1745 C1746 1.398 . S
C1746 H1734 0.950 . S
C1746 C1745 1.398 . S
C1746 C1747 1.391 . S
C1747 H1735 0.950 . S
C1747 C1743 1.393 . S
C1747 C1746 1.391 . S
H1748 C1756 0.950 . S
H1749 C1761 0.950 . S
H1750 C1758 0.950 . S
H1751 C1760 0.950 . S
H1752 C1762 0.950 . S
H1753 C1764 0.950 . S
H1754 C1766 0.950 . S
H1755 C1767 0.950 . S
C1756 H1748 0.950 . S
C1756 C1757 1.386 . S
C1756 C1758 1.391 . S
C1757 C1756 1.386 . S
C1757 C1761 1.393 . S
C1758 H1750 0.950 . S
C1758 C1756 1.391 . S
C1758 C1759 1.400 . S
C1759 C1758 1.400 . S
C1759 C1760 1.398 . S
C1759 C1765 1.491 . S
C1760 H1751 0.950 . S
C1760 C1759 1.398 . S
C1760 C1761 1.391 . S
C1761 H1749 0.950 . S
C1761 C1757 1.393 . S
C1761 C1760 1.391 . S
C1762 H1752 0.950 . S
C1762 C1763 1.386 . S
C1762 C1764 1.391 . S
C1763 C1762 1.386 . S
C1763 C1767 1.393 . S
C1764 H1753 0.950 . S
C1764 C1762 1.391 . S
C1764 C1765 1.400 . S
C1765 C1759 1.491 . S
C1765 C1764 1.400 . S
C1765 C1766 1.398 . S
C1766 H1754 0.950 . S
C1766 C1765 1.398 . S
C1766 C1767 1.391 . S
C1767 H1755 0.950 . S
C1767 C1763 1.393 . S
C1767 C1766 1.391 . S
H1768 C1776 0.950 . S
H1769 C1781 0.950 . S
H1770 C1778 0.950 . S
H1771 C1780 0.950 . S
H1772 C1782 0.950 . S
H1773 C1784 0.950 . S
H1774 C1786 0.950 . S
H1775 C1787 0.950 . S
C1776 H1768 0.950 . S
C1776 C1777 1.386 . S
C1776 C1778 1.391 . S
C1777 C1776 1.386 . S
C1777 C1781 1.393 . S
C1778 H1770 0.950 . S
C1778 C1776 1.391 . S
C1778 C1779 1.400 . S
C1779 C1778 1.400 . S
C1779 C1780 1.398 . S
C1779 C1785 1.491 . S
C1780 H1771 0.950 . S
C1780 C1779 1.398 . S
C1780 C1781 1.391 . S
C1781 H1769 0.950 . S
C1781 C1777 1.393 . S
C1781 C1780 1.391 . S
C1782 H1772 0.950 . S
C1782 C1783 1.386 . S
C1782 C1784 1.391 . S
C1783 C1782 1.386 . S
C1783 C1787 1.393 . S
C1784 H1773 0.950 . S
C1784 C1782 1.391 . S
C1784 C1785 1.400 . S
C1785 C1779 1.491 . S
C1785 C1784 1.400 . S
C1785 C1786 1.398 . S
C1786 H1774 0.950 . S
C1786 C1785 1.398 . S
C1786 C1787 1.391 . S
C1787 H1775 0.950 . S
C1787 C1783 1.393 . S
C1787 C1786 1.391 . S
H1788 C1796 0.950 . S
H1789 C1801 0.951 1_554 S
H1790 C1798 0.950 . S
H1791 C1800 0.950 . S
H1792 C1802 0.950 . S
H1793 C1804 0.950 . S
H1794 C1806 0.950 . S
H1795 C1807 0.950 . S
C1796 H1788 0.950 . S
C1796 C1797 1.386 . S
C1796 C1798 1.391 . S
C1797 C1796 1.386 . S
C1797 C1801 1.393 . S
C1798 H1790 0.950 . S
C1798 C1796 1.391 . S
C1798 C1799 1.400 . S
C1799 C1798 1.400 . S
C1799 C1800 1.398 . S
C1799 C1805 1.491 . S
C1800 H1791 0.950 . S
C1800 C1799 1.398 . S
C1800 C1801 1.391 . S
C1801 H1789 0.951 1_556 S
C1801 C1797 1.393 . S
C1801 C1800 1.391 . S
C1802 H1792 0.950 . S
C1802 C1803 1.386 . S
C1802 C1804 1.391 . S
C1803 C1802 1.386 . S
C1803 C1807 1.393 . S
C1804 H1793 0.950 . S
C1804 C1802 1.391 . S
C1804 C1805 1.400 . S
C1805 C1799 1.491 . S
C1805 C1804 1.400 . S
C1805 C1806 1.398 . S
C1806 H1794 0.950 . S
C1806 C1805 1.398 . S
C1806 C1807 1.391 . S
C1807 H1795 0.950 . S
C1807 C1803 1.393 . S
C1807 C1806 1.391 . S
H1808 C1816 0.950 . S
H1809 C1821 0.950 . S
H1810 C1818 0.950 . S
H1811 C1820 0.950 . S
H1812 C1822 0.950 . S
H1813 C1824 0.950 . S
H1814 C1826 0.950 . S
H1815 C1827 0.950 . S
C1816 H1808 0.950 . S
C1816 C1817 1.386 . S
C1816 C1818 1.391 . S
C1817 C1816 1.386 . S
C1817 C1821 1.393 . S
C1818 H1810 0.950 . S
C1818 C1816 1.391 . S
C1818 C1819 1.400 . S
C1819 C1818 1.400 . S
C1819 C1820 1.398 . S
C1819 C1825 1.491 . S
C1820 H1811 0.950 . S
C1820 C1819 1.398 . S
C1820 C1821 1.391 . S
C1821 H1809 0.950 . S
C1821 C1817 1.393 . S
C1821 C1820 1.391 . S
C1822 H1812 0.950 . S
C1822 C1823 1.386 . S
C1822 C1824 1.391 . S
C1823 C1822 1.386 . S
C1823 C1827 1.393 . S
C1824 H1813 0.950 . S
C1824 C1822 1.391 . S
C1824 C1825 1.400 . S
C1825 C1819 1.491 . S
C1825 C1824 1.400 . S
C1825 C1826 1.398 . S
C1826 H1814 0.950 . S
C1826 C1825 1.398 . S
C1826 C1827 1.391 . S
C1827 H1815 0.950 . S
C1827 C1823 1.393 . S
C1827 C1826 1.391 . S
H1828 C1836 0.950 . S
H1829 C1841 0.950 . S
H1830 C1838 0.950 . S
H1831 C1840 0.950 . S
H1832 C1842 0.950 . S
H1833 C1844 0.950 . S
H1834 C1846 0.950 . S
H1835 C1847 0.950 . S
C1836 H1828 0.950 . S
C1836 C1837 1.386 . S
C1836 C1838 1.391 . S
C1837 C1836 1.386 . S
C1837 C1841 1.393 . S
C1838 H1830 0.950 . S
C1838 C1836 1.391 . S
C1838 C1839 1.400 . S
C1839 C1838 1.400 . S
C1839 C1840 1.398 . S
C1839 C1845 1.491 . S
C1840 H1831 0.950 . S
C1840 C1839 1.398 . S
C1840 C1841 1.391 . S
C1841 H1829 0.950 . S
C1841 C1837 1.393 . S
C1841 C1840 1.391 . S
C1842 H1832 0.950 . S
C1842 C1843 1.386 . S
C1842 C1844 1.391 . S
C1843 C1842 1.386 . S
C1843 C1847 1.393 . S
C1844 H1833 0.950 . S
C1844 C1842 1.391 . S
C1844 C1845 1.400 . S
C1845 C1839 1.491 . S
C1845 C1844 1.400 . S
C1845 C1846 1.398 . S
C1846 H1834 0.950 . S
C1846 C1845 1.398 . S
C1846 C1847 1.391 . S
C1847 H1835 0.950 . S
C1847 C1843 1.393 . S
C1847 C1846 1.391 . S
H1848 C1856 0.950 . S
H1849 C1861 0.950 . S
H1850 C1858 0.950 . S
H1851 C1860 0.950 . S
H1852 C1862 0.950 . S
H1853 C1864 0.950 . S
H1854 C1866 0.950 . S
H1855 C1867 0.950 . S
C1856 H1848 0.950 . S
C1856 C1857 1.386 . S
C1856 C1858 1.391 . S
C1857 C1856 1.386 . S
C1857 C1861 1.393 . S
C1858 H1850 0.950 . S
C1858 C1856 1.391 . S
C1858 C1859 1.400 . S
C1859 C1858 1.400 . S
C1859 C1860 1.398 . S
C1859 C1865 1.491 . S
C1860 H1851 0.950 . S
C1860 C1859 1.398 . S
C1860 C1861 1.391 . S
C1861 H1849 0.950 . S
C1861 C1857 1.393 . S
C1861 C1860 1.391 . S
C1862 H1852 0.950 . S
C1862 C1863 1.386 . S
C1862 C1864 1.391 . S
C1863 C1862 1.386 . S
C1863 C1867 1.393 . S
C1864 H1853 0.950 . S
C1864 C1862 1.391 . S
C1864 C1865 1.400 . S
C1865 C1859 1.491 . S
C1865 C1864 1.400 . S
C1865 C1866 1.398 . S
C1866 H1854 0.950 . S
C1866 C1865 1.398 . S
C1866 C1867 1.391 . S
C1867 H1855 0.950 . S
C1867 C1863 1.393 . S
C1867 C1866 1.391 . S
H1868 C1876 0.950 . S
H1869 C1881 0.950 . S
H1870 C1878 0.950 . S
H1871 C1880 0.950 . S
H1872 C1882 0.950 . S
H1873 C1884 0.950 . S
H1874 C1886 0.950 . S
H1875 C1887 0.950 . S
C1876 H1868 0.950 . S
C1876 C1877 1.386 . S
C1876 C1878 1.391 . S
C1877 C1876 1.386 . S
C1877 C1881 1.393 . S
C1878 H1870 0.950 . S
C1878 C1876 1.391 . S
C1878 C1879 1.400 . S
C1879 C1878 1.400 . S
C1879 C1880 1.398 . S
C1879 C1885 1.491 . S
C1880 H1871 0.950 . S
C1880 C1879 1.398 . S
C1880 C1881 1.391 . S
C1881 H1869 0.950 . S
C1881 C1877 1.393 . S
C1881 C1880 1.391 . S
C1882 H1872 0.950 . S
C1882 C1883 1.386 . S
C1882 C1884 1.391 . S
C1883 C1882 1.386 . S
C1883 C1887 1.393 . S
C1884 H1873 0.950 . S
C1884 C1882 1.391 . S
C1884 C1885 1.400 . S
C1885 C1879 1.491 . S
C1885 C1884 1.400 . S
C1885 C1886 1.398 . S
C1886 H1874 0.950 . S
C1886 C1885 1.398 . S
C1886 C1887 1.391 . S
C1887 H1875 0.950 . S
C1887 C1883 1.393 . S
C1887 C1886 1.391 . S
H1888 C1896 0.950 . S
H1889 C1901 0.950 . S
H1890 C1898 0.950 . S
H1891 C1900 0.950 . S
H1892 C1902 0.950 . S
H1893 C1904 0.950 . S
H1894 C1906 0.950 . S
H1895 C1907 0.950 . S
C1896 H1888 0.950 . S
C1896 C1897 1.386 . S
C1896 C1898 1.391 . S
C1897 C1896 1.386 . S
C1897 C1901 1.393 . S
C1898 H1890 0.950 . S
C1898 C1896 1.391 . S
C1898 C1899 1.400 . S
C1899 C1898 1.400 . S
C1899 C1900 1.398 . S
C1899 C1905 1.491 . S
C1900 H1891 0.950 . S
C1900 C1899 1.398 . S
C1900 C1901 1.391 . S
C1901 H1889 0.950 . S
C1901 C1897 1.393 . S
C1901 C1900 1.391 . S
C1902 H1892 0.950 . S
C1902 C1903 1.386 . S
C1902 C1904 1.391 . S
C1903 C1902 1.386 . S
C1903 C1907 1.393 . S
C1904 H1893 0.950 . S
C1904 C1902 1.391 . S
C1904 C1905 1.400 . S
C1905 C1899 1.491 . S
C1905 C1904 1.400 . S
C1905 C1906 1.398 . S
C1906 H1894 0.950 . S
C1906 C1905 1.398 . S
C1906 C1907 1.391 . S
C1907 H1895 0.950 . S
C1907 C1903 1.393 . S
C1907 C1906 1.391 . S
H1908 C1916 0.950 . S
H1909 C1921 0.950 . S
H1910 C1918 0.950 . S
H1911 C1920 0.950 . S
H1912 C1922 0.950 . S
H1913 C1924 0.950 . S
H1914 C1926 0.950 . S
H1915 C1927 0.950 . S
C1916 H1908 0.950 . S
C1916 C1917 1.386 . S
C1916 C1918 1.391 . S
C1917 C1916 1.386 . S
C1917 C1921 1.393 . S
C1918 H1910 0.950 . S
C1918 C1916 1.391 . S
C1918 C1919 1.400 . S
C1919 C1918 1.400 . S
C1919 C1920 1.398 . S
C1919 C1925 1.491 . S
C1920 H1911 0.950 . S
C1920 C1919 1.398 . S
C1920 C1921 1.391 . S
C1921 H1909 0.950 . S
C1921 C1917 1.393 . S
C1921 C1920 1.391 . S
C1922 H1912 0.950 . S
C1922 C1923 1.386 . S
C1922 C1924 1.391 . S
C1923 C1922 1.386 . S
C1923 C1927 1.393 . S
C1924 H1913 0.950 . S
C1924 C1922 1.391 . S
C1924 C1925 1.400 . S
C1925 C1919 1.491 . S
C1925 C1924 1.400 . S
C1925 C1926 1.398 . S
C1926 H1914 0.950 . S
C1926 C1925 1.398 . S
C1926 C1927 1.391 . S
C1927 H1915 0.950 . S
C1927 C1923 1.393 . S
C1927 C1926 1.391 . S
H1928 C1936 0.950 . S
H1929 C1941 0.950 . S
H1930 C1938 0.950 . S
H1931 C1940 0.950 . S
H1932 C1942 0.950 . S
H1933 C1944 0.950 . S
H1934 C1946 0.950 . S
H1935 C1947 0.950 . S
C1936 H1928 0.950 . S
C1936 C1937 1.386 . S
C1936 C1938 1.391 . S
C1937 C1936 1.386 . S
C1937 C1941 1.393 . S
C1938 H1930 0.950 . S
C1938 C1936 1.391 . S
C1938 C1939 1.400 . S
C1939 C1938 1.400 . S
C1939 C1940 1.398 . S
C1939 C1945 1.491 . S
C1940 H1931 0.950 . S
C1940 C1939 1.398 . S
C1940 C1941 1.391 . S
C1941 H1929 0.950 . S
C1941 C1937 1.393 . S
C1941 C1940 1.391 . S
C1942 H1932 0.950 . S
C1942 C1943 1.386 . S
C1942 C1944 1.391 . S
C1943 C1942 1.386 . S
C1943 C1947 1.393 . S
C1944 H1933 0.950 . S
C1944 C1942 1.391 . S
C1944 C1945 1.400 . S
C1945 C1939 1.491 . S
C1945 C1944 1.400 . S
C1945 C1946 1.398 . S
C1946 H1934 0.950 . S
C1946 C1945 1.398 . S
C1946 C1947 1.391 . S
C1947 H1935 0.950 . S
C1947 C1943 1.393 . S
C1947 C1946 1.391 . S
H1948 C1956 0.950 . S
H1949 C1961 0.950 . S
H1950 C1958 0.950 . S
H1951 C1960 0.950 . S
H1952 C1962 0.950 . S
H1953 C1964 0.950 . S
H1954 C1966 0.950 . S
H1955 C1967 0.950 . S
C1956 H1948 0.950 . S
C1956 C1957 1.386 . S
C1956 C1958 1.391 . S
C1957 C1956 1.386 . S
C1957 C1961 1.393 . S
C1958 H1950 0.950 . S
C1958 C1956 1.391 . S
C1958 C1959 1.400 . S
C1959 C1958 1.400 . S
C1959 C1960 1.398 . S
C1959 C1965 1.491 . S
C1960 H1951 0.950 . S
C1960 C1959 1.398 . S
C1960 C1961 1.391 . S
C1961 H1949 0.950 . S
C1961 C1957 1.393 . S
C1961 C1960 1.391 . S
C1962 H1952 0.950 . S
C1962 C1963 1.386 . S
C1962 C1964 1.391 . S
C1963 C1962 1.386 . S
C1963 C1967 1.393 . S
C1964 H1953 0.950 . S
C1964 C1962 1.391 . S
C1964 C1965 1.400 . S
C1965 C1959 1.491 . S
C1965 C1964 1.400 . S
C1965 C1966 1.398 . S
C1966 H1954 0.950 . S
C1966 C1965 1.398 . S
C1966 C1967 1.391 . S
C1967 H1955 0.950 . S
C1967 C1963 1.393 . S
C1967 C1966 1.391 . S
H1968 C1976 0.950 . S
H1969 C1981 0.950 . S
H1970 C1978 0.950 . S
H1971 C1980 0.950 . S
H1972 C1982 0.950 . S
H1973 C1984 0.954 . S
H1974 C1986 0.950 . S
H1975 C1987 0.950 . S
C1976 H1968 0.950 . S
C1976 C1977 1.386 . S
C1976 C1978 1.391 . S
C1977 C1976 1.386 . S
C1977 C1981 1.393 . S
C1978 H1970 0.950 . S
C1978 C1976 1.391 . S
C1978 C1979 1.400 . S
C1979 C1978 1.400 . S
C1979 C1980 1.398 . S
C1979 C1985 1.491 1_545 S
C1980 H1971 0.950 . S
C1980 C1979 1.398 . S
C1980 C1981 1.391 . S
C1981 H1969 0.950 . S
C1981 C1977 1.393 . S
C1981 C1980 1.391 . S
C1982 H1972 0.950 . S
C1982 C1983 1.386 . S
C1982 C1984 1.391 . S
C1983 C1982 1.386 . S
C1983 C1987 1.393 . S
C1984 H1973 0.954 . S
C1984 C1982 1.391 . S
C1984 C1985 1.400 . S
C1985 C1979 1.491 1_565 S
C1985 C1984 1.400 . S
C1985 C1986 1.398 . S
C1986 H1974 0.950 . S
C1986 C1985 1.398 . S
C1986 C1987 1.391 . S
C1987 H1975 0.950 . S
C1987 C1983 1.393 . S
C1987 C1986 1.391 . S
H1988 C1996 0.950 . S
H1989 C2001 0.950 1_554 S
H1990 C1998 0.950 . S
H1991 C2000 0.947 . S
H1992 C2002 0.950 . S
H1993 C2004 0.950 . S
H1994 C2006 0.950 . S
H1995 C2007 0.950 . S
C1996 H1988 0.950 . S
C1996 C1997 1.386 . S
C1996 C1998 1.391 . S
C1997 C1996 1.386 . S
C1997 C2001 1.393 . S
C1998 H1990 0.950 . S
C1998 C1996 1.391 . S
C1998 C1999 1.400 . S
C1999 C1998 1.400 . S
C1999 C2000 1.398 . S
C1999 C2005 1.491 . S
C2000 H1991 0.947 . S
C2000 C1999 1.398 . S
C2000 C2001 1.391 . S
C2001 H1989 0.950 1_556 S
C2001 C1997 1.393 . S
C2001 C2000 1.391 . S
C2002 H1992 0.950 . S
C2002 C2003 1.386 . S
C2002 C2004 1.391 . S
C2003 C2002 1.386 . S
C2003 C2007 1.393 . S
C2004 H1993 0.950 . S
C2004 C2002 1.391 . S
C2004 C2005 1.400 . S
C2005 C1999 1.491 . S
C2005 C2004 1.400 . S
C2005 C2006 1.398 . S
C2006 H1994 0.950 . S
C2006 C2005 1.398 . S
C2006 C2007 1.391 . S
C2007 H1995 0.950 . S
C2007 C2003 1.393 . S
C2007 C2006 1.391 . S
H2008 C2016 0.950 . S
H2009 C2021 0.950 . S
H2010 C2018 0.950 . S
H2011 C2020 0.950 . S
H2012 C2022 0.950 . S
H2013 C2024 0.950 . S
H2014 C2026 0.950 . S
H2015 C2027 0.950 . S
C2016 H2008 0.950 . S
C2016 C2017 1.386 . S
C2016 C2018 1.391 . S
C2017 C2016 1.386 . S
C2017 C2021 1.393 . S
C2018 H2010 0.950 . S
C2018 C2016 1.391 . S
C2018 C2019 1.400 . S
C2019 C2018 1.400 . S
C2019 C2020 1.398 . S
C2019 C2025 1.491 . S
C2020 H2011 0.950 . S
C2020 C2019 1.398 . S
C2020 C2021 1.391 . S
C2021 H2009 0.950 . S
C2021 C2017 1.393 . S
C2021 C2020 1.391 . S
C2022 H2012 0.950 . S
C2022 C2023 1.386 . S
C2022 C2024 1.391 . S
C2023 C2022 1.386 . S
C2023 C2027 1.393 . S
C2024 H2013 0.950 . S
C2024 C2022 1.391 . S
C2024 C2025 1.400 . S
C2025 C2019 1.491 . S
C2025 C2024 1.400 . S
C2025 C2026 1.398 . S
C2026 H2014 0.950 . S
C2026 C2025 1.398 . S
C2026 C2027 1.391 . S
C2027 H2015 0.950 . S
C2027 C2023 1.393 . S
C2027 C2026 1.391 . S
H2028 C2036 0.950 . S
H2029 C2041 0.950 . S
H2030 C2038 0.950 . S
H2031 C2040 0.950 . S
H2032 C2042 0.950 . S
H2033 C2044 0.950 . S
H2034 C2046 0.950 . S
H2035 C2047 0.950 . S
C2036 H2028 0.950 . S
C2036 C2037 1.386 . S
C2036 C2038 1.391 . S
C2037 C2036 1.386 . S
C2037 C2041 1.393 . S
C2038 H2030 0.950 . S
C2038 C2036 1.391 . S
C2038 C2039 1.400 . S
C2039 C2038 1.400 . S
C2039 C2040 1.398 . S
C2039 C2045 1.491 . S
C2040 H2031 0.950 . S
C2040 C2039 1.398 . S
C2040 C2041 1.391 . S
C2041 H2029 0.950 . S
C2041 C2037 1.393 . S
C2041 C2040 1.391 . S
C2042 H2032 0.950 . S
C2042 C2043 1.386 . S
C2042 C2044 1.391 . S
C2043 C2042 1.386 . S
C2043 C2047 1.393 . S
C2044 H2033 0.950 . S
C2044 C2042 1.391 . S
C2044 C2045 1.400 . S
C2045 C2039 1.491 . S
C2045 C2044 1.400 . S
C2045 C2046 1.398 . S
C2046 H2034 0.950 . S
C2046 C2045 1.398 . S
C2046 C2047 1.391 . S
C2047 H2035 0.950 . S
C2047 C2043 1.393 . S
C2047 C2046 1.391 . S
H2048 C2056 0.950 . S
H2049 C2061 0.950 . S
H2050 C2058 0.950 . S
H2051 C2060 0.950 . S
H2052 C2062 0.950 . S
H2053 C2064 0.950 . S
H2054 C2066 0.950 . S
H2055 C2067 0.950 . S
C2056 H2048 0.950 . S
C2056 C2057 1.386 . S
C2056 C2058 1.391 . S
C2057 C2056 1.386 . S
C2057 C2061 1.393 . S
C2058 H2050 0.950 . S
C2058 C2056 1.391 . S
C2058 C2059 1.400 . S
C2059 C2058 1.400 . S
C2059 C2060 1.398 . S
C2059 C2065 1.491 . S
C2060 H2051 0.950 . S
C2060 C2059 1.398 . S
C2060 C2061 1.391 . S
C2061 H2049 0.950 . S
C2061 C2057 1.393 . S
C2061 C2060 1.391 . S
C2062 H2052 0.950 . S
C2062 C2063 1.386 . S
C2062 C2064 1.391 . S
C2063 C2062 1.386 . S
C2063 C2067 1.393 . S
C2064 H2053 0.950 . S
C2064 C2062 1.391 . S
C2064 C2065 1.400 . S
C2065 C2059 1.491 . S
C2065 C2064 1.400 . S
C2065 C2066 1.398 . S
C2066 H2054 0.950 . S
C2066 C2065 1.398 . S
C2066 C2067 1.391 . S
C2067 H2055 0.950 . S
C2067 C2063 1.393 . S
C2067 C2066 1.391 . S
H2068 C2076 0.962 . S
H2069 C2081 0.950 . S
H2070 C2078 0.950 . S
H2071 C2080 0.950 . S
H2072 C2082 0.950 . S
H2073 C2084 0.950 . S
H2074 C2086 0.950 . S
H2075 C2087 0.950 . S
C2076 H2068 0.962 . S
C2076 C2077 1.386 . S
C2076 C2078 1.391 1_655 S
C2077 C2076 1.386 . S
C2077 C2081 1.393 . S
C2078 H2070 0.950 . S
C2078 C2076 1.391 1_455 S
C2078 C2079 1.400 . S
C2079 C2078 1.400 . S
C2079 C2080 1.398 1_455 S
C2079 C2085 1.491 . S
C2080 H2071 0.950 . S
C2080 C2079 1.398 1_655 S
C2080 C2081 1.391 . S
C2081 H2069 0.950 . S
C2081 C2077 1.393 . S
C2081 C2080 1.391 . S
C2082 H2072 0.950 . S
C2082 C2083 1.386 . S
C2082 C2084 1.391 . S
C2083 C2082 1.386 . S
C2083 C2087 1.393 . S
C2084 H2073 0.950 . S
C2084 C2082 1.391 . S
C2084 C2085 1.400 . S
C2085 C2079 1.491 . S
C2085 C2084 1.400 . S
C2085 C2086 1.398 . S
C2086 H2074 0.950 . S
C2086 C2085 1.398 . S
C2086 C2087 1.391 . S
C2087 H2075 0.950 . S
C2087 C2083 1.393 . S
C2087 C2086 1.391 . S
H2088 C2096 0.950 . S
H2089 C2101 0.950 . S
H2090 C2098 0.950 . S
H2091 C2100 0.950 . S
H2092 C2102 0.950 . S
H2093 C2104 0.950 . S
H2094 C2106 0.950 . S
H2095 C2107 0.950 . S
C2096 H2088 0.950 . S
C2096 C2097 1.386 . S
C2096 C2098 1.391 . S
C2097 C2096 1.386 . S
C2097 C2101 1.393 . S
C2098 H2090 0.950 . S
C2098 C2096 1.391 . S
C2098 C2099 1.400 . S
C2099 C2098 1.400 . S
C2099 C2100 1.398 . S
C2099 C2105 1.491 . S
C2100 H2091 0.950 . S
C2100 C2099 1.398 . S
C2100 C2101 1.391 . S
C2101 H2089 0.950 . S
C2101 C2097 1.393 . S
C2101 C2100 1.391 . S
C2102 H2092 0.950 . S
C2102 C2103 1.386 . S
C2102 C2104 1.391 . S
C2103 C2102 1.386 . S
C2103 C2107 1.393 . S
C2104 H2093 0.950 . S
C2104 C2102 1.391 . S
C2104 C2105 1.400 . S
C2105 C2099 1.491 . S
C2105 C2104 1.400 . S
C2105 C2106 1.398 . S
C2106 H2094 0.950 . S
C2106 C2105 1.398 . S
C2106 C2107 1.391 . S
C2107 H2095 0.950 . S
C2107 C2103 1.393 . S
C2107 C2106 1.391 . S
H2108 C2116 0.950 . S
H2109 C2121 0.950 . S
H2110 C2118 0.950 . S
H2111 C2120 0.950 1_554 S
H2112 C2122 0.950 . S
H2113 C2124 0.950 . S
H2114 C2126 0.950 . S
H2115 C2127 0.950 . S
C2116 H2108 0.950 . S
C2116 C2117 1.386 . S
C2116 C2118 1.391 . S
C2117 C2116 1.386 . S
C2117 C2121 1.393 . S
C2118 H2110 0.950 . S
C2118 C2116 1.391 . S
C2118 C2119 1.400 . S
C2119 C2118 1.400 . S
C2119 C2120 1.398 . S
C2119 C2125 1.491 1_556 S
C2120 H2111 0.950 1_556 S
C2120 C2119 1.398 . S
C2120 C2121 1.391 . S
C2121 H2109 0.950 . S
C2121 C2117 1.393 . S
C2121 C2120 1.391 . S
C2122 H2112 0.950 . S
C2122 C2123 1.386 . S
C2122 C2124 1.391 . S
C2123 C2122 1.386 . S
C2123 C2127 1.393 . S
C2124 H2113 0.950 . S
C2124 C2122 1.391 . S
C2124 C2125 1.400 . S
C2125 C2119 1.491 1_554 S
C2125 C2124 1.400 . S
C2125 C2126 1.398 . S
C2126 H2114 0.950 . S
C2126 C2125 1.398 . S
C2126 C2127 1.391 . S
C2127 H2115 0.950 . S
C2127 C2123 1.393 . S
C2127 C2126 1.391 . S
H2128 C2136 0.950 . S
H2129 C2141 0.950 . S
H2130 C2138 0.950 . S
H2131 C2140 0.950 . S
H2132 C2142 0.950 . S
H2133 C2144 0.950 . S
H2134 C2146 0.950 . S
H2135 C2147 0.950 . S
C2136 H2128 0.950 . S
C2136 C2137 1.386 . S
C2136 C2138 1.391 . S
C2137 C2136 1.386 . S
C2137 C2141 1.393 . S
C2138 H2130 0.950 . S
C2138 C2136 1.391 . S
C2138 C2139 1.400 . S
C2139 C2138 1.400 . S
C2139 C2140 1.398 . S
C2139 C2145 1.491 . S
C2140 H2131 0.950 . S
C2140 C2139 1.398 . S
C2140 C2141 1.391 . S
C2141 H2129 0.950 . S
C2141 C2137 1.393 . S
C2141 C2140 1.391 . S
C2142 H2132 0.950 . S
C2142 C2143 1.386 . S
C2142 C2144 1.391 . S
C2143 C2142 1.386 . S
C2143 C2147 1.393 . S
C2144 H2133 0.950 . S
C2144 C2142 1.391 . S
C2144 C2145 1.400 . S
C2145 C2139 1.491 . S
C2145 C2144 1.400 . S
C2145 C2146 1.398 . S
C2146 H2134 0.950 . S
C2146 C2145 1.398 . S
C2146 C2147 1.391 . S
C2147 H2135 0.950 . S
C2147 C2143 1.393 . S
C2147 C2146 1.391 . S
H2148 C2156 0.950 . S
H2149 C2161 0.950 . S
H2150 C2158 0.950 . S
H2151 C2160 0.950 . S
H2152 C2162 0.950 . S
H2153 C2164 0.950 . S
H2154 C2166 0.950 . S
H2155 C2167 0.950 . S
C2156 H2148 0.950 . S
C2156 C2157 1.386 . S
C2156 C2158 1.391 . S
C2157 C2156 1.386 . S
C2157 C2161 1.393 . S
C2158 H2150 0.950 . S
C2158 C2156 1.391 . S
C2158 C2159 1.400 . S
C2159 C2158 1.400 . S
C2159 C2160 1.398 . S
C2159 C2165 1.491 . S
C2160 H2151 0.950 . S
C2160 C2159 1.398 . S
C2160 C2161 1.391 . S
C2161 H2149 0.950 . S
C2161 C2157 1.393 . S
C2161 C2160 1.391 . S
C2162 H2152 0.950 . S
C2162 C2163 1.386 . S
C2162 C2164 1.391 . S
C2163 C2162 1.386 . S
C2163 C2167 1.393 . S
C2164 H2153 0.950 . S
C2164 C2162 1.391 . S
C2164 C2165 1.400 . S
C2165 C2159 1.491 . S
C2165 C2164 1.400 . S
C2165 C2166 1.398 . S
C2166 H2154 0.950 . S
C2166 C2165 1.398 . S
C2166 C2167 1.391 . S
C2167 H2155 0.950 . S
C2167 C2163 1.393 . S
C2167 C2166 1.391 . S
H2168 C2176 0.950 . S
H2169 C2181 0.950 . S
H2170 C2178 0.950 . S
H2171 C2180 0.950 . S
H2172 C2182 0.950 . S
H2173 C2184 0.950 . S
H2174 C2186 0.950 . S
H2175 C2187 0.950 . S
C2176 H2168 0.950 . S
C2176 C2177 1.386 . S
C2176 C2178 1.391 . S
C2177 C2176 1.386 . S
C2177 C2181 1.393 . S
C2178 H2170 0.950 . S
C2178 C2176 1.391 . S
C2178 C2179 1.400 . S
C2179 C2178 1.400 . S
C2179 C2180 1.398 . S
C2179 C2185 1.491 . S
C2180 H2171 0.950 . S
C2180 C2179 1.398 . S
C2180 C2181 1.391 . S
C2181 H2169 0.950 . S
C2181 C2177 1.393 . S
C2181 C2180 1.391 . S
C2182 H2172 0.950 . S
C2182 C2183 1.386 . S
C2182 C2184 1.391 . S
C2183 C2182 1.386 . S
C2183 C2187 1.393 . S
C2184 H2173 0.950 . S
C2184 C2182 1.391 . S
C2184 C2185 1.400 . S
C2185 C2179 1.491 . S
C2185 C2184 1.400 . S
C2185 C2186 1.398 . S
C2186 H2174 0.950 . S
C2186 C2185 1.398 . S
C2186 C2187 1.391 . S
C2187 H2175 0.950 . S
C2187 C2183 1.393 . S
C2187 C2186 1.391 . S
H2188 C2196 0.950 . S
H2189 C2201 0.950 . S
H2190 C2198 0.950 . S
H2191 C2200 0.950 . S
H2192 C2202 0.950 . S
H2193 C2204 0.950 . S
H2194 C2206 0.950 1_554 S
H2195 C2207 0.950 . S
C2196 H2188 0.950 . S
C2196 C2197 1.386 . S
C2196 C2198 1.391 . S
C2197 C2196 1.386 . S
C2197 C2201 1.393 . S
C2198 H2190 0.950 . S
C2198 C2196 1.391 . S
C2198 C2199 1.400 . S
C2199 C2198 1.400 . S
C2199 C2200 1.398 . S
C2199 C2205 1.517 . S
C2200 H2191 0.950 . S
C2200 C2199 1.398 . S
C2200 C2201 1.391 . S
C2201 H2189 0.950 . S
C2201 C2197 1.393 . S
C2201 C2200 1.391 . S
C2202 H2192 0.950 . S
C2202 C2203 1.386 . S
C2202 C2204 1.391 . S
C2203 C2202 1.386 . S
C2203 C2207 1.393 . S
C2204 H2193 0.950 . S
C2204 C2202 1.391 . S
C2204 C2205 1.376 1_556 S
C2205 C2199 1.517 . S
C2205 C2204 1.376 1_554 S
C2205 C2206 1.395 1_554 S
C2206 H2194 0.950 1_556 S
C2206 C2205 1.395 1_556 S
C2206 C2207 1.391 . S
C2207 H2195 0.950 . S
C2207 C2203 1.393 . S
C2207 C2206 1.391 . S
H2208 C2216 0.950 . S
H2209 C2221 0.950 . S
H2210 C2218 0.950 . S
H2211 C2220 0.950 . S
H2212 C2222 0.950 . S
H2213 C2224 0.950 . S
H2214 C2226 0.950 . S
H2215 C2227 0.950 . S
C2216 H2208 0.950 . S
C2216 C2217 1.386 . S
C2216 C2218 1.391 . S
C2217 C2216 1.386 . S
C2217 C2221 1.393 . S
C2218 H2210 0.950 . S
C2218 C2216 1.391 . S
C2218 C2219 1.400 . S
C2219 C2218 1.400 . S
C2219 C2220 1.398 . S
C2219 C2225 1.491 . S
C2220 H2211 0.950 . S
C2220 C2219 1.398 . S
C2220 C2221 1.391 . S
C2221 H2209 0.950 . S
C2221 C2217 1.393 . S
C2221 C2220 1.391 . S
C2222 H2212 0.950 . S
C2222 C2223 1.386 . S
C2222 C2224 1.391 . S
C2223 C2222 1.386 . S
C2223 C2227 1.393 . S
C2224 H2213 0.950 . S
C2224 C2222 1.391 . S
C2224 C2225 1.400 . S
C2225 C2219 1.491 . S
C2225 C2224 1.400 . S
C2225 C2226 1.398 . S
C2226 H2214 0.950 . S
C2226 C2225 1.398 . S
C2226 C2227 1.391 . S
C2227 H2215 0.950 . S
C2227 C2223 1.393 . S
C2227 C2226 1.391 . S
H2228 C2236 0.950 . S
H2229 C2241 0.950 . S
H2230 C2238 0.950 . S
H2231 C2240 0.950 . S
H2232 C2242 0.950 . S
H2233 C2244 0.950 . S
H2234 C2246 0.950 . S
H2235 C2247 0.950 . S
C2236 H2228 0.950 . S
C2236 C2237 1.386 . S
C2236 C2238 1.391 . S
C2237 C2236 1.386 . S
C2237 C2241 1.393 . S
C2238 H2230 0.950 . S
C2238 C2236 1.391 . S
C2238 C2239 1.400 . S
C2239 C2238 1.400 . S
C2239 C2240 1.398 . S
C2239 C2245 1.491 . S
C2240 H2231 0.950 . S
C2240 C2239 1.398 . S
C2240 C2241 1.391 . S
C2241 H2229 0.950 . S
C2241 C2237 1.393 . S
C2241 C2240 1.391 . S
C2242 H2232 0.950 . S
C2242 C2243 1.386 . S
C2242 C2244 1.391 . S
C2243 C2242 1.386 . S
C2243 C2247 1.393 . S
C2244 H2233 0.950 . S
C2244 C2242 1.391 . S
C2244 C2245 1.400 . S
C2245 C2239 1.491 . S
C2245 C2244 1.400 . S
C2245 C2246 1.398 . S
C2246 H2234 0.950 . S
C2246 C2245 1.398 . S
C2246 C2247 1.391 . S
C2247 H2235 0.950 . S
C2247 C2243 1.393 . S
C2247 C2246 1.391 . S
H2248 C2256 0.950 . S
H2249 C2261 0.950 . S
H2250 C2258 0.950 . S
H2251 C2260 0.950 . S
H2252 C2262 0.950 . S
H2253 C2264 0.950 . S
H2254 C2266 0.950 . S
H2255 C2267 0.950 . S
C2256 H2248 0.950 . S
C2256 C2257 1.386 . S
C2256 C2258 1.391 . S
C2257 C2256 1.386 . S
C2257 C2261 1.393 . S
C2258 H2250 0.950 . S
C2258 C2256 1.391 . S
C2258 C2259 1.400 . S
C2259 C2258 1.400 . S
C2259 C2260 1.398 . S
C2259 C2265 1.491 . S
C2260 H2251 0.950 . S
C2260 C2259 1.398 . S
C2260 C2261 1.391 . S
C2261 H2249 0.950 . S
C2261 C2257 1.393 . S
C2261 C2260 1.391 . S
C2262 H2252 0.950 . S
C2262 C2263 1.386 . S
C2262 C2264 1.391 . S
C2263 C2262 1.386 . S
C2263 C2267 1.393 . S
C2264 H2253 0.950 . S
C2264 C2262 1.391 . S
C2264 C2265 1.400 . S
C2265 C2259 1.491 . S
C2265 C2264 1.400 . S
C2265 C2266 1.398 . S
C2266 H2254 0.950 . S
C2266 C2265 1.398 . S
C2266 C2267 1.391 . S
C2267 H2255 0.950 . S
C2267 C2263 1.393 . S
C2267 C2266 1.391 . S
H2268 C2276 0.950 . S
H2269 C2281 0.950 . S
H2270 C2278 0.950 . S
H2271 C2280 0.950 . S
H2272 C2282 0.950 . S
H2273 C2284 0.950 . S
H2274 C2286 0.950 . S
H2275 C2287 0.950 . S
C2276 H2268 0.950 . S
C2276 C2277 1.386 . S
C2276 C2278 1.391 . S
C2277 C2276 1.386 . S
C2277 C2281 1.393 . S
C2278 H2270 0.950 . S
C2278 C2276 1.391 . S
C2278 C2279 1.400 . S
C2279 C2278 1.400 . S
C2279 C2280 1.398 . S
C2279 C2285 1.491 . S
C2280 H2271 0.950 . S
C2280 C2279 1.398 . S
C2280 C2281 1.391 . S
C2281 H2269 0.950 . S
C2281 C2277 1.393 . S
C2281 C2280 1.391 . S
C2282 H2272 0.950 . S
C2282 C2283 1.386 . S
C2282 C2284 1.391 . S
C2283 C2282 1.386 . S
C2283 C2287 1.393 . S
C2284 H2273 0.950 . S
C2284 C2282 1.391 . S
C2284 C2285 1.400 . S
C2285 C2279 1.491 . S
C2285 C2284 1.400 . S
C2285 C2286 1.398 . S
C2286 H2274 0.950 . S
C2286 C2285 1.398 . S
C2286 C2287 1.391 . S
C2287 H2275 0.950 . S
C2287 C2283 1.393 . S
C2287 C2286 1.391 . S
H2288 C2296 0.950 . S
H2289 C2301 0.950 . S
H2290 C2298 0.950 . S
H2291 C2300 0.950 . S
H2292 C2302 0.950 . S
H2293 C2304 0.950 . S
H2294 C2306 0.950 . S
H2295 C2307 0.950 . S
C2296 H2288 0.950 . S
C2296 C2297 1.386 . S
C2296 C2298 1.391 . S
C2297 C2296 1.386 . S
C2297 C2301 1.393 . S
C2298 H2290 0.950 . S
C2298 C2296 1.391 . S
C2298 C2299 1.400 . S
C2299 C2298 1.400 . S
C2299 C2300 1.398 . S
C2299 C2305 1.491 . S
C2300 H2291 0.950 . S
C2300 C2299 1.398 . S
C2300 C2301 1.391 . S
C2301 H2289 0.950 . S
C2301 C2297 1.393 . S
C2301 C2300 1.391 . S
C2302 H2292 0.950 . S
C2302 C2303 1.386 . S
C2302 C2304 1.391 . S
C2303 C2302 1.386 . S
C2303 C2307 1.393 . S
C2304 H2293 0.950 . S
C2304 C2302 1.391 . S
C2304 C2305 1.400 . S
C2305 C2299 1.491 . S
C2305 C2304 1.400 . S
C2305 C2306 1.398 . S
C2306 H2294 0.950 . S
C2306 C2305 1.398 . S
C2306 C2307 1.391 . S
C2307 H2295 0.950 . S
C2307 C2303 1.393 . S
C2307 C2306 1.391 . S
H2308 C2316 0.950 . S
H2309 C2321 0.950 . S
H2310 C2318 0.950 . S
H2311 C2320 0.950 . S
H2312 C2322 0.950 . S
H2313 C2324 0.950 . S
H2314 C2326 0.950 . S
H2315 C2327 0.950 . S
C2316 H2308 0.950 . S
C2316 C2317 1.386 . S
C2316 C2318 1.391 . S
C2317 C2316 1.386 . S
C2317 C2321 1.393 . S
C2318 H2310 0.950 . S
C2318 C2316 1.391 . S
C2318 C2319 1.400 . S
C2319 C2318 1.400 . S
C2319 C2320 1.398 . S
C2319 C2325 1.491 . S
C2320 H2311 0.950 . S
C2320 C2319 1.398 . S
C2320 C2321 1.391 . S
C2321 H2309 0.950 . S
C2321 C2317 1.393 . S
C2321 C2320 1.391 . S
C2322 H2312 0.950 . S
C2322 C2323 1.386 . S
C2322 C2324 1.391 . S
C2323 C2322 1.386 . S
C2323 C2327 1.393 . S
C2324 H2313 0.950 . S
C2324 C2322 1.391 . S
C2324 C2325 1.400 . S
C2325 C2319 1.491 . S
C2325 C2324 1.400 . S
C2325 C2326 1.398 . S
C2326 H2314 0.950 . S
C2326 C2325 1.398 . S
C2326 C2327 1.391 . S
C2327 H2315 0.950 . S
C2327 C2323 1.393 . S
C2327 C2326 1.391 . S
H2328 C2336 0.950 . S
H2329 C2341 0.950 . S
H2330 C2338 0.950 . S
H2331 C2340 0.950 . S
H2332 C2342 0.950 . S
H2333 C2344 0.950 . S
H2334 C2346 0.950 . S
H2335 C2347 0.950 . S
C2336 H2328 0.950 . S
C2336 C2337 1.386 . S
C2336 C2338 1.391 . S
C2337 C2336 1.386 . S
C2337 C2341 1.393 . S
C2338 H2330 0.950 . S
C2338 C2336 1.391 . S
C2338 C2339 1.400 . S
C2339 C2338 1.400 . S
C2339 C2340 1.398 . S
C2339 C2345 1.491 . S
C2340 H2331 0.950 . S
C2340 C2339 1.398 . S
C2340 C2341 1.391 . S
C2341 H2329 0.950 . S
C2341 C2337 1.393 . S
C2341 C2340 1.391 . S
C2342 H2332 0.950 . S
C2342 C2343 1.386 . S
C2342 C2344 1.391 . S
C2343 C2342 1.386 . S
C2343 C2347 1.393 . S
C2344 H2333 0.950 . S
C2344 C2342 1.391 . S
C2344 C2345 1.400 . S
C2345 C2339 1.491 . S
C2345 C2344 1.400 . S
C2345 C2346 1.398 . S
C2346 H2334 0.950 . S
C2346 C2345 1.398 . S
C2346 C2347 1.391 . S
C2347 H2335 0.950 . S
C2347 C2343 1.393 . S
C2347 C2346 1.391 . S
H2348 C2356 0.950 . S
H2349 C2361 0.961 . S
H2350 C2358 0.950 . S
H2351 C2360 0.950 . S
H2352 C2362 0.950 . S
H2353 C2364 0.950 . S
H2354 C2366 0.950 . S
H2355 C2367 0.950 . S
C2356 H2348 0.950 . S
C2356 C2357 1.386 . S
C2356 C2358 1.391 . S
C2357 C2356 1.386 . S
C2357 C2361 1.393 . S
C2358 H2350 0.950 . S
C2358 C2356 1.391 . S
C2358 C2359 1.400 . S
C2359 C2358 1.400 . S
C2359 C2360 1.398 . S
C2359 C2365 1.491 . S
C2360 H2351 0.950 . S
C2360 C2359 1.398 . S
C2360 C2361 1.391 . S
C2361 H2349 0.961 . S
C2361 C2357 1.393 . S
C2361 C2360 1.391 . S
C2362 H2352 0.950 . S
C2362 C2363 1.386 . S
C2362 C2364 1.391 . S
C2363 C2362 1.386 . S
C2363 C2367 1.393 . S
C2364 H2353 0.950 . S
C2364 C2362 1.391 . S
C2364 C2365 1.400 . S
C2365 C2359 1.491 . S
C2365 C2364 1.400 . S
C2365 C2366 1.398 . S
C2366 H2354 0.950 . S
C2366 C2365 1.398 . S
C2366 C2367 1.391 . S
C2367 H2355 0.950 . S
C2367 C2363 1.393 . S
C2367 C2366 1.391 . S
H2368 C2376 0.950 . S
H2369 C2381 0.950 . S
H2370 C2378 0.950 . S
H2371 C2380 0.950 . S
H2372 C2382 0.950 . S
H2373 C2384 0.950 . S
H2374 C2386 0.950 . S
H2375 C2387 0.950 . S
C2376 H2368 0.950 . S
C2376 C2377 1.386 . S
C2376 C2378 1.391 . S
C2377 C2376 1.386 . S
C2377 C2381 1.393 . S
C2378 H2370 0.950 . S
C2378 C2376 1.391 . S
C2378 C2379 1.400 . S
C2379 C2378 1.400 . S
C2379 C2380 1.398 . S
C2379 C2385 1.491 . S
C2380 H2371 0.950 . S
C2380 C2379 1.398 . S
C2380 C2381 1.391 . S
C2381 H2369 0.950 . S
C2381 C2377 1.393 . S
C2381 C2380 1.391 . S
C2382 H2372 0.950 . S
C2382 C2383 1.386 . S
C2382 C2384 1.391 . S
C2383 C2382 1.386 . S
C2383 C2387 1.393 . S
C2384 H2373 0.950 . S
C2384 C2382 1.391 . S
C2384 C2385 1.400 . S
C2385 C2379 1.491 . S
C2385 C2384 1.400 . S
C2385 C2386 1.398 . S
C2386 H2374 0.950 . S
C2386 C2385 1.398 . S
C2386 C2387 1.391 . S
C2387 H2375 0.950 . S
C2387 C2383 1.393 . S
C2387 C2386 1.391 . S
H2388 C2396 0.950 . S
H2389 C2401 0.950 . S
H2390 C2398 0.950 . S
H2391 C2400 0.950 . S
H2392 C2402 0.950 . S
H2393 C2404 0.950 . S
H2394 C2406 0.950 . S
H2395 C2407 0.950 . S
C2396 H2388 0.950 . S
C2396 C2397 1.386 . S
C2396 C2398 1.391 . S
C2397 C2396 1.386 . S
C2397 C2401 1.393 . S
C2398 H2390 0.950 . S
C2398 C2396 1.391 . S
C2398 C2399 1.400 . S
C2399 C2398 1.400 . S
C2399 C2400 1.398 . S
C2399 C2405 1.491 . S
C2400 H2391 0.950 . S
C2400 C2399 1.398 . S
C2400 C2401 1.391 . S
C2401 H2389 0.950 . S
C2401 C2397 1.393 . S
C2401 C2400 1.391 . S
C2402 H2392 0.950 . S
C2402 C2403 1.386 . S
C2402 C2404 1.391 . S
C2403 C2402 1.386 . S
C2403 C2407 1.393 . S
C2404 H2393 0.950 . S
C2404 C2402 1.391 . S
C2404 C2405 1.400 . S
C2405 C2399 1.491 . S
C2405 C2404 1.400 . S
C2405 C2406 1.398 . S
C2406 H2394 0.950 . S
C2406 C2405 1.398 . S
C2406 C2407 1.391 . S
C2407 H2395 0.950 . S
C2407 C2403 1.393 . S
C2407 C2406 1.391 . S
H2408 C2416 0.950 . S
H2409 C2421 0.950 . S
H2410 C2418 0.950 . S
H2411 C2420 0.950 . S
H2412 C2422 0.950 . S
H2413 C2424 0.950 . S
H2414 C2426 0.950 . S
H2415 C2427 0.950 . S
C2416 H2408 0.950 . S
C2416 C2417 1.386 . S
C2416 C2418 1.391 . S
C2417 C2416 1.386 . S
C2417 C2421 1.393 . S
C2418 H2410 0.950 . S
C2418 C2416 1.391 . S
C2418 C2419 1.400 . S
C2419 C2418 1.400 . S
C2419 C2420 1.398 . S
C2419 C2425 1.491 . S
C2420 H2411 0.950 . S
C2420 C2419 1.398 . S
C2420 C2421 1.391 . S
C2421 H2409 0.950 . S
C2421 C2417 1.393 . S
C2421 C2420 1.391 . S
C2422 H2412 0.950 . S
C2422 C2423 1.386 . S
C2422 C2424 1.391 . S
C2423 C2422 1.386 . S
C2423 C2427 1.393 . S
C2424 H2413 0.950 . S
C2424 C2422 1.391 . S
C2424 C2425 1.400 . S
C2425 C2419 1.491 . S
C2425 C2424 1.400 . S
C2425 C2426 1.398 . S
C2426 H2414 0.950 . S
C2426 C2425 1.398 . S
C2426 C2427 1.391 . S
C2427 H2415 0.950 . S
C2427 C2423 1.393 . S
C2427 C2426 1.391 . S
H2428 C2436 0.950 . S
H2429 C2441 0.950 . S
H2430 C2438 0.950 . S
H2431 C2440 0.950 . S
H2432 C2442 0.950 . S
H2433 C2444 0.950 . S
H2434 C2446 0.950 . S
H2435 C2447 0.950 . S
C2436 H2428 0.950 . S
C2436 C2437 1.386 . S
C2436 C2438 1.391 . S
C2437 C2436 1.386 . S
C2437 C2441 1.393 . S
C2438 H2430 0.950 . S
C2438 C2436 1.391 . S
C2438 C2439 1.400 . S
C2439 C2438 1.400 . S
C2439 C2440 1.398 . S
C2439 C2445 1.491 . S
C2440 H2431 0.950 . S
C2440 C2439 1.398 . S
C2440 C2441 1.391 . S
C2441 H2429 0.950 . S
C2441 C2437 1.393 . S
C2441 C2440 1.391 . S
C2442 H2432 0.950 . S
C2442 C2443 1.386 . S
C2442 C2444 1.391 . S
C2443 C2442 1.386 . S
C2443 C2447 1.393 . S
C2444 H2433 0.950 . S
C2444 C2442 1.391 . S
C2444 C2445 1.400 . S
C2445 C2439 1.491 . S
C2445 C2444 1.400 . S
C2445 C2446 1.398 . S
C2446 H2434 0.950 . S
C2446 C2445 1.398 . S
C2446 C2447 1.391 . S
C2447 H2435 0.950 . S
C2447 C2443 1.393 . S
C2447 C2446 1.391 . S
H2448 C2456 0.950 . S
H2449 C2461 0.950 . S
H2450 C2458 0.950 . S
H2451 C2460 0.950 . S
H2452 C2462 0.950 . S
H2453 C2464 0.950 . S
H2454 C2466 0.950 . S
H2455 C2467 0.950 . S
C2456 H2448 0.950 . S
C2456 C2457 1.386 . S
C2456 C2458 1.391 . S
C2457 C2456 1.386 . S
C2457 C2461 1.393 . S
C2458 H2450 0.950 . S
C2458 C2456 1.391 . S
C2458 C2459 1.400 . S
C2459 C2458 1.400 . S
C2459 C2460 1.398 . S
C2459 C2465 1.491 . S
C2460 H2451 0.950 . S
C2460 C2459 1.398 . S
C2460 C2461 1.391 . S
C2461 H2449 0.950 . S
C2461 C2457 1.393 . S
C2461 C2460 1.391 . S
C2462 H2452 0.950 . S
C2462 C2463 1.386 . S
C2462 C2464 1.391 . S
C2463 C2462 1.386 . S
C2463 C2467 1.393 . S
C2464 H2453 0.950 . S
C2464 C2462 1.391 . S
C2464 C2465 1.400 . S
C2465 C2459 1.491 . S
C2465 C2464 1.400 . S
C2465 C2466 1.398 . S
C2466 H2454 0.950 . S
C2466 C2465 1.398 . S
C2466 C2467 1.391 . S
C2467 H2455 0.950 . S
C2467 C2463 1.393 . S
C2467 C2466 1.391 . S
H2468 C2476 0.950 . S
H2469 C2481 0.950 . S
H2470 C2478 0.950 . S
H2471 C2480 0.950 . S
H2472 C2482 0.950 . S
H2473 C2484 0.950 . S
H2474 C2486 0.950 . S
H2475 C2487 0.950 . S
C2476 H2468 0.950 . S
C2476 C2477 1.386 . S
C2476 C2478 1.391 . S
C2477 C2476 1.386 . S
C2477 C2481 1.393 . S
C2478 H2470 0.950 . S
C2478 C2476 1.391 . S
C2478 C2479 1.400 . S
C2479 C2478 1.400 . S
C2479 C2480 1.398 . S
C2479 C2485 1.491 . S
C2480 H2471 0.950 . S
C2480 C2479 1.398 . S
C2480 C2481 1.391 . S
C2481 H2469 0.950 . S
C2481 C2477 1.393 . S
C2481 C2480 1.391 . S
C2482 H2472 0.950 . S
C2482 C2483 1.386 . S
C2482 C2484 1.391 . S
C2483 C2482 1.386 . S
C2483 C2487 1.393 . S
C2484 H2473 0.950 . S
C2484 C2482 1.391 . S
C2484 C2485 1.400 . S
C2485 C2479 1.491 . S
C2485 C2484 1.400 . S
C2485 C2486 1.398 . S
C2486 H2474 0.950 . S
C2486 C2485 1.398 . S
C2486 C2487 1.391 . S
C2487 H2475 0.950 . S
C2487 C2483 1.393 . S
C2487 C2486 1.391 . S
H2488 C2496 0.950 . S
H2489 C2501 0.950 . S
H2490 C2498 0.950 . S
H2491 C2500 0.950 . S
H2492 C2502 0.950 . S
H2493 C2504 0.950 . S
H2494 C2506 0.950 . S
H2495 C2507 0.950 . S
C2496 H2488 0.950 . S
C2496 C2497 1.386 . S
C2496 C2498 1.391 . S
C2497 C2496 1.386 . S
C2497 C2501 1.393 . S
C2498 H2490 0.950 . S
C2498 C2496 1.391 . S
C2498 C2499 1.400 . S
C2499 C2498 1.400 . S
C2499 C2500 1.398 . S
C2499 C2505 1.491 . S
C2500 H2491 0.950 . S
C2500 C2499 1.398 . S
C2500 C2501 1.391 . S
C2501 H2489 0.950 . S
C2501 C2497 1.393 . S
C2501 C2500 1.391 . S
C2502 H2492 0.950 . S
C2502 C2503 1.386 . S
C2502 C2504 1.391 . S
C2503 C2502 1.386 . S
C2503 C2507 1.393 . S
C2504 H2493 0.950 . S
C2504 C2502 1.391 . S
C2504 C2505 1.400 . S
C2505 C2499 1.491 . S
C2505 C2504 1.400 . S
C2505 C2506 1.398 . S
C2506 H2494 0.950 . S
C2506 C2505 1.398 . S
C2506 C2507 1.391 . S
C2507 H2495 0.950 . S
C2507 C2503 1.393 . S
C2507 C2506 1.391 . S
H2508 C2516 0.950 . S
H2509 C2521 0.950 1_554 S
H2510 C2518 0.950 . S
H2511 C2520 0.950 . S
H2512 C2522 0.950 . S
H2513 C2524 0.950 . S
H2514 C2526 0.950 . S
H2515 C2527 0.950 . S
C2516 H2508 0.950 . S
C2516 C2517 1.386 . S
C2516 C2518 1.391 . S
C2517 C2516 1.386 . S
C2517 C2521 1.393 . S
C2518 H2510 0.950 . S
C2518 C2516 1.391 . S
C2518 C2519 1.400 . S
C2519 C2518 1.400 . S
C2519 C2520 1.398 . S
C2519 C2525 1.491 . S
C2520 H2511 0.950 . S
C2520 C2519 1.398 . S
C2520 C2521 1.391 . S
C2521 H2509 0.950 1_556 S
C2521 C2517 1.393 . S
C2521 C2520 1.391 . S
C2522 H2512 0.950 . S
C2522 C2523 1.386 . S
C2522 C2524 1.391 . S
C2523 C2522 1.386 . S
C2523 C2527 1.393 . S
C2524 H2513 0.950 . S
C2524 C2522 1.391 . S
C2524 C2525 1.400 . S
C2525 C2519 1.491 . S
C2525 C2524 1.400 . S
C2525 C2526 1.398 . S
C2526 H2514 0.950 . S
C2526 C2525 1.398 . S
C2526 C2527 1.391 . S
C2527 H2515 0.950 . S
C2527 C2523 1.393 . S
C2527 C2526 1.391 . S
H2528 C2536 0.950 . S
H2529 C2541 0.950 . S
H2530 C2538 0.950 . S
H2531 C2540 0.950 . S
H2532 C2542 0.950 . S
H2533 C2544 0.950 . S
H2534 C2546 0.950 . S
H2535 C2547 0.950 . S
C2536 H2528 0.950 . S
C2536 C2537 1.386 . S
C2536 C2538 1.391 . S
C2537 C2536 1.386 . S
C2537 C2541 1.393 . S
C2538 H2530 0.950 . S
C2538 C2536 1.391 . S
C2538 C2539 1.400 . S
C2539 C2538 1.400 . S
C2539 C2540 1.398 . S
C2539 C2545 1.491 . S
C2540 H2531 0.950 . S
C2540 C2539 1.398 . S
C2540 C2541 1.391 . S
C2541 H2529 0.950 . S
C2541 C2537 1.393 . S
C2541 C2540 1.391 . S
C2542 H2532 0.950 . S
C2542 C2543 1.386 . S
C2542 C2544 1.391 . S
C2543 C2542 1.386 . S
C2543 C2547 1.393 . S
C2544 H2533 0.950 . S
C2544 C2542 1.391 . S
C2544 C2545 1.400 . S
C2545 C2539 1.491 . S
C2545 C2544 1.400 . S
C2545 C2546 1.398 . S
C2546 H2534 0.950 . S
C2546 C2545 1.398 . S
C2546 C2547 1.391 . S
C2547 H2535 0.950 . S
C2547 C2543 1.393 . S
C2547 C2546 1.391 . S
H2548 C2556 0.950 . S
H2549 C2561 0.950 . S
H2550 C2558 0.950 . S
H2551 C2560 0.950 . S
H2552 C2562 0.950 1_655 S
H2553 C2564 0.950 . S
H2554 C2566 0.950 . S
H2555 C2567 0.950 1_655 S
C2556 H2548 0.950 . S
C2556 C2557 1.386 . S
C2556 C2558 1.391 . S
C2557 C2556 1.386 . S
C2557 C2561 1.393 . S
C2558 H2550 0.950 . S
C2558 C2556 1.391 . S
C2558 C2559 1.400 . S
C2559 C2558 1.400 . S
C2559 C2560 1.398 . S
C2559 C2565 1.491 . S
C2560 H2551 0.950 . S
C2560 C2559 1.398 . S
C2560 C2561 1.391 . S
C2561 H2549 0.950 . S
C2561 C2557 1.393 . S
C2561 C2560 1.391 . S
C2562 H2552 0.950 1_455 S
C2562 C2563 1.386 1_455 S
C2562 C2564 1.391 . S
C2563 C2562 1.386 1_655 S
C2563 C2567 1.393 1_655 S
C2564 H2553 0.950 . S
C2564 C2562 1.391 . S
C2564 C2565 1.400 . S
C2565 C2559 1.491 . S
C2565 C2564 1.400 . S
C2565 C2566 1.398 . S
C2566 H2554 0.950 . S
C2566 C2565 1.398 . S
C2566 C2567 1.391 . S
C2567 H2555 0.950 1_455 S
C2567 C2563 1.393 1_455 S
C2567 C2566 1.391 . S
C663 C328 0.909 . S
C657 C0 0.933 . S
C677 C18 1.486 . S
C683 C350 1.601 . S
C703 C372 1.057 . S
C697 C34 1.210 . S
C723 C389 1.342 . S
C717 C49 1.345 . S
C743 C347 1.537 . S
C737 C62 1.536 . S
C757 C73 1.177 . S
C763 C367 1.128 . S
C783 C392 1.335 . S
C777 C83 1.264 . S
C797 C91 1.086 . S
C803 C327 0.957 . S
C817 C109 1.196 . S
C823 C330 1.127 . S
C843 C349 1.223 . S
C837 C125 1.281 . S
C863 C371 1.323 . S
C857 C130 1.288 . S
C883 C388 1.245 . S
C877 C153 1.348 1_556 S
C903 C346 1.142 . S
C897 C114 1.225 . S
C923 C369 1.035 . S
C917 C117 1.112 . S
C937 C138 1.157 . S
C943 C391 1.059 . S
C963 C326 1.047 . S
C957 C148 0.983 . S
C977 C161 1.283 . S
C983 C329 1.383 . S
C997 C169 0.984 . S
C1003 C411 0.908 . S
C1023 C431 1.199 1_455 S
C1017 C190 1.208 . S
C1043 C456 1.045 . S
C1037 C205 1.264 . S
C1057 C213 1.358 . S
C1063 C325 1.362 . S
C1077 C229 1.387 . S
C1083 C370 1.350 . S
C1103 C453 1.195 . S
C1097 C182 1.465 . S
C1123 C414 0.783 . S
C1117 C244 0.874 . S
C1143 C472 1.044 . S
C1137 C21 1.105 . S
C1163 C497 1.552 . S
C1157 C5 1.455 . S
C1177 C39 1.001 . S
C1183 C514 0.978 . S
C1197 C36 1.093 . S
C1203 C536 1.080 . S
C1217 C101 1.622 . S
C1223 C494 1.631 . S
C1237 C78 1.057 . S
C1243 C519 0.937 . S
C1263 C539 1.288 . S
C1257 C70 1.155 . S
C1277 C60 1.334 . S
C1283 C477 1.206 . S
C1297 C257 1.040 . S
C1303 C474 0.994 . S
C1323 C496 1.403 . S
C1317 C203 1.497 . S
C1343 C516 1.271 . S
C1337 C208 1.444 . S
C1363 C535 1.135 . S
C1357 C174 1.132 . S
C1383 C493 0.985 . S
C1377 C252 0.994 . S
C1403 C518 0.917 . S
C1397 C195 0.917 . S
C1423 C538 0.840 . S
C1417 C216 0.850 . S
C1437 C179 1.316 . S
C1443 C476 1.350 . S
C1463 C473 1.311 . S
C1457 C270 1.297 . S
C1477 C143 0.853 . S
C1483 C558 0.835 . S
C1503 C578 1.222 . S
C1497 C281 1.229 . S
C1517 C122 1.235 . S
C1523 C603 1.137 . S
C1543 C475 1.353 . S
C1537 C140 1.400 . S
C1563 C515 1.343 . S
C1557 C294 1.350 . S
C1583 C600 1.076 . S
C1577 C273 1.300 . S
C1597 C304 0.781 . S
C1603 C561 0.774 . S
C1617 C26 0.878 . S
C1623 C622 0.870 . S
C1637 C44 1.330 . S
C1643 C413 1.463 . S
C1663 C435 1.068 . S
C1657 C8 1.220 . S
C1677 C23 1.152 . S
C1683 C452 1.152 . S
C1697 C88 1.297 . S
C1703 C410 1.298 . S
C1717 C99 1.175 . S
C1723 C430 1.094 . S
C1743 C455 1.290 . S
C1737 C57 1.173 . S
C1763 C621 0.924 . S
C1757 C65 1.036 . S
C1783 C624 0.969 . S
C1777 C278 0.991 . S
C1803 C412 0.995 . S
C1797 C268 1.058 . S
C1823 C434 1.357 . S
C1817 C299 1.327 . S
C1837 C296 1.286 . S
C1843 C451 1.207 . S
C1863 C409 1.001 . S
C1857 C283 1.063 . S
C1877 C260 1.126 . S
C1883 C432 1.030 . S
C1903 C454 0.880 . S
C1897 C307 0.952 . S
C1917 C291 0.909 . S
C1923 C620 0.932 . S
C1943 C623 1.130 . S
C1937 C200 1.038 . S
C1957 C221 0.870 . S
C1963 C348 0.845 . S
C1983 C368 1.274 . S
C1977 C255 1.254 . S
C1997 C166 1.239 . S
C2003 C393 1.056 . S
C2023 C619 1.181 . S
C2017 C239 1.176 . S
C2043 C433 1.269 . S
C2037 C177 1.326 . S
C2063 C390 1.149 . S
C2057 C247 1.343 . S
C2083 C351 0.821 . S
C2077 C218 0.839 . S
C2097 C47 1.078 . S
C2103 C640 1.002 . S
C2117 C31 1.513 . S
C2123 C560 1.623 . S
C2137 C13 1.118 . S
C2143 C582 0.981 . S
C2163 C599 1.190 . S
C2157 C10 1.201 . S
C2183 C557 1.545 . S
C2177 C75 1.518 . S
C2197 C52 0.980 . S
C2203 C577 0.944 . S
C2223 C602 1.221 . S
C2217 C96 1.106 . S
C2237 C86 1.298 . S
C2243 C645 1.116 . S
C2263 C642 1.007 . S
C2257 C192 1.075 . S
C2277 C164 1.274 . S
C2283 C559 1.173 . S
C2297 C234 1.244 . S
C2303 C581 1.245 . S
C2323 C598 1.102 . S
C2317 C226 1.105 . S
C2343 C556 1.109 . S
C2337 C187 1.118 . S
C2357 C156 1.126 . S
C2363 C579 1.023 . S
C2383 C601 1.001 . S
C2377 C242 1.085 . S
C2403 C644 1.297 . S
C2397 C231 1.249 . S
C2423 C641 1.376 . S
C2417 C127 1.361 . S
C2443 C495 0.959 . S
C2437 C286 1.103 . S
C2457 C112 1.390 . S
C2463 C517 1.326 . S
C2477 C265 1.118 . S
C2483 C540 0.987 . S
C2503 C643 1.337 . S
C2497 C309 1.380 . S
C2523 C580 1.373 . S
C2517 C151 1.455 1_556 S
C2543 C537 0.967 . S
C2537 C104 1.156 . S
C2563 C498 0.787 . S
C2557 C135 0.814 . S
