# Generated by pormake.
# Topology gar, (4,6)-cn, num edge types: 1
# Building blocks:
#     Node 0, Type 0, BuildingBlock: QUQFOY_clean_sbu_3, # of connection points: 4
#     Node 1, Type 0, BuildingBlock: QUQFOY_clean_sbu_3, # of connection points: 4
#     Node 2, Type 0, BuildingBlock: QUQFOY_clean_sbu_3, # of connection points: 4
#     Node 3, Type 0, BuildingBlock: QUQFOY_clean_sbu_3, # of connection points: 4
#     Node 4, Type 0, BuildingBlock: QUQFOY_clean_sbu_3, # of connection points: 4
#     Node 5, Type 0, BuildingBlock: QUQFOY_clean_sbu_3, # of connection points: 4
#     Node 6, Type 0, BuildingBlock: QUQFOY_clean_sbu_3, # of connection points: 4
#     Node 7, Type 0, BuildingBlock: QUQFOY_clean_sbu_3, # of connection points: 4
#     Node 8, Type 0, BuildingBlock: QUQFOY_clean_sbu_3, # of connection points: 4
#     Node 9, Type 0, BuildingBlock: QUQFOY_clean_sbu_3, # of connection points: 4
#     Node 10, Type 0, BuildingBlock: QUQFOY_clean_sbu_3, # of connection points: 4
#     Node 11, Type 0, BuildingBlock: QUQFOY_clean_sbu_3, # of connection points: 4
#     Node 12, Type 0, BuildingBlock: QUQFOY_clean_sbu_3, # of connection points: 4
#     Node 13, Type 0, BuildingBlock: QUQFOY_clean_sbu_3, # of connection points: 4
#     Node 14, Type 0, BuildingBlock: QUQFOY_clean_sbu_3, # of connection points: 4
#     Node 15, Type 0, BuildingBlock: QUQFOY_clean_sbu_3, # of connection points: 4
#     Node 16, Type 0, BuildingBlock: QUQFOY_clean_sbu_3, # of connection points: 4
#     Node 17, Type 0, BuildingBlock: QUQFOY_clean_sbu_3, # of connection points: 4
#     Node 18, Type 0, BuildingBlock: QUQFOY_clean_sbu_3, # of connection points: 4
#     Node 19, Type 0, BuildingBlock: QUQFOY_clean_sbu_3, # of connection points: 4
#     Node 20, Type 0, BuildingBlock: QUQFOY_clean_sbu_3, # of connection points: 4
#     Node 21, Type 0, BuildingBlock: QUQFOY_clean_sbu_3, # of connection points: 4
#     Node 22, Type 0, BuildingBlock: QUQFOY_clean_sbu_3, # of connection points: 4
#     Node 23, Type 0, BuildingBlock: QUQFOY_clean_sbu_3, # of connection points: 4
#     Node 24, Type 1, BuildingBlock: PAMTUU_clean_sbu_0, # of connection points: 6
#     Node 25, Type 1, BuildingBlock: PAMTUU_clean_sbu_0, # of connection points: 6
#     Node 26, Type 1, BuildingBlock: PAMTUU_clean_sbu_0, # of connection points: 6
#     Node 27, Type 1, BuildingBlock: PAMTUU_clean_sbu_0, # of connection points: 6
#     Node 28, Type 1, BuildingBlock: PAMTUU_clean_sbu_0, # of connection points: 6
#     Node 29, Type 1, BuildingBlock: PAMTUU_clean_sbu_0, # of connection points: 6
#     Node 30, Type 1, BuildingBlock: PAMTUU_clean_sbu_0, # of connection points: 6
#     Node 31, Type 1, BuildingBlock: PAMTUU_clean_sbu_0, # of connection points: 6
#     Node 32, Type 1, BuildingBlock: PAMTUU_clean_sbu_0, # of connection points: 6
#     Node 33, Type 1, BuildingBlock: PAMTUU_clean_sbu_0, # of connection points: 6
#     Node 34, Type 1, BuildingBlock: PAMTUU_clean_sbu_0, # of connection points: 6
#     Node 35, Type 1, BuildingBlock: PAMTUU_clean_sbu_0, # of connection points: 6
#     Node 36, Type 1, BuildingBlock: PAMTUU_clean_sbu_0, # of connection points: 6
#     Node 37, Type 1, BuildingBlock: PAMTUU_clean_sbu_0, # of connection points: 6
#     Node 38, Type 1, BuildingBlock: PAMTUU_clean_sbu_0, # of connection points: 6
#     Node 39, Type 1, BuildingBlock: PAMTUU_clean_sbu_0, # of connection points: 6
#     Edge 40, Type (0, 1), BuildingBlock: UVAHIK_clean_linker_0, # of connection points: 2
#     Edge 41, Type (0, 1), BuildingBlock: UVAHIK_clean_linker_0, # of connection points: 2
#     Edge 42, Type (0, 1), BuildingBlock: UVAHIK_clean_linker_0, # of connection points: 2
#     Edge 43, Type (0, 1), BuildingBlock: UVAHIK_clean_linker_0, # of connection points: 2
#     Edge 44, Type (0, 1), BuildingBlock: UVAHIK_clean_linker_0, # of connection points: 2
#     Edge 45, Type (0, 1), BuildingBlock: UVAHIK_clean_linker_0, # of connection points: 2
#     Edge 46, Type (0, 1), BuildingBlock: UVAHIK_clean_linker_0, # of connection points: 2
#     Edge 47, Type (0, 1), BuildingBlock: UVAHIK_clean_linker_0, # of connection points: 2
#     Edge 48, Type (0, 1), BuildingBlock: UVAHIK_clean_linker_0, # of connection points: 2
#     Edge 49, Type (0, 1), BuildingBlock: UVAHIK_clean_linker_0, # of connection points: 2
#     Edge 50, Type (0, 1), BuildingBlock: UVAHIK_clean_linker_0, # of connection points: 2
#     Edge 51, Type (0, 1), BuildingBlock: UVAHIK_clean_linker_0, # of connection points: 2
#     Edge 52, Type (0, 1), BuildingBlock: UVAHIK_clean_linker_0, # of connection points: 2
#     Edge 53, Type (0, 1), BuildingBlock: UVAHIK_clean_linker_0, # of connection points: 2
#     Edge 54, Type (0, 1), BuildingBlock: UVAHIK_clean_linker_0, # of connection points: 2
#     Edge 55, Type (0, 1), BuildingBlock: UVAHIK_clean_linker_0, # of connection points: 2
#     Edge 56, Type (0, 1), BuildingBlock: UVAHIK_clean_linker_0, # of connection points: 2
#     Edge 57, Type (0, 1), BuildingBlock: UVAHIK_clean_linker_0, # of connection points: 2
#     Edge 58, Type (0, 1), BuildingBlock: UVAHIK_clean_linker_0, # of connection points: 2
#     Edge 59, Type (0, 1), BuildingBlock: UVAHIK_clean_linker_0, # of connection points: 2
#     Edge 60, Type (0, 1), BuildingBlock: UVAHIK_clean_linker_0, # of connection points: 2
#     Edge 61, Type (0, 1), BuildingBlock: UVAHIK_clean_linker_0, # of connection points: 2
#     Edge 62, Type (0, 1), BuildingBlock: UVAHIK_clean_linker_0, # of connection points: 2
#     Edge 63, Type (0, 1), BuildingBlock: UVAHIK_clean_linker_0, # of connection points: 2
#     Edge 64, Type (0, 1), BuildingBlock: UVAHIK_clean_linker_0, # of connection points: 2
#     Edge 65, Type (0, 1), BuildingBlock: UVAHIK_clean_linker_0, # of connection points: 2
#     Edge 66, Type (0, 1), BuildingBlock: UVAHIK_clean_linker_0, # of connection points: 2
#     Edge 67, Type (0, 1), BuildingBlock: UVAHIK_clean_linker_0, # of connection points: 2
#     Edge 68, Type (0, 1), BuildingBlock: UVAHIK_clean_linker_0, # of connection points: 2
#     Edge 69, Type (0, 1), BuildingBlock: UVAHIK_clean_linker_0, # of connection points: 2
#     Edge 70, Type (0, 1), BuildingBlock: UVAHIK_clean_linker_0, # of connection points: 2
#     Edge 71, Type (0, 1), BuildingBlock: UVAHIK_clean_linker_0, # of connection points: 2
#     Edge 72, Type (0, 1), BuildingBlock: UVAHIK_clean_linker_0, # of connection points: 2
#     Edge 73, Type (0, 1), BuildingBlock: UVAHIK_clean_linker_0, # of connection points: 2
#     Edge 74, Type (0, 1), BuildingBlock: UVAHIK_clean_linker_0, # of connection points: 2
#     Edge 75, Type (0, 1), BuildingBlock: UVAHIK_clean_linker_0, # of connection points: 2
#     Edge 76, Type (0, 1), BuildingBlock: UVAHIK_clean_linker_0, # of connection points: 2
#     Edge 77, Type (0, 1), BuildingBlock: UVAHIK_clean_linker_0, # of connection points: 2
#     Edge 78, Type (0, 1), BuildingBlock: UVAHIK_clean_linker_0, # of connection points: 2
#     Edge 79, Type (0, 1), BuildingBlock: UVAHIK_clean_linker_0, # of connection points: 2
#     Edge 80, Type (0, 1), BuildingBlock: UVAHIK_clean_linker_0, # of connection points: 2
#     Edge 81, Type (0, 1), BuildingBlock: UVAHIK_clean_linker_0, # of connection points: 2
#     Edge 82, Type (0, 1), BuildingBlock: UVAHIK_clean_linker_0, # of connection points: 2
#     Edge 83, Type (0, 1), BuildingBlock: UVAHIK_clean_linker_0, # of connection points: 2
#     Edge 84, Type (0, 1), BuildingBlock: UVAHIK_clean_linker_0, # of connection points: 2
#     Edge 85, Type (0, 1), BuildingBlock: UVAHIK_clean_linker_0, # of connection points: 2
#     Edge 86, Type (0, 1), BuildingBlock: UVAHIK_clean_linker_0, # of connection points: 2
#     Edge 87, Type (0, 1), BuildingBlock: UVAHIK_clean_linker_0, # of connection points: 2
#     Edge 88, Type (0, 1), BuildingBlock: UVAHIK_clean_linker_0, # of connection points: 2
#     Edge 89, Type (0, 1), BuildingBlock: UVAHIK_clean_linker_0, # of connection points: 2
#     Edge 90, Type (0, 1), BuildingBlock: UVAHIK_clean_linker_0, # of connection points: 2
#     Edge 91, Type (0, 1), BuildingBlock: UVAHIK_clean_linker_0, # of connection points: 2
#     Edge 92, Type (0, 1), BuildingBlock: UVAHIK_clean_linker_0, # of connection points: 2
#     Edge 93, Type (0, 1), BuildingBlock: UVAHIK_clean_linker_0, # of connection points: 2
#     Edge 94, Type (0, 1), BuildingBlock: UVAHIK_clean_linker_0, # of connection points: 2
#     Edge 95, Type (0, 1), BuildingBlock: UVAHIK_clean_linker_0, # of connection points: 2
#     Edge 96, Type (0, 1), BuildingBlock: UVAHIK_clean_linker_0, # of connection points: 2
#     Edge 97, Type (0, 1), BuildingBlock: UVAHIK_clean_linker_0, # of connection points: 2
#     Edge 98, Type (0, 1), BuildingBlock: UVAHIK_clean_linker_0, # of connection points: 2
#     Edge 99, Type (0, 1), BuildingBlock: UVAHIK_clean_linker_0, # of connection points: 2
#     Edge 100, Type (0, 1), BuildingBlock: UVAHIK_clean_linker_0, # of connection points: 2
#     Edge 101, Type (0, 1), BuildingBlock: UVAHIK_clean_linker_0, # of connection points: 2
#     Edge 102, Type (0, 1), BuildingBlock: UVAHIK_clean_linker_0, # of connection points: 2
#     Edge 103, Type (0, 1), BuildingBlock: UVAHIK_clean_linker_0, # of connection points: 2
#     Edge 104, Type (0, 1), BuildingBlock: UVAHIK_clean_linker_0, # of connection points: 2
#     Edge 105, Type (0, 1), BuildingBlock: UVAHIK_clean_linker_0, # of connection points: 2
#     Edge 106, Type (0, 1), BuildingBlock: UVAHIK_clean_linker_0, # of connection points: 2
#     Edge 107, Type (0, 1), BuildingBlock: UVAHIK_clean_linker_0, # of connection points: 2
#     Edge 108, Type (0, 1), BuildingBlock: UVAHIK_clean_linker_0, # of connection points: 2
#     Edge 109, Type (0, 1), BuildingBlock: UVAHIK_clean_linker_0, # of connection points: 2
#     Edge 110, Type (0, 1), BuildingBlock: UVAHIK_clean_linker_0, # of connection points: 2
#     Edge 111, Type (0, 1), BuildingBlock: UVAHIK_clean_linker_0, # of connection points: 2
#     Edge 112, Type (0, 1), BuildingBlock: UVAHIK_clean_linker_0, # of connection points: 2
#     Edge 113, Type (0, 1), BuildingBlock: UVAHIK_clean_linker_0, # of connection points: 2
#     Edge 114, Type (0, 1), BuildingBlock: UVAHIK_clean_linker_0, # of connection points: 2
#     Edge 115, Type (0, 1), BuildingBlock: UVAHIK_clean_linker_0, # of connection points: 2
#     Edge 116, Type (0, 1), BuildingBlock: UVAHIK_clean_linker_0, # of connection points: 2
#     Edge 117, Type (0, 1), BuildingBlock: UVAHIK_clean_linker_0, # of connection points: 2
#     Edge 118, Type (0, 1), BuildingBlock: UVAHIK_clean_linker_0, # of connection points: 2
#     Edge 119, Type (0, 1), BuildingBlock: UVAHIK_clean_linker_0, # of connection points: 2
#     Edge 120, Type (0, 1), BuildingBlock: UVAHIK_clean_linker_0, # of connection points: 2
#     Edge 121, Type (0, 1), BuildingBlock: UVAHIK_clean_linker_0, # of connection points: 2
#     Edge 122, Type (0, 1), BuildingBlock: UVAHIK_clean_linker_0, # of connection points: 2
#     Edge 123, Type (0, 1), BuildingBlock: UVAHIK_clean_linker_0, # of connection points: 2
#     Edge 124, Type (0, 1), BuildingBlock: UVAHIK_clean_linker_0, # of connection points: 2
#     Edge 125, Type (0, 1), BuildingBlock: UVAHIK_clean_linker_0, # of connection points: 2
#     Edge 126, Type (0, 1), BuildingBlock: UVAHIK_clean_linker_0, # of connection points: 2
#     Edge 127, Type (0, 1), BuildingBlock: UVAHIK_clean_linker_0, # of connection points: 2
#     Edge 128, Type (0, 1), BuildingBlock: UVAHIK_clean_linker_0, # of connection points: 2
#     Edge 129, Type (0, 1), BuildingBlock: UVAHIK_clean_linker_0, # of connection points: 2
#     Edge 130, Type (0, 1), BuildingBlock: UVAHIK_clean_linker_0, # of connection points: 2
#     Edge 131, Type (0, 1), BuildingBlock: UVAHIK_clean_linker_0, # of connection points: 2
#     Edge 132, Type (0, 1), BuildingBlock: UVAHIK_clean_linker_0, # of connection points: 2
#     Edge 133, Type (0, 1), BuildingBlock: UVAHIK_clean_linker_0, # of connection points: 2
#     Edge 134, Type (0, 1), BuildingBlock: UVAHIK_clean_linker_0, # of connection points: 2
#     Edge 135, Type (0, 1), BuildingBlock: UVAHIK_clean_linker_0, # of connection points: 2
# Relax obj value: 0.147
# Max RMSD: 0.307
# Mean RMSD: 0.152
data_MOF--net-gar--node1-QUQFOY_clean_sbu_3--node2-PAMTUU_clean_sbu_0--edge1-UVAHIK_clean_linker_0
_symmetry_space_group_name_H-M    P1
_symmetry_Int_Tables_number       1
_symmetry_cell_setting            triclinic
loop_
_symmetry_equiv_pos_as_xyz
'x, y, z'
_cell_length_a     76.500119
_cell_length_b     73.580858
_cell_length_c     76.147129
_cell_angle_alpha  94.338705
_cell_angle_beta   93.122055
_cell_angle_gamma 106.43493
loop_
_atom_site_label
_atom_site_type_symbol
_atom_site_fract_x
_atom_site_fract_y
_atom_site_fract_z
_atom_type_partial_charge
C0 C 0.00306 0.26949 0.35449 0.0
O1 O 0.01556 0.28117 0.34736 0.0
Cd2 Cd 0.04718 0.29019 0.35819 0.0
O3 O 0.00791 0.26081 0.3673 0.0
Cd4 Cd 0.04163 0.2624 0.38437 0.0
C5 C 0.04593 0.31226 0.39901 0.0
O6 O 0.06122 0.26401 0.3569 0.0
O7 O 0.07701 0.27122 0.38158 0.0
O8 O 0.03361 0.22575 0.38777 0.0
C9 C 0.07701 0.26757 0.36498 0.0
O10 O 0.04958 0.31457 0.38308 0.0
C11 C 0.03738 0.22633 0.40434 0.0
O12 O 0.04232 0.29521 0.40387 0.0
O13 O 0.04243 0.24318 0.41204 0.0
C14 C 0.99718 0.77548 0.6844 0.0
O15 O 0.00528 0.76496 0.69195 0.0
Cd16 Cd 0.034 0.76047 0.68277 0.0
O17 O 0.00484 0.7843 0.67145 0.0
Cd18 Cd 0.0369 0.78749 0.65501 0.0
C19 C 0.03092 0.73723 0.64153 0.0
O20 O 0.05948 0.7892 0.68279 0.0
O21 O 0.07047 0.78729 0.65778 0.0
O22 O 0.04173 0.82358 0.65162 0.0
C23 C 0.07337 0.78859 0.67448 0.0
O24 O 0.03161 0.73599 0.65813 0.0
C25 C 0.03956 0.82299 0.63487 0.0
O26 O 0.03151 0.75354 0.63593 0.0
O27 O 0.03648 0.80631 0.62709 0.0
C28 C 0.50227 0.76734 0.85396 0.0
O29 O 0.51411 0.77775 0.84515 0.0
Cd30 Cd 0.54578 0.78923 0.85664 0.0
O31 O 0.50792 0.76074 0.86785 0.0
Cd32 Cd 0.54163 0.76216 0.88425 0.0
C33 C 0.54433 0.81161 0.8977 0.0
O34 O 0.56128 0.76431 0.85665 0.0
O35 O 0.57689 0.77067 0.88148 0.0
O36 O 0.53327 0.72555 0.8879 0.0
C37 C 0.57703 0.7678 0.86481 0.0
O38 O 0.54737 0.81354 0.88156 0.0
C39 C 0.53745 0.72626 0.90442 0.0
O40 O 0.54156 0.79484 0.90305 0.0
O41 O 0.54288 0.74318 0.91197 0.0
C42 C 0.49691 0.27402 0.18324 0.0
O43 O 0.50502 0.26328 0.19041 0.0
Cd44 Cd 0.5341 0.25931 0.18179 0.0
O45 O 0.50464 0.28345 0.17065 0.0
Cd46 Cd 0.53667 0.28722 0.15403 0.0
C47 C 0.53093 0.23681 0.14024 0.0
O48 O 0.55901 0.28854 0.1818 0.0
O49 O 0.57061 0.28847 0.15693 0.0
O50 O 0.54138 0.32337 0.15096 0.0
C51 C 0.5732 0.28891 0.17359 0.0
O52 O 0.5316 0.23534 0.1568 0.0
C53 C 0.53896 0.32291 0.13424 0.0
O54 O 0.5316 0.25324 0.13482 0.0
O55 O 0.5357 0.30627 0.12632 0.0
C56 C 0.03971 0.77756 0.14872 0.0
O57 O 0.0495 0.77045 0.15851 0.0
Cd58 Cd 0.08021 0.77101 0.15463 0.0
O59 O 0.04599 0.7864 0.1356 0.0
Cd60 Cd 0.07482 0.79545 0.12044 0.0
C61 C 0.07066 0.74867 0.11177 0.0
O62 O 0.09449 0.80185 0.14684 0.0
O63 O 0.10836 0.80114 0.1231 0.0
O64 O 0.07095 0.82655 0.11962 0.0
C65 C 0.10939 0.8034 0.13985 0.0
O66 O 0.07491 0.74895 0.12823 0.0
C67 C 0.07115 0.82705 0.10302 0.0
O68 O 0.06913 0.76354 0.105 0.0
O69 O 0.07302 0.81249 0.09408 0.0
C70 C 0.47362 0.76258 0.38772 0.0
O71 O 0.4868 0.77243 0.37994 0.0
Cd72 Cd 0.51778 0.78209 0.38991 0.0
O73 O 0.47654 0.75538 0.40196 0.0
Cd74 Cd 0.50518 0.75566 0.42038 0.0
C75 C 0.51158 0.80186 0.43101 0.0
O76 O 0.5245 0.75389 0.39677 0.0
O77 O 0.53909 0.76611 0.42174 0.0
O78 O 0.49481 0.72156 0.42285 0.0
C79 C 0.5396 0.75957 0.40596 0.0
O80 O 0.51683 0.8036 0.41549 0.0
C81 C 0.49912 0.72271 0.43931 0.0
O82 O 0.5059 0.7856 0.43677 0.0
O83 O 0.50502 0.73933 0.44728 0.0
C84 C 0.53992 0.2776 0.64844 0.0
O85 O 0.54982 0.27048 0.65811 0.0
Cd86 Cd 0.58085 0.27215 0.65449 0.0
O87 O 0.54625 0.28693 0.6356 0.0
Cd88 Cd 0.57528 0.29713 0.62077 0.0
C89 C 0.57263 0.25066 0.61126 0.0
O90 O 0.59448 0.30356 0.64766 0.0
O91 O 0.60901 0.30414 0.62426 0.0
O92 O 0.56866 0.32715 0.61974 0.0
C93 C 0.60964 0.30582 0.64101 0.0
O94 O 0.57679 0.25077 0.62771 0.0
C95 C 0.57026 0.3284 0.60335 0.0
O96 O 0.57052 0.26547 0.60477 0.0
O97 O 0.57437 0.3149 0.59471 0.0
C98 C 0.97149 0.25989 0.88865 0.0
O99 O 0.98362 0.27051 0.88028 0.0
Cd100 Cd 0.01525 0.28106 0.88815 0.0
O101 O 0.97574 0.25263 0.90238 0.0
Cd102 Cd 0.00549 0.25388 0.91894 0.0
C103 C 0.01058 0.29983 0.93006 0.0
O104 O 0.02427 0.25387 0.89447 0.0
O105 O 0.03912 0.26559 0.91956 0.0
O106 O 0.9973 0.21982 0.92072 0.0
C107 C 0.03949 0.25982 0.9035 0.0
O108 O 0.0151 0.30211 0.91435 0.0
C109 C 1.00095 0.22075 0.93728 0.0
O110 O 0.00567 0.28342 0.93562 0.0
O111 O 0.00568 0.23722 0.94564 0.0
C112 C 0.45722 0.03613 0.32116 0.0
O113 O 0.46808 0.03553 0.30925 0.0
Cd114 Cd 0.4566 0.03057 0.27906 0.0
O115 O 0.4409 0.03629 0.31762 0.0
Cd116 Cd 0.41888 0.03729 0.29489 0.0
C117 C 0.41958 0.99263 0.28558 0.0
O118 O 0.44067 0.05379 0.27742 0.0
O119 O 0.41477 0.0403 0.26298 0.0
O120 O 0.41317 0.0632 0.31202 0.0
C121 C 0.4311 0.05075 0.2629 0.0
O122 O 0.43458 0.99858 0.27839 0.0
C123 C 0.39625 0.05791 0.30703 0.0
O124 O 0.41171 0.0039 0.29294 0.0
O125 O 0.38964 0.04113 0.2995 0.0
C126 C 0.31833 0.1592 0.52615 0.0
O127 O 0.30564 0.15001 0.53492 0.0
Cd128 Cd 0.27489 0.15095 0.53558 0.0
O129 O 0.31595 0.1717 0.51625 0.0
Cd130 Cd 0.29059 0.18627 0.50938 0.0
C131 C 0.28549 0.19765 0.55319 0.0
O132 O 0.26704 0.15646 0.50675 0.0
O133 O 0.25703 0.18086 0.50547 0.0
O134 O 0.29769 0.18694 0.47855 0.0
C135 C 0.25346 0.16294 0.50517 0.0
O136 O 0.27755 0.18001 0.55374 0.0
C137 C 0.29857 0.20426 0.47722 0.0
O138 O 0.29314 0.20405 0.53946 0.0
O139 O 0.29685 0.2139 0.49129 0.0
C140 C 0.12777 0.02662 0.84442 0.0
O141 O 0.11729 0.0302 0.8325 0.0
Cd142 Cd 0.11855 0.02901 0.80138 0.0
O143 O 0.14092 0.02007 0.84077 0.0
Cd144 Cd 0.15447 0.01566 0.81387 0.0
C145 C 0.15912 0.06233 0.81258 0.0
O146 O 0.12976 0.0036 0.79138 0.0
O147 O 0.15617 0.01708 0.7825 0.0
O148 O 0.16307 0.98786 0.82045 0.0
C149 C 0.13942 0.00842 0.77855 0.0
O150 O 0.14349 0.05819 0.80401 0.0
C151 C 0.17963 0.99546 0.81746 0.0
O152 O 0.16553 0.04955 0.81832 0.0
O153 O 0.18451 0.01304 0.81512 0.0
C154 C 0.32503 0.9374 0.97991 0.0
O155 O 0.31817 0.94893 0.97241 0.0
Cd156 Cd 0.28598 0.94248 0.96887 0.0
O157 O 0.31537 0.92421 0.98804 0.0
Cd158 Cd 0.28556 0.90872 0.99655 0.0
C159 C 0.28545 0.89707 0.95347 0.0
O160 O 0.27518 0.93569 -0.00297 0.0
O161 O 0.25387 0.9088 0.99595 0.0
O162 O 0.29823 0.91346 0.02665 0.0
C163 C 0.2584 0.92689 -0.00268 0.0
O164 O 0.28449 0.91365 0.95087 0.0
C165 C 0.29381 0.89591 0.02905 0.0
O166 O 0.28534 0.8914 0.96885 0.0
O167 O 0.2852 0.88408 0.01622 0.0
C168 C 0.31704 0.39686 0.01603 0.0
O169 O 0.30695 0.40324 0.00583 0.0
Cd170 Cd 0.27487 0.39334 0.00035 0.0
O171 O 0.31024 0.38324 0.02536 0.0
Cd172 Cd 0.2788 0.36215 0.02888 0.0
C173 C 0.27508 0.34856 0.98428 0.0
O174 O 0.26562 0.38751 0.02875 0.0
O175 O 0.24539 0.36031 0.02579 0.0
O176 O 0.2864 0.36452 0.0606 0.0
C177 C 0.24893 0.37831 0.02745 0.0
O178 O 0.27126 0.36397 0.98182 0.0
C179 C 0.28115 0.34681 0.06227 0.0
O180 O 0.27959 0.34477 -0.00031 0.0
O181 O 0.27537 0.3358 0.04815 0.0
C182 C 0.81375 0.11358 0.05107 0.0
O183 O 0.80037 0.10289 0.05802 0.0
Cd184 Cd 0.77047 0.10557 0.06002 0.0
O185 O 0.81242 0.12828 0.04393 0.0
Cd186 Cd 0.7894 0.1445 0.03858 0.0
C187 C 0.78243 0.15116 0.08119 0.0
O188 O 0.76453 0.11665 0.03323 0.0
O189 O 0.75797 0.1429 0.03992 0.0
O190 O 0.79316 0.14553 0.0076 0.0
C191 C 0.75252 0.12514 0.03564 0.0
O192 O 0.77388 0.13348 0.08005 0.0
C193 C 0.79304 0.1627 0.0072 0.0
O194 O 0.79145 0.15886 0.06871 0.0
O195 O 0.79391 0.17236 0.022 0.0
C196 C 0.12062 0.51256 0.26432 0.0
O197 O 0.10959 0.51742 0.25386 0.0
Cd198 Cd 0.1124 0.52057 0.22325 0.0
O199 O 0.13398 0.50733 0.25893 0.0
Cd200 Cd 0.14787 0.50245 0.23201 0.0
C201 C 0.15622 0.55003 0.23456 0.0
O202 O 0.12213 0.49466 0.21248 0.0
O203 O 0.14777 0.50202 0.20035 0.0
O204 O 0.14616 0.4731 0.24297 0.0
C205 C 0.1305 0.49845 0.19874 0.0
O206 O 0.13984 0.54749 0.22817 0.0
C207 C 0.16252 0.47389 0.2401 0.0
O208 O 0.16237 0.53614 0.23782 0.0
O209 O 0.17227 0.48827 0.23331 0.0
C210 C 0.81619 0.8986 0.51931 0.0
O211 O 0.80633 0.90723 0.51142 0.0
Cd212 Cd 0.77424 0.89706 0.50567 0.0
O213 O 0.80908 0.88314 0.52612 0.0
Cd214 Cd 0.77737 0.86192 0.52871 0.0
C215 C 0.77479 0.8541 0.48366 0.0
O216 O 0.76224 0.88641 0.53214 0.0
O217 O 0.74427 0.85856 0.52358 0.0
O218 O 0.78533 0.86245 0.56017 0.0
C219 C 0.74607 0.87583 0.52873 0.0
O220 O 0.77216 0.87046 0.48402 0.0
C221 C 0.77979 0.84464 0.56125 0.0
O222 O 0.77786 0.84711 0.49803 0.0
O223 O 0.77358 0.83427 0.54683 0.0
C224 C 0.94561 0.02101 0.24988 0.0
O225 O 0.95455 0.01559 0.23798 0.0
Cd226 Cd 0.9471 0.01327 0.20701 0.0
O227 O 0.93186 0.02683 0.24604 0.0
Cd228 Cd 0.91396 0.03145 0.22021 0.0
C229 C 0.90516 0.98414 0.21347 0.0
O230 O 0.93814 0.04107 0.20354 0.0
O231 O 0.91221 0.03331 0.18814 0.0
O232 O 0.91415 0.05991 0.23671 0.0
C233 C 0.92952 0.03908 0.18859 0.0
O234 O 0.92024 0.98573 0.20652 0.0
C235 C 0.89715 0.0575 0.23349 0.0
O236 O 0.90053 0.9985 0.21954 0.0
O237 O 0.88785 0.04263 0.22388 0.0
C238 C 0.31453 0.61303 0.55345 0.0
O239 O 0.30226 0.60203 0.56147 0.0
Cd240 Cd 0.27098 0.60024 0.56284 0.0
O241 O 0.31117 0.62594 0.54475 0.0
Cd242 Cd 0.28557 0.638 0.53758 0.0
C243 C 0.27598 0.64649 0.5796 0.0
O244 O 0.26371 0.60751 0.53466 0.0
O245 O 0.25336 0.63196 0.53591 0.0
O246 O 0.28917 0.64001 0.50659 0.0
C247 C 0.25019 0.61408 0.53525 0.0
O248 O 0.27045 0.62858 0.58055 0.0
C249 C 0.28927 0.65731 0.50684 0.0
O250 O 0.28357 0.65363 0.56618 0.0
O251 O 0.28977 0.66631 0.52188 0.0
C252 C 0.44276 0.52296 0.7535 0.0
O253 O 0.45107 0.51559 0.74226 0.0
Cd254 Cd 0.44686 0.51191 0.71111 0.0
O255 O 0.43034 0.53043 0.74881 0.0
Cd256 Cd 0.41486 0.53398 0.72066 0.0
C257 C 0.4026 0.48615 0.71328 0.0
O258 O 0.43987 0.53976 0.70445 0.0
O259 O 0.41437 0.53279 0.68846 0.0
O260 O 0.41363 0.56509 0.72932 0.0
C261 C 0.43159 0.53606 0.68924 0.0
O262 O 0.41831 0.48653 0.70826 0.0
C263 C 0.39627 0.56048 0.72804 0.0
O264 O 0.39887 0.50122 0.7189 0.0
O265 O 0.38754 0.54323 0.72316 0.0
C266 C 0.62865 0.01733 0.76883 0.0
O267 O 0.61539 0.02038 0.75996 0.0
Cd268 Cd 0.61314 0.02289 0.72934 0.0
O269 O 0.64173 0.01318 0.76156 0.0
Cd270 Cd 0.65166 0.00773 0.73246 0.0
C271 C 0.65595 0.05449 0.73631 0.0
O272 O 0.62383 0.99832 0.71752 0.0
O273 O 0.64578 0.00745 0.70056 0.0
O274 O 0.64918 0.97856 0.74297 0.0
C275 C 0.6287 0.00225 0.70237 0.0
O276 O 0.63907 0.05116 0.7313 0.0
C277 C 0.66525 0.97834 0.7399 0.0
O278 O 0.66348 0.04134 0.73848 0.0
O279 O 0.67539 0.99219 0.73261 0.0
C280 C 0.816 0.6592 0.02431 0.0
O281 O 0.803 0.64811 0.03135 0.0
Cd282 Cd 0.77329 0.65123 0.0329 0.0
O283 O 0.8138 0.67326 0.01654 0.0
Cd284 Cd 0.78826 0.68758 0.01008 0.0
C285 C 0.78758 0.69705 0.05437 0.0
O286 O 0.76436 0.65803 0.00448 0.0
O287 O 0.7549 0.6826 0.00986 0.0
O288 O 0.79652 0.6877 0.97981 0.0
C289 C 0.75102 0.6649 0.00524 0.0
O290 O 0.78017 0.67917 0.05394 0.0
C291 C 0.7963 0.70453 0.97755 0.0
O292 O 0.79273 0.70483 0.04033 0.0
O293 O 0.79328 0.71434 0.99094 0.0
C294 C 0.96285 0.5437 0.82265 0.0
O295 O 0.97127 0.53867 0.81011 0.0
Cd296 Cd 0.95735 0.52946 0.78071 0.0
O297 O 0.94662 0.54459 0.81999 0.0
Cd298 Cd 0.92297 0.5397 0.79706 0.0
C299 C 0.92129 0.49402 0.79242 0.0
O300 O 0.94165 0.55222 0.77451 0.0
O301 O 0.91476 0.53439 0.76527 0.0
O302 O 0.91581 0.56752 0.80892 0.0
C303 C 0.9299 0.54529 0.76164 0.0
O304 O 0.93499 0.49851 0.78316 0.0
C305 C 0.89869 0.55983 0.8062 0.0
O306 O 0.91524 0.50661 0.80023 0.0
O307 O 0.89314 0.54207 0.80155 0.0
C308 C 0.81531 0.44302 0.48209 0.0
O309 O 0.8077 0.45211 0.47212 0.0
Cd310 Cd 0.77568 0.4365 0.46673 0.0
O311 O 0.80601 0.42856 0.48891 0.0
Cd312 Cd 0.78088 0.40379 0.49667 0.0
C313 C 0.78413 0.39316 0.45388 0.0
O314 O 0.76669 0.4275 0.49516 0.0
O315 O 0.74851 0.40049 0.50069 0.0
O316 O 0.797 0.41138 0.52572 0.0
C317 C 0.75083 0.41786 0.49812 0.0
O318 O 0.7814 0.40906 0.45124 0.0
C319 C 0.79506 0.39421 0.52867 0.0
O320 O 0.78349 0.387 0.46908 0.0
O321 O 0.78632 0.38135 0.51669 0.0
C322 C 0.62821 0.52435 0.34086 0.0
O323 O 0.61734 0.52726 0.32892 0.0
Cd324 Cd 0.62007 0.52712 0.29801 0.0
O325 O 0.64205 0.51897 0.33727 0.0
Cd326 Cd 0.65692 0.51416 0.31129 0.0
C327 C 0.66062 0.56067 0.31085 0.0
O328 O 0.63268 0.50263 0.28859 0.0
O329 O 0.65938 0.51543 0.27993 0.0
O330 O 0.66426 0.48654 0.31984 0.0
C331 C 0.64246 0.5077 0.2759 0.0
O332 O 0.64494 0.5565 0.30235 0.0
C333 C 0.68131 0.49357 0.31847 0.0
O334 O 0.66739 0.54792 0.31606 0.0
O335 O 0.68692 0.51077 0.31492 0.0
Tb336 Tb 0.06062 0.03494 0.02135 0.0
Tb337 Tb 0.01587 0.01472 0.01882 0.0
C338 C 0.03774 0.03687 0.05286 0.0
C339 C 0.10901 0.04174 0.02881 0.0
C340 C 0.13504 0.02516 0.04233 0.0
C341 C 0.13539 0.04367 0.04877 0.0
C342 C 0.12244 0.05191 0.04202 0.0
C343 C 0.10845 0.02311 0.02263 0.0
C344 C 0.12142 0.01496 0.02925 0.0
C345 C 0.09447 0.04975 0.02296 0.0
O346 O 0.05916 0.00803 0.03138 0.0
O347 O 0.02784 0.99372 0.02894 0.0
O348 O 0.025 0.01433 0.99266 0.0
O349 O 0.05302 0.0117 0.00074 0.0
O350 O 0.99126 0.00735 0.03105 0.0
O351 O 0.99251 0.99732 0.00383 0.0
O352 O 0.017 0.04223 0.01038 0.0
O353 O 0.0483 0.05563 0.01102 0.0
O354 O 0.05294 0.03436 0.04796 0.0
O355 O 0.02395 0.03563 0.04147 0.0
C356 C 0.04474 0.99371 0.03321 0.0
O357 O 0.08476 0.04158 0.00835 0.0
O358 O 0.08433 0.05293 0.03537 0.0
C359 C 0.03947 0.00936 0.98883 0.0
C360 C 0.96759 0.00804 0.01032 0.0
C361 C 0.94125 0.0246 -0.00247 0.0
C362 C 0.94007 0.00565 0.99188 0.0
C363 C 0.95319 0.99741 -0.00174 0.0
C364 C 0.96913 0.02717 0.01549 0.0
C365 C 0.95602 0.03534 0.00924 0.0
C366 C 0.98196 0.99979 0.01609 0.0
C367 C 0.0314 0.05623 0.00792 0.0
H368 H 0.14573 0.05178 0.0589 0.0
H369 H 0.12278 0.06613 0.04723 0.0
H370 H 0.09798 0.01477 0.01272 0.0
H371 H 0.12103 0.00083 0.02372 0.0
H372 H 0.92886 0.99712 0.98279 0.0
H373 H 0.95212 0.98278 0.99378 0.0
H374 H 0.9804 0.03581 0.02446 0.0
H375 H 0.95711 0.04987 0.01414 0.0
Tb376 Tb 0.2722 0.77553 0.28795 0.0
Tb377 Tb 0.2978 0.7765 0.25355 0.0
C378 C 0.25838 0.77984 0.24909 0.0
C379 C 0.24814 0.76051 0.32751 0.0
C380 C 0.24124 0.7371 0.35528 0.0
C381 C 0.23291 0.75175 0.354 0.0
C382 C 0.23632 0.76336 0.34015 0.0
C383 C 0.25637 0.74583 0.32863 0.0
C384 C 0.25291 0.73418 0.34239 0.0
C385 C 0.25155 0.77257 0.31295 0.0
O386 O 0.27553 0.7475 0.28271 0.0
O387 O 0.27876 0.74847 0.25304 0.0
O388 O 0.31192 0.76727 0.275 0.0
O389 O 0.29962 0.77831 0.29925 0.0
O390 O 0.30013 0.76766 0.22715 0.0
O391 O 0.32351 0.78562 0.24342 0.0
O392 O 0.30427 0.8052 0.26579 0.0
O393 O 0.27946 0.8048 0.28196 0.0
O394 O 0.25469 0.77169 0.26373 0.0
O395 O 0.27511 0.78632 0.2445 0.0
C396 C 0.27405 0.739 0.26675 0.0
O397 O 0.2677 0.78486 0.31364 0.0
O398 O 0.24665 0.76355 0.29727 0.0
C399 C 0.31229 0.77206 0.29201 0.0
C400 C 0.32062 0.79173 0.21386 0.0
C401 C 0.32707 0.81692 0.18735 0.0
C402 C 0.33843 0.80518 0.19012 0.0
C403 C 0.33521 0.79266 0.2033 0.0
C404 C 0.30955 0.80376 0.21147 0.0
C405 C 0.31271 0.81621 0.19829 0.0
C406 C 0.31696 0.77837 0.22746 0.0
C407 C 0.29398 0.81376 0.2744 0.0
H408 H 0.22384 0.75425 0.36374 0.0
H409 H 0.22979 0.77459 0.33934 0.0
H410 H 0.26554 0.74349 0.31892 0.0
H411 H 0.25977 0.72322 0.34323 0.0
H412 H 0.34972 0.80558 0.18202 0.0
H413 H 0.344 0.7836 0.20514 0.0
H414 H 0.2983 0.80334 0.21963 0.0
H415 H 0.30354 0.82484 0.19635 0.0
Tb416 Tb 0.51938 0.02364 0.52408 0.0
Tb417 Tb 0.56279 0.02922 0.51534 0.0
C418 C 0.54571 0.01029 0.54862 0.0
C419 C 0.47558 0.03475 0.53051 0.0
C420 C 0.4534 0.05944 0.53227 0.0
C421 C 0.4515 0.04509 0.54383 0.0
C422 C 0.46249 0.03284 0.54293 0.0
C423 C 0.47786 0.04933 0.51921 0.0
C424 C 0.46681 0.06153 0.52004 0.0
C425 C 0.48671 0.02144 0.52957 0.0
O426 O 0.53615 0.04951 0.5392 0.0
O427 O 0.56066 0.0577 0.52213 0.0
O428 O 0.54583 0.02862 0.4916 0.0
O429 O 0.52678 0.04325 0.5044 0.0
O430 O 0.59092 0.03815 0.52305 0.0
O431 O 0.58096 0.02652 0.49632 0.0
O432 O 0.54997 0.99881 0.51327 0.0
O433 O 0.52006 0.99865 0.50707 0.0
O434 O 0.52898 0.00644 0.54152 0.0
O435 O 0.5598 0.02194 0.54222 0.0
C436 C 0.55013 0.06223 0.53376 0.0
O437 O 0.49209 0.01764 0.51407 0.0
O438 O 0.49972 0.02424 0.54216 0.0
C439 C 0.53411 0.03843 0.49046 0.0
C440 C 0.60599 0.01834 0.50855 0.0
C441 C 0.62626 0.99188 0.50871 0.0
C442 C 0.63188 0.00814 0.49948 0.0
C443 C 0.6218 0.02128 0.49942 0.0
C444 C 0.60022 0.00206 0.51764 0.0
C445 C 0.6103 0.98896 0.51776 0.0
C446 C 0.59505 0.03173 0.50787 0.0
C447 C 0.53297 0.99 0.50742 0.0
H448 H 0.44152 0.04333 0.5536 0.0
H449 H 0.4607 0.0218 0.55188 0.0
H450 H 0.48802 0.05116 0.50962 0.0
H451 H 0.4685 0.07232 0.51085 0.0
H452 H 0.64421 0.01084 0.49253 0.0
H453 H 0.62631 0.03371 0.49222 0.0
H454 H 0.58786 0.99945 0.52456 0.0
H455 H 0.60549 0.97644 0.52477 0.0
Tb456 Tb 0.3075 0.26981 0.77302 0.0
Tb457 Tb 0.26672 0.27657 0.76725 0.0
C458 C 0.27242 0.23891 0.77875 0.0
C459 C 0.35303 0.26637 0.76291 0.0
C460 C 0.38005 0.26733 0.739 0.0
C461 C 0.37771 0.25494 0.75244 0.0
C462 C 0.36434 0.25448 0.76428 0.0
C463 C 0.35497 0.27848 0.74926 0.0
C464 C 0.36842 0.27898 0.73741 0.0
C465 C 0.33893 0.26543 0.77543 0.0
O466 O 0.29641 0.25744 0.74631 0.0
O467 O 0.27503 0.27342 0.7406 0.0
O468 O 0.2875 0.30376 0.77004 0.0
O469 O 0.30998 0.29359 0.75787 0.0
O470 O 0.23853 0.26592 0.76007 0.0
O471 O 0.2508 0.29561 0.76864 0.0
O472 O 0.27185 0.27617 0.79551 0.0
O473 O 0.30329 0.28536 0.79738 0.0
O474 O 0.28898 0.24779 0.78546 0.0
O475 O 0.26358 0.2465 0.76759 0.0
C476 C 0.28556 0.26306 0.73525 0.0
O477 O 0.33555 0.28143 0.78024 0.0
O478 O 0.324 0.25139 0.77182 0.0
C479 C 0.30267 0.3071 0.76214 0.0
C480 C 0.22134 0.2817 0.77719 0.0
C481 C 0.19405 0.28157 0.80058 0.0
C482 C 0.19878 0.29582 0.78898 0.0
C483 C 0.21226 0.29581 0.7773 0.0
C484 C 0.21697 0.26774 0.78913 0.0
C485 C 0.20333 0.26759 0.80063 0.0
C486 C 0.23559 0.2821 0.76488 0.0
C487 C 0.2877 0.28334 0.80471 0.0
H488 H 0.38623 0.24553 0.75379 0.0
H489 H 0.36282 0.24483 0.77453 0.0
H490 H 0.34617 0.28759 0.74782 0.0
H491 H 0.36995 0.28872 0.72724 0.0
H492 H 0.19175 0.30668 0.78866 0.0
H493 H 0.21557 0.30679 0.7683 0.0
H494 H 0.22402 0.25689 0.78952 0.0
H495 H 0.20004 0.25658 0.80961 0.0
Tb496 Tb 0.03958 0.03728 0.53838 0.0
Tb497 Tb 0.03686 0.01165 0.50154 0.0
C498 C 0.00227 0.01147 0.52004 0.0
C499 C 0.04906 0.05765 0.58459 0.0
C500 C 0.06201 0.05306 0.6187 0.0
C501 C 0.04505 0.05666 0.61592 0.0
C502 C 0.03865 0.05901 0.59897 0.0
C503 C 0.06612 0.05428 0.58741 0.0
C504 C 0.07258 0.05211 0.60434 0.0
C505 C 0.04136 0.05815 0.56663 0.0
O506 O 0.0439 0.0114 0.54864 0.0
O507 O 0.03974 0.9926 0.52229 0.0
O508 O 0.06431 0.03061 0.50492 0.0
O509 O 0.06751 0.03741 0.53487 0.0
O510 O 0.02234 0.98721 0.48521 0.0
O511 O 0.04888 0.00408 0.47903 0.0
O512 O 0.03421 0.03806 0.49112 0.0
O513 O 0.03583 0.05609 0.51755 0.0
O514 O 0.01239 0.01739 0.53487 0.0
O515 O 0.0095 0.01331 0.50491 0.0
C516 C 0.04234 0.99475 0.53979 0.0
O517 O 0.05298 0.0622 0.55462 0.0
O518 O 0.02723 0.04388 0.56104 0.0
C519 C 0.07444 0.03779 0.51955 0.0
C520 C 0.02647 0.99313 0.45566 0.0
C521 C 0.01439 0.0016 0.42266 0.0
C522 C 0.02971 0.99468 0.42432 0.0
C523 C 0.03568 0.99044 0.44074 0.0
C524 C 0.01117 1.00001 0.45402 0.0
C525 C 0.00512 0.0041 0.43765 0.0
C526 C 0.034 0.99088 0.47317 0.0
C527 C 0.0346 0.05437 0.49998 0.0
H528 H 0.03671 0.05752 0.62682 0.0
H529 H 0.02539 0.06145 0.597 0.0
H530 H 0.07429 0.05284 0.57649 0.0
H531 H 0.08558 0.04906 0.60611 0.0
H532 H 0.03726 0.99288 0.41301 0.0
H533 H 0.04773 0.98551 0.44186 0.0
H534 H 0.00404 0.00255 0.46545 0.0
H535 H 0.99314 0.00915 0.43673 0.0
Tb536 Tb 0.29544 0.79797 0.76411 0.0
Tb537 Tb 0.27499 0.75085 0.77177 0.0
C538 C 0.29369 0.76489 0.73753 0.0
C539 C 0.29617 0.8468 0.76085 0.0
C540 C 0.27607 0.87215 0.75418 0.0
C541 C 0.2952 0.87808 0.75409 0.0
C542 C 0.30525 0.86533 0.75726 0.0
C543 C 0.27703 0.84088 0.76048 0.0
C544 C 0.26702 0.85338 0.75696 0.0
C545 C 0.30635 0.83359 0.76554 0.0
O546 O 0.26621 0.79325 0.75573 0.0
O547 O 0.25302 0.76124 0.75948 0.0
O548 O 0.26996 0.76109 0.79789 0.0
O549 O 0.28445 0.78627 0.78634 0.0
O550 O 0.2647 0.72405 0.75724 0.0
O551 O 0.26503 0.72713 0.78571 0.0
O552 O 0.30415 0.75821 0.7831 0.0
O553 O 0.31873 0.78824 0.77419 0.0
O554 O 0.29274 0.78236 0.73898 0.0
O555 O 0.2943 0.75541 0.7514 0.0
C556 C 0.25188 0.77784 0.7545 0.0
O557 O 0.30055 0.82426 0.779 0.0
O558 O 0.30908 0.8225 0.75238 0.0
C559 C 0.27768 0.77907 0.80008 0.0
C560 C 0.27394 0.70188 0.77353 0.0
C561 C 0.29901 0.6824 0.78303 0.0
C562 C 0.28285 0.67979 0.79162 0.0
C563 C 0.27037 0.68952 0.78689 0.0
C564 C 0.28982 0.70396 0.76457 0.0
C565 C 0.30219 0.69422 0.76921 0.0
C566 C 0.26333 0.71537 0.77167 0.0
C567 C 0.31916 0.77278 0.78211 0.0
H568 H 0.30233 0.8927 0.75225 0.0
H569 H 0.32002 0.87009 0.75754 0.0
H570 H 0.26983 0.82685 0.76373 0.0
H571 H 0.25232 0.84875 0.75763 0.0
H572 H 0.28011 0.67063 0.80225 0.0
H573 H 0.25836 0.6881 0.79421 0.0
H574 H 0.29307 0.7137 0.75448 0.0
H575 H 0.31432 0.69603 0.76202 0.0
Tb576 Tb 0.53053 0.01076 0.03783 0.0
Tb577 Tb 0.53007 0.03159 0.00205 0.0
C578 C 0.5653 0.03234 0.02198 0.0
C579 C 0.52767 0.99836 0.08327 0.0
C580 C 0.52282 0.01057 0.11787 0.0
C581 C 0.53474 0.99947 0.11479 0.0
C582 C 0.53719 0.99342 0.09751 0.0
C583 C 0.51554 0.00916 0.08633 0.0
C584 C 0.51303 0.0151 0.1035 0.0
C585 C 0.53172 0.99395 0.06526 0.0
O586 O 0.52834 0.03913 0.04818 0.0
O587 O 0.53643 0.05526 0.0236 0.0
O588 O 0.50561 0.03302 0.01359 0.0
O589 O 0.50229 0.00891 0.03155 0.0
O590 O 0.54291 0.05304 0.98659 0.0
O591 O 0.51619 0.03347 0.9781 0.0
O592 O 0.52375 0.00093 0.99241 0.0
O593 O 0.5351 0.99051 0.01684 0.0
O594 O 0.55667 0.03058 0.03626 0.0
O595 O 0.55656 0.02743 0.00644 0.0
C596 C 0.53284 0.05529 0.04049 0.0
O597 O 0.51783 0.9893 0.05345 0.0
O598 O 0.54574 0.00632 0.05998 0.0
C599 C 0.4963 0.02181 0.02434 0.0
C600 C 0.53682 0.04144 0.95672 0.0
C601 C 0.5475 0.02867 0.92464 0.0
C602 C 0.53202 0.03534 0.92491 0.0
C603 C 0.52671 0.04172 0.9409 0.0
C604 C 0.55214 0.03457 0.95649 0.0
C605 C 0.55751 0.02836 0.94056 0.0
C606 C 0.53032 0.04641 0.97354 0.0
C607 C 0.52944 0.98775 -9e-05 0.0
H608 H 0.54244 0.99586 0.12567 0.0
H609 H 0.54679 0.9853 0.09525 0.0
H610 H 0.50825 0.01329 0.07544 0.0
H611 H 0.50344 0.02329 0.10553 0.0
H612 H 0.52403 0.03558 0.91279 0.0
H613 H 0.51462 0.04661 0.94096 0.0
H614 H 0.55992 0.03388 0.96862 0.0
H615 H 0.5697 0.02364 0.94071 0.0
Tb616 Tb 0.27645 0.24983 0.26118 0.0
Tb617 Tb 0.29345 0.29343 0.2758 0.0
C618 C 0.27549 0.28267 0.23726 0.0
C619 C 0.27712 0.20246 0.25198 0.0
C620 C 0.30241 0.18181 0.25497 0.0
C621 C 0.2881 0.17616 0.24151 0.0
C622 C 0.27545 0.18656 0.23999 0.0
C623 C 0.29144 0.20799 0.26533 0.0
C624 C 0.304 0.19784 0.26677 0.0
C625 C 0.26612 0.21536 0.24948 0.0
O626 O 0.30675 0.25522 0.26085 0.0
O627 O 0.31447 0.28733 0.25947 0.0
O628 O 0.30408 0.27775 0.29477 0.0
O629 O 0.28185 0.24946 0.28943 0.0
O630 O 0.30734 0.32163 0.27192 0.0
O631 O 0.30046 0.31363 0.29788 0.0
O632 O 0.2655 0.28578 0.2853 0.0
O633 O 0.25165 0.25817 0.26768 0.0
O634 O 0.27702 0.26557 0.23834 0.0
O635 O 0.2774 0.29455 0.25148 0.0
C636 C 0.31857 0.27116 0.25697 0.0
O637 O 0.26075 0.22187 0.26395 0.0
O638 O 0.27344 0.22898 0.23992 0.0
C639 C 0.29483 0.26145 0.2999 0.0
C640 C 0.29562 0.34147 0.28993 0.0
C641 C 0.27313 0.36485 0.29583 0.0
C642 C 0.2905 0.36942 0.30496 0.0
C643 C 0.30171 0.35762 0.30208 0.0
C644 C 0.27844 0.33718 0.28062 0.0
C645 C 0.26733 0.34881 0.28347 0.0
C646 C 0.30581 0.32764 0.28814 0.0
C647 C 0.25058 0.27188 0.27954 0.0
H648 H 0.28672 0.16379 0.23229 0.0
H649 H 0.26471 0.18248 0.22935 0.0
H650 H 0.29326 0.22057 0.2744 0.0
H651 H 0.31517 0.20274 0.27697 0.0
H652 H 0.29521 0.38185 0.31444 0.0
H653 H 0.31488 0.36086 0.30953 0.0
H654 H 0.27345 0.32458 0.27136 0.0
H655 H 0.25421 0.34529 0.27589 0.0
Tb656 Tb 0.53803 0.53767 0.03888 0.0
Tb657 Tb 0.53959 0.51292 0.0025 0.0
C658 C 0.50321 0.51022 0.01854 0.0
C659 C 0.54441 0.55653 0.08563 0.0
C660 C 0.55825 0.55307 0.1197 0.0
C661 C 0.53988 0.55257 0.11655 0.0
C662 C 0.53303 0.55444 0.09962 0.0
C663 C 0.56285 0.55717 0.08885 0.0
C664 C 0.56974 0.55559 0.10579 0.0
C665 C 0.5366 0.55656 0.06758 0.0
O666 O 0.54623 0.51303 0.04834 0.0
O667 O 0.53762 0.49265 0.02295 0.0
O668 O 0.56773 0.52191 0.01373 0.0
O669 O 0.56622 0.54677 0.03302 0.0
O670 O 0.52813 0.48773 0.98595 0.0
O671 O 0.55181 0.50916 0.97901 0.0
O672 O 0.54131 0.54153 0.99393 0.0
O673 O 0.53055 0.55438 0.01794 0.0
O674 O 0.5124 0.51576 0.03384 0.0
O675 O 0.51141 0.51325 0.00397 0.0
C676 C 0.54238 0.49559 0.04015 0.0
O677 O 0.54816 0.56269 0.05595 0.0
O678 O 0.52409 0.54109 0.06138 0.0
C679 C 0.5756 0.53756 0.02397 0.0
C680 C 0.5295 0.4945 0.95635 0.0
C681 C 0.51438 0.50119 0.92393 0.0
C682 C 0.53045 0.4955 0.9247 0.0
C683 C 0.53796 0.49217 0.94084 0.0
C684 C 0.51323 0.49975 0.95556 0.0
C685 C 0.50569 0.50299 0.93947 0.0
C686 C 0.53875 0.4938 0.9735 0.0
C687 C 0.53553 0.55531 0.00152 0.0
H688 H 0.53083 0.55062 0.12716 0.0
H689 H 0.51875 0.55378 0.09735 0.0
H690 H 0.57187 0.55847 0.07823 0.0
H691 H 0.5839 0.55575 0.10793 0.0
H692 H 0.53753 0.49421 0.91294 0.0
H693 H 0.55067 0.48841 0.94129 0.0
H694 H 0.50659 0.50187 0.96744 0.0
H695 H 0.49315 0.50707 0.93922 0.0
Tb696 Tb 0.79819 0.30218 0.26233 0.0
Tb697 Tb 0.77457 0.25243 0.27043 0.0
C698 C 0.7945 0.27291 0.23693 0.0
C699 C 0.79649 0.35046 0.26421 0.0
C700 C 0.77001 0.36859 0.25547 0.0
C701 C 0.78365 0.36823 0.24401 0.0
C702 C 0.79681 0.35914 0.24834 0.0
C703 C 0.78337 0.35181 0.27604 0.0
C704 C 0.77023 0.36072 0.27166 0.0
C705 C 0.80782 0.33767 0.26713 0.0
O706 O 0.7684 0.29566 0.25264 0.0
O707 O 0.7531 0.26449 0.25969 0.0
O708 O 0.7705 0.26331 0.29676 0.0
O709 O 0.78405 0.28516 0.28133 0.0
O710 O 0.77081 0.22831 0.25266 0.0
O711 O 0.76024 0.22615 0.27859 0.0
O712 O 0.80419 0.25897 0.28061 0.0
O713 O 0.81965 0.29008 0.27338 0.0
O714 O 0.80282 0.29069 0.23619 0.0
O715 O 0.78864 0.27034 0.25236 0.0
C716 C 0.75321 0.28091 0.25307 0.0
O717 O 0.80349 0.32671 0.2799 0.0
O718 O 0.81079 0.32833 0.25285 0.0
C719 C 0.77855 0.2813 0.29676 0.0
C720 C 0.7745 0.2038 0.26885 0.0
C721 C 0.79489 0.17995 0.2793 0.0
C722 C 0.77587 0.17447 0.2803 0.0
C723 C 0.7657 0.18644 0.27516 0.0
C724 C 0.79355 0.20941 0.26818 0.0
C725 C 0.80367 0.19753 0.27332 0.0
C726 C 0.76428 0.21705 0.26471 0.0
C727 C 0.81942 0.27369 0.28022 0.0
H728 H 0.78389 0.37461 0.23163 0.0
H729 H 0.80682 0.35832 0.23901 0.0
H730 H 0.7828 0.34544 0.28844 0.0
H731 H 0.76022 0.3615 0.28102 0.0
H732 H 0.76892 0.16087 0.28482 0.0
H733 H 0.75105 0.18221 0.27613 0.0
H734 H 0.80066 0.22296 0.26366 0.0
H735 H 0.81828 0.20185 0.27206 0.0
Tb736 Tb 0.04135 0.51576 0.53887 0.0
Tb737 Tb 0.02995 0.53173 0.50293 0.0
C738 C 0.06902 0.54321 0.51813 0.0
C739 C 0.0432 0.50767 0.58528 0.0
C740 C 0.03129 0.51484 0.61852 0.0
C741 C 0.04252 0.5028 0.61638 0.0
C742 C 0.04856 0.49932 0.59979 0.0
C743 C 0.03209 0.51977 0.58752 0.0
C744 C 0.02628 0.52344 0.60403 0.0
C745 C 0.04806 0.50305 0.56756 0.0
O746 O 0.03338 0.54154 0.54845 0.0
O747 O 0.03526 0.5566 0.52288 0.0
O748 O 0.00684 0.52756 0.51857 0.0
O749 O 0.01268 0.50325 0.53201 0.0
O750 O 0.03484 0.55275 0.4853 0.0
O751 O 0.01187 0.52739 0.48023 0.0
O752 O 0.02864 0.50148 0.49547 0.0
O753 O 0.04807 0.49714 0.51763 0.0
O754 O 0.0636 0.53938 0.53369 0.0
O755 O 0.05885 0.53536 0.50376 0.0
C756 C 0.03426 0.55705 0.54023 0.0
O757 O 0.03412 0.49474 0.55638 0.0
O758 O 0.05967 0.51678 0.56082 0.0
C759 C 0.00166 0.51311 0.52786 0.0
C760 C 0.0293 0.53764 0.45687 0.0
C761 C 0.04391 0.52929 0.4254 0.0
C762 C 0.02941 0.53756 0.42513 0.0
C763 C 0.02214 0.54175 0.44086 0.0
C764 C 0.04346 0.52902 0.45708 0.0
C765 C 0.05077 0.52497 0.44151 0.0
C766 C 0.02233 0.54209 0.47359 0.0
C767 C 0.03891 0.49141 0.50198 0.0
H768 H 0.04641 0.49598 0.62746 0.0
H769 H 0.05702 0.48982 0.5982 0.0
H770 H 0.02747 0.52597 0.57641 0.0
H771 H 0.01732 0.53245 0.60533 0.0
H772 H 0.02379 0.54086 0.41281 0.0
H773 H 0.01109 0.54827 0.44054 0.0
H774 H 0.04903 0.52563 0.46938 0.0
H775 H 0.06213 0.5189 0.44215 0.0
Tb776 Tb 0.8059 0.76909 0.27245 0.0
Tb777 Tb 0.76528 0.77611 0.26807 0.0
C778 C 0.77132 0.73892 0.2805 0.0
C779 C 0.85127 0.76539 0.26106 0.0
C780 C 0.87843 0.76631 0.23732 0.0
C781 C 0.87531 0.75318 0.25013 0.0
C782 C 0.86187 0.75275 0.26189 0.0
C783 C 0.85395 0.77822 0.24799 0.0
C784 C 0.86746 0.77868 0.23621 0.0
C785 C 0.83738 0.76472 0.27379 0.0
O786 O 0.79274 0.75498 0.24684 0.0
O787 O 0.77324 0.77291 0.24121 0.0
O788 O 0.78614 0.80312 0.27013 0.0
O789 O 0.80769 0.7924 0.25672 0.0
O790 O 0.73707 0.76558 0.26094 0.0
O791 O 0.74947 0.79521 0.26985 0.0
O792 O 0.77129 0.77644 0.29636 0.0
O793 O 0.80275 0.78531 0.29684 0.0
O794 O 0.7882 0.74777 0.28632 0.0
O795 O 0.76208 0.74617 0.26939 0.0
C796 C 0.78257 0.76135 0.2357 0.0
O797 O 0.83412 0.78079 0.27856 0.0
O798 O 0.82239 0.75068 0.27063 0.0
C799 C 0.80047 0.80599 0.26104 0.0
C800 C 0.71992 0.78141 0.27807 0.0
C801 C 0.6926 0.78149 0.30131 0.0
C802 C 0.6977 0.79593 0.28997 0.0
C803 C 0.7112 0.79581 0.27835 0.0
C804 C 0.71517 0.76723 0.28975 0.0
C805 C 0.7015 0.7672 0.30118 0.0
C806 C 0.73423 0.78179 0.26589 0.0
C807 C 0.78756 0.78353 0.30479 0.0
H808 H 0.88332 0.74323 0.25109 0.0
H809 H 0.85981 0.74259 0.27171 0.0
H810 H 0.84574 0.78797 0.24699 0.0
H811 H 0.86962 0.789 0.22653 0.0
H812 H 0.69095 0.80703 0.2898 0.0
H813 H 0.71482 0.80695 0.26954 0.0
H814 H 0.72194 0.75615 0.29 0.0
H815 H 0.69789 0.75603 0.30997 0.0
Tb816 Tb 0.77435 0.27744 0.78738 0.0
Tb817 Tb 0.79764 0.27509 0.75205 0.0
C818 C 0.75803 0.27843 0.74864 0.0
C819 C 0.75232 0.26416 0.82836 0.0
C820 C 0.74415 0.23938 0.85508 0.0
C821 C 0.73607 0.25426 0.85409 0.0
C822 C 0.74011 0.26654 0.84078 0.0
C823 C 0.76026 0.24922 0.82916 0.0
C824 C 0.7562 0.23692 0.8424 0.0
C825 C 0.75604 0.27665 0.8141 0.0
O826 O 0.77648 0.24882 0.78344 0.0
O827 O 0.77909 0.24721 0.7535 0.0
O828 O 0.81118 0.2652 0.77351 0.0
O829 O 0.80303 0.28263 0.79623 0.0
O830 O 0.79896 0.26574 0.72556 0.0
O831 O 0.82317 0.28266 0.74144 0.0
O832 O 0.80529 0.30424 0.76351 0.0
O833 O 0.78043 0.30562 0.77877 0.0
O834 O 0.75522 0.27185 0.76411 0.0
O835 O 0.7744 0.28406 0.74296 0.0
C836 C 0.77485 0.23905 0.76802 0.0
O837 O 0.77287 0.28721 0.81381 0.0
O838 O 0.74927 0.26845 0.7985 0.0
C839 C 0.81371 0.27301 0.78985 0.0
C840 C 0.81993 0.28921 0.71208 0.0
C841 C 0.82697 0.31495 0.68604 0.0
C842 C 0.83761 0.30237 0.68817 0.0
C843 C 0.83409 0.28957 0.7011 0.0
C844 C 0.80961 0.30207 0.71034 0.0
C845 C 0.81305 0.31479 0.6974 0.0
C846 C 0.81604 0.27572 0.72555 0.0
C847 C 0.79502 0.31375 0.77089 0.0
H848 H 0.72665 0.25641 0.86361 0.0
H849 H 0.7337 0.27788 0.84018 0.0
H850 H 0.76964 0.24714 0.81957 0.0
H851 H 0.76289 0.2258 0.84299 0.0
H852 H 0.84859 0.30234 0.67977 0.0
H853 H 0.84234 0.2799 0.70246 0.0
H854 H 0.79872 0.30211 0.71886 0.0
H855 H 0.80444 0.3241 0.69598 0.0
Tb856 Tb 0.77688 0.75187 0.76119 0.0
Tb857 Tb 0.79342 0.79488 0.77698 0.0
C858 C 0.77474 0.78408 0.73789 0.0
C859 C 0.78042 0.7062 0.749 0.0
C860 C 0.80623 0.68602 0.75012 0.0
C861 C 0.78856 0.67723 0.74198 0.0
C862 C 0.77561 0.68736 0.74143 0.0
C863 C 0.7982 0.71498 0.75661 0.0
C864 C 0.811 0.70503 0.75713 0.0
C865 C 0.76762 0.71752 0.74921 0.0
O866 O 0.8041 0.76178 0.75046 0.0
O867 O 0.81798 0.78541 0.77193 0.0
O868 O 0.79019 0.77858 0.79942 0.0
O869 O 0.79286 0.75114 0.78585 0.0
O870 O 0.80977 0.82257 0.77435 0.0
O871 O 0.79782 0.81538 0.79873 0.0
O872 O 0.76327 0.78997 0.77799 0.0
O873 O 0.75447 0.75735 0.77606 0.0
O874 O 0.76589 0.76723 0.74225 0.0
O875 O 0.78735 0.79603 0.74886 0.0
C876 C 0.81923 0.77387 0.7582 0.0
O877 O 0.76444 0.72325 0.765 0.0
O878 O 0.77165 0.73148 0.73923 0.0
C879 C 0.79313 0.7621 0.80034 0.0
C880 C 0.79629 0.84355 0.78851 0.0
C881 C 0.77462 0.86815 0.78824 0.0
C882 C 0.78899 0.87131 0.80138 0.0
C883 C 0.79991 0.85897 0.80149 0.0
C884 C 0.78178 0.84042 0.77554 0.0
C885 C 0.77107 0.85267 0.77537 0.0
C886 C 0.8057 0.82907 0.78949 0.0
C887 C 0.75089 0.77365 0.78017 0.0
H888 H 0.78467 0.66247 0.73657 0.0
H889 H 0.76194 0.68051 0.7354 0.0
H890 H 0.8022 0.72956 0.76236 0.0
H891 H 0.8246 0.71214 0.76324 0.0
H892 H 0.7917 0.88319 0.81144 0.0
H893 H 0.81082 0.86118 0.81181 0.0
H894 H 0.77846 0.82821 0.76576 0.0
H895 H 0.75976 0.84985 0.76536 0.0
Tb896 Tb 0.56064 0.53792 0.52457 0.0
Tb897 Tb 0.51573 0.51668 0.51782 0.0
C898 C 0.53388 0.53835 0.55305 0.0
C899 C 0.60924 0.54652 0.5353 0.0
C900 C 0.63798 0.53156 0.54388 0.0
C901 C 0.64034 0.55116 0.54713 0.0
C902 C 0.62593 0.55861 0.54296 0.0
C903 C 0.6067 0.52685 0.53264 0.0
C904 C 0.62097 0.5194 0.53695 0.0
C905 C 0.5943 0.55421 0.53025 0.0
O906 O 0.55849 0.50957 0.53185 0.0
O907 O 0.52707 0.49587 0.52908 0.0
O908 O 0.52749 0.51622 0.49294 0.0
O909 O 0.55625 0.51629 0.50274 0.0
O910 O 0.49009 0.50728 0.52795 0.0
O911 O 0.49361 0.5007 0.50044 0.0
O912 O 0.51751 0.54455 0.51007 0.0
O913 O 0.54887 0.55853 0.51307 0.0
O914 O 0.54959 0.536 0.54978 0.0
O915 O 0.52156 0.53771 0.5403 0.0
C916 C 0.54382 0.49534 0.53324 0.0
O917 O 0.5862 0.548 0.51452 0.0
O918 O 0.58264 0.55391 0.54214 0.0
C919 C 0.54286 0.51247 0.49037 0.0
C920 C 0.46753 0.50929 0.50664 0.0
C921 C 0.44067 0.52561 0.49474 0.0
C922 C 0.43923 0.50652 0.48936 0.0
C923 C 0.45262 0.49841 0.49528 0.0
C924 C 0.46933 0.52853 0.51151 0.0
C925 C 0.45598 0.53661 0.50568 0.0
C926 C 0.48198 0.5011 0.5122 0.0
C927 C 0.53206 0.55883 0.50874 0.0
H928 H 0.65345 0.56069 0.55238 0.0
H929 H 0.62793 0.5738 0.5453 0.0
H930 H 0.59384 0.51733 0.52678 0.0
H931 H 0.61901 0.50427 0.53404 0.0
H932 H 0.42757 0.4978 0.48089 0.0
H933 H 0.45132 0.48366 0.49107 0.0
H934 H 0.48096 0.53727 0.52001 0.0
H935 H 0.45731 0.55124 0.51037 0.0
Tb936 Tb 0.01146 0.51809 0.02695 0.0
Tb937 Tb 0.06034 0.52657 0.01985 0.0
C938 C 0.0355 0.51009 0.05114 0.0
C939 C 0.96818 0.53173 0.02635 0.0
C940 C 0.94874 0.55895 0.02835 0.0
C941 C 0.94454 0.5436 0.03881 0.0
C942 C 0.95415 0.53006 0.03775 0.0
C943 C 0.97267 0.5473 0.01618 0.0
C944 C 0.96291 0.5607 0.01704 0.0
C945 C 0.97832 0.51747 0.02589 0.0
O946 O 0.02729 0.54654 0.03937 0.0
O947 O 0.05738 0.55378 0.03009 0.0
O948 O 0.04847 0.528 0.9942 0.0
O949 O 0.02603 0.53644 0.00806 0.0
O950 O 0.08151 0.52161 0.03555 0.0
O951 O 0.08635 0.5339 0.01035 0.0
O952 O 0.04666 0.49725 0.00965 0.0
O953 O 0.01498 0.4922 0.013 0.0
O954 O 0.01823 0.50748 0.05177 0.0
O955 O 0.03978 0.51461 0.03569 0.0
C956 C 0.04397 0.55824 0.03812 0.0
O957 O 0.98687 0.51538 0.01183 0.0
O958 O 0.98817 0.5175 0.0404 0.0
C959 C 0.03212 0.53037 0.9936 0.0
C960 C 0.10304 0.51269 0.01795 0.0
C961 C 0.12349 0.4876 0.00834 0.0
C962 C 0.12598 0.50474 0.00049 0.0
C963 C 0.1159 0.51719 0.00531 0.0
C964 C 0.10019 0.49532 0.02546 0.0
C965 C 0.11033 0.48293 0.02073 0.0
C966 C 0.09295 0.52631 0.02328 0.0
C967 C 0.02924 0.48676 0.00782 0.0
H968 H 0.9336 0.54185 0.04757 0.0
H969 H 0.95062 0.51826 0.04586 0.0
H970 H 0.98377 0.54926 0.00769 0.0
H971 H 0.96659 0.57257 0.00904 0.0
H972 H 0.13588 0.50864 0.99078 0.0
H973 H 0.1183 0.53046 -0.00072 0.0
H974 H 0.09035 0.49139 0.03523 0.0
H975 H 0.1083 0.47 0.02726 0.0
C976 C 0.00481 0.20448 0.96441 0.0
C977 C 0.0017 0.20369 0.94596 0.0
C978 C 0.00783 0.18892 0.97224 0.0
C979 C 0.02527 0.14832 0.96211 0.0
H980 H 1.00054 0.12744 0.00237 0.0
C981 C 0.04342 0.08875 -0.00228 0.0
C982 C 0.0285 0.07372 0.00152 0.0
C983 C 0.04065 0.10533 0.99188 0.0
C984 C 0.00753 0.13314 0.99112 0.0
H985 H 0.99876 0.18583 0.92132 0.0
H986 H 0.00415 0.15885 0.93498 0.0
H987 H 0.99413 0.15505 0.99044 0.0
H988 H 0.99895 0.06434 0.00203 0.0
H989 H 0.99418 0.09322 0.99176 0.0
H990 H 0.03849 0.12633 0.96258 0.0
C991 C 0.00433 0.17149 0.94335 0.0
C992 C 0.00397 0.14899 0.9844 0.0
C993 C 1.00109 0.18688 0.93557 0.0
C994 C 0.01076 0.07563 -0.00071 0.0
C995 C 0.00802 0.09224 0.99353 0.0
C996 C 0.02895 0.1326 0.96891 0.0
C997 C 0.00803 0.17248 0.96171 0.0
C998 C 0.01258 0.1565 0.96965 0.0
C999 C 0.02293 0.10725 0.98977 0.0
C1000 C 0.0199 0.12467 0.9833 0.0
H1001 H 0.00537 0.21727 0.97274 0.0
H1002 H 0.01065 0.19001 0.98644 0.0
H1003 H 0.03227 0.15403 0.95086 0.0
H1004 H 0.05727 0.08777 -0.00073 0.0
H1005 H 0.0524 0.11673 0.98917 0.0
C1006 C 0.12604 0.80496 0.16919 0.0
C1007 C 0.12586 0.80313 0.15068 0.0
C1008 C 0.14067 0.80272 0.17962 0.0
C1009 C 0.17827 0.78077 0.17784 0.0
H1010 H 0.19605 0.81239 0.22192 0.0
C1011 C 0.24472 0.78312 0.21936 0.0
C1012 C 0.24309 0.78172 0.23752 0.0
C1013 C 0.23012 0.78495 0.20851 0.0
C1014 C 0.19109 0.80338 0.20971 0.0
H1015 H 0.1411 0.79808 0.12855 0.0
H1016 H 0.16692 0.79447 0.14683 0.0
H1017 H 0.1717 0.81823 0.20319 0.0
H1018 H 0.22506 0.78113 0.25864 0.0
H1019 H 0.19973 0.78484 0.23972 0.0
H1020 H 0.19803 0.76619 0.18434 0.0
C1021 C 0.15556 0.79732 0.15325 0.0
C1022 C 0.17717 0.80668 0.19899 0.0
C1023 C 0.14088 0.79958 0.14279 0.0
C1024 C 0.22665 0.78214 0.24466 0.0
C1025 C 0.21221 0.78433 0.23389 0.0
C1026 C 0.19235 0.7776 0.1885 0.0
C1027 C 0.15549 0.79865 0.17178 0.0
C1028 C 0.17059 0.79541 0.18295 0.0
C1029 C 0.21384 0.78578 0.21575 0.0
C1030 C 0.19883 0.78886 0.20452 0.0
H1031 H 0.11463 0.80768 0.17566 0.0
H1032 H 0.14009 0.80361 0.19383 0.0
H1033 H 0.17325 0.7716 0.16574 0.0
H1034 H 0.25722 0.7827 0.21353 0.0
H1035 H 0.23169 0.78617 0.19456 0.0
C1036 C 0.51864 0.82405 0.45874 0.0
C1037 C 0.51039 0.81894 0.44149 0.0
C1038 C 0.51904 0.84159 0.46756 0.0
C1039 C 0.5148 0.88866 0.45695 0.0
H1040 H 0.51557 0.89864 0.50777 0.0
C1041 C 0.5129 0.96073 0.48989 0.0
C1042 C 0.52812 0.96948 0.50184 0.0
C1043 C 0.50896 0.94145 0.48404 0.0
C1044 C 0.51531 0.89593 0.49356 0.0
H1045 H 0.49487 0.82699 0.42038 0.0
H1046 H 0.49451 0.85687 0.43601 0.0
H1047 H 0.51143 0.86607 0.49471 0.0
H1048 H 0.55057 0.96484 0.51781 0.0
H1049 H 0.54345 0.93103 0.50773 0.0
H1050 H 0.51833 0.9184 0.45581 0.0
C1051 C 0.50155 0.84807 0.44252 0.0
C1052 C 0.51307 0.87737 0.48608 0.0
C1053 C 0.5016 0.83089 0.43359 0.0
C1054 C 0.53888 0.95848 0.50841 0.0
C1055 C 0.53473 0.93914 0.50281 0.0
C1056 C 0.51666 0.90703 0.46438 0.0
C1057 C 0.51084 0.85401 0.45936 0.0
C1058 C 0.5128 0.87352 0.46764 0.0
C1059 C 0.51996 0.93059 0.49032 0.0
C1060 C 0.51701 0.91084 0.48271 0.0
H1061 H 0.52549 0.81493 0.46502 0.0
H1062 H 0.52641 0.84571 0.48046 0.0
H1063 H 0.51529 0.88645 0.44279 0.0
H1064 H 0.50436 0.96888 0.48467 0.0
H1065 H 0.49748 0.93507 0.4744 0.0
C1066 C 0.51053 0.25728 0.65715 0.0
C1067 C 0.52084 0.27493 0.6524 0.0
C1068 C 0.49312 0.25505 0.66285 0.0
C1069 C 0.45674 0.27952 0.66907 0.0
H1070 H 0.44762 0.24818 0.70818 0.0
C1071 C 0.39208 0.26903 0.7088 0.0
C1072 C 0.39498 0.2684 0.72713 0.0
C1073 C 0.40618 0.26921 0.69775 0.0
C1074 C 0.44999 0.25712 0.69737 0.0
H1075 H 0.52102 0.30392 0.64912 0.0
H1076 H 0.49097 0.30049 0.66018 0.0
H1077 H 0.47414 0.24961 0.69201 0.0
H1078 H 0.41513 0.26855 0.74832 0.0
H1079 H 0.43963 0.26914 0.72927 0.0
H1080 H 0.433 0.28791 0.67542 0.0
C1081 C 0.49596 0.28811 0.65895 0.0
C1082 C 0.46508 0.25767 0.6878 0.0
C1083 C 0.51322 0.29016 0.65272 0.0
C1084 C 0.41234 0.26855 0.73421 0.0
C1085 C 0.42638 0.26884 0.72325 0.0
C1086 C 0.44169 0.27917 0.67887 0.0
C1087 C 0.48589 0.27063 0.66455 0.0
C1088 C 0.46883 0.26903 0.67364 0.0
C1089 C 0.42343 0.26885 0.70486 0.0
C1090 C 0.43837 0.26823 0.69336 0.0
H1091 H 0.51607 0.24524 0.6567 0.0
H1092 H 0.48556 0.2412 0.66641 0.0
H1093 H 0.45901 0.2882 0.65809 0.0
H1094 H 0.37881 0.26888 0.70297 0.0
H1095 H 0.40344 0.26914 0.68364 0.0
C1096 C 0.03694 0.83965 0.60652 0.0
C1097 C 0.04035 0.84073 0.62508 0.0
C1098 C 0.0374 0.85606 0.59755 0.0
C1099 C 0.05247 0.91093 0.60355 0.0
H1100 H 0.023 0.90565 0.55948 0.0
C1101 C 0.04625 0.97868 0.56836 0.0
C1102 C 0.04294 0.97743 0.54976 0.0
C1103 C 0.0462 0.96243 0.57745 0.0
C1104 C 0.0316 0.90764 0.57164 0.0
H1105 H 0.04699 0.86086 0.64841 0.0
H1106 H 0.04767 0.88904 0.6331 0.0
H1107 H 0.02244 0.87769 0.57481 0.0
H1108 H 0.03695 0.95711 0.52655 0.0
H1109 H 0.03699 0.92931 0.54205 0.0
H1110 H 0.06156 0.94093 0.60038 0.0
C1111 C 0.04482 0.87552 0.62522 0.0
C1112 C 0.03128 0.89127 0.58061 0.0
C1113 C 0.04431 0.8591 0.63418 0.0
C1114 C 0.03961 0.95907 0.54078 0.0
C1115 C 0.03947 0.94283 0.54986 0.0
C1116 C 0.05277 0.92731 0.59458 0.0
C1117 C 0.04133 0.87452 0.60662 0.0
C1118 C 0.04171 0.89239 0.59685 0.0
C1119 C 0.04271 0.94397 0.56848 0.0
C1120 C 0.04237 0.92618 0.57833 0.0
H1121 H 0.03386 0.826 0.59881 0.0
H1122 H 0.03487 0.85416 0.58332 0.0
H1123 H 0.06106 0.91292 0.61571 0.0
H1124 H 0.04881 0.99231 0.57602 0.0
H1125 H 0.04858 0.9644 0.5917 0.0
C1126 C 0.46897 0.76665 0.8594 0.0
C1127 C 0.48214 0.76421 0.84783 0.0
C1128 C 0.45126 0.76712 0.85289 0.0
C1129 C 0.417 0.7534 0.81254 0.0
H1130 H 0.39591 0.79118 0.83337 0.0
C1131 C 0.34106 0.75389 0.79209 0.0
C1132 C 0.33763 0.77156 0.79008 0.0
C1133 C 0.3583 0.75277 0.79913 0.0
C1134 C 0.40148 0.78049 0.82728 0.0
H1135 H 0.48621 0.76018 0.82005 0.0
H1136 H 0.45557 0.76002 0.80894 0.0
H1137 H 0.42557 0.78912 0.84561 0.0
H1138 H 0.35039 0.80198 0.79457 0.0
H1139 H 0.37993 0.80005 0.80727 0.0
H1140 H 0.39285 0.7446 0.79436 0.0
C1141 C 0.45882 0.76173 0.82309 0.0
C1142 C 0.41861 0.77919 0.83448 0.0
C1143 C 0.47658 0.76176 0.82955 0.0
C1144 C 0.35222 0.78804 0.79573 0.0
C1145 C 0.36931 0.78692 0.80318 0.0
C1146 C 0.3997 0.75441 0.8056 0.0
C1147 C 0.44577 0.76473 0.83454 0.0
C1148 C 0.42688 0.76569 0.82723 0.0
C1149 C 0.37286 0.76926 0.80497 0.0
C1150 C 0.39151 0.76804 0.81271 0.0
H1151 H 0.47261 0.76906 0.8735 0.0
H1152 H 0.44183 0.76941 0.86233 0.0
H1153 H 0.42257 0.74272 0.80642 0.0
H1154 H 0.33043 0.74078 0.78796 0.0
H1155 H 0.36011 0.73882 0.80025 0.0
C1156 C 0.52336 0.20078 0.13439 0.0
C1157 C 0.52977 0.21888 0.12802 0.0
C1158 C 0.52356 0.18381 0.12447 0.0
C1159 C 0.54474 0.16427 0.08597 0.0
H1160 H 0.50747 0.11746 0.0918 0.0
C1161 C 0.54024 0.09177 0.04361 0.0
C1162 C 0.53332 0.07419 0.05077 0.0
C1163 C 0.5401 0.10932 0.05266 0.0
C1164 C 0.51825 0.13022 0.09007 0.0
H1165 H 0.54155 0.23254 0.10549 0.0
H1166 H 0.54191 0.20298 0.08811 0.0
H1167 H 0.50632 0.1473 0.10707 0.0
H1168 H 0.52086 0.06206 0.07371 0.0
H1169 H 0.52063 0.09228 0.08938 0.0
H1170 H 0.55665 0.14709 0.06892 0.0
C1171 C 0.53667 0.20197 0.10103 0.0
C1172 C 0.51757 0.14764 0.09896 0.0
C1173 C 0.53627 0.21909 0.11098 0.0
C1174 C 0.52636 0.07505 0.06754 0.0
C1175 C 0.52609 0.09261 0.07656 0.0
C1176 C 0.54543 0.1468 0.07706 0.0
C1177 C 0.53033 0.18385 0.10758 0.0
C1178 C 0.53084 0.16515 0.09726 0.0
C1179 C 0.53288 0.11024 0.06933 0.0
C1180 C 0.53223 0.12926 0.07893 0.0
H1181 H 0.51829 0.19965 0.14739 0.0
H1182 H 0.51878 0.17058 0.13044 0.0
H1183 H 0.55546 0.17709 0.08426 0.0
H1184 H 0.54575 0.09203 0.0308 0.0
H1185 H 0.54534 0.12219 0.04626 0.0
C1186 C 0.09405 0.26156 0.33752 0.0
C1187 C 0.09449 0.26784 0.35564 0.0
C1188 C 0.1103 0.26178 0.32904 0.0
C1189 C 0.16282 0.28226 0.33493 0.0
H1190 H 0.16169 0.24658 0.29459 0.0
C1191 C 0.22988 0.28739 0.29741 0.0
C1192 C 0.23218 0.27153 0.28711 0.0
C1193 C 0.21319 0.28697 0.30505 0.0
C1194 C 0.16262 0.25668 0.30592 0.0
H1195 H 0.11334 0.27931 0.37868 0.0
H1196 H 0.14117 0.27974 0.36426 0.0
H1197 H 0.13377 0.2455 0.30891 0.0
H1198 H 0.21769 0.24251 0.27716 0.0
H1199 H 0.18919 0.2415 0.2906 0.0
H1200 H 0.19163 0.29314 0.33238 0.0
C1201 C 0.12828 0.27473 0.3563 0.0
C1202 C 0.14619 0.25621 0.31416 0.0
C1203 C 0.11205 0.27436 0.36478 0.0
C1204 C 0.21679 0.2552 0.28479 0.0
C1205 C 0.20013 0.25468 0.2926 0.0
C1206 C 0.17922 0.28272 0.32673 0.0
C1207 C 0.12796 0.26845 0.33815 0.0
C1208 C 0.14577 0.26896 0.32897 0.0
C1209 C 0.19778 0.27053 0.30308 0.0
C1210 C 0.17973 0.26997 0.31194 0.0
H1211 H 0.08103 0.25637 0.32977 0.0
H1212 H 0.10891 0.25693 0.31512 0.0
H1213 H 0.16363 0.29267 0.34599 0.0
H1214 H 0.24108 0.30039 0.29961 0.0
H1215 H 0.21251 0.29984 0.31244 0.0
C1216 C 0.93008 0.02523 0.15774 0.0
C1217 C 0.9392 0.03651 0.17308 0.0
C1218 C 0.94017 0.02027 0.14443 0.0
C1219 C 0.9739 0.03661 0.1202 0.0
H1220 H 0.00377 0.00221 0.12517 0.0
C1221 C 0.03571 0.04886 0.08355 0.0
C1222 C 0.03344 0.03362 0.07073 0.0
C1223 C 0.02647 0.04586 0.09878 0.0
C1224 C 0.99547 0.01183 0.12376 0.0
H1225 H 0.96569 0.0518 0.18647 0.0
H1226 H 0.98311 0.04305 0.16329 0.0
H1227 H 0.97836 0.00053 0.14409 0.0
H1228 H 0.02203 0.00326 0.06398 0.0
H1229 H 0.00541 0.9981 0.09038 0.0
H1230 H 0.99133 0.04868 0.10066 0.0
C1231 C 0.96831 0.03787 0.16175 0.0
C1232 C 0.98087 0.01061 0.13419 0.0
C1233 C 0.95835 0.04308 0.17478 0.0
C1234 C 0.02378 0.01511 0.07392 0.0
C1235 C 0.01445 0.01213 0.08902 0.0
C1236 C 0.98857 0.03804 0.11003 0.0
C1237 C 0.95928 0.02637 0.14667 0.0
C1238 C 0.97035 0.02328 0.1326 0.0
C1239 C 0.01477 0.02773 0.10085 0.0
C1240 C 0.99974 0.02605 0.11213 0.0
H1241 H 0.9153 0.01983 0.15627 0.0
H1242 H 0.93319 0.01171 0.13252 0.0
H1243 H 0.96605 0.04671 0.11919 0.0
H1244 H 0.04324 0.06318 0.08112 0.0
H1245 H 0.0269 0.05799 0.10799 0.0
C1246 C 0.28321 0.6836 0.49087 0.0
C1247 C 0.28539 0.66526 0.49037 0.0
C1248 C 0.27581 0.68959 0.47595 0.0
C1249 C 0.26635 0.67889 0.42766 0.0
H1250 H 0.23173 0.70798 0.43431 0.0
C1251 C 0.23663 0.70612 0.36843 0.0
C1252 C 0.23899 0.7258 0.37066 0.0
C1253 C 0.23775 0.69607 0.38307 0.0
C1254 C 0.24133 0.69981 0.43226 0.0
H1255 H 0.28222 0.63909 0.47366 0.0
H1256 H 0.26928 0.64948 0.44779 0.0
H1257 H 0.24452 0.69644 0.45982 0.0
H1258 H 0.24306 0.75018 0.38992 0.0
H1259 H 0.24524 0.73276 0.41543 0.0
H1260 H 0.26355 0.68259 0.40023 0.0
C1261 C 0.27339 0.65931 0.4596 0.0
C1262 C 0.24875 0.69333 0.44686 0.0
C1263 C 0.28087 0.65338 0.47445 0.0
C1264 C 0.2411 0.73499 0.38782 0.0
C1265 C 0.24229 0.72498 0.40245 0.0
C1266 C 0.25891 0.68532 0.41309 0.0
C1267 C 0.27044 0.67732 0.46029 0.0
C1268 C 0.26166 0.68319 0.44474 0.0
C1269 C 0.24133 0.70559 0.40018 0.0
C1270 C 0.24664 0.69621 0.41527 0.0
H1271 H 0.28652 0.69305 0.50296 0.0
H1272 H 0.27407 0.70372 0.47676 0.0
H1273 H 0.27634 0.67121 0.42558 0.0
H1274 H 0.23464 0.69865 0.35532 0.0
H1275 H 0.23662 0.68105 0.38095 0.0
C1276 C 0.62169 0.01758 0.67585 0.0
C1277 C 0.61584 0.00751 0.69036 0.0
C1278 C 0.60907 0.02278 0.66498 0.0
C1279 C 0.56361 0.99928 0.64946 0.0
H1280 H 0.57418 0.03799 0.61669 0.0
C1281 C 0.53379 0.99846 0.57645 0.0
C1282 C 0.54847 0.00355 0.56572 0.0
C1283 C 0.53728 0.99839 0.59454 0.0
C1284 C 0.57088 0.02727 0.62596 0.0
H1285 H 0.59273 0.99648 0.70589 0.0
H1286 H 0.57098 0.00588 0.68709 0.0
H1287 H 0.5892 0.04516 0.64658 0.0
H1288 H 0.57773 0.00877 0.56446 0.0
H1289 H 0.58378 0.00856 0.59614 0.0
H1290 H 0.54651 0.98093 0.62829 0.0
C1291 C 0.58515 0.00954 0.68401 0.0
C1292 C 0.57931 0.0314 0.64296 0.0
C1293 C 0.59758 0.00392 0.69456 0.0
C1294 C 0.5663 0.00549 0.57264 0.0
C1295 C 0.56975 0.00539 0.59065 0.0
C1296 C 0.55518 0.99518 0.63247 0.0
C1297 C 0.59056 0.01802 0.66864 0.0
C1298 C 0.57671 0.01697 0.65434 0.0
C1299 C 0.55538 0.00325 0.60168 0.0
C1300 C 0.55978 0.00879 0.62044 0.0
H1301 H 0.63581 0.02097 0.67264 0.0
H1302 H 0.61354 0.02917 0.65303 0.0
H1303 H 0.56145 0.98784 0.65799 0.0
H1304 H 0.51983 0.99648 0.57126 0.0
H1305 H 0.5261 0.99632 0.60303 0.0
C1306 C 0.26182 0.32807 0.95647 0.0
C1307 C 0.27701 0.33676 0.96844 0.0
C1308 C 0.26415 0.32033 0.9397 0.0
C1309 C 0.29686 0.32729 0.90597 0.0
H1310 H 0.26615 0.27858 0.88419 0.0
C1311 C 0.30418 0.29791 0.83433 0.0
C1312 C 0.28779 0.2889 0.82392 0.0
C1313 C 0.30398 0.30303 0.85243 0.0
C1314 C 0.27474 0.2923 0.89 0.0
H1315 H 0.30651 0.34449 0.9724 0.0
H1316 H 0.31068 0.33122 0.9429 0.0
H1317 H 0.26365 0.2881 0.91514 0.0
H1318 H 0.25831 0.27839 0.82452 0.0
H1319 H 0.25798 0.28741 0.85579 0.0
H1320 H 0.30757 0.33178 0.8807 0.0
C1321 C 0.29695 0.33002 0.94659 0.0
C1322 C 0.27334 0.2977 0.90776 0.0
C1323 C 0.29457 0.33737 0.96351 0.0
C1324 C 0.27123 0.28522 0.83206 0.0
C1325 C 0.27104 0.29028 0.8501 0.0
C1326 C 0.29817 0.32195 0.88813 0.0
C1327 C 0.28178 0.32166 0.93441 0.0
C1328 C 0.28425 0.31533 0.91591 0.0
C1329 C 0.28739 0.29919 0.86057 0.0
C1330 C 0.28694 0.30448 0.87984 0.0
H1331 H 0.24821 0.32789 0.95987 0.0
H1332 H 0.25222 0.31416 0.93055 0.0
H1333 H 0.30529 0.34107 0.91182 0.0
H1334 H 0.31718 0.30101 0.8285 0.0
H1335 H 0.31684 0.30977 0.8601 0.0
C1336 C 0.94747 0.03209 0.28191 0.0
C1337 C 0.95064 0.01956 0.26843 0.0
C1338 C 0.95329 0.03118 0.29943 0.0
C1339 C 0.98815 0.01575 0.32362 0.0
H1340 H 0.9614 0.02019 0.36479 0.0
C1341 C 0.00728 0.99353 0.39018 0.0
C1342 C 0.00785 0.00588 0.4053 0.0
C1343 C 1.0004 0.99705 0.37392 0.0
C1344 C 0.96906 0.01922 0.35338 0.0
H1345 H 0.96057 0.99512 0.26264 0.0
H1346 H 0.97034 0.99321 0.29321 0.0
H1347 H 0.94756 0.0218 0.33533 0.0
H1348 H 0.00213 0.03189 0.41524 0.0
H1349 H 0.98972 0.03783 0.38665 0.0
H1350 H 0.00943 0.01276 0.34147 0.0
C1351 C 0.96409 0.00423 0.29023 0.0
C1352 C 0.96116 0.02008 0.33659 0.0
C1353 C 0.95856 0.00533 0.27277 0.0
C1354 C 0.00157 0.02196 0.40382 0.0
C1355 C 0.99453 0.02539 0.38753 0.0
C1356 C 0.99595 0.01481 0.34028 0.0
C1357 C 0.96212 0.01755 0.30362 0.0
C1358 C 0.97052 0.0179 0.32156 0.0
C1359 C 0.9939 0.01293 0.37249 0.0
C1360 C 0.98634 0.01614 0.35523 0.0
H1361 H 0.94112 0.04301 0.27882 0.0
H1362 H 0.95158 0.04156 0.30955 0.0
H1363 H 0.99587 0.01461 0.31228 0.0
H1364 H 0.01173 0.98087 0.39097 0.0
H1365 H 0.99979 0.9871 0.3625 0.0
C1366 C 0.27491 0.67827 0.59251 0.0
C1367 C 0.27362 0.65913 0.59453 0.0
C1368 C 0.27437 0.6906 0.60714 0.0
C1369 C 0.29269 0.69865 0.65056 0.0
H1370 H 0.2615 0.73046 0.66218 0.0
C1371 C 0.29774 0.73788 0.71855 0.0
C1372 C 0.29441 0.75566 0.72004 0.0
C1373 C 0.29543 0.72749 0.70221 0.0
C1374 C 0.2705 0.72191 0.65888 0.0
H1375 H 0.26917 0.63743 0.613 0.0
H1376 H 0.26888 0.65926 0.63863 0.0
H1377 H 0.25394 0.70846 0.63515 0.0
H1378 H 0.28718 0.7772 0.7056 0.0
H1379 H 0.28375 0.75916 0.67676 0.0
H1380 H 0.30957 0.71219 0.67374 0.0
C1381 C 0.27016 0.66456 0.62572 0.0
C1382 C 0.26605 0.70928 0.64361 0.0
C1383 C 0.27046 0.65219 0.61111 0.0
C1384 C 0.28982 0.76347 0.70478 0.0
C1385 C 0.28764 0.75309 0.68834 0.0
C1386 C 0.2973 0.71143 0.66556 0.0
C1387 C 0.27273 0.6839 0.62387 0.0
C1388 C 0.277 0.6974 0.63963 0.0
C1389 C 0.29001 0.73483 0.68701 0.0
C1390 C 0.28609 0.72291 0.67006 0.0
H1391 H 0.27693 0.68384 0.57977 0.0
H1392 H 0.27643 0.70556 0.6056 0.0
H1393 H 0.30144 0.68977 0.6474 0.0
H1394 H 0.30149 0.73164 0.73006 0.0
H1395 H 0.29718 0.71336 0.70163 0.0
C1396 C 0.62683 0.0366 0.79591 0.0
C1397 C 0.62924 0.01982 0.78793 0.0
C1398 C 0.62254 0.03745 0.81334 0.0
C1399 C 0.61387 0.0159 0.85395 0.0
H1400 H 0.56483 0.01982 0.84345 0.0
C1401 C 0.56145 0.00793 0.9061 0.0
C1402 C 0.55419 0.02345 0.90782 0.0
C1403 C 0.57071 0.00507 0.89139 0.0
C1404 C 0.57846 0.01872 0.84656 0.0
H1405 H 0.63171 0.9918 0.7919 0.0
H1406 H 0.62325 0.99295 0.82255 0.0
H1407 H 0.58563 0.02226 0.82013 0.0
H1408 H 0.54993 0.04747 0.89517 0.0
H1409 H 0.56586 0.04235 0.86941 0.0
H1410 H 0.60676 0.0129 0.88061 0.0
C1411 C 0.62503 0.00548 0.81545 0.0
C1412 C 0.59034 0.0202 0.83332 0.0
C1413 C 0.62965 0.00476 0.79799 0.0
C1414 C 0.55522 0.03528 0.89408 0.0
C1415 C 0.56438 0.03237 0.87937 0.0
C1416 C 0.60196 0.01456 0.86735 0.0
C1417 C 0.62025 0.02135 0.82268 0.0
C1418 C 0.60819 0.01923 0.83703 0.0
C1419 C 0.57263 0.01759 0.87817 0.0
C1420 C 0.5843 0.01633 0.86376 0.0
H1421 H 0.62687 0.04846 0.78828 0.0
H1422 H 0.619 0.04983 0.81886 0.0
H1423 H 0.62757 0.01491 0.85687 0.0
H1424 H 0.56052 0.99842 0.91642 0.0
H1425 H 0.57676 0.99341 0.89054 0.0
C1426 C 0.28201 0.35224 0.09519 0.0
C1427 C 0.28084 0.33967 0.08001 0.0
C1428 C 0.28075 0.34564 0.11195 0.0
C1429 C 0.28706 0.30738 0.13753 0.0
H1430 H 0.2557 0.324 0.1696 0.0
C1431 C 0.2732 0.27621 0.20431 0.0
C1432 C 0.27348 0.28885 0.21927 0.0
C1433 C 0.27335 0.28218 0.18733 0.0
C1434 C 0.26469 0.3194 0.1609 0.0
H1435 H 0.2778 0.31032 0.07061 0.0
H1436 H 0.27602 0.29881 0.10007 0.0
H1437 H 0.25769 0.33454 0.13991 0.0
H1438 H 0.27354 0.31761 0.22785 0.0
H1439 H 0.27367 0.32807 0.19805 0.0
H1440 H 0.29428 0.29245 0.15854 0.0
C1441 C 0.27777 0.31378 0.0989 0.0
C1442 C 0.26579 0.32539 0.14386 0.0
C1443 C 0.27873 0.32035 0.08204 0.0
C1444 C 0.27328 0.30749 0.21667 0.0
C1445 C 0.27333 0.31347 0.19956 0.0
C1446 C 0.28604 0.30146 0.1546 0.0
C1447 C 0.27854 0.32634 0.11403 0.0
C1448 C 0.27701 0.31948 0.13198 0.0
C1449 C 0.27371 0.30095 0.1847 0.0
C1450 C 0.27483 0.30739 0.16653 0.0
H1451 H 0.28357 0.3672 0.09411 0.0
H1452 H 0.28163 0.35572 0.12333 0.0
H1453 H 0.29602 0.30279 0.12878 0.0
H1454 H 0.27329 0.26169 0.20567 0.0
H1455 H 0.27325 0.27203 0.17622 0.0
C1456 C 0.22794 0.92804 0.0062 0.0
C1457 C 0.24531 0.93745 0.00118 0.0
C1458 C 0.21686 0.93853 0.01295 0.0
C1459 C 0.21025 0.98602 0.0164 0.0
H1460 H 0.18704 0.96969 0.05891 0.0
C1461 C 0.16814 0.02843 0.04776 0.0
C1462 C 0.14993 0.01717 0.04753 0.0
C1463 C 0.18217 0.01987 0.04728 0.0
C1464 C 0.1936 0.97443 0.04714 0.0
H1465 H 0.26425 0.96498 -0.00209 0.0
H1466 H 0.24495 0.98324 0.00979 0.0
H1467 H 0.20574 0.95161 0.0449 0.0
H1468 H 0.13226 0.98867 0.04938 0.0
H1469 H 0.15674 0.97362 0.04797 0.0
H1470 H 0.19792 0.00858 0.01836 0.0
C1471 C 0.2399 0.96785 0.0086 0.0
C1472 C 0.20407 0.96403 0.03903 0.0
C1473 C 0.25095 0.95739 0.00185 0.0
C1474 C 0.14619 0.99757 0.04913 0.0
C1475 C 0.16021 0.989 0.04853 0.0
C1476 C 0.19989 0.99644 0.02453 0.0
C1477 C 0.22302 0.9585 0.01469 0.0
C1478 C 0.21224 0.96961 0.02345 0.0
C1479 C 0.17809 0.99999 0.04645 0.0
C1480 C 0.1913 0.99059 0.03983 0.0
H1481 H 0.22328 0.91266 0.00568 0.0
H1482 H 0.20368 0.93104 0.0172 0.0
H1483 H 0.21626 0.99049 0.0043 0.0
H1484 H 0.17144 0.04358 0.0466 0.0
H1485 H 0.19597 0.0286 0.04598 0.0
C1486 C 0.71967 0.65711 0.01582 0.0
C1487 C 0.73232 0.65219 0.00514 0.0
C1488 C 0.70287 0.64383 0.01759 0.0
C1489 C 0.66922 0.60123 -0.00303 0.0
H1490 H 0.65904 0.58923 0.04478 0.0
C1491 C 0.60529 0.54196 0.01009 0.0
C1492 C 0.59544 0.54663 0.02392 0.0
C1493 C 0.62308 0.55321 0.00827 0.0
C1494 C 0.66155 0.59252 0.03136 0.0
H1495 H 0.73715 0.63009 0.98724 0.0
H1496 H 0.70746 0.6071 0.98985 0.0
H1497 H 0.68681 0.61377 0.03972 0.0
H1498 H 0.59696 0.56583 0.04742 0.0
H1499 H 0.62758 0.58551 0.04408 0.0
H1500 H 0.64371 0.58058 0.98855 0.0
C1501 C 0.71065 0.62108 -0.00298 0.0
C1502 C 0.67744 0.60656 0.0285 0.0
C1503 C 0.72759 0.63418 0.99557 0.0
C1504 C 0.60413 0.56193 0.03653 0.0
C1505 C 0.62181 0.57318 0.03467 0.0
C1506 C 0.65315 0.58739 -0.00017 0.0
C1507 C 0.69837 0.62564 0.00837 0.0
C1508 C 0.68135 0.61107 0.0113 0.0
C1509 C 0.63131 0.56932 0.02023 0.0
C1510 C 0.64907 0.58292 0.01708 0.0
H1511 H 0.72307 0.67087 0.02343 0.0
H1512 H 0.69351 0.64764 0.02635 0.0
H1513 H 0.672 0.60453 0.98359 0.0
H1514 H 0.59896 0.53024 0.00018 0.0
H1515 H 0.63017 0.54961 -0.0028 0.0
C1516 C 0.7096 0.48739 0.30877 0.0
C1517 C 0.69314 0.48111 0.31681 0.0
C1518 C 0.71747 0.47421 0.30102 0.0
C1519 C 0.716 0.42374 0.29635 0.0
H1520 H 0.72636 0.43361 0.24801 0.0
C1521 C 0.73809 0.37015 0.25508 0.0
C1522 C 0.75632 0.37851 0.25165 0.0
C1523 C 0.72665 0.38154 0.25816 0.0
C1524 C 0.72331 0.43066 0.26141 0.0
H1525 H 0.67352 0.45659 0.32551 0.0
H1526 H 0.68737 0.43357 0.31214 0.0
H1527 H 0.71682 0.45679 0.26702 0.0
H1528 H 0.77609 0.4044 0.24576 0.0
H1529 H 0.75609 0.42437 0.25114 0.0
H1530 H 0.72271 0.39779 0.29089 0.0
C1531 C 0.694 0.44857 0.31147 0.0
C1532 C 0.71815 0.44397 0.27235 0.0
C1533 C 0.68609 0.46175 0.31917 0.0
C1534 C 0.76209 0.39774 0.24851 0.0
C1535 C 0.75063 0.40914 0.25157 0.0
C1536 C 0.72104 0.41042 0.2854 0.0
C1537 C 0.70907 0.45467 0.30143 0.0
C1538 C 0.71475 0.44072 0.28999 0.0
C1539 C 0.73341 0.40131 0.25781 0.0
C1540 C 0.72495 0.41388 0.26793 0.0
H1541 H 0.71546 0.5023 0.30695 0.0
H1542 H 0.72945 0.47923 0.29379 0.0
H1543 H 0.71352 0.42096 0.3099 0.0
H1544 H 0.73332 0.3552 0.25716 0.0
H1545 H 0.71326 0.37522 0.26263 0.0
C1546 C 0.84733 0.45342 0.47386 0.0
C1547 C 0.83483 0.44901 0.48673 0.0
C1548 C 0.86594 0.4569 0.47858 0.0
C1549 C 0.89828 0.45491 0.51646 0.0
H1550 H 0.92877 0.4997 0.49801 0.0
C1551 C 0.97507 0.4869 0.53382 0.0
C1552 C 0.98248 0.50607 0.53102 0.0
C1553 C 0.95631 0.47873 0.53158 0.0
C1554 C 0.92027 0.48743 0.50358 0.0
H1555 H 0.83128 0.44438 0.51425 0.0
H1556 H 0.8635 0.45176 0.52278 0.0
H1557 H 0.89817 0.48524 0.48462 0.0
H1558 H 0.97656 0.53274 0.5274 0.0
H1559 H 0.94358 0.51861 0.52428 0.0
H1560 H 0.92001 0.45807 0.5363 0.0
C1561 C 0.8593 0.45178 0.50897 0.0
C1562 C 0.90293 0.47877 0.49552 0.0
C1563 C 0.84087 0.44798 0.5042 0.0
C1564 C 0.97103 0.51772 0.52891 0.0
C1565 C 0.95224 0.50963 0.52709 0.0
C1566 C 0.91548 0.4639 0.52485 0.0
C1567 C 0.87205 0.45635 0.49627 0.0
C1568 C 0.89157 0.46278 0.50221 0.0
C1569 C 0.94492 0.48982 0.52687 0.0
C1570 C 0.92643 0.4805 0.5187 0.0
H1571 H 0.8427 0.45366 0.4602 0.0
H1572 H 0.8755 0.46017 0.46849 0.0
H1573 H 0.88995 0.44226 0.52161 0.0
H1574 H 0.98374 0.47777 0.53593 0.0
H1575 H 0.95103 0.46345 0.53176 0.0
C1576 C 0.38877 0.07391 0.28237 0.0
C1577 C 0.38888 0.07245 0.30061 0.0
C1578 C 0.38482 0.08917 0.27534 0.0
C1579 C 0.37827 0.13623 0.2867 0.0
H1580 H 0.34343 0.12084 0.24547 0.0
C1581 C 0.32075 0.16751 0.27425 0.0
C1582 C 0.31583 0.17125 0.25719 0.0
C1583 C 0.33459 0.15916 0.27701 0.0
C1584 C 0.35359 0.12552 0.25661 0.0
H1585 H 0.38596 0.08587 0.3261 0.0
H1586 H 0.37708 0.11212 0.31355 0.0
H1587 H 0.35827 0.09843 0.25621 0.0
H1588 H 0.32112 0.16901 0.22954 0.0
H1589 H 0.3452 0.15339 0.23436 0.0
H1590 H 0.37225 0.16292 0.28774 0.0
C1591 C 0.38065 0.10168 0.30477 0.0
C1592 C 0.36206 0.11269 0.26286 0.0
C1593 C 0.38526 0.08657 0.31192 0.0
C1594 C 0.32467 0.16608 0.24278 0.0
C1595 C 0.33851 0.15747 0.24555 0.0
C1596 C 0.36966 0.14904 0.2805 0.0
C1597 C 0.38033 0.10298 0.28637 0.0
C1598 C 0.37388 0.11768 0.27837 0.0
C1599 C 0.34363 0.15418 0.26273 0.0
C1600 C 0.35665 0.1434 0.26592 0.0
H1601 H 0.39242 0.06354 0.27355 0.0
H1602 H 0.38523 0.09009 0.26123 0.0
H1603 H 0.3877 0.14053 0.29841 0.0
H1604 H 0.31385 0.17108 0.28551 0.0
H1605 H 0.33787 0.15609 0.29029 0.0
C1606 C 0.34471 0.15168 0.51235 0.0
C1607 C 0.33584 0.15465 0.52749 0.0
C1608 C 0.35941 0.14389 0.51352 0.0
C1609 C 0.37792 0.11461 0.54283 0.0
H1610 H 0.41727 0.12385 0.51167 0.0
C1611 C 0.42239 0.06404 0.53464 0.0
C1612 C 0.4411 0.07181 0.53264 0.0
C1613 C 0.41066 0.07549 0.53455 0.0
C1614 C 0.4065 0.12128 0.52063 0.0
H1615 H 0.33606 0.15336 0.5558 0.0
H1616 H 0.36224 0.1409 0.55807 0.0
H1617 H 0.39584 0.14286 0.51087 0.0
H1618 H 0.46224 0.09781 0.52932 0.0
H1619 H 0.44174 0.11788 0.52931 0.0
H1620 H 0.38877 0.09344 0.55293 0.0
C1621 C 0.35748 0.14365 0.54516 0.0
C1622 C 0.39406 0.13201 0.52001 0.0
C1623 C 0.3426 0.15099 0.54392 0.0
C1624 C 0.44784 0.09135 0.53065 0.0
C1625 C 0.43609 0.10284 0.53062 0.0
C1626 C 0.39041 0.10406 0.54357 0.0
C1627 C 0.36562 0.13928 0.5299 0.0
C1628 C 0.37953 0.12871 0.53102 0.0
C1629 C 0.41735 0.09503 0.53254 0.0
C1630 C 0.40471 0.10707 0.53233 0.0
H1631 H 0.33959 0.15427 0.49952 0.0
H1632 H 0.36524 0.14061 0.50146 0.0
H1633 H 0.36674 0.11135 0.55129 0.0
H1634 H 0.4167 0.04898 0.53587 0.0
H1635 H 0.39624 0.06891 0.53571 0.0
C1636 C 0.68797 0.58556 0.32515 0.0
C1637 C 0.67154 0.58062 0.31426 0.0
C1638 C 0.69982 0.60391 0.3261 0.0
C1639 C 0.71379 0.63622 0.29503 0.0
H1640 H 0.73739 0.67619 0.3321 0.0
C1641 C 0.74411 0.71121 0.28041 0.0
C1642 C 0.76219 0.72063 0.2868 0.0
C1643 C 0.73515 0.69398 0.28634 0.0
C1644 C 0.73114 0.66487 0.32178 0.0
H1645 H 0.65356 0.5914 0.29758 0.0
H1646 H 0.6745 0.62339 0.29902 0.0
H1647 H 0.71565 0.64661 0.33969 0.0
H1648 H 0.78505 0.71976 0.30464 0.0
H1649 H 0.76905 0.68914 0.31505 0.0
H1650 H 0.72878 0.65427 0.27706 0.0
C1651 C 0.67815 0.613 0.30669 0.0
C1652 C 0.7187 0.64822 0.32607 0.0
C1653 C 0.66628 0.59472 0.30579 0.0
C1654 C 0.77112 0.71265 0.29943 0.0
C1655 C 0.76204 0.69531 0.30545 0.0
C1656 C 0.7262 0.65264 0.29079 0.0
C1657 C 0.6953 0.61734 0.31614 0.0
C1658 C 0.70953 0.63422 0.31255 0.0
C1659 C 0.7441 0.68587 0.29873 0.0
C1660 C 0.73439 0.66731 0.30403 0.0
H1661 H 0.69215 0.57503 0.33219 0.0
H1662 H 0.71304 0.60713 0.33343 0.0
H1663 H 0.70714 0.62524 0.28453 0.0
H1664 H 0.7368 0.71707 0.2708 0.0
H1665 H 0.72116 0.68694 0.28123 0.0
C1666 C 0.90929 0.46113 0.7777 0.0
C1667 C 0.91065 0.47407 0.79257 0.0
C1668 C 0.8958 0.44368 0.77605 0.0
C1669 C 0.86264 0.40982 0.79945 0.0
H1670 H 0.83257 0.40151 0.75518 0.0
C1671 C 0.80007 0.3457 0.78688 0.0
C1672 C 0.80144 0.33445 0.77161 0.0
C1673 C 0.81033 0.36479 0.78927 0.0
C1674 C 0.84081 0.40372 0.76761 0.0
H1675 H 0.90049 0.47837 0.81814 0.0
H1676 H 0.8771 0.44773 0.81535 0.0
H1677 H 0.85965 0.429 0.76035 0.0
H1678 H 0.81241 0.33438 0.74597 0.0
H1679 H 0.83027 0.36761 0.75009 0.0
H1680 H 0.84414 0.38428 0.80654 0.0
C1681 C 0.88623 0.45113 0.80491 0.0
C1682 C 0.85637 0.41927 0.77049 0.0
C1683 C 0.89954 0.46865 0.80647 0.0
C1684 C 0.81144 0.34284 0.75797 0.0
C1685 C 0.82152 0.36189 0.76028 0.0
C1686 C 0.84713 0.3942 0.79653 0.0
C1687 C 0.88373 0.43893 0.78935 0.0
C1688 C 0.86752 0.42227 0.78632 0.0
C1689 C 0.82183 0.37272 0.77634 0.0
C1690 C 0.83624 0.39088 0.78048 0.0
H1691 H 0.91772 0.46503 0.76682 0.0
H1692 H 0.89426 0.43426 0.76406 0.0
H1693 H 0.87106 0.41191 0.81176 0.0
H1694 H 0.79232 0.33944 0.79751 0.0
H1695 H 0.81017 0.37301 0.80166 0.0
C1696 C 0.07028 0.86063 0.10553 0.0
C1697 C 0.06925 0.84393 0.09477 0.0
C1698 C 0.06817 0.87665 0.09811 0.0
C1699 C 0.04818 0.89178 0.05915 0.0
H1700 H 0.07985 0.94156 0.07737 0.0
C1701 C 0.03283 0.96143 0.04373 0.0
C1702 C 0.04772 0.97655 0.0401 0.0
C1703 C 0.03571 0.94507 0.04993 0.0
C1704 C 0.07099 0.92776 0.07203 0.0
H1705 H 0.06525 0.83088 0.06779 0.0
H1706 H 0.06149 0.8591 0.05472 0.0
H1707 H 0.08507 0.91317 0.08831 0.0
H1708 H 0.07733 0.9864 0.04022 0.0
H1709 H 0.08227 0.95782 0.05084 0.0
H1710 H 0.03423 0.90643 0.0427 0.0
C1711 C 0.06388 0.85965 0.06893 0.0
C1712 C 0.07388 0.91152 0.07841 0.0
C1713 C 0.06613 0.84358 0.07638 0.0
C1714 C 0.06554 0.97505 0.04293 0.0
C1715 C 0.0684 0.95869 0.04909 0.0
C1716 C 0.04528 0.90806 0.05275 0.0
C1717 C 0.06491 0.87633 0.07976 0.0
C1718 C 0.06242 0.89339 0.07214 0.0
C1719 C 0.05352 0.94352 0.05261 0.0
C1720 C 0.05663 0.92621 0.05919 0.0
H1721 H 0.07269 0.86134 0.11975 0.0
H1722 H 0.06878 0.8892 0.1068 0.0
H1723 H 0.03905 0.87797 0.05421 0.0
H1724 H 0.01893 0.9622 0.04182 0.0
H1725 H 0.024 0.93373 0.05282 0.0
C1726 C 0.9395 0.24123 0.87753 0.0
C1727 C 0.95243 0.25861 0.88349 0.0
C1728 C 0.92271 0.24111 0.86905 0.0
C1729 C 0.90492 0.2729 0.84303 0.0
H1730 H 0.857 0.23778 0.84648 0.0
C1731 C 0.83917 0.285 0.81338 0.0
C1732 C 0.82831 0.27003 0.80155 0.0
C1733 C 0.85348 0.28228 0.82402 0.0
C1734 C 0.87037 0.24757 0.84538 0.0
H1735 H 0.9577 0.2892 0.88689 0.0
H1736 H 0.92838 0.28901 0.87277 0.0
H1737 H 0.88335 0.23521 0.86506 0.0
H1738 H 0.82316 0.24038 0.79194 0.0
H1739 H 0.84796 0.23544 0.81109 0.0
H1740 H 0.89201 0.28547 0.82366 0.0
C1741 C 0.93123 0.27553 0.87399 0.0
C1742 C 0.88539 0.24609 0.85594 0.0
C1743 C 0.94792 0.27565 0.88219 0.0
C1744 C 0.83155 0.25215 0.80089 0.0
C1745 C 0.84557 0.24929 0.81187 0.0
C1746 C 0.88996 0.27448 0.83268 0.0
C1747 C 0.91879 0.25837 0.86658 0.0
C1748 C 0.90276 0.25898 0.85505 0.0
C1749 C 0.8568 0.26442 0.82331 0.0
C1750 C 0.87255 0.262 0.83391 0.0
H1751 H 0.94283 0.22795 0.87839 0.0
H1752 H 0.91334 0.22767 0.86351 0.0
H1753 H 0.91822 0.28267 0.84162 0.0
H1754 H 0.83688 0.2989 0.81406 0.0
H1755 H 0.86199 0.29413 0.8328 0.0
C1756 C 0.57118 0.23181 0.58182 0.0
C1757 C 0.5691 0.23249 0.60008 0.0
C1758 C 0.56819 0.21423 0.5718 0.0
C1759 C 0.54461 0.16309 0.5729 0.0
H1760 H 0.58074 0.15419 0.54221 0.0
C1761 C 0.53624 0.08842 0.53977 0.0
C1762 C 0.55203 0.08242 0.5388 0.0
C1763 C 0.53759 0.10752 0.54417 0.0
C1764 C 0.57056 0.15641 0.55081 0.0
H1765 H 0.5618 0.21538 0.62202 0.0
H1766 H 0.55652 0.18509 0.60471 0.0
H1767 H 0.58408 0.18636 0.55567 0.0
H1768 H 0.5816 0.09152 0.54123 0.0
H1769 H 0.58407 0.12488 0.55014 0.0
H1770 H 0.53163 0.13327 0.56912 0.0
C1771 C 0.56046 0.19796 0.59805 0.0
C1772 C 0.57235 0.1749 0.55829 0.0
C1773 C 0.56366 0.21537 0.60801 0.0
C1774 C 0.56924 0.09587 0.54203 0.0
C1775 C 0.57061 0.11499 0.54692 0.0
C1776 C 0.5429 0.14469 0.56559 0.0
C1777 C 0.56271 0.19714 0.57986 0.0
C1778 C 0.55961 0.17831 0.56976 0.0
C1779 C 0.55477 0.12102 0.54819 0.0
C1780 C 0.55601 0.141 0.55469 0.0
H1781 H 0.5754 0.24481 0.57539 0.0
H1782 H 0.56999 0.21398 0.55779 0.0
H1783 H 0.53444 0.16533 0.5815 0.0
H1784 H 0.52279 0.07836 0.53684 0.0
H1785 H 0.52509 0.11164 0.54446 0.0
C1786 C 0.57249 0.77703 0.40376 0.0
C1787 C 0.5568 0.76225 0.39744 0.0
C1788 C 0.58824 0.78039 0.39455 0.0
C1789 C 0.61245 0.75693 0.36534 0.0
H1790 H 0.63251 0.80548 0.34665 0.0
C1791 C 0.663 0.76406 0.31218 0.0
C1792 C 0.67753 0.78078 0.31277 0.0
C1793 C 0.64886 0.76298 0.32319 0.0
C1794 C 0.62729 0.79195 0.35202 0.0
H1795 H 0.54525 0.7392 0.37693 0.0
H1796 H 0.57299 0.74466 0.36122 0.0
H1797 H 0.60714 0.8014 0.36569 0.0
H1798 H 0.68867 0.80962 0.32501 0.0
H1799 H 0.66416 0.80756 0.34485 0.0
H1800 H 0.63254 0.74739 0.35211 0.0
C1801 C 0.57302 0.75375 0.37311 0.0
C1802 C 0.61277 0.78964 0.36286 0.0
C1803 C 0.55721 0.75065 0.38207 0.0
C1804 C 0.67756 0.79657 0.32436 0.0
C1805 C 0.6635 0.7954 0.33563 0.0
C1806 C 0.62707 0.75929 0.35477 0.0
C1807 C 0.58859 0.76874 0.37918 0.0
C1808 C 0.60505 0.77199 0.36929 0.0
C1809 C 0.64909 0.77848 0.3353 0.0
C1810 C 0.63441 0.77668 0.34763 0.0
H1811 H 0.57241 0.78628 0.41551 0.0
H1812 H 0.60017 0.79199 0.39944 0.0
H1813 H 0.6068 0.74325 0.37034 0.0
H1814 H 0.66254 0.75184 0.3031 0.0
H1815 H 0.63772 0.74993 0.32216 0.0
C1816 C 0.03806 0.20907 0.4327 0.0
C1817 C 0.03641 0.20842 0.41404 0.0
C1818 C 0.03745 0.19258 0.44164 0.0
C1819 C 0.04144 0.14163 0.43494 0.0
H1820 H 0.02191 0.13677 0.48073 0.0
C1821 C 0.03374 0.07105 0.47122 0.0
C1822 C 0.03401 0.07166 0.48988 0.0
C1823 C 0.03381 0.08725 0.462 0.0
C1824 C 0.02772 0.13773 0.46809 0.0
H1825 H 0.03288 0.18891 0.39049 0.0
H1826 H 0.03198 0.16058 0.40579 0.0
H1827 H 0.02256 0.16474 0.46534 0.0
H1828 H 0.0346 0.09083 0.51306 0.0
H1829 H 0.03485 0.1186 0.49739 0.0
H1830 H 0.04676 0.11473 0.43771 0.0
C1831 C 0.0338 0.17391 0.41372 0.0
C1832 C 0.02807 0.1541 0.45907 0.0
C1833 C 0.03418 0.19036 0.4048 0.0
C1834 C 0.03427 0.08935 0.49878 0.0
C1835 C 0.03431 0.10552 0.48959 0.0
C1836 C 0.04118 0.12529 0.444 0.0
C1837 C 0.03538 0.17449 0.43244 0.0
C1838 C 0.03494 0.15659 0.44221 0.0
C1839 C 0.03413 0.10505 0.47089 0.0
C1840 C 0.03433 0.1228 0.4609 0.0
H1841 H 0.03985 0.22246 0.44055 0.0
H1842 H 0.03896 0.1942 0.45593 0.0
H1843 H 0.04715 0.14264 0.42224 0.0
H1844 H 0.03355 0.05796 0.46358 0.0
H1845 H 0.03339 0.0856 0.44774 0.0
C1846 C 0.59394 0.28622 0.20069 0.0
C1847 C 0.59169 0.28917 0.18266 0.0
C1848 C 0.61107 0.28576 0.20869 0.0
C1849 C 0.66226 0.29889 0.20205 0.0
H1850 H 0.66402 0.26623 0.23921 0.0
C1851 C 0.73279 0.2995 0.23903 0.0
C1852 C 0.73477 0.28262 0.24551 0.0
C1853 C 0.71561 0.30075 0.23195 0.0
C1854 C 0.66402 0.27541 0.22876 0.0
H1855 H 0.60651 0.294 0.15922 0.0
H1856 H 0.6359 0.29337 0.17291 0.0
H1857 H 0.63457 0.2673 0.22608 0.0
H1858 H 0.71925 0.25374 0.24928 0.0
H1859 H 0.68992 0.25581 0.23699 0.0
H1860 H 0.69167 0.30679 0.2045 0.0
C1861 C 0.62452 0.29151 0.1811 0.0
C1862 C 0.64684 0.27621 0.22127 0.0
C1863 C 0.60741 0.29178 0.1731 0.0
C1864 C 0.71868 0.26712 0.24461 0.0
C1865 C 0.70154 0.26836 0.23755 0.0
C1866 C 0.67942 0.29818 0.2096 0.0
C1867 C 0.62685 0.28842 0.1991 0.0
C1868 C 0.64547 0.28788 0.20761 0.0
C1869 C 0.69948 0.28519 0.23098 0.0
C1870 C 0.68082 0.28633 0.2231 0.0
H1871 H 0.58237 0.28406 0.20867 0.0
H1872 H 0.61192 0.28352 0.22255 0.0
H1873 H 0.66224 0.30834 0.19183 0.0
H1874 H 0.74457 0.3119 0.23946 0.0
H1875 H 0.715 0.31416 0.22743 0.0
C1876 C 0.5454 0.84675 0.90197 0.0
C1877 C 0.54317 0.8292 0.90936 0.0
C1878 C 0.54367 0.8632 0.91179 0.0
C1879 C 0.54308 0.88586 0.95832 0.0
H1880 H 0.52289 0.9205 0.93386 0.0
C1881 C 0.53139 0.9534 -0.00221 0.0
C1882 C 0.53005 0.96939 0.98923 0.0
C1883 C 0.53255 0.93646 0.9883 0.0
C1884 C 0.52887 0.91137 0.94112 0.0
H1885 H 0.53738 0.81611 0.93373 0.0
H1886 H 0.53454 0.84476 0.95092 0.0
H1887 H 0.52579 0.89178 0.9179 0.0
H1888 H 0.52912 0.97942 0.96329 0.0
H1889 H 0.53177 0.95057 0.94689 0.0
H1890 H 0.54659 0.90551 0.98144 0.0
C1891 C 0.53772 0.84575 0.93729 0.0
C1892 C 0.53051 0.89453 0.93177 0.0
C1893 C 0.53932 0.8291 0.92733 0.0
C1894 C 0.52994 0.96757 0.97059 0.0
C1895 C 0.5314 0.95068 0.96107 0.0
C1896 C 0.54164 0.90282 0.96766 0.0
C1897 C 0.5397 0.86322 0.9297 0.0
C1898 C 0.53767 0.88129 0.94008 0.0
C1899 C 0.53277 0.93456 0.96963 0.0
C1900 C 0.53444 0.91612 0.95938 0.0
H1901 H 0.54841 0.84787 0.8883 0.0
H1902 H 0.5457 0.87609 0.90522 0.0
H1903 H 0.54891 0.87651 0.96545 0.0
H1904 H 0.53142 0.95386 0.01204 0.0
H1905 H 0.53309 0.92475 0.99586 0.0
C1906 C 0.97306 0.76869 0.70703 0.0
C1907 C 0.97903 0.77703 0.6914 0.0
C1908 C 0.95641 0.76934 0.714 0.0
C1909 C 0.91034 0.77795 0.70274 0.0
H1910 H 0.90675 0.77849 0.75333 0.0
C1911 C 0.83889 0.76526 0.73421 0.0
C1912 C 0.83779 0.7747 0.75086 0.0
C1913 C 0.8559 0.76629 0.72703 0.0
C1914 C 0.9073 0.77843 0.73915 0.0
H1915 H 0.97101 0.79279 0.67109 0.0
H1916 H 0.94197 0.79385 0.68308 0.0
H1917 H 0.93577 0.7795 0.74105 0.0
H1918 H 0.85479 0.79263 0.77283 0.0
H1919 H 0.88416 0.79414 0.76064 0.0
H1920 H 0.88182 0.7769 0.7009 0.0
C1921 C 0.95036 0.78664 0.69002 0.0
C1922 C 0.92418 0.77881 0.73195 0.0
C1923 C 0.96726 0.78614 0.68308 0.0
C1924 C 0.85469 0.78507 0.76004 0.0
C1925 C 0.87175 0.78587 0.75297 0.0
C1926 C 0.89338 0.77734 0.70994 0.0
C1927 C 0.94448 0.77827 0.70574 0.0
C1928 C 0.92621 0.77851 0.71352 0.0
C1929 C 0.87286 0.7766 0.73619 0.0
C1930 C 0.89135 0.77752 0.72836 0.0
H1931 H 0.98135 0.76145 0.71409 0.0
H1932 H 0.95276 0.76238 0.72584 0.0
H1933 H 0.91084 0.77758 0.68854 0.0
H1934 H 0.82645 0.75708 0.72651 0.0
H1935 H 0.85569 0.75866 0.71427 0.0
C1936 C 0.12991 0.02299 0.87651 0.0
C1937 C 0.12667 0.03334 0.86264 0.0
C1938 C 0.12667 0.02859 0.8936 0.0
C1939 C 0.09023 0.04422 0.90651 0.0
H1940 H 0.10336 0.02888 0.95172 0.0
C1941 C 0.04015 0.02145 0.95982 0.0
C1942 C 0.0439 0.00819 0.9706 0.0
C1943 C 0.05167 0.02799 0.94677 0.0
C1944 C 0.09956 0.03308 0.93907 0.0
H1945 H 0.12127 0.05941 0.85573 0.0
H1946 H 0.11554 0.06917 0.88565 0.0
H1947 H 0.12712 0.04042 0.93171 0.0
H1948 H 0.05978 0.98845 0.97427 0.0
H1949 H 0.07918 0.99889 0.95047 0.0
H1950 H 0.06258 0.03534 0.91298 0.0
C1951 C 0.12006 0.05656 0.88335 0.0
C1952 C 0.11317 0.04005 0.92789 0.0
C1953 C 0.12286 0.05073 0.86625 0.0
C1954 C 0.05694 0.99893 0.96617 0.0
C1955 C 0.06825 0.00522 0.9529 0.0
C1956 C 0.07666 0.03702 0.91753 0.0
C1957 C 0.12035 0.04463 0.89679 0.0
C1958 C 0.10841 0.04471 0.91115 0.0
C1959 C 0.06658 0.02083 0.94415 0.0
C1960 C 0.08112 0.03054 0.93348 0.0
H1961 H 0.13353 0.00988 0.87396 0.0
H1962 H 0.12705 0.01915 0.90377 0.0
H1963 H 0.0861 0.04746 0.89356 0.0
H1964 H 0.03006 0.02872 0.96303 0.0
H1965 H 0.04992 0.03986 0.93999 0.0
C1966 C 0.80542 0.37163 0.54661 0.0
C1967 C 0.80246 0.38948 0.54542 0.0
C1968 C 0.81202 0.367 0.56261 0.0
C1969 C 0.81099 0.37627 0.60966 0.0
H1970 H 0.84956 0.3517 0.6129 0.0
C1971 C 0.82795 0.34592 0.67375 0.0
C1972 C 0.8295 0.32733 0.67133 0.0
C1973 C 0.82827 0.35673 0.65939 0.0
C1974 C 0.83873 0.35851 0.6122 0.0
H1975 H 0.8043 0.41661 0.55988 0.0
H1976 H 0.81533 0.40822 0.58804 0.0
H1977 H 0.84298 0.36442 0.58537 0.0
H1978 H 0.83315 0.30573 0.65204 0.0
H1979 H 0.83365 0.32445 0.62708 0.0
H1980 H 0.80601 0.36952 0.63609 0.0
C1981 C 0.81271 0.39795 0.57654 0.0
C1982 C 0.83503 0.36581 0.59648 0.0
C1983 C 0.80644 0.40273 0.56045 0.0
C1984 C 0.83218 0.32009 0.65441 0.0
C1985 C 0.83249 0.33086 0.64007 0.0
C1986 C 0.81456 0.36879 0.62533 0.0
C1987 C 0.81546 0.38002 0.57776 0.0
C1988 C 0.82087 0.37437 0.59497 0.0
C1989 C 0.83017 0.34915 0.64232 0.0
C1990 C 0.8282 0.35944 0.62664 0.0
H1991 H 0.80259 0.36123 0.53518 0.0
H1992 H 0.81389 0.35301 0.56327 0.0
H1993 H 0.7999 0.38269 0.60876 0.0
H1994 H 0.82618 0.35201 0.68671 0.0
H1995 H 0.82673 0.37089 0.6616 0.0
C1996 C 0.45132 0.01964 0.34776 0.0
C1997 C 0.46242 0.03444 0.3393 0.0
C1998 C 0.45468 0.0187 0.36567 0.0
C1999 C 0.47327 0.04609 0.40645 0.0
H2000 H 0.49259 0.00478 0.41821 0.0
C2001 C 0.52333 0.05306 0.46576 0.0
C2002 C 0.52353 0.03681 0.47394 0.0
C2003 C 0.51146 0.05143 0.45088 0.0
C2004 C 0.4867 0.01609 0.41535 0.0
H2005 H 0.48536 0.05993 0.34226 0.0
H2006 H 0.49131 0.05837 0.3741 0.0
H2007 H 0.47909 0.00443 0.38856 0.0
H2008 H 0.51134 0.00646 0.47435 0.0
H2009 H 0.49 0.00361 0.44871 0.0
H2010 H 0.48101 0.05792 0.43316 0.0
C2011 C 0.48007 0.0476 0.36677 0.0
C2012 C 0.47911 0.01589 0.39838 0.0
C2013 C 0.47692 0.04833 0.34872 0.0
C2014 C 0.51158 0.01903 0.4677 0.0
C2015 C 0.49937 0.01745 0.45317 0.0
C2016 C 0.48051 0.0461 0.42357 0.0
C2017 C 0.46889 0.03281 0.37523 0.0
C2018 C 0.47314 0.03128 0.39374 0.0
C2019 C 0.49937 0.03358 0.44449 0.0
C2020 C 0.48809 0.03157 0.42788 0.0
H2021 H 0.43998 0.0089 0.34049 0.0
H2022 H 0.44616 0.00711 0.37209 0.0
H2023 H 0.46848 0.05795 0.40292 0.0
H2024 H 0.53233 0.06689 0.47083 0.0
H2025 H 0.51202 0.06405 0.44422 0.0
C2026 C 0.78848 0.72646 0.07427 0.0
C2027 C 0.79078 0.70818 0.07189 0.0
C2028 C 0.78929 0.73545 0.09141 0.0
C2029 C 0.80603 0.73475 0.13783 0.0
H2030 H 0.76354 0.74991 0.15085 0.0
C2031 C 0.79 0.74168 0.21041 0.0
C2032 C 0.7829 0.75645 0.21644 0.0
C2033 C 0.79163 0.73787 0.19239 0.0
C2034 C 0.77567 0.74606 0.14743 0.0
H2035 H 0.7967 0.68545 0.08542 0.0
H2036 H 0.79856 0.70119 0.11497 0.0
H2037 H 0.76668 0.74107 0.1198 0.0
H2038 H 0.77169 0.77868 0.20811 0.0
H2039 H 0.77479 0.77222 0.17666 0.0
H2040 H 0.81503 0.73952 0.16531 0.0
C2041 C 0.79595 0.70858 0.10378 0.0
C2042 C 0.77747 0.74104 0.12961 0.0
C2043 C 0.79478 0.69951 0.08682 0.0
C2044 C 0.77711 0.7671 0.20393 0.0
C2045 C 0.77888 0.76338 0.18586 0.0
C2046 C 0.80432 0.7399 0.15557 0.0
C2047 C 0.79289 0.72648 0.10634 0.0
C2048 C 0.79244 0.73486 0.12468 0.0
C2049 C 0.78637 0.74886 0.17986 0.0
C2050 C 0.78887 0.74511 0.16071 0.0
H2051 H 0.78529 0.73341 0.06299 0.0
H2052 H 0.78692 0.74929 0.09301 0.0
H2053 H 0.81784 0.73027 0.13441 0.0
H2054 H 0.79444 0.73306 0.21963 0.0
H2055 H 0.79702 0.72624 0.18829 0.0
C2056 C 0.11202 0.0018 0.75711 0.0
C2057 C 0.13088 0.01002 0.7612 0.0
C2058 C 0.1035 0.00581 0.74182 0.0
C2059 C 0.10856 0.0432 0.71234 0.0
H2060 H 0.07535 0.00463 0.67911 0.0
C2061 C 0.08661 0.05806 0.64299 0.0
C2062 C 0.06842 0.04946 0.63636 0.0
C2063 C 0.09305 0.05361 0.6591 0.0
C2064 C 0.08436 0.01557 0.68844 0.0
H2065 H 0.15576 0.02814 0.75215 0.0
H2066 H 0.14082 0.03515 0.72556 0.0
H2067 H 0.08908 0.99516 0.70533 0.0
H2068 H 0.04259 0.0297 0.64135 0.0
H2069 H 0.05382 0.02205 0.6697 0.0
H2070 H 0.10394 0.06362 0.69551 0.0
C2071 C 0.13265 0.02577 0.73424 0.0
C2072 C 0.09223 0.01014 0.70336 0.0
C2073 C 0.1412 0.02161 0.74938 0.0
C2074 C 0.05664 0.03665 0.64628 0.0
C2075 C 0.0631 0.03213 0.66237 0.0
C2076 C 0.10063 0.04864 0.69749 0.0
C2077 C 0.1137 0.01822 0.73054 0.0
C2078 C 0.10461 0.02389 0.71525 0.0
C2079 C 0.08141 0.04045 0.66883 0.0
C2080 C 0.08866 0.03485 0.68528 0.0
H2081 H 0.10377 0.99281 0.76602 0.0
H2082 H 0.08884 0.99984 0.73918 0.0
H2083 H 0.11783 0.05407 0.72155 0.0
H2084 H 0.0959 0.06807 0.63562 0.0
H2085 H 0.10728 0.06007 0.66367 0.0
C2086 C 0.78769 0.3632 0.43894 0.0
C2087 C 0.79015 0.38285 0.4393 0.0
C2088 C 0.79232 0.35348 0.42432 0.0
C2089 C 0.81315 0.3467 0.38711 0.0
H2090 H 0.76728 0.33546 0.35817 0.0
C2091 C 0.79953 0.30871 0.3156 0.0
C2092 C 0.78282 0.29439 0.31273 0.0
C2093 C 0.80352 0.32076 0.33125 0.0
C2094 C 0.78014 0.33846 0.36611 0.0
H2095 H 0.80126 0.40815 0.42584 0.0
H2096 H 0.80896 0.39094 0.40015 0.0
H2097 H 0.77105 0.35411 0.38664 0.0
H2098 H 0.75768 0.28036 0.32395 0.0
H2099 H 0.76464 0.30121 0.35138 0.0
H2100 H 0.82207 0.33059 0.36658 0.0
C2101 C 0.8035 0.38319 0.41114 0.0
C2102 C 0.78229 0.34912 0.38227 0.0
C2103 C 0.79873 0.39288 0.42562 0.0
C2104 C 0.77046 0.29166 0.32582 0.0
C2105 C 0.77443 0.30359 0.34142 0.0
C2106 C 0.811 0.33593 0.37078 0.0
C2107 C 0.7997 0.36341 0.41017 0.0
C2108 C 0.79861 0.35298 0.39293 0.0
C2109 C 0.79086 0.31839 0.34416 0.0
C2110 C 0.79429 0.3314 0.3604 0.0
H2111 H 0.78136 0.35525 0.44948 0.0
H2112 H 0.78901 0.3381 0.42349 0.0
H2113 H 0.82588 0.3498 0.39528 0.0
H2114 H 0.80966 0.31022 0.30603 0.0
H2115 H 0.81635 0.33198 0.3332 0.0
C2116 C 0.45906 0.06302 0.24776 0.0
C2117 C 0.44054 0.05254 0.24664 0.0
C2118 C 0.47002 0.0603 0.23449 0.0
C2119 C 0.47126 0.02339 0.19974 0.0
H2120 H 0.51377 0.06225 0.1878 0.0
C2121 C 0.517 0.00479 0.14923 0.0
C2122 C 0.52012 0.0173 0.13594 0.0
C2123 C 0.51107 0.01023 0.16525 0.0
C2124 C 0.50195 0.05124 0.19101 0.0
H2125 H 0.41833 0.03284 0.22989 0.0
H2126 H 0.43736 0.02892 0.20603 0.0
H2127 H 0.4934 0.07084 0.20807 0.0
H2128 H 0.52153 0.04586 0.12955 0.0
H2129 H 0.51042 0.05505 0.15699 0.0
H2130 H 0.47906 0.00409 0.18166 0.0
C2131 C 0.44358 0.03849 0.21763 0.0
C2132 C 0.49034 0.05613 0.20271 0.0
C2133 C 0.43262 0.04099 0.23111 0.0
C2134 C 0.51878 0.03581 0.13946 0.0
C2135 C 0.51268 0.04116 0.15532 0.0
C2136 C 0.48267 0.01858 0.18775 0.0
C2137 C 0.46255 0.04741 0.21963 0.0
C2138 C 0.47474 0.04231 0.20701 0.0
C2139 C 0.50807 0.02817 0.1681 0.0
C2140 C 0.49794 0.03255 0.18301 0.0
H2141 H 0.46545 0.07217 0.25957 0.0
H2142 H 0.48455 0.06736 0.23652 0.0
H2143 H 0.45965 0.01228 0.2032 0.0
H2144 H 0.51804 0.99045 0.14685 0.0
H2145 H 0.50796 1.00007 0.17504 0.0
C2146 C 0.79959 0.69916 0.94521 0.0
C2147 C 0.79813 0.71151 0.95973 0.0
C2148 C 0.7998 0.7048 0.92809 0.0
C2149 C 0.80889 0.74668 0.90271 0.0
H2150 H 0.77949 0.71086 0.86496 0.0
C2151 C 0.7967 0.76888 0.83321 0.0
C2152 C 0.79573 0.75601 0.81825 0.0
C2153 C 0.79776 0.76333 0.85025 0.0
C2154 C 0.78801 0.72093 0.87527 0.0
H2155 H 0.79607 0.7397 0.96761 0.0
H2156 H 0.79664 0.74971 0.93759 0.0
H2157 H 0.77956 0.7019 0.89517 0.0
H2158 H 0.79542 0.72718 0.80967 0.0
H2159 H 0.79761 0.71747 0.83966 0.0
H2160 H 0.81747 0.76567 0.88287 0.0
C2161 C 0.79763 0.7356 0.93954 0.0
C2162 C 0.78799 0.71583 0.89262 0.0
C2163 C 0.79729 0.72987 0.95673 0.0
C2164 C 0.7962 0.73745 0.82087 0.0
C2165 C 0.79729 0.73187 0.83806 0.0
C2166 C 0.809 0.75174 0.88535 0.0
C2167 C 0.79864 0.72301 0.92498 0.0
C2168 C 0.79842 0.72864 0.90657 0.0
C2169 C 0.79799 0.74475 0.85299 0.0
C2170 C 0.79852 0.73896 0.87137 0.0
H2171 H 0.80027 0.6849 0.94698 0.0
H2172 H 0.8009 0.69487 0.91726 0.0
H2173 H 0.81727 0.75678 0.91308 0.0
H2174 H 0.79633 0.78331 0.83182 0.0
H2175 H 0.79793 0.77357 0.8613 0.0
C2176 C 0.84415 0.11766 0.03932 0.0
C2177 C 0.82982 0.10696 0.04835 0.0
C2178 C 0.85692 0.10935 0.03263 0.0
C2179 C 0.87355 0.06701 0.03355 0.0
H2180 H 0.88316 0.07608 0.9849 0.0
C2181 C 0.90805 0.02147 0.99564 0.0
C2182 C 0.92595 0.03245 0.99349 0.0
C2183 C 0.89437 0.03027 -0.00217 0.0
C2184 C 0.88041 0.07343 -0.00158 0.0
H2185 H 0.81865 0.0799 0.05911 0.0
H2186 H 0.84064 0.06535 0.04717 0.0
H2187 H 0.86504 0.0935 0.0009 0.0
H2188 H 0.94297 0.06052 0.98906 0.0
H2189 H 0.91894 0.07598 0.99323 0.0
H2190 H 0.88857 0.0467 0.03095 0.0
C2191 C 0.84211 0.08013 0.04524 0.0
C2192 C 0.87033 0.0835 0.00766 0.0
C2193 C 0.82947 0.08847 0.05207 0.0
C2194 C 0.92934 0.05186 0.99108 0.0
C2195 C 0.9156 0.06066 0.99328 0.0
C2196 C 0.88331 0.05677 0.02424 0.0
C2197 C 0.85547 0.09024 0.03485 0.0
C2198 C 0.86688 0.08038 0.02533 0.0
C2199 C 0.89846 0.05006 -0.00216 0.0
C2200 C 0.88676 0.0599 0.00666 0.0
H2201 H 0.8449 0.13206 0.03649 0.0
H2202 H 0.86745 0.11761 0.02509 0.0
H2203 H 0.87135 0.06455 0.04721 0.0
H2204 H 0.90502 0.00649 -0.00245 0.0
H2205 H 0.8811 0.02192 0.00125 0.0
C2206 C 0.34431 0.41354 0.00137 0.0
C2207 C 0.33695 0.40536 0.01638 0.0
C2208 C 0.36273 0.42339 0.00174 0.0
C2209 C 0.40783 0.43292 0.02606 0.0
H2210 H 0.41712 0.48022 0.00392 0.0
C2211 C 0.47725 0.49104 0.03372 0.0
C2212 C 0.48405 0.49844 0.01813 0.0
C2213 C 0.45956 0.47899 0.03355 0.0
C2214 C 0.41474 0.46697 0.00998 0.0
H2215 H 0.34319 0.40012 0.0433 0.0
H2216 H 0.3757 0.41797 0.04415 0.0
H2217 H 0.3859 0.45997 0.00413 0.0
H2218 H 0.47757 0.49915 0.99016 0.0
H2219 H 0.44625 0.47827 0.98996 0.0
H2220 H 0.43682 0.44031 0.0322 0.0
C2221 C 0.36713 0.41654 0.03203 0.0
C2222 C 0.39689 0.45535 0.0101 0.0
C2223 C 0.34857 0.40639 0.03158 0.0
C2224 C 0.47267 0.49371 0.00237 0.0
C2225 C 0.4548 0.48181 0.00227 0.0
C2226 C 0.42574 0.44468 0.02605 0.0
C2227 C 0.37423 0.42557 0.01722 0.0
C2228 C 0.39325 0.43808 0.01793 0.0
C2229 C 0.44818 0.47425 0.01785 0.0
C2230 C 0.42932 0.46172 0.01787 0.0
H2231 H 0.33573 0.41258 0.98933 0.0
H2232 H 0.3679 0.42965 0.98994 0.0
H2233 H 0.40545 0.41966 0.0321 0.0
H2234 H 0.48569 0.49428 0.04609 0.0
H2235 H 0.4547 0.47354 0.04577 0.0
C2236 C 0.3964 0.5937 0.73592 0.0
C2237 C 0.38678 0.5743 0.73352 0.0
C2238 C 0.3884 0.60664 0.7438 0.0
C2239 C 0.35482 0.60867 0.77506 0.0
H2240 H 0.35674 0.65708 0.75719 0.0
C2241 C 0.30587 0.65226 0.78844 0.0
C2242 C 0.31213 0.67194 0.78741 0.0
C2243 C 0.31804 0.64141 0.7874 0.0
C2244 C 0.35656 0.64384 0.76262 0.0
H2245 H 0.36099 0.55316 0.73625 0.0
H2246 H 0.34691 0.57596 0.75006 0.0
H2247 H 0.37051 0.63541 0.74134 0.0
H2248 H 0.33611 0.69625 0.78738 0.0
H2249 H 0.35746 0.67717 0.78536 0.0
H2250 H 0.3403 0.6169 0.79604 0.0
C2251 C 0.36072 0.58104 0.7461 0.0
C2252 C 0.36425 0.6314 0.75344 0.0
C2253 C 0.36868 0.56809 0.73808 0.0
C2254 C 0.33097 0.68097 0.7877 0.0
C2255 C 0.34315 0.67012 0.78663 0.0
C2256 C 0.34713 0.62114 0.78428 0.0
C2257 C 0.37074 0.60028 0.74944 0.0
C2258 C 0.36312 0.61362 0.75943 0.0
C2259 C 0.33655 0.65021 0.78529 0.0
C2260 C 0.34766 0.63866 0.77793 0.0
H2261 H 0.41034 0.59879 0.73232 0.0
H2262 H 0.39632 0.62146 0.74621 0.0
H2263 H 0.35415 0.59511 0.78006 0.0
H2264 H 0.29139 0.64501 0.78828 0.0
H2265 H 0.31263 0.62605 0.78637 0.0
C2266 C 0.22528 0.58402 0.53343 0.0
C2267 C 0.2331 0.60271 0.54093 0.0
C2268 C 0.20709 0.57499 0.53574 0.0
C2269 C 0.16464 0.57861 0.55213 0.0
H2270 H 0.15289 0.58702 0.5036 0.0
C2271 C 0.0926 0.5718 0.53104 0.0
C2272 C 0.08651 0.55713 0.5173 0.0
C2273 C 0.11096 0.58176 0.53356 0.0
C2274 C 0.15599 0.58463 0.51714 0.0
H2275 H 0.23011 0.62527 0.55956 0.0
H2276 H 0.19818 0.60957 0.56331 0.0
H2277 H 0.18402 0.58804 0.51322 0.0
H2278 H 0.09349 0.54329 0.49374 0.0
H2279 H 0.1259 0.56017 0.49846 0.0
H2280 H 0.13651 0.57469 0.55599 0.0
C2281 C 0.20584 0.60195 0.5556 0.0
C2282 C 0.17361 0.58487 0.52255 0.0
C2283 C 0.22387 0.61109 0.55308 0.0
C2284 C 0.09819 0.55438 0.50457 0.0
C2285 C 0.11666 0.56415 0.50724 0.0
C2286 C 0.14686 0.57802 0.54663 0.0
C2287 C 0.19701 0.58475 0.54557 0.0
C2288 C 0.17791 0.5816 0.53996 0.0
C2289 C 0.12325 0.57675 0.52255 0.0
C2290 C 0.14242 0.58085 0.52903 0.0
H2291 H 0.23253 0.57725 0.52441 0.0
H2292 H 0.2003 0.56162 0.528 0.0
H2293 H 0.16802 0.57666 0.56573 0.0
H2294 H 0.08344 0.57449 0.54063 0.0
H2295 H 0.11576 0.5919 0.5451 0.0
C2296 C 0.68565 0.95761 0.7373 0.0
C2297 C 0.67193 0.96306 0.74581 0.0
C2298 C 0.69221 0.94338 0.74365 0.0
C2299 C 0.70318 0.9273 0.78358 0.0
H2300 H 0.7095 0.88473 0.75398 0.0
C2301 C 0.75174 0.88196 0.80142 0.0
C2302 C 0.7628 0.88052 0.7876 0.0
C2303 C 0.73735 0.88986 0.79882 0.0
C2304 C 0.7076 0.89643 0.76245 0.0
H2305 H 0.65407 0.95818 0.76729 0.0
H2306 H 0.6662 0.93375 0.77876 0.0
H2307 H 0.68853 0.90186 0.74344 0.0
H2308 H 0.76881 0.88715 0.76096 0.0
H2309 H 0.74397 0.90126 0.75649 0.0
H2310 H 0.72341 0.92287 0.80196 0.0
C2311 C 0.67147 0.94015 0.76705 0.0
C2312 C 0.69566 0.90609 0.75646 0.0
C2313 C 0.66463 0.95404 0.76049 0.0
C2314 C 0.76028 0.88814 0.7717 0.0
C2315 C 0.746 0.89591 0.76909 0.0
C2316 C 0.71529 0.91773 0.78952 0.0
C2317 C 0.68533 0.93489 0.75872 0.0
C2318 C 0.69407 0.92204 0.76667 0.0
C2319 C 0.73405 0.89614 0.78236 0.0
C2320 C 0.7182 0.90289 0.77855 0.0
H2321 H 0.69131 0.9644 0.7259 0.0
H2322 H 0.70315 0.93953 0.73725 0.0
H2323 H 0.70205 0.93971 0.79154 0.0
H2324 H 0.75351 0.87593 0.81371 0.0
H2325 H 0.72833 0.89021 0.80924 0.0
C2326 C 0.72631 0.88711 0.50788 0.0
C2327 C 0.73133 0.88442 0.52526 0.0
C2328 C 0.71372 0.89724 0.50463 0.0
C2329 C 0.67688 0.91261 0.52418 0.0
H2330 H 0.68971 0.95393 0.49415 0.0
C2331 C 0.64046 0.97077 0.5251 0.0
C2332 C 0.63717 0.97817 0.50919 0.0
C2333 C 0.65094 0.9581 0.52574 0.0
C2334 C 0.68576 0.94224 0.50232 0.0
H2335 H 0.72754 0.88999 0.55286 0.0
H2336 H 0.70506 0.9073 0.54723 0.0
H2337 H 0.70969 0.93358 0.49755 0.0
H2338 H 0.642 0.97782 0.48138 0.0
H2339 H 0.66027 0.9555 0.48247 0.0
H2340 H 0.65298 0.92117 0.52899 0.0
C2341 C 0.71073 0.90155 0.53611 0.0
C2342 C 0.69722 0.93063 0.50429 0.0
C2343 C 0.72354 0.8917 0.53935 0.0
C2344 C 0.64451 0.97253 0.49388 0.0
C2345 C 0.65497 0.95976 0.49451 0.0
C2346 C 0.66535 0.92411 0.52211 0.0
C2347 C 0.70586 0.90459 0.51873 0.0
C2348 C 0.69303 0.91592 0.51548 0.0
C2349 C 0.65833 0.95244 0.51047 0.0
C2350 C 0.66983 0.93928 0.51143 0.0
H2351 H 0.73251 0.88185 0.49688 0.0
H2352 H 0.71017 0.89936 0.49112 0.0
H2353 H 0.6732 0.90117 0.53267 0.0
H2354 H 0.63524 0.9751 0.53717 0.0
H2355 H 0.65359 0.95307 0.53834 0.0
C2356 C 0.39308 0.45073 0.70999 0.0
C2357 C 0.38959 0.46783 0.71574 0.0
C2358 C 0.38286 0.43368 0.71565 0.0
C2359 C 0.34079 0.41146 0.73638 0.0
H2360 H 0.36838 0.37769 0.75128 0.0
C2361 C 0.3084 0.34208 0.76733 0.0
C2362 C 0.31218 0.32637 0.75849 0.0
C2363 C 0.3182 0.36042 0.76421 0.0
C2364 C 0.36061 0.38711 0.74724 0.0
H2365 H 0.372 0.48045 0.73099 0.0
H2366 H 0.35456 0.45087 0.7411 0.0
H2367 H 0.38431 0.40762 0.74006 0.0
H2368 H 0.3287 0.31718 0.73931 0.0
H2369 H 0.34555 0.34916 0.7337 0.0
H2370 H 0.31707 0.39081 0.74346 0.0
C2371 C 0.36498 0.45054 0.7321 0.0
C2372 C 0.36963 0.40405 0.74067 0.0
C2373 C 0.37501 0.46749 0.72628 0.0
C2374 C 0.32568 0.32911 0.74643 0.0
C2375 C 0.3354 0.34735 0.74331 0.0
C2376 C 0.33179 0.39457 0.74306 0.0
C2377 C 0.36915 0.43361 0.72721 0.0
C2378 C 0.35971 0.4161 0.7348 0.0
C2379 C 0.33179 0.36308 0.75224 0.0
C2380 C 0.3416 0.38212 0.74807 0.0
H2381 H 0.40417 0.4506 0.70176 0.0
H2382 H 0.38599 0.42065 0.71139 0.0
H2383 H 0.33286 0.42055 0.7319 0.0
H2384 H 0.2981 0.34022 0.77679 0.0
H2385 H 0.31526 0.37249 0.77117 0.0
C2386 C 0.16317 0.58497 0.23269 0.0
C2387 C 0.16786 0.56957 0.23942 0.0
C2388 C 0.17422 0.60348 0.23729 0.0
C2389 C 0.20728 0.63535 0.26887 0.0
H2390 H 0.23041 0.65808 0.22856 0.0
C2391 C 0.26426 0.70658 0.27684 0.0
C2392 C 0.26392 0.71889 0.26375 0.0
C2393 C 0.25301 0.68786 0.27449 0.0
C2394 C 0.22388 0.65213 0.23993 0.0
H2395 H 0.18714 0.56147 0.25698 0.0
H2396 H 0.20643 0.59404 0.26504 0.0
H2397 H 0.20788 0.62701 0.22425 0.0
H2398 H 0.25166 0.72175 0.23814 0.0
H2399 H 0.23147 0.68961 0.23438 0.0
H2400 H 0.22268 0.66075 0.28453 0.0
C2401 C 0.19426 0.59161 0.25617 0.0
C2402 C 0.21106 0.63435 0.23743 0.0
C2403 C 0.18338 0.57306 0.25136 0.0
C2404 C 0.25241 0.71234 0.24826 0.0
C2405 C 0.24087 0.69388 0.2461 0.0
C2406 C 0.21984 0.65342 0.27136 0.0
C2407 C 0.18988 0.60683 0.2489 0.0
C2408 C 0.20273 0.6259 0.25185 0.0
C2409 C 0.241 0.68143 0.25919 0.0
C2410 C 0.22825 0.66199 0.25688 0.0
H2411 H 0.15119 0.58271 0.2236 0.0
H2412 H 0.17075 0.61517 0.23157 0.0
H2413 H 0.20094 0.62887 0.28013 0.0
H2414 H 0.2731 0.71147 0.28891 0.0
H2415 H 0.25366 0.67852 0.28468 0.0
C2416 C 0.50659 0.70742 0.46589 0.0
C2417 C 0.49959 0.70566 0.44818 0.0
C2418 C 0.50988 0.6918 0.47336 0.0
C2419 C 0.52003 0.64713 0.46025 0.0
H2420 H 0.50818 0.63454 0.50755 0.0
C2421 C 0.54327 0.58947 0.49494 0.0
C2422 C 0.52924 0.57633 0.50244 0.0
C2423 C 0.54031 0.6059 0.48886 0.0
C2424 C 0.51157 0.63793 0.49432 0.0
H2425 H 0.48968 0.68596 0.42471 0.0
H2426 H 0.49527 0.65872 0.43781 0.0
H2427 H 0.50059 0.66168 0.49593 0.0
H2428 H 0.50127 0.57022 0.50972 0.0
H2429 H 0.49624 0.59895 0.49934 0.0
H2430 H 0.53085 0.62326 0.45858 0.0
C2431 C 0.49849 0.67223 0.44581 0.0
C2432 C 0.50733 0.6535 0.48773 0.0
C2433 C 0.49513 0.68779 0.43837 0.0
C2434 C 0.51232 0.58002 0.50393 0.0
C2435 C 0.50947 0.59654 0.49812 0.0
C2436 C 0.52442 0.63168 0.4669 0.0
C2437 C 0.5063 0.67419 0.46323 0.0
C2438 C 0.51128 0.65808 0.47053 0.0
C2439 C 0.5234 0.6096 0.49048 0.0
C2440 C 0.52 0.62679 0.48391 0.0
H2441 H 0.51021 0.72102 0.47378 0.0
H2442 H 0.51593 0.69372 0.48681 0.0
H2443 H 0.52351 0.65053 0.44704 0.0
H2444 H 0.55642 0.58694 0.49356 0.0
H2445 H 0.55127 0.6158 0.48304 0.0
C2446 C 0.62607 0.30731 0.67051 0.0
C2447 C 0.62593 0.30526 0.652 0.0
C2448 C 0.6404 0.30454 0.68107 0.0
C2449 C 0.6762 0.28015 0.67959 0.0
H2450 H 0.69606 0.31224 0.72301 0.0
C2451 C 0.74283 0.28012 0.71917 0.0
C2452 C 0.74224 0.28 0.73756 0.0
C2453 C 0.72798 0.28213 0.70881 0.0
C2454 C 0.69049 0.30306 0.71101 0.0
H2455 H 0.64095 0.29928 0.63001 0.0
H2456 H 0.66615 0.29463 0.64848 0.0
H2457 H 0.67201 0.31901 0.70454 0.0
H2458 H 0.72574 0.28175 0.75956 0.0
H2459 H 0.69996 0.28571 0.74145 0.0
H2460 H 0.69499 0.26443 0.68599 0.0
C2461 C 0.65502 0.29813 0.65482 0.0
C2462 C 0.67674 0.30692 0.70043 0.0
C2463 C 0.64071 0.30099 0.64424 0.0
C2464 C 0.72652 0.28175 0.7454 0.0
C2465 C 0.71183 0.2841 0.73508 0.0
C2466 C 0.69005 0.27638 0.69011 0.0
C2467 C 0.65488 0.29961 0.67333 0.0
C2468 C 0.66952 0.29557 0.68456 0.0
C2469 C 0.71247 0.28439 0.71671 0.0
C2470 C 0.69734 0.28784 0.70587 0.0
H2471 H 0.61485 0.31059 0.67686 0.0
H2472 H 0.63981 0.30564 0.69527 0.0
H2473 H 0.67063 0.2709 0.66764 0.0
H2474 H 0.75475 0.27868 0.7128 0.0
H2475 H 0.72882 0.28244 0.69467 0.0
C2476 C 0.99656 0.32578 0.93542 0.0
C2477 C 0.00911 0.3164 0.94105 0.0
C2478 C 0.99633 0.34291 0.94438 0.0
C2479 C 0.01515 0.3761 0.98484 0.0
H2480 H 0.00846 0.41358 0.95391 0.0
C2481 C 0.03888 0.45731 0.00333 0.0
C2482 C 0.02562 0.46687 0.00053 0.0
C2483 C 0.03531 0.43821 -0.00284 0.0
C2484 C 0.01016 0.40318 0.9627 0.0
H2485 H 0.03087 0.3168 0.96055 0.0
H2486 H 0.03118 0.34738 0.97591 0.0
H2487 H 0.00494 0.38118 0.94159 0.0
H2488 H 0.99838 0.46416 0.98891 0.0
H2489 H 0.99238 0.43072 0.97754 0.0
H2490 H 0.02134 0.3987 0.00578 0.0
C2491 C 0.0211 0.34132 0.96492 0.0
C2492 C 0.00803 0.38457 0.9557 0.0
C2493 C 0.02103 0.3239 0.95613 0.0
C2494 C 0.0088 0.45707 0.99127 0.0
C2495 C 0.00538 0.43804 0.98477 0.0
C2496 C 0.01759 0.39485 0.99178 0.0
C2497 C 0.00903 0.35124 0.95886 0.0
C2498 C 0.01052 0.37078 0.96667 0.0
C2499 C 0.01857 0.42847 0.98779 0.0
C2500 C 0.01517 0.4085 0.98073 0.0
H2501 H 0.98716 0.32002 0.92385 0.0
H2502 H 0.98648 0.34983 0.93964 0.0
H2503 H 0.01694 0.36582 0.99371 0.0
H2504 H 0.05191 0.46449 0.01058 0.0
H2505 H 0.04573 0.4311 -0.00052 0.0
C2506 C 0.01001 0.75732 0.15669 0.0
C2507 C 0.02068 0.77512 0.15263 0.0
C2508 C 0.99255 0.75515 0.16222 0.0
C2509 C 0.95671 0.78018 0.16909 0.0
H2510 H 0.94611 0.74692 0.20667 0.0
C2511 C 0.8912 0.76904 0.20749 0.0
C2512 C 0.89357 0.76744 0.2257 0.0
C2513 C 0.90551 0.76939 0.19667 0.0
C2514 C 0.9489 0.7564 0.1963 0.0
H2515 H 0.02152 0.80448 0.15044 0.0
H2516 H 0.99137 0.80111 0.16126 0.0
H2517 H 0.97296 0.74871 0.19091 0.0
H2518 H 0.91299 0.76602 0.24698 0.0
H2519 H 0.93788 0.76695 0.22835 0.0
H2520 H 0.93309 0.78873 0.1755 0.0
C2521 C 0.99611 0.7886 0.15959 0.0
C2522 C 0.96418 0.75717 0.18695 0.0
C2523 C 0.01342 0.79061 0.15351 0.0
C2524 C 0.91061 0.76677 0.23294 0.0
C2525 C 0.92487 0.76726 0.22221 0.0
C2526 C 0.94149 0.77962 0.17867 0.0
C2527 C 0.98564 0.77092 0.16447 0.0
C2528 C 0.96845 0.7692 0.17333 0.0
C2529 C 0.92245 0.76828 0.20391 0.0
C2530 C 0.93763 0.76796 0.19262 0.0
H2531 H 0.01529 0.74511 0.15579 0.0
H2532 H 0.98468 0.74117 0.16521 0.0
H2533 H 0.95939 0.7894 0.15851 0.0
H2534 H 0.87818 0.76953 0.20155 0.0
H2535 H 0.90317 0.77009 0.18261 0.0
C2536 C 0.53536 0.3398 0.10623 0.0
C2537 C 0.53973 0.34078 0.12464 0.0
C2538 C 0.53584 0.35634 0.09744 0.0
C2539 C 0.55294 0.41116 0.1032 0.0
H2540 H 0.5209 0.40691 0.06105 0.0
C2541 C 0.54758 0.47981 0.06871 0.0
C2542 C 0.54282 0.47833 0.05031 0.0
C2543 C 0.54744 0.4635 0.07781 0.0
C2544 C 0.53024 0.40862 0.07265 0.0
H2545 H 0.54815 0.36091 0.14791 0.0
H2546 H 0.54896 0.38933 0.13291 0.0
H2547 H 0.5203 0.37877 0.07608 0.0
H2548 H 0.53421 0.45756 0.02747 0.0
H2549 H 0.53414 0.42979 0.0429 0.0
H2550 H 0.56285 0.44106 0.09976 0.0
C2551 C 0.54527 0.37576 0.125 0.0
C2552 C 0.52988 0.39213 0.08145 0.0
C2553 C 0.54469 0.35921 0.13378 0.0
C2554 C 0.53797 0.45972 0.04155 0.0
C2555 C 0.53778 0.44347 0.0506 0.0
C2556 C 0.55331 0.42767 0.09439 0.0
C2557 C 0.5408 0.37485 0.10655 0.0
C2558 C 0.54123 0.39286 0.09699 0.0
C2559 C 0.54244 0.4448 0.06903 0.0
C2560 C 0.54199 0.42691 0.0788 0.0
H2561 H 0.53148 0.32611 0.09848 0.0
H2562 H 0.53251 0.3545 0.08331 0.0
H2563 H 0.56223 0.41283 0.11484 0.0
H2564 H 0.55134 0.49364 0.0762 0.0
H2565 H 0.55097 0.46563 0.09191 0.0
C2566 C 0.96761 0.25295 0.35086 0.0
C2567 C 0.9832 0.26788 0.34796 0.0
C2568 C 0.94969 0.25234 0.34376 0.0
C2569 C 0.92534 0.27626 0.31046 0.0
H2570 H 0.88141 0.25023 0.3316 0.0
C2571 C 0.85416 0.28687 0.28805 0.0
C2572 C 0.83777 0.2719 0.28806 0.0
C2573 C 0.8712 0.28549 0.29524 0.0
C2574 C 0.89344 0.25752 0.32531 0.0
H2575 H 0.99109 0.29425 0.33547 0.0
H2576 H 0.96096 0.29359 0.3241 0.0
H2577 H 0.91127 0.24928 0.34409 0.0
H2578 H 0.82734 0.24346 0.29613 0.0
H2579 H 0.85677 0.24106 0.30857 0.0
H2580 H 0.90764 0.28463 0.29181 0.0
C2581 C 0.96218 0.28174 0.33115 0.0
C2582 C 0.91085 0.25694 0.33257 0.0
C2583 C 0.97986 0.28222 0.33799 0.0
C2584 C 0.83936 0.25545 0.29575 0.0
C2585 C 0.85645 0.2541 0.30306 0.0
C2586 C 0.90803 0.27696 0.30334 0.0
C2587 C 0.9465 0.26672 0.33356 0.0
C2588 C 0.92737 0.26648 0.32546 0.0
C2589 C 0.87288 0.26907 0.30295 0.0
C2590 C 0.89158 0.26775 0.31061 0.0
H2591 H 0.96924 0.24154 0.35838 0.0
H2592 H 0.93836 0.24034 0.34609 0.0
H2593 H 0.93717 0.28336 0.30384 0.0
H2594 H 0.85392 0.2999 0.28246 0.0
H2595 H 0.88311 0.29761 0.29495 0.0
C2596 C 0.02519 0.70132 0.63634 0.0
C2597 C 0.02999 0.71926 0.62945 0.0
C2598 C 0.02548 0.68443 0.62635 0.0
C2599 C 0.04392 0.66537 0.5856 0.0
H2600 H 0.01009 0.61755 0.59492 0.0
C2601 C 0.03859 0.59306 0.54272 0.0
C2602 C 0.03403 0.57567 0.55055 0.0
C2603 C 0.03835 0.61044 0.552 0.0
C2604 C 0.0199 0.63063 0.59217 0.0
H2605 H 0.03898 0.73271 0.6059 0.0
H2606 H 0.03942 0.70328 0.58839 0.0
H2607 H 0.00882 0.64717 0.61057 0.0
H2608 H 0.02569 0.56368 0.57493 0.0
H2609 H 0.02511 0.59364 0.59098 0.0
H2610 H 0.05492 0.64872 0.56709 0.0
C2611 C 0.03543 0.70233 0.60179 0.0
C2612 C 0.01916 0.64791 0.60129 0.0
C2613 C 0.035 0.71938 0.61184 0.0
C2614 C 0.02926 0.57653 0.56821 0.0
C2615 C 0.02882 0.59391 0.57746 0.0
C2616 C 0.04464 0.64805 0.57643 0.0
C2617 C 0.03068 0.68438 0.60883 0.0
C2618 C 0.03121 0.66578 0.59835 0.0
C2619 C 0.03334 0.61135 0.5696 0.0
C2620 C 0.03267 0.63018 0.57952 0.0
H2621 H 0.02131 0.70026 0.64977 0.0
H2622 H 0.02199 0.67135 0.63271 0.0
H2623 H 0.0537 0.67848 0.58288 0.0
H2624 H 0.04244 0.59332 0.52924 0.0
H2625 H 0.04179 0.62317 0.54513 0.0
C2626 C 0.59528 0.76816 0.83696 0.0
C2627 C 0.59461 0.76829 0.85554 0.0
C2628 C 0.61166 0.76885 0.82855 0.0
C2629 C 0.65877 0.76083 0.83568 0.0
H2630 H 0.6703 0.78832 0.79439 0.0
C2631 C 0.72192 0.75681 0.79501 0.0
C2632 C 0.73259 0.77327 0.78796 0.0
C2633 C 0.70532 0.75628 0.80282 0.0
C2634 C 0.66749 0.78057 0.80595 0.0
H2635 H 0.61157 0.76907 0.87944 0.0
H2636 H 0.63959 0.7699 0.86502 0.0
H2637 H 0.64184 0.78711 0.80828 0.0
H2638 H 0.73305 0.80216 0.78374 0.0
H2639 H 0.70407 0.80111 0.79677 0.0
H2640 H 0.68428 0.75412 0.83327 0.0
C2641 C 0.62744 0.76931 0.85678 0.0
C2642 C 0.65085 0.77972 0.81394 0.0
C2643 C 0.61116 0.76894 0.86519 0.0
C2644 C 0.72554 0.78913 0.7889 0.0
C2645 C 0.70867 0.78847 0.7964 0.0
C2646 C 0.67521 0.76139 0.8275 0.0
C2647 C 0.62823 0.76937 0.83821 0.0
C2648 C 0.64606 0.76996 0.82915 0.0
C2649 C 0.69817 0.77207 0.80376 0.0
C2650 C 0.68014 0.77138 0.81247 0.0
H2651 H 0.58307 0.76766 0.82881 0.0
H2652 H 0.61121 0.76866 0.8143 0.0
H2653 H 0.65594 0.75292 0.84713 0.0
H2654 H 0.72655 0.74419 0.79476 0.0
H2655 H 0.69793 0.74322 0.80798 0.0
C2656 C 0.43041 0.5201 0.6589 0.0
C2657 C 0.44024 0.52828 0.67505 0.0
C2658 C 0.43898 0.51235 0.64584 0.0
C2659 C 0.47194 0.52768 0.62463 0.0
H2660 H 0.50144 0.49264 0.62111 0.0
C2661 C 0.53204 0.54535 0.58505 0.0
C2662 C 0.5273 0.53277 0.56973 0.0
C2663 C 0.52371 0.53994 0.60038 0.0
C2664 C 0.49332 0.50252 0.62225 0.0
H2665 H 0.46619 0.53366 0.69069 0.0
H2666 H 0.48076 0.51987 0.6681 0.0
H2667 H 0.47664 0.48734 0.64126 0.0
H2668 H 0.51246 0.50434 0.55832 0.0
H2669 H 0.49774 0.49496 0.58504 0.0
H2670 H 0.48901 0.54354 0.60663 0.0
C2671 C 0.4665 0.51924 0.66562 0.0
C2672 C 0.47903 0.49925 0.63327 0.0
C2673 C 0.45826 0.52754 0.67835 0.0
C2674 C 0.51584 0.51426 0.57009 0.0
C2675 C 0.50776 0.50878 0.58538 0.0
C2676 C 0.48641 0.53121 0.61411 0.0
C2677 C 0.45719 0.51239 0.6491 0.0
C2678 C 0.46842 0.51194 0.63449 0.0
C2679 C 0.51092 0.52193 0.60025 0.0
C2680 C 0.4973 0.51883 0.61306 0.0
H2681 H 0.41641 0.52023 0.65617 0.0
H2682 H 0.43188 0.50751 0.63288 0.0
H2683 H 0.46417 0.5379 0.6259 0.0
H2684 H 0.54122 0.55956 0.58485 0.0
H2685 H 0.52609 0.55023 0.61186 0.0
C2686 C 0.78388 0.15701 0.97488 0.0
C2687 C 0.78813 0.16955 0.99042 0.0
C2688 C 0.77548 0.16168 0.95984 0.0
C2689 C 0.74838 0.19316 0.94575 0.0
H2690 H 0.76492 0.18343 0.89969 0.0
C2691 C 0.74219 0.2358 0.88736 0.0
C2692 C 0.74124 0.22736 0.87003 0.0
C2693 C 0.74269 0.22523 0.90172 0.0
C2694 C 0.75976 0.18583 0.91236 0.0
H2695 H 0.78751 0.19712 0.00213 0.0
H2696 H 0.77347 0.20561 0.97561 0.0
H2697 H 0.77762 0.17257 0.9254 0.0
H2698 H 0.73818 0.20081 0.85406 0.0
H2699 H 0.73907 0.18227 0.87923 0.0
H2700 H 0.73098 0.20705 0.93269 0.0
C2701 C 0.7762 0.19193 0.97524 0.0
C2702 C 0.76714 0.17968 0.92715 0.0
C2703 C 0.78454 0.18723 0.99034 0.0
C2704 C 0.73933 0.20777 0.86731 0.0
C2705 C 0.7398 0.19717 0.8817 0.0
C2706 C 0.74099 0.19933 0.93093 0.0
C2707 C 0.77126 0.17904 0.95995 0.0
C2708 C 0.76197 0.18381 0.94407 0.0
C2709 C 0.74224 0.20599 0.89906 0.0
C2710 C 0.74703 0.19624 0.91415 0.0
H2711 H 0.78625 0.14316 0.97454 0.0
H2712 H 0.77176 0.15139 0.94832 0.0
H2713 H 0.74375 0.19607 0.95856 0.0
H2714 H 0.74378 0.25089 0.88989 0.0
H2715 H 0.74478 0.23254 0.9149 0.0
C2716 C 0.13216 0.5249 0.18022 0.0
C2717 C 0.12224 0.50729 0.18549 0.0
C2718 C 0.12355 0.53475 0.16948 0.0
C2719 C 0.07838 0.53347 0.1483 0.0
H2720 H 0.10456 0.53774 0.10586 0.0
C2721 C 0.0432 0.5039 0.08134 0.0
C2722 C 0.04794 0.51436 0.06687 0.0
C2723 C 0.05317 0.51004 0.09754 0.0
C2724 C 0.0972 0.53717 0.11766 0.0
H2725 H 0.09568 0.48658 0.18481 0.0
H2726 H 0.08083 0.50299 0.16491 0.0
H2727 H 0.12099 0.53867 0.13412 0.0
H2728 H 0.06651 0.53919 0.0576 0.0
H2729 H 0.08422 0.54981 0.08591 0.0
H2730 H 0.05424 0.53018 0.1314 0.0
C2731 C 0.09504 0.50958 0.16948 0.0
C2732 C 0.10662 0.53785 0.1339 0.0
C2733 C 0.10359 0.4999 0.18041 0.0
C2734 C 0.06299 0.53066 0.06851 0.0
C2735 C 0.07292 0.53688 0.08472 0.0
C2736 C 0.06893 0.5327 0.13203 0.0
C2737 C 0.10503 0.52693 0.16371 0.0
C2738 C 0.09699 0.53448 0.14907 0.0
C2739 C 0.06778 0.52686 0.09942 0.0
C2740 C 0.07814 0.53322 0.11656 0.0
H2741 H 0.14643 0.53126 0.1847 0.0
H2742 H 0.13145 0.54815 0.16525 0.0
H2743 H 0.07081 0.53128 0.15996 0.0
H2744 H 0.03151 0.49132 0.08021 0.0
H2745 H 0.04937 0.50175 0.10863 0.0
C2746 C 0.77586 0.85425 0.45088 0.0
C2747 C 0.77593 0.84438 0.46604 0.0
C2748 C 0.77836 0.84626 0.43435 0.0
C2749 C 0.77245 0.80254 0.40689 0.0
H2750 H 0.80993 0.83311 0.38033 0.0
C2751 C 0.7837 0.7759 0.33595 0.0
C2752 C 0.78868 0.78951 0.32382 0.0
C2753 C 0.78377 0.78157 0.35395 0.0
C2754 C 0.79922 0.82443 0.38738 0.0
H2755 H 0.77821 0.81798 0.47539 0.0
H2756 H 0.78208 0.80369 0.44608 0.0
H2757 H 0.80638 0.84446 0.41044 0.0
H2758 H 0.79749 0.81959 0.32066 0.0
H2759 H 0.79678 0.82966 0.35184 0.0
H2760 H 0.7645 0.783 0.38366 0.0
C2761 C 0.78029 0.8178 0.44729 0.0
C2762 C 0.79733 0.8309 0.40474 0.0
C2763 C 0.77807 0.82597 0.46404 0.0
C2764 C 0.7938 0.80887 0.32988 0.0
C2765 C 0.79349 0.81458 0.34781 0.0
C2766 C 0.7741 0.7962 0.38938 0.0
C2767 C 0.78076 0.82805 0.43236 0.0
C2768 C 0.7838 0.82014 0.41461 0.0
C2769 C 0.7884 0.80102 0.36017 0.0
C2770 C 0.78737 0.80717 0.37925 0.0
H2771 H 0.77425 0.86844 0.45177 0.0
H2772 H 0.77841 0.85437 0.42304 0.0
H2773 H 0.76179 0.79405 0.41415 0.0
H2774 H 0.77974 0.76086 0.33148 0.0
H2775 H 0.78014 0.77065 0.36295 0.0
C2776 C 0.45335 0.50643 0.77706 0.0
C2777 C 0.44703 0.52162 0.77226 0.0
C2778 C 0.45909 0.50564 0.79449 0.0
C2779 C 0.45898 0.52271 0.84046 0.0
H2780 H 0.50683 0.51416 0.84342 0.0
C2781 C 0.50015 0.52148 0.90643 0.0
C2782 C 0.50685 0.50559 0.90705 0.0
C2783 C 0.49276 0.52545 0.89052 0.0
C2784 C 0.49347 0.51653 0.84279 0.0
H2785 H 0.44028 0.54708 0.78196 0.0
H2786 H 0.45092 0.54592 0.81282 0.0
H2787 H 0.49257 0.51687 0.81478 0.0
H2788 H 0.51107 0.4814 0.8916 0.0
H2789 H 0.49833 0.48844 0.8638 0.0
H2790 H 0.45986 0.52198 0.86859 0.0
C2791 C 0.45133 0.53467 0.80295 0.0
C2792 C 0.48532 0.51806 0.82645 0.0
C2793 C 0.44537 0.53538 0.78539 0.0
C2794 C 0.50623 0.49387 0.89147 0.0
C2795 C 0.49894 0.49789 0.87559 0.0
C2796 C 0.46719 0.52117 0.85692 0.0
C2797 C 0.45881 0.52013 0.80744 0.0
C2798 C 0.46783 0.52061 0.82509 0.0
C2799 C 0.49213 0.51369 0.87499 0.0
C2800 C 0.48429 0.51759 0.8581 0.0
H2801 H 0.4542 0.4953 0.76725 0.0
H2802 H 0.46434 0.49399 0.79777 0.0
H2803 H 0.44549 0.52474 0.83967 0.0
H2804 H 0.50076 0.53094 0.91821 0.0
H2805 H 0.48774 0.53781 0.89031 0.0
C2806 C 0.76601 0.15738 0.10716 0.0
C2807 C 0.78142 0.16277 0.09737 0.0
C2808 C 0.76529 0.16768 0.12307 0.0
C2809 C 0.79491 0.1958 0.15938 0.0
H2810 H 0.75682 0.21979 0.16863 0.0
C2811 C 0.80559 0.258 0.21151 0.0
C2812 C 0.79142 0.25831 0.22224 0.0
C2813 C 0.80273 0.24408 0.19741 0.0
C2814 C 0.76733 0.21283 0.16636 0.0
H2815 H 0.80783 0.18329 0.09606 0.0
H2816 H 0.80675 0.20115 0.12423 0.0
H2817 H 0.75453 0.19957 0.14102 0.0
H2818 H 0.76294 0.24563 0.22635 0.0
H2819 H 0.75792 0.22082 0.2017 0.0
H2820 H 0.80786 0.20911 0.18449 0.0
C2821 C 0.79529 0.18897 0.1195 0.0
C2822 C 0.76604 0.20139 0.1506 0.0
C2823 C 0.79587 0.17887 0.10343 0.0
C2824 C 0.77419 0.24502 0.21851 0.0
C2825 C 0.77128 0.23108 0.20435 0.0
C2826 C 0.79612 0.20705 0.17514 0.0
C2827 C 0.78012 0.18326 0.12949 0.0
C2828 C 0.78015 0.19335 0.14683 0.0
C2829 C 0.78558 0.23045 0.19377 0.0
C2830 C 0.78268 0.21619 0.17848 0.0
H2831 H 0.75456 0.14512 0.10257 0.0
H2832 H 0.75345 0.16317 0.1306 0.0
H2833 H 0.80573 0.18935 0.15679 0.0
H2834 H 0.81888 0.26841 0.21412 0.0
H2835 H 0.81385 0.24416 0.18916 0.0
C2836 C 0.11753 0.53236 0.29068 0.0
C2837 C 0.11908 0.515 0.28321 0.0
C2838 C 0.11399 0.53433 0.30827 0.0
C2839 C 0.10778 0.51361 0.35031 0.0
H2840 H 0.06277 0.52807 0.34651 0.0
C2841 C 0.05815 0.50962 0.40582 0.0
C2842 C 0.0527 0.52619 0.40918 0.0
C2843 C 0.0678 0.50749 0.39118 0.0
C2844 C 0.07537 0.52415 0.3478 0.0
H2845 H 0.12041 0.48681 0.28818 0.0
H2846 H 0.1129 0.48983 0.31905 0.0
H2847 H 0.07984 0.52719 0.32072 0.0
H2848 H 0.05313 0.55352 0.40005 0.0
H2849 H 0.06972 0.54966 0.37436 0.0
H2850 H 0.10311 0.51065 0.37762 0.0
C2851 C 0.1148 0.50197 0.3114 0.0
C2852 C 0.08516 0.52372 0.33311 0.0
C2853 C 0.1188 0.50016 0.2938 0.0
C2854 C 0.05683 0.54045 0.39757 0.0
C2855 C 0.0664 0.53829 0.38296 0.0
C2856 C 0.09793 0.51412 0.36517 0.0
C2857 C 0.11144 0.51876 0.31838 0.0
C2858 C 0.10159 0.51883 0.33432 0.0
C2859 C 0.07198 0.52183 0.37968 0.0
C2860 C 0.08183 0.51972 0.36401 0.0
H2861 H 0.11839 0.54416 0.28274 0.0
H2862 H 0.1118 0.54752 0.3136 0.0
H2863 H 0.12033 0.50956 0.35136 0.0
H2864 H 0.05498 0.49835 0.41453 0.0
H2865 H 0.07182 0.49459 0.38875 0.0
C2866 C 0.7742 0.81709 0.58027 0.0
C2867 C 0.77984 0.83679 0.57873 0.0
C2868 C 0.77352 0.81011 0.597 0.0
C2869 C 0.79074 0.82485 0.64434 0.0
H2870 H 0.74973 0.78298 0.65411 0.0
C2871 C 0.77768 0.80826 0.71591 0.0
C2872 C 0.77214 0.78913 0.71955 0.0
C2873 C 0.77782 0.8131 0.69847 0.0
C2874 C 0.76139 0.79456 0.6516 0.0
H2875 H 0.78917 0.86455 0.59365 0.0
H2876 H 0.78774 0.85253 0.62249 0.0
H2877 H 0.75232 0.79279 0.62416 0.0
H2878 H 0.76193 0.76004 0.7076 0.0
H2879 H 0.76243 0.76847 0.67712 0.0
H2880 H 0.79984 0.82674 0.67165 0.0
C2881 C 0.78418 0.84236 0.61089 0.0
C2882 C 0.7629 0.80017 0.63437 0.0
C2883 C 0.78491 0.84928 0.59427 0.0
C2884 C 0.76609 0.77495 0.70529 0.0
C2885 C 0.7664 0.77979 0.68777 0.0
C2886 C 0.78924 0.81927 0.6615 0.0
C2887 C 0.77846 0.82268 0.61257 0.0
C2888 C 0.77746 0.81561 0.63055 0.0
C2889 C 0.77264 0.79895 0.6841 0.0
C2890 C 0.7744 0.80425 0.66549 0.0
H2891 H 0.7702 0.80707 0.56858 0.0
H2892 H 0.76921 0.79487 0.59773 0.0
H2893 H 0.80239 0.83649 0.6419 0.0
H2894 H 0.78229 0.81955 0.72657 0.0
H2895 H 0.78225 0.82803 0.69627 0.0
C2896 C 0.73732 0.4438 0.49299 0.0
C2897 C 0.73718 0.42767 0.50173 0.0
C2898 C 0.72719 0.45572 0.49877 0.0
C2899 C 0.70897 0.47111 0.53847 0.0
H2900 H 0.67978 0.49053 0.50558 0.0
C2901 C 0.65284 0.50768 0.55373 0.0
C2902 C 0.6537 0.52397 0.54498 0.0
C2903 C 0.66567 0.49777 0.55104 0.0
C2904 C 0.68809 0.48536 0.51484 0.0
H2905 H 0.72634 0.41095 0.52299 0.0
H2906 H 0.7084 0.43193 0.53315 0.0
H2907 H 0.6954 0.46786 0.49455 0.0
H2908 H 0.66889 0.54344 0.52747 0.0
H2909 H 0.69117 0.52587 0.5225 0.0
H2910 H 0.70117 0.48841 0.55881 0.0
C2911 C 0.71634 0.43527 0.52186 0.0
C2912 C 0.69694 0.47241 0.50856 0.0
C2913 C 0.7263 0.42317 0.5159 0.0
C2914 C 0.66818 0.53102 0.53452 0.0
C2915 C 0.6808 0.52097 0.5316 0.0
C2916 C 0.69998 0.48401 0.54478 0.0
C2917 C 0.717 0.45178 0.51351 0.0
C2918 C 0.70742 0.46518 0.52032 0.0
C2919 C 0.67917 0.50394 0.53931 0.0
C2920 C 0.68955 0.49121 0.53295 0.0
H2921 H 0.74583 0.44757 0.48214 0.0
H2922 H 0.72795 0.46845 0.49219 0.0
H2923 H 0.71723 0.46587 0.54772 0.0
H2924 H 0.64165 0.50203 0.56177 0.0
H2925 H 0.6642 0.48455 0.55699 0.0
C2926 C 0.21953 0.15535 0.49964 0.0
C2927 C 0.23483 0.15084 0.50699 0.0
C2928 C 0.20191 0.14361 0.50137 0.0
C2929 C 0.1739 0.11209 0.52867 0.0
H2930 H 0.14743 0.0822 0.48634 0.0
C2931 C 0.10683 0.0522 0.53221 0.0
C2932 C 0.09339 0.04928 0.51817 0.0
C2933 C 0.12436 0.06441 0.53098 0.0
C2934 C 0.15438 0.09067 0.49828 0.0
H2935 H 0.2438 0.13096 0.52232 0.0
H2936 H 0.213 0.11099 0.52591 0.0
H2937 H 0.17674 0.10565 0.48424 0.0
H2938 H 0.0875 0.05704 0.49205 0.0
H2939 H 0.11741 0.0789 0.49027 0.0
H2940 H 0.15143 0.0978 0.54275 0.0
C2941 C 0.21469 0.12336 0.5186 0.0
C2942 C 0.17121 0.10402 0.49702 0.0
C2943 C 0.23226 0.13473 0.51644 0.0
C2944 C 0.09772 0.05871 0.50295 0.0
C2945 C 0.11498 0.07124 0.50191 0.0
C2946 C 0.15684 0.09906 0.52991 0.0
C2947 C 0.19945 0.12762 0.51092 0.0
C2948 C 0.1811 0.11469 0.5122 0.0
C2949 C 0.12858 0.07431 0.51589 0.0
C2950 C 0.14688 0.08807 0.51473 0.0
H2951 H 0.2212 0.16771 0.49231 0.0
H2952 H 0.19023 0.14702 0.49531 0.0
H2953 H 0.18145 0.12024 0.54054 0.0
H2954 H 0.10378 0.04508 0.54409 0.0
H2955 H 0.13455 0.06609 0.54188 0.0
C2956 C 0.19506 0.98583 0.79291 0.0
C2957 C 0.19014 0.98348 0.81022 0.0
C2958 C 0.20187 0.97263 0.78388 0.0
C2959 C 0.20698 0.9242 0.78515 0.0
H2960 H 0.24566 0.94366 0.7546 0.0
C2961 C 0.26976 0.89982 0.76955 0.0
C2962 C 0.26573 0.88603 0.75506 0.0
C2963 C 0.25797 0.91066 0.7729 0.0
C2964 C 0.23453 0.93805 0.76273 0.0
H2965 H 0.1884 0.96592 0.83193 0.0
H2966 H 0.20225 0.94349 0.81669 0.0
H2967 H 0.23077 0.96525 0.76875 0.0
H2968 H 0.24668 0.87267 0.73252 0.0
H2969 H 0.22602 0.89246 0.73819 0.0
H2970 H 0.21224 0.89724 0.7801 0.0
C2971 C 0.20005 0.9551 0.8098 0.0
C2972 C 0.226 0.95033 0.77088 0.0
C2973 C 0.19251 0.96804 0.81867 0.0
C2974 C 0.25005 0.88354 0.74358 0.0
C2975 C 0.23826 0.89458 0.74688 0.0
C2976 C 0.21574 0.91194 0.77711 0.0
C2977 C 0.20455 0.95717 0.7922 0.0
C2978 C 0.21244 0.94364 0.78252 0.0
C2979 C 0.24211 0.90788 0.76174 0.0
C2980 C 0.22978 0.919 0.76621 0.0
H2981 H 0.19266 0.99732 0.78595 0.0
H2982 H 0.20464 0.97438 0.77022 0.0
H2983 H 0.19632 0.91855 0.79374 0.0
H2984 H 0.28152 0.90149 0.7788 0.0
H2985 H 0.26094 0.9209 0.78447 0.0
C2986 C 0.35475 0.94905 0.96699 0.0
C2987 C 0.34456 0.93968 0.98008 0.0
C2988 C 0.3737 0.95529 0.96963 0.0
C2989 C 0.41188 0.96296 0.00379 0.0
H2990 H 0.41073 0.01547 0.00418 0.0
C2991 C 0.46823 0.01312 0.04028 0.0
C2992 C 0.47785 0.02263 0.02694 0.0
C2993 C 0.44926 0.00779 0.03865 0.0
C2994 C 0.4111 0.00087 0.00428 0.0
H2995 H 0.34574 0.92603 0.00425 0.0
H2996 H 0.37863 0.93792 0.00938 0.0
H2997 H 0.38755 0.99055 0.98618 0.0
H2998 H 0.47604 0.03861 0.00437 0.0
H2999 H 0.44317 0.02826 0.00088 0.0
H3000 H 0.43552 0.97326 0.02176 0.0
C3001 C 0.37228 0.94032 -0.00297 0.0
C3002 C 0.3982 0.98667 0.99364 0.0
C3003 C 0.3534 0.93383 0.99427 0.0
C3004 C 0.46877 0.03041 0.01433 0.0
C3005 C 0.44985 0.02475 0.01252 0.0
C3006 C 0.42487 0.97718 0.01435 0.0
C3007 C 0.38224 0.95274 0.98565 0.0
C3008 C 0.39841 0.96761 0.99343 0.0
C3009 C 0.44025 0.01127 0.02326 0.0
C3010 C 0.42448 0.99625 0.0148 0.0
H3011 H 0.34808 0.95288 0.95551 0.0
H3012 H 0.38135 0.9644 0.96045 0.0
H3013 H 0.41211 0.94831 0.00398 0.0
H3014 H 0.47517 0.00796 0.05074 0.0
H3015 H 0.44188 0.99815 0.04759 0.0
C3016 C 0.87804 0.56745 0.78448 0.0
C3017 C 0.88729 0.57171 0.80134 0.0
C3018 C 0.872 0.5811 0.77655 0.0
C3019 C 0.87745 0.63298 0.78043 0.0
H3020 H 0.83287 0.61671 0.74934 0.0
C3021 C 0.82858 0.67656 0.76931 0.0
C3022 C 0.81949 0.67531 0.75255 0.0
C3023 C 0.84092 0.66626 0.77206 0.0
C3024 C 0.84561 0.62144 0.7576 0.0
H3025 H 0.89684 0.59298 0.82362 0.0
H3026 H 0.88417 0.6164 0.81059 0.0
H3027 H 0.84458 0.59312 0.76211 0.0
H3028 H 0.81649 0.6631 0.72538 0.0
H3029 H 0.83801 0.64446 0.73035 0.0
H3030 H 0.87727 0.66152 0.77691 0.0
C3031 C 0.88256 0.60287 0.80305 0.0
C3032 C 0.85235 0.60792 0.765 0.0
C3033 C 0.88937 0.58938 0.81073 0.0
C3034 C 0.82324 0.66401 0.73844 0.0
C3035 C 0.83562 0.65361 0.74122 0.0
C3036 C 0.87044 0.64656 0.77327 0.0
C3037 C 0.87432 0.59903 0.78564 0.0
C3038 C 0.86808 0.61352 0.77685 0.0
C3039 C 0.84427 0.65447 0.75813 0.0
C3040 C 0.8542 0.64081 0.7622 0.0
H3041 H 0.87692 0.55414 0.77671 0.0
H3042 H 0.86622 0.57777 0.76299 0.0
H3043 H 0.88992 0.63776 0.78905 0.0
H3044 H 0.82569 0.68504 0.78044 0.0
H3045 H 0.84705 0.66672 0.78532 0.0
C3046 C 0.84106 0.65272 0.0422 0.0
C3047 C 0.83385 0.65558 0.02567 0.0
C3048 C 0.85638 0.64612 0.04352 0.0
C3049 C 0.89312 0.63517 0.01829 0.0
H3050 H 0.88819 0.59597 0.05054 0.0
C3051 C 0.93168 0.57843 0.0132 0.0
C3052 C 0.9381 0.57287 0.02895 0.0
C3053 C 0.92096 0.59093 0.01366 0.0
C3054 C 0.88996 0.60709 0.04169 0.0
H3055 H 0.83708 0.65455 -0.00239 0.0
H3056 H 0.86354 0.64213 -0.0003 0.0
H3057 H 0.86624 0.61409 0.04972 0.0
H3058 H 0.93888 0.5764 0.05754 0.0
H3059 H 0.92019 0.59838 0.05836 0.0
H3060 H 0.91657 0.62754 0.00988 0.0
C3061 C 0.85776 0.64553 0.01175 0.0
C3062 C 0.87739 0.61756 0.04123 0.0
C3063 C 0.84262 0.65259 0.0105 0.0
C3064 C 0.9339 0.58029 0.0452 0.0
C3065 C 0.92323 0.59285 0.04566 0.0
C3066 C 0.90566 0.62459 0.01868 0.0
C3067 C 0.86447 0.6417 0.02825 0.0
C3068 C 0.87871 0.63162 0.02943 0.0
C3069 C 0.9165 0.59814 0.02989 0.0
C3070 C 0.90408 0.61033 0.03027 0.0
H3071 H 0.83449 0.6551 0.05407 0.0
H3072 H 0.86149 0.64386 0.05647 0.0
H3073 H 0.89468 0.64607 0.00923 0.0
H3074 H 0.93453 0.57271 0.0005 0.0
H3075 H 0.91572 0.59448 0.00128 0.0
C3076 C 0.1871 0.08718 0.82585 0.0
C3077 C 0.17041 0.08222 0.81536 0.0
C3078 C 0.19914 0.10539 0.82621 0.0
C3079 C 0.21293 0.1364 0.79423 0.0
H3080 H 0.23689 0.17773 0.82995 0.0
C3081 C 0.24564 0.21038 0.77663 0.0
C3082 C 0.26306 0.22037 0.78445 0.0
C3083 C 0.23626 0.19322 0.78248 0.0
C3084 C 0.23052 0.16606 0.81999 0.0
H3085 H 0.15225 0.09289 0.79879 0.0
H3086 H 0.17353 0.12459 0.79917 0.0
H3087 H 0.21504 0.14882 0.83859 0.0
H3088 H 0.28442 0.22038 0.8045 0.0
H3089 H 0.26775 0.18999 0.81473 0.0
H3090 H 0.22802 0.15336 0.77559 0.0
C3091 C 0.17721 0.11433 0.807 0.0
C3092 C 0.21803 0.14976 0.82489 0.0
C3093 C 0.16516 0.09621 0.80669 0.0
C3094 C 0.27101 0.21286 0.79819 0.0
C3095 C 0.26151 0.19563 0.80412 0.0
C3096 C 0.2254 0.15248 0.7894 0.0
C3097 C 0.19454 0.11866 0.81607 0.0
C3098 C 0.20878 0.13523 0.81187 0.0
C3099 C 0.24412 0.18575 0.79622 0.0
C3100 C 0.23377 0.16765 0.80212 0.0
H3101 H 0.1913 0.07675 0.83302 0.0
H3102 H 0.21252 0.10861 0.83324 0.0
H3103 H 0.20619 0.12501 0.78413 0.0
H3104 H 0.23914 0.21585 0.76608 0.0
H3105 H 0.22269 0.18589 0.77641 0.0
C3106 C 0.40393 0.96537 0.30117 0.0
C3107 C 0.41062 0.97235 0.28548 0.0
C3108 C 0.39121 0.94759 0.3007 0.0
C3109 C 0.35369 0.91904 0.27133 0.0
H3110 H 0.3507 0.88054 0.304 0.0
C3111 C 0.30598 0.84373 0.26117 0.0
C3112 C 0.29988 0.83445 0.27603 0.0
C3113 C 0.31649 0.86263 0.26319 0.0
C3114 C 0.35119 0.89145 0.29508 0.0
H3115 H 0.4107 0.96613 0.25726 0.0
H3116 H 0.38809 0.93478 0.25634 0.0
H3117 H 0.37832 0.90736 0.30517 0.0
H3118 H 0.29814 0.83756 0.30432 0.0
H3119 H 0.3169 0.8709 0.30797 0.0
H3120 H 0.32664 0.90309 0.26114 0.0
C3121 C 0.39272 0.94309 0.26896 0.0
C3122 C 0.36706 0.90657 0.29559 0.0
C3123 C 0.4057 0.96082 0.26948 0.0
C3124 C 0.30276 0.84464 0.29274 0.0
C3125 C 0.31354 0.86356 0.29481 0.0
C3126 C 0.3378 0.90397 0.27086 0.0
C3127 C 0.38484 0.93677 0.28447 0.0
C3128 C 0.3685 0.92031 0.28355 0.0
C3129 C 0.32123 0.87233 0.28014 0.0
C3130 C 0.33652 0.88992 0.28257 0.0
H3131 H 0.40767 0.97419 0.31363 0.0
H3132 H 0.38532 0.943 0.31282 0.0
H3133 H 0.35435 0.9298 0.26222 0.0
H3134 H 0.30375 0.83597 0.24818 0.0
H3135 H 0.32228 0.86902 0.25167 0.0
C3136 C 0.56232 0.35902 0.60513 0.0
C3137 C 0.56723 0.34479 0.59491 0.0
C3138 C 0.55921 0.3745 0.59741 0.0
C3139 C 0.56929 0.40217 0.55911 0.0
H3140 H 0.52971 0.42136 0.57425 0.0
C3141 C 0.56366 0.47596 0.54404 0.0
C3142 C 0.54614 0.47761 0.53959 0.0
C3143 C 0.56576 0.45911 0.54989 0.0
C3144 C 0.54071 0.41608 0.56973 0.0
H3145 H 0.57277 0.33564 0.56858 0.0
H3146 H 0.56719 0.36278 0.555 0.0
H3147 H 0.53378 0.39263 0.5855 0.0
H3148 H 0.51707 0.46278 0.5378 0.0
H3149 H 0.52081 0.43342 0.54776 0.0
H3150 H 0.57604 0.42551 0.54313 0.0
C3151 C 0.56591 0.36197 0.56904 0.0
C3152 C 0.54316 0.39974 0.57633 0.0
C3153 C 0.56903 0.3464 0.57679 0.0
C3154 C 0.53079 0.46205 0.54113 0.0
C3155 C 0.5329 0.44522 0.54694 0.0
C3156 C 0.56681 0.41852 0.55247 0.0
C3157 C 0.5609 0.37614 0.57929 0.0
C3158 C 0.55763 0.39275 0.57129 0.0
C3159 C 0.5504 0.44356 0.55139 0.0
C3160 C 0.55262 0.42577 0.55786 0.0
H3161 H 0.56088 0.35824 0.61915 0.0
H3162 H 0.5557 0.38534 0.60574 0.0
H3163 H 0.58062 0.3972 0.55505 0.0
H3164 H 0.57578 0.48767 0.54308 0.0
H3165 H 0.57942 0.45839 0.55348 0.0
C3166 C 0.43961 0.74618 0.38417 0.0
C3167 C 0.4549 0.76072 0.38025 0.0
C3168 C 0.42227 0.74444 0.37589 0.0
C3169 C 0.40183 0.75423 0.33517 0.0
H3170 H 0.36057 0.76049 0.35977 0.0
C3171 C 0.34526 0.77636 0.29892 0.0
C3172 C 0.32726 0.76948 0.30345 0.0
C3173 C 0.35956 0.77315 0.30914 0.0
C3174 C 0.3718 0.75832 0.35266 0.0
H3175 H 0.46378 0.7855 0.36555 0.0
H3176 H 0.43389 0.78232 0.35127 0.0
H3177 H 0.38762 0.75744 0.37664 0.0
H3178 H 0.30977 0.75385 0.32197 0.0
H3179 H 0.33474 0.74731 0.33949 0.0
H3180 H 0.38641 0.75506 0.31125 0.0
C3181 C 0.43529 0.77209 0.36038 0.0
C3182 C 0.38724 0.75657 0.36235 0.0
C3183 C 0.45241 0.77384 0.36856 0.0
C3184 C 0.32367 0.75941 0.3184 0.0
C3185 C 0.33796 0.75574 0.32841 0.0
C3186 C 0.3864 0.75568 0.32551 0.0
C3187 C 0.42016 0.7572 0.36366 0.0
C3188 C 0.40256 0.75516 0.35367 0.0
C3189 C 0.35609 0.76245 0.32381 0.0
C3190 C 0.37145 0.75847 0.33414 0.0
H3191 H 0.44113 0.73596 0.39321 0.0
H3192 H 0.41066 0.7329 0.37863 0.0
H3193 H 0.41349 0.75299 0.32822 0.0
H3194 H 0.34827 0.78433 0.2875 0.0
H3195 H 0.37336 0.7791 0.30549 0.0
C3196 C 0.05883 0.71351 0.10886 0.0
C3197 C 0.06633 0.73029 0.10092 0.0
C3198 C 0.0552 0.69584 0.09925 0.0
C3199 C 0.07149 0.6705 0.0656 0.0
H3200 H 0.02456 0.63247 0.06576 0.0
C3201 C 0.05902 0.59271 0.03615 0.0
C3202 C 0.04724 0.57837 0.04464 0.0
C3203 C 0.0609 0.61185 0.04113 0.0
C3204 C 0.03782 0.64283 0.06578 0.0
H3205 H 0.07572 0.74186 0.07663 0.0
H3206 H 0.0699 0.71048 0.05979 0.0
H3207 H 0.02799 0.66529 0.07698 0.0
H3208 H 0.0288 0.5727 0.06546 0.0
H3209 H 0.03276 0.60612 0.07483 0.0
H3210 H 0.08174 0.64797 0.05548 0.0
C3211 C 0.06665 0.71125 0.07345 0.0
C3212 C 0.03967 0.66165 0.07197 0.0
C3213 C 0.06992 0.7291 0.08302 0.0
C3214 C 0.03783 0.58349 0.05859 0.0
C3215 C 0.03998 0.60265 0.06381 0.0
C3216 C 0.06973 0.65158 0.05966 0.0
C3217 C 0.05926 0.69453 0.08157 0.0
C3218 C 0.0566 0.67554 0.07224 0.0
C3219 C 0.05129 0.61707 0.05493 0.0
C3220 C 0.05296 0.63743 0.06003 0.0
H3221 H 0.05578 0.71401 0.12259 0.0
H3222 H 0.04967 0.68312 0.10582 0.0
H3223 H 0.08473 0.68099 0.06591 0.0
H3224 H 0.06629 0.58916 0.02519 0.0
H3225 H 0.06954 0.6225 0.03383 0.0
C3226 C 0.0723 0.27768 0.90134 0.0
C3227 C 0.05666 0.26293 0.89483 0.0
C3228 C 0.0882 0.28109 0.89232 0.0
C3229 C 0.11312 0.2576 0.86431 0.0
H3230 H 0.13317 0.30547 0.84448 0.0
C3231 C 0.16493 0.26374 0.8122 0.0
C3232 C 0.179 0.28075 0.81216 0.0
C3233 C 0.1507 0.26267 0.82313 0.0
C3234 C 0.12798 0.29214 0.85019 0.0
H3235 H 0.04531 0.24005 0.87412 0.0
H3236 H 0.07331 0.24556 0.85878 0.0
H3237 H 0.10735 0.30173 0.8629 0.0
H3238 H 0.1893 0.31007 0.82336 0.0
H3239 H 0.1647 0.30809 0.84305 0.0
H3240 H 0.13371 0.24795 0.85211 0.0
C3241 C 0.07318 0.25461 0.87065 0.0
C3242 C 0.11318 0.29002 0.86067 0.0
C3243 C 0.05721 0.25149 0.87939 0.0
C3244 C 0.17853 0.29679 0.82316 0.0
C3245 C 0.16441 0.29566 0.83435 0.0
C3246 C 0.12805 0.25979 0.85414 0.0
C3247 C 0.08874 0.26949 0.87698 0.0
C3248 C 0.10545 0.27259 0.86748 0.0
C3249 C 0.15037 0.27851 0.83455 0.0
C3250 C 0.13542 0.27692 0.84657 0.0
H3251 H 0.07212 0.28679 0.91314 0.0
H3252 H 0.1001 0.29262 0.8974 0.0
H3253 H 0.10745 0.2441 0.86962 0.0
H3254 H 0.16481 0.25128 0.8036 0.0
H3255 H 0.13988 0.2494 0.82249 0.0
C3256 C 0.53899 0.70937 0.93288 0.0
C3257 C 0.53649 0.70842 0.91423 0.0
C3258 C 0.5384 0.69296 0.94193 0.0
C3259 C 0.54116 0.64162 0.9354 0.0
H3260 H 0.52296 0.63788 0.98179 0.0
C3261 C 0.53587 0.57213 0.97275 0.0
C3262 C 0.53481 0.57246 0.99129 0.0
C3263 C 0.53564 0.58813 0.96337 0.0
C3264 C 0.52844 0.63847 0.96899 0.0
H3265 H 0.53146 0.68846 0.89084 0.0
H3266 H 0.53061 0.66025 0.90634 0.0
H3267 H 0.5236 0.66562 0.9662 0.0
H3268 H 0.5329 0.59097 0.0141 0.0
H3269 H 0.53313 0.61859 -0.00171 0.0
H3270 H 0.54636 0.61473 0.9382 0.0
C3271 C 0.53308 0.67376 0.91416 0.0
C3272 C 0.52875 0.65474 0.95984 0.0
C3273 C 0.53344 0.69015 0.90513 0.0
C3274 C 0.53357 0.58971 -9e-05 0.0
C3275 C 0.5336 0.60581 0.99058 0.0
C3276 C 0.54105 0.62542 0.94463 0.0
C3277 C 0.53551 0.67465 0.93286 0.0
C3278 C 0.53511 0.65685 0.94276 0.0
C3279 C 0.53462 0.6056 0.97196 0.0
C3280 C 0.53469 0.62326 0.96177 0.0
H3281 H 0.54145 0.72293 0.94062 0.0
H3282 H 0.54059 0.69479 0.95619 0.0
H3283 H 0.54645 0.64233 0.92249 0.0
H3284 H 0.53676 0.55931 0.96533 0.0
H3285 H 0.5361 0.58652 0.94919 0.0
C3286 C 0.09498 0.78907 0.70203 0.0
C3287 C 0.09171 0.78823 0.68347 0.0
C3288 C 0.11194 0.78815 0.71005 0.0
C3289 C 0.15476 0.77368 0.69996 0.0
H3290 H 0.17501 0.80157 0.74515 0.0
C3291 C 0.22015 0.76302 0.73809 0.0
C3292 C 0.23337 0.7791 0.74688 0.0
C3293 C 0.20309 0.76417 0.7307 0.0
C3294 C 0.1697 0.79368 0.73248 0.0
H3295 H 0.10454 0.78576 0.6591 0.0
H3296 H 0.13362 0.78422 0.67281 0.0
H3297 H 0.14569 0.80354 0.73209 0.0
H3298 H 0.23809 0.80907 0.75488 0.0
H3299 H 0.20843 0.81098 0.74256 0.0
H3300 H 0.17871 0.76377 0.70038 0.0
C3301 C 0.12306 0.78542 0.68135 0.0
C3302 C 0.15259 0.79468 0.72496 0.0
C3303 C 0.10621 0.78646 0.67337 0.0
C3304 C 0.22857 0.79633 0.74819 0.0
C3305 C 0.21132 0.79738 0.74115 0.0
C3306 C 0.1717 0.77247 0.70759 0.0
C3307 C 0.12641 0.78618 0.69991 0.0
C3308 C 0.14472 0.78482 0.70841 0.0
C3309 C 0.19819 0.78136 0.73207 0.0
C3310 C 0.17969 0.78253 0.72399 0.0
H3311 H 0.08434 0.79032 0.71045 0.0
H3312 H 0.11353 0.78863 0.72431 0.0
H3313 H 0.14943 0.76557 0.68739 0.0
H3314 H 0.22309 0.74945 0.73666 0.0
H3315 H 0.19358 0.75138 0.72406 0.0
C3316 C 0.04332 0.34617 0.40301 0.0
C3317 C 0.04487 0.32978 0.41087 0.0
C3318 C 0.04233 0.36279 0.41309 0.0
C3319 C 0.05253 0.38964 0.4588 0.0
H3320 H 0.0218 0.41846 0.44008 0.0
C3321 C 0.04613 0.45917 0.49987 0.0
C3322 C 0.03981 0.47295 0.49163 0.0
C3323 C 0.04652 0.44182 0.4905 0.0
C3324 C 0.03081 0.41105 0.44564 0.0
H3325 H 0.0466 0.31893 0.43634 0.0
H3326 H 0.04532 0.34804 0.45399 0.0
H3327 H 0.02291 0.38915 0.42387 0.0
H3328 H 0.02924 0.47864 0.46632 0.0
H3329 H 0.03058 0.44933 0.44999 0.0
H3330 H 0.06087 0.41166 0.48031 0.0
C3331 C 0.04478 0.34789 0.43975 0.0
C3332 C 0.03136 0.39383 0.43616 0.0
C3333 C 0.04543 0.33098 0.42955 0.0
C3334 C 0.0341 0.46858 0.47343 0.0
C3335 C 0.03476 0.45136 0.46396 0.0
C3336 C 0.05219 0.40703 0.46819 0.0
C3337 C 0.04312 0.36423 0.43175 0.0
C3338 C 0.04224 0.38263 0.44244 0.0
C3339 C 0.04087 0.43731 0.4722 0.0
C3340 C 0.0413 0.41833 0.46194 0.0
H3341 H 0.04274 0.34621 0.38877 0.0
H3342 H 0.04128 0.37476 0.40611 0.0
H3343 H 0.06132 0.3819 0.46425 0.0
H3344 H 0.05055 0.46161 0.51382 0.0
H3345 H 0.05106 0.43182 0.49792 0.0
C3346 C 0.46795 0.28633 0.18376 0.0
C3347 C 0.47855 0.27494 0.19018 0.0
C3348 C 0.45101 0.28651 0.19082 0.0
C3349 C 0.42139 0.26947 0.22965 0.0
H3350 H 0.38405 0.28345 0.20209 0.0
C3351 C 0.34577 0.25725 0.25212 0.0
C3352 C 0.33684 0.27133 0.24937 0.0
C3353 C 0.36293 0.25805 0.24523 0.0
C3354 C 0.39427 0.27956 0.21016 0.0
H3355 H 0.47862 0.25471 0.20948 0.0
H3356 H 0.4499 0.25466 0.22108 0.0
H3357 H 0.4131 0.28445 0.18979 0.0
H3358 H 0.33961 0.2972 0.23657 0.0
H3359 H 0.36871 0.2982 0.22425 0.0
H3360 H 0.40229 0.2642 0.24984 0.0
C3361 C 0.45452 0.26395 0.21089 0.0
C3362 C 0.41127 0.28021 0.20302 0.0
C3363 C 0.4713 0.26383 0.20394 0.0
C3364 C 0.34579 0.28602 0.23917 0.0
C3365 C 0.36264 0.28656 0.23193 0.0
C3366 C 0.40432 0.26855 0.23666 0.0
C3367 C 0.44379 0.27531 0.20466 0.0
C3368 C 0.42538 0.27512 0.21251 0.0
C3369 C 0.37177 0.27267 0.23482 0.0
C3370 C 0.39026 0.27354 0.22712 0.0
H3371 H 0.47273 0.29519 0.17328 0.0
H3372 H 0.44374 0.29574 0.18545 0.0
H3373 H 0.43155 0.26587 0.23801 0.0
H3374 H 0.33961 0.24568 0.25985 0.0
H3375 H 0.36914 0.24692 0.24785 0.0
C3376 C 0.63054 0.52027 0.37284 0.0
C3377 C 0.62663 0.5305 0.35914 0.0
C3378 C 0.62712 0.52532 0.39001 0.0
C3379 C 0.58964 0.53817 0.40364 0.0
H3380 H 0.60564 0.52729 0.44978 0.0
C3381 C 0.54289 0.52103 0.46002 0.0
C3382 C 0.54759 0.50974 0.47241 0.0
C3383 C 0.55354 0.52562 0.44595 0.0
C3384 C 0.601 0.53012 0.43684 0.0
H3385 H 0.61968 0.55591 0.35259 0.0
H3386 H 0.61356 0.56469 0.38267 0.0
H3387 H 0.62816 0.53795 0.42839 0.0
H3388 H 0.56442 0.49148 0.47851 0.0
H3389 H 0.58227 0.49833 0.45298 0.0
H3390 H 0.56245 0.5288 0.41123 0.0
C3391 C 0.61881 0.55259 0.38015 0.0
C3392 C 0.61391 0.53662 0.42487 0.0
C3393 C 0.62182 0.5473 0.36298 0.0
C3394 C 0.56088 0.50048 0.46911 0.0
C3395 C 0.57126 0.50469 0.45478 0.0
C3396 C 0.57677 0.53133 0.41542 0.0
C3397 C 0.61995 0.54071 0.39344 0.0
C3398 C 0.60818 0.54006 0.40798 0.0
C3399 C 0.56855 0.51844 0.44396 0.0
C3400 C 0.58227 0.52664 0.43187 0.0
H3401 H 0.63493 0.50764 0.3701 0.0
H3402 H 0.62811 0.51595 0.40009 0.0
H3403 H 0.58481 0.54033 0.39054 0.0
H3404 H 0.53261 0.52829 0.46239 0.0
H3405 H 0.55104 0.53615 0.43773 0.0
C3406 C 0.30191 0.87176 0.04656 0.0
C3407 C 0.29901 0.88969 0.04594 0.0
C3408 C 0.30779 0.86634 0.0625 0.0
C3409 C 0.30614 0.87382 0.10982 0.0
H3410 H 0.34701 0.85249 0.11278 0.0
C3411 C 0.32676 0.84714 0.17432 0.0
C3412 C 0.32927 0.82893 0.17238 0.0
C3413 C 0.32631 0.85733 0.15965 0.0
C3414 C 0.33553 0.85836 0.11214 0.0
H3415 H 0.2997 0.91596 0.06133 0.0
H3416 H 0.30937 0.90616 0.08935 0.0
H3417 H 0.339 0.86434 0.08521 0.0
H3418 H 0.33416 0.8075 0.15367 0.0
H3419 H 0.33331 0.82518 0.12811 0.0
H3420 H 0.30206 0.86716 0.13638 0.0
C3421 C 0.30735 0.89646 0.07749 0.0
C3422 C 0.33098 0.86512 0.09639 0.0
C3423 C 0.30185 0.90203 0.0615 0.0
C3424 C 0.33237 0.82158 0.15564 0.0
C3425 C 0.3319 0.83174 0.14097 0.0
C3426 C 0.31056 0.86689 0.1255 0.0
C3427 C 0.31048 0.87863 0.07809 0.0
C3428 C 0.31608 0.87264 0.09505 0.0
C3429 C 0.32836 0.84949 0.14273 0.0
C3430 C 0.32514 0.85883 0.12676 0.0
H3431 H 0.29996 0.86208 0.03469 0.0
H3432 H 0.30998 0.85244 0.06271 0.0
H3433 H 0.2945 0.87944 0.10903 0.0
H3434 H 0.32469 0.85333 0.18713 0.0
H3435 H 0.32392 0.87115 0.16148 0.0
C3436 C 0.98542 0.53863 0.84505 0.0
C3437 C 0.97025 0.5451 0.84099 0.0
C3438 C 0.98957 0.53548 0.86236 0.0
C3439 C 0.98264 0.5473 0.9081 0.0
H3440 H 0.99351 0.49979 0.91506 0.0
C3441 C 0.00485 0.53286 0.97616 0.0
C3442 C 0.02148 0.5284 0.97672 0.0
C3443 C 0.99451 0.53097 0.96026 0.0
C3444 C 0.99036 0.51301 0.91325 0.0
H3445 H 0.94846 0.55493 0.85193 0.0
H3446 H 0.95575 0.54934 0.88206 0.0
H3447 H 0.98451 0.50614 0.88537 0.0
H3448 H 0.04016 0.51771 0.96134 0.0
H3449 H 0.02256 0.51545 0.93321 0.0
H3450 H 0.98914 0.5546 0.93572 0.0
C3451 C 0.96429 0.54658 0.87189 0.0
C3452 C 0.98536 0.51669 0.89636 0.0
C3453 C 0.96019 0.5498 0.85466 0.0
C3454 C 0.02746 0.52149 0.9612 0.0
C3455 C 0.01723 0.51984 0.9452 0.0
C3456 C 0.98764 0.54365 0.92494 0.0
C3457 C 0.97863 0.53885 0.87574 0.0
C3458 C 0.98207 0.53412 0.89366 0.0
C3459 C 1.00088 0.52495 0.94461 0.0
C3460 C 0.99209 0.52676 0.92754 0.0
H3461 H 0.99344 0.53498 0.83479 0.0
H3462 H 1.00102 0.52997 0.86522 0.0
H3463 H 0.98015 0.56083 0.90627 0.0
H3464 H 0.99999 0.53821 0.98791 0.0
H3465 H 0.98188 0.53489 0.96012 0.0
C3466 C 0.30237 0.22123 0.57831 0.0
C3467 C 0.28581 0.21024 0.56931 0.0
C3468 C 0.30268 0.22912 0.59577 0.0
C3469 C 0.27438 0.22088 0.63436 0.0
H3470 H 0.30908 0.26761 0.65568 0.0
C3471 C 0.26989 0.25437 0.70471 0.0
C3472 C 0.28585 0.25815 0.71607 0.0
C3473 C 0.27021 0.24949 0.68661 0.0
C3474 C 0.29936 0.2545 0.64987 0.0
H3475 H 0.25657 0.19988 0.57086 0.0
H3476 H 0.25688 0.21444 0.60068 0.0
H3477 H 0.30884 0.25843 0.62403 0.0
H3478 H 0.31477 0.26044 0.71737 0.0
H3479 H 0.31543 0.25251 0.68559 0.0
H3480 H 0.26469 0.21722 0.66012 0.0
C3481 C 0.26976 0.21645 0.59476 0.0
C3482 C 0.29924 0.24918 0.63175 0.0
C3483 C 0.26951 0.20834 0.57754 0.0
C3484 C 0.30222 0.2574 0.70892 0.0
C3485 C 0.30264 0.25301 0.69075 0.0
C3486 C 0.27432 0.22635 0.65234 0.0
C3487 C 0.2864 0.22627 0.60443 0.0
C3488 C 0.28668 0.23231 0.62371 0.0
C3489 C 0.28659 0.24881 0.67944 0.0
C3490 C 0.28678 0.24321 0.66029 0.0
H3491 H 0.31515 0.2226 0.57233 0.0
H3492 H 0.31577 0.2365 0.60275 0.0
H3493 H 0.26488 0.2075 0.62889 0.0
H3494 H 0.25709 0.25483 0.70987 0.0
H3495 H 0.25766 0.24637 0.67816 0.0
C3496 C 0.64265 0.52781 0.2512 0.0
C3497 C 0.63403 0.51151 0.25936 0.0
C3498 C 0.63385 0.53295 0.23675 0.0
C3499 C 0.58826 0.52485 0.21352 0.0
H3500 H 0.61691 0.54583 0.17546 0.0
C3501 C 0.55681 0.53363 0.14522 0.0
C3502 C 0.56536 0.55006 0.13723 0.0
C3503 C 0.56452 0.52984 0.16105 0.0
C3504 C 0.60877 0.54024 0.1861 0.0
H3505 H 0.60966 0.48768 0.25889 0.0
H3506 H 0.59457 0.49604 0.23283 0.0
H3507 H 0.63188 0.53669 0.20085 0.0
H3508 H 0.58806 0.57579 0.13957 0.0
H3509 H 0.60139 0.56941 0.16753 0.0
H3510 H 0.56506 0.52807 0.19842 0.0
C3511 C 0.60791 0.50516 0.23794 0.0
C3512 C 0.61734 0.53499 0.20065 0.0
C3513 C 0.61659 0.50022 0.25267 0.0
C3514 C 0.58135 0.56297 0.14551 0.0
C3515 C 0.58897 0.55928 0.16141 0.0
C3516 C 0.57965 0.52999 0.19887 0.0
C3517 C 0.6164 0.52168 0.22993 0.0
C3518 C 0.60718 0.52721 0.21451 0.0
C3519 C 0.58081 0.54251 0.16914 0.0
C3520 C 0.58985 0.53771 0.18502 0.0
H3521 H 0.65592 0.53705 0.2564 0.0
H3522 H 0.6406 0.54599 0.23117 0.0
H3523 H 0.58011 0.51922 0.22413 0.0
H3524 H 0.54457 0.52339 0.13888 0.0
H3525 H 0.55809 0.51668 0.1666 0.0
C3526 C 0.28909 0.86644 0.94061 0.0
C3527 C 0.28979 0.88546 0.93882 0.0
C3528 C 0.29357 0.85558 0.92681 0.0
C3529 C 0.31331 0.84957 0.88719 0.0
H3530 H 0.26454 0.82131 0.86714 0.0
C3531 C 0.29699 0.80697 0.81871 0.0
C3532 C 0.2823 0.79022 0.81707 0.0
C3533 C 0.30119 0.81853 0.83446 0.0
C3534 C 0.27825 0.82878 0.87274 0.0
H3535 H 0.29735 0.90859 0.92194 0.0
H3536 H 0.30459 0.88916 0.89754 0.0
H3537 H 0.26819 0.84238 0.89396 0.0
H3538 H 0.26154 0.77132 0.83063 0.0
H3539 H 0.26927 0.79124 0.85869 0.0
H3540 H 0.32339 0.83564 0.86596 0.0
C3541 C 0.30075 0.88291 0.90972 0.0
C3542 C 0.28029 0.84089 0.88794 0.0
C3543 C 0.29616 0.89378 0.92347 0.0
C3544 C 0.27264 0.7844 0.83163 0.0
C3545 C 0.27704 0.79582 0.84754 0.0
C3546 C 0.31129 0.83713 0.87196 0.0
C3547 C 0.29894 0.86368 0.9112 0.0
C3548 C 0.29775 0.85114 0.89528 0.0
C3549 C 0.29097 0.81323 0.84888 0.0
C3550 C 0.29368 0.82647 0.86482 0.0
H3551 H 0.2846 0.8598 0.95244 0.0
H3552 H 0.29182 0.84058 0.92788 0.0
H3553 H 0.32685 0.85771 0.89275 0.0
H3554 H 0.30523 0.81124 0.80782 0.0
H3555 H 0.31199 0.83184 0.83514 0.0
C3556 C 0.95056 0.55865 0.73914 0.0
C3557 C 0.93621 0.54383 0.744 0.0
C3558 C 0.96013 0.55559 0.72474 0.0
C3559 C 0.96077 0.52136 0.68664 0.0
H3560 H 0.01326 0.54323 0.69592 0.0
C3561 C 0.01275 0.50156 0.64283 0.0
C3562 C 0.02348 0.51743 0.63539 0.0
C3563 C 0.00268 0.50408 0.65705 0.0
C3564 C 0.99863 0.53704 0.69326 0.0
H3565 H 0.91967 0.51465 0.73722 0.0
H3566 H 0.93671 0.50908 0.71233 0.0
H3567 H 0.99296 0.54963 0.71761 0.0
H3568 H 0.03297 0.54823 0.63723 0.0
H3569 H 0.01567 0.55266 0.66251 0.0
H3570 H 0.96668 0.5084 0.66242 0.0
C3571 C 0.9404 0.52317 0.71933 0.0
C3572 C 0.98699 0.54085 0.70551 0.0
C3573 C 0.9306 0.52636 0.73355 0.0
C3574 C 0.02481 0.53583 0.64288 0.0
C3575 C 0.01499 0.53834 0.65728 0.0
C3576 C 0.97246 0.51731 0.67452 0.0
C3577 C 0.95571 0.53754 0.71525 0.0
C3578 C 0.96792 0.53331 0.70218 0.0
C3579 C 0.00352 0.52249 0.66413 0.0
C3580 C 0.99142 0.52532 0.67768 0.0
H3581 H 0.95502 0.57225 0.74707 0.0
H3582 H 0.97153 0.56711 0.72156 0.0
H3583 H 0.94616 0.51543 0.68367 0.0
H3584 H 0.0114 0.48726 0.63705 0.0
H3585 H 0.99388 0.49171 0.66223 0.0
C3586 C 0.29842 0.19987 0.44427 0.0
C3587 C 0.30005 0.21215 0.45975 0.0
C3588 C 0.29822 0.20662 0.42761 0.0
C3589 C 0.31212 0.24893 0.40349 0.0
H3590 H 0.27462 0.21908 0.36804 0.0
C3591 C 0.30419 0.27151 0.33221 0.0
C3592 C 0.29792 0.25695 0.31831 0.0
C3593 C 0.30474 0.26717 0.34985 0.0
C3594 C 0.2854 0.22747 0.37762 0.0
H3595 H 0.30316 0.24135 0.46976 0.0
H3596 H 0.30324 0.25329 0.44048 0.0
H3597 H 0.27505 0.20972 0.39797 0.0
H3598 H 0.28817 0.22642 0.31199 0.0
H3599 H 0.28993 0.21877 0.34244 0.0
H3600 H 0.32283 0.26638 0.38303 0.0
C3601 C 0.302 0.23836 0.44136 0.0
C3602 C 0.28554 0.22214 0.39487 0.0
C3603 C 0.30194 0.23152 0.45812 0.0
C3604 C 0.29293 0.23797 0.32239 0.0
C3605 C 0.29375 0.23362 0.33994 0.0
C3606 C 0.31212 0.25416 0.38612 0.0
C3607 C 0.29984 0.2259 0.42591 0.0
C3608 C 0.29904 0.23262 0.40796 0.0
C3609 C 0.29926 0.24814 0.35401 0.0
C3610 C 0.29892 0.24331 0.37283 0.0
H3611 H 0.29689 0.18486 0.44497 0.0
H3612 H 0.2968 0.19671 0.416 0.0
H3613 H 0.32273 0.25726 0.41327 0.0
H3614 H 0.30793 0.28631 0.32952 0.0
H3615 H 0.30889 0.27879 0.36021 0.0
C3616 C 0.34446 0.61868 0.54044 0.0
C3617 C 0.33149 0.60803 0.55089 0.0
C3618 C 0.35744 0.61093 0.53334 0.0
C3619 C 0.37675 0.57029 0.53462 0.0
H3620 H 0.3808 0.57593 0.48454 0.0
C3621 C 0.40759 0.52266 0.49484 0.0
C3622 C 0.42519 0.53338 0.49139 0.0
C3623 C 0.39416 0.53165 0.49775 0.0
C3624 C 0.37962 0.57425 0.49848 0.0
H3625 H 0.32326 0.58197 0.56388 0.0
H3626 H 0.34551 0.56836 0.55125 0.0
H3627 H 0.36369 0.59373 0.50154 0.0
H3628 H 0.44175 0.5611 0.48546 0.0
H3629 H 0.41815 0.57689 0.49083 0.0
H3630 H 0.39219 0.55042 0.53142 0.0
C3631 C 0.34579 0.58265 0.54849 0.0
C3632 C 0.37013 0.58457 0.50827 0.0
C3633 C 0.33298 0.59047 0.55574 0.0
C3634 C 0.42835 0.55264 0.48844 0.0
C3635 C 0.41487 0.56162 0.49133 0.0
C3636 C 0.38588 0.55977 0.5248 0.0
C3637 C 0.35754 0.59244 0.53657 0.0
C3638 C 0.36863 0.58265 0.52644 0.0
C3639 C 0.3982 0.55137 0.49716 0.0
C3640 C 0.3873 0.56164 0.5067 0.0
H3641 H 0.3438 0.6324 0.53671 0.0
H3642 H 0.36675 0.619 0.52462 0.0
H3643 H 0.37609 0.56876 0.54863 0.0
H3644 H 0.40475 0.50781 0.49721 0.0
H3645 H 0.38127 0.52359 0.5022 0.0
C3646 C 0.84787 0.90707 0.53435 0.0
C3647 C 0.83614 0.90633 0.51932 0.0
C3648 C 0.8665 0.91694 0.53461 0.0
C3649 C 0.89607 0.95572 0.51238 0.0
H3650 H 0.93619 0.94224 0.53597 0.0
C3651 C 0.97134 0.99512 0.50488 0.0
C3652 C 0.98298 1.00028 0.52048 0.0
C3653 C 0.9536 0.98311 0.50511 0.0
C3654 C 0.92505 0.94619 0.52944 0.0
H3655 H 0.83469 0.91349 0.4923 0.0
H3656 H 0.86706 0.92987 0.49246 0.0
H3657 H 0.90503 0.92092 0.53541 0.0
H3658 H 0.98516 0.99691 0.54854 0.0
H3659 H 0.95415 0.97592 0.54885 0.0
H3660 H 0.91599 0.98082 0.50626 0.0
C3661 C 0.86195 0.92374 0.50433 0.0
C3662 C 0.90725 0.93402 0.52914 0.0
C3663 C 0.84343 0.91428 0.5042 0.0
C3664 C 0.97647 0.99333 0.53632 0.0
C3665 C 0.9588 0.98114 0.53649 0.0
C3666 C 0.91379 0.96773 0.51256 0.0
C3667 C 0.87358 0.92589 0.51975 0.0
C3668 C 0.89258 0.9386 0.52046 0.0
C3669 C 0.94724 0.97588 0.52088 0.0
C3670 C 0.92846 0.96307 0.52101 0.0
H3671 H 0.8425 0.90095 0.54613 0.0
H3672 H 0.87513 0.91831 0.54668 0.0
H3673 H 0.88505 0.95998 0.50602 0.0
H3674 H 0.97599 1.00014 0.49246 0.0
H3675 H 0.94496 0.97916 0.49286 0.0
C3676 C 0.87231 0.07285 0.2324 0.0
C3677 C 0.88871 0.07159 0.24055 0.0
C3678 C 0.86453 0.0866 0.23897 0.0
C3679 C 0.86075 0.11375 0.27899 0.0
H3680 H 0.84205 0.14347 0.24677 0.0
C3681 C 0.82282 0.17275 0.29123 0.0
C3682 C 0.80544 0.16652 0.28201 0.0
C3683 C 0.83485 0.16174 0.28964 0.0
C3684 C 0.84741 0.13535 0.25587 0.0
H3685 H 0.9099 0.08328 0.26188 0.0
H3686 H 0.89594 0.1072 0.27362 0.0
H3687 H 0.86095 0.12393 0.23591 0.0
H3688 H 0.78636 0.14359 0.26512 0.0
H3689 H 0.80746 0.12436 0.2624 0.0
H3690 H 0.8466 0.12485 0.2988 0.0
C3691 C 0.8893 0.09769 0.26211 0.0
C3692 C 0.85808 0.12423 0.2497 0.0
C3693 C 0.89723 0.08411 0.25538 0.0
C3694 C 0.79961 0.14852 0.27251 0.0
C3695 C 0.81165 0.13764 0.27084 0.0
C3696 C 0.85006 0.12496 0.28519 0.0
C3697 C 0.87297 0.09902 0.25388 0.0
C3698 C 0.86428 0.11291 0.26108 0.0
C3699 C 0.82948 0.1446 0.2788 0.0
C3700 C 0.84296 0.13527 0.27346 0.0
H3701 H 0.86561 0.06337 0.22088 0.0
H3702 H 0.85177 0.08734 0.23259 0.0
H3703 H 0.86542 0.10499 0.28791 0.0
H3704 H 0.82748 0.18664 0.29864 0.0
H3705 H 0.84867 0.1672 0.29578 0.0
C3706 C 0.72712 0.09557 0.03045 0.0
C3707 C 0.73395 0.11436 0.03812 0.0
C3708 C 0.70896 0.08574 0.03167 0.0
C3709 C 0.66759 0.08148 0.05208 0.0
H3710 H 0.64515 0.07693 0.00427 0.0
C3711 C 0.59066 0.05758 0.03744 0.0
C3712 C 0.5843 0.04318 0.02353 0.0
C3713 C 0.60897 0.06764 0.03964 0.0
C3714 C 0.65128 0.07798 0.01762 0.0
H3715 H 0.72819 0.13706 0.05464 0.0
H3716 H 0.69614 0.11971 0.05657 0.0
H3717 H 0.67821 0.08951 0.00979 0.0
H3718 H 0.59123 0.02832 0.00053 0.0
H3719 H 0.62376 0.04547 0.00478 0.0
H3720 H 0.64072 0.06946 0.0599 0.0
C3721 C 0.70486 0.11277 0.04963 0.0
C3722 C 0.67003 0.08508 0.02074 0.0
C3723 C 0.72296 0.12271 0.04824 0.0
C3724 C 0.59611 0.03934 0.01138 0.0
C3725 C 0.61454 0.04921 0.01376 0.0
C3726 C 0.64878 0.07408 0.04893 0.0
C3727 C 0.69773 0.09462 0.04073 0.0
C3728 C 0.67817 0.08663 0.03791 0.0
C3729 C 0.62106 0.06315 0.0281 0.0
C3730 C 0.6406 0.07216 0.03164 0.0
H3731 H 0.73553 0.08883 0.02284 0.0
H3732 H 0.70341 0.07167 0.02474 0.0
H3733 H 0.67389 0.08288 0.0654 0.0
H3734 H 0.5815 0.06103 0.04666 0.0
H3735 H 0.61372 0.07867 0.05051 0.0
C3736 C 0.1688 0.45518 0.26356 0.0
C3737 C 0.17032 0.45952 0.24606 0.0
C3738 C 0.17793 0.44305 0.27015 0.0
C3739 C 0.21773 0.42686 0.26113 0.0
H3740 H 0.20247 0.39701 0.30038 0.0
C3741 C 0.26801 0.39664 0.29639 0.0
C3742 C 0.26119 0.37713 0.29805 0.0
C3743 C 0.25593 0.40725 0.29332 0.0
C3744 C 0.20686 0.40523 0.28938 0.0
H3745 H 0.1809 0.45393 0.2211 0.0
H3746 H 0.19605 0.4315 0.23226 0.0
H3747 H 0.18114 0.41084 0.28542 0.0
H3748 H 0.23687 0.35381 0.30022 0.0
H3749 H 0.21575 0.37208 0.2941 0.0
H3750 H 0.24299 0.42035 0.26433 0.0
C3751 C 0.1886 0.43812 0.24118 0.0
C3752 C 0.19471 0.41324 0.28088 0.0
C3753 C 0.17995 0.45079 0.23476 0.0
C3754 C 0.24233 0.36883 0.29862 0.0
C3755 C 0.23027 0.37933 0.29528 0.0
C3756 C 0.22969 0.41854 0.26936 0.0
C3757 C 0.18825 0.43473 0.25912 0.0
C3758 C 0.20014 0.42434 0.26683 0.0
C3759 C 0.23698 0.39835 0.29164 0.0
C3760 C 0.22447 0.4079 0.28372 0.0
H3761 H 0.16138 0.46198 0.27239 0.0
H3762 H 0.17764 0.44104 0.28409 0.0
H3763 H 0.22249 0.43562 0.25057 0.0
H3764 H 0.28253 0.40331 0.29598 0.0
H3765 H 0.26141 0.42208 0.29105 0.0
C3766 C 0.21638 0.3784 0.02068 0.0
C3767 C 0.23503 0.38824 0.02397 0.0
C3768 C 0.20367 0.38833 0.01695 0.0
C3769 C 0.19874 0.43684 0.02283 0.0
H3770 H 0.15829 0.4178 0.98696 0.0
C3771 C 0.15441 0.48362 0.00409 0.0
C3772 C 0.13554 0.47535 0.00484 0.0
C3773 C 0.16623 0.4723 0.00357 0.0
C3774 C 0.16952 0.42321 -0.00298 0.0
H3775 H 0.25504 0.4161 0.02565 0.0
H3776 H 0.23316 0.43313 0.01888 0.0
H3777 H 0.17938 0.39886 0.99249 0.0
H3778 H 0.11412 0.44861 0.0041 0.0
H3779 H 0.13492 0.42882 0.00357 0.0
H3780 H 0.18905 0.46111 0.0274 0.0
C3781 C 0.22817 0.41789 0.01954 0.0
C3782 C 0.18151 0.41237 0.00026 0.0
C3783 C 0.24075 0.40807 0.02335 0.0
C3784 C 0.12864 0.45541 0.00386 0.0
C3785 C 0.1405 0.44406 0.00336 0.0
C3786 C 0.18691 0.44767 0.01952 0.0
C3787 C 0.20948 0.40821 0.01646 0.0
C3788 C 0.19628 0.41915 0.01316 0.0
C3789 C 0.15945 0.45249 0.00384 0.0
C3790 C 0.17223 0.44102 0.00657 0.0
H3791 H 0.21162 0.36311 0.02101 0.0
H3792 H 0.18931 0.38052 0.01475 0.0
H3793 H 0.20972 0.44227 0.03315 0.0
H3794 H 0.1602 0.49893 0.0049 0.0
H3795 H 0.18079 0.47911 0.00367 0.0
C3796 C 0.88721 0.96468 0.23458 0.0
C3797 C 0.89466 0.96561 0.21812 0.0
C3798 C 0.87777 0.94733 0.23995 0.0
C3799 C 0.86955 0.89615 0.23191 0.0
H3800 H 0.82303 0.89455 0.25081 0.0
C3801 C 0.81687 0.8263 0.23963 0.0
C3802 C 0.80895 0.82472 0.25578 0.0
C3803 C 0.82692 0.84394 0.23529 0.0
C3804 C 0.83608 0.89489 0.24576 0.0
H3805 H 0.89889 0.94942 0.19461 0.0
H3806 H 0.88134 0.91864 0.20372 0.0
H3807 H 0.84257 0.92456 0.24277 0.0
H3808 H 0.80438 0.8398 0.27985 0.0
H3809 H 0.82257 0.87096 0.27244 0.0
H3810 H 0.86296 0.86642 0.23483 0.0
C3811 C 0.88315 0.93143 0.21251 0.0
C3812 C 0.84723 0.91197 0.24117 0.0
C3813 C 0.89295 0.94891 0.20722 0.0
C3814 C 0.81043 0.84093 0.26729 0.0
C3815 C 0.82077 0.85862 0.26306 0.0
C3816 C 0.85839 0.87905 0.23652 0.0
C3817 C 0.87533 0.93065 0.22883 0.0
C3818 C 0.86394 0.91265 0.23407 0.0
C3819 C 0.82941 0.8601 0.24721 0.0
C3820 C 0.84149 0.8783 0.24324 0.0
H3821 H 0.88895 0.97738 0.24349 0.0
H3822 H 0.87228 0.94698 0.25279 0.0
H3823 H 0.88255 0.89648 0.22675 0.0
H3824 H 0.81553 0.81384 0.23051 0.0
H3825 H 0.83307 0.84491 0.22277 0.0
C3826 C 0.66617 0.08883 0.73222 0.0
C3827 C 0.66628 0.07388 0.74246 0.0
C3828 C 0.6768 0.1072 0.7381 0.0
C3829 C 0.71824 0.13027 0.7668 0.0
H3830 H 0.7076 0.17608 0.75353 0.0
C3831 C 0.76298 0.20914 0.78214 0.0
C3832 C 0.76605 0.21858 0.76674 0.0
C3833 C 0.75142 0.19067 0.78117 0.0
C3834 C 0.71061 0.16331 0.75734 0.0
H3835 H 0.67552 0.06609 0.76744 0.0
H3836 H 0.69354 0.09835 0.77812 0.0
H3837 H 0.68339 0.14591 0.74979 0.0
H3838 H 0.76094 0.21573 0.73815 0.0
H3839 H 0.74052 0.18348 0.73661 0.0
H3840 H 0.74549 0.14792 0.77442 0.0
C3841 C 0.6861 0.09589 0.76523 0.0
C3842 C 0.69686 0.14614 0.75519 0.0
C3843 C 0.67589 0.0775 0.75914 0.0
C3844 C 0.75867 0.20883 0.75024 0.0
C3845 C 0.74696 0.19049 0.74932 0.0
C3846 C 0.73189 0.14752 0.76923 0.0
C3847 C 0.68722 0.11077 0.75448 0.0
C3848 C 0.70071 0.12937 0.7594 0.0
C3849 C 0.74281 0.18169 0.76484 0.0
C3850 C 0.72821 0.16393 0.76402 0.0
H3851 H 0.6585 0.08616 0.71944 0.0
H3852 H 0.6775 0.11836 0.72945 0.0
H3853 H 0.72172 0.11754 0.76992 0.0
H3854 H 0.76875 0.21632 0.79499 0.0
H3855 H 0.74835 0.18386 0.79322 0.0
loop_
_geom_bond_atom_site_label_1
_geom_bond_atom_site_label_2
_geom_bond_distance
_geom_bond_site_symmetry_2
_ccdc_geom_bond_type
C0 O1 1.273 1_655 S
C0 O3 1.142 1_655 S
O1 C0 1.273 1_455 S
O1 Cd2 2.228 . S
Cd2 O1 2.228 . S
Cd2 O6 2.273 . S
Cd2 O10 2.277 . S
O3 C0 1.142 1_455 S
O3 Cd4 2.203 . S
Cd4 O3 2.203 . S
Cd4 O6 2.411 . S
Cd4 O7 2.333 . S
Cd4 O8 2.352 . S
Cd4 O12 2.277 . S
Cd4 O13 2.356 . S
C5 O10 1.209 . S
C5 O12 1.226 . S
O6 Cd2 2.273 . S
O6 Cd4 2.411 . S
O6 C9 1.320 . S
O7 Cd4 2.333 . S
O7 C9 1.214 . S
O8 Cd4 2.352 . S
O8 C11 1.258 . S
C9 O6 1.320 . S
C9 O7 1.214 . S
O10 Cd2 2.277 . S
O10 C5 1.209 . S
C11 O8 1.258 . S
C11 O13 1.282 . S
O12 Cd4 2.277 . S
O12 C5 1.226 . S
O13 Cd4 2.356 . S
O13 C11 1.282 . S
C14 O15 1.306 . S
C14 O17 1.160 . S
O15 C14 1.306 . S
O15 Cd16 2.228 . S
Cd16 O15 2.228 . S
Cd16 O20 2.273 . S
Cd16 O24 2.277 . S
O17 C14 1.160 . S
O17 Cd18 2.203 . S
Cd18 O17 2.203 . S
Cd18 O20 2.411 . S
Cd18 O21 2.333 . S
Cd18 O22 2.352 . S
Cd18 O26 2.277 . S
Cd18 O27 2.356 . S
C19 O24 1.209 . S
C19 O26 1.226 . S
O20 Cd16 2.273 . S
O20 Cd18 2.411 . S
O20 C23 1.320 . S
O21 Cd18 2.333 . S
O21 C23 1.214 . S
O22 Cd18 2.352 . S
O22 C25 1.258 . S
C23 O20 1.320 . S
C23 O21 1.214 . S
O24 Cd16 2.277 . S
O24 C19 1.209 . S
C25 O22 1.258 . S
C25 O27 1.282 . S
O26 Cd18 2.277 . S
O26 C19 1.226 . S
O27 Cd18 2.356 . S
O27 C25 1.282 . S
C28 O29 1.306 . S
C28 O31 1.160 . S
O29 C28 1.306 . S
O29 Cd30 2.228 . S
Cd30 O29 2.228 . S
Cd30 O34 2.273 . S
Cd30 O38 2.277 . S
O31 C28 1.160 . S
O31 Cd32 2.203 . S
Cd32 O31 2.203 . S
Cd32 O34 2.411 . S
Cd32 O35 2.333 . S
Cd32 O36 2.352 . S
Cd32 O40 2.277 . S
Cd32 O41 2.356 . S
C33 O38 1.209 . S
C33 O40 1.226 . S
O34 Cd30 2.273 . S
O34 Cd32 2.411 . S
O34 C37 1.320 . S
O35 Cd32 2.333 . S
O35 C37 1.214 . S
O36 Cd32 2.352 . S
O36 C39 1.258 . S
C37 O34 1.320 . S
C37 O35 1.214 . S
O38 Cd30 2.277 . S
O38 C33 1.209 . S
C39 O36 1.258 . S
C39 O41 1.282 . S
O40 Cd32 2.277 . S
O40 C33 1.226 . S
O41 Cd32 2.356 . S
O41 C39 1.282 . S
C42 O43 1.306 . S
C42 O45 1.160 . S
O43 C42 1.306 . S
O43 Cd44 2.228 . S
Cd44 O43 2.228 . S
Cd44 O48 2.273 . S
Cd44 O52 2.277 . S
O45 C42 1.160 . S
O45 Cd46 2.203 . S
Cd46 O45 2.203 . S
Cd46 O48 2.411 . S
Cd46 O49 2.333 . S
Cd46 O50 2.352 . S
Cd46 O54 2.277 . S
Cd46 O55 2.356 . S
C47 O52 1.209 . S
C47 O54 1.226 . S
O48 Cd44 2.273 . S
O48 Cd46 2.411 . S
O48 C51 1.320 . S
O49 Cd46 2.333 . S
O49 C51 1.214 . S
O50 Cd46 2.352 . S
O50 C53 1.258 . S
C51 O48 1.320 . S
C51 O49 1.214 . S
O52 Cd44 2.277 . S
O52 C47 1.209 . S
C53 O50 1.258 . S
C53 O55 1.282 . S
O54 Cd46 2.277 . S
O54 C47 1.226 . S
O55 Cd46 2.356 . S
O55 C53 1.282 . S
C56 O57 1.306 . S
C56 O59 1.160 . S
O57 C56 1.306 . S
O57 Cd58 2.228 . S
Cd58 O57 2.228 . S
Cd58 O62 2.273 . S
Cd58 O66 2.277 . S
O59 C56 1.160 . S
O59 Cd60 2.203 . S
Cd60 O59 2.203 . S
Cd60 O62 2.411 . S
Cd60 O63 2.333 . S
Cd60 O64 2.352 . S
Cd60 O68 2.277 . S
Cd60 O69 2.356 . S
C61 O66 1.209 . S
C61 O68 1.226 . S
O62 Cd58 2.273 . S
O62 Cd60 2.411 . S
O62 C65 1.320 . S
O63 Cd60 2.333 . S
O63 C65 1.214 . S
O64 Cd60 2.352 . S
O64 C67 1.258 . S
C65 O62 1.320 . S
C65 O63 1.214 . S
O66 Cd58 2.277 . S
O66 C61 1.209 . S
C67 O64 1.258 . S
C67 O69 1.282 . S
O68 Cd60 2.277 . S
O68 C61 1.226 . S
O69 Cd60 2.356 . S
O69 C67 1.282 . S
C70 O71 1.306 . S
C70 O73 1.160 . S
O71 C70 1.306 . S
O71 Cd72 2.228 . S
Cd72 O71 2.228 . S
Cd72 O76 2.273 . S
Cd72 O80 2.277 . S
O73 C70 1.160 . S
O73 Cd74 2.203 . S
Cd74 O73 2.203 . S
Cd74 O76 2.411 . S
Cd74 O77 2.333 . S
Cd74 O78 2.352 . S
Cd74 O82 2.277 . S
Cd74 O83 2.356 . S
C75 O80 1.209 . S
C75 O82 1.226 . S
O76 Cd72 2.273 . S
O76 Cd74 2.411 . S
O76 C79 1.320 . S
O77 Cd74 2.333 . S
O77 C79 1.214 . S
O78 Cd74 2.352 . S
O78 C81 1.258 . S
C79 O76 1.320 . S
C79 O77 1.214 . S
O80 Cd72 2.277 . S
O80 C75 1.209 . S
C81 O78 1.258 . S
C81 O83 1.282 . S
O82 Cd74 2.277 . S
O82 C75 1.226 . S
O83 Cd74 2.356 . S
O83 C81 1.282 . S
C84 O85 1.306 . S
C84 O87 1.160 . S
O85 C84 1.306 . S
O85 Cd86 2.228 . S
Cd86 O85 2.228 . S
Cd86 O90 2.273 . S
Cd86 O94 2.277 . S
O87 C84 1.160 . S
O87 Cd88 2.203 . S
Cd88 O87 2.203 . S
Cd88 O90 2.411 . S
Cd88 O91 2.333 . S
Cd88 O92 2.352 . S
Cd88 O96 2.277 . S
Cd88 O97 2.356 . S
C89 O94 1.209 . S
C89 O96 1.226 . S
O90 Cd86 2.273 . S
O90 Cd88 2.411 . S
O90 C93 1.320 . S
O91 Cd88 2.333 . S
O91 C93 1.214 . S
O92 Cd88 2.352 . S
O92 C95 1.258 . S
C93 O90 1.320 . S
C93 O91 1.214 . S
O94 Cd86 2.277 . S
O94 C89 1.209 . S
C95 O92 1.258 . S
C95 O97 1.282 . S
O96 Cd88 2.277 . S
O96 C89 1.226 . S
O97 Cd88 2.356 . S
O97 C95 1.282 . S
C98 O99 1.306 . S
C98 O101 1.160 . S
O99 C98 1.306 . S
O99 Cd100 2.228 1_655 S
Cd100 O99 2.228 1_455 S
Cd100 O104 2.273 . S
Cd100 O108 2.277 . S
O101 C98 1.160 . S
O101 Cd102 2.150 1_655 S
Cd102 O101 2.150 1_455 S
Cd102 O104 2.438 . S
Cd102 O105 2.388 . S
Cd102 O106 2.358 1_455 S
Cd102 O110 2.267 . S
Cd102 O111 2.367 . S
C103 O108 1.209 . S
C103 O110 1.226 . S
O104 Cd100 2.273 . S
O104 Cd102 2.438 . S
O104 C107 1.320 . S
O105 Cd102 2.388 . S
O105 C107 1.214 . S
O106 Cd102 2.358 1_655 S
O106 C109 1.258 . S
C107 O104 1.320 . S
C107 O105 1.214 . S
O108 Cd100 2.277 . S
O108 C103 1.209 . S
C109 O106 1.258 . S
C109 O111 1.282 1_655 S
O110 Cd102 2.267 . S
O110 C103 1.226 . S
O111 Cd102 2.367 . S
O111 C109 1.282 1_455 S
C112 O113 1.306 . S
C112 O115 1.160 . S
O113 C112 1.306 . S
O113 Cd114 2.228 . S
Cd114 O113 2.228 . S
Cd114 O118 2.273 . S
Cd114 O122 2.277 1_545 S
O115 C112 1.160 . S
O115 Cd116 2.203 . S
Cd116 O115 2.203 . S
Cd116 O118 2.411 . S
Cd116 O119 2.333 . S
Cd116 O120 2.352 . S
Cd116 O124 2.246 1_545 S
Cd116 O125 2.356 . S
C117 O122 1.209 . S
C117 O124 1.263 . S
O118 Cd114 2.273 . S
O118 Cd116 2.411 . S
O118 C121 1.320 . S
O119 Cd116 2.333 . S
O119 C121 1.214 . S
O120 Cd116 2.352 . S
O120 C123 1.258 . S
C121 O118 1.320 . S
C121 O119 1.214 . S
O122 Cd114 2.277 1_565 S
O122 C117 1.209 . S
C123 O120 1.258 . S
C123 O125 1.282 . S
O124 Cd116 2.246 1_565 S
O124 C117 1.263 . S
O125 Cd116 2.356 . S
O125 C123 1.282 . S
C126 O127 1.306 . S
C126 O129 1.160 . S
O127 C126 1.306 . S
O127 Cd128 2.228 . S
Cd128 O127 2.228 . S
Cd128 O132 2.273 . S
Cd128 O136 2.277 . S
O129 C126 1.160 . S
O129 Cd130 2.203 . S
Cd130 O129 2.203 . S
Cd130 O132 2.411 . S
Cd130 O133 2.333 . S
Cd130 O134 2.352 . S
Cd130 O138 2.277 . S
Cd130 O139 2.356 . S
C131 O136 1.209 . S
C131 O138 1.226 . S
O132 Cd128 2.273 . S
O132 Cd130 2.411 . S
O132 C135 1.320 . S
O133 Cd130 2.333 . S
O133 C135 1.214 . S
O134 Cd130 2.352 . S
O134 C137 1.258 . S
C135 O132 1.320 . S
C135 O133 1.214 . S
O136 Cd128 2.277 . S
O136 C131 1.209 . S
C137 O134 1.258 . S
C137 O139 1.282 . S
O138 Cd130 2.277 . S
O138 C131 1.226 . S
O139 Cd130 2.356 . S
O139 C137 1.282 . S
C140 O141 1.306 . S
C140 O143 1.160 . S
O141 C140 1.306 . S
O141 Cd142 2.228 . S
Cd142 O141 2.228 . S
Cd142 O146 2.273 . S
Cd142 O150 2.277 . S
O143 C140 1.160 . S
O143 Cd144 2.203 . S
Cd144 O143 2.203 . S
Cd144 O146 2.411 . S
Cd144 O147 2.333 . S
Cd144 O148 2.352 . S
Cd144 O152 2.277 . S
Cd144 O153 2.356 . S
C145 O150 1.209 . S
C145 O152 1.226 . S
O146 Cd142 2.273 . S
O146 Cd144 2.411 . S
O146 C149 1.320 . S
O147 Cd144 2.333 . S
O147 C149 1.214 . S
O148 Cd144 2.352 . S
O148 C151 1.258 . S
C149 O146 1.320 . S
C149 O147 1.214 . S
O150 Cd142 2.277 . S
O150 C145 1.209 . S
C151 O148 1.258 . S
C151 O153 1.282 . S
O152 Cd144 2.277 . S
O152 C145 1.226 . S
O153 Cd144 2.356 . S
O153 C151 1.282 . S
C154 O155 1.322 . S
C154 O157 1.148 1_556 S
O155 C154 1.322 . S
O155 Cd156 2.228 . S
Cd156 O155 2.228 . S
Cd156 O160 2.288 . S
Cd156 O164 2.277 . S
O157 C154 1.148 1_554 S
O157 Cd158 2.203 . S
Cd158 O157 2.203 . S
Cd158 O160 2.409 1_554 S
Cd158 O161 2.333 . S
Cd158 O162 2.352 . S
Cd158 O166 2.277 1_554 S
Cd158 O167 2.356 . S
C159 O164 1.209 . S
C159 O166 1.226 . S
O160 Cd156 2.288 . S
O160 Cd158 2.409 1_556 S
O160 C163 1.318 1_556 S
O161 Cd158 2.333 . S
O161 C163 1.213 . S
O162 Cd158 2.352 . S
O162 C165 1.258 . S
C163 O160 1.318 1_554 S
C163 O161 1.213 . S
O164 Cd156 2.277 . S
O164 C159 1.209 . S
C165 O162 1.258 . S
C165 O167 1.282 . S
O166 Cd158 2.277 1_556 S
O166 C159 1.226 . S
O167 Cd158 2.356 . S
O167 C165 1.282 . S
C168 O169 1.306 . S
C168 O171 1.160 . S
O169 C168 1.306 . S
O169 Cd170 2.228 1_554 S
Cd170 O169 2.228 1_556 S
Cd170 O174 2.273 1_556 S
Cd170 O178 2.277 . S
O171 C168 1.160 . S
O171 Cd172 2.203 . S
Cd172 O171 2.203 . S
Cd172 O174 2.411 . S
Cd172 O175 2.333 . S
Cd172 O176 2.352 . S
Cd172 O180 2.277 . S
Cd172 O181 2.356 . S
C173 O178 1.209 . S
C173 O180 1.226 1_556 S
O174 Cd170 2.273 1_554 S
O174 Cd172 2.411 . S
O174 C177 1.320 . S
O175 Cd172 2.333 . S
O175 C177 1.214 . S
O176 Cd172 2.352 . S
O176 C179 1.258 . S
C177 O174 1.320 . S
C177 O175 1.214 . S
O178 Cd170 2.277 . S
O178 C173 1.209 . S
C179 O176 1.258 . S
C179 O181 1.282 . S
O180 Cd172 2.277 . S
O180 C173 1.226 1_554 S
O181 Cd172 2.356 . S
O181 C179 1.282 . S
C182 O183 1.306 . S
C182 O185 1.160 . S
O183 C182 1.306 . S
O183 Cd184 2.228 . S
Cd184 O183 2.228 . S
Cd184 O188 2.273 . S
Cd184 O192 2.277 . S
O185 C182 1.160 . S
O185 Cd186 2.203 . S
Cd186 O185 2.203 . S
Cd186 O188 2.411 . S
Cd186 O189 2.333 . S
Cd186 O190 2.352 . S
Cd186 O194 2.277 . S
Cd186 O195 2.356 . S
C187 O192 1.209 . S
C187 O194 1.226 . S
O188 Cd184 2.273 . S
O188 Cd186 2.411 . S
O188 C191 1.320 . S
O189 Cd186 2.333 . S
O189 C191 1.214 . S
O190 Cd186 2.352 . S
O190 C193 1.258 . S
C191 O188 1.320 . S
C191 O189 1.214 . S
O192 Cd184 2.277 . S
O192 C187 1.209 . S
C193 O190 1.258 . S
C193 O195 1.282 . S
O194 Cd186 2.277 . S
O194 C187 1.226 . S
O195 Cd186 2.356 . S
O195 C193 1.282 . S
C196 O197 1.306 . S
C196 O199 1.160 . S
O197 C196 1.306 . S
O197 Cd198 2.228 . S
Cd198 O197 2.228 . S
Cd198 O202 2.273 . S
Cd198 O206 2.277 . S
O199 C196 1.160 . S
O199 Cd200 2.203 . S
Cd200 O199 2.203 . S
Cd200 O202 2.411 . S
Cd200 O203 2.333 . S
Cd200 O204 2.352 . S
Cd200 O208 2.277 . S
Cd200 O209 2.356 . S
C201 O206 1.209 . S
C201 O208 1.226 . S
O202 Cd198 2.273 . S
O202 Cd200 2.411 . S
O202 C205 1.320 . S
O203 Cd200 2.333 . S
O203 C205 1.214 . S
O204 Cd200 2.352 . S
O204 C207 1.258 . S
C205 O202 1.320 . S
C205 O203 1.214 . S
O206 Cd198 2.277 . S
O206 C201 1.209 . S
C207 O204 1.258 . S
C207 O209 1.282 . S
O208 Cd200 2.277 . S
O208 C201 1.226 . S
O209 Cd200 2.356 . S
O209 C207 1.282 . S
C210 O211 1.306 . S
C210 O213 1.160 . S
O211 C210 1.306 . S
O211 Cd212 2.228 . S
Cd212 O211 2.228 . S
Cd212 O216 2.273 . S
Cd212 O220 2.277 . S
O213 C210 1.160 . S
O213 Cd214 2.203 . S
Cd214 O213 2.203 . S
Cd214 O216 2.411 . S
Cd214 O217 2.333 . S
Cd214 O218 2.352 . S
Cd214 O222 2.277 . S
Cd214 O223 2.356 . S
C215 O220 1.209 . S
C215 O222 1.226 . S
O216 Cd212 2.273 . S
O216 Cd214 2.411 . S
O216 C219 1.320 . S
O217 Cd214 2.333 . S
O217 C219 1.214 . S
O218 Cd214 2.352 . S
O218 C221 1.258 . S
C219 O216 1.320 . S
C219 O217 1.214 . S
O220 Cd212 2.277 . S
O220 C215 1.209 . S
C221 O218 1.258 . S
C221 O223 1.282 . S
O222 Cd214 2.277 . S
O222 C215 1.226 . S
O223 Cd214 2.356 . S
O223 C221 1.282 . S
C224 O225 1.306 . S
C224 O227 1.160 . S
O225 C224 1.306 . S
O225 Cd226 2.228 1_545 S
Cd226 O225 2.228 1_565 S
Cd226 O230 2.273 1_565 S
Cd226 O234 2.277 . S
O227 C224 1.160 . S
O227 Cd228 2.203 . S
Cd228 O227 2.203 . S
Cd228 O230 2.411 . S
Cd228 O231 2.333 . S
Cd228 O232 2.352 . S
Cd228 O236 2.277 1_545 S
Cd228 O237 2.356 . S
C229 O234 1.209 . S
C229 O236 1.226 . S
O230 Cd226 2.273 1_545 S
O230 Cd228 2.411 . S
O230 C233 1.320 . S
O231 Cd228 2.333 . S
O231 C233 1.214 . S
O232 Cd228 2.352 . S
O232 C235 1.258 . S
C233 O230 1.320 . S
C233 O231 1.214 . S
O234 Cd226 2.277 . S
O234 C229 1.209 . S
C235 O232 1.258 . S
C235 O237 1.282 . S
O236 Cd228 2.277 1_565 S
O236 C229 1.226 . S
O237 Cd228 2.356 . S
O237 C235 1.282 . S
C238 O239 1.306 . S
C238 O241 1.160 . S
O239 C238 1.306 . S
O239 Cd240 2.228 . S
Cd240 O239 2.228 . S
Cd240 O244 2.273 . S
Cd240 O248 2.277 . S
O241 C238 1.160 . S
O241 Cd242 2.203 . S
Cd242 O241 2.203 . S
Cd242 O244 2.411 . S
Cd242 O245 2.333 . S
Cd242 O246 2.352 . S
Cd242 O250 2.277 . S
Cd242 O251 2.356 . S
C243 O248 1.209 . S
C243 O250 1.226 . S
O244 Cd240 2.273 . S
O244 Cd242 2.411 . S
O244 C247 1.320 . S
O245 Cd242 2.333 . S
O245 C247 1.214 . S
O246 Cd242 2.352 . S
O246 C249 1.258 . S
C247 O244 1.320 . S
C247 O245 1.214 . S
O248 Cd240 2.277 . S
O248 C243 1.209 . S
C249 O246 1.258 . S
C249 O251 1.282 . S
O250 Cd242 2.277 . S
O250 C243 1.226 . S
O251 Cd242 2.356 . S
O251 C249 1.282 . S
C252 O253 1.306 . S
C252 O255 1.160 . S
O253 C252 1.306 . S
O253 Cd254 2.228 . S
Cd254 O253 2.228 . S
Cd254 O258 2.273 . S
Cd254 O262 2.277 . S
O255 C252 1.160 . S
O255 Cd256 2.203 . S
Cd256 O255 2.203 . S
Cd256 O258 2.411 . S
Cd256 O259 2.333 . S
Cd256 O260 2.352 . S
Cd256 O264 2.277 . S
Cd256 O265 2.356 . S
C257 O262 1.209 . S
C257 O264 1.226 . S
O258 Cd254 2.273 . S
O258 Cd256 2.411 . S
O258 C261 1.320 . S
O259 Cd256 2.333 . S
O259 C261 1.214 . S
O260 Cd256 2.352 . S
O260 C263 1.258 . S
C261 O258 1.320 . S
C261 O259 1.214 . S
O262 Cd254 2.277 . S
O262 C257 1.209 . S
C263 O260 1.258 . S
C263 O265 1.282 . S
O264 Cd256 2.277 . S
O264 C257 1.226 . S
O265 Cd256 2.356 . S
O265 C263 1.282 . S
C266 O267 1.306 . S
C266 O269 1.160 . S
O267 C266 1.306 . S
O267 Cd268 2.228 . S
Cd268 O267 2.228 . S
Cd268 O272 2.273 . S
Cd268 O276 2.277 . S
O269 C266 1.160 . S
O269 Cd270 2.203 . S
Cd270 O269 2.203 . S
Cd270 O272 2.411 . S
Cd270 O273 2.333 . S
Cd270 O274 2.352 1_545 S
Cd270 O278 2.277 . S
Cd270 O279 2.356 . S
C271 O276 1.209 . S
C271 O278 1.226 . S
O272 Cd268 2.273 . S
O272 Cd270 2.411 . S
O272 C275 1.320 . S
O273 Cd270 2.333 . S
O273 C275 1.214 . S
O274 Cd270 2.352 1_565 S
O274 C277 1.258 . S
C275 O272 1.320 . S
C275 O273 1.214 . S
O276 Cd268 2.277 . S
O276 C271 1.209 . S
C277 O274 1.258 . S
C277 O279 1.282 1_565 S
O278 Cd270 2.277 . S
O278 C271 1.226 . S
O279 Cd270 2.356 . S
O279 C277 1.282 1_545 S
C280 O281 1.306 . S
C280 O283 1.160 . S
O281 C280 1.306 . S
O281 Cd282 2.228 . S
Cd282 O281 2.228 . S
Cd282 O286 2.273 . S
Cd282 O290 2.277 . S
O283 C280 1.160 . S
O283 Cd284 2.203 . S
Cd284 O283 2.203 . S
Cd284 O286 2.411 . S
Cd284 O287 2.333 . S
Cd284 O288 2.352 1_554 S
Cd284 O292 2.277 . S
Cd284 O293 2.393 . S
C285 O290 1.209 . S
C285 O292 1.226 . S
O286 Cd282 2.273 . S
O286 Cd284 2.411 . S
O286 C289 1.320 . S
O287 Cd284 2.333 . S
O287 C289 1.214 . S
O288 Cd284 2.352 1_556 S
O288 C291 1.258 . S
C289 O286 1.320 . S
C289 O287 1.214 . S
O290 Cd282 2.277 . S
O290 C285 1.209 . S
C291 O288 1.258 . S
C291 O293 1.244 1_556 S
O292 Cd284 2.277 . S
O292 C285 1.226 . S
O293 Cd284 2.393 . S
O293 C291 1.244 1_554 S
C294 O295 1.306 . S
C294 O297 1.160 . S
O295 C294 1.306 . S
O295 Cd296 2.228 . S
Cd296 O295 2.228 . S
Cd296 O300 2.273 . S
Cd296 O304 2.277 . S
O297 C294 1.160 . S
O297 Cd298 2.203 . S
Cd298 O297 2.203 . S
Cd298 O300 2.411 . S
Cd298 O301 2.333 . S
Cd298 O302 2.352 . S
Cd298 O306 2.277 . S
Cd298 O307 2.356 . S
C299 O304 1.209 . S
C299 O306 1.226 . S
O300 Cd296 2.273 . S
O300 Cd298 2.411 . S
O300 C303 1.320 . S
O301 Cd298 2.333 . S
O301 C303 1.214 . S
O302 Cd298 2.352 . S
O302 C305 1.258 . S
C303 O300 1.320 . S
C303 O301 1.214 . S
O304 Cd296 2.277 . S
O304 C299 1.209 . S
C305 O302 1.258 . S
C305 O307 1.282 . S
O306 Cd298 2.277 . S
O306 C299 1.226 . S
O307 Cd298 2.356 . S
O307 C305 1.282 . S
C308 O309 1.306 . S
C308 O311 1.160 . S
O309 C308 1.306 . S
O309 Cd310 2.228 . S
Cd310 O309 2.228 . S
Cd310 O314 2.273 . S
Cd310 O318 2.277 . S
O311 C308 1.160 . S
O311 Cd312 2.203 . S
Cd312 O311 2.203 . S
Cd312 O314 2.411 . S
Cd312 O315 2.333 . S
Cd312 O316 2.352 . S
Cd312 O320 2.277 . S
Cd312 O321 2.356 . S
C313 O318 1.209 . S
C313 O320 1.226 . S
O314 Cd310 2.273 . S
O314 Cd312 2.411 . S
O314 C317 1.320 . S
O315 Cd312 2.333 . S
O315 C317 1.214 . S
O316 Cd312 2.352 . S
O316 C319 1.258 . S
C317 O314 1.320 . S
C317 O315 1.214 . S
O318 Cd310 2.277 . S
O318 C313 1.209 . S
C319 O316 1.258 . S
C319 O321 1.282 . S
O320 Cd312 2.277 . S
O320 C313 1.226 . S
O321 Cd312 2.356 . S
O321 C319 1.282 . S
C322 O323 1.306 . S
C322 O325 1.160 . S
O323 C322 1.306 . S
O323 Cd324 2.228 . S
Cd324 O323 2.228 . S
Cd324 O328 2.273 . S
Cd324 O332 2.277 . S
O325 C322 1.160 . S
O325 Cd326 2.203 . S
Cd326 O325 2.203 . S
Cd326 O328 2.411 . S
Cd326 O329 2.333 . S
Cd326 O330 2.352 . S
Cd326 O334 2.277 . S
Cd326 O335 2.356 . S
C327 O332 1.209 . S
C327 O334 1.226 . S
O328 Cd324 2.273 . S
O328 Cd326 2.411 . S
O328 C331 1.320 . S
O329 Cd326 2.333 . S
O329 C331 1.214 . S
O330 Cd326 2.352 . S
O330 C333 1.258 . S
C331 O328 1.320 . S
C331 O329 1.214 . S
O332 Cd324 2.277 . S
O332 C327 1.209 . S
C333 O330 1.258 . S
C333 O335 1.282 . S
O334 Cd326 2.277 . S
O334 C327 1.226 . S
O335 Cd326 2.356 . S
O335 C333 1.282 . S
Tb336 C345 2.764 . S
Tb336 O346 2.325 . S
Tb336 O349 2.303 . S
Tb336 O353 2.322 . S
Tb336 O354 2.349 . S
Tb336 O357 2.415 . S
Tb336 O358 2.399 . S
Tb337 O347 2.322 1_545 S
Tb337 O348 2.349 1_554 S
Tb337 O350 2.415 1_455 S
Tb337 O351 2.399 1_454 S
Tb337 O352 2.325 . S
Tb337 O355 2.303 . S
Tb337 C366 2.764 1_455 S
C338 O354 1.261 . S
C338 O355 1.257 . S
C339 C342 1.358 . S
C339 C343 1.332 . S
C339 C345 1.504 . S
C340 C341 1.373 . S
C340 C344 1.308 . S
C341 C340 1.373 . S
C341 C342 1.429 . S
C341 H368 0.932 . S
C342 C339 1.358 . S
C342 C341 1.429 . S
C342 H369 0.930 . S
C343 C339 1.332 . S
C343 C344 1.394 . S
C343 H370 0.932 . S
C344 C340 1.308 . S
C344 C343 1.394 . S
C344 H371 0.929 1_545 S
C345 Tb336 2.764 . S
C345 C339 1.504 . S
C345 O357 1.239 . S
C345 O358 1.263 . S
O346 Tb336 2.325 . S
O346 C356 1.236 1_545 S
O347 Tb337 2.322 1_565 S
O347 C356 1.257 . S
O348 Tb337 2.349 1_556 S
O348 C359 1.261 . S
O349 Tb336 2.303 . S
O349 C359 1.257 1_554 S
O350 Tb337 2.415 1_655 S
O350 C366 1.239 . S
O351 Tb337 2.399 1_656 S
O351 C366 1.263 1_556 S
O352 Tb337 2.325 . S
O352 C367 1.236 . S
O353 Tb336 2.322 . S
O353 C367 1.257 . S
O354 Tb336 2.349 . S
O354 C338 1.261 . S
O355 Tb337 2.303 . S
O355 C338 1.257 . S
C356 O346 1.236 1_565 S
C356 O347 1.257 . S
O357 Tb336 2.415 . S
O357 C345 1.239 . S
O358 Tb336 2.399 . S
O358 C345 1.263 . S
C359 O348 1.261 . S
C359 O349 1.257 1_556 S
C360 C363 1.358 1_554 S
C360 C364 1.332 . S
C360 C366 1.504 . S
C361 C362 1.409 . S
C361 C365 1.268 1_556 S
C362 C361 1.409 . S
C362 C363 1.429 . S
C362 H372 0.932 . S
C363 C360 1.358 1_556 S
C363 C362 1.429 . S
C363 H373 0.930 . S
C364 C360 1.332 . S
C364 C365 1.394 . S
C364 H374 0.932 . S
C365 C361 1.268 1_554 S
C365 C364 1.394 . S
C365 H375 0.929 . S
C366 Tb337 2.764 1_655 S
C366 O350 1.239 . S
C366 O351 1.263 1_554 S
C366 C360 1.504 . S
C367 O352 1.236 . S
C367 O353 1.257 . S
H368 C341 0.932 . S
H369 C342 0.930 . S
H370 C343 0.932 . S
H371 C344 0.929 1_565 S
H372 C362 0.932 . S
H373 C363 0.930 . S
H374 C364 0.932 . S
H375 C365 0.929 . S
Tb376 C385 2.764 . S
Tb376 O386 2.325 . S
Tb376 O389 2.303 . S
Tb376 O393 2.322 . S
Tb376 O394 2.349 . S
Tb376 O397 2.415 . S
Tb376 O398 2.399 . S
Tb377 O387 2.322 . S
Tb377 O388 2.349 . S
Tb377 O390 2.415 . S
Tb377 O391 2.399 . S
Tb377 O392 2.325 . S
Tb377 O395 2.303 . S
Tb377 C406 2.764 . S
C378 O394 1.261 . S
C378 O395 1.257 . S
C379 C382 1.358 . S
C379 C383 1.332 . S
C379 C385 1.504 . S
C380 C381 1.373 . S
C380 C384 1.308 . S
C381 C380 1.373 . S
C381 C382 1.429 . S
C381 H408 0.932 . S
C382 C379 1.358 . S
C382 C381 1.429 . S
C382 H409 0.930 . S
C383 C379 1.332 . S
C383 C384 1.394 . S
C383 H410 0.932 . S
C384 C380 1.308 . S
C384 C383 1.394 . S
C384 H411 0.929 . S
C385 Tb376 2.764 . S
C385 C379 1.504 . S
C385 O397 1.239 . S
C385 O398 1.263 . S
O386 Tb376 2.325 . S
O386 C396 1.236 . S
O387 Tb377 2.322 . S
O387 C396 1.257 . S
O388 Tb377 2.349 . S
O388 C399 1.261 . S
O389 Tb376 2.303 . S
O389 C399 1.257 . S
O390 Tb377 2.415 . S
O390 C406 1.239 . S
O391 Tb377 2.399 . S
O391 C406 1.263 . S
O392 Tb377 2.325 . S
O392 C407 1.236 . S
O393 Tb376 2.322 . S
O393 C407 1.257 . S
O394 Tb376 2.349 . S
O394 C378 1.261 . S
O395 Tb377 2.303 . S
O395 C378 1.257 . S
C396 O386 1.236 . S
C396 O387 1.257 . S
O397 Tb376 2.415 . S
O397 C385 1.239 . S
O398 Tb376 2.399 . S
O398 C385 1.263 . S
C399 O388 1.261 . S
C399 O389 1.257 . S
C400 C403 1.358 . S
C400 C404 1.332 . S
C400 C406 1.504 . S
C401 C402 1.373 . S
C401 C405 1.308 . S
C402 C401 1.373 . S
C402 C403 1.429 . S
C402 H412 0.932 . S
C403 C400 1.358 . S
C403 C402 1.429 . S
C403 H413 0.930 . S
C404 C400 1.332 . S
C404 C405 1.394 . S
C404 H414 0.932 . S
C405 C401 1.308 . S
C405 C404 1.394 . S
C405 H415 0.929 . S
C406 Tb377 2.764 . S
C406 O390 1.239 . S
C406 O391 1.263 . S
C406 C400 1.504 . S
C407 O392 1.236 . S
C407 O393 1.257 . S
H408 C381 0.932 . S
H409 C382 0.930 . S
H410 C383 0.932 . S
H411 C384 0.929 . S
H412 C402 0.932 . S
H413 C403 0.930 . S
H414 C404 0.932 . S
H415 C405 0.929 . S
Tb416 C425 2.764 . S
Tb416 O426 2.325 . S
Tb416 O429 2.303 . S
Tb416 O433 2.322 1_545 S
Tb416 O434 2.349 . S
Tb416 O437 2.415 . S
Tb416 O438 2.399 . S
Tb417 O427 2.322 . S
Tb417 O428 2.349 . S
Tb417 O430 2.415 . S
Tb417 O431 2.399 . S
Tb417 O432 2.325 1_545 S
Tb417 O435 2.303 . S
Tb417 C446 2.764 . S
C418 O434 1.261 . S
C418 O435 1.257 . S
C419 C422 1.358 . S
C419 C423 1.332 . S
C419 C425 1.504 . S
C420 C421 1.373 . S
C420 C424 1.308 . S
C421 C420 1.373 . S
C421 C422 1.429 . S
C421 H448 0.932 . S
C422 C419 1.358 . S
C422 C421 1.429 . S
C422 H449 0.930 . S
C423 C419 1.332 . S
C423 C424 1.394 . S
C423 H450 0.932 . S
C424 C420 1.308 . S
C424 C423 1.394 . S
C424 H451 0.929 . S
C425 Tb416 2.764 . S
C425 C419 1.504 . S
C425 O437 1.239 . S
C425 O438 1.263 . S
O426 Tb416 2.325 . S
O426 C436 1.236 . S
O427 Tb417 2.322 . S
O427 C436 1.257 . S
O428 Tb417 2.349 . S
O428 C439 1.261 . S
O429 Tb416 2.303 . S
O429 C439 1.257 . S
O430 Tb417 2.415 . S
O430 C446 1.239 . S
O431 Tb417 2.399 . S
O431 C446 1.263 . S
O432 Tb417 2.325 1_565 S
O432 C447 1.236 . S
O433 Tb416 2.322 1_565 S
O433 C447 1.257 . S
O434 Tb416 2.349 . S
O434 C418 1.261 . S
O435 Tb417 2.303 . S
O435 C418 1.257 . S
C436 O426 1.236 . S
C436 O427 1.257 . S
O437 Tb416 2.415 . S
O437 C425 1.239 . S
O438 Tb416 2.399 . S
O438 C425 1.263 . S
C439 O428 1.261 . S
C439 O429 1.257 . S
C440 C443 1.358 . S
C440 C444 1.332 . S
C440 C446 1.504 1_565 S
C441 C442 1.373 . S
C441 C445 1.308 . S
C442 C441 1.373 . S
C442 C443 1.429 . S
C442 H452 0.932 . S
C443 C440 1.358 . S
C443 C442 1.429 . S
C443 H453 0.930 1_565 S
C444 C440 1.332 . S
C444 C445 1.394 . S
C444 H454 0.932 . S
C445 C441 1.308 . S
C445 C444 1.394 . S
C445 H455 0.929 . S
C446 Tb417 2.764 . S
C446 O430 1.239 . S
C446 O431 1.263 . S
C446 C440 1.504 1_545 S
C447 O432 1.236 . S
C447 O433 1.257 . S
H448 C421 0.932 . S
H449 C422 0.930 . S
H450 C423 0.932 . S
H451 C424 0.929 . S
H452 C442 0.932 . S
H453 C443 0.930 1_545 S
H454 C444 0.932 . S
H455 C445 0.929 . S
Tb456 C465 2.764 . S
Tb456 O466 2.325 . S
Tb456 O469 2.303 . S
Tb456 O473 2.322 . S
Tb456 O474 2.349 . S
Tb456 O477 2.415 . S
Tb456 O478 2.399 . S
Tb457 O467 2.322 . S
Tb457 O468 2.349 . S
Tb457 O470 2.415 . S
Tb457 O471 2.399 . S
Tb457 O472 2.325 . S
Tb457 O475 2.303 . S
Tb457 C486 2.764 . S
C458 O474 1.261 . S
C458 O475 1.257 . S
C459 C462 1.358 . S
C459 C463 1.332 . S
C459 C465 1.504 . S
C460 C461 1.373 . S
C460 C464 1.308 . S
C461 C460 1.373 . S
C461 C462 1.429 . S
C461 H488 0.932 . S
C462 C459 1.358 . S
C462 C461 1.429 . S
C462 H489 0.930 . S
C463 C459 1.332 . S
C463 C464 1.394 . S
C463 H490 0.932 . S
C464 C460 1.308 . S
C464 C463 1.394 . S
C464 H491 0.929 . S
C465 Tb456 2.764 . S
C465 C459 1.504 . S
C465 O477 1.239 . S
C465 O478 1.263 . S
O466 Tb456 2.325 . S
O466 C476 1.236 . S
O467 Tb457 2.322 . S
O467 C476 1.257 . S
O468 Tb457 2.349 . S
O468 C479 1.261 . S
O469 Tb456 2.303 . S
O469 C479 1.257 . S
O470 Tb457 2.415 . S
O470 C486 1.239 . S
O471 Tb457 2.399 . S
O471 C486 1.263 . S
O472 Tb457 2.325 . S
O472 C487 1.236 . S
O473 Tb456 2.322 . S
O473 C487 1.257 . S
O474 Tb456 2.349 . S
O474 C458 1.261 . S
O475 Tb457 2.303 . S
O475 C458 1.257 . S
C476 O466 1.236 . S
C476 O467 1.257 . S
O477 Tb456 2.415 . S
O477 C465 1.239 . S
O478 Tb456 2.399 . S
O478 C465 1.263 . S
C479 O468 1.261 . S
C479 O469 1.257 . S
C480 C483 1.358 . S
C480 C484 1.332 . S
C480 C486 1.504 . S
C481 C482 1.373 . S
C481 C485 1.308 . S
C482 C481 1.373 . S
C482 C483 1.429 . S
C482 H492 0.932 . S
C483 C480 1.358 . S
C483 C482 1.429 . S
C483 H493 0.930 . S
C484 C480 1.332 . S
C484 C485 1.394 . S
C484 H494 0.932 . S
C485 C481 1.308 . S
C485 C484 1.394 . S
C485 H495 0.929 . S
C486 Tb457 2.764 . S
C486 O470 1.239 . S
C486 O471 1.263 . S
C486 C480 1.504 . S
C487 O472 1.236 . S
C487 O473 1.257 . S
H488 C461 0.932 . S
H489 C462 0.930 . S
H490 C463 0.932 . S
H491 C464 0.929 . S
H492 C482 0.932 . S
H493 C483 0.930 . S
H494 C484 0.932 . S
H495 C485 0.929 . S
Tb496 C505 2.764 . S
Tb496 O506 2.325 . S
Tb496 O509 2.303 . S
Tb496 O513 2.322 . S
Tb496 O514 2.349 . S
Tb496 O517 2.415 . S
Tb496 O518 2.399 . S
Tb497 O507 2.322 1_545 S
Tb497 O508 2.349 . S
Tb497 O510 2.415 . S
Tb497 O511 2.399 . S
Tb497 O512 2.325 . S
Tb497 O515 2.303 . S
Tb497 C526 2.764 . S
C498 O514 1.261 . S
C498 O515 1.257 . S
C499 C502 1.358 . S
C499 C503 1.332 . S
C499 C505 1.504 . S
C500 C501 1.373 . S
C500 C504 1.308 . S
C501 C500 1.373 . S
C501 C502 1.429 . S
C501 H528 0.932 . S
C502 C499 1.358 . S
C502 C501 1.429 . S
C502 H529 0.930 . S
C503 C499 1.332 . S
C503 C504 1.394 . S
C503 H530 0.932 . S
C504 C500 1.308 . S
C504 C503 1.394 . S
C504 H531 0.929 . S
C505 Tb496 2.764 . S
C505 C499 1.504 . S
C505 O517 1.239 . S
C505 O518 1.263 . S
O506 Tb496 2.325 . S
O506 C516 1.236 1_545 S
O507 Tb497 2.322 1_565 S
O507 C516 1.257 . S
O508 Tb497 2.349 . S
O508 C519 1.261 . S
O509 Tb496 2.303 . S
O509 C519 1.257 . S
O510 Tb497 2.415 . S
O510 C526 1.239 . S
O511 Tb497 2.399 . S
O511 C526 1.263 . S
O512 Tb497 2.325 . S
O512 C527 1.236 . S
O513 Tb496 2.322 . S
O513 C527 1.257 . S
O514 Tb496 2.349 . S
O514 C498 1.261 . S
O515 Tb497 2.303 . S
O515 C498 1.257 . S
C516 O506 1.236 1_565 S
C516 O507 1.257 . S
O517 Tb496 2.415 . S
O517 C505 1.239 . S
O518 Tb496 2.399 . S
O518 C505 1.263 . S
C519 O508 1.261 . S
C519 O509 1.257 . S
C520 C523 1.358 . S
C520 C524 1.332 . S
C520 C526 1.504 . S
C521 C522 1.373 . S
C521 C525 1.308 1_455 S
C522 C521 1.373 . S
C522 C523 1.429 . S
C522 H532 0.932 . S
C523 C520 1.358 . S
C523 C522 1.429 . S
C523 H533 0.930 . S
C524 C520 1.332 . S
C524 C525 1.394 1_455 S
C524 H534 0.932 1_455 S
C525 C521 1.308 1_655 S
C525 C524 1.394 1_655 S
C525 H535 0.929 . S
C526 Tb497 2.764 . S
C526 O510 1.239 . S
C526 O511 1.263 . S
C526 C520 1.504 . S
C527 O512 1.236 . S
C527 O513 1.257 . S
H528 C501 0.932 . S
H529 C502 0.930 . S
H530 C503 0.932 . S
H531 C504 0.929 . S
H532 C522 0.932 . S
H533 C523 0.930 . S
H534 C524 0.932 1_655 S
H535 C525 0.929 . S
Tb536 C545 2.764 . S
Tb536 O546 2.325 . S
Tb536 O549 2.303 . S
Tb536 O553 2.322 . S
Tb536 O554 2.349 . S
Tb536 O557 2.415 . S
Tb536 O558 2.399 . S
Tb537 O547 2.322 . S
Tb537 O548 2.349 . S
Tb537 O550 2.415 . S
Tb537 O551 2.399 . S
Tb537 O552 2.325 . S
Tb537 O555 2.303 . S
Tb537 C566 2.764 . S
C538 O554 1.261 . S
C538 O555 1.257 . S
C539 C542 1.358 . S
C539 C543 1.332 . S
C539 C545 1.504 . S
C540 C541 1.373 . S
C540 C544 1.308 . S
C541 C540 1.373 . S
C541 C542 1.429 . S
C541 H568 0.932 . S
C542 C539 1.358 . S
C542 C541 1.429 . S
C542 H569 0.930 . S
C543 C539 1.332 . S
C543 C544 1.394 . S
C543 H570 0.932 . S
C544 C540 1.308 . S
C544 C543 1.394 . S
C544 H571 0.929 . S
C545 Tb536 2.764 . S
C545 C539 1.504 . S
C545 O557 1.239 . S
C545 O558 1.263 . S
O546 Tb536 2.325 . S
O546 C556 1.236 . S
O547 Tb537 2.322 . S
O547 C556 1.257 . S
O548 Tb537 2.349 . S
O548 C559 1.261 . S
O549 Tb536 2.303 . S
O549 C559 1.257 . S
O550 Tb537 2.415 . S
O550 C566 1.239 . S
O551 Tb537 2.399 . S
O551 C566 1.263 . S
O552 Tb537 2.325 . S
O552 C567 1.236 . S
O553 Tb536 2.322 . S
O553 C567 1.257 . S
O554 Tb536 2.349 . S
O554 C538 1.261 . S
O555 Tb537 2.303 . S
O555 C538 1.257 . S
C556 O546 1.236 . S
C556 O547 1.257 . S
O557 Tb536 2.415 . S
O557 C545 1.239 . S
O558 Tb536 2.399 . S
O558 C545 1.263 . S
C559 O548 1.261 . S
C559 O549 1.257 . S
C560 C563 1.358 . S
C560 C564 1.332 . S
C560 C566 1.504 . S
C561 C562 1.373 . S
C561 C565 1.308 . S
C562 C561 1.373 . S
C562 C563 1.429 . S
C562 H572 0.932 . S
C563 C560 1.358 . S
C563 C562 1.429 . S
C563 H573 0.930 . S
C564 C560 1.332 . S
C564 C565 1.394 . S
C564 H574 0.932 . S
C565 C561 1.308 . S
C565 C564 1.394 . S
C565 H575 0.929 . S
C566 Tb537 2.764 . S
C566 O550 1.239 . S
C566 O551 1.263 . S
C566 C560 1.504 . S
C567 O552 1.236 . S
C567 O553 1.257 . S
H568 C541 0.932 . S
H569 C542 0.930 . S
H570 C543 0.932 . S
H571 C544 0.929 . S
H572 C562 0.932 . S
H573 C563 0.930 . S
H574 C564 0.932 . S
H575 C565 0.929 . S
Tb576 C585 2.764 . S
Tb576 O586 2.325 . S
Tb576 O589 2.303 . S
Tb576 O593 2.322 1_545 S
Tb576 O594 2.349 . S
Tb576 O597 2.415 . S
Tb576 O598 2.399 . S
Tb577 O587 2.322 1_556 S
Tb577 O588 2.349 . S
Tb577 O590 2.415 . S
Tb577 O591 2.399 . S
Tb577 O592 2.325 . S
Tb577 O595 2.303 1_556 S
Tb577 C606 2.764 . S
C578 O594 1.261 . S
C578 O595 1.257 . S
C579 C582 1.358 . S
C579 C583 1.332 . S
C579 C585 1.504 . S
C580 C581 1.373 . S
C580 C584 1.308 . S
C581 C580 1.373 . S
C581 C582 1.429 . S
C581 H608 0.932 . S
C582 C579 1.358 . S
C582 C581 1.429 . S
C582 H609 0.930 . S
C583 C579 1.332 . S
C583 C584 1.394 . S
C583 H610 0.932 . S
C584 C580 1.308 . S
C584 C583 1.394 . S
C584 H611 0.929 . S
C585 Tb576 2.764 . S
C585 C579 1.504 . S
C585 O597 1.239 . S
C585 O598 1.263 . S
O586 Tb576 2.325 . S
O586 C596 1.236 . S
O587 Tb577 2.322 1_554 S
O587 C596 1.257 . S
O588 Tb577 2.349 . S
O588 C599 1.261 1_556 S
O589 Tb576 2.303 . S
O589 C599 1.257 . S
O590 Tb577 2.415 . S
O590 C606 1.239 . S
O591 Tb577 2.399 . S
O591 C606 1.263 . S
O592 Tb577 2.325 . S
O592 C607 1.236 1_546 S
O593 Tb576 2.322 1_565 S
O593 C607 1.257 . S
O594 Tb576 2.349 . S
O594 C578 1.261 . S
O595 Tb577 2.303 1_554 S
O595 C578 1.257 . S
C596 O586 1.236 . S
C596 O587 1.257 . S
O597 Tb576 2.415 . S
O597 C585 1.239 . S
O598 Tb576 2.399 . S
O598 C585 1.263 . S
C599 O588 1.261 1_554 S
C599 O589 1.257 . S
C600 C603 1.358 . S
C600 C604 1.332 . S
C600 C606 1.504 . S
C601 C602 1.373 . S
C601 C605 1.308 . S
C602 C601 1.373 . S
C602 C603 1.429 . S
C602 H612 0.932 . S
C603 C600 1.358 . S
C603 C602 1.429 . S
C603 H613 0.930 . S
C604 C600 1.332 . S
C604 C605 1.394 . S
C604 H614 0.932 . S
C605 C601 1.308 . S
C605 C604 1.394 . S
C605 H615 0.929 . S
C606 Tb577 2.764 . S
C606 O590 1.239 . S
C606 O591 1.263 . S
C606 C600 1.504 . S
C607 O592 1.236 1_564 S
C607 O593 1.257 . S
H608 C581 0.932 . S
H609 C582 0.930 . S
H610 C583 0.932 . S
H611 C584 0.929 . S
H612 C602 0.932 . S
H613 C603 0.930 . S
H614 C604 0.932 . S
H615 C605 0.929 . S
Tb616 C625 2.764 . S
Tb616 O626 2.325 . S
Tb616 O629 2.303 . S
Tb616 O633 2.322 . S
Tb616 O634 2.349 . S
Tb616 O637 2.415 . S
Tb616 O638 2.399 . S
Tb617 O627 2.322 . S
Tb617 O628 2.349 . S
Tb617 O630 2.415 . S
Tb617 O631 2.399 . S
Tb617 O632 2.325 . S
Tb617 O635 2.303 . S
Tb617 C646 2.764 . S
C618 O634 1.261 . S
C618 O635 1.257 . S
C619 C622 1.358 . S
C619 C623 1.332 . S
C619 C625 1.504 . S
C620 C621 1.373 . S
C620 C624 1.308 . S
C621 C620 1.373 . S
C621 C622 1.429 . S
C621 H648 0.932 . S
C622 C619 1.358 . S
C622 C621 1.429 . S
C622 H649 0.930 . S
C623 C619 1.332 . S
C623 C624 1.394 . S
C623 H650 0.932 . S
C624 C620 1.308 . S
C624 C623 1.394 . S
C624 H651 0.929 . S
C625 Tb616 2.764 . S
C625 C619 1.504 . S
C625 O637 1.239 . S
C625 O638 1.263 . S
O626 Tb616 2.325 . S
O626 C636 1.236 . S
O627 Tb617 2.322 . S
O627 C636 1.257 . S
O628 Tb617 2.349 . S
O628 C639 1.261 . S
O629 Tb616 2.303 . S
O629 C639 1.257 . S
O630 Tb617 2.415 . S
O630 C646 1.239 . S
O631 Tb617 2.399 . S
O631 C646 1.263 . S
O632 Tb617 2.325 . S
O632 C647 1.236 . S
O633 Tb616 2.322 . S
O633 C647 1.257 . S
O634 Tb616 2.349 . S
O634 C618 1.261 . S
O635 Tb617 2.303 . S
O635 C618 1.257 . S
C636 O626 1.236 . S
C636 O627 1.257 . S
O637 Tb616 2.415 . S
O637 C625 1.239 . S
O638 Tb616 2.399 . S
O638 C625 1.263 . S
C639 O628 1.261 . S
C639 O629 1.257 . S
C640 C643 1.358 . S
C640 C644 1.332 . S
C640 C646 1.504 . S
C641 C642 1.373 . S
C641 C645 1.308 . S
C642 C641 1.373 . S
C642 C643 1.429 . S
C642 H652 0.932 . S
C643 C640 1.358 . S
C643 C642 1.429 . S
C643 H653 0.930 . S
C644 C640 1.332 . S
C644 C645 1.394 . S
C644 H654 0.932 . S
C645 C641 1.308 . S
C645 C644 1.394 . S
C645 H655 0.929 . S
C646 Tb617 2.764 . S
C646 O630 1.239 . S
C646 O631 1.263 . S
C646 C640 1.504 . S
C647 O632 1.236 . S
C647 O633 1.257 . S
H648 C621 0.932 . S
H649 C622 0.930 . S
H650 C623 0.932 . S
H651 C624 0.929 . S
H652 C642 0.932 . S
H653 C643 0.930 . S
H654 C644 0.932 . S
H655 C645 0.929 . S
Tb656 C665 2.764 . S
Tb656 O666 2.325 . S
Tb656 O669 2.303 . S
Tb656 O673 2.322 . S
Tb656 O674 2.349 . S
Tb656 O677 2.415 . S
Tb656 O678 2.399 . S
Tb657 O667 2.322 1_556 S
Tb657 O668 2.349 1_556 S
Tb657 O670 2.415 . S
Tb657 O671 2.399 . S
Tb657 O672 2.325 . S
Tb657 O675 2.303 1_556 S
Tb657 C686 2.764 . S
C658 O674 1.261 . S
C658 O675 1.257 . S
C659 C662 1.358 . S
C659 C663 1.332 . S
C659 C665 1.504 . S
C660 C661 1.373 . S
C660 C664 1.308 . S
C661 C660 1.373 . S
C661 C662 1.429 . S
C661 H688 0.932 . S
C662 C659 1.358 . S
C662 C661 1.429 . S
C662 H689 0.930 . S
C663 C659 1.332 . S
C663 C664 1.394 . S
C663 H690 0.932 . S
C664 C660 1.308 . S
C664 C663 1.394 . S
C664 H691 0.929 . S
C665 Tb656 2.764 . S
C665 C659 1.504 . S
C665 O677 1.239 . S
C665 O678 1.263 . S
O666 Tb656 2.325 . S
O666 C676 1.236 . S
O667 Tb657 2.322 1_554 S
O667 C676 1.257 . S
O668 Tb657 2.349 1_554 S
O668 C679 1.261 . S
O669 Tb656 2.303 . S
O669 C679 1.257 . S
O670 Tb657 2.415 . S
O670 C686 1.239 . S
O671 Tb657 2.399 . S
O671 C686 1.263 . S
O672 Tb657 2.325 . S
O672 C687 1.236 1_556 S
O673 Tb656 2.322 . S
O673 C687 1.257 . S
O674 Tb656 2.349 . S
O674 C658 1.261 . S
O675 Tb657 2.303 1_554 S
O675 C658 1.257 . S
C676 O666 1.236 . S
C676 O667 1.257 . S
O677 Tb656 2.415 . S
O677 C665 1.239 . S
O678 Tb656 2.399 . S
O678 C665 1.263 . S
C679 O668 1.261 . S
C679 O669 1.257 . S
C680 C683 1.358 . S
C680 C684 1.332 . S
C680 C686 1.504 . S
C681 C682 1.373 . S
C681 C685 1.308 . S
C682 C681 1.373 . S
C682 C683 1.429 . S
C682 H692 0.932 . S
C683 C680 1.358 . S
C683 C682 1.429 . S
C683 H693 0.930 . S
C684 C680 1.332 . S
C684 C685 1.394 . S
C684 H694 0.932 . S
C685 C681 1.308 . S
C685 C684 1.394 . S
C685 H695 0.929 . S
C686 Tb657 2.764 . S
C686 O670 1.239 . S
C686 O671 1.263 . S
C686 C680 1.504 . S
C687 O672 1.236 1_554 S
C687 O673 1.257 . S
H688 C661 0.932 . S
H689 C662 0.930 . S
H690 C663 0.932 . S
H691 C664 0.929 . S
H692 C682 0.932 . S
H693 C683 0.930 . S
H694 C684 0.932 . S
H695 C685 0.929 . S
Tb696 C705 2.764 . S
Tb696 O706 2.325 . S
Tb696 O709 2.303 . S
Tb696 O713 2.322 . S
Tb696 O714 2.349 . S
Tb696 O717 2.415 . S
Tb696 O718 2.399 . S
Tb697 O707 2.322 . S
Tb697 O708 2.349 . S
Tb697 O710 2.415 . S
Tb697 O711 2.399 . S
Tb697 O712 2.325 . S
Tb697 O715 2.303 . S
Tb697 C726 2.764 . S
C698 O714 1.261 . S
C698 O715 1.257 . S
C699 C702 1.358 . S
C699 C703 1.332 . S
C699 C705 1.504 . S
C700 C701 1.373 . S
C700 C704 1.308 . S
C701 C700 1.373 . S
C701 C702 1.429 . S
C701 H728 0.932 . S
C702 C699 1.358 . S
C702 C701 1.429 . S
C702 H729 0.930 . S
C703 C699 1.332 . S
C703 C704 1.394 . S
C703 H730 0.932 . S
C704 C700 1.308 . S
C704 C703 1.394 . S
C704 H731 0.929 . S
C705 Tb696 2.764 . S
C705 C699 1.504 . S
C705 O717 1.239 . S
C705 O718 1.263 . S
O706 Tb696 2.325 . S
O706 C716 1.236 . S
O707 Tb697 2.322 . S
O707 C716 1.257 . S
O708 Tb697 2.349 . S
O708 C719 1.261 . S
O709 Tb696 2.303 . S
O709 C719 1.257 . S
O710 Tb697 2.415 . S
O710 C726 1.239 . S
O711 Tb697 2.399 . S
O711 C726 1.263 . S
O712 Tb697 2.325 . S
O712 C727 1.236 . S
O713 Tb696 2.322 . S
O713 C727 1.257 . S
O714 Tb696 2.349 . S
O714 C698 1.261 . S
O715 Tb697 2.303 . S
O715 C698 1.257 . S
C716 O706 1.236 . S
C716 O707 1.257 . S
O717 Tb696 2.415 . S
O717 C705 1.239 . S
O718 Tb696 2.399 . S
O718 C705 1.263 . S
C719 O708 1.261 . S
C719 O709 1.257 . S
C720 C723 1.358 . S
C720 C724 1.332 . S
C720 C726 1.504 . S
C721 C722 1.373 . S
C721 C725 1.308 . S
C722 C721 1.373 . S
C722 C723 1.429 . S
C722 H732 0.932 . S
C723 C720 1.358 . S
C723 C722 1.429 . S
C723 H733 0.930 . S
C724 C720 1.332 . S
C724 C725 1.394 . S
C724 H734 0.932 . S
C725 C721 1.308 . S
C725 C724 1.394 . S
C725 H735 0.929 . S
C726 Tb697 2.764 . S
C726 O710 1.239 . S
C726 O711 1.263 . S
C726 C720 1.504 . S
C727 O712 1.236 . S
C727 O713 1.257 . S
H728 C701 0.932 . S
H729 C702 0.930 . S
H730 C703 0.932 . S
H731 C704 0.929 . S
H732 C722 0.932 . S
H733 C723 0.930 . S
H734 C724 0.932 . S
H735 C725 0.929 . S
Tb736 C745 2.764 . S
Tb736 O746 2.325 . S
Tb736 O749 2.303 . S
Tb736 O753 2.322 . S
Tb736 O754 2.349 . S
Tb736 O757 2.415 . S
Tb736 O758 2.399 . S
Tb737 O747 2.322 . S
Tb737 O748 2.349 . S
Tb737 O750 2.415 . S
Tb737 O751 2.399 . S
Tb737 O752 2.325 . S
Tb737 O755 2.303 . S
Tb737 C766 2.764 . S
C738 O754 1.261 . S
C738 O755 1.257 . S
C739 C742 1.358 . S
C739 C743 1.332 . S
C739 C745 1.504 . S
C740 C741 1.373 . S
C740 C744 1.308 1_455 S
C741 C740 1.373 . S
C741 C742 1.429 . S
C741 H768 0.932 . S
C742 C739 1.358 . S
C742 C741 1.429 . S
C742 H769 0.930 . S
C743 C739 1.332 . S
C743 C744 1.394 1_455 S
C743 H770 0.932 1_455 S
C744 C740 1.308 1_655 S
C744 C743 1.394 1_655 S
C744 H771 0.929 . S
C745 Tb736 2.764 . S
C745 C739 1.504 . S
C745 O757 1.239 . S
C745 O758 1.263 . S
O746 Tb736 2.325 . S
O746 C756 1.236 . S
O747 Tb737 2.322 . S
O747 C756 1.257 . S
O748 Tb737 2.349 . S
O748 C759 1.261 . S
O749 Tb736 2.303 . S
O749 C759 1.257 . S
O750 Tb737 2.415 . S
O750 C766 1.239 . S
O751 Tb737 2.399 . S
O751 C766 1.263 . S
O752 Tb737 2.325 . S
O752 C767 1.236 . S
O753 Tb736 2.322 . S
O753 C767 1.257 . S
O754 Tb736 2.349 . S
O754 C738 1.261 . S
O755 Tb737 2.303 . S
O755 C738 1.257 . S
C756 O746 1.236 . S
C756 O747 1.257 . S
O757 Tb736 2.415 . S
O757 C745 1.239 . S
O758 Tb736 2.399 . S
O758 C745 1.263 . S
C759 O748 1.261 . S
C759 O749 1.257 . S
C760 C763 1.358 . S
C760 C764 1.332 . S
C760 C766 1.504 . S
C761 C762 1.373 . S
C761 C765 1.308 . S
C762 C761 1.373 . S
C762 C763 1.429 . S
C762 H772 0.932 . S
C763 C760 1.358 . S
C763 C762 1.429 . S
C763 H773 0.930 . S
C764 C760 1.332 . S
C764 C765 1.394 . S
C764 H774 0.932 . S
C765 C761 1.308 . S
C765 C764 1.394 . S
C765 H775 0.929 . S
C766 Tb737 2.764 . S
C766 O750 1.239 . S
C766 O751 1.263 . S
C766 C760 1.504 . S
C767 O752 1.236 . S
C767 O753 1.257 . S
H768 C741 0.932 . S
H769 C742 0.930 . S
H770 C743 0.932 1_655 S
H771 C744 0.929 . S
H772 C762 0.932 . S
H773 C763 0.930 . S
H774 C764 0.932 . S
H775 C765 0.929 . S
Tb776 C785 2.764 . S
Tb776 O786 2.325 . S
Tb776 O789 2.303 . S
Tb776 O793 2.322 . S
Tb776 O794 2.349 . S
Tb776 O797 2.415 . S
Tb776 O798 2.399 . S
Tb777 O787 2.322 . S
Tb777 O788 2.349 . S
Tb777 O790 2.415 . S
Tb777 O791 2.399 . S
Tb777 O792 2.325 . S
Tb777 O795 2.303 . S
Tb777 C806 2.764 . S
C778 O794 1.261 . S
C778 O795 1.257 . S
C779 C782 1.358 . S
C779 C783 1.332 . S
C779 C785 1.504 . S
C780 C781 1.373 . S
C780 C784 1.308 . S
C781 C780 1.373 . S
C781 C782 1.429 . S
C781 H808 0.932 . S
C782 C779 1.358 . S
C782 C781 1.429 . S
C782 H809 0.930 . S
C783 C779 1.332 . S
C783 C784 1.394 . S
C783 H810 0.932 . S
C784 C780 1.308 . S
C784 C783 1.394 . S
C784 H811 0.929 . S
C785 Tb776 2.764 . S
C785 C779 1.504 . S
C785 O797 1.239 . S
C785 O798 1.263 . S
O786 Tb776 2.325 . S
O786 C796 1.236 . S
O787 Tb777 2.322 . S
O787 C796 1.257 . S
O788 Tb777 2.349 . S
O788 C799 1.261 . S
O789 Tb776 2.303 . S
O789 C799 1.257 . S
O790 Tb777 2.415 . S
O790 C806 1.239 . S
O791 Tb777 2.399 . S
O791 C806 1.263 . S
O792 Tb777 2.325 . S
O792 C807 1.236 . S
O793 Tb776 2.322 . S
O793 C807 1.257 . S
O794 Tb776 2.349 . S
O794 C778 1.261 . S
O795 Tb777 2.303 . S
O795 C778 1.257 . S
C796 O786 1.236 . S
C796 O787 1.257 . S
O797 Tb776 2.415 . S
O797 C785 1.239 . S
O798 Tb776 2.399 . S
O798 C785 1.263 . S
C799 O788 1.261 . S
C799 O789 1.257 . S
C800 C803 1.358 . S
C800 C804 1.332 . S
C800 C806 1.504 . S
C801 C802 1.373 . S
C801 C805 1.308 . S
C802 C801 1.373 . S
C802 C803 1.429 . S
C802 H812 0.932 . S
C803 C800 1.358 . S
C803 C802 1.429 . S
C803 H813 0.930 . S
C804 C800 1.332 . S
C804 C805 1.394 . S
C804 H814 0.932 . S
C805 C801 1.308 . S
C805 C804 1.394 . S
C805 H815 0.929 . S
C806 Tb777 2.764 . S
C806 O790 1.239 . S
C806 O791 1.263 . S
C806 C800 1.504 . S
C807 O792 1.236 . S
C807 O793 1.257 . S
H808 C781 0.932 . S
H809 C782 0.930 . S
H810 C783 0.932 . S
H811 C784 0.929 . S
H812 C802 0.932 . S
H813 C803 0.930 . S
H814 C804 0.932 . S
H815 C805 0.929 . S
Tb816 C825 2.764 . S
Tb816 O826 2.325 . S
Tb816 O829 2.303 . S
Tb816 O833 2.322 . S
Tb816 O834 2.349 . S
Tb816 O837 2.415 . S
Tb816 O838 2.399 . S
Tb817 O827 2.322 . S
Tb817 O828 2.349 . S
Tb817 O830 2.415 . S
Tb817 O831 2.399 . S
Tb817 O832 2.325 . S
Tb817 O835 2.303 . S
Tb817 C846 2.764 . S
C818 O834 1.261 . S
C818 O835 1.257 . S
C819 C822 1.358 . S
C819 C823 1.332 . S
C819 C825 1.504 . S
C820 C821 1.373 . S
C820 C824 1.308 . S
C821 C820 1.373 . S
C821 C822 1.429 . S
C821 H848 0.932 . S
C822 C819 1.358 . S
C822 C821 1.429 . S
C822 H849 0.930 . S
C823 C819 1.332 . S
C823 C824 1.394 . S
C823 H850 0.932 . S
C824 C820 1.308 . S
C824 C823 1.394 . S
C824 H851 0.929 . S
C825 Tb816 2.764 . S
C825 C819 1.504 . S
C825 O837 1.239 . S
C825 O838 1.263 . S
O826 Tb816 2.325 . S
O826 C836 1.236 . S
O827 Tb817 2.322 . S
O827 C836 1.257 . S
O828 Tb817 2.349 . S
O828 C839 1.261 . S
O829 Tb816 2.303 . S
O829 C839 1.257 . S
O830 Tb817 2.415 . S
O830 C846 1.239 . S
O831 Tb817 2.399 . S
O831 C846 1.263 . S
O832 Tb817 2.325 . S
O832 C847 1.236 . S
O833 Tb816 2.322 . S
O833 C847 1.257 . S
O834 Tb816 2.349 . S
O834 C818 1.261 . S
O835 Tb817 2.303 . S
O835 C818 1.257 . S
C836 O826 1.236 . S
C836 O827 1.257 . S
O837 Tb816 2.415 . S
O837 C825 1.239 . S
O838 Tb816 2.399 . S
O838 C825 1.263 . S
C839 O828 1.261 . S
C839 O829 1.257 . S
C840 C843 1.358 . S
C840 C844 1.332 . S
C840 C846 1.504 . S
C841 C842 1.373 . S
C841 C845 1.308 . S
C842 C841 1.373 . S
C842 C843 1.429 . S
C842 H852 0.932 . S
C843 C840 1.358 . S
C843 C842 1.429 . S
C843 H853 0.930 . S
C844 C840 1.332 . S
C844 C845 1.394 . S
C844 H854 0.932 . S
C845 C841 1.308 . S
C845 C844 1.394 . S
C845 H855 0.929 . S
C846 Tb817 2.764 . S
C846 O830 1.239 . S
C846 O831 1.263 . S
C846 C840 1.504 . S
C847 O832 1.236 . S
C847 O833 1.257 . S
H848 C821 0.932 . S
H849 C822 0.930 . S
H850 C823 0.932 . S
H851 C824 0.929 . S
H852 C842 0.932 . S
H853 C843 0.930 . S
H854 C844 0.932 . S
H855 C845 0.929 . S
Tb856 C865 2.764 . S
Tb856 O866 2.325 . S
Tb856 O869 2.303 . S
Tb856 O873 2.322 . S
Tb856 O874 2.349 . S
Tb856 O877 2.415 . S
Tb856 O878 2.399 . S
Tb857 O867 2.322 . S
Tb857 O868 2.349 . S
Tb857 O870 2.415 . S
Tb857 O871 2.399 . S
Tb857 O872 2.325 . S
Tb857 O875 2.303 . S
Tb857 C886 2.764 . S
C858 O874 1.261 . S
C858 O875 1.257 . S
C859 C862 1.358 . S
C859 C863 1.332 . S
C859 C865 1.504 . S
C860 C861 1.373 . S
C860 C864 1.308 . S
C861 C860 1.373 . S
C861 C862 1.429 . S
C861 H888 0.932 . S
C862 C859 1.358 . S
C862 C861 1.429 . S
C862 H889 0.930 . S
C863 C859 1.332 . S
C863 C864 1.394 . S
C863 H890 0.932 . S
C864 C860 1.308 . S
C864 C863 1.394 . S
C864 H891 0.929 . S
C865 Tb856 2.764 . S
C865 C859 1.504 . S
C865 O877 1.239 . S
C865 O878 1.263 . S
O866 Tb856 2.325 . S
O866 C876 1.236 . S
O867 Tb857 2.322 . S
O867 C876 1.257 . S
O868 Tb857 2.349 . S
O868 C879 1.261 . S
O869 Tb856 2.303 . S
O869 C879 1.257 . S
O870 Tb857 2.415 . S
O870 C886 1.239 . S
O871 Tb857 2.399 . S
O871 C886 1.263 . S
O872 Tb857 2.325 . S
O872 C887 1.236 . S
O873 Tb856 2.322 . S
O873 C887 1.257 . S
O874 Tb856 2.349 . S
O874 C858 1.261 . S
O875 Tb857 2.303 . S
O875 C858 1.257 . S
C876 O866 1.236 . S
C876 O867 1.257 . S
O877 Tb856 2.415 . S
O877 C865 1.239 . S
O878 Tb856 2.399 . S
O878 C865 1.263 . S
C879 O868 1.261 . S
C879 O869 1.257 . S
C880 C883 1.358 . S
C880 C884 1.332 . S
C880 C886 1.504 . S
C881 C882 1.373 . S
C881 C885 1.308 . S
C882 C881 1.373 . S
C882 C883 1.429 . S
C882 H892 0.932 . S
C883 C880 1.358 . S
C883 C882 1.429 . S
C883 H893 0.930 . S
C884 C880 1.332 . S
C884 C885 1.394 . S
C884 H894 0.932 . S
C885 C881 1.308 . S
C885 C884 1.394 . S
C885 H895 0.929 . S
C886 Tb857 2.764 . S
C886 O870 1.239 . S
C886 O871 1.263 . S
C886 C880 1.504 . S
C887 O872 1.236 . S
C887 O873 1.257 . S
H888 C861 0.932 . S
H889 C862 0.930 . S
H890 C863 0.932 . S
H891 C864 0.929 . S
H892 C882 0.932 . S
H893 C883 0.930 . S
H894 C884 0.932 . S
H895 C885 0.929 . S
Tb896 C905 2.764 . S
Tb896 O906 2.325 . S
Tb896 O909 2.303 . S
Tb896 O913 2.322 . S
Tb896 O914 2.349 . S
Tb896 O917 2.415 . S
Tb896 O918 2.399 . S
Tb897 O907 2.322 . S
Tb897 O908 2.349 . S
Tb897 O910 2.415 . S
Tb897 O911 2.399 . S
Tb897 O912 2.325 . S
Tb897 O915 2.303 . S
Tb897 C926 2.764 . S
C898 O914 1.261 . S
C898 O915 1.257 . S
C899 C902 1.358 . S
C899 C903 1.332 . S
C899 C905 1.504 . S
C900 C901 1.373 . S
C900 C904 1.308 . S
C901 C900 1.373 . S
C901 C902 1.429 . S
C901 H928 0.932 . S
C902 C899 1.358 . S
C902 C901 1.429 . S
C902 H929 0.930 . S
C903 C899 1.332 . S
C903 C904 1.394 . S
C903 H930 0.932 . S
C904 C900 1.308 . S
C904 C903 1.394 . S
C904 H931 0.929 . S
C905 Tb896 2.764 . S
C905 C899 1.504 . S
C905 O917 1.239 . S
C905 O918 1.263 . S
O906 Tb896 2.325 . S
O906 C916 1.236 . S
O907 Tb897 2.322 . S
O907 C916 1.257 . S
O908 Tb897 2.349 . S
O908 C919 1.261 . S
O909 Tb896 2.303 . S
O909 C919 1.257 . S
O910 Tb897 2.415 . S
O910 C926 1.239 . S
O911 Tb897 2.399 . S
O911 C926 1.263 . S
O912 Tb897 2.325 . S
O912 C927 1.236 . S
O913 Tb896 2.322 . S
O913 C927 1.257 . S
O914 Tb896 2.349 . S
O914 C898 1.261 . S
O915 Tb897 2.303 . S
O915 C898 1.257 . S
C916 O906 1.236 . S
C916 O907 1.257 . S
O917 Tb896 2.415 . S
O917 C905 1.239 . S
O918 Tb896 2.399 . S
O918 C905 1.263 . S
C919 O908 1.261 . S
C919 O909 1.257 . S
C920 C923 1.358 . S
C920 C924 1.332 . S
C920 C926 1.504 . S
C921 C922 1.373 . S
C921 C925 1.308 . S
C922 C921 1.373 . S
C922 C923 1.429 . S
C922 H932 0.932 . S
C923 C920 1.358 . S
C923 C922 1.429 . S
C923 H933 0.930 . S
C924 C920 1.332 . S
C924 C925 1.394 . S
C924 H934 0.932 . S
C925 C921 1.308 . S
C925 C924 1.394 . S
C925 H935 0.929 . S
C926 Tb897 2.764 . S
C926 O910 1.239 . S
C926 O911 1.263 . S
C926 C920 1.504 . S
C927 O912 1.236 . S
C927 O913 1.257 . S
H928 C901 0.932 . S
H929 C902 0.930 . S
H930 C903 0.932 . S
H931 C904 0.929 . S
H932 C922 0.932 . S
H933 C923 0.930 . S
H934 C924 0.932 . S
H935 C925 0.929 . S
Tb936 C945 2.764 1_455 S
Tb936 O946 2.325 . S
Tb936 O949 2.303 . S
Tb936 O953 2.322 . S
Tb936 O954 2.349 . S
Tb936 O957 2.415 1_455 S
Tb936 O958 2.399 1_455 S
Tb937 O947 2.322 . S
Tb937 O948 2.349 1_554 S
Tb937 O950 2.415 . S
Tb937 O951 2.399 1_554 S
Tb937 O952 2.325 . S
Tb937 O955 2.303 . S
Tb937 C966 2.764 . S
C938 O954 1.261 . S
C938 O955 1.257 . S
C939 C942 1.358 . S
C939 C943 1.332 . S
C939 C945 1.504 . S
C940 C941 1.373 . S
C940 C944 1.308 . S
C941 C940 1.373 . S
C941 C942 1.429 . S
C941 H968 0.932 . S
C942 C939 1.358 . S
C942 C941 1.429 . S
C942 H969 0.930 . S
C943 C939 1.332 . S
C943 C944 1.394 . S
C943 H970 0.932 . S
C944 C940 1.308 . S
C944 C943 1.394 . S
C944 H971 0.929 . S
C945 Tb936 2.764 1_655 S
C945 C939 1.504 . S
C945 O957 1.239 . S
C945 O958 1.263 . S
O946 Tb936 2.325 . S
O946 C956 1.236 . S
O947 Tb937 2.322 . S
O947 C956 1.257 . S
O948 Tb937 2.349 1_556 S
O948 C959 1.261 . S
O949 Tb936 2.303 . S
O949 C959 1.257 1_554 S
O950 Tb937 2.415 . S
O950 C966 1.239 . S
O951 Tb937 2.399 1_556 S
O951 C966 1.263 1_556 S
O952 Tb937 2.325 . S
O952 C967 1.236 . S
O953 Tb936 2.322 . S
O953 C967 1.257 . S
O954 Tb936 2.349 . S
O954 C938 1.261 . S
O955 Tb937 2.303 . S
O955 C938 1.257 . S
C956 O946 1.236 . S
C956 O947 1.257 . S
O957 Tb936 2.415 1_655 S
O957 C945 1.239 . S
O958 Tb936 2.399 1_655 S
O958 C945 1.263 . S
C959 O948 1.261 . S
C959 O949 1.257 1_556 S
C960 C963 1.358 1_554 S
C960 C964 1.332 . S
C960 C966 1.504 . S
C961 C962 1.373 1_554 S
C961 C965 1.308 . S
C962 C961 1.373 1_556 S
C962 C963 1.429 . S
C962 H972 0.932 . S
C963 C960 1.358 1_556 S
C963 C962 1.429 . S
C963 H973 0.930 . S
C964 C960 1.332 . S
C964 C965 1.394 . S
C964 H974 0.932 . S
C965 C961 1.308 . S
C965 C964 1.394 . S
C965 H975 0.929 . S
C966 Tb937 2.764 . S
C966 O950 1.239 . S
C966 O951 1.263 1_554 S
C966 C960 1.504 . S
C967 O952 1.236 . S
C967 O953 1.257 . S
H968 C941 0.932 . S
H969 C942 0.930 . S
H970 C943 0.932 . S
H971 C944 0.929 . S
H972 C962 0.932 . S
H973 C963 0.930 . S
H974 C964 0.932 . S
H975 C965 0.929 . S
C976 C977 1.349 . S
C976 C978 1.327 . S
C976 H1001 0.950 . S
C977 C976 1.349 . S
C977 C993 1.349 1_655 S
C978 C976 1.327 . S
C978 C997 1.429 1_655 S
C978 H1002 0.950 . S
C979 C996 1.574 . S
C979 C998 1.368 . S
C979 H1003 0.949 . S
H980 C984 0.949 1_654 S
C981 C982 1.369 . S
C981 C983 1.314 1_554 S
C981 H1004 0.943 1_554 S
C982 C981 1.369 . S
C982 C994 1.349 . S
C983 C981 1.314 1_556 S
C983 C999 1.429 . S
C983 H1005 0.950 . S
C984 H980 0.949 1_456 S
C984 C992 1.561 1_455 S
C984 C1000 1.368 . S
H985 C993 0.950 . S
H986 C991 0.950 . S
H987 C992 0.977 . S
H988 C994 0.950 . S
H989 C995 0.950 . S
H990 C996 0.949 . S
C991 H986 0.950 . S
C991 C993 1.327 . S
C991 C997 1.429 . S
C992 C984 1.561 1_655 S
C992 H987 0.977 . S
C992 C998 1.351 1_655 S
C993 C977 1.349 1_455 S
C993 H985 0.950 . S
C993 C991 1.327 . S
C994 C982 1.349 . S
C994 H988 0.950 . S
C994 C995 1.327 . S
C995 H989 0.950 . S
C995 C994 1.327 . S
C995 C999 1.429 1_554 S
C996 C979 1.574 . S
C996 H990 0.949 . S
C996 C1000 1.368 . S
C997 C978 1.429 1_455 S
C997 C991 1.429 . S
C997 C998 1.523 . S
C998 C979 1.368 . S
C998 C992 1.351 1_455 S
C998 C997 1.523 . S
C999 C983 1.429 . S
C999 C995 1.429 1_556 S
C999 C1000 1.523 . S
C1000 C984 1.368 . S
C1000 C996 1.368 . S
C1000 C999 1.523 . S
H1001 C976 0.950 . S
H1002 C978 0.950 . S
H1003 C979 0.949 . S
H1004 C981 0.943 1_556 S
H1005 C983 0.950 . S
C1006 C1007 1.349 . S
C1006 C1008 1.327 . S
C1006 H1031 0.950 . S
C1007 C1006 1.349 . S
C1007 C1023 1.349 . S
C1008 C1006 1.327 . S
C1008 C1027 1.429 . S
C1008 H1032 0.950 . S
C1009 C1026 1.574 . S
C1009 C1028 1.368 . S
C1009 H1033 0.949 . S
H1010 C1014 0.949 . S
C1011 C1012 1.349 . S
C1011 C1013 1.327 . S
C1011 H1034 0.950 . S
C1012 C1011 1.349 . S
C1012 C1024 1.349 . S
C1013 C1011 1.327 . S
C1013 C1029 1.429 . S
C1013 H1035 0.950 . S
C1014 H1010 0.949 . S
C1014 C1022 1.574 . S
C1014 C1030 1.368 . S
H1015 C1023 0.950 . S
H1016 C1021 0.950 . S
H1017 C1022 0.949 . S
H1018 C1024 0.950 . S
H1019 C1025 0.950 . S
H1020 C1026 0.949 . S
C1021 H1016 0.950 . S
C1021 C1023 1.327 . S
C1021 C1027 1.429 . S
C1022 C1014 1.574 . S
C1022 H1017 0.949 . S
C1022 C1028 1.368 . S
C1023 C1007 1.349 . S
C1023 H1015 0.950 . S
C1023 C1021 1.327 . S
C1024 C1012 1.349 . S
C1024 H1018 0.950 . S
C1024 C1025 1.327 . S
C1025 H1019 0.950 . S
C1025 C1024 1.327 . S
C1025 C1029 1.429 . S
C1026 C1009 1.574 . S
C1026 H1020 0.949 . S
C1026 C1030 1.368 . S
C1027 C1008 1.429 . S
C1027 C1021 1.429 . S
C1027 C1028 1.523 . S
C1028 C1009 1.368 . S
C1028 C1022 1.368 . S
C1028 C1027 1.523 . S
C1029 C1013 1.429 . S
C1029 C1025 1.429 . S
C1029 C1030 1.523 . S
C1030 C1014 1.368 . S
C1030 C1026 1.368 . S
C1030 C1029 1.523 . S
H1031 C1006 0.950 . S
H1032 C1008 0.950 . S
H1033 C1009 0.949 . S
H1034 C1011 0.950 . S
H1035 C1013 0.950 . S
C1036 C1037 1.349 . S
C1036 C1038 1.327 . S
C1036 H1061 0.950 . S
C1037 C1036 1.349 . S
C1037 C1053 1.349 . S
C1038 C1036 1.327 . S
C1038 C1057 1.429 . S
C1038 H1062 0.950 . S
C1039 C1056 1.574 . S
C1039 C1058 1.368 . S
C1039 H1063 0.949 . S
H1040 C1044 0.949 . S
C1041 C1042 1.349 . S
C1041 C1043 1.327 . S
C1041 H1064 0.950 . S
C1042 C1041 1.349 . S
C1042 C1054 1.349 . S
C1043 C1041 1.327 . S
C1043 C1059 1.429 . S
C1043 H1065 0.950 . S
C1044 H1040 0.949 . S
C1044 C1052 1.574 . S
C1044 C1060 1.368 . S
H1045 C1053 0.950 . S
H1046 C1051 0.950 . S
H1047 C1052 0.949 . S
H1048 C1054 0.950 . S
H1049 C1055 0.950 . S
H1050 C1056 0.949 . S
C1051 H1046 0.950 . S
C1051 C1053 1.327 . S
C1051 C1057 1.429 . S
C1052 C1044 1.574 . S
C1052 H1047 0.949 . S
C1052 C1058 1.368 . S
C1053 C1037 1.349 . S
C1053 H1045 0.950 . S
C1053 C1051 1.327 . S
C1054 C1042 1.349 . S
C1054 H1048 0.950 . S
C1054 C1055 1.327 . S
C1055 H1049 0.950 . S
C1055 C1054 1.327 . S
C1055 C1059 1.429 . S
C1056 C1039 1.574 . S
C1056 H1050 0.949 . S
C1056 C1060 1.368 . S
C1057 C1038 1.429 . S
C1057 C1051 1.429 . S
C1057 C1058 1.523 . S
C1058 C1039 1.368 . S
C1058 C1052 1.368 . S
C1058 C1057 1.523 . S
C1059 C1043 1.429 . S
C1059 C1055 1.429 . S
C1059 C1060 1.523 . S
C1060 C1044 1.368 . S
C1060 C1056 1.368 . S
C1060 C1059 1.523 . S
H1061 C1036 0.950 . S
H1062 C1038 0.950 . S
H1063 C1039 0.949 . S
H1064 C1041 0.950 . S
H1065 C1043 0.950 . S
C1066 C1067 1.349 . S
C1066 C1068 1.327 . S
C1066 H1091 0.950 . S
C1067 C1066 1.349 . S
C1067 C1083 1.349 . S
C1068 C1066 1.327 . S
C1068 C1087 1.429 . S
C1068 H1092 0.950 . S
C1069 C1086 1.574 . S
C1069 C1088 1.368 . S
C1069 H1093 0.949 . S
H1070 C1074 0.949 . S
C1071 C1072 1.349 . S
C1071 C1073 1.327 . S
C1071 H1094 0.950 . S
C1072 C1071 1.349 . S
C1072 C1084 1.349 . S
C1073 C1071 1.327 . S
C1073 C1089 1.429 . S
C1073 H1095 0.950 . S
C1074 H1070 0.949 . S
C1074 C1082 1.574 . S
C1074 C1090 1.368 . S
H1075 C1083 0.950 . S
H1076 C1081 0.950 . S
H1077 C1082 0.949 . S
H1078 C1084 0.950 . S
H1079 C1085 0.950 . S
H1080 C1086 0.949 . S
C1081 H1076 0.950 . S
C1081 C1083 1.327 . S
C1081 C1087 1.429 . S
C1082 C1074 1.574 . S
C1082 H1077 0.949 . S
C1082 C1088 1.368 . S
C1083 C1067 1.349 . S
C1083 H1075 0.950 . S
C1083 C1081 1.327 . S
C1084 C1072 1.349 . S
C1084 H1078 0.950 . S
C1084 C1085 1.327 . S
C1085 H1079 0.950 . S
C1085 C1084 1.327 . S
C1085 C1089 1.429 . S
C1086 C1069 1.574 . S
C1086 H1080 0.949 . S
C1086 C1090 1.368 . S
C1087 C1068 1.429 . S
C1087 C1081 1.429 . S
C1087 C1088 1.523 . S
C1088 C1069 1.368 . S
C1088 C1082 1.368 . S
C1088 C1087 1.523 . S
C1089 C1073 1.429 . S
C1089 C1085 1.429 . S
C1089 C1090 1.523 . S
C1090 C1074 1.368 . S
C1090 C1086 1.368 . S
C1090 C1089 1.523 . S
H1091 C1066 0.950 . S
H1092 C1068 0.950 . S
H1093 C1069 0.949 . S
H1094 C1071 0.950 . S
H1095 C1073 0.950 . S
C1096 C1097 1.349 . S
C1096 C1098 1.327 . S
C1096 H1121 0.950 . S
C1097 C1096 1.349 . S
C1097 C1113 1.349 . S
C1098 C1096 1.327 . S
C1098 C1117 1.429 . S
C1098 H1122 0.950 . S
C1099 C1116 1.574 . S
C1099 C1118 1.368 . S
C1099 H1123 0.949 . S
H1100 C1104 0.949 . S
C1101 C1102 1.349 . S
C1101 C1103 1.327 . S
C1101 H1124 0.950 . S
C1102 C1101 1.349 . S
C1102 C1114 1.349 . S
C1103 C1101 1.327 . S
C1103 C1119 1.429 . S
C1103 H1125 0.950 . S
C1104 H1100 0.949 . S
C1104 C1112 1.574 . S
C1104 C1120 1.368 . S
H1105 C1113 0.950 . S
H1106 C1111 0.950 . S
H1107 C1112 0.949 . S
H1108 C1114 0.950 . S
H1109 C1115 0.950 . S
H1110 C1116 0.949 . S
C1111 H1106 0.950 . S
C1111 C1113 1.327 . S
C1111 C1117 1.429 . S
C1112 C1104 1.574 . S
C1112 H1107 0.949 . S
C1112 C1118 1.368 . S
C1113 C1097 1.349 . S
C1113 H1105 0.950 . S
C1113 C1111 1.327 . S
C1114 C1102 1.349 . S
C1114 H1108 0.950 . S
C1114 C1115 1.327 . S
C1115 H1109 0.950 . S
C1115 C1114 1.327 . S
C1115 C1119 1.429 . S
C1116 C1099 1.574 . S
C1116 H1110 0.949 . S
C1116 C1120 1.368 . S
C1117 C1098 1.429 . S
C1117 C1111 1.429 . S
C1117 C1118 1.523 . S
C1118 C1099 1.368 . S
C1118 C1112 1.368 . S
C1118 C1117 1.523 . S
C1119 C1103 1.429 . S
C1119 C1115 1.429 . S
C1119 C1120 1.523 . S
C1120 C1104 1.368 . S
C1120 C1116 1.368 . S
C1120 C1119 1.523 . S
H1121 C1096 0.950 . S
H1122 C1098 0.950 . S
H1123 C1099 0.949 . S
H1124 C1101 0.950 . S
H1125 C1103 0.950 . S
C1126 C1127 1.349 . S
C1126 C1128 1.327 . S
C1126 H1151 0.950 . S
C1127 C1126 1.349 . S
C1127 C1143 1.349 . S
C1128 C1126 1.327 . S
C1128 C1147 1.429 . S
C1128 H1152 0.950 . S
C1129 C1146 1.574 . S
C1129 C1148 1.368 . S
C1129 H1153 0.949 . S
H1130 C1134 0.949 . S
C1131 C1132 1.349 . S
C1131 C1133 1.327 . S
C1131 H1154 0.950 . S
C1132 C1131 1.349 . S
C1132 C1144 1.349 . S
C1133 C1131 1.327 . S
C1133 C1149 1.429 . S
C1133 H1155 0.950 . S
C1134 H1130 0.949 . S
C1134 C1142 1.574 . S
C1134 C1150 1.368 . S
H1135 C1143 0.950 . S
H1136 C1141 0.950 . S
H1137 C1142 0.949 . S
H1138 C1144 0.950 . S
H1139 C1145 0.950 . S
H1140 C1146 0.949 . S
C1141 H1136 0.950 . S
C1141 C1143 1.327 . S
C1141 C1147 1.429 . S
C1142 C1134 1.574 . S
C1142 H1137 0.949 . S
C1142 C1148 1.368 . S
C1143 C1127 1.349 . S
C1143 H1135 0.950 . S
C1143 C1141 1.327 . S
C1144 C1132 1.349 . S
C1144 H1138 0.950 . S
C1144 C1145 1.327 . S
C1145 H1139 0.950 . S
C1145 C1144 1.327 . S
C1145 C1149 1.429 . S
C1146 C1129 1.574 . S
C1146 H1140 0.949 . S
C1146 C1150 1.368 . S
C1147 C1128 1.429 . S
C1147 C1141 1.429 . S
C1147 C1148 1.523 . S
C1148 C1129 1.368 . S
C1148 C1142 1.368 . S
C1148 C1147 1.523 . S
C1149 C1133 1.429 . S
C1149 C1145 1.429 . S
C1149 C1150 1.523 . S
C1150 C1134 1.368 . S
C1150 C1146 1.368 . S
C1150 C1149 1.523 . S
H1151 C1126 0.950 . S
H1152 C1128 0.950 . S
H1153 C1129 0.949 . S
H1154 C1131 0.950 . S
H1155 C1133 0.950 . S
C1156 C1157 1.349 . S
C1156 C1158 1.327 . S
C1156 H1181 0.950 . S
C1157 C1156 1.349 . S
C1157 C1173 1.349 . S
C1158 C1156 1.327 . S
C1158 C1177 1.429 . S
C1158 H1182 0.950 . S
C1159 C1176 1.574 . S
C1159 C1178 1.368 . S
C1159 H1183 0.949 . S
H1160 C1164 0.949 . S
C1161 C1162 1.349 . S
C1161 C1163 1.327 . S
C1161 H1184 0.950 . S
C1162 C1161 1.349 . S
C1162 C1174 1.349 . S
C1163 C1161 1.327 . S
C1163 C1179 1.429 . S
C1163 H1185 0.950 . S
C1164 H1160 0.949 . S
C1164 C1172 1.574 . S
C1164 C1180 1.368 . S
H1165 C1173 0.950 . S
H1166 C1171 0.950 . S
H1167 C1172 0.949 . S
H1168 C1174 0.950 . S
H1169 C1175 0.950 . S
H1170 C1176 0.949 . S
C1171 H1166 0.950 . S
C1171 C1173 1.327 . S
C1171 C1177 1.429 . S
C1172 C1164 1.574 . S
C1172 H1167 0.949 . S
C1172 C1178 1.368 . S
C1173 C1157 1.349 . S
C1173 H1165 0.950 . S
C1173 C1171 1.327 . S
C1174 C1162 1.349 . S
C1174 H1168 0.950 . S
C1174 C1175 1.327 . S
C1175 H1169 0.950 . S
C1175 C1174 1.327 . S
C1175 C1179 1.429 . S
C1176 C1159 1.574 . S
C1176 H1170 0.949 . S
C1176 C1180 1.368 . S
C1177 C1158 1.429 . S
C1177 C1171 1.429 . S
C1177 C1178 1.523 . S
C1178 C1159 1.368 . S
C1178 C1172 1.368 . S
C1178 C1177 1.523 . S
C1179 C1163 1.429 . S
C1179 C1175 1.429 . S
C1179 C1180 1.523 . S
C1180 C1164 1.368 . S
C1180 C1176 1.368 . S
C1180 C1179 1.523 . S
H1181 C1156 0.950 . S
H1182 C1158 0.950 . S
H1183 C1159 0.949 . S
H1184 C1161 0.950 . S
H1185 C1163 0.950 . S
C1186 C1187 1.349 . S
C1186 C1188 1.327 . S
C1186 H1211 0.950 . S
C1187 C1186 1.349 . S
C1187 C1203 1.349 . S
C1188 C1186 1.327 . S
C1188 C1207 1.429 . S
C1188 H1212 0.950 . S
C1189 C1206 1.574 . S
C1189 C1208 1.368 . S
C1189 H1213 0.949 . S
H1190 C1194 0.949 . S
C1191 C1192 1.349 . S
C1191 C1193 1.327 . S
C1191 H1214 0.950 . S
C1192 C1191 1.349 . S
C1192 C1204 1.349 . S
C1193 C1191 1.327 . S
C1193 C1209 1.429 . S
C1193 H1215 0.950 . S
C1194 H1190 0.949 . S
C1194 C1202 1.574 . S
C1194 C1210 1.368 . S
H1195 C1203 0.950 . S
H1196 C1201 0.950 . S
H1197 C1202 0.949 . S
H1198 C1204 0.950 . S
H1199 C1205 0.950 . S
H1200 C1206 0.949 . S
C1201 H1196 0.950 . S
C1201 C1203 1.327 . S
C1201 C1207 1.429 . S
C1202 C1194 1.574 . S
C1202 H1197 0.949 . S
C1202 C1208 1.368 . S
C1203 C1187 1.349 . S
C1203 H1195 0.950 . S
C1203 C1201 1.327 . S
C1204 C1192 1.349 . S
C1204 H1198 0.950 . S
C1204 C1205 1.327 . S
C1205 H1199 0.950 . S
C1205 C1204 1.327 . S
C1205 C1209 1.429 . S
C1206 C1189 1.574 . S
C1206 H1200 0.949 . S
C1206 C1210 1.368 . S
C1207 C1188 1.429 . S
C1207 C1201 1.429 . S
C1207 C1208 1.523 . S
C1208 C1189 1.368 . S
C1208 C1202 1.368 . S
C1208 C1207 1.523 . S
C1209 C1193 1.429 . S
C1209 C1205 1.429 . S
C1209 C1210 1.523 . S
C1210 C1194 1.368 . S
C1210 C1206 1.368 . S
C1210 C1209 1.523 . S
H1211 C1186 0.950 . S
H1212 C1188 0.950 . S
H1213 C1189 0.949 . S
H1214 C1191 0.950 . S
H1215 C1193 0.950 . S
C1216 C1217 1.349 1_565 S
C1216 C1218 1.328 . S
C1216 H1241 0.950 . S
C1217 C1216 1.349 1_545 S
C1217 C1233 1.349 . S
C1218 C1216 1.328 . S
C1218 C1237 1.399 1_565 S
C1218 H1242 0.980 . S
C1219 C1236 1.574 . S
C1219 C1238 1.368 . S
C1219 H1243 0.949 . S
H1220 C1224 0.949 1_565 S
C1221 C1222 1.349 . S
C1221 C1223 1.327 . S
C1221 H1244 0.950 . S
C1222 C1221 1.349 . S
C1222 C1234 1.349 . S
C1223 C1221 1.327 . S
C1223 C1239 1.429 . S
C1223 H1245 0.950 . S
C1224 H1220 0.949 1_545 S
C1224 C1232 1.574 . S
C1224 C1240 1.368 . S
H1225 C1233 0.950 . S
H1226 C1231 0.950 . S
H1227 C1232 0.949 1_565 S
H1228 C1234 0.950 . S
H1229 C1235 0.956 1_655 S
H1230 C1236 0.949 . S
C1231 H1226 0.950 . S
C1231 C1233 1.327 . S
C1231 C1237 1.429 . S
C1232 C1224 1.574 . S
C1232 H1227 0.949 1_545 S
C1232 C1238 1.368 . S
C1233 C1217 1.349 . S
C1233 H1225 0.950 . S
C1233 C1231 1.327 . S
C1234 C1222 1.349 . S
C1234 H1228 0.950 . S
C1234 C1235 1.327 . S
C1235 H1229 0.956 1_455 S
C1235 C1234 1.327 . S
C1235 C1239 1.429 . S
C1236 C1219 1.574 . S
C1236 H1230 0.949 . S
C1236 C1240 1.368 . S
C1237 C1218 1.399 1_545 S
C1237 C1231 1.429 . S
C1237 C1238 1.523 . S
C1238 C1219 1.368 . S
C1238 C1232 1.368 . S
C1238 C1237 1.523 . S
C1239 C1223 1.429 . S
C1239 C1235 1.429 . S
C1239 C1240 1.523 1_455 S
C1240 C1224 1.368 . S
C1240 C1236 1.368 . S
C1240 C1239 1.523 1_655 S
H1241 C1216 0.950 . S
H1242 C1218 0.980 . S
H1243 C1219 0.949 . S
H1244 C1221 0.950 . S
H1245 C1223 0.950 . S
C1246 C1247 1.349 . S
C1246 C1248 1.327 . S
C1246 H1271 0.950 . S
C1247 C1246 1.349 . S
C1247 C1263 1.349 . S
C1248 C1246 1.327 . S
C1248 C1267 1.429 . S
C1248 H1272 0.950 . S
C1249 C1266 1.574 . S
C1249 C1268 1.368 . S
C1249 H1273 0.949 . S
H1250 C1254 0.949 . S
C1251 C1252 1.349 . S
C1251 C1253 1.327 . S
C1251 H1274 0.950 . S
C1252 C1251 1.349 . S
C1252 C1264 1.349 . S
C1253 C1251 1.327 . S
C1253 C1269 1.429 . S
C1253 H1275 0.950 . S
C1254 H1250 0.949 . S
C1254 C1262 1.574 . S
C1254 C1270 1.368 . S
H1255 C1263 0.950 . S
H1256 C1261 0.950 . S
H1257 C1262 0.949 . S
H1258 C1264 0.950 . S
H1259 C1265 0.950 . S
H1260 C1266 0.949 . S
C1261 H1256 0.950 . S
C1261 C1263 1.327 . S
C1261 C1267 1.429 . S
C1262 C1254 1.574 . S
C1262 H1257 0.949 . S
C1262 C1268 1.368 . S
C1263 C1247 1.349 . S
C1263 H1255 0.950 . S
C1263 C1261 1.327 . S
C1264 C1252 1.349 . S
C1264 H1258 0.950 . S
C1264 C1265 1.327 . S
C1265 H1259 0.950 . S
C1265 C1264 1.327 . S
C1265 C1269 1.429 . S
C1266 C1249 1.574 . S
C1266 H1260 0.949 . S
C1266 C1270 1.368 . S
C1267 C1248 1.429 . S
C1267 C1261 1.429 . S
C1267 C1268 1.523 . S
C1268 C1249 1.368 . S
C1268 C1262 1.368 . S
C1268 C1267 1.523 . S
C1269 C1253 1.429 . S
C1269 C1265 1.429 . S
C1269 C1270 1.523 . S
C1270 C1254 1.368 . S
C1270 C1266 1.368 . S
C1270 C1269 1.523 . S
H1271 C1246 0.950 . S
H1272 C1248 0.950 . S
H1273 C1249 0.949 . S
H1274 C1251 0.950 . S
H1275 C1253 0.950 . S
C1276 C1277 1.349 . S
C1276 C1278 1.327 . S
C1276 H1301 0.950 . S
C1277 C1276 1.349 . S
C1277 C1293 1.349 . S
C1278 C1276 1.327 . S
C1278 C1297 1.429 . S
C1278 H1302 0.950 . S
C1279 C1296 1.577 . S
C1279 C1298 1.385 . S
C1279 H1303 0.930 1_545 S
H1280 C1284 0.949 . S
C1281 C1282 1.384 . S
C1281 C1283 1.324 . S
C1281 H1304 0.925 1_545 S
C1282 C1281 1.384 . S
C1282 C1294 1.349 . S
C1283 C1281 1.324 . S
C1283 C1299 1.447 . S
C1283 H1305 0.924 1_545 S
C1284 H1280 0.949 . S
C1284 C1292 1.574 . S
C1284 C1300 1.368 . S
H1285 C1293 0.950 1_565 S
H1286 C1291 0.950 1_565 S
H1287 C1292 0.949 . S
H1288 C1294 0.950 . S
H1289 C1295 0.950 . S
H1290 C1296 0.945 1_565 S
C1291 H1286 0.950 1_545 S
C1291 C1293 1.327 . S
C1291 C1297 1.429 . S
C1292 C1284 1.574 . S
C1292 H1287 0.949 . S
C1292 C1298 1.368 . S
C1293 C1277 1.349 . S
C1293 H1285 0.950 1_545 S
C1293 C1291 1.327 . S
C1294 C1282 1.349 . S
C1294 H1288 0.950 . S
C1294 C1295 1.327 . S
C1295 H1289 0.950 . S
C1295 C1294 1.327 . S
C1295 C1299 1.429 . S
C1296 C1279 1.577 . S
C1296 H1290 0.945 1_545 S
C1296 C1300 1.375 . S
C1297 C1278 1.429 . S
C1297 C1291 1.429 . S
C1297 C1298 1.523 . S
C1298 C1279 1.385 . S
C1298 C1292 1.368 . S
C1298 C1297 1.523 . S
C1299 C1283 1.447 . S
C1299 C1295 1.429 . S
C1299 C1300 1.523 . S
C1300 C1284 1.368 . S
C1300 C1296 1.375 . S
C1300 C1299 1.523 . S
H1301 C1276 0.950 . S
H1302 C1278 0.950 . S
H1303 C1279 0.930 1_565 S
H1304 C1281 0.925 1_565 S
H1305 C1283 0.924 1_565 S
C1306 C1307 1.349 . S
C1306 C1308 1.327 . S
C1306 H1331 0.950 . S
C1307 C1306 1.349 . S
C1307 C1323 1.349 . S
C1308 C1306 1.327 . S
C1308 C1327 1.429 . S
C1308 H1332 0.950 . S
C1309 C1326 1.574 . S
C1309 C1328 1.368 . S
C1309 H1333 0.949 . S
H1310 C1314 0.949 . S
C1311 C1312 1.349 . S
C1311 C1313 1.327 . S
C1311 H1334 0.950 . S
C1312 C1311 1.349 . S
C1312 C1324 1.349 . S
C1313 C1311 1.327 . S
C1313 C1329 1.429 . S
C1313 H1335 0.950 . S
C1314 H1310 0.949 . S
C1314 C1322 1.574 . S
C1314 C1330 1.368 . S
H1315 C1323 0.950 . S
H1316 C1321 0.950 . S
H1317 C1322 0.949 . S
H1318 C1324 0.950 . S
H1319 C1325 0.950 . S
H1320 C1326 0.949 . S
C1321 H1316 0.950 . S
C1321 C1323 1.327 . S
C1321 C1327 1.429 . S
C1322 C1314 1.574 . S
C1322 H1317 0.949 . S
C1322 C1328 1.368 . S
C1323 C1307 1.349 . S
C1323 H1315 0.950 . S
C1323 C1321 1.327 . S
C1324 C1312 1.349 . S
C1324 H1318 0.950 . S
C1324 C1325 1.327 . S
C1325 H1319 0.950 . S
C1325 C1324 1.327 . S
C1325 C1329 1.429 . S
C1326 C1309 1.574 . S
C1326 H1320 0.949 . S
C1326 C1330 1.368 . S
C1327 C1308 1.429 . S
C1327 C1321 1.429 . S
C1327 C1328 1.523 . S
C1328 C1309 1.368 . S
C1328 C1322 1.368 . S
C1328 C1327 1.523 . S
C1329 C1313 1.429 . S
C1329 C1325 1.429 . S
C1329 C1330 1.523 . S
C1330 C1314 1.368 . S
C1330 C1326 1.368 . S
C1330 C1329 1.523 . S
H1331 C1306 0.950 . S
H1332 C1308 0.950 . S
H1333 C1309 0.949 . S
H1334 C1311 0.950 . S
H1335 C1313 0.950 . S
C1336 C1337 1.349 . S
C1336 C1338 1.327 . S
C1336 H1361 0.950 . S
C1337 C1336 1.349 . S
C1337 C1353 1.349 . S
C1338 C1336 1.327 . S
C1338 C1357 1.429 . S
C1338 H1362 0.950 . S
C1339 C1356 1.562 . S
C1339 C1358 1.366 1_565 S
C1339 H1363 0.950 . S
H1340 C1344 0.949 . S
C1341 C1342 1.349 1_565 S
C1341 C1343 1.299 1_455 S
C1341 H1364 0.950 . S
C1342 C1341 1.349 1_545 S
C1342 C1354 1.349 1_455 S
C1343 C1341 1.299 1_655 S
C1343 C1359 1.480 1_565 S
C1343 H1365 0.925 1_655 S
C1344 H1340 0.949 . S
C1344 C1352 1.574 . S
C1344 C1360 1.368 . S
H1345 C1353 0.950 1_565 S
H1346 C1351 0.950 1_565 S
H1347 C1352 0.949 . S
H1348 C1354 0.950 . S
H1349 C1355 0.950 . S
H1350 C1356 0.995 . S
C1351 H1346 0.950 1_545 S
C1351 C1353 1.327 . S
C1351 C1357 1.429 . S
C1352 C1344 1.574 . S
C1352 H1347 0.949 . S
C1352 C1358 1.368 . S
C1353 C1337 1.349 . S
C1353 H1345 0.950 1_545 S
C1353 C1351 1.327 . S
C1354 C1342 1.349 1_655 S
C1354 H1348 0.950 . S
C1354 C1355 1.327 . S
C1355 H1349 0.950 . S
C1355 C1354 1.327 . S
C1355 C1359 1.429 . S
C1356 C1339 1.562 . S
C1356 H1350 0.995 . S
C1356 C1360 1.332 1_565 S
C1357 C1338 1.429 . S
C1357 C1351 1.429 . S
C1357 C1358 1.523 . S
C1358 C1339 1.366 1_545 S
C1358 C1352 1.368 . S
C1358 C1357 1.523 . S
C1359 C1343 1.480 1_545 S
C1359 C1355 1.429 . S
C1359 C1360 1.523 . S
C1360 C1344 1.368 . S
C1360 C1356 1.332 1_545 S
C1360 C1359 1.523 . S
H1361 C1336 0.950 . S
H1362 C1338 0.950 . S
H1363 C1339 0.950 . S
H1364 C1341 0.950 . S
H1365 C1343 0.925 1_455 S
C1366 C1367 1.349 . S
C1366 C1368 1.327 . S
C1366 H1391 0.950 . S
C1367 C1366 1.349 . S
C1367 C1383 1.349 . S
C1368 C1366 1.327 . S
C1368 C1387 1.429 . S
C1368 H1392 0.950 . S
C1369 C1386 1.574 . S
C1369 C1388 1.368 . S
C1369 H1393 0.949 . S
H1370 C1374 0.949 . S
C1371 C1372 1.349 . S
C1371 C1373 1.327 . S
C1371 H1394 0.950 . S
C1372 C1371 1.349 . S
C1372 C1384 1.349 . S
C1373 C1371 1.327 . S
C1373 C1389 1.429 . S
C1373 H1395 0.950 . S
C1374 H1370 0.949 . S
C1374 C1382 1.574 . S
C1374 C1390 1.368 . S
H1375 C1383 0.950 . S
H1376 C1381 0.950 . S
H1377 C1382 0.949 . S
H1378 C1384 0.950 . S
H1379 C1385 0.950 . S
H1380 C1386 0.949 . S
C1381 H1376 0.950 . S
C1381 C1383 1.327 . S
C1381 C1387 1.429 . S
C1382 C1374 1.574 . S
C1382 H1377 0.949 . S
C1382 C1388 1.368 . S
C1383 C1367 1.349 . S
C1383 H1375 0.950 . S
C1383 C1381 1.327 . S
C1384 C1372 1.349 . S
C1384 H1378 0.950 . S
C1384 C1385 1.327 . S
C1385 H1379 0.950 . S
C1385 C1384 1.327 . S
C1385 C1389 1.429 . S
C1386 C1369 1.574 . S
C1386 H1380 0.949 . S
C1386 C1390 1.368 . S
C1387 C1368 1.429 . S
C1387 C1381 1.429 . S
C1387 C1388 1.523 . S
C1388 C1369 1.368 . S
C1388 C1382 1.368 . S
C1388 C1387 1.523 . S
C1389 C1373 1.429 . S
C1389 C1385 1.429 . S
C1389 C1390 1.523 . S
C1390 C1374 1.368 . S
C1390 C1386 1.368 . S
C1390 C1389 1.523 . S
H1391 C1366 0.950 . S
H1392 C1368 0.950 . S
H1393 C1369 0.949 . S
H1394 C1371 0.950 . S
H1395 C1373 0.950 . S
C1396 C1397 1.349 . S
C1396 C1398 1.327 . S
C1396 H1421 0.950 . S
C1397 C1396 1.349 . S
C1397 C1413 1.349 . S
C1398 C1396 1.327 . S
C1398 C1417 1.429 . S
C1398 H1422 0.950 . S
C1399 C1416 1.574 . S
C1399 C1418 1.368 . S
C1399 H1423 0.949 . S
H1400 C1404 0.949 . S
C1401 C1402 1.349 . S
C1401 C1403 1.327 . S
C1401 H1424 0.950 . S
C1402 C1401 1.349 . S
C1402 C1414 1.349 . S
C1403 C1401 1.327 . S
C1403 C1419 1.429 . S
C1403 H1425 0.950 . S
C1404 H1400 0.949 . S
C1404 C1412 1.574 . S
C1404 C1420 1.368 . S
H1405 C1413 0.950 . S
H1406 C1411 0.950 . S
H1407 C1412 0.949 . S
H1408 C1414 0.950 . S
H1409 C1415 0.950 . S
H1410 C1416 0.949 . S
C1411 H1406 0.950 . S
C1411 C1413 1.327 . S
C1411 C1417 1.429 . S
C1412 C1404 1.574 . S
C1412 H1407 0.949 . S
C1412 C1418 1.368 . S
C1413 C1397 1.349 . S
C1413 H1405 0.950 . S
C1413 C1411 1.327 . S
C1414 C1402 1.349 . S
C1414 H1408 0.950 . S
C1414 C1415 1.327 . S
C1415 H1409 0.950 . S
C1415 C1414 1.327 . S
C1415 C1419 1.429 . S
C1416 C1399 1.574 . S
C1416 H1410 0.949 . S
C1416 C1420 1.368 . S
C1417 C1398 1.429 . S
C1417 C1411 1.429 . S
C1417 C1418 1.523 . S
C1418 C1399 1.368 . S
C1418 C1412 1.368 . S
C1418 C1417 1.523 . S
C1419 C1403 1.429 . S
C1419 C1415 1.429 . S
C1419 C1420 1.523 . S
C1420 C1404 1.368 . S
C1420 C1416 1.368 . S
C1420 C1419 1.523 . S
H1421 C1396 0.950 . S
H1422 C1398 0.950 . S
H1423 C1399 0.949 . S
H1424 C1401 0.950 . S
H1425 C1403 0.950 . S
C1426 C1427 1.349 . S
C1426 C1428 1.327 . S
C1426 H1451 0.950 . S
C1427 C1426 1.349 . S
C1427 C1443 1.349 . S
C1428 C1426 1.327 . S
C1428 C1447 1.429 . S
C1428 H1452 0.950 . S
C1429 C1446 1.574 . S
C1429 C1448 1.368 . S
C1429 H1453 0.949 . S
H1430 C1434 0.949 . S
C1431 C1432 1.349 . S
C1431 C1433 1.327 . S
C1431 H1454 0.950 . S
C1432 C1431 1.349 . S
C1432 C1444 1.349 . S
C1433 C1431 1.327 . S
C1433 C1449 1.429 . S
C1433 H1455 0.950 . S
C1434 H1430 0.949 . S
C1434 C1442 1.574 . S
C1434 C1450 1.368 . S
H1435 C1443 0.950 . S
H1436 C1441 0.950 . S
H1437 C1442 0.949 . S
H1438 C1444 0.950 . S
H1439 C1445 0.950 . S
H1440 C1446 0.949 . S
C1441 H1436 0.950 . S
C1441 C1443 1.327 . S
C1441 C1447 1.429 . S
C1442 C1434 1.574 . S
C1442 H1437 0.949 . S
C1442 C1448 1.368 . S
C1443 C1427 1.349 . S
C1443 H1435 0.950 . S
C1443 C1441 1.327 . S
C1444 C1432 1.349 . S
C1444 H1438 0.950 . S
C1444 C1445 1.327 . S
C1445 H1439 0.950 . S
C1445 C1444 1.327 . S
C1445 C1449 1.429 . S
C1446 C1429 1.574 . S
C1446 H1440 0.949 . S
C1446 C1450 1.368 . S
C1447 C1428 1.429 . S
C1447 C1441 1.429 . S
C1447 C1448 1.523 . S
C1448 C1429 1.368 . S
C1448 C1442 1.368 . S
C1448 C1447 1.523 . S
C1449 C1433 1.429 . S
C1449 C1445 1.429 . S
C1449 C1450 1.523 . S
C1450 C1434 1.368 . S
C1450 C1446 1.368 . S
C1450 C1449 1.523 . S
H1451 C1426 0.950 . S
H1452 C1428 0.950 . S
H1453 C1429 0.949 . S
H1454 C1431 0.950 . S
H1455 C1433 0.950 . S
C1456 C1457 1.349 . S
C1456 C1458 1.327 . S
C1456 H1481 0.950 . S
C1457 C1456 1.349 . S
C1457 C1473 1.349 1_554 S
C1458 C1456 1.327 . S
C1458 C1477 1.429 . S
C1458 H1482 0.950 . S
C1459 C1476 1.574 . S
C1459 C1478 1.368 . S
C1459 H1483 0.949 . S
H1460 C1464 0.949 . S
C1461 C1462 1.349 . S
C1461 C1463 1.327 . S
C1461 H1484 0.950 . S
C1462 C1461 1.349 . S
C1462 C1474 1.349 1_545 S
C1463 C1461 1.327 . S
C1463 C1479 1.429 1_545 S
C1463 H1485 0.950 . S
C1464 H1460 0.949 . S
C1464 C1472 1.574 . S
C1464 C1480 1.368 . S
H1465 C1473 0.950 . S
H1466 C1471 0.950 1_556 S
H1467 C1472 0.949 . S
H1468 C1474 0.950 . S
H1469 C1475 0.950 . S
H1470 C1476 0.949 1_545 S
C1471 H1466 0.950 1_554 S
C1471 C1473 1.327 1_554 S
C1471 C1477 1.429 . S
C1472 C1464 1.574 . S
C1472 H1467 0.949 . S
C1472 C1478 1.368 . S
C1473 C1457 1.349 1_556 S
C1473 H1465 0.950 . S
C1473 C1471 1.327 1_556 S
C1474 C1462 1.349 1_565 S
C1474 H1468 0.950 . S
C1474 C1475 1.327 . S
C1475 H1469 0.950 . S
C1475 C1474 1.327 . S
C1475 C1479 1.429 . S
C1476 C1459 1.574 . S
C1476 H1470 0.949 1_565 S
C1476 C1480 1.368 . S
C1477 C1458 1.429 . S
C1477 C1471 1.429 . S
C1477 C1478 1.523 . S
C1478 C1459 1.368 . S
C1478 C1472 1.368 . S
C1478 C1477 1.523 . S
C1479 C1463 1.429 1_565 S
C1479 C1475 1.429 . S
C1479 C1480 1.523 . S
C1480 C1464 1.368 . S
C1480 C1476 1.368 . S
C1480 C1479 1.523 . S
H1481 C1456 0.950 . S
H1482 C1458 0.950 . S
H1483 C1459 0.949 . S
H1484 C1461 0.950 . S
H1485 C1463 0.950 . S
C1486 C1487 1.349 . S
C1486 C1488 1.327 . S
C1486 H1511 0.950 . S
C1487 C1486 1.349 . S
C1487 C1503 1.349 . S
C1488 C1486 1.327 . S
C1488 C1507 1.429 . S
C1488 H1512 0.950 . S
C1489 C1506 1.574 . S
C1489 C1508 1.368 . S
C1489 H1513 0.949 1_554 S
H1490 C1494 0.949 . S
C1491 C1492 1.349 . S
C1491 C1493 1.327 . S
C1491 H1514 0.950 1_554 S
C1492 C1491 1.349 . S
C1492 C1504 1.349 . S
C1493 C1491 1.327 . S
C1493 C1509 1.429 . S
C1493 H1515 0.950 1_554 S
C1494 H1490 0.949 . S
C1494 C1502 1.574 . S
C1494 C1510 1.368 . S
H1495 C1503 0.950 1_556 S
H1496 C1501 0.950 1_556 S
H1497 C1502 0.949 . S
H1498 C1504 0.950 . S
H1499 C1505 0.950 . S
H1500 C1506 0.949 1_556 S
C1501 H1496 0.950 1_554 S
C1501 C1503 1.327 . S
C1501 C1507 1.429 . S
C1502 C1494 1.574 . S
C1502 H1497 0.949 . S
C1502 C1508 1.368 . S
C1503 C1487 1.349 . S
C1503 H1495 0.950 1_554 S
C1503 C1501 1.327 . S
C1504 C1492 1.349 . S
C1504 H1498 0.950 . S
C1504 C1505 1.327 . S
C1505 H1499 0.950 . S
C1505 C1504 1.327 . S
C1505 C1509 1.429 . S
C1506 C1489 1.574 . S
C1506 H1500 0.949 1_554 S
C1506 C1510 1.368 . S
C1507 C1488 1.429 . S
C1507 C1501 1.429 . S
C1507 C1508 1.523 . S
C1508 C1489 1.368 . S
C1508 C1502 1.368 . S
C1508 C1507 1.523 . S
C1509 C1493 1.429 . S
C1509 C1505 1.429 . S
C1509 C1510 1.523 . S
C1510 C1494 1.368 . S
C1510 C1506 1.368 . S
C1510 C1509 1.523 . S
H1511 C1486 0.950 . S
H1512 C1488 0.950 . S
H1513 C1489 0.949 1_556 S
H1514 C1491 0.950 1_556 S
H1515 C1493 0.950 1_556 S
C1516 C1517 1.349 . S
C1516 C1518 1.327 . S
C1516 H1541 0.950 . S
C1517 C1516 1.349 . S
C1517 C1533 1.349 . S
C1518 C1516 1.327 . S
C1518 C1537 1.429 . S
C1518 H1542 0.950 . S
C1519 C1536 1.574 . S
C1519 C1538 1.368 . S
C1519 H1543 0.949 . S
H1520 C1524 0.949 . S
C1521 C1522 1.349 . S
C1521 C1523 1.327 . S
C1521 H1544 0.950 . S
C1522 C1521 1.349 . S
C1522 C1534 1.349 . S
C1523 C1521 1.327 . S
C1523 C1539 1.429 . S
C1523 H1545 0.950 . S
C1524 H1520 0.949 . S
C1524 C1532 1.574 . S
C1524 C1540 1.368 . S
H1525 C1533 0.950 . S
H1526 C1531 0.950 . S
H1527 C1532 0.949 . S
H1528 C1534 0.950 . S
H1529 C1535 0.950 . S
H1530 C1536 0.949 . S
C1531 H1526 0.950 . S
C1531 C1533 1.327 . S
C1531 C1537 1.429 . S
C1532 C1524 1.574 . S
C1532 H1527 0.949 . S
C1532 C1538 1.368 . S
C1533 C1517 1.349 . S
C1533 H1525 0.950 . S
C1533 C1531 1.327 . S
C1534 C1522 1.349 . S
C1534 H1528 0.950 . S
C1534 C1535 1.327 . S
C1535 H1529 0.950 . S
C1535 C1534 1.327 . S
C1535 C1539 1.429 . S
C1536 C1519 1.574 . S
C1536 H1530 0.949 . S
C1536 C1540 1.368 . S
C1537 C1518 1.429 . S
C1537 C1531 1.429 . S
C1537 C1538 1.523 . S
C1538 C1519 1.368 . S
C1538 C1532 1.368 . S
C1538 C1537 1.523 . S
C1539 C1523 1.429 . S
C1539 C1535 1.429 . S
C1539 C1540 1.523 . S
C1540 C1524 1.368 . S
C1540 C1536 1.368 . S
C1540 C1539 1.523 . S
H1541 C1516 0.950 . S
H1542 C1518 0.950 . S
H1543 C1519 0.949 . S
H1544 C1521 0.950 . S
H1545 C1523 0.950 . S
C1546 C1547 1.349 . S
C1546 C1548 1.327 . S
C1546 H1571 0.950 . S
C1547 C1546 1.349 . S
C1547 C1563 1.349 . S
C1548 C1546 1.327 . S
C1548 C1567 1.429 . S
C1548 H1572 0.950 . S
C1549 C1566 1.574 . S
C1549 C1568 1.368 . S
C1549 H1573 0.949 . S
H1550 C1554 0.949 . S
C1551 C1552 1.364 . S
C1551 C1553 1.327 . S
C1551 H1574 0.965 . S
C1552 C1551 1.364 . S
C1552 C1564 1.390 . S
C1553 C1551 1.327 . S
C1553 C1569 1.429 . S
C1553 H1575 0.950 . S
C1554 H1550 0.949 . S
C1554 C1562 1.574 . S
C1554 C1570 1.368 . S
H1555 C1563 0.950 . S
H1556 C1561 0.950 . S
H1557 C1562 0.949 . S
H1558 C1564 0.950 . S
H1559 C1565 0.950 . S
H1560 C1566 0.949 . S
C1561 H1556 0.950 . S
C1561 C1563 1.327 . S
C1561 C1567 1.429 . S
C1562 C1554 1.574 . S
C1562 H1557 0.949 . S
C1562 C1568 1.368 . S
C1563 C1547 1.349 . S
C1563 H1555 0.950 . S
C1563 C1561 1.327 . S
C1564 C1552 1.390 . S
C1564 H1558 0.950 . S
C1564 C1565 1.327 . S
C1565 H1559 0.950 . S
C1565 C1564 1.327 . S
C1565 C1569 1.429 . S
C1566 C1549 1.574 . S
C1566 H1560 0.949 . S
C1566 C1570 1.368 . S
C1567 C1548 1.429 . S
C1567 C1561 1.429 . S
C1567 C1568 1.523 . S
C1568 C1549 1.368 . S
C1568 C1562 1.368 . S
C1568 C1567 1.523 . S
C1569 C1553 1.429 . S
C1569 C1565 1.429 . S
C1569 C1570 1.523 . S
C1570 C1554 1.368 . S
C1570 C1566 1.368 . S
C1570 C1569 1.523 . S
H1571 C1546 0.950 . S
H1572 C1548 0.950 . S
H1573 C1549 0.949 . S
H1574 C1551 0.965 . S
H1575 C1553 0.950 . S
C1576 C1577 1.349 . S
C1576 C1578 1.327 . S
C1576 H1601 0.950 . S
C1577 C1576 1.349 . S
C1577 C1593 1.349 . S
C1578 C1576 1.327 . S
C1578 C1597 1.429 . S
C1578 H1602 0.950 . S
C1579 C1596 1.574 . S
C1579 C1598 1.368 . S
C1579 H1603 0.949 . S
H1580 C1584 0.949 . S
C1581 C1582 1.349 . S
C1581 C1583 1.327 . S
C1581 H1604 0.950 . S
C1582 C1581 1.349 . S
C1582 C1594 1.349 . S
C1583 C1581 1.327 . S
C1583 C1599 1.429 . S
C1583 H1605 0.950 . S
C1584 H1580 0.949 . S
C1584 C1592 1.574 . S
C1584 C1600 1.368 . S
H1585 C1593 0.950 . S
H1586 C1591 0.950 . S
H1587 C1592 0.949 . S
H1588 C1594 0.950 . S
H1589 C1595 0.950 . S
H1590 C1596 0.949 . S
C1591 H1586 0.950 . S
C1591 C1593 1.327 . S
C1591 C1597 1.429 . S
C1592 C1584 1.574 . S
C1592 H1587 0.949 . S
C1592 C1598 1.368 . S
C1593 C1577 1.349 . S
C1593 H1585 0.950 . S
C1593 C1591 1.327 . S
C1594 C1582 1.349 . S
C1594 H1588 0.950 . S
C1594 C1595 1.327 . S
C1595 H1589 0.950 . S
C1595 C1594 1.327 . S
C1595 C1599 1.429 . S
C1596 C1579 1.574 . S
C1596 H1590 0.949 . S
C1596 C1600 1.368 . S
C1597 C1578 1.429 . S
C1597 C1591 1.429 . S
C1597 C1598 1.523 . S
C1598 C1579 1.368 . S
C1598 C1592 1.368 . S
C1598 C1597 1.523 . S
C1599 C1583 1.429 . S
C1599 C1595 1.429 . S
C1599 C1600 1.523 . S
C1600 C1584 1.368 . S
C1600 C1596 1.368 . S
C1600 C1599 1.523 . S
H1601 C1576 0.950 . S
H1602 C1578 0.950 . S
H1603 C1579 0.949 . S
H1604 C1581 0.950 . S
H1605 C1583 0.950 . S
C1606 C1607 1.349 . S
C1606 C1608 1.327 . S
C1606 H1631 0.950 . S
C1607 C1606 1.349 . S
C1607 C1623 1.349 . S
C1608 C1606 1.327 . S
C1608 C1627 1.429 . S
C1608 H1632 0.950 . S
C1609 C1626 1.574 . S
C1609 C1628 1.368 . S
C1609 H1633 0.949 . S
H1610 C1614 0.949 . S
C1611 C1612 1.349 . S
C1611 C1613 1.327 . S
C1611 H1634 0.950 . S
C1612 C1611 1.349 . S
C1612 C1624 1.349 . S
C1613 C1611 1.327 . S
C1613 C1629 1.429 . S
C1613 H1635 0.950 . S
C1614 H1610 0.949 . S
C1614 C1622 1.574 . S
C1614 C1630 1.368 . S
H1615 C1623 0.950 . S
H1616 C1621 0.950 . S
H1617 C1622 0.949 . S
H1618 C1624 0.950 . S
H1619 C1625 0.950 . S
H1620 C1626 0.949 . S
C1621 H1616 0.950 . S
C1621 C1623 1.327 . S
C1621 C1627 1.429 . S
C1622 C1614 1.574 . S
C1622 H1617 0.949 . S
C1622 C1628 1.368 . S
C1623 C1607 1.349 . S
C1623 H1615 0.950 . S
C1623 C1621 1.327 . S
C1624 C1612 1.349 . S
C1624 H1618 0.950 . S
C1624 C1625 1.327 . S
C1625 H1619 0.950 . S
C1625 C1624 1.327 . S
C1625 C1629 1.429 . S
C1626 C1609 1.574 . S
C1626 H1620 0.949 . S
C1626 C1630 1.368 . S
C1627 C1608 1.429 . S
C1627 C1621 1.429 . S
C1627 C1628 1.523 . S
C1628 C1609 1.368 . S
C1628 C1622 1.368 . S
C1628 C1627 1.523 . S
C1629 C1613 1.429 . S
C1629 C1625 1.429 . S
C1629 C1630 1.523 . S
C1630 C1614 1.368 . S
C1630 C1626 1.368 . S
C1630 C1629 1.523 . S
H1631 C1606 0.950 . S
H1632 C1608 0.950 . S
H1633 C1609 0.949 . S
H1634 C1611 0.950 . S
H1635 C1613 0.950 . S
C1636 C1637 1.349 . S
C1636 C1638 1.327 . S
C1636 H1661 0.950 . S
C1637 C1636 1.349 . S
C1637 C1653 1.349 . S
C1638 C1636 1.327 . S
C1638 C1657 1.429 . S
C1638 H1662 0.950 . S
C1639 C1656 1.574 . S
C1639 C1658 1.368 . S
C1639 H1663 0.949 . S
H1640 C1644 0.949 . S
C1641 C1642 1.349 . S
C1641 C1643 1.327 . S
C1641 H1664 0.950 . S
C1642 C1641 1.349 . S
C1642 C1654 1.349 . S
C1643 C1641 1.327 . S
C1643 C1659 1.429 . S
C1643 H1665 0.950 . S
C1644 H1640 0.949 . S
C1644 C1652 1.574 . S
C1644 C1660 1.368 . S
H1645 C1653 0.950 . S
H1646 C1651 0.950 . S
H1647 C1652 0.949 . S
H1648 C1654 0.950 . S
H1649 C1655 0.950 . S
H1650 C1656 0.949 . S
C1651 H1646 0.950 . S
C1651 C1653 1.327 . S
C1651 C1657 1.429 . S
C1652 C1644 1.574 . S
C1652 H1647 0.949 . S
C1652 C1658 1.368 . S
C1653 C1637 1.349 . S
C1653 H1645 0.950 . S
C1653 C1651 1.327 . S
C1654 C1642 1.349 . S
C1654 H1648 0.950 . S
C1654 C1655 1.327 . S
C1655 H1649 0.950 . S
C1655 C1654 1.327 . S
C1655 C1659 1.429 . S
C1656 C1639 1.574 . S
C1656 H1650 0.949 . S
C1656 C1660 1.368 . S
C1657 C1638 1.429 . S
C1657 C1651 1.429 . S
C1657 C1658 1.523 . S
C1658 C1639 1.368 . S
C1658 C1652 1.368 . S
C1658 C1657 1.523 . S
C1659 C1643 1.429 . S
C1659 C1655 1.429 . S
C1659 C1660 1.523 . S
C1660 C1644 1.368 . S
C1660 C1656 1.368 . S
C1660 C1659 1.523 . S
H1661 C1636 0.950 . S
H1662 C1638 0.950 . S
H1663 C1639 0.949 . S
H1664 C1641 0.950 . S
H1665 C1643 0.950 . S
C1666 C1667 1.349 . S
C1666 C1668 1.327 . S
C1666 H1691 0.950 . S
C1667 C1666 1.349 . S
C1667 C1683 1.349 . S
C1668 C1666 1.327 . S
C1668 C1687 1.429 . S
C1668 H1692 0.950 . S
C1669 C1686 1.574 . S
C1669 C1688 1.368 . S
C1669 H1693 0.949 . S
H1670 C1674 0.949 . S
C1671 C1672 1.349 . S
C1671 C1673 1.327 . S
C1671 H1694 0.950 . S
C1672 C1671 1.349 . S
C1672 C1684 1.349 . S
C1673 C1671 1.327 . S
C1673 C1689 1.429 . S
C1673 H1695 0.950 . S
C1674 H1670 0.949 . S
C1674 C1682 1.574 . S
C1674 C1690 1.368 . S
H1675 C1683 0.950 . S
H1676 C1681 0.950 . S
H1677 C1682 0.949 . S
H1678 C1684 0.950 . S
H1679 C1685 0.950 . S
H1680 C1686 0.949 . S
C1681 H1676 0.950 . S
C1681 C1683 1.327 . S
C1681 C1687 1.429 . S
C1682 C1674 1.574 . S
C1682 H1677 0.949 . S
C1682 C1688 1.368 . S
C1683 C1667 1.349 . S
C1683 H1675 0.950 . S
C1683 C1681 1.327 . S
C1684 C1672 1.349 . S
C1684 H1678 0.950 . S
C1684 C1685 1.327 . S
C1685 H1679 0.950 . S
C1685 C1684 1.327 . S
C1685 C1689 1.429 . S
C1686 C1669 1.574 . S
C1686 H1680 0.949 . S
C1686 C1690 1.368 . S
C1687 C1668 1.429 . S
C1687 C1681 1.429 . S
C1687 C1688 1.523 . S
C1688 C1669 1.368 . S
C1688 C1682 1.368 . S
C1688 C1687 1.523 . S
C1689 C1673 1.429 . S
C1689 C1685 1.429 . S
C1689 C1690 1.523 . S
C1690 C1674 1.368 . S
C1690 C1686 1.368 . S
C1690 C1689 1.523 . S
H1691 C1666 0.950 . S
H1692 C1668 0.950 . S
H1693 C1669 0.949 . S
H1694 C1671 0.950 . S
H1695 C1673 0.950 . S
C1696 C1697 1.349 . S
C1696 C1698 1.327 . S
C1696 H1721 0.950 . S
C1697 C1696 1.349 . S
C1697 C1713 1.349 . S
C1698 C1696 1.327 . S
C1698 C1717 1.429 . S
C1698 H1722 0.950 . S
C1699 C1716 1.574 . S
C1699 C1718 1.368 . S
C1699 H1723 0.949 . S
H1700 C1704 0.949 . S
C1701 C1702 1.349 . S
C1701 C1703 1.327 . S
C1701 H1724 0.950 . S
C1702 C1701 1.349 . S
C1702 C1714 1.349 . S
C1703 C1701 1.327 . S
C1703 C1719 1.429 . S
C1703 H1725 0.950 . S
C1704 H1700 0.949 . S
C1704 C1712 1.574 . S
C1704 C1720 1.368 . S
H1705 C1713 0.950 . S
H1706 C1711 0.950 . S
H1707 C1712 0.949 . S
H1708 C1714 0.950 . S
H1709 C1715 0.950 . S
H1710 C1716 0.949 . S
C1711 H1706 0.950 . S
C1711 C1713 1.327 . S
C1711 C1717 1.429 . S
C1712 C1704 1.574 . S
C1712 H1707 0.949 . S
C1712 C1718 1.368 . S
C1713 C1697 1.349 . S
C1713 H1705 0.950 . S
C1713 C1711 1.327 . S
C1714 C1702 1.349 . S
C1714 H1708 0.950 . S
C1714 C1715 1.327 . S
C1715 H1709 0.950 . S
C1715 C1714 1.327 . S
C1715 C1719 1.429 . S
C1716 C1699 1.574 . S
C1716 H1710 0.949 . S
C1716 C1720 1.368 . S
C1717 C1698 1.429 . S
C1717 C1711 1.429 . S
C1717 C1718 1.523 . S
C1718 C1699 1.368 . S
C1718 C1712 1.368 . S
C1718 C1717 1.523 . S
C1719 C1703 1.429 . S
C1719 C1715 1.429 . S
C1719 C1720 1.523 . S
C1720 C1704 1.368 . S
C1720 C1716 1.368 . S
C1720 C1719 1.523 . S
H1721 C1696 0.950 . S
H1722 C1698 0.950 . S
H1723 C1699 0.949 . S
H1724 C1701 0.950 . S
H1725 C1703 0.950 . S
C1726 C1727 1.349 . S
C1726 C1728 1.327 . S
C1726 H1751 0.950 . S
C1727 C1726 1.349 . S
C1727 C1743 1.349 . S
C1728 C1726 1.327 . S
C1728 C1747 1.429 . S
C1728 H1752 0.950 . S
C1729 C1746 1.574 . S
C1729 C1748 1.368 . S
C1729 H1753 0.949 . S
H1730 C1734 0.949 . S
C1731 C1732 1.349 . S
C1731 C1733 1.327 . S
C1731 H1754 0.950 . S
C1732 C1731 1.349 . S
C1732 C1744 1.349 . S
C1733 C1731 1.327 . S
C1733 C1749 1.429 . S
C1733 H1755 0.950 . S
C1734 H1730 0.949 . S
C1734 C1742 1.574 . S
C1734 C1750 1.368 . S
H1735 C1743 0.950 . S
H1736 C1741 0.950 . S
H1737 C1742 0.949 . S
H1738 C1744 0.950 . S
H1739 C1745 0.950 . S
H1740 C1746 0.949 . S
C1741 H1736 0.950 . S
C1741 C1743 1.327 . S
C1741 C1747 1.429 . S
C1742 C1734 1.574 . S
C1742 H1737 0.949 . S
C1742 C1748 1.368 . S
C1743 C1727 1.349 . S
C1743 H1735 0.950 . S
C1743 C1741 1.327 . S
C1744 C1732 1.349 . S
C1744 H1738 0.950 . S
C1744 C1745 1.327 . S
C1745 H1739 0.950 . S
C1745 C1744 1.327 . S
C1745 C1749 1.429 . S
C1746 C1729 1.574 . S
C1746 H1740 0.949 . S
C1746 C1750 1.368 . S
C1747 C1728 1.429 . S
C1747 C1741 1.429 . S
C1747 C1748 1.523 . S
C1748 C1729 1.368 . S
C1748 C1742 1.368 . S
C1748 C1747 1.523 . S
C1749 C1733 1.429 . S
C1749 C1745 1.429 . S
C1749 C1750 1.523 . S
C1750 C1734 1.368 . S
C1750 C1746 1.368 . S
C1750 C1749 1.523 . S
H1751 C1726 0.950 . S
H1752 C1728 0.950 . S
H1753 C1729 0.949 . S
H1754 C1731 0.950 . S
H1755 C1733 0.950 . S
C1756 C1757 1.349 . S
C1756 C1758 1.327 . S
C1756 H1781 0.950 . S
C1757 C1756 1.349 . S
C1757 C1773 1.349 . S
C1758 C1756 1.327 . S
C1758 C1777 1.429 . S
C1758 H1782 0.950 . S
C1759 C1776 1.574 . S
C1759 C1778 1.368 . S
C1759 H1783 0.949 . S
H1760 C1764 0.949 . S
C1761 C1762 1.349 . S
C1761 C1763 1.327 . S
C1761 H1784 0.950 . S
C1762 C1761 1.349 . S
C1762 C1774 1.349 . S
C1763 C1761 1.327 . S
C1763 C1779 1.429 . S
C1763 H1785 0.950 . S
C1764 H1760 0.949 . S
C1764 C1772 1.574 . S
C1764 C1780 1.368 . S
H1765 C1773 0.950 . S
H1766 C1771 0.950 . S
H1767 C1772 0.949 . S
H1768 C1774 0.950 . S
H1769 C1775 0.950 . S
H1770 C1776 0.949 . S
C1771 H1766 0.950 . S
C1771 C1773 1.327 . S
C1771 C1777 1.429 . S
C1772 C1764 1.574 . S
C1772 H1767 0.949 . S
C1772 C1778 1.368 . S
C1773 C1757 1.349 . S
C1773 H1765 0.950 . S
C1773 C1771 1.327 . S
C1774 C1762 1.349 . S
C1774 H1768 0.950 . S
C1774 C1775 1.327 . S
C1775 H1769 0.950 . S
C1775 C1774 1.327 . S
C1775 C1779 1.429 . S
C1776 C1759 1.574 . S
C1776 H1770 0.949 . S
C1776 C1780 1.368 . S
C1777 C1758 1.429 . S
C1777 C1771 1.429 . S
C1777 C1778 1.523 . S
C1778 C1759 1.368 . S
C1778 C1772 1.368 . S
C1778 C1777 1.523 . S
C1779 C1763 1.429 . S
C1779 C1775 1.429 . S
C1779 C1780 1.523 . S
C1780 C1764 1.368 . S
C1780 C1776 1.368 . S
C1780 C1779 1.523 . S
H1781 C1756 0.950 . S
H1782 C1758 0.950 . S
H1783 C1759 0.949 . S
H1784 C1761 0.950 . S
H1785 C1763 0.950 . S
C1786 C1787 1.349 . S
C1786 C1788 1.327 . S
C1786 H1811 0.950 . S
C1787 C1786 1.349 . S
C1787 C1803 1.349 . S
C1788 C1786 1.327 . S
C1788 C1807 1.429 . S
C1788 H1812 0.950 . S
C1789 C1806 1.574 . S
C1789 C1808 1.368 . S
C1789 H1813 0.949 . S
H1790 C1794 0.949 . S
C1791 C1792 1.349 . S
C1791 C1793 1.327 . S
C1791 H1814 0.950 . S
C1792 C1791 1.349 . S
C1792 C1804 1.349 . S
C1793 C1791 1.327 . S
C1793 C1809 1.429 . S
C1793 H1815 0.950 . S
C1794 H1790 0.949 . S
C1794 C1802 1.574 . S
C1794 C1810 1.368 . S
H1795 C1803 0.950 . S
H1796 C1801 0.950 . S
H1797 C1802 0.949 . S
H1798 C1804 0.950 . S
H1799 C1805 0.950 . S
H1800 C1806 0.949 . S
C1801 H1796 0.950 . S
C1801 C1803 1.327 . S
C1801 C1807 1.429 . S
C1802 C1794 1.574 . S
C1802 H1797 0.949 . S
C1802 C1808 1.368 . S
C1803 C1787 1.349 . S
C1803 H1795 0.950 . S
C1803 C1801 1.327 . S
C1804 C1792 1.349 . S
C1804 H1798 0.950 . S
C1804 C1805 1.327 . S
C1805 H1799 0.950 . S
C1805 C1804 1.327 . S
C1805 C1809 1.429 . S
C1806 C1789 1.574 . S
C1806 H1800 0.949 . S
C1806 C1810 1.368 . S
C1807 C1788 1.429 . S
C1807 C1801 1.429 . S
C1807 C1808 1.523 . S
C1808 C1789 1.368 . S
C1808 C1802 1.368 . S
C1808 C1807 1.523 . S
C1809 C1793 1.429 . S
C1809 C1805 1.429 . S
C1809 C1810 1.523 . S
C1810 C1794 1.368 . S
C1810 C1806 1.368 . S
C1810 C1809 1.523 . S
H1811 C1786 0.950 . S
H1812 C1788 0.950 . S
H1813 C1789 0.949 . S
H1814 C1791 0.950 . S
H1815 C1793 0.950 . S
C1816 C1817 1.349 . S
C1816 C1818 1.327 . S
C1816 H1841 0.950 . S
C1817 C1816 1.349 . S
C1817 C1833 1.349 . S
C1818 C1816 1.327 . S
C1818 C1837 1.429 . S
C1818 H1842 0.950 . S
C1819 C1836 1.574 . S
C1819 C1838 1.368 . S
C1819 H1843 0.949 . S
H1820 C1824 0.949 . S
C1821 C1822 1.349 . S
C1821 C1823 1.327 . S
C1821 H1844 0.950 . S
C1822 C1821 1.349 . S
C1822 C1834 1.349 . S
C1823 C1821 1.327 . S
C1823 C1839 1.429 . S
C1823 H1845 0.950 . S
C1824 H1820 0.949 . S
C1824 C1832 1.574 . S
C1824 C1840 1.368 . S
H1825 C1833 0.950 . S
H1826 C1831 0.950 . S
H1827 C1832 0.949 . S
H1828 C1834 0.950 . S
H1829 C1835 0.950 . S
H1830 C1836 0.949 . S
C1831 H1826 0.950 . S
C1831 C1833 1.327 . S
C1831 C1837 1.429 . S
C1832 C1824 1.574 . S
C1832 H1827 0.949 . S
C1832 C1838 1.368 . S
C1833 C1817 1.349 . S
C1833 H1825 0.950 . S
C1833 C1831 1.327 . S
C1834 C1822 1.349 . S
C1834 H1828 0.950 . S
C1834 C1835 1.327 . S
C1835 H1829 0.950 . S
C1835 C1834 1.327 . S
C1835 C1839 1.429 . S
C1836 C1819 1.574 . S
C1836 H1830 0.949 . S
C1836 C1840 1.368 . S
C1837 C1818 1.429 . S
C1837 C1831 1.429 . S
C1837 C1838 1.523 . S
C1838 C1819 1.368 . S
C1838 C1832 1.368 . S
C1838 C1837 1.523 . S
C1839 C1823 1.429 . S
C1839 C1835 1.429 . S
C1839 C1840 1.523 . S
C1840 C1824 1.368 . S
C1840 C1836 1.368 . S
C1840 C1839 1.523 . S
H1841 C1816 0.950 . S
H1842 C1818 0.950 . S
H1843 C1819 0.949 . S
H1844 C1821 0.950 . S
H1845 C1823 0.950 . S
C1846 C1847 1.349 . S
C1846 C1848 1.327 . S
C1846 H1871 0.950 . S
C1847 C1846 1.349 . S
C1847 C1863 1.349 . S
C1848 C1846 1.327 . S
C1848 C1867 1.429 . S
C1848 H1872 0.950 . S
C1849 C1866 1.574 . S
C1849 C1868 1.368 . S
C1849 H1873 0.949 . S
H1850 C1854 0.949 . S
C1851 C1852 1.349 . S
C1851 C1853 1.327 . S
C1851 H1874 0.950 . S
C1852 C1851 1.349 . S
C1852 C1864 1.349 . S
C1853 C1851 1.327 . S
C1853 C1869 1.429 . S
C1853 H1875 0.950 . S
C1854 H1850 0.949 . S
C1854 C1862 1.574 . S
C1854 C1870 1.368 . S
H1855 C1863 0.950 . S
H1856 C1861 0.950 . S
H1857 C1862 0.949 . S
H1858 C1864 0.950 . S
H1859 C1865 0.950 . S
H1860 C1866 0.949 . S
C1861 H1856 0.950 . S
C1861 C1863 1.327 . S
C1861 C1867 1.429 . S
C1862 C1854 1.574 . S
C1862 H1857 0.949 . S
C1862 C1868 1.368 . S
C1863 C1847 1.349 . S
C1863 H1855 0.950 . S
C1863 C1861 1.327 . S
C1864 C1852 1.349 . S
C1864 H1858 0.950 . S
C1864 C1865 1.327 . S
C1865 H1859 0.950 . S
C1865 C1864 1.327 . S
C1865 C1869 1.429 . S
C1866 C1849 1.574 . S
C1866 H1860 0.949 . S
C1866 C1870 1.368 . S
C1867 C1848 1.429 . S
C1867 C1861 1.429 . S
C1867 C1868 1.523 . S
C1868 C1849 1.368 . S
C1868 C1862 1.368 . S
C1868 C1867 1.523 . S
C1869 C1853 1.429 . S
C1869 C1865 1.429 . S
C1869 C1870 1.523 . S
C1870 C1854 1.368 . S
C1870 C1866 1.368 . S
C1870 C1869 1.523 . S
H1871 C1846 0.950 . S
H1872 C1848 0.950 . S
H1873 C1849 0.949 . S
H1874 C1851 0.950 . S
H1875 C1853 0.950 . S
C1876 C1877 1.349 . S
C1876 C1878 1.327 . S
C1876 H1901 0.950 . S
C1877 C1876 1.349 . S
C1877 C1893 1.349 . S
C1878 C1876 1.327 . S
C1878 C1897 1.429 . S
C1878 H1902 0.950 . S
C1879 C1896 1.574 . S
C1879 C1898 1.368 . S
C1879 H1903 0.949 . S
H1880 C1884 0.949 . S
C1881 C1882 1.349 . S
C1881 C1883 1.327 . S
C1881 H1904 0.950 1_556 S
C1882 C1881 1.349 . S
C1882 C1894 1.349 . S
C1883 C1881 1.327 . S
C1883 C1899 1.429 . S
C1883 H1905 0.950 . S
C1884 H1880 0.949 . S
C1884 C1892 1.574 . S
C1884 C1900 1.368 . S
H1885 C1893 0.950 . S
H1886 C1891 0.950 . S
H1887 C1892 0.949 . S
H1888 C1894 0.950 . S
H1889 C1895 0.950 . S
H1890 C1896 0.949 . S
C1891 H1886 0.950 . S
C1891 C1893 1.327 . S
C1891 C1897 1.429 . S
C1892 C1884 1.574 . S
C1892 H1887 0.949 . S
C1892 C1898 1.368 . S
C1893 C1877 1.349 . S
C1893 H1885 0.950 . S
C1893 C1891 1.327 . S
C1894 C1882 1.349 . S
C1894 H1888 0.950 . S
C1894 C1895 1.327 . S
C1895 H1889 0.950 . S
C1895 C1894 1.327 . S
C1895 C1899 1.429 . S
C1896 C1879 1.574 . S
C1896 H1890 0.949 . S
C1896 C1900 1.368 . S
C1897 C1878 1.429 . S
C1897 C1891 1.429 . S
C1897 C1898 1.523 . S
C1898 C1879 1.368 . S
C1898 C1892 1.368 . S
C1898 C1897 1.523 . S
C1899 C1883 1.429 . S
C1899 C1895 1.429 . S
C1899 C1900 1.523 . S
C1900 C1884 1.368 . S
C1900 C1896 1.368 . S
C1900 C1899 1.523 . S
H1901 C1876 0.950 . S
H1902 C1878 0.950 . S
H1903 C1879 0.949 . S
H1904 C1881 0.950 1_554 S
H1905 C1883 0.950 . S
C1906 C1907 1.349 . S
C1906 C1908 1.327 . S
C1906 H1931 0.950 . S
C1907 C1906 1.349 . S
C1907 C1923 1.349 . S
C1908 C1906 1.327 . S
C1908 C1927 1.429 . S
C1908 H1932 0.950 . S
C1909 C1926 1.574 . S
C1909 C1928 1.368 . S
C1909 H1933 0.949 . S
H1910 C1914 0.949 . S
C1911 C1912 1.349 . S
C1911 C1913 1.327 . S
C1911 H1934 0.950 . S
C1912 C1911 1.349 . S
C1912 C1924 1.349 . S
C1913 C1911 1.327 . S
C1913 C1929 1.429 . S
C1913 H1935 0.950 . S
C1914 H1910 0.949 . S
C1914 C1922 1.574 . S
C1914 C1930 1.368 . S
H1915 C1923 0.950 . S
H1916 C1921 0.950 . S
H1917 C1922 0.949 . S
H1918 C1924 0.950 . S
H1919 C1925 0.950 . S
H1920 C1926 0.949 . S
C1921 H1916 0.950 . S
C1921 C1923 1.327 . S
C1921 C1927 1.429 . S
C1922 C1914 1.574 . S
C1922 H1917 0.949 . S
C1922 C1928 1.368 . S
C1923 C1907 1.349 . S
C1923 H1915 0.950 . S
C1923 C1921 1.327 . S
C1924 C1912 1.349 . S
C1924 H1918 0.950 . S
C1924 C1925 1.327 . S
C1925 H1919 0.950 . S
C1925 C1924 1.327 . S
C1925 C1929 1.429 . S
C1926 C1909 1.574 . S
C1926 H1920 0.949 . S
C1926 C1930 1.368 . S
C1927 C1908 1.429 . S
C1927 C1921 1.429 . S
C1927 C1928 1.523 . S
C1928 C1909 1.368 . S
C1928 C1922 1.368 . S
C1928 C1927 1.523 . S
C1929 C1913 1.429 . S
C1929 C1925 1.429 . S
C1929 C1930 1.523 . S
C1930 C1914 1.368 . S
C1930 C1926 1.368 . S
C1930 C1929 1.523 . S
H1931 C1906 0.950 . S
H1932 C1908 0.950 . S
H1933 C1909 0.949 . S
H1934 C1911 0.950 . S
H1935 C1913 0.950 . S
C1936 C1937 1.349 . S
C1936 C1938 1.327 . S
C1936 H1961 0.950 . S
C1937 C1936 1.349 . S
C1937 C1953 1.349 . S
C1938 C1936 1.327 . S
C1938 C1957 1.429 . S
C1938 H1962 0.950 . S
C1939 C1956 1.574 . S
C1939 C1958 1.368 . S
C1939 H1963 0.949 . S
H1940 C1944 0.949 . S
C1941 C1942 1.349 . S
C1941 C1943 1.327 . S
C1941 H1964 0.950 . S
C1942 C1941 1.349 . S
C1942 C1954 1.349 . S
C1943 C1941 1.327 . S
C1943 C1959 1.429 . S
C1943 H1965 0.950 . S
C1944 H1940 0.949 . S
C1944 C1952 1.574 . S
C1944 C1960 1.368 . S
H1945 C1953 0.950 . S
H1946 C1951 0.950 . S
H1947 C1952 0.949 . S
H1948 C1954 0.950 1_565 S
H1949 C1955 0.950 . S
H1950 C1956 0.949 . S
C1951 H1946 0.950 . S
C1951 C1953 1.327 . S
C1951 C1957 1.429 . S
C1952 C1944 1.574 . S
C1952 H1947 0.949 . S
C1952 C1958 1.368 . S
C1953 C1937 1.349 . S
C1953 H1945 0.950 . S
C1953 C1951 1.327 . S
C1954 C1942 1.349 . S
C1954 H1948 0.950 1_545 S
C1954 C1955 1.327 . S
C1955 H1949 0.950 . S
C1955 C1954 1.327 . S
C1955 C1959 1.429 . S
C1956 C1939 1.574 . S
C1956 H1950 0.949 . S
C1956 C1960 1.368 . S
C1957 C1938 1.429 . S
C1957 C1951 1.429 . S
C1957 C1958 1.523 . S
C1958 C1939 1.368 . S
C1958 C1952 1.368 . S
C1958 C1957 1.523 . S
C1959 C1943 1.429 . S
C1959 C1955 1.429 . S
C1959 C1960 1.523 . S
C1960 C1944 1.368 . S
C1960 C1956 1.368 . S
C1960 C1959 1.523 . S
H1961 C1936 0.950 . S
H1962 C1938 0.950 . S
H1963 C1939 0.949 . S
H1964 C1941 0.950 . S
H1965 C1943 0.950 . S
C1966 C1967 1.349 . S
C1966 C1968 1.327 . S
C1966 H1991 0.950 . S
C1967 C1966 1.349 . S
C1967 C1983 1.349 . S
C1968 C1966 1.327 . S
C1968 C1987 1.429 . S
C1968 H1992 0.950 . S
C1969 C1986 1.574 . S
C1969 C1988 1.368 . S
C1969 H1993 0.949 . S
H1970 C1974 0.949 . S
C1971 C1972 1.349 . S
C1971 C1973 1.327 . S
C1971 H1994 0.950 . S
C1972 C1971 1.349 . S
C1972 C1984 1.349 . S
C1973 C1971 1.327 . S
C1973 C1989 1.429 . S
C1973 H1995 0.950 . S
C1974 H1970 0.949 . S
C1974 C1982 1.574 . S
C1974 C1990 1.368 . S
H1975 C1983 0.950 . S
H1976 C1981 0.950 . S
H1977 C1982 0.949 . S
H1978 C1984 0.950 . S
H1979 C1985 0.950 . S
H1980 C1986 0.949 . S
C1981 H1976 0.950 . S
C1981 C1983 1.327 . S
C1981 C1987 1.429 . S
C1982 C1974 1.574 . S
C1982 H1977 0.949 . S
C1982 C1988 1.368 . S
C1983 C1967 1.349 . S
C1983 H1975 0.950 . S
C1983 C1981 1.327 . S
C1984 C1972 1.349 . S
C1984 H1978 0.950 . S
C1984 C1985 1.327 . S
C1985 H1979 0.950 . S
C1985 C1984 1.327 . S
C1985 C1989 1.429 . S
C1986 C1969 1.574 . S
C1986 H1980 0.949 . S
C1986 C1990 1.368 . S
C1987 C1968 1.429 . S
C1987 C1981 1.429 . S
C1987 C1988 1.523 . S
C1988 C1969 1.368 . S
C1988 C1982 1.368 . S
C1988 C1987 1.523 . S
C1989 C1973 1.429 . S
C1989 C1985 1.429 . S
C1989 C1990 1.523 . S
C1990 C1974 1.368 . S
C1990 C1986 1.368 . S
C1990 C1989 1.523 . S
H1991 C1966 0.950 . S
H1992 C1968 0.950 . S
H1993 C1969 0.949 . S
H1994 C1971 0.950 . S
H1995 C1973 0.950 . S
C1996 C1997 1.349 . S
C1996 C1998 1.327 . S
C1996 H2021 0.950 . S
C1997 C1996 1.349 . S
C1997 C2013 1.349 . S
C1998 C1996 1.327 . S
C1998 C2017 1.429 . S
C1998 H2022 0.950 . S
C1999 C2016 1.574 . S
C1999 C2018 1.368 . S
C1999 H2023 0.949 . S
H2000 C2004 0.949 . S
C2001 C2002 1.349 . S
C2001 C2003 1.327 . S
C2001 H2024 0.950 . S
C2002 C2001 1.349 . S
C2002 C2014 1.349 . S
C2003 C2001 1.327 . S
C2003 C2019 1.429 . S
C2003 H2025 0.950 . S
C2004 H2000 0.949 . S
C2004 C2012 1.574 . S
C2004 C2020 1.368 . S
H2005 C2013 0.950 . S
H2006 C2011 0.950 . S
H2007 C2012 0.949 . S
H2008 C2014 0.950 . S
H2009 C2015 0.950 . S
H2010 C2016 0.949 . S
C2011 H2006 0.950 . S
C2011 C2013 1.327 . S
C2011 C2017 1.429 . S
C2012 C2004 1.574 . S
C2012 H2007 0.949 . S
C2012 C2018 1.368 . S
C2013 C1997 1.349 . S
C2013 H2005 0.950 . S
C2013 C2011 1.327 . S
C2014 C2002 1.349 . S
C2014 H2008 0.950 . S
C2014 C2015 1.327 . S
C2015 H2009 0.950 . S
C2015 C2014 1.327 . S
C2015 C2019 1.429 . S
C2016 C1999 1.574 . S
C2016 H2010 0.949 . S
C2016 C2020 1.368 . S
C2017 C1998 1.429 . S
C2017 C2011 1.429 . S
C2017 C2018 1.523 . S
C2018 C1999 1.368 . S
C2018 C2012 1.368 . S
C2018 C2017 1.523 . S
C2019 C2003 1.429 . S
C2019 C2015 1.429 . S
C2019 C2020 1.523 . S
C2020 C2004 1.368 . S
C2020 C2016 1.368 . S
C2020 C2019 1.523 . S
H2021 C1996 0.950 . S
H2022 C1998 0.950 . S
H2023 C1999 0.949 . S
H2024 C2001 0.950 . S
H2025 C2003 0.950 . S
C2026 C2027 1.349 . S
C2026 C2028 1.327 . S
C2026 H2051 0.950 . S
C2027 C2026 1.349 . S
C2027 C2043 1.349 . S
C2028 C2026 1.327 . S
C2028 C2047 1.429 . S
C2028 H2052 0.950 . S
C2029 C2046 1.574 . S
C2029 C2048 1.368 . S
C2029 H2053 0.949 . S
H2030 C2034 0.949 . S
C2031 C2032 1.349 . S
C2031 C2033 1.327 . S
C2031 H2054 0.950 . S
C2032 C2031 1.349 . S
C2032 C2044 1.349 . S
C2033 C2031 1.327 . S
C2033 C2049 1.429 . S
C2033 H2055 0.950 . S
C2034 H2030 0.949 . S
C2034 C2042 1.574 . S
C2034 C2050 1.368 . S
H2035 C2043 0.950 . S
H2036 C2041 0.950 . S
H2037 C2042 0.949 . S
H2038 C2044 0.950 . S
H2039 C2045 0.950 . S
H2040 C2046 0.949 . S
C2041 H2036 0.950 . S
C2041 C2043 1.327 . S
C2041 C2047 1.429 . S
C2042 C2034 1.574 . S
C2042 H2037 0.949 . S
C2042 C2048 1.368 . S
C2043 C2027 1.349 . S
C2043 H2035 0.950 . S
C2043 C2041 1.327 . S
C2044 C2032 1.349 . S
C2044 H2038 0.950 . S
C2044 C2045 1.327 . S
C2045 H2039 0.950 . S
C2045 C2044 1.327 . S
C2045 C2049 1.429 . S
C2046 C2029 1.574 . S
C2046 H2040 0.949 . S
C2046 C2050 1.368 . S
C2047 C2028 1.429 . S
C2047 C2041 1.429 . S
C2047 C2048 1.523 . S
C2048 C2029 1.368 . S
C2048 C2042 1.368 . S
C2048 C2047 1.523 . S
C2049 C2033 1.429 . S
C2049 C2045 1.429 . S
C2049 C2050 1.523 . S
C2050 C2034 1.368 . S
C2050 C2046 1.368 . S
C2050 C2049 1.523 . S
H2051 C2026 0.950 . S
H2052 C2028 0.950 . S
H2053 C2029 0.949 . S
H2054 C2031 0.950 . S
H2055 C2033 0.950 . S
C2056 C2057 1.349 . S
C2056 C2058 1.327 . S
C2056 H2081 0.950 . S
C2057 C2056 1.349 . S
C2057 C2073 1.349 . S
C2058 C2056 1.327 . S
C2058 C2077 1.429 . S
C2058 H2082 0.950 . S
C2059 C2076 1.574 . S
C2059 C2078 1.368 . S
C2059 H2083 0.949 . S
H2060 C2064 0.949 . S
C2061 C2062 1.349 . S
C2061 C2063 1.327 . S
C2061 H2084 0.950 . S
C2062 C2061 1.349 . S
C2062 C2074 1.349 . S
C2063 C2061 1.327 . S
C2063 C2079 1.429 . S
C2063 H2085 0.950 . S
C2064 H2060 0.949 . S
C2064 C2072 1.574 . S
C2064 C2080 1.368 . S
H2065 C2073 0.950 . S
H2066 C2071 0.950 . S
H2067 C2072 0.949 . S
H2068 C2074 0.950 . S
H2069 C2075 0.950 . S
H2070 C2076 0.949 . S
C2071 H2066 0.950 . S
C2071 C2073 1.327 . S
C2071 C2077 1.429 . S
C2072 C2064 1.574 . S
C2072 H2067 0.949 . S
C2072 C2078 1.368 . S
C2073 C2057 1.349 . S
C2073 H2065 0.950 . S
C2073 C2071 1.327 . S
C2074 C2062 1.349 . S
C2074 H2068 0.950 . S
C2074 C2075 1.327 . S
C2075 H2069 0.950 . S
C2075 C2074 1.327 . S
C2075 C2079 1.429 . S
C2076 C2059 1.574 . S
C2076 H2070 0.949 . S
C2076 C2080 1.368 . S
C2077 C2058 1.429 . S
C2077 C2071 1.429 . S
C2077 C2078 1.523 . S
C2078 C2059 1.368 . S
C2078 C2072 1.368 . S
C2078 C2077 1.523 . S
C2079 C2063 1.429 . S
C2079 C2075 1.429 . S
C2079 C2080 1.523 . S
C2080 C2064 1.368 . S
C2080 C2076 1.368 . S
C2080 C2079 1.523 . S
H2081 C2056 0.950 . S
H2082 C2058 0.950 . S
H2083 C2059 0.949 . S
H2084 C2061 0.950 . S
H2085 C2063 0.950 . S
C2086 C2087 1.349 . S
C2086 C2088 1.327 . S
C2086 H2111 0.950 . S
C2087 C2086 1.349 . S
C2087 C2103 1.349 . S
C2088 C2086 1.327 . S
C2088 C2107 1.429 . S
C2088 H2112 0.950 . S
C2089 C2106 1.574 . S
C2089 C2108 1.368 . S
C2089 H2113 0.949 . S
H2090 C2094 0.949 . S
C2091 C2092 1.349 . S
C2091 C2093 1.327 . S
C2091 H2114 0.950 . S
C2092 C2091 1.349 . S
C2092 C2104 1.349 . S
C2093 C2091 1.327 . S
C2093 C2109 1.429 . S
C2093 H2115 0.950 . S
C2094 H2090 0.949 . S
C2094 C2102 1.574 . S
C2094 C2110 1.368 . S
H2095 C2103 0.950 . S
H2096 C2101 0.950 . S
H2097 C2102 0.949 . S
H2098 C2104 0.950 . S
H2099 C2105 0.950 . S
H2100 C2106 0.949 . S
C2101 H2096 0.950 . S
C2101 C2103 1.327 . S
C2101 C2107 1.429 . S
C2102 C2094 1.574 . S
C2102 H2097 0.949 . S
C2102 C2108 1.368 . S
C2103 C2087 1.349 . S
C2103 H2095 0.950 . S
C2103 C2101 1.327 . S
C2104 C2092 1.349 . S
C2104 H2098 0.950 . S
C2104 C2105 1.327 . S
C2105 H2099 0.950 . S
C2105 C2104 1.327 . S
C2105 C2109 1.429 . S
C2106 C2089 1.574 . S
C2106 H2100 0.949 . S
C2106 C2110 1.368 . S
C2107 C2088 1.429 . S
C2107 C2101 1.429 . S
C2107 C2108 1.523 . S
C2108 C2089 1.368 . S
C2108 C2102 1.368 . S
C2108 C2107 1.523 . S
C2109 C2093 1.429 . S
C2109 C2105 1.429 . S
C2109 C2110 1.523 . S
C2110 C2094 1.368 . S
C2110 C2106 1.368 . S
C2110 C2109 1.523 . S
H2111 C2086 0.950 . S
H2112 C2088 0.950 . S
H2113 C2089 0.949 . S
H2114 C2091 0.950 . S
H2115 C2093 0.950 . S
C2116 C2117 1.349 . S
C2116 C2118 1.327 . S
C2116 H2141 0.950 . S
C2117 C2116 1.349 . S
C2117 C2133 1.349 . S
C2118 C2116 1.327 . S
C2118 C2137 1.429 . S
C2118 H2142 0.950 . S
C2119 C2136 1.574 . S
C2119 C2138 1.368 . S
C2119 H2143 0.949 . S
H2120 C2124 0.949 . S
C2121 C2122 1.349 . S
C2121 C2123 1.327 . S
C2121 H2144 0.950 . S
C2122 C2121 1.349 . S
C2122 C2134 1.349 . S
C2123 C2121 1.327 . S
C2123 C2139 1.429 . S
C2123 H2145 0.940 1_545 S
C2124 H2120 0.949 . S
C2124 C2132 1.574 . S
C2124 C2140 1.368 . S
H2125 C2133 0.950 . S
H2126 C2131 0.971 . S
H2127 C2132 0.949 . S
H2128 C2134 0.950 . S
H2129 C2135 0.950 . S
H2130 C2136 0.942 1_565 S
C2131 H2126 0.971 . S
C2131 C2133 1.327 . S
C2131 C2137 1.429 . S
C2132 C2124 1.574 . S
C2132 H2127 0.949 . S
C2132 C2138 1.368 . S
C2133 C2117 1.349 . S
C2133 H2125 0.950 . S
C2133 C2131 1.327 . S
C2134 C2122 1.349 . S
C2134 H2128 0.950 . S
C2134 C2135 1.327 . S
C2135 H2129 0.950 . S
C2135 C2134 1.327 . S
C2135 C2139 1.429 . S
C2136 C2119 1.574 . S
C2136 H2130 0.942 1_545 S
C2136 C2140 1.368 . S
C2137 C2118 1.429 . S
C2137 C2131 1.429 . S
C2137 C2138 1.523 . S
C2138 C2119 1.368 . S
C2138 C2132 1.368 . S
C2138 C2137 1.523 . S
C2139 C2123 1.429 . S
C2139 C2135 1.429 . S
C2139 C2140 1.523 . S
C2140 C2124 1.368 . S
C2140 C2136 1.368 . S
C2140 C2139 1.523 . S
H2141 C2116 0.950 . S
H2142 C2118 0.950 . S
H2143 C2119 0.949 . S
H2144 C2121 0.950 . S
H2145 C2123 0.940 1_565 S
C2146 C2147 1.349 . S
C2146 C2148 1.327 . S
C2146 H2171 0.950 . S
C2147 C2146 1.349 . S
C2147 C2163 1.349 . S
C2148 C2146 1.327 . S
C2148 C2167 1.429 . S
C2148 H2172 0.950 . S
C2149 C2166 1.574 . S
C2149 C2168 1.368 . S
C2149 H2173 0.949 . S
H2150 C2154 0.949 . S
C2151 C2152 1.349 . S
C2151 C2153 1.327 . S
C2151 H2174 0.950 . S
C2152 C2151 1.349 . S
C2152 C2164 1.349 . S
C2153 C2151 1.327 . S
C2153 C2169 1.429 . S
C2153 H2175 0.950 . S
C2154 H2150 0.949 . S
C2154 C2162 1.574 . S
C2154 C2170 1.368 . S
H2155 C2163 0.950 . S
H2156 C2161 0.950 . S
H2157 C2162 0.949 . S
H2158 C2164 0.950 . S
H2159 C2165 0.950 . S
H2160 C2166 0.949 . S
C2161 H2156 0.950 . S
C2161 C2163 1.327 . S
C2161 C2167 1.429 . S
C2162 C2154 1.574 . S
C2162 H2157 0.949 . S
C2162 C2168 1.368 . S
C2163 C2147 1.349 . S
C2163 H2155 0.950 . S
C2163 C2161 1.327 . S
C2164 C2152 1.349 . S
C2164 H2158 0.950 . S
C2164 C2165 1.327 . S
C2165 H2159 0.950 . S
C2165 C2164 1.327 . S
C2165 C2169 1.429 . S
C2166 C2149 1.574 . S
C2166 H2160 0.949 . S
C2166 C2170 1.368 . S
C2167 C2148 1.429 . S
C2167 C2161 1.429 . S
C2167 C2168 1.523 . S
C2168 C2149 1.368 . S
C2168 C2162 1.368 . S
C2168 C2167 1.523 . S
C2169 C2153 1.429 . S
C2169 C2165 1.429 . S
C2169 C2170 1.523 . S
C2170 C2154 1.368 . S
C2170 C2166 1.368 . S
C2170 C2169 1.523 . S
H2171 C2146 0.950 . S
H2172 C2148 0.950 . S
H2173 C2149 0.949 . S
H2174 C2151 0.950 . S
H2175 C2153 0.950 . S
C2176 C2177 1.349 . S
C2176 C2178 1.327 . S
C2176 H2201 0.950 . S
C2177 C2176 1.349 . S
C2177 C2193 1.349 . S
C2178 C2176 1.327 . S
C2178 C2197 1.429 . S
C2178 H2202 0.950 . S
C2179 C2196 1.574 . S
C2179 C2198 1.368 . S
C2179 H2203 0.949 . S
H2180 C2184 0.949 1_556 S
C2181 C2182 1.342 1_554 S
C2181 C2183 1.327 . S
C2181 H2204 0.950 . S
C2182 C2181 1.342 1_556 S
C2182 C2194 1.353 . S
C2183 C2181 1.327 . S
C2183 C2199 1.429 . S
C2183 H2205 0.950 . S
C2184 H2180 0.949 1_554 S
C2184 C2192 1.574 . S
C2184 C2200 1.368 . S
H2185 C2193 0.950 . S
H2186 C2191 0.950 . S
H2187 C2192 0.949 . S
H2188 C2194 0.950 . S
H2189 C2195 0.950 . S
H2190 C2196 0.949 . S
C2191 H2186 0.950 . S
C2191 C2193 1.327 . S
C2191 C2197 1.429 . S
C2192 C2184 1.574 . S
C2192 H2187 0.949 . S
C2192 C2198 1.368 . S
C2193 C2177 1.349 . S
C2193 H2185 0.950 . S
C2193 C2191 1.327 . S
C2194 C2182 1.353 . S
C2194 H2188 0.950 . S
C2194 C2195 1.327 . S
C2195 H2189 0.950 . S
C2195 C2194 1.327 . S
C2195 C2199 1.429 1_556 S
C2196 C2179 1.574 . S
C2196 H2190 0.949 . S
C2196 C2200 1.368 . S
C2197 C2178 1.429 . S
C2197 C2191 1.429 . S
C2197 C2198 1.523 . S
C2198 C2179 1.368 . S
C2198 C2192 1.368 . S
C2198 C2197 1.523 . S
C2199 C2183 1.429 . S
C2199 C2195 1.429 1_554 S
C2199 C2200 1.523 . S
C2200 C2184 1.368 . S
C2200 C2196 1.368 . S
C2200 C2199 1.523 . S
H2201 C2176 0.950 . S
H2202 C2178 0.950 . S
H2203 C2179 0.949 . S
H2204 C2181 0.950 . S
H2205 C2183 0.950 . S
C2206 C2207 1.349 . S
C2206 C2208 1.327 . S
C2206 H2231 0.950 . S
C2207 C2206 1.349 . S
C2207 C2223 1.349 . S
C2208 C2206 1.327 . S
C2208 C2227 1.429 . S
C2208 H2232 0.950 . S
C2209 C2226 1.574 . S
C2209 C2228 1.368 . S
C2209 H2233 0.949 . S
H2210 C2214 0.949 . S
C2211 C2212 1.349 . S
C2211 C2213 1.327 . S
C2211 H2234 0.950 . S
C2212 C2211 1.349 . S
C2212 C2224 1.349 . S
C2213 C2211 1.327 . S
C2213 C2229 1.429 . S
C2213 H2235 0.950 . S
C2214 H2210 0.949 . S
C2214 C2222 1.574 . S
C2214 C2230 1.368 . S
H2215 C2223 0.950 . S
H2216 C2221 0.950 . S
H2217 C2222 0.949 . S
H2218 C2224 0.950 . S
H2219 C2225 0.950 . S
H2220 C2226 0.949 . S
C2221 H2216 0.950 . S
C2221 C2223 1.327 . S
C2221 C2227 1.429 . S
C2222 C2214 1.574 . S
C2222 H2217 0.949 . S
C2222 C2228 1.368 . S
C2223 C2207 1.349 . S
C2223 H2215 0.950 . S
C2223 C2221 1.327 . S
C2224 C2212 1.349 . S
C2224 H2218 0.950 . S
C2224 C2225 1.327 . S
C2225 H2219 0.950 . S
C2225 C2224 1.327 . S
C2225 C2229 1.429 . S
C2226 C2209 1.574 . S
C2226 H2220 0.949 . S
C2226 C2230 1.368 . S
C2227 C2208 1.429 . S
C2227 C2221 1.429 . S
C2227 C2228 1.523 . S
C2228 C2209 1.368 . S
C2228 C2222 1.368 . S
C2228 C2227 1.523 . S
C2229 C2213 1.429 . S
C2229 C2225 1.429 . S
C2229 C2230 1.523 . S
C2230 C2214 1.368 . S
C2230 C2226 1.368 . S
C2230 C2229 1.523 . S
H2231 C2206 0.950 . S
H2232 C2208 0.950 . S
H2233 C2209 0.949 . S
H2234 C2211 0.950 . S
H2235 C2213 0.950 . S
C2236 C2237 1.349 . S
C2236 C2238 1.327 . S
C2236 H2261 0.950 . S
C2237 C2236 1.349 . S
C2237 C2253 1.349 . S
C2238 C2236 1.327 . S
C2238 C2257 1.429 . S
C2238 H2262 0.950 . S
C2239 C2256 1.574 . S
C2239 C2258 1.368 . S
C2239 H2263 0.949 . S
H2240 C2244 0.949 . S
C2241 C2242 1.349 . S
C2241 C2243 1.327 . S
C2241 H2264 0.950 . S
C2242 C2241 1.349 . S
C2242 C2254 1.349 . S
C2243 C2241 1.327 . S
C2243 C2259 1.429 . S
C2243 H2265 0.950 . S
C2244 H2240 0.949 . S
C2244 C2252 1.574 . S
C2244 C2260 1.368 . S
H2245 C2253 0.950 . S
H2246 C2251 0.950 . S
H2247 C2252 0.949 . S
H2248 C2254 0.950 . S
H2249 C2255 0.950 . S
H2250 C2256 0.949 . S
C2251 H2246 0.950 . S
C2251 C2253 1.327 . S
C2251 C2257 1.429 . S
C2252 C2244 1.574 . S
C2252 H2247 0.949 . S
C2252 C2258 1.368 . S
C2253 C2237 1.349 . S
C2253 H2245 0.950 . S
C2253 C2251 1.327 . S
C2254 C2242 1.349 . S
C2254 H2248 0.950 . S
C2254 C2255 1.327 . S
C2255 H2249 0.950 . S
C2255 C2254 1.327 . S
C2255 C2259 1.429 . S
C2256 C2239 1.574 . S
C2256 H2250 0.949 . S
C2256 C2260 1.368 . S
C2257 C2238 1.429 . S
C2257 C2251 1.429 . S
C2257 C2258 1.523 . S
C2258 C2239 1.368 . S
C2258 C2252 1.368 . S
C2258 C2257 1.523 . S
C2259 C2243 1.429 . S
C2259 C2255 1.429 . S
C2259 C2260 1.523 . S
C2260 C2244 1.368 . S
C2260 C2256 1.368 . S
C2260 C2259 1.523 . S
H2261 C2236 0.950 . S
H2262 C2238 0.950 . S
H2263 C2239 0.949 . S
H2264 C2241 0.950 . S
H2265 C2243 0.950 . S
C2266 C2267 1.349 . S
C2266 C2268 1.327 . S
C2266 H2291 0.950 . S
C2267 C2266 1.349 . S
C2267 C2283 1.349 . S
C2268 C2266 1.327 . S
C2268 C2287 1.429 . S
C2268 H2292 0.950 . S
C2269 C2286 1.574 . S
C2269 C2288 1.368 . S
C2269 H2293 0.949 . S
H2270 C2274 0.949 . S
C2271 C2272 1.349 . S
C2271 C2273 1.327 . S
C2271 H2294 0.950 . S
C2272 C2271 1.349 . S
C2272 C2284 1.349 . S
C2273 C2271 1.327 . S
C2273 C2289 1.429 . S
C2273 H2295 0.950 . S
C2274 H2270 0.949 . S
C2274 C2282 1.574 . S
C2274 C2290 1.368 . S
H2275 C2283 0.950 . S
H2276 C2281 0.950 . S
H2277 C2282 0.949 . S
H2278 C2284 0.950 . S
H2279 C2285 0.950 . S
H2280 C2286 0.949 . S
C2281 H2276 0.950 . S
C2281 C2283 1.327 . S
C2281 C2287 1.429 . S
C2282 C2274 1.574 . S
C2282 H2277 0.949 . S
C2282 C2288 1.368 . S
C2283 C2267 1.349 . S
C2283 H2275 0.950 . S
C2283 C2281 1.327 . S
C2284 C2272 1.349 . S
C2284 H2278 0.950 . S
C2284 C2285 1.327 . S
C2285 H2279 0.950 . S
C2285 C2284 1.327 . S
C2285 C2289 1.429 . S
C2286 C2269 1.574 . S
C2286 H2280 0.949 . S
C2286 C2290 1.368 . S
C2287 C2268 1.429 . S
C2287 C2281 1.429 . S
C2287 C2288 1.523 . S
C2288 C2269 1.368 . S
C2288 C2282 1.368 . S
C2288 C2287 1.523 . S
C2289 C2273 1.429 . S
C2289 C2285 1.429 . S
C2289 C2290 1.523 . S
C2290 C2274 1.368 . S
C2290 C2286 1.368 . S
C2290 C2289 1.523 . S
H2291 C2266 0.950 . S
H2292 C2268 0.950 . S
H2293 C2269 0.949 . S
H2294 C2271 0.950 . S
H2295 C2273 0.950 . S
C2296 C2297 1.349 . S
C2296 C2298 1.327 . S
C2296 H2321 0.950 . S
C2297 C2296 1.349 . S
C2297 C2313 1.349 . S
C2298 C2296 1.327 . S
C2298 C2317 1.429 . S
C2298 H2322 0.950 . S
C2299 C2316 1.574 . S
C2299 C2318 1.368 . S
C2299 H2323 0.949 . S
H2300 C2304 0.949 . S
C2301 C2302 1.349 . S
C2301 C2303 1.327 . S
C2301 H2324 0.950 . S
C2302 C2301 1.349 . S
C2302 C2314 1.349 . S
C2303 C2301 1.327 . S
C2303 C2319 1.429 . S
C2303 H2325 0.950 . S
C2304 H2300 0.949 . S
C2304 C2312 1.574 . S
C2304 C2320 1.368 . S
H2305 C2313 0.950 . S
H2306 C2311 0.950 . S
H2307 C2312 0.949 . S
H2308 C2314 0.950 . S
H2309 C2315 0.950 . S
H2310 C2316 0.949 . S
C2311 H2306 0.950 . S
C2311 C2313 1.327 . S
C2311 C2317 1.429 . S
C2312 C2304 1.574 . S
C2312 H2307 0.949 . S
C2312 C2318 1.368 . S
C2313 C2297 1.349 . S
C2313 H2305 0.950 . S
C2313 C2311 1.327 . S
C2314 C2302 1.349 . S
C2314 H2308 0.950 . S
C2314 C2315 1.327 . S
C2315 H2309 0.950 . S
C2315 C2314 1.327 . S
C2315 C2319 1.429 . S
C2316 C2299 1.574 . S
C2316 H2310 0.949 . S
C2316 C2320 1.368 . S
C2317 C2298 1.429 . S
C2317 C2311 1.429 . S
C2317 C2318 1.523 . S
C2318 C2299 1.368 . S
C2318 C2312 1.368 . S
C2318 C2317 1.523 . S
C2319 C2303 1.429 . S
C2319 C2315 1.429 . S
C2319 C2320 1.523 . S
C2320 C2304 1.368 . S
C2320 C2316 1.368 . S
C2320 C2319 1.523 . S
H2321 C2296 0.950 . S
H2322 C2298 0.950 . S
H2323 C2299 0.949 . S
H2324 C2301 0.950 . S
H2325 C2303 0.950 . S
C2326 C2327 1.349 . S
C2326 C2328 1.327 . S
C2326 H2351 0.950 . S
C2327 C2326 1.349 . S
C2327 C2343 1.349 . S
C2328 C2326 1.327 . S
C2328 C2347 1.429 . S
C2328 H2352 0.950 . S
C2329 C2346 1.574 . S
C2329 C2348 1.368 . S
C2329 H2353 0.949 . S
H2330 C2334 0.949 . S
C2331 C2332 1.349 . S
C2331 C2333 1.327 . S
C2331 H2354 0.950 . S
C2332 C2331 1.349 . S
C2332 C2344 1.349 . S
C2333 C2331 1.327 . S
C2333 C2349 1.429 . S
C2333 H2355 0.950 . S
C2334 H2330 0.949 . S
C2334 C2342 1.574 . S
C2334 C2350 1.368 . S
H2335 C2343 0.950 . S
H2336 C2341 0.950 . S
H2337 C2342 0.949 . S
H2338 C2344 0.950 . S
H2339 C2345 0.950 . S
H2340 C2346 0.949 . S
C2341 H2336 0.950 . S
C2341 C2343 1.327 . S
C2341 C2347 1.429 . S
C2342 C2334 1.574 . S
C2342 H2337 0.949 . S
C2342 C2348 1.368 . S
C2343 C2327 1.349 . S
C2343 H2335 0.950 . S
C2343 C2341 1.327 . S
C2344 C2332 1.349 . S
C2344 H2338 0.950 . S
C2344 C2345 1.327 . S
C2345 H2339 0.950 . S
C2345 C2344 1.327 . S
C2345 C2349 1.429 . S
C2346 C2329 1.574 . S
C2346 H2340 0.949 . S
C2346 C2350 1.368 . S
C2347 C2328 1.429 . S
C2347 C2341 1.429 . S
C2347 C2348 1.523 . S
C2348 C2329 1.368 . S
C2348 C2342 1.368 . S
C2348 C2347 1.523 . S
C2349 C2333 1.429 . S
C2349 C2345 1.429 . S
C2349 C2350 1.523 . S
C2350 C2334 1.368 . S
C2350 C2346 1.368 . S
C2350 C2349 1.523 . S
H2351 C2326 0.950 . S
H2352 C2328 0.950 . S
H2353 C2329 0.949 . S
H2354 C2331 0.950 . S
H2355 C2333 0.950 . S
C2356 C2357 1.349 . S
C2356 C2358 1.327 . S
C2356 H2381 0.950 . S
C2357 C2356 1.349 . S
C2357 C2373 1.349 . S
C2358 C2356 1.327 . S
C2358 C2377 1.429 . S
C2358 H2382 0.950 . S
C2359 C2376 1.574 . S
C2359 C2378 1.368 . S
C2359 H2383 0.949 . S
H2360 C2364 0.949 . S
C2361 C2362 1.349 . S
C2361 C2363 1.327 . S
C2361 H2384 0.950 . S
C2362 C2361 1.349 . S
C2362 C2374 1.349 . S
C2363 C2361 1.327 . S
C2363 C2379 1.429 . S
C2363 H2385 0.950 . S
C2364 H2360 0.949 . S
C2364 C2372 1.574 . S
C2364 C2380 1.368 . S
H2365 C2373 0.950 . S
H2366 C2371 0.950 . S
H2367 C2372 0.949 . S
H2368 C2374 0.950 . S
H2369 C2375 0.950 . S
H2370 C2376 0.949 . S
C2371 H2366 0.950 . S
C2371 C2373 1.327 . S
C2371 C2377 1.429 . S
C2372 C2364 1.574 . S
C2372 H2367 0.949 . S
C2372 C2378 1.368 . S
C2373 C2357 1.349 . S
C2373 H2365 0.950 . S
C2373 C2371 1.327 . S
C2374 C2362 1.349 . S
C2374 H2368 0.950 . S
C2374 C2375 1.327 . S
C2375 H2369 0.950 . S
C2375 C2374 1.327 . S
C2375 C2379 1.429 . S
C2376 C2359 1.574 . S
C2376 H2370 0.949 . S
C2376 C2380 1.368 . S
C2377 C2358 1.429 . S
C2377 C2371 1.429 . S
C2377 C2378 1.523 . S
C2378 C2359 1.368 . S
C2378 C2372 1.368 . S
C2378 C2377 1.523 . S
C2379 C2363 1.429 . S
C2379 C2375 1.429 . S
C2379 C2380 1.523 . S
C2380 C2364 1.368 . S
C2380 C2376 1.368 . S
C2380 C2379 1.523 . S
H2381 C2356 0.950 . S
H2382 C2358 0.950 . S
H2383 C2359 0.949 . S
H2384 C2361 0.950 . S
H2385 C2363 0.950 . S
C2386 C2387 1.349 . S
C2386 C2388 1.327 . S
C2386 H2411 0.950 . S
C2387 C2386 1.349 . S
C2387 C2403 1.349 . S
C2388 C2386 1.327 . S
C2388 C2407 1.429 . S
C2388 H2412 0.950 . S
C2389 C2406 1.574 . S
C2389 C2408 1.368 . S
C2389 H2413 0.949 . S
H2390 C2394 0.949 . S
C2391 C2392 1.349 . S
C2391 C2393 1.327 . S
C2391 H2414 0.950 . S
C2392 C2391 1.349 . S
C2392 C2404 1.349 . S
C2393 C2391 1.327 . S
C2393 C2409 1.429 . S
C2393 H2415 0.950 . S
C2394 H2390 0.949 . S
C2394 C2402 1.574 . S
C2394 C2410 1.368 . S
H2395 C2403 0.950 . S
H2396 C2401 0.950 . S
H2397 C2402 0.949 . S
H2398 C2404 0.950 . S
H2399 C2405 0.950 . S
H2400 C2406 0.949 . S
C2401 H2396 0.950 . S
C2401 C2403 1.327 . S
C2401 C2407 1.429 . S
C2402 C2394 1.574 . S
C2402 H2397 0.949 . S
C2402 C2408 1.368 . S
C2403 C2387 1.349 . S
C2403 H2395 0.950 . S
C2403 C2401 1.327 . S
C2404 C2392 1.349 . S
C2404 H2398 0.950 . S
C2404 C2405 1.327 . S
C2405 H2399 0.950 . S
C2405 C2404 1.327 . S
C2405 C2409 1.429 . S
C2406 C2389 1.574 . S
C2406 H2400 0.949 . S
C2406 C2410 1.368 . S
C2407 C2388 1.429 . S
C2407 C2401 1.429 . S
C2407 C2408 1.523 . S
C2408 C2389 1.368 . S
C2408 C2402 1.368 . S
C2408 C2407 1.523 . S
C2409 C2393 1.429 . S
C2409 C2405 1.429 . S
C2409 C2410 1.523 . S
C2410 C2394 1.368 . S
C2410 C2406 1.368 . S
C2410 C2409 1.523 . S
H2411 C2386 0.950 . S
H2412 C2388 0.950 . S
H2413 C2389 0.949 . S
H2414 C2391 0.950 . S
H2415 C2393 0.950 . S
C2416 C2417 1.349 . S
C2416 C2418 1.327 . S
C2416 H2441 0.950 . S
C2417 C2416 1.349 . S
C2417 C2433 1.349 . S
C2418 C2416 1.327 . S
C2418 C2437 1.429 . S
C2418 H2442 0.950 . S
C2419 C2436 1.574 . S
C2419 C2438 1.368 . S
C2419 H2443 0.949 . S
H2420 C2424 0.949 . S
C2421 C2422 1.349 . S
C2421 C2423 1.327 . S
C2421 H2444 0.950 . S
C2422 C2421 1.349 . S
C2422 C2434 1.349 . S
C2423 C2421 1.327 . S
C2423 C2439 1.429 . S
C2423 H2445 0.950 . S
C2424 H2420 0.949 . S
C2424 C2432 1.574 . S
C2424 C2440 1.368 . S
H2425 C2433 0.950 . S
H2426 C2431 0.950 . S
H2427 C2432 0.949 . S
H2428 C2434 0.950 . S
H2429 C2435 0.950 . S
H2430 C2436 0.949 . S
C2431 H2426 0.950 . S
C2431 C2433 1.327 . S
C2431 C2437 1.429 . S
C2432 C2424 1.574 . S
C2432 H2427 0.949 . S
C2432 C2438 1.368 . S
C2433 C2417 1.349 . S
C2433 H2425 0.950 . S
C2433 C2431 1.327 . S
C2434 C2422 1.349 . S
C2434 H2428 0.950 . S
C2434 C2435 1.327 . S
C2435 H2429 0.950 . S
C2435 C2434 1.327 . S
C2435 C2439 1.429 . S
C2436 C2419 1.574 . S
C2436 H2430 0.949 . S
C2436 C2440 1.368 . S
C2437 C2418 1.429 . S
C2437 C2431 1.429 . S
C2437 C2438 1.523 . S
C2438 C2419 1.368 . S
C2438 C2432 1.368 . S
C2438 C2437 1.523 . S
C2439 C2423 1.429 . S
C2439 C2435 1.429 . S
C2439 C2440 1.523 . S
C2440 C2424 1.368 . S
C2440 C2436 1.368 . S
C2440 C2439 1.523 . S
H2441 C2416 0.950 . S
H2442 C2418 0.950 . S
H2443 C2419 0.949 . S
H2444 C2421 0.950 . S
H2445 C2423 0.950 . S
C2446 C2447 1.349 . S
C2446 C2448 1.327 . S
C2446 H2471 0.950 . S
C2447 C2446 1.349 . S
C2447 C2463 1.349 . S
C2448 C2446 1.327 . S
C2448 C2467 1.429 . S
C2448 H2472 0.950 . S
C2449 C2466 1.574 . S
C2449 C2468 1.368 . S
C2449 H2473 0.949 . S
H2450 C2454 0.949 . S
C2451 C2452 1.349 . S
C2451 C2453 1.327 . S
C2451 H2474 0.950 . S
C2452 C2451 1.349 . S
C2452 C2464 1.349 . S
C2453 C2451 1.327 . S
C2453 C2469 1.429 . S
C2453 H2475 0.950 . S
C2454 H2450 0.949 . S
C2454 C2462 1.574 . S
C2454 C2470 1.368 . S
H2455 C2463 0.950 . S
H2456 C2461 0.950 . S
H2457 C2462 0.949 . S
H2458 C2464 0.950 . S
H2459 C2465 0.950 . S
H2460 C2466 0.949 . S
C2461 H2456 0.950 . S
C2461 C2463 1.327 . S
C2461 C2467 1.429 . S
C2462 C2454 1.574 . S
C2462 H2457 0.949 . S
C2462 C2468 1.368 . S
C2463 C2447 1.349 . S
C2463 H2455 0.950 . S
C2463 C2461 1.327 . S
C2464 C2452 1.349 . S
C2464 H2458 0.950 . S
C2464 C2465 1.327 . S
C2465 H2459 0.950 . S
C2465 C2464 1.327 . S
C2465 C2469 1.429 . S
C2466 C2449 1.574 . S
C2466 H2460 0.949 . S
C2466 C2470 1.368 . S
C2467 C2448 1.429 . S
C2467 C2461 1.429 . S
C2467 C2468 1.523 . S
C2468 C2449 1.368 . S
C2468 C2462 1.368 . S
C2468 C2467 1.523 . S
C2469 C2453 1.429 . S
C2469 C2465 1.429 . S
C2469 C2470 1.523 . S
C2470 C2454 1.368 . S
C2470 C2466 1.368 . S
C2470 C2469 1.523 . S
H2471 C2446 0.950 . S
H2472 C2448 0.950 . S
H2473 C2449 0.949 . S
H2474 C2451 0.950 . S
H2475 C2453 0.950 . S
C2476 C2477 1.321 1_655 S
C2476 C2478 1.336 1_655 S
C2476 H2501 0.971 . S
C2477 C2476 1.321 1_455 S
C2477 C2493 1.349 . S
C2478 C2476 1.336 1_455 S
C2478 C2497 1.429 . S
C2478 H2502 0.950 1_455 S
C2479 C2496 1.574 . S
C2479 C2498 1.368 . S
C2479 H2503 0.949 . S
H2480 C2484 0.949 . S
C2481 C2482 1.349 . S
C2481 C2483 1.327 . S
C2481 H2504 0.950 . S
C2482 C2481 1.349 . S
C2482 C2494 1.349 1_554 S
C2483 C2481 1.327 . S
C2483 C2499 1.429 1_554 S
C2483 H2505 0.950 . S
C2484 H2480 0.949 . S
C2484 C2492 1.574 . S
C2484 C2500 1.368 . S
H2485 C2493 0.950 . S
H2486 C2491 0.950 . S
H2487 C2492 0.949 1_655 S
H2488 C2494 0.950 . S
H2489 C2495 0.950 . S
H2490 C2496 0.949 1_554 S
C2491 H2486 0.950 . S
C2491 C2493 1.327 . S
C2491 C2497 1.429 . S
C2492 C2484 1.574 . S
C2492 H2487 0.949 1_455 S
C2492 C2498 1.368 . S
C2493 C2477 1.349 . S
C2493 H2485 0.950 . S
C2493 C2491 1.327 . S
C2494 C2482 1.349 1_556 S
C2494 H2488 0.950 . S
C2494 C2495 1.327 . S
C2495 H2489 0.950 . S
C2495 C2494 1.327 . S
C2495 C2499 1.429 . S
C2496 C2479 1.574 . S
C2496 H2490 0.949 1_556 S
C2496 C2500 1.368 . S
C2497 C2478 1.429 . S
C2497 C2491 1.429 . S
C2497 C2498 1.523 . S
C2498 C2479 1.368 . S
C2498 C2492 1.368 . S
C2498 C2497 1.523 . S
C2499 C2483 1.429 1_556 S
C2499 C2495 1.429 . S
C2499 C2500 1.523 . S
C2500 C2484 1.368 . S
C2500 C2496 1.368 . S
C2500 C2499 1.523 . S
H2501 C2476 0.971 . S
H2502 C2478 0.950 1_655 S
H2503 C2479 0.949 . S
H2504 C2481 0.950 . S
H2505 C2483 0.950 . S
C2506 C2507 1.349 . S
C2506 C2508 1.327 . S
C2506 H2531 0.950 . S
C2507 C2506 1.349 . S
C2507 C2523 1.349 . S
C2508 C2506 1.327 . S
C2508 C2527 1.429 1_455 S
C2508 H2532 0.950 . S
C2509 C2526 1.574 . S
C2509 C2528 1.368 . S
C2509 H2533 0.949 . S
H2510 C2514 0.949 . S
C2511 C2512 1.349 . S
C2511 C2513 1.327 . S
C2511 H2534 0.950 . S
C2512 C2511 1.349 . S
C2512 C2524 1.349 . S
C2513 C2511 1.327 . S
C2513 C2529 1.429 . S
C2513 H2535 0.950 . S
C2514 H2510 0.949 . S
C2514 C2522 1.574 . S
C2514 C2530 1.368 . S
H2515 C2523 0.950 . S
H2516 C2521 0.950 . S
H2517 C2522 0.949 . S
H2518 C2524 0.950 . S
H2519 C2525 0.950 . S
H2520 C2526 0.949 . S
C2521 H2516 0.950 . S
C2521 C2523 1.327 1_655 S
C2521 C2527 1.429 . S
C2522 C2514 1.574 . S
C2522 H2517 0.949 . S
C2522 C2528 1.368 . S
C2523 C2507 1.349 . S
C2523 H2515 0.950 . S
C2523 C2521 1.327 1_455 S
C2524 C2512 1.349 . S
C2524 H2518 0.950 . S
C2524 C2525 1.327 . S
C2525 H2519 0.950 . S
C2525 C2524 1.327 . S
C2525 C2529 1.429 . S
C2526 C2509 1.574 . S
C2526 H2520 0.949 . S
C2526 C2530 1.368 . S
C2527 C2508 1.429 1_655 S
C2527 C2521 1.429 . S
C2527 C2528 1.523 . S
C2528 C2509 1.368 . S
C2528 C2522 1.368 . S
C2528 C2527 1.523 . S
C2529 C2513 1.429 . S
C2529 C2525 1.429 . S
C2529 C2530 1.523 . S
C2530 C2514 1.368 . S
C2530 C2526 1.368 . S
C2530 C2529 1.523 . S
H2531 C2506 0.950 . S
H2532 C2508 0.950 . S
H2533 C2509 0.949 . S
H2534 C2511 0.950 . S
H2535 C2513 0.950 . S
C2536 C2537 1.349 . S
C2536 C2538 1.327 . S
C2536 H2561 0.950 . S
C2537 C2536 1.349 . S
C2537 C2553 1.349 . S
C2538 C2536 1.327 . S
C2538 C2557 1.429 . S
C2538 H2562 0.950 . S
C2539 C2556 1.574 . S
C2539 C2558 1.368 . S
C2539 H2563 0.949 . S
H2540 C2544 0.949 . S
C2541 C2542 1.349 . S
C2541 C2543 1.327 . S
C2541 H2564 0.950 . S
C2542 C2541 1.349 . S
C2542 C2554 1.349 . S
C2543 C2541 1.327 . S
C2543 C2559 1.429 . S
C2543 H2565 0.950 . S
C2544 H2540 0.949 . S
C2544 C2552 1.574 . S
C2544 C2560 1.368 . S
H2545 C2553 0.950 . S
H2546 C2551 0.950 . S
H2547 C2552 0.949 . S
H2548 C2554 0.950 . S
H2549 C2555 0.950 . S
H2550 C2556 0.949 . S
C2551 H2546 0.950 . S
C2551 C2553 1.327 . S
C2551 C2557 1.429 . S
C2552 C2544 1.574 . S
C2552 H2547 0.949 . S
C2552 C2558 1.368 . S
C2553 C2537 1.349 . S
C2553 H2545 0.950 . S
C2553 C2551 1.327 . S
C2554 C2542 1.349 . S
C2554 H2548 0.950 . S
C2554 C2555 1.327 . S
C2555 H2549 0.950 . S
C2555 C2554 1.327 . S
C2555 C2559 1.429 . S
C2556 C2539 1.574 . S
C2556 H2550 0.949 . S
C2556 C2560 1.368 . S
C2557 C2538 1.429 . S
C2557 C2551 1.429 . S
C2557 C2558 1.523 . S
C2558 C2539 1.368 . S
C2558 C2552 1.368 . S
C2558 C2557 1.523 . S
C2559 C2543 1.429 . S
C2559 C2555 1.429 . S
C2559 C2560 1.523 . S
C2560 C2544 1.368 . S
C2560 C2556 1.368 . S
C2560 C2559 1.523 . S
H2561 C2536 0.950 . S
H2562 C2538 0.950 . S
H2563 C2539 0.949 . S
H2564 C2541 0.950 . S
H2565 C2543 0.950 . S
C2566 C2567 1.349 . S
C2566 C2568 1.327 . S
C2566 H2591 0.950 . S
C2567 C2566 1.349 . S
C2567 C2583 1.349 . S
C2568 C2566 1.327 . S
C2568 C2587 1.429 . S
C2568 H2592 0.950 . S
C2569 C2586 1.574 . S
C2569 C2588 1.368 . S
C2569 H2593 0.949 . S
H2570 C2574 0.949 . S
C2571 C2572 1.349 . S
C2571 C2573 1.327 . S
C2571 H2594 0.950 . S
C2572 C2571 1.349 . S
C2572 C2584 1.349 . S
C2573 C2571 1.327 . S
C2573 C2589 1.429 . S
C2573 H2595 0.950 . S
C2574 H2570 0.949 . S
C2574 C2582 1.574 . S
C2574 C2590 1.368 . S
H2575 C2583 0.950 . S
H2576 C2581 0.950 . S
H2577 C2582 0.949 . S
H2578 C2584 0.950 . S
H2579 C2585 0.950 . S
H2580 C2586 0.949 . S
C2581 H2576 0.950 . S
C2581 C2583 1.327 . S
C2581 C2587 1.429 . S
C2582 C2574 1.574 . S
C2582 H2577 0.949 . S
C2582 C2588 1.368 . S
C2583 C2567 1.349 . S
C2583 H2575 0.950 . S
C2583 C2581 1.327 . S
C2584 C2572 1.349 . S
C2584 H2578 0.950 . S
C2584 C2585 1.327 . S
C2585 H2579 0.950 . S
C2585 C2584 1.327 . S
C2585 C2589 1.429 . S
C2586 C2569 1.574 . S
C2586 H2580 0.949 . S
C2586 C2590 1.368 . S
C2587 C2568 1.429 . S
C2587 C2581 1.429 . S
C2587 C2588 1.523 . S
C2588 C2569 1.368 . S
C2588 C2582 1.368 . S
C2588 C2587 1.523 . S
C2589 C2573 1.429 . S
C2589 C2585 1.429 . S
C2589 C2590 1.523 . S
C2590 C2574 1.368 . S
C2590 C2586 1.368 . S
C2590 C2589 1.523 . S
H2591 C2566 0.950 . S
H2592 C2568 0.950 . S
H2593 C2569 0.949 . S
H2594 C2571 0.950 . S
H2595 C2573 0.950 . S
C2596 C2597 1.349 . S
C2596 C2598 1.327 . S
C2596 H2621 0.950 . S
C2597 C2596 1.349 . S
C2597 C2613 1.349 . S
C2598 C2596 1.327 . S
C2598 C2617 1.429 . S
C2598 H2622 0.950 . S
C2599 C2616 1.574 . S
C2599 C2618 1.368 . S
C2599 H2623 0.949 . S
H2600 C2604 0.949 . S
C2601 C2602 1.349 . S
C2601 C2603 1.327 . S
C2601 H2624 0.950 . S
C2602 C2601 1.349 . S
C2602 C2614 1.349 . S
C2603 C2601 1.327 . S
C2603 C2619 1.429 . S
C2603 H2625 0.950 . S
C2604 H2600 0.949 . S
C2604 C2612 1.574 . S
C2604 C2620 1.368 . S
H2605 C2613 0.950 . S
H2606 C2611 0.950 . S
H2607 C2612 0.949 . S
H2608 C2614 0.950 . S
H2609 C2615 0.950 . S
H2610 C2616 0.949 . S
C2611 H2606 0.950 . S
C2611 C2613 1.327 . S
C2611 C2617 1.429 . S
C2612 C2604 1.574 . S
C2612 H2607 0.949 . S
C2612 C2618 1.368 . S
C2613 C2597 1.349 . S
C2613 H2605 0.950 . S
C2613 C2611 1.327 . S
C2614 C2602 1.349 . S
C2614 H2608 0.950 . S
C2614 C2615 1.327 . S
C2615 H2609 0.950 . S
C2615 C2614 1.327 . S
C2615 C2619 1.429 . S
C2616 C2599 1.574 . S
C2616 H2610 0.949 . S
C2616 C2620 1.368 . S
C2617 C2598 1.429 . S
C2617 C2611 1.429 . S
C2617 C2618 1.523 . S
C2618 C2599 1.368 . S
C2618 C2612 1.368 . S
C2618 C2617 1.523 . S
C2619 C2603 1.429 . S
C2619 C2615 1.429 . S
C2619 C2620 1.523 . S
C2620 C2604 1.368 . S
C2620 C2616 1.368 . S
C2620 C2619 1.523 . S
H2621 C2596 0.950 . S
H2622 C2598 0.950 . S
H2623 C2599 0.949 . S
H2624 C2601 0.950 . S
H2625 C2603 0.950 . S
C2626 C2627 1.349 . S
C2626 C2628 1.327 . S
C2626 H2651 0.950 . S
C2627 C2626 1.349 . S
C2627 C2643 1.349 . S
C2628 C2626 1.327 . S
C2628 C2647 1.429 . S
C2628 H2652 0.950 . S
C2629 C2646 1.574 . S
C2629 C2648 1.368 . S
C2629 H2653 0.949 . S
H2630 C2634 0.949 . S
C2631 C2632 1.349 . S
C2631 C2633 1.327 . S
C2631 H2654 0.950 . S
C2632 C2631 1.349 . S
C2632 C2644 1.349 . S
C2633 C2631 1.327 . S
C2633 C2649 1.429 . S
C2633 H2655 0.950 . S
C2634 H2630 0.949 . S
C2634 C2642 1.574 . S
C2634 C2650 1.368 . S
H2635 C2643 0.950 . S
H2636 C2641 0.950 . S
H2637 C2642 0.949 . S
H2638 C2644 0.950 . S
H2639 C2645 0.950 . S
H2640 C2646 0.949 . S
C2641 H2636 0.950 . S
C2641 C2643 1.327 . S
C2641 C2647 1.429 . S
C2642 C2634 1.574 . S
C2642 H2637 0.949 . S
C2642 C2648 1.368 . S
C2643 C2627 1.349 . S
C2643 H2635 0.950 . S
C2643 C2641 1.327 . S
C2644 C2632 1.349 . S
C2644 H2638 0.950 . S
C2644 C2645 1.327 . S
C2645 H2639 0.950 . S
C2645 C2644 1.327 . S
C2645 C2649 1.429 . S
C2646 C2629 1.574 . S
C2646 H2640 0.949 . S
C2646 C2650 1.368 . S
C2647 C2628 1.429 . S
C2647 C2641 1.429 . S
C2647 C2648 1.523 . S
C2648 C2629 1.368 . S
C2648 C2642 1.368 . S
C2648 C2647 1.523 . S
C2649 C2633 1.429 . S
C2649 C2645 1.429 . S
C2649 C2650 1.523 . S
C2650 C2634 1.368 . S
C2650 C2646 1.368 . S
C2650 C2649 1.523 . S
H2651 C2626 0.950 . S
H2652 C2628 0.950 . S
H2653 C2629 0.949 . S
H2654 C2631 0.950 . S
H2655 C2633 0.950 . S
C2656 C2657 1.349 . S
C2656 C2658 1.327 . S
C2656 H2681 0.950 . S
C2657 C2656 1.349 . S
C2657 C2673 1.349 . S
C2658 C2656 1.327 . S
C2658 C2677 1.429 . S
C2658 H2682 0.950 . S
C2659 C2676 1.574 . S
C2659 C2678 1.368 . S
C2659 H2683 0.949 . S
H2660 C2664 0.949 . S
C2661 C2662 1.349 . S
C2661 C2663 1.327 . S
C2661 H2684 0.950 . S
C2662 C2661 1.349 . S
C2662 C2674 1.349 . S
C2663 C2661 1.327 . S
C2663 C2679 1.429 . S
C2663 H2685 0.950 . S
C2664 H2660 0.949 . S
C2664 C2672 1.574 . S
C2664 C2680 1.368 . S
H2665 C2673 0.950 . S
H2666 C2671 0.950 . S
H2667 C2672 0.949 . S
H2668 C2674 0.950 . S
H2669 C2675 0.950 . S
H2670 C2676 0.949 . S
C2671 H2666 0.950 . S
C2671 C2673 1.327 . S
C2671 C2677 1.429 . S
C2672 C2664 1.574 . S
C2672 H2667 0.949 . S
C2672 C2678 1.368 . S
C2673 C2657 1.349 . S
C2673 H2665 0.950 . S
C2673 C2671 1.327 . S
C2674 C2662 1.349 . S
C2674 H2668 0.950 . S
C2674 C2675 1.327 . S
C2675 H2669 0.950 . S
C2675 C2674 1.327 . S
C2675 C2679 1.429 . S
C2676 C2659 1.574 . S
C2676 H2670 0.949 . S
C2676 C2680 1.368 . S
C2677 C2658 1.429 . S
C2677 C2671 1.429 . S
C2677 C2678 1.523 . S
C2678 C2659 1.368 . S
C2678 C2672 1.368 . S
C2678 C2677 1.523 . S
C2679 C2663 1.429 . S
C2679 C2675 1.429 . S
C2679 C2680 1.523 . S
C2680 C2664 1.368 . S
C2680 C2676 1.368 . S
C2680 C2679 1.523 . S
H2681 C2656 0.950 . S
H2682 C2658 0.950 . S
H2683 C2659 0.949 . S
H2684 C2661 0.950 . S
H2685 C2663 0.950 . S
C2686 C2687 1.349 1_556 S
C2686 C2688 1.327 . S
C2686 H2711 0.950 . S
C2687 C2686 1.349 1_554 S
C2687 C2703 1.349 . S
C2688 C2686 1.327 . S
C2688 C2707 1.429 . S
C2688 H2712 0.950 . S
C2689 C2706 1.574 . S
C2689 C2708 1.368 . S
C2689 H2713 0.949 . S
H2690 C2694 0.949 . S
C2691 C2692 1.349 . S
C2691 C2693 1.327 . S
C2691 H2714 0.950 . S
C2692 C2691 1.349 . S
C2692 C2704 1.349 . S
C2693 C2691 1.327 . S
C2693 C2709 1.429 . S
C2693 H2715 0.950 . S
C2694 H2690 0.949 . S
C2694 C2702 1.574 . S
C2694 C2710 1.368 . S
H2695 C2703 0.950 . S
H2696 C2701 0.950 . S
H2697 C2702 0.949 . S
H2698 C2704 0.950 . S
H2699 C2705 0.950 . S
H2700 C2706 0.949 . S
C2701 H2696 0.950 . S
C2701 C2703 1.327 1_556 S
C2701 C2707 1.429 . S
C2702 C2694 1.574 . S
C2702 H2697 0.949 . S
C2702 C2708 1.368 . S
C2703 C2687 1.349 . S
C2703 H2695 0.950 . S
C2703 C2701 1.327 1_554 S
C2704 C2692 1.349 . S
C2704 H2698 0.950 . S
C2704 C2705 1.327 . S
C2705 H2699 0.950 . S
C2705 C2704 1.327 . S
C2705 C2709 1.429 . S
C2706 C2689 1.574 . S
C2706 H2700 0.949 . S
C2706 C2710 1.368 . S
C2707 C2688 1.429 . S
C2707 C2701 1.429 . S
C2707 C2708 1.523 . S
C2708 C2689 1.368 . S
C2708 C2702 1.368 . S
C2708 C2707 1.523 . S
C2709 C2693 1.429 . S
C2709 C2705 1.429 . S
C2709 C2710 1.523 . S
C2710 C2694 1.368 . S
C2710 C2706 1.368 . S
C2710 C2709 1.523 . S
H2711 C2686 0.950 . S
H2712 C2688 0.950 . S
H2713 C2689 0.949 . S
H2714 C2691 0.950 . S
H2715 C2693 0.950 . S
C2716 C2717 1.349 . S
C2716 C2718 1.327 . S
C2716 H2741 0.950 . S
C2717 C2716 1.349 . S
C2717 C2733 1.349 . S
C2718 C2716 1.327 . S
C2718 C2737 1.429 . S
C2718 H2742 0.950 . S
C2719 C2736 1.574 . S
C2719 C2738 1.368 . S
C2719 H2743 0.949 . S
H2720 C2724 0.949 . S
C2721 C2722 1.349 . S
C2721 C2723 1.327 . S
C2721 H2744 0.950 . S
C2722 C2721 1.349 . S
C2722 C2734 1.349 . S
C2723 C2721 1.327 . S
C2723 C2739 1.429 . S
C2723 H2745 0.950 . S
C2724 H2720 0.949 . S
C2724 C2732 1.574 . S
C2724 C2740 1.368 . S
H2725 C2733 0.950 . S
H2726 C2731 0.950 . S
H2727 C2732 0.949 . S
H2728 C2734 0.950 . S
H2729 C2735 0.950 . S
H2730 C2736 0.949 . S
C2731 H2726 0.950 . S
C2731 C2733 1.327 . S
C2731 C2737 1.429 . S
C2732 C2724 1.574 . S
C2732 H2727 0.949 . S
C2732 C2738 1.368 . S
C2733 C2717 1.349 . S
C2733 H2725 0.950 . S
C2733 C2731 1.327 . S
C2734 C2722 1.349 . S
C2734 H2728 0.950 . S
C2734 C2735 1.327 . S
C2735 H2729 0.950 . S
C2735 C2734 1.327 . S
C2735 C2739 1.429 . S
C2736 C2719 1.574 . S
C2736 H2730 0.949 . S
C2736 C2740 1.368 . S
C2737 C2718 1.429 . S
C2737 C2731 1.429 . S
C2737 C2738 1.523 . S
C2738 C2719 1.368 . S
C2738 C2732 1.368 . S
C2738 C2737 1.523 . S
C2739 C2723 1.429 . S
C2739 C2735 1.429 . S
C2739 C2740 1.523 . S
C2740 C2724 1.368 . S
C2740 C2736 1.368 . S
C2740 C2739 1.523 . S
H2741 C2716 0.950 . S
H2742 C2718 0.950 . S
H2743 C2719 0.949 . S
H2744 C2721 0.950 . S
H2745 C2723 0.950 . S
C2746 C2747 1.349 . S
C2746 C2748 1.327 . S
C2746 H2771 0.950 . S
C2747 C2746 1.349 . S
C2747 C2763 1.349 . S
C2748 C2746 1.327 . S
C2748 C2767 1.429 . S
C2748 H2772 0.950 . S
C2749 C2766 1.574 . S
C2749 C2768 1.368 . S
C2749 H2773 0.949 . S
H2750 C2754 0.949 . S
C2751 C2752 1.349 . S
C2751 C2753 1.327 . S
C2751 H2774 0.950 . S
C2752 C2751 1.349 . S
C2752 C2764 1.349 . S
C2753 C2751 1.327 . S
C2753 C2769 1.429 . S
C2753 H2775 0.950 . S
C2754 H2750 0.949 . S
C2754 C2762 1.574 . S
C2754 C2770 1.368 . S
H2755 C2763 0.950 . S
H2756 C2761 0.950 . S
H2757 C2762 0.949 . S
H2758 C2764 0.950 . S
H2759 C2765 0.950 . S
H2760 C2766 0.949 . S
C2761 H2756 0.950 . S
C2761 C2763 1.327 . S
C2761 C2767 1.429 . S
C2762 C2754 1.574 . S
C2762 H2757 0.949 . S
C2762 C2768 1.368 . S
C2763 C2747 1.349 . S
C2763 H2755 0.950 . S
C2763 C2761 1.327 . S
C2764 C2752 1.349 . S
C2764 H2758 0.950 . S
C2764 C2765 1.327 . S
C2765 H2759 0.950 . S
C2765 C2764 1.327 . S
C2765 C2769 1.429 . S
C2766 C2749 1.574 . S
C2766 H2760 0.949 . S
C2766 C2770 1.368 . S
C2767 C2748 1.429 . S
C2767 C2761 1.429 . S
C2767 C2768 1.523 . S
C2768 C2749 1.368 . S
C2768 C2762 1.368 . S
C2768 C2767 1.523 . S
C2769 C2753 1.429 . S
C2769 C2765 1.429 . S
C2769 C2770 1.523 . S
C2770 C2754 1.368 . S
C2770 C2766 1.368 . S
C2770 C2769 1.523 . S
H2771 C2746 0.950 . S
H2772 C2748 0.950 . S
H2773 C2749 0.949 . S
H2774 C2751 0.950 . S
H2775 C2753 0.950 . S
C2776 C2777 1.349 . S
C2776 C2778 1.327 . S
C2776 H2801 0.950 . S
C2777 C2776 1.349 . S
C2777 C2793 1.349 . S
C2778 C2776 1.327 . S
C2778 C2797 1.429 . S
C2778 H2802 0.950 . S
C2779 C2796 1.574 . S
C2779 C2798 1.368 . S
C2779 H2803 0.949 . S
H2780 C2784 0.949 . S
C2781 C2782 1.349 . S
C2781 C2783 1.327 . S
C2781 H2804 0.950 . S
C2782 C2781 1.349 . S
C2782 C2794 1.349 . S
C2783 C2781 1.327 . S
C2783 C2799 1.429 . S
C2783 H2805 0.950 . S
C2784 H2780 0.949 . S
C2784 C2792 1.574 . S
C2784 C2800 1.368 . S
H2785 C2793 0.950 . S
H2786 C2791 0.950 . S
H2787 C2792 0.949 . S
H2788 C2794 0.950 . S
H2789 C2795 0.950 . S
H2790 C2796 0.949 . S
C2791 H2786 0.950 . S
C2791 C2793 1.327 . S
C2791 C2797 1.429 . S
C2792 C2784 1.574 . S
C2792 H2787 0.949 . S
C2792 C2798 1.368 . S
C2793 C2777 1.349 . S
C2793 H2785 0.950 . S
C2793 C2791 1.327 . S
C2794 C2782 1.349 . S
C2794 H2788 0.950 . S
C2794 C2795 1.327 . S
C2795 H2789 0.950 . S
C2795 C2794 1.327 . S
C2795 C2799 1.429 . S
C2796 C2779 1.574 . S
C2796 H2790 0.949 . S
C2796 C2800 1.368 . S
C2797 C2778 1.429 . S
C2797 C2791 1.429 . S
C2797 C2798 1.523 . S
C2798 C2779 1.368 . S
C2798 C2792 1.368 . S
C2798 C2797 1.523 . S
C2799 C2783 1.429 . S
C2799 C2795 1.429 . S
C2799 C2800 1.523 . S
C2800 C2784 1.368 . S
C2800 C2796 1.368 . S
C2800 C2799 1.523 . S
H2801 C2776 0.950 . S
H2802 C2778 0.950 . S
H2803 C2779 0.949 . S
H2804 C2781 0.950 . S
H2805 C2783 0.950 . S
C2806 C2807 1.349 . S
C2806 C2808 1.327 . S
C2806 H2831 0.950 . S
C2807 C2806 1.349 . S
C2807 C2823 1.349 . S
C2808 C2806 1.327 . S
C2808 C2827 1.429 . S
C2808 H2832 0.950 . S
C2809 C2826 1.574 . S
C2809 C2828 1.368 . S
C2809 H2833 0.949 . S
H2810 C2814 0.949 . S
C2811 C2812 1.349 . S
C2811 C2813 1.327 . S
C2811 H2834 0.950 . S
C2812 C2811 1.349 . S
C2812 C2824 1.349 . S
C2813 C2811 1.327 . S
C2813 C2829 1.429 . S
C2813 H2835 0.950 . S
C2814 H2810 0.949 . S
C2814 C2822 1.574 . S
C2814 C2830 1.368 . S
H2815 C2823 0.950 . S
H2816 C2821 0.950 . S
H2817 C2822 0.949 . S
H2818 C2824 0.950 . S
H2819 C2825 0.950 . S
H2820 C2826 0.949 . S
C2821 H2816 0.950 . S
C2821 C2823 1.327 . S
C2821 C2827 1.429 . S
C2822 C2814 1.574 . S
C2822 H2817 0.949 . S
C2822 C2828 1.368 . S
C2823 C2807 1.349 . S
C2823 H2815 0.950 . S
C2823 C2821 1.327 . S
C2824 C2812 1.349 . S
C2824 H2818 0.950 . S
C2824 C2825 1.327 . S
C2825 H2819 0.950 . S
C2825 C2824 1.327 . S
C2825 C2829 1.429 . S
C2826 C2809 1.574 . S
C2826 H2820 0.949 . S
C2826 C2830 1.368 . S
C2827 C2808 1.429 . S
C2827 C2821 1.429 . S
C2827 C2828 1.523 . S
C2828 C2809 1.368 . S
C2828 C2822 1.368 . S
C2828 C2827 1.523 . S
C2829 C2813 1.429 . S
C2829 C2825 1.429 . S
C2829 C2830 1.523 . S
C2830 C2814 1.368 . S
C2830 C2826 1.368 . S
C2830 C2829 1.523 . S
H2831 C2806 0.950 . S
H2832 C2808 0.950 . S
H2833 C2809 0.949 . S
H2834 C2811 0.950 . S
H2835 C2813 0.950 . S
C2836 C2837 1.349 . S
C2836 C2838 1.327 . S
C2836 H2861 0.950 . S
C2837 C2836 1.349 . S
C2837 C2853 1.349 . S
C2838 C2836 1.327 . S
C2838 C2857 1.429 . S
C2838 H2862 0.950 . S
C2839 C2856 1.574 . S
C2839 C2858 1.368 . S
C2839 H2863 0.949 . S
H2840 C2844 0.949 . S
C2841 C2842 1.349 . S
C2841 C2843 1.327 . S
C2841 H2864 0.950 . S
C2842 C2841 1.349 . S
C2842 C2854 1.349 . S
C2843 C2841 1.327 . S
C2843 C2859 1.429 . S
C2843 H2865 0.950 . S
C2844 H2840 0.949 . S
C2844 C2852 1.574 . S
C2844 C2860 1.368 . S
H2845 C2853 0.950 . S
H2846 C2851 0.950 . S
H2847 C2852 0.949 . S
H2848 C2854 0.950 . S
H2849 C2855 0.950 . S
H2850 C2856 0.949 . S
C2851 H2846 0.950 . S
C2851 C2853 1.327 . S
C2851 C2857 1.429 . S
C2852 C2844 1.574 . S
C2852 H2847 0.949 . S
C2852 C2858 1.368 . S
C2853 C2837 1.349 . S
C2853 H2845 0.950 . S
C2853 C2851 1.327 . S
C2854 C2842 1.349 . S
C2854 H2848 0.950 . S
C2854 C2855 1.327 . S
C2855 H2849 0.950 . S
C2855 C2854 1.327 . S
C2855 C2859 1.429 . S
C2856 C2839 1.574 . S
C2856 H2850 0.949 . S
C2856 C2860 1.368 . S
C2857 C2838 1.429 . S
C2857 C2851 1.429 . S
C2857 C2858 1.523 . S
C2858 C2839 1.368 . S
C2858 C2852 1.368 . S
C2858 C2857 1.523 . S
C2859 C2843 1.429 . S
C2859 C2855 1.429 . S
C2859 C2860 1.523 . S
C2860 C2844 1.368 . S
C2860 C2856 1.368 . S
C2860 C2859 1.523 . S
H2861 C2836 0.950 . S
H2862 C2838 0.950 . S
H2863 C2839 0.949 . S
H2864 C2841 0.950 . S
H2865 C2843 0.950 . S
C2866 C2867 1.349 . S
C2866 C2868 1.327 . S
C2866 H2891 0.950 . S
C2867 C2866 1.349 . S
C2867 C2883 1.349 . S
C2868 C2866 1.327 . S
C2868 C2887 1.429 . S
C2868 H2892 0.950 . S
C2869 C2886 1.574 . S
C2869 C2888 1.368 . S
C2869 H2893 0.949 . S
H2870 C2874 0.949 . S
C2871 C2872 1.349 . S
C2871 C2873 1.327 . S
C2871 H2894 0.950 . S
C2872 C2871 1.349 . S
C2872 C2884 1.349 . S
C2873 C2871 1.327 . S
C2873 C2889 1.429 . S
C2873 H2895 0.950 . S
C2874 H2870 0.949 . S
C2874 C2882 1.574 . S
C2874 C2890 1.368 . S
H2875 C2883 0.950 . S
H2876 C2881 0.950 . S
H2877 C2882 0.949 . S
H2878 C2884 0.950 . S
H2879 C2885 0.950 . S
H2880 C2886 0.949 . S
C2881 H2876 0.950 . S
C2881 C2883 1.327 . S
C2881 C2887 1.429 . S
C2882 C2874 1.574 . S
C2882 H2877 0.949 . S
C2882 C2888 1.368 . S
C2883 C2867 1.349 . S
C2883 H2875 0.950 . S
C2883 C2881 1.327 . S
C2884 C2872 1.349 . S
C2884 H2878 0.950 . S
C2884 C2885 1.327 . S
C2885 H2879 0.950 . S
C2885 C2884 1.327 . S
C2885 C2889 1.429 . S
C2886 C2869 1.574 . S
C2886 H2880 0.949 . S
C2886 C2890 1.368 . S
C2887 C2868 1.429 . S
C2887 C2881 1.429 . S
C2887 C2888 1.523 . S
C2888 C2869 1.368 . S
C2888 C2882 1.368 . S
C2888 C2887 1.523 . S
C2889 C2873 1.429 . S
C2889 C2885 1.429 . S
C2889 C2890 1.523 . S
C2890 C2874 1.368 . S
C2890 C2886 1.368 . S
C2890 C2889 1.523 . S
H2891 C2866 0.950 . S
H2892 C2868 0.950 . S
H2893 C2869 0.949 . S
H2894 C2871 0.950 . S
H2895 C2873 0.950 . S
C2896 C2897 1.349 . S
C2896 C2898 1.327 . S
C2896 H2921 0.950 . S
C2897 C2896 1.349 . S
C2897 C2913 1.349 . S
C2898 C2896 1.327 . S
C2898 C2917 1.429 . S
C2898 H2922 0.950 . S
C2899 C2916 1.574 . S
C2899 C2918 1.368 . S
C2899 H2923 0.949 . S
H2900 C2904 0.949 . S
C2901 C2902 1.349 . S
C2901 C2903 1.327 . S
C2901 H2924 0.950 . S
C2902 C2901 1.349 . S
C2902 C2914 1.349 . S
C2903 C2901 1.327 . S
C2903 C2919 1.429 . S
C2903 H2925 0.950 . S
C2904 H2900 0.949 . S
C2904 C2912 1.574 . S
C2904 C2920 1.368 . S
H2905 C2913 0.950 . S
H2906 C2911 0.950 . S
H2907 C2912 0.949 . S
H2908 C2914 0.950 . S
H2909 C2915 0.950 . S
H2910 C2916 0.949 . S
C2911 H2906 0.950 . S
C2911 C2913 1.327 . S
C2911 C2917 1.429 . S
C2912 C2904 1.574 . S
C2912 H2907 0.949 . S
C2912 C2918 1.368 . S
C2913 C2897 1.349 . S
C2913 H2905 0.950 . S
C2913 C2911 1.327 . S
C2914 C2902 1.349 . S
C2914 H2908 0.950 . S
C2914 C2915 1.327 . S
C2915 H2909 0.950 . S
C2915 C2914 1.327 . S
C2915 C2919 1.429 . S
C2916 C2899 1.574 . S
C2916 H2910 0.949 . S
C2916 C2920 1.368 . S
C2917 C2898 1.429 . S
C2917 C2911 1.429 . S
C2917 C2918 1.523 . S
C2918 C2899 1.368 . S
C2918 C2912 1.368 . S
C2918 C2917 1.523 . S
C2919 C2903 1.429 . S
C2919 C2915 1.429 . S
C2919 C2920 1.523 . S
C2920 C2904 1.368 . S
C2920 C2916 1.368 . S
C2920 C2919 1.523 . S
H2921 C2896 0.950 . S
H2922 C2898 0.950 . S
H2923 C2899 0.949 . S
H2924 C2901 0.950 . S
H2925 C2903 0.950 . S
C2926 C2927 1.349 . S
C2926 C2928 1.327 . S
C2926 H2951 0.950 . S
C2927 C2926 1.349 . S
C2927 C2943 1.349 . S
C2928 C2926 1.327 . S
C2928 C2947 1.429 . S
C2928 H2952 0.950 . S
C2929 C2946 1.574 . S
C2929 C2948 1.368 . S
C2929 H2953 0.949 . S
H2930 C2934 0.949 . S
C2931 C2932 1.349 . S
C2931 C2933 1.327 . S
C2931 H2954 0.950 . S
C2932 C2931 1.349 . S
C2932 C2944 1.349 . S
C2933 C2931 1.327 . S
C2933 C2949 1.429 . S
C2933 H2955 0.950 . S
C2934 H2930 0.949 . S
C2934 C2942 1.574 . S
C2934 C2950 1.368 . S
H2935 C2943 0.950 . S
H2936 C2941 0.950 . S
H2937 C2942 0.949 . S
H2938 C2944 0.950 . S
H2939 C2945 0.950 . S
H2940 C2946 0.949 . S
C2941 H2936 0.950 . S
C2941 C2943 1.327 . S
C2941 C2947 1.429 . S
C2942 C2934 1.574 . S
C2942 H2937 0.949 . S
C2942 C2948 1.368 . S
C2943 C2927 1.349 . S
C2943 H2935 0.950 . S
C2943 C2941 1.327 . S
C2944 C2932 1.349 . S
C2944 H2938 0.950 . S
C2944 C2945 1.327 . S
C2945 H2939 0.950 . S
C2945 C2944 1.327 . S
C2945 C2949 1.429 . S
C2946 C2929 1.574 . S
C2946 H2940 0.949 . S
C2946 C2950 1.368 . S
C2947 C2928 1.429 . S
C2947 C2941 1.429 . S
C2947 C2948 1.523 . S
C2948 C2929 1.368 . S
C2948 C2942 1.368 . S
C2948 C2947 1.523 . S
C2949 C2933 1.429 . S
C2949 C2945 1.429 . S
C2949 C2950 1.523 . S
C2950 C2934 1.368 . S
C2950 C2946 1.368 . S
C2950 C2949 1.523 . S
H2951 C2926 0.950 . S
H2952 C2928 0.950 . S
H2953 C2929 0.949 . S
H2954 C2931 0.950 . S
H2955 C2933 0.950 . S
C2956 C2957 1.349 . S
C2956 C2958 1.327 . S
C2956 H2981 0.948 1_565 S
C2957 C2956 1.349 . S
C2957 C2973 1.349 . S
C2958 C2956 1.327 . S
C2958 C2977 1.429 . S
C2958 H2982 0.950 . S
C2959 C2976 1.574 . S
C2959 C2978 1.368 . S
C2959 H2983 0.949 . S
H2960 C2964 0.949 . S
C2961 C2962 1.349 . S
C2961 C2963 1.327 . S
C2961 H2984 0.950 . S
C2962 C2961 1.349 . S
C2962 C2974 1.349 . S
C2963 C2961 1.327 . S
C2963 C2979 1.429 . S
C2963 H2985 0.950 . S
C2964 H2960 0.949 . S
C2964 C2972 1.574 . S
C2964 C2980 1.368 . S
H2965 C2973 0.950 . S
H2966 C2971 0.950 . S
H2967 C2972 0.949 . S
H2968 C2974 0.950 . S
H2969 C2975 0.950 . S
H2970 C2976 0.949 . S
C2971 H2966 0.950 . S
C2971 C2973 1.327 . S
C2971 C2977 1.429 . S
C2972 C2964 1.574 . S
C2972 H2967 0.949 . S
C2972 C2978 1.368 . S
C2973 C2957 1.349 . S
C2973 H2965 0.950 . S
C2973 C2971 1.327 . S
C2974 C2962 1.349 . S
C2974 H2968 0.950 . S
C2974 C2975 1.327 . S
C2975 H2969 0.950 . S
C2975 C2974 1.327 . S
C2975 C2979 1.429 . S
C2976 C2959 1.574 . S
C2976 H2970 0.949 . S
C2976 C2980 1.368 . S
C2977 C2958 1.429 . S
C2977 C2971 1.429 . S
C2977 C2978 1.523 . S
C2978 C2959 1.368 . S
C2978 C2972 1.368 . S
C2978 C2977 1.523 . S
C2979 C2963 1.429 . S
C2979 C2975 1.429 . S
C2979 C2980 1.523 . S
C2980 C2964 1.368 . S
C2980 C2976 1.368 . S
C2980 C2979 1.523 . S
H2981 C2956 0.948 1_545 S
H2982 C2958 0.950 . S
H2983 C2959 0.949 . S
H2984 C2961 0.950 . S
H2985 C2963 0.950 . S
C2986 C2987 1.343 1_556 S
C2986 C2988 1.327 . S
C2986 H3011 0.950 . S
C2987 C2986 1.343 1_554 S
C2987 C3003 1.354 . S
C2988 C2986 1.327 . S
C2988 C3007 1.429 1_556 S
C2988 H3012 0.950 . S
C2989 C3006 1.574 . S
C2989 C3008 1.368 . S
C2989 H3013 0.949 . S
H2990 C2994 0.949 1_545 S
C2991 C2992 1.349 . S
C2991 C2993 1.327 1_545 S
C2991 H3014 0.929 1_545 S
C2992 C2991 1.349 . S
C2992 C3004 1.349 . S
C2993 C2991 1.327 1_565 S
C2993 C3009 1.429 . S
C2993 H3015 0.950 . S
C2994 H2990 0.949 1_565 S
C2994 C3002 1.574 . S
C2994 C3010 1.368 1_556 S
H2995 C3003 0.950 . S
H2996 C3001 0.950 . S
H2997 C3002 0.949 . S
H2998 C3004 0.950 1_556 S
H2999 C3005 0.950 1_556 S
H3000 C3006 0.949 . S
C3001 H2996 0.950 . S
C3001 C3003 1.327 . S
C3001 C3007 1.429 . S
C3002 C2994 1.574 . S
C3002 H2997 0.949 . S
C3002 C3008 1.368 1_556 S
C3003 C2987 1.354 . S
C3003 H2995 0.950 . S
C3003 C3001 1.327 . S
C3004 C2992 1.349 . S
C3004 H2998 0.950 1_554 S
C3004 C3005 1.327 . S
C3005 H2999 0.950 1_554 S
C3005 C3004 1.327 . S
C3005 C3009 1.429 1_545 S
C3006 C2989 1.574 . S
C3006 H3000 0.949 . S
C3006 C3010 1.368 . S
C3007 C2988 1.429 1_554 S
C3007 C3001 1.429 . S
C3007 C3008 1.523 . S
C3008 C2989 1.368 . S
C3008 C3002 1.368 1_554 S
C3008 C3007 1.523 . S
C3009 C2993 1.429 . S
C3009 C3005 1.429 1_565 S
C3009 C3010 1.523 . S
C3010 C2994 1.368 1_554 S
C3010 C3006 1.368 . S
C3010 C3009 1.523 . S
H3011 C2986 0.950 . S
H3012 C2988 0.950 . S
H3013 C2989 0.949 . S
H3014 C2991 0.929 1_565 S
H3015 C2993 0.950 . S
C3016 C3017 1.349 . S
C3016 C3018 1.327 . S
C3016 H3041 0.950 . S
C3017 C3016 1.349 . S
C3017 C3033 1.349 . S
C3018 C3016 1.327 . S
C3018 C3037 1.429 . S
C3018 H3042 0.950 . S
C3019 C3036 1.574 . S
C3019 C3038 1.368 . S
C3019 H3043 0.949 . S
H3020 C3024 0.949 . S
C3021 C3022 1.349 . S
C3021 C3023 1.327 . S
C3021 H3044 0.950 . S
C3022 C3021 1.349 . S
C3022 C3034 1.349 . S
C3023 C3021 1.327 . S
C3023 C3039 1.429 . S
C3023 H3045 0.950 . S
C3024 H3020 0.949 . S
C3024 C3032 1.574 . S
C3024 C3040 1.368 . S
H3025 C3033 0.950 . S
H3026 C3031 0.950 . S
H3027 C3032 0.949 . S
H3028 C3034 0.950 . S
H3029 C3035 0.950 . S
H3030 C3036 0.949 . S
C3031 H3026 0.950 . S
C3031 C3033 1.327 . S
C3031 C3037 1.429 . S
C3032 C3024 1.574 . S
C3032 H3027 0.949 . S
C3032 C3038 1.368 . S
C3033 C3017 1.349 . S
C3033 H3025 0.950 . S
C3033 C3031 1.327 . S
C3034 C3022 1.349 . S
C3034 H3028 0.950 . S
C3034 C3035 1.327 . S
C3035 H3029 0.950 . S
C3035 C3034 1.327 . S
C3035 C3039 1.429 . S
C3036 C3019 1.574 . S
C3036 H3030 0.949 . S
C3036 C3040 1.368 . S
C3037 C3018 1.429 . S
C3037 C3031 1.429 . S
C3037 C3038 1.523 . S
C3038 C3019 1.368 . S
C3038 C3032 1.368 . S
C3038 C3037 1.523 . S
C3039 C3023 1.429 . S
C3039 C3035 1.429 . S
C3039 C3040 1.523 . S
C3040 C3024 1.368 . S
C3040 C3036 1.368 . S
C3040 C3039 1.523 . S
H3041 C3016 0.950 . S
H3042 C3018 0.950 . S
H3043 C3019 0.949 . S
H3044 C3021 0.950 . S
H3045 C3023 0.950 . S
C3046 C3047 1.349 . S
C3046 C3048 1.327 . S
C3046 H3071 0.950 . S
C3047 C3046 1.349 . S
C3047 C3063 1.349 . S
C3048 C3046 1.327 . S
C3048 C3067 1.429 . S
C3048 H3072 0.950 . S
C3049 C3066 1.574 . S
C3049 C3068 1.368 . S
C3049 H3073 0.949 . S
H3050 C3054 0.949 . S
C3051 C3052 1.349 . S
C3051 C3053 1.327 . S
C3051 H3074 0.950 . S
C3052 C3051 1.349 . S
C3052 C3064 1.349 . S
C3053 C3051 1.327 . S
C3053 C3069 1.429 . S
C3053 H3075 0.950 . S
C3054 H3050 0.949 . S
C3054 C3062 1.574 . S
C3054 C3070 1.368 . S
H3055 C3063 0.960 . S
H3056 C3061 0.950 . S
H3057 C3062 0.949 . S
H3058 C3064 0.950 . S
H3059 C3065 0.950 . S
H3060 C3066 0.949 . S
C3061 H3056 0.950 . S
C3061 C3063 1.327 . S
C3061 C3067 1.429 . S
C3062 C3054 1.574 . S
C3062 H3057 0.949 . S
C3062 C3068 1.368 . S
C3063 C3047 1.349 . S
C3063 H3055 0.960 . S
C3063 C3061 1.327 . S
C3064 C3052 1.349 . S
C3064 H3058 0.950 . S
C3064 C3065 1.327 . S
C3065 H3059 0.950 . S
C3065 C3064 1.327 . S
C3065 C3069 1.429 . S
C3066 C3049 1.574 . S
C3066 H3060 0.949 . S
C3066 C3070 1.368 . S
C3067 C3048 1.429 . S
C3067 C3061 1.429 . S
C3067 C3068 1.523 . S
C3068 C3049 1.368 . S
C3068 C3062 1.368 . S
C3068 C3067 1.523 . S
C3069 C3053 1.429 . S
C3069 C3065 1.429 . S
C3069 C3070 1.523 . S
C3070 C3054 1.368 . S
C3070 C3066 1.368 . S
C3070 C3069 1.523 . S
H3071 C3046 0.950 . S
H3072 C3048 0.950 . S
H3073 C3049 0.949 . S
H3074 C3051 0.950 . S
H3075 C3053 0.950 . S
C3076 C3077 1.349 . S
C3076 C3078 1.327 . S
C3076 H3101 0.950 . S
C3077 C3076 1.349 . S
C3077 C3093 1.349 . S
C3078 C3076 1.327 . S
C3078 C3097 1.429 . S
C3078 H3102 0.950 . S
C3079 C3096 1.574 . S
C3079 C3098 1.368 . S
C3079 H3103 0.949 . S
H3080 C3084 0.949 . S
C3081 C3082 1.349 . S
C3081 C3083 1.327 . S
C3081 H3104 0.950 . S
C3082 C3081 1.349 . S
C3082 C3094 1.349 . S
C3083 C3081 1.327 . S
C3083 C3099 1.429 . S
C3083 H3105 0.950 . S
C3084 H3080 0.949 . S
C3084 C3092 1.574 . S
C3084 C3100 1.368 . S
H3085 C3093 0.950 . S
H3086 C3091 0.950 . S
H3087 C3092 0.949 . S
H3088 C3094 0.950 . S
H3089 C3095 0.950 . S
H3090 C3096 0.949 . S
C3091 H3086 0.950 . S
C3091 C3093 1.327 . S
C3091 C3097 1.429 . S
C3092 C3084 1.574 . S
C3092 H3087 0.949 . S
C3092 C3098 1.368 . S
C3093 C3077 1.349 . S
C3093 H3085 0.950 . S
C3093 C3091 1.327 . S
C3094 C3082 1.349 . S
C3094 H3088 0.950 . S
C3094 C3095 1.327 . S
C3095 H3089 0.950 . S
C3095 C3094 1.327 . S
C3095 C3099 1.429 . S
C3096 C3079 1.574 . S
C3096 H3090 0.949 . S
C3096 C3100 1.368 . S
C3097 C3078 1.429 . S
C3097 C3091 1.429 . S
C3097 C3098 1.523 . S
C3098 C3079 1.368 . S
C3098 C3092 1.368 . S
C3098 C3097 1.523 . S
C3099 C3083 1.429 . S
C3099 C3095 1.429 . S
C3099 C3100 1.523 . S
C3100 C3084 1.368 . S
C3100 C3096 1.368 . S
C3100 C3099 1.523 . S
H3101 C3076 0.950 . S
H3102 C3078 0.950 . S
H3103 C3079 0.949 . S
H3104 C3081 0.950 . S
H3105 C3083 0.950 . S
C3106 C3107 1.349 . S
C3106 C3108 1.327 . S
C3106 H3131 0.950 . S
C3107 C3106 1.349 . S
C3107 C3123 1.349 . S
C3108 C3106 1.327 . S
C3108 C3127 1.429 . S
C3108 H3132 0.950 . S
C3109 C3126 1.574 . S
C3109 C3128 1.368 . S
C3109 H3133 0.949 . S
H3110 C3114 0.949 . S
C3111 C3112 1.349 . S
C3111 C3113 1.327 . S
C3111 H3134 0.950 . S
C3112 C3111 1.349 . S
C3112 C3124 1.349 . S
C3113 C3111 1.327 . S
C3113 C3129 1.429 . S
C3113 H3135 0.950 . S
C3114 H3110 0.949 . S
C3114 C3122 1.574 . S
C3114 C3130 1.368 . S
H3115 C3123 0.950 . S
H3116 C3121 0.950 . S
H3117 C3122 0.949 . S
H3118 C3124 0.950 . S
H3119 C3125 0.950 . S
H3120 C3126 0.949 . S
C3121 H3116 0.950 . S
C3121 C3123 1.327 . S
C3121 C3127 1.429 . S
C3122 C3114 1.574 . S
C3122 H3117 0.949 . S
C3122 C3128 1.368 . S
C3123 C3107 1.349 . S
C3123 H3115 0.950 . S
C3123 C3121 1.327 . S
C3124 C3112 1.349 . S
C3124 H3118 0.950 . S
C3124 C3125 1.327 . S
C3125 H3119 0.950 . S
C3125 C3124 1.327 . S
C3125 C3129 1.429 . S
C3126 C3109 1.574 . S
C3126 H3120 0.949 . S
C3126 C3130 1.368 . S
C3127 C3108 1.429 . S
C3127 C3121 1.429 . S
C3127 C3128 1.523 . S
C3128 C3109 1.368 . S
C3128 C3122 1.368 . S
C3128 C3127 1.523 . S
C3129 C3113 1.429 . S
C3129 C3125 1.429 . S
C3129 C3130 1.523 . S
C3130 C3114 1.368 . S
C3130 C3126 1.368 . S
C3130 C3129 1.523 . S
H3131 C3106 0.950 . S
H3132 C3108 0.950 . S
H3133 C3109 0.949 . S
H3134 C3111 0.950 . S
H3135 C3113 0.950 . S
C3136 C3137 1.349 . S
C3136 C3138 1.327 . S
C3136 H3161 0.950 . S
C3137 C3136 1.349 . S
C3137 C3153 1.349 . S
C3138 C3136 1.327 . S
C3138 C3157 1.429 . S
C3138 H3162 0.950 . S
C3139 C3156 1.574 . S
C3139 C3158 1.368 . S
C3139 H3163 0.949 . S
H3140 C3144 0.949 . S
C3141 C3142 1.349 . S
C3141 C3143 1.327 . S
C3141 H3164 0.950 . S
C3142 C3141 1.349 . S
C3142 C3154 1.349 . S
C3143 C3141 1.327 . S
C3143 C3159 1.429 . S
C3143 H3165 0.950 . S
C3144 H3140 0.949 . S
C3144 C3152 1.574 . S
C3144 C3160 1.368 . S
H3145 C3153 0.950 . S
H3146 C3151 0.950 . S
H3147 C3152 0.949 . S
H3148 C3154 0.950 . S
H3149 C3155 0.950 . S
H3150 C3156 0.949 . S
C3151 H3146 0.950 . S
C3151 C3153 1.327 . S
C3151 C3157 1.429 . S
C3152 C3144 1.574 . S
C3152 H3147 0.949 . S
C3152 C3158 1.368 . S
C3153 C3137 1.349 . S
C3153 H3145 0.950 . S
C3153 C3151 1.327 . S
C3154 C3142 1.349 . S
C3154 H3148 0.950 . S
C3154 C3155 1.327 . S
C3155 H3149 0.950 . S
C3155 C3154 1.327 . S
C3155 C3159 1.429 . S
C3156 C3139 1.574 . S
C3156 H3150 0.949 . S
C3156 C3160 1.368 . S
C3157 C3138 1.429 . S
C3157 C3151 1.429 . S
C3157 C3158 1.523 . S
C3158 C3139 1.368 . S
C3158 C3152 1.368 . S
C3158 C3157 1.523 . S
C3159 C3143 1.429 . S
C3159 C3155 1.429 . S
C3159 C3160 1.523 . S
C3160 C3144 1.368 . S
C3160 C3156 1.368 . S
C3160 C3159 1.523 . S
H3161 C3136 0.950 . S
H3162 C3138 0.950 . S
H3163 C3139 0.949 . S
H3164 C3141 0.950 . S
H3165 C3143 0.950 . S
C3166 C3167 1.349 . S
C3166 C3168 1.327 . S
C3166 H3191 0.950 . S
C3167 C3166 1.349 . S
C3167 C3183 1.349 . S
C3168 C3166 1.327 . S
C3168 C3187 1.429 . S
C3168 H3192 0.950 . S
C3169 C3186 1.574 . S
C3169 C3188 1.368 . S
C3169 H3193 0.949 . S
H3170 C3174 0.949 . S
C3171 C3172 1.349 . S
C3171 C3173 1.327 . S
C3171 H3194 0.950 . S
C3172 C3171 1.349 . S
C3172 C3184 1.349 . S
C3173 C3171 1.327 . S
C3173 C3189 1.429 . S
C3173 H3195 0.950 . S
C3174 H3170 0.949 . S
C3174 C3182 1.574 . S
C3174 C3190 1.368 . S
H3175 C3183 0.950 . S
H3176 C3181 0.950 . S
H3177 C3182 0.949 . S
H3178 C3184 0.950 . S
H3179 C3185 0.950 . S
H3180 C3186 0.949 . S
C3181 H3176 0.950 . S
C3181 C3183 1.327 . S
C3181 C3187 1.429 . S
C3182 C3174 1.574 . S
C3182 H3177 0.949 . S
C3182 C3188 1.368 . S
C3183 C3167 1.349 . S
C3183 H3175 0.950 . S
C3183 C3181 1.327 . S
C3184 C3172 1.349 . S
C3184 H3178 0.950 . S
C3184 C3185 1.327 . S
C3185 H3179 0.950 . S
C3185 C3184 1.327 . S
C3185 C3189 1.429 . S
C3186 C3169 1.574 . S
C3186 H3180 0.949 . S
C3186 C3190 1.368 . S
C3187 C3168 1.429 . S
C3187 C3181 1.429 . S
C3187 C3188 1.523 . S
C3188 C3169 1.368 . S
C3188 C3182 1.368 . S
C3188 C3187 1.523 . S
C3189 C3173 1.429 . S
C3189 C3185 1.429 . S
C3189 C3190 1.523 . S
C3190 C3174 1.368 . S
C3190 C3186 1.368 . S
C3190 C3189 1.523 . S
H3191 C3166 0.950 . S
H3192 C3168 0.950 . S
H3193 C3169 0.949 . S
H3194 C3171 0.950 . S
H3195 C3173 0.950 . S
C3196 C3197 1.349 . S
C3196 C3198 1.327 . S
C3196 H3221 0.950 . S
C3197 C3196 1.349 . S
C3197 C3213 1.349 . S
C3198 C3196 1.327 . S
C3198 C3217 1.429 . S
C3198 H3222 0.950 . S
C3199 C3216 1.574 . S
C3199 C3218 1.368 . S
C3199 H3223 0.949 . S
H3200 C3204 0.949 . S
C3201 C3202 1.349 . S
C3201 C3203 1.327 . S
C3201 H3224 0.950 . S
C3202 C3201 1.349 . S
C3202 C3214 1.349 . S
C3203 C3201 1.327 . S
C3203 C3219 1.429 . S
C3203 H3225 0.950 . S
C3204 H3200 0.949 . S
C3204 C3212 1.574 . S
C3204 C3220 1.368 . S
H3205 C3213 0.950 . S
H3206 C3211 0.950 . S
H3207 C3212 0.949 . S
H3208 C3214 0.950 . S
H3209 C3215 0.950 . S
H3210 C3216 0.949 . S
C3211 H3206 0.950 . S
C3211 C3213 1.327 . S
C3211 C3217 1.429 . S
C3212 C3204 1.574 . S
C3212 H3207 0.949 . S
C3212 C3218 1.368 . S
C3213 C3197 1.349 . S
C3213 H3205 0.950 . S
C3213 C3211 1.327 . S
C3214 C3202 1.349 . S
C3214 H3208 0.950 . S
C3214 C3215 1.327 . S
C3215 H3209 0.950 . S
C3215 C3214 1.327 . S
C3215 C3219 1.429 . S
C3216 C3199 1.574 . S
C3216 H3210 0.949 . S
C3216 C3220 1.368 . S
C3217 C3198 1.429 . S
C3217 C3211 1.429 . S
C3217 C3218 1.523 . S
C3218 C3199 1.368 . S
C3218 C3212 1.368 . S
C3218 C3217 1.523 . S
C3219 C3203 1.429 . S
C3219 C3215 1.429 . S
C3219 C3220 1.523 . S
C3220 C3204 1.368 . S
C3220 C3216 1.368 . S
C3220 C3219 1.523 . S
H3221 C3196 0.950 . S
H3222 C3198 0.950 . S
H3223 C3199 0.949 . S
H3224 C3201 0.950 . S
H3225 C3203 0.950 . S
C3226 C3227 1.349 . S
C3226 C3228 1.327 . S
C3226 H3251 0.950 . S
C3227 C3226 1.349 . S
C3227 C3243 1.349 . S
C3228 C3226 1.327 . S
C3228 C3247 1.429 . S
C3228 H3252 0.950 . S
C3229 C3246 1.574 . S
C3229 C3248 1.368 . S
C3229 H3253 0.949 . S
H3230 C3234 0.949 . S
C3231 C3232 1.349 . S
C3231 C3233 1.327 . S
C3231 H3254 0.950 . S
C3232 C3231 1.349 . S
C3232 C3244 1.349 . S
C3233 C3231 1.327 . S
C3233 C3249 1.429 . S
C3233 H3255 0.950 . S
C3234 H3230 0.949 . S
C3234 C3242 1.574 . S
C3234 C3250 1.368 . S
H3235 C3243 0.950 . S
H3236 C3241 0.950 . S
H3237 C3242 0.949 . S
H3238 C3244 0.950 . S
H3239 C3245 0.950 . S
H3240 C3246 0.949 . S
C3241 H3236 0.950 . S
C3241 C3243 1.327 . S
C3241 C3247 1.429 . S
C3242 C3234 1.574 . S
C3242 H3237 0.949 . S
C3242 C3248 1.368 . S
C3243 C3227 1.349 . S
C3243 H3235 0.950 . S
C3243 C3241 1.327 . S
C3244 C3232 1.349 . S
C3244 H3238 0.950 . S
C3244 C3245 1.327 . S
C3245 H3239 0.950 . S
C3245 C3244 1.327 . S
C3245 C3249 1.429 . S
C3246 C3229 1.574 . S
C3246 H3240 0.949 . S
C3246 C3250 1.368 . S
C3247 C3228 1.429 . S
C3247 C3241 1.429 . S
C3247 C3248 1.523 . S
C3248 C3229 1.368 . S
C3248 C3242 1.368 . S
C3248 C3247 1.523 . S
C3249 C3233 1.429 . S
C3249 C3245 1.429 . S
C3249 C3250 1.523 . S
C3250 C3234 1.368 . S
C3250 C3246 1.368 . S
C3250 C3249 1.523 . S
H3251 C3226 0.950 . S
H3252 C3228 0.950 . S
H3253 C3229 0.949 . S
H3254 C3231 0.950 . S
H3255 C3233 0.950 . S
C3256 C3257 1.349 . S
C3256 C3258 1.327 . S
C3256 H3281 0.950 . S
C3257 C3256 1.349 . S
C3257 C3273 1.349 . S
C3258 C3256 1.327 . S
C3258 C3277 1.429 . S
C3258 H3282 0.950 . S
C3259 C3276 1.574 . S
C3259 C3278 1.368 . S
C3259 H3283 0.949 . S
H3260 C3264 0.949 . S
C3261 C3262 1.349 . S
C3261 C3263 1.327 . S
C3261 H3284 0.950 . S
C3262 C3261 1.349 . S
C3262 C3274 1.349 . S
C3263 C3261 1.327 . S
C3263 C3279 1.429 . S
C3263 H3285 0.950 . S
C3264 H3260 0.949 . S
C3264 C3272 1.574 . S
C3264 C3280 1.368 . S
H3265 C3273 0.950 . S
H3266 C3271 0.950 . S
H3267 C3272 0.949 . S
H3268 C3274 0.950 1_554 S
H3269 C3275 0.950 . S
H3270 C3276 0.949 . S
C3271 H3266 0.950 . S
C3271 C3273 1.327 . S
C3271 C3277 1.429 . S
C3272 C3264 1.574 . S
C3272 H3267 0.949 . S
C3272 C3278 1.368 . S
C3273 C3257 1.349 . S
C3273 H3265 0.950 . S
C3273 C3271 1.327 . S
C3274 C3262 1.349 . S
C3274 H3268 0.950 1_556 S
C3274 C3275 1.327 . S
C3275 H3269 0.950 . S
C3275 C3274 1.327 . S
C3275 C3279 1.429 . S
C3276 C3259 1.574 . S
C3276 H3270 0.949 . S
C3276 C3280 1.368 . S
C3277 C3258 1.429 . S
C3277 C3271 1.429 . S
C3277 C3278 1.523 . S
C3278 C3259 1.368 . S
C3278 C3272 1.368 . S
C3278 C3277 1.523 . S
C3279 C3263 1.429 . S
C3279 C3275 1.429 . S
C3279 C3280 1.523 . S
C3280 C3264 1.368 . S
C3280 C3276 1.368 . S
C3280 C3279 1.523 . S
H3281 C3256 0.950 . S
H3282 C3258 0.950 . S
H3283 C3259 0.949 . S
H3284 C3261 0.950 . S
H3285 C3263 0.950 . S
C3286 C3287 1.349 . S
C3286 C3288 1.327 . S
C3286 H3311 0.950 . S
C3287 C3286 1.349 . S
C3287 C3303 1.349 . S
C3288 C3286 1.327 . S
C3288 C3307 1.429 . S
C3288 H3312 0.950 . S
C3289 C3306 1.574 . S
C3289 C3308 1.368 . S
C3289 H3313 0.949 . S
H3290 C3294 0.949 . S
C3291 C3292 1.349 . S
C3291 C3293 1.327 . S
C3291 H3314 0.950 . S
C3292 C3291 1.349 . S
C3292 C3304 1.349 . S
C3293 C3291 1.327 . S
C3293 C3309 1.429 . S
C3293 H3315 0.950 . S
C3294 H3290 0.949 . S
C3294 C3302 1.574 . S
C3294 C3310 1.368 . S
H3295 C3303 0.950 . S
H3296 C3301 0.950 . S
H3297 C3302 0.949 . S
H3298 C3304 0.950 . S
H3299 C3305 0.950 . S
H3300 C3306 0.949 . S
C3301 H3296 0.950 . S
C3301 C3303 1.327 . S
C3301 C3307 1.429 . S
C3302 C3294 1.574 . S
C3302 H3297 0.949 . S
C3302 C3308 1.368 . S
C3303 C3287 1.349 . S
C3303 H3295 0.950 . S
C3303 C3301 1.327 . S
C3304 C3292 1.349 . S
C3304 H3298 0.950 . S
C3304 C3305 1.327 . S
C3305 H3299 0.950 . S
C3305 C3304 1.327 . S
C3305 C3309 1.429 . S
C3306 C3289 1.574 . S
C3306 H3300 0.949 . S
C3306 C3310 1.368 . S
C3307 C3288 1.429 . S
C3307 C3301 1.429 . S
C3307 C3308 1.523 . S
C3308 C3289 1.368 . S
C3308 C3302 1.368 . S
C3308 C3307 1.523 . S
C3309 C3293 1.429 . S
C3309 C3305 1.429 . S
C3309 C3310 1.523 . S
C3310 C3294 1.368 . S
C3310 C3306 1.368 . S
C3310 C3309 1.523 . S
H3311 C3286 0.950 . S
H3312 C3288 0.950 . S
H3313 C3289 0.949 . S
H3314 C3291 0.950 . S
H3315 C3293 0.950 . S
C3316 C3317 1.349 . S
C3316 C3318 1.327 . S
C3316 H3341 0.950 . S
C3317 C3316 1.349 . S
C3317 C3333 1.349 . S
C3318 C3316 1.327 . S
C3318 C3337 1.429 . S
C3318 H3342 0.950 . S
C3319 C3336 1.574 . S
C3319 C3338 1.368 . S
C3319 H3343 0.949 . S
H3320 C3324 0.949 . S
C3321 C3322 1.349 . S
C3321 C3323 1.327 . S
C3321 H3344 0.950 . S
C3322 C3321 1.349 . S
C3322 C3334 1.349 . S
C3323 C3321 1.327 . S
C3323 C3339 1.429 . S
C3323 H3345 0.950 . S
C3324 H3320 0.949 . S
C3324 C3332 1.574 . S
C3324 C3340 1.368 . S
H3325 C3333 0.950 . S
H3326 C3331 0.950 . S
H3327 C3332 0.949 . S
H3328 C3334 0.950 . S
H3329 C3335 0.950 . S
H3330 C3336 0.949 . S
C3331 H3326 0.950 . S
C3331 C3333 1.327 . S
C3331 C3337 1.429 . S
C3332 C3324 1.574 . S
C3332 H3327 0.949 . S
C3332 C3338 1.368 . S
C3333 C3317 1.349 . S
C3333 H3325 0.950 . S
C3333 C3331 1.327 . S
C3334 C3322 1.349 . S
C3334 H3328 0.950 . S
C3334 C3335 1.327 . S
C3335 H3329 0.950 . S
C3335 C3334 1.327 . S
C3335 C3339 1.429 . S
C3336 C3319 1.574 . S
C3336 H3330 0.949 . S
C3336 C3340 1.368 . S
C3337 C3318 1.429 . S
C3337 C3331 1.429 . S
C3337 C3338 1.523 . S
C3338 C3319 1.368 . S
C3338 C3332 1.368 . S
C3338 C3337 1.523 . S
C3339 C3323 1.429 . S
C3339 C3335 1.429 . S
C3339 C3340 1.523 . S
C3340 C3324 1.368 . S
C3340 C3336 1.368 . S
C3340 C3339 1.523 . S
H3341 C3316 0.950 . S
H3342 C3318 0.950 . S
H3343 C3319 0.949 . S
H3344 C3321 0.950 . S
H3345 C3323 0.950 . S
C3346 C3347 1.349 . S
C3346 C3348 1.327 . S
C3346 H3371 0.950 . S
C3347 C3346 1.349 . S
C3347 C3363 1.349 . S
C3348 C3346 1.327 . S
C3348 C3367 1.429 . S
C3348 H3372 0.950 . S
C3349 C3366 1.574 . S
C3349 C3368 1.368 . S
C3349 H3373 0.949 . S
H3350 C3354 0.949 . S
C3351 C3352 1.349 . S
C3351 C3353 1.327 . S
C3351 H3374 0.950 . S
C3352 C3351 1.349 . S
C3352 C3364 1.349 . S
C3353 C3351 1.327 . S
C3353 C3369 1.429 . S
C3353 H3375 0.950 . S
C3354 H3350 0.949 . S
C3354 C3362 1.574 . S
C3354 C3370 1.368 . S
H3355 C3363 0.950 . S
H3356 C3361 0.950 . S
H3357 C3362 0.949 . S
H3358 C3364 0.950 . S
H3359 C3365 0.950 . S
H3360 C3366 0.949 . S
C3361 H3356 0.950 . S
C3361 C3363 1.327 . S
C3361 C3367 1.429 . S
C3362 C3354 1.574 . S
C3362 H3357 0.949 . S
C3362 C3368 1.368 . S
C3363 C3347 1.349 . S
C3363 H3355 0.950 . S
C3363 C3361 1.327 . S
C3364 C3352 1.349 . S
C3364 H3358 0.950 . S
C3364 C3365 1.327 . S
C3365 H3359 0.950 . S
C3365 C3364 1.327 . S
C3365 C3369 1.429 . S
C3366 C3349 1.574 . S
C3366 H3360 0.949 . S
C3366 C3370 1.368 . S
C3367 C3348 1.429 . S
C3367 C3361 1.429 . S
C3367 C3368 1.523 . S
C3368 C3349 1.368 . S
C3368 C3362 1.368 . S
C3368 C3367 1.523 . S
C3369 C3353 1.429 . S
C3369 C3365 1.429 . S
C3369 C3370 1.523 . S
C3370 C3354 1.368 . S
C3370 C3366 1.368 . S
C3370 C3369 1.523 . S
H3371 C3346 0.950 . S
H3372 C3348 0.950 . S
H3373 C3349 0.949 . S
H3374 C3351 0.950 . S
H3375 C3353 0.950 . S
C3376 C3377 1.349 . S
C3376 C3378 1.327 . S
C3376 H3401 0.950 . S
C3377 C3376 1.349 . S
C3377 C3393 1.349 . S
C3378 C3376 1.327 . S
C3378 C3397 1.429 . S
C3378 H3402 0.950 . S
C3379 C3396 1.574 . S
C3379 C3398 1.368 . S
C3379 H3403 0.949 . S
H3380 C3384 0.949 . S
C3381 C3382 1.349 . S
C3381 C3383 1.327 . S
C3381 H3404 0.950 . S
C3382 C3381 1.349 . S
C3382 C3394 1.349 . S
C3383 C3381 1.327 . S
C3383 C3399 1.429 . S
C3383 H3405 0.950 . S
C3384 H3380 0.949 . S
C3384 C3392 1.574 . S
C3384 C3400 1.368 . S
H3385 C3393 0.950 . S
H3386 C3391 0.950 . S
H3387 C3392 0.949 . S
H3388 C3394 0.950 . S
H3389 C3395 0.950 . S
H3390 C3396 0.949 . S
C3391 H3386 0.950 . S
C3391 C3393 1.327 . S
C3391 C3397 1.429 . S
C3392 C3384 1.574 . S
C3392 H3387 0.949 . S
C3392 C3398 1.368 . S
C3393 C3377 1.349 . S
C3393 H3385 0.950 . S
C3393 C3391 1.327 . S
C3394 C3382 1.349 . S
C3394 H3388 0.950 . S
C3394 C3395 1.327 . S
C3395 H3389 0.950 . S
C3395 C3394 1.327 . S
C3395 C3399 1.429 . S
C3396 C3379 1.574 . S
C3396 H3390 0.949 . S
C3396 C3400 1.368 . S
C3397 C3378 1.429 . S
C3397 C3391 1.429 . S
C3397 C3398 1.523 . S
C3398 C3379 1.368 . S
C3398 C3392 1.368 . S
C3398 C3397 1.523 . S
C3399 C3383 1.429 . S
C3399 C3395 1.429 . S
C3399 C3400 1.523 . S
C3400 C3384 1.368 . S
C3400 C3396 1.368 . S
C3400 C3399 1.523 . S
H3401 C3376 0.950 . S
H3402 C3378 0.950 . S
H3403 C3379 0.949 . S
H3404 C3381 0.950 . S
H3405 C3383 0.950 . S
C3406 C3407 1.349 . S
C3406 C3408 1.327 . S
C3406 H3431 0.950 . S
C3407 C3406 1.349 . S
C3407 C3423 1.349 . S
C3408 C3406 1.327 . S
C3408 C3427 1.429 . S
C3408 H3432 0.950 . S
C3409 C3426 1.574 . S
C3409 C3428 1.368 . S
C3409 H3433 0.949 . S
H3410 C3414 0.949 . S
C3411 C3412 1.349 . S
C3411 C3413 1.327 . S
C3411 H3434 0.950 . S
C3412 C3411 1.349 . S
C3412 C3424 1.349 . S
C3413 C3411 1.327 . S
C3413 C3429 1.429 . S
C3413 H3435 0.950 . S
C3414 H3410 0.949 . S
C3414 C3422 1.574 . S
C3414 C3430 1.368 . S
H3415 C3423 0.950 . S
H3416 C3421 0.950 . S
H3417 C3422 0.949 . S
H3418 C3424 0.950 . S
H3419 C3425 0.950 . S
H3420 C3426 0.949 . S
C3421 H3416 0.950 . S
C3421 C3423 1.327 . S
C3421 C3427 1.429 . S
C3422 C3414 1.574 . S
C3422 H3417 0.949 . S
C3422 C3428 1.368 . S
C3423 C3407 1.349 . S
C3423 H3415 0.950 . S
C3423 C3421 1.327 . S
C3424 C3412 1.349 . S
C3424 H3418 0.950 . S
C3424 C3425 1.327 . S
C3425 H3419 0.950 . S
C3425 C3424 1.327 . S
C3425 C3429 1.429 . S
C3426 C3409 1.574 . S
C3426 H3420 0.949 . S
C3426 C3430 1.368 . S
C3427 C3408 1.429 . S
C3427 C3421 1.429 . S
C3427 C3428 1.523 . S
C3428 C3409 1.368 . S
C3428 C3422 1.368 . S
C3428 C3427 1.523 . S
C3429 C3413 1.429 . S
C3429 C3425 1.429 . S
C3429 C3430 1.523 . S
C3430 C3414 1.368 . S
C3430 C3426 1.368 . S
C3430 C3429 1.523 . S
H3431 C3406 0.950 . S
H3432 C3408 0.950 . S
H3433 C3409 0.949 . S
H3434 C3411 0.950 . S
H3435 C3413 0.950 . S
C3436 C3437 1.349 . S
C3436 C3438 1.327 . S
C3436 H3461 0.950 . S
C3437 C3436 1.349 . S
C3437 C3453 1.349 . S
C3438 C3436 1.327 . S
C3438 C3457 1.429 . S
C3438 H3462 0.950 . S
C3439 C3456 1.574 . S
C3439 C3458 1.368 . S
C3439 H3463 0.949 . S
H3440 C3444 0.949 . S
C3441 C3442 1.349 . S
C3441 C3443 1.327 1_455 S
C3441 H3464 0.950 . S
C3442 C3441 1.349 . S
C3442 C3454 1.349 . S
C3443 C3441 1.327 1_655 S
C3443 C3459 1.429 1_655 S
C3443 H3465 0.950 . S
C3444 H3440 0.949 . S
C3444 C3452 1.574 1_455 S
C3444 C3460 1.368 1_455 S
H3445 C3453 0.950 . S
H3446 C3451 0.950 . S
H3447 C3452 0.949 . S
H3448 C3454 0.950 . S
H3449 C3455 0.950 . S
H3450 C3456 0.949 . S
C3451 H3446 0.950 . S
C3451 C3453 1.327 . S
C3451 C3457 1.429 . S
C3452 C3444 1.574 1_655 S
C3452 H3447 0.949 . S
C3452 C3458 1.368 . S
C3453 C3437 1.349 . S
C3453 H3445 0.950 . S
C3453 C3451 1.327 . S
C3454 C3442 1.349 . S
C3454 H3448 0.950 . S
C3454 C3455 1.327 . S
C3455 H3449 0.950 . S
C3455 C3454 1.327 . S
C3455 C3459 1.429 . S
C3456 C3439 1.574 . S
C3456 H3450 0.949 . S
C3456 C3460 1.368 . S
C3457 C3438 1.429 . S
C3457 C3451 1.429 . S
C3457 C3458 1.523 . S
C3458 C3439 1.368 . S
C3458 C3452 1.368 . S
C3458 C3457 1.523 . S
C3459 C3443 1.429 1_455 S
C3459 C3455 1.429 . S
C3459 C3460 1.523 1_455 S
C3460 C3444 1.368 1_655 S
C3460 C3456 1.368 . S
C3460 C3459 1.523 1_655 S
H3461 C3436 0.950 . S
H3462 C3438 0.950 . S
H3463 C3439 0.949 . S
H3464 C3441 0.950 . S
H3465 C3443 0.950 . S
C3466 C3467 1.349 . S
C3466 C3468 1.327 . S
C3466 H3491 0.950 . S
C3467 C3466 1.349 . S
C3467 C3483 1.349 . S
C3468 C3466 1.327 . S
C3468 C3487 1.429 . S
C3468 H3492 0.950 . S
C3469 C3486 1.574 . S
C3469 C3488 1.368 . S
C3469 H3493 0.949 . S
H3470 C3474 0.949 . S
C3471 C3472 1.349 . S
C3471 C3473 1.327 . S
C3471 H3494 0.950 . S
C3472 C3471 1.349 . S
C3472 C3484 1.349 . S
C3473 C3471 1.327 . S
C3473 C3489 1.429 . S
C3473 H3495 0.950 . S
C3474 H3470 0.949 . S
C3474 C3482 1.574 . S
C3474 C3490 1.368 . S
H3475 C3483 0.950 . S
H3476 C3481 0.950 . S
H3477 C3482 0.949 . S
H3478 C3484 0.950 . S
H3479 C3485 0.950 . S
H3480 C3486 0.949 . S
C3481 H3476 0.950 . S
C3481 C3483 1.327 . S
C3481 C3487 1.429 . S
C3482 C3474 1.574 . S
C3482 H3477 0.949 . S
C3482 C3488 1.368 . S
C3483 C3467 1.349 . S
C3483 H3475 0.950 . S
C3483 C3481 1.327 . S
C3484 C3472 1.349 . S
C3484 H3478 0.950 . S
C3484 C3485 1.327 . S
C3485 H3479 0.950 . S
C3485 C3484 1.327 . S
C3485 C3489 1.429 . S
C3486 C3469 1.574 . S
C3486 H3480 0.949 . S
C3486 C3490 1.368 . S
C3487 C3468 1.429 . S
C3487 C3481 1.429 . S
C3487 C3488 1.523 . S
C3488 C3469 1.368 . S
C3488 C3482 1.368 . S
C3488 C3487 1.523 . S
C3489 C3473 1.429 . S
C3489 C3485 1.429 . S
C3489 C3490 1.523 . S
C3490 C3474 1.368 . S
C3490 C3486 1.368 . S
C3490 C3489 1.523 . S
H3491 C3466 0.950 . S
H3492 C3468 0.950 . S
H3493 C3469 0.949 . S
H3494 C3471 0.950 . S
H3495 C3473 0.950 . S
C3496 C3497 1.349 . S
C3496 C3498 1.327 . S
C3496 H3521 0.950 . S
C3497 C3496 1.349 . S
C3497 C3513 1.349 . S
C3498 C3496 1.327 . S
C3498 C3517 1.429 . S
C3498 H3522 0.950 . S
C3499 C3516 1.574 . S
C3499 C3518 1.368 . S
C3499 H3523 0.949 . S
H3500 C3504 0.949 . S
C3501 C3502 1.349 . S
C3501 C3503 1.327 . S
C3501 H3524 0.950 . S
C3502 C3501 1.349 . S
C3502 C3514 1.349 . S
C3503 C3501 1.327 . S
C3503 C3519 1.429 . S
C3503 H3525 0.950 . S
C3504 H3500 0.949 . S
C3504 C3512 1.574 . S
C3504 C3520 1.368 . S
H3505 C3513 0.950 . S
H3506 C3511 0.950 . S
H3507 C3512 0.949 . S
H3508 C3514 0.950 . S
H3509 C3515 0.950 . S
H3510 C3516 0.949 . S
C3511 H3506 0.950 . S
C3511 C3513 1.327 . S
C3511 C3517 1.429 . S
C3512 C3504 1.574 . S
C3512 H3507 0.949 . S
C3512 C3518 1.368 . S
C3513 C3497 1.349 . S
C3513 H3505 0.950 . S
C3513 C3511 1.327 . S
C3514 C3502 1.349 . S
C3514 H3508 0.950 . S
C3514 C3515 1.327 . S
C3515 H3509 0.950 . S
C3515 C3514 1.327 . S
C3515 C3519 1.429 . S
C3516 C3499 1.574 . S
C3516 H3510 0.949 . S
C3516 C3520 1.368 . S
C3517 C3498 1.429 . S
C3517 C3511 1.429 . S
C3517 C3518 1.523 . S
C3518 C3499 1.368 . S
C3518 C3512 1.368 . S
C3518 C3517 1.523 . S
C3519 C3503 1.429 . S
C3519 C3515 1.429 . S
C3519 C3520 1.523 . S
C3520 C3504 1.368 . S
C3520 C3516 1.368 . S
C3520 C3519 1.523 . S
H3521 C3496 0.950 . S
H3522 C3498 0.950 . S
H3523 C3499 0.949 . S
H3524 C3501 0.950 . S
H3525 C3503 0.950 . S
C3526 C3527 1.349 . S
C3526 C3528 1.327 . S
C3526 H3551 0.950 . S
C3527 C3526 1.349 . S
C3527 C3543 1.349 . S
C3528 C3526 1.327 . S
C3528 C3547 1.429 . S
C3528 H3552 0.950 . S
C3529 C3546 1.574 . S
C3529 C3548 1.368 . S
C3529 H3553 0.949 . S
H3530 C3534 0.949 . S
C3531 C3532 1.349 . S
C3531 C3533 1.327 . S
C3531 H3554 0.950 . S
C3532 C3531 1.349 . S
C3532 C3544 1.349 . S
C3533 C3531 1.327 . S
C3533 C3549 1.429 . S
C3533 H3555 0.950 . S
C3534 H3530 0.949 . S
C3534 C3542 1.574 . S
C3534 C3550 1.368 . S
H3535 C3543 0.950 . S
H3536 C3541 0.950 . S
H3537 C3542 0.949 . S
H3538 C3544 0.950 . S
H3539 C3545 0.950 . S
H3540 C3546 0.949 . S
C3541 H3536 0.950 . S
C3541 C3543 1.327 . S
C3541 C3547 1.429 . S
C3542 C3534 1.574 . S
C3542 H3537 0.949 . S
C3542 C3548 1.368 . S
C3543 C3527 1.349 . S
C3543 H3535 0.950 . S
C3543 C3541 1.327 . S
C3544 C3532 1.349 . S
C3544 H3538 0.950 . S
C3544 C3545 1.327 . S
C3545 H3539 0.950 . S
C3545 C3544 1.327 . S
C3545 C3549 1.429 . S
C3546 C3529 1.574 . S
C3546 H3540 0.949 . S
C3546 C3550 1.368 . S
C3547 C3528 1.429 . S
C3547 C3541 1.429 . S
C3547 C3548 1.523 . S
C3548 C3529 1.368 . S
C3548 C3542 1.368 . S
C3548 C3547 1.523 . S
C3549 C3533 1.429 . S
C3549 C3545 1.429 . S
C3549 C3550 1.523 . S
C3550 C3534 1.368 . S
C3550 C3546 1.368 . S
C3550 C3549 1.523 . S
H3551 C3526 0.950 . S
H3552 C3528 0.950 . S
H3553 C3529 0.949 . S
H3554 C3531 0.950 . S
H3555 C3533 0.950 . S
C3556 C3557 1.349 . S
C3556 C3558 1.327 . S
C3556 H3581 0.950 . S
C3557 C3556 1.349 . S
C3557 C3573 1.349 . S
C3558 C3556 1.327 . S
C3558 C3577 1.429 . S
C3558 H3582 0.950 . S
C3559 C3576 1.574 . S
C3559 C3578 1.368 . S
C3559 H3583 0.949 . S
H3560 C3564 0.949 1_455 S
C3561 C3562 1.349 1_655 S
C3561 C3563 1.327 . S
C3561 H3584 0.950 . S
C3562 C3561 1.349 1_455 S
C3562 C3574 1.349 . S
C3563 C3561 1.327 . S
C3563 C3579 1.429 . S
C3563 H3585 0.950 . S
C3564 H3560 0.949 1_655 S
C3564 C3572 1.574 . S
C3564 C3580 1.368 . S
H3565 C3573 0.950 . S
H3566 C3571 0.950 . S
H3567 C3572 0.949 . S
H3568 C3574 0.950 . S
H3569 C3575 0.950 . S
H3570 C3576 0.949 . S
C3571 H3566 0.950 . S
C3571 C3573 1.327 . S
C3571 C3577 1.429 . S
C3572 C3564 1.574 . S
C3572 H3567 0.949 . S
C3572 C3578 1.368 . S
C3573 C3557 1.349 . S
C3573 H3565 0.950 . S
C3573 C3571 1.327 . S
C3574 C3562 1.349 . S
C3574 H3568 0.950 . S
C3574 C3575 1.327 . S
C3575 H3569 0.950 . S
C3575 C3574 1.327 . S
C3575 C3579 1.429 1_455 S
C3576 C3559 1.574 . S
C3576 H3570 0.949 . S
C3576 C3580 1.368 . S
C3577 C3558 1.429 . S
C3577 C3571 1.429 . S
C3577 C3578 1.523 . S
C3578 C3559 1.368 . S
C3578 C3572 1.368 . S
C3578 C3577 1.523 . S
C3579 C3563 1.429 . S
C3579 C3575 1.429 1_655 S
C3579 C3580 1.523 . S
C3580 C3564 1.368 . S
C3580 C3576 1.368 . S
C3580 C3579 1.523 . S
H3581 C3556 0.950 . S
H3582 C3558 0.950 . S
H3583 C3559 0.949 . S
H3584 C3561 0.950 . S
H3585 C3563 0.950 . S
C3586 C3587 1.349 . S
C3586 C3588 1.327 . S
C3586 H3611 0.950 . S
C3587 C3586 1.349 . S
C3587 C3603 1.349 . S
C3588 C3586 1.327 . S
C3588 C3607 1.429 . S
C3588 H3612 0.950 . S
C3589 C3606 1.574 . S
C3589 C3608 1.368 . S
C3589 H3613 0.949 . S
H3590 C3594 0.949 . S
C3591 C3592 1.349 . S
C3591 C3593 1.327 . S
C3591 H3614 0.950 . S
C3592 C3591 1.349 . S
C3592 C3604 1.349 . S
C3593 C3591 1.327 . S
C3593 C3609 1.429 . S
C3593 H3615 0.950 . S
C3594 H3590 0.949 . S
C3594 C3602 1.574 . S
C3594 C3610 1.368 . S
H3595 C3603 0.950 . S
H3596 C3601 0.950 . S
H3597 C3602 0.949 . S
H3598 C3604 0.950 . S
H3599 C3605 0.950 . S
H3600 C3606 0.949 . S
C3601 H3596 0.950 . S
C3601 C3603 1.327 . S
C3601 C3607 1.429 . S
C3602 C3594 1.574 . S
C3602 H3597 0.949 . S
C3602 C3608 1.368 . S
C3603 C3587 1.349 . S
C3603 H3595 0.950 . S
C3603 C3601 1.327 . S
C3604 C3592 1.349 . S
C3604 H3598 0.950 . S
C3604 C3605 1.327 . S
C3605 H3599 0.950 . S
C3605 C3604 1.327 . S
C3605 C3609 1.429 . S
C3606 C3589 1.574 . S
C3606 H3600 0.949 . S
C3606 C3610 1.368 . S
C3607 C3588 1.429 . S
C3607 C3601 1.429 . S
C3607 C3608 1.523 . S
C3608 C3589 1.368 . S
C3608 C3602 1.368 . S
C3608 C3607 1.523 . S
C3609 C3593 1.429 . S
C3609 C3605 1.429 . S
C3609 C3610 1.523 . S
C3610 C3594 1.368 . S
C3610 C3606 1.368 . S
C3610 C3609 1.523 . S
H3611 C3586 0.950 . S
H3612 C3588 0.950 . S
H3613 C3589 0.949 . S
H3614 C3591 0.950 . S
H3615 C3593 0.950 . S
C3616 C3617 1.349 . S
C3616 C3618 1.327 . S
C3616 H3641 0.950 . S
C3617 C3616 1.349 . S
C3617 C3633 1.349 . S
C3618 C3616 1.327 . S
C3618 C3637 1.429 . S
C3618 H3642 0.950 . S
C3619 C3636 1.574 . S
C3619 C3638 1.368 . S
C3619 H3643 0.949 . S
H3620 C3624 0.949 . S
C3621 C3622 1.349 . S
C3621 C3623 1.327 . S
C3621 H3644 0.950 . S
C3622 C3621 1.349 . S
C3622 C3634 1.349 . S
C3623 C3621 1.327 . S
C3623 C3639 1.429 . S
C3623 H3645 0.950 . S
C3624 H3620 0.949 . S
C3624 C3632 1.574 . S
C3624 C3640 1.368 . S
H3625 C3633 0.950 . S
H3626 C3631 0.950 . S
H3627 C3632 0.949 . S
H3628 C3634 0.950 . S
H3629 C3635 0.950 . S
H3630 C3636 0.949 . S
C3631 H3626 0.950 . S
C3631 C3633 1.327 . S
C3631 C3637 1.429 . S
C3632 C3624 1.574 . S
C3632 H3627 0.949 . S
C3632 C3638 1.368 . S
C3633 C3617 1.349 . S
C3633 H3625 0.950 . S
C3633 C3631 1.327 . S
C3634 C3622 1.349 . S
C3634 H3628 0.950 . S
C3634 C3635 1.327 . S
C3635 H3629 0.950 . S
C3635 C3634 1.327 . S
C3635 C3639 1.429 . S
C3636 C3619 1.574 . S
C3636 H3630 0.949 . S
C3636 C3640 1.368 . S
C3637 C3618 1.429 . S
C3637 C3631 1.429 . S
C3637 C3638 1.523 . S
C3638 C3619 1.368 . S
C3638 C3632 1.368 . S
C3638 C3637 1.523 . S
C3639 C3623 1.429 . S
C3639 C3635 1.429 . S
C3639 C3640 1.523 . S
C3640 C3624 1.368 . S
C3640 C3636 1.368 . S
C3640 C3639 1.523 . S
H3641 C3616 0.950 . S
H3642 C3618 0.950 . S
H3643 C3619 0.949 . S
H3644 C3621 0.950 . S
H3645 C3623 0.950 . S
C3646 C3647 1.349 . S
C3646 C3648 1.327 . S
C3646 H3671 0.950 . S
C3647 C3646 1.349 . S
C3647 C3663 1.349 . S
C3648 C3646 1.327 . S
C3648 C3667 1.429 . S
C3648 H3672 0.950 . S
C3649 C3666 1.574 . S
C3649 C3668 1.368 . S
C3649 H3673 0.949 . S
H3650 C3654 0.949 . S
C3651 C3652 1.349 . S
C3651 C3653 1.327 . S
C3651 H3674 0.950 1_565 S
C3652 C3651 1.349 . S
C3652 C3664 1.349 . S
C3653 C3651 1.327 . S
C3653 C3669 1.429 . S
C3653 H3675 0.950 . S
C3654 H3650 0.949 . S
C3654 C3662 1.574 . S
C3654 C3670 1.368 . S
H3655 C3663 0.950 . S
H3656 C3661 0.950 . S
H3657 C3662 0.949 . S
H3658 C3664 0.950 . S
H3659 C3665 0.950 . S
H3660 C3666 0.949 . S
C3661 H3656 0.950 . S
C3661 C3663 1.327 . S
C3661 C3667 1.429 . S
C3662 C3654 1.574 . S
C3662 H3657 0.949 . S
C3662 C3668 1.368 . S
C3663 C3647 1.349 . S
C3663 H3655 0.950 . S
C3663 C3661 1.327 . S
C3664 C3652 1.349 . S
C3664 H3658 0.950 . S
C3664 C3665 1.327 . S
C3665 H3659 0.950 . S
C3665 C3664 1.327 . S
C3665 C3669 1.429 . S
C3666 C3649 1.574 . S
C3666 H3660 0.949 . S
C3666 C3670 1.368 . S
C3667 C3648 1.429 . S
C3667 C3661 1.429 . S
C3667 C3668 1.523 . S
C3668 C3649 1.368 . S
C3668 C3662 1.368 . S
C3668 C3667 1.523 . S
C3669 C3653 1.429 . S
C3669 C3665 1.429 . S
C3669 C3670 1.523 . S
C3670 C3654 1.368 . S
C3670 C3666 1.368 . S
C3670 C3669 1.523 . S
H3671 C3646 0.950 . S
H3672 C3648 0.950 . S
H3673 C3649 0.949 . S
H3674 C3651 0.950 1_545 S
H3675 C3653 0.950 . S
C3676 C3677 1.349 . S
C3676 C3678 1.327 . S
C3676 H3701 0.950 . S
C3677 C3676 1.349 . S
C3677 C3693 1.349 . S
C3678 C3676 1.327 . S
C3678 C3697 1.429 . S
C3678 H3702 0.950 . S
C3679 C3696 1.574 . S
C3679 C3698 1.368 . S
C3679 H3703 0.949 . S
H3680 C3684 0.949 . S
C3681 C3682 1.349 . S
C3681 C3683 1.327 . S
C3681 H3704 0.950 . S
C3682 C3681 1.349 . S
C3682 C3694 1.349 . S
C3683 C3681 1.327 . S
C3683 C3699 1.429 . S
C3683 H3705 0.950 . S
C3684 H3680 0.949 . S
C3684 C3692 1.574 . S
C3684 C3700 1.368 . S
H3685 C3693 0.950 . S
H3686 C3691 0.950 . S
H3687 C3692 0.949 . S
H3688 C3694 0.950 . S
H3689 C3695 0.950 . S
H3690 C3696 0.949 . S
C3691 H3686 0.950 . S
C3691 C3693 1.327 . S
C3691 C3697 1.429 . S
C3692 C3684 1.574 . S
C3692 H3687 0.949 . S
C3692 C3698 1.368 . S
C3693 C3677 1.349 . S
C3693 H3685 0.950 . S
C3693 C3691 1.327 . S
C3694 C3682 1.349 . S
C3694 H3688 0.950 . S
C3694 C3695 1.327 . S
C3695 H3689 0.950 . S
C3695 C3694 1.327 . S
C3695 C3699 1.429 . S
C3696 C3679 1.574 . S
C3696 H3690 0.949 . S
C3696 C3700 1.368 . S
C3697 C3678 1.429 . S
C3697 C3691 1.429 . S
C3697 C3698 1.523 . S
C3698 C3679 1.368 . S
C3698 C3692 1.368 . S
C3698 C3697 1.523 . S
C3699 C3683 1.429 . S
C3699 C3695 1.429 . S
C3699 C3700 1.523 . S
C3700 C3684 1.368 . S
C3700 C3696 1.368 . S
C3700 C3699 1.523 . S
H3701 C3676 0.950 . S
H3702 C3678 0.950 . S
H3703 C3679 0.949 . S
H3704 C3681 0.950 . S
H3705 C3683 0.950 . S
C3706 C3707 1.349 . S
C3706 C3708 1.327 . S
C3706 H3731 0.950 . S
C3707 C3706 1.349 . S
C3707 C3723 1.349 . S
C3708 C3706 1.327 . S
C3708 C3727 1.429 . S
C3708 H3732 0.950 . S
C3709 C3726 1.574 . S
C3709 C3728 1.368 . S
C3709 H3733 0.949 . S
H3710 C3714 0.949 . S
C3711 C3712 1.349 . S
C3711 C3713 1.327 . S
C3711 H3734 0.950 . S
C3712 C3711 1.349 . S
C3712 C3724 1.349 . S
C3713 C3711 1.327 . S
C3713 C3729 1.429 . S
C3713 H3735 0.950 . S
C3714 H3710 0.949 . S
C3714 C3722 1.574 . S
C3714 C3730 1.368 . S
H3715 C3723 0.950 . S
H3716 C3721 0.950 . S
H3717 C3722 0.949 . S
H3718 C3724 0.950 . S
H3719 C3725 0.950 . S
H3720 C3726 0.949 . S
C3721 H3716 0.950 . S
C3721 C3723 1.327 . S
C3721 C3727 1.429 . S
C3722 C3714 1.574 . S
C3722 H3717 0.949 . S
C3722 C3728 1.368 . S
C3723 C3707 1.349 . S
C3723 H3715 0.950 . S
C3723 C3721 1.327 . S
C3724 C3712 1.349 . S
C3724 H3718 0.950 . S
C3724 C3725 1.327 . S
C3725 H3719 0.950 . S
C3725 C3724 1.327 . S
C3725 C3729 1.429 . S
C3726 C3709 1.574 . S
C3726 H3720 0.949 . S
C3726 C3730 1.368 . S
C3727 C3708 1.429 . S
C3727 C3721 1.429 . S
C3727 C3728 1.523 . S
C3728 C3709 1.368 . S
C3728 C3722 1.368 . S
C3728 C3727 1.523 . S
C3729 C3713 1.429 . S
C3729 C3725 1.429 . S
C3729 C3730 1.523 . S
C3730 C3714 1.368 . S
C3730 C3726 1.368 . S
C3730 C3729 1.523 . S
H3731 C3706 0.950 . S
H3732 C3708 0.950 . S
H3733 C3709 0.949 . S
H3734 C3711 0.950 . S
H3735 C3713 0.950 . S
C3736 C3737 1.349 . S
C3736 C3738 1.327 . S
C3736 H3761 0.950 . S
C3737 C3736 1.349 . S
C3737 C3753 1.349 . S
C3738 C3736 1.327 . S
C3738 C3757 1.429 . S
C3738 H3762 0.950 . S
C3739 C3756 1.574 . S
C3739 C3758 1.368 . S
C3739 H3763 0.949 . S
H3740 C3744 0.949 . S
C3741 C3742 1.349 . S
C3741 C3743 1.327 . S
C3741 H3764 0.950 . S
C3742 C3741 1.349 . S
C3742 C3754 1.349 . S
C3743 C3741 1.327 . S
C3743 C3759 1.429 . S
C3743 H3765 0.950 . S
C3744 H3740 0.949 . S
C3744 C3752 1.574 . S
C3744 C3760 1.368 . S
H3745 C3753 0.950 . S
H3746 C3751 0.950 . S
H3747 C3752 0.949 . S
H3748 C3754 0.950 . S
H3749 C3755 0.950 . S
H3750 C3756 0.949 . S
C3751 H3746 0.950 . S
C3751 C3753 1.327 . S
C3751 C3757 1.429 . S
C3752 C3744 1.574 . S
C3752 H3747 0.949 . S
C3752 C3758 1.368 . S
C3753 C3737 1.349 . S
C3753 H3745 0.950 . S
C3753 C3751 1.327 . S
C3754 C3742 1.349 . S
C3754 H3748 0.950 . S
C3754 C3755 1.327 . S
C3755 H3749 0.950 . S
C3755 C3754 1.327 . S
C3755 C3759 1.429 . S
C3756 C3739 1.574 . S
C3756 H3750 0.949 . S
C3756 C3760 1.368 . S
C3757 C3738 1.429 . S
C3757 C3751 1.429 . S
C3757 C3758 1.523 . S
C3758 C3739 1.368 . S
C3758 C3752 1.368 . S
C3758 C3757 1.523 . S
C3759 C3743 1.429 . S
C3759 C3755 1.429 . S
C3759 C3760 1.523 . S
C3760 C3744 1.368 . S
C3760 C3756 1.368 . S
C3760 C3759 1.523 . S
H3761 C3736 0.950 . S
H3762 C3738 0.950 . S
H3763 C3739 0.949 . S
H3764 C3741 0.950 . S
H3765 C3743 0.950 . S
C3766 C3767 1.349 . S
C3766 C3768 1.327 . S
C3766 H3791 0.950 . S
C3767 C3766 1.349 . S
C3767 C3783 1.349 . S
C3768 C3766 1.327 . S
C3768 C3787 1.429 . S
C3768 H3792 0.950 . S
C3769 C3786 1.574 . S
C3769 C3788 1.368 . S
C3769 H3793 0.949 . S
H3770 C3774 0.949 1_556 S
C3771 C3772 1.349 . S
C3771 C3773 1.327 . S
C3771 H3794 0.950 . S
C3772 C3771 1.349 . S
C3772 C3784 1.349 1_554 S
C3773 C3771 1.327 . S
C3773 C3789 1.429 . S
C3773 H3795 0.950 . S
C3774 H3770 0.949 1_554 S
C3774 C3782 1.574 . S
C3774 C3790 1.368 . S
H3775 C3783 0.950 . S
H3776 C3781 0.950 . S
H3777 C3782 0.949 . S
H3778 C3784 0.950 . S
H3779 C3785 0.956 . S
H3780 C3786 0.949 . S
C3781 H3776 0.950 . S
C3781 C3783 1.327 . S
C3781 C3787 1.429 . S
C3782 C3774 1.574 . S
C3782 H3777 0.949 . S
C3782 C3788 1.368 . S
C3783 C3767 1.349 . S
C3783 H3775 0.950 . S
C3783 C3781 1.327 . S
C3784 C3772 1.349 1_556 S
C3784 H3778 0.950 . S
C3784 C3785 1.331 . S
C3785 H3779 0.956 . S
C3785 C3784 1.331 . S
C3785 C3789 1.420 1_556 S
C3786 C3769 1.574 . S
C3786 H3780 0.949 . S
C3786 C3790 1.368 . S
C3787 C3768 1.429 . S
C3787 C3781 1.429 . S
C3787 C3788 1.523 . S
C3788 C3769 1.368 . S
C3788 C3782 1.368 . S
C3788 C3787 1.523 . S
C3789 C3773 1.429 . S
C3789 C3785 1.420 1_554 S
C3789 C3790 1.523 . S
C3790 C3774 1.368 . S
C3790 C3786 1.368 . S
C3790 C3789 1.523 . S
H3791 C3766 0.950 . S
H3792 C3768 0.950 . S
H3793 C3769 0.949 . S
H3794 C3771 0.950 . S
H3795 C3773 0.950 . S
C3796 C3797 1.349 . S
C3796 C3798 1.327 . S
C3796 H3821 0.950 . S
C3797 C3796 1.349 . S
C3797 C3813 1.349 . S
C3798 C3796 1.327 . S
C3798 C3817 1.429 . S
C3798 H3822 0.950 . S
C3799 C3816 1.574 . S
C3799 C3818 1.368 . S
C3799 H3823 0.949 . S
H3800 C3804 0.949 . S
C3801 C3802 1.349 . S
C3801 C3803 1.327 . S
C3801 H3824 0.950 . S
C3802 C3801 1.349 . S
C3802 C3814 1.349 . S
C3803 C3801 1.327 . S
C3803 C3819 1.429 . S
C3803 H3825 0.950 . S
C3804 H3800 0.949 . S
C3804 C3812 1.574 . S
C3804 C3820 1.368 . S
H3805 C3813 0.950 . S
H3806 C3811 0.950 . S
H3807 C3812 0.949 . S
H3808 C3814 0.950 . S
H3809 C3815 0.950 . S
H3810 C3816 0.949 . S
C3811 H3806 0.950 . S
C3811 C3813 1.327 . S
C3811 C3817 1.429 . S
C3812 C3804 1.574 . S
C3812 H3807 0.949 . S
C3812 C3818 1.368 . S
C3813 C3797 1.349 . S
C3813 H3805 0.950 . S
C3813 C3811 1.327 . S
C3814 C3802 1.349 . S
C3814 H3808 0.950 . S
C3814 C3815 1.327 . S
C3815 H3809 0.950 . S
C3815 C3814 1.327 . S
C3815 C3819 1.429 . S
C3816 C3799 1.574 . S
C3816 H3810 0.949 . S
C3816 C3820 1.368 . S
C3817 C3798 1.429 . S
C3817 C3811 1.429 . S
C3817 C3818 1.523 . S
C3818 C3799 1.368 . S
C3818 C3812 1.368 . S
C3818 C3817 1.523 . S
C3819 C3803 1.429 . S
C3819 C3815 1.429 . S
C3819 C3820 1.523 . S
C3820 C3804 1.368 . S
C3820 C3816 1.368 . S
C3820 C3819 1.523 . S
H3821 C3796 0.950 . S
H3822 C3798 0.950 . S
H3823 C3799 0.949 . S
H3824 C3801 0.950 . S
H3825 C3803 0.950 . S
C3826 C3827 1.349 . S
C3826 C3828 1.327 . S
C3826 H3851 0.950 . S
C3827 C3826 1.349 . S
C3827 C3843 1.349 . S
C3828 C3826 1.327 . S
C3828 C3847 1.429 . S
C3828 H3852 0.950 . S
C3829 C3846 1.574 . S
C3829 C3848 1.368 . S
C3829 H3853 0.949 . S
H3830 C3834 0.949 . S
C3831 C3832 1.349 . S
C3831 C3833 1.327 . S
C3831 H3854 0.950 . S
C3832 C3831 1.349 . S
C3832 C3844 1.349 . S
C3833 C3831 1.327 . S
C3833 C3849 1.429 . S
C3833 H3855 0.950 . S
C3834 H3830 0.949 . S
C3834 C3842 1.574 . S
C3834 C3850 1.368 . S
H3835 C3843 0.950 . S
H3836 C3841 0.950 . S
H3837 C3842 0.949 . S
H3838 C3844 0.950 . S
H3839 C3845 0.950 . S
H3840 C3846 0.949 . S
C3841 H3836 0.950 . S
C3841 C3843 1.327 . S
C3841 C3847 1.429 . S
C3842 C3834 1.574 . S
C3842 H3837 0.949 . S
C3842 C3848 1.368 . S
C3843 C3827 1.349 . S
C3843 H3835 0.950 . S
C3843 C3841 1.327 . S
C3844 C3832 1.349 . S
C3844 H3838 0.950 . S
C3844 C3845 1.327 . S
C3845 H3839 0.950 . S
C3845 C3844 1.327 . S
C3845 C3849 1.429 . S
C3846 C3829 1.574 . S
C3846 H3840 0.949 . S
C3846 C3850 1.368 . S
C3847 C3828 1.429 . S
C3847 C3841 1.429 . S
C3847 C3848 1.523 . S
C3848 C3829 1.368 . S
C3848 C3842 1.368 . S
C3848 C3847 1.523 . S
C3849 C3833 1.429 . S
C3849 C3845 1.429 . S
C3849 C3850 1.523 . S
C3850 C3834 1.368 . S
C3850 C3846 1.368 . S
C3850 C3849 1.523 . S
H3851 C3826 0.950 . S
H3852 C3828 0.950 . S
H3853 C3829 0.949 . S
H3854 C3831 0.950 . S
H3855 C3833 0.950 . S
C977 C109 1.965 . S
C982 C367 1.944 . S
C1007 C65 1.732 . S
C1012 C378 1.728 . S
C1037 C75 1.561 . S
C1042 C447 1.530 . S
C1072 C460 1.243 . S
C1067 C84 1.251 . S
C1097 C25 2.519 . S
C1102 C516 2.497 . S
C1132 C567 1.893 . S
C1127 C28 1.906 . S
C1162 C596 2.441 . S
C1157 C47 2.458 . S
C1187 C9 2.376 . S
C1192 C647 2.336 . S
C1222 C338 1.195 . S
C1217 C233 1.203 . S
C1247 C249 0.768 . S
C1252 C380 0.767 . S
C1282 C418 1.084 . S
C1277 C275 1.094 . S
C1312 C487 1.533 . S
C1307 C173 1.538 . S
C1337 C224 0.539 . S
C1342 C521 0.544 . S
C1372 C538 1.430 . S
C1367 C243 1.436 . S
C1402 C601 0.296 . S
C1397 C266 0.273 . S
C1432 C618 1.962 . S
C1427 C179 1.992 . S
C1462 C340 1.493 . S
C1457 C163 1.538 . S
C1487 C289 1.593 . S
C1492 C679 1.550 . S
C1522 C700 1.203 . S
C1517 C333 1.231 . S
C1552 C759 0.275 1_655 S
C1547 C308 0.126 . S
C1577 C123 0.880 . S
C1582 C620 0.877 . S
C1607 C126 1.369 . S
C1612 C420 1.363 . S
C1637 C327 0.862 . S
C1642 C778 0.865 . S
C1672 C847 1.005 . S
C1667 C299 1.023 . S
C1702 C356 1.965 . S
C1697 C67 1.994 . S
C1732 C839 1.770 . S
C1727 C98 1.740 . S
C1757 C89 1.592 . S
C1762 C436 1.564 . S
C1787 C79 1.300 . S
C1792 C801 1.285 . S
C1822 C527 2.547 . S
C1817 C11 2.563 . S
C1847 C51 1.955 . S
C1852 C716 1.924 . S
C1882 C607 2.503 1_556 S
C1877 C33 2.520 . S
C1912 C876 2.341 . S
C1907 C14 2.392 1_655 S
C1942 C359 1.175 . S
C1937 C140 1.179 . S
C1972 C841 0.781 . S
C1967 C319 0.784 . S
C1997 C112 1.118 . S
C2002 C439 1.115 . S
C2027 C285 1.577 . S
C2032 C796 1.575 . S
C2057 C149 0.562 . S
C2062 C500 0.573 . S
C2092 C719 1.484 . S
C2087 C313 1.492 . S
C2117 C121 0.313 . S
C2122 C580 0.348 . S
C2147 C291 2.042 . S
C2152 C879 2.011 . S
C2177 C182 1.529 . S
C2182 C361 1.463 . S
C2207 C168 1.598 . S
C2212 C658 1.573 . S
C2237 C263 1.242 . S
C2242 C561 1.205 . S
C2267 C247 0.239 . S
C2272 C738 0.308 . S
C2302 C881 0.860 . S
C2297 C277 0.866 . S
C2327 C219 1.408 . S
C2332 C441 1.378 . S
C2362 C479 0.922 . S
C2357 C257 0.919 . S
C2392 C396 1.010 . S
C2387 C201 1.027 . S
C2417 C81 1.965 . S
C2422 C927 1.947 . S
C2452 C818 1.728 . S
C2447 C93 1.732 . S
C2477 C103 1.560 . S
C2482 C967 1.531 . S
C2507 C56 1.251 . S
C2512 C780 1.243 . S
C2537 C53 2.519 . S
C2542 C676 2.498 . S
C2572 C727 1.893 . S
C2567 C0 1.965 . S
C2602 C756 2.441 . S
C2597 C19 2.458 . S
C2632 C887 2.336 . S
C2627 C37 2.376 . S
C2662 C898 1.195 . S
C2657 C261 1.203 . S
C2687 C193 0.768 . S
C2692 C820 0.767 . S
C2722 C938 1.083 . S
C2717 C205 1.094 . S
C2752 C807 1.532 . S
C2747 C215 1.537 . S
C2782 C681 0.544 . S
C2777 C252 0.539 . S
C2807 C187 1.436 . S
C2812 C698 1.430 . S
C2842 C761 0.296 . S
C2837 C196 0.273 . S
C2867 C221 1.992 . S
C2872 C858 1.962 . S
C2902 C900 1.493 . S
C2897 C317 1.538 . S
C2927 C135 1.593 . S
C2932 C519 1.550 . S
C2962 C540 1.203 . S
C2957 C151 1.231 1_565 S
C2992 C599 0.292 . S
C2987 C154 0.115 1_554 S
C3022 C860 0.877 . S
C3017 C305 0.880 . S
C3047 C280 1.369 . S
C3052 C940 1.363 . S
C3082 C458 0.865 . S
C3077 C145 0.862 . S
C3112 C407 1.005 . S
C3107 C117 1.023 . S
C3137 C95 1.994 . S
C3142 C916 1.965 . S
C3172 C399 1.770 . S
C3167 C70 1.734 . S
C3197 C61 1.591 . S
C3202 C956 1.564 . S
C3227 C107 1.300 . S
C3232 C481 1.277 . S
C3257 C39 2.563 . S
C3262 C687 2.547 1_556 S
C3292 C556 1.923 . S
C3287 C23 1.955 . S
C3317 C5 2.520 . S
C3322 C767 2.503 . S
C3347 C42 2.392 . S
C3352 C636 2.341 . S
C3382 C919 1.175 . S
C3377 C322 1.179 . S
C3407 C165 0.784 . S
C3412 C401 0.779 . S
C3442 C959 1.115 . S
C3437 C294 1.117 . S
C3467 C131 1.577 . S
C3472 C476 1.575 . S
C3497 C331 0.562 . S
C3502 C660 0.573 . S
C3532 C559 1.484 . S
C3527 C159 1.493 . S
C3557 C303 0.313 . S
C3562 C740 0.348 . S
C3592 C639 2.011 . S
C3587 C137 2.042 . S
C3622 C921 1.465 . S
C3617 C238 1.529 . S
C3652 C498 1.573 1_665 S
C3647 C210 1.599 . S
C3677 C235 1.242 . S
C3682 C721 1.205 . S
C3712 C578 0.308 . S
C3707 C191 0.240 . S
C3737 C207 0.866 . S
C3742 C641 0.860 . S
C3767 C177 1.408 . S
C3772 C961 1.378 . S
C3802 C799 0.922 . S
C3797 C229 0.919 . S
C3832 C836 1.010 . S
C3827 C271 1.027 . S
