# Generated by pormake.
# Topology eea, (3,6)-cn, num edge types: 1
# Building blocks:
#     Node 0, Type 0, BuildingBlock: WUSLED_clean_sbu_0, # of connection points: 3
#     Node 1, Type 0, BuildingBlock: WUSLED_clean_sbu_0, # of connection points: 3
#     Node 2, Type 0, BuildingBlock: WUSLED_clean_sbu_0, # of connection points: 3
#     Node 3, Type 0, BuildingBlock: WUSLED_clean_sbu_0, # of connection points: 3
#     Node 4, Type 0, BuildingBlock: WUSLED_clean_sbu_0, # of connection points: 3
#     Node 5, Type 0, BuildingBlock: WUSLED_clean_sbu_0, # of connection points: 3
#     Node 6, Type 0, BuildingBlock: WUSLED_clean_sbu_0, # of connection points: 3
#     Node 7, Type 0, BuildingBlock: WUSLED_clean_sbu_0, # of connection points: 3
#     Node 8, Type 0, BuildingBlock: WUSLED_clean_sbu_0, # of connection points: 3
#     Node 9, Type 0, BuildingBlock: WUSLED_clean_sbu_0, # of connection points: 3
#     Node 10, Type 0, BuildingBlock: WUSLED_clean_sbu_0, # of connection points: 3
#     Node 11, Type 0, BuildingBlock: WUSLED_clean_sbu_0, # of connection points: 3
#     Node 12, Type 0, BuildingBlock: WUSLED_clean_sbu_0, # of connection points: 3
#     Node 13, Type 0, BuildingBlock: WUSLED_clean_sbu_0, # of connection points: 3
#     Node 14, Type 0, BuildingBlock: WUSLED_clean_sbu_0, # of connection points: 3
#     Node 15, Type 0, BuildingBlock: WUSLED_clean_sbu_0, # of connection points: 3
#     Node 16, Type 0, BuildingBlock: WUSLED_clean_sbu_0, # of connection points: 3
#     Node 17, Type 0, BuildingBlock: WUSLED_clean_sbu_0, # of connection points: 3
#     Node 18, Type 1, BuildingBlock: CUKXOW_clean_sbu_0, # of connection points: 6
#     Node 19, Type 1, BuildingBlock: CUKXOW_clean_sbu_0, # of connection points: 6
#     Node 20, Type 1, BuildingBlock: CUKXOW_clean_sbu_0, # of connection points: 6
#     Node 21, Type 1, BuildingBlock: CUKXOW_clean_sbu_0, # of connection points: 6
#     Node 22, Type 1, BuildingBlock: CUKXOW_clean_sbu_0, # of connection points: 6
#     Node 23, Type 1, BuildingBlock: CUKXOW_clean_sbu_0, # of connection points: 6
#     Node 24, Type 1, BuildingBlock: CUKXOW_clean_sbu_0, # of connection points: 6
#     Node 25, Type 1, BuildingBlock: CUKXOW_clean_sbu_0, # of connection points: 6
#     Node 26, Type 1, BuildingBlock: CUKXOW_clean_sbu_0, # of connection points: 6
#     Edge 27, Type (0, 1), BuildingBlock: KIFKEQ_clean_linker_1, # of connection points: 2
#     Edge 28, Type (0, 1), BuildingBlock: KIFKEQ_clean_linker_1, # of connection points: 2
#     Edge 29, Type (0, 1), BuildingBlock: KIFKEQ_clean_linker_1, # of connection points: 2
#     Edge 30, Type (0, 1), BuildingBlock: KIFKEQ_clean_linker_1, # of connection points: 2
#     Edge 31, Type (0, 1), BuildingBlock: KIFKEQ_clean_linker_1, # of connection points: 2
#     Edge 32, Type (0, 1), BuildingBlock: KIFKEQ_clean_linker_1, # of connection points: 2
#     Edge 33, Type (0, 1), BuildingBlock: KIFKEQ_clean_linker_1, # of connection points: 2
#     Edge 34, Type (0, 1), BuildingBlock: KIFKEQ_clean_linker_1, # of connection points: 2
#     Edge 35, Type (0, 1), BuildingBlock: KIFKEQ_clean_linker_1, # of connection points: 2
#     Edge 36, Type (0, 1), BuildingBlock: KIFKEQ_clean_linker_1, # of connection points: 2
#     Edge 37, Type (0, 1), BuildingBlock: KIFKEQ_clean_linker_1, # of connection points: 2
#     Edge 38, Type (0, 1), BuildingBlock: KIFKEQ_clean_linker_1, # of connection points: 2
#     Edge 39, Type (0, 1), BuildingBlock: KIFKEQ_clean_linker_1, # of connection points: 2
#     Edge 40, Type (0, 1), BuildingBlock: KIFKEQ_clean_linker_1, # of connection points: 2
#     Edge 41, Type (0, 1), BuildingBlock: KIFKEQ_clean_linker_1, # of connection points: 2
#     Edge 42, Type (0, 1), BuildingBlock: KIFKEQ_clean_linker_1, # of connection points: 2
#     Edge 43, Type (0, 1), BuildingBlock: KIFKEQ_clean_linker_1, # of connection points: 2
#     Edge 44, Type (0, 1), BuildingBlock: KIFKEQ_clean_linker_1, # of connection points: 2
#     Edge 45, Type (0, 1), BuildingBlock: KIFKEQ_clean_linker_1, # of connection points: 2
#     Edge 46, Type (0, 1), BuildingBlock: KIFKEQ_clean_linker_1, # of connection points: 2
#     Edge 47, Type (0, 1), BuildingBlock: KIFKEQ_clean_linker_1, # of connection points: 2
#     Edge 48, Type (0, 1), BuildingBlock: KIFKEQ_clean_linker_1, # of connection points: 2
#     Edge 49, Type (0, 1), BuildingBlock: KIFKEQ_clean_linker_1, # of connection points: 2
#     Edge 50, Type (0, 1), BuildingBlock: KIFKEQ_clean_linker_1, # of connection points: 2
#     Edge 51, Type (0, 1), BuildingBlock: KIFKEQ_clean_linker_1, # of connection points: 2
#     Edge 52, Type (0, 1), BuildingBlock: KIFKEQ_clean_linker_1, # of connection points: 2
#     Edge 53, Type (0, 1), BuildingBlock: KIFKEQ_clean_linker_1, # of connection points: 2
#     Edge 54, Type (0, 1), BuildingBlock: KIFKEQ_clean_linker_1, # of connection points: 2
#     Edge 55, Type (0, 1), BuildingBlock: KIFKEQ_clean_linker_1, # of connection points: 2
#     Edge 56, Type (0, 1), BuildingBlock: KIFKEQ_clean_linker_1, # of connection points: 2
#     Edge 57, Type (0, 1), BuildingBlock: KIFKEQ_clean_linker_1, # of connection points: 2
#     Edge 58, Type (0, 1), BuildingBlock: KIFKEQ_clean_linker_1, # of connection points: 2
#     Edge 59, Type (0, 1), BuildingBlock: KIFKEQ_clean_linker_1, # of connection points: 2
#     Edge 60, Type (0, 1), BuildingBlock: KIFKEQ_clean_linker_1, # of connection points: 2
#     Edge 61, Type (0, 1), BuildingBlock: KIFKEQ_clean_linker_1, # of connection points: 2
#     Edge 62, Type (0, 1), BuildingBlock: KIFKEQ_clean_linker_1, # of connection points: 2
#     Edge 63, Type (0, 1), BuildingBlock: KIFKEQ_clean_linker_1, # of connection points: 2
#     Edge 64, Type (0, 1), BuildingBlock: KIFKEQ_clean_linker_1, # of connection points: 2
#     Edge 65, Type (0, 1), BuildingBlock: KIFKEQ_clean_linker_1, # of connection points: 2
#     Edge 66, Type (0, 1), BuildingBlock: KIFKEQ_clean_linker_1, # of connection points: 2
#     Edge 67, Type (0, 1), BuildingBlock: KIFKEQ_clean_linker_1, # of connection points: 2
#     Edge 68, Type (0, 1), BuildingBlock: KIFKEQ_clean_linker_1, # of connection points: 2
#     Edge 69, Type (0, 1), BuildingBlock: KIFKEQ_clean_linker_1, # of connection points: 2
#     Edge 70, Type (0, 1), BuildingBlock: KIFKEQ_clean_linker_1, # of connection points: 2
#     Edge 71, Type (0, 1), BuildingBlock: KIFKEQ_clean_linker_1, # of connection points: 2
#     Edge 72, Type (0, 1), BuildingBlock: KIFKEQ_clean_linker_1, # of connection points: 2
#     Edge 73, Type (0, 1), BuildingBlock: KIFKEQ_clean_linker_1, # of connection points: 2
#     Edge 74, Type (0, 1), BuildingBlock: KIFKEQ_clean_linker_1, # of connection points: 2
#     Edge 75, Type (0, 1), BuildingBlock: KIFKEQ_clean_linker_1, # of connection points: 2
#     Edge 76, Type (0, 1), BuildingBlock: KIFKEQ_clean_linker_1, # of connection points: 2
#     Edge 77, Type (0, 1), BuildingBlock: KIFKEQ_clean_linker_1, # of connection points: 2
#     Edge 78, Type (0, 1), BuildingBlock: KIFKEQ_clean_linker_1, # of connection points: 2
#     Edge 79, Type (0, 1), BuildingBlock: KIFKEQ_clean_linker_1, # of connection points: 2
#     Edge 80, Type (0, 1), BuildingBlock: KIFKEQ_clean_linker_1, # of connection points: 2
# Relax obj value: 0.018
# Max RMSD: 0.123
# Mean RMSD: 0.054
data_MOF--net-eea--node1-WUSLED_clean_sbu_0--node2-CUKXOW_clean_sbu_0--edge1-KIFKEQ_clean_linker_1
_symmetry_space_group_name_H-M    P1
_symmetry_Int_Tables_number       1
_symmetry_cell_setting            triclinic
loop_
_symmetry_equiv_pos_as_xyz
'x, y, z'
_cell_length_a     72.046951
_cell_length_b     69.141884
_cell_length_c     76.930413
_cell_angle_alpha  92.680974
_cell_angle_beta   92.881607
_cell_angle_gamma 119.8363
loop_
_atom_site_label
_atom_site_type_symbol
_atom_site_fract_x
_atom_site_fract_y
_atom_site_fract_z
_atom_type_partial_charge
C0 C 0.2393 0.16868 0.41646 0.0
C1 C 0.25633 0.19037 0.41462 0.0
C2 C 0.23124 0.2014 0.40264 0.0
C3 C 0.25234 0.20654 0.40781 0.0
C4 C 0.21424 0.17981 0.40484 0.0
C5 C 0.21824 0.16367 0.41158 0.0
U6 U 0.258 0.14021 0.4499 0.0
O7 O 0.24301 0.10457 0.45456 0.0
O8 O 0.2754 0.12195 0.4456 0.0
C9 C 0.25923 0.1028 0.44934 0.0
C10 C 0.24311 0.1506 0.42211 0.0
C11 C 0.25365 0.08321 0.4372 0.0
C12 C 0.23845 0.06135 0.40923 0.0
C13 C 0.24387 0.08044 0.42032 0.0
C14 C 0.25263 0.04778 0.4318 0.0
C15 C 0.24278 0.04475 0.41485 0.0
C16 C 0.25801 0.0668 0.44282 0.0
C17 C 0.28089 0.16725 0.49667 0.0
C18 C 0.27791 0.16719 0.52812 0.0
C19 C 0.31002 0.17079 0.51662 0.0
C20 C 0.30137 0.1696 0.49962 0.0
C21 C 0.29843 0.16963 0.53112 0.0
C22 C 0.2693 0.16611 0.51112 0.0
C23 C 0.27173 0.16689 0.47883 0.0
O24 O 0.26318 0.15541 0.42481 0.0
O25 O 0.23077 0.13806 0.43375 0.0
O26 O 0.25146 0.15166 0.47489 0.0
O27 O 0.28381 0.16933 0.46591 0.0
H28 H 0.2728 0.19479 0.41812 0.0
H29 H 0.26586 0.22288 0.40616 0.0
H30 H 0.19776 0.17532 0.40131 0.0
H31 H 0.20481 0.14707 0.41274 0.0
H32 H 0.23104 0.05967 0.39623 0.0
H33 H 0.24039 0.09299 0.41575 0.0
H34 H 0.25585 0.03523 0.43673 0.0
H35 H 0.26545 0.0686 0.45584 0.0
H36 H 0.26836 0.16593 0.53889 0.0
H37 H 0.326 0.17303 0.51838 0.0
H38 H 0.31086 0.17073 0.48883 0.0
H39 H 0.25355 0.16443 0.50928 0.0
C40 C 0.9418 0.16485 0.4231 0.0
C41 C 0.95551 0.18491 0.43327 0.0
C42 C 0.9811 0.19663 0.41093 0.0
C43 C 0.97501 0.20071 0.42722 0.0
C44 C 0.96712 0.17652 0.40081 0.0
C45 C 0.94772 0.16083 0.40685 0.0
U46 U 0.89847 0.14065 0.45608 0.0
O47 O 0.86332 0.12156 0.45068 0.0
O48 O 0.88003 0.10587 0.46301 0.0
C49 C 0.8618 0.10295 0.45575 0.0
C50 C 0.92134 0.14772 0.42905 0.0
C51 C 0.84866 0.08236 0.44385 0.0
C52 C 0.81878 0.06067 0.42178 0.0
C53 C 0.83213 0.08057 0.43216 0.0
C54 C 0.83819 0.04384 0.43447 0.0
C55 C 0.82152 0.04198 0.4229 0.0
C56 C 0.85153 0.06373 0.44486 0.0
C57 C 0.90355 0.1719 0.49999 0.0
C58 C 0.87956 0.15456 0.5227 0.0
C59 C 0.90559 0.1942 0.52618 0.0
C60 C 0.91281 0.19253 0.50992 0.0
C61 C 0.88897 0.1752 0.53285 0.0
C62 C 0.88675 0.15294 0.50641 0.0
C63 C 0.91174 0.17038 0.4831 0.0
O64 O 0.92283 0.13714 0.44233 0.0
O65 O 0.9063 0.15311 0.43009 0.0
O66 O 0.90061 0.1708 0.46919 0.0
O67 O 0.91756 0.1552 0.48128 0.0
H68 H 0.95119 0.18827 0.44589 0.0
H69 H 0.98546 0.21593 0.43541 0.0
H70 H 0.97107 0.17297 0.3881 0.0
H71 H 0.93728 0.14547 0.39879 0.0
H72 H 0.80626 0.05992 0.41288 0.0
H73 H 0.82927 0.09447 0.43117 0.0
H74 H 0.84056 0.02969 0.4359 0.0
H75 H 0.86386 0.06435 0.45391 0.0
H76 H 0.86656 0.13966 0.52732 0.0
H77 H 0.91337 0.21028 0.53371 0.0
H78 H 0.92581 0.20735 0.50518 0.0
H79 H 0.87929 0.13687 0.49886 0.0
C80 C 0.87933 0.79235 0.43072 0.0
C81 C 0.86115 0.78538 0.44011 0.0
C82 C 0.84618 0.8005 0.41917 0.0
C83 C 0.84469 0.78938 0.43437 0.0
C84 C 0.86451 0.80745 0.40986 0.0
C85 C 0.8809 0.8034 0.4156 0.0
U86 U 0.90608 0.77181 0.46348 0.0
O87 O 0.9219 0.75204 0.45875 0.0
O88 O 0.94028 0.78582 0.472 0.0
C89 C 0.9409 0.7685 0.46491 0.0
C90 C 0.89671 0.7881 0.43638 0.0
C91 C 0.9584 0.77376 0.45356 0.0
C92 C 0.97615 0.78864 0.42731 0.0
C93 C 0.95938 0.78382 0.43795 0.0
C94 C 0.99105 0.77336 0.44779 0.0
C95 C 0.99218 0.78342 0.43208 0.0
C96 C 0.97432 0.76858 0.45841 0.0
C97 C 0.87783 0.74891 0.50545 0.0
C98 C 0.89022 0.73439 0.52879 0.0
C99 C 0.8564 0.73379 0.52991 0.0
C100 C 0.85949 0.7437 0.51412 0.0
C101 C 0.8716 0.72881 0.5374 0.0
C102 C 0.89328 0.74431 0.51288 0.0
C103 C 0.8801 0.75885 0.48863 0.0
O104 O 0.90925 0.80067 0.45013 0.0
O105 O 0.89117 0.76693 0.43678 0.0
O106 O 0.87761 0.74579 0.47469 0.0
O107 O 0.89605 0.77943 0.48822 0.0
H108 H 0.85971 0.77685 0.45187 0.0
H109 H 0.83092 0.78401 0.44194 0.0
H110 H 0.86607 0.81573 0.39797 0.0
H111 H 0.89479 0.80882 0.40815 0.0
H112 H 0.97639 0.79619 0.41524 0.0
H113 H 0.94716 0.78788 0.43398 0.0
H114 H 1.00327 0.76943 0.45203 0.0
H115 H 0.97385 0.76087 0.47045 0.0
H116 H 0.90219 0.7307 0.53418 0.0
H117 H 0.8421 0.73016 0.53632 0.0
H118 H 0.84745 0.74724 0.50862 0.0
H119 H 0.90757 0.74824 0.50633 0.0
C120 C 0.0905 0.24039 0.6066 0.0
C121 C 0.07888 0.24954 0.59884 0.0
C122 C 0.05126 0.23216 0.61916 0.0
C123 C 0.05943 0.24551 0.60511 0.0
C124 C 0.06309 0.22312 0.62686 0.0
C125 C 0.08249 0.2272 0.62063 0.0
U126 U 0.13329 0.26096 0.57347 0.0
O127 O 0.16847 0.27818 0.57802 0.0
O128 O 0.15107 0.24497 0.56371 0.0
C129 C 0.16955 0.26098 0.57123 0.0
C130 C 0.11087 0.24415 0.60027 0.0
C131 C 0.18248 0.25364 0.58159 0.0
C132 C 0.20402 0.2562 0.60798 0.0
C133 C 0.19098 0.26266 0.5988 0.0
C134 C 0.19994 0.23127 0.58309 0.0
C135 C 0.2088 0.24053 0.60021 0.0
C136 C 0.18703 0.23783 0.57388 0.0
C137 C 0.12731 0.28737 0.53261 0.0
C138 C 0.15407 0.30048 0.51143 0.0
C139 C 0.12165 0.30251 0.50629 0.0
C140 C 0.11471 0.2932 0.5221 0.0
C141 C 0.14138 0.30617 0.50071 0.0
C142 C 0.14708 0.29113 0.52723 0.0
C143 C 0.11951 0.27718 0.54901 0.0
O144 O 0.10912 0.23202 0.58596 0.0
O145 O 0.12621 0.26514 0.60042 0.0
O146 O 0.13105 0.28904 0.56336 0.0
O147 O 0.11366 0.25588 0.54901 0.0
H148 H 0.08481 0.25971 0.58792 0.0
H149 H 0.05064 0.25255 0.59879 0.0
H150 H 0.05746 0.21306 0.63786 0.0
H151 H 0.09128 0.22005 0.6268 0.0
H152 H 0.21075 0.26393 0.62104 0.0
H153 H 0.18783 0.27492 0.60514 0.0
H154 H 0.20293 0.21888 0.57676 0.0
H155 H 0.18069 0.23063 0.56064 0.0
H156 H 0.16921 0.30281 0.50744 0.0
H157 H 0.11161 0.30694 0.49849 0.0
H158 H 0.09942 0.29047 0.52608 0.0
H159 H 0.15699 0.28665 0.53519 0.0
C160 C 0.79714 0.85878 0.61866 0.0
C161 C 0.79424 0.8412 0.60686 0.0
C162 C 0.80303 0.82393 0.63048 0.0
C163 C 0.79719 0.82394 0.61272 0.0
C164 C 0.80568 0.84153 0.64222 0.0
C165 C 0.80277 0.85876 0.63635 0.0
U166 U 0.78082 0.88722 0.58414 0.0
O167 O 0.76509 0.90733 0.58723 0.0
O168 O 0.79742 0.92251 0.57811 0.0
C169 C 0.78194 0.92574 0.58316 0.0
C170 C 0.79475 0.87746 0.61279 0.0
C171 C 0.78876 0.94612 0.59478 0.0
C172 C 0.79388 0.96522 0.62353 0.0
C173 C 0.78781 0.94557 0.61297 0.0
C174 C 0.8022 0.98616 0.59791 0.0
C175 C 0.80115 0.98577 0.61611 0.0
C176 C 0.79605 0.96655 0.58738 0.0
C177 C 0.75712 0.85827 0.53841 0.0
C178 C 0.7467 0.87556 0.51603 0.0
C179 C 0.74188 0.83861 0.50974 0.0
C180 C 0.75041 0.83943 0.52669 0.0
C181 C 0.73987 0.85665 0.50418 0.0
C182 C 0.75525 0.87636 0.53299 0.0
C183 C 0.76594 0.85875 0.55622 0.0
O184 O 0.80732 0.88878 0.60081 0.0
O185 O 0.77493 0.8733 0.60978 0.0
O186 O 0.75403 0.85817 0.5688 0.0
O187 O 0.78641 0.87342 0.55989 0.0
H188 H 0.78981 0.8409 0.59314 0.0
H189 H 0.79477 0.81053 0.60335 0.0
H190 H 0.81047 0.84228 0.65592 0.0
H191 H 0.80514 0.87223 0.64563 0.0
H192 H 0.79309 0.96437 0.63752 0.0
H193 H 0.78233 0.92997 0.61897 0.0
H194 H 0.80742 1.00159 0.59171 0.0
H195 H 0.79684 0.96733 0.57338 0.0
H196 H 0.74566 0.88987 0.51215 0.0
H197 H 0.73653 0.82367 0.50108 0.0
H198 H 0.75169 0.82528 0.53067 0.0
H199 H 0.76042 0.89109 0.54187 0.0
C200 C 0.09001 0.86266 0.60934 0.0
C201 C 0.08779 0.84398 0.6176 0.0
C202 C 0.04973 0.83051 0.62012 0.0
C203 C 0.0679 0.82807 0.62287 0.0
C204 C 0.05191 0.84906 0.61168 0.0
C205 C 0.0718 0.86497 0.60643 0.0
U206 U 0.13643 0.88884 0.57932 0.0
O207 O 0.15597 0.92384 0.57322 0.0
O208 O 0.17137 0.90715 0.58607 0.0
C209 C 0.1737 0.92608 0.58101 0.0
C210 C 0.11138 0.88052 0.60495 0.0
C211 C 0.18688 0.94639 0.59316 0.0
C212 C 0.1972 0.98456 0.60357 0.0
C213 C 0.1835 0.96477 0.59318 0.0
C214 C 0.21784 0.96803 0.61429 0.0
C215 C 0.21469 0.98654 0.61412 0.0
C216 C 0.20417 0.94826 0.60389 0.0
C217 C 0.13294 0.85845 0.53535 0.0
C218 C 0.15832 0.87581 0.51356 0.0
C219 C 0.13109 0.83661 0.50897 0.0
C220 C 0.12335 0.83811 0.525 0.0
C221 C 0.14857 0.85549 0.50297 0.0
C222 C 0.15059 0.87727 0.52962 0.0
C223 C 0.12409 0.85984 0.55189 0.0
O224 O 0.12681 0.87558 0.60482 0.0
O225 O 0.1115 0.89242 0.59205 0.0
O226 O 0.11867 0.87536 0.55351 0.0
O227 O 0.13437 0.85879 0.5661 0.0
H228 H 0.10151 0.84181 0.62033 0.0
H229 H 0.06691 0.81421 0.62958 0.0
H230 H 0.03824 0.85135 0.60916 0.0
H231 H 0.07296 0.87927 0.60029 0.0
H232 H 0.19447 0.99856 0.60289 0.0
H233 H 0.17056 0.96409 0.58489 0.0
H234 H 0.23098 0.96885 0.6224 0.0
H235 H 0.20739 0.93454 0.60405 0.0
H236 H 0.17196 0.8906 0.50944 0.0
H237 H 0.12305 0.82079 0.50108 0.0
H238 H 0.10969 0.82342 0.52922 0.0
H239 H 0.15828 0.8931 0.53751 0.0
C240 C 0.90439 0.49928 0.75103 0.0
C241 C 0.90648 0.51651 0.76281 0.0
C242 C 0.89741 0.5334 0.73903 0.0
C243 C 0.90298 0.53341 0.75687 0.0
C244 C 0.89549 0.51611 0.72733 0.0
C245 C 0.89895 0.49926 0.73328 0.0
U246 U 0.92142 0.47099 0.78543 0.0
O247 O 0.90597 0.43542 0.7904 0.0
O248 O 0.93866 0.4524 0.78204 0.0
C249 C 0.92222 0.43338 0.78566 0.0
C250 C 0.90753 0.48104 0.75688 0.0
C251 C 0.91679 0.41369 0.77368 0.0
C252 C 0.90011 0.39051 0.74643 0.0
C253 C 0.90541 0.40972 0.75732 0.0
C254 C 0.91766 0.37929 0.7681 0.0
C255 C 0.90615 0.37502 0.75171 0.0
C256 C 0.92291 0.39841 0.77893 0.0
C257 C 0.9436 0.4987 0.83218 0.0
C258 C 0.93825 0.48967 0.86247 0.0
C259 C 0.97426 0.51205 0.85379 0.0
C260 C 0.9659 0.5107 0.83667 0.0
C261 C 0.96056 0.50158 0.86695 0.0
C262 C 0.92988 0.48829 0.84533 0.0
C263 C 0.93482 0.49813 0.81411 0.0
O264 O 0.92756 0.48601 0.76022 0.0
O265 O 0.89484 0.46897 0.76853 0.0
O266 O 0.91452 0.48316 0.80985 0.0
O267 O 0.9472 0.50011 0.80151 0.0
H268 H 0.91074 0.51684 0.77657 0.0
H269 H 0.90482 0.54657 0.76622 0.0
H270 H 0.89091 0.51532 0.71358 0.0
H271 H 0.8972 0.48606 0.724 0.0
H272 H 0.89141 0.38788 0.73384 0.0
H273 H 0.90059 0.42139 0.75303 0.0
H274 H 0.92226 0.3676 0.77275 0.0
H275 H 0.93162 0.40116 0.79155 0.0
H276 H 0.92717 0.4817 0.87229 0.0
H277 H 0.99153 0.52116 0.85667 0.0
H278 H 0.97694 0.51917 0.82694 0.0
H279 H 0.91261 0.47922 0.84247 0.0
C280 C 0.61105 0.49389 0.76268 0.0
C281 C 0.62331 0.51503 0.77186 0.0
C282 C 0.651 0.52556 0.75139 0.0
C283 C 0.64311 0.53076 0.76623 0.0
C284 C 0.63858 0.50429 0.74234 0.0
C285 C 0.61884 0.48865 0.74794 0.0
U286 U 0.56699 0.46968 0.79494 0.0
O287 O 0.53189 0.45271 0.78926 0.0
O288 O 0.54675 0.43462 0.8006 0.0
C289 C 0.52902 0.43343 0.79395 0.0
C290 C 0.59003 0.47705 0.768 0.0
C291 C 0.51522 0.41383 0.78166 0.0
C292 C 0.5094 0.39036 0.75508 0.0
C293 C 0.52277 0.40945 0.76635 0.0
C294 C 0.48081 0.38004 0.77426 0.0
C295 C 0.48825 0.37538 0.75893 0.0
C296 C 0.49417 0.39907 0.78549 0.0
C297 C 0.57293 0.49893 0.84029 0.0
C298 C 0.56996 0.49112 0.87094 0.0
C299 C 0.55413 0.51183 0.85888 0.0
C300 C 0.56142 0.51024 0.84263 0.0
C301 C 0.55827 0.50226 0.87325 0.0
C302 C 0.57725 0.48955 0.8547 0.0
C303 C 0.58107 0.49766 0.82312 0.0
O304 O 0.59048 0.46514 0.78066 0.0
O305 O 0.57575 0.48347 0.7695 0.0
O306 O 0.57107 0.50003 0.80931 0.0
O307 O 0.58597 0.48186 0.82039 0.0
H308 H 0.61755 0.51934 0.78332 0.0
H309 H 0.65234 0.5469 0.7736 0.0
H310 H 0.64394 0.4998 0.73071 0.0
H311 H 0.60956 0.47245 0.74066 0.0
H312 H 0.51557 0.3874 0.74332 0.0
H313 H 0.53899 0.42074 0.76316 0.0
H314 H 0.46477 0.36874 0.77779 0.0
H315 H 0.48811 0.40215 0.79728 0.0
H316 H 0.57378 0.4839 0.88178 0.0
H317 H 0.54503 0.52035 0.86012 0.0
H318 H 0.55802 0.51792 0.83191 0.0
H319 H 0.58639 0.48106 0.85349 0.0
C320 C 0.54545 0.12555 0.76486 0.0
C321 C 0.52642 0.11713 0.77328 0.0
C322 C 0.51276 0.13429 0.75313 0.0
C323 C 0.51017 0.12142 0.76744 0.0
C324 C 0.53195 0.14269 0.74482 0.0
C325 C 0.54811 0.13836 0.75064 0.0
U326 U 0.57204 0.1041 0.79717 0.0
O327 O 0.58811 0.08473 0.79203 0.0
O328 O 0.60636 0.11836 0.80562 0.0
C329 C 0.60713 0.10139 0.79799 0.0
C330 C 0.56268 0.1211 0.77056 0.0
C331 C 0.62482 0.10721 0.78658 0.0
C332 C 0.63788 0.10499 0.75837 0.0
C333 C 0.62083 0.09982 0.76874 0.0
C334 C 0.66319 0.12547 0.78339 0.0
C335 C 0.65931 0.1178 0.76558 0.0
C336 C 0.64614 0.12015 0.79377 0.0
C337 C 0.54432 0.07946 0.83881 0.0
C338 C 0.55926 0.06865 0.86307 0.0
C339 C 0.52212 0.05964 0.86178 0.0
C340 C 0.52458 0.06982 0.84615 0.0
C341 C 0.53937 0.05882 0.87043 0.0
C342 C 0.5617 0.07883 0.84732 0.0
C343 C 0.54613 0.09 0.82231 0.0
O344 O 0.575 0.13331 0.78451 0.0
O345 O 0.55718 0.09991 0.77056 0.0
O346 O 0.54362 0.07746 0.80803 0.0
O347 O 0.56188 0.11075 0.82218 0.0
H348 H 0.52414 0.10726 0.78434 0.0
H349 H 0.4957 0.11488 0.77424 0.0
H350 H 0.53436 0.15235 0.73361 0.0
H351 H 0.56267 0.14493 0.74396 0.0
H352 H 0.63422 0.09856 0.74479 0.0
H353 H 0.60454 0.08985 0.76278 0.0
H354 H 0.67943 0.13571 0.78935 0.0
H355 H 0.64963 0.12613 0.80747 0.0
H356 H 0.57283 0.06822 0.86935 0.0
H357 H 0.50671 0.05267 0.86721 0.0
H358 H 0.51102 0.07023 0.83981 0.0
H359 H 0.57707 0.08616 0.84179 0.0
C360 C 0.75473 0.57292 0.93676 0.0
C361 C 0.73529 0.55301 0.93181 0.0
C362 C 0.71586 0.56573 0.94975 0.0
C363 C 0.7161 0.5495 0.93819 0.0
C364 C 0.73524 0.58573 0.95455 0.0
C365 C 0.75445 0.58923 0.9482 0.0
U366 U 0.79835 0.59048 0.9042 0.0
O367 O 0.83355 0.60827 0.90927 0.0
O368 O 0.81658 0.5743 0.89622 0.0
C369 C 0.835 0.59106 0.90313 0.0
C370 C 0.77538 0.57604 0.93107 0.0
C371 C 0.84825 0.58497 0.91417 0.0
C372 C 0.85326 0.56676 0.93881 0.0
C373 C 0.84045 0.57283 0.9288 0.0
C374 C 0.8818 0.58516 0.91975 0.0
C375 C 0.87405 0.57271 0.9343 0.0
C376 C 0.86901 0.5912 0.90979 0.0
C377 C 0.79303 0.61341 0.86132 0.0
C378 C 0.81965 0.62314 0.84019 0.0
C379 C 0.78965 0.62928 0.83465 0.0
C380 C 0.78195 0.62076 0.85053 0.0
C381 C 0.8086 0.63057 0.82927 0.0
C382 C 0.81194 0.61466 0.85608 0.0
C383 C 0.78475 0.60453 0.87798 0.0
O384 O 0.77422 0.56274 0.91774 0.0
O385 O 0.79102 0.5968 0.93058 0.0
O386 O 0.79596 0.61745 0.89206 0.0
O387 O 0.77896 0.5834 0.87924 0.0
H388 H 0.73489 0.53996 0.92317 0.0
H389 H 0.70142 0.534 0.93409 0.0
H390 H 0.7357 0.59844 0.96363 0.0
H391 H 0.76917 0.60458 0.95253 0.0
H392 H 0.84675 0.55704 0.94985 0.0
H393 H 0.82442 0.56789 0.93237 0.0
H394 H 0.89784 0.59039 0.91609 0.0
H395 H 0.87532 0.60068 0.89859 0.0
H396 H 0.83442 0.62415 0.83656 0.0
H397 H 0.7806 0.63458 0.82647 0.0
H398 H 0.76729 0.61986 0.85436 0.0
H399 H 0.82075 0.60912 0.86431 0.0
C400 C 0.46805 0.19621 0.94945 0.0
C401 C 0.45092 0.17608 0.95425 0.0
C402 C 0.47559 0.16304 0.96305 0.0
C403 C 0.45465 0.15968 0.96092 0.0
C404 C 0.49265 0.18304 0.958 0.0
C405 C 0.48893 0.19944 0.95137 0.0
U406 U 0.45006 0.22496 0.91583 0.0
O407 O 0.4329 0.24355 0.91982 0.0
O408 O 0.4653 0.26049 0.91084 0.0
C409 C 0.4492 0.26254 0.91598 0.0
C410 C 0.46469 0.21459 0.94379 0.0
C411 C 0.4549 0.28234 0.92793 0.0
C412 C 0.47515 0.30797 0.9534 0.0
C413 C 0.46946 0.28848 0.94274 0.0
C414 C 0.45154 0.31509 0.93467 0.0
C415 C 0.4663 0.32157 0.94944 0.0
C416 C 0.44592 0.2957 0.92405 0.0
C417 C 0.42678 0.19741 0.8693 0.0
C418 C 0.43017 0.19867 0.83793 0.0
C419 C 0.39716 0.19264 0.84931 0.0
C420 C 0.40582 0.1938 0.86629 0.0
C421 C 0.4092 0.19504 0.83489 0.0
C422 C 0.4388 0.19975 0.85491 0.0
C423 C 0.43598 0.19785 0.88714 0.0
O424 O 0.47711 0.22696 0.93211 0.0
O425 O 0.44473 0.21015 0.94109 0.0
O426 O 0.42402 0.19575 0.90009 0.0
O427 O 0.45632 0.21293 0.89099 0.0
H428 H 0.43465 0.17309 0.95319 0.0
H429 H 0.44115 0.14464 0.96487 0.0
H430 H 0.50895 0.1861 0.95919 0.0
H431 H 0.50251 0.21483 0.94797 0.0
H432 H 0.4864 0.31233 0.96476 0.0
H433 H 0.47652 0.27832 0.94598 0.0
H434 H 0.44466 0.32528 0.93104 0.0
H435 H 0.43472 0.29128 0.91263 0.0
H436 H 0.44004 0.20089 0.82721 0.0
H437 H 0.38085 0.18945 0.84749 0.0
H438 H 0.39597 0.19168 0.87702 0.0
H439 H 0.45491 0.20236 0.85678 0.0
C440 C 0.75649 0.20073 0.94316 0.0
C441 C 0.74723 0.17816 0.93691 0.0
C442 C 0.71719 0.16813 0.95487 0.0
C443 C 0.72776 0.162 0.94274 0.0
C444 C 0.72643 0.19087 0.96078 0.0
C445 C 0.74587 0.20694 0.955 0.0
U446 U 0.80024 0.22508 0.91086 0.0
O447 O 0.81938 0.25986 0.90405 0.0
O448 O 0.83538 0.24326 0.91609 0.0
C449 C 0.83752 0.26196 0.91069 0.0
C450 C 0.77732 0.21806 0.93782 0.0
C451 C 0.85136 0.28244 0.92216 0.0
C452 C 0.86274 0.30333 0.9507 0.0
C453 C 0.84912 0.2836 0.94014 0.0
C454 C 0.88079 0.32088 0.92536 0.0
C455 C 0.8787 0.32224 0.9434 0.0
C456 C 0.86726 0.30119 0.91488 0.0
C457 C 0.79432 0.19436 0.86665 0.0
C458 C 0.81807 0.21213 0.84388 0.0
C459 C 0.79295 0.17224 0.84061 0.0
C460 C 0.78556 0.17372 0.85682 0.0
C461 C 0.80926 0.19144 0.83387 0.0
C462 C 0.8107 0.21356 0.86013 0.0
C463 C 0.78617 0.19567 0.88359 0.0
O464 O 0.79228 0.21253 0.93677 0.0
O465 O 0.77637 0.22932 0.92484 0.0
O466 O 0.78082 0.21119 0.88574 0.0
O467 O 0.79709 0.19463 0.89737 0.0
H468 H 0.75514 0.17301 0.9277 0.0
H469 H 0.72125 0.14466 0.93801 0.0
H470 H 0.71858 0.19631 0.96983 0.0
H471 H 0.75269 0.2243 0.95989 0.0
H472 H 0.86058 0.30389 0.9645 0.0
H473 H 0.83686 0.26929 0.94599 0.0
H474 H 0.89308 0.33497 0.91934 0.0
H475 H 0.86927 0.30057 0.90103 0.0
H476 H 0.83043 0.22731 0.83906 0.0
H477 H 0.78603 0.15599 0.83344 0.0
H478 H 0.77297 0.1587 0.86169 0.0
H479 H 0.8177 0.22967 0.86755 0.0
C480 C 0.57039 0.83591 0.08767 0.0
C481 C 0.55369 0.83891 0.09343 0.0
C482 C 0.56246 0.86886 0.0742 0.0
C483 C 0.5498 0.85518 0.08678 0.0
C484 C 0.57938 0.86612 0.06866 0.0
C485 C 0.58321 0.84975 0.07525 0.0
U486 U 0.58859 0.80816 0.12185 0.0
O487 O 0.57302 0.77304 0.12815 0.0
O488 O 0.60501 0.78876 0.1184 0.0
C489 C 0.58875 0.7703 0.12307 0.0
C490 C 0.57367 0.81757 0.09354 0.0
C491 C 0.58229 0.74966 0.11196 0.0
C492 C 0.57001 0.72751 0.08394 0.0
C493 C 0.57629 0.74758 0.09402 0.0
C494 C 0.57568 0.71156 0.10966 0.0
C495 C 0.56949 0.70919 0.09169 0.0
C496 C 0.58199 0.73156 0.11965 0.0
C497 C 0.61237 0.83716 0.16746 0.0
C498 C 0.62183 0.81927 0.18996 0.0
C499 C 0.62909 0.85725 0.19576 0.0
C500 C 0.62038 0.85648 0.17889 0.0
C501 C 0.62994 0.83865 0.20153 0.0
C502 C 0.61314 0.81854 0.17308 0.0
C503 C 0.60328 0.83666 0.14975 0.0
O504 O 0.59368 0.82212 0.09618 0.0
O505 O 0.56142 0.80547 0.10542 0.0
O506 O 0.58288 0.82167 0.14618 0.0
O507 O 0.61516 0.83759 0.13704 0.0
H508 H 0.54339 0.82852 0.10292 0.0
H509 H 0.53681 0.85703 0.09151 0.0
H510 H 0.58929 0.87619 0.05885 0.0
H511 H 0.59601 0.84767 0.07037 0.0
H512 H 0.56519 0.72619 0.07018 0.0
H513 H 0.57637 0.7614 0.08787 0.0
H514 H 0.57583 0.69798 0.11601 0.0
H515 H 0.58663 0.73289 0.13347 0.0
H516 H 0.62195 0.80454 0.19401 0.0
H517 H 0.63544 0.87254 0.20419 0.0
H518 H 0.61998 0.87104 0.17474 0.0
H519 H 0.60697 0.80344 0.16443 0.0
C520 C 0.27595 0.82996 0.09258 0.0
C521 C 0.29534 0.83233 0.09992 0.0
C522 C 0.31584 0.86217 0.08131 0.0
C523 C 0.31503 0.84824 0.09435 0.0
C524 C 0.29649 0.85995 0.07409 0.0
C525 C 0.27679 0.84396 0.07959 0.0
U526 U 0.23144 0.80516 0.12422 0.0
O527 O 0.19629 0.78723 0.11878 0.0
O528 O 0.212 0.77051 0.13111 0.0
C529 C 0.19396 0.76851 0.12432 0.0
C530 C 0.25484 0.81231 0.09757 0.0
C531 C 0.18018 0.74811 0.11278 0.0
C532 C 0.1741 0.72307 0.08715 0.0
C533 C 0.18754 0.74283 0.09773 0.0
C534 C 0.14587 0.7139 0.10652 0.0
C535 C 0.15307 0.70836 0.09142 0.0
C536 C 0.15929 0.73356 0.11707 0.0
C537 C 0.23786 0.83723 0.16806 0.0
C538 C 0.21099 0.82276 0.18911 0.0
C539 C 0.24358 0.85849 0.19579 0.0
C540 C 0.25054 0.85624 0.17957 0.0
C541 C 0.22376 0.84173 0.20082 0.0
C542 C 0.218 0.82052 0.17287 0.0
C543 C 0.24569 0.83504 0.1512 0.0
O544 O 0.25513 0.80052 0.11042 0.0
O545 O 0.23971 0.81763 0.09827 0.0
O546 O 0.2348 0.83586 0.1373 0.0
O547 O 0.2506 0.81916 0.14947 0.0
H548 H 0.29535 0.82177 0.10988 0.0
H549 H 0.32966 0.84966 0.10029 0.0
H550 H 0.29651 0.87019 0.06385 0.0
H551 H 0.26214 0.84234 0.0735 0.0
H552 H 0.18008 0.71943 0.07554 0.0
H553 H 0.20364 0.75393 0.09421 0.0
H554 H 0.12994 0.70282 0.11038 0.0
H555 H 0.15338 0.73735 0.12868 0.0
H556 H 0.19577 0.80941 0.19263 0.0
H557 H 0.25368 0.87345 0.20436 0.0
H558 H 0.26589 0.86935 0.17603 0.0
H559 H 0.20802 0.80569 0.16412 0.0
C560 C 0.2107 0.45791 0.09614 0.0
C561 C 0.19182 0.44969 0.10475 0.0
C562 C 0.17758 0.46584 0.08416 0.0
C563 C 0.17537 0.45359 0.09879 0.0
C564 C 0.19659 0.474 0.07561 0.0
C565 C 0.21297 0.47006 0.08156 0.0
U566 U 0.23615 0.43644 0.12907 0.0
O567 O 0.25363 0.41831 0.12476 0.0
O568 O 0.26983 0.45121 0.13954 0.0
C569 C 0.27182 0.43484 0.13224 0.0
C570 C 0.22817 0.45405 0.10221 0.0
C571 C 0.29061 0.44176 0.12214 0.0
C572 C 0.31043 0.45872 0.09722 0.0
C573 C 0.29237 0.45222 0.10662 0.0
C574 C 0.32508 0.44435 0.11877 0.0
C575 C 0.32705 0.45491 0.10321 0.0
C576 C 0.30704 0.43786 0.12813 0.0
C577 C 0.20662 0.40992 0.16914 0.0
C578 C 0.22117 0.39658 0.19179 0.0
C579 C 0.1863 0.39335 0.19386 0.0
C580 C 0.18825 0.40326 0.17813 0.0
C581 C 0.20273 0.38989 0.20092 0.0
C582 C 0.22309 0.4065 0.176 0.0
C583 C 0.20835 0.42058 0.15274 0.0
O584 O 0.23951 0.4659 0.11662 0.0
O585 O 0.22322 0.43298 0.10187 0.0
O586 O 0.20728 0.4087 0.13849 0.0
O587 O 0.22347 0.44168 0.15316 0.0
H588 H 0.18984 0.44033 0.11609 0.0
H589 H 0.16105 0.44728 0.10578 0.0
H590 H 0.19871 0.48321 0.06417 0.0
H591 H 0.22743 0.47648 0.07474 0.0
H592 H 0.31152 0.467 0.08539 0.0
H593 H 0.27981 0.45539 0.10183 0.0
H594 H 0.33737 0.44083 0.12362 0.0
H595 H 0.30589 0.42972 0.14005 0.0
H596 H 0.23403 0.394 0.19677 0.0
H597 H 0.17206 0.38879 0.20066 0.0
H598 H 0.17543 0.40586 0.17304 0.0
H599 H 0.2374 0.41154 0.16918 0.0
C600 C 0.4239 0.9097 0.27344 0.0
C601 C 0.40961 0.91372 0.2633 0.0
C602 C 0.38589 0.90403 0.28696 0.0
C603 C 0.39072 0.91086 0.26999 0.0
C604 C 0.40034 0.90002 0.29697 0.0
C605 C 0.41912 0.90284 0.29028 0.0
U606 U 0.46598 0.92628 0.23948 0.0
O607 O 0.50122 0.94351 0.24432 0.0
O608 O 0.48362 0.90943 0.23149 0.0
C609 C 0.50217 0.92586 0.23854 0.0
C610 C 0.44385 0.91246 0.26689 0.0
C611 C 0.51536 0.91969 0.24979 0.0
C612 C 0.51999 0.89274 0.26603 0.0
C613 C 0.50676 0.89847 0.25624 0.0
C614 C 0.55046 0.92951 0.26349 0.0
C615 C 0.54207 0.90813 0.26965 0.0
C616 C 0.53727 0.93516 0.25362 0.0
C617 C 0.461 0.94965 0.19625 0.0
C618 C 0.46659 0.94398 0.16585 0.0
C619 C 0.47726 0.9812 0.17825 0.0
C620 C 0.46992 0.97261 0.19421 0.0
C621 C 0.47571 0.967 0.16385 0.0
C622 C 0.45932 0.93541 0.18183 0.0
C623 C 0.45298 0.94078 0.21321 0.0
O624 O 0.44157 0.89904 0.25326 0.0
O625 O 0.4593 0.93318 0.26596 0.0
O626 O 0.46422 0.95362 0.22734 0.0
O627 O 0.4464 0.91949 0.21468 0.0
H628 H 0.41309 0.91908 0.25026 0.0
H629 H 0.38005 0.91427 0.26198 0.0
H630 H 0.397 0.89437 0.30994 0.0
H631 H 0.42993 0.89958 0.29826 0.0
H632 H 0.51297 0.87605 0.27038 0.0
H633 H 0.4899 0.88616 0.25353 0.0
H634 H 0.56726 0.94197 0.26627 0.0
H635 H 0.54428 0.95164 0.24883 0.0
H636 H 0.46476 0.93246 0.15499 0.0
H637 H 0.48441 0.99904 0.1773 0.0
H638 H 0.47126 0.984 0.205 0.0
H639 H 0.45229 0.91758 0.1828 0.0
C640 C 0.12696 0.52579 0.28837 0.0
C641 C 0.12591 0.5086 0.27716 0.0
C642 C 0.13467 0.49285 0.30196 0.0
C643 C 0.1297 0.49223 0.2839 0.0
C644 C 0.13531 0.50995 0.31308 0.0
C645 C 0.13151 0.52622 0.30635 0.0
U646 U 0.1106 0.55388 0.25294 0.0
O647 O 0.09405 0.57319 0.25609 0.0
O648 O 0.12679 0.58946 0.24785 0.0
C649 C 0.11077 0.59199 0.2525 0.0
C650 C 0.12397 0.54382 0.28177 0.0
C651 C 0.11658 0.61178 0.26448 0.0
C652 C 0.13088 0.63328 0.29267 0.0
C653 C 0.12545 0.61414 0.28164 0.0
C654 C 0.11858 0.64774 0.26945 0.0
C655 C 0.12746 0.65032 0.2867 0.0
C656 C 0.1132 0.62868 0.25849 0.0
C657 C 0.08823 0.52636 0.20623 0.0
C658 C 0.09359 0.53788 0.17653 0.0
C659 C 0.05793 0.51158 0.1841 0.0
C660 C 0.0662 0.51259 0.2012 0.0
C661 C 0.0715 0.52418 0.17149 0.0
C662 C 0.10185 0.53895 0.19365 0.0
C663 C 0.09683 0.52664 0.22431 0.0
O664 O 0.1368 0.55542 0.27002 0.0
O665 O 0.10402 0.53903 0.27823 0.0
O666 O 0.08448 0.52502 0.23684 0.0
O667 O 0.11723 0.54119 0.22864 0.0
H668 H 0.12242 0.508 0.26321 0.0
H669 H 0.12924 0.47943 0.27493 0.0
H670 H 0.13871 0.51077 0.32706 0.0
H671 H 0.13231 0.53931 0.31522 0.0
H672 H 0.13753 0.63461 0.3059 0.0
H673 H 0.12815 0.6012 0.2865 0.0
H674 H 0.11608 0.66065 0.26428 0.0
H675 H 0.10646 0.6272 0.24525 0.0
H676 H 0.10462 0.54755 0.16715 0.0
H677 H 0.04081 0.50105 0.18082 0.0
H678 H 0.0553 0.50251 0.2105 0.0
H679 H 0.11896 0.54952 0.19694 0.0
C680 C 0.42501 0.52855 0.27814 0.0
C681 C 0.4049 0.52447 0.27099 0.0
C682 C 0.38655 0.49598 0.29126 0.0
C683 C 0.38592 0.50838 0.27747 0.0
C684 C 0.40668 0.49981 0.29816 0.0
C685 C 0.42564 0.51595 0.29173 0.0
U686 U 0.46815 0.5564 0.24535 0.0
O687 O 0.48598 0.59167 0.2394 0.0
O688 O 0.50331 0.57579 0.25033 0.0
C689 C 0.50453 0.59439 0.2456 0.0
C690 C 0.44541 0.54686 0.2726 0.0
C691 C 0.518 0.6147 0.25738 0.0
C692 C 0.53067 0.63427 0.28639 0.0
C693 C 0.5173 0.61467 0.2756 0.0
C694 C 0.54532 0.65406 0.26086 0.0
C695 C 0.54482 0.65422 0.27913 0.0
C696 C 0.53206 0.63451 0.25013 0.0
C697 C 0.46272 0.5276 0.20026 0.0
C698 C 0.48846 0.54569 0.17883 0.0
C699 C 0.4597 0.50734 0.1726 0.0
C700 C 0.45218 0.5081 0.1889 0.0
C701 C 0.47796 0.52612 0.16734 0.0
C702 C 0.48092 0.54641 0.19514 0.0
C703 C 0.45466 0.52803 0.21741 0.0
O704 O 0.46105 0.54247 0.27096 0.0
O705 O 0.44393 0.55867 0.26024 0.0
O706 O 0.44869 0.54296 0.22017 0.0
O707 O 0.46607 0.52706 0.23086 0.0
H708 H 0.40377 0.534 0.26063 0.0
H709 H 0.37077 0.50614 0.27197 0.0
H710 H 0.40782 0.49039 0.3086 0.0
H711 H 0.44088 0.51882 0.2976 0.0
H712 H 0.52974 0.63387 0.30039 0.0
H713 H 0.50647 0.59954 0.28145 0.0
H714 H 0.55622 0.66899 0.25482 0.0
H715 H 0.53287 0.63485 0.23611 0.0
H716 H 0.50238 0.56056 0.17515 0.0
H717 H 0.4514 0.4919 0.16424 0.0
H718 H 0.43816 0.49339 0.19267 0.0
H719 H 0.48926 0.56164 0.20375 0.0
Tb720 Tb 0.54093 0.03 0.01595 0.0
C721 C 0.52714 0.9824 0.02693 0.0
Tb722 Tb 0.4932 0.99869 0.02132 0.0
O723 O 0.54999 0.03303 0.04401 0.0
O724 O 0.51965 0.02677 0.03514 0.0
O725 O 0.54034 0.99825 0.01727 0.0
C726 C 0.45573 0.97079 0.03372 0.0
O727 O 0.50932 0.98147 0.03188 0.0
C728 C 0.5028 1.00152 0.98881 0.0
C729 C 0.5072 0.04737 1.01112 0.0
O730 O 0.46421 0.96573 0.02106 0.0
O731 O 0.46828 0.99161 0.03931 0.0
O732 O 0.48404 0.99665 0.99361 0.0
O733 O 0.51442 1.00204 1.00189 0.0
O734 O 0.4918 0.02898 0.01722 0.0
O735 O 0.52686 0.05076 1.00934 0.0
C736 C 0.57803 0.05682 1.00237 0.0
O737 O 0.55908 0.04763 0.99417 0.0
O738 O 0.5761 0.05093 0.01824 0.0
C739 C 0.53107 0.02791 0.04852 0.0
Tb740 Tb 1.00124 0.52259 0.01591 0.0
C741 C 0.04863 0.55709 0.02941 0.0
Tb742 Tb 0.03259 0.5049 0.02214 0.0
O743 O 1.00371 0.53243 0.04376 0.0
O744 O 1.00807 0.50586 0.03551 0.0
O745 O 0.03098 0.55438 0.02073 0.0
C746 C 0.06165 0.49481 0.03496 0.0
O747 O 0.05143 0.53997 0.03282 0.0
C748 C 0.02408 0.50912 0.98943 0.0
C749 C 0.98502 0.4703 1.00898 0.0
O750 O 0.0637 0.50651 0.02174 0.0
O751 O 0.04313 0.48862 0.04092 0.0
O752 O 0.02946 0.49471 0.99428 0.0
O753 O 0.02576 0.52161 1.00261 0.0
O754 O 1.0028 0.47294 0.01744 0.0
O755 O 0.98218 0.48743 1.00573 0.0
C756 C 0.97421 0.53417 1.00104 0.0
O757 O 0.97053 0.52231 1.0144 0.0
O758 O 0.99307 0.53957 0.99626 0.0
C759 C 1.00945 0.51828 0.04865 0.0
Tb760 Tb 0.49488 0.50655 0.02327 0.0
C761 C 0.5088 0.47272 1.00991 0.0
Tb762 Tb 0.54282 0.52515 0.0173 0.0
O763 O 0.48547 0.49676 0.99533 0.0
O764 O 0.51572 0.52369 1.00396 0.0
O765 O 0.49437 0.47505 0.01847 0.0
C766 C 0.58014 0.5361 1.00411 0.0
O767 O 0.5275 0.49007 1.00663 0.0
C768 C 0.53325 0.5203 0.04986 0.0
C769 C 0.52877 0.55914 0.03014 0.0
O770 O 0.57287 0.52436 0.01739 0.0
O771 O 0.56648 0.54187 0.99837 0.0
O772 O 0.5519 0.53509 0.04529 0.0
O773 O 0.52196 0.50796 0.03652 0.0
O774 O 0.54343 0.55678 0.02193 0.0
O775 O 0.50995 0.54181 0.03325 0.0
C776 C 0.45831 0.4946 0.0381 0.0
O777 O 0.46392 0.50548 0.0242 0.0
O778 O 0.47313 0.49031 0.04341 0.0
C779 C 0.5042 0.51133 0.99068 0.0
Tb780 Tb 0.2079 0.36554 0.35217 0.0
C781 C 0.19493 0.31455 0.35663 0.0
Tb782 Tb 0.15982 0.32934 0.35153 0.0
O783 O 0.20824 0.37728 0.37943 0.0
O784 O 0.18688 0.34461 0.36974 0.0
O785 O 0.21013 0.33487 0.35309 0.0
C786 C 0.12044 0.30452 0.36202 0.0
O787 O 0.17476 0.30957 0.35841 0.0
C788 C 0.17624 0.33606 0.32113 0.0
C789 C 0.17275 0.38026 0.34682 0.0
O790 O 0.12737 0.30002 0.34798 0.0
O791 O 0.13557 0.3232 0.36993 0.0
O792 O 0.15953 0.31739 0.32443 0.0
O793 O 0.18083 0.35014 0.33387 0.0
O794 O 0.15757 0.35997 0.35044 0.0
O795 O 0.19294 0.38524 0.34513 0.0
C796 C 0.24728 0.39033 0.34166 0.0
O797 O 0.24028 0.39501 0.35558 0.0
O798 O 0.23222 0.37152 0.33387 0.0
C799 C 0.19151 0.35854 0.38258 0.0
Tb800 Tb 0.66859 0.85493 0.34934 0.0
C801 C 0.71587 0.88974 0.36257 0.0
Tb802 Tb 0.70005 0.83747 0.35611 0.0
O803 O 0.6711 0.86503 0.37711 0.0
O804 O 0.67515 0.83815 0.36903 0.0
O805 O 0.69838 0.88681 0.35344 0.0
C806 C 0.72937 0.82799 0.36946 0.0
O807 O 0.71861 0.87271 0.36648 0.0
C808 C 0.69201 0.84192 0.32342 0.0
C809 C 0.65214 0.80229 0.34386 0.0
O810 O 0.73093 0.83855 0.35561 0.0
O811 O 0.71117 0.82258 0.37575 0.0
O812 O 0.69699 0.82722 0.32829 0.0
O813 O 0.69365 0.85443 0.33657 0.0
O814 O 0.67049 0.80528 0.35145 0.0
O815 O 0.6487 0.81916 0.34108 0.0
C816 C 0.64124 0.86553 0.33356 0.0
O817 O 0.65639 0.86402 0.32638 0.0
O818 O 0.64147 0.86116 0.34978 0.0
C819 C 0.67651 0.85066 0.3821 0.0
Tb820 Tb 0.1607 0.84029 0.35226 0.0
C821 C 0.17358 0.80233 0.34613 0.0
Tb822 Tb 0.20868 0.854 0.35078 0.0
O823 O 0.15845 0.84838 0.32509 0.0
O824 O 0.1806 0.83928 0.33362 0.0
O825 O 0.1587 0.80732 0.35063 0.0
C826 C 0.24744 0.86924 0.33892 0.0
O827 O 0.19355 0.81804 0.3437 0.0
C828 C 0.19398 0.84721 0.38185 0.0
C829 C 0.19585 0.89198 0.35658 0.0
O830 O 0.24145 0.85941 0.35326 0.0
O831 O 0.23172 0.87078 0.33146 0.0
O832 O 0.21039 0.84533 0.37785 0.0
O833 O 0.18877 0.85508 0.36938 0.0
O834 O 0.21066 0.88695 0.35195 0.0
O835 O 0.17596 0.87629 0.35926 0.0
C836 C 0.12261 0.82445 0.36545 0.0
O837 O 0.12812 0.83556 0.35162 0.0
O838 O 0.13838 0.82204 0.37155 0.0
C839 C 0.17509 0.84687 0.32113 0.0
Tb840 Tb 0.87309 0.69378 0.68122 0.0
C841 C 0.86042 0.64636 0.69286 0.0
Tb842 Tb 0.82539 0.66177 0.68715 0.0
O843 O 0.88245 0.69516 0.709 0.0
O844 O 0.85211 0.68976 0.70081 0.0
O845 O 0.87456 0.66347 0.68467 0.0
C846 C 0.78847 0.63435 0.70054 0.0
O847 O 0.84151 0.64389 0.69646 0.0
C848 C 0.83424 0.66543 0.65441 0.0
C849 C 0.83817 0.70928 0.67548 0.0
O850 O 0.79567 0.62942 0.68688 0.0
O851 O 0.80198 0.6548 0.70655 0.0
O852 O 0.81545 0.65989 0.65957 0.0
O853 O 0.84621 0.6661 0.66727 0.0
O854 O 0.82393 0.69209 0.68356 0.0
O855 O 0.85713 0.71182 0.67198 0.0
C856 C 0.9103 0.72161 0.66845 0.0
O857 O 0.89664 0.70149 0.66183 0.0
O858 O 0.90307 0.72599 0.68233 0.0
C859 C 0.86371 0.69034 0.71386 0.0
Tb860 Tb 0.33834 0.19107 0.67933 0.0
C861 C 0.38537 0.22585 0.69372 0.0
Tb862 Tb 0.36987 0.17375 0.68668 0.0
O863 O 0.34008 0.20099 0.70709 0.0
O864 O 0.34482 0.17456 0.69927 0.0
O865 O 0.36789 0.22304 0.68465 0.0
C866 C 0.39854 0.16383 0.70071 0.0
O867 O 0.38825 0.20884 0.69729 0.0
C868 C 0.36205 0.17775 0.65374 0.0
C869 C 0.32264 0.13881 0.67305 0.0
O870 O 0.40099 0.17525 0.68723 0.0
O871 O 0.37983 0.15782 0.70622 0.0
O872 O 0.3674 0.16344 0.6589 0.0
O873 O 0.36337 0.19025 0.66677 0.0
O874 O 0.34023 0.14176 0.68204 0.0
O875 O 0.31979 0.15578 0.66918 0.0
C876 C 0.3111 0.20206 0.66402 0.0
O877 O 0.30725 0.18984 0.67716 0.0
O878 O 0.33029 0.20816 0.65964 0.0
C879 C 0.34579 0.18693 0.71227 0.0
Tb880 Tb 0.82576 0.17194 0.68416 0.0
C881 C 0.83971 0.13509 0.67698 0.0
Tb882 Tb 0.87571 0.18722 0.68379 0.0
O883 O 0.82495 0.18193 0.65736 0.0
O884 O 0.8478 0.17419 0.66632 0.0
O885 O 0.82387 0.13935 0.67978 0.0
C886 C 0.91361 0.19972 0.67144 0.0
O887 O 0.86031 0.15103 0.67714 0.0
C888 C 0.86255 0.18422 0.71569 0.0
C889 C 0.86157 0.22308 0.69207 0.0
O890 O 0.90539 0.18592 0.68347 0.0
O891 O 0.90057 0.20672 0.66651 0.0
O892 O 0.88223 0.18996 0.71275 0.0
O893 O 0.85262 0.1806 0.70104 0.0
O894 O 0.87615 0.21919 0.68521 0.0
O895 O 0.84206 0.20678 0.69499 0.0
C896 C 0.78684 0.15533 0.69591 0.0
O897 O 0.79483 0.17084 0.68508 0.0
O898 O 0.80059 0.14893 0.69976 0.0
C899 C 0.8426 0.18214 0.65392 0.0
H900 H 0.34933 0.85585 0.07398 0.0
H901 H 0.32959 0.90548 0.07408 0.0
H902 H 0.38329 0.88236 0.06299 0.0
H903 H 0.3634 0.93186 0.06268 0.0
H904 H 0.43602 0.97994 0.05961 0.0
H905 H 0.40241 0.95393 0.07159 0.0
H906 H 0.39593 0.90046 0.03581 0.0
H907 H 0.42956 0.92644 0.02396 0.0
C908 C 0.35229 0.87247 0.07175 0.0
C909 C 0.33673 0.87854 0.07492 0.0
C910 C 0.37166 0.88758 0.06527 0.0
C911 C 0.37604 0.90921 0.06189 0.0
C912 C 0.3606 0.91539 0.06527 0.0
C913 C 0.34115 0.90021 0.07164 0.0
C914 C 0.42736 0.96263 0.05431 0.0
C915 C 0.43533 0.95519 0.04085 0.0
C916 C 0.40808 0.94776 0.06111 0.0
C917 C 0.3965 0.92511 0.05466 0.0
C918 C 0.40458 0.91773 0.0412 0.0
C919 C 0.42377 0.93262 0.03435 0.0
H920 H 0.13406 0.43684 0.08115 0.0
H921 H 0.18175 0.50457 0.07268 0.0
H922 H 0.10577 0.4436 0.06963 0.0
H923 H 0.15353 0.51131 0.06119 0.0
H924 H 0.10071 0.50729 0.02329 0.0
H925 H 0.12835 0.50009 0.03556 0.0
H926 H 0.08761 0.46478 0.07586 0.0
H927 H 0.05978 0.47173 0.0633 0.0
C928 C 0.1385 0.45325 0.07701 0.0
C929 C 0.1602 0.47012 0.07774 0.0
C930 C 0.12228 0.45712 0.0704 0.0
C931 C 0.12738 0.47795 0.06437 0.0
C932 C 0.14905 0.49493 0.06539 0.0
C933 C 0.16525 0.49106 0.07198 0.0
C934 C 0.09766 0.49795 0.03474 0.0
C935 C 0.07813 0.49004 0.04234 0.0
C936 C 0.11355 0.49394 0.04186 0.0
C937 C 0.11026 0.48194 0.05676 0.0
C938 C 0.09059 0.47388 0.06428 0.0
C939 C 0.07469 0.47793 0.05715 0.0
H940 H 0.54356 0.6669 0.10114 0.0
H941 H 0.57942 0.70246 0.05871 0.0
H942 H 0.53355 0.63148 0.08512 0.0
H943 H 0.56874 0.66679 0.04232 0.0
H944 H 0.56656 0.59899 0.02952 0.0
H945 H 0.57562 0.63553 0.04324 0.0
H946 H 0.51155 0.6073 0.06 0.0
H947 H 0.5026 0.57081 0.04667 0.0
C948 C 0.54927 0.66717 0.08835 0.0
C949 C 0.56243 0.68757 0.08128 0.0
C950 C 0.54331 0.6468 0.07905 0.0
C951 C 0.55029 0.64622 0.06239 0.0
C952 C 0.56323 0.66661 0.05519 0.0
C953 C 0.56917 0.68706 0.0645 0.0
C954 C 0.55433 0.60061 0.036 0.0
C955 C 0.53388 0.58185 0.03706 0.0
C956 C 0.55951 0.62161 0.04381 0.0
C957 C 0.54438 0.62436 0.05286 0.0
C958 C 0.52374 0.60574 0.05343 0.0
C959 C 0.51857 0.58479 0.04566 0.0
H960 H 0.89145 0.36499 0.93556 0.0
H961 H 0.89867 0.32748 0.97609 0.0
H962 H 0.91636 0.39979 0.95267 0.0
H963 H 0.92319 0.36249 0.99357 0.0
H964 H 0.98616 0.43107 1.00808 0.0
H965 H 0.9596 0.3948 0.99338 0.0
H966 H 0.91895 0.42188 0.97887 0.0
H967 H 0.94548 0.45806 0.9932 0.0
C968 C 0.89833 0.36416 0.94816 0.0
C969 C 0.89313 0.34342 0.9544 0.0
C970 C 0.91245 0.38415 0.95808 0.0
C971 C 0.92176 0.38398 0.97454 0.0
C972 C 0.91644 0.36323 0.98089 0.0
C973 C 0.90221 0.34317 0.97095 0.0
C974 C 0.97146 0.42922 1.00192 0.0
C975 C 0.96809 0.44759 1.00174 0.0
C976 C 0.95618 0.40839 0.99353 0.0
C977 C 0.93722 0.40547 0.98478 0.0
C978 C 0.93355 0.42363 0.98518 0.0
C979 C 0.94877 0.44439 0.99351 0.0
H980 H 0.68508 0.52696 0.96179 0.0
H981 H 0.7009 0.59496 0.9548 0.0
H982 H 0.65226 0.52009 0.97455 0.0
H983 H 0.66833 0.58826 0.96807 0.0
H984 H 0.59631 0.55968 0.97585 0.0
H985 H 0.62898 0.56696 0.96234 0.0
H986 H 0.64178 0.53111 1.00131 0.0
H987 H 0.60903 0.52366 1.01462 0.0
C988 C 0.6815 0.54042 0.96288 0.0
C989 C 0.69563 0.56151 0.95724 0.0
C990 C 0.6628 0.53655 0.97039 0.0
C991 C 0.65771 0.55366 0.97242 0.0
C992 C 0.6717 0.57468 0.96659 0.0
C993 C 0.69047 0.57858 0.95914 0.0
C994 C 0.60619 0.55346 0.98154 0.0
C995 C 0.60019 0.54114 0.99628 0.0
C996 C 0.62493 0.55769 0.97385 0.0
C997 C 0.63797 0.54957 0.98072 0.0
C998 C 0.63195 0.53734 0.99555 0.0
C999 C 0.61327 0.53319 1.00325 0.0
H1000 H 0.50903 0.17029 0.98624 0.0
H1001 H 0.45151 0.11716 0.95773 0.0
H1002 H 0.51621 0.14271 0.99872 0.0
H1003 H 0.45865 0.08953 0.97035 0.0
H1004 H 0.46822 0.04579 1.00891 0.0
H1005 H 0.46019 0.0737 0.99803 0.0
H1006 H 0.52694 0.11593 0.98926 0.0
H1007 H 0.53505 0.08837 1.0003 0.0
C1008 C 0.49798 0.15274 0.9825 0.0
C1009 C 0.47975 0.14602 0.97085 0.0
C1010 C 0.50208 0.1369 0.98971 0.0
C1011 C 0.48804 0.11387 0.98552 0.0
C1012 C 0.46965 0.10711 0.97405 0.0
C1013 C 0.46557 0.12297 0.9668 0.0
C1014 C 0.48123 0.06112 1.00481 0.0
C1015 C 0.5023 0.06479 1.00555 0.0
C1016 C 0.47658 0.07704 0.99844 0.0
C1017 C 0.49291 0.09707 0.99274 0.0
C1018 C 0.51401 0.10085 0.99373 0.0
C1019 C 0.51864 0.08493 1.00002 0.0
H1020 H 0.70503 0.16621 0.98821 0.0
H1021 H 0.68315 0.13106 0.93686 0.0
H1022 H 0.67151 0.13911 0.99915 0.0
H1023 H 0.64993 0.10319 0.94805 0.0
H1024 H 0.58346 0.07216 0.96992 0.0
H1025 H 0.61707 0.0985 0.95822 0.0
H1026 H 0.6522 0.10138 1.00643 0.0
H1027 H 0.61853 0.07563 0.01822 0.0
C1028 C 0.69307 0.1527 0.97922 0.0
C1029 C 0.69682 0.15097 0.9616 0.0
C1030 C 0.67391 0.13692 0.98557 0.0
C1031 C 0.65795 0.11885 0.97452 0.0
C1032 C 0.66173 0.117 0.95691 0.0
C1033 C 0.68092 0.13285 0.95053 0.0
C1034 C 0.59841 0.07845 0.97797 0.0
C1035 C 0.59841 0.072 0.99501 0.0
C1036 C 0.61769 0.09342 0.97124 0.0
C1037 C 0.63742 0.10221 0.98138 0.0
C1038 C 0.63734 0.09533 0.99834 0.0
C1039 C 0.61805 0.08045 1.00508 0.0
H1040 H 0.87939 0.57268 0.96993 0.0
H1041 H 0.89942 0.55712 0.9218 0.0
H1042 H 0.90306 0.56303 0.98653 0.0
H1043 H 0.92298 0.54753 0.93832 0.0
H1044 H 0.98086 0.55779 0.97259 0.0
H1045 H 0.95614 0.56666 0.95698 0.0
H1046 H 0.90863 0.53178 0.99321 0.0
H1047 H 0.93372 0.52326 1.00907 0.0
C1048 C 0.88866 0.56698 0.96289 0.0
C1049 C 0.88765 0.56589 0.94453 0.0
C1050 C 0.90223 0.56145 0.97241 0.0
C1051 C 0.91509 0.55472 0.96377 0.0
C1052 C 0.91367 0.55313 0.94541 0.0
C1053 C 0.90015 0.55864 0.93593 0.0
C1054 C 0.96517 0.5521 0.97726 0.0
C1055 C 0.95919 0.53986 0.99203 0.0
C1056 C 0.95092 0.55703 0.96824 0.0
C1057 C 0.93031 0.5498 0.97376 0.0
C1058 C 0.92443 0.53775 0.9887 0.0
C1059 C 0.93874 0.53279 0.99774 0.0
H1060 H 0.50649 0.35297 0.964 0.0
H1061 H 0.44064 0.3382 0.95946 0.0
H1062 H 0.51718 0.38859 0.98029 0.0
H1063 H 0.45142 0.37413 0.97505 0.0
H1064 H 0.47401 0.43242 0.01577 0.0
H1065 H 0.46427 0.39535 1.00293 0.0
H1066 H 0.5212 0.42444 0.97475 0.0
H1067 H 0.53121 0.46139 0.98787 0.0
C1068 C 0.49426 0.35722 0.96659 0.0
C1069 C 0.47271 0.34272 0.96032 0.0
C1070 C 0.50043 0.37778 0.97576 0.0
C1071 C 0.48521 0.38437 0.97892 0.0
C1072 C 0.46358 0.36959 0.97303 0.0
C1073 C 0.45742 0.34906 0.96387 0.0
C1074 C 0.48455 0.43092 1.00694 0.0
C1075 C 0.5034 0.44996 1.00288 0.0
C1076 C 0.47889 0.40963 0.99949 0.0
C1077 C 0.49189 0.40684 0.98773 0.0
C1078 C 0.51094 0.42586 0.98393 0.0
C1079 C 0.51664 0.44712 0.99142 0.0
H1080 H 0.11009 0.6899 0.08203 0.0
H1081 H 0.1634 0.67875 0.07595 0.0
H1082 H 0.08595 0.654 0.06593 0.0
H1083 H 0.13933 0.64314 0.05919 0.0
H1084 H 0.08485 0.56923 0.05091 0.0
H1085 H 0.11069 0.6063 0.06442 0.0
H1086 H 0.07635 0.634 0.03746 0.0
H1087 H 0.05019 0.59683 0.02422 0.0
C1088 C 0.11669 0.67983 0.07718 0.0
C1089 C 0.13868 0.68717 0.08043 0.0
C1090 C 0.10287 0.65933 0.06774 0.0
C1091 C 0.11065 0.6456 0.06126 0.0
C1092 C 0.13274 0.65315 0.06416 0.0
C1093 C 0.14659 0.6737 0.07361 0.0
C1094 C 0.08287 0.58323 0.04772 0.0
C1095 C 0.06533 0.57996 0.03651 0.0
C1096 C 0.0978 0.60455 0.05542 0.0
C1097 C 0.0956 0.62318 0.0521 0.0
C1098 C 0.07836 0.61999 0.04053 0.0
C1099 C 0.06341 0.59866 0.03285 0.0
H1100 H 0.32882 0.45126 0.06771 0.0
H1101 H 0.36902 0.47425 0.1163 0.0
H1102 H 0.36038 0.46127 0.0517 0.0
H1103 H 0.40049 0.48422 0.10033 0.0
H1104 H 0.44743 0.47467 0.06841 0.0
H1105 H 0.4157 0.4656 0.08382 0.0
H1106 H 0.39368 0.49314 0.0438 0.0
H1107 H 0.42543 0.50187 0.02822 0.0
C1108 C 0.34441 0.45868 0.07497 0.0
C1109 C 0.34634 0.4618 0.09331 0.0
C1110 C 0.36251 0.46442 0.06579 0.0
C1111 C 0.38297 0.47341 0.07473 0.0
C1112 C 0.38493 0.47691 0.09304 0.0
C1113 C 0.36687 0.47119 0.10221 0.0
C1114 C 0.43576 0.4787 0.06287 0.0
C1115 C 0.43882 0.4889 0.0471 0.0
C1116 C 0.41766 0.47367 0.07177 0.0
C1117 C 0.40216 0.47872 0.0651 0.0
C1118 C 0.40519 0.48882 0.04922 0.0
C1119 C 0.42339 0.49392 0.04033 0.0
H1120 H 0.59082 0.91198 0.06719 0.0
H1121 H 0.52313 0.86327 0.06377 0.0
H1122 H 0.58262 0.93924 0.05518 0.0
H1123 H 0.51493 0.89028 0.0516 0.0
H1124 H 0.50609 0.95072 0.04956 0.0
H1125 H 0.51508 0.92383 0.06051 0.0
H1126 H 0.56932 0.94856 0.02923 0.0
H1127 H 0.56058 0.97609 0.01851 0.0
C1128 C 0.57421 0.90702 0.06373 0.0
C1129 C 0.55763 0.88548 0.06659 0.0
C1130 C 0.5695 0.92264 0.05679 0.0
C1131 C 0.54809 0.91706 0.05249 0.0
C1132 C 0.53158 0.89538 0.05509 0.0
C1133 C 0.53627 0.87984 0.06208 0.0
C1134 C 0.5199 0.95044 0.04489 0.0
C1135 C 0.53254 0.96556 0.03304 0.0
C1136 C 0.525 0.93486 0.05115 0.0
C1137 C 0.54286 0.93384 0.0457 0.0
C1138 C 0.55556 0.94899 0.03385 0.0
C1139 C 0.55047 0.96468 0.02761 0.0
H1140 H 1.0002 0.24249 0.41293 0.0
H1141 H 1.00919 0.1881 0.39415 0.0
H1142 H 0.03353 0.26913 0.40104 0.0
H1143 H 0.04236 0.21462 0.38229 0.0
H1144 H 0.08796 0.26472 0.3469 0.0
H1145 H 0.05427 0.23925 0.35888 0.0
H1146 H 0.07243 0.28524 0.40485 0.0
H1147 H 0.10597 0.31085 0.39265 0.0
C1148 C 1.00938 0.23622 0.40643 0.0
C1149 C 1.00189 0.21311 0.40439 0.0
C1150 C 0.02848 0.2515 0.39958 0.0
C1151 C 0.04055 0.24403 0.39055 0.0
C1152 C 0.03324 0.22095 0.38881 0.0
C1153 C 1.0142 0.20572 0.39564 0.0
C1154 C 0.08465 0.26943 0.35949 0.0
C1155 C 0.09953 0.28975 0.36883 0.0
C1156 C 0.06543 0.25478 0.36644 0.0
C1157 C 0.06066 0.26011 0.3829 0.0
C1158 C 0.07546 0.28069 0.39208 0.0
C1159 C 0.0947 0.29534 0.38512 0.0
H1160 H 0.80258 0.77236 0.41828 0.0
H1161 H 0.85023 0.83831 0.40584 0.0
H1162 H 0.77412 0.77888 0.40677 0.0
H1163 H 0.82185 0.84481 0.39436 0.0
H1164 H 0.76762 0.83861 0.35692 0.0
H1165 H 0.79547 0.83189 0.36946 0.0
H1166 H 0.75674 0.80108 0.41197 0.0
H1167 H 0.72867 0.80752 0.39917 0.0
C1168 C 0.80699 0.78835 0.41328 0.0
C1169 C 0.82872 0.80475 0.41288 0.0
C1170 C 0.79066 0.79208 0.40668 0.0
C1171 C 0.79567 0.81231 0.39951 0.0
C1172 C 0.8174 0.82886 0.39944 0.0
C1173 C 0.83369 0.82513 0.40604 0.0
C1174 C 0.76505 0.83036 0.36893 0.0
C1175 C 0.746 0.82355 0.37706 0.0
C1176 C 0.78107 0.82664 0.37619 0.0
C1177 C 0.77842 0.81604 0.39179 0.0
C1178 C 0.75923 0.80909 0.39987 0.0
C1179 C 0.74319 0.81285 0.39258 0.0
H1180 H 0.2656 0.02303 0.41087 0.0
H1181 H 0.20615 0.01953 0.39287 0.0
H1182 H 0.25426 0.98741 0.39456 0.0
H1183 H 0.19521 0.98432 0.37584 0.0
H1184 H 0.1714 0.90845 0.36973 0.0
H1185 H 0.18318 0.94634 0.3815 0.0
H1186 H 0.24709 0.96764 0.36643 0.0
H1187 H 0.23542 0.92943 0.35503 0.0
C1188 C 0.25016 0.01475 0.40332 0.0
C1189 C 0.2367 0.02409 0.40339 0.0
C1190 C 0.24377 0.99441 0.39374 0.0
C1191 C 0.22375 0.98284 0.38389 0.0
C1192 C 0.21061 0.99257 0.38346 0.0
C1193 C 0.217 1.01293 0.39308 0.0
C1194 C 0.18792 0.92121 0.3687 0.0
C1195 C 0.20249 0.91574 0.36154 0.0
C1196 C 0.19467 0.94307 0.37539 0.0
C1197 C 0.21616 0.96013 0.37506 0.0
C1198 C 0.23051 0.95487 0.3672 0.0
C1199 C 0.22377 0.93295 0.36054 0.0
H1200 H 0.56811 0.65929 0.31013 0.0
H1201 H 0.55397 0.69673 0.27361 0.0
H1202 H 0.59271 0.69409 0.32779 0.0
H1203 H 0.57899 0.73139 0.2908 0.0
H1204 H 0.61083 0.78877 0.3318 0.0
H1205 H 0.58385 0.75239 0.31803 0.0
H1206 H 0.62768 0.72751 0.32642 0.0
H1207 H 0.65465 0.76391 0.3406 0.0
C1208 C 0.57013 0.67491 0.30593 0.0
C1209 C 0.55912 0.67521 0.2904 0.0
C1210 C 0.58441 0.69488 0.31595 0.0
C1211 C 0.58789 0.71559 0.31074 0.0
C1212 C 0.57656 0.71578 0.29537 0.0
C1213 C 0.56237 0.69588 0.28536 0.0
C1214 C 0.61471 0.77552 0.33089 0.0
C1215 C 0.63503 0.77938 0.33722 0.0
C1216 C 0.59923 0.75465 0.32288 0.0
C1217 C 0.60365 0.73705 0.32088 0.0
C1218 C 0.62366 0.74061 0.32784 0.0
C1219 C 0.63916 0.76153 0.33593 0.0
H1220 H 0.38099 0.91578 0.32019 0.0
H1221 H 0.34536 0.88499 0.2703 0.0
H1222 H 0.34797 0.90862 0.33269 0.0
H1223 H 0.31227 0.87786 0.28283 0.0
H1224 H 0.25977 0.88614 0.30754 0.0
H1225 H 0.29348 0.89601 0.2948 0.0
H1226 H 0.31522 0.87679 0.34076 0.0
H1227 H 0.28166 0.86729 0.35354 0.0
C1228 C 0.36609 0.90739 0.31189 0.0
C1229 C 0.36584 0.90082 0.29425 0.0
C1230 C 0.34714 0.90329 0.31907 0.0
C1231 C 0.32741 0.89252 0.30882 0.0
C1232 C 0.32721 0.88641 0.29107 0.0
C1233 C 0.34619 0.89051 0.28387 0.0
C1234 C 0.27185 0.88421 0.31495 0.0
C1235 C 0.26817 0.87604 0.33156 0.0
C1236 C 0.29109 0.8897 0.3076 0.0
C1237 C 0.30709 0.8872 0.31674 0.0
C1238 C 0.3034 0.87922 0.33345 0.0
C1239 C 0.28414 0.87367 0.34076 0.0
H1240 H 0.11471 0.44753 0.29302 0.0
H1241 H 0.16604 0.5003 0.32736 0.0
H1242 H 0.12339 0.42048 0.30484 0.0
H1243 H 0.17422 0.47325 0.33952 0.0
H1244 H 0.19939 0.42396 0.34088 0.0
H1245 H 0.18965 0.45065 0.3305 0.0
H1246 H 0.12248 0.40168 0.3315 0.0
H1247 H 0.13222 0.37467 0.3417 0.0
C1248 C 0.12783 0.45337 0.30309 0.0
C1249 C 0.13966 0.47613 0.30922 0.0
C1250 C 0.13264 0.43782 0.31002 0.0
C1251 C 0.1495 0.44465 0.32316 0.0
C1252 C 0.16126 0.46739 0.32931 0.0
C1253 C 0.15641 0.48289 0.32244 0.0
C1254 C 0.18251 0.41885 0.33904 0.0
C1255 C 0.1666 0.39708 0.34213 0.0
C1256 C 0.17693 0.43425 0.33314 0.0
C1257 C 0.15527 0.42834 0.3301 0.0
C1258 C 0.13932 0.40671 0.33349 0.0
C1259 C 0.14491 0.39128 0.3395 0.0
H1260 H 0.38009 0.48803 0.32568 0.0
H1261 H 0.34719 0.46689 0.27392 0.0
H1262 H 0.34722 0.46169 0.33801 0.0
H1263 H 0.31402 0.44132 0.28635 0.0
H1264 H 0.2628 0.38231 0.31227 0.0
H1265 H 0.29675 0.40704 0.3003 0.0
H1266 H 0.31265 0.45645 0.34349 0.0
H1267 H 0.27894 0.43139 0.35562 0.0
C1268 C 0.36589 0.4777 0.31689 0.0
C1269 C 0.36639 0.47962 0.29876 0.0
C1270 C 0.34691 0.46277 0.32401 0.0
C1271 C 0.32787 0.44936 0.31322 0.0
C1272 C 0.3284 0.45116 0.29508 0.0
C1273 C 0.3474 0.46607 0.28795 0.0
C1274 C 0.27367 0.3984 0.31925 0.0
C1275 C 0.26829 0.40492 0.33489 0.0
C1276 C 0.29305 0.41266 0.31233 0.0
C1277 C 0.30748 0.43384 0.32086 0.0
C1278 C 0.30212 0.44019 0.33665 0.0
C1279 C 0.28275 0.42588 0.34359 0.0
H1280 H 0.53342 0.8823 0.29758 0.0
H1281 H 0.58334 0.91943 0.26376 0.0
H1282 H 0.5567 0.87123 0.31284 0.0
H1283 H 0.60698 0.90952 0.27964 0.0
H1284 H 0.63673 0.8694 0.29887 0.0
H1285 H 0.61229 0.87891 0.28359 0.0
H1286 H 0.58797 0.88483 0.33263 0.0
H1287 H 0.61198 0.87441 0.34777 0.0
C1288 C 0.54935 0.88815 0.2934 0.0
C1289 C 0.55643 0.90178 0.27939 0.0
C1290 C 0.56283 0.88203 0.30232 0.0
C1291 C 0.58378 0.88944 0.29751 0.0
C1292 C 0.59088 0.90319 0.28359 0.0
C1293 C 0.57738 0.90918 0.27462 0.0
C1294 C 0.62611 0.8727 0.30636 0.0
C1295 C 0.62625 0.87123 0.3245 0.0
C1296 C 0.61219 0.87831 0.29763 0.0
C1297 C 0.59819 0.88284 0.30685 0.0
C1298 C 0.5983 0.88121 0.32504 0.0
C1299 C 0.61213 0.87538 0.33376 0.0
H1300 H 0.10515 0.67271 0.28964 0.0
H1301 H 0.16318 0.6747 0.30977 0.0
H1302 H 0.11621 0.7081 0.30622 0.0
H1303 H 0.17385 0.70972 0.32701 0.0
H1304 H 0.19839 0.78584 0.33378 0.0
H1305 H 0.18674 0.7481 0.32165 0.0
H1306 H 0.12211 0.72696 0.3347 0.0
H1307 H 0.13367 0.76499 0.3465 0.0
C1308 C 0.12022 0.68062 0.29771 0.0
C1309 C 0.13337 0.67092 0.29818 0.0
C1310 C 0.12644 0.70081 0.30743 0.0
C1311 C 0.14598 0.71189 0.31796 0.0
C1312 C 0.15882 0.70183 0.31889 0.0
C1313 C 0.15259 0.6816 0.30914 0.0
C1314 C 0.18173 0.77314 0.33429 0.0
C1315 C 0.16695 0.77861 0.341 0.0
C1316 C 0.17506 0.75137 0.32739 0.0
C1317 C 0.15342 0.73443 0.32704 0.0
C1318 C 0.13882 0.73966 0.33446 0.0
C1319 C 0.14549 0.76147 0.34135 0.0
H1320 H 0.8313 1.01265 0.40613 0.0
H1321 H 0.77789 0.02228 0.41624 0.0
H1322 H 0.80663 0.97661 0.39022 0.0
H1323 H 0.75328 0.98633 0.40035 0.0
H1324 H 0.71625 0.92914 0.35837 0.0
H1325 H 0.74238 0.96642 0.37153 0.0
H1326 H 0.77885 0.93958 0.39627 0.0
H1327 H 0.75304 0.90245 0.3829 0.0
C1328 C 0.8143 1.00706 0.40501 0.0
C1329 C 0.80662 0.0204 0.41251 0.0
C1330 C 0.80015 0.98639 0.39588 0.0
C1331 C 0.77794 0.97851 0.394 0.0
C1332 C 0.7703 0.992 0.40128 0.0
C1333 C 0.78445 1.01266 0.41041 0.0
C1334 C 0.72994 0.9312 0.36648 0.0
C1335 C 0.73247 0.91271 0.36956 0.0
C1336 C 0.74486 0.95258 0.37413 0.0
C1337 C 0.7627 0.95602 0.38503 0.0
C1338 C 0.76547 0.93762 0.38779 0.0
C1339 C 0.75056 0.91626 0.38016 0.0
H1340 H 1.01501 0.82087 0.41452 0.0
H1341 H 1.00999 0.75747 0.42418 0.0
H1342 H 0.04547 0.82984 0.39735 0.0
H1343 H 0.0404 0.76643 0.40706 0.0
H1344 H 0.11103 0.80244 0.39481 0.0
H1345 H 0.07882 0.792 0.4099 0.0
H1346 H 0.05632 0.81963 0.37033 0.0
H1347 H 0.08891 0.83041 0.35534 0.0
C1348 C 0.02021 0.80871 0.4128 0.0
C1349 C 1.01012 0.78851 0.42087 0.0
C1350 C 0.03769 0.81385 0.40294 0.0
C1351 C 0.04551 0.79893 0.4009 0.0
C1352 C 0.03509 0.77851 0.40863 0.0
C1353 C 0.01764 0.77338 0.41847 0.0
C1354 C 0.09912 0.80613 0.38926 0.0
C1355 C 0.10242 0.81717 0.37388 0.0
C1356 C 0.0806 0.80006 0.39786 0.0
C1357 C 0.06491 0.8049 0.39132 0.0
C1358 C 0.06817 0.81583 0.37582 0.0
C1359 C 0.08674 0.82187 0.36717 0.0
H1360 H 0.25091 0.24671 0.41163 0.0
H1361 H 0.20189 0.19438 0.37544 0.0
H1362 H 0.24313 0.27388 0.39896 0.0
H1363 H 0.194 0.22148 0.36296 0.0
H1364 H 0.16821 0.27056 0.36162 0.0
H1365 H 0.17781 0.24368 0.37181 0.0
H1366 H 0.24506 0.29306 0.3722 0.0
H1367 H 0.23545 0.32023 0.36216 0.0
C1368 C 0.23863 0.241 0.40087 0.0
C1369 C 0.22693 0.21825 0.39469 0.0
C1370 C 0.23418 0.25662 0.39359 0.0
C1371 C 0.21787 0.24988 0.37997 0.0
C1372 C 0.20642 0.22721 0.37361 0.0
C1373 C 0.21091 0.21163 0.38084 0.0
C1374 C 0.18507 0.27571 0.36371 0.0
C1375 C 0.20104 0.29764 0.36109 0.0
C1376 C 0.19058 0.26021 0.36949 0.0
C1377 C 0.21222 0.26619 0.37289 0.0
C1378 C 0.22824 0.28797 0.36991 0.0
C1379 C 0.22271 0.30349 0.364 0.0
H1380 H 0.66744 0.57072 0.74954 0.0
H1381 H 0.68203 0.51802 0.73906 0.0
H1382 H 0.70081 0.59734 0.73772 0.0
H1383 H 0.71529 0.54455 0.72726 0.0
H1384 H 0.75931 0.59135 0.68886 0.0
H1385 H 0.7265 0.56559 0.70176 0.0
H1386 H 0.73995 0.61667 0.74291 0.0
H1387 H 0.77266 0.64255 0.72977 0.0
C1388 C 0.67788 0.56486 0.74492 0.0
C1389 C 0.67194 0.54217 0.74514 0.0
C1390 C 0.69701 0.58012 0.73813 0.0
C1391 C 0.71067 0.57306 0.73139 0.0
C1392 C 0.70495 0.55049 0.73199 0.0
C1393 C 0.68586 0.53526 0.73877 0.0
C1394 C 0.75521 0.59706 0.70064 0.0
C1395 C 0.76848 0.61893 0.7083 0.0
C1396 C 0.73649 0.58227 0.70811 0.0
C1397 C 0.73059 0.589 0.72343 0.0
C1398 C 0.74387 0.61099 0.73102 0.0
C1399 C 0.76264 0.62579 0.72354 0.0
H1400 H 0.51734 0.17346 0.74226 0.0
H1401 H 0.46917 0.10543 0.74941 0.0
H1402 H 0.48953 0.18044 0.73018 0.0
H1403 H 0.44128 0.11247 0.73733 0.0
H1404 H 0.39549 0.14073 0.7293 0.0
H1405 H 0.42284 0.13374 0.7429 0.0
H1406 H 0.46543 0.16933 0.70371 0.0
H1407 H 0.43824 0.17651 0.69035 0.0
C1408 C 0.50082 0.15994 0.74118 0.0
C1409 C 0.49554 0.13882 0.74668 0.0
C1410 C 0.48486 0.16396 0.73425 0.0
C1411 C 0.46317 0.14697 0.73263 0.0
C1412 C 0.4578 0.12599 0.73853 0.0
C1413 C 0.47379 0.12196 0.74547 0.0
C1414 C 0.4107 0.14699 0.72361 0.0
C1415 C 0.41478 0.15914 0.70877 0.0
C1416 C 0.42633 0.14292 0.73135 0.0
C1417 C 0.44637 0.15104 0.72444 0.0
C1418 C 0.45031 0.16313 0.70953 0.0
C1419 C 0.43469 0.16712 0.7018 0.0
H1420 H 0.9305 0.35534 0.74597 0.0
H1421 H 0.86812 0.34741 0.73204 0.0
H1422 H 0.91963 0.31963 0.72994 0.0
H1423 H 0.85754 0.3121 0.71532 0.0
H1424 H 0.83746 0.23739 0.70891 0.0
H1425 H 0.84847 0.27481 0.72137 0.0
H1426 H 0.91074 0.29946 0.70162 0.0
H1427 H 0.89988 0.26174 0.68944 0.0
C1428 C 0.9145 0.34605 0.73939 0.0
C1429 C 0.90013 0.3542 0.74048 0.0
C1430 C 0.90834 0.32567 0.72997 0.0
C1431 C 0.88765 0.31285 0.72136 0.0
C1432 C 0.8735 0.32134 0.72199 0.0
C1433 C 0.87966 0.34175 0.73142 0.0
C1434 C 0.85345 0.25076 0.70704 0.0
C1435 C 0.8678 0.24642 0.69821 0.0
C1436 C 0.85974 0.27234 0.71413 0.0
C1437 C 0.88053 0.29024 0.71258 0.0
C1438 C 0.8947 0.28604 0.70331 0.0
C1439 C 0.88842 0.2644 0.69622 0.0
H1440 H 0.20576 0.01554 0.63251 0.0
H1441 H 0.25854 1.00655 0.61874 0.0
H1442 H 0.23115 0.05161 0.64805 0.0
H1443 H 0.28384 0.04248 0.63432 0.0
H1444 H 0.32289 0.09954 0.67618 0.0
H1445 H 0.29632 0.06222 0.66336 0.0
H1446 H 0.25826 0.08878 0.64113 0.0
H1447 H 0.28453 0.12594 0.65412 0.0
C1448 C 0.22277 0.02126 0.63276 0.0
C1449 C 0.23006 1.0081 0.62433 0.0
C1450 C 0.23733 0.04194 0.64168 0.0
C1451 C 0.25956 0.04998 0.64243 0.0
C1452 C 0.26683 0.03666 0.63425 0.0
C1453 C 0.25228 0.01602 0.62531 0.0
C1454 C 0.30878 0.09742 0.66869 0.0
C1455 C 0.30592 0.11582 0.66619 0.0
C1456 C 0.2936 0.07601 0.66124 0.0
C1457 C 0.27517 0.07248 0.65116 0.0
C1458 C 0.27211 0.09081 0.64898 0.0
C1459 C 0.28729 0.1122 0.65638 0.0
H1460 H 0.01923 0.19251 0.62892 0.0
H1461 H 0.03633 0.26138 0.62458 0.0
H1462 H 0.98611 0.18521 0.64125 0.0
H1463 H 1.00311 0.25408 0.63701 0.0
H1464 H 0.93107 0.22589 0.64462 0.0
H1465 H 0.96404 0.23388 0.63129 0.0
H1466 H 0.97498 0.19444 0.66803 0.0
H1467 H 0.9419 0.18619 0.68104 0.0
C1468 C 1.01598 0.20614 0.6307 0.0
C1469 C 0.03054 0.22758 0.62588 0.0
C1470 C 0.99698 0.20196 0.63779 0.0
C1471 C 0.99201 0.21911 0.64029 0.0
C1472 C 1.00633 0.24044 0.63513 0.0
C1473 C 0.02538 0.24463 0.628 0.0
C1474 C 0.94062 0.21904 0.64986 0.0
C1475 C 0.93397 0.20543 0.66385 0.0
C1476 C 0.95953 0.22367 0.64227 0.0
C1477 C 0.97213 0.21472 0.64852 0.0
C1478 C 0.9655 0.20131 0.66268 0.0
C1479 C 0.94663 0.1967 0.67024 0.0
H1480 H 0.79147 0.80297 0.66079 0.0
H1481 H 0.82337 0.80431 0.61443 0.0
H1482 H 0.79965 0.77531 0.67182 0.0
H1483 H 0.8308 0.77602 0.62512 0.0
H1484 H 0.86296 0.74641 0.65847 0.0
H1485 H 0.85369 0.77321 0.64761 0.0
H1486 H 0.79114 0.73666 0.66713 0.0
H1487 H 0.80057 0.70993 0.67838 0.0
C1488 C 0.80018 0.79732 0.65291 0.0
C1489 C 0.80686 0.806 0.63675 0.0
C1490 C 0.80466 0.78125 0.65916 0.0
C1491 C 0.81598 0.77346 0.64942 0.0
C1492 C 0.82232 0.78185 0.6331 0.0
C1493 C 0.81782 0.79789 0.62685 0.0
C1494 C 0.84723 0.74405 0.66055 0.0
C1495 C 0.83254 0.72596 0.66937 0.0
C1496 C 0.84185 0.75938 0.65416 0.0
C1497 C 0.82161 0.75707 0.65637 0.0
C1498 C 0.80695 0.73909 0.66533 0.0
C1499 C 0.81234 0.72371 0.67174 0.0
H1500 H 0.03105 0.78478 0.6193 0.0
H1501 H 0.02102 0.83928 0.63568 0.0
H1502 H 0.99754 0.7584 0.63097 0.0
H1503 H 0.98713 0.81285 0.64663 0.0
H1504 H 0.94064 0.76324 0.6822 0.0
H1505 H 0.97414 0.78921 0.67027 0.0
H1506 H 0.95892 0.74136 0.62606 0.0
H1507 H 0.92561 0.7152 0.63829 0.0
C1508 C 0.02169 0.79115 0.62535 0.0
C1509 C 0.02881 0.8142 0.62656 0.0
C1510 C 1.00233 0.77598 0.63187 0.0
C1511 C 0.98961 0.78347 0.63979 0.0
C1512 C 0.99663 0.80649 0.64083 0.0
C1513 C 1.01596 0.82164 0.63432 0.0
C1514 C 0.9445 0.75829 0.66995 0.0
C1515 C 0.93059 0.73722 0.66119 0.0
C1516 C 0.96362 0.77322 0.66304 0.0
C1517 C 0.96924 0.76744 0.64716 0.0
C1518 C 0.95526 0.74627 0.63842 0.0
C1519 C 0.93613 0.73131 0.64537 0.0
H1520 H 0.21151 0.23431 0.6351 0.0
H1521 H 0.23927 0.23264 0.58693 0.0
H1522 H 0.23629 0.2255 0.65071 0.0
H1523 H 0.26309 0.22254 0.60232 0.0
H1524 H 0.31874 0.22897 0.63748 0.0
H1525 H 0.29398 0.23827 0.62242 0.0
H1526 H 0.24427 0.19631 0.65484 0.0
H1527 H 0.26943 0.1877 0.67029 0.0
C1528 C 0.22285 0.23203 0.62781 0.0
C1529 C 0.22337 0.23427 0.60972 0.0
C1530 C 0.23689 0.22667 0.63674 0.0
C1531 C 0.25177 0.22332 0.62782 0.0
C1532 C 0.25211 0.22532 0.6097 0.0
C1533 C 0.23817 0.2308 0.6008 0.0
C1534 C 0.30254 0.22183 0.64142 0.0
C1535 C 0.296 0.20768 0.65507 0.0
C1536 C 0.28826 0.227 0.63269 0.0
C1537 C 0.26703 0.21798 0.63733 0.0
C1538 C 0.26055 0.20381 0.65105 0.0
C1539 C 0.27491 0.19876 0.65985 0.0
H1540 H 0.83558 0.02743 0.6136 0.0
H1541 H 0.78101 0.9917 0.64355 0.0
H1542 H 0.84469 0.0623 0.63014 0.0
H1543 H 0.79056 0.02663 0.66058 0.0
H1544 H 0.79951 0.09824 0.66945 0.0
H1545 H 0.79062 0.06147 0.65646 0.0
H1546 H 0.85806 0.08228 0.65862 0.0
H1547 H 0.86702 0.11909 0.67126 0.0
C1548 C 0.82557 0.027 0.62379 0.0
C1549 C 0.80748 1.00676 0.62715 0.0
C1550 C 0.83094 0.04698 0.63344 0.0
C1551 C 0.81838 0.04732 0.64674 0.0
C1552 C 0.80048 0.02702 0.65033 0.0
C1553 C 0.79514 1.00696 0.64069 0.0
C1554 C 0.81246 0.09492 0.66737 0.0
C1555 C 0.83401 0.1118 0.67126 0.0
C1556 C 0.80733 0.07376 0.65997 0.0
C1557 C 0.82363 0.06896 0.65629 0.0
C1558 C 0.84512 0.08552 0.66093 0.0
C1559 C 0.85024 0.10664 0.6683 0.0
H1560 H 0.4453 0.35706 0.74928 0.0
H1561 H 0.49897 0.34677 0.7423 0.0
H1562 H 0.42145 0.32174 0.73225 0.0
H1563 H 0.47524 0.31183 0.72464 0.0
H1564 H 0.42157 0.23796 0.71515 0.0
H1565 H 0.44692 0.27473 0.72931 0.0
H1566 H 0.41199 0.30251 0.70339 0.0
H1567 H 0.38626 0.26552 0.68946 0.0
C1568 C 0.45204 0.34732 0.74402 0.0
C1569 C 0.47404 0.3547 0.7473 0.0
C1570 C 0.4384 0.32717 0.73406 0.0
C1571 C 0.44638 0.31385 0.72709 0.0
C1572 C 0.46849 0.32151 0.72999 0.0
C1573 C 0.48215 0.34169 0.73995 0.0
C1574 C 0.41934 0.2519 0.71231 0.0
C1575 C 0.40177 0.24869 0.70117 0.0
C1576 C 0.434 0.27307 0.72038 0.0
C1577 C 0.43152 0.29163 0.71754 0.0
C1578 C 0.41423 0.28853 0.70607 0.0
C1579 C 0.39954 0.26732 0.69799 0.0
H1580 H 0.69721 0.11926 0.77513 0.0
H1581 H 0.66279 0.12772 0.73124 0.0
H1582 H 0.72713 0.12796 0.75763 0.0
H1583 H 0.69228 0.13513 0.71339 0.0
H1584 H 0.75967 0.17211 0.693 0.0
H1585 H 0.72848 0.16275 0.7094 0.0
H1586 H 0.73746 0.11282 0.73422 0.0
H1587 H 0.76897 0.12278 0.71825 0.0
C1588 C 0.69599 0.12299 0.76174 0.0
C1589 C 0.67752 0.12284 0.75467 0.0
C1590 C 0.71307 0.12765 0.75159 0.0
C1591 C 0.71214 0.13212 0.73401 0.0
C1592 C 0.69368 0.13196 0.72691 0.0
C1593 C 0.67661 0.12742 0.73711 0.0
C1594 C 0.75481 0.159 0.70185 0.0
C1595 C 0.76673 0.14819 0.70439 0.0
C1596 C 0.73689 0.15356 0.71122 0.0
C1597 C 0.73048 0.13712 0.72327 0.0
C1598 C 0.74213 0.12588 0.72535 0.0
C1599 C 0.76008 0.13142 0.71607 0.0
H1600 H 0.90909 0.55451 0.70879 0.0
H1601 H 0.87605 0.55223 0.75465 0.0
H1602 H 0.90033 0.5816 0.69747 0.0
H1603 H 0.86806 0.58002 0.74366 0.0
H1604 H 0.83575 0.60915 0.70988 0.0
H1605 H 0.84535 0.58271 0.72104 0.0
H1606 H 0.90802 0.61982 0.70182 0.0
H1607 H 0.89825 0.64613 0.69026 0.0
C1608 C 0.9 0.55982 0.7165 0.0
C1609 C 0.89318 0.55102 0.73261 0.0
C1610 C 0.89518 0.57558 0.71008 0.0
C1611 C 0.88339 0.58298 0.71959 0.0
C1612 C 0.8769 0.57448 0.73585 0.0
C1613 C 0.88173 0.55873 0.74227 0.0
C1614 C 0.85157 0.61169 0.70793 0.0
C1615 C 0.86619 0.62982 0.69909 0.0
C1616 C 0.85715 0.59658 0.71449 0.0
C1617 C 0.87752 0.59914 0.71245 0.0
C1618 C 0.89211 0.61716 0.70349 0.0
C1619 C 0.88652 0.63232 0.6969 0.0
H1620 H 0.4968 0.95459 0.14109 0.0
H1621 H 0.4726 1.00019 0.14795 0.0
H1622 H 0.50949 0.96926 0.11329 0.0
H1623 H 0.48633 0.0157 0.12056 0.0
H1624 H 0.49473 0.02299 0.06202 0.0
H1625 H 0.48067 1.0076 0.08951 0.0
H1626 H 0.53681 1.00172 0.10171 0.0
H1627 H 0.55009 0.01592 0.07385 0.0
C1628 C 0.49413 0.96772 0.13668 0.0
C1629 C 0.48363 0.97615 0.14684 0.0
C1630 C 0.5017 0.97637 0.12081 0.0
C1631 C 0.49908 0.99379 0.11466 0.0
C1632 C 0.48848 1.00217 0.12476 0.0
C1633 C 0.48085 0.99345 0.14063 0.0
C1634 C 0.50382 0.01805 0.0705 0.0
C1635 C 0.52323 0.0202 0.06567 0.0
C1636 C 0.49596 1.00954 0.08638 0.0
C1637 C 0.50751 1.00323 0.09785 0.0
C1638 C 0.52724 1.00596 0.0931 0.0
C1639 C 0.53499 0.01433 0.07721 0.0
H1640 H 0.08323 0.55829 0.14993 0.0
H1641 H 0.03972 0.48741 0.15147 0.0
H1642 H 0.06892 0.55642 0.12018 0.0
H1643 H 0.02464 0.48577 0.12201 0.0
H1644 H 1.01589 0.48617 0.06266 0.0
H1645 H 0.03184 0.48765 0.09189 0.0
H1646 H 0.03755 0.55208 0.10448 0.0
H1647 H 0.02262 0.55093 0.07506 0.0
C1648 C 0.07065 0.54227 0.14394 0.0
C1649 C 0.06267 0.52301 0.15321 0.0
C1650 C 0.06222 0.54125 0.1269 0.0
C1651 C 0.0455 0.52096 0.11863 0.0
C1652 C 0.03763 0.50166 0.12784 0.0
C1653 C 0.0461 0.50267 0.14488 0.0
C1654 C 0.02091 0.50076 0.07162 0.0
C1655 C 0.01834 0.51857 0.06651 0.0
C1656 C 0.02977 0.50151 0.08846 0.0
C1657 C 0.03612 0.52005 0.10061 0.0
C1658 C 0.03325 0.53772 0.09544 0.0
C1659 C 0.02448 0.53698 0.07862 0.0
H1660 H 0.51981 0.54396 0.1595 0.0
H1661 H 0.45462 0.50614 0.1359 0.0
H1662 H 0.53316 0.54233 0.13131 0.0
H1663 H 0.46801 0.50439 0.1077 0.0
H1664 H 0.50007 0.4861 0.06442 0.0
H1665 H 0.48635 0.48745 0.09266 0.0
H1666 H 0.53575 0.55685 0.10275 0.0
H1667 H 0.5492 0.55541 0.07449 0.0
C1668 C 0.50831 0.53548 0.14828 0.0
C1669 C 0.48612 0.52521 0.15003 0.0
C1670 C 0.51598 0.53451 0.13209 0.0
C1671 C 0.50167 0.52322 0.11722 0.0
C1672 C 0.47948 0.51294 0.11894 0.0
C1673 C 0.4718 0.51394 0.13513 0.0
C1674 C 0.50776 0.50167 0.07262 0.0
C1675 C 0.52545 0.52072 0.0672 0.0
C1676 C 0.49997 0.50247 0.0888 0.0
C1677 C 0.5099 0.52229 0.09998 0.0
C1678 C 0.52785 0.54124 0.09458 0.0
C1679 C 0.53556 0.54044 0.07839 0.0
H1680 H 0.99472 0.5378 0.88557 0.0
H1681 H 0.94668 0.46885 0.8899 0.0
H1682 H 1.00997 0.53988 0.91507 0.0
H1683 H 0.96128 0.47125 0.91966 0.0
H1684 H 1.0075 0.47485 0.96413 0.0
H1685 H 0.99208 0.47337 0.93484 0.0
H1686 H 1.00381 0.54065 0.94549 0.0
H1687 H 0.02027 0.54238 0.97458 0.0
C1688 C 0.98738 0.52307 0.89279 0.0
C1689 C 0.96951 0.50311 0.88524 0.0
C1690 C 0.99597 0.52436 0.90984 0.0
C1691 C 0.98692 0.50573 0.91981 0.0
C1692 C 0.96888 0.48586 0.91233 0.0
C1693 C 0.96032 0.48456 0.89529 0.0
C1694 C 1.00684 0.48935 0.96018 0.0
C1695 C 1.01479 0.50863 0.97171 0.0
C1696 C 0.99779 0.48843 0.94344 0.0
C1697 C 0.99648 0.50681 0.93777 0.0
C1698 C 1.00463 0.52621 0.94933 0.0
C1699 C 1.01377 0.52712 0.9661 0.0
H1700 H 0.55777 0.53824 0.8894 0.0
H1701 H 0.54109 0.46999 0.89639 0.0
H1702 H 0.54441 0.54064 0.91746 0.0
H1703 H 0.52855 0.47269 0.92474 0.0
H1704 H 0.48643 0.47674 0.96548 0.0
H1705 H 0.49944 0.4748 0.93713 0.0
H1706 H 0.55261 0.54221 0.94857 0.0
H1707 H 0.53894 0.54434 0.97666 0.0
C1708 C 0.55123 0.52373 0.8969 0.0
C1709 C 0.55047 0.5039 0.89056 0.0
C1710 C 0.5438 0.5252 0.91311 0.0
C1711 C 0.53537 0.50686 0.9234 0.0
C1712 C 0.53469 0.48707 0.91709 0.0
C1713 C 0.54214 0.4856 0.9009 0.0
C1714 C 0.50081 0.49118 0.96186 0.0
C1715 C 0.51185 0.51061 0.97332 0.0
C1716 C 0.50841 0.49001 0.94569 0.0
C1717 C 0.52719 0.50828 0.94057 0.0
C1718 C 0.53803 0.52786 0.95201 0.0
C1719 C 0.53039 0.52901 0.96819 0.0
H1720 H 0.50497 0.01976 0.87835 0.0
H1721 H 0.56688 0.07315 0.90037 0.0
H1722 H 0.4976 1.00435 0.90665 0.0
H1723 H 0.55952 0.05739 0.92879 0.0
H1724 H 0.54026 1.00953 0.97471 0.0
H1725 H 0.55119 0.02235 0.94566 0.0
H1726 H 0.49083 0.02008 0.93416 0.0
H1727 H 0.48032 1.00806 0.96299 0.0
C1728 C 0.51708 0.02816 0.88921 0.0
C1729 C 0.53635 0.04795 0.88715 0.0
C1730 C 0.51287 0.01927 0.90541 0.0
C1731 C 0.52786 0.02983 0.91999 0.0
C1732 C 0.5477 0.04885 0.91777 0.0
C1733 C 0.5519 0.05786 0.90149 0.0
C1734 C 0.5295 1.01202 0.96598 0.0
C1735 C 0.50958 1.00812 0.97118 0.0
C1736 C 0.5357 0.01925 0.94938 0.0
C1737 C 0.5218 0.0221 0.93761 0.0
C1738 C 0.50177 0.01776 0.94282 0.0
C1739 C 0.49577 1.01091 0.95937 0.0
H1740 H 0.18179 0.33747 0.49294 0.0
H1741 H 0.11687 0.29565 0.46966 0.0
H1742 H 0.19341 0.35123 0.46452 0.0
H1743 H 0.12834 0.30991 0.44145 0.0
H1744 H 0.16248 0.31719 0.39129 0.0
H1745 H 0.15001 0.30586 0.41983 0.0
H1746 H 0.19016 0.37403 0.44193 0.0
H1747 H 0.20268 0.38544 0.41307 0.0
C1748 C 0.16998 0.33126 0.48178 0.0
C1749 C 0.1484 0.31538 0.48359 0.0
C1750 C 0.1766 0.33936 0.46554 0.0
C1751 C 0.16181 0.33165 0.4507 0.0
C1752 C 0.14019 0.31603 0.45258 0.0
C1753 C 0.13357 0.30802 0.4688 0.0
C1754 C 0.16841 0.32987 0.40216 0.0
C1755 C 0.1834 0.35226 0.39991 0.0
C1756 C 0.16125 0.32335 0.41855 0.0
C1757 C 0.16901 0.33904 0.43318 0.0
C1758 C 0.18399 0.36151 0.43094 0.0
C1759 C 0.19107 0.36808 0.41443 0.0
H1760 H 0.74648 0.83993 0.47349 0.0
H1761 H 0.71199 0.87097 0.49402 0.0
H1762 H 0.73102 0.83809 0.44409 0.0
H1763 H 0.69656 0.86915 0.46466 0.0
H1764 H 0.69129 0.8842 0.40796 0.0
H1765 H 0.70677 0.88564 0.43725 0.0
H1766 H 0.6971 0.81929 0.42589 0.0
H1767 H 0.68159 0.81798 0.39651 0.0
C1768 C 0.73547 0.8462 0.47177 0.0
C1769 C 0.73053 0.85563 0.48617 0.0
C1770 C 0.72658 0.84513 0.45489 0.0
C1771 C 0.71254 0.85349 0.45197 0.0
C1772 C 0.70758 0.86288 0.46637 0.0
C1773 C 0.71646 0.86395 0.48323 0.0
C1774 C 0.6924 0.86989 0.41176 0.0
C1775 C 0.68543 0.85105 0.39993 0.0
C1776 C 0.70122 0.87068 0.42857 0.0
C1777 C 0.70321 0.85259 0.43398 0.0
C1778 C 0.69613 0.83367 0.4221 0.0
C1779 C 0.68727 0.83289 0.40526 0.0
H1780 H 0.15376 0.82185 0.48795 0.0
H1781 H 0.16032 0.88595 0.47842 0.0
H1782 H 0.16443 0.81891 0.45873 0.0
H1783 H 0.1716 0.88333 0.4495 0.0
H1784 H 0.16607 0.86009 0.39243 0.0
H1785 H 0.15528 0.8614 0.42171 0.0
H1786 H 0.1955 0.83573 0.44092 0.0
H1787 H 0.20596 0.83393 0.41129 0.0
C1788 C 0.15752 0.83533 0.47964 0.0
C1789 C 0.15611 0.85411 0.48552 0.0
C1790 C 0.16384 0.83374 0.46296 0.0
C1791 C 0.16877 0.85082 0.45173 0.0
C1792 C 0.16764 0.86972 0.45772 0.0
C1793 C 0.16142 0.87135 0.47439 0.0
C1794 C 0.17246 0.85449 0.40285 0.0
C1795 C 0.18682 0.84684 0.39957 0.0
C1796 C 0.16643 0.85547 0.41968 0.0
C1797 C 0.17468 0.84888 0.43371 0.0
C1798 C 0.18876 0.8408 0.43038 0.0
C1799 C 0.19481 0.83984 0.41346 0.0
H1800 H 0.62562 0.85762 0.23214 0.0
H1801 H 0.65571 0.82175 0.21164 0.0
H1802 H 0.64106 0.85897 0.26146 0.0
H1803 H 0.67102 0.82301 0.24093 0.0
H1804 H 0.67453 0.80777 0.29799 0.0
H1805 H 0.65962 0.8072 0.26865 0.0
H1806 H 0.67572 0.87598 0.27911 0.0
H1807 H 0.69076 0.87647 0.30852 0.0
C1808 C 0.63567 0.85018 0.23384 0.0
C1809 C 0.63936 0.83952 0.21948 0.0
C1810 C 0.64453 0.85097 0.25067 0.0
C1811 C 0.65727 0.84108 0.25357 0.0
C1812 C 0.66101 0.83049 0.23922 0.0
C1813 C 0.65219 0.82974 0.2224 0.0
C1814 C 0.67497 0.82279 0.29397 0.0
C1815 C 0.68354 0.84208 0.30556 0.0
C1816 C 0.66648 0.82249 0.27715 0.0
C1817 C 0.66642 0.84153 0.2715 0.0
C1818 C 0.67521 0.86093 0.28311 0.0
C1819 C 0.68381 0.86123 0.29994 0.0
H1820 H 0.18338 0.83119 0.20932 0.0
H1821 H 0.24822 0.85704 0.23207 0.0
H1822 H 0.17182 0.83356 0.23828 0.0
H1823 H 0.23684 0.86011 0.26084 0.0
H1824 H 0.20336 0.83449 0.31065 0.0
H1825 H 0.21523 0.83449 0.28165 0.0
H1826 H 0.17523 0.86039 0.26236 0.0
H1827 H 0.16328 0.86038 0.29169 0.0
C1828 C 0.19517 0.83742 0.22048 0.0
C1829 C 0.21672 0.84385 0.21835 0.0
C1830 C 0.18859 0.83903 0.23705 0.0
C1831 C 0.20339 0.847 0.25189 0.0
C1832 C 0.22497 0.85369 0.24972 0.0
C1833 C 0.23155 0.85214 0.23318 0.0
C1834 C 0.1973 0.84049 0.3003 0.0
C1835 C 0.18257 0.84769 0.30348 0.0
C1836 C 0.20413 0.8405 0.28365 0.0
C1837 C 0.19629 0.84755 0.26967 0.0
C1838 C 0.18147 0.85471 0.27283 0.0
C1839 C 0.17471 0.85482 0.2896 0.0
H1840 H 0.16698 0.35491 0.21245 0.0
H1841 H 0.23379 0.40204 0.22793 0.0
H1842 H 0.16264 0.34072 0.2412 0.0
H1843 H 0.22968 0.38716 0.25651 0.0
H1844 H 0.20439 0.3774 0.31155 0.0
H1845 H 0.21248 0.38874 0.28215 0.0
H1846 H 0.17153 0.32013 0.26122 0.0
H1847 H 0.16316 0.30887 0.29081 0.0
C1848 C 0.1808 0.36214 0.22195 0.0
C1849 C 0.20068 0.3798 0.21792 0.0
C1850 C 0.17838 0.35378 0.23838 0.0
C1851 C 0.19579 0.36283 0.25123 0.0
C1852 C 0.21586 0.37998 0.247 0.0
C1853 C 0.21828 0.38836 0.23054 0.0
C1854 C 0.19739 0.36467 0.30071 0.0
C1855 C 0.18307 0.34225 0.30346 0.0
C1856 C 0.20209 0.37116 0.28382 0.0
C1857 C 0.19257 0.35539 0.26926 0.0
C1858 C 0.17889 0.33278 0.27211 0.0
C1859 C 0.17419 0.32628 0.28905 0.0
H1860 H 0.81013 0.66691 0.81506 0.0
H1861 H 0.8256 0.61475 0.80515 0.0
H1862 H 0.82357 0.68178 0.7874 0.0
H1863 H 0.83897 0.62956 0.77746 0.0
H1864 H 0.88148 0.67552 0.73801 0.0
H1865 H 0.86837 0.66146 0.766 0.0
H1866 H 0.81531 0.67317 0.75614 0.0
H1867 H 0.82909 0.68813 0.72848 0.0
C1868 C 0.81622 0.65849 0.80691 0.0
C1869 C 0.81679 0.63964 0.81235 0.0
C1870 C 0.82392 0.66701 0.79103 0.0
C1871 C 0.83238 0.6569 0.78018 0.0
C1872 C 0.8329 0.63801 0.78561 0.0
C1873 C 0.82523 0.62951 0.8015 0.0
C1874 C 0.86711 0.67524 0.74193 0.0
C1875 C 0.85611 0.68264 0.73103 0.0
C1876 C 0.85946 0.66697 0.75787 0.0
C1877 C 0.84068 0.66601 0.7633 0.0
C1878 C 0.8299 0.6738 0.75245 0.0
C1879 C 0.83759 0.68209 0.73651 0.0
H1880 H 0.4139 0.17548 0.80474 0.0
H1881 H 0.38333 0.21151 0.82387 0.0
H1882 H 0.39905 0.17373 0.77516 0.0
H1883 H 0.36758 0.20873 0.79449 0.0
H1884 H 0.36139 0.22125 0.73752 0.0
H1885 H 0.37708 0.22331 0.76684 0.0
H1886 H 0.36596 0.15617 0.75678 0.0
H1887 H 0.35051 0.15439 0.72728 0.0
C1888 C 0.40404 0.18306 0.80267 0.0
C1889 C 0.39989 0.19369 0.81677 0.0
C1890 C 0.39526 0.18179 0.7857 0.0
C1891 C 0.38207 0.19107 0.78236 0.0
C1892 C 0.37788 0.20163 0.79648 0.0
C1893 C 0.3867 0.20297 0.81342 0.0
C1894 C 0.36225 0.20692 0.74162 0.0
C1895 C 0.35487 0.18771 0.73012 0.0
C1896 C 0.37117 0.20804 0.75846 0.0
C1897 C 0.37278 0.18989 0.76428 0.0
C1898 C 0.36531 0.17061 0.7527 0.0
C1899 C 0.35644 0.16955 0.7358 0.0
H1900 H 0.85053 0.21366 0.82421 0.0
H1901 H 0.78551 0.16576 0.80406 0.0
H1902 H 0.86302 0.21171 0.79571 0.0
H1903 H 0.79815 0.16294 0.77581 0.0
H1904 H 0.82492 0.18237 0.72258 0.0
H1905 H 0.81195 0.18371 0.75099 0.0
H1906 H 0.86889 0.18772 0.77621 0.0
H1907 H 0.88192 0.18673 0.74765 0.0
C1908 C 0.83887 0.2027 0.81371 0.0
C1909 C 0.81698 0.18991 0.81649 0.0
C1910 C 0.84609 0.20135 0.7974 0.0
C1911 C 0.83163 0.1871 0.78341 0.0
C1912 C 0.80974 0.17426 0.7862 0.0
C1913 C 0.80252 0.17567 0.8025 0.0
C1914 C 0.83448 0.1832 0.73417 0.0
C1915 C 0.85429 0.18417 0.7329 0.0
C1916 C 0.82707 0.184 0.7505 0.0
C1917 C 0.83933 0.1858 0.76597 0.0
C1918 C 0.85914 0.18664 0.76462 0.0
C1919 C 0.86656 0.18592 0.74826 0.0
H1920 H 0.32278 0.15153 0.54247 0.0
H1921 H 0.29527 0.19091 0.56102 0.0
H1922 H 0.33851 0.15431 0.57184 0.0
H1923 H 0.31007 0.19268 0.59062 0.0
H1924 H 0.35882 0.21095 0.63831 0.0
H1925 H 0.34324 0.20918 0.60885 0.0
H1926 H 0.32887 0.14075 0.59972 0.0
H1927 H 0.34464 0.14277 0.629 0.0
C1928 C 0.32007 0.16081 0.55279 0.0
C1929 C 0.30774 0.17102 0.54926 0.0
C1930 C 0.32888 0.16215 0.56974 0.0
C1931 C 0.32553 0.17365 0.5837 0.0
C1932 C 0.3132 0.18388 0.5802 0.0
C1933 C 0.30444 0.18259 0.56322 0.0
C1934 C 0.35211 0.19551 0.63001 0.0
C1935 C 0.35279 0.17697 0.63595 0.0
C1936 C 0.34318 0.19445 0.61313 0.0
C1937 C 0.33479 0.17482 0.60181 0.0
C1938 C 0.33549 0.15628 0.60789 0.0
C1939 C 0.34446 0.15739 0.62471 0.0
H1940 H 0.88264 0.20824 0.54753 0.0
H1941 H 0.87935 0.14587 0.55816 0.0
H1942 H 0.87226 0.2114 0.57684 0.0
H1943 H 0.86839 0.14869 0.58717 0.0
H1944 H 0.87245 0.17178 0.64388 0.0
H1945 H 0.88398 0.17123 0.61476 0.0
H1946 H 0.84154 0.19388 0.59487 0.0
H1947 H 0.83038 0.19497 0.62432 0.0
C1948 C 0.87969 0.1952 0.55611 0.0
C1949 C 0.88188 0.17682 0.55048 0.0
C1950 C 0.87355 0.19691 0.57285 0.0
C1951 C 0.86959 0.18036 0.58441 0.0
C1952 C 0.8716 0.1619 0.57871 0.0
C1953 C 0.87764 0.16015 0.56197 0.0
C1954 C 0.86583 0.17702 0.63337 0.0
C1955 C 0.8506 0.18356 0.6364 0.0
C1956 C 0.87225 0.17643 0.61661 0.0
C1957 C 0.86354 0.18228 0.60241 0.0
C1958 C 0.84867 0.18939 0.60553 0.0
C1959 C 0.84222 0.18996 0.62236 0.0
H1960 H 0.90022 0.73801 0.56597 0.0
H1961 H 0.834 0.69429 0.54648 0.0
H1962 H 0.89235 0.72184 0.59422 0.0
H1963 H 0.8262 0.67833 0.57452 0.0
H1964 H 0.81371 0.67859 0.63176 0.0
H1965 H 0.82399 0.69301 0.6035 0.0
H1966 H 0.88044 0.68639 0.60972 0.0
H1967 H 0.86979 0.67149 0.63822 0.0
C1968 C 0.88409 0.72476 0.56762 0.0
C1969 C 0.86766 0.71772 0.55406 0.0
C1970 C 0.87959 0.7155 0.5838 0.0
C1971 C 0.85858 0.69905 0.5867 0.0
C1972 C 0.84245 0.69134 0.57285 0.0
C1973 C 0.84692 0.70052 0.55677 0.0
C1974 C 0.82827 0.68008 0.6271 0.0
C1975 C 0.84105 0.67408 0.63725 0.0
C1976 C 0.83415 0.68831 0.61086 0.0
C1977 C 0.85296 0.69071 0.60427 0.0
C1978 C 0.86594 0.6849 0.6145 0.0
C1979 C 0.85993 0.67649 0.63082 0.0
loop_
_geom_bond_atom_site_label_1
_geom_bond_atom_site_label_2
_geom_bond_distance
_geom_bond_site_symmetry_2
_ccdc_geom_bond_type
C0 C1 1.264 . S
C0 C5 1.479 . S
C0 C10 1.465 . S
C1 C0 1.264 . S
C1 C3 1.339 . S
C1 H28 0.931 . S
C2 C3 1.395 . S
C2 C4 1.320 . S
C3 C1 1.339 . S
C3 C2 1.395 . S
C3 H29 0.929 . S
C4 C2 1.320 . S
C4 C5 1.405 . S
C4 H30 0.930 . S
C5 C0 1.479 . S
C5 C4 1.405 . S
C5 H31 0.931 . S
U6 O7 2.454 . S
U6 O8 2.458 . S
U6 C9 2.984 . S
U6 C10 2.847 . S
U6 C23 2.882 . S
U6 O24 2.441 . S
U6 O25 2.420 . S
U6 O26 2.455 . S
U6 O27 2.449 . S
O7 U6 2.454 . S
O7 C9 1.353 . S
O8 U6 2.458 . S
O8 C9 1.286 . S
C9 U6 2.984 . S
C9 O7 1.353 . S
C9 O8 1.286 . S
C9 C11 1.363 . S
C10 C0 1.465 . S
C10 U6 2.847 . S
C10 O24 1.249 . S
C10 O25 1.202 . S
C11 C9 1.363 . S
C11 C13 1.408 . S
C11 C16 1.342 . S
C12 C13 1.310 . S
C12 C15 1.461 . S
C12 H32 0.932 . S
C13 C11 1.408 . S
C13 C12 1.310 . S
C13 H33 0.930 . S
C14 C15 1.474 . S
C14 C16 1.285 . S
C14 H34 0.929 . S
C15 C12 1.461 . S
C15 C14 1.474 . S
C16 C11 1.342 . S
C16 C14 1.285 . S
C16 H35 0.930 . S
C17 C20 1.424 . S
C17 C22 1.245 . S
C17 C23 1.428 . S
C18 C21 1.260 . S
C18 C22 1.477 . S
C18 H36 0.932 . S
C19 C20 1.384 . S
C19 C21 1.479 . S
C19 H37 0.929 . S
C20 C17 1.424 . S
C20 C19 1.384 . S
C20 H38 0.928 . S
C21 C18 1.260 . S
C21 C19 1.479 . S
C22 C17 1.245 . S
C22 C18 1.477 . S
C22 H39 0.932 . S
C23 U6 2.882 . S
C23 C17 1.428 . S
C23 O26 1.301 . S
C23 O27 1.282 . S
O24 U6 2.441 . S
O24 C10 1.249 . S
O25 U6 2.420 . S
O25 C10 1.202 . S
O26 U6 2.455 . S
O26 C23 1.301 . S
O27 U6 2.449 . S
O27 C23 1.282 . S
H28 C1 0.931 . S
H29 C3 0.929 . S
H30 C4 0.930 . S
H31 C5 0.931 . S
H32 C12 0.932 . S
H33 C13 0.930 . S
H34 C14 0.929 . S
H35 C16 0.930 . S
H36 C18 0.932 . S
H37 C19 0.929 . S
H38 C20 0.928 . S
H39 C22 0.932 . S
C40 C41 1.264 . S
C40 C45 1.479 . S
C40 C50 1.465 . S
C41 C40 1.264 . S
C41 C43 1.339 . S
C41 H68 0.931 . S
C42 C43 1.395 . S
C42 C44 1.320 . S
C43 C41 1.339 . S
C43 C42 1.395 . S
C43 H69 0.929 . S
C44 C42 1.320 . S
C44 C45 1.405 . S
C44 H70 0.930 . S
C45 C40 1.479 . S
C45 C44 1.405 . S
C45 H71 0.931 . S
U46 O47 2.454 . S
U46 O48 2.458 . S
U46 C49 2.984 . S
U46 C50 2.847 . S
U46 C63 2.882 . S
U46 O64 2.441 . S
U46 O65 2.420 . S
U46 O66 2.455 . S
U46 O67 2.449 . S
O47 U46 2.454 . S
O47 C49 1.353 . S
O48 U46 2.458 . S
O48 C49 1.286 . S
C49 U46 2.984 . S
C49 O47 1.353 . S
C49 O48 1.286 . S
C49 C51 1.363 . S
C50 C40 1.465 . S
C50 U46 2.847 . S
C50 O64 1.249 . S
C50 O65 1.202 . S
C51 C49 1.363 . S
C51 C53 1.408 . S
C51 C56 1.342 . S
C52 C53 1.310 . S
C52 C55 1.461 . S
C52 H72 0.932 . S
C53 C51 1.408 . S
C53 C52 1.310 . S
C53 H73 0.930 . S
C54 C55 1.474 . S
C54 C56 1.285 . S
C54 H74 0.929 . S
C55 C52 1.461 . S
C55 C54 1.474 . S
C56 C51 1.342 . S
C56 C54 1.285 . S
C56 H75 0.930 . S
C57 C60 1.424 . S
C57 C62 1.245 . S
C57 C63 1.428 . S
C58 C61 1.260 . S
C58 C62 1.477 . S
C58 H76 0.932 . S
C59 C60 1.384 . S
C59 C61 1.479 . S
C59 H77 0.929 . S
C60 C57 1.424 . S
C60 C59 1.384 . S
C60 H78 0.928 . S
C61 C58 1.260 . S
C61 C59 1.479 . S
C62 C57 1.245 . S
C62 C58 1.477 . S
C62 H79 0.932 . S
C63 U46 2.882 . S
C63 C57 1.428 . S
C63 O66 1.301 . S
C63 O67 1.282 . S
O64 U46 2.441 . S
O64 C50 1.249 . S
O65 U46 2.420 . S
O65 C50 1.202 . S
O66 U46 2.455 . S
O66 C63 1.301 . S
O67 U46 2.449 . S
O67 C63 1.282 . S
H68 C41 0.931 . S
H69 C43 0.929 . S
H70 C44 0.930 . S
H71 C45 0.931 . S
H72 C52 0.932 . S
H73 C53 0.930 . S
H74 C54 0.929 . S
H75 C56 0.930 . S
H76 C58 0.932 . S
H77 C59 0.929 . S
H78 C60 0.928 . S
H79 C62 0.932 . S
C80 C81 1.264 . S
C80 C85 1.479 . S
C80 C90 1.465 . S
C81 C80 1.264 . S
C81 C83 1.339 . S
C81 H108 0.931 . S
C82 C83 1.395 . S
C82 C84 1.320 . S
C83 C81 1.339 . S
C83 C82 1.395 . S
C83 H109 0.929 . S
C84 C82 1.320 . S
C84 C85 1.405 . S
C84 H110 0.930 . S
C85 C80 1.479 . S
C85 C84 1.405 . S
C85 H111 0.931 . S
U86 O87 2.454 . S
U86 O88 2.458 . S
U86 C89 2.984 . S
U86 C90 2.847 . S
U86 C103 2.882 . S
U86 O104 2.441 . S
U86 O105 2.420 . S
U86 O106 2.455 . S
U86 O107 2.449 . S
O87 U86 2.454 . S
O87 C89 1.353 . S
O88 U86 2.458 . S
O88 C89 1.286 . S
C89 U86 2.984 . S
C89 O87 1.353 . S
C89 O88 1.286 . S
C89 C91 1.363 . S
C90 C80 1.465 . S
C90 U86 2.847 . S
C90 O104 1.249 . S
C90 O105 1.202 . S
C91 C89 1.363 . S
C91 C93 1.408 . S
C91 C96 1.342 . S
C92 C93 1.310 . S
C92 C95 1.461 . S
C92 H112 0.932 . S
C93 C91 1.408 . S
C93 C92 1.310 . S
C93 H113 0.930 . S
C94 C95 1.474 . S
C94 C96 1.285 . S
C94 H114 0.929 . S
C95 C92 1.461 . S
C95 C94 1.474 . S
C96 C91 1.342 . S
C96 C94 1.285 . S
C96 H115 0.930 . S
C97 C100 1.424 . S
C97 C102 1.245 . S
C97 C103 1.428 . S
C98 C101 1.260 . S
C98 C102 1.477 . S
C98 H116 0.932 . S
C99 C100 1.384 . S
C99 C101 1.479 . S
C99 H117 0.929 . S
C100 C97 1.424 . S
C100 C99 1.384 . S
C100 H118 0.928 . S
C101 C98 1.260 . S
C101 C99 1.479 . S
C102 C97 1.245 . S
C102 C98 1.477 . S
C102 H119 0.932 . S
C103 U86 2.882 . S
C103 C97 1.428 . S
C103 O106 1.301 . S
C103 O107 1.282 . S
O104 U86 2.441 . S
O104 C90 1.249 . S
O105 U86 2.420 . S
O105 C90 1.202 . S
O106 U86 2.455 . S
O106 C103 1.301 . S
O107 U86 2.449 . S
O107 C103 1.282 . S
H108 C81 0.931 . S
H109 C83 0.929 . S
H110 C84 0.930 . S
H111 C85 0.931 . S
H112 C92 0.932 . S
H113 C93 0.930 . S
H114 C94 0.929 . S
H115 C96 0.930 . S
H116 C98 0.932 . S
H117 C99 0.929 . S
H118 C100 0.928 . S
H119 C102 0.932 . S
C120 C121 1.264 . S
C120 C125 1.479 . S
C120 C130 1.465 . S
C121 C120 1.264 . S
C121 C123 1.339 . S
C121 H148 0.931 . S
C122 C123 1.395 . S
C122 C124 1.320 . S
C123 C121 1.339 . S
C123 C122 1.395 . S
C123 H149 0.929 . S
C124 C122 1.320 . S
C124 C125 1.405 . S
C124 H150 0.930 . S
C125 C120 1.479 . S
C125 C124 1.405 . S
C125 H151 0.931 . S
U126 O127 2.454 . S
U126 O128 2.458 . S
U126 C129 2.984 . S
U126 C130 2.847 . S
U126 C143 2.882 . S
U126 O144 2.441 . S
U126 O145 2.420 . S
U126 O146 2.455 . S
U126 O147 2.449 . S
O127 U126 2.454 . S
O127 C129 1.353 . S
O128 U126 2.458 . S
O128 C129 1.286 . S
C129 U126 2.984 . S
C129 O127 1.353 . S
C129 O128 1.286 . S
C129 C131 1.363 . S
C130 C120 1.465 . S
C130 U126 2.847 . S
C130 O144 1.249 . S
C130 O145 1.202 . S
C131 C129 1.363 . S
C131 C133 1.408 . S
C131 C136 1.342 . S
C132 C133 1.310 . S
C132 C135 1.461 . S
C132 H152 0.932 . S
C133 C131 1.408 . S
C133 C132 1.310 . S
C133 H153 0.930 . S
C134 C135 1.474 . S
C134 C136 1.285 . S
C134 H154 0.929 . S
C135 C132 1.461 . S
C135 C134 1.474 . S
C136 C131 1.342 . S
C136 C134 1.285 . S
C136 H155 0.930 . S
C137 C140 1.424 . S
C137 C142 1.245 . S
C137 C143 1.428 . S
C138 C141 1.260 . S
C138 C142 1.477 . S
C138 H156 0.932 . S
C139 C140 1.384 . S
C139 C141 1.479 . S
C139 H157 0.929 . S
C140 C137 1.424 . S
C140 C139 1.384 . S
C140 H158 0.928 . S
C141 C138 1.260 . S
C141 C139 1.479 . S
C142 C137 1.245 . S
C142 C138 1.477 . S
C142 H159 0.932 . S
C143 U126 2.882 . S
C143 C137 1.428 . S
C143 O146 1.301 . S
C143 O147 1.282 . S
O144 U126 2.441 . S
O144 C130 1.249 . S
O145 U126 2.420 . S
O145 C130 1.202 . S
O146 U126 2.455 . S
O146 C143 1.301 . S
O147 U126 2.449 . S
O147 C143 1.282 . S
H148 C121 0.931 . S
H149 C123 0.929 . S
H150 C124 0.930 . S
H151 C125 0.931 . S
H152 C132 0.932 . S
H153 C133 0.930 . S
H154 C134 0.929 . S
H155 C136 0.930 . S
H156 C138 0.932 . S
H157 C139 0.929 . S
H158 C140 0.928 . S
H159 C142 0.932 . S
C160 C161 1.264 . S
C160 C165 1.479 . S
C160 C170 1.465 . S
C161 C160 1.264 . S
C161 C163 1.339 . S
C161 H188 0.931 . S
C162 C163 1.395 . S
C162 C164 1.320 . S
C163 C161 1.339 . S
C163 C162 1.395 . S
C163 H189 0.929 . S
C164 C162 1.320 . S
C164 C165 1.405 . S
C164 H190 0.930 . S
C165 C160 1.479 . S
C165 C164 1.405 . S
C165 H191 0.931 . S
U166 O167 2.454 . S
U166 O168 2.458 . S
U166 C169 2.984 . S
U166 C170 2.847 . S
U166 C183 2.882 . S
U166 O184 2.441 . S
U166 O185 2.420 . S
U166 O186 2.455 . S
U166 O187 2.449 . S
O167 U166 2.454 . S
O167 C169 1.353 . S
O168 U166 2.458 . S
O168 C169 1.286 . S
C169 U166 2.984 . S
C169 O167 1.353 . S
C169 O168 1.286 . S
C169 C171 1.363 . S
C170 C160 1.465 . S
C170 U166 2.847 . S
C170 O184 1.249 . S
C170 O185 1.202 . S
C171 C169 1.363 . S
C171 C173 1.408 . S
C171 C176 1.342 . S
C172 C173 1.310 . S
C172 C175 1.461 . S
C172 H192 0.932 . S
C173 C171 1.408 . S
C173 C172 1.310 . S
C173 H193 0.930 . S
C174 C175 1.474 . S
C174 C176 1.285 . S
C174 H194 0.929 . S
C175 C172 1.461 . S
C175 C174 1.474 . S
C176 C171 1.342 . S
C176 C174 1.285 . S
C176 H195 0.930 . S
C177 C180 1.424 . S
C177 C182 1.245 . S
C177 C183 1.428 . S
C178 C181 1.260 . S
C178 C182 1.477 . S
C178 H196 0.932 . S
C179 C180 1.384 . S
C179 C181 1.479 . S
C179 H197 0.929 . S
C180 C177 1.424 . S
C180 C179 1.384 . S
C180 H198 0.928 . S
C181 C178 1.260 . S
C181 C179 1.479 . S
C182 C177 1.245 . S
C182 C178 1.477 . S
C182 H199 0.932 . S
C183 U166 2.882 . S
C183 C177 1.428 . S
C183 O186 1.301 . S
C183 O187 1.282 . S
O184 U166 2.441 . S
O184 C170 1.249 . S
O185 U166 2.420 . S
O185 C170 1.202 . S
O186 U166 2.455 . S
O186 C183 1.301 . S
O187 U166 2.449 . S
O187 C183 1.282 . S
H188 C161 0.931 . S
H189 C163 0.929 . S
H190 C164 0.930 . S
H191 C165 0.931 . S
H192 C172 0.932 . S
H193 C173 0.930 . S
H194 C174 0.929 . S
H195 C176 0.930 . S
H196 C178 0.932 . S
H197 C179 0.929 . S
H198 C180 0.928 . S
H199 C182 0.932 . S
C200 C201 1.264 . S
C200 C205 1.479 . S
C200 C210 1.465 . S
C201 C200 1.264 . S
C201 C203 1.339 . S
C201 H228 0.931 . S
C202 C203 1.395 . S
C202 C204 1.320 . S
C203 C201 1.339 . S
C203 C202 1.395 . S
C203 H229 0.929 . S
C204 C202 1.320 . S
C204 C205 1.405 . S
C204 H230 0.930 . S
C205 C200 1.479 . S
C205 C204 1.405 . S
C205 H231 0.931 . S
U206 O207 2.454 . S
U206 O208 2.458 . S
U206 C209 2.984 . S
U206 C210 2.847 . S
U206 C223 2.882 . S
U206 O224 2.441 . S
U206 O225 2.420 . S
U206 O226 2.455 . S
U206 O227 2.449 . S
O207 U206 2.454 . S
O207 C209 1.353 . S
O208 U206 2.458 . S
O208 C209 1.286 . S
C209 U206 2.984 . S
C209 O207 1.353 . S
C209 O208 1.286 . S
C209 C211 1.363 . S
C210 C200 1.465 . S
C210 U206 2.847 . S
C210 O224 1.249 . S
C210 O225 1.202 . S
C211 C209 1.363 . S
C211 C213 1.408 . S
C211 C216 1.342 . S
C212 C213 1.310 . S
C212 C215 1.461 . S
C212 H232 0.932 . S
C213 C211 1.408 . S
C213 C212 1.310 . S
C213 H233 0.930 . S
C214 C215 1.474 . S
C214 C216 1.285 . S
C214 H234 0.929 . S
C215 C212 1.461 . S
C215 C214 1.474 . S
C216 C211 1.342 . S
C216 C214 1.285 . S
C216 H235 0.930 . S
C217 C220 1.424 . S
C217 C222 1.245 . S
C217 C223 1.428 . S
C218 C221 1.260 . S
C218 C222 1.477 . S
C218 H236 0.932 . S
C219 C220 1.384 . S
C219 C221 1.479 . S
C219 H237 0.929 . S
C220 C217 1.424 . S
C220 C219 1.384 . S
C220 H238 0.928 . S
C221 C218 1.260 . S
C221 C219 1.479 . S
C222 C217 1.245 . S
C222 C218 1.477 . S
C222 H239 0.932 . S
C223 U206 2.882 . S
C223 C217 1.428 . S
C223 O226 1.301 . S
C223 O227 1.282 . S
O224 U206 2.441 . S
O224 C210 1.249 . S
O225 U206 2.420 . S
O225 C210 1.202 . S
O226 U206 2.455 . S
O226 C223 1.301 . S
O227 U206 2.449 . S
O227 C223 1.282 . S
H228 C201 0.931 . S
H229 C203 0.929 . S
H230 C204 0.930 . S
H231 C205 0.931 . S
H232 C212 0.932 . S
H233 C213 0.930 . S
H234 C214 0.929 . S
H235 C216 0.930 . S
H236 C218 0.932 . S
H237 C219 0.929 . S
H238 C220 0.928 . S
H239 C222 0.932 . S
C240 C241 1.264 . S
C240 C245 1.479 . S
C240 C250 1.465 . S
C241 C240 1.264 . S
C241 C243 1.339 . S
C241 H268 0.931 . S
C242 C243 1.395 . S
C242 C244 1.320 . S
C243 C241 1.339 . S
C243 C242 1.395 . S
C243 H269 0.929 . S
C244 C242 1.320 . S
C244 C245 1.405 . S
C244 H270 0.930 . S
C245 C240 1.479 . S
C245 C244 1.405 . S
C245 H271 0.931 . S
U246 O247 2.454 . S
U246 O248 2.458 . S
U246 C249 2.984 . S
U246 C250 2.847 . S
U246 C263 2.882 . S
U246 O264 2.441 . S
U246 O265 2.420 . S
U246 O266 2.455 . S
U246 O267 2.449 . S
O247 U246 2.454 . S
O247 C249 1.353 . S
O248 U246 2.458 . S
O248 C249 1.286 . S
C249 U246 2.984 . S
C249 O247 1.353 . S
C249 O248 1.286 . S
C249 C251 1.363 . S
C250 C240 1.465 . S
C250 U246 2.847 . S
C250 O264 1.249 . S
C250 O265 1.202 . S
C251 C249 1.363 . S
C251 C253 1.408 . S
C251 C256 1.342 . S
C252 C253 1.310 . S
C252 C255 1.461 . S
C252 H272 0.932 . S
C253 C251 1.408 . S
C253 C252 1.310 . S
C253 H273 0.930 . S
C254 C255 1.474 . S
C254 C256 1.285 . S
C254 H274 0.929 . S
C255 C252 1.461 . S
C255 C254 1.474 . S
C256 C251 1.342 . S
C256 C254 1.285 . S
C256 H275 0.930 . S
C257 C260 1.424 . S
C257 C262 1.245 . S
C257 C263 1.428 . S
C258 C261 1.260 . S
C258 C262 1.477 . S
C258 H276 0.932 . S
C259 C260 1.384 . S
C259 C261 1.479 . S
C259 H277 0.929 . S
C260 C257 1.424 . S
C260 C259 1.384 . S
C260 H278 0.928 . S
C261 C258 1.260 . S
C261 C259 1.479 . S
C262 C257 1.245 . S
C262 C258 1.477 . S
C262 H279 0.932 . S
C263 U246 2.882 . S
C263 C257 1.428 . S
C263 O266 1.301 . S
C263 O267 1.282 . S
O264 U246 2.441 . S
O264 C250 1.249 . S
O265 U246 2.420 . S
O265 C250 1.202 . S
O266 U246 2.455 . S
O266 C263 1.301 . S
O267 U246 2.449 . S
O267 C263 1.282 . S
H268 C241 0.931 . S
H269 C243 0.929 . S
H270 C244 0.930 . S
H271 C245 0.931 . S
H272 C252 0.932 . S
H273 C253 0.930 . S
H274 C254 0.929 . S
H275 C256 0.930 . S
H276 C258 0.932 . S
H277 C259 0.929 . S
H278 C260 0.928 . S
H279 C262 0.932 . S
C280 C281 1.264 . S
C280 C285 1.479 . S
C280 C290 1.465 . S
C281 C280 1.264 . S
C281 C283 1.339 . S
C281 H308 0.931 . S
C282 C283 1.395 . S
C282 C284 1.320 . S
C283 C281 1.339 . S
C283 C282 1.395 . S
C283 H309 0.929 . S
C284 C282 1.320 . S
C284 C285 1.405 . S
C284 H310 0.930 . S
C285 C280 1.479 . S
C285 C284 1.405 . S
C285 H311 0.931 . S
U286 O287 2.454 . S
U286 O288 2.458 . S
U286 C289 2.984 . S
U286 C290 2.847 . S
U286 C303 2.882 . S
U286 O304 2.441 . S
U286 O305 2.420 . S
U286 O306 2.455 . S
U286 O307 2.449 . S
O287 U286 2.454 . S
O287 C289 1.353 . S
O288 U286 2.458 . S
O288 C289 1.286 . S
C289 U286 2.984 . S
C289 O287 1.353 . S
C289 O288 1.286 . S
C289 C291 1.363 . S
C290 C280 1.465 . S
C290 U286 2.847 . S
C290 O304 1.249 . S
C290 O305 1.202 . S
C291 C289 1.363 . S
C291 C293 1.408 . S
C291 C296 1.342 . S
C292 C293 1.310 . S
C292 C295 1.461 . S
C292 H312 0.932 . S
C293 C291 1.408 . S
C293 C292 1.310 . S
C293 H313 0.930 . S
C294 C295 1.474 . S
C294 C296 1.285 . S
C294 H314 0.929 . S
C295 C292 1.461 . S
C295 C294 1.474 . S
C296 C291 1.342 . S
C296 C294 1.285 . S
C296 H315 0.930 . S
C297 C300 1.424 . S
C297 C302 1.245 . S
C297 C303 1.428 . S
C298 C301 1.260 . S
C298 C302 1.477 . S
C298 H316 0.932 . S
C299 C300 1.384 . S
C299 C301 1.479 . S
C299 H317 0.929 . S
C300 C297 1.424 . S
C300 C299 1.384 . S
C300 H318 0.928 . S
C301 C298 1.260 . S
C301 C299 1.479 . S
C302 C297 1.245 . S
C302 C298 1.477 . S
C302 H319 0.932 . S
C303 U286 2.882 . S
C303 C297 1.428 . S
C303 O306 1.301 . S
C303 O307 1.282 . S
O304 U286 2.441 . S
O304 C290 1.249 . S
O305 U286 2.420 . S
O305 C290 1.202 . S
O306 U286 2.455 . S
O306 C303 1.301 . S
O307 U286 2.449 . S
O307 C303 1.282 . S
H308 C281 0.931 . S
H309 C283 0.929 . S
H310 C284 0.930 . S
H311 C285 0.931 . S
H312 C292 0.932 . S
H313 C293 0.930 . S
H314 C294 0.929 . S
H315 C296 0.930 . S
H316 C298 0.932 . S
H317 C299 0.929 . S
H318 C300 0.928 . S
H319 C302 0.932 . S
C320 C321 1.264 . S
C320 C325 1.479 . S
C320 C330 1.465 . S
C321 C320 1.264 . S
C321 C323 1.339 . S
C321 H348 0.931 . S
C322 C323 1.395 . S
C322 C324 1.320 . S
C323 C321 1.339 . S
C323 C322 1.395 . S
C323 H349 0.929 . S
C324 C322 1.320 . S
C324 C325 1.405 . S
C324 H350 0.930 . S
C325 C320 1.479 . S
C325 C324 1.405 . S
C325 H351 0.931 . S
U326 O327 2.454 . S
U326 O328 2.458 . S
U326 C329 2.984 . S
U326 C330 2.847 . S
U326 C343 2.882 . S
U326 O344 2.441 . S
U326 O345 2.420 . S
U326 O346 2.455 . S
U326 O347 2.449 . S
O327 U326 2.454 . S
O327 C329 1.353 . S
O328 U326 2.458 . S
O328 C329 1.286 . S
C329 U326 2.984 . S
C329 O327 1.353 . S
C329 O328 1.286 . S
C329 C331 1.363 . S
C330 C320 1.465 . S
C330 U326 2.847 . S
C330 O344 1.249 . S
C330 O345 1.202 . S
C331 C329 1.363 . S
C331 C333 1.408 . S
C331 C336 1.342 . S
C332 C333 1.310 . S
C332 C335 1.461 . S
C332 H352 0.932 . S
C333 C331 1.408 . S
C333 C332 1.310 . S
C333 H353 0.930 . S
C334 C335 1.474 . S
C334 C336 1.285 . S
C334 H354 0.929 . S
C335 C332 1.461 . S
C335 C334 1.474 . S
C336 C331 1.342 . S
C336 C334 1.285 . S
C336 H355 0.930 . S
C337 C340 1.424 . S
C337 C342 1.245 . S
C337 C343 1.428 . S
C338 C341 1.260 . S
C338 C342 1.477 . S
C338 H356 0.932 . S
C339 C340 1.384 . S
C339 C341 1.479 . S
C339 H357 0.929 . S
C340 C337 1.424 . S
C340 C339 1.384 . S
C340 H358 0.928 . S
C341 C338 1.260 . S
C341 C339 1.479 . S
C342 C337 1.245 . S
C342 C338 1.477 . S
C342 H359 0.932 . S
C343 U326 2.882 . S
C343 C337 1.428 . S
C343 O346 1.301 . S
C343 O347 1.282 . S
O344 U326 2.441 . S
O344 C330 1.249 . S
O345 U326 2.420 . S
O345 C330 1.202 . S
O346 U326 2.455 . S
O346 C343 1.301 . S
O347 U326 2.449 . S
O347 C343 1.282 . S
H348 C321 0.931 . S
H349 C323 0.929 . S
H350 C324 0.930 . S
H351 C325 0.931 . S
H352 C332 0.932 . S
H353 C333 0.930 . S
H354 C334 0.929 . S
H355 C336 0.930 . S
H356 C338 0.932 . S
H357 C339 0.929 . S
H358 C340 0.928 . S
H359 C342 0.932 . S
C360 C361 1.264 . S
C360 C365 1.479 . S
C360 C370 1.465 . S
C361 C360 1.264 . S
C361 C363 1.339 . S
C361 H388 0.931 . S
C362 C363 1.395 . S
C362 C364 1.320 . S
C363 C361 1.339 . S
C363 C362 1.395 . S
C363 H389 0.929 . S
C364 C362 1.320 . S
C364 C365 1.405 . S
C364 H390 0.930 . S
C365 C360 1.479 . S
C365 C364 1.405 . S
C365 H391 0.931 . S
U366 O367 2.454 . S
U366 O368 2.458 . S
U366 C369 2.984 . S
U366 C370 2.847 . S
U366 C383 2.882 . S
U366 O384 2.441 . S
U366 O385 2.420 . S
U366 O386 2.455 . S
U366 O387 2.449 . S
O367 U366 2.454 . S
O367 C369 1.353 . S
O368 U366 2.458 . S
O368 C369 1.286 . S
C369 U366 2.984 . S
C369 O367 1.353 . S
C369 O368 1.286 . S
C369 C371 1.363 . S
C370 C360 1.465 . S
C370 U366 2.847 . S
C370 O384 1.249 . S
C370 O385 1.202 . S
C371 C369 1.363 . S
C371 C373 1.408 . S
C371 C376 1.342 . S
C372 C373 1.310 . S
C372 C375 1.461 . S
C372 H392 0.932 . S
C373 C371 1.408 . S
C373 C372 1.310 . S
C373 H393 0.930 . S
C374 C375 1.474 . S
C374 C376 1.285 . S
C374 H394 0.929 . S
C375 C372 1.461 . S
C375 C374 1.474 . S
C376 C371 1.342 . S
C376 C374 1.285 . S
C376 H395 0.930 . S
C377 C380 1.424 . S
C377 C382 1.245 . S
C377 C383 1.428 . S
C378 C381 1.260 . S
C378 C382 1.477 . S
C378 H396 0.932 . S
C379 C380 1.384 . S
C379 C381 1.479 . S
C379 H397 0.929 . S
C380 C377 1.424 . S
C380 C379 1.384 . S
C380 H398 0.928 . S
C381 C378 1.260 . S
C381 C379 1.479 . S
C382 C377 1.245 . S
C382 C378 1.477 . S
C382 H399 0.932 . S
C383 U366 2.882 . S
C383 C377 1.428 . S
C383 O386 1.301 . S
C383 O387 1.282 . S
O384 U366 2.441 . S
O384 C370 1.249 . S
O385 U366 2.420 . S
O385 C370 1.202 . S
O386 U366 2.455 . S
O386 C383 1.301 . S
O387 U366 2.449 . S
O387 C383 1.282 . S
H388 C361 0.931 . S
H389 C363 0.929 . S
H390 C364 0.930 . S
H391 C365 0.931 . S
H392 C372 0.932 . S
H393 C373 0.930 . S
H394 C374 0.929 . S
H395 C376 0.930 . S
H396 C378 0.932 . S
H397 C379 0.929 . S
H398 C380 0.928 . S
H399 C382 0.932 . S
C400 C401 1.264 . S
C400 C405 1.479 . S
C400 C410 1.465 . S
C401 C400 1.264 . S
C401 C403 1.339 . S
C401 H428 0.931 . S
C402 C403 1.395 . S
C402 C404 1.320 . S
C403 C401 1.339 . S
C403 C402 1.395 . S
C403 H429 0.929 . S
C404 C402 1.320 . S
C404 C405 1.405 . S
C404 H430 0.930 . S
C405 C400 1.479 . S
C405 C404 1.405 . S
C405 H431 0.931 . S
U406 O407 2.454 . S
U406 O408 2.458 . S
U406 C409 2.984 . S
U406 C410 2.847 . S
U406 C423 2.882 . S
U406 O424 2.441 . S
U406 O425 2.420 . S
U406 O426 2.455 . S
U406 O427 2.449 . S
O407 U406 2.454 . S
O407 C409 1.353 . S
O408 U406 2.458 . S
O408 C409 1.286 . S
C409 U406 2.984 . S
C409 O407 1.353 . S
C409 O408 1.286 . S
C409 C411 1.363 . S
C410 C400 1.465 . S
C410 U406 2.847 . S
C410 O424 1.249 . S
C410 O425 1.202 . S
C411 C409 1.363 . S
C411 C413 1.408 . S
C411 C416 1.342 . S
C412 C413 1.310 . S
C412 C415 1.461 . S
C412 H432 0.932 . S
C413 C411 1.408 . S
C413 C412 1.310 . S
C413 H433 0.930 . S
C414 C415 1.474 . S
C414 C416 1.285 . S
C414 H434 0.929 . S
C415 C412 1.461 . S
C415 C414 1.474 . S
C416 C411 1.342 . S
C416 C414 1.285 . S
C416 H435 0.930 . S
C417 C420 1.424 . S
C417 C422 1.245 . S
C417 C423 1.428 . S
C418 C421 1.260 . S
C418 C422 1.477 . S
C418 H436 0.932 . S
C419 C420 1.384 . S
C419 C421 1.479 . S
C419 H437 0.929 . S
C420 C417 1.424 . S
C420 C419 1.384 . S
C420 H438 0.928 . S
C421 C418 1.260 . S
C421 C419 1.479 . S
C422 C417 1.245 . S
C422 C418 1.477 . S
C422 H439 0.932 . S
C423 U406 2.882 . S
C423 C417 1.428 . S
C423 O426 1.301 . S
C423 O427 1.282 . S
O424 U406 2.441 . S
O424 C410 1.249 . S
O425 U406 2.420 . S
O425 C410 1.202 . S
O426 U406 2.455 . S
O426 C423 1.301 . S
O427 U406 2.449 . S
O427 C423 1.282 . S
H428 C401 0.931 . S
H429 C403 0.929 . S
H430 C404 0.930 . S
H431 C405 0.931 . S
H432 C412 0.932 . S
H433 C413 0.930 . S
H434 C414 0.929 . S
H435 C416 0.930 . S
H436 C418 0.932 . S
H437 C419 0.929 . S
H438 C420 0.928 . S
H439 C422 0.932 . S
C440 C441 1.264 . S
C440 C445 1.479 . S
C440 C450 1.465 . S
C441 C440 1.264 . S
C441 C443 1.339 . S
C441 H468 0.931 . S
C442 C443 1.395 . S
C442 C444 1.320 . S
C443 C441 1.339 . S
C443 C442 1.395 . S
C443 H469 0.929 . S
C444 C442 1.320 . S
C444 C445 1.405 . S
C444 H470 0.930 . S
C445 C440 1.479 . S
C445 C444 1.405 . S
C445 H471 0.931 . S
U446 O447 2.454 . S
U446 O448 2.458 . S
U446 C449 2.984 . S
U446 C450 2.847 . S
U446 C463 2.882 . S
U446 O464 2.441 . S
U446 O465 2.420 . S
U446 O466 2.455 . S
U446 O467 2.449 . S
O447 U446 2.454 . S
O447 C449 1.353 . S
O448 U446 2.458 . S
O448 C449 1.286 . S
C449 U446 2.984 . S
C449 O447 1.353 . S
C449 O448 1.286 . S
C449 C451 1.363 . S
C450 C440 1.465 . S
C450 U446 2.847 . S
C450 O464 1.249 . S
C450 O465 1.202 . S
C451 C449 1.363 . S
C451 C453 1.408 . S
C451 C456 1.342 . S
C452 C453 1.310 . S
C452 C455 1.461 . S
C452 H472 0.932 . S
C453 C451 1.408 . S
C453 C452 1.310 . S
C453 H473 0.930 . S
C454 C455 1.474 . S
C454 C456 1.285 . S
C454 H474 0.929 . S
C455 C452 1.461 . S
C455 C454 1.474 . S
C456 C451 1.342 . S
C456 C454 1.285 . S
C456 H475 0.930 . S
C457 C460 1.424 . S
C457 C462 1.245 . S
C457 C463 1.428 . S
C458 C461 1.260 . S
C458 C462 1.477 . S
C458 H476 0.932 . S
C459 C460 1.384 . S
C459 C461 1.479 . S
C459 H477 0.929 . S
C460 C457 1.424 . S
C460 C459 1.384 . S
C460 H478 0.928 . S
C461 C458 1.260 . S
C461 C459 1.479 . S
C462 C457 1.245 . S
C462 C458 1.477 . S
C462 H479 0.932 . S
C463 U446 2.882 . S
C463 C457 1.428 . S
C463 O466 1.301 . S
C463 O467 1.282 . S
O464 U446 2.441 . S
O464 C450 1.249 . S
O465 U446 2.420 . S
O465 C450 1.202 . S
O466 U446 2.455 . S
O466 C463 1.301 . S
O467 U446 2.449 . S
O467 C463 1.282 . S
H468 C441 0.931 . S
H469 C443 0.929 . S
H470 C444 0.930 . S
H471 C445 0.931 . S
H472 C452 0.932 . S
H473 C453 0.930 . S
H474 C454 0.929 . S
H475 C456 0.930 . S
H476 C458 0.932 . S
H477 C459 0.929 . S
H478 C460 0.928 . S
H479 C462 0.932 . S
C480 C481 1.264 . S
C480 C485 1.479 . S
C480 C490 1.465 . S
C481 C480 1.264 . S
C481 C483 1.339 . S
C481 H508 0.931 . S
C482 C483 1.395 . S
C482 C484 1.320 . S
C483 C481 1.339 . S
C483 C482 1.395 . S
C483 H509 0.929 . S
C484 C482 1.320 . S
C484 C485 1.405 . S
C484 H510 0.930 . S
C485 C480 1.479 . S
C485 C484 1.405 . S
C485 H511 0.931 . S
U486 O487 2.454 . S
U486 O488 2.458 . S
U486 C489 2.984 . S
U486 C490 2.847 . S
U486 C503 2.882 . S
U486 O504 2.441 . S
U486 O505 2.420 . S
U486 O506 2.455 . S
U486 O507 2.449 . S
O487 U486 2.454 . S
O487 C489 1.353 . S
O488 U486 2.458 . S
O488 C489 1.286 . S
C489 U486 2.984 . S
C489 O487 1.353 . S
C489 O488 1.286 . S
C489 C491 1.363 . S
C490 C480 1.465 . S
C490 U486 2.847 . S
C490 O504 1.249 . S
C490 O505 1.202 . S
C491 C489 1.363 . S
C491 C493 1.408 . S
C491 C496 1.342 . S
C492 C493 1.310 . S
C492 C495 1.461 . S
C492 H512 0.932 . S
C493 C491 1.408 . S
C493 C492 1.310 . S
C493 H513 0.930 . S
C494 C495 1.474 . S
C494 C496 1.285 . S
C494 H514 0.929 . S
C495 C492 1.461 . S
C495 C494 1.474 . S
C496 C491 1.342 . S
C496 C494 1.285 . S
C496 H515 0.930 . S
C497 C500 1.424 . S
C497 C502 1.245 . S
C497 C503 1.428 . S
C498 C501 1.260 . S
C498 C502 1.477 . S
C498 H516 0.932 . S
C499 C500 1.384 . S
C499 C501 1.479 . S
C499 H517 0.929 . S
C500 C497 1.424 . S
C500 C499 1.384 . S
C500 H518 0.928 . S
C501 C498 1.260 . S
C501 C499 1.479 . S
C502 C497 1.245 . S
C502 C498 1.477 . S
C502 H519 0.932 . S
C503 U486 2.882 . S
C503 C497 1.428 . S
C503 O506 1.301 . S
C503 O507 1.282 . S
O504 U486 2.441 . S
O504 C490 1.249 . S
O505 U486 2.420 . S
O505 C490 1.202 . S
O506 U486 2.455 . S
O506 C503 1.301 . S
O507 U486 2.449 . S
O507 C503 1.282 . S
H508 C481 0.931 . S
H509 C483 0.929 . S
H510 C484 0.930 . S
H511 C485 0.931 . S
H512 C492 0.932 . S
H513 C493 0.930 . S
H514 C494 0.929 . S
H515 C496 0.930 . S
H516 C498 0.932 . S
H517 C499 0.929 . S
H518 C500 0.928 . S
H519 C502 0.932 . S
C520 C521 1.264 . S
C520 C525 1.479 . S
C520 C530 1.465 . S
C521 C520 1.264 . S
C521 C523 1.339 . S
C521 H548 0.931 . S
C522 C523 1.395 . S
C522 C524 1.320 . S
C523 C521 1.339 . S
C523 C522 1.395 . S
C523 H549 0.929 . S
C524 C522 1.320 . S
C524 C525 1.405 . S
C524 H550 0.930 . S
C525 C520 1.479 . S
C525 C524 1.405 . S
C525 H551 0.931 . S
U526 O527 2.454 . S
U526 O528 2.458 . S
U526 C529 2.984 . S
U526 C530 2.847 . S
U526 C543 2.882 . S
U526 O544 2.441 . S
U526 O545 2.420 . S
U526 O546 2.455 . S
U526 O547 2.449 . S
O527 U526 2.454 . S
O527 C529 1.353 . S
O528 U526 2.458 . S
O528 C529 1.286 . S
C529 U526 2.984 . S
C529 O527 1.353 . S
C529 O528 1.286 . S
C529 C531 1.363 . S
C530 C520 1.465 . S
C530 U526 2.847 . S
C530 O544 1.249 . S
C530 O545 1.202 . S
C531 C529 1.363 . S
C531 C533 1.408 . S
C531 C536 1.342 . S
C532 C533 1.310 . S
C532 C535 1.461 . S
C532 H552 0.932 . S
C533 C531 1.408 . S
C533 C532 1.310 . S
C533 H553 0.930 . S
C534 C535 1.474 . S
C534 C536 1.285 . S
C534 H554 0.929 . S
C535 C532 1.461 . S
C535 C534 1.474 . S
C536 C531 1.342 . S
C536 C534 1.285 . S
C536 H555 0.930 . S
C537 C540 1.424 . S
C537 C542 1.245 . S
C537 C543 1.428 . S
C538 C541 1.260 . S
C538 C542 1.477 . S
C538 H556 0.932 . S
C539 C540 1.384 . S
C539 C541 1.479 . S
C539 H557 0.929 . S
C540 C537 1.424 . S
C540 C539 1.384 . S
C540 H558 0.928 . S
C541 C538 1.260 . S
C541 C539 1.479 . S
C542 C537 1.245 . S
C542 C538 1.477 . S
C542 H559 0.932 . S
C543 U526 2.882 . S
C543 C537 1.428 . S
C543 O546 1.301 . S
C543 O547 1.282 . S
O544 U526 2.441 . S
O544 C530 1.249 . S
O545 U526 2.420 . S
O545 C530 1.202 . S
O546 U526 2.455 . S
O546 C543 1.301 . S
O547 U526 2.449 . S
O547 C543 1.282 . S
H548 C521 0.931 . S
H549 C523 0.929 . S
H550 C524 0.930 . S
H551 C525 0.931 . S
H552 C532 0.932 . S
H553 C533 0.930 . S
H554 C534 0.929 . S
H555 C536 0.930 . S
H556 C538 0.932 . S
H557 C539 0.929 . S
H558 C540 0.928 . S
H559 C542 0.932 . S
C560 C561 1.264 . S
C560 C565 1.479 . S
C560 C570 1.465 . S
C561 C560 1.264 . S
C561 C563 1.339 . S
C561 H588 0.931 . S
C562 C563 1.395 . S
C562 C564 1.320 . S
C563 C561 1.339 . S
C563 C562 1.395 . S
C563 H589 0.929 . S
C564 C562 1.320 . S
C564 C565 1.405 . S
C564 H590 0.930 . S
C565 C560 1.479 . S
C565 C564 1.405 . S
C565 H591 0.931 . S
U566 O567 2.454 . S
U566 O568 2.458 . S
U566 C569 2.984 . S
U566 C570 2.847 . S
U566 C583 2.882 . S
U566 O584 2.441 . S
U566 O585 2.420 . S
U566 O586 2.455 . S
U566 O587 2.449 . S
O567 U566 2.454 . S
O567 C569 1.353 . S
O568 U566 2.458 . S
O568 C569 1.286 . S
C569 U566 2.984 . S
C569 O567 1.353 . S
C569 O568 1.286 . S
C569 C571 1.363 . S
C570 C560 1.465 . S
C570 U566 2.847 . S
C570 O584 1.249 . S
C570 O585 1.202 . S
C571 C569 1.363 . S
C571 C573 1.408 . S
C571 C576 1.342 . S
C572 C573 1.310 . S
C572 C575 1.461 . S
C572 H592 0.932 . S
C573 C571 1.408 . S
C573 C572 1.310 . S
C573 H593 0.930 . S
C574 C575 1.474 . S
C574 C576 1.285 . S
C574 H594 0.929 . S
C575 C572 1.461 . S
C575 C574 1.474 . S
C576 C571 1.342 . S
C576 C574 1.285 . S
C576 H595 0.930 . S
C577 C580 1.424 . S
C577 C582 1.245 . S
C577 C583 1.428 . S
C578 C581 1.260 . S
C578 C582 1.477 . S
C578 H596 0.932 . S
C579 C580 1.384 . S
C579 C581 1.479 . S
C579 H597 0.929 . S
C580 C577 1.424 . S
C580 C579 1.384 . S
C580 H598 0.928 . S
C581 C578 1.260 . S
C581 C579 1.479 . S
C582 C577 1.245 . S
C582 C578 1.477 . S
C582 H599 0.932 . S
C583 U566 2.882 . S
C583 C577 1.428 . S
C583 O586 1.301 . S
C583 O587 1.282 . S
O584 U566 2.441 . S
O584 C570 1.249 . S
O585 U566 2.420 . S
O585 C570 1.202 . S
O586 U566 2.455 . S
O586 C583 1.301 . S
O587 U566 2.449 . S
O587 C583 1.282 . S
H588 C561 0.931 . S
H589 C563 0.929 . S
H590 C564 0.930 . S
H591 C565 0.931 . S
H592 C572 0.932 . S
H593 C573 0.930 . S
H594 C574 0.929 . S
H595 C576 0.930 . S
H596 C578 0.932 . S
H597 C579 0.929 . S
H598 C580 0.928 . S
H599 C582 0.932 . S
C600 C601 1.264 . S
C600 C605 1.479 . S
C600 C610 1.465 . S
C601 C600 1.264 . S
C601 C603 1.339 . S
C601 H628 0.931 . S
C602 C603 1.395 . S
C602 C604 1.320 . S
C603 C601 1.339 . S
C603 C602 1.395 . S
C603 H629 0.929 . S
C604 C602 1.320 . S
C604 C605 1.405 . S
C604 H630 0.930 . S
C605 C600 1.479 . S
C605 C604 1.405 . S
C605 H631 0.931 . S
U606 O607 2.454 . S
U606 O608 2.458 . S
U606 C609 2.984 . S
U606 C610 2.847 . S
U606 C623 2.882 . S
U606 O624 2.441 . S
U606 O625 2.420 . S
U606 O626 2.455 . S
U606 O627 2.449 . S
O607 U606 2.454 . S
O607 C609 1.353 . S
O608 U606 2.458 . S
O608 C609 1.286 . S
C609 U606 2.984 . S
C609 O607 1.353 . S
C609 O608 1.286 . S
C609 C611 1.363 . S
C610 C600 1.465 . S
C610 U606 2.847 . S
C610 O624 1.249 . S
C610 O625 1.202 . S
C611 C609 1.363 . S
C611 C613 1.408 . S
C611 C616 1.342 . S
C612 C613 1.310 . S
C612 C615 1.461 . S
C612 H632 0.932 . S
C613 C611 1.408 . S
C613 C612 1.310 . S
C613 H633 0.930 . S
C614 C615 1.474 . S
C614 C616 1.285 . S
C614 H634 0.929 . S
C615 C612 1.461 . S
C615 C614 1.474 . S
C616 C611 1.342 . S
C616 C614 1.285 . S
C616 H635 0.930 . S
C617 C620 1.424 . S
C617 C622 1.245 . S
C617 C623 1.428 . S
C618 C621 1.260 . S
C618 C622 1.477 . S
C618 H636 0.932 . S
C619 C620 1.384 . S
C619 C621 1.479 . S
C619 H637 0.929 . S
C620 C617 1.424 . S
C620 C619 1.384 . S
C620 H638 0.928 . S
C621 C618 1.260 . S
C621 C619 1.479 . S
C622 C617 1.245 . S
C622 C618 1.477 . S
C622 H639 0.932 . S
C623 U606 2.882 . S
C623 C617 1.428 . S
C623 O626 1.301 . S
C623 O627 1.282 . S
O624 U606 2.441 . S
O624 C610 1.249 . S
O625 U606 2.420 . S
O625 C610 1.202 . S
O626 U606 2.455 . S
O626 C623 1.301 . S
O627 U606 2.449 . S
O627 C623 1.282 . S
H628 C601 0.931 . S
H629 C603 0.929 . S
H630 C604 0.930 . S
H631 C605 0.931 . S
H632 C612 0.932 . S
H633 C613 0.930 . S
H634 C614 0.929 . S
H635 C616 0.930 . S
H636 C618 0.932 . S
H637 C619 0.929 . S
H638 C620 0.928 . S
H639 C622 0.932 . S
C640 C641 1.264 . S
C640 C645 1.479 . S
C640 C650 1.465 . S
C641 C640 1.264 . S
C641 C643 1.339 . S
C641 H668 0.931 . S
C642 C643 1.395 . S
C642 C644 1.320 . S
C643 C641 1.339 . S
C643 C642 1.395 . S
C643 H669 0.929 . S
C644 C642 1.320 . S
C644 C645 1.405 . S
C644 H670 0.930 . S
C645 C640 1.479 . S
C645 C644 1.405 . S
C645 H671 0.931 . S
U646 O647 2.454 . S
U646 O648 2.458 . S
U646 C649 2.984 . S
U646 C650 2.847 . S
U646 C663 2.882 . S
U646 O664 2.441 . S
U646 O665 2.420 . S
U646 O666 2.455 . S
U646 O667 2.449 . S
O647 U646 2.454 . S
O647 C649 1.353 . S
O648 U646 2.458 . S
O648 C649 1.286 . S
C649 U646 2.984 . S
C649 O647 1.353 . S
C649 O648 1.286 . S
C649 C651 1.363 . S
C650 C640 1.465 . S
C650 U646 2.847 . S
C650 O664 1.249 . S
C650 O665 1.202 . S
C651 C649 1.363 . S
C651 C653 1.408 . S
C651 C656 1.342 . S
C652 C653 1.310 . S
C652 C655 1.461 . S
C652 H672 0.932 . S
C653 C651 1.408 . S
C653 C652 1.310 . S
C653 H673 0.930 . S
C654 C655 1.474 . S
C654 C656 1.285 . S
C654 H674 0.929 . S
C655 C652 1.461 . S
C655 C654 1.474 . S
C656 C651 1.342 . S
C656 C654 1.285 . S
C656 H675 0.930 . S
C657 C660 1.424 . S
C657 C662 1.245 . S
C657 C663 1.428 . S
C658 C661 1.260 . S
C658 C662 1.477 . S
C658 H676 0.932 . S
C659 C660 1.384 . S
C659 C661 1.479 . S
C659 H677 0.929 . S
C660 C657 1.424 . S
C660 C659 1.384 . S
C660 H678 0.928 . S
C661 C658 1.260 . S
C661 C659 1.479 . S
C662 C657 1.245 . S
C662 C658 1.477 . S
C662 H679 0.932 . S
C663 U646 2.882 . S
C663 C657 1.428 . S
C663 O666 1.301 . S
C663 O667 1.282 . S
O664 U646 2.441 . S
O664 C650 1.249 . S
O665 U646 2.420 . S
O665 C650 1.202 . S
O666 U646 2.455 . S
O666 C663 1.301 . S
O667 U646 2.449 . S
O667 C663 1.282 . S
H668 C641 0.931 . S
H669 C643 0.929 . S
H670 C644 0.930 . S
H671 C645 0.931 . S
H672 C652 0.932 . S
H673 C653 0.930 . S
H674 C654 0.929 . S
H675 C656 0.930 . S
H676 C658 0.932 . S
H677 C659 0.929 . S
H678 C660 0.928 . S
H679 C662 0.932 . S
C680 C681 1.264 . S
C680 C685 1.479 . S
C680 C690 1.465 . S
C681 C680 1.264 . S
C681 C683 1.339 . S
C681 H708 0.931 . S
C682 C683 1.395 . S
C682 C684 1.320 . S
C683 C681 1.339 . S
C683 C682 1.395 . S
C683 H709 0.929 . S
C684 C682 1.320 . S
C684 C685 1.405 . S
C684 H710 0.930 . S
C685 C680 1.479 . S
C685 C684 1.405 . S
C685 H711 0.931 . S
U686 O687 2.454 . S
U686 O688 2.458 . S
U686 C689 2.984 . S
U686 C690 2.847 . S
U686 C703 2.882 . S
U686 O704 2.441 . S
U686 O705 2.420 . S
U686 O706 2.455 . S
U686 O707 2.449 . S
O687 U686 2.454 . S
O687 C689 1.353 . S
O688 U686 2.458 . S
O688 C689 1.286 . S
C689 U686 2.984 . S
C689 O687 1.353 . S
C689 O688 1.286 . S
C689 C691 1.363 . S
C690 C680 1.465 . S
C690 U686 2.847 . S
C690 O704 1.249 . S
C690 O705 1.202 . S
C691 C689 1.363 . S
C691 C693 1.408 . S
C691 C696 1.342 . S
C692 C693 1.310 . S
C692 C695 1.461 . S
C692 H712 0.932 . S
C693 C691 1.408 . S
C693 C692 1.310 . S
C693 H713 0.930 . S
C694 C695 1.474 . S
C694 C696 1.285 . S
C694 H714 0.929 . S
C695 C692 1.461 . S
C695 C694 1.474 . S
C696 C691 1.342 . S
C696 C694 1.285 . S
C696 H715 0.930 . S
C697 C700 1.424 . S
C697 C702 1.245 . S
C697 C703 1.428 . S
C698 C701 1.260 . S
C698 C702 1.477 . S
C698 H716 0.932 . S
C699 C700 1.384 . S
C699 C701 1.479 . S
C699 H717 0.929 . S
C700 C697 1.424 . S
C700 C699 1.384 . S
C700 H718 0.928 . S
C701 C698 1.260 . S
C701 C699 1.479 . S
C702 C697 1.245 . S
C702 C698 1.477 . S
C702 H719 0.932 . S
C703 U686 2.882 . S
C703 C697 1.428 . S
C703 O706 1.301 . S
C703 O707 1.282 . S
O704 U686 2.441 . S
O704 C690 1.249 . S
O705 U686 2.420 . S
O705 C690 1.202 . S
O706 U686 2.455 . S
O706 C703 1.301 . S
O707 U686 2.449 . S
O707 C703 1.282 . S
H708 C681 0.931 . S
H709 C683 0.929 . S
H710 C684 0.930 . S
H711 C685 0.931 . S
H712 C692 0.932 . S
H713 C693 0.930 . S
H714 C694 0.929 . S
H715 C696 0.930 . S
H716 C698 0.932 . S
H717 C699 0.929 . S
H718 C700 0.928 . S
H719 C702 0.932 . S
Tb720 O723 2.453 . S
Tb720 O724 2.596 1_545 S
Tb720 O725 2.374 1_545 S
Tb720 O733 2.343 1_554 S
Tb720 O735 2.353 . S
Tb720 O737 2.427 1_554 S
Tb720 O738 2.513 1_554 S
C721 O725 1.251 . S
C721 O727 1.297 . S
Tb722 O724 2.343 1_556 S
Tb722 O727 2.342 1_556 S
Tb722 O730 2.427 1_556 S
Tb722 O731 2.513 1_556 S
Tb722 O732 2.453 . S
Tb722 O733 2.596 1_565 S
Tb722 O734 2.374 1_565 S
O723 Tb720 2.453 . S
O723 C739 1.245 . S
O724 Tb720 2.596 1_565 S
O724 Tb722 2.343 1_554 S
O724 C739 1.259 1_565 S
O725 Tb720 2.374 1_565 S
O725 C721 1.251 . S
C726 O730 1.275 . S
C726 O731 1.246 . S
O727 C721 1.297 . S
O727 Tb722 2.342 1_554 S
C728 O732 1.229 1_545 S
C728 O733 1.263 . S
C729 O734 1.250 . S
C729 O735 1.263 1_556 S
O730 Tb722 2.427 1_554 S
O730 C726 1.275 . S
O731 Tb722 2.513 1_554 S
O731 C726 1.246 . S
O732 Tb722 2.453 . S
O732 C728 1.229 1_565 S
O733 Tb720 2.343 1_556 S
O733 Tb722 2.596 1_545 S
O733 C728 1.263 . S
O734 Tb722 2.374 1_545 S
O734 C729 1.250 . S
O735 Tb720 2.353 . S
O735 C729 1.263 1_554 S
C736 O737 1.275 . S
C736 O738 1.246 . S
O737 Tb720 2.427 1_556 S
O737 C736 1.275 . S
O738 Tb720 2.513 1_556 S
O738 C736 1.246 . S
C739 O723 1.245 . S
C739 O724 1.259 1_545 S
Tb740 O743 2.453 . S
Tb740 O744 2.596 1_655 S
Tb740 O745 2.374 1_655 S
Tb740 O753 2.343 1_554 S
Tb740 O755 2.353 . S
Tb740 O757 2.427 1_554 S
Tb740 O758 2.513 1_554 S
C741 O745 1.251 . S
C741 O747 1.263 . S
Tb742 O744 2.343 1_556 S
Tb742 O747 2.353 1_556 S
Tb742 O750 2.427 1_556 S
Tb742 O751 2.513 1_556 S
Tb742 O752 2.453 . S
Tb742 O753 2.596 1_455 S
Tb742 O754 2.374 1_455 S
O743 Tb740 2.453 . S
O743 C759 1.245 1_655 S
O744 Tb740 2.596 1_455 S
O744 Tb742 2.343 1_554 S
O744 C759 1.259 . S
O745 Tb740 2.374 1_455 S
O745 C741 1.251 . S
C746 O750 1.275 . S
C746 O751 1.246 . S
O747 C741 1.263 . S
O747 Tb742 2.353 1_554 S
C748 O752 1.255 . S
C748 O753 1.256 1_455 S
C749 O754 1.250 . S
C749 O755 1.263 1_556 S
O750 Tb742 2.427 1_554 S
O750 C746 1.275 . S
O751 Tb742 2.513 1_554 S
O751 C746 1.246 . S
O752 Tb742 2.453 . S
O752 C748 1.255 . S
O753 Tb740 2.343 1_556 S
O753 Tb742 2.596 1_655 S
O753 C748 1.256 1_655 S
O754 Tb742 2.374 1_655 S
O754 C749 1.250 . S
O755 Tb740 2.353 . S
O755 C749 1.263 1_554 S
C756 O757 1.275 . S
C756 O758 1.246 . S
O757 Tb740 2.427 1_556 S
O757 C756 1.275 . S
O758 Tb740 2.513 1_556 S
O758 C756 1.246 . S
C759 O743 1.245 1_455 S
C759 O744 1.259 . S
Tb760 O763 2.453 . S
Tb760 O764 2.596 . S
Tb760 O765 2.374 . S
Tb760 O773 2.343 1_556 S
Tb760 O775 2.353 1_556 S
Tb760 O777 2.427 1_556 S
Tb760 O778 2.513 1_556 S
C761 O765 1.251 . S
C761 O767 1.263 1_556 S
Tb762 O764 2.343 1_554 S
Tb762 O767 2.353 . S
Tb762 O770 2.427 1_554 S
Tb762 O771 2.513 1_554 S
Tb762 O772 2.453 . S
Tb762 O773 2.596 . S
Tb762 O774 2.374 . S
O763 Tb760 2.453 . S
O763 C779 1.245 . S
O764 Tb760 2.596 . S
O764 Tb762 2.343 1_556 S
O764 C779 1.259 . S
O765 Tb760 2.374 . S
O765 C761 1.251 . S
C766 O770 1.275 . S
C766 O771 1.246 . S
O767 C761 1.263 1_554 S
O767 Tb762 2.353 . S
C768 O772 1.245 . S
C768 O773 1.259 . S
C769 O774 1.250 . S
C769 O775 1.263 . S
O770 Tb762 2.427 1_556 S
O770 C766 1.275 . S
O771 Tb762 2.513 1_556 S
O771 C766 1.246 . S
O772 Tb762 2.453 . S
O772 C768 1.245 . S
O773 Tb760 2.343 1_554 S
O773 Tb762 2.596 . S
O773 C768 1.259 . S
O774 Tb762 2.374 . S
O774 C769 1.250 . S
O775 Tb760 2.353 1_554 S
O775 C769 1.263 . S
C776 O777 1.275 . S
C776 O778 1.246 . S
O777 Tb760 2.427 1_554 S
O777 C776 1.275 . S
O778 Tb760 2.513 1_554 S
O778 C776 1.246 . S
C779 O763 1.245 . S
C779 O764 1.259 . S
Tb780 O783 2.453 . S
Tb780 O784 2.596 . S
Tb780 O785 2.374 . S
Tb780 O793 2.343 . S
Tb780 O795 2.353 . S
Tb780 O797 2.427 . S
Tb780 O798 2.513 . S
C781 O785 1.251 . S
C781 O787 1.263 . S
Tb782 O784 2.343 . S
Tb782 O787 2.353 . S
Tb782 O790 2.427 . S
Tb782 O791 2.513 . S
Tb782 O792 2.453 . S
Tb782 O793 2.596 . S
Tb782 O794 2.374 . S
O783 Tb780 2.453 . S
O783 C799 1.245 . S
O784 Tb780 2.596 . S
O784 Tb782 2.343 . S
O784 C799 1.259 . S
O785 Tb780 2.374 . S
O785 C781 1.251 . S
C786 O790 1.275 . S
C786 O791 1.246 . S
O787 C781 1.263 . S
O787 Tb782 2.353 . S
C788 O792 1.245 . S
C788 O793 1.259 . S
C789 O794 1.250 . S
C789 O795 1.263 . S
O790 Tb782 2.427 . S
O790 C786 1.275 . S
O791 Tb782 2.513 . S
O791 C786 1.246 . S
O792 Tb782 2.453 . S
O792 C788 1.245 . S
O793 Tb780 2.343 . S
O793 Tb782 2.596 . S
O793 C788 1.259 . S
O794 Tb782 2.374 . S
O794 C789 1.250 . S
O795 Tb780 2.353 . S
O795 C789 1.263 . S
C796 O797 1.275 . S
C796 O798 1.246 . S
O797 Tb780 2.427 . S
O797 C796 1.275 . S
O798 Tb780 2.513 . S
O798 C796 1.246 . S
C799 O783 1.245 . S
C799 O784 1.259 . S
Tb800 O803 2.453 . S
Tb800 O804 2.596 . S
Tb800 O805 2.374 . S
Tb800 O813 2.343 . S
Tb800 O815 2.353 . S
Tb800 O817 2.427 . S
Tb800 O818 2.513 . S
C801 O805 1.251 . S
C801 O807 1.263 . S
Tb802 O804 2.343 . S
Tb802 O807 2.353 . S
Tb802 O810 2.427 . S
Tb802 O811 2.513 . S
Tb802 O812 2.453 . S
Tb802 O813 2.596 . S
Tb802 O814 2.374 . S
O803 Tb800 2.453 . S
O803 C819 1.245 . S
O804 Tb800 2.596 . S
O804 Tb802 2.343 . S
O804 C819 1.259 . S
O805 Tb800 2.374 . S
O805 C801 1.251 . S
C806 O810 1.275 . S
C806 O811 1.246 . S
O807 C801 1.263 . S
O807 Tb802 2.353 . S
C808 O812 1.245 . S
C808 O813 1.259 . S
C809 O814 1.250 . S
C809 O815 1.263 . S
O810 Tb802 2.427 . S
O810 C806 1.275 . S
O811 Tb802 2.513 . S
O811 C806 1.246 . S
O812 Tb802 2.453 . S
O812 C808 1.245 . S
O813 Tb800 2.343 . S
O813 Tb802 2.596 . S
O813 C808 1.259 . S
O814 Tb802 2.374 . S
O814 C809 1.250 . S
O815 Tb800 2.353 . S
O815 C809 1.263 . S
C816 O817 1.275 . S
C816 O818 1.246 . S
O817 Tb800 2.427 . S
O817 C816 1.275 . S
O818 Tb800 2.513 . S
O818 C816 1.246 . S
C819 O803 1.245 . S
C819 O804 1.259 . S
Tb820 O823 2.453 . S
Tb820 O824 2.596 . S
Tb820 O825 2.374 . S
Tb820 O833 2.343 . S
Tb820 O835 2.353 . S
Tb820 O837 2.427 . S
Tb820 O838 2.513 . S
C821 O825 1.251 . S
C821 O827 1.263 . S
Tb822 O824 2.343 . S
Tb822 O827 2.353 . S
Tb822 O830 2.427 . S
Tb822 O831 2.513 . S
Tb822 O832 2.453 . S
Tb822 O833 2.596 . S
Tb822 O834 2.374 . S
O823 Tb820 2.453 . S
O823 C839 1.245 . S
O824 Tb820 2.596 . S
O824 Tb822 2.343 . S
O824 C839 1.259 . S
O825 Tb820 2.374 . S
O825 C821 1.251 . S
C826 O830 1.275 . S
C826 O831 1.246 . S
O827 C821 1.263 . S
O827 Tb822 2.353 . S
C828 O832 1.245 . S
C828 O833 1.259 . S
C829 O834 1.250 . S
C829 O835 1.263 . S
O830 Tb822 2.427 . S
O830 C826 1.275 . S
O831 Tb822 2.513 . S
O831 C826 1.246 . S
O832 Tb822 2.453 . S
O832 C828 1.245 . S
O833 Tb820 2.343 . S
O833 Tb822 2.596 . S
O833 C828 1.259 . S
O834 Tb822 2.374 . S
O834 C829 1.250 . S
O835 Tb820 2.353 . S
O835 C829 1.263 . S
C836 O837 1.275 . S
C836 O838 1.246 . S
O837 Tb820 2.427 . S
O837 C836 1.275 . S
O838 Tb820 2.513 . S
O838 C836 1.246 . S
C839 O823 1.245 . S
C839 O824 1.259 . S
Tb840 O843 2.453 . S
Tb840 O844 2.596 . S
Tb840 O845 2.374 . S
Tb840 O853 2.343 . S
Tb840 O855 2.353 . S
Tb840 O857 2.427 . S
Tb840 O858 2.513 . S
C841 O845 1.251 . S
C841 O847 1.263 . S
Tb842 O844 2.343 . S
Tb842 O847 2.353 . S
Tb842 O850 2.427 . S
Tb842 O851 2.513 . S
Tb842 O852 2.453 . S
Tb842 O853 2.596 . S
Tb842 O854 2.374 . S
O843 Tb840 2.453 . S
O843 C859 1.245 . S
O844 Tb840 2.596 . S
O844 Tb842 2.343 . S
O844 C859 1.259 . S
O845 Tb840 2.374 . S
O845 C841 1.251 . S
C846 O850 1.275 . S
C846 O851 1.246 . S
O847 C841 1.263 . S
O847 Tb842 2.353 . S
C848 O852 1.245 . S
C848 O853 1.259 . S
C849 O854 1.250 . S
C849 O855 1.263 . S
O850 Tb842 2.427 . S
O850 C846 1.275 . S
O851 Tb842 2.513 . S
O851 C846 1.246 . S
O852 Tb842 2.453 . S
O852 C848 1.245 . S
O853 Tb840 2.343 . S
O853 Tb842 2.596 . S
O853 C848 1.259 . S
O854 Tb842 2.374 . S
O854 C849 1.250 . S
O855 Tb840 2.353 . S
O855 C849 1.263 . S
C856 O857 1.275 . S
C856 O858 1.246 . S
O857 Tb840 2.427 . S
O857 C856 1.275 . S
O858 Tb840 2.513 . S
O858 C856 1.246 . S
C859 O843 1.245 . S
C859 O844 1.259 . S
Tb860 O863 2.453 . S
Tb860 O864 2.596 . S
Tb860 O865 2.374 . S
Tb860 O873 2.343 . S
Tb860 O875 2.353 . S
Tb860 O877 2.427 . S
Tb860 O878 2.513 . S
C861 O865 1.251 . S
C861 O867 1.263 . S
Tb862 O864 2.343 . S
Tb862 O867 2.353 . S
Tb862 O870 2.427 . S
Tb862 O871 2.513 . S
Tb862 O872 2.453 . S
Tb862 O873 2.596 . S
Tb862 O874 2.374 . S
O863 Tb860 2.453 . S
O863 C879 1.245 . S
O864 Tb860 2.596 . S
O864 Tb862 2.343 . S
O864 C879 1.259 . S
O865 Tb860 2.374 . S
O865 C861 1.251 . S
C866 O870 1.275 . S
C866 O871 1.246 . S
O867 C861 1.263 . S
O867 Tb862 2.353 . S
C868 O872 1.245 . S
C868 O873 1.259 . S
C869 O874 1.250 . S
C869 O875 1.263 . S
O870 Tb862 2.427 . S
O870 C866 1.275 . S
O871 Tb862 2.513 . S
O871 C866 1.246 . S
O872 Tb862 2.453 . S
O872 C868 1.245 . S
O873 Tb860 2.343 . S
O873 Tb862 2.596 . S
O873 C868 1.259 . S
O874 Tb862 2.374 . S
O874 C869 1.250 . S
O875 Tb860 2.353 . S
O875 C869 1.263 . S
C876 O877 1.275 . S
C876 O878 1.246 . S
O877 Tb860 2.427 . S
O877 C876 1.275 . S
O878 Tb860 2.513 . S
O878 C876 1.246 . S
C879 O863 1.245 . S
C879 O864 1.259 . S
Tb880 O883 2.453 . S
Tb880 O884 2.596 . S
Tb880 O885 2.374 . S
Tb880 O893 2.343 . S
Tb880 O895 2.353 . S
Tb880 O897 2.427 . S
Tb880 O898 2.513 . S
C881 O885 1.251 . S
C881 O887 1.263 . S
Tb882 O884 2.343 . S
Tb882 O887 2.353 . S
Tb882 O890 2.427 . S
Tb882 O891 2.513 . S
Tb882 O892 2.453 . S
Tb882 O893 2.596 . S
Tb882 O894 2.374 . S
O883 Tb880 2.453 . S
O883 C899 1.245 . S
O884 Tb880 2.596 . S
O884 Tb882 2.343 . S
O884 C899 1.259 . S
O885 Tb880 2.374 . S
O885 C881 1.251 . S
C886 O890 1.275 . S
C886 O891 1.246 . S
O887 C881 1.263 . S
O887 Tb882 2.353 . S
C888 O892 1.245 . S
C888 O893 1.259 . S
C889 O894 1.250 . S
C889 O895 1.263 . S
O890 Tb882 2.427 . S
O890 C886 1.275 . S
O891 Tb882 2.513 . S
O891 C886 1.246 . S
O892 Tb882 2.453 . S
O892 C888 1.245 . S
O893 Tb880 2.343 . S
O893 Tb882 2.596 . S
O893 C888 1.259 . S
O894 Tb882 2.374 . S
O894 C889 1.250 . S
O895 Tb880 2.353 . S
O895 C889 1.263 . S
C896 O897 1.275 . S
C896 O898 1.246 . S
O897 Tb880 2.427 . S
O897 C896 1.275 . S
O898 Tb880 2.513 . S
O898 C896 1.246 . S
C899 O883 1.245 . S
C899 O884 1.259 . S
H900 C908 0.950 . S
H901 C913 0.950 . S
H902 C910 0.950 . S
H903 C912 0.950 . S
H904 C914 0.950 . S
H905 C916 0.950 . S
H906 C918 0.950 . S
H907 C919 0.950 . S
C908 H900 0.950 . S
C908 C909 1.386 . S
C908 C910 1.391 . S
C909 C908 1.386 . S
C909 C913 1.393 . S
C910 H902 0.950 . S
C910 C908 1.391 . S
C910 C911 1.400 . S
C911 C910 1.400 . S
C911 C912 1.398 . S
C911 C917 1.491 . S
C912 H903 0.950 . S
C912 C911 1.398 . S
C912 C913 1.391 . S
C913 H901 0.950 . S
C913 C909 1.393 . S
C913 C912 1.391 . S
C914 H904 0.950 . S
C914 C915 1.386 . S
C914 C916 1.391 . S
C915 C914 1.386 . S
C915 C919 1.393 . S
C916 H905 0.950 . S
C916 C914 1.391 . S
C916 C917 1.400 . S
C917 C911 1.491 . S
C917 C916 1.400 . S
C917 C918 1.398 . S
C918 H906 0.950 . S
C918 C917 1.398 . S
C918 C919 1.391 . S
C919 H907 0.950 . S
C919 C915 1.393 . S
C919 C918 1.391 . S
H920 C928 0.950 . S
H921 C933 0.950 . S
H922 C930 0.950 . S
H923 C932 0.950 . S
H924 C934 0.950 . S
H925 C936 0.950 . S
H926 C938 0.950 . S
H927 C939 0.950 . S
C928 H920 0.950 . S
C928 C929 1.386 . S
C928 C930 1.391 . S
C929 C928 1.386 . S
C929 C933 1.393 . S
C930 H922 0.950 . S
C930 C928 1.391 . S
C930 C931 1.400 . S
C931 C930 1.400 . S
C931 C932 1.398 . S
C931 C937 1.491 . S
C932 H923 0.950 . S
C932 C931 1.398 . S
C932 C933 1.391 . S
C933 H921 0.950 . S
C933 C929 1.393 . S
C933 C932 1.391 . S
C934 H924 0.950 . S
C934 C935 1.386 . S
C934 C936 1.391 . S
C935 C934 1.386 . S
C935 C939 1.393 . S
C936 H925 0.950 . S
C936 C934 1.391 . S
C936 C937 1.400 . S
C937 C931 1.491 . S
C937 C936 1.400 . S
C937 C938 1.398 . S
C938 H926 0.950 . S
C938 C937 1.398 . S
C938 C939 1.391 . S
C939 H927 0.950 . S
C939 C935 1.393 . S
C939 C938 1.391 . S
H940 C948 0.950 . S
H941 C953 0.950 . S
H942 C950 0.950 . S
H943 C952 0.950 . S
H944 C954 0.950 1_556 S
H945 C956 0.976 . S
H946 C958 0.950 . S
H947 C959 0.950 . S
C948 H940 0.950 . S
C948 C949 1.386 . S
C948 C950 1.391 . S
C949 C948 1.386 . S
C949 C953 1.393 . S
C950 H942 0.950 . S
C950 C948 1.391 . S
C950 C951 1.400 . S
C951 C950 1.400 . S
C951 C952 1.398 . S
C951 C957 1.491 . S
C952 H943 0.950 . S
C952 C951 1.398 . S
C952 C953 1.391 . S
C953 H941 0.950 . S
C953 C949 1.393 . S
C953 C952 1.391 . S
C954 H944 0.950 1_554 S
C954 C955 1.386 . S
C954 C956 1.391 . S
C955 C954 1.386 . S
C955 C959 1.393 . S
C956 H945 0.976 . S
C956 C954 1.391 . S
C956 C957 1.400 . S
C957 C951 1.491 . S
C957 C956 1.400 . S
C957 C958 1.398 . S
C958 H946 0.950 . S
C958 C957 1.398 . S
C958 C959 1.391 . S
C959 H947 0.950 . S
C959 C955 1.393 . S
C959 C958 1.391 . S
H960 C968 0.950 . S
H961 C973 0.950 . S
H962 C970 0.950 . S
H963 C972 0.950 . S
H964 C974 0.950 1_554 S
H965 C976 0.950 1_554 S
H966 C978 0.950 . S
H967 C979 0.950 . S
C968 H960 0.950 . S
C968 C969 1.386 . S
C968 C970 1.391 . S
C969 C968 1.386 . S
C969 C973 1.393 . S
C970 H962 0.950 . S
C970 C968 1.391 . S
C970 C971 1.400 . S
C971 C970 1.400 . S
C971 C972 1.398 . S
C971 C977 1.491 . S
C972 H963 0.950 . S
C972 C971 1.398 . S
C972 C973 1.391 . S
C973 H961 0.950 . S
C973 C969 1.393 . S
C973 C972 1.391 . S
C974 H964 0.950 1_556 S
C974 C975 1.386 . S
C974 C976 1.391 . S
C975 C974 1.386 . S
C975 C979 1.393 . S
C976 H965 0.950 1_556 S
C976 C974 1.391 . S
C976 C977 1.400 . S
C977 C971 1.491 . S
C977 C976 1.400 . S
C977 C978 1.398 . S
C978 H966 0.950 . S
C978 C977 1.398 . S
C978 C979 1.391 . S
C979 H967 0.950 . S
C979 C975 1.393 . S
C979 C978 1.391 . S
H980 C988 0.950 . S
H981 C993 0.950 . S
H982 C990 0.950 . S
H983 C992 0.950 . S
H984 C994 0.950 . S
H985 C996 0.950 . S
H986 C998 0.950 . S
H987 C999 0.950 . S
C988 H980 0.950 . S
C988 C989 1.386 . S
C988 C990 1.391 . S
C989 C988 1.386 . S
C989 C993 1.393 . S
C990 H982 0.950 . S
C990 C988 1.391 . S
C990 C991 1.400 . S
C991 C990 1.400 . S
C991 C992 1.398 . S
C991 C997 1.491 . S
C992 H983 0.950 . S
C992 C991 1.398 . S
C992 C993 1.391 . S
C993 H981 0.950 . S
C993 C989 1.393 . S
C993 C992 1.391 . S
C994 H984 0.950 . S
C994 C995 1.386 . S
C994 C996 1.391 . S
C995 C994 1.386 . S
C995 C999 1.393 . S
C996 H985 0.950 . S
C996 C994 1.391 . S
C996 C997 1.400 . S
C997 C991 1.491 . S
C997 C996 1.400 . S
C997 C998 1.398 . S
C998 H986 0.950 . S
C998 C997 1.398 . S
C998 C999 1.391 . S
C999 H987 0.950 . S
C999 C995 1.393 . S
C999 C998 1.391 . S
H1000 C1008 0.950 . S
H1001 C1013 0.950 . S
H1002 C1010 0.950 . S
H1003 C1012 0.950 . S
H1004 C1014 0.950 . S
H1005 C1016 0.950 . S
H1006 C1018 0.950 1_554 S
H1007 C1019 0.990 . S
C1008 H1000 0.950 . S
C1008 C1009 1.386 . S
C1008 C1010 1.391 . S
C1009 C1008 1.386 . S
C1009 C1013 1.393 . S
C1010 H1002 0.950 . S
C1010 C1008 1.391 . S
C1010 C1011 1.400 . S
C1011 C1010 1.400 . S
C1011 C1012 1.398 . S
C1011 C1017 1.491 . S
C1012 H1003 0.950 . S
C1012 C1011 1.398 . S
C1012 C1013 1.391 . S
C1013 H1001 0.950 . S
C1013 C1009 1.393 . S
C1013 C1012 1.391 . S
C1014 H1004 0.950 . S
C1014 C1015 1.386 . S
C1014 C1016 1.391 . S
C1015 C1014 1.386 . S
C1015 C1019 1.367 1_556 S
C1016 H1005 0.950 . S
C1016 C1014 1.391 . S
C1016 C1017 1.400 . S
C1017 C1011 1.491 . S
C1017 C1016 1.400 . S
C1017 C1018 1.398 . S
C1018 H1006 0.950 1_556 S
C1018 C1017 1.398 . S
C1018 C1019 1.378 1_556 S
C1019 H1007 0.990 . S
C1019 C1015 1.367 1_554 S
C1019 C1018 1.378 1_554 S
H1020 C1028 0.950 . S
H1021 C1033 0.950 . S
H1022 C1030 0.950 . S
H1023 C1032 0.950 . S
H1024 C1034 0.950 . S
H1025 C1036 0.950 . S
H1026 C1038 0.950 . S
H1027 C1039 0.950 . S
C1028 H1020 0.950 . S
C1028 C1029 1.386 . S
C1028 C1030 1.391 . S
C1029 C1028 1.386 . S
C1029 C1033 1.393 . S
C1030 H1022 0.950 . S
C1030 C1028 1.391 . S
C1030 C1031 1.400 . S
C1031 C1030 1.400 . S
C1031 C1032 1.398 . S
C1031 C1037 1.491 . S
C1032 H1023 0.950 . S
C1032 C1031 1.398 . S
C1032 C1033 1.391 . S
C1033 H1021 0.950 . S
C1033 C1029 1.393 . S
C1033 C1032 1.391 . S
C1034 H1024 0.950 . S
C1034 C1035 1.386 . S
C1034 C1036 1.391 . S
C1035 C1034 1.386 . S
C1035 C1039 1.393 . S
C1036 H1025 0.950 . S
C1036 C1034 1.391 . S
C1036 C1037 1.400 . S
C1037 C1031 1.491 . S
C1037 C1036 1.400 . S
C1037 C1038 1.398 . S
C1038 H1026 0.950 . S
C1038 C1037 1.398 . S
C1038 C1039 1.391 . S
C1039 H1027 0.950 . S
C1039 C1035 1.393 . S
C1039 C1038 1.391 . S
H1040 C1048 0.950 . S
H1041 C1053 0.950 . S
H1042 C1050 0.950 . S
H1043 C1052 0.950 . S
H1044 C1054 0.950 . S
H1045 C1056 0.950 . S
H1046 C1058 0.950 . S
H1047 C1059 0.950 . S
C1048 H1040 0.950 . S
C1048 C1049 1.386 . S
C1048 C1050 1.391 . S
C1049 C1048 1.386 . S
C1049 C1053 1.393 . S
C1050 H1042 0.950 . S
C1050 C1048 1.391 . S
C1050 C1051 1.400 . S
C1051 C1050 1.400 . S
C1051 C1052 1.398 . S
C1051 C1057 1.491 . S
C1052 H1043 0.950 . S
C1052 C1051 1.398 . S
C1052 C1053 1.391 . S
C1053 H1041 0.950 . S
C1053 C1049 1.393 . S
C1053 C1052 1.391 . S
C1054 H1044 0.950 . S
C1054 C1055 1.386 . S
C1054 C1056 1.391 . S
C1055 C1054 1.386 . S
C1055 C1059 1.393 . S
C1056 H1045 0.950 . S
C1056 C1054 1.391 . S
C1056 C1057 1.400 . S
C1057 C1051 1.491 . S
C1057 C1056 1.400 . S
C1057 C1058 1.398 . S
C1058 H1046 0.950 . S
C1058 C1057 1.398 . S
C1058 C1059 1.391 . S
C1059 H1047 0.950 . S
C1059 C1055 1.393 . S
C1059 C1058 1.391 . S
H1060 C1068 0.950 . S
H1061 C1073 0.950 . S
H1062 C1070 0.950 . S
H1063 C1072 0.950 . S
H1064 C1074 0.950 . S
H1065 C1076 0.950 . S
H1066 C1078 0.950 . S
H1067 C1079 0.950 . S
C1068 H1060 0.950 . S
C1068 C1069 1.386 . S
C1068 C1070 1.391 . S
C1069 C1068 1.386 . S
C1069 C1073 1.393 . S
C1070 H1062 0.950 . S
C1070 C1068 1.391 . S
C1070 C1071 1.400 . S
C1071 C1070 1.400 . S
C1071 C1072 1.398 . S
C1071 C1077 1.491 . S
C1072 H1063 0.950 . S
C1072 C1071 1.398 . S
C1072 C1073 1.391 . S
C1073 H1061 0.950 . S
C1073 C1069 1.393 . S
C1073 C1072 1.391 . S
C1074 H1064 0.950 . S
C1074 C1075 1.386 . S
C1074 C1076 1.391 . S
C1075 C1074 1.386 . S
C1075 C1079 1.393 . S
C1076 H1065 0.950 . S
C1076 C1074 1.391 . S
C1076 C1077 1.400 . S
C1077 C1071 1.491 . S
C1077 C1076 1.400 . S
C1077 C1078 1.398 . S
C1078 H1066 0.950 . S
C1078 C1077 1.398 . S
C1078 C1079 1.391 . S
C1079 H1067 0.950 . S
C1079 C1075 1.393 . S
C1079 C1078 1.391 . S
H1080 C1088 0.950 . S
H1081 C1093 0.950 . S
H1082 C1090 0.950 . S
H1083 C1092 0.950 . S
H1084 C1094 0.950 . S
H1085 C1096 0.950 . S
H1086 C1098 0.950 . S
H1087 C1099 0.950 . S
C1088 H1080 0.950 . S
C1088 C1089 1.386 . S
C1088 C1090 1.391 . S
C1089 C1088 1.386 . S
C1089 C1093 1.393 . S
C1090 H1082 0.950 . S
C1090 C1088 1.391 . S
C1090 C1091 1.400 . S
C1091 C1090 1.400 . S
C1091 C1092 1.398 . S
C1091 C1097 1.491 . S
C1092 H1083 0.950 . S
C1092 C1091 1.398 . S
C1092 C1093 1.391 . S
C1093 H1081 0.950 . S
C1093 C1089 1.393 . S
C1093 C1092 1.391 . S
C1094 H1084 0.950 . S
C1094 C1095 1.386 . S
C1094 C1096 1.391 . S
C1095 C1094 1.386 . S
C1095 C1099 1.393 . S
C1096 H1085 0.950 . S
C1096 C1094 1.391 . S
C1096 C1097 1.400 . S
C1097 C1091 1.491 . S
C1097 C1096 1.400 . S
C1097 C1098 1.398 . S
C1098 H1086 0.950 . S
C1098 C1097 1.398 . S
C1098 C1099 1.391 . S
C1099 H1087 0.950 . S
C1099 C1095 1.393 . S
C1099 C1098 1.391 . S
H1100 C1108 0.950 . S
H1101 C1113 0.950 . S
H1102 C1110 0.950 . S
H1103 C1112 0.950 . S
H1104 C1114 0.950 . S
H1105 C1116 0.950 . S
H1106 C1118 0.950 . S
H1107 C1119 0.950 . S
C1108 H1100 0.950 . S
C1108 C1109 1.386 . S
C1108 C1110 1.391 . S
C1109 C1108 1.386 . S
C1109 C1113 1.393 . S
C1110 H1102 0.950 . S
C1110 C1108 1.391 . S
C1110 C1111 1.400 . S
C1111 C1110 1.400 . S
C1111 C1112 1.398 . S
C1111 C1117 1.491 . S
C1112 H1103 0.950 . S
C1112 C1111 1.398 . S
C1112 C1113 1.391 . S
C1113 H1101 0.950 . S
C1113 C1109 1.393 . S
C1113 C1112 1.391 . S
C1114 H1104 0.950 . S
C1114 C1115 1.386 . S
C1114 C1116 1.391 . S
C1115 C1114 1.386 . S
C1115 C1119 1.393 . S
C1116 H1105 0.950 . S
C1116 C1114 1.391 . S
C1116 C1117 1.400 . S
C1117 C1111 1.491 . S
C1117 C1116 1.400 . S
C1117 C1118 1.398 . S
C1118 H1106 0.950 . S
C1118 C1117 1.398 . S
C1118 C1119 1.391 . S
C1119 H1107 0.950 . S
C1119 C1115 1.393 . S
C1119 C1118 1.391 . S
H1120 C1128 0.950 . S
H1121 C1133 0.950 . S
H1122 C1130 0.950 . S
H1123 C1132 0.950 . S
H1124 C1134 0.950 . S
H1125 C1136 0.950 . S
H1126 C1138 0.950 . S
H1127 C1139 0.950 1_556 S
C1128 H1120 0.950 . S
C1128 C1129 1.386 . S
C1128 C1130 1.391 . S
C1129 C1128 1.386 . S
C1129 C1133 1.393 . S
C1130 H1122 0.950 . S
C1130 C1128 1.391 . S
C1130 C1131 1.400 . S
C1131 C1130 1.400 . S
C1131 C1132 1.398 . S
C1131 C1137 1.491 . S
C1132 H1123 0.950 . S
C1132 C1131 1.398 . S
C1132 C1133 1.391 . S
C1133 H1121 0.950 . S
C1133 C1129 1.393 . S
C1133 C1132 1.391 . S
C1134 H1124 0.950 . S
C1134 C1135 1.386 . S
C1134 C1136 1.391 . S
C1135 C1134 1.386 . S
C1135 C1139 1.393 . S
C1136 H1125 0.950 . S
C1136 C1134 1.391 . S
C1136 C1137 1.400 . S
C1137 C1131 1.491 . S
C1137 C1136 1.400 . S
C1137 C1138 1.398 . S
C1138 H1126 0.950 . S
C1138 C1137 1.398 . S
C1138 C1139 1.391 . S
C1139 H1127 0.950 1_554 S
C1139 C1135 1.393 . S
C1139 C1138 1.391 . S
H1140 C1148 0.954 1_655 S
H1141 C1153 0.950 . S
H1142 C1150 0.950 . S
H1143 C1152 0.950 . S
H1144 C1154 0.950 . S
H1145 C1156 0.950 . S
H1146 C1158 0.950 . S
H1147 C1159 0.950 . S
C1148 H1140 0.954 1_455 S
C1148 C1149 1.387 1_455 S
C1148 C1150 1.386 . S
C1149 C1148 1.387 1_655 S
C1149 C1153 1.393 . S
C1150 H1142 0.950 . S
C1150 C1148 1.386 . S
C1150 C1151 1.400 . S
C1151 C1150 1.400 . S
C1151 C1152 1.398 . S
C1151 C1157 1.491 . S
C1152 H1143 0.950 . S
C1152 C1151 1.398 . S
C1152 C1153 1.391 1_455 S
C1153 H1141 0.950 . S
C1153 C1149 1.393 . S
C1153 C1152 1.391 1_655 S
C1154 H1144 0.950 . S
C1154 C1155 1.386 . S
C1154 C1156 1.391 . S
C1155 C1154 1.386 . S
C1155 C1159 1.393 . S
C1156 H1145 0.950 . S
C1156 C1154 1.391 . S
C1156 C1157 1.400 . S
C1157 C1151 1.491 . S
C1157 C1156 1.400 . S
C1157 C1158 1.398 . S
C1158 H1146 0.950 . S
C1158 C1157 1.398 . S
C1158 C1159 1.391 . S
C1159 H1147 0.950 . S
C1159 C1155 1.393 . S
C1159 C1158 1.391 . S
H1160 C1168 0.950 . S
H1161 C1173 0.950 . S
H1162 C1170 0.950 . S
H1163 C1172 0.950 . S
H1164 C1174 0.950 . S
H1165 C1176 0.950 . S
H1166 C1178 0.950 . S
H1167 C1179 0.950 . S
C1168 H1160 0.950 . S
C1168 C1169 1.386 . S
C1168 C1170 1.391 . S
C1169 C1168 1.386 . S
C1169 C1173 1.393 . S
C1170 H1162 0.950 . S
C1170 C1168 1.391 . S
C1170 C1171 1.400 . S
C1171 C1170 1.400 . S
C1171 C1172 1.398 . S
C1171 C1177 1.491 . S
C1172 H1163 0.950 . S
C1172 C1171 1.398 . S
C1172 C1173 1.391 . S
C1173 H1161 0.950 . S
C1173 C1169 1.393 . S
C1173 C1172 1.391 . S
C1174 H1164 0.950 . S
C1174 C1175 1.386 . S
C1174 C1176 1.391 . S
C1175 C1174 1.386 . S
C1175 C1179 1.393 . S
C1176 H1165 0.950 . S
C1176 C1174 1.391 . S
C1176 C1177 1.400 . S
C1177 C1171 1.491 . S
C1177 C1176 1.400 . S
C1177 C1178 1.398 . S
C1178 H1166 0.950 . S
C1178 C1177 1.398 . S
C1178 C1179 1.391 . S
C1179 H1167 0.950 . S
C1179 C1175 1.393 . S
C1179 C1178 1.391 . S
H1180 C1188 0.950 . S
H1181 C1193 0.950 . S
H1182 C1190 0.950 . S
H1183 C1192 0.950 . S
H1184 C1194 0.950 . S
H1185 C1196 0.950 . S
H1186 C1198 0.950 . S
H1187 C1199 0.950 . S
C1188 H1180 0.950 . S
C1188 C1189 1.386 . S
C1188 C1190 1.391 1_545 S
C1189 C1188 1.386 . S
C1189 C1193 1.393 . S
C1190 H1182 0.950 . S
C1190 C1188 1.391 1_565 S
C1190 C1191 1.400 . S
C1191 C1190 1.400 . S
C1191 C1192 1.398 . S
C1191 C1197 1.491 . S
C1192 H1183 0.950 . S
C1192 C1191 1.398 . S
C1192 C1193 1.391 1_565 S
C1193 H1181 0.950 . S
C1193 C1189 1.393 . S
C1193 C1192 1.391 1_545 S
C1194 H1184 0.950 . S
C1194 C1195 1.386 . S
C1194 C1196 1.391 . S
C1195 C1194 1.386 . S
C1195 C1199 1.393 . S
C1196 H1185 0.950 . S
C1196 C1194 1.391 . S
C1196 C1197 1.400 . S
C1197 C1191 1.491 . S
C1197 C1196 1.400 . S
C1197 C1198 1.398 . S
C1198 H1186 0.950 . S
C1198 C1197 1.398 . S
C1198 C1199 1.391 . S
C1199 H1187 0.950 . S
C1199 C1195 1.393 . S
C1199 C1198 1.391 . S
H1200 C1208 0.950 . S
H1201 C1213 0.950 . S
H1202 C1210 0.950 . S
H1203 C1212 0.950 . S
H1204 C1214 0.950 . S
H1205 C1216 0.950 . S
H1206 C1218 0.950 . S
H1207 C1219 0.950 . S
C1208 H1200 0.950 . S
C1208 C1209 1.386 . S
C1208 C1210 1.391 . S
C1209 C1208 1.386 . S
C1209 C1213 1.393 . S
C1210 H1202 0.950 . S
C1210 C1208 1.391 . S
C1210 C1211 1.400 . S
C1211 C1210 1.400 . S
C1211 C1212 1.398 . S
C1211 C1217 1.491 . S
C1212 H1203 0.950 . S
C1212 C1211 1.398 . S
C1212 C1213 1.391 . S
C1213 H1201 0.950 . S
C1213 C1209 1.393 . S
C1213 C1212 1.391 . S
C1214 H1204 0.950 . S
C1214 C1215 1.386 . S
C1214 C1216 1.391 . S
C1215 C1214 1.386 . S
C1215 C1219 1.393 . S
C1216 H1205 0.950 . S
C1216 C1214 1.391 . S
C1216 C1217 1.400 . S
C1217 C1211 1.491 . S
C1217 C1216 1.400 . S
C1217 C1218 1.398 . S
C1218 H1206 0.950 . S
C1218 C1217 1.398 . S
C1218 C1219 1.391 . S
C1219 H1207 0.950 . S
C1219 C1215 1.393 . S
C1219 C1218 1.391 . S
H1220 C1228 0.950 . S
H1221 C1233 0.950 . S
H1222 C1230 0.950 . S
H1223 C1232 0.950 . S
H1224 C1234 0.950 . S
H1225 C1236 0.950 . S
H1226 C1238 0.950 . S
H1227 C1239 0.950 . S
C1228 H1220 0.950 . S
C1228 C1229 1.386 . S
C1228 C1230 1.391 . S
C1229 C1228 1.386 . S
C1229 C1233 1.393 . S
C1230 H1222 0.950 . S
C1230 C1228 1.391 . S
C1230 C1231 1.400 . S
C1231 C1230 1.400 . S
C1231 C1232 1.398 . S
C1231 C1237 1.491 . S
C1232 H1223 0.950 . S
C1232 C1231 1.398 . S
C1232 C1233 1.391 . S
C1233 H1221 0.950 . S
C1233 C1229 1.393 . S
C1233 C1232 1.391 . S
C1234 H1224 0.950 . S
C1234 C1235 1.386 . S
C1234 C1236 1.391 . S
C1235 C1234 1.386 . S
C1235 C1239 1.393 . S
C1236 H1225 0.950 . S
C1236 C1234 1.391 . S
C1236 C1237 1.400 . S
C1237 C1231 1.491 . S
C1237 C1236 1.400 . S
C1237 C1238 1.398 . S
C1238 H1226 0.950 . S
C1238 C1237 1.398 . S
C1238 C1239 1.391 . S
C1239 H1227 0.950 . S
C1239 C1235 1.393 . S
C1239 C1238 1.391 . S
H1240 C1248 0.950 . S
H1241 C1253 0.950 . S
H1242 C1250 0.950 . S
H1243 C1252 0.950 . S
H1244 C1254 0.950 . S
H1245 C1256 0.950 . S
H1246 C1258 0.950 . S
H1247 C1259 0.950 . S
C1248 H1240 0.950 . S
C1248 C1249 1.386 . S
C1248 C1250 1.391 . S
C1249 C1248 1.386 . S
C1249 C1253 1.393 . S
C1250 H1242 0.950 . S
C1250 C1248 1.391 . S
C1250 C1251 1.400 . S
C1251 C1250 1.400 . S
C1251 C1252 1.398 . S
C1251 C1257 1.491 . S
C1252 H1243 0.950 . S
C1252 C1251 1.398 . S
C1252 C1253 1.391 . S
C1253 H1241 0.950 . S
C1253 C1249 1.393 . S
C1253 C1252 1.391 . S
C1254 H1244 0.950 . S
C1254 C1255 1.386 . S
C1254 C1256 1.391 . S
C1255 C1254 1.386 . S
C1255 C1259 1.393 . S
C1256 H1245 0.950 . S
C1256 C1254 1.391 . S
C1256 C1257 1.400 . S
C1257 C1251 1.491 . S
C1257 C1256 1.400 . S
C1257 C1258 1.398 . S
C1258 H1246 0.950 . S
C1258 C1257 1.398 . S
C1258 C1259 1.391 . S
C1259 H1247 0.950 . S
C1259 C1255 1.393 . S
C1259 C1258 1.391 . S
H1260 C1268 0.950 . S
H1261 C1273 0.950 . S
H1262 C1270 0.950 . S
H1263 C1272 0.950 . S
H1264 C1274 0.950 . S
H1265 C1276 0.950 . S
H1266 C1278 0.950 . S
H1267 C1279 0.950 . S
C1268 H1260 0.950 . S
C1268 C1269 1.386 . S
C1268 C1270 1.391 . S
C1269 C1268 1.386 . S
C1269 C1273 1.393 . S
C1270 H1262 0.950 . S
C1270 C1268 1.391 . S
C1270 C1271 1.400 . S
C1271 C1270 1.400 . S
C1271 C1272 1.398 . S
C1271 C1277 1.491 . S
C1272 H1263 0.950 . S
C1272 C1271 1.398 . S
C1272 C1273 1.391 . S
C1273 H1261 0.950 . S
C1273 C1269 1.393 . S
C1273 C1272 1.391 . S
C1274 H1264 0.950 . S
C1274 C1275 1.386 . S
C1274 C1276 1.391 . S
C1275 C1274 1.386 . S
C1275 C1279 1.393 . S
C1276 H1265 0.950 . S
C1276 C1274 1.391 . S
C1276 C1277 1.400 . S
C1277 C1271 1.491 . S
C1277 C1276 1.400 . S
C1277 C1278 1.398 . S
C1278 H1266 0.950 . S
C1278 C1277 1.398 . S
C1278 C1279 1.391 . S
C1279 H1267 0.950 . S
C1279 C1275 1.393 . S
C1279 C1278 1.391 . S
H1280 C1288 0.950 . S
H1281 C1293 0.950 . S
H1282 C1290 0.950 . S
H1283 C1292 0.950 . S
H1284 C1294 0.950 . S
H1285 C1296 0.950 . S
H1286 C1298 0.950 . S
H1287 C1299 0.950 . S
C1288 H1280 0.950 . S
C1288 C1289 1.386 . S
C1288 C1290 1.391 . S
C1289 C1288 1.386 . S
C1289 C1293 1.393 . S
C1290 H1282 0.950 . S
C1290 C1288 1.391 . S
C1290 C1291 1.400 . S
C1291 C1290 1.400 . S
C1291 C1292 1.398 . S
C1291 C1297 1.491 . S
C1292 H1283 0.950 . S
C1292 C1291 1.398 . S
C1292 C1293 1.391 . S
C1293 H1281 0.950 . S
C1293 C1289 1.393 . S
C1293 C1292 1.391 . S
C1294 H1284 0.950 . S
C1294 C1295 1.386 . S
C1294 C1296 1.391 . S
C1295 C1294 1.386 . S
C1295 C1299 1.393 . S
C1296 H1285 0.950 . S
C1296 C1294 1.391 . S
C1296 C1297 1.400 . S
C1297 C1291 1.491 . S
C1297 C1296 1.400 . S
C1297 C1298 1.398 . S
C1298 H1286 0.950 . S
C1298 C1297 1.398 . S
C1298 C1299 1.391 . S
C1299 H1287 0.950 . S
C1299 C1295 1.393 . S
C1299 C1298 1.391 . S
H1300 C1308 0.950 . S
H1301 C1313 0.950 . S
H1302 C1310 0.950 . S
H1303 C1312 0.950 . S
H1304 C1314 0.950 . S
H1305 C1316 0.950 . S
H1306 C1318 0.950 . S
H1307 C1319 0.950 . S
C1308 H1300 0.950 . S
C1308 C1309 1.386 . S
C1308 C1310 1.391 . S
C1309 C1308 1.386 . S
C1309 C1313 1.393 . S
C1310 H1302 0.950 . S
C1310 C1308 1.391 . S
C1310 C1311 1.400 . S
C1311 C1310 1.400 . S
C1311 C1312 1.398 . S
C1311 C1317 1.491 . S
C1312 H1303 0.950 . S
C1312 C1311 1.398 . S
C1312 C1313 1.391 . S
C1313 H1301 0.950 . S
C1313 C1309 1.393 . S
C1313 C1312 1.391 . S
C1314 H1304 0.950 . S
C1314 C1315 1.386 . S
C1314 C1316 1.391 . S
C1315 C1314 1.386 . S
C1315 C1319 1.393 . S
C1316 H1305 0.950 . S
C1316 C1314 1.391 . S
C1316 C1317 1.400 . S
C1317 C1311 1.491 . S
C1317 C1316 1.400 . S
C1317 C1318 1.398 . S
C1318 H1306 0.950 . S
C1318 C1317 1.398 . S
C1318 C1319 1.391 . S
C1319 H1307 0.950 . S
C1319 C1315 1.393 . S
C1319 C1318 1.391 . S
H1320 C1328 0.950 1_545 S
H1321 C1333 0.950 . S
H1322 C1330 0.950 . S
H1323 C1332 0.950 . S
H1324 C1334 0.950 . S
H1325 C1336 0.950 . S
H1326 C1338 0.950 . S
H1327 C1339 0.950 . S
C1328 H1320 0.950 1_565 S
C1328 C1329 1.386 1_565 S
C1328 C1330 1.391 . S
C1329 C1328 1.386 1_545 S
C1329 C1333 1.393 . S
C1330 H1322 0.950 . S
C1330 C1328 1.391 . S
C1330 C1331 1.400 . S
C1331 C1330 1.400 . S
C1331 C1332 1.398 . S
C1331 C1337 1.491 . S
C1332 H1323 0.950 . S
C1332 C1331 1.398 . S
C1332 C1333 1.391 1_565 S
C1333 H1321 0.950 . S
C1333 C1329 1.393 . S
C1333 C1332 1.391 1_545 S
C1334 H1324 0.950 . S
C1334 C1335 1.386 . S
C1334 C1336 1.391 . S
C1335 C1334 1.386 . S
C1335 C1339 1.393 . S
C1336 H1325 0.950 . S
C1336 C1334 1.391 . S
C1336 C1337 1.400 . S
C1337 C1331 1.491 . S
C1337 C1336 1.400 . S
C1337 C1338 1.398 . S
C1338 H1326 0.950 . S
C1338 C1337 1.398 . S
C1338 C1339 1.391 . S
C1339 H1327 0.950 . S
C1339 C1335 1.393 . S
C1339 C1338 1.391 . S
H1340 C1348 0.950 1_655 S
H1341 C1353 0.950 . S
H1342 C1350 0.950 . S
H1343 C1352 0.950 . S
H1344 C1354 0.950 . S
H1345 C1356 0.950 . S
H1346 C1358 0.950 . S
H1347 C1359 0.950 . S
C1348 H1340 0.950 1_455 S
C1348 C1349 1.386 1_455 S
C1348 C1350 1.391 . S
C1349 C1348 1.386 1_655 S
C1349 C1353 1.393 1_655 S
C1350 H1342 0.950 . S
C1350 C1348 1.391 . S
C1350 C1351 1.400 . S
C1351 C1350 1.400 . S
C1351 C1352 1.398 . S
C1351 C1357 1.491 . S
C1352 H1343 0.950 . S
C1352 C1351 1.398 . S
C1352 C1353 1.391 . S
C1353 H1341 0.950 . S
C1353 C1349 1.393 1_455 S
C1353 C1352 1.391 . S
C1354 H1344 0.950 . S
C1354 C1355 1.386 . S
C1354 C1356 1.391 . S
C1355 C1354 1.386 . S
C1355 C1359 1.393 . S
C1356 H1345 0.950 . S
C1356 C1354 1.391 . S
C1356 C1357 1.400 . S
C1357 C1351 1.491 . S
C1357 C1356 1.400 . S
C1357 C1358 1.398 . S
C1358 H1346 0.950 . S
C1358 C1357 1.398 . S
C1358 C1359 1.391 . S
C1359 H1347 0.950 . S
C1359 C1355 1.393 . S
C1359 C1358 1.391 . S
H1360 C1368 0.950 . S
H1361 C1373 0.950 . S
H1362 C1370 0.950 . S
H1363 C1372 0.950 . S
H1364 C1374 0.950 . S
H1365 C1376 0.950 . S
H1366 C1378 0.950 . S
H1367 C1379 0.950 . S
C1368 H1360 0.950 . S
C1368 C1369 1.386 . S
C1368 C1370 1.391 . S
C1369 C1368 1.386 . S
C1369 C1373 1.393 . S
C1370 H1362 0.950 . S
C1370 C1368 1.391 . S
C1370 C1371 1.400 . S
C1371 C1370 1.400 . S
C1371 C1372 1.398 . S
C1371 C1377 1.491 . S
C1372 H1363 0.950 . S
C1372 C1371 1.398 . S
C1372 C1373 1.391 . S
C1373 H1361 0.950 . S
C1373 C1369 1.393 . S
C1373 C1372 1.391 . S
C1374 H1364 0.950 . S
C1374 C1375 1.386 . S
C1374 C1376 1.391 . S
C1375 C1374 1.386 . S
C1375 C1379 1.393 . S
C1376 H1365 0.950 . S
C1376 C1374 1.391 . S
C1376 C1377 1.400 . S
C1377 C1371 1.491 . S
C1377 C1376 1.400 . S
C1377 C1378 1.398 . S
C1378 H1366 0.950 . S
C1378 C1377 1.398 . S
C1378 C1379 1.391 . S
C1379 H1367 0.950 . S
C1379 C1375 1.393 . S
C1379 C1378 1.391 . S
H1380 C1388 0.950 . S
H1381 C1393 0.950 . S
H1382 C1390 0.950 . S
H1383 C1392 0.950 . S
H1384 C1394 0.950 . S
H1385 C1396 0.950 . S
H1386 C1398 0.950 . S
H1387 C1399 0.950 . S
C1388 H1380 0.950 . S
C1388 C1389 1.386 . S
C1388 C1390 1.391 . S
C1389 C1388 1.386 . S
C1389 C1393 1.393 . S
C1390 H1382 0.950 . S
C1390 C1388 1.391 . S
C1390 C1391 1.400 . S
C1391 C1390 1.400 . S
C1391 C1392 1.398 . S
C1391 C1397 1.491 . S
C1392 H1383 0.950 . S
C1392 C1391 1.398 . S
C1392 C1393 1.391 . S
C1393 H1381 0.950 . S
C1393 C1389 1.393 . S
C1393 C1392 1.391 . S
C1394 H1384 0.950 . S
C1394 C1395 1.386 . S
C1394 C1396 1.391 . S
C1395 C1394 1.386 . S
C1395 C1399 1.393 . S
C1396 H1385 0.950 . S
C1396 C1394 1.391 . S
C1396 C1397 1.400 . S
C1397 C1391 1.491 . S
C1397 C1396 1.400 . S
C1397 C1398 1.398 . S
C1398 H1386 0.950 . S
C1398 C1397 1.398 . S
C1398 C1399 1.391 . S
C1399 H1387 0.950 . S
C1399 C1395 1.393 . S
C1399 C1398 1.391 . S
H1400 C1408 0.950 . S
H1401 C1413 0.950 . S
H1402 C1410 0.950 . S
H1403 C1412 0.950 . S
H1404 C1414 0.950 . S
H1405 C1416 0.950 . S
H1406 C1418 0.950 . S
H1407 C1419 0.950 . S
C1408 H1400 0.950 . S
C1408 C1409 1.386 . S
C1408 C1410 1.391 . S
C1409 C1408 1.386 . S
C1409 C1413 1.393 . S
C1410 H1402 0.950 . S
C1410 C1408 1.391 . S
C1410 C1411 1.400 . S
C1411 C1410 1.400 . S
C1411 C1412 1.398 . S
C1411 C1417 1.491 . S
C1412 H1403 0.950 . S
C1412 C1411 1.398 . S
C1412 C1413 1.391 . S
C1413 H1401 0.950 . S
C1413 C1409 1.393 . S
C1413 C1412 1.391 . S
C1414 H1404 0.950 . S
C1414 C1415 1.386 . S
C1414 C1416 1.391 . S
C1415 C1414 1.386 . S
C1415 C1419 1.393 . S
C1416 H1405 0.950 . S
C1416 C1414 1.391 . S
C1416 C1417 1.400 . S
C1417 C1411 1.491 . S
C1417 C1416 1.400 . S
C1417 C1418 1.398 . S
C1418 H1406 0.950 . S
C1418 C1417 1.398 . S
C1418 C1419 1.391 . S
C1419 H1407 0.950 . S
C1419 C1415 1.393 . S
C1419 C1418 1.391 . S
H1420 C1428 0.950 . S
H1421 C1433 0.950 . S
H1422 C1430 0.950 . S
H1423 C1432 0.950 . S
H1424 C1434 0.950 . S
H1425 C1436 0.950 . S
H1426 C1438 0.950 . S
H1427 C1439 0.950 . S
C1428 H1420 0.950 . S
C1428 C1429 1.386 . S
C1428 C1430 1.391 . S
C1429 C1428 1.386 . S
C1429 C1433 1.393 . S
C1430 H1422 0.950 . S
C1430 C1428 1.391 . S
C1430 C1431 1.400 . S
C1431 C1430 1.400 . S
C1431 C1432 1.398 . S
C1431 C1437 1.491 . S
C1432 H1423 0.950 . S
C1432 C1431 1.398 . S
C1432 C1433 1.391 . S
C1433 H1421 0.950 . S
C1433 C1429 1.393 . S
C1433 C1432 1.391 . S
C1434 H1424 0.950 . S
C1434 C1435 1.386 . S
C1434 C1436 1.391 . S
C1435 C1434 1.386 . S
C1435 C1439 1.393 . S
C1436 H1425 0.950 . S
C1436 C1434 1.391 . S
C1436 C1437 1.400 . S
C1437 C1431 1.491 . S
C1437 C1436 1.400 . S
C1437 C1438 1.398 . S
C1438 H1426 0.950 . S
C1438 C1437 1.398 . S
C1438 C1439 1.391 . S
C1439 H1427 0.950 . S
C1439 C1435 1.393 . S
C1439 C1438 1.391 . S
H1440 C1448 0.950 . S
H1441 C1453 0.939 1_565 S
H1442 C1450 0.950 . S
H1443 C1452 0.950 . S
H1444 C1454 0.950 . S
H1445 C1456 0.950 . S
H1446 C1458 0.950 . S
H1447 C1459 0.950 . S
C1448 H1440 0.950 . S
C1448 C1449 1.386 . S
C1448 C1450 1.391 1_565 S
C1449 C1448 1.386 . S
C1449 C1453 1.393 1_565 S
C1450 H1442 0.950 . S
C1450 C1448 1.391 1_545 S
C1450 C1451 1.400 . S
C1451 C1450 1.400 . S
C1451 C1452 1.398 . S
C1451 C1457 1.491 . S
C1452 H1443 0.950 . S
C1452 C1451 1.398 . S
C1452 C1453 1.391 . S
C1453 H1441 0.939 1_545 S
C1453 C1449 1.393 1_545 S
C1453 C1452 1.391 . S
C1454 H1444 0.950 . S
C1454 C1455 1.386 . S
C1454 C1456 1.391 . S
C1455 C1454 1.386 . S
C1455 C1459 1.393 . S
C1456 H1445 0.950 . S
C1456 C1454 1.391 . S
C1456 C1457 1.400 . S
C1457 C1451 1.491 . S
C1457 C1456 1.400 . S
C1457 C1458 1.398 . S
C1458 H1446 0.950 . S
C1458 C1457 1.398 . S
C1458 C1459 1.391 . S
C1459 H1447 0.950 . S
C1459 C1455 1.393 . S
C1459 C1458 1.391 . S
H1460 C1468 0.950 . S
H1461 C1473 0.950 . S
H1462 C1470 0.950 . S
H1463 C1472 0.950 . S
H1464 C1474 0.950 . S
H1465 C1476 0.950 . S
H1466 C1478 0.950 . S
H1467 C1479 0.950 . S
C1468 H1460 0.950 . S
C1468 C1469 1.386 . S
C1468 C1470 1.391 1_455 S
C1469 C1468 1.386 . S
C1469 C1473 1.393 1_455 S
C1470 H1462 0.950 . S
C1470 C1468 1.391 1_655 S
C1470 C1471 1.400 . S
C1471 C1470 1.400 . S
C1471 C1472 1.398 . S
C1471 C1477 1.491 . S
C1472 H1463 0.950 . S
C1472 C1471 1.398 . S
C1472 C1473 1.391 . S
C1473 H1461 0.950 . S
C1473 C1469 1.393 1_655 S
C1473 C1472 1.391 . S
C1474 H1464 0.950 . S
C1474 C1475 1.386 . S
C1474 C1476 1.391 . S
C1475 C1474 1.386 . S
C1475 C1479 1.393 . S
C1476 H1465 0.950 . S
C1476 C1474 1.391 . S
C1476 C1477 1.400 . S
C1477 C1471 1.491 . S
C1477 C1476 1.400 . S
C1477 C1478 1.398 . S
C1478 H1466 0.950 . S
C1478 C1477 1.398 . S
C1478 C1479 1.391 . S
C1479 H1467 0.950 . S
C1479 C1475 1.393 . S
C1479 C1478 1.391 . S
H1480 C1488 0.950 . S
H1481 C1493 0.950 . S
H1482 C1490 0.950 . S
H1483 C1492 0.950 . S
H1484 C1494 0.950 . S
H1485 C1496 0.950 . S
H1486 C1498 0.950 . S
H1487 C1499 0.950 . S
C1488 H1480 0.950 . S
C1488 C1489 1.386 . S
C1488 C1490 1.391 . S
C1489 C1488 1.386 . S
C1489 C1493 1.393 . S
C1490 H1482 0.950 . S
C1490 C1488 1.391 . S
C1490 C1491 1.400 . S
C1491 C1490 1.400 . S
C1491 C1492 1.398 . S
C1491 C1497 1.491 . S
C1492 H1483 0.950 . S
C1492 C1491 1.398 . S
C1492 C1493 1.391 . S
C1493 H1481 0.950 . S
C1493 C1489 1.393 . S
C1493 C1492 1.391 . S
C1494 H1484 0.950 . S
C1494 C1495 1.386 . S
C1494 C1496 1.391 . S
C1495 C1494 1.386 . S
C1495 C1499 1.393 . S
C1496 H1485 0.950 . S
C1496 C1494 1.391 . S
C1496 C1497 1.400 . S
C1497 C1491 1.491 . S
C1497 C1496 1.400 . S
C1497 C1498 1.398 . S
C1498 H1486 0.950 . S
C1498 C1497 1.398 . S
C1498 C1499 1.391 . S
C1499 H1487 0.950 . S
C1499 C1495 1.393 . S
C1499 C1498 1.391 . S
H1500 C1508 0.949 . S
H1501 C1513 0.950 . S
H1502 C1510 0.950 . S
H1503 C1512 0.950 . S
H1504 C1514 0.950 . S
H1505 C1516 0.950 . S
H1506 C1518 0.950 . S
H1507 C1519 0.950 . S
C1508 H1500 0.949 . S
C1508 C1509 1.401 . S
C1508 C1510 1.376 1_455 S
C1509 C1508 1.401 . S
C1509 C1513 1.393 . S
C1510 H1502 0.950 . S
C1510 C1508 1.376 1_655 S
C1510 C1511 1.400 . S
C1511 C1510 1.400 . S
C1511 C1512 1.398 . S
C1511 C1517 1.491 . S
C1512 H1503 0.950 . S
C1512 C1511 1.398 . S
C1512 C1513 1.391 1_655 S
C1513 H1501 0.950 . S
C1513 C1509 1.393 . S
C1513 C1512 1.391 1_455 S
C1514 H1504 0.950 . S
C1514 C1515 1.386 . S
C1514 C1516 1.391 . S
C1515 C1514 1.386 . S
C1515 C1519 1.393 . S
C1516 H1505 0.950 . S
C1516 C1514 1.391 . S
C1516 C1517 1.400 . S
C1517 C1511 1.491 . S
C1517 C1516 1.400 . S
C1517 C1518 1.398 . S
C1518 H1506 0.950 . S
C1518 C1517 1.398 . S
C1518 C1519 1.391 . S
C1519 H1507 0.950 . S
C1519 C1515 1.393 . S
C1519 C1518 1.391 . S
H1520 C1528 0.950 . S
H1521 C1533 0.950 . S
H1522 C1530 0.950 . S
H1523 C1532 0.950 . S
H1524 C1534 0.950 . S
H1525 C1536 0.950 . S
H1526 C1538 0.950 . S
H1527 C1539 0.950 . S
C1528 H1520 0.950 . S
C1528 C1529 1.386 . S
C1528 C1530 1.391 . S
C1529 C1528 1.386 . S
C1529 C1533 1.393 . S
C1530 H1522 0.950 . S
C1530 C1528 1.391 . S
C1530 C1531 1.400 . S
C1531 C1530 1.400 . S
C1531 C1532 1.398 . S
C1531 C1537 1.491 . S
C1532 H1523 0.950 . S
C1532 C1531 1.398 . S
C1532 C1533 1.391 . S
C1533 H1521 0.950 . S
C1533 C1529 1.393 . S
C1533 C1532 1.391 . S
C1534 H1524 0.950 . S
C1534 C1535 1.386 . S
C1534 C1536 1.391 . S
C1535 C1534 1.386 . S
C1535 C1539 1.393 . S
C1536 H1525 0.950 . S
C1536 C1534 1.391 . S
C1536 C1537 1.400 . S
C1537 C1531 1.491 . S
C1537 C1536 1.400 . S
C1537 C1538 1.398 . S
C1538 H1526 0.950 . S
C1538 C1537 1.398 . S
C1538 C1539 1.391 . S
C1539 H1527 0.950 . S
C1539 C1535 1.393 . S
C1539 C1538 1.391 . S
H1540 C1548 0.972 . S
H1541 C1553 0.950 . S
H1542 C1550 0.950 . S
H1543 C1552 0.950 . S
H1544 C1554 0.950 . S
H1545 C1556 0.950 . S
H1546 C1558 0.950 . S
H1547 C1559 0.950 . S
C1548 H1540 0.972 . S
C1548 C1549 1.394 . S
C1548 C1550 1.362 1_565 S
C1549 C1548 1.394 . S
C1549 C1553 1.393 . S
C1550 H1542 0.950 . S
C1550 C1548 1.362 1_545 S
C1550 C1551 1.400 . S
C1551 C1550 1.400 . S
C1551 C1552 1.398 . S
C1551 C1557 1.491 . S
C1552 H1543 0.950 . S
C1552 C1551 1.398 . S
C1552 C1553 1.391 1_545 S
C1553 H1541 0.950 . S
C1553 C1549 1.393 . S
C1553 C1552 1.391 1_565 S
C1554 H1544 0.950 . S
C1554 C1555 1.386 . S
C1554 C1556 1.391 . S
C1555 C1554 1.386 . S
C1555 C1559 1.393 . S
C1556 H1545 0.950 . S
C1556 C1554 1.391 . S
C1556 C1557 1.400 . S
C1557 C1551 1.491 . S
C1557 C1556 1.400 . S
C1557 C1558 1.398 . S
C1558 H1546 0.950 . S
C1558 C1557 1.398 . S
C1558 C1559 1.391 . S
C1559 H1547 0.950 . S
C1559 C1555 1.393 . S
C1559 C1558 1.391 . S
H1560 C1568 0.950 . S
H1561 C1573 0.950 . S
H1562 C1570 0.950 . S
H1563 C1572 0.950 . S
H1564 C1574 0.950 . S
H1565 C1576 0.950 . S
H1566 C1578 0.950 . S
H1567 C1579 0.950 . S
C1568 H1560 0.950 . S
C1568 C1569 1.386 . S
C1568 C1570 1.391 . S
C1569 C1568 1.386 . S
C1569 C1573 1.393 . S
C1570 H1562 0.950 . S
C1570 C1568 1.391 . S
C1570 C1571 1.400 . S
C1571 C1570 1.400 . S
C1571 C1572 1.398 . S
C1571 C1577 1.491 . S
C1572 H1563 0.950 . S
C1572 C1571 1.398 . S
C1572 C1573 1.391 . S
C1573 H1561 0.950 . S
C1573 C1569 1.393 . S
C1573 C1572 1.391 . S
C1574 H1564 0.950 . S
C1574 C1575 1.386 . S
C1574 C1576 1.391 . S
C1575 C1574 1.386 . S
C1575 C1579 1.393 . S
C1576 H1565 0.950 . S
C1576 C1574 1.391 . S
C1576 C1577 1.400 . S
C1577 C1571 1.491 . S
C1577 C1576 1.400 . S
C1577 C1578 1.398 . S
C1578 H1566 0.950 . S
C1578 C1577 1.398 . S
C1578 C1579 1.391 . S
C1579 H1567 0.950 . S
C1579 C1575 1.393 . S
C1579 C1578 1.391 . S
H1580 C1588 0.950 . S
H1581 C1593 0.950 . S
H1582 C1590 0.950 . S
H1583 C1592 0.950 . S
H1584 C1594 0.950 . S
H1585 C1596 0.950 . S
H1586 C1598 0.950 . S
H1587 C1599 0.950 . S
C1588 H1580 0.950 . S
C1588 C1589 1.386 . S
C1588 C1590 1.391 . S
C1589 C1588 1.386 . S
C1589 C1593 1.393 . S
C1590 H1582 0.950 . S
C1590 C1588 1.391 . S
C1590 C1591 1.400 . S
C1591 C1590 1.400 . S
C1591 C1592 1.398 . S
C1591 C1597 1.491 . S
C1592 H1583 0.950 . S
C1592 C1591 1.398 . S
C1592 C1593 1.391 . S
C1593 H1581 0.950 . S
C1593 C1589 1.393 . S
C1593 C1592 1.391 . S
C1594 H1584 0.950 . S
C1594 C1595 1.386 . S
C1594 C1596 1.391 . S
C1595 C1594 1.386 . S
C1595 C1599 1.393 . S
C1596 H1585 0.950 . S
C1596 C1594 1.391 . S
C1596 C1597 1.400 . S
C1597 C1591 1.491 . S
C1597 C1596 1.400 . S
C1597 C1598 1.398 . S
C1598 H1586 0.950 . S
C1598 C1597 1.398 . S
C1598 C1599 1.391 . S
C1599 H1587 0.950 . S
C1599 C1595 1.393 . S
C1599 C1598 1.391 . S
H1600 C1608 0.950 . S
H1601 C1613 0.950 . S
H1602 C1610 0.950 . S
H1603 C1612 0.950 . S
H1604 C1614 0.950 . S
H1605 C1616 0.950 . S
H1606 C1618 0.950 . S
H1607 C1619 0.950 . S
C1608 H1600 0.950 . S
C1608 C1609 1.386 . S
C1608 C1610 1.391 . S
C1609 C1608 1.386 . S
C1609 C1613 1.393 . S
C1610 H1602 0.950 . S
C1610 C1608 1.391 . S
C1610 C1611 1.400 . S
C1611 C1610 1.400 . S
C1611 C1612 1.398 . S
C1611 C1617 1.491 . S
C1612 H1603 0.950 . S
C1612 C1611 1.398 . S
C1612 C1613 1.391 . S
C1613 H1601 0.950 . S
C1613 C1609 1.393 . S
C1613 C1612 1.391 . S
C1614 H1604 0.950 . S
C1614 C1615 1.386 . S
C1614 C1616 1.391 . S
C1615 C1614 1.386 . S
C1615 C1619 1.393 . S
C1616 H1605 0.950 . S
C1616 C1614 1.391 . S
C1616 C1617 1.400 . S
C1617 C1611 1.491 . S
C1617 C1616 1.400 . S
C1617 C1618 1.398 . S
C1618 H1606 0.950 . S
C1618 C1617 1.398 . S
C1618 C1619 1.391 . S
C1619 H1607 0.950 . S
C1619 C1615 1.393 . S
C1619 C1618 1.391 . S
H1620 C1628 0.964 . S
H1621 C1633 0.950 . S
H1622 C1630 0.950 1_545 S
H1623 C1632 0.950 . S
H1624 C1634 0.950 . S
H1625 C1636 0.950 . S
H1626 C1638 0.950 . S
H1627 C1639 0.950 . S
C1628 H1620 0.964 . S
C1628 C1629 1.386 . S
C1628 C1630 1.391 . S
C1629 C1628 1.386 . S
C1629 C1633 1.393 . S
C1630 H1622 0.950 1_565 S
C1630 C1628 1.391 . S
C1630 C1631 1.400 . S
C1631 C1630 1.400 . S
C1631 C1632 1.398 . S
C1631 C1637 1.491 . S
C1632 H1623 0.950 . S
C1632 C1631 1.398 . S
C1632 C1633 1.391 . S
C1633 H1621 0.950 . S
C1633 C1629 1.393 . S
C1633 C1632 1.391 . S
C1634 H1624 0.950 . S
C1634 C1635 1.386 . S
C1634 C1636 1.391 . S
C1635 C1634 1.386 . S
C1635 C1639 1.393 1_565 S
C1636 H1625 0.950 . S
C1636 C1634 1.391 . S
C1636 C1637 1.400 . S
C1637 C1631 1.491 . S
C1637 C1636 1.400 . S
C1637 C1638 1.398 1_565 S
C1638 H1626 0.950 . S
C1638 C1637 1.398 1_545 S
C1638 C1639 1.391 . S
C1639 H1627 0.950 . S
C1639 C1635 1.393 1_545 S
C1639 C1638 1.391 . S
H1640 C1648 0.950 1_655 S
H1641 C1653 0.950 . S
H1642 C1650 0.950 1_655 S
H1643 C1652 0.950 . S
H1644 C1654 0.950 . S
H1645 C1656 0.950 . S
H1646 C1658 0.950 . S
H1647 C1659 0.950 . S
C1648 H1640 0.950 1_455 S
C1648 C1649 1.386 . S
C1648 C1650 1.391 . S
C1649 C1648 1.386 . S
C1649 C1653 1.393 . S
C1650 H1642 0.950 1_455 S
C1650 C1648 1.391 . S
C1650 C1651 1.400 . S
C1651 C1650 1.400 . S
C1651 C1652 1.398 . S
C1651 C1657 1.491 . S
C1652 H1643 0.950 . S
C1652 C1651 1.398 . S
C1652 C1653 1.391 . S
C1653 H1641 0.950 . S
C1653 C1649 1.393 . S
C1653 C1652 1.391 . S
C1654 H1644 0.950 . S
C1654 C1655 1.386 . S
C1654 C1656 1.391 . S
C1655 C1654 1.386 . S
C1655 C1659 1.393 1_455 S
C1656 H1645 0.950 . S
C1656 C1654 1.391 . S
C1656 C1657 1.400 . S
C1657 C1651 1.491 . S
C1657 C1656 1.400 . S
C1657 C1658 1.398 1_455 S
C1658 H1646 0.950 . S
C1658 C1657 1.398 1_655 S
C1658 C1659 1.391 . S
C1659 H1647 0.950 . S
C1659 C1655 1.393 1_655 S
C1659 C1658 1.391 . S
H1660 C1668 0.950 . S
H1661 C1673 0.950 . S
H1662 C1670 0.950 . S
H1663 C1672 0.950 . S
H1664 C1674 0.950 . S
H1665 C1676 0.950 . S
H1666 C1678 0.950 . S
H1667 C1679 0.950 . S
C1668 H1660 0.950 . S
C1668 C1669 1.386 . S
C1668 C1670 1.391 . S
C1669 C1668 1.386 . S
C1669 C1673 1.393 . S
C1670 H1662 0.950 . S
C1670 C1668 1.391 . S
C1670 C1671 1.400 . S
C1671 C1670 1.400 . S
C1671 C1672 1.398 . S
C1671 C1677 1.491 . S
C1672 H1663 0.950 . S
C1672 C1671 1.398 . S
C1672 C1673 1.391 . S
C1673 H1661 0.950 . S
C1673 C1669 1.393 . S
C1673 C1672 1.391 . S
C1674 H1664 0.950 . S
C1674 C1675 1.386 . S
C1674 C1676 1.391 . S
C1675 C1674 1.386 . S
C1675 C1679 1.393 . S
C1676 H1665 0.950 . S
C1676 C1674 1.391 . S
C1676 C1677 1.400 . S
C1677 C1671 1.491 . S
C1677 C1676 1.400 . S
C1677 C1678 1.398 . S
C1678 H1666 0.950 . S
C1678 C1677 1.398 . S
C1678 C1679 1.391 . S
C1679 H1667 0.950 . S
C1679 C1675 1.393 . S
C1679 C1678 1.391 . S
H1680 C1688 0.950 . S
H1681 C1693 0.969 . S
H1682 C1690 0.950 . S
H1683 C1692 0.950 . S
H1684 C1694 0.950 . S
H1685 C1696 0.950 . S
H1686 C1698 0.950 . S
H1687 C1699 0.950 . S
C1688 H1680 0.950 . S
C1688 C1689 1.386 . S
C1688 C1690 1.391 . S
C1689 C1688 1.386 . S
C1689 C1693 1.373 1_655 S
C1690 H1682 0.950 . S
C1690 C1688 1.391 . S
C1690 C1691 1.400 . S
C1691 C1690 1.400 . S
C1691 C1692 1.398 1_655 S
C1691 C1697 1.491 . S
C1692 H1683 0.950 . S
C1692 C1691 1.398 1_455 S
C1692 C1693 1.392 . S
C1693 H1681 0.969 . S
C1693 C1689 1.373 1_455 S
C1693 C1692 1.392 . S
C1694 H1684 0.950 . S
C1694 C1695 1.386 1_455 S
C1694 C1696 1.391 . S
C1695 C1694 1.386 1_655 S
C1695 C1699 1.393 . S
C1696 H1685 0.950 . S
C1696 C1694 1.391 . S
C1696 C1697 1.400 1_455 S
C1697 C1691 1.491 . S
C1697 C1696 1.400 1_655 S
C1697 C1698 1.398 . S
C1698 H1686 0.950 . S
C1698 C1697 1.398 . S
C1698 C1699 1.391 . S
C1699 H1687 0.950 . S
C1699 C1695 1.393 . S
C1699 C1698 1.391 . S
H1700 C1708 0.950 . S
H1701 C1713 0.950 . S
H1702 C1710 0.950 . S
H1703 C1712 0.950 . S
H1704 C1714 0.950 . S
H1705 C1716 0.950 . S
H1706 C1718 0.950 . S
H1707 C1719 0.950 . S
C1708 H1700 0.950 . S
C1708 C1709 1.386 . S
C1708 C1710 1.391 . S
C1709 C1708 1.386 . S
C1709 C1713 1.393 . S
C1710 H1702 0.950 . S
C1710 C1708 1.391 . S
C1710 C1711 1.400 . S
C1711 C1710 1.400 . S
C1711 C1712 1.398 . S
C1711 C1717 1.491 . S
C1712 H1703 0.950 . S
C1712 C1711 1.398 . S
C1712 C1713 1.391 . S
C1713 H1701 0.950 . S
C1713 C1709 1.393 . S
C1713 C1712 1.391 . S
C1714 H1704 0.950 . S
C1714 C1715 1.386 . S
C1714 C1716 1.391 . S
C1715 C1714 1.386 . S
C1715 C1719 1.393 . S
C1716 H1705 0.950 . S
C1716 C1714 1.391 . S
C1716 C1717 1.400 . S
C1717 C1711 1.491 . S
C1717 C1716 1.400 . S
C1717 C1718 1.398 . S
C1718 H1706 0.950 . S
C1718 C1717 1.398 . S
C1718 C1719 1.391 . S
C1719 H1707 0.950 . S
C1719 C1715 1.393 . S
C1719 C1718 1.391 . S
H1720 C1728 0.950 . S
H1721 C1733 0.950 . S
H1722 C1730 0.950 . S
H1723 C1732 0.950 . S
H1724 C1734 0.950 . S
H1725 C1736 0.950 . S
H1726 C1738 0.950 . S
H1727 C1739 0.950 1_565 S
C1728 H1720 0.950 . S
C1728 C1729 1.386 . S
C1728 C1730 1.391 . S
C1729 C1728 1.386 . S
C1729 C1733 1.393 . S
C1730 H1722 0.950 . S
C1730 C1728 1.391 . S
C1730 C1731 1.400 . S
C1731 C1730 1.400 . S
C1731 C1732 1.398 . S
C1731 C1737 1.491 . S
C1732 H1723 0.950 . S
C1732 C1731 1.398 . S
C1732 C1733 1.391 . S
C1733 H1721 0.950 . S
C1733 C1729 1.393 . S
C1733 C1732 1.391 . S
C1734 H1724 0.950 . S
C1734 C1735 1.386 . S
C1734 C1736 1.391 . S
C1735 C1734 1.386 . S
C1735 C1739 1.393 . S
C1736 H1725 0.950 . S
C1736 C1734 1.391 . S
C1736 C1737 1.400 . S
C1737 C1731 1.491 . S
C1737 C1736 1.400 . S
C1737 C1738 1.398 . S
C1738 H1726 0.950 . S
C1738 C1737 1.398 . S
C1738 C1739 1.391 . S
C1739 H1727 0.950 1_545 S
C1739 C1735 1.393 . S
C1739 C1738 1.391 . S
H1740 C1748 0.950 . S
H1741 C1753 0.950 . S
H1742 C1750 0.950 . S
H1743 C1752 0.950 . S
H1744 C1754 0.950 . S
H1745 C1756 0.950 . S
H1746 C1758 0.950 . S
H1747 C1759 0.950 . S
C1748 H1740 0.950 . S
C1748 C1749 1.386 . S
C1748 C1750 1.391 . S
C1749 C1748 1.386 . S
C1749 C1753 1.393 . S
C1750 H1742 0.950 . S
C1750 C1748 1.391 . S
C1750 C1751 1.400 . S
C1751 C1750 1.400 . S
C1751 C1752 1.398 . S
C1751 C1757 1.491 . S
C1752 H1743 0.950 . S
C1752 C1751 1.398 . S
C1752 C1753 1.391 . S
C1753 H1741 0.950 . S
C1753 C1749 1.393 . S
C1753 C1752 1.391 . S
C1754 H1744 0.950 . S
C1754 C1755 1.386 . S
C1754 C1756 1.391 . S
C1755 C1754 1.386 . S
C1755 C1759 1.393 . S
C1756 H1745 0.950 . S
C1756 C1754 1.391 . S
C1756 C1757 1.400 . S
C1757 C1751 1.491 . S
C1757 C1756 1.400 . S
C1757 C1758 1.398 . S
C1758 H1746 0.950 . S
C1758 C1757 1.398 . S
C1758 C1759 1.391 . S
C1759 H1747 0.950 . S
C1759 C1755 1.393 . S
C1759 C1758 1.391 . S
H1760 C1768 0.950 . S
H1761 C1773 0.950 . S
H1762 C1770 0.950 . S
H1763 C1772 0.950 . S
H1764 C1774 0.950 . S
H1765 C1776 0.950 . S
H1766 C1778 0.950 . S
H1767 C1779 0.950 . S
C1768 H1760 0.950 . S
C1768 C1769 1.386 . S
C1768 C1770 1.391 . S
C1769 C1768 1.386 . S
C1769 C1773 1.393 . S
C1770 H1762 0.950 . S
C1770 C1768 1.391 . S
C1770 C1771 1.400 . S
C1771 C1770 1.400 . S
C1771 C1772 1.398 . S
C1771 C1777 1.491 . S
C1772 H1763 0.950 . S
C1772 C1771 1.398 . S
C1772 C1773 1.391 . S
C1773 H1761 0.950 . S
C1773 C1769 1.393 . S
C1773 C1772 1.391 . S
C1774 H1764 0.950 . S
C1774 C1775 1.386 . S
C1774 C1776 1.391 . S
C1775 C1774 1.386 . S
C1775 C1779 1.393 . S
C1776 H1765 0.950 . S
C1776 C1774 1.391 . S
C1776 C1777 1.400 . S
C1777 C1771 1.491 . S
C1777 C1776 1.400 . S
C1777 C1778 1.398 . S
C1778 H1766 0.950 . S
C1778 C1777 1.398 . S
C1778 C1779 1.391 . S
C1779 H1767 0.950 . S
C1779 C1775 1.393 . S
C1779 C1778 1.391 . S
H1780 C1788 0.950 . S
H1781 C1793 0.950 . S
H1782 C1790 0.950 . S
H1783 C1792 0.950 . S
H1784 C1794 0.950 . S
H1785 C1796 0.950 . S
H1786 C1798 0.950 . S
H1787 C1799 0.950 . S
C1788 H1780 0.950 . S
C1788 C1789 1.386 . S
C1788 C1790 1.391 . S
C1789 C1788 1.386 . S
C1789 C1793 1.393 . S
C1790 H1782 0.950 . S
C1790 C1788 1.391 . S
C1790 C1791 1.400 . S
C1791 C1790 1.400 . S
C1791 C1792 1.398 . S
C1791 C1797 1.491 . S
C1792 H1783 0.950 . S
C1792 C1791 1.398 . S
C1792 C1793 1.391 . S
C1793 H1781 0.950 . S
C1793 C1789 1.393 . S
C1793 C1792 1.391 . S
C1794 H1784 0.950 . S
C1794 C1795 1.386 . S
C1794 C1796 1.391 . S
C1795 C1794 1.386 . S
C1795 C1799 1.393 . S
C1796 H1785 0.950 . S
C1796 C1794 1.391 . S
C1796 C1797 1.400 . S
C1797 C1791 1.491 . S
C1797 C1796 1.400 . S
C1797 C1798 1.398 . S
C1798 H1786 0.950 . S
C1798 C1797 1.398 . S
C1798 C1799 1.391 . S
C1799 H1787 0.950 . S
C1799 C1795 1.393 . S
C1799 C1798 1.391 . S
H1800 C1808 0.950 . S
H1801 C1813 0.950 . S
H1802 C1810 0.950 . S
H1803 C1812 0.950 . S
H1804 C1814 0.950 . S
H1805 C1816 0.950 . S
H1806 C1818 0.950 . S
H1807 C1819 0.950 . S
C1808 H1800 0.950 . S
C1808 C1809 1.386 . S
C1808 C1810 1.391 . S
C1809 C1808 1.386 . S
C1809 C1813 1.393 . S
C1810 H1802 0.950 . S
C1810 C1808 1.391 . S
C1810 C1811 1.400 . S
C1811 C1810 1.400 . S
C1811 C1812 1.398 . S
C1811 C1817 1.491 . S
C1812 H1803 0.950 . S
C1812 C1811 1.398 . S
C1812 C1813 1.391 . S
C1813 H1801 0.950 . S
C1813 C1809 1.393 . S
C1813 C1812 1.391 . S
C1814 H1804 0.950 . S
C1814 C1815 1.386 . S
C1814 C1816 1.391 . S
C1815 C1814 1.386 . S
C1815 C1819 1.393 . S
C1816 H1805 0.950 . S
C1816 C1814 1.391 . S
C1816 C1817 1.400 . S
C1817 C1811 1.491 . S
C1817 C1816 1.400 . S
C1817 C1818 1.398 . S
C1818 H1806 0.950 . S
C1818 C1817 1.398 . S
C1818 C1819 1.391 . S
C1819 H1807 0.950 . S
C1819 C1815 1.393 . S
C1819 C1818 1.391 . S
H1820 C1828 0.950 . S
H1821 C1833 0.950 . S
H1822 C1830 0.950 . S
H1823 C1832 0.950 . S
H1824 C1834 0.950 . S
H1825 C1836 0.950 . S
H1826 C1838 0.950 . S
H1827 C1839 0.950 . S
C1828 H1820 0.950 . S
C1828 C1829 1.386 . S
C1828 C1830 1.391 . S
C1829 C1828 1.386 . S
C1829 C1833 1.393 . S
C1830 H1822 0.950 . S
C1830 C1828 1.391 . S
C1830 C1831 1.400 . S
C1831 C1830 1.400 . S
C1831 C1832 1.398 . S
C1831 C1837 1.491 . S
C1832 H1823 0.950 . S
C1832 C1831 1.398 . S
C1832 C1833 1.391 . S
C1833 H1821 0.950 . S
C1833 C1829 1.393 . S
C1833 C1832 1.391 . S
C1834 H1824 0.950 . S
C1834 C1835 1.386 . S
C1834 C1836 1.391 . S
C1835 C1834 1.386 . S
C1835 C1839 1.393 . S
C1836 H1825 0.950 . S
C1836 C1834 1.391 . S
C1836 C1837 1.400 . S
C1837 C1831 1.491 . S
C1837 C1836 1.400 . S
C1837 C1838 1.398 . S
C1838 H1826 0.950 . S
C1838 C1837 1.398 . S
C1838 C1839 1.391 . S
C1839 H1827 0.950 . S
C1839 C1835 1.393 . S
C1839 C1838 1.391 . S
H1840 C1848 0.950 . S
H1841 C1853 0.950 . S
H1842 C1850 0.950 . S
H1843 C1852 0.950 . S
H1844 C1854 0.950 . S
H1845 C1856 0.950 . S
H1846 C1858 0.950 . S
H1847 C1859 0.950 . S
C1848 H1840 0.950 . S
C1848 C1849 1.386 . S
C1848 C1850 1.391 . S
C1849 C1848 1.386 . S
C1849 C1853 1.393 . S
C1850 H1842 0.950 . S
C1850 C1848 1.391 . S
C1850 C1851 1.400 . S
C1851 C1850 1.400 . S
C1851 C1852 1.398 . S
C1851 C1857 1.491 . S
C1852 H1843 0.950 . S
C1852 C1851 1.398 . S
C1852 C1853 1.391 . S
C1853 H1841 0.950 . S
C1853 C1849 1.393 . S
C1853 C1852 1.391 . S
C1854 H1844 0.950 . S
C1854 C1855 1.386 . S
C1854 C1856 1.391 . S
C1855 C1854 1.386 . S
C1855 C1859 1.393 . S
C1856 H1845 0.950 . S
C1856 C1854 1.391 . S
C1856 C1857 1.400 . S
C1857 C1851 1.491 . S
C1857 C1856 1.400 . S
C1857 C1858 1.398 . S
C1858 H1846 0.950 . S
C1858 C1857 1.398 . S
C1858 C1859 1.391 . S
C1859 H1847 0.950 . S
C1859 C1855 1.393 . S
C1859 C1858 1.391 . S
H1860 C1868 0.950 . S
H1861 C1873 0.950 . S
H1862 C1870 0.950 . S
H1863 C1872 0.950 . S
H1864 C1874 0.950 . S
H1865 C1876 0.950 . S
H1866 C1878 0.950 . S
H1867 C1879 0.950 . S
C1868 H1860 0.950 . S
C1868 C1869 1.386 . S
C1868 C1870 1.391 . S
C1869 C1868 1.386 . S
C1869 C1873 1.393 . S
C1870 H1862 0.950 . S
C1870 C1868 1.391 . S
C1870 C1871 1.400 . S
C1871 C1870 1.400 . S
C1871 C1872 1.398 . S
C1871 C1877 1.491 . S
C1872 H1863 0.950 . S
C1872 C1871 1.398 . S
C1872 C1873 1.391 . S
C1873 H1861 0.950 . S
C1873 C1869 1.393 . S
C1873 C1872 1.391 . S
C1874 H1864 0.950 . S
C1874 C1875 1.386 . S
C1874 C1876 1.391 . S
C1875 C1874 1.386 . S
C1875 C1879 1.393 . S
C1876 H1865 0.950 . S
C1876 C1874 1.391 . S
C1876 C1877 1.400 . S
C1877 C1871 1.491 . S
C1877 C1876 1.400 . S
C1877 C1878 1.398 . S
C1878 H1866 0.950 . S
C1878 C1877 1.398 . S
C1878 C1879 1.391 . S
C1879 H1867 0.950 . S
C1879 C1875 1.393 . S
C1879 C1878 1.391 . S
H1880 C1888 0.950 . S
H1881 C1893 0.950 . S
H1882 C1890 0.950 . S
H1883 C1892 0.950 . S
H1884 C1894 0.950 . S
H1885 C1896 0.950 . S
H1886 C1898 0.950 . S
H1887 C1899 0.950 . S
C1888 H1880 0.950 . S
C1888 C1889 1.386 . S
C1888 C1890 1.391 . S
C1889 C1888 1.386 . S
C1889 C1893 1.393 . S
C1890 H1882 0.950 . S
C1890 C1888 1.391 . S
C1890 C1891 1.400 . S
C1891 C1890 1.400 . S
C1891 C1892 1.398 . S
C1891 C1897 1.491 . S
C1892 H1883 0.950 . S
C1892 C1891 1.398 . S
C1892 C1893 1.391 . S
C1893 H1881 0.950 . S
C1893 C1889 1.393 . S
C1893 C1892 1.391 . S
C1894 H1884 0.950 . S
C1894 C1895 1.386 . S
C1894 C1896 1.391 . S
C1895 C1894 1.386 . S
C1895 C1899 1.393 . S
C1896 H1885 0.950 . S
C1896 C1894 1.391 . S
C1896 C1897 1.400 . S
C1897 C1891 1.491 . S
C1897 C1896 1.400 . S
C1897 C1898 1.398 . S
C1898 H1886 0.950 . S
C1898 C1897 1.398 . S
C1898 C1899 1.391 . S
C1899 H1887 0.950 . S
C1899 C1895 1.393 . S
C1899 C1898 1.391 . S
H1900 C1908 0.950 . S
H1901 C1913 0.950 . S
H1902 C1910 0.950 . S
H1903 C1912 0.950 . S
H1904 C1914 0.950 . S
H1905 C1916 0.950 . S
H1906 C1918 0.950 . S
H1907 C1919 0.950 . S
C1908 H1900 0.950 . S
C1908 C1909 1.386 . S
C1908 C1910 1.391 . S
C1909 C1908 1.386 . S
C1909 C1913 1.393 . S
C1910 H1902 0.950 . S
C1910 C1908 1.391 . S
C1910 C1911 1.400 . S
C1911 C1910 1.400 . S
C1911 C1912 1.398 . S
C1911 C1917 1.491 . S
C1912 H1903 0.950 . S
C1912 C1911 1.398 . S
C1912 C1913 1.391 . S
C1913 H1901 0.950 . S
C1913 C1909 1.393 . S
C1913 C1912 1.391 . S
C1914 H1904 0.950 . S
C1914 C1915 1.386 . S
C1914 C1916 1.391 . S
C1915 C1914 1.386 . S
C1915 C1919 1.393 . S
C1916 H1905 0.950 . S
C1916 C1914 1.391 . S
C1916 C1917 1.400 . S
C1917 C1911 1.491 . S
C1917 C1916 1.400 . S
C1917 C1918 1.398 . S
C1918 H1906 0.950 . S
C1918 C1917 1.398 . S
C1918 C1919 1.391 . S
C1919 H1907 0.950 . S
C1919 C1915 1.393 . S
C1919 C1918 1.391 . S
H1920 C1928 0.950 . S
H1921 C1933 0.950 . S
H1922 C1930 0.950 . S
H1923 C1932 0.950 . S
H1924 C1934 0.950 . S
H1925 C1936 0.950 . S
H1926 C1938 0.950 . S
H1927 C1939 0.950 . S
C1928 H1920 0.950 . S
C1928 C1929 1.386 . S
C1928 C1930 1.391 . S
C1929 C1928 1.386 . S
C1929 C1933 1.393 . S
C1930 H1922 0.950 . S
C1930 C1928 1.391 . S
C1930 C1931 1.400 . S
C1931 C1930 1.400 . S
C1931 C1932 1.398 . S
C1931 C1937 1.491 . S
C1932 H1923 0.950 . S
C1932 C1931 1.398 . S
C1932 C1933 1.391 . S
C1933 H1921 0.950 . S
C1933 C1929 1.393 . S
C1933 C1932 1.391 . S
C1934 H1924 0.950 . S
C1934 C1935 1.386 . S
C1934 C1936 1.391 . S
C1935 C1934 1.386 . S
C1935 C1939 1.393 . S
C1936 H1925 0.950 . S
C1936 C1934 1.391 . S
C1936 C1937 1.400 . S
C1937 C1931 1.491 . S
C1937 C1936 1.400 . S
C1937 C1938 1.398 . S
C1938 H1926 0.950 . S
C1938 C1937 1.398 . S
C1938 C1939 1.391 . S
C1939 H1927 0.950 . S
C1939 C1935 1.393 . S
C1939 C1938 1.391 . S
H1940 C1948 0.950 . S
H1941 C1953 0.950 . S
H1942 C1950 0.950 . S
H1943 C1952 0.950 . S
H1944 C1954 0.950 . S
H1945 C1956 0.950 . S
H1946 C1958 0.950 . S
H1947 C1959 0.950 . S
C1948 H1940 0.950 . S
C1948 C1949 1.386 . S
C1948 C1950 1.391 . S
C1949 C1948 1.386 . S
C1949 C1953 1.393 . S
C1950 H1942 0.950 . S
C1950 C1948 1.391 . S
C1950 C1951 1.400 . S
C1951 C1950 1.400 . S
C1951 C1952 1.398 . S
C1951 C1957 1.491 . S
C1952 H1943 0.950 . S
C1952 C1951 1.398 . S
C1952 C1953 1.391 . S
C1953 H1941 0.950 . S
C1953 C1949 1.393 . S
C1953 C1952 1.391 . S
C1954 H1944 0.950 . S
C1954 C1955 1.386 . S
C1954 C1956 1.391 . S
C1955 C1954 1.386 . S
C1955 C1959 1.393 . S
C1956 H1945 0.950 . S
C1956 C1954 1.391 . S
C1956 C1957 1.400 . S
C1957 C1951 1.491 . S
C1957 C1956 1.400 . S
C1957 C1958 1.398 . S
C1958 H1946 0.950 . S
C1958 C1957 1.398 . S
C1958 C1959 1.391 . S
C1959 H1947 0.950 . S
C1959 C1955 1.393 . S
C1959 C1958 1.391 . S
H1960 C1968 0.950 . S
H1961 C1973 0.950 . S
H1962 C1970 0.950 . S
H1963 C1972 0.950 . S
H1964 C1974 0.950 . S
H1965 C1976 0.950 . S
H1966 C1978 0.950 . S
H1967 C1979 0.950 . S
C1968 H1960 0.950 . S
C1968 C1969 1.386 . S
C1968 C1970 1.391 . S
C1969 C1968 1.386 . S
C1969 C1973 1.393 . S
C1970 H1962 0.950 . S
C1970 C1968 1.391 . S
C1970 C1971 1.400 . S
C1971 C1970 1.400 . S
C1971 C1972 1.398 . S
C1971 C1977 1.491 . S
C1972 H1963 0.950 . S
C1972 C1971 1.398 . S
C1972 C1973 1.391 . S
C1973 H1961 0.950 . S
C1973 C1969 1.393 . S
C1973 C1972 1.391 . S
C1974 H1964 0.950 . S
C1974 C1975 1.386 . S
C1974 C1976 1.391 . S
C1975 C1974 1.386 . S
C1975 C1979 1.393 . S
C1976 H1965 0.950 . S
C1976 C1974 1.391 . S
C1976 C1977 1.400 . S
C1977 C1971 1.491 . S
C1977 C1976 1.400 . S
C1977 C1978 1.398 . S
C1978 H1966 0.950 . S
C1978 C1977 1.398 . S
C1978 C1979 1.391 . S
C1979 H1967 0.950 . S
C1979 C1975 1.393 . S
C1979 C1978 1.391 . S
C909 C522 1.592 . S
C915 C726 1.570 . S
C929 C562 1.537 . S
C935 C746 1.489 . S
C949 C495 1.592 . S
C955 C769 1.592 . S
C969 C455 1.477 . S
C975 C749 1.475 . S
C995 C766 1.423 . S
C989 C362 1.427 . S
C1009 C402 1.507 . S
C1015 C729 1.492 . S
C1035 C736 1.588 . S
C1029 C442 1.556 . S
C1055 C756 1.472 . S
C1049 C375 1.506 . S
C1069 C415 1.598 . S
C1075 C761 1.592 . S
C1089 C535 1.489 . S
C1095 C741 1.483 . S
C1109 C575 1.407 . S
C1115 C776 1.388 . S
C1135 C721 1.501 . S
C1129 C482 1.458 . S
C1155 C786 1.554 . S
C1149 C42 1.596 . S
C1169 C82 1.536 . S
C1175 C806 1.491 . S
C1189 C15 1.588 . S
C1195 C829 1.588 . S
C1209 C695 1.483 . S
C1215 C809 1.479 . S
C1229 C602 1.437 . S
C1235 C826 1.419 . S
C1249 C642 1.503 . S
C1255 C789 1.476 . S
C1269 C682 1.560 . S
C1275 C796 1.579 . S
C1289 C615 1.510 . S
C1295 C816 1.483 . S
C1315 C821 1.605 . S
C1309 C655 1.611 . S
C1329 C55 1.490 . S
C1335 C801 1.484 . S
C1355 C836 1.385 . S
C1349 C95 1.409 . S
C1369 C2 1.486 . S
C1375 C781 1.517 . S
C1395 C846 1.555 . S
C1389 C282 1.595 . S
C1409 C322 1.532 . S
C1415 C866 1.509 . S
C1435 C889 1.593 . S
C1429 C255 1.593 . S
C1455 C869 1.483 . S
C1449 C215 1.486 . S
C1475 C886 1.427 . S
C1469 C122 1.431 . S
C1489 C162 1.507 . S
C1495 C849 1.490 . S
C1509 C202 1.576 . S
C1515 C856 1.590 . S
C1529 C135 1.506 . S
C1535 C876 1.466 . S
C1555 C881 1.595 . S
C1549 C175 1.601 . S
C1569 C295 1.489 . S
C1575 C861 1.483 . S
C1589 C335 1.413 . S
C1595 C896 1.403 . S
C1609 C242 1.465 . S
C1615 C841 1.507 . S
C1629 C621 1.245 . S
C1635 C739 1.219 1_565 S
C1655 C759 1.644 . S
C1649 C661 1.730 . S
C1669 C701 1.519 . S
C1675 C768 1.508 . S
C1689 C261 1.691 . S
C1695 C748 1.672 1_655 S
C1709 C301 1.531 . S
C1715 C779 1.471 . S
C1735 C728 1.224 . S
C1729 C341 1.238 . S
C1749 C141 1.248 . S
C1755 C799 1.210 . S
C1769 C181 1.734 . S
C1775 C819 1.658 . S
C1789 C221 1.498 . S
C1795 C828 1.484 . S
C1809 C501 1.682 . S
C1815 C808 1.661 . S
C1835 C839 1.472 . S
C1829 C541 1.527 . S
C1849 C581 1.240 . S
C1855 C788 1.207 . S
C1869 C381 1.243 . S
C1875 C859 1.229 . S
C1889 C421 1.734 . S
C1895 C879 1.645 . S
C1915 C888 1.503 . S
C1909 C461 1.517 . S
C1929 C21 1.685 . S
C1935 C868 1.660 . S
C1949 C61 1.527 . S
C1955 C899 1.477 . S
C1969 C101 1.241 . S
C1975 C848 1.197 . S
