# Generated by pormake.
# Topology scu, (8,4)-cn, num edge types: 1
# Building blocks:
#     Node 0, Type 0, BuildingBlock: TAGTUT_clean_sbu_3, # of connection points: 8
#     Node 1, Type 1, BuildingBlock: NAWXER_clean_sbu_0, # of connection points: 4
#     Node 2, Type 1, BuildingBlock: NAWXER_clean_sbu_0, # of connection points: 4
#     Edge 3, Type (0, 1), BuildingBlock: XUDNAN_clean_linker_2, # of connection points: 2
#     Edge 4, Type (0, 1), BuildingBlock: XUDNAN_clean_linker_2, # of connection points: 2
#     Edge 5, Type (0, 1), BuildingBlock: XUDNAN_clean_linker_2, # of connection points: 2
#     Edge 6, Type (0, 1), BuildingBlock: XUDNAN_clean_linker_2, # of connection points: 2
#     Edge 7, Type (0, 1), BuildingBlock: XUDNAN_clean_linker_2, # of connection points: 2
#     Edge 8, Type (0, 1), BuildingBlock: XUDNAN_clean_linker_2, # of connection points: 2
#     Edge 9, Type (0, 1), BuildingBlock: XUDNAN_clean_linker_2, # of connection points: 2
#     Edge 10, Type (0, 1), BuildingBlock: XUDNAN_clean_linker_2, # of connection points: 2
# Relax obj value: 0.033
# Max RMSD: 0.097
# Mean RMSD: 0.065
data_MOF--net-scu--node1-TAGTUT_clean_sbu_3--node2-NAWXER_clean_sbu_0--edge1-XUDNAN_clean_linker_2
_symmetry_space_group_name_H-M    P1
_symmetry_Int_Tables_number       1
_symmetry_cell_setting            triclinic
loop_
_symmetry_equiv_pos_as_xyz
'x, y, z'
_cell_length_a     26.56534
_cell_length_b     22.759799
_cell_length_c     20.02106
_cell_angle_alpha  90.564573
_cell_angle_beta   91.229272
_cell_angle_gamma 89.718322
loop_
_atom_site_label
_atom_site_type_symbol
_atom_site_fract_x
_atom_site_fract_y
_atom_site_fract_z
_atom_type_partial_charge
C0 C 1.00892 0.88852 0.08757 0.0
C1 C 0.82634 0.97507 0.0706 0.0
C2 C 0.87271 0.03514 0.87684 0.0
Mg3 Mg 0.1137 0.93983 0.02754 0.0
Mg4 Mg 0.12384 0.07982 0.98564 0.0
O5 O 0.08834 0.00847 0.97478 0.0
Mg6 Mg 0.01662 0.00664 0.0017 0.0
O7 O 0.9451 0.00172 0.0286 0.0
Mg8 Mg 0.92487 0.92969 0.97647 0.0
Mg9 Mg 0.90256 0.06822 0.0214 0.0
C10 C 0.02511 0.12409 0.90773 0.0
O11 O 0.02688 0.08206 0.07752 0.0
O12 O 0.1892 0.95243 0.96961 0.0
O13 O 0.95369 0.13279 0.06965 0.0
O14 O 0.14504 -0.00209 0.11393 0.0
O15 O 0.19205 0.04824 0.9416 0.0
O16 O 0.14298 0.09359 0.09024 0.0
O17 O 1.00334 0.93183 0.92591 0.0
O18 O 0.07773 0.88673 0.94328 0.0
C19 C 0.03446 0.8896 0.91376 0.0
C20 C 0.21079 -0.00379 0.94183 0.0
O21 O 1.00108 0.07807 0.92482 0.0
O22 O 0.85003 0.93493 0.03767 0.0
O23 O 0.06998 0.13565 0.92966 0.0
O24 O 0.88687 0.98293 0.8914 0.0
O25 O 0.84091 0.02879 0.07255 0.0
O26 O 0.8777 0.07768 0.91846 0.0
O27 O 0.0354 0.93462 0.07717 0.0
O28 O 0.966 0.88087 0.05847 0.0
C29 C 0.15235 0.05164 0.13059 0.0
C30 C 0.99952 0.12705 0.09094 0.0
C31 C 0.03697 0.55891 0.59605 0.0
C32 C 0.08067 0.4147 0.42165 0.0
O33 O 0.08105 0.53766 0.58811 0.0
Zn34 Zn 0.06354 0.48541 0.51306 0.0
O35 O 1.00052 0.54155 0.55811 0.0
Zn36 Zn 0.98492 0.48393 0.47639 0.0
O37 O 0.93914 0.42727 0.51675 0.0
O38 O 1.01617 0.42629 0.56086 0.0
O39 O 0.03446 0.43036 0.4223 0.0
O40 O 0.11165 0.43481 0.46545 0.0
O41 O 0.04455 0.54935 0.44164 0.0
O42 O 0.96495 0.54112 0.40824 0.0
C43 C 0.97078 0.40786 0.55999 0.0
C44 C 1.00725 0.56728 0.40592 0.0
C45 C 0.59696 0.05192 0.55637 0.0
C46 C 0.43139 0.05692 0.44218 0.0
O47 O 0.57776 0.00105 0.5453 0.0
Zn48 Zn 0.51046 0.96299 0.50194 0.0
O49 O 0.57271 0.09793 0.53912 0.0
Zn50 Zn 0.51513 0.05704 0.49827 0.0
O51 O 0.481 0.0221 0.5855 0.0
O52 O 0.47951 0.92516 0.57762 0.0
O53 O 0.45989 0.10064 0.45428 0.0
O54 O 0.44651 0.00516 0.45745 0.0
O55 O 0.53832 0.91599 0.42966 0.0
O56 O 0.55027 0.01105 0.41749 0.0
C57 C 0.46945 0.97211 0.60975 0.0
C58 C 0.55701 0.95805 0.39709 0.0
H59 H 0.03937 0.1244 0.21787 0.0
H60 H 1.01213 0.23863 0.04905 0.0
H61 H 0.05153 0.32124 0.11185 0.0
H62 H 1.00197 0.22551 0.33688 0.0
H63 H 0.04703 0.2039 0.40076 0.0
H64 H 0.02705 0.15174 0.33787 0.0
H65 H 0.12007 0.1342 0.30772 0.0
H66 H 0.14063 0.18782 0.36912 0.0
H67 H 0.15841 0.19514 0.28326 0.0
H68 H 0.08485 0.39286 0.19486 0.0
H69 H 0.09415 0.45292 0.29743 0.0
H70 H 0.09386 0.29561 0.41694 0.0
C71 C 0.0427 0.1667 0.19408 0.0
C72 C 0.02316 0.17563 0.12882 0.0
C73 C 0.02693 0.23142 0.09918 0.0
C74 C 0.04982 0.27819 0.13414 0.0
C75 C 0.06835 0.26845 0.19887 0.0
C76 C 0.06429 0.21433 0.22907 0.0
C77 C 0.07965 0.21804 0.30247 0.0
C78 C 0.03634 0.19871 0.34709 0.0
C79 C 0.12756 0.18165 0.31643 0.0
C80 C 0.09017 0.28333 0.30969 0.0
C81 C 0.08564 0.31093 0.24852 0.0
C82 C 0.08953 0.37167 0.24276 0.0
C83 C 0.0953 0.40545 0.30121 0.0
C84 C 0.09638 0.37859 0.36456 0.0
C85 C 0.09548 0.31674 0.36881 0.0
H86 H 0.76406 0.04947 0.13876 0.0
H87 H 0.78809 0.86458 0.09383 0.0
H88 H 0.71734 0.83928 0.16664 0.0
H89 H 0.73851 0.03255 0.30869 0.0
H90 H 0.69163 0.09001 0.31078 0.0
H91 H 0.74139 0.093 0.2514 0.0
H92 H 0.67533 0.10019 0.15451 0.0
H93 H 0.62529 0.09718 0.21369 0.0
H94 H 0.62731 0.04479 0.14568 0.0
H95 H 0.64667 0.83471 0.25206 0.0
H96 H 0.58393 0.8516 0.34022 0.0
H97 H 0.60746 0.03957 0.32562 0.0
C98 C 0.75429 0.00358 0.14336 0.0
C99 C 0.78178 0.95906 0.11024 0.0
C100 C 0.76755 0.8996 0.11829 0.0
C101 C 0.72738 0.88479 0.15961 0.0
C102 C 0.70157 0.92993 0.19216 0.0
C103 C 0.71448 0.98814 0.18406 0.0
C104 C 0.68264 0.02853 0.22639 0.0
C105 C 0.7155 0.06302 0.27732 0.0
C106 C 0.65075 0.07011 0.18243 0.0
C107 C 0.65011 0.98406 0.26048 0.0
C108 C 0.66125 0.92736 0.24016 0.0
C109 C 0.63734 0.87903 0.26767 0.0
C110 C 0.60169 0.88903 0.31768 0.0
C111 C 0.59038 0.94691 0.33967 0.0
C112 C 0.61463 -0.00524 0.30965 0.0
H113 H 0.97205 0.77833 0.09524 0.0
H114 H 0.0801 0.89677 0.19015 0.0
H115 H 0.09388 0.82441 0.28085 0.0
H116 H 0.91313 0.73699 0.23879 0.0
H117 H 0.90247 0.66182 0.21327 0.0
H118 H 0.90686 0.71818 0.15133 0.0
H119 H 0.97895 0.66129 0.09366 0.0
H120 H 0.97414 0.60396 0.15459 0.0
H121 H 0.03371 0.63935 0.14215 0.0
H122 H 0.08955 0.74263 0.36499 0.0
H123 H 0.07111 0.65679 0.4343 0.0
H124 H 0.96164 0.59576 0.28568 0.0
C125 C 0.99936 0.78895 0.13441 0.0
C126 C 0.02494 0.84331 0.13593 0.0
C127 C 0.06041 0.85521 0.1879 0.0
C128 C 0.06821 0.81452 0.23961 0.0
C129 C 0.0404 0.76249 0.23787 0.0
C130 C 1.00709 0.74948 0.18614 0.0
C131 C 0.97927 0.69269 0.19746 0.0
C132 C 0.92206 0.70309 0.2004 0.0
C133 C 0.99232 0.64659 0.14379 0.0
C134 C 1.00109 0.67611 0.26487 0.0
C135 C 0.03676 0.7165 0.2869 0.0
C136 C 0.06201 0.71064 0.34796 0.0
C137 C 0.05114 0.66181 0.38693 0.0
C138 C 1.01485 0.61984 0.36516 0.0
C139 C 0.98914 0.62747 0.30367 0.0
H140 H 0.22921 0.12862 0.15677 0.0
H141 H 0.13648 -0.00319 0.2479 0.0
H142 H 0.1921 -0.00184 0.3481 0.0
H143 H 0.34046 0.06753 0.20062 0.0
H144 H 0.37526 0.13402 0.21756 0.0
H145 H 0.32199 0.13522 0.16074 0.0
H146 H 0.28025 0.21751 0.23074 0.0
H147 H 0.3338 0.21733 0.28769 0.0
H148 H 0.27129 0.20703 0.31879 0.0
H149 H 0.26476 -0.00228 0.42582 0.0
H150 H 0.3491 -0.00224 0.47923 0.0
H151 H 0.398 0.12955 0.34015 0.0
C152 C 0.21939 0.10234 0.19932 0.0
C153 C 0.17804 0.06346 0.19542 0.0
C154 C 0.16756 0.02747 0.25051 0.0
C155 C 0.19892 0.02805 0.30762 0.0
C156 C 0.24083 0.06471 0.30882 0.0
C157 C 0.251 0.10173 0.25649 0.0
C158 C 0.30226 0.13033 0.26647 0.0
C159 C 0.33701 0.11587 0.20788 0.0
C160 C 0.29656 0.19702 0.27654 0.0
C161 C 0.32049 0.10097 0.33044 0.0
C162 C 0.28386 0.0642 0.35449 0.0
C163 C 0.29324 0.02745 0.40856 0.0
C164 C 0.34137 0.0275 0.43829 0.0
C165 C 0.37976 0.0641 0.41424 0.0
C166 C 0.36887 0.10233 0.36054 0.0
H167 H 0.10105 0.81404 0.85791 0.0
H168 H 0.942 0.85936 0.85723 0.0
H169 H 0.92505 0.77678 0.77797 0.0
H170 H 0.10809 0.77611 0.68499 0.0
H171 H 0.15264 0.71734 0.69925 0.0
H172 H 0.15132 0.77944 0.75557 0.0
H173 H 0.13913 0.70931 0.85509 0.0
H174 H 0.14 0.64693 0.79909 0.0
H175 H 0.08727 0.65849 0.85293 0.0
H176 H 0.92644 0.68808 0.70089 0.0
H177 H 0.94519 0.60496 0.62608 0.0
H178 H 0.10438 0.61963 0.67756 0.0
C179 C 0.06244 0.80681 0.84149 0.0
C180 C 0.02264 0.84289 0.8642 0.0
C181 C 0.97296 0.83223 0.84049 0.0
C182 C 0.96308 0.78537 0.7958 0.0
C183 C 1.00336 0.75023 0.7754 0.0
C184 C 0.05208 0.76085 0.79714 0.0
C185 C 0.08906 0.71773 0.76721 0.0
C186 C 0.12753 0.74957 0.72419 0.0
C187 C 0.1154 0.68094 0.82185 0.0
C188 C 0.05359 0.6807 0.72481 0.0
C189 C 1.00432 0.69996 0.73055 0.0
C190 C 0.96485 0.67282 0.69595 0.0
C191 C 0.97606 0.6255 0.65357 0.0
C192 C 0.02645 0.60574 0.64572 0.0
C193 C 0.06557 0.63345 0.68258 0.0
H194 H 0.23684 0.91598 0.8446 0.0
H195 H 0.29385 0.06132 0.96496 0.0
H196 H 0.3727 0.05979 0.90214 0.0
H197 H 0.3616 0.84046 0.81608 0.0
H198 H 0.34484 0.82224 0.73067 0.0
H199 H 0.29675 0.82682 0.79274 0.0
H200 H 0.24788 0.9025 0.72035 0.0
H201 H 0.29576 0.89839 0.6583 0.0
H202 H 0.27918 0.96842 0.69469 0.0
H203 H 0.4385 0.05338 0.81821 0.0
H204 H 0.48825 0.04289 0.71627 0.0
H205 H 0.39081 0.90172 0.64673 0.0
C206 C 0.26685 0.94585 0.85903 0.0
C207 C 0.25999 0.98809 0.91029 0.0
C208 C 0.29891 0.02827 0.92632 0.0
C209 C 0.34381 0.02758 0.89107 0.0
C210 C 0.34912 0.98662 0.83954 0.0
C211 C 0.31188 0.94631 0.82339 0.0
C212 C 0.32494 0.91197 0.76054 0.0
C213 C 0.33249 0.84647 0.77595 0.0
C214 C 0.28454 0.92089 0.70523 0.0
C215 C 0.37436 0.9407 0.74286 0.0
C216 C 0.38776 0.98307 0.78984 0.0
C217 C 0.4291 0.0195 0.78182 0.0
C218 C 0.45703 0.01336 0.72371 0.0
C219 C 0.44377 0.97095 0.67438 0.0
C220 C 0.40255 0.93327 0.68472 0.0
H221 H 0.04519 0.24014 0.8866 0.0
H222 H 0.95168 0.09616 0.81533 0.0
H223 H 0.91495 0.15957 0.72753 0.0
H224 H 0.95333 0.36072 0.84725 0.0
H225 H 1.00292 0.40895 0.82206 0.0
H226 H 1.01502 0.35516 0.88601 0.0
H227 H 0.08921 0.31282 0.81808 0.0
H228 H 0.07747 0.36647 0.75441 0.0
H229 H 0.07802 0.2894 0.73276 0.0
H230 H 0.89784 0.23519 0.6369 0.0
H231 H 0.90465 0.3142 0.55258 0.0
H232 H 1.00853 0.40722 0.68519 0.0
C233 C 0.01628 0.22235 0.85333 0.0
C234 C 1.00072 0.16356 0.85842 0.0
C235 C 0.96317 0.14162 0.81346 0.0
C236 C 0.9422 0.17728 0.76321 0.0
C237 C 0.95893 0.23498 0.75885 0.0
C238 C 0.99492 0.25739 0.80315 0.0
C239 C 1.01013 0.31875 0.78444 0.0
C240 C 0.99439 0.36354 0.83814 0.0
C241 C 0.06704 0.32199 0.77163 0.0
C242 C 0.97924 0.32618 0.72081 0.0
C243 C 0.94905 0.27813 0.70718 0.0
C244 C 0.9206 0.27358 0.6477 0.0
C245 C 0.92446 0.31855 0.6002 0.0
C246 C 0.95709 0.36646 0.61262 0.0
C247 C 0.98319 0.37099 0.67456 0.0
H248 H 0.79712 0.11441 0.84823 0.0
H249 H 0.88561 0.97373 0.76121 0.0
H250 H 0.83063 0.97483 0.66052 0.0
H251 H 0.68269 0.05992 0.80134 0.0
H252 H 0.65198 0.12882 0.78272 0.0
H253 H 0.704 0.12681 0.84156 0.0
H254 H 0.75145 0.2038 0.77273 0.0
H255 H 0.69925 0.20659 0.71371 0.0
H256 H 0.76175 0.19033 0.6852 0.0
H257 H 0.75902 0.97749 0.58054 0.0
H258 H 0.67615 0.98409 0.52327 0.0
H259 H 0.63212 0.12395 0.65873 0.0
C260 C 0.80604 0.08559 0.80675 0.0
C261 C 0.84592 0.04434 0.81217 0.0
C262 C 0.85544 0.00585 0.75791 0.0
C263 C 0.82449 0.00631 0.70041 0.0
C264 C 0.78415 0.04564 0.69771 0.0
C265 C 0.77503 0.0851 0.74902 0.0
C266 C 0.72566 0.11771 0.73677 0.0
C267 C 0.68894 0.10768 0.79399 0.0
C268 C 0.7351 0.18353 0.72647 0.0
C269 C 0.70732 0.08829 0.67239 0.0
C270 C 0.7422 0.04751 0.65038 0.0
C271 C 0.732 0.0103 0.5962 0.0
C272 C 0.68476 0.01415 0.56421 0.0
C273 C 0.64824 0.05506 0.58607 0.0
C274 C 0.66002 0.09351 0.63996 0.0
loop_
_geom_bond_atom_site_label_1
_geom_bond_atom_site_label_2
_geom_bond_distance
_geom_bond_site_symmetry_2
_ccdc_geom_bond_type
C0 O27 1.312 1_655 S
C0 O28 1.208 . S
C1 O22 1.331 . S
C1 O25 1.244 1_565 S
C2 O24 1.264 1_545 S
C2 O26 1.273 . S
Mg3 O5 1.936 1_565 S
Mg3 O12 2.081 . S
Mg3 O14 2.023 1_556 S
Mg3 O18 2.031 . S
Mg3 O27 2.291 1_556 S
Mg4 O5 1.963 . S
Mg4 O15 1.942 . S
Mg4 O16 1.955 1_556 S
Mg4 O23 1.986 . S
O5 Mg3 1.936 1_545 S
O5 Mg4 1.963 . S
O5 Mg6 1.915 1_556 S
Mg6 O5 1.915 1_554 S
Mg6 O7 1.915 1_455 S
Mg6 O11 2.013 . S
Mg6 O17 2.114 1_444 S
Mg6 O21 2.013 1_454 S
Mg6 O27 2.114 1_545 S
O7 Mg6 1.915 1_655 S
O7 Mg8 1.936 1_545 S
O7 Mg9 1.963 . S
Mg8 O7 1.936 1_565 S
Mg8 O17 2.291 1_554 S
Mg8 O22 2.081 . S
Mg8 O24 2.023 1_554 S
Mg8 O28 2.031 . S
Mg9 O7 1.963 . S
Mg9 O13 1.986 . S
Mg9 O25 1.942 . S
Mg9 O26 1.955 1_554 S
C10 O21 1.191 1_455 S
C10 O23 1.307 . S
O11 Mg6 2.013 . S
O11 C30 1.191 1_455 S
O12 Mg3 2.081 . S
O12 C20 1.331 . S
O13 Mg9 1.986 . S
O13 C30 1.307 . S
O14 Mg3 2.023 1_554 S
O14 C29 1.264 1_565 S
O15 Mg4 1.942 . S
O15 C20 1.244 1_545 S
O16 Mg4 1.955 1_554 S
O16 C29 1.273 . S
O17 Mg6 2.114 1_666 S
O17 Mg8 2.291 1_556 S
O17 C19 1.312 1_655 S
O18 Mg3 2.031 . S
O18 C19 1.208 . S
C19 O17 1.312 1_455 S
C19 O18 1.208 . S
C20 O12 1.331 . S
C20 O15 1.244 1_565 S
O21 Mg6 2.013 1_656 S
O21 C10 1.191 1_655 S
O22 C1 1.331 . S
O22 Mg8 2.081 . S
O23 Mg4 1.986 . S
O23 C10 1.307 . S
O24 C2 1.264 1_565 S
O24 Mg8 2.023 1_556 S
O25 C1 1.244 1_545 S
O25 Mg9 1.942 . S
O26 C2 1.273 . S
O26 Mg9 1.955 1_556 S
O27 C0 1.312 1_455 S
O27 Mg3 2.291 1_554 S
O27 Mg6 2.114 1_565 S
O28 C0 1.208 . S
O28 Mg8 2.031 . S
C29 O14 1.264 1_545 S
C29 O16 1.273 . S
C30 O11 1.191 1_655 S
C30 O13 1.307 . S
C31 O33 1.251 . S
C31 O35 1.254 1_455 S
C32 O39 1.246 . S
C32 O40 1.259 1_655 S
O33 C31 1.251 . S
O33 Zn34 2.028 . S
Zn34 O33 2.028 . S
Zn34 O38 2.035 . S
Zn34 O40 2.035 . S
Zn34 O41 2.028 . S
O35 C31 1.254 1_655 S
O35 Zn36 2.035 . S
Zn36 O35 2.035 . S
Zn36 O37 2.028 . S
Zn36 O39 2.028 . S
Zn36 O42 2.035 . S
O37 Zn36 2.028 . S
O37 C43 1.246 . S
O38 Zn34 2.035 . S
O38 C43 1.259 1_455 S
O39 C32 1.246 . S
O39 Zn36 2.028 . S
O40 C32 1.259 1_455 S
O40 Zn34 2.035 . S
O41 Zn34 2.028 . S
O41 C44 1.251 . S
O42 Zn36 2.035 . S
O42 C44 1.253 1_655 S
C43 O37 1.246 . S
C43 O38 1.259 1_655 S
C44 O41 1.251 . S
C44 O42 1.253 1_455 S
C45 O47 1.247 1_545 S
C45 O49 1.258 . S
C46 O53 1.247 . S
C46 O54 1.258 1_545 S
O47 C45 1.247 1_565 S
O47 Zn48 2.028 . S
Zn48 O47 2.028 . S
Zn48 O52 2.035 . S
Zn48 O54 2.035 . S
Zn48 O55 2.028 . S
O49 C45 1.258 . S
O49 Zn50 2.035 . S
Zn50 O49 2.035 . S
Zn50 O51 2.028 . S
Zn50 O53 2.028 . S
Zn50 O56 2.035 . S
O51 Zn50 2.028 . S
O51 C57 1.247 . S
O52 Zn48 2.035 . S
O52 C57 1.258 1_565 S
O53 C46 1.247 . S
O53 Zn50 2.028 . S
O54 C46 1.258 1_565 S
O54 Zn48 2.035 . S
O55 Zn48 2.028 . S
O55 C58 1.247 1_565 S
O56 Zn50 2.035 . S
O56 C58 1.258 . S
C57 O51 1.247 . S
C57 O52 1.258 1_545 S
C58 O55 1.247 1_545 S
C58 O56 1.258 . S
H59 C71 0.930 . S
H60 C73 0.930 . S
H61 C74 0.930 . S
H62 C78 0.959 . S
H63 C78 0.959 . S
H64 C78 0.961 . S
H65 C79 0.960 . S
H66 C79 0.961 . S
H67 C79 0.959 . S
H68 C82 0.929 . S
H69 C83 0.931 . S
H70 C85 0.930 . S
C71 H59 0.930 . S
C71 C72 1.399 1_455 S
C71 C76 1.399 . S
C72 C71 1.399 1_655 S
C72 C73 1.376 . S
C73 H60 0.930 . S
C73 C72 1.376 . S
C73 C74 1.388 . S
C74 H61 0.930 . S
C74 C73 1.388 . S
C74 C75 1.390 . S
C75 C74 1.390 . S
C75 C76 1.394 1_655 S
C75 C81 1.465 . S
C76 C71 1.399 . S
C76 C75 1.394 1_455 S
C76 C77 1.516 . S
C77 C76 1.516 . S
C77 C78 1.502 . S
C77 C79 1.561 . S
C77 C80 1.526 . S
C78 H62 0.959 . S
C78 H63 0.959 . S
C78 H64 0.961 . S
C78 C77 1.502 . S
C79 H65 0.960 . S
C79 H66 0.961 . S
C79 H67 0.959 . S
C79 C77 1.561 . S
C80 C77 1.526 . S
C80 C81 1.396 1_455 S
C80 C85 1.390 . S
C81 C75 1.465 . S
C81 C80 1.396 1_655 S
C81 C82 1.399 . S
C82 H68 0.929 . S
C82 C81 1.399 . S
C82 C83 1.385 . S
C83 H69 0.931 . S
C83 C82 1.385 . S
C83 C84 1.389 . S
C84 C83 1.389 . S
C84 C85 1.387 1_655 S
C85 H70 0.930 . S
C85 C80 1.390 . S
C85 C84 1.387 1_455 S
H86 C98 0.930 . S
H87 C100 0.930 . S
H88 C101 0.930 . S
H89 C105 0.959 1_565 S
H90 C105 0.959 . S
H91 C105 0.961 . S
H92 C106 0.960 . S
H93 C106 0.961 . S
H94 C106 0.959 . S
H95 C109 0.929 . S
H96 C110 0.931 . S
H97 C112 0.930 . S
C98 H86 0.930 . S
C98 C99 1.399 1_545 S
C98 C103 1.399 . S
C99 C98 1.399 1_565 S
C99 C100 1.376 . S
C100 H87 0.930 . S
C100 C99 1.376 . S
C100 C101 1.388 . S
C101 H88 0.930 . S
C101 C100 1.388 . S
C101 C102 1.390 . S
C102 C101 1.390 . S
C102 C103 1.394 1_565 S
C102 C108 1.465 . S
C103 C98 1.399 . S
C103 C102 1.394 1_545 S
C103 C104 1.516 . S
C104 C103 1.516 . S
C104 C105 1.502 . S
C104 C106 1.561 . S
C104 C107 1.526 . S
C105 H89 0.959 1_545 S
C105 H90 0.959 . S
C105 H91 0.961 . S
C105 C104 1.502 . S
C106 H92 0.960 . S
C106 H93 0.961 . S
C106 H94 0.959 . S
C106 C104 1.561 . S
C107 C104 1.526 . S
C107 C108 1.396 1_545 S
C107 C112 1.390 . S
C108 C102 1.465 . S
C108 C107 1.396 1_565 S
C108 C109 1.399 . S
C109 H95 0.929 . S
C109 C108 1.399 . S
C109 C110 1.385 . S
C110 H96 0.931 . S
C110 C109 1.385 . S
C110 C111 1.390 1_565 S
C111 C110 1.390 1_545 S
C111 C112 1.386 . S
C112 H97 0.930 . S
C112 C107 1.390 . S
C112 C111 1.386 . S
H113 C125 0.930 . S
H114 C127 0.930 . S
H115 C128 0.930 . S
H116 C132 0.959 . S
H117 C132 0.959 . S
H118 C132 0.961 . S
H119 C133 0.960 . S
H120 C133 0.961 . S
H121 C133 0.959 . S
H122 C136 0.929 . S
H123 C137 0.931 . S
H124 C139 0.930 . S
C125 H113 0.930 . S
C125 C126 1.399 1_455 S
C125 C130 1.399 . S
C126 C125 1.399 1_655 S
C126 C127 1.376 . S
C127 H114 0.930 . S
C127 C126 1.376 . S
C127 C128 1.388 . S
C128 H115 0.930 . S
C128 C127 1.388 . S
C128 C129 1.390 . S
C129 C128 1.390 . S
C129 C130 1.394 1_655 S
C129 C135 1.465 . S
C130 C125 1.399 . S
C130 C129 1.394 1_455 S
C130 C131 1.516 . S
C131 C130 1.516 . S
C131 C132 1.502 . S
C131 C133 1.561 . S
C131 C134 1.526 . S
C132 H116 0.959 . S
C132 H117 0.959 . S
C132 H118 0.961 . S
C132 C131 1.502 . S
C133 H119 0.960 . S
C133 H120 0.961 . S
C133 H121 0.959 . S
C133 C131 1.561 . S
C134 C131 1.526 . S
C134 C135 1.396 1_455 S
C134 C139 1.390 . S
C135 C129 1.465 . S
C135 C134 1.396 1_655 S
C135 C136 1.399 . S
C136 H122 0.929 . S
C136 C135 1.399 . S
C136 C137 1.385 . S
C137 H123 0.931 . S
C137 C136 1.385 . S
C137 C138 1.389 . S
C138 C137 1.389 . S
C138 C139 1.387 1_655 S
C139 H124 0.930 . S
C139 C134 1.390 . S
C139 C138 1.387 1_455 S
H140 C152 0.930 . S
H141 C154 0.930 . S
H142 C155 0.930 . S
H143 C159 0.959 . S
H144 C159 0.959 . S
H145 C159 0.961 . S
H146 C160 0.960 . S
H147 C160 0.961 . S
H148 C160 0.959 . S
H149 C163 0.929 . S
H150 C164 0.931 . S
H151 C166 0.930 . S
C152 H140 0.930 . S
C152 C153 1.399 . S
C152 C157 1.399 . S
C153 C152 1.399 . S
C153 C154 1.376 1_545 S
C154 H141 0.930 . S
C154 C153 1.376 1_565 S
C154 C155 1.388 . S
C155 H142 0.930 . S
C155 C154 1.388 . S
C155 C156 1.390 . S
C156 C155 1.390 . S
C156 C157 1.394 1_565 S
C156 C162 1.465 . S
C157 C152 1.399 . S
C157 C156 1.394 1_545 S
C157 C158 1.516 . S
C158 C157 1.516 . S
C158 C159 1.502 . S
C158 C160 1.561 . S
C158 C161 1.526 . S
C159 H143 0.959 . S
C159 H144 0.959 . S
C159 H145 0.961 . S
C159 C158 1.502 . S
C160 H146 0.960 . S
C160 H147 0.961 . S
C160 H148 0.959 . S
C160 C158 1.561 . S
C161 C158 1.526 . S
C161 C162 1.396 1_545 S
C161 C166 1.390 . S
C162 C156 1.465 . S
C162 C161 1.396 1_565 S
C162 C163 1.399 . S
C163 H149 0.929 . S
C163 C162 1.399 . S
C163 C164 1.385 . S
C164 H150 0.931 . S
C164 C163 1.385 . S
C164 C165 1.405 . S
C165 C164 1.405 . S
C165 C166 1.373 1_565 S
C166 H151 0.930 . S
C166 C161 1.390 . S
C166 C165 1.373 1_545 S
H167 C179 0.930 . S
H168 C181 0.930 . S
H169 C182 0.930 . S
H170 C186 0.959 . S
H171 C186 0.959 . S
H172 C186 0.961 . S
H173 C187 0.960 . S
H174 C187 0.961 . S
H175 C187 0.959 . S
H176 C190 0.929 . S
H177 C191 0.931 . S
H178 C193 0.930 . S
C179 H167 0.930 . S
C179 C180 1.399 1_455 S
C179 C184 1.399 . S
C180 C179 1.399 1_655 S
C180 C181 1.376 . S
C181 H168 0.930 . S
C181 C180 1.376 . S
C181 C182 1.388 . S
C182 H169 0.930 . S
C182 C181 1.388 . S
C182 C183 1.393 . S
C183 C182 1.393 . S
C183 C184 1.391 1_655 S
C183 C189 1.465 . S
C184 C179 1.399 . S
C184 C183 1.391 1_455 S
C184 C185 1.516 . S
C185 C184 1.516 . S
C185 C186 1.502 1_455 S
C185 C187 1.561 . S
C185 C188 1.526 . S
C186 H170 0.959 . S
C186 H171 0.959 . S
C186 H172 0.961 . S
C186 C185 1.502 1_655 S
C187 H173 0.960 . S
C187 H174 0.961 . S
C187 H175 0.959 . S
C187 C185 1.561 . S
C188 C185 1.526 . S
C188 C189 1.396 1_455 S
C188 C193 1.390 . S
C189 C183 1.465 . S
C189 C188 1.396 1_655 S
C189 C190 1.399 . S
C190 H176 0.929 . S
C190 C189 1.399 . S
C190 C191 1.385 . S
C191 H177 0.931 . S
C191 C190 1.385 . S
C191 C192 1.391 . S
C192 C191 1.391 . S
C192 C193 1.385 1_655 S
C193 H178 0.930 . S
C193 C188 1.390 . S
C193 C192 1.385 1_455 S
H194 C206 0.930 . S
H195 C208 0.930 . S
H196 C209 0.930 . S
H197 C213 0.959 . S
H198 C213 0.959 . S
H199 C213 0.961 . S
H200 C214 0.960 . S
H201 C214 0.961 . S
H202 C214 0.959 . S
H203 C217 0.929 . S
H204 C218 0.931 . S
H205 C220 0.930 . S
C206 H194 0.930 . S
C206 C207 1.399 . S
C206 C211 1.399 . S
C207 C206 1.399 . S
C207 C208 1.376 1_565 S
C208 H195 0.930 . S
C208 C207 1.376 1_545 S
C208 C209 1.388 . S
C209 H196 0.930 . S
C209 C208 1.388 . S
C209 C210 1.390 . S
C210 C209 1.390 . S
C210 C211 1.394 1_545 S
C210 C216 1.465 . S
C211 C206 1.399 . S
C211 C210 1.394 1_565 S
C211 C212 1.516 . S
C212 C211 1.516 . S
C212 C213 1.502 . S
C212 C214 1.561 . S
C212 C215 1.526 . S
C213 H197 0.959 . S
C213 H198 0.959 . S
C213 H199 0.961 . S
C213 C212 1.502 . S
C214 H200 0.960 . S
C214 H201 0.961 . S
C214 H202 0.959 . S
C214 C212 1.561 . S
C215 C212 1.526 . S
C215 C216 1.396 1_565 S
C215 C220 1.390 . S
C216 C210 1.465 . S
C216 C215 1.396 1_545 S
C216 C217 1.399 . S
C217 H203 0.929 . S
C217 C216 1.399 . S
C217 C218 1.385 . S
C218 H204 0.931 . S
C218 C217 1.385 . S
C218 C219 1.389 . S
C219 C218 1.389 . S
C219 C220 1.387 1_545 S
C220 H205 0.930 . S
C220 C215 1.390 . S
C220 C219 1.387 1_565 S
H221 C233 0.930 . S
H222 C235 0.930 . S
H223 C236 0.930 . S
H224 C240 0.959 . S
H225 C240 0.959 . S
H226 C240 0.961 . S
H227 C241 0.960 . S
H228 C241 0.961 . S
H229 C241 0.959 . S
H230 C244 0.929 . S
H231 C245 0.931 . S
H232 C247 0.930 . S
C233 H221 0.930 . S
C233 C234 1.399 1_655 S
C233 C238 1.399 1_655 S
C234 C233 1.399 1_455 S
C234 C235 1.376 . S
C235 H222 0.930 . S
C235 C234 1.376 . S
C235 C236 1.388 . S
C236 H223 0.930 . S
C236 C235 1.388 . S
C236 C237 1.390 . S
C237 C236 1.390 . S
C237 C238 1.393 . S
C237 C243 1.465 . S
C238 C233 1.399 1_455 S
C238 C237 1.393 . S
C238 C239 1.516 1_455 S
C239 C238 1.516 1_655 S
C239 C240 1.502 . S
C239 C241 1.561 1_655 S
C239 C242 1.527 . S
C240 H224 0.959 . S
C240 H225 0.959 . S
C240 H226 0.961 . S
C240 C239 1.502 . S
C241 H227 0.960 . S
C241 H228 0.961 . S
C241 H229 0.959 . S
C241 C239 1.561 1_455 S
C242 C239 1.527 . S
C242 C243 1.394 1_655 S
C242 C247 1.390 . S
C243 C237 1.465 . S
C243 C242 1.394 1_455 S
C243 C244 1.399 . S
C244 H230 0.929 . S
C244 C243 1.399 . S
C244 C245 1.385 . S
C245 H231 0.931 . S
C245 C244 1.385 . S
C245 C246 1.389 . S
C246 C245 1.389 . S
C246 C247 1.387 1_455 S
C247 H232 0.930 . S
C247 C242 1.390 . S
C247 C246 1.387 1_655 S
H248 C260 0.930 . S
H249 C262 0.930 . S
H250 C263 0.930 . S
H251 C267 0.959 . S
H252 C267 0.959 . S
H253 C267 0.961 . S
H254 C268 0.960 . S
H255 C268 0.961 . S
H256 C268 0.959 . S
H257 C271 0.929 . S
H258 C272 0.931 . S
H259 C274 0.930 . S
C260 H248 0.930 . S
C260 C261 1.399 . S
C260 C265 1.399 . S
C261 C260 1.399 . S
C261 C262 1.376 1_545 S
C262 H249 0.930 . S
C262 C261 1.376 1_565 S
C262 C263 1.388 . S
C263 H250 0.930 . S
C263 C262 1.388 . S
C263 C264 1.390 . S
C264 C263 1.390 . S
C264 C265 1.394 1_565 S
C264 C270 1.465 . S
C265 C260 1.399 . S
C265 C264 1.394 1_545 S
C265 C266 1.516 . S
C266 C265 1.516 . S
C266 C267 1.502 . S
C266 C268 1.561 . S
C266 C269 1.526 . S
C267 H251 0.959 . S
C267 H252 0.959 . S
C267 H253 0.961 . S
C267 C266 1.502 . S
C268 H254 0.960 . S
C268 H255 0.961 . S
C268 H256 0.959 . S
C268 C266 1.561 . S
C269 C266 1.526 . S
C269 C270 1.396 1_545 S
C269 C274 1.390 . S
C270 C264 1.465 . S
C270 C269 1.396 1_565 S
C270 C271 1.399 . S
C271 H257 0.929 . S
C271 C270 1.399 . S
C271 C272 1.385 . S
C272 H258 0.931 . S
C272 C271 1.385 . S
C272 C273 1.405 . S
C273 C272 1.405 . S
C273 C274 1.373 1_565 S
C274 H259 0.930 . S
C274 C269 1.390 . S
C274 C273 1.373 1_545 S
C72 C30 1.301 . S
C84 C32 1.364 . S
C99 C1 1.471 . S
C111 C58 1.517 . S
C126 C0 1.300 . S
C138 C44 1.381 1_655 S
C153 C29 1.543 . S
C165 C46 1.564 1_565 S
C180 C19 1.287 1_655 S
C192 C31 1.378 1_655 S
C207 C20 1.500 . S
C219 C57 1.525 . S
C246 C43 1.375 1_455 S
C234 C10 1.340 . S
C261 C2 1.543 . S
C273 C45 1.566 1_565 S
