# Generated by pormake.
# Topology gar, (4,6)-cn, num edge types: 1
# Building blocks:
#     Node 0, Type 0, BuildingBlock: UXUYUI_clean_sbu_0, # of connection points: 4
#     Node 1, Type 0, BuildingBlock: UXUYUI_clean_sbu_0, # of connection points: 4
#     Node 2, Type 0, BuildingBlock: UXUYUI_clean_sbu_0, # of connection points: 4
#     Node 3, Type 0, BuildingBlock: UXUYUI_clean_sbu_0, # of connection points: 4
#     Node 4, Type 0, BuildingBlock: UXUYUI_clean_sbu_0, # of connection points: 4
#     Node 5, Type 0, BuildingBlock: UXUYUI_clean_sbu_0, # of connection points: 4
#     Node 6, Type 0, BuildingBlock: UXUYUI_clean_sbu_0, # of connection points: 4
#     Node 7, Type 0, BuildingBlock: UXUYUI_clean_sbu_0, # of connection points: 4
#     Node 8, Type 0, BuildingBlock: UXUYUI_clean_sbu_0, # of connection points: 4
#     Node 9, Type 0, BuildingBlock: UXUYUI_clean_sbu_0, # of connection points: 4
#     Node 10, Type 0, BuildingBlock: UXUYUI_clean_sbu_0, # of connection points: 4
#     Node 11, Type 0, BuildingBlock: UXUYUI_clean_sbu_0, # of connection points: 4
#     Node 12, Type 0, BuildingBlock: UXUYUI_clean_sbu_0, # of connection points: 4
#     Node 13, Type 0, BuildingBlock: UXUYUI_clean_sbu_0, # of connection points: 4
#     Node 14, Type 0, BuildingBlock: UXUYUI_clean_sbu_0, # of connection points: 4
#     Node 15, Type 0, BuildingBlock: UXUYUI_clean_sbu_0, # of connection points: 4
#     Node 16, Type 0, BuildingBlock: UXUYUI_clean_sbu_0, # of connection points: 4
#     Node 17, Type 0, BuildingBlock: UXUYUI_clean_sbu_0, # of connection points: 4
#     Node 18, Type 0, BuildingBlock: UXUYUI_clean_sbu_0, # of connection points: 4
#     Node 19, Type 0, BuildingBlock: UXUYUI_clean_sbu_0, # of connection points: 4
#     Node 20, Type 0, BuildingBlock: UXUYUI_clean_sbu_0, # of connection points: 4
#     Node 21, Type 0, BuildingBlock: UXUYUI_clean_sbu_0, # of connection points: 4
#     Node 22, Type 0, BuildingBlock: UXUYUI_clean_sbu_0, # of connection points: 4
#     Node 23, Type 0, BuildingBlock: UXUYUI_clean_sbu_0, # of connection points: 4
#     Node 24, Type 1, BuildingBlock: MIFKUJ_clean_sbu_0, # of connection points: 6
#     Node 25, Type 1, BuildingBlock: MIFKUJ_clean_sbu_0, # of connection points: 6
#     Node 26, Type 1, BuildingBlock: MIFKUJ_clean_sbu_0, # of connection points: 6
#     Node 27, Type 1, BuildingBlock: MIFKUJ_clean_sbu_0, # of connection points: 6
#     Node 28, Type 1, BuildingBlock: MIFKUJ_clean_sbu_0, # of connection points: 6
#     Node 29, Type 1, BuildingBlock: MIFKUJ_clean_sbu_0, # of connection points: 6
#     Node 30, Type 1, BuildingBlock: MIFKUJ_clean_sbu_0, # of connection points: 6
#     Node 31, Type 1, BuildingBlock: MIFKUJ_clean_sbu_0, # of connection points: 6
#     Node 32, Type 1, BuildingBlock: MIFKUJ_clean_sbu_0, # of connection points: 6
#     Node 33, Type 1, BuildingBlock: MIFKUJ_clean_sbu_0, # of connection points: 6
#     Node 34, Type 1, BuildingBlock: MIFKUJ_clean_sbu_0, # of connection points: 6
#     Node 35, Type 1, BuildingBlock: MIFKUJ_clean_sbu_0, # of connection points: 6
#     Node 36, Type 1, BuildingBlock: MIFKUJ_clean_sbu_0, # of connection points: 6
#     Node 37, Type 1, BuildingBlock: MIFKUJ_clean_sbu_0, # of connection points: 6
#     Node 38, Type 1, BuildingBlock: MIFKUJ_clean_sbu_0, # of connection points: 6
#     Node 39, Type 1, BuildingBlock: MIFKUJ_clean_sbu_0, # of connection points: 6
#     Edge 40, Type (0, 1), BuildingBlock: OJICUG_clean_linker_0, # of connection points: 2
#     Edge 41, Type (0, 1), BuildingBlock: OJICUG_clean_linker_0, # of connection points: 2
#     Edge 42, Type (0, 1), BuildingBlock: OJICUG_clean_linker_0, # of connection points: 2
#     Edge 43, Type (0, 1), BuildingBlock: OJICUG_clean_linker_0, # of connection points: 2
#     Edge 44, Type (0, 1), BuildingBlock: OJICUG_clean_linker_0, # of connection points: 2
#     Edge 45, Type (0, 1), BuildingBlock: OJICUG_clean_linker_0, # of connection points: 2
#     Edge 46, Type (0, 1), BuildingBlock: OJICUG_clean_linker_0, # of connection points: 2
#     Edge 47, Type (0, 1), BuildingBlock: OJICUG_clean_linker_0, # of connection points: 2
#     Edge 48, Type (0, 1), BuildingBlock: OJICUG_clean_linker_0, # of connection points: 2
#     Edge 49, Type (0, 1), BuildingBlock: OJICUG_clean_linker_0, # of connection points: 2
#     Edge 50, Type (0, 1), BuildingBlock: OJICUG_clean_linker_0, # of connection points: 2
#     Edge 51, Type (0, 1), BuildingBlock: OJICUG_clean_linker_0, # of connection points: 2
#     Edge 52, Type (0, 1), BuildingBlock: OJICUG_clean_linker_0, # of connection points: 2
#     Edge 53, Type (0, 1), BuildingBlock: OJICUG_clean_linker_0, # of connection points: 2
#     Edge 54, Type (0, 1), BuildingBlock: OJICUG_clean_linker_0, # of connection points: 2
#     Edge 55, Type (0, 1), BuildingBlock: OJICUG_clean_linker_0, # of connection points: 2
#     Edge 56, Type (0, 1), BuildingBlock: OJICUG_clean_linker_0, # of connection points: 2
#     Edge 57, Type (0, 1), BuildingBlock: OJICUG_clean_linker_0, # of connection points: 2
#     Edge 58, Type (0, 1), BuildingBlock: OJICUG_clean_linker_0, # of connection points: 2
#     Edge 59, Type (0, 1), BuildingBlock: OJICUG_clean_linker_0, # of connection points: 2
#     Edge 60, Type (0, 1), BuildingBlock: OJICUG_clean_linker_0, # of connection points: 2
#     Edge 61, Type (0, 1), BuildingBlock: OJICUG_clean_linker_0, # of connection points: 2
#     Edge 62, Type (0, 1), BuildingBlock: OJICUG_clean_linker_0, # of connection points: 2
#     Edge 63, Type (0, 1), BuildingBlock: OJICUG_clean_linker_0, # of connection points: 2
#     Edge 64, Type (0, 1), BuildingBlock: OJICUG_clean_linker_0, # of connection points: 2
#     Edge 65, Type (0, 1), BuildingBlock: OJICUG_clean_linker_0, # of connection points: 2
#     Edge 66, Type (0, 1), BuildingBlock: OJICUG_clean_linker_0, # of connection points: 2
#     Edge 67, Type (0, 1), BuildingBlock: OJICUG_clean_linker_0, # of connection points: 2
#     Edge 68, Type (0, 1), BuildingBlock: OJICUG_clean_linker_0, # of connection points: 2
#     Edge 69, Type (0, 1), BuildingBlock: OJICUG_clean_linker_0, # of connection points: 2
#     Edge 70, Type (0, 1), BuildingBlock: OJICUG_clean_linker_0, # of connection points: 2
#     Edge 71, Type (0, 1), BuildingBlock: OJICUG_clean_linker_0, # of connection points: 2
#     Edge 72, Type (0, 1), BuildingBlock: OJICUG_clean_linker_0, # of connection points: 2
#     Edge 73, Type (0, 1), BuildingBlock: OJICUG_clean_linker_0, # of connection points: 2
#     Edge 74, Type (0, 1), BuildingBlock: OJICUG_clean_linker_0, # of connection points: 2
#     Edge 75, Type (0, 1), BuildingBlock: OJICUG_clean_linker_0, # of connection points: 2
#     Edge 76, Type (0, 1), BuildingBlock: OJICUG_clean_linker_0, # of connection points: 2
#     Edge 77, Type (0, 1), BuildingBlock: OJICUG_clean_linker_0, # of connection points: 2
#     Edge 78, Type (0, 1), BuildingBlock: OJICUG_clean_linker_0, # of connection points: 2
#     Edge 79, Type (0, 1), BuildingBlock: OJICUG_clean_linker_0, # of connection points: 2
#     Edge 80, Type (0, 1), BuildingBlock: OJICUG_clean_linker_0, # of connection points: 2
#     Edge 81, Type (0, 1), BuildingBlock: OJICUG_clean_linker_0, # of connection points: 2
#     Edge 82, Type (0, 1), BuildingBlock: OJICUG_clean_linker_0, # of connection points: 2
#     Edge 83, Type (0, 1), BuildingBlock: OJICUG_clean_linker_0, # of connection points: 2
#     Edge 84, Type (0, 1), BuildingBlock: OJICUG_clean_linker_0, # of connection points: 2
#     Edge 85, Type (0, 1), BuildingBlock: OJICUG_clean_linker_0, # of connection points: 2
#     Edge 86, Type (0, 1), BuildingBlock: OJICUG_clean_linker_0, # of connection points: 2
#     Edge 87, Type (0, 1), BuildingBlock: OJICUG_clean_linker_0, # of connection points: 2
#     Edge 88, Type (0, 1), BuildingBlock: OJICUG_clean_linker_0, # of connection points: 2
#     Edge 89, Type (0, 1), BuildingBlock: OJICUG_clean_linker_0, # of connection points: 2
#     Edge 90, Type (0, 1), BuildingBlock: OJICUG_clean_linker_0, # of connection points: 2
#     Edge 91, Type (0, 1), BuildingBlock: OJICUG_clean_linker_0, # of connection points: 2
#     Edge 92, Type (0, 1), BuildingBlock: OJICUG_clean_linker_0, # of connection points: 2
#     Edge 93, Type (0, 1), BuildingBlock: OJICUG_clean_linker_0, # of connection points: 2
#     Edge 94, Type (0, 1), BuildingBlock: OJICUG_clean_linker_0, # of connection points: 2
#     Edge 95, Type (0, 1), BuildingBlock: OJICUG_clean_linker_0, # of connection points: 2
#     Edge 96, Type (0, 1), BuildingBlock: OJICUG_clean_linker_0, # of connection points: 2
#     Edge 97, Type (0, 1), BuildingBlock: OJICUG_clean_linker_0, # of connection points: 2
#     Edge 98, Type (0, 1), BuildingBlock: OJICUG_clean_linker_0, # of connection points: 2
#     Edge 99, Type (0, 1), BuildingBlock: OJICUG_clean_linker_0, # of connection points: 2
#     Edge 100, Type (0, 1), BuildingBlock: OJICUG_clean_linker_0, # of connection points: 2
#     Edge 101, Type (0, 1), BuildingBlock: OJICUG_clean_linker_0, # of connection points: 2
#     Edge 102, Type (0, 1), BuildingBlock: OJICUG_clean_linker_0, # of connection points: 2
#     Edge 103, Type (0, 1), BuildingBlock: OJICUG_clean_linker_0, # of connection points: 2
#     Edge 104, Type (0, 1), BuildingBlock: OJICUG_clean_linker_0, # of connection points: 2
#     Edge 105, Type (0, 1), BuildingBlock: OJICUG_clean_linker_0, # of connection points: 2
#     Edge 106, Type (0, 1), BuildingBlock: OJICUG_clean_linker_0, # of connection points: 2
#     Edge 107, Type (0, 1), BuildingBlock: OJICUG_clean_linker_0, # of connection points: 2
#     Edge 108, Type (0, 1), BuildingBlock: OJICUG_clean_linker_0, # of connection points: 2
#     Edge 109, Type (0, 1), BuildingBlock: OJICUG_clean_linker_0, # of connection points: 2
#     Edge 110, Type (0, 1), BuildingBlock: OJICUG_clean_linker_0, # of connection points: 2
#     Edge 111, Type (0, 1), BuildingBlock: OJICUG_clean_linker_0, # of connection points: 2
#     Edge 112, Type (0, 1), BuildingBlock: OJICUG_clean_linker_0, # of connection points: 2
#     Edge 113, Type (0, 1), BuildingBlock: OJICUG_clean_linker_0, # of connection points: 2
#     Edge 114, Type (0, 1), BuildingBlock: OJICUG_clean_linker_0, # of connection points: 2
#     Edge 115, Type (0, 1), BuildingBlock: OJICUG_clean_linker_0, # of connection points: 2
#     Edge 116, Type (0, 1), BuildingBlock: OJICUG_clean_linker_0, # of connection points: 2
#     Edge 117, Type (0, 1), BuildingBlock: OJICUG_clean_linker_0, # of connection points: 2
#     Edge 118, Type (0, 1), BuildingBlock: OJICUG_clean_linker_0, # of connection points: 2
#     Edge 119, Type (0, 1), BuildingBlock: OJICUG_clean_linker_0, # of connection points: 2
#     Edge 120, Type (0, 1), BuildingBlock: OJICUG_clean_linker_0, # of connection points: 2
#     Edge 121, Type (0, 1), BuildingBlock: OJICUG_clean_linker_0, # of connection points: 2
#     Edge 122, Type (0, 1), BuildingBlock: OJICUG_clean_linker_0, # of connection points: 2
#     Edge 123, Type (0, 1), BuildingBlock: OJICUG_clean_linker_0, # of connection points: 2
#     Edge 124, Type (0, 1), BuildingBlock: OJICUG_clean_linker_0, # of connection points: 2
#     Edge 125, Type (0, 1), BuildingBlock: OJICUG_clean_linker_0, # of connection points: 2
#     Edge 126, Type (0, 1), BuildingBlock: OJICUG_clean_linker_0, # of connection points: 2
#     Edge 127, Type (0, 1), BuildingBlock: OJICUG_clean_linker_0, # of connection points: 2
#     Edge 128, Type (0, 1), BuildingBlock: OJICUG_clean_linker_0, # of connection points: 2
#     Edge 129, Type (0, 1), BuildingBlock: OJICUG_clean_linker_0, # of connection points: 2
#     Edge 130, Type (0, 1), BuildingBlock: OJICUG_clean_linker_0, # of connection points: 2
#     Edge 131, Type (0, 1), BuildingBlock: OJICUG_clean_linker_0, # of connection points: 2
#     Edge 132, Type (0, 1), BuildingBlock: OJICUG_clean_linker_0, # of connection points: 2
#     Edge 133, Type (0, 1), BuildingBlock: OJICUG_clean_linker_0, # of connection points: 2
#     Edge 134, Type (0, 1), BuildingBlock: OJICUG_clean_linker_0, # of connection points: 2
#     Edge 135, Type (0, 1), BuildingBlock: OJICUG_clean_linker_0, # of connection points: 2
# Relax obj value: 0.133
# Max RMSD: 0.282
# Mean RMSD: 0.182
data_MOF--net-gar--node1-UXUYUI_clean_sbu_0--node2-MIFKUJ_clean_sbu_0--edge1-OJICUG_clean_linker_0
_symmetry_space_group_name_H-M    P1
_symmetry_Int_Tables_number       1
_symmetry_cell_setting            triclinic
loop_
_symmetry_equiv_pos_as_xyz
'x, y, z'
_cell_length_a     54.619145
_cell_length_b     54.614476
_cell_length_c     52.654562
_cell_angle_alpha  94.689562
_cell_angle_beta   94.698532
_cell_angle_gamma 99.080936
loop_
_atom_site_label
_atom_site_type_symbol
_atom_site_fract_x
_atom_site_fract_y
_atom_site_fract_z
_atom_type_partial_charge
Li0 Li 0.00171 0.27457 0.38546 0.0
Li1 Li 0.02963 0.29663 0.42115 0.0
Li2 Li 0.0453 0.27164 0.38707 0.0
Li3 Li 0.02036 0.2522 0.41856 0.0
C4 C 0.02016 0.31578 0.36712 0.0
N5 N 0.99793 0.34295 0.33255 0.0
C6 C 0.01109 0.33721 0.37574 0.0
C7 C 0.01795 0.3082 0.34092 0.0
C8 C 0.99992 0.3507 0.35796 0.0
C9 C 0.00663 0.32217 0.32375 0.0
C10 C 0.97994 0.26267 0.43569 0.0
C11 C 0.96805 0.24595 0.47475 0.0
N12 N 0.94644 0.23355 0.46195 0.0
C13 C 0.95763 0.24968 0.42291 0.0
C14 C 0.98521 0.26077 0.46183 0.0
C15 C 0.94092 0.23511 0.43653 0.0
C16 C 0.96206 0.25991 0.34515 0.0
N17 N 0.97171 0.27667 0.36539 0.0
C18 C 0.93513 0.29555 0.36328 0.0
C19 C 0.95897 0.29452 0.37428 0.0
C20 C 0.92414 0.27781 0.3431 0.0
C21 C 0.93816 0.26024 0.33354 0.0
H22 H 0.97236 0.24558 0.33884 0.0
H23 H 0.96695 0.30728 0.39073 0.0
C24 C 0.05042 0.34698 0.43579 0.0
N25 N 0.03545 0.32692 0.44297 0.0
C26 C 0.05146 0.37049 0.44884 0.0
C27 C 0.02324 0.35186 0.47762 0.0
C28 C 0.02238 0.32882 0.46374 0.0
C29 C 0.03726 0.37314 0.46965 0.0
H30 H 0.06046 0.34493 0.41907 0.0
H31 H 0.01036 0.3127 0.4688 0.0
C32 C 0.02458 0.22782 0.36386 0.0
N33 N 0.04312 0.19584 0.32979 0.0
C34 C 0.03479 0.20772 0.37249 0.0
C35 C 0.02372 0.23158 0.33789 0.0
C36 C 0.04407 0.19177 0.35496 0.0
C37 C 0.03323 0.21524 0.32097 0.0
C38 C 0.07158 0.288 0.44078 0.0
C39 C 0.09215 0.30117 0.43087 0.0
C40 C 0.06903 0.29138 0.46698 0.0
C41 C 0.10989 0.31748 0.4474 0.0
C42 C 0.08715 0.30789 0.48286 0.0
N43 N 0.10704 0.32049 0.47283 0.0
C44 C 0.07983 0.28137 0.34903 0.0
C45 C 0.0867 0.25028 0.37642 0.0
C46 C 0.10131 0.27837 0.33714 0.0
N47 N 0.07311 0.26749 0.36839 0.0
C48 C 0.10815 0.24659 0.36504 0.0
C49 C 0.11601 0.26105 0.34542 0.0
H50 H 0.06899 0.29525 0.34331 0.0
H51 H 0.08107 0.23973 0.39208 0.0
C52 C 0.99755 0.20412 0.42624 0.0
N53 N 0.01517 0.22348 0.43676 0.0
C54 C 0.99468 0.18159 0.43722 0.0
C55 C 0.02711 0.19982 0.47052 0.0
C56 C 0.02961 0.22193 0.45866 0.0
C57 C 0.00991 0.17916 0.45936 0.0
H58 H 0.9864 0.20593 0.40876 0.0
H59 H 0.0436 0.23755 0.46646 0.0
O60 O 0.03087 0.30212 0.38425 0.0
O61 O 0.99679 0.27667 0.42259 0.0
O62 O 0.01573 0.24387 0.38078 0.0
O63 O 0.0537 0.2724 0.42483 0.0
H64 H 0.01229 0.3432 0.39595 0.0
H65 H 0.02466 0.29158 0.33391 0.0
H66 H 0.99273 0.36726 0.36438 0.0
H67 H 0.00471 0.31645 0.30343 0.0
H68 H 0.97199 0.24418 0.49492 0.0
H69 H 0.9533 0.25057 0.40265 0.0
H70 H 0.00264 0.27011 0.47193 0.0
H71 H 0.92362 0.22494 0.42686 0.0
H72 H 0.92502 0.30948 0.37113 0.0
H73 H 0.93022 0.24599 0.31828 0.0
H74 H 0.06248 0.38656 0.44218 0.0
H75 H 0.01182 0.35328 0.49339 0.0
H76 H 0.0359 0.20466 0.39255 0.0
H77 H 0.01598 0.24706 0.33087 0.0
H78 H 0.05213 0.17623 0.3614 0.0
H79 H 0.03278 0.218 0.30084 0.0
H80 H 0.09431 0.29903 0.41062 0.0
H81 H 0.05298 0.28172 0.47491 0.0
H82 H 0.12588 0.32783 0.43999 0.0
H83 H 0.08533 0.3108 0.50314 0.0
H84 H 0.10691 0.29023 0.32241 0.0
H85 H 0.11875 0.23289 0.37191 0.0
H86 H 0.98122 0.16599 0.42812 0.0
H87 H 0.03938 0.19848 0.4874 0.0
Li88 Li 0.01022 0.77453 0.6256 0.0
Li89 Li 0.03051 0.7541 0.66081 0.0
Li90 Li 0.00248 0.72893 0.62522 0.0
Li91 Li 0.98533 0.75368 0.65887 0.0
C92 C 0.0463 0.74827 0.60201 0.0
N93 N 0.06998 0.74142 0.55825 0.0
C94 C 0.07208 0.74912 0.60375 0.0
C95 C 0.03251 0.74384 0.57807 0.0
C96 C 0.08373 0.74566 0.58138 0.0
C97 C 0.04484 0.74042 0.55615 0.0
C98 C 0.01939 0.8002 0.684 0.0
C99 C 0.01938 0.81297 0.72892 0.0
N100 N 0.0335 0.83515 0.72568 0.0
C101 C 0.03376 0.82315 0.68105 0.0
C102 C 0.012 0.79508 0.70807 0.0
C103 C 0.04077 0.84056 0.70239 0.0
C104 C 0.99389 0.81564 0.60802 0.0
N105 N 0.01252 0.80206 0.6059 0.0
C106 C 0.0312 0.82892 0.57667 0.0
C107 C 0.03112 0.8083 0.59078 0.0
C108 C 0.01211 0.84333 0.57842 0.0
C109 C 0.99337 0.83647 0.59452 0.0
H110 H 0.9795 0.81029 0.6204 0.0
H111 H 0.04592 0.79738 0.58967 0.0
C112 C 0.07106 0.73299 0.67507 0.0
N113 N 0.06061 0.75341 0.68118 0.0
C114 C 0.09456 0.73098 0.68633 0.0
C115 C 0.09563 0.77051 0.71104 0.0
C116 C 0.07213 0.77186 0.6991 0.0
C117 C 0.10735 0.75014 0.70418 0.0
H118 H 0.06141 0.71863 0.66077 0.0
H119 H 0.06361 0.788 0.70358 0.0
C120 C 0.95779 0.74241 0.60392 0.0
N121 N 0.91713 0.72345 0.56935 0.0
C122 C 0.93719 0.72746 0.6119 0.0
C123 C 0.95764 0.74797 0.57848 0.0
C124 C 0.91681 0.718 0.59409 0.0
C125 C 0.93694 0.73811 0.56125 0.0
C126 C 1.00023 0.71141 0.68223 0.0
C127 C 0.98748 0.68696 0.67781 0.0
C128 C 0.00937 0.72129 0.70713 0.0
C129 C 0.98383 0.67281 0.69852 0.0
C130 C 0.00534 0.70653 0.72733 0.0
N131 N 0.99274 0.68281 0.72265 0.0
C132 C 0.02082 0.6877 0.60874 0.0
C133 C 0.98019 0.68625 0.58847 0.0
C134 C 0.0224 0.66457 0.5964 0.0
N135 N 0.99993 0.69799 0.6048 0.0
C136 C 0.98092 0.66286 0.57573 0.0
C137 C 0.00213 0.65159 0.57998 0.0
H138 H 0.03624 0.69747 0.62176 0.0
H139 H 0.96373 0.69466 0.58556 0.0
C140 C 0.94887 0.7788 0.67646 0.0
N141 N 0.95781 0.75706 0.67802 0.0
C142 C 0.92781 0.7828 0.68848 0.0
C143 C 0.926 0.74227 0.70426 0.0
C144 C 0.94701 0.73898 0.69175 0.0
C145 C 0.9159 0.76425 0.70232 0.0
H146 H 0.95787 0.79283 0.66537 0.0
H147 H 0.95419 0.72172 0.69247 0.0
O148 O 0.03466 0.75154 0.62374 0.0
O149 O 0.0123 0.78304 0.66329 0.0
O150 O 0.97778 0.75203 0.62107 0.0
O151 O 0.00392 0.72544 0.66215 0.0
H152 H 0.08298 0.75248 0.62219 0.0
H153 H 0.01253 0.74299 0.57647 0.0
H154 H 0.10369 0.74634 0.58242 0.0
H155 H 0.03442 0.73697 0.53748 0.0
H156 H 0.01386 0.80925 0.74768 0.0
H157 H 0.03949 0.82741 0.66248 0.0
H158 H 1.00067 0.77751 0.71063 0.0
H159 H 0.05196 0.85838 0.70044 0.0
H160 H 0.04596 0.83339 0.56445 0.0
H161 H 0.97863 0.84731 0.59707 0.0
H162 H 0.10293 0.71492 0.68065 0.0
H163 H 0.10506 0.78582 0.72449 0.0
H164 H 0.937 0.72312 0.63158 0.0
H165 H 0.97332 0.75983 0.57213 0.0
H166 H 0.90076 0.70632 0.59993 0.0
H167 H 0.93659 0.74216 0.54147 0.0
H168 H 0.98041 0.67906 0.65857 0.0
H169 H 0.01951 0.74009 0.71082 0.0
H170 H 0.97391 0.65388 0.69542 0.0
H171 H 0.01225 0.71393 0.74673 0.0
H172 H 0.03931 0.65684 0.59989 0.0
H173 H 0.96482 0.65342 0.56334 0.0
H174 H 0.92062 0.8 0.68655 0.0
H175 H 0.9171 0.72732 0.71434 0.0
Li176 Li 0.50266 0.77187 0.88786 0.0
Li177 Li 0.53188 0.79536 0.92178 0.0
Li178 Li 0.546 0.76907 0.88771 0.0
Li179 Li 0.5229 0.75053 0.92137 0.0
C180 C 0.51997 0.81235 0.86721 0.0
N181 N 0.49649 0.83835 0.83237 0.0
C182 C 0.51083 0.83383 0.87556 0.0
C183 C 0.51717 0.80412 0.84113 0.0
C184 C 0.49903 0.84671 0.85765 0.0
C185 C 0.50524 0.8175 0.82383 0.0
C186 C 0.48289 0.76406 0.94057 0.0
C187 C 0.47279 0.75112 0.98174 0.0
N188 N 0.44932 0.74127 0.9714 0.0
C189 C 0.45868 0.75371 0.93035 0.0
C190 C 0.49003 0.76271 0.96648 0.0
C191 C 0.44198 0.74232 0.94626 0.0
C192 C 0.4627 0.75615 0.84836 0.0
N193 N 0.47221 0.77326 0.86834 0.0
C194 C 0.43567 0.79216 0.86535 0.0
C195 C 0.45946 0.79133 0.87665 0.0
C196 C 0.42484 0.77409 0.84542 0.0
C197 C 0.4389 0.75629 0.83644 0.0
H198 H 0.47315 0.74182 0.84236 0.0
H199 H 0.46741 0.80449 0.8928 0.0
C200 C 0.55236 0.84629 0.93389 0.0
N201 N 0.53853 0.82634 0.94261 0.0
C202 C 0.55367 0.8701 0.94638 0.0
C203 C 0.52808 0.85207 0.97767 0.0
C204 C 0.52695 0.8287 0.96435 0.0
C205 C 0.5409 0.87321 0.96822 0.0
H206 H 0.56125 0.84388 0.91644 0.0
H207 H 0.51583 0.81267 0.9707 0.0
C208 C 0.52488 0.72408 0.8673 0.0
N209 N 0.54217 0.69037 0.8341 0.0
C210 C 0.53386 0.70355 0.87646 0.0
C211 C 0.52449 0.72735 0.84123 0.0
C212 C 0.54256 0.68674 0.85937 0.0
C213 C 0.53339 0.71015 0.82476 0.0
C214 C 0.57373 0.78647 0.94146 0.0
C215 C 0.59344 0.80125 0.93181 0.0
C216 C 0.57186 0.78782 0.96783 0.0
C217 C 0.61102 0.81726 0.9488 0.0
C218 C 0.5898 0.80408 0.98418 0.0
N219 N 0.60884 0.81834 0.9744 0.0
C220 C 0.57954 0.77893 0.84911 0.0
C221 C 0.58686 0.74735 0.87571 0.0
C222 C 0.60084 0.77624 0.83681 0.0
N223 N 0.57315 0.76468 0.86829 0.0
C224 C 0.6082 0.744 0.86394 0.0
C225 C 0.61573 0.75888 0.84453 0.0
H226 H 0.56863 0.79295 0.84395 0.0
H227 H 0.5815 0.73652 0.89127 0.0
C228 C 0.49828 0.70726 0.94166 0.0
N229 N 0.52019 0.72301 0.94171 0.0
C230 C 0.49677 0.68699 0.95634 0.0
C231 C 0.54072 0.69874 0.96977 0.0
C232 C 0.54122 0.7191 0.95532 0.0
C233 C 0.51825 0.68226 0.97052 0.0
H234 H 0.48196 0.71037 0.93015 0.0
H235 H 0.55857 0.73152 0.9545 0.0
O236 O 0.53133 0.7993 0.88448 0.0
O237 O 0.49952 0.77542 0.92534 0.0
O238 O 0.51657 0.74092 0.88379 0.0
O239 O 0.55597 0.77122 0.92512 0.0
H240 H 0.51246 0.8403 0.89568 0.0
H241 H 0.52394 0.78746 0.83433 0.0
H242 H 0.49178 0.8633 0.86386 0.0
H243 H 0.50288 0.81128 0.80361 0.0
H244 H 0.47812 0.74984 0.00176 0.0
H245 H 0.45282 0.75422 0.91034 0.0
H246 H 0.50883 0.77007 0.97463 0.0
H247 H 0.4232 0.73423 0.93858 0.0
H248 H 0.42551 0.80626 0.87272 0.0
H249 H 0.43107 0.74183 0.82135 0.0
H250 H 0.56383 0.886 0.9386 0.0
H251 H 0.51777 0.85375 0.99427 0.0
H252 H 0.53428 0.70072 0.89657 0.0
H253 H 0.51757 0.7431 0.83382 0.0
H254 H 0.54966 0.67082 0.8662 0.0
H255 H 0.53334 0.71253 0.80457 0.0
H256 H 0.59502 0.80054 0.91142 0.0
H257 H 0.55658 0.77662 0.97556 0.0
H258 H 0.62635 0.82889 0.94162 0.0
H259 H 0.58854 0.80542 0.00463 0.0
H260 H 0.60621 0.78841 0.82226 0.0
H261 H 0.61902 0.73029 0.87038 0.0
H262 H 0.47892 0.67515 0.95642 0.0
H263 H 0.55797 0.69565 0.97964 0.0
Li264 Li 0.50894 0.2728 0.12847 0.0
Li265 Li 0.52703 0.25199 0.16325 0.0
Li266 Li 0.5011 0.22694 0.12849 0.0
Li267 Li 0.48267 0.25265 0.16182 0.0
C268 C 0.54485 0.24809 0.1052 0.0
N269 N 0.56917 0.24507 0.06137 0.0
C270 C 0.57083 0.25345 0.10677 0.0
C271 C 0.53122 0.2411 0.08138 0.0
C272 C 0.58279 0.25185 0.08438 0.0
C273 C 0.54386 0.2397 0.05943 0.0
C274 C 0.52109 0.29984 0.18421 0.0
C275 C 0.52394 0.32087 0.22668 0.0
N276 N 0.54333 0.33764 0.22079 0.0
C277 C 0.54093 0.31733 0.17849 0.0
C278 C 0.51238 0.30165 0.20841 0.0
C279 C 0.55197 0.33629 0.19729 0.0
C280 C 0.49506 0.31628 0.11464 0.0
N281 N 0.51143 0.3008 0.10902 0.0
C282 C 0.52751 0.32677 0.07771 0.0
C283 C 0.52769 0.30571 0.09113 0.0
C284 C 0.51064 0.34306 0.08298 0.0
C285 C 0.49444 0.33762 0.10196 0.0
H286 H 0.48254 0.31203 0.12915 0.0
H287 H 0.54082 0.29341 0.08717 0.0
C288 C 0.5701 0.23397 0.17391 0.0
N289 N 0.55728 0.25125 0.18388 0.0
C290 C 0.59398 0.23256 0.18447 0.0
C291 C 0.59075 0.26599 0.21639 0.0
C292 C 0.56673 0.26663 0.20525 0.0
C293 C 0.60496 0.24928 0.20545 0.0
H294 H 0.56201 0.22177 0.15713 0.0
H295 H 0.55612 0.27994 0.21321 0.0
C296 C 0.45693 0.24102 0.10566 0.0
N297 N 0.41726 0.2226 0.06969 0.0
C298 C 0.4354 0.22707 0.11302 0.0
C299 C 0.45819 0.24591 0.08013 0.0
C300 C 0.41556 0.21785 0.09451 0.0
C301 C 0.43797 0.23632 0.06219 0.0
C302 C 0.50868 0.21308 0.18628 0.0
C303 C 0.51782 0.19066 0.18289 0.0
C304 C 0.50921 0.22494 0.2109 0.0
C305 C 0.52748 0.1805 0.20428 0.0
C306 C 0.51905 0.21421 0.23179 0.0
N307 N 0.5279 0.19239 0.22808 0.0
C308 C 0.5204 0.18673 0.11006 0.0
C309 C 0.47814 0.18307 0.09367 0.0
C310 C 0.52204 0.16362 0.09773 0.0
N311 N 0.49868 0.1959 0.10811 0.0
C312 C 0.47896 0.15972 0.08087 0.0
C313 C 0.50106 0.14958 0.08324 0.0
H314 H 0.53643 0.19729 0.12163 0.0
H315 H 0.46101 0.19057 0.09242 0.0
C316 C 0.44464 0.27704 0.17765 0.0
N317 N 0.45484 0.25613 0.1801 0.0
C318 C 0.42325 0.28022 0.18948 0.0
C319 C 0.42379 0.24063 0.20683 0.0
C320 C 0.44513 0.23816 0.19453 0.0
C321 C 0.41234 0.26169 0.20399 0.0
H322 H 0.4529 0.29103 0.16608 0.0
H323 H 0.45359 0.22165 0.19599 0.0
O324 O 0.53298 0.24932 0.12702 0.0
O325 O 0.50974 0.28144 0.16598 0.0
O326 O 0.47644 0.25034 0.12351 0.0
O327 O 0.49924 0.22338 0.1656 0.0
H328 H 0.58164 0.25883 0.12511 0.0
H329 H 0.51112 0.23679 0.07987 0.0
H330 H 0.60289 0.25599 0.0853 0.0
H331 H 0.53356 0.23432 0.04086 0.0
H332 H 0.51747 0.32247 0.24553 0.0
H333 H 0.54771 0.31624 0.15974 0.0
H334 H 0.49688 0.28835 0.21303 0.0
H335 H 0.56739 0.34995 0.19319 0.0
H336 H 0.54028 0.33007 0.06321 0.0
H337 H 0.48156 0.34988 0.10729 0.0
H338 H 0.60407 0.21907 0.17573 0.0
H339 H 0.59854 0.27928 0.23253 0.0
H340 H 0.43411 0.22329 0.13277 0.0
H341 H 0.47457 0.25707 0.07425 0.0
H342 H 0.39882 0.20691 0.09986 0.0
H343 H 0.43871 0.23985 0.04233 0.0
H344 H 0.51743 0.18118 0.16397 0.0
H345 H 0.50224 0.24234 0.2138 0.0
H346 H 0.53463 0.16316 0.20195 0.0
H347 H 0.51966 0.22322 0.25096 0.0
H348 H 0.53955 0.1567 0.09975 0.0
H349 H 0.46233 0.14939 0.06998 0.0
H350 H 0.41507 0.29678 0.18692 0.0
H351 H 0.41575 0.22573 0.2175 0.0
Li352 Li 0.02364 0.7972 0.13708 0.0
Li353 Li 0.04985 0.77918 0.17026 0.0
Li354 Li 0.02515 0.75309 0.13482 0.0
Li355 Li 0.00424 0.77038 0.16983 0.0
C356 C 0.06545 0.77298 0.11349 0.0
N357 N 0.08965 0.75519 0.07361 0.0
C358 C 0.08886 0.76614 0.11836 0.0
C359 C 0.05444 0.77101 0.08834 0.0
C360 C 0.10077 0.75714 0.09793 0.0
C361 C 0.06694 0.76189 0.06844 0.0
C362 C 0.03738 0.82327 0.19215 0.0
C363 C 0.04719 0.8434 0.23506 0.0
N364 N 0.05991 0.86359 0.22562 0.0
C365 C 0.05043 0.84424 0.18283 0.0
C366 C 0.03559 0.82285 0.21844 0.0
C367 C 0.06173 0.86445 0.20008 0.0
C368 C 0.99845 0.83437 0.12048 0.0
N369 N 0.01963 0.82455 0.11841 0.0
C370 C 0.03445 0.85483 0.09062 0.0
C371 C 0.03739 0.83404 0.10364 0.0
C372 C 0.0131 0.86591 0.09303 0.0
C373 C 0.99478 0.85519 0.10788 0.0
H374 H 0.98462 0.82622 0.13227 0.0
H375 H 0.05407 0.82583 0.10244 0.0
C376 C 0.08848 0.75892 0.19118 0.0
N377 N 0.08072 0.78134 0.19091 0.0
C378 C 0.11122 0.75689 0.20408 0.0
C379 C 0.11787 0.80116 0.2166 0.0
C380 C 0.09481 0.80234 0.20337 0.0
C381 C 0.12647 0.77822 0.2167 0.0
H382 H 0.07715 0.74256 0.18087 0.0
H383 H 0.08859 0.82007 0.20261 0.0
C384 C 0.97741 0.75953 0.1131 0.0
N385 N 0.94116 0.73951 0.07403 0.0
C386 C 0.95818 0.74068 0.11747 0.0
C387 C 0.9781 0.76838 0.08895 0.0
C388 C 0.94005 0.73076 0.09744 0.0
C389 C 0.95963 0.75796 0.06942 0.0
C390 C 0.02612 0.73358 0.19159 0.0
C391 C 0.0189 0.70774 0.18808 0.0
C392 C 0.03123 0.74564 0.21632 0.0
C393 C 0.01678 0.69434 0.2095 0.0
C394 C 0.0289 0.73158 0.23725 0.0
N395 N 0.02178 0.70644 0.23344 0.0
C396 C 0.04711 0.71303 0.12092 0.0
C397 C 0.0099 0.71247 0.09428 0.0
C398 C 0.05051 0.69036 0.10879 0.0
N399 N 0.02697 0.72349 0.11375 0.0
C400 C 0.01222 0.68942 0.082 0.0
C401 C 0.03253 0.67778 0.08953 0.0
H402 H 0.06037 0.72217 0.1365 0.0
H403 H 0.99409 0.721 0.08868 0.0
C404 C 0.96982 0.78668 0.20093 0.0
N405 N 0.97718 0.76586 0.19031 0.0
C406 C 0.94945 0.78473 0.21542 0.0
C407 C 0.9447 0.73989 0.20796 0.0
C408 C 0.96515 0.74272 0.19353 0.0
C409 C 0.93647 0.7611 0.21901 0.0
H410 H 0.97955 0.80484 0.19775 0.0
H411 H 0.97123 0.72647 0.18461 0.0
O412 O 0.05336 0.78153 0.13327 0.0
O413 O 0.02596 0.80344 0.17557 0.0
O414 O 0.99514 0.76965 0.13252 0.0
O415 O 0.02813 0.74693 0.1708 0.0
H416 H 0.09768 0.76767 0.13772 0.0
H417 H 0.03634 0.77625 0.08428 0.0
H418 H 0.11885 0.75167 0.10141 0.0
H419 H 0.05857 0.76012 0.04889 0.0
H420 H 0.04603 0.84333 0.25547 0.0
H421 H 0.05193 0.84487 0.16252 0.0
H422 H 0.02529 0.80687 0.22592 0.0
H423 H 0.07197 0.88078 0.19317 0.0
H424 H 0.0492 0.86276 0.07971 0.0
H425 H 0.97802 0.8631 0.11012 0.0
H426 H 0.11694 0.73877 0.2039 0.0
H427 H 0.12919 0.8181 0.22588 0.0
H428 H 0.95733 0.73373 0.1361 0.0
H429 H 0.99272 0.78312 0.08532 0.0
H430 H 0.9251 0.71609 0.1005 0.0
H431 H 0.95996 0.76455 0.05061 0.0
H432 H 0.01491 0.69817 0.16899 0.0
H433 H 0.03694 0.76562 0.21929 0.0
H434 H 0.01116 0.67432 0.2071 0.0
H435 H 0.03277 0.74065 0.25653 0.0
H436 H 0.06677 0.68253 0.11493 0.0
H437 H 0.99764 0.68041 0.06755 0.0
H438 H 0.94351 0.80161 0.22308 0.0
H439 H 0.93539 0.72131 0.21034 0.0
Li440 Li 0.50488 0.77298 0.41282 0.0
Li441 Li 0.48175 0.74533 0.37711 0.0
Li442 Li 0.50654 0.72937 0.41166 0.0
Li443 Li 0.52689 0.75323 0.37985 0.0
C444 C 0.46244 0.75622 0.43012 0.0
N445 N 0.43463 0.78037 0.46244 0.0
C446 C 0.44123 0.7649 0.42022 0.0
C447 C 0.4694 0.75963 0.45647 0.0
C448 C 0.42744 0.7771 0.43687 0.0
C449 C 0.45513 0.77195 0.47249 0.0
C450 C 0.5155 0.79316 0.36061 0.0
C451 C 0.52752 0.80288 0.31907 0.0
N452 N 0.54098 0.82489 0.32987 0.0
C453 C 0.52941 0.81589 0.37131 0.0
C454 C 0.51447 0.7866 0.33428 0.0
C455 C 0.54217 0.83168 0.35543 0.0
C456 C 0.51955 0.81313 0.45266 0.0
N457 N 0.50344 0.8036 0.43188 0.0
C458 C 0.48606 0.84104 0.43181 0.0
C459 C 0.48658 0.81678 0.42169 0.0
C460 C 0.50319 0.8519 0.45253 0.0
C461 C 0.51965 0.83742 0.46348 0.0
H462 H 0.533 0.80234 0.4601 0.0
H463 H 0.47422 0.80876 0.40496 0.0
C464 C 0.43332 0.72157 0.35313 0.0
N465 N 0.45159 0.7419 0.35504 0.0
C466 C 0.41022 0.72193 0.3396 0.0
C467 C 0.42528 0.76398 0.33036 0.0
C468 C 0.44805 0.76272 0.3437 0.0
C469 C 0.40587 0.74363 0.32862 0.0
H470 H 0.43626 0.70554 0.36299 0.0
H471 H 0.46251 0.77888 0.34603 0.0
C472 C 0.55099 0.74923 0.43454 0.0
N473 N 0.58253 0.73025 0.46866 0.0
C474 C 0.57145 0.73956 0.42611 0.0
C475 C 0.54669 0.74945 0.46035 0.0
C476 C 0.58716 0.73001 0.44366 0.0
C477 C 0.56281 0.73969 0.47729 0.0
C478 C 0.49094 0.70225 0.35745 0.0
C479 C 0.47912 0.68058 0.36663 0.0
C480 C 0.4879 0.70518 0.33132 0.0
C481 C 0.46441 0.66217 0.34945 0.0
C482 C 0.47299 0.68637 0.31477 0.0
N483 N 0.46165 0.66544 0.3241 0.0
C484 C 0.49545 0.69528 0.44982 0.0
C485 C 0.52708 0.68781 0.42337 0.0
C486 C 0.49772 0.6737 0.46188 0.0
N487 N 0.50985 0.70165 0.43074 0.0
C488 C 0.53011 0.66631 0.43497 0.0
C489 C 0.51492 0.65863 0.45409 0.0
H490 H 0.48171 0.7065 0.45516 0.0
H491 H 0.53814 0.69324 0.408 0.0
C492 C 0.57368 0.77682 0.36664 0.0
N493 N 0.55519 0.75686 0.36081 0.0
C494 C 0.5953 0.7786 0.35396 0.0
C495 C 0.5784 0.73926 0.32958 0.0
C496 C 0.55705 0.73836 0.34255 0.0
C497 C 0.59802 0.75941 0.33549 0.0
H498 H 0.57191 0.79101 0.38163 0.0
H499 H 0.54224 0.72254 0.33854 0.0
O500 O 0.47642 0.74459 0.41409 0.0
O501 O 0.50314 0.77726 0.37585 0.0
O502 O 0.53518 0.75831 0.41759 0.0
O503 O 0.50538 0.72052 0.37394 0.0
H504 H 0.43557 0.76242 0.39988 0.0
H505 H 0.48577 0.75305 0.46443 0.0
H506 H 0.41105 0.78402 0.42947 0.0
H507 H 0.46038 0.77486 0.4929 0.0
H508 H 0.52698 0.798 0.29868 0.0
H509 H 0.53057 0.82119 0.39168 0.0
H510 H 0.50383 0.76903 0.32574 0.0
H511 H 0.55308 0.84929 0.36345 0.0
H512 H 0.47298 0.8515 0.42295 0.0
H513 H 0.53336 0.84524 0.47925 0.0
H514 H 0.39551 0.706 0.33895 0.0
H515 H 0.42258 0.78105 0.32218 0.0
H516 H 0.57502 0.73919 0.40618 0.0
H517 H 0.53095 0.75686 0.46718 0.0
H518 H 0.60298 0.72235 0.43738 0.0
H519 H 0.55962 0.7396 0.49729 0.0
H520 H 0.48114 0.67803 0.3868 0.0
H521 H 0.49682 0.7219 0.32393 0.0
H522 H 0.45511 0.64533 0.35628 0.0
H523 H 0.47039 0.68844 0.29451 0.0
H524 H 0.48539 0.66832 0.47627 0.0
H525 H 0.5438 0.65547 0.42855 0.0
H526 H 0.61017 0.79424 0.35935 0.0
H527 H 0.57975 0.72412 0.31541 0.0
Li528 Li 0.52932 0.29381 0.63081 0.0
Li529 Li 0.55164 0.27648 0.66421 0.0
Li530 Li 0.527 0.24841 0.62984 0.0
Li531 Li 0.50684 0.27145 0.66482 0.0
C532 C 0.57069 0.27906 0.60797 0.0
N533 N 0.5999 0.28985 0.56862 0.0
C534 C 0.59316 0.29569 0.61281 0.0
C535 C 0.56317 0.26778 0.58318 0.0
C536 C 0.60765 0.30092 0.59264 0.0
C537 C 0.57816 0.27354 0.56353 0.0
C538 C 0.54364 0.32173 0.68487 0.0
C539 C 0.54957 0.3458 0.72599 0.0
N540 N 0.57019 0.35982 0.71866 0.0
C541 C 0.56474 0.33647 0.67762 0.0
C542 C 0.53584 0.32647 0.70914 0.0
C543 C 0.57797 0.3556 0.69504 0.0
C544 C 0.50717 0.33315 0.61706 0.0
N545 N 0.5264 0.32135 0.61127 0.0
C546 C 0.53925 0.35147 0.58243 0.0
C547 C 0.54209 0.32978 0.59393 0.0
C548 C 0.52015 0.36461 0.58889 0.0
C549 C 0.50364 0.35486 0.60604 0.0
H550 H 0.4949 0.32595 0.63081 0.0
H551 H 0.55722 0.32024 0.58945 0.0
C552 C 0.60037 0.26945 0.67502 0.0
N553 N 0.582 0.27928 0.68598 0.0
C554 C 0.62224 0.26739 0.68963 0.0
C555 C 0.60625 0.28603 0.72668 0.0
C556 C 0.58456 0.2877 0.71128 0.0
C557 C 0.62523 0.27531 0.71593 0.0
H558 H 0.59765 0.26234 0.65505 0.0
H559 H 0.56939 0.29461 0.71984 0.0
C560 C 0.48211 0.26561 0.60608 0.0
N561 N 0.44744 0.2615 0.56408 0.0
C562 C 0.4567 0.26002 0.60901 0.0
C563 C 0.48992 0.2692 0.58186 0.0
C564 C 0.43945 0.25797 0.58751 0.0
C565 C 0.47209 0.26705 0.56085 0.0
C566 C 0.53992 0.23523 0.68655 0.0
C567 C 0.55538 0.21791 0.68064 0.0
C568 C 0.53758 0.24272 0.71214 0.0
C569 C 0.56841 0.20844 0.70053 0.0
C570 C 0.55089 0.23278 0.73146 0.0
N571 N 0.56591 0.21601 0.7253 0.0
C572 C 0.54388 0.20777 0.60393 0.0
C573 C 0.50011 0.2042 0.60482 0.0
C574 C 0.5413 0.18327 0.59279 0.0
N575 N 0.52343 0.21749 0.60999 0.0
C576 C 0.49669 0.17966 0.59386 0.0
C577 C 0.5175 0.16872 0.58833 0.0
H578 H 0.56224 0.21869 0.60877 0.0
H579 H 0.48425 0.21232 0.61025 0.0
C580 C 0.46547 0.28874 0.68219 0.0
N581 N 0.47895 0.26998 0.68363 0.0
C582 C 0.44411 0.28835 0.69503 0.0
C583 C 0.45119 0.24947 0.71091 0.0
C584 C 0.47226 0.25047 0.69745 0.0
C585 C 0.4367 0.26855 0.70973 0.0
H586 H 0.47116 0.30382 0.67072 0.0
H587 H 0.48318 0.23562 0.69791 0.0
O588 O 0.5565 0.27343 0.62757 0.0
O589 O 0.53048 0.30288 0.6682 0.0
O590 O 0.49917 0.26779 0.62698 0.0
O591 O 0.52742 0.2451 0.66737 0.0
H592 H 0.59927 0.30451 0.63193 0.0
H593 H 0.54598 0.25468 0.57914 0.0
H594 H 0.62505 0.31379 0.59608 0.0
H595 H 0.57253 0.26501 0.54423 0.0
H596 H 0.54385 0.34963 0.74491 0.0
H597 H 0.57089 0.33303 0.65881 0.0
H598 H 0.51947 0.31522 0.71493 0.0
H599 H 0.59443 0.3671 0.68979 0.0
H600 H 0.55258 0.35848 0.56954 0.0
H601 H 0.4885 0.36424 0.61136 0.0
H602 H 0.63655 0.25931 0.68047 0.0
H603 H 0.6077 0.29208 0.74693 0.0
H604 H 0.45039 0.25724 0.62768 0.0
H605 H 0.50949 0.27384 0.57934 0.0
H606 H 0.41972 0.25359 0.58946 0.0
H607 H 0.47785 0.26984 0.54198 0.0
H608 H 0.55746 0.21202 0.66092 0.0
H609 H 0.52598 0.25641 0.71702 0.0
H610 H 0.58054 0.1951 0.69626 0.0
H611 H 0.54939 0.23853 0.75135 0.0
H612 H 0.55779 0.17537 0.58904 0.0
H613 H 0.47802 0.16905 0.59053 0.0
H614 H 0.43327 0.30316 0.69296 0.0
H615 H 0.44637 0.23396 0.72211 0.0
Li616 Li 0.00748 0.26929 0.9016 0.0
Li617 Li 0.97981 0.24321 0.8672 0.0
Li618 Li 0.00597 0.22428 0.9 0.0
Li619 Li 0.02507 0.24561 0.86622 0.0
C620 C 0.96479 0.24918 0.92474 0.0
N621 N 0.9376 0.26109 0.96469 0.0
C622 C 0.94101 0.25517 0.91975 0.0
C623 C 0.97453 0.24882 0.95007 0.0
C624 C 0.92762 0.26126 0.94019 0.0
C625 C 0.96055 0.25501 0.96999 0.0
C626 C 0.99991 0.28822 0.84654 0.0
C627 C 0.99217 0.29608 0.80241 0.0
N628 N 0.98872 0.31956 0.81017 0.0
C629 C 0.99652 0.31251 0.85405 0.0
C630 C 0.99791 0.28 0.8205 0.0
C631 C 0.99078 0.32803 0.83539 0.0
C632 C 0.03429 0.31331 0.92717 0.0
N633 N 0.01093 0.30034 0.921 0.0
C634 C 0.9929 0.3352 0.93601 0.0
C635 C 0.99039 0.31065 0.92528 0.0
C636 C 0.01678 0.34929 0.94188 0.0
C637 C 0.03767 0.33796 0.9378 0.0
H638 H 0.05024 0.30479 0.92289 0.0
H639 H 0.97207 0.30035 0.91907 0.0
C640 C 0.93485 0.22347 0.8338 0.0
N641 N 0.94889 0.24338 0.84815 0.0
C642 C 0.91196 0.22592 0.821 0.0
C643 C 0.91899 0.26928 0.83768 0.0
C644 C 0.94131 0.26588 0.85039 0.0
C645 C 0.90368 0.24908 0.82308 0.0
H646 H 0.9412 0.20566 0.83262 0.0
H647 H 0.95245 0.28118 0.86254 0.0
C648 C 0.05164 0.2481 0.92422 0.0
N649 N 0.08349 0.24272 0.96622 0.0
C650 C 0.07288 0.23732 0.92096 0.0
C651 C 0.04691 0.25663 0.9488 0.0
C652 C 0.08866 0.23461 0.94244 0.0
C653 C 0.06315 0.25363 0.9698 0.0
C654 C 0.00255 0.2005 0.84092 0.0
C655 C 0.01467 0.17999 0.84347 0.0
C656 C 0.99387 0.20569 0.81657 0.0
C657 C 0.01858 0.16548 0.82154 0.0
C658 C 0.99811 0.19072 0.7951 0.0
N659 N 0.01032 0.17112 0.798 0.0
C660 C 0.9909 0.18855 0.93496 0.0
C661 C 0.02865 0.18559 0.91661 0.0
C662 C 0.9931 0.16766 0.9481 0.0
N663 N 0.00853 0.19697 0.91953 0.0
C664 C 0.03153 0.16463 0.92921 0.0
C665 C 0.01345 0.15523 0.94493 0.0
H666 H 0.9748 0.19761 0.93655 0.0
H667 H 0.04217 0.19244 0.90391 0.0
C668 C 0.05855 0.2674 0.83296 0.0
N669 N 0.05174 0.2468 0.84523 0.0
C670 C 0.07888 0.26894 0.81842 0.0
C671 C 0.08508 0.2282 0.82978 0.0
C672 C 0.06465 0.22748 0.84411 0.0
C673 C 0.0925 0.2492 0.81678 0.0
H674 H 0.0486 0.28292 0.83489 0.0
H675 H 0.0595 0.2118 0.85493 0.0
O676 O 0.97816 0.24323 0.90489 0.0
O677 O 0.00534 0.27271 0.86463 0.0
O678 O 0.03597 0.25088 0.90339 0.0
O679 O 0.99866 0.21501 0.86219 0.0
H680 H 0.93296 0.25516 0.9003 0.0
H681 H 0.99252 0.2435 0.95433 0.0
H682 H 0.90927 0.26608 0.93658 0.0
H683 H 0.96791 0.25485 0.98968 0.0
H684 H 0.99055 0.28992 0.7822 0.0
H685 H 0.99822 0.31933 0.87407 0.0
H686 H 0.00108 0.26154 0.81429 0.0
H687 H 0.988 0.34683 0.84097 0.0
H688 H 0.97636 0.34345 0.93846 0.0
H689 H 0.0564 0.34822 0.94225 0.0
H690 H 0.90063 0.20976 0.81023 0.0
H691 H 0.9137 0.28759 0.83957 0.0
H692 H 0.07703 0.23095 0.90203 0.0
H693 H 0.03106 0.26576 0.95163 0.0
H694 H 0.10504 0.22609 0.94021 0.0
H695 H 0.05964 0.26007 0.98893 0.0
H696 H 0.02113 0.17539 0.86215 0.0
H697 H 0.98376 0.22095 0.81426 0.0
H698 H 0.02815 0.1497 0.82324 0.0
H699 H 0.99159 0.19462 0.77613 0.0
H700 H 0.97853 0.16068 0.95969 0.0
H701 H 0.04749 0.15558 0.9263 0.0
H702 H 0.08403 0.2855 0.80879 0.0
H703 H 0.09547 0.21287 0.82964 0.0
Li704 Li 0.41146 0.0276 0.30495 0.0
Li705 Li 0.37569 0.99812 0.2831 0.0
Li706 Li 0.40711 0.02037 0.25813 0.0
Li707 Li 0.37653 0.04114 0.27844 0.0
C708 C 0.42518 0.97958 0.27433 0.0
N709 N 0.45295 0.94564 0.25459 0.0
C710 C 0.41333 0.95646 0.26233 0.0
C711 C 0.45118 0.9853 0.27648 0.0
C712 C 0.42769 0.93959 0.25245 0.0
C713 C 0.46487 0.96794 0.26631 0.0
C714 C 0.3605 0.01271 0.32682 0.0
C715 C 0.31986 0.99336 0.33624 0.0
N716 N 0.33033 0.98593 0.35803 0.0
C717 C 0.37084 0.00503 0.34939 0.0
C718 C 0.33479 0.00699 0.32024 0.0
C719 C 0.35528 0.99146 0.36489 0.0
C720 C 0.44352 0.05286 0.34945 0.0
N721 N 0.43471 0.03139 0.33426 0.0
C722 C 0.45664 0.00795 0.36175 0.0
C723 C 0.44122 0.00931 0.33985 0.0
C724 C 0.4651 0.02941 0.37852 0.0
C725 C 0.459 0.0523 0.37194 0.0
H726 H 0.43792 0.07016 0.34457 0.0
H727 H 0.43361 0.99245 0.32782 0.0
C728 C 0.33659 0.95684 0.26994 0.0
N729 N 0.35682 0.96667 0.28647 0.0
C730 C 0.32543 0.9321 0.27057 0.0
C731 C 0.35565 0.92854 0.30576 0.0
C732 C 0.36611 0.95332 0.30454 0.0
C733 C 0.33548 0.91747 0.28817 0.0
H734 H 0.32988 0.96781 0.25552 0.0
H735 H 0.38245 0.96162 0.31718 0.0
C736 C 0.4338 0.07055 0.282 0.0
N737 N 0.47582 0.10676 0.28695 0.0
C738 C 0.43164 0.0953 0.27886 0.0
C739 C 0.45729 0.06422 0.28779 0.0
C740 C 0.45312 0.11333 0.28137 0.0
C741 C 0.47832 0.08279 0.29022 0.0
C742 C 0.35363 0.01968 0.23325 0.0
C743 C 0.36125 0.02814 0.21035 0.0
C744 C 0.32876 0.01851 0.23825 0.0
C745 C 0.34384 0.03559 0.19291 0.0
C746 C 0.31194 0.02618 0.22036 0.0
N747 N 0.31976 0.03449 0.19825 0.0
C748 C 0.42186 0.99482 0.21541 0.0
C749 C 0.44339 0.03619 0.22445 0.0
C750 C 0.43696 0.99027 0.19607 0.0
N751 N 0.42583 0.0172 0.22965 0.0
C752 C 0.45862 0.03264 0.20496 0.0
C753 C 0.45582 0.00928 0.19073 0.0
H754 H 0.40718 0.98033 0.21936 0.0
H755 H 0.44563 0.05412 0.23532 0.0
C756 C 0.33978 0.0705 0.29065 0.0
N757 N 0.35675 0.06638 0.27402 0.0
C758 C 0.32414 0.08795 0.28626 0.0
C759 C 0.34371 0.0964 0.24765 0.0
C760 C 0.35926 0.07918 0.25307 0.0
C761 C 0.32578 0.10106 0.26435 0.0
H762 H 0.33834 0.0602 0.30729 0.0
H763 H 0.37307 0.07561 0.24026 0.0
O764 O 0.41144 0.99643 0.28409 0.0
O765 O 0.37548 0.02565 0.31119 0.0
O766 O 0.41294 0.05268 0.2794 0.0
O767 O 0.37045 0.01249 0.25062 0.0
H768 H 0.39326 0.95172 0.26018 0.0
H769 H 0.46072 0.00293 0.28591 0.0
H770 H 0.41874 0.92172 0.24296 0.0
H771 H 0.48499 0.9722 0.26775 0.0
H772 H 0.29996 0.98866 0.33129 0.0
H773 H 0.39068 0.00939 0.35483 0.0
H774 H 0.3265 0.01278 0.30284 0.0
H775 H 0.36304 0.9853 0.38235 0.0
H776 H 0.46105 0.98999 0.3661 0.0
H777 H 0.46503 0.06919 0.38462 0.0
H778 H 0.3101 0.9241 0.25646 0.0
H779 H 0.36384 0.91786 0.31965 0.0
H780 H 0.41356 0.1005 0.2744 0.0
H781 H 0.45927 0.04519 0.29031 0.0
H782 H 0.45175 0.13255 0.27888 0.0
H783 H 0.49663 0.07815 0.29466 0.0
H784 H 0.38043 0.02911 0.20616 0.0
H785 H 0.32258 0.01204 0.2559 0.0
H786 H 0.34948 0.04229 0.17516 0.0
H787 H 0.29267 0.02557 0.22407 0.0
H788 H 0.43403 0.97195 0.18567 0.0
H789 H 0.47225 0.04815 0.20094 0.0
H790 H 0.31113 0.09128 0.30008 0.0
H791 H 0.34556 0.10568 0.23035 0.0
Li792 Li 0.2685 0.15314 0.52616 0.0
Li793 Li 0.28836 0.11976 0.50295 0.0
Li794 Li 0.26701 0.15135 0.47894 0.0
Li795 Li 0.24304 0.11796 0.49975 0.0
C796 C 0.31673 0.17492 0.51418 0.0
N797 N 0.35668 0.21064 0.53434 0.0
C798 C 0.33688 0.16805 0.5284 0.0
C799 C 0.317 0.1999 0.50999 0.0
C800 C 0.35688 0.1864 0.53849 0.0
C801 C 0.33733 0.21769 0.52042 0.0
C802 C 0.25423 0.09811 0.54262 0.0
C803 C 0.23865 0.05435 0.5433 0.0
N804 N 0.22857 0.05949 0.56551 0.0
C805 C 0.24377 0.10296 0.56547 0.0
C806 C 0.25175 0.07362 0.53146 0.0
C807 C 0.23086 0.08317 0.57675 0.0
C808 C 0.24587 0.17333 0.5662 0.0
N809 N 0.26864 0.17375 0.5574 0.0
C810 C 0.28819 0.19836 0.59549 0.0
C811 C 0.28962 0.18626 0.57133 0.0
C812 C 0.26503 0.19717 0.60554 0.0
C813 C 0.24362 0.18488 0.59034 0.0
H814 H 0.2295 0.1631 0.55484 0.0
H815 H 0.30757 0.18609 0.5643 0.0
C816 C 0.33204 0.1041 0.48645 0.0
N817 N 0.31562 0.10158 0.50447 0.0
C818 C 0.35234 0.09136 0.48729 0.0
C819 C 0.33841 0.07347 0.52511 0.0
C820 C 0.31851 0.08676 0.52367 0.0
C821 C 0.35576 0.07562 0.50675 0.0
H822 H 0.32946 0.11622 0.47154 0.0
H823 H 0.30539 0.08527 0.53797 0.0
C824 C 0.2284 0.17353 0.49853 0.0
N825 N 0.20531 0.21454 0.49315 0.0
C826 C 0.20331 0.17037 0.48914 0.0
C827 C 0.24173 0.19749 0.5053 0.0
C828 C 0.19198 0.19135 0.48653 0.0
C829 C 0.22973 0.218 0.50241 0.0
C830 C 0.25445 0.09527 0.45352 0.0
C831 C 0.23674 0.09897 0.43413 0.0
C832 C 0.26193 0.07201 0.45431 0.0
C833 C 0.22659 0.07916 0.41591 0.0
C834 C 0.25133 0.05267 0.43575 0.0
N835 N 0.23402 0.05661 0.4171 0.0
C836 C 0.28984 0.18258 0.44346 0.0
C837 C 0.24588 0.1723 0.43656 0.0
C838 C 0.29045 0.19635 0.42213 0.0
N839 N 0.26776 0.17085 0.45018 0.0
C840 C 0.24564 0.18569 0.41505 0.0
C841 C 0.26815 0.19778 0.40742 0.0
H842 H 0.30703 0.18095 0.45443 0.0
H843 H 0.22858 0.16277 0.44221 0.0
C844 C 0.19699 0.10676 0.51726 0.0
N845 N 0.21079 0.09737 0.49969 0.0
C846 C 0.17303 0.09474 0.52012 0.0
C847 C 0.17755 0.06326 0.48671 0.0
C848 C 0.2017 0.07579 0.48472 0.0
C849 C 0.16271 0.07285 0.50445 0.0
H850 H 0.20474 0.12372 0.5292 0.0
H851 H 0.21297 0.06824 0.47118 0.0
O852 O 0.29711 0.15718 0.50398 0.0
O853 O 0.2667 0.11725 0.53112 0.0
O854 O 0.23971 0.15316 0.5012 0.0
O855 O 0.26495 0.11451 0.47123 0.0
H856 H 0.337 0.14877 0.53173 0.0
H857 H 0.30173 0.2055 0.49873 0.0
H858 H 0.37256 0.18139 0.54962 0.0
H859 H 0.33777 0.2371 0.51739 0.0
H860 H 0.23647 0.03532 0.53482 0.0
H861 H 0.24562 0.12179 0.5744 0.0
H862 H 0.25967 0.06959 0.51372 0.0
H863 H 0.22265 0.08664 0.59443 0.0
H864 H 0.30519 0.20734 0.60677 0.0
H865 H 0.22541 0.18359 0.59736 0.0
H866 H 0.36542 0.09418 0.47301 0.0
H867 H 0.34 0.06147 0.54033 0.0
H868 H 0.19275 0.15189 0.48386 0.0
H869 H 0.26107 0.2002 0.51283 0.0
H870 H 0.17258 0.1892 0.47924 0.0
H871 H 0.23981 0.23668 0.50757 0.0
H872 H 0.23085 0.1169 0.43322 0.0
H873 H 0.2758 0.06894 0.46909 0.0
H874 H 0.21281 0.08171 0.40082 0.0
H875 H 0.25688 0.03454 0.43614 0.0
H876 H 0.30823 0.2051 0.41676 0.0
H877 H 0.22799 0.18645 0.40441 0.0
H878 H 0.16275 0.10258 0.53459 0.0
H879 H 0.17045 0.04652 0.47413 0.0
Li880 Li 0.157 0.03593 0.79504 0.0
Li881 Li 0.12336 0.01013 0.81472 0.0
Li882 Li 0.15579 0.98946 0.79167 0.0
Li883 Li 0.12228 0.00726 0.76746 0.0
C884 C 0.18095 0.02235 0.83981 0.0
N885 N 0.22276 0.0401 0.87333 0.0
C886 C 0.17861 0.03443 0.86372 0.0
C887 C 0.20449 0.01896 0.8331 0.0
C888 C 0.19999 0.04337 0.88035 0.0
C889 C 0.22542 0.02816 0.85027 0.0
C890 C 0.10344 0.05084 0.79871 0.0
C891 C 0.06074 0.05697 0.79944 0.0
N892 N 0.06854 0.07927 0.81349 0.0
C893 C 0.11107 0.07392 0.81295 0.0
C894 C 0.07811 0.04236 0.7917 0.0
C895 C 0.09313 0.08798 0.82033 0.0
C896 C 0.18322 0.07676 0.77352 0.0
N897 N 0.17778 0.06822 0.79631 0.0
C898 C 0.19981 0.1063 0.8188 0.0
C899 C 0.18559 0.08257 0.81876 0.0
C900 C 0.20625 0.1152 0.79554 0.0
C901 C 0.19785 0.10006 0.77271 0.0
H902 H 0.17594 0.06559 0.75583 0.0
H903 H 0.18033 0.07591 0.8366 0.0
C904 C 0.09042 0.98743 0.84943 0.0
N905 N 0.10402 0.00918 0.84404 0.0
C906 C 0.07741 0.98657 0.87132 0.0
C907 C 0.09264 0.03045 0.88182 0.0
C908 C 0.1053 0.03047 0.85977 0.0
C909 C 0.07861 0.00824 0.88808 0.0
H910 H 0.09007 0.97057 0.83704 0.0
H911 H 0.11661 0.04744 0.8555 0.0
C912 C 0.17714 0.01366 0.74837 0.0
N913 N 0.21417 0.01765 0.71544 0.0
C914 C 0.17154 0.00513 0.72248 0.0
C915 C 0.20158 0.02434 0.75749 0.0
C916 C 0.19052 0.00728 0.70614 0.0
C917 C 0.22004 0.02614 0.74055 0.0
C918 C 0.09836 0.96233 0.78011 0.0
C919 C 0.10164 0.93982 0.76725 0.0
C920 C 0.07431 0.9672 0.78278 0.0
C921 C 0.08072 0.92263 0.75707 0.0
C922 C 0.05387 0.94953 0.77235 0.0
N923 N 0.05747 0.92781 0.7598 0.0
C924 C 0.16388 0.9413 0.80155 0.0
C925 C 0.19527 0.96197 0.77882 0.0
C926 C 0.17481 0.91978 0.80026 0.0
N927 N 0.17403 0.9618 0.79071 0.0
C928 C 0.20692 0.94089 0.77721 0.0
C929 C 0.19666 0.91926 0.78789 0.0
H930 H 0.14693 0.9415 0.81079 0.0
H931 H 0.20324 0.97835 0.77042 0.0
C932 C 0.09341 0.02341 0.72632 0.0
N933 N 0.10305 0.00375 0.73491 0.0
C934 C 0.08294 0.02222 0.70096 0.0
C935 C 0.09191 0.9804 0.69408 0.0
C936 C 0.10214 0.98238 0.71947 0.0
C937 C 0.08273 0.00072 0.6843 0.0
H938 H 0.0949 0.04043 0.73877 0.0
H939 H 0.11065 0.96734 0.72642 0.0
O940 O 0.16024 0.01351 0.82329 0.0
O941 O 0.12076 0.03693 0.79116 0.0
O942 O 0.1586 0.01241 0.76446 0.0
O943 O 0.11862 0.97937 0.79027 0.0
H944 H 0.16049 0.03703 0.86928 0.0
H945 H 0.20657 0.00925 0.81487 0.0
H946 H 0.19847 0.05291 0.89885 0.0
H947 H 0.24378 0.02576 0.84528 0.0
H948 H 0.04106 0.05061 0.79418 0.0
H949 H 0.13064 0.08082 0.81837 0.0
H950 H 0.07193 0.0248 0.78022 0.0
H951 H 0.09875 0.10581 0.83148 0.0
H952 H 0.2057 0.11758 0.8368 0.0
H953 H 0.20189 0.10651 0.75435 0.0
H954 H 0.0672 0.96893 0.87551 0.0
H955 H 0.09401 0.04769 0.89396 0.0
H956 H 0.15274 0.99704 0.715 0.0
H957 H 0.20624 0.03128 0.7774 0.0
H958 H 0.18642 0.00076 0.68605 0.0
H959 H 0.23901 0.03436 0.74737 0.0
H960 H 0.12013 0.93577 0.76491 0.0
H961 H 0.07145 0.98436 0.79297 0.0
H962 H 0.08298 0.90519 0.74696 0.0
H963 H 0.03514 0.95307 0.77428 0.0
H964 H 0.16584 0.90354 0.80845 0.0
H965 H 0.2239 0.94163 0.76782 0.0
H966 H 0.07631 0.0384 0.69413 0.0
H967 H 0.09196 0.9634 0.68197 0.0
Li968 Li 0.23534 0.89844 0.01627 0.0
Li969 Li 0.25806 0.86879 0.0363 0.0
Li970 Li 0.27874 0.89955 0.01029 0.0
Li971 Li 0.24867 0.86382 0.99109 0.0
C972 C 0.25832 0.92325 0.05975 0.0
N973 N 0.24442 0.95873 0.09366 0.0
C974 C 0.2498 0.91667 0.08298 0.0
C975 C 0.25984 0.9479 0.05381 0.0
C976 C 0.24287 0.93488 0.09987 0.0
C977 C 0.25267 0.96554 0.07118 0.0
C978 C 0.20545 0.84591 0.00409 0.0
C979 C 0.18723 0.8044 0.98598 0.0
N980 N 0.16771 0.81358 0.97479 0.0
C981 C 0.18521 0.85493 0.99242 0.0
C982 C 0.20648 0.82043 0.00091 0.0
C983 C 0.16631 0.83828 0.97769 0.0
C984 C 0.20499 0.93464 0.00401 0.0
N985 N 0.21003 0.91839 0.02114 0.0
C986 C 0.18054 0.93186 0.04803 0.0
C987 C 0.19786 0.91638 0.04257 0.0
C988 C 0.17514 0.94919 0.03092 0.0
C989 C 0.18749 0.95021 0.00848 0.0
H990 H 0.21452 0.9355 0.98684 0.0
H991 H 0.20194 0.90299 0.05568 0.0
C992 C 0.28135 0.86296 0.08414 0.0
N993 N 0.26268 0.85229 0.06608 0.0
C994 C 0.28534 0.85189 0.10669 0.0
C995 C 0.25152 0.81848 0.09112 0.0
C996 C 0.24794 0.83041 0.069 0.0
C997 C 0.27014 0.8295 0.11041 0.0
H998 H 0.29285 0.88031 0.08113 0.0
H999 H 0.23326 0.82239 0.0543 0.0
C1000 C 0.26213 0.9142 0.96723 0.0
N1001 N 0.28699 0.94456 0.93483 0.0
C1002 C 0.27067 0.90377 0.94519 0.0
C1003 C 0.26621 0.94007 0.97278 0.0
C1004 C 0.28319 0.91944 0.92904 0.0
C1005 C 0.27884 0.9551 0.95618 0.0
C1006 C 0.29742 0.85169 0.02321 0.0
C1007 C 0.32033 0.86483 0.03445 0.0
C1008 C 0.29089 0.82644 0.02667 0.0
C1009 C 0.33635 0.85247 0.04877 0.0
C1010 C 0.3074 0.81478 0.04119 0.0
N1011 N 0.32961 0.82792 0.05183 0.0
C1012 C 0.31974 0.93906 0.02292 0.0
C1013 C 0.32307 0.91036 0.98756 0.0
C1014 C 0.34445 0.95034 0.02234 0.0
N1015 N 0.3098 0.91916 0.006 0.0
C1016 C 0.34783 0.92099 0.98635 0.0
C1017 C 0.35903 0.94075 0.0044 0.0
H1018 H 0.30901 0.94525 0.0378 0.0
H1019 H 0.31483 0.89414 0.97475 0.0
C1020 C 0.22634 0.84533 0.94129 0.0
N1021 N 0.24168 0.84068 0.96134 0.0
C1022 C 0.22466 0.83099 0.9178 0.0
C1023 C 0.25304 0.80625 0.93669 0.0
C1024 C 0.25449 0.82129 0.95964 0.0
C1025 C 0.23869 0.81162 0.9152 0.0
H1026 H 0.21656 0.86103 0.94315 0.0
H1027 H 0.26689 0.81829 0.97564 0.0
O1028 O 0.265 0.90564 0.04284 0.0
O1029 O 0.22436 0.86198 0.01821 0.0
O1030 O 0.25008 0.89917 0.98344 0.0
O1031 O 0.28123 0.86357 0.00947 0.0
H1032 H 0.24821 0.89766 0.08781 0.0
H1033 H 0.26622 0.9533 0.03587 0.0
H1034 H 0.23615 0.93002 0.11787 0.0
H1035 H 0.25362 0.98465 0.06675 0.0
H1036 H 0.18788 0.78467 0.9832 0.0
H1037 H 0.18417 0.8746 0.99458 0.0
H1038 H 0.22221 0.81318 0.00944 0.0
H1039 H 0.15055 0.845 0.96851 0.0
H1040 H 0.17176 0.93041 0.06567 0.0
H1041 H 0.18351 0.9627 0.99432 0.0
H1042 H 0.29987 0.86087 0.12124 0.0
H1043 H 0.23925 0.80138 0.09357 0.0
H1044 H 0.26795 0.8838 0.94072 0.0
H1045 H 0.25988 0.94846 0.98982 0.0
H1046 H 0.28997 0.91162 0.91196 0.0
H1047 H 0.28219 0.97515 0.96029 0.0
H1048 H 0.32565 0.88442 0.03248 0.0
H1049 H 0.27296 0.81608 0.01886 0.0
H1050 H 0.3541 0.86245 0.05758 0.0
H1051 H 0.30246 0.79532 0.04417 0.0
H1052 H 0.35252 0.96527 0.03687 0.0
H1053 H 0.35844 0.91311 0.9722 0.0
H1054 H 0.21344 0.83569 0.90155 0.0
H1055 H 0.26444 0.79175 0.93528 0.0
Li1056 Li 0.24853 0.40461 0.04795 0.0
Li1057 Li 0.26568 0.37199 0.06805 0.0
Li1058 Li 0.29395 0.40859 0.05193 0.0
Li1059 Li 0.2671 0.37483 0.02166 0.0
C1060 C 0.26598 0.42781 0.09557 0.0
N1061 N 0.25503 0.46672 0.12724 0.0
C1062 C 0.24568 0.42405 0.11014 0.0
C1063 C 0.28079 0.45134 0.09719 0.0
C1064 C 0.24042 0.44397 0.12601 0.0
C1065 C 0.27493 0.47077 0.1133 0.0
C1066 C 0.21993 0.3492 0.04524 0.0
C1067 C 0.20211 0.30557 0.03981 0.0
N1068 N 0.18338 0.3105 0.05393 0.0
C1069 C 0.2004 0.35386 0.05952 0.0
C1070 C 0.22072 0.32489 0.03515 0.0
C1071 C 0.18215 0.33404 0.06378 0.0
C1072 C 0.20067 0.40897 0.02997 0.0
N1073 N 0.22023 0.42179 0.04578 0.0
C1074 C 0.19699 0.45467 0.05501 0.0
C1075 C 0.21902 0.44461 0.05771 0.0
C1076 C 0.17615 0.44109 0.03986 0.0
C1077 C 0.17837 0.4182 0.02684 0.0
H1078 H 0.20233 0.39136 0.01987 0.0
H1079 H 0.23504 0.45513 0.06924 0.0
C1080 C 0.27896 0.3345 0.09991 0.0
N1081 N 0.26219 0.3499 0.09489 0.0
C1082 C 0.27647 0.31937 0.12012 0.0
C1083 C 0.23982 0.33649 0.12989 0.0
C1084 C 0.24281 0.35098 0.10936 0.0
C1085 C 0.25687 0.32055 0.1356 0.0
H1086 H 0.29463 0.33436 0.08871 0.0
H1087 H 0.22985 0.36344 0.1053 0.0
C1088 C 0.26044 0.42764 0.00765 0.0
N1089 N 0.23595 0.45975 0.98119 0.0
C1090 C 0.24702 0.41937 0.98394 0.0
C1091 C 0.26146 0.45227 0.01786 0.0
C1092 C 0.23477 0.43589 0.97086 0.0
C1093 C 0.24892 0.4682 0.00421 0.0
C1094 C 0.30658 0.35306 0.03795 0.0
C1095 C 0.33043 0.35867 0.02991 0.0
C1096 C 0.29455 0.32833 0.03572 0.0
C1097 C 0.3418 0.33938 0.01972 0.0
C1098 C 0.30654 0.30957 0.02544 0.0
N1099 N 0.32972 0.31544 0.01771 0.0
C1100 C 0.34569 0.42077 0.06697 0.0
C1101 C 0.32902 0.45056 0.04348 0.0
C1102 C 0.36991 0.4332 0.06562 0.0
N1103 N 0.32592 0.42926 0.0554 0.0
C1104 C 0.35285 0.46384 0.04213 0.0
C1105 C 0.37368 0.45475 0.05262 0.0
H1106 H 0.34272 0.40364 0.07608 0.0
H1107 H 0.31315 0.45668 0.03398 0.0
C1108 C 0.24192 0.34798 0.9768 0.0
N1109 N 0.26498 0.35756 0.98841 0.0
C1110 C 0.23896 0.3381 0.95123 0.0
C1111 C 0.28361 0.34739 0.95019 0.0
C1112 C 0.28567 0.3575 0.97568 0.0
C1113 C 0.25997 0.33798 0.93756 0.0
H1114 H 0.22571 0.34899 0.98707 0.0
H1115 H 0.30367 0.36617 0.98495 0.0
O1116 O 0.27175 0.40848 0.08028 0.0
O1117 O 0.23779 0.36844 0.04059 0.0
O1118 O 0.27223 0.41161 0.02093 0.0
O1119 O 0.2951 0.37168 0.04796 0.0
H1120 H 0.23391 0.40608 0.10901 0.0
H1121 H 0.29662 0.45457 0.08614 0.0
H1122 H 0.22469 0.44135 0.13729 0.0
H1123 H 0.28619 0.48908 0.1147 0.0
H1124 H 0.20251 0.28667 0.03213 0.0
H1125 H 0.19946 0.37257 0.06744 0.0
H1126 H 0.23538 0.32098 0.02363 0.0
H1127 H 0.16701 0.33736 0.07491 0.0
H1128 H 0.19607 0.47249 0.0652 0.0
H1129 H 0.16292 0.40741 0.01448 0.0
H1130 H 0.29027 0.30764 0.12424 0.0
H1131 H 0.2245 0.33798 0.14144 0.0
H1132 H 0.24603 0.40043 0.9757 0.0
H1133 H 0.27126 0.45886 0.03646 0.0
H1134 H 0.2243 0.42972 0.9525 0.0
H1135 H 0.24937 0.48723 0.01202 0.0
H1136 H 0.33995 0.37772 0.03125 0.0
H1137 H 0.27622 0.32365 0.04205 0.0
H1138 H 0.36022 0.34346 0.01335 0.0
H1139 H 0.29743 0.29035 0.02364 0.0
H1140 H 0.38556 0.42565 0.07397 0.0
H1141 H 0.35504 0.4802 0.03167 0.0
H1142 H 0.22041 0.33102 0.9421 0.0
H1143 H 0.30018 0.34798 0.94013 0.0
Li1144 Li 0.78732 0.15501 0.05683 0.0
Li1145 Li 0.80194 0.12176 0.03007 0.0
Li1146 Li 0.7815 0.15491 0.01024 0.0
Li1147 Li 0.7567 0.12103 0.03053 0.0
C1148 C 0.83194 0.17766 0.04234 0.0
N1149 N 0.86925 0.2163 0.06216 0.0
C1150 C 0.85474 0.17261 0.05282 0.0
C1151 C 0.82812 0.20234 0.04184 0.0
C1152 C 0.87337 0.19242 0.06276 0.0
C1153 C 0.8472 0.22162 0.05199 0.0
C1154 C 0.78321 0.09828 0.07267 0.0
C1155 C 0.77513 0.05389 0.07505 0.0
N1156 N 0.78708 0.05721 0.09909 0.0
C1157 C 0.79524 0.1013 0.09746 0.0
C1158 C 0.77291 0.07445 0.06139 0.0
C1159 C 0.79707 0.08027 0.11048 0.0
C1160 C 0.76686 0.17485 0.09702 0.0
N1161 N 0.78965 0.17527 0.08836 0.0
C1162 C 0.80864 0.20304 0.12464 0.0
C1163 C 0.81048 0.18889 0.10166 0.0
C1164 C 0.78526 0.20263 0.13403 0.0
C1165 C 0.76421 0.18843 0.11983 0.0
H1166 H 0.75066 0.16374 0.08617 0.0
H1167 H 0.8285 0.18859 0.09478 0.0
C1168 C 0.83219 0.09551 0.00155 0.0
N1169 N 0.82671 0.10111 0.02586 0.0
C1170 C 0.84895 0.07925 0.99669 0.0
C1171 C 0.85489 0.07552 0.0421 0.0
C1172 C 0.83795 0.09181 0.04607 0.0
C1173 C 0.86045 0.06885 0.0171 0.0
H1174 H 0.82318 0.10338 0.98584 0.0
H1175 H 0.83381 0.09701 0.06527 0.0
C1176 C 0.74262 0.17512 0.03057 0.0
N1177 N 0.71356 0.21121 0.02195 0.0
C1178 C 0.71858 0.16845 0.01816 0.0
C1179 C 0.75181 0.20009 0.03881 0.0
C1180 C 0.70421 0.18699 0.0139 0.0
C1181 C 0.73684 0.21808 0.03422 0.0
C1182 C 0.76631 0.09915 0.9823 0.0
C1183 C 0.75191 0.10357 0.96049 0.0
C1184 C 0.77092 0.07503 0.98534 0.0
C1185 C 0.74223 0.08375 0.94212 0.0
C1186 C 0.76093 0.05571 0.96652 0.0
N1187 N 0.7469 0.06043 0.94549 0.0
C1188 C 0.80288 0.18881 0.97767 0.0
C1189 C 0.75918 0.17666 0.96915 0.0
C1190 C 0.80334 0.20406 0.95767 0.0
N1191 N 0.78102 0.17558 0.98304 0.0
C1192 C 0.75879 0.19153 0.94884 0.0
C1193 C 0.78113 0.20534 0.94273 0.0
H1194 H 0.82005 0.18727 0.98867 0.0
H1195 H 0.74214 0.16552 0.97346 0.0
C1196 C 0.7114 0.1118 0.05005 0.0
N1197 N 0.72419 0.10258 0.03141 0.0
C1198 C 0.68643 0.10203 0.05147 0.0
C1199 C 0.6885 0.07247 0.01528 0.0
C1200 C 0.71343 0.08296 0.01445 0.0
C1201 C 0.67455 0.08241 0.03361 0.0
H1202 H 0.72045 0.12735 0.06333 0.0
H1203 H 0.72379 0.0758 0.99982 0.0
O1204 O 0.81361 0.15853 0.03227 0.0
O1205 O 0.78135 0.11866 0.05968 0.0
O1206 O 0.75683 0.15718 0.03514 0.0
O1207 O 0.77622 0.11843 0.00028 0.0
H1208 H 0.85798 0.15359 0.05326 0.0
H1209 H 0.81063 0.20656 0.03367 0.0
H1210 H 0.89112 0.18881 0.07097 0.0
H1211 H 0.8445 0.2408 0.05177 0.0
H1212 H 0.76731 0.03531 0.06655 0.0
H1213 H 0.80319 0.11969 0.10645 0.0
H1214 H 0.76327 0.07186 0.04236 0.0
H1215 H 0.80644 0.08229 0.12963 0.0
H1216 H 0.82532 0.21353 0.13533 0.0
H1217 H 0.74586 0.1877 0.12642 0.0
H1218 H 0.85258 0.07463 0.97711 0.0
H1219 H 0.86379 0.06851 0.0585 0.0
H1220 H 0.71118 0.14918 0.01169 0.0
H1221 H 0.77022 0.2055 0.0488 0.0
H1222 H 0.68561 0.18212 0.0042 0.0
H1223 H 0.74371 0.23749 0.04048 0.0
H1224 H 0.74825 0.12212 0.95777 0.0
H1225 H 0.78197 0.07121 0.00209 0.0
H1226 H 0.73103 0.0869 0.92516 0.0
H1227 H 0.76429 0.03696 0.96866 0.0
H1228 H 0.82098 0.21447 0.95377 0.0
H1229 H 0.74131 0.19149 0.93751 0.0
H1230 H 0.67638 0.11007 0.06604 0.0
H1231 H 0.67994 0.05751 0.00099 0.0
Li1232 Li 0.15651 0.52577 0.26277 0.0
Li1233 Li 0.12319 0.50354 0.28469 0.0
Li1234 Li 0.15408 0.48212 0.26554 0.0
Li1235 Li 0.12139 0.49725 0.23882 0.0
C1236 C 0.17498 0.50066 0.31167 0.0
N1237 N 0.20621 0.4821 0.34646 0.0
C1238 C 0.1655 0.4895 0.33256 0.0
C1239 C 0.20036 0.50258 0.30857 0.0
C1240 C 0.18159 0.4802 0.34992 0.0
C1241 C 0.21583 0.493 0.32632 0.0
C1242 C 0.10596 0.54333 0.27061 0.0
C1243 C 0.06553 0.55009 0.28207 0.0
N1244 N 0.07593 0.57292 0.29376 0.0
C1245 C 0.11624 0.5669 0.28265 0.0
C1246 C 0.08039 0.53488 0.27019 0.0
C1247 C 0.10074 0.58157 0.29427 0.0
C1248 C 0.17424 0.57192 0.24441 0.0
N1249 N 0.17694 0.55719 0.26372 0.0
C1250 C 0.20259 0.59073 0.28992 0.0
C1251 C 0.19117 0.56588 0.28596 0.0
C1252 C 0.19936 0.60658 0.27072 0.0
C1253 C 0.18569 0.59684 0.2474 0.0
H1254 H 0.16206 0.56473 0.22732 0.0
H1255 H 0.19242 0.55395 0.30123 0.0
C1256 C 0.08578 0.48652 0.31557 0.0
N1257 N 0.10413 0.50572 0.31278 0.0
C1258 C 0.07215 0.48722 0.33677 0.0
C1259 C 0.09624 0.52772 0.35151 0.0
C1260 C 0.1096 0.5261 0.33014 0.0
C1261 C 0.07752 0.50792 0.35515 0.0
H1262 H 0.08212 0.47042 0.30165 0.0
H1263 H 0.12465 0.54085 0.3276 0.0
C1264 C 0.17291 0.51224 0.2189 0.0
N1265 N 0.20391 0.53903 0.18843 0.0
C1266 C 0.16321 0.51919 0.19568 0.0
C1267 C 0.19839 0.51874 0.22655 0.0
C1268 C 0.17919 0.53277 0.18056 0.0
C1269 C 0.21374 0.53236 0.21091 0.0
C1270 C 0.10112 0.45227 0.25049 0.0
C1271 C 0.10975 0.43126 0.24003 0.0
C1272 C 0.07573 0.45364 0.24716 0.0
C1273 C 0.09279 0.41192 0.22631 0.0
C1274 C 0.05938 0.43394 0.23327 0.0
N1275 N 0.06817 0.41366 0.22323 0.0
C1276 C 0.16747 0.44047 0.28807 0.0
C1277 C 0.19226 0.4542 0.25541 0.0
C1278 C 0.18116 0.42133 0.2919 0.0
N1279 N 0.17318 0.45632 0.27 0.0
C1280 C 0.20628 0.4352 0.25844 0.0
C1281 C 0.20061 0.41832 0.2767 0.0
H1282 H 0.15205 0.44254 0.29926 0.0
H1283 H 0.19636 0.46705 0.24119 0.0
C1284 C 0.08667 0.51224 0.20438 0.0
N1285 N 0.09902 0.49295 0.20839 0.0
C1286 C 0.0701 0.51131 0.18265 0.0
C1287 C 0.0793 0.47068 0.16914 0.0
C1288 C 0.09582 0.47243 0.19123 0.0
C1289 C 0.06624 0.49038 0.16461 0.0
H1290 H 0.09006 0.5287 0.2178 0.0
H1291 H 0.10623 0.45754 0.19456 0.0
O1292 O 0.15948 0.50958 0.29427 0.0
O1293 O 0.12084 0.52857 0.25929 0.0
O1294 O 0.15755 0.499 0.23399 0.0
O1295 O 0.1174 0.47131 0.26414 0.0
H1296 H 0.14589 0.48782 0.33522 0.0
H1297 H 0.20797 0.51115 0.29247 0.0
H1298 H 0.1745 0.4714 0.36612 0.0
H1299 H 0.23548 0.4942 0.32408 0.0
H1300 H 0.04574 0.54373 0.28202 0.0
H1301 H 0.13598 0.57375 0.28319 0.0
H1302 H 0.07216 0.51666 0.26099 0.0
H1303 H 0.10845 0.59981 0.30374 0.0
H1304 H 0.2129 0.59778 0.3082 0.0
H1305 H 0.18252 0.60875 0.23241 0.0
H1306 H 0.05788 0.47158 0.33903 0.0
H1307 H 0.1012 0.54375 0.36555 0.0
H1308 H 0.14354 0.51425 0.18945 0.0
H1309 H 0.20616 0.51356 0.24452 0.0
H1310 H 0.17194 0.53835 0.16257 0.0
H1311 H 0.23347 0.53766 0.21666 0.0
H1312 H 0.12934 0.4299 0.24238 0.0
H1313 H 0.06877 0.46983 0.25503 0.0
H1314 H 0.0992 0.39555 0.21808 0.0
H1315 H 0.0397 0.43479 0.23044 0.0
H1316 H 0.17593 0.40844 0.30587 0.0
H1317 H 0.22116 0.43346 0.24635 0.0
H1318 H 0.06106 0.52726 0.17963 0.0
H1319 H 0.07694 0.4542 0.15569 0.0
Li1320 Li 0.75003 0.90145 0.53835 0.0
Li1321 Li 0.76701 0.87064 0.56128 0.0
Li1322 Li 0.79605 0.90581 0.5439 0.0
Li1323 Li 0.76989 0.8702 0.51572 0.0
C1324 C 0.76623 0.92802 0.58448 0.0
N1325 N 0.7539 0.96877 0.6122 0.0
C1326 C 0.74473 0.9255 0.59738 0.0
C1327 C 0.78142 0.9513 0.58564 0.0
C1328 C 0.73881 0.94632 0.61129 0.0
C1329 C 0.77488 0.97166 0.59977 0.0
C1330 C 0.72199 0.84828 0.54301 0.0
C1331 C 0.70514 0.80615 0.55026 0.0
N1332 N 0.68729 0.81479 0.56334 0.0
C1333 C 0.70349 0.85674 0.55655 0.0
C1334 C 0.72282 0.82277 0.5398 0.0
C1335 C 0.6861 0.83952 0.56665 0.0
C1336 C 0.70202 0.9061 0.51895 0.0
N1337 N 0.7224 0.91956 0.53307 0.0
C1338 C 0.70117 0.95467 0.53815 0.0
C1339 C 0.72263 0.94378 0.54185 0.0
C1340 C 0.67938 0.94057 0.52504 0.0
C1341 C 0.68025 0.91617 0.51484 0.0
H1342 H 0.70252 0.88725 0.51122 0.0
H1343 H 0.73929 0.95467 0.55196 0.0
C1344 C 0.77821 0.83237 0.59281 0.0
N1345 N 0.76338 0.84989 0.58931 0.0
C1346 C 0.7756 0.81749 0.61322 0.0
C1347 C 0.74238 0.83877 0.6259 0.0
C1348 C 0.7457 0.85322 0.60539 0.0
C1349 C 0.75763 0.82078 0.63029 0.0
H1350 H 0.79237 0.83017 0.58004 0.0
H1351 H 0.73412 0.86717 0.60238 0.0
C1352 C 0.76671 0.92431 0.49902 0.0
N1353 N 0.74998 0.9608 0.47225 0.0
C1354 C 0.7507 0.91771 0.4766 0.0
C1355 C 0.77429 0.94941 0.50784 0.0
C1356 C 0.74244 0.93646 0.46332 0.0
C1357 C 0.76559 0.9676 0.49404 0.0
C1358 C 0.81012 0.8527 0.53088 0.0
C1359 C 0.8333 0.86114 0.52247 0.0
C1360 C 0.79974 0.82748 0.52634 0.0
C1361 C 0.84563 0.84419 0.50942 0.0
C1362 C 0.81264 0.81112 0.5132 0.0
N1363 N 0.83513 0.81975 0.50507 0.0
C1364 C 0.84298 0.93532 0.56703 0.0
C1365 C 0.83504 0.93172 0.52185 0.0
C1366 C 0.86678 0.94899 0.5656 0.0
N1367 N 0.82776 0.92692 0.54526 0.0
C1368 C 0.85858 0.94503 0.51953 0.0
C1369 C 0.87497 0.95356 0.54152 0.0
H1370 H 0.83688 0.93099 0.58543 0.0
H1371 H 0.82274 0.92456 0.50482 0.0
C1372 C 0.75314 0.83239 0.47363 0.0
N1373 N 0.77075 0.85211 0.48333 0.0
C1374 C 0.75361 0.82154 0.44867 0.0
C1375 C 0.79056 0.8512 0.44452 0.0
C1376 C 0.78939 0.86141 0.46946 0.0
C1377 C 0.77222 0.83132 0.43359 0.0
H1378 H 0.73829 0.82561 0.48491 0.0
H1379 H 0.80302 0.87724 0.47762 0.0
O1380 O 0.77275 0.90775 0.57131 0.0
O1381 O 0.73923 0.86485 0.533 0.0
O1382 O 0.77471 0.90624 0.51246 0.0
O1383 O 0.79753 0.86909 0.54328 0.0
H1384 H 0.73254 0.90778 0.59641 0.0
H1385 H 0.79804 0.95366 0.57568 0.0
H1386 H 0.7222 0.94464 0.6213 0.0
H1387 H 0.78648 0.98978 0.60082 0.0
H1388 H 0.70562 0.78637 0.54798 0.0
H1389 H 0.70278 0.87642 0.55965 0.0
H1390 H 0.73703 0.81587 0.52947 0.0
H1391 H 0.67176 0.84583 0.57726 0.0
H1392 H 0.70141 0.97361 0.54619 0.0
H1393 H 0.66411 0.90482 0.50403 0.0
H1394 H 0.78802 0.80413 0.61605 0.0
H1395 H 0.72808 0.8418 0.63833 0.0
H1396 H 0.74465 0.89831 0.46961 0.0
H1397 H 0.78658 0.95476 0.52527 0.0
H1398 H 0.73001 0.93166 0.44594 0.0
H1399 H 0.7712 0.98711 0.50067 0.0
H1400 H 0.84166 0.88056 0.52592 0.0
H1401 H 0.78179 0.82067 0.53266 0.0
H1402 H 0.86356 0.85047 0.50273 0.0
H1403 H 0.80475 0.79158 0.50942 0.0
H1404 H 0.87895 0.95507 0.583 0.0
H1405 H 0.86405 0.9483 0.50062 0.0
H1406 H 0.73891 0.80647 0.44088 0.0
H1407 H 0.80535 0.85918 0.43369 0.0
Li1408 Li 0.90718 0.0121 0.27841 0.0
Li1409 Li 0.87264 0.98519 0.24903 0.0
Li1410 Li 0.90817 0.01402 0.23184 0.0
Li1411 Li 0.87542 0.03123 0.2535 0.0
C1412 C 0.92685 0.97112 0.26055 0.0
N1413 N 0.96198 0.94412 0.27908 0.0
C1414 C 0.91951 0.94675 0.26657 0.0
C1415 C 0.95204 0.98174 0.2639 0.0
C1416 C 0.93756 0.93341 0.27592 0.0
C1417 C 0.96952 0.9678 0.27332 0.0
C1418 C 0.85459 0.01568 0.2962 0.0
C1419 C 0.81378 0.02462 0.30376 0.0
N1420 N 0.82242 0.03345 0.32828 0.0
C1421 C 0.86304 0.02479 0.32151 0.0
C1422 C 0.82973 0.01549 0.28727 0.0
C1423 C 0.84649 0.0337 0.33742 0.0
C1424 C 0.93554 0.03675 0.32301 0.0
N1425 N 0.92592 0.01381 0.3111 0.0
C1426 C 0.93813 0.99451 0.34831 0.0
C1427 C 0.92707 0.99285 0.32317 0.0
C1428 C 0.94738 0.018 0.36136 0.0
C1429 C 0.94629 0.03929 0.3483 0.0
H1430 H 0.93389 0.05315 0.31322 0.0
H1431 H 0.91851 0.97489 0.31371 0.0
C1432 C 0.85566 0.9347 0.22842 0.0
N1433 N 0.85174 0.95314 0.24582 0.0
C1434 C 0.84262 0.91046 0.22842 0.0
C1435 C 0.82099 0.92488 0.26346 0.0
C1436 C 0.83462 0.94873 0.26297 0.0
C1437 C 0.82526 0.90522 0.24637 0.0
H1438 H 0.86957 0.93863 0.21516 0.0
H1439 H 0.83211 0.96355 0.2769 0.0
C1440 C 0.93019 0.05996 0.25348 0.0
N1441 N 0.9672 0.09615 0.24071 0.0
C1442 C 0.92396 0.07964 0.24031 0.0
C1443 C 0.95519 0.0588 0.26043 0.0
C1444 C 0.94296 0.09772 0.23394 0.0
C1445 C 0.97364 0.07725 0.25373 0.0
C1446 C 0.85124 0.00789 0.2042 0.0
C1447 C 0.85414 0.01831 0.18102 0.0
C1448 C 0.82755 0.99707 0.20965 0.0
C1449 C 0.83318 0.01814 0.16387 0.0
C1450 C 0.80705 0.99725 0.19199 0.0
N1451 N 0.81026 0.00772 0.16967 0.0
C1452 C 0.94536 0.00208 0.19906 0.0
C1453 C 0.92664 0.03674 0.1889 0.0
C1454 C 0.95968 0.00453 0.17821 0.0
N1455 N 0.92918 0.01806 0.204 0.0
C1456 C 0.94038 0.0397 0.16774 0.0
C1457 C 0.95705 0.02335 0.16199 0.0
H1458 H 0.9468 0.98707 0.21093 0.0
H1459 H 0.91358 0.04914 0.19302 0.0
C1460 C 0.86051 0.07372 0.27841 0.0
N1461 N 0.85701 0.05891 0.25588 0.0
C1462 C 0.84856 0.09451 0.28147 0.0
C1463 C 0.82994 0.08488 0.23793 0.0
C1464 C 0.842 0.06415 0.23581 0.0
C1465 C 0.83323 0.10052 0.26094 0.0
H1466 H 0.87292 0.06959 0.29397 0.0
H1467 H 0.83962 0.0526 0.21793 0.0
O1468 O 0.90945 0.98443 0.25129 0.0
O1469 O 0.87055 0.00686 0.28035 0.0
O1470 O 0.91186 0.04206 0.25982 0.0
O1471 O 0.87155 0.00802 0.22126 0.0
H1472 H 0.90008 0.93828 0.26418 0.0
H1473 H 0.95802 1.00053 0.25923 0.0
H1474 H 0.93216 0.91454 0.28069 0.0
H1475 H 0.98908 0.97579 0.27602 0.0
H1476 H 0.79454 0.02469 0.29704 0.0
H1477 H 0.88214 0.02496 0.32883 0.0
H1478 H 0.82287 0.00859 0.26777 0.0
H1479 H 0.85279 0.04081 0.35704 0.0
H1480 H 0.93824 0.97771 0.35789 0.0
H1481 H 0.95316 0.05775 0.35778 0.0
H1482 H 0.84639 0.89588 0.2148 0.0
H1483 H 0.80807 0.92164 0.27784 0.0
H1484 H 0.90466 0.08083 0.23491 0.0
H1485 H 0.96028 0.04389 0.27098 0.0
H1486 H 0.93844 0.113 0.22361 0.0
H1487 H 0.99309 0.07656 0.25892 0.0
H1488 H 0.87234 0.02656 0.17637 0.0
H1489 H 0.825 0.98858 0.22727 0.0
H1490 H 0.83513 0.02628 0.14594 0.0
H1491 H 0.7886 0.98902 0.196 0.0
H1492 H 0.972 0.99126 0.17429 0.0
H1493 H 0.93783 0.05456 0.15586 0.0
H1494 H 0.85198 0.10624 0.29942 0.0
H1495 H 0.81824 0.08873 0.22161 0.0
Li1496 Li 0.28211 0.65561 0.55398 0.0
Li1497 Li 0.29562 0.62289 0.5257 0.0
Li1498 Li 0.2746 0.65482 0.50719 0.0
Li1499 Li 0.2528 0.62112 0.53046 0.0
C1500 C 0.32776 0.67576 0.53754 0.0
N1501 N 0.37033 0.70838 0.55693 0.0
C1502 C 0.34764 0.66688 0.55011 0.0
C1503 C 0.32956 0.70119 0.5347 0.0
C1504 C 0.36901 0.68369 0.55979 0.0
C1505 C 0.35122 0.71739 0.5447 0.0
C1506 C 0.26752 0.60279 0.57253 0.0
C1507 C 0.24616 0.56151 0.57739 0.0
N1508 N 0.24191 0.56931 0.60159 0.0
C1509 C 0.26317 0.61032 0.59754 0.0
C1510 C 0.25919 0.57811 0.56246 0.0
C1511 C 0.25011 0.59315 0.61189 0.0
C1512 C 0.26314 0.6763 0.59487 0.0
N1513 N 0.28543 0.6769 0.58503 0.0
C1514 C 0.30567 0.705 0.62056 0.0
C1515 C 0.30655 0.69105 0.59719 0.0
C1516 C 0.28292 0.70396 0.63138 0.0
C1517 C 0.26144 0.68972 0.61803 0.0
H1518 H 0.24669 0.66475 0.58499 0.0
H1519 H 0.32413 0.69117 0.58921 0.0
C1520 C 0.33788 0.60884 0.50372 0.0
N1521 N 0.32105 0.60331 0.52093 0.0
C1522 C 0.35669 0.59452 0.5006 0.0
C1523 C 0.34027 0.56905 0.53275 0.0
C1524 C 0.32181 0.58378 0.5352 0.0
C1525 C 0.35824 0.57455 0.51555 0.0
H1526 H 0.33688 0.62459 0.49272 0.0
H1527 H 0.30832 0.57986 0.54879 0.0
C1528 C 0.23955 0.67727 0.53371 0.0
N1529 N 0.21627 0.71863 0.53394 0.0
C1530 C 0.2136 0.67438 0.52982 0.0
C1531 C 0.25367 0.70115 0.53776 0.0
C1532 C 0.20217 0.69554 0.52999 0.0
C1533 C 0.24155 0.72183 0.53781 0.0
C1534 C 0.27659 0.60314 0.47979 0.0
C1535 C 0.28824 0.61344 0.45955 0.0
C1536 C 0.27468 0.57759 0.48199 0.0
C1537 C 0.29804 0.598 0.44195 0.0
C1538 C 0.28477 0.56279 0.46404 0.0
N1539 N 0.29615 0.57321 0.44456 0.0
C1540 C 0.29276 0.68741 0.47198 0.0
C1541 C 0.24881 0.68009 0.472 0.0
C1542 C 0.29128 0.70411 0.45347 0.0
N1543 N 0.27171 0.67595 0.48089 0.0
C1544 C 0.24647 0.6969 0.45375 0.0
C1545 C 0.2679 0.70918 0.44418 0.0
H1546 H 0.3107 0.68349 0.47923 0.0
H1547 H 0.23236 0.67049 0.47924 0.0
C1548 C 0.20811 0.61027 0.55168 0.0
N1549 N 0.2211 0.60231 0.53259 0.0
C1550 C 0.18337 0.59961 0.55277 0.0
C1551 C 0.18627 0.57183 0.51529 0.0
C1552 C 0.21096 0.58321 0.5148 0.0
C1553 C 0.17201 0.58055 0.53405 0.0
H1554 H 0.21674 0.6256 0.56546 0.0
H1555 H 0.22172 0.57749 0.49971 0.0
O1556 O 0.30685 0.65959 0.52759 0.0
O1557 O 0.28014 0.61941 0.55811 0.0
O1558 O 0.251 0.65673 0.5335 0.0
O1559 O 0.26725 0.61803 0.49743 0.0
H1560 H 0.34654 0.64724 0.55242 0.0
H1561 H 0.31443 0.70836 0.52487 0.0
H1562 H 0.38454 0.6771 0.5696 0.0
H1563 H 0.35285 0.73713 0.54271 0.0
H1564 H 0.2394 0.54243 0.56973 0.0
H1565 H 0.26997 0.62913 0.6059 0.0
H1566 H 0.26243 0.57193 0.54318 0.0
H1567 H 0.24655 0.59876 0.63124 0.0
H1568 H 0.32266 0.71564 0.6305 0.0
H1569 H 0.24353 0.68856 0.62572 0.0
H1570 H 0.37041 0.5996 0.4874 0.0
H1571 H 0.34072 0.55375 0.54454 0.0
H1572 H 0.20241 0.656 0.52656 0.0
H1573 H 0.27376 0.70365 0.54087 0.0
H1574 H 0.1821 0.6936 0.52694 0.0
H1575 H 0.25224 0.74044 0.54092 0.0
H1576 H 0.28986 0.63317 0.45755 0.0
H1577 H 0.26574 0.56931 0.49753 0.0
H1578 H 0.30721 0.60573 0.42626 0.0
H1579 H 0.28359 0.54302 0.46561 0.0
H1580 H 0.30827 0.7126 0.44622 0.0
H1581 H 0.22807 0.70031 0.44733 0.0
H1582 H 0.17297 0.60672 0.56757 0.0
H1583 H 0.17802 0.55738 0.50035 0.0
Li1584 Li 0.3719 0.47983 0.74933 0.0
Li1585 Li 0.40715 0.50955 0.77718 0.0
Li1586 Li 0.37361 0.52578 0.75149 0.0
Li1587 Li 0.40513 0.50797 0.72972 0.0
C1588 C 0.34899 0.50757 0.78985 0.0
N1589 N 0.30573 0.51693 0.8096 0.0
C1590 C 0.3501 0.52094 0.81381 0.0
C1591 C 0.32592 0.49895 0.77591 0.0
C1592 C 0.328 0.52547 0.82348 0.0
C1593 C 0.30425 0.50389 0.78623 0.0
C1594 C 0.42922 0.47007 0.74723 0.0
C1595 C 0.47372 0.47282 0.74749 0.0
N1596 N 0.47044 0.44857 0.73769 0.0
C1597 C 0.42624 0.44522 0.7371 0.0
C1598 C 0.4531 0.48401 0.75251 0.0
C1599 C 0.44734 0.43466 0.73246 0.0
C1600 C 0.34013 0.43333 0.72872 0.0
N1601 N 0.35244 0.44746 0.74979 0.0
C1602 C 0.34001 0.41508 0.77634 0.0
C1603 C 0.35241 0.43888 0.7733 0.0
C1604 C 0.3274 0.39979 0.75497 0.0
C1605 C 0.32729 0.40933 0.73093 0.0
H1606 H 0.34062 0.44049 0.71018 0.0
H1607 H 0.36236 0.45051 0.78971 0.0
C1608 C 0.42408 0.53362 0.82543 0.0
N1609 N 0.4265 0.51354 0.80945 0.0
C1610 C 0.43542 0.53682 0.85047 0.0
C1611 C 0.45247 0.4991 0.84192 0.0
C1612 C 0.44036 0.49638 0.81712 0.0
C1613 C 0.44985 0.5194 0.8592 0.0
H1614 H 0.41266 0.54678 0.8189 0.0
H1615 H 0.44163 0.4803 0.80421 0.0
C1616 C 0.35375 0.50764 0.70095 0.0
N1617 N 0.32441 0.52166 0.66123 0.0
C1618 C 0.36319 0.52729 0.68723 0.0
C1619 C 0.32943 0.49505 0.69444 0.0
C1620 C 0.34805 0.53411 0.66722 0.0
C1621 C 0.31487 0.50245 0.67431 0.0
C1622 C 0.42632 0.55735 0.7506 0.0
C1623 C 0.419 0.57356 0.73336 0.0
C1624 C 0.45038 0.5621 0.76312 0.0
C1625 C 0.43613 0.59412 0.72857 0.0
C1626 C 0.46695 0.58285 0.75781 0.0
N1627 N 0.45955 0.59828 0.74078 0.0
C1628 C 0.36301 0.57081 0.77406 0.0
C1629 C 0.33418 0.55459 0.73836 0.0
C1630 C 0.35129 0.59169 0.77777 0.0
N1631 N 0.35455 0.55289 0.75443 0.0
C1632 C 0.3222 0.57537 0.74107 0.0
C1633 C 0.33085 0.59439 0.76086 0.0
H1634 H 0.3791 0.56899 0.78674 0.0
H1635 H 0.32719 0.54001 0.72331 0.0
C1636 C 0.41425 0.49909 0.67763 0.0
N1637 N 0.42536 0.50969 0.70084 0.0
C1638 C 0.42735 0.50003 0.65588 0.0
C1639 C 0.46358 0.52208 0.68219 0.0
C1640 C 0.44964 0.52098 0.70344 0.0
C1641 C 0.45251 0.51155 0.65784 0.0
H1642 H 0.39506 0.48995 0.67592 0.0
H1643 H 0.45837 0.529 0.72203 0.0
O1644 O 0.3704 0.50334 0.7798 0.0
O1645 O 0.40884 0.48052 0.75246 0.0
O1646 O 0.36826 0.50052 0.7205 0.0
O1647 O 0.40978 0.53735 0.75588 0.0
H1648 H 0.36783 0.52779 0.82479 0.0
H1649 H 0.3248 0.48876 0.75722 0.0
H1650 H 0.32856 0.5358 0.842 0.0
H1651 H 0.28626 0.4974 0.77563 0.0
H1652 H 0.49233 0.48339 0.75147 0.0
H1653 H 0.40783 0.43417 0.73307 0.0
H1654 H 0.45566 0.50324 0.7605 0.0
H1655 H 0.44535 0.4154 0.72473 0.0
H1656 H 0.34033 0.40869 0.79528 0.0
H1657 H 0.318 0.39812 0.71391 0.0
H1658 H 0.43214 0.55244 0.863 0.0
H1659 H 0.46355 0.48531 0.84748 0.0
H1660 H 0.38203 0.53709 0.69192 0.0
H1661 H 0.32183 0.47984 0.70493 0.0
H1662 H 0.35511 0.54929 0.65643 0.0
H1663 H 0.29599 0.49293 0.66909 0.0
H1664 H 0.40027 0.57042 0.72395 0.0
H1665 H 0.4562 0.54985 0.77675 0.0
H1666 H 0.43076 0.60681 0.71523 0.0
H1667 H 0.48568 0.58672 0.76727 0.0
H1668 H 0.35867 0.60597 0.79318 0.0
H1669 H 0.30632 0.57659 0.72777 0.0
H1670 H 0.41762 0.49201 0.63764 0.0
H1671 H 0.48295 0.5308 0.68499 0.0
Li1672 Li 0.62247 0.00613 0.7854 0.0
Li1673 Li 0.6559 0.02823 0.76389 0.0
Li1674 Li 0.62115 0.99951 0.74024 0.0
Li1675 Li 0.65342 0.98456 0.76671 0.0
C1676 C 0.60613 0.04641 0.77207 0.0
N1677 N 0.57808 0.07685 0.79722 0.0
C1678 C 0.61725 0.07 0.78345 0.0
C1679 C 0.5807 0.03836 0.77341 0.0
C1680 C 0.60275 0.0851 0.79607 0.0
C1681 C 0.56686 0.054 0.78625 0.0
C1682 C 0.67376 0.00258 0.81288 0.0
C1683 C 0.71405 0.99349 0.8276 0.0
N1684 N 0.70405 0.9831 0.84782 0.0
C1685 C 0.6639 0.99188 0.83385 0.0
C1686 C 0.69905 0.00351 0.80976 0.0
C1687 C 0.67953 0.98212 0.85129 0.0
C1688 C 0.58442 0.98989 0.81581 0.0
N1689 N 0.60349 0.0085 0.8134 0.0
C1690 C 0.59644 0.03046 0.85243 0.0
C1691 C 0.6097 0.02858 0.83105 0.0
C1692 C 0.57703 0.01122 0.85574 0.0
C1693 C 0.57083 0.99088 0.837 0.0
H1694 H 0.58015 0.97403 0.8016 0.0
H1695 H 0.62525 0.04287 0.82871 0.0
C1696 C 0.67467 0.0748 0.7465 0.0
N1697 N 0.6772 0.05923 0.76508 0.0
C1698 C 0.68739 0.09929 0.74994 0.0
C1699 C 0.70539 0.0909 0.79122 0.0
C1700 C 0.69255 0.0666 0.78688 0.0
C1701 C 0.7023 0.10771 0.77293 0.0
H1702 H 0.66174 0.06864 0.72969 0.0
H1703 H 0.69377 0.05406 0.80158 0.0
C1704 C 0.60085 0.95525 0.75044 0.0
N1705 N 0.56867 0.91846 0.71971 0.0
C1706 C 0.6098 0.93498 0.73873 0.0
C1707 C 0.57552 0.95677 0.74661 0.0
C1708 C 0.59322 0.91656 0.72326 0.0
C1709 C 0.55956 0.93801 0.73095 0.0
C1710 C 0.67268 0.0149 0.72054 0.0
C1711 C 0.66297 0.02296 0.69789 0.0
C1712 C 0.69826 0.02059 0.7279 0.0
C1713 C 0.67907 0.03668 0.68298 0.0
C1714 C 0.71373 0.0344 0.7125 0.0
N1715 N 0.70389 0.04209 0.69054 0.0
C1716 C 0.58166 0.00779 0.70622 0.0
C1717 C 0.60335 0.97612 0.69086 0.0
C1718 C 0.56672 0.00532 0.68312 0.0
N1719 N 0.5997 0.99352 0.70951 0.0
C1720 C 0.58894 0.97313 0.66735 0.0
C1721 C 0.57071 0.98825 0.66313 0.0
H1722 H 0.57946 0.02176 0.72116 0.0
H1723 H 0.61799 0.96517 0.69399 0.0
C1724 C 0.66702 0.94281 0.7888 0.0
N1725 N 0.67226 0.95864 0.77062 0.0
C1726 C 0.68031 0.92323 0.79169 0.0
C1727 C 0.70397 0.9366 0.75696 0.0
C1728 C 0.6904 0.95604 0.75493 0.0
C1729 C 0.69877 0.91976 0.77535 0.0
H1730 H 0.65222 0.94518 0.80076 0.0
H1731 H 0.69398 0.96876 0.74049 0.0
O1732 O 0.62007 0.03124 0.75982 0.0
O1733 O 0.65871 0.01198 0.79541 0.0
O1734 O 0.61683 0.97361 0.76542 0.0
O1735 O 0.65723 0.00148 0.73542 0.0
H1736 H 0.63689 0.07657 0.78274 0.0
H1737 H 0.57183 0.02003 0.76505 0.0
H1738 H 0.61114 0.10337 0.80502 0.0
H1739 H 0.54721 0.04791 0.7876 0.0
H1740 H 0.73361 0.99394 0.82534 0.0
H1741 H 0.64436 0.99092 0.83652 0.0
H1742 H 0.70695 0.01162 0.79357 0.0
H1743 H 0.67214 0.9737 0.86756 0.0
H1744 H 0.60203 0.04618 0.86676 0.0
H1745 H 0.556 0.97567 0.83904 0.0
H1746 H 0.6843 0.11191 0.73562 0.0
H1747 H 0.71673 0.09683 0.80918 0.0
H1748 H 0.62935 0.93354 0.74139 0.0
H1749 H 0.56833 0.97246 0.75532 0.0
H1750 H 0.5999 0.9008 0.71402 0.0
H1751 H 0.53995 0.93903 0.72768 0.0
H1752 H 0.64322 0.01883 0.69194 0.0
H1753 H 0.70605 0.01465 0.74548 0.0
H1754 H 0.67181 0.0431 0.66543 0.0
H1755 H 0.73354 0.03905 0.71803 0.0
H1756 H 0.55321 0.01765 0.68042 0.0
H1757 H 0.59254 0.95976 0.65233 0.0
H1758 H 0.67547 0.91034 0.80576 0.0
H1759 H 0.71805 0.93444 0.74399 0.0
Li1760 Li 0.75965 0.65604 0.02114 0.0
Li1761 Li 0.77883 0.62486 0.99863 0.0
Li1762 Li 0.76062 0.65704 0.97487 0.0
Li1763 Li 0.73276 0.62203 0.99376 0.0
C1764 C 0.80779 0.67947 0.01262 0.0
N1765 N 0.84583 0.716 0.03545 0.0
C1766 C 0.82468 0.67392 0.03185 0.0
C1767 C 0.8105 0.70346 0.00466 0.0
C1768 C 0.84371 0.69268 0.04325 0.0
C1769 C 0.82978 0.72171 0.01654 0.0
C1770 C 0.76129 0.60728 0.04412 0.0
C1771 C 0.75499 0.57069 0.06703 0.0
N1772 N 0.77445 0.58108 0.08437 0.0
C1773 C 0.78111 0.61767 0.06222 0.0
C1774 C 0.74799 0.58368 0.04658 0.0
C1775 C 0.78752 0.6041 0.08241 0.0
C1776 C 0.74268 0.66216 0.06869 0.0
N1777 N 0.75951 0.67385 0.05415 0.0
C1778 C 0.77494 0.7048 0.08904 0.0
C1779 C 0.77509 0.69519 0.06358 0.0
C1780 C 0.75862 0.69228 0.10485 0.0
C1781 C 0.74195 0.67102 0.09416 0.0
H1782 H 0.73027 0.64542 0.06066 0.0
H1783 H 0.788 0.70453 0.05167 0.0
C1784 C 0.82751 0.61855 0.99196 0.0
N1785 N 0.80618 0.60684 0.00016 0.0
C1786 C 0.84907 0.60784 0.99353 0.0
C1787 C 0.82627 0.57275 0.01133 0.0
C1788 C 0.80512 0.58425 0.00956 0.0
C1789 C 0.84873 0.58462 0.00337 0.0
H1790 H 0.82787 0.63649 0.98456 0.0
H1791 H 0.78796 0.57515 0.01582 0.0
C1792 C 0.722 0.67852 0.00541 0.0
N1793 N 0.70331 0.71868 0.02701 0.0
C1794 C 0.69726 0.67568 0.01119 0.0
C1795 C 0.73715 0.70184 0.01035 0.0
C1796 C 0.68816 0.69621 0.02214 0.0
C1797 C 0.72741 0.72189 0.02139 0.0
C1798 C 0.75506 0.59655 0.95341 0.0
C1799 C 0.75722 0.59409 0.9271 0.0
C1800 C 0.7522 0.57539 0.96679 0.0
C1801 C 0.75637 0.57036 0.91456 0.0
C1802 C 0.7515 0.552 0.95358 0.0
N1803 N 0.75356 0.54999 0.92795 0.0
C1804 C 0.78003 0.66948 0.92917 0.0
C1805 C 0.75215 0.69577 0.94304 0.0
C1806 C 0.78317 0.682 0.90726 0.0
N1807 N 0.76453 0.67634 0.94636 0.0
C1808 C 0.75493 0.70899 0.92149 0.0
C1809 C 0.77037 0.70193 0.90307 0.0
H1810 H 0.78972 0.65402 0.93235 0.0
H1811 H 0.73977 0.70076 0.95685 0.0
C1812 C 0.68895 0.60688 0.0134 0.0
N1813 N 0.70128 0.60097 0.99302 0.0
C1814 C 0.66585 0.59324 0.01671 0.0
C1815 C 0.66876 0.56674 0.97843 0.0
C1816 C 0.69162 0.58146 0.97545 0.0
C1817 C 0.65544 0.57251 0.99937 0.0
H1818 H 0.69718 0.62234 0.02718 0.0
H1819 H 0.70167 0.57709 0.95929 0.0
O1820 O 0.78915 0.66135 0.00107 0.0
O1821 O 0.75466 0.62018 0.0242 0.0
O1822 O 0.73131 0.65866 0.99474 0.0
O1823 O 0.7559 0.61963 0.96597 0.0
H1824 H 0.8232 0.65531 0.03783 0.0
H1825 H 0.79785 0.70795 0.98949 0.0
H1826 H 0.85685 0.68869 0.05824 0.0
H1827 H 0.83202 0.7404 0.01069 0.0
H1828 H 0.74494 0.55236 0.06914 0.0
H1829 H 0.79133 0.63605 0.06078 0.0
H1830 H 0.7325 0.57546 0.03277 0.0
H1831 H 0.80284 0.6119 0.09655 0.0
H1832 H 0.78816 0.72122 0.09652 0.0
H1833 H 0.72878 0.66102 0.10551 0.0
H1834 H 0.86598 0.61799 0.98758 0.0
H1835 H 0.82499 0.55472 0.01874 0.0
H1836 H 0.68509 0.65792 0.00703 0.0
H1837 H 0.75631 0.70436 0.00591 0.0
H1838 H 0.66904 0.69428 0.0267 0.0
H1839 H 0.739 0.73999 0.02548 0.0
H1840 H 0.75945 0.61032 0.91648 0.0
H1841 H 0.75029 0.577 0.98711 0.0
H1842 H 0.75794 0.56815 0.89418 0.0
H1843 H 0.74924 0.53545 0.96369 0.0
H1844 H 0.7954 0.67607 0.89365 0.0
H1845 H 0.74449 0.72403 0.91885 0.0
H1846 H 0.65628 0.59921 0.0327 0.0
H1847 H 0.66187 0.55087 0.96463 0.0
Li1848 Li 0.87998 0.49597 0.78881 0.0
Li1849 Li 0.91339 0.52666 0.81362 0.0
Li1850 Li 0.88153 0.54067 0.78507 0.0
Li1851 Li 0.91439 0.51917 0.76868 0.0
C1852 C 0.85925 0.51384 0.83127 0.0
N1853 N 0.82392 0.4953 0.86252 0.0
C1854 C 0.86663 0.50583 0.85483 0.0
C1855 C 0.83391 0.5124 0.8236 0.0
C1856 C 0.84847 0.49655 0.87037 0.0
C1857 C 0.81633 0.50294 0.83966 0.0
C1858 C 0.9315 0.47979 0.78427 0.0
C1859 C 0.97149 0.47439 0.77034 0.0
N1860 N 0.96217 0.4502 0.76212 0.0
C1861 C 0.92242 0.45481 0.7759 0.0
C1862 C 0.95633 0.4896 0.78171 0.0
C1863 C 0.93818 0.44018 0.76469 0.0
C1864 C 0.85534 0.45365 0.76075 0.0
N1865 N 0.85837 0.46464 0.78513 0.0
C1866 C 0.83193 0.42999 0.7989 0.0
C1867 C 0.84727 0.45322 0.80422 0.0
C1868 C 0.82846 0.4182 0.77379 0.0
C1869 C 0.84062 0.43037 0.75467 0.0
H1870 H 0.86491 0.4628 0.74604 0.0
H1871 H 0.8504 0.46187 0.8236 0.0
C1872 C 0.92552 0.54758 0.86525 0.0
N1873 N 0.93331 0.53409 0.84552 0.0
C1874 C 0.93875 0.55049 0.88948 0.0
C1875 C 0.96866 0.52714 0.87207 0.0
C1876 C 0.95465 0.52434 0.84836 0.0
C1877 C 0.96038 0.53977 0.89315 0.0
H1878 H 0.9085 0.55522 0.86238 0.0
H1879 H 0.96038 0.51364 0.83244 0.0
C1880 C 0.86017 0.51514 0.7393 0.0
N1881 N 0.82292 0.51981 0.70215 0.0
C1882 C 0.86624 0.52348 0.71586 0.0
C1883 C 0.83519 0.50898 0.7438 0.0
C1884 C 0.84712 0.52578 0.69733 0.0
C1885 C 0.81662 0.51152 0.72479 0.0
C1886 C 0.93368 0.57099 0.80264 0.0
C1887 C 0.92402 0.591 0.81391 0.0
C1888 C 0.95922 0.57049 0.80634 0.0
C1889 C 0.94015 0.61025 0.82876 0.0
C1890 C 0.97472 0.59005 0.82139 0.0
N1891 N 0.96494 0.60937 0.83217 0.0
C1892 C 0.84762 0.57262 0.79735 0.0
C1893 C 0.86362 0.57734 0.75721 0.0
C1894 C 0.83408 0.59193 0.79406 0.0
N1895 N 0.86204 0.5658 0.77908 0.0
C1896 C 0.85035 0.59676 0.75309 0.0
C1897 C 0.83564 0.60452 0.77187 0.0
H1898 H 0.84714 0.56353 0.81481 0.0
H1899 H 0.87572 0.57192 0.74328 0.0
C1900 C 0.92808 0.49624 0.72373 0.0
N1901 N 0.93348 0.51697 0.74063 0.0
C1902 C 0.94057 0.49468 0.70176 0.0
C1903 C 0.96395 0.5358 0.71514 0.0
C1904 C 0.95113 0.53648 0.73694 0.0
C1905 C 0.95842 0.51485 0.69706 0.0
H1906 H 0.91363 0.4812 0.72708 0.0
H1907 H 0.95475 0.55283 0.75056 0.0
O1908 O 0.87676 0.52334 0.81598 0.0
O1909 O 0.91624 0.49445 0.79509 0.0
O1910 O 0.87864 0.51283 0.75766 0.0
O1911 O 0.91822 0.55205 0.78794 0.0
H1912 H 0.88613 0.50654 0.86096 0.0
H1913 H 0.82787 0.51851 0.80545 0.0
H1914 H 0.85391 0.49026 0.88863 0.0
H1915 H 0.79666 0.5017 0.83395 0.0
H1916 H 0.99063 0.48184 0.76796 0.0
H1917 H 0.90344 0.44673 0.77816 0.0
H1918 H 0.96367 0.50893 0.78787 0.0
H1919 H 0.93135 0.42085 0.75806 0.0
H1920 H 0.82295 0.42143 0.8143 0.0
H1921 H 0.83935 0.42181 0.73522 0.0
H1922 H 0.93182 0.56038 0.90531 0.0
H1923 H 0.98504 0.51831 0.8742 0.0
H1924 H 0.88552 0.52826 0.71209 0.0
H1925 H 0.83022 0.50226 0.76176 0.0
H1926 H 0.85153 0.53231 0.67913 0.0
H1927 H 0.7972 0.50687 0.72801 0.0
H1928 H 0.9043 0.59168 0.81122 0.0
H1929 H 0.96698 0.55508 0.79784 0.0
H1930 H 0.93295 0.62588 0.83758 0.0
H1931 H 0.99451 0.58987 0.82449 0.0
H1932 H 0.82291 0.59728 0.80899 0.0
H1933 H 0.85243 0.60628 0.73594 0.0
H1934 H 0.93551 0.4784 0.68804 0.0
H1935 H 0.97762 0.5517 0.71214 0.0
Li1936 Li 0.75082 0.36754 0.53622 0.0
Li1937 Li 0.73253 0.40085 0.51741 0.0
Li1938 Li 0.74472 0.36627 0.49084 0.0
Li1939 Li 0.77586 0.39895 0.51378 0.0
C1940 C 0.69957 0.35059 0.49977 0.0
N1941 N 0.66193 0.32232 0.46658 0.0
C1942 C 0.68111 0.36188 0.48775 0.0
C1943 C 0.69887 0.32491 0.49495 0.0
C1944 C 0.66223 0.34725 0.47104 0.0
C1945 C 0.6797 0.31095 0.47808 0.0
C1946 C 0.75538 0.42136 0.56369 0.0
C1947 C 0.75254 0.46394 0.57757 0.0
N1948 N 0.74487 0.45661 0.6001 0.0
C1949 C 0.74752 0.41426 0.58701 0.0
C1950 C 0.758 0.44641 0.55895 0.0
C1951 C 0.74229 0.43236 0.60517 0.0
C1952 C 0.76942 0.35141 0.58283 0.0
N1953 N 0.75028 0.34759 0.56399 0.0
C1954 C 0.72955 0.31321 0.58344 0.0
C1955 C 0.73053 0.32906 0.564 0.0
C1956 C 0.74901 0.31662 0.60318 0.0
C1957 C 0.7692 0.33599 0.6027 0.0
H1958 H 0.78481 0.36645 0.58237 0.0
H1959 H 0.7155 0.32659 0.54892 0.0
C1960 C 0.70419 0.43845 0.50457 0.0
N1961 N 0.70883 0.42257 0.52224 0.0
C1962 C 0.68727 0.45476 0.50865 0.0
C1963 C 0.68045 0.43818 0.54911 0.0
C1964 C 0.69702 0.42183 0.54396 0.0
C1965 C 0.6752 0.45494 0.53129 0.0
H1966 H 0.71345 0.4383 0.4872 0.0
H1967 H 0.7007 0.40867 0.55747 0.0
C1968 C 0.78983 0.34844 0.52427 0.0
N1969 N 0.8186 0.32047 0.55182 0.0
C1970 C 0.81314 0.35942 0.53651 0.0
C1971 C 0.78115 0.32321 0.5262 0.0
C1972 C 0.82741 0.34496 0.55027 0.0
C1973 C 0.79596 0.3094 0.5402 0.0
C1974 C 0.76313 0.41788 0.47134 0.0
C1975 C 0.7729 0.40806 0.44976 0.0
C1976 C 0.76765 0.44359 0.47807 0.0
C1977 C 0.78715 0.42419 0.43529 0.0
C1978 C 0.782 0.45909 0.46313 0.0
N1979 N 0.79137 0.44915 0.44223 0.0
C1980 C 0.72484 0.35132 0.43924 0.0
C1981 C 0.74964 0.32454 0.45825 0.0
C1982 C 0.72349 0.33748 0.4155 0.0
N1983 N 0.7383 0.34496 0.45981 0.0
C1984 C 0.74851 0.31002 0.43506 0.0
C1985 C 0.73598 0.31689 0.41315 0.0
H1986 H 0.71617 0.3678 0.44102 0.0
H1987 H 0.76056 0.32015 0.47471 0.0
C1988 C 0.81763 0.43724 0.52894 0.0
N1989 N 0.80808 0.41733 0.51188 0.0
C1990 C 0.84239 0.44859 0.52895 0.0
C1991 C 0.84675 0.41909 0.49345 0.0
C1992 C 0.82189 0.40843 0.49402 0.0
C1993 C 0.85742 0.43908 0.51145 0.0
H1994 H 0.80639 0.44366 0.54321 0.0
H1995 H 0.81385 0.39235 0.48091 0.0
O1996 O 0.71847 0.36466 0.51583 0.0
O1997 O 0.76055 0.40388 0.54568 0.0
O1998 O 0.77546 0.36233 0.51081 0.0
O1999 O 0.74936 0.40238 0.48591 0.0
H2000 H 0.68142 0.38173 0.49117 0.0
H2001 H 0.71324 0.31592 0.50374 0.0
H2002 H 0.64784 0.35574 0.46157 0.0
H2003 H 0.67903 0.2911 0.47403 0.0
H2004 H 0.75434 0.48336 0.57408 0.0
H2005 H 0.74531 0.39496 0.59099 0.0
H2006 H 0.7639 0.45222 0.54095 0.0
H2007 H 0.73613 0.42711 0.62326 0.0
H2008 H 0.7137 0.29845 0.583 0.0
H2009 H 0.78437 0.33956 0.61781 0.0
H2010 H 0.68342 0.46674 0.49395 0.0
H2011 H 0.67199 0.43768 0.56698 0.0
H2012 H 0.8201 0.37894 0.5357 0.0
H2013 H 0.76289 0.31448 0.51755 0.0
H2014 H 0.84546 0.35326 0.55982 0.0
H2015 H 0.78937 0.28993 0.54198 0.0
H2016 H 0.76978 0.3882 0.44439 0.0
H2017 H 0.76027 0.45148 0.49474 0.0
H2018 H 0.79491 0.41685 0.4186 0.0
H2019 H 0.78572 0.47901 0.46816 0.0
H2020 H 0.71362 0.34332 0.39897 0.0
H2021 H 0.75873 0.29456 0.43394 0.0
H2022 H 0.85006 0.46373 0.5434 0.0
H2023 H 0.85773 0.41129 0.47961 0.0
Li2024 Li 0.62302 0.51348 0.31218 0.0
Li2025 Li 0.65695 0.53898 0.29244 0.0
Li2026 Li 0.62226 0.51017 0.26508 0.0
Li2027 Li 0.65533 0.49287 0.28923 0.0
C2028 C 0.60436 0.55496 0.29622 0.0
N2029 N 0.5715 0.58549 0.31168 0.0
C2030 C 0.61334 0.57845 0.30914 0.0
C2031 C 0.57871 0.54709 0.29092 0.0
C2032 C 0.59641 0.59358 0.31687 0.0
C2033 C 0.56239 0.56276 0.29897 0.0
C2034 C 0.67894 0.52676 0.33921 0.0
C2035 C 0.72213 0.53219 0.35587 0.0
N2036 N 0.71707 0.5465 0.37655 0.0
C2037 C 0.67414 0.54139 0.36069 0.0
C2038 C 0.70309 0.52199 0.33683 0.0
C2039 C 0.69368 0.55125 0.37933 0.0
C2040 C 0.5905 0.49019 0.34666 0.0
N2041 N 0.60298 0.51238 0.34099 0.0
C2042 C 0.58916 0.53338 0.37757 0.0
C2043 C 0.60237 0.53378 0.3559 0.0
C2044 C 0.57645 0.51069 0.38423 0.0
C2045 C 0.57697 0.48893 0.36818 0.0
H2046 H 0.59144 0.47332 0.33476 0.0
H2047 H 0.61259 0.55119 0.35135 0.0
C2048 C 0.67217 0.58245 0.27075 0.0
N2049 N 0.67732 0.57123 0.29221 0.0
C2050 C 0.68453 0.60629 0.26772 0.0
C2051 C 0.7078 0.60671 0.30879 0.0
C2052 C 0.6949 0.58278 0.31105 0.0
C2053 C 0.70248 0.61893 0.287 0.0
H2054 H 0.65819 0.57286 0.25599 0.0
H2055 H 0.69885 0.57373 0.32798 0.0
C2056 C 0.59861 0.4655 0.27686 0.0
N2057 N 0.5586 0.43102 0.25444 0.0
C2058 C 0.60257 0.44332 0.26388 0.0
C2059 C 0.57432 0.47005 0.27866 0.0
C2060 C 0.58209 0.42615 0.2526 0.0
C2061 C 0.55433 0.45242 0.26713 0.0
C2062 C 0.6795 0.51528 0.24954 0.0
C2063 C 0.67764 0.50613 0.22376 0.0
C2064 C 0.70291 0.52428 0.26257 0.0
C2065 C 0.69935 0.50588 0.2115 0.0
C2066 C 0.72418 0.52374 0.24964 0.0
N2067 N 0.72198 0.51461 0.22459 0.0
C2068 C 0.59135 0.52454 0.22417 0.0
C2069 C 0.6053 0.48593 0.21641 0.0
C2070 C 0.58104 0.52304 0.19872 0.0
N2071 N 0.6034 0.50623 0.23237 0.0
C2072 C 0.59528 0.48365 0.19092 0.0
C2073 C 0.58347 0.50264 0.18156 0.0
H2074 H 0.59069 0.54084 0.23704 0.0
H2075 H 0.61559 0.47199 0.22317 0.0
C2076 C 0.68364 0.45785 0.30942 0.0
N2077 N 0.67394 0.46576 0.28754 0.0
C2078 C 0.69577 0.43709 0.30836 0.0
C2079 C 0.6879 0.43306 0.26229 0.0
C2080 C 0.67593 0.45389 0.26424 0.0
C2081 C 0.69776 0.42414 0.28457 0.0
H2082 H 0.68154 0.46736 0.32775 0.0
H2083 H 0.66753 0.46013 0.24715 0.0
O2084 O 0.62066 0.53998 0.28836 0.0
O2085 O 0.66 0.51678 0.32089 0.0
O2086 O 0.61841 0.48252 0.28806 0.0
O2087 O 0.65843 0.51561 0.26182 0.0
H2088 H 0.63316 0.58485 0.3133 0.0
H2089 H 0.57149 0.52913 0.28059 0.0
H2090 H 0.60307 0.61176 0.327 0.0
H2091 H 0.54248 0.5569 0.29504 0.0
H2092 H 0.74092 0.52871 0.35423 0.0
H2093 H 0.65558 0.54521 0.36291 0.0
H2094 H 0.70713 0.51051 0.32047 0.0
H2095 H 0.69024 0.56268 0.39601 0.0
H2096 H 0.58913 0.5507 0.38915 0.0
H2097 H 0.56774 0.47098 0.37268 0.0
H2098 H 0.68006 0.61473 0.25039 0.0
H2099 H 0.72132 0.61576 0.32424 0.0
H2100 H 0.62126 0.43945 0.26246 0.0
H2101 H 0.57094 0.48696 0.28895 0.0
H2102 H 0.58487 0.40894 0.2424 0.0
H2103 H 0.53542 0.45571 0.26834 0.0
H2104 H 0.65963 0.49921 0.21336 0.0
H2105 H 0.70464 0.53173 0.28241 0.0
H2106 H 0.69821 0.49876 0.19158 0.0
H2107 H 0.74244 0.53063 0.2595 0.0
H2108 H 0.57236 0.53823 0.19227 0.0
H2109 H 0.59736 0.46746 0.17848 0.0
H2110 H 0.70324 0.43108 0.32605 0.0
H2111 H 0.68855 0.42347 0.24358 0.0
Zn2112 Zn 0.04306 0.00599 0.03976 0.0
Zn2113 Zn 0.99301 0.01875 0.00979 0.0
C2114 C 0.02359 0.96434 0.06143 0.0
O2115 O 0.03373 0.98044 0.08077 0.0
C2116 C 0.0063 0.05853 0.98196 0.0
O2117 O 0.99758 0.04007 0.96436 0.0
O2118 O 0.07754 0.99986 0.05151 0.0
O2119 O 0.04619 0.01761 0.00451 0.0
O2120 O 0.01059 0.99704 0.98606 0.0
C2121 C 0.09702 0.00858 0.04138 0.0
O2122 O 0.09598 0.02622 0.026 0.0
O2123 O 0.02394 0.97101 0.03884 0.0
C2124 C 0.9392 0.01043 0.00884 0.0
O2125 O 0.94314 0.99634 0.02732 0.0
O2126 O 0.95724 0.01854 0.99632 0.0
O2127 O 0.99099 0.01469 0.0476 0.0
O2128 O 0.02894 0.02702 0.06677 0.0
O2129 O 0.00751 0.05425 0.00538 0.0
C2130 C 0.0333 0.00627 0.98461 0.0
C2131 C 0.00544 0.0228 0.06772 0.0
Zn2132 Zn 0.25804 0.75982 0.30154 0.0
Zn2133 Zn 0.27312 0.76598 0.25111 0.0
C2134 C 0.22854 0.71249 0.29388 0.0
O2135 O 0.21497 0.72478 0.3081 0.0
C2136 C 0.30387 0.81176 0.26757 0.0
O2137 O 0.31943 0.79938 0.25635 0.0
O2138 O 0.25134 0.7582 0.3383 0.0
O2139 O 0.29537 0.76877 0.30204 0.0
O2140 O 0.29719 0.74537 0.26654 0.0
C2141 C 0.2674 0.76629 0.35714 0.0
O2142 O 0.28833 0.78031 0.3532 0.0
O2143 O 0.24875 0.72394 0.28724 0.0
C2144 C 0.26785 0.78926 0.2077 0.0
O2145 O 0.25434 0.79954 0.2237 0.0
O2146 O 0.2788 0.77162 0.21456 0.0
O2147 O 0.23644 0.75391 0.24971 0.0
O2148 O 0.23369 0.77888 0.28365 0.0
O2149 O 0.28172 0.80093 0.26899 0.0
C2150 C 0.30712 0.75512 0.28847 0.0
C2151 C 0.22404 0.76773 0.26216 0.0
Zn2152 Zn 0.49147 0.01839 0.52857 0.0
Zn2153 Zn 0.54441 0.00174 0.51292 0.0
C2154 C 0.50222 0.06299 0.55766 0.0
O2155 O 0.48872 0.04798 0.57134 0.0
C2156 C 0.52463 0.95743 0.48237 0.0
O2157 O 0.53585 0.97097 0.46587 0.0
O2158 O 0.45468 0.02163 0.52955 0.0
O2159 O 0.49505 0.00496 0.49277 0.0
O2160 O 0.5326 0.02314 0.48627 0.0
C2161 C 0.44542 0.03108 0.51036 0.0
O2162 O 0.45918 0.03598 0.49152 0.0
O2163 O 0.5083 0.05408 0.53645 0.0
C2164 C 0.58505 0.97714 0.52183 0.0
O2165 O 0.56747 0.96496 0.53377 0.0
O2166 O 0.58032 0.99585 0.51045 0.0
O2167 O 0.54284 0.01421 0.54943 0.0
O2168 O 0.50433 0.99892 0.55632 0.0
O2169 O 0.52427 0.96712 0.5051 0.0
C2170 C 0.50961 0.0167 0.47862 0.0
C2171 C 0.52755 0.00342 0.56354 0.0
Zn2172 Zn 0.29318 0.24987 0.76178 0.0
Zn2173 Zn 0.2405 0.26872 0.7857 0.0
C2174 C 0.27003 0.22491 0.71391 0.0
O2175 O 0.26868 0.20592 0.72777 0.0
C2176 C 0.24545 0.30346 0.82979 0.0
O2177 O 0.23107 0.31385 0.81418 0.0
O2178 O 0.32912 0.24732 0.75803 0.0
O2179 O 0.29386 0.28459 0.77932 0.0
O2180 O 0.25812 0.29077 0.7612 0.0
C2181 C 0.34184 0.26653 0.75062 0.0
O2182 O 0.33121 0.28607 0.74701 0.0
O2183 O 0.27855 0.24667 0.72466 0.0
C2184 C 0.18711 0.25304 0.77518 0.0
O2185 O 0.19336 0.23246 0.76487 0.0
O2186 O 0.20408 0.27138 0.78322 0.0
O2187 O 0.2415 0.23191 0.78575 0.0
O2188 O 0.27751 0.22013 0.77876 0.0
O2189 O 0.25321 0.28382 0.82155 0.0
C2190 C 0.28099 0.29876 0.76821 0.0
C2191 C 0.2553 0.21526 0.78474 0.0
Zn2192 Zn 0.02504 0.98708 0.52831 0.0
Zn2193 Zn 0.00995 0.03874 0.51593 0.0
C2194 C 0.05337 0.99453 0.57525 0.0
O2195 O 0.06736 0.98447 0.55958 0.0
C2196 C 0.97906 0.02897 0.47001 0.0
O2197 O 0.96605 0.04059 0.48552 0.0
O2198 O 0.02771 0.95056 0.52874 0.0
O2199 O 0.98901 0.98757 0.51575 0.0
O2200 O 0.98507 0.02201 0.5383 0.0
C2201 C 0.00925 0.93704 0.53665 0.0
O2202 O 0.98977 0.94704 0.54215 0.0
O2203 O 0.03262 0.99948 0.56602 0.0
C2204 C 0.0172 0.08354 0.49535 0.0
O2205 O 0.03045 0.06964 0.4825 0.0
O2206 O 0.00595 0.07472 0.51367 0.0
O2207 O 0.04687 0.04108 0.52554 0.0
O2208 O 0.05269 0.00427 0.50926 0.0
O2209 O 0.99975 0.02367 0.47901 0.0
C2210 C 0.97589 0.99995 0.529 0.0
C2211 C 0.06091 0.02724 0.51565 0.0
Zn2212 Zn 0.25628 0.7842 0.76622 0.0
Zn2213 Zn 0.27585 0.73209 0.7835 0.0
C2214 C 0.21199 0.76388 0.73626 0.0
O2215 O 0.22612 0.77283 0.71904 0.0
C2216 C 0.31997 0.75285 0.81292 0.0
O2217 O 0.30598 0.74332 0.83 0.0
O2218 O 0.25079 0.82025 0.76408 0.0
O2219 O 0.26986 0.78292 0.80263 0.0
O2220 O 0.2555 0.74466 0.81083 0.0
C2221 C 0.23532 0.826 0.77955 0.0
O2222 O 0.22547 0.80894 0.79361 0.0
O2223 O 0.22127 0.7651 0.75936 0.0
C2224 C 0.29362 0.68831 0.76792 0.0
O2225 O 0.30052 0.70348 0.75076 0.0
O2226 O 0.28142 0.69601 0.78576 0.0
O2227 O 0.26143 0.73346 0.74747 0.0
O2228 O 0.27665 0.77137 0.73894 0.0
O2229 O 0.3107 0.75151 0.7898 0.0
C2230 C 0.25921 0.76804 0.81723 0.0
C2231 C 0.27176 0.74802 0.7324 0.0
Zn2232 Zn 0.52301 0.0193 0.00054 0.0
Zn2233 Zn 0.50983 1.00051 0.04894 0.0
C2234 C 0.56832 0.05063 0.01815 0.0
O2235 O 0.5552 0.06672 0.00907 0.0
C2236 C 0.46474 0.97065 0.02808 0.0
O2237 O 0.4767 0.95394 0.03771 0.0
O2238 O 0.52756 0.02584 0.96418 0.0
O2239 O 0.51211 0.98197 0.99752 0.0
O2240 O 0.53178 0.97768 0.03435 0.0
C2241 C 0.54234 0.0121 0.95553 0.0
O2242 O 0.55241 0.99786 0.97087 0.0
O2243 O 0.55805 0.02803 0.01791 0.0
C2244 C 0.51308 0.00311 0.10417 0.0
O2245 O 0.53267 0.02029 0.10329 0.0
O2246 O 0.50229 0.99125 0.08352 0.0
O2247 O 0.52131 0.03743 0.05339 0.0
O2248 O 0.50217 0.04293 0.01657 0.0
O2249 O 0.47567 0.99313 0.02947 0.0
C2250 C 0.52445 0.96929 0.01135 0.0
C2251 C 0.50989 0.05092 0.03966 0.0
Zn2252 Zn 0.27084 0.23361 0.2564 0.0
Zn2253 Zn 0.25494 0.28273 0.28546 0.0
C2254 C 0.313 0.25163 0.23409 0.0
O2255 O 0.29672 0.2418 0.21478 0.0
C2256 C 0.21428 0.26842 0.31132 0.0
O2257 O 0.23204 0.27905 0.32896 0.0
O2258 O 0.27579 0.19894 0.24449 0.0
O2259 O 0.25977 0.23095 0.29194 0.0
O2260 O 0.2768 0.26771 0.31114 0.0
C2261 C 0.26696 0.17957 0.2547 0.0
O2262 O 0.24978 0.18091 0.27057 0.0
O2263 O 0.30623 0.25177 0.25668 0.0
C2264 C 0.23666 0.32512 0.27914 0.0
O2265 O 0.22513 0.30823 0.2611 0.0
O2266 O 0.25245 0.31886 0.29556 0.0
O2267 O 0.26435 0.28488 0.24915 0.0
O2268 O 0.24975 0.24769 0.22954 0.0
O2269 O 0.21939 0.26597 0.28816 0.0
C2270 C 0.26933 0.24455 0.31218 0.0
C2271 C 0.25547 0.27109 0.22885 0.0
Zn2272 Zn 0.52101 0.48473 0.02688 0.0
Zn2273 Zn 0.50833 0.53688 0.01626 0.0
C2274 C 0.55166 0.49425 0.07288 0.0
O2275 O 0.56526 0.48377 0.0571 0.0
C2276 C 0.48224 0.531 0.96737 0.0
O2277 O 0.46979 0.54555 0.98041 0.0
O2278 O 0.52416 0.44841 0.02842 0.0
O2279 O 0.48448 0.48432 0.01667 0.0
O2280 O 0.48171 0.52046 0.03681 0.0
C2281 C 0.5084 0.43743 0.042 0.0
O2282 O 0.49244 0.45 0.05217 0.0
O2283 O 0.53051 0.49857 0.06407 0.0
C2284 C 0.5216 0.59199 0.02045 0.0
O2285 O 0.54278 0.58933 0.03276 0.0
O2286 O 0.50486 0.57302 0.01414 0.0
O2287 O 0.54455 0.53671 0.02772 0.0
O2288 O 0.54642 0.50152 0.00507 0.0
O2289 O 0.50018 0.52271 0.97891 0.0
C2290 C 0.47204 0.49808 0.02918 0.0
C2291 C 0.55664 0.52326 0.01441 0.0
Zn2292 Zn 0.75503 0.2875 0.26518 0.0
Zn2293 Zn 0.77453 0.23597 0.28319 0.0
C2294 C 0.71046 0.26786 0.2358 0.0
O2295 O 0.72435 0.27776 0.21884 0.0
C2296 C 0.81887 0.25706 0.31208 0.0
O2297 O 0.80513 0.24744 0.3293 0.0
O2298 O 0.74968 0.32358 0.26269 0.0
O2299 O 0.76869 0.28652 0.30161 0.0
O2300 O 0.75419 0.24852 0.3104 0.0
C2301 C 0.73371 0.32932 0.27756 0.0
O2302 O 0.72345 0.31224 0.29138 0.0
O2303 O 0.72002 0.26824 0.25869 0.0
C2304 C 0.79452 0.19379 0.2685 0.0
O2305 O 0.8022 0.21004 0.2526 0.0
O2306 O 0.78068 0.20014 0.28543 0.0
O2307 O 0.7594 0.23681 0.24739 0.0
O2308 O 0.77523 0.27416 0.23793 0.0
O2309 O 0.8093 0.25581 0.28908 0.0
C2310 C 0.75776 0.27197 0.31633 0.0
C2311 C 0.7701 0.25071 0.23201 0.0
Zn2312 Zn 0.02042 0.51855 0.49868 0.0
Zn2313 Zn 0.00852 0.50289 0.54999 0.0
C2314 C 0.06626 0.54888 0.51481 0.0
O2315 O 0.05371 0.56476 0.5044 0.0
C2316 C 0.96288 0.47236 0.53356 0.0
O2317 O 0.97567 0.45657 0.5438 0.0
O2318 O 0.0252 0.52325 0.46186 0.0
O2319 O 0.00816 0.48172 0.49819 0.0
O2320 O 0.02833 0.478 0.53507 0.0
C2321 C 0.03976 0.50898 0.45379 0.0
O2322 O 0.04918 0.49479 0.46965 0.0
O2323 O 0.05552 0.52663 0.51573 0.0
C2324 C 0.99131 0.51378 0.59606 0.0
O2325 O 0.98249 0.52899 0.58097 0.0
O2326 O 0.0044 0.4985 0.58696 0.0
O2327 O 0.02156 0.53937 0.55016 0.0
O2328 O 1.00076 0.54374 0.51389 0.0
O2329 O 0.97335 0.49479 0.53305 0.0
C2330 C 0.02038 0.46915 0.51229 0.0
C2331 C 0.00961 0.55248 0.53647 0.0
Zn2332 Zn 0.79009 0.7525 0.25945 0.0
Zn2333 Zn 0.74024 0.77079 0.27936 0.0
C2334 C 0.7731 0.72192 0.21374 0.0
O2335 O 0.78059 0.7058 0.22858 0.0
C2336 C 0.75862 0.79959 0.32523 0.0
O2337 O 0.7516 0.81604 0.31055 0.0
O2338 O 0.82487 0.74551 0.25561 0.0
O2339 O 0.79427 0.78979 0.26841 0.0
O2340 O 0.75632 0.79746 0.25848 0.0
C2341 C 0.84439 0.75977 0.26603 0.0
O2342 O 0.84217 0.77849 0.28253 0.0
O2343 O 0.77395 0.74428 0.22314 0.0
C2344 C 0.69446 0.75896 0.29802 0.0
O2345 O 0.70711 0.74203 0.30598 0.0
O2346 O 0.70488 0.77529 0.28466 0.0
O2347 O 0.73671 0.73463 0.26541 0.0
O2348 O 0.77289 0.72775 0.28188 0.0
O2349 O 0.757 0.77715 0.31568 0.0
C2350 C 0.77982 0.80448 0.26101 0.0
C2351 C 0.74981 0.72012 0.27557 0.0
Zn2352 Zn 0.75999 0.26187 0.80068 0.0
Zn2353 Zn 0.76559 0.26425 0.7457 0.0
C2354 C 0.73507 0.21299 0.79807 0.0
O2355 O 0.72321 0.22472 0.81467 0.0
C2356 C 0.78121 0.31722 0.74301 0.0
O2357 O 0.78433 0.30982 0.71934 0.0
O2358 O 0.76163 0.26122 0.83912 0.0
O2359 O 0.79453 0.27645 0.79354 0.0
O2360 O 0.79464 0.24938 0.76049 0.0
C2361 C 0.7782 0.24876 0.84669 0.0
O2362 O 0.79183 0.24002 0.82981 0.0
O2363 O 0.75288 0.22529 0.78803 0.0
C2364 C 0.74497 0.26782 0.69569 0.0
O2365 O 0.72636 0.27141 0.70904 0.0
O2366 O 0.76448 0.26225 0.70716 0.0
O2367 O 0.73098 0.24986 0.75343 0.0
O2368 O 0.73083 0.27708 0.78641 0.0
O2369 O 0.77296 0.30129 0.75788 0.0
C2370 C 0.80611 0.26239 0.7803 0.0
C2371 C 0.71927 0.2636 0.76692 0.0
Zn2372 Zn 0.77449 0.73547 0.75293 0.0
Zn2373 Zn 0.75283 0.78397 0.78114 0.0
C2374 C 0.81653 0.75564 0.73123 0.0
O2375 O 0.80093 0.74524 0.7116 0.0
C2376 C 0.71346 0.76878 0.80904 0.0
O2377 O 0.73132 0.77988 0.82633 0.0
O2378 O 0.78112 0.70024 0.74572 0.0
O2379 O 0.76103 0.73394 0.7876 0.0
O2380 O 0.77657 0.77112 0.80637 0.0
C2381 C 0.79653 0.69614 0.76377 0.0
O2382 O 0.80524 0.71427 0.78173 0.0
O2383 O 0.80927 0.75543 0.7536 0.0
C2384 C 0.73371 0.82594 0.77491 0.0
O2385 O 0.72172 0.80894 0.75721 0.0
O2386 O 0.75009 0.8199 0.79077 0.0
O2387 O 0.75949 0.7849 0.74396 0.0
O2388 O 0.75369 0.747 0.72394 0.0
O2389 O 0.71806 0.76652 0.78573 0.0
C2390 C 0.7709 0.74779 0.80754 0.0
C2391 C 0.75542 0.77046 0.72334 0.0
Zn2392 Zn 0.54229 0.50777 0.53693 0.0
Zn2393 Zn 0.49213 0.51691 0.50933 0.0
C2394 C 0.52938 0.46476 0.56004 0.0
O2395 O 0.53911 0.48161 0.57892 0.0
C2396 C 0.50446 0.55949 0.48647 0.0
O2397 O 0.49328 0.54243 0.46839 0.0
O2398 O 0.57778 0.50618 0.54988 0.0
O2399 O 0.54414 0.51742 0.50055 0.0
O2400 O 0.50801 0.49798 0.4818 0.0
C2401 C 0.59658 0.514 0.53828 0.0
O2402 O 0.59413 0.52887 0.5202 0.0
O2403 O 0.52743 0.47132 0.53739 0.0
C2404 C 0.44863 0.5328 0.51735 0.0
O2405 O 0.46444 0.54195 0.53726 0.0
O2406 O 0.45588 0.51917 0.49959 0.0
O2407 O 0.49097 0.50397 0.54447 0.0
O2408 O 0.52507 0.5272 0.56313 0.0
O2409 O 0.5078 0.55332 0.50917 0.0
C2410 C 0.53078 0.50708 0.48042 0.0
C2411 C 0.50304 0.51596 0.5645 0.0
Zn2412 Zn 0.98478 0.53035 0.03596 0.0
Zn2413 Zn 0.03852 0.49375 0.01595 0.0
C2414 C 0.02194 0.57359 0.05587 0.0
O2415 O 0.03077 0.55811 0.07059 0.0
C2416 C 0.03219 0.45324 0.97903 0.0
O2417 O 0.04907 0.46908 0.96976 0.0
O2418 O 0.94829 0.53404 0.03153 0.0
O2419 O 0.99394 0.51021 0.00538 0.0
O2420 O 0.03019 0.51749 0.99051 0.0
C2421 C 0.94335 0.55 0.01638 0.0
O2422 O 0.96152 0.56198 0.00505 0.0
O2423 O 0.00383 0.56541 0.03907 0.0
C2424 C 0.07925 0.4716 0.03114 0.0
O2425 O 0.05994 0.4553 0.03527 0.0
O2426 O 0.07544 0.49215 0.023 0.0
O2427 O 0.02272 0.49962 0.04861 0.0
O2428 O 0.99402 0.51499 0.06852 0.0
O2429 O 0.02308 0.46008 0.99934 0.0
C2430 C 0.00759 0.52066 0.98961 0.0
C2431 C 0.01255 0.50345 0.06909 0.0
C2432 C 0.00942 0.12809 0.98124 0.0
C2433 C 0.01457 0.13125 0.95586 0.0
H2434 H 0.00339 0.10244 0.00978 0.0
C2435 C 0.01931 0.11079 0.94019 0.0
H2436 H 0.00586 0.14363 0.99374 0.0
C2437 C 0.01776 0.08739 0.94925 0.0
C2438 C 0.01172 0.08399 0.97425 0.0
H2439 H 0.0231 0.11261 0.9205 0.0
H2440 H 0.02059 0.07177 0.93639 0.0
C2441 C 0.00824 0.10464 0.99046 0.0
C2442 C 0.16649 0.76166 0.21564 0.0
C2443 C 0.15167 0.77639 0.22857 0.0
H2444 H 0.20062 0.74741 0.21603 0.0
C2445 C 0.16101 0.78881 0.25271 0.0
H2446 H 0.16009 0.75226 0.19679 0.0
C2447 C 0.18454 0.78609 0.26386 0.0
C2448 C 0.19913 0.771 0.25096 0.0
H2449 H 0.14996 0.80023 0.26316 0.0
H2450 H 0.19123 0.79567 0.28255 0.0
C2451 C 0.18984 0.75897 0.22668 0.0
C2452 C 0.50622 0.89598 0.44211 0.0
C2453 C 0.50573 0.87889 0.46069 0.0
H2454 H 0.5124 0.9342 0.43449 0.0
C2455 C 0.50934 0.88794 0.48673 0.0
H2456 H 0.5038 0.88961 0.42189 0.0
C2457 C 0.51411 0.91362 0.49397 0.0
C2458 C 0.51576 0.93061 0.47526 0.0
H2459 H 0.50891 0.87516 0.50143 0.0
H2460 H 0.51762 0.92012 0.51413 0.0
C2461 C 0.51129 0.92154 0.44931 0.0
C2462 C 0.3978 0.24473 0.72426 0.0
C2463 C 0.41356 0.26755 0.72295 0.0
H2464 H 0.36277 0.22646 0.73449 0.0
C2465 C 0.40639 0.28963 0.73323 0.0
H2466 H 0.40254 0.22736 0.71632 0.0
C2467 C 0.38343 0.28909 0.74312 0.0
C2468 C 0.36732 0.26643 0.74344 0.0
H2469 H 0.41832 0.30746 0.73324 0.0
H2470 H 0.37807 0.30651 0.75009 0.0
C2471 C 0.37496 0.24416 0.73462 0.0
C2472 C 0.98915 0.87221 0.55481 0.0
C2473 C 0.01189 0.86583 0.5643 0.0
H2474 H 0.97059 0.89973 0.53851 0.0
C2475 C 0.03415 0.88194 0.56158 0.0
H2476 H 0.97169 0.85996 0.55585 0.0
C2477 C 0.03351 0.90454 0.55097 0.0
C2478 C 0.0106 0.91153 0.5432 0.0
H2479 H 0.052 0.87774 0.5688 0.0
H2480 H 0.05082 0.91715 0.55025 0.0
C2481 C 0.9885 0.89489 0.54462 0.0
C2482 C 0.38055 0.7735 0.8541 0.0
C2483 C 0.39813 0.77199 0.83623 0.0
H2484 H 0.34206 0.76881 0.8606 0.0
C2485 C 0.38975 0.76654 0.81011 0.0
H2486 H 0.38638 0.77739 0.87438 0.0
C2487 C 0.3642 0.76174 0.80216 0.0
C2488 C 0.3467 0.76194 0.82029 0.0
H2489 H 0.40292 0.76543 0.79593 0.0
H2490 H 0.35818 0.75671 0.78203 0.0
C2491 C 0.35513 0.76843 0.84622 0.0
C2492 C 0.49222 0.11562 0.04666 0.0
C2493 C 0.50224 0.12406 0.07189 0.0
H2494 H 0.48694 0.08586 0.01644 0.0
C2495 C 0.51405 0.10804 0.08641 0.0
H2496 H 0.48309 0.12762 0.03501 0.0
C2497 C 0.51628 0.08436 0.07589 0.0
C2498 C 0.50676 0.07599 0.05051 0.0
H2499 H 0.52155 0.11381 0.10606 0.0
H2500 H 0.52562 0.07265 0.08772 0.0
C2501 C 0.49454 0.0918 0.03602 0.0
C2502 C 0.14399 0.26147 0.30947 0.0
C2503 C 0.14056 0.25976 0.33553 0.0
H2504 H 0.17013 0.26501 0.28107 0.0
C2505 C 0.16128 0.25836 0.3527 0.0
H2506 H 0.12835 0.26234 0.29574 0.0
C2507 C 0.18497 0.25979 0.34434 0.0
C2508 C 0.1886 0.26258 0.31858 0.0
H2509 H 0.15945 0.25735 0.37293 0.0
H2510 H 0.20062 0.25957 0.35831 0.0
C2511 C 0.16782 0.26272 0.30103 0.0
C2512 C 0.95731 0.02799 0.11498 0.0
C2513 C 0.97034 0.02494 0.13835 0.0
H2514 H 0.95818 0.02979 0.07465 0.0
C2515 C 0.99568 0.0226 0.13859 0.0
H2516 H 0.93775 0.02961 0.11401 0.0
C2517 C 0.00758 0.02301 0.11591 0.0
C2518 C 0.99423 0.02524 0.09244 0.0
H2519 H 0.00626 0.02037 0.15632 0.0
H2520 H 0.02697 0.02076 0.11663 0.0
C2521 C 0.96903 0.02797 0.09236 0.0
C2522 C 0.24636 0.72052 0.40395 0.0
C2523 C 0.26587 0.72616 0.42372 0.0
H2524 H 0.2312 0.72913 0.36776 0.0
C2525 C 0.28416 0.74727 0.42288 0.0
H2526 H 0.23207 0.70432 0.40378 0.0
C2527 C 0.28385 0.7614 0.40193 0.0
C2528 C 0.26513 0.75482 0.38149 0.0
H2529 H 0.29911 0.75252 0.4381 0.0
H2530 H 0.29883 0.77685 0.40129 0.0
C2531 C 0.24591 0.73477 0.38318 0.0
C2532 C 0.5329 0.99014 0.63314 0.0
C2533 C 0.55844 0.98884 0.63717 0.0
H2534 H 0.50279 0.99546 0.60634 0.0
C2535 C 0.57306 0.99078 0.61653 0.0
H2536 H 0.52126 0.9887 0.64882 0.0
C2537 C 0.56271 0.99502 0.59262 0.0
C2538 C 0.53738 0.99706 0.58863 0.0
H2539 H 0.59285 0.99024 0.61914 0.0
H2540 H 0.57477 0.99724 0.57735 0.0
C2541 C 0.52237 0.99398 0.60892 0.0
C2542 C 0.23965 0.33849 0.89341 0.0
C2543 C 0.25699 0.32951 0.90987 0.0
H2544 H 0.22276 0.33765 0.85522 0.0
C2545 C 0.27136 0.3126 0.89968 0.0
H2546 H 0.2286 0.35182 0.90073 0.0
C2547 C 0.26792 0.30429 0.87355 0.0
C2548 C 0.25034 0.3131 0.85713 0.0
H2549 H 0.28487 0.30541 0.912 0.0
H2550 H 0.27889 0.29088 0.86627 0.0
C2551 C 0.23648 0.33051 0.86731 0.0
C2552 C 0.94566 0.03637 0.40599 0.0
C2553 C 0.95591 0.02049 0.38908 0.0
H2554 H 0.94461 0.0511 0.4446 0.0
C2555 C 0.97367 0.00681 0.39897 0.0
H2556 H 0.93171 0.04688 0.39894 0.0
C2557 C 0.98136 0.0094 0.4253 0.0
C2558 C 0.97095 0.02527 0.4422 0.0
H2559 H 0.98183 0.9944 0.38628 0.0
H2560 H 0.99531 0.99895 0.43243 0.0
C2561 C 0.95293 0.03859 0.4322 0.0
C2562 C 0.29111 0.74095 0.66467 0.0
C2563 C 0.28146 0.7157 0.6574 0.0
H2564 H 0.29533 0.77134 0.69422 0.0
C2565 C 0.26936 0.70138 0.675 0.0
H2566 H 0.3005 0.75235 0.65134 0.0
C2567 C 0.26641 0.71205 0.69918 0.0
C2568 C 0.27547 0.73741 0.7065 0.0
H2569 H 0.26208 0.68178 0.67002 0.0
H2570 H 0.25682 0.70027 0.71208 0.0
C2571 C 0.28801 0.7518 0.68906 0.0
C2572 C 0.56415 0.98976 0.89338 0.0
C2573 C 0.56532 0.01099 0.87997 0.0
H2574 H 0.55589 0.97363 0.92787 0.0
C2575 C 0.5571 0.03227 0.89081 0.0
H2576 H 0.57062 0.97322 0.88556 0.0
C2577 C 0.54842 0.03246 0.91509 0.0
C2578 C 0.54841 0.01154 0.92889 0.0
H2579 H 0.55782 0.04883 0.88071 0.0
H2580 H 0.54274 0.04921 0.92345 0.0
C2581 C 0.55592 0.99008 0.91766 0.0
C2582 C 0.25401 0.3204 0.18257 0.0
C2583 C 0.25539 0.30709 0.15895 0.0
H2584 H 0.25343 0.31957 0.22291 0.0
C2585 C 0.2559 0.28136 0.15812 0.0
H2586 H 0.25385 0.34028 0.18383 0.0
C2587 C 0.25495 0.2692 0.18063 0.0
C2588 C 0.25419 0.28275 0.20438 0.0
H2589 H 0.25695 0.27069 0.14009 0.0
H2590 H 0.25554 0.24941 0.17955 0.0
C2591 C 0.25373 0.30847 0.20499 0.0
C2592 C 0.159 0.98982 0.02824 0.0
C2593 C 0.15628 0.96555 0.03602 0.0
H2594 H 0.14259 0.02258 0.02409 0.0
C2595 C 0.13491 0.95673 0.04795 0.0
H2596 H 0.17544 0.99754 0.01956 0.0
C2597 C 0.11638 0.97137 0.05113 0.0
C2598 C 0.11855 0.99509 0.04215 0.0
H2599 H 0.1319 0.93809 0.05394 0.0
H2600 H 0.09979 0.96354 0.05953 0.0
C2601 C 0.14029 0.00435 0.03113 0.0
C2602 C 0.623 0.556 0.02797 0.0
C2603 C 0.6308 0.55749 0.00317 0.0
H2604 H 0.59329 0.54435 0.05076 0.0
C2605 C 0.61437 0.54538 0.98222 0.0
H2606 H 0.6352 0.56409 0.04479 0.0
C2607 C 0.59062 0.53299 0.98594 0.0
C2608 C 0.58262 0.53302 0.01057 0.0
H2609 H 0.61936 0.54619 0.9628 0.0
H2610 H 0.57808 0.52447 0.96947 0.0
C2611 C 0.59905 0.54437 0.03154 0.0
C2612 C 0.72328 0.39457 0.26362 0.0
C2613 C 0.70841 0.40054 0.28317 0.0
H2614 H 0.74326 0.36753 0.24655 0.0
C2615 C 0.70287 0.38323 0.30105 0.0
H2616 H 0.72807 0.40756 0.24963 0.0
C2617 C 0.71153 0.36049 0.29927 0.0
C2618 C 0.72606 0.3543 0.27959 0.0
H2619 H 0.6912 0.38691 0.3161 0.0
H2620 H 0.70654 0.3476 0.31331 0.0
C2621 C 0.73212 0.37172 0.26192 0.0
C2622 C 0.89426 0.47366 0.51797 0.0
C2623 C 0.88461 0.44808 0.51392 0.0
H2624 H 0.92687 0.50153 0.52692 0.0
C2625 C 0.90112 0.43081 0.51432 0.0
H2626 H 0.88192 0.48735 0.51763 0.0
C2627 C 0.92666 0.43885 0.51983 0.0
C2628 C 0.93627 0.46435 0.52478 0.0
H2629 H 0.89421 0.41097 0.51154 0.0
H2630 H 0.93883 0.42503 0.52082 0.0
C2631 C 0.91994 0.48175 0.52314 0.0
C2632 C 0.31863 0.14166 0.2481 0.0
C2633 C 0.3095 0.12 0.2594 0.0
H2634 H 0.31218 0.17705 0.23715 0.0
C2635 C 0.28505 0.1171 0.26672 0.0
H2636 H 0.33742 0.14486 0.24253 0.0
C2637 C 0.27066 0.13595 0.26406 0.0
C2638 C 0.28022 0.15793 0.25365 0.0
H2639 H 0.2771 0.10044 0.27489 0.0
H2640 H 0.25229 0.13356 0.27078 0.0
C2641 C 0.3041 0.16026 0.24505 0.0
C2642 C 0.38667 0.05322 0.48536 0.0
C2643 C 0.37745 0.06192 0.50798 0.0
H2644 H 0.41514 0.03653 0.46848 0.0
C2645 C 0.38966 0.05808 0.53165 0.0
H2646 H 0.3775 0.05512 0.46678 0.0
C2647 C 0.41102 0.04674 0.53258 0.0
C2648 C 0.4208 0.03929 0.50989 0.0
H2649 H 0.38335 0.06469 0.54952 0.0
H2650 H 0.42053 0.04493 0.55104 0.0
C2651 C 0.40815 0.04228 0.48631 0.0
C2652 C 0.7011 0.6621 0.27436 0.0
C2653 C 0.7149 0.6449 0.28454 0.0
H2654 H 0.70113 0.69898 0.26367 0.0
C2655 C 0.74045 0.65278 0.29216 0.0
H2656 H 0.68132 0.65689 0.26874 0.0
C2657 C 0.75193 0.67717 0.28933 0.0
C2658 C 0.73807 0.69423 0.27892 0.0
H2659 H 0.75169 0.63999 0.29991 0.0
H2660 H 0.77164 0.68259 0.29519 0.0
C2661 C 0.7125 0.68636 0.27159 0.0
C2662 C 0.80011 0.38644 0.7431 0.0
C2663 C 0.81324 0.39297 0.76746 0.0
H2664 H 0.77983 0.35725 0.71632 0.0
C2665 C 0.81307 0.37467 0.78485 0.0
H2666 H 0.79908 0.40012 0.72945 0.0
C2667 C 0.80121 0.35017 0.77751 0.0
C2668 C 0.78975 0.3435 0.75253 0.0
H2669 H 0.8231 0.37887 0.8037 0.0
H2670 H 0.80229 0.33619 0.79083 0.0
C2671 C 0.78883 0.36192 0.73561 0.0
C2672 C 0.01851 0.8945 0.05798 0.0
C2673 C 0.01133 0.88999 0.08247 0.0
H2674 H 0.02736 0.92185 0.0316 0.0
C2675 C 0.00472 0.90953 0.09808 0.0
H2676 H 0.02349 0.87969 0.04548 0.0
C2677 C 0.007 0.93346 0.09021 0.0
C2678 C 0.01564 0.93831 0.06646 0.0
H2679 H 0.99933 0.90674 0.11711 0.0
H2680 H 0.00319 0.94847 0.10329 0.0
C2681 C 0.02046 0.9185 0.04993 0.0
C2682 C 0.86875 0.24029 0.78728 0.0
C2683 C 0.87877 0.25223 0.81145 0.0
H2684 H 0.83786 0.23422 0.7582 0.0
C2685 C 0.86479 0.2676 0.82478 0.0
H2686 H 0.87912 0.22847 0.77643 0.0
C2687 C 0.84168 0.27133 0.81417 0.0
C2688 C 0.83151 0.25935 0.79013 0.0
H2689 H 0.87149 0.27657 0.84372 0.0
H2690 H 0.83155 0.28326 0.82523 0.0
C2691 C 0.84526 0.24377 0.77673 0.0
C2692 C 0.52639 0.1324 0.55991 0.0
C2693 C 0.51439 0.14169 0.58035 0.0
H2694 H 0.53185 0.10001 0.53642 0.0
C2695 C 0.49942 0.12491 0.59372 0.0
H2696 H 0.53809 0.145 0.54935 0.0
C2697 C 0.49611 0.09941 0.58662 0.0
C2698 C 0.50752 0.09001 0.5658 0.0
H2699 H 0.49033 0.13151 0.60987 0.0
H2700 H 0.48421 0.0871 0.59729 0.0
C2701 C 0.52282 0.10673 0.55254 0.0
C2702 C 0.6347 0.78079 0.31507 0.0
C2703 C 0.62195 0.75926 0.32408 0.0
H2704 H 0.66761 0.79754 0.29921 0.0
C2705 C 0.63274 0.73756 0.32324 0.0
H2706 H 0.62673 0.79775 0.31542 0.0
C2707 C 0.65602 0.73749 0.31421 0.0
C2708 C 0.669 0.75906 0.30557 0.0
H2709 H 0.62353 0.72077 0.33032 0.0
H2710 H 0.66399 0.72054 0.31431 0.0
C2711 C 0.65797 0.78063 0.30567 0.0
C2712 C 0.013 0.13432 0.4518 0.0
C2713 C 0.00996 0.15445 0.46889 0.0
H2714 H 0.01785 0.09625 0.44698 0.0
C2715 C 0.00843 0.15101 0.49492 0.0
H2716 H 0.01448 0.13656 0.4317 0.0
C2717 C 0.01002 0.1277 0.50369 0.0
C2718 C 0.01385 0.10783 0.48661 0.0
H2719 H 0.00611 0.16634 0.50842 0.0
H2720 H 0.00898 0.1254 0.52383 0.0
C2721 C 0.01514 0.11133 0.4606 0.0
C2722 C 0.64901 0.25028 0.1955 0.0
C2723 C 0.63184 0.25104 0.21392 0.0
H2724 H 0.68724 0.25471 0.18808 0.0
C2725 C 0.64079 0.25514 0.23999 0.0
H2726 H 0.6428 0.24749 0.17525 0.0
C2727 C 0.66645 0.25923 0.24737 0.0
C2728 C 0.68353 0.25963 0.22877 0.0
H2729 H 0.62798 0.25564 0.2546 0.0
H2730 H 0.6729 0.26319 0.26752 0.0
C2731 C 0.67452 0.25458 0.20284 0.0
C2732 C 0.53132 0.91587 0.9635 0.0
C2733 C 0.53862 0.89842 0.97946 0.0
H2734 H 0.52071 0.95167 0.96108 0.0
C2735 C 0.54182 0.9046 0.0061 0.0
H2736 H 0.52835 0.91145 0.94293 0.0
C2737 C 0.53767 0.92783 0.01657 0.0
C2738 C 0.52977 0.94504 0.00058 0.0
H2739 H 0.54739 0.89142 0.01881 0.0
H2740 H 0.54014 0.93208 0.03717 0.0
C2741 C 0.52675 0.93883 0.97394 0.0
C2742 C 0.88623 0.75909 0.73642 0.0
C2743 C 0.89162 0.76651 0.71224 0.0
H2744 H 0.85798 0.75055 0.76192 0.0
C2745 C 0.87275 0.77385 0.69628 0.0
H2746 H 0.9005 0.7535 0.74915 0.0
C2747 C 0.84858 0.77203 0.7035 0.0
C2748 C 0.84284 0.76322 0.72696 0.0
H2749 H 0.87625 0.77945 0.67747 0.0
H2750 H 0.83406 0.77635 0.69013 0.0
C2751 C 0.86202 0.75766 0.74384 0.0
C2752 C 0.04274 0.99348 0.91387 0.0
C2753 C 0.0665 0.00756 0.91257 0.0
H2754 H 0.01342 0.98209 0.93746 0.0
C2755 C 0.07898 0.02094 0.93511 0.0
H2756 H 0.0325 0.98307 0.89686 0.0
C2757 C 0.06812 0.02034 0.95822 0.0
C2758 C 0.04437 0.00638 0.95963 0.0
H2759 H 0.09743 0.03165 0.93504 0.0
H2760 H 0.07847 0.03097 0.97505 0.0
C2761 C 0.03174 0.99299 0.93712 0.0
C2762 C 0.76874 0.2929 0.63594 0.0
C2763 C 0.74748 0.30107 0.62496 0.0
H2764 H 0.78456 0.27536 0.66677 0.0
C2765 C 0.72485 0.29544 0.63581 0.0
H2766 H 0.78634 0.29662 0.62773 0.0
C2767 C 0.72377 0.28309 0.65792 0.0
C2768 C 0.7453 0.27615 0.66974 0.0
H2769 H 0.70818 0.30163 0.62796 0.0
H2770 H 0.70625 0.28001 0.66638 0.0
C2771 C 0.76764 0.28047 0.65811 0.0
C2772 C 0.49955 0.04235 0.41433 0.0
C2773 C 0.47738 0.02678 0.40399 0.0
H2774 H 0.52775 0.05105 0.44625 0.0
C2775 C 0.46656 0.00791 0.41806 0.0
H2776 H 0.50822 0.05701 0.40375 0.0
C2777 C 0.47755 0.0045 0.44191 0.0
C2778 C 0.49968 0.01991 0.45244 0.0
H2779 H 0.44929 0.99586 0.41073 0.0
H2780 H 0.46849 0.98978 0.45219 0.0
C2781 C 0.51079 0.03879 0.43841 0.0
C2782 C 0.7597 0.68216 0.15041 0.0
C2783 C 0.76018 0.70013 0.13273 0.0
H2784 H 0.76319 0.67495 0.18971 0.0
C2785 C 0.76324 0.72543 0.14199 0.0
H2786 H 0.75766 0.66253 0.14394 0.0
C2787 C 0.76634 0.73259 0.16839 0.0
C2788 C 0.76674 0.71458 0.18599 0.0
H2789 H 0.76348 0.73969 0.12884 0.0
H2790 H 0.76925 0.75224 0.17496 0.0
C2791 C 0.763 0.68929 0.17669 0.0
C2792 C 0.08971 0.99041 0.63861 0.0
C2793 C 0.07507 1.00005 0.65643 0.0
H2794 H 0.09455 0.98145 0.59938 0.0
C2795 C 0.05354 0.00904 0.64733 0.0
H2796 H 0.10669 0.98384 0.64493 0.0
C2797 C 0.04649 0.00771 0.62092 0.0
C2798 C 0.06101 0.99761 0.60318 0.0
H2799 H 0.0419 0.01661 0.66061 0.0
H2800 H 0.02958 0.0143 0.61443 0.0
C2801 C 0.08282 0.98926 0.61241 0.0
C2802 C 0.73665 0.27873 0.38316 0.0
C2803 C 0.73898 0.30478 0.38768 0.0
H2804 H 0.74051 0.24771 0.35685 0.0
C2805 C 0.74677 0.31965 0.36843 0.0
H2806 H 0.73075 0.26688 0.3978 0.0
C2807 C 0.7528 0.30883 0.34541 0.0
C2808 C 0.75077 0.28281 0.34084 0.0
H2809 H 0.74922 0.33978 0.37154 0.0
H2810 H 0.7594 0.32103 0.33133 0.0
C2811 C 0.74229 0.2678 0.35981 0.0
C2812 C 0.49674 0.01699 0.17158 0.0
C2813 C 0.47171 0.00521 0.16972 0.0
H2814 H 0.52967 0.02541 0.1523 0.0
C2815 C 0.46159 0.99043 0.14707 0.0
H2816 H 0.50535 0.028 0.18898 0.0
C2817 C 0.47571 0.98843 0.12638 0.0
C2818 C 0.50018 0.0015 0.12767 0.0
H2819 H 0.44235 0.98129 0.14476 0.0
H2820 H 0.46691 0.97766 0.10891 0.0
C2821 C 0.5108 0.01528 0.15068 0.0
C2822 C 0.7701 0.69963 0.85538 0.0
C2823 C 0.77194 0.71421 0.87891 0.0
H2824 H 0.76824 0.69877 0.81467 0.0
C2825 C 0.77448 0.74027 0.87895 0.0
H2826 H 0.76785 0.67951 0.85463 0.0
C2827 C 0.77496 0.75145 0.85588 0.0
C2828 C 0.77245 0.73672 0.83233 0.0
H2829 H 0.77609 0.75199 0.89682 0.0
H2830 H 0.77669 0.77152 0.85647 0.0
C2831 C 0.77021 0.71071 0.83242 0.0
C2832 C 0.87959 0.03129 0.02691 0.0
C2833 C 0.8787 0.05178 0.01252 0.0
H2834 H 0.89904 0.00175 0.03661 0.0
C2835 C 0.89611 0.05646 0.99453 0.0
H2836 H 0.86613 0.0268 0.04052 0.0
C2837 C 0.9148 0.04187 0.99201 0.0
C2838 C 0.91658 0.02232 0.00752 0.0
H2839 H 0.89609 0.07214 0.98321 0.0
H2840 H 0.92859 0.04678 0.97883 0.0
C2841 C 0.89831 0.01673 0.02444 0.0
C2842 C 0.40725 0.49199 0.05209 0.0
C2843 C 0.3991 0.46614 0.04764 0.0
H2844 H 0.43691 0.52246 0.05007 0.0
C2845 C 0.41492 0.45108 0.03696 0.0
H2846 H 0.3953 0.504 0.0602 0.0
C2847 C 0.43834 0.4616 0.03066 0.0
C2848 C 0.44678 0.48741 0.03539 0.0
H2849 H 0.40892 0.43117 0.03289 0.0
H2850 H 0.44983 0.44938 0.02211 0.0
C2851 C 0.43101 0.50252 0.04627 0.0
C2852 C 0.31574 0.63007 0.74098 0.0
C2853 C 0.3196 0.61755 0.76284 0.0
H2854 H 0.3046 0.66208 0.72556 0.0
C2855 C 0.31354 0.62786 0.78646 0.0
H2856 H 0.32042 0.62277 0.72257 0.0
C2857 C 0.30406 0.65036 0.78815 0.0
C2858 C 0.301 0.66323 0.76635 0.0
H2859 H 0.31623 0.61855 0.80362 0.0
H2860 H 0.29993 0.65808 0.80662 0.0
C2861 C 0.30676 0.65268 0.74275 0.0
C2862 C 0.12864 0.58943 0.5331 0.0
C2863 C 0.14484 0.57187 0.53229 0.0
H2864 H 0.09099 0.59582 0.5282 0.0
C2865 C 0.13485 0.54641 0.5278 0.0
H2866 H 0.13586 0.6092 0.53627 0.0
C2867 C 0.10908 0.53871 0.52341 0.0
C2868 C 0.09301 0.55643 0.52297 0.0
H2869 H 0.147 0.53254 0.52718 0.0
H2870 H 0.10183 0.51903 0.51925 0.0
C2871 C 0.10298 0.58179 0.52832 0.0
C2872 C 0.71087 0.88255 0.75246 0.0
C2873 C 0.71054 0.89718 0.77556 0.0
H2874 H 0.71856 0.84858 0.73436 0.0
C2875 C 0.71983 0.88912 0.7986 0.0
H2876 H 0.7036 0.88817 0.73447 0.0
C2877 C 0.72872 0.8664 0.79851 0.0
C2878 C 0.72787 0.85133 0.77545 0.0
H2879 H 0.7198 0.90017 0.81664 0.0
H2880 H 0.73517 0.86014 0.81649 0.0
C2881 C 0.71929 0.85982 0.75244 0.0
C2882 C 0.63343 0.93499 0.52811 0.0
C2883 C 0.65539 0.95037 0.52335 0.0
H2884 H 0.59438 0.93137 0.53131 0.0
C2885 C 0.65407 0.97488 0.51751 0.0
H2886 H 0.63378 0.91616 0.53301 0.0
C2887 C 0.63118 0.98368 0.51638 0.0
C2888 C 0.60935 0.96826 0.52153 0.0
H2889 H 0.67066 0.98716 0.51366 0.0
H2890 H 0.63066 0.00263 0.51196 0.0
C2891 C 0.61081 0.94382 0.52732 0.0
C2892 C 0.2916 0.36381 0.74548 0.0
C2893 C 0.3153 0.37383 0.7579 0.0
H2894 H 0.26198 0.33238 0.73918 0.0
C2895 C 0.32748 0.35888 0.77353 0.0
H2896 H 0.28165 0.37488 0.73344 0.0
C2897 C 0.31628 0.33466 0.7768 0.0
C2898 C 0.29253 0.32464 0.76459 0.0
H2899 H 0.34587 0.36583 0.7831 0.0
H2900 H 0.32632 0.32379 0.789 0.0
C2901 C 0.28027 0.33953 0.74891 0.0
C2902 C 0.22298 0.64733 0.26083 0.0
C2903 C 0.20735 0.63365 0.27636 0.0
H2904 H 0.24239 0.68334 0.25449 0.0
C2905 C 0.19857 0.64601 0.29727 0.0
H2906 H 0.22984 0.63807 0.24454 0.0
C2907 C 0.20522 0.6717 0.30262 0.0
C2908 C 0.22116 0.68546 0.28741 0.0
H2909 H 0.18624 0.6358 0.30931 0.0
H2910 H 0.19815 0.68072 0.31892 0.0
C2911 C 0.23012 0.67309 0.26652 0.0
C2912 C 0.51675 0.61323 0.44644 0.0
C2913 C 0.51527 0.63381 0.46376 0.0
H2914 H 0.51496 0.57386 0.4403 0.0
C2915 C 0.51263 0.62999 0.48961 0.0
H2916 H 0.51843 0.61533 0.42635 0.0
C2917 C 0.51065 0.60592 0.49768 0.0
C2918 C 0.51094 0.58535 0.47992 0.0
H2919 H 0.51163 0.64551 0.50345 0.0
H2920 H 0.50768 0.6033 0.51743 0.0
C2921 C 0.51459 0.58937 0.45442 0.0
C2922 C 0.65705 0.24906 0.7279 0.0
C2923 C 0.64773 0.27145 0.73189 0.0
H2924 H 0.68674 0.22895 0.73628 0.0
C2925 C 0.6607 0.29024 0.75019 0.0
H2926 H 0.64714 0.23395 0.71449 0.0
C2927 C 0.68342 0.28724 0.76301 0.0
C2928 C 0.69344 0.26544 0.75762 0.0
H2929 H 0.65391 0.30768 0.75369 0.0
H2930 H 0.69373 0.30246 0.77602 0.0
C2931 C 0.67964 0.24612 0.74055 0.0
C2932 C 0.03681 0.39337 0.94003 0.0
C2933 C 0.01989 0.37604 0.95083 0.0
H2934 H 0.05363 0.43143 0.94016 0.0
C2935 C 0.0059 0.38447 0.96996 0.0
H2936 H 0.04746 0.38741 0.92489 0.0
C2937 C 0.00934 0.40973 0.97867 0.0
C2938 C 0.02672 0.42698 0.96826 0.0
H2939 H 0.99273 0.37146 0.97859 0.0
H2940 H 0.99873 0.41565 0.99386 0.0
C2941 C 0.04014 0.4186 0.9486 0.0
C2942 C 0.89267 0.741 0.22401 0.0
C2943 C 0.91376 0.75879 0.23303 0.0
H2944 H 0.85435 0.72715 0.22749 0.0
C2945 C 0.91242 0.77531 0.25463 0.0
H2946 H 0.89292 0.72814 0.20728 0.0
C2947 C 0.8902 0.77486 0.26614 0.0
C2948 C 0.8688 0.75784 0.25635 0.0
H2949 H 0.92845 0.78893 0.26239 0.0
H2950 H 0.8896 0.78839 0.28221 0.0
C2951 C 0.87048 0.7405 0.23556 0.0
C2952 C 0.48732 0.37436 0.06397 0.0
C2953 C 0.51002 0.36585 0.06931 0.0
H2954 H 0.46915 0.40366 0.05109 0.0
C2955 C 0.53206 0.38001 0.0627 0.0
H2956 H 0.46987 0.36366 0.06799 0.0
C2957 C 0.53148 0.40272 0.05222 0.0
C2958 C 0.50893 0.4118 0.04857 0.0
H2959 H 0.54991 0.37417 0.06666 0.0
H2960 H 0.54881 0.41379 0.04837 0.0
C2961 C 0.48683 0.39718 0.05402 0.0
C2962 C 0.87999 0.2771 0.35251 0.0
C2963 C 0.89731 0.27576 0.33433 0.0
H2964 H 0.84166 0.27246 0.35961 0.0
C2965 C 0.88855 0.27058 0.30827 0.0
H2966 H 0.88609 0.28075 0.37276 0.0
C2967 C 0.86292 0.26592 0.30069 0.0
C2968 C 0.84569 0.26601 0.31911 0.0
H2969 H 0.9015 0.26958 0.29384 0.0
H2970 H 0.85663 0.26109 0.28059 0.0
C2971 C 0.8545 0.2722 0.34499 0.0
C2972 C 0.994 0.61807 0.54285 0.0
C2973 C 0.00302 0.62601 0.56849 0.0
H2974 H 0.9891 0.58853 0.51237 0.0
C2975 C 0.01342 0.60936 0.58338 0.0
H2976 H 0.98594 0.63053 0.53088 0.0
C2977 C 0.01539 0.58563 0.57284 0.0
C2978 C 0.00685 0.57773 0.54712 0.0
H2979 H 0.02001 0.61462 0.60335 0.0
H2980 H 0.02364 0.57345 0.58502 0.0
C2981 C 0.99592 0.59411 0.53223 0.0
C2982 C 0.66123 0.75713 0.85123 0.0
C2983 C 0.6402 0.75807 0.83432 0.0
H2984 H 0.70076 0.75944 0.85632 0.0
C2985 C 0.6432 0.75998 0.80822 0.0
H2986 H 0.65967 0.75594 0.87149 0.0
C2987 C 0.66693 0.7619 0.79946 0.0
C2988 C 0.68802 0.76228 0.81675 0.0
H2989 H 0.62729 0.76053 0.7947 0.0
H2990 H 0.66887 0.76433 0.77947 0.0
C2991 C 0.68484 0.75928 0.84256 0.0
C2992 C 0.4615 0.49285 0.61478 0.0
C2993 C 0.46686 0.51235 0.63465 0.0
H2994 H 0.4686 0.47878 0.57747 0.0
C2995 C 0.48562 0.53264 0.63174 0.0
H2996 H 0.44788 0.4765 0.6164 0.0
C2997 C 0.4981 0.53361 0.6094 0.0
C2998 C 0.49184 0.51452 0.58928 0.0
H2999 H 0.49025 0.54817 0.64639 0.0
H3000 H 0.51201 0.54968 0.60752 0.0
C3001 C 0.4736 0.49404 0.59241 0.0
C3002 C 0.76215 0.23223 0.91248 0.0
C3003 C 0.78157 0.21927 0.91966 0.0
H3004 H 0.74592 0.25213 0.88377 0.0
C3005 C 0.80084 0.21833 0.90371 0.0
H3006 H 0.74719 0.23357 0.92455 0.0
C3007 C 0.80023 0.22911 0.88066 0.0
C3008 C 0.78028 0.24102 0.87288 0.0
H3009 H 0.81592 0.20827 0.90841 0.0
H3010 H 0.81505 0.22731 0.8685 0.0
C3011 C 0.76153 0.24306 0.88928 0.0
C3012 C 0.05822 0.4821 0.11695 0.0
C3013 C 0.05025 0.49029 0.14036 0.0
H3014 H 0.05259 0.4799 0.07628 0.0
C3015 C 0.02814 0.50054 0.14015 0.0
H3016 H 0.07528 0.47439 0.11635 0.0
C3017 C 0.01507 0.50374 0.11699 0.0
C3018 C 0.02387 0.49676 0.09357 0.0
H3019 H 0.02131 0.50673 0.15791 0.0
H3020 H 0.99866 0.51253 0.11747 0.0
C3021 C 0.04521 0.48534 0.09388 0.0
C3022 C 0.76531 0.79702 0.39726 0.0
C3023 C 0.77124 0.82251 0.40597 0.0
H3024 H 0.7572 0.7696 0.36475 0.0
C3025 C 0.77496 0.83995 0.38787 0.0
H3026 H 0.76251 0.78313 0.41076 0.0
C3027 C 0.77189 0.83225 0.36172 0.0
C3028 C 0.7652 0.8069 0.35294 0.0
H3029 H 0.77925 0.85973 0.39386 0.0
H3030 H 0.77412 0.8463 0.34833 0.0
C3031 C 0.7625 0.78927 0.37096 0.0
C3032 C 0.46336 0.50101 0.89977 0.0
C3033 C 0.46108 0.52206 0.8864 0.0
H3034 H 0.47239 0.48733 0.93602 0.0
C3035 C 0.46831 0.54586 0.89976 0.0
H3036 H 0.45779 0.48235 0.89038 0.0
C3037 C 0.47585 0.54852 0.92593 0.0
C3038 C 0.4772 0.52754 0.9393 0.0
H3039 H 0.46774 0.56257 0.89016 0.0
H3040 H 0.48037 0.56708 0.93585 0.0
C3041 C 0.47162 0.50376 0.92596 0.0
C3042 C 0.79247 0.24068 0.16591 0.0
C3043 C 0.7826 0.21537 0.15928 0.0
H3044 H 0.79594 0.2721 0.19417 0.0
C3045 C 0.76917 0.20203 0.17671 0.0
H3046 H 0.80286 0.25134 0.15268 0.0
C3047 C 0.76525 0.2137 0.20012 0.0
C3048 C 0.77459 0.23913 0.20678 0.0
H3049 H 0.76166 0.18242 0.17222 0.0
H3050 H 0.75473 0.20265 0.21297 0.0
C3051 C 0.78836 0.25255 0.18949 0.0
C3052 C 0.05622 0.52873 0.3893 0.0
C3053 C 0.06544 0.50773 0.37921 0.0
H3054 H 0.04024 0.54547 0.42093 0.0
C3055 C 0.06454 0.4868 0.39307 0.0
H3056 H 0.05667 0.54505 0.37885 0.0
C3057 C 0.05546 0.48713 0.41699 0.0
C3058 C 0.04684 0.50829 0.42744 0.0
H3059 H 0.07176 0.47048 0.38586 0.0
H3060 H 0.05561 0.4709 0.42753 0.0
C3061 C 0.04673 0.52892 0.4132 0.0
C3062 C 0.75785 0.78148 0.65284 0.0
C3063 C 0.75584 0.80695 0.65354 0.0
H3064 H 0.75881 0.74964 0.67423 0.0
C3065 C 0.75267 0.81962 0.67702 0.0
H3066 H 0.76016 0.77113 0.63501 0.0
C3067 C 0.75192 0.80743 0.69924 0.0
C3068 C 0.7542 0.78209 0.69879 0.0
H3069 H 0.75147 0.83929 0.67845 0.0
H3070 H 0.74995 0.81817 0.71695 0.0
C3071 C 0.75687 0.76912 0.67524 0.0
C3072 C 0.65874 0.49519 0.52618 0.0
C3073 C 0.65649 0.47166 0.53575 0.0
H3074 H 0.6417 0.52719 0.51968 0.0
C3075 C 0.63554 0.46375 0.54871 0.0
H3076 H 0.67486 0.50228 0.51668 0.0
C3077 C 0.61695 0.47841 0.55112 0.0
C3078 C 0.61853 0.50119 0.54022 0.0
H3079 H 0.63278 0.44567 0.55604 0.0
H3080 H 0.60065 0.47114 0.5603 0.0
C3081 C 0.63988 0.50967 0.5282 0.0
C3082 C 0.12946 0.03458 0.50348 0.0
C3083 C 0.1365 0.0607 0.50645 0.0
H3084 H 0.10011 0.00341 0.50404 0.0
C3085 C 0.11821 0.07539 0.51168 0.0
H3086 H 0.14302 0.02262 0.49963 0.0
C3087 C 0.09386 0.06442 0.51454 0.0
C3088 C 0.08687 0.03837 0.51196 0.0
H3089 H 0.12261 0.09553 0.51342 0.0
H3090 H 0.08045 0.07648 0.51867 0.0
C3091 C 0.10488 0.02354 0.50613 0.0
C3092 C 0.21953 0.88895 0.76405 0.0
C3093 C 0.2084 0.89627 0.7861 0.0
H3094 H 0.23701 0.86111 0.74463 0.0
C3095 C 0.20795 0.88098 0.80634 0.0
H3096 H 0.22007 0.9001 0.74796 0.0
C3097 C 0.21731 0.85861 0.80424 0.0
C3098 C 0.22772 0.85094 0.78197 0.0
H3099 H 0.20022 0.88619 0.8239 0.0
H3100 H 0.2162 0.84718 0.82012 0.0
C3101 C 0.2292 0.86658 0.76207 0.0
C3102 C 0.40229 0.9312 0.00654 0.0
C3103 C 0.38637 0.94904 0.00679 0.0
H3104 H 0.43957 0.92412 0.013 0.0
C3105 C 0.39674 0.9744 0.01172 0.0
H3106 H 0.39485 0.9115 0.00312 0.0
C3107 C 0.42249 0.98167 0.01729 0.0
C3108 C 0.4382 0.96364 0.01841 0.0
H3109 H 0.38488 0.98853 0.0119 0.0
H3110 H 0.42993 0.00126 0.02187 0.0
C3111 C 0.42791 0.93841 0.0124 0.0
C3112 C 0.81182 0.63175 0.74625 0.0
C3113 C 0.82396 0.62709 0.76957 0.0
H3114 H 0.79316 0.65728 0.72605 0.0
C3115 C 0.82597 0.6448 0.79081 0.0
H3116 H 0.8099 0.61834 0.72959 0.0
C3117 C 0.81654 0.66684 0.78878 0.0
C3118 C 0.80478 0.6718 0.76545 0.0
H3119 H 0.83552 0.64198 0.80893 0.0
H3120 H 0.81876 0.68016 0.80556 0.0
C3121 C 0.80213 0.65391 0.74425 0.0
C3122 C 0.88885 0.57623 0.98705 0.0
C3123 C 0.87187 0.57334 0.0057 0.0
H3124 H 0.92454 0.571 0.9758 0.0
C3125 C 0.87782 0.56067 0.02705 0.0
H3126 H 0.88468 0.58524 0.97002 0.0
C3127 C 0.90064 0.55205 0.03013 0.0
C3128 C 0.91803 0.55617 0.01206 0.0
H3129 H 0.86531 0.55825 0.0419 0.0
H3130 H 0.90508 0.5431 0.04714 0.0
C3131 C 0.91168 0.56791 0.99028 0.0
C3132 C 0.24132 0.1446 0.78084 0.0
C3133 C 0.22038 0.14066 0.79477 0.0
H3134 H 0.26927 0.17128 0.7673 0.0
C3135 C 0.21209 0.16135 0.80673 0.0
H3136 H 0.24811 0.12893 0.77149 0.0
C3137 C 0.22387 0.18553 0.80397 0.0
C3138 C 0.24454 0.18957 0.78963 0.0
H3139 H 0.1959 0.15886 0.81741 0.0
H3140 H 0.21652 0.20112 0.81276 0.0
C3141 C 0.25348 0.16881 0.77856 0.0
C3142 C 0.34461 0.87411 0.28544 0.0
C3143 C 0.32697 0.89023 0.2861 0.0
H3144 H 0.35103 0.83658 0.27911 0.0
C3145 C 0.30149 0.88014 0.28271 0.0
H3146 H 0.36438 0.88139 0.28768 0.0
C3147 C 0.29382 0.85438 0.27796 0.0
C3148 C 0.31155 0.83842 0.27609 0.0
H3149 H 0.28755 0.8922 0.28323 0.0
H3150 H 0.27409 0.84708 0.27465 0.0
C3151 C 0.33698 0.84848 0.28035 0.0
C3152 C 0.52337 0.39449 0.55471 0.0
C3153 C 0.51905 0.38956 0.57994 0.0
H3154 H 0.5295 0.42232 0.52828 0.0
C3155 C 0.51554 0.40924 0.59744 0.0
H3156 H 0.52594 0.37964 0.54074 0.0
C3157 C 0.51761 0.43345 0.59035 0.0
C3158 C 0.52305 0.43859 0.56555 0.0
H3159 H 0.51245 0.40619 0.61708 0.0
H3160 H 0.51578 0.44835 0.60463 0.0
C3161 C 0.52518 0.41882 0.5475 0.0
C3162 C 0.37009 0.76674 0.32663 0.0
C3163 C 0.38067 0.74623 0.31774 0.0
H3164 H 0.33863 0.78549 0.3244 0.0
C3165 C 0.36702 0.72859 0.29878 0.0
H3166 H 0.38013 0.78047 0.34141 0.0
C3167 C 0.34323 0.73164 0.2887 0.0
C3168 C 0.33259 0.75206 0.29789 0.0
H3169 H 0.37485 0.71265 0.29162 0.0
H3170 H 0.33301 0.71783 0.2741 0.0
C3171 C 0.34628 0.76953 0.31696 0.0
C3172 C 0.02382 0.64281 0.054 0.0
C3173 C 0.03365 0.65183 0.07917 0.0
H3174 H 0.01252 0.61088 0.02674 0.0
C3175 C 0.04264 0.63516 0.09523 0.0
H3176 H 0.01731 0.65516 0.04085 0.0
C3177 C 0.04053 0.60996 0.08687 0.0
C3178 C 0.02895 0.60071 0.06245 0.0
H3179 H 0.05002 0.64117 0.11484 0.0
H3180 H 0.04654 0.59752 0.10021 0.0
C3181 C 0.0213 0.61748 0.04579 0.0
C3182 C 0.13258 0.27338 0.80594 0.0
C3183 C 0.11532 0.25111 0.80312 0.0
H3184 H 0.16868 0.29157 0.79903 0.0
C3185 C 0.12083 0.23029 0.78855 0.0
H3186 H 0.129 0.2897 0.81723 0.0
C3187 C 0.14364 0.23133 0.77813 0.0
C3188 C 0.16145 0.2532 0.78216 0.0
H3189 H 0.10772 0.21299 0.78572 0.0
H3190 H 0.14769 0.21468 0.76782 0.0
C3191 C 0.15539 0.27442 0.79557 0.0
C3192 C 0.50148 0.63744 0.97579 0.0
C3193 C 0.51758 0.65972 0.98491 0.0
H3194 H 0.48979 0.59893 0.98008 0.0
C3195 C 0.53377 0.65983 0.00722 0.0
H3196 H 0.48907 0.63626 0.95846 0.0
C3197 C 0.53462 0.63803 0.0193 0.0
C3198 C 0.51892 0.61575 0.00971 0.0
H3199 H 0.54605 0.67668 0.01528 0.0
H3200 H 0.5478 0.63855 0.03595 0.0
C3201 C 0.50197 0.61585 0.98817 0.0
C3202 C 0.14242 0.75692 0.73934 0.0
C3203 C 0.13369 0.7502 0.71346 0.0
H3204 H 0.17428 0.7659 0.7671 0.0
C3205 C 0.15073 0.7454 0.69585 0.0
H3206 H 0.12963 0.76058 0.75331 0.0
C3207 C 0.17614 0.74863 0.70364 0.0
C3208 C 0.18501 0.75636 0.72927 0.0
H3209 H 0.14457 0.74041 0.67574 0.0
H3210 H 0.18896 0.74588 0.68941 0.0
C3211 C 0.16789 0.75975 0.74724 0.0
C3212 C 0.03748 0.4043 0.50755 0.0
C3213 C 0.03455 0.39814 0.48091 0.0
H3214 H 0.03564 0.43189 0.53849 0.0
C3215 C 0.02719 0.41545 0.46484 0.0
H3216 H 0.04301 0.39113 0.52029 0.0
C3217 C 0.0224 0.43834 0.47516 0.0
C3218 C 0.02541 0.44469 0.50179 0.0
H3219 H 0.0244 0.41098 0.44427 0.0
H3220 H 0.01632 0.45106 0.46219 0.0
C3221 C 0.03324 0.42754 0.5179 0.0
C3222 C 0.38293 0.25608 0.23834 0.0
C3223 C 0.38786 0.26306 0.21387 0.0
H3224 H 0.35517 0.24766 0.2644 0.0
C3225 C 0.36848 0.26935 0.19778 0.0
H3226 H 0.39758 0.25131 0.25121 0.0
C3227 C 0.34439 0.26716 0.20525 0.0
C3228 C 0.33918 0.25894 0.2291 0.0
H3229 H 0.37159 0.27459 0.17875 0.0
H3230 H 0.32957 0.27087 0.19186 0.0
C3231 C 0.35878 0.25425 0.246 0.0
C3232 C 0.54091 0.49452 0.40984 0.0
C3233 C 0.56408 0.50972 0.40854 0.0
H3234 H 0.51195 0.48187 0.4334 0.0
C3235 C 0.57579 0.52397 0.43093 0.0
H3236 H 0.53128 0.48342 0.39292 0.0
C3237 C 0.56482 0.52303 0.45395 0.0
C3238 C 0.54171 0.50786 0.45541 0.0
H3239 H 0.59377 0.53561 0.43084 0.0
H3240 H 0.57459 0.53434 0.47068 0.0
C3241 C 0.52976 0.49372 0.433 0.0
C3242 C 0.27065 0.83455 0.15768 0.0
C3243 C 0.27195 0.81915 0.13536 0.0
H3244 H 0.26824 0.83693 0.19803 0.0
C3245 C 0.27341 0.79385 0.13706 0.0
H3246 H 0.26929 0.85405 0.15681 0.0
C3247 C 0.2732 0.78406 0.16083 0.0
C3248 C 0.27085 0.79937 0.18293 0.0
H3249 H 0.27445 0.78169 0.12 0.0
H3250 H 0.27389 0.76444 0.16178 0.0
C3251 C 0.26988 0.82471 0.18119 0.0
C3252 C 0.99872 0.54359 0.92397 0.0
C3253 C 0.97262 0.53897 0.91916 0.0
H3254 H 0.03035 0.54204 0.95037 0.0
C3255 C 0.95822 0.53061 0.93857 0.0
H3256 H 0.01024 0.55006 0.90927 0.0
C3257 C 0.96965 0.52556 0.96178 0.0
C3258 C 0.99577 0.52935 0.96641 0.0
H3259 H 0.93808 0.5265 0.93526 0.0
H3260 H 0.95793 0.51762 0.97565 0.0
C3261 C 0.0102 0.53899 0.94746 0.0
C3262 C 0.2503 0.19063 0.64853 0.0
C3263 C 0.2636 0.20623 0.63265 0.0
H3264 H 0.24184 0.18445 0.68665 0.0
C3265 C 0.27694 0.22942 0.64338 0.0
H3266 H 0.24006 0.17255 0.64088 0.0
C3267 C 0.27773 0.23639 0.66969 0.0
C3268 C 0.26556 0.22008 0.68573 0.0
H3269 H 0.28724 0.24185 0.63153 0.0
H3270 H 0.28892 0.25393 0.67763 0.0
C3271 C 0.2514 0.1974 0.67478 0.0
C3272 C 0.55259 0.50866 0.14501 0.0
C3273 C 0.57537 0.50178 0.15374 0.0
H3274 H 0.52707 0.5117 0.11256 0.0
C3275 C 0.59068 0.49393 0.13558 0.0
H3276 H 0.54037 0.5148 0.15852 0.0
C3277 C 0.58316 0.49226 0.10945 0.0
C3278 C 0.56009 0.49835 0.10065 0.0
H3279 H 0.6086 0.48907 0.14156 0.0
H3280 H 0.5954 0.48578 0.09614 0.0
C3281 C 0.54497 0.50688 0.1187 0.0
C3282 C 0.24856 0.81487 0.87033 0.0
C3283 C 0.24154 0.79972 0.88961 0.0
H3284 H 0.26041 0.81686 0.83298 0.0
C3285 C 0.23982 0.77375 0.88493 0.0
H3286 H 0.25057 0.83496 0.87363 0.0
C3287 C 0.24507 0.76315 0.86124 0.0
C3288 C 0.25268 0.77846 0.84216 0.0
H3289 H 0.23463 0.76173 0.89966 0.0
H3290 H 0.24369 0.74312 0.85808 0.0
C3291 C 0.25434 0.80441 0.84705 0.0
C3292 C 0.96932 0.53596 0.65843 0.0
C3293 C 0.96927 0.51507 0.67227 0.0
H3294 H 0.97638 0.55183 0.62351 0.0
C3295 C 0.97802 0.49408 0.66147 0.0
H3296 H 0.9624 0.55228 0.66615 0.0
C3297 C 0.98617 0.49384 0.63695 0.0
C3298 C 0.98526 0.51444 0.62281 0.0
H3299 H 0.97825 0.47778 0.67186 0.0
H3300 H 0.99236 0.47729 0.62877 0.0
C3301 C 0.97712 0.53561 0.63392 0.0
C3302 C 0.28331 0.23379 0.38219 0.0
C3303 C 0.26834 0.21049 0.38342 0.0
H3304 H 0.29517 0.26315 0.35882 0.0
C3305 C 0.25367 0.19893 0.36124 0.0
H3306 H 0.29472 0.24322 0.39902 0.0
C3307 C 0.25406 0.21016 0.33838 0.0
C3308 C 0.269 0.23341 0.337 0.0
H3309 H 0.24217 0.18088 0.36139 0.0
H3310 H 0.24253 0.20051 0.32172 0.0
C3311 C 0.28348 0.24525 0.35924 0.0
C3312 C 0.38911 0.55371 0.49212 0.0
C3313 C 0.3798 0.56111 0.5152 0.0
H3314 H 0.41818 0.5382 0.47456 0.0
C3315 C 0.39214 0.5569 0.53848 0.0
H3316 H 0.37984 0.55663 0.4739 0.0
C3317 C 0.41383 0.54652 0.53882 0.0
C3318 C 0.42367 0.53992 0.51591 0.0
H3319 H 0.38566 0.56263 0.55658 0.0
H3320 H 0.42334 0.54433 0.55718 0.0
C3321 C 0.41083 0.54297 0.49247 0.0
C3322 C 0.91197 0.98774 0.55405 0.0
C3323 C 0.90087 0.96576 0.53889 0.0
H3324 H 0.94432 0.01616 0.56259 0.0
C3325 C 0.91464 0.95534 0.52067 0.0
H3326 H 0.90176 0.99623 0.56818 0.0
C3327 C 0.93882 0.96658 0.51755 0.0
C3328 C 0.94994 0.98868 0.53245 0.0
H3329 H 0.90677 0.93825 0.50893 0.0
H3330 H 0.94879 0.95788 0.50333 0.0
C3331 C 0.93624 0.99921 0.55073 0.0
C3332 C 0.82303 0.13909 0.2427 0.0
C3333 C 0.82205 0.12375 0.26286 0.0
H3334 H 0.81513 0.17288 0.2287 0.0
C3335 C 0.81098 0.1312 0.28485 0.0
H3336 H 0.83168 0.13413 0.22564 0.0
C3337 C 0.8013 0.15359 0.28662 0.0
C3338 C 0.80283 0.16911 0.26657 0.0
H3339 H 0.8098 0.11971 0.30066 0.0
H3340 H 0.79314 0.15899 0.30385 0.0
C3341 C 0.81365 0.16145 0.24456 0.0
C3342 C 0.63111 0.09137 0.03405 0.0
C3343 C 0.64733 0.07383 0.03268 0.0
H3344 H 0.59338 0.09771 0.03063 0.0
C3345 C 0.63725 0.04835 0.02869 0.0
H3346 H 0.63833 0.11115 0.03687 0.0
C3347 C 0.61142 0.04062 0.02529 0.0
C3348 C 0.59529 0.05829 0.02543 0.0
H3349 H 0.64934 0.03444 0.02774 0.0
H3350 H 0.60416 0.02091 0.02147 0.0
C3351 C 0.60537 0.08369 0.03034 0.0
C3352 C 0.21504 0.38172 0.2551 0.0
C3353 C 0.21299 0.39613 0.27788 0.0
H3354 H 0.22417 0.34806 0.23786 0.0
C3355 C 0.22103 0.38806 0.30142 0.0
H3356 H 0.20875 0.38728 0.23671 0.0
C3357 C 0.23026 0.36552 0.30208 0.0
C3358 C 0.231 0.35061 0.27923 0.0
H3359 H 0.2197 0.39892 0.31926 0.0
H3360 H 0.2356 0.35921 0.32039 0.0
C3361 C 0.22376 0.35917 0.25579 0.0
C3362 C 0.14958 0.47451 0.03414 0.0
C3363 C 0.15173 0.44981 0.03847 0.0
H3364 H 0.12484 0.50091 0.02814 0.0
C3365 C 0.13012 0.43295 0.04121 0.0
H3366 H 0.16598 0.48787 0.03192 0.0
C3367 C 0.10685 0.44036 0.03925 0.0
C3368 C 0.10446 0.46483 0.03432 0.0
H3369 H 0.13121 0.41391 0.04495 0.0
H3370 H 0.09066 0.42665 0.04127 0.0
C3371 C 0.12609 0.48193 0.03191 0.0
C3372 C 0.78757 0.87373 0.25242 0.0
C3373 C 0.81298 0.8792 0.24856 0.0
H3374 H 0.757 0.84582 0.25908 0.0
C3375 C 0.82704 0.85976 0.24811 0.0
H3376 H 0.77621 0.8883 0.25277 0.0
C3377 C 0.81615 0.83558 0.25198 0.0
C3378 C 0.79082 0.83011 0.25608 0.0
H3379 H 0.84671 0.86336 0.24551 0.0
H3380 H 0.82768 0.82115 0.25185 0.0
C3381 C 0.77655 0.8494 0.25593 0.0
C3382 C 0.70645 0.1463 0.80241 0.0
C3383 C 0.71189 0.13449 0.77936 0.0
H3384 H 0.70943 0.18038 0.82623 0.0
C3385 C 0.72544 0.14857 0.76246 0.0
H3386 H 0.69572 0.13588 0.81559 0.0
C3387 C 0.73355 0.17414 0.76868 0.0
C3388 C 0.7277 0.18596 0.7916 0.0
H3389 H 0.72976 0.13979 0.74454 0.0
H3390 H 0.74392 0.18473 0.75537 0.0
C3391 C 0.71413 0.17179 0.80839 0.0
loop_
_geom_bond_atom_site_label_1
_geom_bond_atom_site_label_2
_geom_bond_distance
_geom_bond_site_symmetry_2
_ccdc_geom_bond_type
Li0 N17 1.990 . S
Li0 O60 1.956 1_655 S
Li0 O61 1.970 . S
Li0 O62 1.961 1_655 S
Li1 N25 1.990 . S
Li1 O60 1.970 . S
Li1 O61 1.956 1_455 S
Li1 O63 1.961 . S
Li2 N47 1.990 . S
Li2 O60 1.961 . S
Li2 O62 1.956 . S
Li2 O63 1.970 . S
Li3 N53 1.990 . S
Li3 O61 1.961 1_455 S
Li3 O62 1.970 . S
Li3 O63 1.956 . S
C4 C6 1.348 . S
C4 C7 1.356 . S
C4 O60 1.325 . S
N5 C8 1.314 . S
N5 C9 1.279 . S
C6 C4 1.348 . S
C6 C8 1.353 . S
C6 H64 0.929 . S
C7 C4 1.356 . S
C7 C9 1.358 . S
C7 H65 0.930 . S
C8 N5 1.314 . S
C8 C6 1.353 . S
C8 H66 0.930 . S
C9 N5 1.279 . S
C9 C7 1.358 . S
C9 H67 0.930 . S
C10 C13 1.348 . S
C10 C14 1.356 . S
C10 O61 1.325 . S
C11 N12 1.279 . S
C11 C14 1.358 . S
C11 H68 0.930 . S
N12 C11 1.279 . S
N12 C15 1.314 . S
C13 C10 1.348 . S
C13 C15 1.353 . S
C13 H69 0.929 . S
C14 C10 1.356 . S
C14 C11 1.358 . S
C14 H70 0.930 . S
C15 N12 1.314 . S
C15 C13 1.353 . S
C15 H71 0.930 . S
C16 N17 1.314 . S
C16 C21 1.353 . S
C16 H22 0.930 . S
N17 Li0 1.990 . S
N17 C16 1.314 . S
N17 C19 1.279 . S
C18 C19 1.358 . S
C18 C20 1.356 . S
C18 H72 0.930 . S
C19 N17 1.279 . S
C19 C18 1.358 . S
C19 H23 0.930 . S
C20 C18 1.356 . S
C20 C21 1.348 . S
C21 C16 1.353 . S
C21 C20 1.348 . S
C21 H73 0.929 . S
H22 C16 0.930 . S
H23 C19 0.930 . S
C24 N25 1.314 . S
C24 C26 1.353 . S
C24 H30 0.930 . S
N25 Li1 1.990 . S
N25 C24 1.314 . S
N25 C28 1.279 . S
C26 C24 1.353 . S
C26 C29 1.348 . S
C26 H74 0.929 . S
C27 C28 1.358 . S
C27 C29 1.356 . S
C27 H75 0.925 1_455 S
C28 N25 1.279 . S
C28 C27 1.358 . S
C28 H31 0.930 1_455 S
C29 C26 1.348 . S
C29 C27 1.356 . S
H30 C24 0.930 . S
H31 C28 0.930 1_655 S
C32 C34 1.348 . S
C32 C35 1.356 . S
C32 O62 1.325 . S
N33 C36 1.314 . S
N33 C37 1.279 . S
C34 C32 1.348 . S
C34 C36 1.353 . S
C34 H76 0.929 . S
C35 C32 1.356 . S
C35 C37 1.358 . S
C35 H77 0.930 . S
C36 N33 1.314 . S
C36 C34 1.353 . S
C36 H78 0.930 . S
C37 N33 1.279 . S
C37 C35 1.358 . S
C37 H79 0.930 . S
C38 C39 1.348 . S
C38 C40 1.356 . S
C38 O63 1.325 . S
C39 C38 1.348 . S
C39 C41 1.353 . S
C39 H80 0.929 . S
C40 C38 1.356 . S
C40 C42 1.358 . S
C40 H81 0.930 . S
C41 C39 1.353 . S
C41 N43 1.314 . S
C41 H82 0.930 . S
C42 C40 1.358 . S
C42 N43 1.279 . S
C42 H83 0.930 . S
N43 C41 1.314 . S
N43 C42 1.279 . S
C44 C46 1.353 . S
C44 N47 1.314 . S
C44 H50 0.930 . S
C45 N47 1.279 . S
C45 C48 1.358 . S
C45 H51 0.930 . S
C46 C44 1.353 . S
C46 C49 1.348 . S
C46 H84 0.929 . S
N47 Li2 1.990 . S
N47 C44 1.314 . S
N47 C45 1.279 . S
C48 C45 1.358 . S
C48 C49 1.356 . S
C48 H85 0.930 . S
C49 C46 1.348 . S
C49 C48 1.356 . S
H50 C44 0.930 . S
H51 C45 0.930 . S
C52 N53 1.314 . S
C52 C54 1.353 1_455 S
C52 H58 0.930 1_455 S
N53 Li3 1.990 . S
N53 C52 1.314 . S
N53 C56 1.279 . S
C54 C52 1.353 1_655 S
C54 C57 1.348 1_655 S
C54 H86 0.929 . S
C55 C56 1.358 . S
C55 C57 1.356 . S
C55 H87 0.930 . S
C56 N53 1.279 . S
C56 C55 1.358 . S
C56 H59 0.930 . S
C57 C54 1.348 1_455 S
C57 C55 1.356 . S
H58 C52 0.930 1_655 S
H59 C56 0.930 . S
O60 Li0 1.956 1_455 S
O60 Li1 1.970 . S
O60 Li2 1.961 . S
O60 C4 1.325 . S
O61 Li0 1.970 . S
O61 Li1 1.956 1_655 S
O61 Li3 1.961 1_655 S
O61 C10 1.325 . S
O62 Li0 1.961 1_455 S
O62 Li2 1.956 . S
O62 Li3 1.970 . S
O62 C32 1.325 . S
O63 Li1 1.961 . S
O63 Li2 1.970 . S
O63 Li3 1.956 . S
O63 C38 1.325 . S
H64 C6 0.929 . S
H65 C7 0.930 . S
H66 C8 0.930 . S
H67 C9 0.930 . S
H68 C11 0.930 . S
H69 C13 0.929 . S
H70 C14 0.930 . S
H71 C15 0.930 . S
H72 C18 0.930 . S
H73 C21 0.929 . S
H74 C26 0.929 . S
H75 C27 0.925 1_655 S
H76 C34 0.929 . S
H77 C35 0.930 . S
H78 C36 0.930 . S
H79 C37 0.930 . S
H80 C39 0.929 . S
H81 C40 0.930 . S
H82 C41 0.930 . S
H83 C42 0.930 . S
H84 C46 0.929 . S
H85 C48 0.930 . S
H86 C54 0.929 . S
H87 C55 0.930 . S
Li88 N105 1.990 . S
Li88 O148 1.956 . S
Li88 O149 1.970 . S
Li88 O150 1.961 1_455 S
Li89 N113 1.990 . S
Li89 O148 1.970 . S
Li89 O149 1.956 . S
Li89 O151 1.961 . S
Li90 N135 1.990 1_455 S
Li90 O148 1.961 . S
Li90 O150 1.956 1_455 S
Li90 O151 1.970 . S
Li91 N141 1.990 . S
Li91 O149 1.961 1_655 S
Li91 O150 1.970 . S
Li91 O151 1.956 1_655 S
C92 C94 1.348 . S
C92 C95 1.356 . S
C92 O148 1.325 . S
N93 C96 1.314 . S
N93 C97 1.279 . S
C94 C92 1.348 . S
C94 C96 1.353 . S
C94 H152 0.929 . S
C95 C92 1.356 . S
C95 C97 1.358 . S
C95 H153 0.930 . S
C96 N93 1.314 . S
C96 C94 1.353 . S
C96 H154 0.930 . S
C97 N93 1.279 . S
C97 C95 1.358 . S
C97 H155 0.930 . S
C98 C101 1.348 . S
C98 C102 1.356 . S
C98 O149 1.325 . S
C99 N100 1.279 . S
C99 C102 1.358 . S
C99 H156 0.930 . S
N100 C99 1.279 . S
N100 C103 1.314 . S
C101 C98 1.348 . S
C101 C103 1.353 . S
C101 H157 0.929 . S
C102 C98 1.356 . S
C102 C99 1.358 . S
C102 H158 0.930 . S
C103 N100 1.314 . S
C103 C101 1.353 . S
C103 H159 0.930 . S
C104 N105 1.314 1_655 S
C104 C109 1.353 . S
C104 H110 0.930 . S
N105 Li88 1.990 . S
N105 C104 1.314 1_455 S
N105 C107 1.279 . S
C106 C107 1.358 . S
C106 C108 1.356 . S
C106 H160 0.930 . S
C107 N105 1.279 . S
C107 C106 1.358 . S
C107 H111 0.930 . S
C108 C106 1.356 . S
C108 C109 1.348 1_455 S
C109 C104 1.353 . S
C109 C108 1.348 1_655 S
C109 H161 0.929 . S
H110 C104 0.930 . S
H111 C107 0.930 . S
C112 N113 1.314 . S
C112 C114 1.353 . S
C112 H118 0.930 . S
N113 Li89 1.990 . S
N113 C112 1.314 . S
N113 C116 1.279 . S
C114 C112 1.353 . S
C114 C117 1.348 . S
C114 H162 0.929 . S
C115 C116 1.358 . S
C115 C117 1.356 . S
C115 H163 0.930 . S
C116 N113 1.279 . S
C116 C115 1.358 . S
C116 H119 0.930 . S
C117 C114 1.348 . S
C117 C115 1.356 . S
H118 C112 0.930 . S
H119 C116 0.930 . S
C120 C122 1.348 . S
C120 C123 1.356 . S
C120 O150 1.325 . S
N121 C124 1.314 . S
N121 C125 1.279 . S
C122 C120 1.348 . S
C122 C124 1.353 . S
C122 H164 0.929 . S
C123 C120 1.356 . S
C123 C125 1.358 . S
C123 H165 0.930 . S
C124 N121 1.314 . S
C124 C122 1.353 . S
C124 H166 0.930 . S
C125 N121 1.279 . S
C125 C123 1.358 . S
C125 H167 0.930 . S
C126 C127 1.348 1_455 S
C126 C128 1.356 . S
C126 O151 1.325 . S
C127 C126 1.348 1_655 S
C127 C129 1.353 . S
C127 H168 0.929 . S
C128 C126 1.356 . S
C128 C130 1.358 . S
C128 H169 0.930 . S
C129 C127 1.353 . S
C129 N131 1.314 1_655 S
C129 H170 0.930 . S
C130 C128 1.358 . S
C130 N131 1.279 . S
C130 H171 0.930 . S
N131 C129 1.314 1_455 S
N131 C130 1.279 . S
C132 C134 1.353 . S
C132 N135 1.314 1_455 S
C132 H138 0.930 . S
C133 N135 1.279 . S
C133 C136 1.358 . S
C133 H139 0.930 . S
C134 C132 1.353 . S
C134 C137 1.348 1_455 S
C134 H172 0.929 . S
N135 Li90 1.990 1_655 S
N135 C132 1.314 1_655 S
N135 C133 1.279 . S
C136 C133 1.358 . S
C136 C137 1.356 . S
C136 H173 0.930 . S
C137 C134 1.348 1_655 S
C137 C136 1.356 . S
H138 C132 0.930 . S
H139 C133 0.930 . S
C140 N141 1.314 . S
C140 C142 1.353 . S
C140 H146 0.930 . S
N141 Li91 1.990 . S
N141 C140 1.314 . S
N141 C144 1.279 . S
C142 C140 1.353 . S
C142 C145 1.348 . S
C142 H174 0.929 . S
C143 C144 1.358 . S
C143 C145 1.356 . S
C143 H175 0.930 . S
C144 N141 1.279 . S
C144 C143 1.358 . S
C144 H147 0.930 . S
C145 C142 1.348 . S
C145 C143 1.356 . S
H146 C140 0.930 . S
H147 C144 0.930 . S
O148 Li88 1.956 . S
O148 Li89 1.970 . S
O148 Li90 1.961 . S
O148 C92 1.325 . S
O149 Li88 1.970 . S
O149 Li89 1.956 . S
O149 Li91 1.961 1_455 S
O149 C98 1.325 . S
O150 Li88 1.961 1_655 S
O150 Li90 1.956 1_655 S
O150 Li91 1.970 . S
O150 C120 1.325 . S
O151 Li89 1.961 . S
O151 Li90 1.970 . S
O151 Li91 1.956 1_455 S
O151 C126 1.325 . S
H152 C94 0.929 . S
H153 C95 0.930 . S
H154 C96 0.930 . S
H155 C97 0.930 . S
H156 C99 0.930 . S
H157 C101 0.929 . S
H158 C102 0.930 . S
H159 C103 0.930 . S
H160 C106 0.930 . S
H161 C109 0.929 . S
H162 C114 0.929 . S
H163 C115 0.930 . S
H164 C122 0.929 . S
H165 C123 0.930 . S
H166 C124 0.930 . S
H167 C125 0.930 . S
H168 C127 0.929 . S
H169 C128 0.930 . S
H170 C129 0.930 . S
H171 C130 0.930 . S
H172 C134 0.929 . S
H173 C136 0.930 . S
H174 C142 0.929 . S
H175 C143 0.930 . S
Li176 N193 1.990 . S
Li176 O236 1.956 . S
Li176 O237 1.970 . S
Li176 O238 1.961 . S
Li177 N201 1.990 . S
Li177 O236 1.970 . S
Li177 O237 1.956 . S
Li177 O239 1.961 . S
Li178 N223 1.990 . S
Li178 O236 1.961 . S
Li178 O238 1.956 . S
Li178 O239 1.970 . S
Li179 N229 1.990 . S
Li179 O237 1.961 . S
Li179 O238 1.970 . S
Li179 O239 1.956 . S
C180 C182 1.348 . S
C180 C183 1.356 . S
C180 O236 1.325 . S
N181 C184 1.314 . S
N181 C185 1.279 . S
C182 C180 1.348 . S
C182 C184 1.353 . S
C182 H240 0.929 . S
C183 C180 1.356 . S
C183 C185 1.358 . S
C183 H241 0.930 . S
C184 N181 1.314 . S
C184 C182 1.353 . S
C184 H242 0.930 . S
C185 N181 1.279 . S
C185 C183 1.358 . S
C185 H243 0.930 . S
C186 C189 1.348 . S
C186 C190 1.356 . S
C186 O237 1.325 . S
C187 N188 1.279 . S
C187 C190 1.358 . S
C187 H244 0.930 . S
N188 C187 1.279 . S
N188 C191 1.314 . S
C189 C186 1.348 . S
C189 C191 1.353 . S
C189 H245 0.929 . S
C190 C186 1.356 . S
C190 C187 1.358 . S
C190 H246 0.930 . S
C191 N188 1.314 . S
C191 C189 1.353 . S
C191 H247 0.930 . S
C192 N193 1.314 . S
C192 C197 1.353 . S
C192 H198 0.930 . S
N193 Li176 1.990 . S
N193 C192 1.314 . S
N193 C195 1.279 . S
C194 C195 1.358 . S
C194 C196 1.356 . S
C194 H248 0.930 . S
C195 N193 1.279 . S
C195 C194 1.358 . S
C195 H199 0.930 . S
C196 C194 1.356 . S
C196 C197 1.348 . S
C197 C192 1.353 . S
C197 C196 1.348 . S
C197 H249 0.929 . S
H198 C192 0.930 . S
H199 C195 0.930 . S
C200 N201 1.314 . S
C200 C202 1.353 . S
C200 H206 0.930 . S
N201 Li177 1.990 . S
N201 C200 1.314 . S
N201 C204 1.279 . S
C202 C200 1.353 . S
C202 C205 1.348 . S
C202 H250 0.929 . S
C203 C204 1.358 . S
C203 C205 1.356 . S
C203 H251 0.930 . S
C204 N201 1.279 . S
C204 C203 1.358 . S
C204 H207 0.930 . S
C205 C202 1.348 . S
C205 C203 1.356 . S
H206 C200 0.930 . S
H207 C204 0.930 . S
C208 C210 1.348 . S
C208 C211 1.356 . S
C208 O238 1.325 . S
N209 C212 1.314 . S
N209 C213 1.279 . S
C210 C208 1.348 . S
C210 C212 1.353 . S
C210 H252 0.929 . S
C211 C208 1.356 . S
C211 C213 1.358 . S
C211 H253 0.930 . S
C212 N209 1.314 . S
C212 C210 1.353 . S
C212 H254 0.930 . S
C213 N209 1.279 . S
C213 C211 1.358 . S
C213 H255 0.930 . S
C214 C215 1.348 . S
C214 C216 1.356 . S
C214 O239 1.325 . S
C215 C214 1.348 . S
C215 C217 1.353 . S
C215 H256 0.929 . S
C216 C214 1.356 . S
C216 C218 1.358 . S
C216 H257 0.930 . S
C217 C215 1.353 . S
C217 N219 1.314 . S
C217 H258 0.930 . S
C218 C216 1.358 . S
C218 N219 1.279 . S
C218 H259 0.930 . S
N219 C217 1.314 . S
N219 C218 1.279 . S
C220 C222 1.353 . S
C220 N223 1.314 . S
C220 H226 0.930 . S
C221 N223 1.279 . S
C221 C224 1.358 . S
C221 H227 0.930 . S
C222 C220 1.353 . S
C222 C225 1.348 . S
C222 H260 0.929 . S
N223 Li178 1.990 . S
N223 C220 1.314 . S
N223 C221 1.279 . S
C224 C221 1.358 . S
C224 C225 1.356 . S
C224 H261 0.930 . S
C225 C222 1.348 . S
C225 C224 1.356 . S
H226 C220 0.930 . S
H227 C221 0.930 . S
C228 N229 1.314 . S
C228 C230 1.353 . S
C228 H234 0.930 . S
N229 Li179 1.990 . S
N229 C228 1.314 . S
N229 C232 1.279 . S
C230 C228 1.353 . S
C230 C233 1.348 . S
C230 H262 0.929 . S
C231 C232 1.358 . S
C231 C233 1.356 . S
C231 H263 0.930 . S
C232 N229 1.279 . S
C232 C231 1.358 . S
C232 H235 0.930 . S
C233 C230 1.348 . S
C233 C231 1.356 . S
H234 C228 0.930 . S
H235 C232 0.930 . S
O236 Li176 1.956 . S
O236 Li177 1.970 . S
O236 Li178 1.961 . S
O236 C180 1.325 . S
O237 Li176 1.970 . S
O237 Li177 1.956 . S
O237 Li179 1.961 . S
O237 C186 1.325 . S
O238 Li176 1.961 . S
O238 Li178 1.956 . S
O238 Li179 1.970 . S
O238 C208 1.325 . S
O239 Li177 1.961 . S
O239 Li178 1.970 . S
O239 Li179 1.956 . S
O239 C214 1.325 . S
H240 C182 0.929 . S
H241 C183 0.930 . S
H242 C184 0.930 . S
H243 C185 0.930 . S
H244 C187 0.930 . S
H245 C189 0.929 . S
H246 C190 0.930 . S
H247 C191 0.930 . S
H248 C194 0.930 . S
H249 C197 0.929 . S
H250 C202 0.929 . S
H251 C203 0.930 . S
H252 C210 0.929 . S
H253 C211 0.930 . S
H254 C212 0.930 . S
H255 C213 0.930 . S
H256 C215 0.929 . S
H257 C216 0.930 . S
H258 C217 0.930 . S
H259 C218 0.930 . S
H260 C222 0.929 . S
H261 C224 0.930 . S
H262 C230 0.929 . S
H263 C231 0.930 . S
Li264 N281 1.990 . S
Li264 O324 1.956 . S
Li264 O325 1.970 . S
Li264 O326 1.961 . S
Li265 N289 1.990 . S
Li265 O324 1.970 . S
Li265 O325 1.956 . S
Li265 O327 1.961 . S
Li266 N311 1.990 . S
Li266 O324 1.961 . S
Li266 O326 1.956 . S
Li266 O327 1.970 . S
Li267 N317 1.990 . S
Li267 O325 1.961 . S
Li267 O326 1.970 . S
Li267 O327 1.956 . S
C268 C270 1.348 . S
C268 C271 1.356 . S
C268 O324 1.325 . S
N269 C272 1.314 . S
N269 C273 1.279 . S
C270 C268 1.348 . S
C270 C272 1.353 . S
C270 H328 0.929 . S
C271 C268 1.356 . S
C271 C273 1.358 . S
C271 H329 0.930 . S
C272 N269 1.314 . S
C272 C270 1.353 . S
C272 H330 0.930 . S
C273 N269 1.279 . S
C273 C271 1.358 . S
C273 H331 0.930 . S
C274 C277 1.348 . S
C274 C278 1.356 . S
C274 O325 1.325 . S
C275 N276 1.279 . S
C275 C278 1.358 . S
C275 H332 0.930 . S
N276 C275 1.279 . S
N276 C279 1.314 . S
C277 C274 1.348 . S
C277 C279 1.353 . S
C277 H333 0.929 . S
C278 C274 1.356 . S
C278 C275 1.358 . S
C278 H334 0.930 . S
C279 N276 1.314 . S
C279 C277 1.353 . S
C279 H335 0.930 . S
C280 N281 1.314 . S
C280 C285 1.353 . S
C280 H286 0.930 . S
N281 Li264 1.990 . S
N281 C280 1.314 . S
N281 C283 1.279 . S
C282 C283 1.358 . S
C282 C284 1.356 . S
C282 H336 0.930 . S
C283 N281 1.279 . S
C283 C282 1.358 . S
C283 H287 0.930 . S
C284 C282 1.356 . S
C284 C285 1.348 . S
C285 C280 1.353 . S
C285 C284 1.348 . S
C285 H337 0.929 . S
H286 C280 0.930 . S
H287 C283 0.930 . S
C288 N289 1.314 . S
C288 C290 1.353 . S
C288 H294 0.930 . S
N289 Li265 1.990 . S
N289 C288 1.314 . S
N289 C292 1.279 . S
C290 C288 1.353 . S
C290 C293 1.348 . S
C290 H338 0.929 . S
C291 C292 1.358 . S
C291 C293 1.356 . S
C291 H339 0.930 . S
C292 N289 1.279 . S
C292 C291 1.358 . S
C292 H295 0.930 . S
C293 C290 1.348 . S
C293 C291 1.356 . S
H294 C288 0.930 . S
H295 C292 0.930 . S
C296 C298 1.348 . S
C296 C299 1.356 . S
C296 O326 1.325 . S
N297 C300 1.314 . S
N297 C301 1.279 . S
C298 C296 1.348 . S
C298 C300 1.353 . S
C298 H340 0.929 . S
C299 C296 1.356 . S
C299 C301 1.358 . S
C299 H341 0.930 . S
C300 N297 1.314 . S
C300 C298 1.353 . S
C300 H342 0.930 . S
C301 N297 1.279 . S
C301 C299 1.358 . S
C301 H343 0.930 . S
C302 C303 1.348 . S
C302 C304 1.356 . S
C302 O327 1.325 . S
C303 C302 1.348 . S
C303 C305 1.353 . S
C303 H344 0.929 . S
C304 C302 1.356 . S
C304 C306 1.358 . S
C304 H345 0.930 . S
C305 C303 1.353 . S
C305 N307 1.314 . S
C305 H346 0.930 . S
C306 C304 1.358 . S
C306 N307 1.279 . S
C306 H347 0.930 . S
N307 C305 1.314 . S
N307 C306 1.279 . S
C308 C310 1.353 . S
C308 N311 1.314 . S
C308 H314 0.930 . S
C309 N311 1.279 . S
C309 C312 1.358 . S
C309 H315 0.930 . S
C310 C308 1.353 . S
C310 C313 1.348 . S
C310 H348 0.929 . S
N311 Li266 1.990 . S
N311 C308 1.314 . S
N311 C309 1.279 . S
C312 C309 1.358 . S
C312 C313 1.356 . S
C312 H349 0.930 . S
C313 C310 1.348 . S
C313 C312 1.356 . S
H314 C308 0.930 . S
H315 C309 0.930 . S
C316 N317 1.314 . S
C316 C318 1.353 . S
C316 H322 0.930 . S
N317 Li267 1.990 . S
N317 C316 1.314 . S
N317 C320 1.279 . S
C318 C316 1.353 . S
C318 C321 1.348 . S
C318 H350 0.929 . S
C319 C320 1.358 . S
C319 C321 1.356 . S
C319 H351 0.930 . S
C320 N317 1.279 . S
C320 C319 1.358 . S
C320 H323 0.930 . S
C321 C318 1.348 . S
C321 C319 1.356 . S
H322 C316 0.930 . S
H323 C320 0.930 . S
O324 Li264 1.956 . S
O324 Li265 1.970 . S
O324 Li266 1.961 . S
O324 C268 1.325 . S
O325 Li264 1.970 . S
O325 Li265 1.956 . S
O325 Li267 1.961 . S
O325 C274 1.325 . S
O326 Li264 1.961 . S
O326 Li266 1.956 . S
O326 Li267 1.970 . S
O326 C296 1.325 . S
O327 Li265 1.961 . S
O327 Li266 1.970 . S
O327 Li267 1.956 . S
O327 C302 1.325 . S
H328 C270 0.929 . S
H329 C271 0.930 . S
H330 C272 0.930 . S
H331 C273 0.930 . S
H332 C275 0.930 . S
H333 C277 0.929 . S
H334 C278 0.930 . S
H335 C279 0.930 . S
H336 C282 0.930 . S
H337 C285 0.929 . S
H338 C290 0.929 . S
H339 C291 0.930 . S
H340 C298 0.929 . S
H341 C299 0.930 . S
H342 C300 0.930 . S
H343 C301 0.930 . S
H344 C303 0.929 . S
H345 C304 0.930 . S
H346 C305 0.930 . S
H347 C306 0.930 . S
H348 C310 0.929 . S
H349 C312 0.930 . S
H350 C318 0.929 . S
H351 C319 0.930 . S
Li352 N369 1.990 . S
Li352 O412 1.956 . S
Li352 O413 1.970 . S
Li352 O414 1.961 . S
Li353 N377 1.990 . S
Li353 O412 1.970 . S
Li353 O413 1.956 . S
Li353 O415 1.961 . S
Li354 N399 1.990 . S
Li354 O412 1.961 . S
Li354 O414 1.956 . S
Li354 O415 1.970 . S
Li355 N405 1.990 1_455 S
Li355 O413 1.961 . S
Li355 O414 1.970 . S
Li355 O415 1.956 . S
C356 C358 1.348 . S
C356 C359 1.356 . S
C356 O412 1.325 . S
N357 C360 1.314 . S
N357 C361 1.279 . S
C358 C356 1.348 . S
C358 C360 1.353 . S
C358 H416 0.929 . S
C359 C356 1.356 . S
C359 C361 1.358 . S
C359 H417 0.930 . S
C360 N357 1.314 . S
C360 C358 1.353 . S
C360 H418 0.930 . S
C361 N357 1.279 . S
C361 C359 1.358 . S
C361 H419 0.930 . S
C362 C365 1.348 . S
C362 C366 1.356 . S
C362 O413 1.325 . S
C363 N364 1.279 . S
C363 C366 1.358 . S
C363 H420 0.930 . S
N364 C363 1.279 . S
N364 C367 1.314 . S
C365 C362 1.348 . S
C365 C367 1.353 . S
C365 H421 0.929 . S
C366 C362 1.356 . S
C366 C363 1.358 . S
C366 H422 0.930 . S
C367 N364 1.314 . S
C367 C365 1.353 . S
C367 H423 0.930 . S
C368 N369 1.314 . S
C368 C373 1.353 . S
C368 H374 0.910 1_455 S
N369 Li352 1.990 . S
N369 C368 1.314 . S
N369 C371 1.279 . S
C370 C371 1.358 . S
C370 C372 1.356 . S
C370 H424 0.930 . S
C371 N369 1.279 . S
C371 C370 1.358 . S
C371 H375 0.930 . S
C372 C370 1.356 . S
C372 C373 1.348 . S
C373 C368 1.353 . S
C373 C372 1.348 . S
C373 H425 0.929 1_455 S
H374 C368 0.910 1_655 S
H375 C371 0.930 . S
C376 N377 1.314 . S
C376 C378 1.353 . S
C376 H382 0.930 . S
N377 Li353 1.990 . S
N377 C376 1.314 . S
N377 C380 1.279 . S
C378 C376 1.353 . S
C378 C381 1.348 . S
C378 H426 0.929 . S
C379 C380 1.358 . S
C379 C381 1.356 . S
C379 H427 0.930 . S
C380 N377 1.279 . S
C380 C379 1.358 . S
C380 H383 0.930 . S
C381 C378 1.348 . S
C381 C379 1.356 . S
H382 C376 0.930 . S
H383 C380 0.930 . S
C384 C386 1.348 . S
C384 C387 1.356 . S
C384 O414 1.325 1_655 S
N385 C388 1.314 . S
N385 C389 1.279 . S
C386 C384 1.348 . S
C386 C388 1.353 . S
C386 H428 0.929 . S
C387 C384 1.356 . S
C387 C389 1.358 . S
C387 H429 0.930 . S
C388 N385 1.314 . S
C388 C386 1.353 . S
C388 H430 0.930 . S
C389 N385 1.279 . S
C389 C387 1.358 . S
C389 H431 0.930 . S
C390 C391 1.348 . S
C390 C392 1.356 . S
C390 O415 1.325 . S
C391 C390 1.348 . S
C391 C393 1.353 . S
C391 H432 0.929 . S
C392 C390 1.356 . S
C392 C394 1.358 . S
C392 H433 0.930 . S
C393 C391 1.353 . S
C393 N395 1.314 . S
C393 H434 0.930 . S
C394 C392 1.358 . S
C394 N395 1.279 . S
C394 H435 0.930 . S
N395 C393 1.314 . S
N395 C394 1.279 . S
C396 C398 1.353 . S
C396 N399 1.314 . S
C396 H402 0.930 . S
C397 N399 1.279 . S
C397 C400 1.358 1_455 S
C397 H403 0.930 1_455 S
C398 C396 1.353 . S
C398 C401 1.348 . S
C398 H436 0.929 . S
N399 Li354 1.990 . S
N399 C396 1.314 . S
N399 C397 1.279 . S
C400 C397 1.358 1_655 S
C400 C401 1.356 1_655 S
C400 H437 0.930 . S
C401 C398 1.348 . S
C401 C400 1.356 1_455 S
H402 C396 0.930 . S
H403 C397 0.930 1_655 S
C404 N405 1.314 . S
C404 C406 1.353 . S
C404 H410 0.930 . S
N405 Li355 1.990 1_655 S
N405 C404 1.314 . S
N405 C408 1.279 . S
C406 C404 1.353 . S
C406 C409 1.348 . S
C406 H438 0.929 . S
C407 C408 1.358 . S
C407 C409 1.356 . S
C407 H439 0.930 . S
C408 N405 1.279 . S
C408 C407 1.358 . S
C408 H411 0.930 . S
C409 C406 1.348 . S
C409 C407 1.356 . S
H410 C404 0.930 . S
H411 C408 0.930 . S
O412 Li352 1.956 . S
O412 Li353 1.970 . S
O412 Li354 1.961 . S
O412 C356 1.325 . S
O413 Li352 1.970 . S
O413 Li353 1.956 . S
O413 Li355 1.961 . S
O413 C362 1.325 . S
O414 Li352 1.961 . S
O414 Li354 1.956 . S
O414 Li355 1.970 . S
O414 C384 1.325 1_455 S
O415 Li353 1.961 . S
O415 Li354 1.970 . S
O415 Li355 1.956 . S
O415 C390 1.325 . S
H416 C358 0.929 . S
H417 C359 0.930 . S
H418 C360 0.930 . S
H419 C361 0.930 . S
H420 C363 0.930 . S
H421 C365 0.929 . S
H422 C366 0.930 . S
H423 C367 0.930 . S
H424 C370 0.930 . S
H425 C373 0.929 1_655 S
H426 C378 0.929 . S
H427 C379 0.930 . S
H428 C386 0.929 . S
H429 C387 0.930 . S
H430 C388 0.930 . S
H431 C389 0.930 . S
H432 C391 0.929 . S
H433 C392 0.930 . S
H434 C393 0.930 . S
H435 C394 0.930 . S
H436 C398 0.929 . S
H437 C400 0.930 . S
H438 C406 0.929 . S
H439 C407 0.930 . S
Li440 N457 1.990 . S
Li440 O500 1.956 . S
Li440 O501 1.970 . S
Li440 O502 1.961 . S
Li441 N465 1.990 . S
Li441 O500 1.970 . S
Li441 O501 1.956 . S
Li441 O503 1.961 . S
Li442 N487 1.990 . S
Li442 O500 1.961 . S
Li442 O502 1.956 . S
Li442 O503 1.970 . S
Li443 N493 1.990 . S
Li443 O501 1.961 . S
Li443 O502 1.970 . S
Li443 O503 1.956 . S
C444 C446 1.348 . S
C444 C447 1.356 . S
C444 O500 1.325 . S
N445 C448 1.314 . S
N445 C449 1.279 . S
C446 C444 1.348 . S
C446 C448 1.353 . S
C446 H504 0.929 . S
C447 C444 1.356 . S
C447 C449 1.358 . S
C447 H505 0.930 . S
C448 N445 1.314 . S
C448 C446 1.353 . S
C448 H506 0.930 . S
C449 N445 1.279 . S
C449 C447 1.358 . S
C449 H507 0.930 . S
C450 C453 1.348 . S
C450 C454 1.356 . S
C450 O501 1.325 . S
C451 N452 1.279 . S
C451 C454 1.358 . S
C451 H508 0.930 . S
N452 C451 1.279 . S
N452 C455 1.314 . S
C453 C450 1.348 . S
C453 C455 1.353 . S
C453 H509 0.929 . S
C454 C450 1.356 . S
C454 C451 1.358 . S
C454 H510 0.930 . S
C455 N452 1.314 . S
C455 C453 1.353 . S
C455 H511 0.930 . S
C456 N457 1.314 . S
C456 C461 1.353 . S
C456 H462 0.930 . S
N457 Li440 1.990 . S
N457 C456 1.314 . S
N457 C459 1.279 . S
C458 C459 1.358 . S
C458 C460 1.356 . S
C458 H512 0.930 . S
C459 N457 1.279 . S
C459 C458 1.358 . S
C459 H463 0.930 . S
C460 C458 1.356 . S
C460 C461 1.348 . S
C461 C456 1.353 . S
C461 C460 1.348 . S
C461 H513 0.929 . S
H462 C456 0.930 . S
H463 C459 0.930 . S
C464 N465 1.314 . S
C464 C466 1.353 . S
C464 H470 0.930 . S
N465 Li441 1.990 . S
N465 C464 1.314 . S
N465 C468 1.279 . S
C466 C464 1.353 . S
C466 C469 1.348 . S
C466 H514 0.929 . S
C467 C468 1.358 . S
C467 C469 1.356 . S
C467 H515 0.930 . S
C468 N465 1.279 . S
C468 C467 1.358 . S
C468 H471 0.930 . S
C469 C466 1.348 . S
C469 C467 1.356 . S
H470 C464 0.930 . S
H471 C468 0.930 . S
C472 C474 1.348 . S
C472 C475 1.356 . S
C472 O502 1.325 . S
N473 C476 1.314 . S
N473 C477 1.279 . S
C474 C472 1.348 . S
C474 C476 1.353 . S
C474 H516 0.929 . S
C475 C472 1.356 . S
C475 C477 1.358 . S
C475 H517 0.930 . S
C476 N473 1.314 . S
C476 C474 1.353 . S
C476 H518 0.930 . S
C477 N473 1.279 . S
C477 C475 1.358 . S
C477 H519 0.930 . S
C478 C479 1.348 . S
C478 C480 1.356 . S
C478 O503 1.325 . S
C479 C478 1.348 . S
C479 C481 1.353 . S
C479 H520 0.929 . S
C480 C478 1.356 . S
C480 C482 1.358 . S
C480 H521 0.930 . S
C481 C479 1.353 . S
C481 N483 1.314 . S
C481 H522 0.930 . S
C482 C480 1.358 . S
C482 N483 1.279 . S
C482 H523 0.930 . S
N483 C481 1.314 . S
N483 C482 1.279 . S
C484 C486 1.353 . S
C484 N487 1.314 . S
C484 H490 0.930 . S
C485 N487 1.279 . S
C485 C488 1.358 . S
C485 H491 0.930 . S
C486 C484 1.353 . S
C486 C489 1.348 . S
C486 H524 0.929 . S
N487 Li442 1.990 . S
N487 C484 1.314 . S
N487 C485 1.279 . S
C488 C485 1.358 . S
C488 C489 1.356 . S
C488 H525 0.930 . S
C489 C486 1.348 . S
C489 C488 1.356 . S
H490 C484 0.930 . S
H491 C485 0.930 . S
C492 N493 1.314 . S
C492 C494 1.353 . S
C492 H498 0.930 . S
N493 Li443 1.990 . S
N493 C492 1.314 . S
N493 C496 1.279 . S
C494 C492 1.353 . S
C494 C497 1.348 . S
C494 H526 0.929 . S
C495 C496 1.358 . S
C495 C497 1.356 . S
C495 H527 0.930 . S
C496 N493 1.279 . S
C496 C495 1.358 . S
C496 H499 0.930 . S
C497 C494 1.348 . S
C497 C495 1.356 . S
H498 C492 0.930 . S
H499 C496 0.930 . S
O500 Li440 1.956 . S
O500 Li441 1.970 . S
O500 Li442 1.961 . S
O500 C444 1.325 . S
O501 Li440 1.970 . S
O501 Li441 1.956 . S
O501 Li443 1.961 . S
O501 C450 1.325 . S
O502 Li440 1.961 . S
O502 Li442 1.956 . S
O502 Li443 1.970 . S
O502 C472 1.325 . S
O503 Li441 1.961 . S
O503 Li442 1.970 . S
O503 Li443 1.956 . S
O503 C478 1.325 . S
H504 C446 0.929 . S
H505 C447 0.930 . S
H506 C448 0.930 . S
H507 C449 0.930 . S
H508 C451 0.930 . S
H509 C453 0.929 . S
H510 C454 0.930 . S
H511 C455 0.930 . S
H512 C458 0.930 . S
H513 C461 0.929 . S
H514 C466 0.929 . S
H515 C467 0.930 . S
H516 C474 0.929 . S
H517 C475 0.930 . S
H518 C476 0.930 . S
H519 C477 0.930 . S
H520 C479 0.929 . S
H521 C480 0.930 . S
H522 C481 0.930 . S
H523 C482 0.930 . S
H524 C486 0.929 . S
H525 C488 0.930 . S
H526 C494 0.929 . S
H527 C495 0.930 . S
Li528 N545 1.990 . S
Li528 O588 1.956 . S
Li528 O589 1.970 . S
Li528 O590 1.961 . S
Li529 N553 1.990 . S
Li529 O588 1.970 . S
Li529 O589 1.956 . S
Li529 O591 1.961 . S
Li530 N575 1.990 . S
Li530 O588 1.961 . S
Li530 O590 1.956 . S
Li530 O591 1.970 . S
Li531 N581 1.990 . S
Li531 O589 1.961 . S
Li531 O590 1.970 . S
Li531 O591 1.956 . S
C532 C534 1.348 . S
C532 C535 1.356 . S
C532 O588 1.325 . S
N533 C536 1.314 . S
N533 C537 1.279 . S
C534 C532 1.348 . S
C534 C536 1.353 . S
C534 H592 0.929 . S
C535 C532 1.356 . S
C535 C537 1.358 . S
C535 H593 0.930 . S
C536 N533 1.314 . S
C536 C534 1.353 . S
C536 H594 0.930 . S
C537 N533 1.279 . S
C537 C535 1.358 . S
C537 H595 0.930 . S
C538 C541 1.348 . S
C538 C542 1.356 . S
C538 O589 1.325 . S
C539 N540 1.279 . S
C539 C542 1.358 . S
C539 H596 0.930 . S
N540 C539 1.279 . S
N540 C543 1.314 . S
C541 C538 1.348 . S
C541 C543 1.353 . S
C541 H597 0.929 . S
C542 C538 1.356 . S
C542 C539 1.358 . S
C542 H598 0.930 . S
C543 N540 1.314 . S
C543 C541 1.353 . S
C543 H599 0.930 . S
C544 N545 1.314 . S
C544 C549 1.353 . S
C544 H550 0.930 . S
N545 Li528 1.990 . S
N545 C544 1.314 . S
N545 C547 1.279 . S
C546 C547 1.358 . S
C546 C548 1.356 . S
C546 H600 0.930 . S
C547 N545 1.279 . S
C547 C546 1.358 . S
C547 H551 0.930 . S
C548 C546 1.356 . S
C548 C549 1.348 . S
C549 C544 1.353 . S
C549 C548 1.348 . S
C549 H601 0.929 . S
H550 C544 0.930 . S
H551 C547 0.930 . S
C552 N553 1.314 . S
C552 C554 1.353 . S
C552 H558 0.930 . S
N553 Li529 1.990 . S
N553 C552 1.314 . S
N553 C556 1.279 . S
C554 C552 1.353 . S
C554 C557 1.348 . S
C554 H602 0.929 . S
C555 C556 1.358 . S
C555 C557 1.356 . S
C555 H603 0.930 . S
C556 N553 1.279 . S
C556 C555 1.358 . S
C556 H559 0.930 . S
C557 C554 1.348 . S
C557 C555 1.356 . S
H558 C552 0.930 . S
H559 C556 0.930 . S
C560 C562 1.348 . S
C560 C563 1.356 . S
C560 O590 1.325 . S
N561 C564 1.314 . S
N561 C565 1.279 . S
C562 C560 1.348 . S
C562 C564 1.353 . S
C562 H604 0.929 . S
C563 C560 1.356 . S
C563 C565 1.358 . S
C563 H605 0.930 . S
C564 N561 1.314 . S
C564 C562 1.353 . S
C564 H606 0.930 . S
C565 N561 1.279 . S
C565 C563 1.358 . S
C565 H607 0.930 . S
C566 C567 1.348 . S
C566 C568 1.356 . S
C566 O591 1.325 . S
C567 C566 1.348 . S
C567 C569 1.353 . S
C567 H608 0.929 . S
C568 C566 1.356 . S
C568 C570 1.358 . S
C568 H609 0.930 . S
C569 C567 1.353 . S
C569 N571 1.314 . S
C569 H610 0.930 . S
C570 C568 1.358 . S
C570 N571 1.279 . S
C570 H611 0.930 . S
N571 C569 1.314 . S
N571 C570 1.279 . S
C572 C574 1.353 . S
C572 N575 1.314 . S
C572 H578 0.930 . S
C573 N575 1.279 . S
C573 C576 1.358 . S
C573 H579 0.930 . S
C574 C572 1.353 . S
C574 C577 1.348 . S
C574 H612 0.929 . S
N575 Li530 1.990 . S
N575 C572 1.314 . S
N575 C573 1.279 . S
C576 C573 1.358 . S
C576 C577 1.356 . S
C576 H613 0.930 . S
C577 C574 1.348 . S
C577 C576 1.356 . S
H578 C572 0.930 . S
H579 C573 0.930 . S
C580 N581 1.314 . S
C580 C582 1.353 . S
C580 H586 0.930 . S
N581 Li531 1.990 . S
N581 C580 1.314 . S
N581 C584 1.279 . S
C582 C580 1.353 . S
C582 C585 1.348 . S
C582 H614 0.929 . S
C583 C584 1.358 . S
C583 C585 1.356 . S
C583 H615 0.930 . S
C584 N581 1.279 . S
C584 C583 1.358 . S
C584 H587 0.930 . S
C585 C582 1.348 . S
C585 C583 1.356 . S
H586 C580 0.930 . S
H587 C584 0.930 . S
O588 Li528 1.956 . S
O588 Li529 1.970 . S
O588 Li530 1.961 . S
O588 C532 1.325 . S
O589 Li528 1.970 . S
O589 Li529 1.956 . S
O589 Li531 1.961 . S
O589 C538 1.325 . S
O590 Li528 1.961 . S
O590 Li530 1.956 . S
O590 Li531 1.970 . S
O590 C560 1.325 . S
O591 Li529 1.961 . S
O591 Li530 1.970 . S
O591 Li531 1.956 . S
O591 C566 1.325 . S
H592 C534 0.929 . S
H593 C535 0.930 . S
H594 C536 0.930 . S
H595 C537 0.930 . S
H596 C539 0.930 . S
H597 C541 0.929 . S
H598 C542 0.930 . S
H599 C543 0.930 . S
H600 C546 0.930 . S
H601 C549 0.929 . S
H602 C554 0.929 . S
H603 C555 0.930 . S
H604 C562 0.929 . S
H605 C563 0.930 . S
H606 C564 0.930 . S
H607 C565 0.930 . S
H608 C567 0.929 . S
H609 C568 0.930 . S
H610 C569 0.930 . S
H611 C570 0.930 . S
H612 C574 0.929 . S
H613 C576 0.930 . S
H614 C582 0.929 . S
H615 C583 0.930 . S
Li616 N633 1.990 . S
Li616 O676 1.956 1_455 S
Li616 O677 1.970 . S
Li616 O678 1.961 . S
Li617 N641 1.990 . S
Li617 O676 1.970 . S
Li617 O677 1.956 1_655 S
Li617 O679 1.961 . S
Li618 N663 1.992 . S
Li618 O676 1.959 . S
Li618 O678 1.957 1_655 S
Li618 O679 1.970 . S
Li619 N669 1.990 . S
Li619 O677 1.961 . S
Li619 O678 1.970 . S
Li619 O679 1.956 1_455 S
C620 C622 1.348 . S
C620 C623 1.356 . S
C620 O676 1.325 . S
N621 C624 1.314 . S
N621 C625 1.279 . S
C622 C620 1.348 . S
C622 C624 1.353 . S
C622 H680 0.929 . S
C623 C620 1.356 . S
C623 C625 1.358 . S
C623 H681 0.930 . S
C624 N621 1.314 . S
C624 C622 1.353 . S
C624 H682 0.930 . S
C625 N621 1.279 . S
C625 C623 1.358 . S
C625 H683 0.930 . S
C626 C629 1.348 1_455 S
C626 C630 1.356 . S
C626 O677 1.325 . S
C627 N628 1.279 . S
C627 C630 1.358 . S
C627 H684 0.930 . S
N628 C627 1.279 . S
N628 C631 1.314 1_455 S
C629 C626 1.348 1_655 S
C629 C631 1.353 . S
C629 H685 0.929 . S
C630 C626 1.356 . S
C630 C627 1.358 . S
C630 H686 0.930 . S
C631 N628 1.314 1_655 S
C631 C629 1.353 . S
C631 H687 0.930 . S
C632 N633 1.314 . S
C632 C637 1.353 . S
C632 H638 0.930 . S
N633 Li616 1.990 . S
N633 C632 1.314 . S
N633 C635 1.279 1_455 S
C634 C635 1.358 . S
C634 C636 1.356 1_655 S
C634 H688 0.930 . S
C635 N633 1.279 1_655 S
C635 C634 1.358 . S
C635 H639 0.930 . S
C636 C634 1.356 1_455 S
C636 C637 1.348 . S
C637 C632 1.353 . S
C637 C636 1.348 . S
C637 H689 0.929 . S
H638 C632 0.930 . S
H639 C635 0.930 . S
C640 N641 1.314 . S
C640 C642 1.353 . S
C640 H646 0.930 . S
N641 Li617 1.990 . S
N641 C640 1.314 . S
N641 C644 1.279 . S
C642 C640 1.353 . S
C642 C645 1.348 . S
C642 H690 0.929 . S
C643 C644 1.358 . S
C643 C645 1.356 . S
C643 H691 0.930 . S
C644 N641 1.279 . S
C644 C643 1.358 . S
C644 H647 0.930 . S
C645 C642 1.348 . S
C645 C643 1.356 . S
H646 C640 0.930 . S
H647 C644 0.930 . S
C648 C650 1.348 . S
C648 C651 1.356 . S
C648 O678 1.325 . S
N649 C652 1.314 . S
N649 C653 1.279 . S
C650 C648 1.348 . S
C650 C652 1.353 . S
C650 H692 0.929 . S
C651 C648 1.356 . S
C651 C653 1.358 . S
C651 H693 0.930 . S
C652 N649 1.314 . S
C652 C650 1.353 . S
C652 H694 0.930 . S
C653 N649 1.279 . S
C653 C651 1.358 . S
C653 H695 0.930 . S
C654 C655 1.346 . S
C654 C656 1.356 . S
C654 O679 1.325 . S
C655 C654 1.346 . S
C655 C657 1.353 . S
C655 H696 0.931 1_655 S
C656 C654 1.356 . S
C656 C658 1.358 . S
C656 H697 0.930 . S
C657 C655 1.353 . S
C657 N659 1.314 . S
C657 H698 0.920 1_655 S
C658 C656 1.358 . S
C658 N659 1.279 . S
C658 H699 0.930 . S
N659 C657 1.314 . S
N659 C658 1.279 . S
C660 C662 1.353 . S
C660 N663 1.339 . S
C660 H666 0.930 . S
C661 N663 1.253 1_455 S
C661 C664 1.358 . S
C661 H667 0.930 . S
C662 C660 1.353 . S
C662 C665 1.348 . S
C662 H700 0.929 . S
N663 Li618 1.992 . S
N663 C660 1.339 . S
N663 C661 1.253 1_655 S
C664 C661 1.358 . S
C664 C665 1.356 1_455 S
C664 H701 0.930 . S
C665 C662 1.348 . S
C665 C664 1.356 1_655 S
H666 C660 0.930 . S
H667 C661 0.930 . S
C668 N669 1.314 . S
C668 C670 1.353 . S
C668 H674 0.930 . S
N669 Li619 1.990 . S
N669 C668 1.314 . S
N669 C672 1.279 . S
C670 C668 1.353 . S
C670 C673 1.348 . S
C670 H702 0.929 . S
C671 C672 1.358 . S
C671 C673 1.356 . S
C671 H703 0.930 . S
C672 N669 1.279 . S
C672 C671 1.358 . S
C672 H675 0.930 . S
C673 C670 1.348 . S
C673 C671 1.356 . S
H674 C668 0.930 . S
H675 C672 0.930 . S
O676 Li616 1.956 1_655 S
O676 Li617 1.970 . S
O676 Li618 1.959 . S
O676 C620 1.325 . S
O677 Li616 1.970 . S
O677 Li617 1.956 1_455 S
O677 Li619 1.961 . S
O677 C626 1.325 . S
O678 Li616 1.961 . S
O678 Li618 1.957 1_455 S
O678 Li619 1.970 . S
O678 C648 1.325 . S
O679 Li617 1.961 . S
O679 Li618 1.970 . S
O679 Li619 1.956 1_655 S
O679 C654 1.325 . S
H680 C622 0.929 . S
H681 C623 0.930 . S
H682 C624 0.930 . S
H683 C625 0.930 . S
H684 C627 0.930 . S
H685 C629 0.929 . S
H686 C630 0.930 . S
H687 C631 0.930 . S
H688 C634 0.930 . S
H689 C637 0.929 . S
H690 C642 0.929 . S
H691 C643 0.930 . S
H692 C650 0.929 . S
H693 C651 0.930 . S
H694 C652 0.930 . S
H695 C653 0.930 . S
H696 C655 0.931 1_455 S
H697 C656 0.930 . S
H698 C657 0.920 1_455 S
H699 C658 0.930 . S
H700 C662 0.929 . S
H701 C664 0.930 . S
H702 C670 0.929 . S
H703 C671 0.930 . S
Li704 N721 1.990 . S
Li704 O764 1.956 1_545 S
Li704 O765 1.970 . S
Li704 O766 1.961 . S
Li705 N729 1.990 . S
Li705 O764 1.970 . S
Li705 O765 1.956 1_565 S
Li705 O767 1.961 1_565 S
Li706 N751 1.990 . S
Li706 O764 1.961 1_545 S
Li706 O766 1.956 . S
Li706 O767 1.970 . S
Li707 N757 1.990 . S
Li707 O765 1.961 . S
Li707 O766 1.970 . S
Li707 O767 1.956 . S
C708 C710 1.348 . S
C708 C711 1.356 . S
C708 O764 1.325 . S
N709 C712 1.314 . S
N709 C713 1.279 . S
C710 C708 1.348 . S
C710 C712 1.353 . S
C710 H768 0.929 . S
C711 C708 1.356 . S
C711 C713 1.358 . S
C711 H769 0.930 . S
C712 N709 1.314 . S
C712 C710 1.353 . S
C712 H770 0.930 . S
C713 N709 1.279 . S
C713 C711 1.358 . S
C713 H771 0.930 . S
C714 C717 1.348 . S
C714 C718 1.356 . S
C714 O765 1.325 . S
C715 N716 1.279 . S
C715 C718 1.358 . S
C715 H772 0.930 . S
N716 C715 1.279 . S
N716 C719 1.314 . S
C717 C714 1.348 . S
C717 C719 1.353 . S
C717 H773 0.929 . S
C718 C714 1.356 . S
C718 C715 1.358 . S
C718 H774 0.930 . S
C719 N716 1.314 . S
C719 C717 1.353 . S
C719 H775 0.930 . S
C720 N721 1.314 . S
C720 C725 1.353 . S
C720 H726 0.930 . S
N721 Li704 1.990 . S
N721 C720 1.314 . S
N721 C723 1.279 . S
C722 C723 1.358 . S
C722 C724 1.356 . S
C722 H776 0.918 1_545 S
C723 N721 1.279 . S
C723 C722 1.358 . S
C723 H727 0.930 1_545 S
C724 C722 1.356 . S
C724 C725 1.348 . S
C725 C720 1.353 . S
C725 C724 1.348 . S
C725 H777 0.929 . S
H726 C720 0.930 . S
H727 C723 0.930 1_565 S
C728 N729 1.314 . S
C728 C730 1.353 . S
C728 H734 0.930 . S
N729 Li705 1.990 . S
N729 C728 1.314 . S
N729 C732 1.279 . S
C730 C728 1.353 . S
C730 C733 1.348 . S
C730 H778 0.929 . S
C731 C732 1.358 . S
C731 C733 1.356 . S
C731 H779 0.930 . S
C732 N729 1.279 . S
C732 C731 1.358 . S
C732 H735 0.930 . S
C733 C730 1.348 . S
C733 C731 1.356 . S
H734 C728 0.930 . S
H735 C732 0.930 . S
C736 C738 1.348 . S
C736 C739 1.356 . S
C736 O766 1.325 . S
N737 C740 1.314 . S
N737 C741 1.279 . S
C738 C736 1.348 . S
C738 C740 1.353 . S
C738 H780 0.929 . S
C739 C736 1.356 . S
C739 C741 1.358 . S
C739 H781 0.930 . S
C740 N737 1.314 . S
C740 C738 1.353 . S
C740 H782 0.930 . S
C741 N737 1.279 . S
C741 C739 1.358 . S
C741 H783 0.930 . S
C742 C743 1.348 . S
C742 C744 1.356 . S
C742 O767 1.325 . S
C743 C742 1.348 . S
C743 C745 1.353 . S
C743 H784 0.929 . S
C744 C742 1.356 . S
C744 C746 1.358 . S
C744 H785 0.930 . S
C745 C743 1.353 . S
C745 N747 1.314 . S
C745 H786 0.930 . S
C746 C744 1.358 . S
C746 N747 1.279 . S
C746 H787 0.930 . S
N747 C745 1.314 . S
N747 C746 1.279 . S
C748 C750 1.353 . S
C748 N751 1.314 . S
C748 H754 0.930 1_545 S
C749 N751 1.279 . S
C749 C752 1.358 . S
C749 H755 0.930 . S
C750 C748 1.353 . S
C750 C753 1.348 . S
C750 H788 0.929 1_545 S
N751 Li706 1.990 . S
N751 C748 1.314 . S
N751 C749 1.279 . S
C752 C749 1.358 . S
C752 C753 1.356 . S
C752 H789 0.930 . S
C753 C750 1.348 . S
C753 C752 1.356 . S
H754 C748 0.930 1_565 S
H755 C749 0.930 . S
C756 N757 1.314 . S
C756 C758 1.353 . S
C756 H762 0.930 . S
N757 Li707 1.990 . S
N757 C756 1.314 . S
N757 C760 1.279 . S
C758 C756 1.353 . S
C758 C761 1.348 . S
C758 H790 0.929 . S
C759 C760 1.358 . S
C759 C761 1.356 . S
C759 H791 0.930 . S
C760 N757 1.279 . S
C760 C759 1.358 . S
C760 H763 0.930 . S
C761 C758 1.348 . S
C761 C759 1.356 . S
H762 C756 0.930 . S
H763 C760 0.930 . S
O764 Li704 1.956 1_565 S
O764 Li705 1.970 . S
O764 Li706 1.961 1_565 S
O764 C708 1.325 . S
O765 Li704 1.970 . S
O765 Li705 1.956 1_545 S
O765 Li707 1.961 . S
O765 C714 1.325 . S
O766 Li704 1.961 . S
O766 Li706 1.956 . S
O766 Li707 1.970 . S
O766 C736 1.325 . S
O767 Li705 1.961 1_545 S
O767 Li706 1.970 . S
O767 Li707 1.956 . S
O767 C742 1.325 . S
H768 C710 0.929 . S
H769 C711 0.930 . S
H770 C712 0.930 . S
H771 C713 0.930 . S
H772 C715 0.930 . S
H773 C717 0.929 . S
H774 C718 0.930 . S
H775 C719 0.930 . S
H776 C722 0.918 1_565 S
H777 C725 0.929 . S
H778 C730 0.929 . S
H779 C731 0.930 . S
H780 C738 0.929 . S
H781 C739 0.930 . S
H782 C740 0.930 . S
H783 C741 0.930 . S
H784 C743 0.929 . S
H785 C744 0.930 . S
H786 C745 0.930 . S
H787 C746 0.930 . S
H788 C750 0.929 1_565 S
H789 C752 0.930 . S
H790 C758 0.929 . S
H791 C759 0.930 . S
Li792 N809 1.990 . S
Li792 O852 1.956 . S
Li792 O853 1.970 . S
Li792 O854 1.961 . S
Li793 N817 1.990 . S
Li793 O852 1.970 . S
Li793 O853 1.956 . S
Li793 O855 1.961 . S
Li794 N839 1.990 . S
Li794 O852 1.961 . S
Li794 O854 1.956 . S
Li794 O855 1.970 . S
Li795 N845 1.990 . S
Li795 O853 1.961 . S
Li795 O854 1.970 . S
Li795 O855 1.956 . S
C796 C798 1.348 . S
C796 C799 1.356 . S
C796 O852 1.325 . S
N797 C800 1.314 . S
N797 C801 1.279 . S
C798 C796 1.348 . S
C798 C800 1.353 . S
C798 H856 0.929 . S
C799 C796 1.356 . S
C799 C801 1.358 . S
C799 H857 0.930 . S
C800 N797 1.314 . S
C800 C798 1.353 . S
C800 H858 0.930 . S
C801 N797 1.279 . S
C801 C799 1.358 . S
C801 H859 0.930 . S
C802 C805 1.348 . S
C802 C806 1.356 . S
C802 O853 1.325 . S
C803 N804 1.279 . S
C803 C806 1.358 . S
C803 H860 0.930 . S
N804 C803 1.279 . S
N804 C807 1.314 . S
C805 C802 1.348 . S
C805 C807 1.353 . S
C805 H861 0.929 . S
C806 C802 1.356 . S
C806 C803 1.358 . S
C806 H862 0.930 . S
C807 N804 1.314 . S
C807 C805 1.353 . S
C807 H863 0.930 . S
C808 N809 1.314 . S
C808 C813 1.353 . S
C808 H814 0.930 . S
N809 Li792 1.990 . S
N809 C808 1.314 . S
N809 C811 1.279 . S
C810 C811 1.358 . S
C810 C812 1.356 . S
C810 H864 0.930 . S
C811 N809 1.279 . S
C811 C810 1.358 . S
C811 H815 0.930 . S
C812 C810 1.356 . S
C812 C813 1.348 . S
C813 C808 1.353 . S
C813 C812 1.348 . S
C813 H865 0.929 . S
H814 C808 0.930 . S
H815 C811 0.930 . S
C816 N817 1.314 . S
C816 C818 1.353 . S
C816 H822 0.930 . S
N817 Li793 1.990 . S
N817 C816 1.314 . S
N817 C820 1.279 . S
C818 C816 1.353 . S
C818 C821 1.348 . S
C818 H866 0.929 . S
C819 C820 1.358 . S
C819 C821 1.356 . S
C819 H867 0.930 . S
C820 N817 1.279 . S
C820 C819 1.358 . S
C820 H823 0.930 . S
C821 C818 1.348 . S
C821 C819 1.356 . S
H822 C816 0.930 . S
H823 C820 0.930 . S
C824 C826 1.348 . S
C824 C827 1.356 . S
C824 O854 1.325 . S
N825 C828 1.314 . S
N825 C829 1.279 . S
C826 C824 1.348 . S
C826 C828 1.353 . S
C826 H868 0.929 . S
C827 C824 1.356 . S
C827 C829 1.358 . S
C827 H869 0.930 . S
C828 N825 1.314 . S
C828 C826 1.353 . S
C828 H870 0.930 . S
C829 N825 1.279 . S
C829 C827 1.358 . S
C829 H871 0.930 . S
C830 C831 1.348 . S
C830 C832 1.356 . S
C830 O855 1.325 . S
C831 C830 1.348 . S
C831 C833 1.353 . S
C831 H872 0.929 . S
C832 C830 1.356 . S
C832 C834 1.358 . S
C832 H873 0.930 . S
C833 C831 1.353 . S
C833 N835 1.314 . S
C833 H874 0.930 . S
C834 C832 1.358 . S
C834 N835 1.279 . S
C834 H875 0.930 . S
N835 C833 1.314 . S
N835 C834 1.279 . S
C836 C838 1.353 . S
C836 N839 1.314 . S
C836 H842 0.930 . S
C837 N839 1.279 . S
C837 C840 1.358 . S
C837 H843 0.930 . S
C838 C836 1.353 . S
C838 C841 1.348 . S
C838 H876 0.929 . S
N839 Li794 1.990 . S
N839 C836 1.314 . S
N839 C837 1.279 . S
C840 C837 1.358 . S
C840 C841 1.356 . S
C840 H877 0.930 . S
C841 C838 1.348 . S
C841 C840 1.356 . S
H842 C836 0.930 . S
H843 C837 0.930 . S
C844 N845 1.314 . S
C844 C846 1.353 . S
C844 H850 0.930 . S
N845 Li795 1.990 . S
N845 C844 1.314 . S
N845 C848 1.279 . S
C846 C844 1.353 . S
C846 C849 1.348 . S
C846 H878 0.929 . S
C847 C848 1.358 . S
C847 C849 1.356 . S
C847 H879 0.930 . S
C848 N845 1.279 . S
C848 C847 1.358 . S
C848 H851 0.930 . S
C849 C846 1.348 . S
C849 C847 1.356 . S
H850 C844 0.930 . S
H851 C848 0.930 . S
O852 Li792 1.956 . S
O852 Li793 1.970 . S
O852 Li794 1.961 . S
O852 C796 1.325 . S
O853 Li792 1.970 . S
O853 Li793 1.956 . S
O853 Li795 1.961 . S
O853 C802 1.325 . S
O854 Li792 1.961 . S
O854 Li794 1.956 . S
O854 Li795 1.970 . S
O854 C824 1.325 . S
O855 Li793 1.961 . S
O855 Li794 1.970 . S
O855 Li795 1.956 . S
O855 C830 1.325 . S
H856 C798 0.929 . S
H857 C799 0.930 . S
H858 C800 0.930 . S
H859 C801 0.930 . S
H860 C803 0.930 . S
H861 C805 0.929 . S
H862 C806 0.930 . S
H863 C807 0.930 . S
H864 C810 0.930 . S
H865 C813 0.929 . S
H866 C818 0.929 . S
H867 C819 0.930 . S
H868 C826 0.929 . S
H869 C827 0.930 . S
H870 C828 0.930 . S
H871 C829 0.930 . S
H872 C831 0.929 . S
H873 C832 0.930 . S
H874 C833 0.930 . S
H875 C834 0.930 . S
H876 C838 0.929 . S
H877 C840 0.930 . S
H878 C846 0.929 . S
H879 C847 0.930 . S
Li880 N897 1.990 . S
Li880 O940 1.956 . S
Li880 O941 1.970 . S
Li880 O942 1.961 . S
Li881 N905 1.990 . S
Li881 O940 1.970 . S
Li881 O941 1.956 . S
Li881 O943 1.961 1_545 S
Li882 N927 1.990 . S
Li882 O940 1.961 1_565 S
Li882 O942 1.956 1_565 S
Li882 O943 1.970 . S
Li883 N933 1.990 . S
Li883 O941 1.961 . S
Li883 O942 1.970 . S
Li883 O943 1.956 1_545 S
C884 C886 1.348 . S
C884 C887 1.356 . S
C884 O940 1.325 . S
N885 C888 1.314 . S
N885 C889 1.279 . S
C886 C884 1.348 . S
C886 C888 1.353 . S
C886 H944 0.929 . S
C887 C884 1.356 . S
C887 C889 1.358 . S
C887 H945 0.930 . S
C888 N885 1.314 . S
C888 C886 1.353 . S
C888 H946 0.930 . S
C889 N885 1.279 . S
C889 C887 1.358 . S
C889 H947 0.930 . S
C890 C893 1.348 . S
C890 C894 1.356 . S
C890 O941 1.325 . S
C891 N892 1.279 . S
C891 C894 1.358 . S
C891 H948 0.930 . S
N892 C891 1.279 . S
N892 C895 1.314 . S
C893 C890 1.348 . S
C893 C895 1.353 . S
C893 H949 0.929 . S
C894 C890 1.356 . S
C894 C891 1.358 . S
C894 H950 0.930 . S
C895 N892 1.314 . S
C895 C893 1.353 . S
C895 H951 0.930 . S
C896 N897 1.314 . S
C896 C901 1.353 . S
C896 H902 0.930 . S
N897 Li880 1.990 . S
N897 C896 1.314 . S
N897 C899 1.279 . S
C898 C899 1.358 . S
C898 C900 1.356 . S
C898 H952 0.930 . S
C899 N897 1.279 . S
C899 C898 1.358 . S
C899 H903 0.930 . S
C900 C898 1.356 . S
C900 C901 1.348 . S
C901 C896 1.353 . S
C901 C900 1.348 . S
C901 H953 0.929 . S
H902 C896 0.930 . S
H903 C899 0.930 . S
C904 N905 1.314 1_565 S
C904 C906 1.353 . S
C904 H910 0.930 . S
N905 Li881 1.990 . S
N905 C904 1.314 1_545 S
N905 C908 1.279 . S
C906 C904 1.353 . S
C906 C909 1.348 1_565 S
C906 H954 0.929 . S
C907 C908 1.358 . S
C907 C909 1.356 . S
C907 H955 0.930 . S
C908 N905 1.279 . S
C908 C907 1.358 . S
C908 H911 0.930 . S
C909 C906 1.348 1_545 S
C909 C907 1.356 . S
H910 C904 0.930 . S
H911 C908 0.930 . S
C912 C914 1.348 . S
C912 C915 1.356 . S
C912 O942 1.325 . S
N913 C916 1.314 . S
N913 C917 1.279 . S
C914 C912 1.348 . S
C914 C916 1.353 . S
C914 H956 0.929 1_545 S
C915 C912 1.356 . S
C915 C917 1.358 . S
C915 H957 0.930 . S
C916 N913 1.314 . S
C916 C914 1.353 . S
C916 H958 0.930 1_545 S
C917 N913 1.279 . S
C917 C915 1.358 . S
C917 H959 0.930 . S
C918 C919 1.348 . S
C918 C920 1.356 . S
C918 O943 1.325 . S
C919 C918 1.348 . S
C919 C921 1.353 . S
C919 H960 0.929 . S
C920 C918 1.356 . S
C920 C922 1.358 . S
C920 H961 0.930 . S
C921 C919 1.353 . S
C921 N923 1.314 . S
C921 H962 0.930 . S
C922 C920 1.358 . S
C922 N923 1.279 . S
C922 H963 0.930 . S
N923 C921 1.314 . S
N923 C922 1.279 . S
C924 C926 1.353 . S
C924 N927 1.314 . S
C924 H930 0.930 . S
C925 N927 1.279 . S
C925 C928 1.358 . S
C925 H931 0.930 . S
C926 C924 1.353 . S
C926 C929 1.348 . S
C926 H964 0.929 . S
N927 Li882 1.990 . S
N927 C924 1.314 . S
N927 C925 1.279 . S
C928 C925 1.358 . S
C928 C929 1.356 . S
C928 H965 0.930 . S
C929 C926 1.348 . S
C929 C928 1.356 . S
H930 C924 0.930 . S
H931 C925 0.930 . S
C932 N933 1.314 . S
C932 C934 1.353 . S
C932 H938 0.930 . S
N933 Li883 1.990 . S
N933 C932 1.314 . S
N933 C936 1.279 1_545 S
C934 C932 1.353 . S
C934 C937 1.319 1_545 S
C934 H966 0.929 . S
C935 C936 1.358 . S
C935 C937 1.387 . S
C935 H967 0.930 . S
C936 N933 1.279 1_565 S
C936 C935 1.358 . S
C936 H939 0.930 . S
C937 C934 1.319 1_565 S
C937 C935 1.387 . S
H938 C932 0.930 . S
H939 C936 0.930 . S
O940 Li880 1.956 . S
O940 Li881 1.970 . S
O940 Li882 1.961 1_545 S
O940 C884 1.325 . S
O941 Li880 1.970 . S
O941 Li881 1.956 . S
O941 Li883 1.961 . S
O941 C890 1.325 . S
O942 Li880 1.961 . S
O942 Li882 1.956 1_545 S
O942 Li883 1.970 . S
O942 C912 1.325 . S
O943 Li881 1.961 1_565 S
O943 Li882 1.970 . S
O943 Li883 1.956 1_565 S
O943 C918 1.325 . S
H944 C886 0.929 . S
H945 C887 0.930 . S
H946 C888 0.930 . S
H947 C889 0.930 . S
H948 C891 0.930 . S
H949 C893 0.929 . S
H950 C894 0.930 . S
H951 C895 0.930 . S
H952 C898 0.930 . S
H953 C901 0.929 . S
H954 C906 0.929 . S
H955 C907 0.930 . S
H956 C914 0.929 1_565 S
H957 C915 0.930 . S
H958 C916 0.930 1_565 S
H959 C917 0.930 . S
H960 C919 0.929 . S
H961 C920 0.930 . S
H962 C921 0.930 . S
H963 C922 0.930 . S
H964 C926 0.929 . S
H965 C928 0.930 . S
H966 C934 0.929 . S
H967 C935 0.930 . S
Li968 N985 1.990 . S
Li968 O1028 1.956 . S
Li968 O1029 1.970 . S
Li968 O1030 1.961 1_554 S
Li969 N993 1.990 . S
Li969 O1028 1.970 . S
Li969 O1029 1.956 . S
Li969 O1031 1.961 . S
Li970 N1015 1.990 . S
Li970 O1028 1.961 . S
Li970 O1030 1.956 1_554 S
Li970 O1031 1.970 . S
Li971 N1021 1.990 . S
Li971 O1029 1.961 1_556 S
Li971 O1030 1.970 . S
Li971 O1031 1.956 1_556 S
C972 C974 1.348 . S
C972 C975 1.356 . S
C972 O1028 1.325 . S
N973 C976 1.314 . S
N973 C977 1.279 . S
C974 C972 1.348 . S
C974 C976 1.353 . S
C974 H1032 0.929 . S
C975 C972 1.356 . S
C975 C977 1.358 . S
C975 H1033 0.930 . S
C976 N973 1.314 . S
C976 C974 1.353 . S
C976 H1034 0.930 . S
C977 N973 1.279 . S
C977 C975 1.358 . S
C977 H1035 0.930 . S
C978 C981 1.348 . S
C978 C982 1.356 . S
C978 O1029 1.325 . S
C979 N980 1.279 . S
C979 C982 1.358 . S
C979 H1036 0.934 . S
N980 C979 1.279 . S
N980 C983 1.314 . S
C981 C978 1.348 . S
C981 C983 1.353 . S
C981 H1037 0.929 . S
C982 C978 1.356 . S
C982 C979 1.358 . S
C982 H1038 0.930 . S
C983 N980 1.314 . S
C983 C981 1.353 . S
C983 H1039 0.930 . S
C984 N985 1.314 1_556 S
C984 C989 1.353 . S
C984 H990 0.930 . S
N985 Li968 1.990 . S
N985 C984 1.314 1_554 S
N985 C987 1.279 . S
C986 C987 1.358 . S
C986 C988 1.356 . S
C986 H1040 0.930 . S
C987 N985 1.279 . S
C987 C986 1.358 . S
C987 H991 0.930 . S
C988 C986 1.356 . S
C988 C989 1.348 1_554 S
C989 C984 1.353 . S
C989 C988 1.348 1_556 S
C989 H1041 0.929 . S
H990 C984 0.930 . S
H991 C987 0.930 . S
C992 N993 1.314 . S
C992 C994 1.353 . S
C992 H998 0.930 . S
N993 Li969 1.990 . S
N993 C992 1.314 . S
N993 C996 1.279 . S
C994 C992 1.353 . S
C994 C997 1.348 . S
C994 H1042 0.929 . S
C995 C996 1.358 . S
C995 C997 1.356 . S
C995 H1043 0.930 . S
C996 N993 1.279 . S
C996 C995 1.358 . S
C996 H999 0.930 . S
C997 C994 1.348 . S
C997 C995 1.356 . S
H998 C992 0.930 . S
H999 C996 0.930 . S
C1000 C1002 1.348 . S
C1000 C1003 1.356 . S
C1000 O1030 1.325 . S
N1001 C1004 1.314 . S
N1001 C1005 1.279 . S
C1002 C1000 1.348 . S
C1002 C1004 1.353 . S
C1002 H1044 0.929 . S
C1003 C1000 1.356 . S
C1003 C1005 1.358 . S
C1003 H1045 0.930 . S
C1004 N1001 1.314 . S
C1004 C1002 1.353 . S
C1004 H1046 0.930 . S
C1005 N1001 1.279 . S
C1005 C1003 1.358 . S
C1005 H1047 0.930 . S
C1006 C1007 1.348 . S
C1006 C1008 1.356 . S
C1006 O1031 1.325 . S
C1007 C1006 1.348 . S
C1007 C1009 1.353 . S
C1007 H1048 0.929 . S
C1008 C1006 1.356 . S
C1008 C1010 1.358 . S
C1008 H1049 0.930 . S
C1009 C1007 1.353 . S
C1009 N1011 1.314 . S
C1009 H1050 0.930 . S
C1010 C1008 1.358 . S
C1010 N1011 1.279 . S
C1010 H1051 0.930 . S
N1011 C1009 1.314 . S
N1011 C1010 1.279 . S
C1012 C1014 1.353 . S
C1012 N1015 1.314 . S
C1012 H1018 0.930 . S
C1013 N1015 1.279 . S
C1013 C1016 1.358 . S
C1013 H1019 0.930 1_554 S
C1014 C1012 1.353 . S
C1014 C1017 1.348 . S
C1014 H1052 0.929 . S
N1015 Li970 1.990 . S
N1015 C1012 1.314 . S
N1015 C1013 1.279 . S
C1016 C1013 1.358 . S
C1016 C1017 1.356 . S
C1016 H1053 0.930 1_554 S
C1017 C1014 1.348 . S
C1017 C1016 1.356 . S
H1018 C1012 0.930 . S
H1019 C1013 0.930 1_556 S
C1020 N1021 1.314 . S
C1020 C1022 1.353 . S
C1020 H1026 0.930 . S
N1021 Li971 1.990 . S
N1021 C1020 1.314 . S
N1021 C1024 1.279 . S
C1022 C1020 1.353 . S
C1022 C1025 1.348 . S
C1022 H1054 0.929 . S
C1023 C1024 1.358 . S
C1023 C1025 1.356 . S
C1023 H1055 0.930 . S
C1024 N1021 1.279 . S
C1024 C1023 1.358 . S
C1024 H1027 0.930 . S
C1025 C1022 1.348 . S
C1025 C1023 1.356 . S
H1026 C1020 0.930 . S
H1027 C1024 0.930 . S
O1028 Li968 1.956 . S
O1028 Li969 1.970 . S
O1028 Li970 1.961 . S
O1028 C972 1.325 . S
O1029 Li968 1.970 . S
O1029 Li969 1.956 . S
O1029 Li971 1.961 1_554 S
O1029 C978 1.325 . S
O1030 Li968 1.961 1_556 S
O1030 Li970 1.956 1_556 S
O1030 Li971 1.970 . S
O1030 C1000 1.325 . S
O1031 Li969 1.961 . S
O1031 Li970 1.970 . S
O1031 Li971 1.956 1_554 S
O1031 C1006 1.325 . S
H1032 C974 0.929 . S
H1033 C975 0.930 . S
H1034 C976 0.930 . S
H1035 C977 0.930 . S
H1036 C979 0.934 . S
H1037 C981 0.929 . S
H1038 C982 0.930 . S
H1039 C983 0.930 . S
H1040 C986 0.930 . S
H1041 C989 0.929 . S
H1042 C994 0.929 . S
H1043 C995 0.930 . S
H1044 C1002 0.929 . S
H1045 C1003 0.930 . S
H1046 C1004 0.930 . S
H1047 C1005 0.930 . S
H1048 C1007 0.929 . S
H1049 C1008 0.930 . S
H1050 C1009 0.930 . S
H1051 C1010 0.930 . S
H1052 C1014 0.929 . S
H1053 C1016 0.930 1_556 S
H1054 C1022 0.929 . S
H1055 C1023 0.930 . S
Li1056 N1073 1.990 . S
Li1056 O1116 1.956 . S
Li1056 O1117 1.970 . S
Li1056 O1118 1.961 . S
Li1057 N1081 1.990 . S
Li1057 O1116 1.970 . S
Li1057 O1117 1.956 . S
Li1057 O1119 1.961 . S
Li1058 N1103 1.990 . S
Li1058 O1116 1.961 . S
Li1058 O1118 1.956 . S
Li1058 O1119 1.970 . S
Li1059 N1109 1.990 1_554 S
Li1059 O1117 1.961 . S
Li1059 O1118 1.970 . S
Li1059 O1119 1.956 . S
C1060 C1062 1.348 . S
C1060 C1063 1.356 . S
C1060 O1116 1.325 . S
N1061 C1064 1.314 . S
N1061 C1065 1.279 . S
C1062 C1060 1.348 . S
C1062 C1064 1.353 . S
C1062 H1120 0.929 . S
C1063 C1060 1.356 . S
C1063 C1065 1.358 . S
C1063 H1121 0.930 . S
C1064 N1061 1.314 . S
C1064 C1062 1.353 . S
C1064 H1122 0.930 . S
C1065 N1061 1.279 . S
C1065 C1063 1.358 . S
C1065 H1123 0.930 . S
C1066 C1069 1.348 . S
C1066 C1070 1.356 . S
C1066 O1117 1.325 . S
C1067 N1068 1.279 . S
C1067 C1070 1.358 . S
C1067 H1124 0.930 . S
N1068 C1067 1.279 . S
N1068 C1071 1.314 . S
C1069 C1066 1.348 . S
C1069 C1071 1.353 . S
C1069 H1125 0.929 . S
C1070 C1066 1.356 . S
C1070 C1067 1.358 . S
C1070 H1126 0.930 . S
C1071 N1068 1.314 . S
C1071 C1069 1.353 . S
C1071 H1127 0.930 . S
C1072 N1073 1.314 . S
C1072 C1077 1.353 . S
C1072 H1078 0.930 . S
N1073 Li1056 1.990 . S
N1073 C1072 1.314 . S
N1073 C1075 1.279 . S
C1074 C1075 1.358 . S
C1074 C1076 1.356 . S
C1074 H1128 0.930 . S
C1075 N1073 1.279 . S
C1075 C1074 1.358 . S
C1075 H1079 0.930 . S
C1076 C1074 1.356 . S
C1076 C1077 1.348 . S
C1077 C1072 1.353 . S
C1077 C1076 1.348 . S
C1077 H1129 0.929 . S
H1078 C1072 0.930 . S
H1079 C1075 0.930 . S
C1080 N1081 1.314 . S
C1080 C1082 1.353 . S
C1080 H1086 0.930 . S
N1081 Li1057 1.990 . S
N1081 C1080 1.314 . S
N1081 C1084 1.279 . S
C1082 C1080 1.353 . S
C1082 C1085 1.348 . S
C1082 H1130 0.929 . S
C1083 C1084 1.358 . S
C1083 C1085 1.356 . S
C1083 H1131 0.930 . S
C1084 N1081 1.279 . S
C1084 C1083 1.358 . S
C1084 H1087 0.930 . S
C1085 C1082 1.348 . S
C1085 C1083 1.356 . S
H1086 C1080 0.930 . S
H1087 C1084 0.930 . S
C1088 C1090 1.384 . S
C1088 C1091 1.356 1_556 S
C1088 O1118 1.292 1_556 S
N1089 C1092 1.314 . S
N1089 C1093 1.279 . S
C1090 C1088 1.384 . S
C1090 C1092 1.353 . S
C1090 H1132 0.929 . S
C1091 C1088 1.356 1_554 S
C1091 C1093 1.358 1_554 S
C1091 H1133 0.930 . S
C1092 N1089 1.314 . S
C1092 C1090 1.353 . S
C1092 H1134 0.930 . S
C1093 N1089 1.279 . S
C1093 C1091 1.358 1_556 S
C1093 H1135 0.930 . S
C1094 C1095 1.348 . S
C1094 C1096 1.356 . S
C1094 O1119 1.325 . S
C1095 C1094 1.348 . S
C1095 C1097 1.353 . S
C1095 H1136 0.929 . S
C1096 C1094 1.356 . S
C1096 C1098 1.358 . S
C1096 H1137 0.930 . S
C1097 C1095 1.353 . S
C1097 N1099 1.314 . S
C1097 H1138 0.930 . S
C1098 C1096 1.358 . S
C1098 N1099 1.279 . S
C1098 H1139 0.930 . S
N1099 C1097 1.314 . S
N1099 C1098 1.279 . S
C1100 C1102 1.353 . S
C1100 N1103 1.314 . S
C1100 H1106 0.930 . S
C1101 N1103 1.279 . S
C1101 C1104 1.358 . S
C1101 H1107 0.930 . S
C1102 C1100 1.353 . S
C1102 C1105 1.348 . S
C1102 H1140 0.929 . S
N1103 Li1058 1.990 . S
N1103 C1100 1.314 . S
N1103 C1101 1.279 . S
C1104 C1101 1.358 . S
C1104 C1105 1.356 . S
C1104 H1141 0.930 . S
C1105 C1102 1.348 . S
C1105 C1104 1.356 . S
H1106 C1100 0.930 . S
H1107 C1101 0.930 . S
C1108 N1109 1.314 . S
C1108 C1110 1.353 . S
C1108 H1114 0.930 . S
N1109 Li1059 1.990 1_556 S
N1109 C1108 1.314 . S
N1109 C1112 1.279 . S
C1110 C1108 1.353 . S
C1110 C1113 1.348 . S
C1110 H1142 0.929 . S
C1111 C1112 1.358 . S
C1111 C1113 1.356 . S
C1111 H1143 0.930 . S
C1112 N1109 1.279 . S
C1112 C1111 1.358 . S
C1112 H1115 0.930 . S
C1113 C1110 1.348 . S
C1113 C1111 1.356 . S
H1114 C1108 0.930 . S
H1115 C1112 0.930 . S
O1116 Li1056 1.956 . S
O1116 Li1057 1.970 . S
O1116 Li1058 1.961 . S
O1116 C1060 1.325 . S
O1117 Li1056 1.970 . S
O1117 Li1057 1.956 . S
O1117 Li1059 1.961 . S
O1117 C1066 1.325 . S
O1118 Li1056 1.961 . S
O1118 Li1058 1.956 . S
O1118 Li1059 1.970 . S
O1118 C1088 1.292 1_554 S
O1119 Li1057 1.961 . S
O1119 Li1058 1.970 . S
O1119 Li1059 1.956 . S
O1119 C1094 1.325 . S
H1120 C1062 0.929 . S
H1121 C1063 0.930 . S
H1122 C1064 0.930 . S
H1123 C1065 0.930 . S
H1124 C1067 0.930 . S
H1125 C1069 0.929 . S
H1126 C1070 0.930 . S
H1127 C1071 0.930 . S
H1128 C1074 0.930 . S
H1129 C1077 0.929 . S
H1130 C1082 0.929 . S
H1131 C1083 0.930 . S
H1132 C1090 0.929 . S
H1133 C1091 0.930 . S
H1134 C1092 0.930 . S
H1135 C1093 0.930 . S
H1136 C1095 0.929 . S
H1137 C1096 0.930 . S
H1138 C1097 0.930 . S
H1139 C1098 0.930 . S
H1140 C1102 0.929 . S
H1141 C1104 0.930 . S
H1142 C1110 0.929 . S
H1143 C1111 0.930 . S
Li1144 N1161 1.990 . S
Li1144 O1204 1.956 . S
Li1144 O1205 1.970 . S
Li1144 O1206 1.961 . S
Li1145 N1169 1.990 . S
Li1145 O1204 1.970 . S
Li1145 O1205 1.956 . S
Li1145 O1207 1.937 1_554 S
Li1146 N1191 1.990 1_554 S
Li1146 O1204 1.961 . S
Li1146 O1206 1.956 . S
Li1146 O1207 1.969 1_554 S
Li1147 N1197 1.990 . S
Li1147 O1205 1.961 . S
Li1147 O1206 1.970 . S
Li1147 O1207 1.932 1_554 S
C1148 C1150 1.348 . S
C1148 C1151 1.356 . S
C1148 O1204 1.325 . S
N1149 C1152 1.314 . S
N1149 C1153 1.279 . S
C1150 C1148 1.348 . S
C1150 C1152 1.353 . S
C1150 H1208 0.929 . S
C1151 C1148 1.356 . S
C1151 C1153 1.358 . S
C1151 H1209 0.930 . S
C1152 N1149 1.314 . S
C1152 C1150 1.353 . S
C1152 H1210 0.930 . S
C1153 N1149 1.279 . S
C1153 C1151 1.358 . S
C1153 H1211 0.930 . S
C1154 C1157 1.348 . S
C1154 C1158 1.356 . S
C1154 O1205 1.325 . S
C1155 N1156 1.279 . S
C1155 C1158 1.358 . S
C1155 H1212 0.930 . S
N1156 C1155 1.279 . S
N1156 C1159 1.314 . S
C1157 C1154 1.348 . S
C1157 C1159 1.353 . S
C1157 H1213 0.929 . S
C1158 C1154 1.356 . S
C1158 C1155 1.358 . S
C1158 H1214 0.930 . S
C1159 N1156 1.314 . S
C1159 C1157 1.353 . S
C1159 H1215 0.930 . S
C1160 N1161 1.314 . S
C1160 C1165 1.353 . S
C1160 H1166 0.930 . S
N1161 Li1144 1.990 . S
N1161 C1160 1.314 . S
N1161 C1163 1.279 . S
C1162 C1163 1.358 . S
C1162 C1164 1.356 . S
C1162 H1216 0.930 . S
C1163 N1161 1.279 . S
C1163 C1162 1.358 . S
C1163 H1167 0.930 . S
C1164 C1162 1.356 . S
C1164 C1165 1.348 . S
C1165 C1160 1.353 . S
C1165 C1164 1.348 . S
C1165 H1217 0.929 . S
H1166 C1160 0.930 . S
H1167 C1163 0.930 . S
C1168 N1169 1.314 . S
C1168 C1170 1.353 . S
C1168 H1174 0.930 1_554 S
N1169 Li1145 1.990 . S
N1169 C1168 1.314 . S
N1169 C1172 1.279 . S
C1170 C1168 1.353 . S
C1170 C1173 1.348 . S
C1170 H1218 0.929 1_554 S
C1171 C1172 1.358 . S
C1171 C1173 1.356 . S
C1171 H1219 0.930 . S
C1172 N1169 1.279 . S
C1172 C1171 1.358 . S
C1172 H1175 0.930 . S
C1173 C1170 1.348 . S
C1173 C1171 1.356 . S
H1174 C1168 0.930 1_556 S
H1175 C1172 0.930 . S
C1176 C1178 1.348 . S
C1176 C1179 1.356 . S
C1176 O1206 1.325 . S
N1177 C1180 1.314 . S
N1177 C1181 1.279 . S
C1178 C1176 1.348 . S
C1178 C1180 1.353 . S
C1178 H1220 0.929 . S
C1179 C1176 1.356 . S
C1179 C1181 1.358 . S
C1179 H1221 0.930 . S
C1180 N1177 1.314 . S
C1180 C1178 1.353 . S
C1180 H1222 0.930 . S
C1181 N1177 1.279 . S
C1181 C1179 1.358 . S
C1181 H1223 0.930 . S
C1182 C1183 1.348 . S
C1182 C1184 1.356 . S
C1182 O1207 1.350 . S
C1183 C1182 1.348 . S
C1183 C1185 1.353 . S
C1183 H1224 0.929 . S
C1184 C1182 1.356 . S
C1184 C1186 1.358 . S
C1184 H1225 0.930 . S
C1185 C1183 1.353 . S
C1185 N1187 1.314 . S
C1185 H1226 0.930 . S
C1186 C1184 1.358 . S
C1186 N1187 1.279 . S
C1186 H1227 0.930 . S
N1187 C1185 1.314 . S
N1187 C1186 1.279 . S
C1188 C1190 1.353 . S
C1188 N1191 1.314 . S
C1188 H1194 0.930 . S
C1189 N1191 1.279 . S
C1189 C1192 1.358 . S
C1189 H1195 0.930 . S
C1190 C1188 1.353 . S
C1190 C1193 1.348 . S
C1190 H1228 0.929 . S
N1191 Li1146 1.990 1_556 S
N1191 C1188 1.314 . S
N1191 C1189 1.279 . S
C1192 C1189 1.358 . S
C1192 C1193 1.356 . S
C1192 H1229 0.930 . S
C1193 C1190 1.348 . S
C1193 C1192 1.356 . S
H1194 C1188 0.930 . S
H1195 C1189 0.930 . S
C1196 N1197 1.314 . S
C1196 C1198 1.353 . S
C1196 H1202 0.930 . S
N1197 Li1147 1.990 . S
N1197 C1196 1.314 . S
N1197 C1200 1.279 . S
C1198 C1196 1.353 . S
C1198 C1201 1.348 . S
C1198 H1230 0.929 . S
C1199 C1200 1.360 1_556 S
C1199 C1201 1.325 1_556 S
C1199 H1231 0.960 . S
C1200 N1197 1.279 . S
C1200 C1199 1.360 1_554 S
C1200 H1203 0.930 1_554 S
C1201 C1198 1.348 . S
C1201 C1199 1.325 1_554 S
H1202 C1196 0.930 . S
H1203 C1200 0.930 1_556 S
O1204 Li1144 1.956 . S
O1204 Li1145 1.970 . S
O1204 Li1146 1.961 . S
O1204 C1148 1.325 . S
O1205 Li1144 1.970 . S
O1205 Li1145 1.956 . S
O1205 Li1147 1.961 . S
O1205 C1154 1.325 . S
O1206 Li1144 1.961 . S
O1206 Li1146 1.956 . S
O1206 Li1147 1.970 . S
O1206 C1176 1.325 . S
O1207 Li1145 1.937 1_556 S
O1207 Li1146 1.969 1_556 S
O1207 Li1147 1.932 1_556 S
O1207 C1182 1.350 . S
H1208 C1150 0.929 . S
H1209 C1151 0.930 . S
H1210 C1152 0.930 . S
H1211 C1153 0.930 . S
H1212 C1155 0.930 . S
H1213 C1157 0.929 . S
H1214 C1158 0.930 . S
H1215 C1159 0.930 . S
H1216 C1162 0.930 . S
H1217 C1165 0.929 . S
H1218 C1170 0.929 1_556 S
H1219 C1171 0.930 . S
H1220 C1178 0.929 . S
H1221 C1179 0.930 . S
H1222 C1180 0.930 . S
H1223 C1181 0.930 . S
H1224 C1183 0.929 . S
H1225 C1184 0.930 . S
H1226 C1185 0.930 . S
H1227 C1186 0.930 . S
H1228 C1190 0.929 . S
H1229 C1192 0.930 . S
H1230 C1198 0.929 . S
H1231 C1199 0.960 . S
Li1232 N1249 1.990 . S
Li1232 O1292 1.956 . S
Li1232 O1293 1.970 . S
Li1232 O1294 1.961 . S
Li1233 N1257 1.990 . S
Li1233 O1292 1.970 . S
Li1233 O1293 1.956 . S
Li1233 O1295 1.961 . S
Li1234 N1279 1.990 . S
Li1234 O1292 1.961 . S
Li1234 O1294 1.956 . S
Li1234 O1295 1.970 . S
Li1235 N1285 1.990 . S
Li1235 O1293 1.961 . S
Li1235 O1294 1.970 . S
Li1235 O1295 1.956 . S
C1236 C1238 1.348 . S
C1236 C1239 1.356 . S
C1236 O1292 1.325 . S
N1237 C1240 1.314 . S
N1237 C1241 1.279 . S
C1238 C1236 1.348 . S
C1238 C1240 1.353 . S
C1238 H1296 0.929 . S
C1239 C1236 1.356 . S
C1239 C1241 1.358 . S
C1239 H1297 0.930 . S
C1240 N1237 1.314 . S
C1240 C1238 1.353 . S
C1240 H1298 0.930 . S
C1241 N1237 1.279 . S
C1241 C1239 1.358 . S
C1241 H1299 0.930 . S
C1242 C1245 1.348 . S
C1242 C1246 1.356 . S
C1242 O1293 1.325 . S
C1243 N1244 1.279 . S
C1243 C1246 1.358 . S
C1243 H1300 0.930 . S
N1244 C1243 1.279 . S
N1244 C1247 1.314 . S
C1245 C1242 1.348 . S
C1245 C1247 1.353 . S
C1245 H1301 0.929 . S
C1246 C1242 1.356 . S
C1246 C1243 1.358 . S
C1246 H1302 0.930 . S
C1247 N1244 1.314 . S
C1247 C1245 1.353 . S
C1247 H1303 0.930 . S
C1248 N1249 1.314 . S
C1248 C1253 1.353 . S
C1248 H1254 0.930 . S
N1249 Li1232 1.990 . S
N1249 C1248 1.314 . S
N1249 C1251 1.279 . S
C1250 C1251 1.358 . S
C1250 C1252 1.356 . S
C1250 H1304 0.930 . S
C1251 N1249 1.279 . S
C1251 C1250 1.358 . S
C1251 H1255 0.930 . S
C1252 C1250 1.356 . S
C1252 C1253 1.348 . S
C1253 C1248 1.353 . S
C1253 C1252 1.348 . S
C1253 H1305 0.929 . S
H1254 C1248 0.930 . S
H1255 C1251 0.930 . S
C1256 N1257 1.314 . S
C1256 C1258 1.353 . S
C1256 H1262 0.930 . S
N1257 Li1233 1.990 . S
N1257 C1256 1.314 . S
N1257 C1260 1.279 . S
C1258 C1256 1.353 . S
C1258 C1261 1.348 . S
C1258 H1306 0.929 . S
C1259 C1260 1.358 . S
C1259 C1261 1.356 . S
C1259 H1307 0.930 . S
C1260 N1257 1.279 . S
C1260 C1259 1.358 . S
C1260 H1263 0.930 . S
C1261 C1258 1.348 . S
C1261 C1259 1.356 . S
H1262 C1256 0.930 . S
H1263 C1260 0.930 . S
C1264 C1266 1.348 . S
C1264 C1267 1.356 . S
C1264 O1294 1.325 . S
N1265 C1268 1.314 . S
N1265 C1269 1.279 . S
C1266 C1264 1.348 . S
C1266 C1268 1.353 . S
C1266 H1308 0.929 . S
C1267 C1264 1.356 . S
C1267 C1269 1.358 . S
C1267 H1309 0.930 . S
C1268 N1265 1.314 . S
C1268 C1266 1.353 . S
C1268 H1310 0.930 . S
C1269 N1265 1.279 . S
C1269 C1267 1.358 . S
C1269 H1311 0.930 . S
C1270 C1271 1.348 . S
C1270 C1272 1.356 . S
C1270 O1295 1.325 . S
C1271 C1270 1.348 . S
C1271 C1273 1.353 . S
C1271 H1312 0.929 . S
C1272 C1270 1.356 . S
C1272 C1274 1.358 . S
C1272 H1313 0.930 . S
C1273 C1271 1.353 . S
C1273 N1275 1.314 . S
C1273 H1314 0.930 . S
C1274 C1272 1.358 . S
C1274 N1275 1.279 . S
C1274 H1315 0.930 . S
N1275 C1273 1.314 . S
N1275 C1274 1.279 . S
C1276 C1278 1.353 . S
C1276 N1279 1.314 . S
C1276 H1282 0.930 . S
C1277 N1279 1.279 . S
C1277 C1280 1.358 . S
C1277 H1283 0.930 . S
C1278 C1276 1.353 . S
C1278 C1281 1.348 . S
C1278 H1316 0.929 . S
N1279 Li1234 1.990 . S
N1279 C1276 1.314 . S
N1279 C1277 1.279 . S
C1280 C1277 1.358 . S
C1280 C1281 1.356 . S
C1280 H1317 0.930 . S
C1281 C1278 1.348 . S
C1281 C1280 1.356 . S
H1282 C1276 0.930 . S
H1283 C1277 0.930 . S
C1284 N1285 1.314 . S
C1284 C1286 1.353 . S
C1284 H1290 0.930 . S
N1285 Li1235 1.990 . S
N1285 C1284 1.314 . S
N1285 C1288 1.279 . S
C1286 C1284 1.353 . S
C1286 C1289 1.348 . S
C1286 H1318 0.929 . S
C1287 C1288 1.358 . S
C1287 C1289 1.356 . S
C1287 H1319 0.930 . S
C1288 N1285 1.279 . S
C1288 C1287 1.358 . S
C1288 H1291 0.930 . S
C1289 C1286 1.348 . S
C1289 C1287 1.356 . S
H1290 C1284 0.930 . S
H1291 C1288 0.930 . S
O1292 Li1232 1.956 . S
O1292 Li1233 1.970 . S
O1292 Li1234 1.961 . S
O1292 C1236 1.325 . S
O1293 Li1232 1.970 . S
O1293 Li1233 1.956 . S
O1293 Li1235 1.961 . S
O1293 C1242 1.325 . S
O1294 Li1232 1.961 . S
O1294 Li1234 1.956 . S
O1294 Li1235 1.970 . S
O1294 C1264 1.325 . S
O1295 Li1233 1.961 . S
O1295 Li1234 1.970 . S
O1295 Li1235 1.956 . S
O1295 C1270 1.325 . S
H1296 C1238 0.929 . S
H1297 C1239 0.930 . S
H1298 C1240 0.930 . S
H1299 C1241 0.930 . S
H1300 C1243 0.930 . S
H1301 C1245 0.929 . S
H1302 C1246 0.930 . S
H1303 C1247 0.930 . S
H1304 C1250 0.930 . S
H1305 C1253 0.929 . S
H1306 C1258 0.929 . S
H1307 C1259 0.930 . S
H1308 C1266 0.929 . S
H1309 C1267 0.930 . S
H1310 C1268 0.930 . S
H1311 C1269 0.930 . S
H1312 C1271 0.929 . S
H1313 C1272 0.930 . S
H1314 C1273 0.930 . S
H1315 C1274 0.930 . S
H1316 C1278 0.929 . S
H1317 C1280 0.930 . S
H1318 C1286 0.929 . S
H1319 C1287 0.930 . S
Li1320 N1337 1.990 . S
Li1320 O1380 1.956 . S
Li1320 O1381 1.970 . S
Li1320 O1382 1.961 . S
Li1321 N1345 1.990 . S
Li1321 O1380 1.970 . S
Li1321 O1381 1.956 . S
Li1321 O1383 1.961 . S
Li1322 N1367 1.990 . S
Li1322 O1380 1.961 . S
Li1322 O1382 1.956 . S
Li1322 O1383 1.970 . S
Li1323 N1373 1.990 . S
Li1323 O1381 1.961 . S
Li1323 O1382 1.970 . S
Li1323 O1383 1.956 . S
C1324 C1326 1.348 . S
C1324 C1327 1.356 . S
C1324 O1380 1.325 . S
N1325 C1328 1.314 . S
N1325 C1329 1.279 . S
C1326 C1324 1.348 . S
C1326 C1328 1.353 . S
C1326 H1384 0.929 . S
C1327 C1324 1.356 . S
C1327 C1329 1.358 . S
C1327 H1385 0.930 . S
C1328 N1325 1.314 . S
C1328 C1326 1.353 . S
C1328 H1386 0.930 . S
C1329 N1325 1.279 . S
C1329 C1327 1.358 . S
C1329 H1387 0.930 . S
C1330 C1333 1.348 . S
C1330 C1334 1.356 . S
C1330 O1381 1.325 . S
C1331 N1332 1.279 . S
C1331 C1334 1.358 . S
C1331 H1388 0.930 . S
N1332 C1331 1.279 . S
N1332 C1335 1.314 . S
C1333 C1330 1.348 . S
C1333 C1335 1.353 . S
C1333 H1389 0.929 . S
C1334 C1330 1.356 . S
C1334 C1331 1.358 . S
C1334 H1390 0.930 . S
C1335 N1332 1.314 . S
C1335 C1333 1.353 . S
C1335 H1391 0.930 . S
C1336 N1337 1.314 . S
C1336 C1341 1.353 . S
C1336 H1342 0.930 . S
N1337 Li1320 1.990 . S
N1337 C1336 1.314 . S
N1337 C1339 1.279 . S
C1338 C1339 1.358 . S
C1338 C1340 1.356 . S
C1338 H1392 0.930 . S
C1339 N1337 1.279 . S
C1339 C1338 1.358 . S
C1339 H1343 0.930 . S
C1340 C1338 1.356 . S
C1340 C1341 1.348 . S
C1341 C1336 1.353 . S
C1341 C1340 1.348 . S
C1341 H1393 0.929 . S
H1342 C1336 0.930 . S
H1343 C1339 0.930 . S
C1344 N1345 1.314 . S
C1344 C1346 1.353 . S
C1344 H1350 0.930 . S
N1345 Li1321 1.990 . S
N1345 C1344 1.314 . S
N1345 C1348 1.279 . S
C1346 C1344 1.353 . S
C1346 C1349 1.348 . S
C1346 H1394 0.929 . S
C1347 C1348 1.358 . S
C1347 C1349 1.356 . S
C1347 H1395 0.930 . S
C1348 N1345 1.279 . S
C1348 C1347 1.358 . S
C1348 H1351 0.930 . S
C1349 C1346 1.348 . S
C1349 C1347 1.356 . S
H1350 C1344 0.930 . S
H1351 C1348 0.930 . S
C1352 C1354 1.348 . S
C1352 C1355 1.356 . S
C1352 O1382 1.325 . S
N1353 C1356 1.314 . S
N1353 C1357 1.279 . S
C1354 C1352 1.348 . S
C1354 C1356 1.353 . S
C1354 H1396 0.929 . S
C1355 C1352 1.356 . S
C1355 C1357 1.358 . S
C1355 H1397 0.930 . S
C1356 N1353 1.314 . S
C1356 C1354 1.353 . S
C1356 H1398 0.930 . S
C1357 N1353 1.279 . S
C1357 C1355 1.358 . S
C1357 H1399 0.930 . S
C1358 C1359 1.348 . S
C1358 C1360 1.356 . S
C1358 O1383 1.325 . S
C1359 C1358 1.348 . S
C1359 C1361 1.353 . S
C1359 H1400 0.929 . S
C1360 C1358 1.356 . S
C1360 C1362 1.358 . S
C1360 H1401 0.930 . S
C1361 C1359 1.353 . S
C1361 N1363 1.314 . S
C1361 H1402 0.930 . S
C1362 C1360 1.358 . S
C1362 N1363 1.279 . S
C1362 H1403 0.930 . S
N1363 C1361 1.314 . S
N1363 C1362 1.279 . S
C1364 C1366 1.353 . S
C1364 N1367 1.314 . S
C1364 H1370 0.930 . S
C1365 N1367 1.279 . S
C1365 C1368 1.358 . S
C1365 H1371 0.930 . S
C1366 C1364 1.353 . S
C1366 C1369 1.348 . S
C1366 H1404 0.929 . S
N1367 Li1322 1.990 . S
N1367 C1364 1.314 . S
N1367 C1365 1.279 . S
C1368 C1365 1.358 . S
C1368 C1369 1.356 . S
C1368 H1405 0.930 . S
C1369 C1366 1.348 . S
C1369 C1368 1.356 . S
H1370 C1364 0.930 . S
H1371 C1365 0.930 . S
C1372 N1373 1.314 . S
C1372 C1374 1.353 . S
C1372 H1378 0.930 . S
N1373 Li1323 1.990 . S
N1373 C1372 1.314 . S
N1373 C1376 1.279 . S
C1374 C1372 1.353 . S
C1374 C1377 1.348 . S
C1374 H1406 0.929 . S
C1375 C1376 1.358 . S
C1375 C1377 1.356 . S
C1375 H1407 0.930 . S
C1376 N1373 1.279 . S
C1376 C1375 1.358 . S
C1376 H1379 0.930 . S
C1377 C1374 1.348 . S
C1377 C1375 1.356 . S
H1378 C1372 0.930 . S
H1379 C1376 0.930 . S
O1380 Li1320 1.956 . S
O1380 Li1321 1.970 . S
O1380 Li1322 1.961 . S
O1380 C1324 1.325 . S
O1381 Li1320 1.970 . S
O1381 Li1321 1.956 . S
O1381 Li1323 1.961 . S
O1381 C1330 1.325 . S
O1382 Li1320 1.961 . S
O1382 Li1322 1.956 . S
O1382 Li1323 1.970 . S
O1382 C1352 1.325 . S
O1383 Li1321 1.961 . S
O1383 Li1322 1.970 . S
O1383 Li1323 1.956 . S
O1383 C1358 1.325 . S
H1384 C1326 0.929 . S
H1385 C1327 0.930 . S
H1386 C1328 0.930 . S
H1387 C1329 0.930 . S
H1388 C1331 0.930 . S
H1389 C1333 0.929 . S
H1390 C1334 0.930 . S
H1391 C1335 0.930 . S
H1392 C1338 0.930 . S
H1393 C1341 0.929 . S
H1394 C1346 0.929 . S
H1395 C1347 0.930 . S
H1396 C1354 0.929 . S
H1397 C1355 0.930 . S
H1398 C1356 0.930 . S
H1399 C1357 0.930 . S
H1400 C1359 0.929 . S
H1401 C1360 0.930 . S
H1402 C1361 0.930 . S
H1403 C1362 0.930 . S
H1404 C1366 0.929 . S
H1405 C1368 0.930 . S
H1406 C1374 0.929 . S
H1407 C1375 0.930 . S
Li1408 N1425 1.990 . S
Li1408 O1468 1.956 1_545 S
Li1408 O1469 1.970 . S
Li1408 O1470 1.961 . S
Li1409 N1433 1.990 . S
Li1409 O1468 1.970 . S
Li1409 O1469 1.956 1_565 S
Li1409 O1471 1.961 1_565 S
Li1410 N1455 1.990 . S
Li1410 O1468 1.961 1_545 S
Li1410 O1470 1.956 . S
Li1410 O1471 1.970 . S
Li1411 N1461 1.990 . S
Li1411 O1469 1.961 . S
Li1411 O1470 1.970 . S
Li1411 O1471 1.956 . S
C1412 C1414 1.348 . S
C1412 C1415 1.356 . S
C1412 O1468 1.325 . S
N1413 C1416 1.314 . S
N1413 C1417 1.279 . S
C1414 C1412 1.348 . S
C1414 C1416 1.353 . S
C1414 H1472 0.929 . S
C1415 C1412 1.356 . S
C1415 C1417 1.358 . S
C1415 H1473 0.930 . S
C1416 N1413 1.314 . S
C1416 C1414 1.353 . S
C1416 H1474 0.930 . S
C1417 N1413 1.279 . S
C1417 C1415 1.358 . S
C1417 H1475 0.930 . S
C1418 C1421 1.348 . S
C1418 C1422 1.356 . S
C1418 O1469 1.325 . S
C1419 N1420 1.279 . S
C1419 C1422 1.358 . S
C1419 H1476 0.930 . S
N1420 C1419 1.279 . S
N1420 C1423 1.314 . S
C1421 C1418 1.348 . S
C1421 C1423 1.353 . S
C1421 H1477 0.929 . S
C1422 C1418 1.356 . S
C1422 C1419 1.358 . S
C1422 H1478 0.930 . S
C1423 N1420 1.314 . S
C1423 C1421 1.353 . S
C1423 H1479 0.930 . S
C1424 N1425 1.314 . S
C1424 C1429 1.353 . S
C1424 H1430 0.930 . S
N1425 Li1408 1.990 . S
N1425 C1424 1.314 . S
N1425 C1427 1.282 1_545 S
C1426 C1427 1.358 1_545 S
C1426 C1428 1.356 . S
C1426 H1480 0.930 1_545 S
C1427 N1425 1.282 1_565 S
C1427 C1426 1.358 1_565 S
C1427 H1431 0.928 . S
C1428 C1426 1.356 . S
C1428 C1429 1.348 . S
C1429 C1424 1.353 . S
C1429 C1428 1.348 . S
C1429 H1481 0.929 . S
H1430 C1424 0.930 . S
H1431 C1427 0.928 . S
C1432 N1433 1.314 . S
C1432 C1434 1.353 . S
C1432 H1438 0.930 . S
N1433 Li1409 1.990 . S
N1433 C1432 1.314 . S
N1433 C1436 1.279 . S
C1434 C1432 1.353 . S
C1434 C1437 1.348 . S
C1434 H1482 0.929 . S
C1435 C1436 1.358 . S
C1435 C1437 1.356 . S
C1435 H1483 0.930 . S
C1436 N1433 1.279 . S
C1436 C1435 1.358 . S
C1436 H1439 0.930 . S
C1437 C1434 1.348 . S
C1437 C1435 1.356 . S
H1438 C1432 0.930 . S
H1439 C1436 0.930 . S
C1440 C1442 1.348 . S
C1440 C1443 1.356 . S
C1440 O1470 1.325 . S
N1441 C1444 1.314 . S
N1441 C1445 1.279 . S
C1442 C1440 1.348 . S
C1442 C1444 1.353 . S
C1442 H1484 0.929 . S
C1443 C1440 1.356 . S
C1443 C1445 1.358 . S
C1443 H1485 0.930 . S
C1444 N1441 1.314 . S
C1444 C1442 1.353 . S
C1444 H1486 0.930 . S
C1445 N1441 1.279 . S
C1445 C1443 1.358 . S
C1445 H1487 0.930 . S
C1446 C1447 1.348 . S
C1446 C1448 1.356 1_545 S
C1446 O1471 1.325 . S
C1447 C1446 1.348 . S
C1447 C1449 1.353 . S
C1447 H1488 0.929 . S
C1448 C1446 1.356 1_565 S
C1448 C1450 1.358 . S
C1448 H1489 0.930 . S
C1449 C1447 1.353 . S
C1449 N1451 1.314 . S
C1449 H1490 0.930 . S
C1450 C1448 1.358 . S
C1450 N1451 1.279 1_565 S
C1450 H1491 0.930 . S
N1451 C1449 1.314 . S
N1451 C1450 1.279 1_545 S
C1452 C1454 1.353 . S
C1452 N1455 1.314 1_565 S
C1452 H1458 0.930 . S
C1453 N1455 1.279 . S
C1453 C1456 1.358 . S
C1453 H1459 0.930 . S
C1454 C1452 1.353 . S
C1454 C1457 1.348 1_565 S
C1454 H1492 0.929 . S
N1455 Li1410 1.990 . S
N1455 C1452 1.314 1_545 S
N1455 C1453 1.279 . S
C1456 C1453 1.358 . S
C1456 C1457 1.356 . S
C1456 H1493 0.930 . S
C1457 C1454 1.348 1_545 S
C1457 C1456 1.356 . S
H1458 C1452 0.930 . S
H1459 C1453 0.930 . S
C1460 N1461 1.314 . S
C1460 C1462 1.353 . S
C1460 H1466 0.930 . S
N1461 Li1411 1.990 . S
N1461 C1460 1.314 . S
N1461 C1464 1.279 . S
C1462 C1460 1.353 . S
C1462 C1465 1.348 . S
C1462 H1494 0.929 . S
C1463 C1464 1.358 . S
C1463 C1465 1.356 . S
C1463 H1495 0.930 . S
C1464 N1461 1.279 . S
C1464 C1463 1.358 . S
C1464 H1467 0.930 . S
C1465 C1462 1.348 . S
C1465 C1463 1.356 . S
H1466 C1460 0.930 . S
H1467 C1464 0.930 . S
O1468 Li1408 1.956 1_565 S
O1468 Li1409 1.970 . S
O1468 Li1410 1.961 1_565 S
O1468 C1412 1.325 . S
O1469 Li1408 1.970 . S
O1469 Li1409 1.956 1_545 S
O1469 Li1411 1.961 . S
O1469 C1418 1.325 . S
O1470 Li1408 1.961 . S
O1470 Li1410 1.956 . S
O1470 Li1411 1.970 . S
O1470 C1440 1.325 . S
O1471 Li1409 1.961 1_545 S
O1471 Li1410 1.970 . S
O1471 Li1411 1.956 . S
O1471 C1446 1.325 . S
H1472 C1414 0.929 . S
H1473 C1415 0.930 . S
H1474 C1416 0.930 . S
H1475 C1417 0.930 . S
H1476 C1419 0.930 . S
H1477 C1421 0.929 . S
H1478 C1422 0.930 . S
H1479 C1423 0.930 . S
H1480 C1426 0.930 1_565 S
H1481 C1429 0.929 . S
H1482 C1434 0.929 . S
H1483 C1435 0.930 . S
H1484 C1442 0.929 . S
H1485 C1443 0.930 . S
H1486 C1444 0.930 . S
H1487 C1445 0.930 . S
H1488 C1447 0.929 . S
H1489 C1448 0.930 . S
H1490 C1449 0.930 . S
H1491 C1450 0.930 . S
H1492 C1454 0.929 . S
H1493 C1456 0.930 . S
H1494 C1462 0.929 . S
H1495 C1463 0.930 . S
Li1496 N1513 1.990 . S
Li1496 O1556 1.956 . S
Li1496 O1557 1.970 . S
Li1496 O1558 1.961 . S
Li1497 N1521 1.990 . S
Li1497 O1556 1.970 . S
Li1497 O1557 1.956 . S
Li1497 O1559 1.961 . S
Li1498 N1543 1.990 . S
Li1498 O1556 1.961 . S
Li1498 O1558 1.956 . S
Li1498 O1559 1.970 . S
Li1499 N1549 1.990 . S
Li1499 O1557 1.961 . S
Li1499 O1558 1.970 . S
Li1499 O1559 1.956 . S
C1500 C1502 1.348 . S
C1500 C1503 1.356 . S
C1500 O1556 1.325 . S
N1501 C1504 1.314 . S
N1501 C1505 1.279 . S
C1502 C1500 1.348 . S
C1502 C1504 1.353 . S
C1502 H1560 0.929 . S
C1503 C1500 1.356 . S
C1503 C1505 1.358 . S
C1503 H1561 0.930 . S
C1504 N1501 1.314 . S
C1504 C1502 1.353 . S
C1504 H1562 0.930 . S
C1505 N1501 1.279 . S
C1505 C1503 1.358 . S
C1505 H1563 0.930 . S
C1506 C1509 1.348 . S
C1506 C1510 1.356 . S
C1506 O1557 1.325 . S
C1507 N1508 1.279 . S
C1507 C1510 1.358 . S
C1507 H1564 0.930 . S
N1508 C1507 1.279 . S
N1508 C1511 1.314 . S
C1509 C1506 1.348 . S
C1509 C1511 1.353 . S
C1509 H1565 0.929 . S
C1510 C1506 1.356 . S
C1510 C1507 1.358 . S
C1510 H1566 0.930 . S
C1511 N1508 1.314 . S
C1511 C1509 1.353 . S
C1511 H1567 0.930 . S
C1512 N1513 1.314 . S
C1512 C1517 1.353 . S
C1512 H1518 0.930 . S
N1513 Li1496 1.990 . S
N1513 C1512 1.314 . S
N1513 C1515 1.279 . S
C1514 C1515 1.358 . S
C1514 C1516 1.356 . S
C1514 H1568 0.930 . S
C1515 N1513 1.279 . S
C1515 C1514 1.358 . S
C1515 H1519 0.930 . S
C1516 C1514 1.356 . S
C1516 C1517 1.348 . S
C1517 C1512 1.353 . S
C1517 C1516 1.348 . S
C1517 H1569 0.929 . S
H1518 C1512 0.930 . S
H1519 C1515 0.930 . S
C1520 N1521 1.314 . S
C1520 C1522 1.353 . S
C1520 H1526 0.930 . S
N1521 Li1497 1.990 . S
N1521 C1520 1.314 . S
N1521 C1524 1.279 . S
C1522 C1520 1.353 . S
C1522 C1525 1.348 . S
C1522 H1570 0.929 . S
C1523 C1524 1.358 . S
C1523 C1525 1.356 . S
C1523 H1571 0.930 . S
C1524 N1521 1.279 . S
C1524 C1523 1.358 . S
C1524 H1527 0.930 . S
C1525 C1522 1.348 . S
C1525 C1523 1.356 . S
H1526 C1520 0.930 . S
H1527 C1524 0.930 . S
C1528 C1530 1.348 . S
C1528 C1531 1.356 . S
C1528 O1558 1.325 . S
N1529 C1532 1.314 . S
N1529 C1533 1.279 . S
C1530 C1528 1.348 . S
C1530 C1532 1.353 . S
C1530 H1572 0.929 . S
C1531 C1528 1.356 . S
C1531 C1533 1.358 . S
C1531 H1573 0.930 . S
C1532 N1529 1.314 . S
C1532 C1530 1.353 . S
C1532 H1574 0.930 . S
C1533 N1529 1.279 . S
C1533 C1531 1.358 . S
C1533 H1575 0.930 . S
C1534 C1535 1.348 . S
C1534 C1536 1.356 . S
C1534 O1559 1.325 . S
C1535 C1534 1.348 . S
C1535 C1537 1.353 . S
C1535 H1576 0.929 . S
C1536 C1534 1.356 . S
C1536 C1538 1.358 . S
C1536 H1577 0.930 . S
C1537 C1535 1.353 . S
C1537 N1539 1.314 . S
C1537 H1578 0.930 . S
C1538 C1536 1.358 . S
C1538 N1539 1.279 . S
C1538 H1579 0.930 . S
N1539 C1537 1.314 . S
N1539 C1538 1.279 . S
C1540 C1542 1.353 . S
C1540 N1543 1.314 . S
C1540 H1546 0.930 . S
C1541 N1543 1.279 . S
C1541 C1544 1.358 . S
C1541 H1547 0.930 . S
C1542 C1540 1.353 . S
C1542 C1545 1.348 . S
C1542 H1580 0.929 . S
N1543 Li1498 1.990 . S
N1543 C1540 1.314 . S
N1543 C1541 1.279 . S
C1544 C1541 1.358 . S
C1544 C1545 1.356 . S
C1544 H1581 0.930 . S
C1545 C1542 1.348 . S
C1545 C1544 1.356 . S
H1546 C1540 0.930 . S
H1547 C1541 0.930 . S
C1548 N1549 1.314 . S
C1548 C1550 1.353 . S
C1548 H1554 0.930 . S
N1549 Li1499 1.990 . S
N1549 C1548 1.314 . S
N1549 C1552 1.279 . S
C1550 C1548 1.353 . S
C1550 C1553 1.348 . S
C1550 H1582 0.929 . S
C1551 C1552 1.358 . S
C1551 C1553 1.356 . S
C1551 H1583 0.930 . S
C1552 N1549 1.279 . S
C1552 C1551 1.358 . S
C1552 H1555 0.930 . S
C1553 C1550 1.348 . S
C1553 C1551 1.356 . S
H1554 C1548 0.930 . S
H1555 C1552 0.930 . S
O1556 Li1496 1.956 . S
O1556 Li1497 1.970 . S
O1556 Li1498 1.961 . S
O1556 C1500 1.325 . S
O1557 Li1496 1.970 . S
O1557 Li1497 1.956 . S
O1557 Li1499 1.961 . S
O1557 C1506 1.325 . S
O1558 Li1496 1.961 . S
O1558 Li1498 1.956 . S
O1558 Li1499 1.970 . S
O1558 C1528 1.325 . S
O1559 Li1497 1.961 . S
O1559 Li1498 1.970 . S
O1559 Li1499 1.956 . S
O1559 C1534 1.325 . S
H1560 C1502 0.929 . S
H1561 C1503 0.930 . S
H1562 C1504 0.930 . S
H1563 C1505 0.930 . S
H1564 C1507 0.930 . S
H1565 C1509 0.929 . S
H1566 C1510 0.930 . S
H1567 C1511 0.930 . S
H1568 C1514 0.930 . S
H1569 C1517 0.929 . S
H1570 C1522 0.929 . S
H1571 C1523 0.930 . S
H1572 C1530 0.929 . S
H1573 C1531 0.930 . S
H1574 C1532 0.930 . S
H1575 C1533 0.930 . S
H1576 C1535 0.929 . S
H1577 C1536 0.930 . S
H1578 C1537 0.930 . S
H1579 C1538 0.930 . S
H1580 C1542 0.929 . S
H1581 C1544 0.930 . S
H1582 C1550 0.929 . S
H1583 C1551 0.930 . S
Li1584 N1601 1.990 . S
Li1584 O1644 1.956 . S
Li1584 O1645 1.970 . S
Li1584 O1646 1.961 . S
Li1585 N1609 1.990 . S
Li1585 O1644 1.970 . S
Li1585 O1645 1.956 . S
Li1585 O1647 1.961 . S
Li1586 N1631 1.990 . S
Li1586 O1644 1.961 . S
Li1586 O1646 1.956 . S
Li1586 O1647 1.970 . S
Li1587 N1637 1.990 . S
Li1587 O1645 1.961 . S
Li1587 O1646 1.970 . S
Li1587 O1647 1.956 . S
C1588 C1590 1.348 . S
C1588 C1591 1.356 . S
C1588 O1644 1.325 . S
N1589 C1592 1.314 . S
N1589 C1593 1.279 . S
C1590 C1588 1.348 . S
C1590 C1592 1.353 . S
C1590 H1648 0.929 . S
C1591 C1588 1.356 . S
C1591 C1593 1.358 . S
C1591 H1649 0.930 . S
C1592 N1589 1.314 . S
C1592 C1590 1.353 . S
C1592 H1650 0.930 . S
C1593 N1589 1.279 . S
C1593 C1591 1.358 . S
C1593 H1651 0.930 . S
C1594 C1597 1.348 . S
C1594 C1598 1.356 . S
C1594 O1645 1.325 . S
C1595 N1596 1.279 . S
C1595 C1598 1.358 . S
C1595 H1652 0.930 . S
N1596 C1595 1.279 . S
N1596 C1599 1.314 . S
C1597 C1594 1.348 . S
C1597 C1599 1.353 . S
C1597 H1653 0.929 . S
C1598 C1594 1.356 . S
C1598 C1595 1.358 . S
C1598 H1654 0.930 . S
C1599 N1596 1.314 . S
C1599 C1597 1.353 . S
C1599 H1655 0.930 . S
C1600 N1601 1.314 . S
C1600 C1605 1.353 . S
C1600 H1606 0.930 . S
N1601 Li1584 1.990 . S
N1601 C1600 1.314 . S
N1601 C1603 1.279 . S
C1602 C1603 1.358 . S
C1602 C1604 1.356 . S
C1602 H1656 0.930 . S
C1603 N1601 1.279 . S
C1603 C1602 1.358 . S
C1603 H1607 0.930 . S
C1604 C1602 1.356 . S
C1604 C1605 1.348 . S
C1605 C1600 1.353 . S
C1605 C1604 1.348 . S
C1605 H1657 0.929 . S
H1606 C1600 0.930 . S
H1607 C1603 0.930 . S
C1608 N1609 1.314 . S
C1608 C1610 1.353 . S
C1608 H1614 0.930 . S
N1609 Li1585 1.990 . S
N1609 C1608 1.314 . S
N1609 C1612 1.279 . S
C1610 C1608 1.353 . S
C1610 C1613 1.348 . S
C1610 H1658 0.929 . S
C1611 C1612 1.358 . S
C1611 C1613 1.356 . S
C1611 H1659 0.930 . S
C1612 N1609 1.279 . S
C1612 C1611 1.358 . S
C1612 H1615 0.930 . S
C1613 C1610 1.348 . S
C1613 C1611 1.356 . S
H1614 C1608 0.930 . S
H1615 C1612 0.930 . S
C1616 C1618 1.348 . S
C1616 C1619 1.356 . S
C1616 O1646 1.325 . S
N1617 C1620 1.314 . S
N1617 C1621 1.279 . S
C1618 C1616 1.348 . S
C1618 C1620 1.353 . S
C1618 H1660 0.929 . S
C1619 C1616 1.356 . S
C1619 C1621 1.358 . S
C1619 H1661 0.930 . S
C1620 N1617 1.314 . S
C1620 C1618 1.353 . S
C1620 H1662 0.930 . S
C1621 N1617 1.279 . S
C1621 C1619 1.358 . S
C1621 H1663 0.930 . S
C1622 C1623 1.348 . S
C1622 C1624 1.356 . S
C1622 O1647 1.325 . S
C1623 C1622 1.348 . S
C1623 C1625 1.353 . S
C1623 H1664 0.929 . S
C1624 C1622 1.356 . S
C1624 C1626 1.358 . S
C1624 H1665 0.930 . S
C1625 C1623 1.353 . S
C1625 N1627 1.314 . S
C1625 H1666 0.930 . S
C1626 C1624 1.358 . S
C1626 N1627 1.279 . S
C1626 H1667 0.930 . S
N1627 C1625 1.314 . S
N1627 C1626 1.279 . S
C1628 C1630 1.353 . S
C1628 N1631 1.314 . S
C1628 H1634 0.930 . S
C1629 N1631 1.279 . S
C1629 C1632 1.358 . S
C1629 H1635 0.930 . S
C1630 C1628 1.353 . S
C1630 C1633 1.348 . S
C1630 H1668 0.929 . S
N1631 Li1586 1.990 . S
N1631 C1628 1.314 . S
N1631 C1629 1.279 . S
C1632 C1629 1.358 . S
C1632 C1633 1.356 . S
C1632 H1669 0.930 . S
C1633 C1630 1.348 . S
C1633 C1632 1.356 . S
H1634 C1628 0.930 . S
H1635 C1629 0.930 . S
C1636 N1637 1.314 . S
C1636 C1638 1.353 . S
C1636 H1642 0.930 . S
N1637 Li1587 1.990 . S
N1637 C1636 1.314 . S
N1637 C1640 1.279 . S
C1638 C1636 1.353 . S
C1638 C1641 1.348 . S
C1638 H1670 0.929 . S
C1639 C1640 1.358 . S
C1639 C1641 1.356 . S
C1639 H1671 0.930 . S
C1640 N1637 1.279 . S
C1640 C1639 1.358 . S
C1640 H1643 0.930 . S
C1641 C1638 1.348 . S
C1641 C1639 1.356 . S
H1642 C1636 0.930 . S
H1643 C1640 0.930 . S
O1644 Li1584 1.956 . S
O1644 Li1585 1.970 . S
O1644 Li1586 1.961 . S
O1644 C1588 1.325 . S
O1645 Li1584 1.970 . S
O1645 Li1585 1.956 . S
O1645 Li1587 1.961 . S
O1645 C1594 1.325 . S
O1646 Li1584 1.961 . S
O1646 Li1586 1.956 . S
O1646 Li1587 1.970 . S
O1646 C1616 1.325 . S
O1647 Li1585 1.961 . S
O1647 Li1586 1.970 . S
O1647 Li1587 1.956 . S
O1647 C1622 1.325 . S
H1648 C1590 0.929 . S
H1649 C1591 0.930 . S
H1650 C1592 0.930 . S
H1651 C1593 0.930 . S
H1652 C1595 0.930 . S
H1653 C1597 0.929 . S
H1654 C1598 0.930 . S
H1655 C1599 0.930 . S
H1656 C1602 0.930 . S
H1657 C1605 0.929 . S
H1658 C1610 0.929 . S
H1659 C1611 0.930 . S
H1660 C1618 0.929 . S
H1661 C1619 0.930 . S
H1662 C1620 0.930 . S
H1663 C1621 0.930 . S
H1664 C1623 0.929 . S
H1665 C1624 0.930 . S
H1666 C1625 0.930 . S
H1667 C1626 0.930 . S
H1668 C1630 0.929 . S
H1669 C1632 0.930 . S
H1670 C1638 0.929 . S
H1671 C1639 0.930 . S
Li1672 N1689 1.991 1_545 S
Li1672 O1732 1.952 . S
Li1672 O1733 1.971 . S
Li1672 O1734 1.965 1_545 S
Li1673 N1697 1.990 . S
Li1673 O1732 1.970 . S
Li1673 O1733 1.956 . S
Li1673 O1735 1.961 . S
Li1674 N1719 1.990 . S
Li1674 O1732 1.961 1_565 S
Li1674 O1734 1.956 . S
Li1674 O1735 1.970 1_565 S
Li1675 N1725 1.990 . S
Li1675 O1733 1.961 1_565 S
Li1675 O1734 1.970 . S
Li1675 O1735 1.956 1_565 S
C1676 C1678 1.348 . S
C1676 C1679 1.356 . S
C1676 O1732 1.325 . S
N1677 C1680 1.314 . S
N1677 C1681 1.279 . S
C1678 C1676 1.348 . S
C1678 C1680 1.353 . S
C1678 H1736 0.929 . S
C1679 C1676 1.356 . S
C1679 C1681 1.358 . S
C1679 H1737 0.930 . S
C1680 N1677 1.314 . S
C1680 C1678 1.353 . S
C1680 H1738 0.930 . S
C1681 N1677 1.279 . S
C1681 C1679 1.358 . S
C1681 H1739 0.930 . S
C1682 C1685 1.348 . S
C1682 C1686 1.356 . S
C1682 O1733 1.325 . S
C1683 N1684 1.279 . S
C1683 C1686 1.358 . S
C1683 H1740 0.930 . S
N1684 C1683 1.279 . S
N1684 C1687 1.314 . S
C1685 C1682 1.348 . S
C1685 C1687 1.353 . S
C1685 H1741 0.929 . S
C1686 C1682 1.356 . S
C1686 C1683 1.358 . S
C1686 H1742 0.932 . S
C1687 N1684 1.314 . S
C1687 C1685 1.353 . S
C1687 H1743 0.930 . S
C1688 N1689 1.339 . S
C1688 C1693 1.353 . S
C1688 H1694 0.930 . S
N1689 Li1672 1.991 1_565 S
N1689 C1688 1.339 . S
N1689 C1691 1.255 1_565 S
C1690 C1691 1.358 . S
C1690 C1692 1.356 1_545 S
C1690 H1744 0.930 . S
C1691 N1689 1.255 1_545 S
C1691 C1690 1.358 . S
C1691 H1695 0.930 . S
C1692 C1690 1.356 1_565 S
C1692 C1693 1.348 . S
C1693 C1688 1.353 . S
C1693 C1692 1.348 . S
C1693 H1745 0.929 . S
H1694 C1688 0.930 . S
H1695 C1691 0.930 . S
C1696 N1697 1.314 . S
C1696 C1698 1.353 . S
C1696 H1702 0.930 . S
N1697 Li1673 1.990 . S
N1697 C1696 1.314 . S
N1697 C1700 1.279 . S
C1698 C1696 1.353 . S
C1698 C1701 1.348 . S
C1698 H1746 0.929 . S
C1699 C1700 1.358 . S
C1699 C1701 1.356 . S
C1699 H1747 0.930 . S
C1700 N1697 1.279 . S
C1700 C1699 1.358 . S
C1700 H1703 0.930 . S
C1701 C1698 1.348 . S
C1701 C1699 1.356 . S
H1702 C1696 0.930 . S
H1703 C1700 0.930 . S
C1704 C1706 1.348 . S
C1704 C1707 1.356 . S
C1704 O1734 1.325 . S
N1705 C1708 1.314 . S
N1705 C1709 1.279 . S
C1706 C1704 1.348 . S
C1706 C1708 1.353 . S
C1706 H1748 0.929 . S
C1707 C1704 1.356 . S
C1707 C1709 1.358 . S
C1707 H1749 0.930 . S
C1708 N1705 1.314 . S
C1708 C1706 1.353 . S
C1708 H1750 0.930 . S
C1709 N1705 1.279 . S
C1709 C1707 1.358 . S
C1709 H1751 0.930 . S
C1710 C1711 1.348 1_545 S
C1710 C1712 1.356 . S
C1710 O1735 1.325 . S
C1711 C1710 1.348 1_565 S
C1711 C1713 1.353 . S
C1711 H1752 0.929 . S
C1712 C1710 1.356 . S
C1712 C1714 1.358 . S
C1712 H1753 0.930 . S
C1713 C1711 1.353 . S
C1713 N1715 1.314 1_565 S
C1713 H1754 0.930 . S
C1714 C1712 1.358 . S
C1714 N1715 1.279 . S
C1714 H1755 0.930 . S
N1715 C1713 1.314 1_545 S
N1715 C1714 1.279 . S
C1716 C1718 1.353 . S
C1716 N1719 1.314 1_545 S
C1716 H1722 0.930 . S
C1717 N1719 1.279 . S
C1717 C1720 1.358 . S
C1717 H1723 0.930 . S
C1718 C1716 1.353 . S
C1718 C1721 1.348 1_545 S
C1718 H1756 0.929 . S
N1719 Li1674 1.990 . S
N1719 C1716 1.314 1_565 S
N1719 C1717 1.279 . S
C1720 C1717 1.358 . S
C1720 C1721 1.356 . S
C1720 H1757 0.930 . S
C1721 C1718 1.348 1_565 S
C1721 C1720 1.356 . S
H1722 C1716 0.930 . S
H1723 C1717 0.930 . S
C1724 N1725 1.314 . S
C1724 C1726 1.353 . S
C1724 H1730 0.930 . S
N1725 Li1675 1.990 . S
N1725 C1724 1.314 . S
N1725 C1728 1.279 . S
C1726 C1724 1.353 . S
C1726 C1729 1.348 . S
C1726 H1758 0.929 . S
C1727 C1728 1.358 . S
C1727 C1729 1.356 . S
C1727 H1759 0.930 . S
C1728 N1725 1.279 . S
C1728 C1727 1.358 . S
C1728 H1731 0.930 . S
C1729 C1726 1.348 . S
C1729 C1727 1.356 . S
H1730 C1724 0.930 . S
H1731 C1728 0.930 . S
O1732 Li1672 1.952 . S
O1732 Li1673 1.970 . S
O1732 Li1674 1.961 1_545 S
O1732 C1676 1.325 . S
O1733 Li1672 1.971 . S
O1733 Li1673 1.956 . S
O1733 Li1675 1.961 1_545 S
O1733 C1682 1.325 . S
O1734 Li1672 1.965 1_565 S
O1734 Li1674 1.956 . S
O1734 Li1675 1.970 . S
O1734 C1704 1.325 . S
O1735 Li1673 1.961 . S
O1735 Li1674 1.970 1_545 S
O1735 Li1675 1.956 1_545 S
O1735 C1710 1.325 . S
H1736 C1678 0.929 . S
H1737 C1679 0.930 . S
H1738 C1680 0.930 . S
H1739 C1681 0.930 . S
H1740 C1683 0.930 . S
H1741 C1685 0.929 . S
H1742 C1686 0.932 . S
H1743 C1687 0.930 . S
H1744 C1690 0.930 . S
H1745 C1693 0.929 . S
H1746 C1698 0.929 . S
H1747 C1699 0.930 . S
H1748 C1706 0.929 . S
H1749 C1707 0.930 . S
H1750 C1708 0.930 . S
H1751 C1709 0.930 . S
H1752 C1711 0.929 . S
H1753 C1712 0.930 . S
H1754 C1713 0.930 . S
H1755 C1714 0.930 . S
H1756 C1718 0.929 . S
H1757 C1720 0.930 . S
H1758 C1726 0.929 . S
H1759 C1727 0.930 . S
Li1760 N1777 1.990 . S
Li1760 O1820 1.956 . S
Li1760 O1821 1.970 . S
Li1760 O1822 1.979 . S
Li1761 N1785 1.991 . S
Li1761 O1820 1.968 . S
Li1761 O1821 1.987 . S
Li1761 O1823 1.932 1_554 S
Li1762 N1807 1.990 . S
Li1762 O1820 1.961 1_556 S
Li1762 O1822 1.936 1_556 S
Li1762 O1823 1.970 . S
Li1763 N1813 1.990 . S
Li1763 O1821 1.961 1_556 S
Li1763 O1822 1.970 1_556 S
Li1763 O1823 1.956 . S
C1764 C1766 1.348 . S
C1764 C1767 1.356 . S
C1764 O1820 1.325 . S
N1765 C1768 1.314 . S
N1765 C1769 1.279 . S
C1766 C1764 1.348 . S
C1766 C1768 1.353 . S
C1766 H1824 0.929 . S
C1767 C1764 1.356 . S
C1767 C1769 1.358 . S
C1767 H1825 0.930 1_554 S
C1768 N1765 1.314 . S
C1768 C1766 1.353 . S
C1768 H1826 0.930 . S
C1769 N1765 1.279 . S
C1769 C1767 1.358 . S
C1769 H1827 0.936 . S
C1770 C1773 1.348 . S
C1770 C1774 1.356 . S
C1770 O1821 1.325 . S
C1771 N1772 1.279 . S
C1771 C1774 1.358 . S
C1771 H1828 0.930 . S
N1772 C1771 1.279 . S
N1772 C1775 1.314 . S
C1773 C1770 1.348 . S
C1773 C1775 1.353 . S
C1773 H1829 0.929 . S
C1774 C1770 1.356 . S
C1774 C1771 1.358 . S
C1774 H1830 0.930 . S
C1775 N1772 1.314 . S
C1775 C1773 1.353 . S
C1775 H1831 0.930 . S
C1776 N1777 1.314 . S
C1776 C1781 1.353 . S
C1776 H1782 0.930 . S
N1777 Li1760 1.990 . S
N1777 C1776 1.314 . S
N1777 C1779 1.279 . S
C1778 C1779 1.358 . S
C1778 C1780 1.356 . S
C1778 H1832 0.930 . S
C1779 N1777 1.279 . S
C1779 C1778 1.358 . S
C1779 H1783 0.930 . S
C1780 C1778 1.356 . S
C1780 C1781 1.348 . S
C1781 C1776 1.353 . S
C1781 C1780 1.348 . S
C1781 H1833 0.929 . S
H1782 C1776 0.930 . S
H1783 C1779 0.930 . S
C1784 N1785 1.314 1_556 S
C1784 C1786 1.353 . S
C1784 H1790 0.930 . S
N1785 Li1761 1.991 . S
N1785 C1784 1.314 1_554 S
N1785 C1788 1.279 . S
C1786 C1784 1.353 . S
C1786 C1789 1.325 1_556 S
C1786 H1834 0.929 . S
C1787 C1788 1.358 . S
C1787 C1789 1.379 . S
C1787 H1835 0.930 . S
C1788 N1785 1.279 . S
C1788 C1787 1.358 . S
C1788 H1791 0.930 . S
C1789 C1786 1.325 1_554 S
C1789 C1787 1.379 . S
H1790 C1784 0.930 . S
H1791 C1788 0.930 . S
C1792 C1794 1.347 . S
C1792 C1795 1.356 1_556 S
C1792 O1822 1.325 1_556 S
N1793 C1796 1.314 . S
N1793 C1797 1.279 1_556 S
C1794 C1792 1.347 . S
C1794 C1796 1.353 . S
C1794 H1836 0.929 . S
C1795 C1792 1.356 1_554 S
C1795 C1797 1.358 . S
C1795 H1837 0.930 . S
C1796 N1793 1.314 . S
C1796 C1794 1.353 . S
C1796 H1838 0.930 . S
C1797 N1793 1.279 1_554 S
C1797 C1795 1.358 . S
C1797 H1839 0.930 . S
C1798 C1799 1.348 . S
C1798 C1800 1.356 . S
C1798 O1823 1.325 . S
C1799 C1798 1.348 . S
C1799 C1801 1.353 . S
C1799 H1840 0.929 . S
C1800 C1798 1.356 . S
C1800 C1802 1.358 . S
C1800 H1841 0.930 . S
C1801 C1799 1.353 . S
C1801 N1803 1.314 . S
C1801 H1842 0.930 . S
C1802 C1800 1.358 . S
C1802 N1803 1.279 . S
C1802 H1843 0.930 . S
N1803 C1801 1.314 . S
N1803 C1802 1.279 . S
C1804 C1806 1.353 . S
C1804 N1807 1.314 . S
C1804 H1810 0.930 . S
C1805 N1807 1.279 . S
C1805 C1808 1.358 . S
C1805 H1811 0.930 . S
C1806 C1804 1.353 . S
C1806 C1809 1.348 . S
C1806 H1844 0.929 . S
N1807 Li1762 1.990 . S
N1807 C1804 1.314 . S
N1807 C1805 1.279 . S
C1808 C1805 1.358 . S
C1808 C1809 1.356 . S
C1808 H1845 0.930 . S
C1809 C1806 1.348 . S
C1809 C1808 1.356 . S
H1810 C1804 0.930 . S
H1811 C1805 0.930 . S
C1812 N1813 1.314 1_554 S
C1812 C1814 1.353 . S
C1812 H1818 0.930 . S
N1813 Li1763 1.990 . S
N1813 C1812 1.314 1_556 S
N1813 C1816 1.279 . S
C1814 C1812 1.353 . S
C1814 C1817 1.348 1_554 S
C1814 H1846 0.929 . S
C1815 C1816 1.358 . S
C1815 C1817 1.356 . S
C1815 H1847 0.930 . S
C1816 N1813 1.279 . S
C1816 C1815 1.358 . S
C1816 H1819 0.930 . S
C1817 C1814 1.348 1_556 S
C1817 C1815 1.356 . S
H1818 C1812 0.930 . S
H1819 C1816 0.930 . S
O1820 Li1760 1.956 . S
O1820 Li1761 1.968 . S
O1820 Li1762 1.961 1_554 S
O1820 C1764 1.325 . S
O1821 Li1760 1.970 . S
O1821 Li1761 1.987 . S
O1821 Li1763 1.961 1_554 S
O1821 C1770 1.325 . S
O1822 Li1760 1.979 . S
O1822 Li1762 1.936 1_554 S
O1822 Li1763 1.970 1_554 S
O1822 C1792 1.325 1_554 S
O1823 Li1761 1.932 1_556 S
O1823 Li1762 1.970 . S
O1823 Li1763 1.956 . S
O1823 C1798 1.325 . S
H1824 C1766 0.929 . S
H1825 C1767 0.930 1_556 S
H1826 C1768 0.930 . S
H1827 C1769 0.936 . S
H1828 C1771 0.930 . S
H1829 C1773 0.929 . S
H1830 C1774 0.930 . S
H1831 C1775 0.930 . S
H1832 C1778 0.930 . S
H1833 C1781 0.929 . S
H1834 C1786 0.929 . S
H1835 C1787 0.930 . S
H1836 C1794 0.929 . S
H1837 C1795 0.930 . S
H1838 C1796 0.930 . S
H1839 C1797 0.930 . S
H1840 C1799 0.929 . S
H1841 C1800 0.930 . S
H1842 C1801 0.930 . S
H1843 C1802 0.930 . S
H1844 C1806 0.929 . S
H1845 C1808 0.930 . S
H1846 C1814 0.929 . S
H1847 C1815 0.930 . S
Li1848 N1865 1.990 . S
Li1848 O1908 1.956 . S
Li1848 O1909 1.970 . S
Li1848 O1910 1.961 . S
Li1849 N1873 1.990 . S
Li1849 O1908 1.970 . S
Li1849 O1909 1.956 . S
Li1849 O1911 1.961 . S
Li1850 N1895 1.990 . S
Li1850 O1908 1.961 . S
Li1850 O1910 1.956 . S
Li1850 O1911 1.970 . S
Li1851 N1901 1.990 . S
Li1851 O1909 1.961 . S
Li1851 O1910 1.970 . S
Li1851 O1911 1.956 . S
C1852 C1854 1.348 . S
C1852 C1855 1.356 . S
C1852 O1908 1.325 . S
N1853 C1856 1.314 . S
N1853 C1857 1.279 . S
C1854 C1852 1.348 . S
C1854 C1856 1.353 . S
C1854 H1912 0.929 . S
C1855 C1852 1.356 . S
C1855 C1857 1.358 . S
C1855 H1913 0.930 . S
C1856 N1853 1.314 . S
C1856 C1854 1.353 . S
C1856 H1914 0.930 . S
C1857 N1853 1.279 . S
C1857 C1855 1.358 . S
C1857 H1915 0.930 . S
C1858 C1861 1.348 . S
C1858 C1862 1.356 . S
C1858 O1909 1.325 . S
C1859 N1860 1.279 . S
C1859 C1862 1.358 . S
C1859 H1916 0.930 . S
N1860 C1859 1.279 . S
N1860 C1863 1.314 . S
C1861 C1858 1.348 . S
C1861 C1863 1.353 . S
C1861 H1917 0.929 . S
C1862 C1858 1.356 . S
C1862 C1859 1.358 . S
C1862 H1918 0.930 . S
C1863 N1860 1.314 . S
C1863 C1861 1.353 . S
C1863 H1919 0.930 . S
C1864 N1865 1.314 . S
C1864 C1869 1.353 . S
C1864 H1870 0.930 . S
N1865 Li1848 1.990 . S
N1865 C1864 1.314 . S
N1865 C1867 1.279 . S
C1866 C1867 1.358 . S
C1866 C1868 1.356 . S
C1866 H1920 0.930 . S
C1867 N1865 1.279 . S
C1867 C1866 1.358 . S
C1867 H1871 0.930 . S
C1868 C1866 1.356 . S
C1868 C1869 1.348 . S
C1869 C1864 1.353 . S
C1869 C1868 1.348 . S
C1869 H1921 0.929 . S
H1870 C1864 0.930 . S
H1871 C1867 0.930 . S
C1872 N1873 1.314 . S
C1872 C1874 1.353 . S
C1872 H1878 0.930 . S
N1873 Li1849 1.990 . S
N1873 C1872 1.314 . S
N1873 C1876 1.279 . S
C1874 C1872 1.353 . S
C1874 C1877 1.348 . S
C1874 H1922 0.929 . S
C1875 C1876 1.358 . S
C1875 C1877 1.356 . S
C1875 H1923 0.930 . S
C1876 N1873 1.279 . S
C1876 C1875 1.358 . S
C1876 H1879 0.930 . S
C1877 C1874 1.348 . S
C1877 C1875 1.356 . S
H1878 C1872 0.930 . S
H1879 C1876 0.930 . S
C1880 C1882 1.348 . S
C1880 C1883 1.356 . S
C1880 O1910 1.325 . S
N1881 C1884 1.314 . S
N1881 C1885 1.279 . S
C1882 C1880 1.348 . S
C1882 C1884 1.353 . S
C1882 H1924 0.929 . S
C1883 C1880 1.356 . S
C1883 C1885 1.358 . S
C1883 H1925 0.930 . S
C1884 N1881 1.314 . S
C1884 C1882 1.353 . S
C1884 H1926 0.930 . S
C1885 N1881 1.279 . S
C1885 C1883 1.358 . S
C1885 H1927 0.930 . S
C1886 C1887 1.348 . S
C1886 C1888 1.356 . S
C1886 O1911 1.325 . S
C1887 C1886 1.348 . S
C1887 C1889 1.353 . S
C1887 H1928 0.929 . S
C1888 C1886 1.356 . S
C1888 C1890 1.358 . S
C1888 H1929 0.930 . S
C1889 C1887 1.353 . S
C1889 N1891 1.314 . S
C1889 H1930 0.930 . S
C1890 C1888 1.358 . S
C1890 N1891 1.279 . S
C1890 H1931 0.930 . S
N1891 C1889 1.314 . S
N1891 C1890 1.279 . S
C1892 C1894 1.353 . S
C1892 N1895 1.314 . S
C1892 H1898 0.930 . S
C1893 N1895 1.279 . S
C1893 C1896 1.358 . S
C1893 H1899 0.930 . S
C1894 C1892 1.353 . S
C1894 C1897 1.348 . S
C1894 H1932 0.929 . S
N1895 Li1850 1.990 . S
N1895 C1892 1.314 . S
N1895 C1893 1.279 . S
C1896 C1893 1.358 . S
C1896 C1897 1.356 . S
C1896 H1933 0.930 . S
C1897 C1894 1.348 . S
C1897 C1896 1.356 . S
H1898 C1892 0.930 . S
H1899 C1893 0.930 . S
C1900 N1901 1.314 . S
C1900 C1902 1.353 . S
C1900 H1906 0.930 . S
N1901 Li1851 1.990 . S
N1901 C1900 1.314 . S
N1901 C1904 1.279 . S
C1902 C1900 1.353 . S
C1902 C1905 1.348 . S
C1902 H1934 0.929 . S
C1903 C1904 1.358 . S
C1903 C1905 1.356 . S
C1903 H1935 0.930 . S
C1904 N1901 1.279 . S
C1904 C1903 1.358 . S
C1904 H1907 0.930 . S
C1905 C1902 1.348 . S
C1905 C1903 1.356 . S
H1906 C1900 0.930 . S
H1907 C1904 0.930 . S
O1908 Li1848 1.956 . S
O1908 Li1849 1.970 . S
O1908 Li1850 1.961 . S
O1908 C1852 1.325 . S
O1909 Li1848 1.970 . S
O1909 Li1849 1.956 . S
O1909 Li1851 1.961 . S
O1909 C1858 1.325 . S
O1910 Li1848 1.961 . S
O1910 Li1850 1.956 . S
O1910 Li1851 1.970 . S
O1910 C1880 1.325 . S
O1911 Li1849 1.961 . S
O1911 Li1850 1.970 . S
O1911 Li1851 1.956 . S
O1911 C1886 1.325 . S
H1912 C1854 0.929 . S
H1913 C1855 0.930 . S
H1914 C1856 0.930 . S
H1915 C1857 0.930 . S
H1916 C1859 0.930 . S
H1917 C1861 0.929 . S
H1918 C1862 0.930 . S
H1919 C1863 0.930 . S
H1920 C1866 0.930 . S
H1921 C1869 0.929 . S
H1922 C1874 0.929 . S
H1923 C1875 0.930 . S
H1924 C1882 0.929 . S
H1925 C1883 0.930 . S
H1926 C1884 0.930 . S
H1927 C1885 0.930 . S
H1928 C1887 0.929 . S
H1929 C1888 0.930 . S
H1930 C1889 0.930 . S
H1931 C1890 0.930 . S
H1932 C1894 0.929 . S
H1933 C1896 0.930 . S
H1934 C1902 0.929 . S
H1935 C1903 0.930 . S
Li1936 N1953 1.990 . S
Li1936 O1996 1.956 . S
Li1936 O1997 1.970 . S
Li1936 O1998 1.961 . S
Li1937 N1961 1.990 . S
Li1937 O1996 1.970 . S
Li1937 O1997 1.956 . S
Li1937 O1999 1.961 . S
Li1938 N1983 1.990 . S
Li1938 O1996 1.961 . S
Li1938 O1998 1.956 . S
Li1938 O1999 1.970 . S
Li1939 N1989 1.990 . S
Li1939 O1997 1.961 . S
Li1939 O1998 1.970 . S
Li1939 O1999 1.956 . S
C1940 C1942 1.348 . S
C1940 C1943 1.356 . S
C1940 O1996 1.325 . S
N1941 C1944 1.314 . S
N1941 C1945 1.279 . S
C1942 C1940 1.348 . S
C1942 C1944 1.353 . S
C1942 H2000 0.929 . S
C1943 C1940 1.356 . S
C1943 C1945 1.358 . S
C1943 H2001 0.930 . S
C1944 N1941 1.314 . S
C1944 C1942 1.353 . S
C1944 H2002 0.930 . S
C1945 N1941 1.279 . S
C1945 C1943 1.358 . S
C1945 H2003 0.930 . S
C1946 C1949 1.348 . S
C1946 C1950 1.356 . S
C1946 O1997 1.325 . S
C1947 N1948 1.279 . S
C1947 C1950 1.358 . S
C1947 H2004 0.930 . S
N1948 C1947 1.279 . S
N1948 C1951 1.314 . S
C1949 C1946 1.348 . S
C1949 C1951 1.353 . S
C1949 H2005 0.929 . S
C1950 C1946 1.356 . S
C1950 C1947 1.358 . S
C1950 H2006 0.930 . S
C1951 N1948 1.314 . S
C1951 C1949 1.353 . S
C1951 H2007 0.930 . S
C1952 N1953 1.314 . S
C1952 C1957 1.353 . S
C1952 H1958 0.930 . S
N1953 Li1936 1.990 . S
N1953 C1952 1.314 . S
N1953 C1955 1.279 . S
C1954 C1955 1.358 . S
C1954 C1956 1.356 . S
C1954 H2008 0.930 . S
C1955 N1953 1.279 . S
C1955 C1954 1.358 . S
C1955 H1959 0.930 . S
C1956 C1954 1.356 . S
C1956 C1957 1.348 . S
C1957 C1952 1.353 . S
C1957 C1956 1.348 . S
C1957 H2009 0.929 . S
H1958 C1952 0.930 . S
H1959 C1955 0.930 . S
C1960 N1961 1.314 . S
C1960 C1962 1.353 . S
C1960 H1966 0.930 . S
N1961 Li1937 1.990 . S
N1961 C1960 1.314 . S
N1961 C1964 1.279 . S
C1962 C1960 1.353 . S
C1962 C1965 1.348 . S
C1962 H2010 0.929 . S
C1963 C1964 1.358 . S
C1963 C1965 1.356 . S
C1963 H2011 0.930 . S
C1964 N1961 1.279 . S
C1964 C1963 1.358 . S
C1964 H1967 0.930 . S
C1965 C1962 1.348 . S
C1965 C1963 1.356 . S
H1966 C1960 0.930 . S
H1967 C1964 0.930 . S
C1968 C1970 1.348 . S
C1968 C1971 1.356 . S
C1968 O1998 1.325 . S
N1969 C1972 1.314 . S
N1969 C1973 1.279 . S
C1970 C1968 1.348 . S
C1970 C1972 1.353 . S
C1970 H2012 0.929 . S
C1971 C1968 1.356 . S
C1971 C1973 1.358 . S
C1971 H2013 0.930 . S
C1972 N1969 1.314 . S
C1972 C1970 1.353 . S
C1972 H2014 0.930 . S
C1973 N1969 1.279 . S
C1973 C1971 1.358 . S
C1973 H2015 0.930 . S
C1974 C1975 1.348 . S
C1974 C1976 1.356 . S
C1974 O1999 1.325 . S
C1975 C1974 1.348 . S
C1975 C1977 1.353 . S
C1975 H2016 0.929 . S
C1976 C1974 1.356 . S
C1976 C1978 1.358 . S
C1976 H2017 0.930 . S
C1977 C1975 1.353 . S
C1977 N1979 1.314 . S
C1977 H2018 0.930 . S
C1978 C1976 1.358 . S
C1978 N1979 1.279 . S
C1978 H2019 0.930 . S
N1979 C1977 1.314 . S
N1979 C1978 1.279 . S
C1980 C1982 1.353 . S
C1980 N1983 1.314 . S
C1980 H1986 0.930 . S
C1981 N1983 1.279 . S
C1981 C1984 1.358 . S
C1981 H1987 0.930 . S
C1982 C1980 1.353 . S
C1982 C1985 1.348 . S
C1982 H2020 0.929 . S
N1983 Li1938 1.990 . S
N1983 C1980 1.314 . S
N1983 C1981 1.279 . S
C1984 C1981 1.358 . S
C1984 C1985 1.356 . S
C1984 H2021 0.930 . S
C1985 C1982 1.348 . S
C1985 C1984 1.356 . S
H1986 C1980 0.930 . S
H1987 C1981 0.930 . S
C1988 N1989 1.314 . S
C1988 C1990 1.353 . S
C1988 H1994 0.930 . S
N1989 Li1939 1.990 . S
N1989 C1988 1.314 . S
N1989 C1992 1.279 . S
C1990 C1988 1.353 . S
C1990 C1993 1.348 . S
C1990 H2022 0.929 . S
C1991 C1992 1.358 . S
C1991 C1993 1.356 . S
C1991 H2023 0.930 . S
C1992 N1989 1.279 . S
C1992 C1991 1.358 . S
C1992 H1995 0.930 . S
C1993 C1990 1.348 . S
C1993 C1991 1.356 . S
H1994 C1988 0.930 . S
H1995 C1992 0.930 . S
O1996 Li1936 1.956 . S
O1996 Li1937 1.970 . S
O1996 Li1938 1.961 . S
O1996 C1940 1.325 . S
O1997 Li1936 1.970 . S
O1997 Li1937 1.956 . S
O1997 Li1939 1.961 . S
O1997 C1946 1.325 . S
O1998 Li1936 1.961 . S
O1998 Li1938 1.956 . S
O1998 Li1939 1.970 . S
O1998 C1968 1.325 . S
O1999 Li1937 1.961 . S
O1999 Li1938 1.970 . S
O1999 Li1939 1.956 . S
O1999 C1974 1.325 . S
H2000 C1942 0.929 . S
H2001 C1943 0.930 . S
H2002 C1944 0.930 . S
H2003 C1945 0.930 . S
H2004 C1947 0.930 . S
H2005 C1949 0.929 . S
H2006 C1950 0.930 . S
H2007 C1951 0.930 . S
H2008 C1954 0.930 . S
H2009 C1957 0.929 . S
H2010 C1962 0.929 . S
H2011 C1963 0.930 . S
H2012 C1970 0.929 . S
H2013 C1971 0.930 . S
H2014 C1972 0.930 . S
H2015 C1973 0.930 . S
H2016 C1975 0.929 . S
H2017 C1976 0.930 . S
H2018 C1977 0.930 . S
H2019 C1978 0.930 . S
H2020 C1982 0.929 . S
H2021 C1984 0.930 . S
H2022 C1990 0.929 . S
H2023 C1991 0.930 . S
Li2024 N2041 1.990 . S
Li2024 O2084 1.956 . S
Li2024 O2085 1.970 . S
Li2024 O2086 1.961 . S
Li2025 N2049 1.990 . S
Li2025 O2084 1.970 . S
Li2025 O2085 1.956 . S
Li2025 O2087 1.961 . S
Li2026 N2071 1.990 . S
Li2026 O2084 1.961 . S
Li2026 O2086 1.956 . S
Li2026 O2087 1.970 . S
Li2027 N2077 1.990 . S
Li2027 O2085 1.961 . S
Li2027 O2086 1.970 . S
Li2027 O2087 1.956 . S
C2028 C2030 1.348 . S
C2028 C2031 1.356 . S
C2028 O2084 1.325 . S
N2029 C2032 1.314 . S
N2029 C2033 1.279 . S
C2030 C2028 1.348 . S
C2030 C2032 1.353 . S
C2030 H2088 0.929 . S
C2031 C2028 1.356 . S
C2031 C2033 1.358 . S
C2031 H2089 0.930 . S
C2032 N2029 1.314 . S
C2032 C2030 1.353 . S
C2032 H2090 0.930 . S
C2033 N2029 1.279 . S
C2033 C2031 1.358 . S
C2033 H2091 0.930 . S
C2034 C2037 1.348 . S
C2034 C2038 1.356 . S
C2034 O2085 1.325 . S
C2035 N2036 1.279 . S
C2035 C2038 1.358 . S
C2035 H2092 0.930 . S
N2036 C2035 1.279 . S
N2036 C2039 1.314 . S
C2037 C2034 1.348 . S
C2037 C2039 1.353 . S
C2037 H2093 0.929 . S
C2038 C2034 1.356 . S
C2038 C2035 1.358 . S
C2038 H2094 0.930 . S
C2039 N2036 1.314 . S
C2039 C2037 1.353 . S
C2039 H2095 0.930 . S
C2040 N2041 1.314 . S
C2040 C2045 1.353 . S
C2040 H2046 0.930 . S
N2041 Li2024 1.990 . S
N2041 C2040 1.314 . S
N2041 C2043 1.279 . S
C2042 C2043 1.358 . S
C2042 C2044 1.356 . S
C2042 H2096 0.930 . S
C2043 N2041 1.279 . S
C2043 C2042 1.358 . S
C2043 H2047 0.930 . S
C2044 C2042 1.356 . S
C2044 C2045 1.348 . S
C2045 C2040 1.353 . S
C2045 C2044 1.348 . S
C2045 H2097 0.929 . S
H2046 C2040 0.930 . S
H2047 C2043 0.930 . S
C2048 N2049 1.314 . S
C2048 C2050 1.353 . S
C2048 H2054 0.930 . S
N2049 Li2025 1.990 . S
N2049 C2048 1.314 . S
N2049 C2052 1.279 . S
C2050 C2048 1.353 . S
C2050 C2053 1.348 . S
C2050 H2098 0.929 . S
C2051 C2052 1.358 . S
C2051 C2053 1.356 . S
C2051 H2099 0.930 . S
C2052 N2049 1.279 . S
C2052 C2051 1.358 . S
C2052 H2055 0.930 . S
C2053 C2050 1.348 . S
C2053 C2051 1.356 . S
H2054 C2048 0.930 . S
H2055 C2052 0.930 . S
C2056 C2058 1.348 . S
C2056 C2059 1.356 . S
C2056 O2086 1.325 . S
N2057 C2060 1.314 . S
N2057 C2061 1.279 . S
C2058 C2056 1.348 . S
C2058 C2060 1.353 . S
C2058 H2100 0.929 . S
C2059 C2056 1.356 . S
C2059 C2061 1.358 . S
C2059 H2101 0.930 . S
C2060 N2057 1.314 . S
C2060 C2058 1.353 . S
C2060 H2102 0.930 . S
C2061 N2057 1.279 . S
C2061 C2059 1.358 . S
C2061 H2103 0.930 . S
C2062 C2063 1.348 . S
C2062 C2064 1.356 . S
C2062 O2087 1.325 . S
C2063 C2062 1.348 . S
C2063 C2065 1.353 . S
C2063 H2104 0.929 . S
C2064 C2062 1.356 . S
C2064 C2066 1.358 . S
C2064 H2105 0.930 . S
C2065 C2063 1.353 . S
C2065 N2067 1.314 . S
C2065 H2106 0.930 . S
C2066 C2064 1.358 . S
C2066 N2067 1.279 . S
C2066 H2107 0.930 . S
N2067 C2065 1.314 . S
N2067 C2066 1.279 . S
C2068 C2070 1.353 . S
C2068 N2071 1.314 . S
C2068 H2074 0.930 . S
C2069 N2071 1.279 . S
C2069 C2072 1.358 . S
C2069 H2075 0.930 . S
C2070 C2068 1.353 . S
C2070 C2073 1.348 . S
C2070 H2108 0.929 . S
N2071 Li2026 1.990 . S
N2071 C2068 1.314 . S
N2071 C2069 1.279 . S
C2072 C2069 1.358 . S
C2072 C2073 1.356 . S
C2072 H2109 0.930 . S
C2073 C2070 1.348 . S
C2073 C2072 1.356 . S
H2074 C2068 0.930 . S
H2075 C2069 0.930 . S
C2076 N2077 1.314 . S
C2076 C2078 1.353 . S
C2076 H2082 0.930 . S
N2077 Li2027 1.990 . S
N2077 C2076 1.314 . S
N2077 C2080 1.279 . S
C2078 C2076 1.353 . S
C2078 C2081 1.348 . S
C2078 H2110 0.929 . S
C2079 C2080 1.358 . S
C2079 C2081 1.356 . S
C2079 H2111 0.930 . S
C2080 N2077 1.279 . S
C2080 C2079 1.358 . S
C2080 H2083 0.930 . S
C2081 C2078 1.348 . S
C2081 C2079 1.356 . S
H2082 C2076 0.930 . S
H2083 C2080 0.930 . S
O2084 Li2024 1.956 . S
O2084 Li2025 1.970 . S
O2084 Li2026 1.961 . S
O2084 C2028 1.325 . S
O2085 Li2024 1.970 . S
O2085 Li2025 1.956 . S
O2085 Li2027 1.961 . S
O2085 C2034 1.325 . S
O2086 Li2024 1.961 . S
O2086 Li2026 1.956 . S
O2086 Li2027 1.970 . S
O2086 C2056 1.325 . S
O2087 Li2025 1.961 . S
O2087 Li2026 1.970 . S
O2087 Li2027 1.956 . S
O2087 C2062 1.325 . S
H2088 C2030 0.929 . S
H2089 C2031 0.930 . S
H2090 C2032 0.930 . S
H2091 C2033 0.930 . S
H2092 C2035 0.930 . S
H2093 C2037 0.929 . S
H2094 C2038 0.930 . S
H2095 C2039 0.930 . S
H2096 C2042 0.930 . S
H2097 C2045 0.929 . S
H2098 C2050 0.929 . S
H2099 C2051 0.930 . S
H2100 C2058 0.929 . S
H2101 C2059 0.930 . S
H2102 C2060 0.930 . S
H2103 C2061 0.930 . S
H2104 C2063 0.929 . S
H2105 C2064 0.930 . S
H2106 C2065 0.930 . S
H2107 C2066 0.930 . S
H2108 C2070 0.929 . S
H2109 C2072 0.930 . S
H2110 C2078 0.929 . S
H2111 C2079 0.930 . S
Zn2112 O2118 1.969 . S
Zn2112 O2119 1.965 1_565 S
Zn2112 O2123 2.024 . S
Zn2112 O2128 1.951 1_565 S
Zn2113 O2120 1.969 1_654 S
Zn2113 O2126 1.969 1_554 S
Zn2113 O2127 1.965 . S
Zn2113 O2129 2.024 1_655 S
C2114 O2115 1.229 . S
C2114 O2123 1.058 . S
O2115 C2114 1.229 . S
C2116 O2117 1.229 1_454 S
C2116 O2129 1.058 . S
O2117 C2116 1.229 1_656 S
O2118 Zn2112 1.969 . S
O2118 C2121 1.267 . S
O2119 Zn2112 1.965 1_545 S
O2119 C2130 1.260 1_554 S
O2120 Zn2113 1.969 1_456 S
O2120 C2130 1.258 . S
C2121 O2118 1.267 . S
C2121 O2122 1.228 . S
O2122 C2121 1.228 . S
O2123 Zn2112 2.024 . S
O2123 C2114 1.058 . S
C2124 O2125 1.228 . S
C2124 O2126 1.267 1_554 S
O2125 C2124 1.228 . S
O2126 Zn2113 1.969 1_556 S
O2126 C2124 1.267 1_556 S
O2127 Zn2113 1.965 . S
O2127 C2131 1.260 1_655 S
O2128 Zn2112 1.951 1_545 S
O2128 C2131 1.288 . S
O2129 Zn2113 2.024 1_455 S
O2129 C2116 1.058 . S
C2130 O2119 1.260 1_556 S
C2130 O2120 1.258 . S
C2131 O2127 1.260 1_455 S
C2131 O2128 1.288 . S
Zn2132 O2138 1.969 . S
Zn2132 O2139 1.965 . S
Zn2132 O2143 2.024 . S
Zn2132 O2148 1.969 . S
Zn2133 O2140 1.969 . S
Zn2133 O2146 1.969 . S
Zn2133 O2147 1.965 . S
Zn2133 O2149 2.024 . S
C2134 O2135 1.229 . S
C2134 O2143 1.058 . S
O2135 C2134 1.229 . S
C2136 O2137 1.229 . S
C2136 O2149 1.058 . S
O2137 C2136 1.229 . S
O2138 Zn2132 1.969 . S
O2138 C2141 1.267 . S
O2139 Zn2132 1.965 . S
O2139 C2150 1.260 . S
O2140 Zn2133 1.969 . S
O2140 C2150 1.258 . S
C2141 O2138 1.267 . S
C2141 O2142 1.228 . S
O2142 C2141 1.228 . S
O2143 Zn2132 2.024 . S
O2143 C2134 1.058 . S
C2144 O2145 1.228 . S
C2144 O2146 1.267 . S
O2145 C2144 1.228 . S
O2146 Zn2133 1.969 . S
O2146 C2144 1.267 . S
O2147 Zn2133 1.965 . S
O2147 C2151 1.260 . S
O2148 Zn2132 1.969 . S
O2148 C2151 1.258 . S
O2149 Zn2133 2.024 . S
O2149 C2136 1.058 . S
C2150 O2139 1.260 . S
C2150 O2140 1.258 . S
C2151 O2147 1.260 . S
C2151 O2148 1.258 . S
Zn2152 O2158 1.969 . S
Zn2152 O2159 1.965 . S
Zn2152 O2163 2.024 . S
Zn2152 O2168 1.969 . S
Zn2153 O2160 1.969 . S
Zn2153 O2166 1.969 . S
Zn2153 O2167 1.965 1_565 S
Zn2153 O2169 2.024 . S
C2154 O2155 1.229 . S
C2154 O2163 1.058 . S
O2155 C2154 1.229 . S
C2156 O2157 1.229 . S
C2156 O2169 1.058 . S
O2157 C2156 1.229 . S
O2158 Zn2152 1.969 . S
O2158 C2161 1.267 . S
O2159 Zn2152 1.965 . S
O2159 C2170 1.260 . S
O2160 Zn2153 1.969 . S
O2160 C2170 1.258 1_565 S
C2161 O2158 1.267 . S
C2161 O2162 1.228 . S
O2162 C2161 1.228 . S
O2163 Zn2152 2.024 . S
O2163 C2154 1.058 . S
C2164 O2165 1.228 . S
C2164 O2166 1.267 . S
O2165 C2164 1.228 . S
O2166 Zn2153 1.969 . S
O2166 C2164 1.267 . S
O2167 Zn2153 1.965 1_545 S
O2167 C2171 1.260 . S
O2168 Zn2152 1.969 . S
O2168 C2171 1.258 . S
O2169 Zn2153 2.024 . S
O2169 C2156 1.058 . S
C2170 O2159 1.260 . S
C2170 O2160 1.258 1_545 S
C2171 O2167 1.260 . S
C2171 O2168 1.258 . S
Zn2172 O2178 1.969 . S
Zn2172 O2179 1.965 . S
Zn2172 O2183 2.024 . S
Zn2172 O2188 1.969 . S
Zn2173 O2180 1.969 . S
Zn2173 O2186 1.969 . S
Zn2173 O2187 1.965 . S
Zn2173 O2189 2.024 . S
C2174 O2175 1.229 . S
C2174 O2183 1.058 . S
O2175 C2174 1.229 . S
C2176 O2177 1.229 . S
C2176 O2189 1.058 . S
O2177 C2176 1.229 . S
O2178 Zn2172 1.969 . S
O2178 C2181 1.267 . S
O2179 Zn2172 1.965 . S
O2179 C2190 1.260 . S
O2180 Zn2173 1.969 . S
O2180 C2190 1.258 . S
C2181 O2178 1.267 . S
C2181 O2182 1.228 . S
O2182 C2181 1.228 . S
O2183 Zn2172 2.024 . S
O2183 C2174 1.058 . S
C2184 O2185 1.228 . S
C2184 O2186 1.267 . S
O2185 C2184 1.228 . S
O2186 Zn2173 1.969 . S
O2186 C2184 1.267 . S
O2187 Zn2173 1.965 . S
O2187 C2191 1.260 . S
O2188 Zn2172 1.969 . S
O2188 C2191 1.258 . S
O2189 Zn2173 2.024 . S
O2189 C2176 1.058 . S
C2190 O2179 1.260 . S
C2190 O2180 1.258 . S
C2191 O2187 1.260 . S
C2191 O2188 1.258 . S
Zn2192 O2198 1.969 . S
Zn2192 O2199 1.965 1_455 S
Zn2192 O2203 2.024 1_565 S
Zn2192 O2208 1.969 1_565 S
Zn2193 O2200 1.969 1_455 S
Zn2193 O2206 1.969 1_455 S
Zn2193 O2207 1.965 . S
Zn2193 O2209 2.024 . S
C2194 O2195 1.229 1_545 S
C2194 O2203 1.058 . S
O2195 C2194 1.229 1_565 S
C2196 O2197 1.229 . S
C2196 O2209 1.058 1_655 S
O2197 C2196 1.229 . S
O2198 Zn2192 1.969 . S
O2198 C2201 1.267 . S
O2199 Zn2192 1.965 1_655 S
O2199 C2210 1.260 . S
O2200 Zn2193 1.969 1_655 S
O2200 C2210 1.258 1_545 S
C2201 O2198 1.267 . S
C2201 O2202 1.228 . S
O2202 C2201 1.228 . S
O2203 Zn2192 2.024 1_545 S
O2203 C2194 1.058 . S
C2204 O2205 1.228 . S
C2204 O2206 1.267 1_455 S
O2205 C2204 1.228 . S
O2206 Zn2193 1.969 1_655 S
O2206 C2204 1.267 1_655 S
O2207 Zn2193 1.965 . S
O2207 C2211 1.260 . S
O2208 Zn2192 1.969 1_545 S
O2208 C2211 1.258 . S
O2209 Zn2193 2.024 . S
O2209 C2196 1.058 1_455 S
C2210 O2199 1.260 . S
C2210 O2200 1.258 1_565 S
C2211 O2207 1.260 . S
C2211 O2208 1.258 . S
Zn2212 O2218 1.969 . S
Zn2212 O2219 1.965 . S
Zn2212 O2223 2.024 . S
Zn2212 O2228 1.969 . S
Zn2213 O2220 1.969 . S
Zn2213 O2226 1.969 . S
Zn2213 O2227 1.965 . S
Zn2213 O2229 2.024 . S
C2214 O2215 1.229 . S
C2214 O2223 1.058 . S
O2215 C2214 1.229 . S
C2216 O2217 1.229 . S
C2216 O2229 1.058 . S
O2217 C2216 1.229 . S
O2218 Zn2212 1.969 . S
O2218 C2221 1.267 . S
O2219 Zn2212 1.965 . S
O2219 C2230 1.260 . S
O2220 Zn2213 1.969 . S
O2220 C2230 1.258 . S
C2221 O2218 1.267 . S
C2221 O2222 1.228 . S
O2222 C2221 1.228 . S
O2223 Zn2212 2.024 . S
O2223 C2214 1.058 . S
C2224 O2225 1.228 . S
C2224 O2226 1.267 . S
O2225 C2224 1.228 . S
O2226 Zn2213 1.969 . S
O2226 C2224 1.267 . S
O2227 Zn2213 1.965 . S
O2227 C2231 1.260 . S
O2228 Zn2212 1.969 . S
O2228 C2231 1.258 . S
O2229 Zn2213 2.024 . S
O2229 C2216 1.058 . S
C2230 O2219 1.260 . S
C2230 O2220 1.258 . S
C2231 O2227 1.260 . S
C2231 O2228 1.258 . S
Zn2232 O2238 1.999 . S
Zn2232 O2239 1.964 1_545 S
Zn2232 O2243 2.008 1_556 S
Zn2232 O2248 1.955 1_556 S
Zn2233 O2240 1.969 . S
Zn2233 O2246 1.969 . S
Zn2233 O2247 1.965 1_565 S
Zn2233 O2249 2.018 1_565 S
C2234 O2235 1.229 . S
C2234 O2243 1.058 . S
O2235 C2234 1.229 . S
C2236 O2237 1.229 . S
C2236 O2249 1.041 1_565 S
O2237 C2236 1.229 . S
O2238 Zn2232 1.999 . S
O2238 C2241 1.267 . S
O2239 Zn2232 1.964 1_565 S
O2239 C2250 1.245 1_556 S
O2240 Zn2233 1.969 . S
O2240 C2250 1.258 . S
C2241 O2238 1.267 . S
C2241 O2242 1.228 . S
O2242 C2241 1.228 . S
O2243 Zn2232 2.008 1_554 S
O2243 C2234 1.058 . S
C2244 O2245 1.235 . S
C2244 O2246 1.263 1_545 S
O2245 C2244 1.235 . S
O2246 Zn2233 1.969 . S
O2246 C2244 1.263 1_565 S
O2247 Zn2233 1.965 1_545 S
O2247 C2251 1.260 . S
O2248 Zn2232 1.955 1_554 S
O2248 C2251 1.258 . S
O2249 Zn2233 2.018 1_545 S
O2249 C2236 1.041 1_545 S
C2250 O2239 1.245 1_554 S
C2250 O2240 1.258 . S
C2251 O2247 1.260 . S
C2251 O2248 1.258 . S
Zn2252 O2258 1.969 . S
Zn2252 O2259 1.965 . S
Zn2252 O2263 2.024 . S
Zn2252 O2268 1.969 . S
Zn2253 O2260 1.969 . S
Zn2253 O2266 1.969 . S
Zn2253 O2267 1.965 . S
Zn2253 O2269 2.024 . S
C2254 O2255 1.229 . S
C2254 O2263 1.058 . S
O2255 C2254 1.229 . S
C2256 O2257 1.229 . S
C2256 O2269 1.058 . S
O2257 C2256 1.229 . S
O2258 Zn2252 1.969 . S
O2258 C2261 1.267 . S
O2259 Zn2252 1.965 . S
O2259 C2270 1.260 . S
O2260 Zn2253 1.969 . S
O2260 C2270 1.258 . S
C2261 O2258 1.267 . S
C2261 O2262 1.228 . S
O2262 C2261 1.228 . S
O2263 Zn2252 2.024 . S
O2263 C2254 1.058 . S
C2264 O2265 1.228 . S
C2264 O2266 1.267 . S
O2265 C2264 1.228 . S
O2266 Zn2253 1.969 . S
O2266 C2264 1.267 . S
O2267 Zn2253 1.965 . S
O2267 C2271 1.260 . S
O2268 Zn2252 1.969 . S
O2268 C2271 1.258 . S
O2269 Zn2253 2.024 . S
O2269 C2256 1.058 . S
C2270 O2259 1.260 . S
C2270 O2260 1.258 . S
C2271 O2267 1.260 . S
C2271 O2268 1.258 . S
Zn2272 O2278 1.969 . S
Zn2272 O2279 1.965 . S
Zn2272 O2283 2.024 . S
Zn2272 O2288 1.969 . S
Zn2273 O2280 1.969 1_556 S
Zn2273 O2286 1.969 1_556 S
Zn2273 O2287 1.965 1_556 S
Zn2273 O2289 2.024 . S
C2274 O2275 1.229 . S
C2274 O2283 1.058 . S
O2275 C2274 1.229 . S
C2276 O2277 1.229 . S
C2276 O2289 1.058 . S
O2277 C2276 1.229 . S
O2278 Zn2272 1.969 . S
O2278 C2281 1.267 . S
O2279 Zn2272 1.965 . S
O2279 C2290 1.260 . S
O2280 Zn2273 1.969 1_554 S
O2280 C2290 1.258 . S
C2281 O2278 1.267 . S
C2281 O2282 1.228 . S
O2282 C2281 1.228 . S
O2283 Zn2272 2.024 . S
O2283 C2274 1.058 . S
C2284 O2285 1.228 . S
C2284 O2286 1.267 1_556 S
O2285 C2284 1.228 . S
O2286 Zn2273 1.969 1_554 S
O2286 C2284 1.267 1_554 S
O2287 Zn2273 1.965 1_554 S
O2287 C2291 1.260 . S
O2288 Zn2272 1.969 . S
O2288 C2291 1.258 . S
O2289 Zn2273 2.024 . S
O2289 C2276 1.058 . S
C2290 O2279 1.260 . S
C2290 O2280 1.258 . S
C2291 O2287 1.260 . S
C2291 O2288 1.258 . S
Zn2292 O2298 1.969 . S
Zn2292 O2299 1.965 . S
Zn2292 O2303 2.024 . S
Zn2292 O2308 1.969 . S
Zn2293 O2300 1.969 . S
Zn2293 O2306 1.969 . S
Zn2293 O2307 1.965 . S
Zn2293 O2309 2.024 . S
C2294 O2295 1.229 . S
C2294 O2303 1.058 . S
O2295 C2294 1.229 . S
C2296 O2297 1.229 . S
C2296 O2309 1.058 . S
O2297 C2296 1.229 . S
O2298 Zn2292 1.969 . S
O2298 C2301 1.267 . S
O2299 Zn2292 1.965 . S
O2299 C2310 1.260 . S
O2300 Zn2293 1.969 . S
O2300 C2310 1.258 . S
C2301 O2298 1.267 . S
C2301 O2302 1.228 . S
O2302 C2301 1.228 . S
O2303 Zn2292 2.024 . S
O2303 C2294 1.058 . S
C2304 O2305 1.228 . S
C2304 O2306 1.267 . S
O2305 C2304 1.228 . S
O2306 Zn2293 1.969 . S
O2306 C2304 1.267 . S
O2307 Zn2293 1.965 . S
O2307 C2311 1.260 . S
O2308 Zn2292 1.969 . S
O2308 C2311 1.258 . S
O2309 Zn2293 2.024 . S
O2309 C2296 1.058 . S
C2310 O2299 1.260 . S
C2310 O2300 1.258 . S
C2311 O2307 1.260 . S
C2311 O2308 1.258 . S
Zn2312 O2318 1.969 . S
Zn2312 O2319 1.965 . S
Zn2312 O2323 2.024 . S
Zn2312 O2328 1.969 . S
Zn2313 O2320 1.969 1_655 S
Zn2313 O2326 1.969 . S
Zn2313 O2327 1.965 1_655 S
Zn2313 O2329 2.024 . S
C2314 O2315 1.229 . S
C2314 O2323 1.058 . S
O2315 C2314 1.229 . S
C2316 O2317 1.229 . S
C2316 O2329 1.058 . S
O2317 C2316 1.229 . S
O2318 Zn2312 1.969 . S
O2318 C2321 1.267 . S
O2319 Zn2312 1.965 . S
O2319 C2330 1.260 . S
O2320 Zn2313 1.969 1_455 S
O2320 C2330 1.258 . S
C2321 O2318 1.267 . S
C2321 O2322 1.228 . S
O2322 C2321 1.228 . S
O2323 Zn2312 2.024 . S
O2323 C2314 1.058 . S
C2324 O2325 1.228 . S
C2324 O2326 1.267 . S
O2325 C2324 1.228 . S
O2326 Zn2313 1.969 . S
O2326 C2324 1.267 . S
O2327 Zn2313 1.965 1_455 S
O2327 C2331 1.260 . S
O2328 Zn2312 1.969 . S
O2328 C2331 1.258 . S
O2329 Zn2313 2.024 . S
O2329 C2316 1.058 . S
C2330 O2319 1.260 . S
C2330 O2320 1.258 . S
C2331 O2327 1.260 . S
C2331 O2328 1.258 . S
Zn2332 O2338 1.969 . S
Zn2332 O2339 1.965 . S
Zn2332 O2343 2.024 . S
Zn2332 O2348 1.969 . S
Zn2333 O2340 1.969 . S
Zn2333 O2346 1.969 . S
Zn2333 O2347 1.965 . S
Zn2333 O2349 2.024 . S
C2334 O2335 1.229 . S
C2334 O2343 1.058 . S
O2335 C2334 1.229 . S
C2336 O2337 1.229 . S
C2336 O2349 1.058 . S
O2337 C2336 1.229 . S
O2338 Zn2332 1.969 . S
O2338 C2341 1.267 . S
O2339 Zn2332 1.965 . S
O2339 C2350 1.260 . S
O2340 Zn2333 1.969 . S
O2340 C2350 1.258 . S
C2341 O2338 1.267 . S
C2341 O2342 1.228 . S
O2342 C2341 1.228 . S
O2343 Zn2332 2.024 . S
O2343 C2334 1.058 . S
C2344 O2345 1.228 . S
C2344 O2346 1.267 . S
O2345 C2344 1.228 . S
O2346 Zn2333 1.969 . S
O2346 C2344 1.267 . S
O2347 Zn2333 1.965 . S
O2347 C2351 1.260 . S
O2348 Zn2332 1.969 . S
O2348 C2351 1.258 . S
O2349 Zn2333 2.024 . S
O2349 C2336 1.058 . S
C2350 O2339 1.260 . S
C2350 O2340 1.258 . S
C2351 O2347 1.260 . S
C2351 O2348 1.258 . S
Zn2352 O2358 1.969 . S
Zn2352 O2359 1.965 . S
Zn2352 O2363 2.024 . S
Zn2352 O2368 1.969 . S
Zn2353 O2360 1.969 . S
Zn2353 O2366 1.969 . S
Zn2353 O2367 1.965 . S
Zn2353 O2369 2.024 . S
C2354 O2355 1.229 . S
C2354 O2363 1.058 . S
O2355 C2354 1.229 . S
C2356 O2357 1.229 . S
C2356 O2369 1.058 . S
O2357 C2356 1.229 . S
O2358 Zn2352 1.969 . S
O2358 C2361 1.267 . S
O2359 Zn2352 1.965 . S
O2359 C2370 1.260 . S
O2360 Zn2353 1.969 . S
O2360 C2370 1.258 . S
C2361 O2358 1.267 . S
C2361 O2362 1.228 . S
O2362 C2361 1.228 . S
O2363 Zn2352 2.024 . S
O2363 C2354 1.058 . S
C2364 O2365 1.228 . S
C2364 O2366 1.267 . S
O2365 C2364 1.228 . S
O2366 Zn2353 1.969 . S
O2366 C2364 1.267 . S
O2367 Zn2353 1.965 . S
O2367 C2371 1.260 . S
O2368 Zn2352 1.969 . S
O2368 C2371 1.258 . S
O2369 Zn2353 2.024 . S
O2369 C2356 1.058 . S
C2370 O2359 1.260 . S
C2370 O2360 1.258 . S
C2371 O2367 1.260 . S
C2371 O2368 1.258 . S
Zn2372 O2378 1.969 . S
Zn2372 O2379 1.965 . S
Zn2372 O2383 2.024 . S
Zn2372 O2388 1.969 . S
Zn2373 O2380 1.969 . S
Zn2373 O2386 1.969 . S
Zn2373 O2387 1.965 . S
Zn2373 O2389 2.024 . S
C2374 O2375 1.229 . S
C2374 O2383 1.058 . S
O2375 C2374 1.229 . S
C2376 O2377 1.229 . S
C2376 O2389 1.058 . S
O2377 C2376 1.229 . S
O2378 Zn2372 1.969 . S
O2378 C2381 1.267 . S
O2379 Zn2372 1.965 . S
O2379 C2390 1.260 . S
O2380 Zn2373 1.969 . S
O2380 C2390 1.258 . S
C2381 O2378 1.267 . S
C2381 O2382 1.228 . S
O2382 C2381 1.228 . S
O2383 Zn2372 2.024 . S
O2383 C2374 1.058 . S
C2384 O2385 1.228 . S
C2384 O2386 1.267 . S
O2385 C2384 1.228 . S
O2386 Zn2373 1.969 . S
O2386 C2384 1.267 . S
O2387 Zn2373 1.965 . S
O2387 C2391 1.260 . S
O2388 Zn2372 1.969 . S
O2388 C2391 1.258 . S
O2389 Zn2373 2.024 . S
O2389 C2376 1.058 . S
C2390 O2379 1.260 . S
C2390 O2380 1.258 . S
C2391 O2387 1.260 . S
C2391 O2388 1.258 . S
Zn2392 O2398 1.969 . S
Zn2392 O2399 1.965 . S
Zn2392 O2403 2.024 . S
Zn2392 O2408 1.969 . S
Zn2393 O2400 1.969 . S
Zn2393 O2406 1.969 . S
Zn2393 O2407 1.965 . S
Zn2393 O2409 2.024 . S
C2394 O2395 1.229 . S
C2394 O2403 1.058 . S
O2395 C2394 1.229 . S
C2396 O2397 1.229 . S
C2396 O2409 1.058 . S
O2397 C2396 1.229 . S
O2398 Zn2392 1.969 . S
O2398 C2401 1.267 . S
O2399 Zn2392 1.965 . S
O2399 C2410 1.260 . S
O2400 Zn2393 1.969 . S
O2400 C2410 1.258 . S
C2401 O2398 1.267 . S
C2401 O2402 1.228 . S
O2402 C2401 1.228 . S
O2403 Zn2392 2.024 . S
O2403 C2394 1.058 . S
C2404 O2405 1.228 . S
C2404 O2406 1.267 . S
O2405 C2404 1.228 . S
O2406 Zn2393 1.969 . S
O2406 C2404 1.267 . S
O2407 Zn2393 1.965 . S
O2407 C2411 1.260 . S
O2408 Zn2392 1.969 . S
O2408 C2411 1.258 . S
O2409 Zn2393 2.024 . S
O2409 C2396 1.058 . S
C2410 O2399 1.260 . S
C2410 O2400 1.258 . S
C2411 O2407 1.260 . S
C2411 O2408 1.258 . S
Zn2412 O2418 1.969 . S
Zn2412 O2419 1.965 . S
Zn2412 O2423 2.024 1_655 S
Zn2412 O2428 1.969 1_655 S
Zn2413 O2420 1.969 1_554 S
Zn2413 O2426 1.969 . S
Zn2413 O2427 1.965 . S
Zn2413 O2429 2.024 . S
C2414 O2415 1.231 . S
C2414 O2423 1.058 . S
O2415 C2414 1.231 . S
C2416 O2417 1.229 . S
C2416 O2429 1.058 1_556 S
O2417 C2416 1.229 . S
O2418 Zn2412 1.969 . S
O2418 C2421 1.267 . S
O2419 Zn2412 1.965 . S
O2419 C2430 1.260 1_654 S
O2420 Zn2413 1.969 1_556 S
O2420 C2430 1.258 . S
C2421 O2418 1.267 . S
C2421 O2422 1.228 . S
O2422 C2421 1.228 . S
O2423 Zn2412 2.024 1_455 S
O2423 C2414 1.058 . S
C2424 O2425 1.228 . S
C2424 O2426 1.267 . S
O2425 C2424 1.228 . S
O2426 Zn2413 1.969 . S
O2426 C2424 1.267 . S
O2427 Zn2413 1.965 . S
O2427 C2431 1.260 . S
O2428 Zn2412 1.969 1_455 S
O2428 C2431 1.258 . S
O2429 Zn2413 2.024 . S
O2429 C2416 1.058 1_554 S
C2430 O2419 1.260 1_456 S
C2430 O2420 1.258 . S
C2431 O2427 1.260 . S
C2431 O2428 1.258 . S
C2432 C2433 1.382 1_454 S
C2432 H2436 0.950 . S
C2432 C2441 1.390 . S
C2433 C2432 1.382 1_656 S
C2433 C2435 1.384 . S
H2434 C2441 0.950 . S
C2435 C2433 1.384 . S
C2435 C2437 1.385 1_655 S
C2435 H2439 0.952 . S
H2436 C2432 0.950 . S
C2437 C2435 1.385 1_455 S
C2437 C2438 1.387 1_556 S
C2437 H2440 0.950 . S
C2438 C2437 1.387 1_554 S
C2438 C2441 1.387 . S
H2439 C2435 0.952 . S
H2440 C2437 0.950 . S
C2441 C2432 1.390 . S
C2441 H2434 0.950 . S
C2441 C2438 1.387 . S
C2442 C2443 1.387 . S
C2442 H2446 0.950 . S
C2442 C2451 1.390 . S
C2443 C2442 1.387 . S
C2443 C2445 1.387 . S
H2444 C2451 0.950 . S
C2445 C2443 1.387 . S
C2445 C2447 1.390 . S
C2445 H2449 0.950 . S
H2446 C2442 0.950 . S
C2447 C2445 1.390 . S
C2447 C2448 1.387 . S
C2447 H2450 0.950 . S
C2448 C2447 1.387 . S
C2448 C2451 1.387 . S
H2449 C2445 0.950 . S
H2450 C2447 0.950 . S
C2451 C2442 1.390 . S
C2451 H2444 0.950 . S
C2451 C2448 1.387 . S
C2452 C2453 1.387 . S
C2452 H2456 0.950 . S
C2452 C2461 1.390 . S
C2453 C2452 1.387 . S
C2453 C2455 1.387 . S
H2454 C2461 0.950 . S
C2455 C2453 1.387 . S
C2455 C2457 1.390 . S
C2455 H2459 0.950 . S
H2456 C2452 0.950 . S
C2457 C2455 1.390 . S
C2457 C2458 1.387 . S
C2457 H2460 0.950 . S
C2458 C2457 1.387 . S
C2458 C2461 1.387 . S
H2459 C2455 0.950 . S
H2460 C2457 0.950 . S
C2461 C2452 1.390 . S
C2461 H2454 0.950 . S
C2461 C2458 1.387 . S
C2462 C2463 1.387 . S
C2462 H2466 0.950 . S
C2462 C2471 1.390 . S
C2463 C2462 1.387 . S
C2463 C2465 1.387 . S
H2464 C2471 0.950 . S
C2465 C2463 1.387 . S
C2465 C2467 1.390 . S
C2465 H2469 0.950 . S
H2466 C2462 0.950 . S
C2467 C2465 1.390 . S
C2467 C2468 1.387 . S
C2467 H2470 0.950 . S
C2468 C2467 1.387 . S
C2468 C2471 1.387 . S
H2469 C2465 0.950 . S
H2470 C2467 0.950 . S
C2471 C2462 1.390 . S
C2471 H2464 0.950 . S
C2471 C2468 1.387 . S
C2472 C2473 1.387 1_655 S
C2472 H2476 0.950 . S
C2472 C2481 1.390 . S
C2473 C2472 1.387 1_455 S
C2473 C2475 1.387 . S
H2474 C2481 0.950 . S
C2475 C2473 1.387 . S
C2475 C2477 1.390 . S
C2475 H2479 0.950 . S
H2476 C2472 0.950 . S
C2477 C2475 1.390 . S
C2477 C2478 1.387 . S
C2477 H2480 0.950 . S
C2478 C2477 1.387 . S
C2478 C2481 1.387 1_455 S
H2479 C2475 0.950 . S
H2480 C2477 0.950 . S
C2481 C2472 1.390 . S
C2481 H2474 0.950 . S
C2481 C2478 1.387 1_655 S
C2482 C2483 1.387 . S
C2482 H2486 0.950 . S
C2482 C2491 1.390 . S
C2483 C2482 1.387 . S
C2483 C2485 1.387 . S
H2484 C2491 0.950 . S
C2485 C2483 1.387 . S
C2485 C2487 1.390 . S
C2485 H2489 0.950 . S
H2486 C2482 0.950 . S
C2487 C2485 1.390 . S
C2487 C2488 1.387 . S
C2487 H2490 0.950 . S
C2488 C2487 1.387 . S
C2488 C2491 1.387 . S
H2489 C2485 0.950 . S
H2490 C2487 0.950 . S
C2491 C2482 1.390 . S
C2491 H2484 0.950 . S
C2491 C2488 1.387 . S
C2492 C2493 1.387 . S
C2492 H2496 0.950 . S
C2492 C2501 1.390 . S
C2493 C2492 1.387 . S
C2493 C2495 1.387 . S
H2494 C2501 0.950 . S
C2495 C2493 1.387 . S
C2495 C2497 1.390 . S
C2495 H2499 0.950 . S
H2496 C2492 0.950 . S
C2497 C2495 1.390 . S
C2497 C2498 1.387 . S
C2497 H2500 0.950 . S
C2498 C2497 1.387 . S
C2498 C2501 1.387 . S
H2499 C2495 0.950 . S
H2500 C2497 0.950 . S
C2501 C2492 1.390 . S
C2501 H2494 0.950 . S
C2501 C2498 1.387 . S
C2502 C2503 1.387 . S
C2502 H2506 0.950 . S
C2502 C2511 1.390 . S
C2503 C2502 1.387 . S
C2503 C2505 1.387 . S
H2504 C2511 0.950 . S
C2505 C2503 1.387 . S
C2505 C2507 1.390 . S
C2505 H2509 0.950 . S
H2506 C2502 0.950 . S
C2507 C2505 1.390 . S
C2507 C2508 1.387 . S
C2507 H2510 0.950 . S
C2508 C2507 1.387 . S
C2508 C2511 1.387 . S
H2509 C2505 0.950 . S
H2510 C2507 0.950 . S
C2511 C2502 1.390 . S
C2511 H2504 0.950 . S
C2511 C2508 1.387 . S
C2512 C2513 1.387 . S
C2512 H2516 0.950 . S
C2512 C2521 1.390 . S
C2513 C2512 1.387 . S
C2513 C2515 1.387 1_545 S
H2514 C2521 0.950 . S
C2515 C2513 1.387 1_565 S
C2515 C2517 1.390 . S
C2515 H2519 0.950 . S
H2516 C2512 0.950 . S
C2517 C2515 1.390 . S
C2517 C2518 1.387 1_565 S
C2517 H2520 0.950 . S
C2518 C2517 1.387 1_545 S
C2518 C2521 1.387 . S
H2519 C2515 0.950 . S
H2520 C2517 0.950 . S
C2521 C2512 1.390 . S
C2521 H2514 0.950 . S
C2521 C2518 1.387 . S
C2522 C2523 1.387 . S
C2522 H2526 0.950 . S
C2522 C2531 1.390 . S
C2523 C2522 1.387 . S
C2523 C2525 1.387 . S
H2524 C2531 0.950 . S
C2525 C2523 1.387 . S
C2525 C2527 1.390 . S
C2525 H2529 0.950 . S
H2526 C2522 0.950 . S
C2527 C2525 1.390 . S
C2527 C2528 1.387 . S
C2527 H2530 0.950 . S
C2528 C2527 1.387 . S
C2528 C2531 1.387 . S
H2529 C2525 0.950 . S
H2530 C2527 0.950 . S
C2531 C2522 1.390 . S
C2531 H2524 0.950 . S
C2531 C2528 1.387 . S
C2532 C2533 1.387 1_545 S
C2532 H2536 0.950 . S
C2532 C2541 1.390 . S
C2533 C2532 1.387 1_565 S
C2533 C2535 1.387 . S
H2534 C2541 0.950 . S
C2535 C2533 1.387 . S
C2535 C2537 1.390 . S
C2535 H2539 0.950 . S
H2536 C2532 0.950 . S
C2537 C2535 1.390 . S
C2537 C2538 1.381 1_565 S
C2537 H2540 0.950 . S
C2538 C2537 1.381 1_545 S
C2538 C2541 1.391 . S
H2539 C2535 0.950 . S
H2540 C2537 0.950 . S
C2541 C2532 1.390 . S
C2541 H2534 0.950 . S
C2541 C2538 1.391 . S
C2542 C2543 1.387 . S
C2542 H2546 0.950 . S
C2542 C2551 1.390 . S
C2543 C2542 1.387 . S
C2543 C2545 1.387 . S
H2544 C2551 0.950 . S
C2545 C2543 1.387 . S
C2545 C2547 1.390 . S
C2545 H2549 0.950 . S
H2546 C2542 0.950 . S
C2547 C2545 1.390 . S
C2547 C2548 1.387 . S
C2547 H2550 0.950 . S
C2548 C2547 1.387 . S
C2548 C2551 1.387 . S
H2549 C2545 0.950 . S
H2550 C2547 0.950 . S
C2551 C2542 1.390 . S
C2551 H2544 0.950 . S
C2551 C2548 1.387 . S
C2552 C2553 1.387 . S
C2552 H2556 0.950 . S
C2552 C2561 1.390 . S
C2553 C2552 1.387 . S
C2553 C2555 1.387 . S
H2554 C2561 0.950 . S
C2555 C2553 1.387 . S
C2555 C2557 1.390 . S
C2555 H2559 0.953 1_655 S
H2556 C2552 0.950 . S
C2557 C2555 1.390 . S
C2557 C2558 1.387 . S
C2557 H2560 0.950 1_645 S
C2558 C2557 1.387 . S
C2558 C2561 1.387 . S
H2559 C2555 0.953 1_455 S
H2560 C2557 0.950 1_465 S
C2561 C2552 1.390 . S
C2561 H2554 0.950 . S
C2561 C2558 1.387 . S
C2562 C2563 1.387 . S
C2562 H2566 0.950 . S
C2562 C2571 1.390 . S
C2563 C2562 1.387 . S
C2563 C2565 1.387 . S
H2564 C2571 0.950 . S
C2565 C2563 1.387 . S
C2565 C2567 1.390 . S
C2565 H2569 0.950 . S
H2566 C2562 0.950 . S
C2567 C2565 1.390 . S
C2567 C2568 1.387 . S
C2567 H2570 0.950 . S
C2568 C2567 1.387 . S
C2568 C2571 1.387 . S
H2569 C2565 0.950 . S
H2570 C2567 0.950 . S
C2571 C2562 1.390 . S
C2571 H2564 0.950 . S
C2571 C2568 1.387 . S
C2572 C2573 1.389 . S
C2572 H2576 0.950 . S
C2572 C2581 1.390 1_565 S
C2573 C2572 1.389 . S
C2573 C2575 1.383 1_565 S
H2574 C2581 0.950 . S
C2575 C2573 1.383 1_545 S
C2575 C2577 1.390 . S
C2575 H2579 0.950 . S
H2576 C2572 0.950 . S
C2577 C2575 1.390 . S
C2577 C2578 1.387 . S
C2577 H2580 0.950 . S
C2578 C2577 1.387 . S
C2578 C2581 1.387 . S
H2579 C2575 0.950 . S
H2580 C2577 0.950 . S
C2581 C2572 1.390 1_545 S
C2581 H2574 0.950 . S
C2581 C2578 1.387 . S
C2582 C2583 1.387 . S
C2582 H2586 0.950 . S
C2582 C2591 1.390 . S
C2583 C2582 1.387 . S
C2583 C2585 1.387 . S
H2584 C2591 0.950 . S
C2585 C2583 1.387 . S
C2585 C2587 1.390 . S
C2585 H2589 0.950 . S
H2586 C2582 0.950 . S
C2587 C2585 1.390 . S
C2587 C2588 1.387 . S
C2587 H2590 0.950 . S
C2588 C2587 1.387 . S
C2588 C2591 1.387 . S
H2589 C2585 0.950 . S
H2590 C2587 0.950 . S
C2591 C2582 1.390 . S
C2591 H2584 0.950 . S
C2591 C2588 1.387 . S
C2592 C2593 1.387 . S
C2592 H2596 0.950 1_554 S
C2592 C2601 1.390 . S
C2593 C2592 1.387 . S
C2593 C2595 1.387 . S
H2594 C2601 0.975 . S
C2595 C2593 1.387 . S
C2595 C2597 1.390 . S
C2595 H2599 0.950 . S
H2596 C2592 0.950 1_556 S
C2597 C2595 1.390 . S
C2597 C2598 1.387 . S
C2597 H2600 0.950 . S
C2598 C2597 1.387 . S
C2598 C2601 1.387 . S
H2599 C2595 0.950 . S
H2600 C2597 0.950 . S
C2601 C2592 1.390 . S
C2601 H2594 0.975 . S
C2601 C2598 1.387 . S
C2602 C2603 1.387 1_554 S
C2602 H2606 0.950 . S
C2602 C2611 1.390 . S
C2603 C2602 1.387 1_556 S
C2603 C2605 1.387 . S
H2604 C2611 0.950 . S
C2605 C2603 1.387 . S
C2605 C2607 1.390 . S
C2605 H2609 0.950 . S
H2606 C2602 0.950 . S
C2607 C2605 1.390 . S
C2607 C2608 1.387 1_556 S
C2607 H2610 0.950 . S
C2608 C2607 1.387 1_554 S
C2608 C2611 1.387 . S
H2609 C2605 0.950 . S
H2610 C2607 0.950 . S
C2611 C2602 1.390 . S
C2611 H2604 0.950 . S
C2611 C2608 1.387 . S
C2612 C2613 1.387 . S
C2612 H2616 0.950 . S
C2612 C2621 1.390 . S
C2613 C2612 1.387 . S
C2613 C2615 1.387 . S
H2614 C2621 0.950 . S
C2615 C2613 1.387 . S
C2615 C2617 1.390 . S
C2615 H2619 0.950 . S
H2616 C2612 0.950 . S
C2617 C2615 1.390 . S
C2617 C2618 1.387 . S
C2617 H2620 0.950 . S
C2618 C2617 1.387 . S
C2618 C2621 1.387 . S
H2619 C2615 0.950 . S
H2620 C2617 0.950 . S
C2621 C2612 1.390 . S
C2621 H2614 0.950 . S
C2621 C2618 1.387 . S
C2622 C2623 1.387 . S
C2622 H2626 0.950 . S
C2622 C2631 1.390 . S
C2623 C2622 1.387 . S
C2623 C2625 1.387 . S
H2624 C2631 0.950 . S
C2625 C2623 1.387 . S
C2625 C2627 1.390 . S
C2625 H2629 0.950 . S
H2626 C2622 0.950 . S
C2627 C2625 1.390 . S
C2627 C2628 1.387 . S
C2627 H2630 0.950 . S
C2628 C2627 1.387 . S
C2628 C2631 1.387 . S
H2629 C2625 0.950 . S
H2630 C2627 0.950 . S
C2631 C2622 1.390 . S
C2631 H2624 0.950 . S
C2631 C2628 1.387 . S
C2632 C2633 1.387 . S
C2632 H2636 0.950 . S
C2632 C2641 1.390 . S
C2633 C2632 1.387 . S
C2633 C2635 1.387 . S
H2634 C2641 0.950 . S
C2635 C2633 1.387 . S
C2635 C2637 1.390 . S
C2635 H2639 0.950 . S
H2636 C2632 0.950 . S
C2637 C2635 1.390 . S
C2637 C2638 1.387 . S
C2637 H2640 0.950 . S
C2638 C2637 1.387 . S
C2638 C2641 1.387 . S
H2639 C2635 0.950 . S
H2640 C2637 0.950 . S
C2641 C2632 1.390 . S
C2641 H2634 0.950 . S
C2641 C2638 1.387 . S
C2642 C2643 1.387 . S
C2642 H2646 0.950 . S
C2642 C2651 1.390 . S
C2643 C2642 1.387 . S
C2643 C2645 1.387 . S
H2644 C2651 0.950 . S
C2645 C2643 1.387 . S
C2645 C2647 1.390 . S
C2645 H2649 0.950 . S
H2646 C2642 0.950 . S
C2647 C2645 1.390 . S
C2647 C2648 1.387 . S
C2647 H2650 0.950 . S
C2648 C2647 1.387 . S
C2648 C2651 1.387 . S
H2649 C2645 0.950 . S
H2650 C2647 0.950 . S
C2651 C2642 1.390 . S
C2651 H2644 0.950 . S
C2651 C2648 1.387 . S
C2652 C2653 1.387 . S
C2652 H2656 0.950 . S
C2652 C2661 1.390 . S
C2653 C2652 1.387 . S
C2653 C2655 1.387 . S
H2654 C2661 0.950 . S
C2655 C2653 1.387 . S
C2655 C2657 1.390 . S
C2655 H2659 0.950 . S
H2656 C2652 0.950 . S
C2657 C2655 1.390 . S
C2657 C2658 1.387 . S
C2657 H2660 0.950 . S
C2658 C2657 1.387 . S
C2658 C2661 1.387 . S
H2659 C2655 0.950 . S
H2660 C2657 0.950 . S
C2661 C2652 1.390 . S
C2661 H2654 0.950 . S
C2661 C2658 1.387 . S
C2662 C2663 1.387 . S
C2662 H2666 0.950 . S
C2662 C2671 1.390 . S
C2663 C2662 1.387 . S
C2663 C2665 1.387 . S
H2664 C2671 0.950 . S
C2665 C2663 1.387 . S
C2665 C2667 1.390 . S
C2665 H2669 0.950 . S
H2666 C2662 0.950 . S
C2667 C2665 1.390 . S
C2667 C2668 1.387 . S
C2667 H2670 0.950 . S
C2668 C2667 1.387 . S
C2668 C2671 1.387 . S
H2669 C2665 0.950 . S
H2670 C2667 0.950 . S
C2671 C2662 1.390 . S
C2671 H2664 0.950 . S
C2671 C2668 1.387 . S
C2672 C2673 1.387 . S
C2672 H2676 0.950 . S
C2672 C2681 1.390 . S
C2673 C2672 1.387 . S
C2673 C2675 1.387 . S
H2674 C2681 0.950 . S
C2675 C2673 1.387 . S
C2675 C2677 1.390 . S
C2675 H2679 0.950 . S
H2676 C2672 0.950 . S
C2677 C2675 1.390 . S
C2677 C2678 1.387 . S
C2677 H2680 0.950 . S
C2678 C2677 1.387 . S
C2678 C2681 1.387 . S
H2679 C2675 0.950 . S
H2680 C2677 0.950 . S
C2681 C2672 1.390 . S
C2681 H2674 0.950 . S
C2681 C2678 1.387 . S
C2682 C2683 1.387 . S
C2682 H2686 0.950 . S
C2682 C2691 1.390 . S
C2683 C2682 1.387 . S
C2683 C2685 1.387 . S
H2684 C2691 0.950 . S
C2685 C2683 1.387 . S
C2685 C2687 1.390 . S
C2685 H2689 0.950 . S
H2686 C2682 0.950 . S
C2687 C2685 1.390 . S
C2687 C2688 1.387 . S
C2687 H2690 0.950 . S
C2688 C2687 1.387 . S
C2688 C2691 1.387 . S
H2689 C2685 0.950 . S
H2690 C2687 0.950 . S
C2691 C2682 1.390 . S
C2691 H2684 0.950 . S
C2691 C2688 1.387 . S
C2692 C2693 1.387 . S
C2692 H2696 0.950 . S
C2692 C2701 1.390 . S
C2693 C2692 1.387 . S
C2693 C2695 1.387 . S
H2694 C2701 0.950 . S
C2695 C2693 1.387 . S
C2695 C2697 1.390 . S
C2695 H2699 0.950 . S
H2696 C2692 0.950 . S
C2697 C2695 1.390 . S
C2697 C2698 1.387 . S
C2697 H2700 0.950 . S
C2698 C2697 1.387 . S
C2698 C2701 1.387 . S
H2699 C2695 0.950 . S
H2700 C2697 0.950 . S
C2701 C2692 1.390 . S
C2701 H2694 0.950 . S
C2701 C2698 1.387 . S
C2702 C2703 1.387 . S
C2702 H2706 0.950 . S
C2702 C2711 1.390 . S
C2703 C2702 1.387 . S
C2703 C2705 1.387 . S
H2704 C2711 0.950 . S
C2705 C2703 1.387 . S
C2705 C2707 1.390 . S
C2705 H2709 0.950 . S
H2706 C2702 0.950 . S
C2707 C2705 1.390 . S
C2707 C2708 1.387 . S
C2707 H2710 0.950 . S
C2708 C2707 1.387 . S
C2708 C2711 1.387 . S
H2709 C2705 0.950 . S
H2710 C2707 0.950 . S
C2711 C2702 1.390 . S
C2711 H2704 0.950 . S
C2711 C2708 1.387 . S
C2712 C2713 1.387 . S
C2712 H2716 0.943 1_455 S
C2712 C2721 1.390 1_455 S
C2713 C2712 1.387 . S
C2713 C2715 1.387 . S
H2714 C2721 0.952 . S
C2715 C2713 1.387 . S
C2715 C2717 1.390 . S
C2715 H2719 0.950 . S
H2716 C2712 0.943 1_655 S
C2717 C2715 1.390 . S
C2717 C2718 1.387 . S
C2717 H2720 0.950 . S
C2718 C2717 1.387 . S
C2718 C2721 1.386 1_455 S
H2719 C2715 0.950 . S
H2720 C2717 0.950 . S
C2721 C2712 1.390 1_655 S
C2721 H2714 0.952 . S
C2721 C2718 1.386 1_655 S
C2722 C2723 1.387 . S
C2722 H2726 0.950 . S
C2722 C2731 1.390 . S
C2723 C2722 1.387 . S
C2723 C2725 1.387 . S
H2724 C2731 0.950 . S
C2725 C2723 1.387 . S
C2725 C2727 1.390 . S
C2725 H2729 0.950 . S
H2726 C2722 0.950 . S
C2727 C2725 1.390 . S
C2727 C2728 1.387 . S
C2727 H2730 0.950 . S
C2728 C2727 1.387 . S
C2728 C2731 1.387 . S
H2729 C2725 0.950 . S
H2730 C2727 0.950 . S
C2731 C2722 1.390 . S
C2731 H2724 0.950 . S
C2731 C2728 1.387 . S
C2732 C2733 1.387 . S
C2732 H2736 0.950 . S
C2732 C2741 1.390 . S
C2733 C2732 1.387 . S
C2733 C2735 1.387 1_556 S
H2734 C2741 0.950 . S
C2735 C2733 1.387 1_554 S
C2735 C2737 1.390 . S
C2735 H2739 0.950 . S
H2736 C2732 0.950 . S
C2737 C2735 1.390 . S
C2737 C2738 1.387 . S
C2737 H2740 0.950 . S
C2738 C2737 1.387 . S
C2738 C2741 1.387 1_554 S
H2739 C2735 0.950 . S
H2740 C2737 0.950 . S
C2741 C2732 1.390 . S
C2741 H2734 0.950 . S
C2741 C2738 1.387 1_556 S
C2742 C2743 1.387 . S
C2742 H2746 0.950 . S
C2742 C2751 1.390 . S
C2743 C2742 1.387 . S
C2743 C2745 1.387 . S
H2744 C2751 0.950 . S
C2745 C2743 1.387 . S
C2745 C2747 1.390 . S
C2745 H2749 0.950 . S
H2746 C2742 0.950 . S
C2747 C2745 1.390 . S
C2747 C2748 1.387 . S
C2747 H2750 0.950 . S
C2748 C2747 1.387 . S
C2748 C2751 1.387 . S
H2749 C2745 0.950 . S
H2750 C2747 0.950 . S
C2751 C2742 1.390 . S
C2751 H2744 0.950 . S
C2751 C2748 1.387 . S
C2752 C2753 1.387 1_565 S
C2752 H2756 0.950 . S
C2752 C2761 1.390 . S
C2753 C2752 1.387 1_545 S
C2753 C2755 1.387 . S
H2754 C2761 0.950 . S
C2755 C2753 1.387 . S
C2755 C2757 1.390 . S
C2755 H2759 0.950 . S
H2756 C2752 0.950 . S
C2757 C2755 1.390 . S
C2757 C2758 1.387 . S
C2757 H2760 0.950 . S
C2758 C2757 1.387 . S
C2758 C2761 1.387 1_545 S
H2759 C2755 0.950 . S
H2760 C2757 0.950 . S
C2761 C2752 1.390 . S
C2761 H2754 0.950 . S
C2761 C2758 1.387 1_565 S
C2762 C2763 1.387 . S
C2762 H2766 0.950 . S
C2762 C2771 1.390 . S
C2763 C2762 1.387 . S
C2763 C2765 1.387 . S
H2764 C2771 0.950 . S
C2765 C2763 1.387 . S
C2765 C2767 1.390 . S
C2765 H2769 0.950 . S
H2766 C2762 0.950 . S
C2767 C2765 1.390 . S
C2767 C2768 1.387 . S
C2767 H2770 0.950 . S
C2768 C2767 1.387 . S
C2768 C2771 1.387 . S
H2769 C2765 0.950 . S
H2770 C2767 0.950 . S
C2771 C2762 1.390 . S
C2771 H2764 0.950 . S
C2771 C2768 1.387 . S
C2772 C2773 1.387 . S
C2772 H2776 0.950 . S
C2772 C2781 1.390 . S
C2773 C2772 1.387 . S
C2773 C2775 1.387 . S
H2774 C2781 0.950 . S
C2775 C2773 1.387 . S
C2775 C2777 1.390 . S
C2775 H2779 0.950 1_545 S
H2776 C2772 0.950 . S
C2777 C2775 1.390 . S
C2777 C2778 1.387 . S
C2777 H2780 0.950 1_545 S
C2778 C2777 1.387 . S
C2778 C2781 1.387 . S
H2779 C2775 0.950 1_565 S
H2780 C2777 0.950 1_565 S
C2781 C2772 1.390 . S
C2781 H2774 0.950 . S
C2781 C2778 1.387 . S
C2782 C2783 1.387 . S
C2782 H2786 0.950 . S
C2782 C2791 1.390 . S
C2783 C2782 1.387 . S
C2783 C2785 1.387 . S
H2784 C2791 0.950 . S
C2785 C2783 1.387 . S
C2785 C2787 1.390 . S
C2785 H2789 0.950 . S
H2786 C2782 0.950 . S
C2787 C2785 1.390 . S
C2787 C2788 1.387 . S
C2787 H2790 0.950 . S
C2788 C2787 1.387 . S
C2788 C2791 1.387 . S
H2789 C2785 0.950 . S
H2790 C2787 0.950 . S
C2791 C2782 1.390 . S
C2791 H2784 0.950 . S
C2791 C2788 1.387 . S
C2792 C2793 1.382 1_565 S
C2792 H2796 0.950 . S
C2792 C2801 1.390 . S
C2793 C2792 1.382 1_545 S
C2793 C2795 1.396 . S
H2794 C2801 0.950 . S
C2795 C2793 1.396 . S
C2795 C2797 1.390 . S
C2795 H2799 0.950 . S
H2796 C2792 0.950 . S
C2797 C2795 1.390 . S
C2797 C2798 1.387 . S
C2797 H2800 0.950 . S
C2798 C2797 1.387 . S
C2798 C2801 1.387 1_545 S
H2799 C2795 0.950 . S
H2800 C2797 0.950 . S
C2801 C2792 1.390 . S
C2801 H2794 0.950 . S
C2801 C2798 1.387 1_565 S
C2802 C2803 1.387 . S
C2802 H2806 0.950 . S
C2802 C2811 1.390 . S
C2803 C2802 1.387 . S
C2803 C2805 1.387 . S
H2804 C2811 0.950 . S
C2805 C2803 1.387 . S
C2805 C2807 1.390 . S
C2805 H2809 0.950 . S
H2806 C2802 0.950 . S
C2807 C2805 1.390 . S
C2807 C2808 1.387 . S
C2807 H2810 0.950 . S
C2808 C2807 1.387 . S
C2808 C2811 1.387 . S
H2809 C2805 0.950 . S
H2810 C2807 0.950 . S
C2811 C2802 1.390 . S
C2811 H2804 0.950 . S
C2811 C2808 1.387 . S
C2812 C2813 1.387 . S
C2812 H2816 0.950 . S
C2812 C2821 1.390 . S
C2813 C2812 1.387 . S
C2813 C2815 1.387 1_545 S
H2814 C2821 0.950 . S
C2815 C2813 1.387 1_565 S
C2815 C2817 1.390 . S
C2815 H2819 0.950 . S
H2816 C2812 0.950 . S
C2817 C2815 1.390 . S
C2817 C2818 1.370 1_565 S
C2817 H2820 0.950 . S
C2818 C2817 1.370 1_545 S
C2818 C2821 1.418 . S
H2819 C2815 0.950 . S
H2820 C2817 0.950 . S
C2821 C2812 1.390 . S
C2821 H2814 0.950 . S
C2821 C2818 1.418 . S
C2822 C2823 1.387 . S
C2822 H2826 0.950 . S
C2822 C2831 1.390 . S
C2823 C2822 1.387 . S
C2823 C2825 1.387 . S
H2824 C2831 0.950 . S
C2825 C2823 1.387 . S
C2825 C2827 1.390 . S
C2825 H2829 0.950 . S
H2826 C2822 0.950 . S
C2827 C2825 1.390 . S
C2827 C2828 1.387 . S
C2827 H2830 0.950 . S
C2828 C2827 1.387 . S
C2828 C2831 1.387 . S
H2829 C2825 0.950 . S
H2830 C2827 0.950 . S
C2831 C2822 1.390 . S
C2831 H2824 0.950 . S
C2831 C2828 1.387 . S
C2832 C2833 1.387 . S
C2832 H2836 0.950 . S
C2832 C2841 1.390 . S
C2833 C2832 1.387 . S
C2833 C2835 1.387 . S
H2834 C2841 0.950 . S
C2835 C2833 1.387 . S
C2835 C2837 1.390 1_554 S
C2835 H2839 0.950 1_554 S
H2836 C2832 0.950 . S
C2837 C2835 1.390 1_556 S
C2837 C2838 1.387 1_556 S
C2837 H2840 0.950 . S
C2838 C2837 1.387 1_554 S
C2838 C2841 1.387 . S
H2839 C2835 0.950 1_556 S
H2840 C2837 0.950 . S
C2841 C2832 1.390 . S
C2841 H2834 0.950 . S
C2841 C2838 1.387 . S
C2842 C2843 1.387 . S
C2842 H2846 0.950 . S
C2842 C2851 1.390 . S
C2843 C2842 1.387 . S
C2843 C2845 1.387 . S
H2844 C2851 0.950 . S
C2845 C2843 1.387 . S
C2845 C2847 1.390 . S
C2845 H2849 0.950 . S
H2846 C2842 0.950 . S
C2847 C2845 1.390 . S
C2847 C2848 1.387 . S
C2847 H2850 0.950 . S
C2848 C2847 1.387 . S
C2848 C2851 1.387 . S
H2849 C2845 0.950 . S
H2850 C2847 0.950 . S
C2851 C2842 1.390 . S
C2851 H2844 0.950 . S
C2851 C2848 1.387 . S
C2852 C2853 1.387 . S
C2852 H2856 0.950 . S
C2852 C2861 1.390 . S
C2853 C2852 1.387 . S
C2853 C2855 1.387 . S
H2854 C2861 0.950 . S
C2855 C2853 1.387 . S
C2855 C2857 1.390 . S
C2855 H2859 0.950 . S
H2856 C2852 0.950 . S
C2857 C2855 1.390 . S
C2857 C2858 1.387 . S
C2857 H2860 0.950 . S
C2858 C2857 1.387 . S
C2858 C2861 1.387 . S
H2859 C2855 0.950 . S
H2860 C2857 0.950 . S
C2861 C2852 1.390 . S
C2861 H2854 0.950 . S
C2861 C2858 1.387 . S
C2862 C2863 1.387 . S
C2862 H2866 0.950 . S
C2862 C2871 1.390 . S
C2863 C2862 1.387 . S
C2863 C2865 1.387 . S
H2864 C2871 0.950 . S
C2865 C2863 1.387 . S
C2865 C2867 1.390 . S
C2865 H2869 0.950 . S
H2866 C2862 0.950 . S
C2867 C2865 1.390 . S
C2867 C2868 1.387 . S
C2867 H2870 0.950 . S
C2868 C2867 1.387 . S
C2868 C2871 1.387 . S
H2869 C2865 0.950 . S
H2870 C2867 0.950 . S
C2871 C2862 1.390 . S
C2871 H2864 0.950 . S
C2871 C2868 1.387 . S
C2872 C2873 1.387 . S
C2872 H2876 0.950 . S
C2872 C2881 1.390 . S
C2873 C2872 1.387 . S
C2873 C2875 1.387 . S
H2874 C2881 0.950 . S
C2875 C2873 1.387 . S
C2875 C2877 1.390 . S
C2875 H2879 0.950 . S
H2876 C2872 0.950 . S
C2877 C2875 1.390 . S
C2877 C2878 1.387 . S
C2877 H2880 0.950 . S
C2878 C2877 1.387 . S
C2878 C2881 1.387 . S
H2879 C2875 0.950 . S
H2880 C2877 0.950 . S
C2881 C2872 1.390 . S
C2881 H2874 0.950 . S
C2881 C2878 1.387 . S
C2882 C2883 1.387 . S
C2882 H2886 0.950 . S
C2882 C2891 1.390 . S
C2883 C2882 1.387 . S
C2883 C2885 1.387 . S
H2884 C2891 0.950 . S
C2885 C2883 1.387 . S
C2885 C2887 1.390 . S
C2885 H2889 0.950 . S
H2886 C2882 0.950 . S
C2887 C2885 1.390 . S
C2887 C2888 1.387 . S
C2887 H2890 0.950 . S
C2888 C2887 1.387 . S
C2888 C2891 1.387 . S
H2889 C2885 0.950 . S
H2890 C2887 0.950 . S
C2891 C2882 1.390 . S
C2891 H2884 0.950 . S
C2891 C2888 1.387 . S
C2892 C2893 1.387 . S
C2892 H2896 0.950 . S
C2892 C2901 1.390 . S
C2893 C2892 1.387 . S
C2893 C2895 1.387 . S
H2894 C2901 0.950 . S
C2895 C2893 1.387 . S
C2895 C2897 1.390 . S
C2895 H2899 0.950 . S
H2896 C2892 0.950 . S
C2897 C2895 1.390 . S
C2897 C2898 1.387 . S
C2897 H2900 0.950 . S
C2898 C2897 1.387 . S
C2898 C2901 1.387 . S
H2899 C2895 0.950 . S
H2900 C2897 0.950 . S
C2901 C2892 1.390 . S
C2901 H2894 0.950 . S
C2901 C2898 1.387 . S
C2902 C2903 1.387 . S
C2902 H2906 0.950 . S
C2902 C2911 1.390 . S
C2903 C2902 1.387 . S
C2903 C2905 1.387 . S
H2904 C2911 0.950 . S
C2905 C2903 1.387 . S
C2905 C2907 1.390 . S
C2905 H2909 0.950 . S
H2906 C2902 0.950 . S
C2907 C2905 1.390 . S
C2907 C2908 1.387 . S
C2907 H2910 0.950 . S
C2908 C2907 1.387 . S
C2908 C2911 1.387 . S
H2909 C2905 0.950 . S
H2910 C2907 0.950 . S
C2911 C2902 1.390 . S
C2911 H2904 0.950 . S
C2911 C2908 1.387 . S
C2912 C2913 1.387 . S
C2912 H2916 0.950 . S
C2912 C2921 1.390 . S
C2913 C2912 1.387 . S
C2913 C2915 1.387 . S
H2914 C2921 0.950 . S
C2915 C2913 1.387 . S
C2915 C2917 1.390 . S
C2915 H2919 0.950 . S
H2916 C2912 0.950 . S
C2917 C2915 1.390 . S
C2917 C2918 1.387 . S
C2917 H2920 0.950 . S
C2918 C2917 1.387 . S
C2918 C2921 1.387 . S
H2919 C2915 0.950 . S
H2920 C2917 0.950 . S
C2921 C2912 1.390 . S
C2921 H2914 0.950 . S
C2921 C2918 1.387 . S
C2922 C2923 1.387 . S
C2922 H2926 0.950 . S
C2922 C2931 1.390 . S
C2923 C2922 1.387 . S
C2923 C2925 1.387 . S
H2924 C2931 0.950 . S
C2925 C2923 1.387 . S
C2925 C2927 1.390 . S
C2925 H2929 0.950 . S
H2926 C2922 0.950 . S
C2927 C2925 1.390 . S
C2927 C2928 1.387 . S
C2927 H2930 0.950 . S
C2928 C2927 1.387 . S
C2928 C2931 1.387 . S
H2929 C2925 0.950 . S
H2930 C2927 0.950 . S
C2931 C2922 1.390 . S
C2931 H2924 0.950 . S
C2931 C2928 1.387 . S
C2932 C2933 1.387 . S
C2932 H2936 0.950 . S
C2932 C2941 1.390 . S
C2933 C2932 1.387 . S
C2933 C2935 1.387 1_556 S
H2934 C2941 0.950 . S
C2935 C2933 1.387 1_554 S
C2935 C2937 1.390 . S
C2935 H2939 0.950 . S
H2936 C2932 0.950 . S
C2937 C2935 1.390 . S
C2937 C2938 1.387 1_554 S
C2937 H2940 0.940 1_455 S
C2938 C2937 1.387 1_556 S
C2938 C2941 1.387 . S
H2939 C2935 0.950 . S
H2940 C2937 0.940 1_655 S
C2941 C2932 1.390 . S
C2941 H2934 0.950 . S
C2941 C2938 1.387 . S
C2942 C2943 1.387 . S
C2942 H2946 0.950 . S
C2942 C2951 1.390 . S
C2943 C2942 1.387 . S
C2943 C2945 1.387 . S
H2944 C2951 0.950 . S
C2945 C2943 1.387 . S
C2945 C2947 1.390 . S
C2945 H2949 0.950 . S
H2946 C2942 0.950 . S
C2947 C2945 1.390 . S
C2947 C2948 1.387 . S
C2947 H2950 0.950 . S
C2948 C2947 1.387 . S
C2948 C2951 1.387 . S
H2949 C2945 0.950 . S
H2950 C2947 0.950 . S
C2951 C2942 1.390 . S
C2951 H2944 0.950 . S
C2951 C2948 1.387 . S
C2952 C2953 1.387 . S
C2952 H2956 0.950 . S
C2952 C2961 1.390 . S
C2953 C2952 1.387 . S
C2953 C2955 1.387 . S
H2954 C2961 0.950 . S
C2955 C2953 1.387 . S
C2955 C2957 1.390 . S
C2955 H2959 0.950 . S
H2956 C2952 0.950 . S
C2957 C2955 1.390 . S
C2957 C2958 1.387 . S
C2957 H2960 0.950 . S
C2958 C2957 1.387 . S
C2958 C2961 1.387 . S
H2959 C2955 0.950 . S
H2960 C2957 0.950 . S
C2961 C2952 1.390 . S
C2961 H2954 0.950 . S
C2961 C2958 1.387 . S
C2962 C2963 1.387 . S
C2962 H2966 0.950 . S
C2962 C2971 1.390 . S
C2963 C2962 1.387 . S
C2963 C2965 1.387 . S
H2964 C2971 0.950 . S
C2965 C2963 1.387 . S
C2965 C2967 1.390 . S
C2965 H2969 0.950 . S
H2966 C2962 0.950 . S
C2967 C2965 1.390 . S
C2967 C2968 1.387 . S
C2967 H2970 0.950 . S
C2968 C2967 1.387 . S
C2968 C2971 1.387 . S
H2969 C2965 0.950 . S
H2970 C2967 0.950 . S
C2971 C2962 1.390 . S
C2971 H2964 0.950 . S
C2971 C2968 1.387 . S
C2972 C2973 1.387 . S
C2972 H2976 0.950 . S
C2972 C2981 1.390 1_655 S
C2973 C2972 1.387 . S
C2973 C2975 1.379 1_655 S
H2974 C2981 0.949 1_655 S
C2975 C2973 1.379 1_455 S
C2975 C2977 1.404 . S
C2975 H2979 0.951 . S
H2976 C2972 0.950 . S
C2977 C2975 1.404 . S
C2977 C2978 1.387 . S
C2977 H2980 0.950 . S
C2978 C2977 1.387 . S
C2978 C2981 1.388 . S
H2979 C2975 0.951 . S
H2980 C2977 0.950 . S
C2981 C2972 1.390 1_455 S
C2981 H2974 0.949 1_455 S
C2981 C2978 1.388 . S
C2982 C2983 1.387 . S
C2982 H2986 0.950 . S
C2982 C2991 1.390 . S
C2983 C2982 1.387 . S
C2983 C2985 1.387 . S
H2984 C2991 0.950 . S
C2985 C2983 1.387 . S
C2985 C2987 1.390 . S
C2985 H2989 0.950 . S
H2986 C2982 0.950 . S
C2987 C2985 1.390 . S
C2987 C2988 1.387 . S
C2987 H2990 0.950 . S
C2988 C2987 1.387 . S
C2988 C2991 1.387 . S
H2989 C2985 0.950 . S
H2990 C2987 0.950 . S
C2991 C2982 1.390 . S
C2991 H2984 0.950 . S
C2991 C2988 1.387 . S
C2992 C2993 1.387 . S
C2992 H2996 0.950 . S
C2992 C3001 1.390 . S
C2993 C2992 1.387 . S
C2993 C2995 1.387 . S
H2994 C3001 0.950 . S
C2995 C2993 1.387 . S
C2995 C2997 1.390 . S
C2995 H2999 0.950 . S
H2996 C2992 0.950 . S
C2997 C2995 1.390 . S
C2997 C2998 1.387 . S
C2997 H3000 0.950 . S
C2998 C2997 1.387 . S
C2998 C3001 1.387 . S
H2999 C2995 0.950 . S
H3000 C2997 0.950 . S
C3001 C2992 1.390 . S
C3001 H2994 0.950 . S
C3001 C2998 1.387 . S
C3002 C3003 1.387 . S
C3002 H3006 0.950 . S
C3002 C3011 1.390 . S
C3003 C3002 1.387 . S
C3003 C3005 1.387 . S
H3004 C3011 0.950 . S
C3005 C3003 1.387 . S
C3005 C3007 1.390 . S
C3005 H3009 0.950 . S
H3006 C3002 0.950 . S
C3007 C3005 1.390 . S
C3007 C3008 1.387 . S
C3007 H3010 0.950 . S
C3008 C3007 1.387 . S
C3008 C3011 1.387 . S
H3009 C3005 0.950 . S
H3010 C3007 0.950 . S
C3011 C3002 1.390 . S
C3011 H3004 0.950 . S
C3011 C3008 1.387 . S
C3012 C3013 1.387 . S
C3012 H3016 0.950 . S
C3012 C3021 1.390 . S
C3013 C3012 1.387 . S
C3013 C3015 1.387 . S
H3014 C3021 0.950 . S
C3015 C3013 1.387 . S
C3015 C3017 1.390 . S
C3015 H3019 0.950 . S
H3016 C3012 0.950 . S
C3017 C3015 1.390 . S
C3017 C3018 1.387 . S
C3017 H3020 0.950 . S
C3018 C3017 1.387 . S
C3018 C3021 1.387 . S
H3019 C3015 0.950 . S
H3020 C3017 0.950 . S
C3021 C3012 1.390 . S
C3021 H3014 0.950 . S
C3021 C3018 1.387 . S
C3022 C3023 1.387 . S
C3022 H3026 0.950 . S
C3022 C3031 1.390 . S
C3023 C3022 1.387 . S
C3023 C3025 1.387 . S
H3024 C3031 0.950 . S
C3025 C3023 1.387 . S
C3025 C3027 1.390 . S
C3025 H3029 0.950 . S
H3026 C3022 0.950 . S
C3027 C3025 1.390 . S
C3027 C3028 1.387 . S
C3027 H3030 0.950 . S
C3028 C3027 1.387 . S
C3028 C3031 1.387 . S
H3029 C3025 0.950 . S
H3030 C3027 0.950 . S
C3031 C3022 1.390 . S
C3031 H3024 0.950 . S
C3031 C3028 1.387 . S
C3032 C3033 1.387 . S
C3032 H3036 0.950 . S
C3032 C3041 1.390 . S
C3033 C3032 1.387 . S
C3033 C3035 1.387 . S
H3034 C3041 0.950 . S
C3035 C3033 1.387 . S
C3035 C3037 1.390 . S
C3035 H3039 0.950 . S
H3036 C3032 0.950 . S
C3037 C3035 1.390 . S
C3037 C3038 1.387 . S
C3037 H3040 0.950 . S
C3038 C3037 1.387 . S
C3038 C3041 1.387 . S
H3039 C3035 0.950 . S
H3040 C3037 0.950 . S
C3041 C3032 1.390 . S
C3041 H3034 0.950 . S
C3041 C3038 1.387 . S
C3042 C3043 1.387 . S
C3042 H3046 0.950 . S
C3042 C3051 1.390 . S
C3043 C3042 1.387 . S
C3043 C3045 1.387 . S
H3044 C3051 0.950 . S
C3045 C3043 1.387 . S
C3045 C3047 1.390 . S
C3045 H3049 0.950 . S
H3046 C3042 0.950 . S
C3047 C3045 1.390 . S
C3047 C3048 1.387 . S
C3047 H3050 0.950 . S
C3048 C3047 1.387 . S
C3048 C3051 1.387 . S
H3049 C3045 0.950 . S
H3050 C3047 0.950 . S
C3051 C3042 1.390 . S
C3051 H3044 0.950 . S
C3051 C3048 1.387 . S
C3052 C3053 1.387 . S
C3052 H3056 0.950 . S
C3052 C3061 1.390 . S
C3053 C3052 1.387 . S
C3053 C3055 1.387 . S
H3054 C3061 0.950 . S
C3055 C3053 1.387 . S
C3055 C3057 1.390 . S
C3055 H3059 0.950 . S
H3056 C3052 0.950 . S
C3057 C3055 1.390 . S
C3057 C3058 1.387 . S
C3057 H3060 0.950 . S
C3058 C3057 1.387 . S
C3058 C3061 1.387 . S
H3059 C3055 0.950 . S
H3060 C3057 0.950 . S
C3061 C3052 1.390 . S
C3061 H3054 0.950 . S
C3061 C3058 1.387 . S
C3062 C3063 1.387 . S
C3062 H3066 0.950 . S
C3062 C3071 1.390 . S
C3063 C3062 1.387 . S
C3063 C3065 1.387 . S
H3064 C3071 0.950 . S
C3065 C3063 1.387 . S
C3065 C3067 1.390 . S
C3065 H3069 0.950 . S
H3066 C3062 0.950 . S
C3067 C3065 1.390 . S
C3067 C3068 1.387 . S
C3067 H3070 0.950 . S
C3068 C3067 1.387 . S
C3068 C3071 1.387 . S
H3069 C3065 0.950 . S
H3070 C3067 0.950 . S
C3071 C3062 1.390 . S
C3071 H3064 0.950 . S
C3071 C3068 1.387 . S
C3072 C3073 1.387 . S
C3072 H3076 0.950 . S
C3072 C3081 1.390 . S
C3073 C3072 1.387 . S
C3073 C3075 1.387 . S
H3074 C3081 0.950 . S
C3075 C3073 1.387 . S
C3075 C3077 1.390 . S
C3075 H3079 0.950 . S
H3076 C3072 0.950 . S
C3077 C3075 1.390 . S
C3077 C3078 1.387 . S
C3077 H3080 0.950 . S
C3078 C3077 1.387 . S
C3078 C3081 1.387 . S
H3079 C3075 0.950 . S
H3080 C3077 0.950 . S
C3081 C3072 1.390 . S
C3081 H3074 0.950 . S
C3081 C3078 1.387 . S
C3082 C3083 1.387 . S
C3082 H3086 0.950 . S
C3082 C3091 1.390 . S
C3083 C3082 1.387 . S
C3083 C3085 1.387 . S
H3084 C3091 0.950 . S
C3085 C3083 1.387 . S
C3085 C3087 1.390 . S
C3085 H3089 0.950 . S
H3086 C3082 0.950 . S
C3087 C3085 1.390 . S
C3087 C3088 1.387 . S
C3087 H3090 0.950 . S
C3088 C3087 1.387 . S
C3088 C3091 1.387 . S
H3089 C3085 0.950 . S
H3090 C3087 0.950 . S
C3091 C3082 1.390 . S
C3091 H3084 0.950 . S
C3091 C3088 1.387 . S
C3092 C3093 1.387 . S
C3092 H3096 0.950 . S
C3092 C3101 1.390 . S
C3093 C3092 1.387 . S
C3093 C3095 1.387 . S
H3094 C3101 0.950 . S
C3095 C3093 1.387 . S
C3095 C3097 1.390 . S
C3095 H3099 0.950 . S
H3096 C3092 0.950 . S
C3097 C3095 1.390 . S
C3097 C3098 1.387 . S
C3097 H3100 0.950 . S
C3098 C3097 1.387 . S
C3098 C3101 1.387 . S
H3099 C3095 0.950 . S
H3100 C3097 0.950 . S
C3101 C3092 1.390 . S
C3101 H3094 0.950 . S
C3101 C3098 1.387 . S
C3102 C3103 1.387 . S
C3102 H3106 0.950 1_554 S
C3102 C3111 1.395 . S
C3103 C3102 1.387 . S
C3103 C3105 1.387 . S
H3104 C3111 0.932 1_556 S
C3105 C3103 1.387 . S
C3105 C3107 1.390 . S
C3105 H3109 0.950 . S
H3106 C3102 0.950 1_556 S
C3107 C3105 1.390 . S
C3107 C3108 1.387 . S
C3107 H3110 0.950 . S
C3108 C3107 1.387 . S
C3108 C3111 1.401 . S
H3109 C3105 0.950 . S
H3110 C3107 0.950 . S
C3111 C3102 1.395 . S
C3111 H3104 0.932 1_554 S
C3111 C3108 1.401 . S
C3112 C3113 1.387 . S
C3112 H3116 0.950 . S
C3112 C3121 1.390 . S
C3113 C3112 1.387 . S
C3113 C3115 1.387 . S
H3114 C3121 0.950 . S
C3115 C3113 1.387 . S
C3115 C3117 1.390 . S
C3115 H3119 0.950 . S
H3116 C3112 0.950 . S
C3117 C3115 1.390 . S
C3117 C3118 1.387 . S
C3117 H3120 0.950 . S
C3118 C3117 1.387 . S
C3118 C3121 1.387 . S
H3119 C3115 0.950 . S
H3120 C3117 0.950 . S
C3121 C3112 1.390 . S
C3121 H3114 0.950 . S
C3121 C3118 1.387 . S
C3122 C3123 1.387 1_556 S
C3122 H3126 0.950 . S
C3122 C3131 1.390 1_556 S
C3123 C3122 1.387 1_554 S
C3123 C3125 1.387 . S
H3124 C3131 0.950 1_556 S
C3125 C3123 1.387 . S
C3125 C3127 1.390 . S
C3125 H3129 0.950 . S
H3126 C3122 0.950 . S
C3127 C3125 1.390 . S
C3127 C3128 1.387 . S
C3127 H3130 0.950 . S
C3128 C3127 1.387 . S
C3128 C3131 1.387 . S
H3129 C3125 0.950 . S
H3130 C3127 0.950 . S
C3131 C3122 1.390 1_554 S
C3131 H3124 0.950 1_554 S
C3131 C3128 1.387 . S
C3132 C3133 1.387 . S
C3132 H3136 0.950 . S
C3132 C3141 1.390 . S
C3133 C3132 1.387 . S
C3133 C3135 1.387 . S
H3134 C3141 0.950 . S
C3135 C3133 1.387 . S
C3135 C3137 1.390 . S
C3135 H3139 0.950 . S
H3136 C3132 0.950 . S
C3137 C3135 1.390 . S
C3137 C3138 1.387 . S
C3137 H3140 0.950 . S
C3138 C3137 1.387 . S
C3138 C3141 1.387 . S
H3139 C3135 0.950 . S
H3140 C3137 0.950 . S
C3141 C3132 1.390 . S
C3141 H3134 0.950 . S
C3141 C3138 1.387 . S
C3142 C3143 1.387 . S
C3142 H3146 0.950 . S
C3142 C3151 1.390 . S
C3143 C3142 1.387 . S
C3143 C3145 1.387 . S
H3144 C3151 0.950 . S
C3145 C3143 1.387 . S
C3145 C3147 1.390 . S
C3145 H3149 0.950 . S
H3146 C3142 0.950 . S
C3147 C3145 1.390 . S
C3147 C3148 1.387 . S
C3147 H3150 0.950 . S
C3148 C3147 1.387 . S
C3148 C3151 1.387 . S
H3149 C3145 0.950 . S
H3150 C3147 0.950 . S
C3151 C3142 1.390 . S
C3151 H3144 0.950 . S
C3151 C3148 1.387 . S
C3152 C3153 1.387 . S
C3152 H3156 0.950 . S
C3152 C3161 1.390 . S
C3153 C3152 1.387 . S
C3153 C3155 1.387 . S
H3154 C3161 0.950 . S
C3155 C3153 1.387 . S
C3155 C3157 1.390 . S
C3155 H3159 0.950 . S
H3156 C3152 0.950 . S
C3157 C3155 1.390 . S
C3157 C3158 1.387 . S
C3157 H3160 0.950 . S
C3158 C3157 1.387 . S
C3158 C3161 1.387 . S
H3159 C3155 0.950 . S
H3160 C3157 0.950 . S
C3161 C3152 1.390 . S
C3161 H3154 0.950 . S
C3161 C3158 1.387 . S
C3162 C3163 1.387 . S
C3162 H3166 0.950 . S
C3162 C3171 1.390 . S
C3163 C3162 1.387 . S
C3163 C3165 1.387 . S
H3164 C3171 0.950 . S
C3165 C3163 1.387 . S
C3165 C3167 1.390 . S
C3165 H3169 0.950 . S
H3166 C3162 0.950 . S
C3167 C3165 1.390 . S
C3167 C3168 1.387 . S
C3167 H3170 0.950 . S
C3168 C3167 1.387 . S
C3168 C3171 1.387 . S
H3169 C3165 0.950 . S
H3170 C3167 0.950 . S
C3171 C3162 1.390 . S
C3171 H3164 0.950 . S
C3171 C3168 1.387 . S
C3172 C3173 1.387 . S
C3172 H3176 0.950 1_455 S
C3172 C3181 1.390 . S
C3173 C3172 1.387 . S
C3173 C3175 1.387 . S
H3174 C3181 0.952 . S
C3175 C3173 1.387 . S
C3175 C3177 1.390 . S
C3175 H3179 0.950 . S
H3176 C3172 0.950 1_655 S
C3177 C3175 1.390 . S
C3177 C3178 1.387 . S
C3177 H3180 0.950 . S
C3178 C3177 1.387 . S
C3178 C3181 1.387 . S
H3179 C3175 0.950 . S
H3180 C3177 0.950 . S
C3181 C3172 1.390 . S
C3181 H3174 0.952 . S
C3181 C3178 1.387 . S
C3182 C3183 1.387 . S
C3182 H3186 0.950 . S
C3182 C3191 1.390 . S
C3183 C3182 1.387 . S
C3183 C3185 1.387 . S
H3184 C3191 0.950 . S
C3185 C3183 1.387 . S
C3185 C3187 1.390 . S
C3185 H3189 0.950 . S
H3186 C3182 0.950 . S
C3187 C3185 1.390 . S
C3187 C3188 1.387 . S
C3187 H3190 0.950 . S
C3188 C3187 1.387 . S
C3188 C3191 1.387 . S
H3189 C3185 0.950 . S
H3190 C3187 0.950 . S
C3191 C3182 1.390 . S
C3191 H3184 0.950 . S
C3191 C3188 1.387 . S
C3192 C3193 1.387 . S
C3192 H3196 0.950 . S
C3192 C3201 1.390 . S
C3193 C3192 1.387 . S
C3193 C3195 1.387 1_556 S
H3194 C3201 0.950 . S
C3195 C3193 1.387 1_554 S
C3195 C3197 1.390 . S
C3195 H3199 0.950 . S
H3196 C3192 0.950 . S
C3197 C3195 1.390 . S
C3197 C3198 1.387 1_554 S
C3197 H3200 0.950 . S
C3198 C3197 1.387 1_556 S
C3198 C3201 1.387 . S
H3199 C3195 0.950 . S
H3200 C3197 0.950 . S
C3201 C3192 1.390 . S
C3201 H3194 0.950 . S
C3201 C3198 1.387 . S
C3202 C3203 1.387 . S
C3202 H3206 0.950 . S
C3202 C3211 1.390 . S
C3203 C3202 1.387 . S
C3203 C3205 1.387 . S
H3204 C3211 0.950 . S
C3205 C3203 1.387 . S
C3205 C3207 1.390 . S
C3205 H3209 0.950 . S
H3206 C3202 0.950 . S
C3207 C3205 1.390 . S
C3207 C3208 1.387 . S
C3207 H3210 0.950 . S
C3208 C3207 1.387 . S
C3208 C3211 1.387 . S
H3209 C3205 0.950 . S
H3210 C3207 0.950 . S
C3211 C3202 1.390 . S
C3211 H3204 0.950 . S
C3211 C3208 1.387 . S
C3212 C3213 1.387 . S
C3212 H3216 0.950 . S
C3212 C3221 1.390 . S
C3213 C3212 1.387 . S
C3213 C3215 1.387 . S
H3214 C3221 0.950 . S
C3215 C3213 1.387 . S
C3215 C3217 1.390 . S
C3215 H3219 0.950 . S
H3216 C3212 0.950 . S
C3217 C3215 1.390 . S
C3217 C3218 1.387 . S
C3217 H3220 0.950 . S
C3218 C3217 1.387 . S
C3218 C3221 1.387 . S
H3219 C3215 0.950 . S
H3220 C3217 0.950 . S
C3221 C3212 1.390 . S
C3221 H3214 0.950 . S
C3221 C3218 1.387 . S
C3222 C3223 1.387 . S
C3222 H3226 0.950 . S
C3222 C3231 1.390 . S
C3223 C3222 1.387 . S
C3223 C3225 1.387 . S
H3224 C3231 0.950 . S
C3225 C3223 1.387 . S
C3225 C3227 1.390 . S
C3225 H3229 0.950 . S
H3226 C3222 0.950 . S
C3227 C3225 1.390 . S
C3227 C3228 1.387 . S
C3227 H3230 0.950 . S
C3228 C3227 1.387 . S
C3228 C3231 1.387 . S
H3229 C3225 0.950 . S
H3230 C3227 0.950 . S
C3231 C3222 1.390 . S
C3231 H3224 0.950 . S
C3231 C3228 1.387 . S
C3232 C3233 1.387 . S
C3232 H3236 0.950 . S
C3232 C3241 1.390 . S
C3233 C3232 1.387 . S
C3233 C3235 1.387 . S
H3234 C3241 0.950 . S
C3235 C3233 1.387 . S
C3235 C3237 1.390 . S
C3235 H3239 0.950 . S
H3236 C3232 0.950 . S
C3237 C3235 1.390 . S
C3237 C3238 1.387 . S
C3237 H3240 0.950 . S
C3238 C3237 1.387 . S
C3238 C3241 1.387 . S
H3239 C3235 0.950 . S
H3240 C3237 0.950 . S
C3241 C3232 1.390 . S
C3241 H3234 0.950 . S
C3241 C3238 1.387 . S
C3242 C3243 1.387 . S
C3242 H3246 0.950 . S
C3242 C3251 1.390 . S
C3243 C3242 1.387 . S
C3243 C3245 1.387 . S
H3244 C3251 0.950 . S
C3245 C3243 1.387 . S
C3245 C3247 1.390 . S
C3245 H3249 0.950 . S
H3246 C3242 0.950 . S
C3247 C3245 1.390 . S
C3247 C3248 1.387 . S
C3247 H3250 0.950 . S
C3248 C3247 1.387 . S
C3248 C3251 1.387 . S
H3249 C3245 0.950 . S
H3250 C3247 0.950 . S
C3251 C3242 1.390 . S
C3251 H3244 0.950 . S
C3251 C3248 1.387 . S
C3252 C3253 1.387 1_455 S
C3252 H3256 0.950 . S
C3252 C3261 1.390 . S
C3253 C3252 1.387 1_655 S
C3253 C3255 1.387 . S
H3254 C3261 0.950 . S
C3255 C3253 1.387 . S
C3255 C3257 1.390 . S
C3255 H3259 0.950 . S
H3256 C3252 0.950 . S
C3257 C3255 1.390 . S
C3257 C3258 1.387 . S
C3257 H3260 0.950 . S
C3258 C3257 1.387 . S
C3258 C3261 1.387 1_655 S
H3259 C3255 0.950 . S
H3260 C3257 0.950 . S
C3261 C3252 1.390 . S
C3261 H3254 0.950 . S
C3261 C3258 1.387 1_455 S
C3262 C3263 1.387 . S
C3262 H3266 0.950 . S
C3262 C3271 1.390 . S
C3263 C3262 1.387 . S
C3263 C3265 1.387 . S
H3264 C3271 0.950 . S
C3265 C3263 1.387 . S
C3265 C3267 1.390 . S
C3265 H3269 0.950 . S
H3266 C3262 0.950 . S
C3267 C3265 1.390 . S
C3267 C3268 1.387 . S
C3267 H3270 0.950 . S
C3268 C3267 1.387 . S
C3268 C3271 1.387 . S
H3269 C3265 0.950 . S
H3270 C3267 0.950 . S
C3271 C3262 1.390 . S
C3271 H3264 0.950 . S
C3271 C3268 1.387 . S
C3272 C3273 1.387 . S
C3272 H3276 0.950 . S
C3272 C3281 1.390 . S
C3273 C3272 1.387 . S
C3273 C3275 1.387 . S
H3274 C3281 0.950 . S
C3275 C3273 1.387 . S
C3275 C3277 1.390 . S
C3275 H3279 0.950 . S
H3276 C3272 0.950 . S
C3277 C3275 1.390 . S
C3277 C3278 1.387 . S
C3277 H3280 0.950 . S
C3278 C3277 1.387 . S
C3278 C3281 1.387 . S
H3279 C3275 0.950 . S
H3280 C3277 0.950 . S
C3281 C3272 1.390 . S
C3281 H3274 0.950 . S
C3281 C3278 1.387 . S
C3282 C3283 1.387 . S
C3282 H3286 0.950 . S
C3282 C3291 1.390 . S
C3283 C3282 1.387 . S
C3283 C3285 1.387 . S
H3284 C3291 0.950 . S
C3285 C3283 1.387 . S
C3285 C3287 1.390 . S
C3285 H3289 0.950 . S
H3286 C3282 0.950 . S
C3287 C3285 1.390 . S
C3287 C3288 1.387 . S
C3287 H3290 0.950 . S
C3288 C3287 1.387 . S
C3288 C3291 1.387 . S
H3289 C3285 0.950 . S
H3290 C3287 0.950 . S
C3291 C3282 1.390 . S
C3291 H3284 0.950 . S
C3291 C3288 1.387 . S
C3292 C3293 1.387 . S
C3292 H3296 0.950 . S
C3292 C3301 1.390 . S
C3293 C3292 1.387 . S
C3293 C3295 1.387 . S
H3294 C3301 0.950 . S
C3295 C3293 1.387 . S
C3295 C3297 1.390 . S
C3295 H3299 0.950 . S
H3296 C3292 0.950 . S
C3297 C3295 1.390 . S
C3297 C3298 1.387 . S
C3297 H3300 0.950 . S
C3298 C3297 1.387 . S
C3298 C3301 1.387 . S
H3299 C3295 0.950 . S
H3300 C3297 0.950 . S
C3301 C3292 1.390 . S
C3301 H3294 0.950 . S
C3301 C3298 1.387 . S
C3302 C3303 1.387 . S
C3302 H3306 0.950 . S
C3302 C3311 1.390 . S
C3303 C3302 1.387 . S
C3303 C3305 1.387 . S
H3304 C3311 0.950 . S
C3305 C3303 1.387 . S
C3305 C3307 1.390 . S
C3305 H3309 0.950 . S
H3306 C3302 0.950 . S
C3307 C3305 1.390 . S
C3307 C3308 1.387 . S
C3307 H3310 0.950 . S
C3308 C3307 1.387 . S
C3308 C3311 1.387 . S
H3309 C3305 0.950 . S
H3310 C3307 0.950 . S
C3311 C3302 1.390 . S
C3311 H3304 0.950 . S
C3311 C3308 1.387 . S
C3312 C3313 1.387 . S
C3312 H3316 0.950 . S
C3312 C3321 1.390 . S
C3313 C3312 1.387 . S
C3313 C3315 1.387 . S
H3314 C3321 0.950 . S
C3315 C3313 1.387 . S
C3315 C3317 1.390 . S
C3315 H3319 0.950 . S
H3316 C3312 0.950 . S
C3317 C3315 1.390 . S
C3317 C3318 1.387 . S
C3317 H3320 0.950 . S
C3318 C3317 1.387 . S
C3318 C3321 1.387 . S
H3319 C3315 0.950 . S
H3320 C3317 0.950 . S
C3321 C3312 1.390 . S
C3321 H3314 0.950 . S
C3321 C3318 1.387 . S
C3322 C3323 1.387 . S
C3322 H3326 0.950 1_565 S
C3322 C3331 1.390 1_565 S
C3323 C3322 1.387 . S
C3323 C3325 1.387 . S
H3324 C3331 0.950 . S
C3325 C3323 1.387 . S
C3325 C3327 1.390 . S
C3325 H3329 0.950 . S
H3326 C3322 0.950 1_545 S
C3327 C3325 1.390 . S
C3327 C3328 1.387 . S
C3327 H3330 0.950 . S
C3328 C3327 1.387 . S
C3328 C3331 1.387 1_565 S
H3329 C3325 0.950 . S
H3330 C3327 0.950 . S
C3331 C3322 1.390 1_545 S
C3331 H3324 0.950 . S
C3331 C3328 1.387 1_545 S
C3332 C3333 1.387 . S
C3332 H3336 0.950 . S
C3332 C3341 1.390 . S
C3333 C3332 1.387 . S
C3333 C3335 1.387 . S
H3334 C3341 0.950 . S
C3335 C3333 1.387 . S
C3335 C3337 1.390 . S
C3335 H3339 0.950 . S
H3336 C3332 0.950 . S
C3337 C3335 1.390 . S
C3337 C3338 1.387 . S
C3337 H3340 0.950 . S
C3338 C3337 1.387 . S
C3338 C3341 1.387 . S
H3339 C3335 0.950 . S
H3340 C3337 0.950 . S
C3341 C3332 1.390 . S
C3341 H3334 0.950 . S
C3341 C3338 1.387 . S
C3342 C3343 1.387 . S
C3342 H3346 0.950 . S
C3342 C3351 1.390 . S
C3343 C3342 1.387 . S
C3343 C3345 1.387 . S
H3344 C3351 0.950 . S
C3345 C3343 1.387 . S
C3345 C3347 1.390 . S
C3345 H3349 0.950 1_554 S
H3346 C3342 0.950 . S
C3347 C3345 1.390 . S
C3347 C3348 1.387 . S
C3347 H3350 0.950 1_554 S
C3348 C3347 1.387 . S
C3348 C3351 1.387 . S
H3349 C3345 0.950 1_556 S
H3350 C3347 0.950 1_556 S
C3351 C3342 1.390 . S
C3351 H3344 0.950 . S
C3351 C3348 1.387 . S
C3352 C3353 1.387 . S
C3352 H3356 0.950 . S
C3352 C3361 1.390 . S
C3353 C3352 1.387 . S
C3353 C3355 1.387 . S
H3354 C3361 0.950 . S
C3355 C3353 1.387 . S
C3355 C3357 1.390 . S
C3355 H3359 0.950 . S
H3356 C3352 0.950 . S
C3357 C3355 1.390 . S
C3357 C3358 1.387 . S
C3357 H3360 0.950 . S
C3358 C3357 1.387 . S
C3358 C3361 1.387 . S
H3359 C3355 0.950 . S
H3360 C3357 0.950 . S
C3361 C3352 1.390 . S
C3361 H3354 0.950 . S
C3361 C3358 1.387 . S
C3362 C3363 1.387 . S
C3362 H3366 0.950 . S
C3362 C3371 1.390 . S
C3363 C3362 1.387 . S
C3363 C3365 1.387 . S
H3364 C3371 0.950 . S
C3365 C3363 1.387 . S
C3365 C3367 1.390 . S
C3365 H3369 0.950 . S
H3366 C3362 0.950 . S
C3367 C3365 1.390 . S
C3367 C3368 1.387 . S
C3367 H3370 0.950 1_554 S
C3368 C3367 1.387 . S
C3368 C3371 1.387 . S
H3369 C3365 0.950 . S
H3370 C3367 0.950 1_556 S
C3371 C3362 1.390 . S
C3371 H3364 0.950 . S
C3371 C3368 1.387 . S
C3372 C3373 1.387 . S
C3372 H3376 0.950 . S
C3372 C3381 1.390 . S
C3373 C3372 1.387 . S
C3373 C3375 1.387 . S
H3374 C3381 0.950 . S
C3375 C3373 1.387 . S
C3375 C3377 1.390 . S
C3375 H3379 0.950 . S
H3376 C3372 0.950 . S
C3377 C3375 1.390 . S
C3377 C3378 1.387 . S
C3377 H3380 0.950 . S
C3378 C3377 1.387 . S
C3378 C3381 1.387 . S
H3379 C3375 0.950 . S
H3380 C3377 0.950 . S
C3381 C3372 1.390 . S
C3381 H3374 0.950 . S
C3381 C3378 1.387 . S
C3382 C3383 1.387 . S
C3382 H3386 0.950 . S
C3382 C3391 1.390 . S
C3383 C3382 1.387 . S
C3383 C3385 1.387 . S
H3384 C3391 0.950 . S
C3385 C3383 1.387 . S
C3385 C3387 1.390 . S
C3385 H3389 0.950 . S
H3386 C3382 0.950 . S
C3387 C3385 1.390 . S
C3387 C3388 1.387 . S
C3387 H3390 0.950 . S
C3388 C3387 1.387 . S
C3388 C3391 1.387 . S
H3389 C3385 0.950 . S
H3390 C3387 0.950 . S
C3391 C3382 1.390 . S
C3391 H3384 0.950 . S
C3391 C3388 1.387 . S
C2433 C665 1.383 . S
C2438 C2116 1.180 . S
C2443 C381 1.516 . S
C2448 C2151 1.529 . S
C2453 C460 1.089 . S
C2458 C2156 1.017 . S
C2468 C2181 1.453 . S
C2463 C585 1.479 . S
C2473 C108 1.481 . S
C2478 C2201 1.450 . S
C2488 C2216 1.017 . S
C2483 C196 1.089 . S
C2498 C2251 1.527 . S
C2493 C313 1.516 . S
C2503 C49 1.376 . S
C2508 C2256 1.179 . S
C2518 C2131 1.474 1_655 S
C2513 C1457 1.547 . S
C2523 C1545 1.095 . S
C2528 C2141 1.069 . S
C2538 C2171 1.523 . S
C2533 C1721 1.503 . S
C2548 C2176 1.190 . S
C2543 C1113 1.275 . S
C2553 C1428 1.275 . S
C2558 C2196 1.189 . S
C2568 C2231 1.519 . S
C2563 C1516 1.503 . S
C2578 C2241 1.068 . S
C2573 C1692 1.098 . S
C2588 C2271 1.474 . S
C2583 C1085 1.547 . S
C2598 C2121 1.275 . S
C2593 C988 1.418 . S
C2603 C1817 1.794 . S
C2608 C2291 1.814 . S
C2618 C2301 1.468 . S
C2613 C2081 1.555 . S
C2628 C2316 0.988 . S
C2623 C1993 1.055 . S
C2633 C761 1.419 . S
C2638 C2261 1.281 . S
C2643 C821 1.556 . S
C2648 C2161 1.466 . S
C2653 C2053 1.793 . S
C2658 C2351 1.817 . S
C2668 C2356 0.989 . S
C2663 C1868 1.056 . S
C2678 C2114 1.183 . S
C2673 C372 1.379 . S
C2688 C2370 1.526 . S
C2683 C645 1.510 . S
C2693 C577 1.088 . S
C2698 C2154 1.011 . S
C2703 C497 1.479 . S
C2708 C2344 1.446 . S
C2718 C2204 1.446 . S
C2713 C57 1.478 . S
C2723 C293 1.087 . S
C2728 C2294 1.008 . S
C2738 C2250 1.525 . S
C2733 C205 1.511 . S
C2748 C2374 1.183 . S
C2743 C145 1.379 . S
C2758 C2130 1.470 . S
C2753 C909 1.546 . S
C2768 C2364 1.065 . S
C2763 C1956 1.096 . S
C2773 C724 1.498 . S
C2778 C2170 1.517 . S
C2783 C1780 1.271 . S
C2788 C2334 1.176 . S
C2793 C937 1.262 1_545 S
C2798 C2194 1.183 . S
C2808 C2310 1.518 . S
C2803 C1985 1.496 . S
C2813 C753 1.094 . S
C2818 C2244 1.067 . S
C2823 C1809 1.545 . S
C2828 C2390 1.474 . S
C2833 C1173 1.421 . S
C2838 C2124 1.279 . S
C2843 C1105 1.787 . S
C2848 C2290 1.815 . S
C2853 C1633 1.557 . S
C2858 C2224 1.466 . S
C2863 C1553 1.052 . S
C2868 C2314 0.984 . S
C2878 C2384 1.278 . S
C2873 C1729 1.426 . S
C2883 C1340 1.557 . S
C2888 C2164 1.462 . S
C2898 C2190 1.815 . S
C2893 C1604 1.788 . S
C2908 C2134 0.986 . S
C2903 C1252 1.053 . S
C2913 C489 1.378 . S
C2918 C2396 1.186 . S
C2928 C2371 1.528 . S
C2923 C557 1.517 . S
C2933 C636 1.091 . S
C2938 C2416 1.017 . S
C2943 C409 1.479 . S
C2948 C2341 1.453 . S
C2953 C284 1.480 . S
C2958 C2281 1.450 . S
C2968 C2296 1.017 . S
C2963 C20 1.089 . S
C2978 C2331 1.527 . S
C2973 C137 1.516 . S
C2988 C2376 1.185 . S
C2983 C225 1.377 . S
C2998 C2411 1.473 . S
C2993 C1641 1.547 . S
C3003 C1193 1.094 . S
C3008 C2361 1.065 . S
C3018 C2431 1.520 . S
C3013 C1289 1.502 . S
C3028 C2336 1.185 . S
C3023 C1377 1.272 . S
C3038 C2276 1.188 . S
C3033 C1613 1.272 . S
C3043 C1164 1.504 . S
C3048 C2311 1.518 . S
C3058 C2321 1.066 . S
C3053 C1261 1.093 . S
C3063 C1349 1.547 . S
C3068 C2391 1.472 . S
C3078 C2401 1.276 . S
C3073 C1965 1.418 . S
C3083 C849 1.793 . S
C3088 C2211 1.816 . S
C3098 C2221 1.470 . S
C3093 C929 1.556 . S
C3108 C2236 0.993 . S
C3103 C1017 1.054 . S
C3118 C2381 1.279 . S
C3113 C1897 1.418 . S
C3123 C1789 1.562 . S
C3128 C2421 1.467 . S
C3138 C2191 1.816 . S
C3133 C900 1.794 . S
C3148 C2136 0.994 . S
C3143 C733 1.055 . S
C3153 C548 1.379 . S
C3158 C2394 1.183 . S
C3168 C2150 1.525 . S
C3163 C469 1.510 . S
C3173 C401 1.087 . S
C3178 C2414 1.014 . S
C3183 C673 1.478 . S
C3188 C2184 1.446 . S
C3193 C233 1.478 . S
C3198 C2284 1.446 . S
C3208 C2214 1.013 . S
C3203 C117 1.087 . S
C3213 C29 1.509 . S
C3218 C2330 1.526 . S
C3223 C321 1.379 . S
C3228 C2254 1.183 . S
C3238 C2410 1.470 . S
C3233 C2044 1.546 . S
C3243 C997 1.093 . S
C3248 C2144 1.060 . S
C3258 C2430 1.518 1_655 S
C3253 C1877 1.497 . S
C3263 C812 1.271 . S
C3268 C2174 1.181 . S
C3273 C2073 1.273 . S
C3278 C2274 1.184 . S
C3288 C2230 1.516 . S
C3283 C1025 1.498 . S
C3293 C1905 1.093 . S
C3298 C2324 1.064 . S
C3308 C2270 1.471 . S
C3303 C841 1.546 . S
C3318 C2404 1.275 . S
C3313 C1525 1.421 . S
C3328 C2210 1.815 . S
C3323 C1369 1.787 . S
C3333 C1465 1.556 . S
C3338 C2304 1.465 . S
C3348 C2234 0.984 . S
C3343 C1201 1.052 . S
C3353 C1281 1.420 . S
C3358 C2264 1.277 . S
C3363 C1076 1.558 . S
C3368 C2424 1.467 . S
C3378 C2350 1.815 . S
C3373 C1437 1.786 . S
C3388 C2354 0.987 . S
C3383 C1701 1.046 . S
