# Generated by pormake.
# Topology gar, (4,6)-cn, num edge types: 1
# Building blocks:
#     Node 0, Type 0, BuildingBlock: NAHDIM_clean_sbu_0, # of connection points: 4
#     Node 1, Type 0, BuildingBlock: NAHDIM_clean_sbu_0, # of connection points: 4
#     Node 2, Type 0, BuildingBlock: NAHDIM_clean_sbu_0, # of connection points: 4
#     Node 3, Type 0, BuildingBlock: NAHDIM_clean_sbu_0, # of connection points: 4
#     Node 4, Type 0, BuildingBlock: NAHDIM_clean_sbu_0, # of connection points: 4
#     Node 5, Type 0, BuildingBlock: NAHDIM_clean_sbu_0, # of connection points: 4
#     Node 6, Type 0, BuildingBlock: NAHDIM_clean_sbu_0, # of connection points: 4
#     Node 7, Type 0, BuildingBlock: NAHDIM_clean_sbu_0, # of connection points: 4
#     Node 8, Type 0, BuildingBlock: NAHDIM_clean_sbu_0, # of connection points: 4
#     Node 9, Type 0, BuildingBlock: NAHDIM_clean_sbu_0, # of connection points: 4
#     Node 10, Type 0, BuildingBlock: NAHDIM_clean_sbu_0, # of connection points: 4
#     Node 11, Type 0, BuildingBlock: NAHDIM_clean_sbu_0, # of connection points: 4
#     Node 12, Type 0, BuildingBlock: NAHDIM_clean_sbu_0, # of connection points: 4
#     Node 13, Type 0, BuildingBlock: NAHDIM_clean_sbu_0, # of connection points: 4
#     Node 14, Type 0, BuildingBlock: NAHDIM_clean_sbu_0, # of connection points: 4
#     Node 15, Type 0, BuildingBlock: NAHDIM_clean_sbu_0, # of connection points: 4
#     Node 16, Type 0, BuildingBlock: NAHDIM_clean_sbu_0, # of connection points: 4
#     Node 17, Type 0, BuildingBlock: NAHDIM_clean_sbu_0, # of connection points: 4
#     Node 18, Type 0, BuildingBlock: NAHDIM_clean_sbu_0, # of connection points: 4
#     Node 19, Type 0, BuildingBlock: NAHDIM_clean_sbu_0, # of connection points: 4
#     Node 20, Type 0, BuildingBlock: NAHDIM_clean_sbu_0, # of connection points: 4
#     Node 21, Type 0, BuildingBlock: NAHDIM_clean_sbu_0, # of connection points: 4
#     Node 22, Type 0, BuildingBlock: NAHDIM_clean_sbu_0, # of connection points: 4
#     Node 23, Type 0, BuildingBlock: NAHDIM_clean_sbu_0, # of connection points: 4
#     Node 24, Type 1, BuildingBlock: BETGAK_clean_sbu_0, # of connection points: 6
#     Node 25, Type 1, BuildingBlock: BETGAK_clean_sbu_0, # of connection points: 6
#     Node 26, Type 1, BuildingBlock: BETGAK_clean_sbu_0, # of connection points: 6
#     Node 27, Type 1, BuildingBlock: BETGAK_clean_sbu_0, # of connection points: 6
#     Node 28, Type 1, BuildingBlock: BETGAK_clean_sbu_0, # of connection points: 6
#     Node 29, Type 1, BuildingBlock: BETGAK_clean_sbu_0, # of connection points: 6
#     Node 30, Type 1, BuildingBlock: BETGAK_clean_sbu_0, # of connection points: 6
#     Node 31, Type 1, BuildingBlock: BETGAK_clean_sbu_0, # of connection points: 6
#     Node 32, Type 1, BuildingBlock: BETGAK_clean_sbu_0, # of connection points: 6
#     Node 33, Type 1, BuildingBlock: BETGAK_clean_sbu_0, # of connection points: 6
#     Node 34, Type 1, BuildingBlock: BETGAK_clean_sbu_0, # of connection points: 6
#     Node 35, Type 1, BuildingBlock: BETGAK_clean_sbu_0, # of connection points: 6
#     Node 36, Type 1, BuildingBlock: BETGAK_clean_sbu_0, # of connection points: 6
#     Node 37, Type 1, BuildingBlock: BETGAK_clean_sbu_0, # of connection points: 6
#     Node 38, Type 1, BuildingBlock: BETGAK_clean_sbu_0, # of connection points: 6
#     Node 39, Type 1, BuildingBlock: BETGAK_clean_sbu_0, # of connection points: 6
#     Edge 40, Type (0, 1), BuildingBlock: ZUJKAS_clean_linker_0, # of connection points: 2
#     Edge 41, Type (0, 1), BuildingBlock: ZUJKAS_clean_linker_0, # of connection points: 2
#     Edge 42, Type (0, 1), BuildingBlock: ZUJKAS_clean_linker_0, # of connection points: 2
#     Edge 43, Type (0, 1), BuildingBlock: ZUJKAS_clean_linker_0, # of connection points: 2
#     Edge 44, Type (0, 1), BuildingBlock: ZUJKAS_clean_linker_0, # of connection points: 2
#     Edge 45, Type (0, 1), BuildingBlock: ZUJKAS_clean_linker_0, # of connection points: 2
#     Edge 46, Type (0, 1), BuildingBlock: ZUJKAS_clean_linker_0, # of connection points: 2
#     Edge 47, Type (0, 1), BuildingBlock: ZUJKAS_clean_linker_0, # of connection points: 2
#     Edge 48, Type (0, 1), BuildingBlock: ZUJKAS_clean_linker_0, # of connection points: 2
#     Edge 49, Type (0, 1), BuildingBlock: ZUJKAS_clean_linker_0, # of connection points: 2
#     Edge 50, Type (0, 1), BuildingBlock: ZUJKAS_clean_linker_0, # of connection points: 2
#     Edge 51, Type (0, 1), BuildingBlock: ZUJKAS_clean_linker_0, # of connection points: 2
#     Edge 52, Type (0, 1), BuildingBlock: ZUJKAS_clean_linker_0, # of connection points: 2
#     Edge 53, Type (0, 1), BuildingBlock: ZUJKAS_clean_linker_0, # of connection points: 2
#     Edge 54, Type (0, 1), BuildingBlock: ZUJKAS_clean_linker_0, # of connection points: 2
#     Edge 55, Type (0, 1), BuildingBlock: ZUJKAS_clean_linker_0, # of connection points: 2
#     Edge 56, Type (0, 1), BuildingBlock: ZUJKAS_clean_linker_0, # of connection points: 2
#     Edge 57, Type (0, 1), BuildingBlock: ZUJKAS_clean_linker_0, # of connection points: 2
#     Edge 58, Type (0, 1), BuildingBlock: ZUJKAS_clean_linker_0, # of connection points: 2
#     Edge 59, Type (0, 1), BuildingBlock: ZUJKAS_clean_linker_0, # of connection points: 2
#     Edge 60, Type (0, 1), BuildingBlock: ZUJKAS_clean_linker_0, # of connection points: 2
#     Edge 61, Type (0, 1), BuildingBlock: ZUJKAS_clean_linker_0, # of connection points: 2
#     Edge 62, Type (0, 1), BuildingBlock: ZUJKAS_clean_linker_0, # of connection points: 2
#     Edge 63, Type (0, 1), BuildingBlock: ZUJKAS_clean_linker_0, # of connection points: 2
#     Edge 64, Type (0, 1), BuildingBlock: ZUJKAS_clean_linker_0, # of connection points: 2
#     Edge 65, Type (0, 1), BuildingBlock: ZUJKAS_clean_linker_0, # of connection points: 2
#     Edge 66, Type (0, 1), BuildingBlock: ZUJKAS_clean_linker_0, # of connection points: 2
#     Edge 67, Type (0, 1), BuildingBlock: ZUJKAS_clean_linker_0, # of connection points: 2
#     Edge 68, Type (0, 1), BuildingBlock: ZUJKAS_clean_linker_0, # of connection points: 2
#     Edge 69, Type (0, 1), BuildingBlock: ZUJKAS_clean_linker_0, # of connection points: 2
#     Edge 70, Type (0, 1), BuildingBlock: ZUJKAS_clean_linker_0, # of connection points: 2
#     Edge 71, Type (0, 1), BuildingBlock: ZUJKAS_clean_linker_0, # of connection points: 2
#     Edge 72, Type (0, 1), BuildingBlock: ZUJKAS_clean_linker_0, # of connection points: 2
#     Edge 73, Type (0, 1), BuildingBlock: ZUJKAS_clean_linker_0, # of connection points: 2
#     Edge 74, Type (0, 1), BuildingBlock: ZUJKAS_clean_linker_0, # of connection points: 2
#     Edge 75, Type (0, 1), BuildingBlock: ZUJKAS_clean_linker_0, # of connection points: 2
#     Edge 76, Type (0, 1), BuildingBlock: ZUJKAS_clean_linker_0, # of connection points: 2
#     Edge 77, Type (0, 1), BuildingBlock: ZUJKAS_clean_linker_0, # of connection points: 2
#     Edge 78, Type (0, 1), BuildingBlock: ZUJKAS_clean_linker_0, # of connection points: 2
#     Edge 79, Type (0, 1), BuildingBlock: ZUJKAS_clean_linker_0, # of connection points: 2
#     Edge 80, Type (0, 1), BuildingBlock: ZUJKAS_clean_linker_0, # of connection points: 2
#     Edge 81, Type (0, 1), BuildingBlock: ZUJKAS_clean_linker_0, # of connection points: 2
#     Edge 82, Type (0, 1), BuildingBlock: ZUJKAS_clean_linker_0, # of connection points: 2
#     Edge 83, Type (0, 1), BuildingBlock: ZUJKAS_clean_linker_0, # of connection points: 2
#     Edge 84, Type (0, 1), BuildingBlock: ZUJKAS_clean_linker_0, # of connection points: 2
#     Edge 85, Type (0, 1), BuildingBlock: ZUJKAS_clean_linker_0, # of connection points: 2
#     Edge 86, Type (0, 1), BuildingBlock: ZUJKAS_clean_linker_0, # of connection points: 2
#     Edge 87, Type (0, 1), BuildingBlock: ZUJKAS_clean_linker_0, # of connection points: 2
#     Edge 88, Type (0, 1), BuildingBlock: ZUJKAS_clean_linker_0, # of connection points: 2
#     Edge 89, Type (0, 1), BuildingBlock: ZUJKAS_clean_linker_0, # of connection points: 2
#     Edge 90, Type (0, 1), BuildingBlock: ZUJKAS_clean_linker_0, # of connection points: 2
#     Edge 91, Type (0, 1), BuildingBlock: ZUJKAS_clean_linker_0, # of connection points: 2
#     Edge 92, Type (0, 1), BuildingBlock: ZUJKAS_clean_linker_0, # of connection points: 2
#     Edge 93, Type (0, 1), BuildingBlock: ZUJKAS_clean_linker_0, # of connection points: 2
#     Edge 94, Type (0, 1), BuildingBlock: ZUJKAS_clean_linker_0, # of connection points: 2
#     Edge 95, Type (0, 1), BuildingBlock: ZUJKAS_clean_linker_0, # of connection points: 2
#     Edge 96, Type (0, 1), BuildingBlock: ZUJKAS_clean_linker_0, # of connection points: 2
#     Edge 97, Type (0, 1), BuildingBlock: ZUJKAS_clean_linker_0, # of connection points: 2
#     Edge 98, Type (0, 1), BuildingBlock: ZUJKAS_clean_linker_0, # of connection points: 2
#     Edge 99, Type (0, 1), BuildingBlock: ZUJKAS_clean_linker_0, # of connection points: 2
#     Edge 100, Type (0, 1), BuildingBlock: ZUJKAS_clean_linker_0, # of connection points: 2
#     Edge 101, Type (0, 1), BuildingBlock: ZUJKAS_clean_linker_0, # of connection points: 2
#     Edge 102, Type (0, 1), BuildingBlock: ZUJKAS_clean_linker_0, # of connection points: 2
#     Edge 103, Type (0, 1), BuildingBlock: ZUJKAS_clean_linker_0, # of connection points: 2
#     Edge 104, Type (0, 1), BuildingBlock: ZUJKAS_clean_linker_0, # of connection points: 2
#     Edge 105, Type (0, 1), BuildingBlock: ZUJKAS_clean_linker_0, # of connection points: 2
#     Edge 106, Type (0, 1), BuildingBlock: ZUJKAS_clean_linker_0, # of connection points: 2
#     Edge 107, Type (0, 1), BuildingBlock: ZUJKAS_clean_linker_0, # of connection points: 2
#     Edge 108, Type (0, 1), BuildingBlock: ZUJKAS_clean_linker_0, # of connection points: 2
#     Edge 109, Type (0, 1), BuildingBlock: ZUJKAS_clean_linker_0, # of connection points: 2
#     Edge 110, Type (0, 1), BuildingBlock: ZUJKAS_clean_linker_0, # of connection points: 2
#     Edge 111, Type (0, 1), BuildingBlock: ZUJKAS_clean_linker_0, # of connection points: 2
#     Edge 112, Type (0, 1), BuildingBlock: ZUJKAS_clean_linker_0, # of connection points: 2
#     Edge 113, Type (0, 1), BuildingBlock: ZUJKAS_clean_linker_0, # of connection points: 2
#     Edge 114, Type (0, 1), BuildingBlock: ZUJKAS_clean_linker_0, # of connection points: 2
#     Edge 115, Type (0, 1), BuildingBlock: ZUJKAS_clean_linker_0, # of connection points: 2
#     Edge 116, Type (0, 1), BuildingBlock: ZUJKAS_clean_linker_0, # of connection points: 2
#     Edge 117, Type (0, 1), BuildingBlock: ZUJKAS_clean_linker_0, # of connection points: 2
#     Edge 118, Type (0, 1), BuildingBlock: ZUJKAS_clean_linker_0, # of connection points: 2
#     Edge 119, Type (0, 1), BuildingBlock: ZUJKAS_clean_linker_0, # of connection points: 2
#     Edge 120, Type (0, 1), BuildingBlock: ZUJKAS_clean_linker_0, # of connection points: 2
#     Edge 121, Type (0, 1), BuildingBlock: ZUJKAS_clean_linker_0, # of connection points: 2
#     Edge 122, Type (0, 1), BuildingBlock: ZUJKAS_clean_linker_0, # of connection points: 2
#     Edge 123, Type (0, 1), BuildingBlock: ZUJKAS_clean_linker_0, # of connection points: 2
#     Edge 124, Type (0, 1), BuildingBlock: ZUJKAS_clean_linker_0, # of connection points: 2
#     Edge 125, Type (0, 1), BuildingBlock: ZUJKAS_clean_linker_0, # of connection points: 2
#     Edge 126, Type (0, 1), BuildingBlock: ZUJKAS_clean_linker_0, # of connection points: 2
#     Edge 127, Type (0, 1), BuildingBlock: ZUJKAS_clean_linker_0, # of connection points: 2
#     Edge 128, Type (0, 1), BuildingBlock: ZUJKAS_clean_linker_0, # of connection points: 2
#     Edge 129, Type (0, 1), BuildingBlock: ZUJKAS_clean_linker_0, # of connection points: 2
#     Edge 130, Type (0, 1), BuildingBlock: ZUJKAS_clean_linker_0, # of connection points: 2
#     Edge 131, Type (0, 1), BuildingBlock: ZUJKAS_clean_linker_0, # of connection points: 2
#     Edge 132, Type (0, 1), BuildingBlock: ZUJKAS_clean_linker_0, # of connection points: 2
#     Edge 133, Type (0, 1), BuildingBlock: ZUJKAS_clean_linker_0, # of connection points: 2
#     Edge 134, Type (0, 1), BuildingBlock: ZUJKAS_clean_linker_0, # of connection points: 2
#     Edge 135, Type (0, 1), BuildingBlock: ZUJKAS_clean_linker_0, # of connection points: 2
# Relax obj value: 0.180
# Max RMSD: 0.282
# Mean RMSD: 0.177
data_MOF--net-gar--node1-NAHDIM_clean_sbu_0--node2-BETGAK_clean_sbu_0--edge1-ZUJKAS_clean_linker_0
_symmetry_space_group_name_H-M    P1
_symmetry_Int_Tables_number       1
_symmetry_cell_setting            triclinic
loop_
_symmetry_equiv_pos_as_xyz
'x, y, z'
_cell_length_a     79.413928
_cell_length_b     72.639767
_cell_length_c     71.549893
_cell_angle_alpha  98.452766
_cell_angle_beta   95.194145
_cell_angle_gamma 102.77392
loop_
_atom_site_label
_atom_site_type_symbol
_atom_site_fract_x
_atom_site_fract_y
_atom_site_fract_z
_atom_type_partial_charge
C0 C 0.12372 0.32391 0.36716 0.0
O1 O 0.12043 0.30921 0.37611 0.0
O2 O 0.08625 0.30448 0.38817 0.0
Zn3 Zn 0.08962 0.32808 0.37588 0.0
O4 O 0.08888 0.35069 0.39525 0.0
C5 C 0.06298 0.30825 0.34483 0.0
O6 O 0.06895 0.2933 0.34779 0.0
O7 O 0.11243 0.33368 0.36532 0.0
C8 C 0.07482 0.35139 0.40216 0.0
O9 O 0.06104 0.33715 0.39648 0.0
C10 C 0.09197 0.3054 0.40554 0.0
O11 O 0.10067 0.32198 0.41548 0.0
O12 O 0.07002 0.32451 0.35493 0.0
C13 C 0.9608 0.75041 0.66336 0.0
O14 O 0.96075 0.75772 0.64762 0.0
O15 O 0.99685 0.72826 0.64025 0.0
Zn16 Zn 0.99658 0.75209 0.65833 0.0
O17 O 0.99843 0.77461 0.64461 0.0
C18 C 0.02215 0.74458 0.68527 0.0
O19 O 0.01309 0.72683 0.67966 0.0
O20 O 0.97476 0.74709 0.67066 0.0
C21 C 0.01217 0.7796 0.63694 0.0
O22 O 0.02418 0.76979 0.63812 0.0
C23 C 0.9931 0.72598 0.62229 0.0
O24 O 0.98872 0.73984 0.61456 0.0
O25 O 0.01729 0.75794 0.67831 0.0
C26 C 0.6298 0.84948 0.87333 0.0
O27 O 0.62672 0.86487 0.88316 0.0
O28 O 0.59637 0.80819 0.90078 0.0
Zn29 Zn 0.5976 0.82955 0.88541 0.0
O30 O 0.59622 0.85394 0.90211 0.0
C31 C 0.56221 0.81429 0.87001 0.0
O32 O 0.56132 0.81141 0.88763 0.0
O33 O 0.61937 0.8333 0.87268 0.0
C34 C 0.58815 0.86549 0.89577 0.0
O35 O 0.58112 0.86173 0.87788 0.0
C36 C 0.59651 0.81085 0.91876 0.0
O37 O 0.59847 0.82832 0.92808 0.0
O38 O 0.57685 0.82185 0.86527 0.0
C39 C 0.46914 0.24043 0.18498 0.0
O40 O 0.47611 0.22565 0.18182 0.0
O41 O 0.50275 0.23721 0.15576 0.0
Zn42 Zn 0.50056 0.26114 0.17237 0.0
O43 O 0.50256 0.28247 0.15712 0.0
C44 C 0.52434 0.25552 0.20226 0.0
O45 O 0.51496 0.23782 0.19749 0.0
O46 O 0.47737 0.25672 0.18219 0.0
C47 C 0.51484 0.28567 0.14694 0.0
O48 O 0.52608 0.27482 0.14652 0.0
C49 C 0.49363 0.23094 0.13963 0.0
O50 O 0.4824 0.24031 0.13365 0.0
O51 O 0.52022 0.26839 0.1938 0.0
C52 C 0.04381 0.80391 0.13926 0.0
O53 O 0.04079 0.79704 0.12091 0.0
O54 O 0.07286 0.78482 0.11285 0.0
Zn55 Zn 0.07844 0.81164 0.12916 0.0
O56 O 0.07688 0.83234 0.11252 0.0
C57 C 0.10485 0.80417 0.15565 0.0
O58 O 0.09161 0.79001 0.15667 0.0
O59 O 0.05948 0.8114 0.14672 0.0
C60 C 0.08595 0.84958 0.11672 0.0
O61 O 0.09757 0.85438 0.13196 0.0
C62 C 0.08446 0.77627 0.10757 0.0
O63 O 0.10092 0.78541 0.11164 0.0
O64 O 0.10254 0.81616 0.14488 0.0
C65 C 0.54431 0.76359 0.38985 0.0
O66 O 0.54675 0.76388 0.40832 0.0
O67 O 0.51056 0.74226 0.41614 0.0
Zn68 Zn 0.50968 0.76276 0.39904 0.0
O69 O 0.51536 0.78995 0.41437 0.0
C70 C 0.473 0.76329 0.38953 0.0
O71 O 0.47459 0.76965 0.40791 0.0
O72 O 0.52902 0.76264 0.382 0.0
C73 C 0.51164 0.79544 0.4309 0.0
O74 O 0.50351 0.78263 0.44025 0.0
C75 C 0.50193 0.72487 0.41141 0.0
O76 O 0.49119 0.71994 0.39547 0.0
O77 O 0.48598 0.75861 0.3825 0.0
C78 C 0.54618 0.30994 0.63859 0.0
O79 O 0.54385 0.30723 0.61988 0.0
O80 O 0.57459 0.28612 0.61323 0.0
Zn81 Zn 0.58089 0.31278 0.62989 0.0
O82 O 0.58033 0.33391 0.61352 0.0
C83 C 0.60785 0.30218 0.6533 0.0
O84 O 0.59533 0.28655 0.65132 0.0
O85 O 0.56163 0.31302 0.64704 0.0
C86 C 0.58886 0.35128 0.61874 0.0
O87 O 0.5993 0.35592 0.6349 0.0
C88 C 0.58576 0.27813 0.60587 0.0
O89 O 0.60206 0.28782 0.6079 0.0
O90 O 0.60485 0.31619 0.64574 0.0
C91 C 0.04874 0.26595 0.88964 0.0
O92 O 0.05084 0.26578 0.90804 0.0
O93 O 0.01114 0.23896 0.90989 0.0
Zn94 Zn 0.01307 0.26301 0.89714 0.0
O95 O 0.01844 0.28809 0.91639 0.0
C96 C 0.97546 0.25329 0.88144 0.0
O97 O 0.97338 0.24335 0.89534 0.0
O98 O 0.0335 0.26471 0.88145 0.0
C99 C 1.00664 0.29671 0.92083 0.0
O100 O 0.99036 0.28851 0.91401 0.0
C101 C 0.01722 0.23951 0.92715 0.0
O102 O 0.02437 0.25626 0.93778 0.0
O103 O 0.9908 0.26203 0.87938 0.0
C104 C 0.40724 0.08685 0.29448 0.0
O105 O 0.42381 0.09558 0.29863 0.0
O106 O 0.43748 0.05769 0.28736 0.0
Zn107 Zn 0.41942 0.05541 0.30513 0.0
O108 O 0.43091 0.06681 0.33159 0.0
C109 C 0.41472 0.01442 0.30295 0.0
O110 O 0.4318 0.01852 0.30589 0.0
O111 O 0.40223 0.06961 0.2968 0.0
C112 C 0.4255 0.06147 0.34654 0.0
O113 O 0.41118 0.04791 0.34503 0.0
C114 C 0.45338 0.05835 0.29244 0.0
O115 O 0.45845 0.0571 0.3101 0.0
O116 O 0.40694 0.0279 0.3027 0.0
C117 C 0.30935 0.15719 0.50449 0.0
O118 O 0.30681 0.16608 0.52098 0.0
O119 O 0.28597 0.19192 0.51608 0.0
Zn120 Zn 0.28146 0.17404 0.49027 0.0
O121 O 0.28404 0.1893 0.46827 0.0
C122 C 0.25065 0.15007 0.50147 0.0
O123 O 0.26061 0.15373 0.51792 0.0
O124 O 0.29979 0.15807 0.4895 0.0
C125 C 0.27134 0.18962 0.45618 0.0
O126 O 0.25558 0.18038 0.45817 0.0
C127 C 0.27446 0.19944 0.52327 0.0
O128 O 0.25916 0.19671 0.51322 0.0
O129 O 0.25686 0.15674 0.48737 0.0
C130 C 0.1992 0.98723 0.77565 0.0
O131 O 0.21102 1.0034 0.77733 0.0
O132 O 0.15531 0.01229 0.7492 0.0
Zn133 Zn 0.17057 0.01387 0.77719 0.0
O134 O 0.15594 0.01391 0.80286 0.0
C135 C 0.18485 0.05559 0.77312 0.0
O136 O 0.16882 0.05247 0.76476 0.0
O137 O 0.18306 0.98838 0.77531 0.0
C138 C 0.146 0.02464 0.80947 0.0
O139 O 0.14303 0.0378 0.79969 0.0
C140 C 0.14004 0.01487 0.74432 0.0
O141 O 0.13041 0.018 0.75788 0.0
O142 O 0.18923 0.04166 0.78014 0.0
C143 C 0.2736 0.95193 0.99126 0.0
O144 O 0.2717 0.93497 0.98081 0.0
O145 O 0.30415 0.92794 0.02225 0.0
Zn146 Zn 0.30703 0.94574 1.00331 0.0
O147 O 0.30709 0.92985 0.97793 0.0
C148 C 0.33381 0.97093 0.02974 0.0
O149 O 0.32213 0.96622 0.04118 0.0
O150 O 0.28772 0.95942 1.00224 0.0
C151 C 0.32018 0.92346 0.9738 0.0
O152 O 0.33456 0.92849 0.98585 0.0
C153 C 0.29644 0.91031 0.01792 0.0
O154 O 0.28866 0.90338 1.0005 0.0
O155 O 0.33004 0.96444 0.01199 0.0
C156 C 0.27857 0.41373 0.02471 0.0
O157 O 0.2761 0.39694 0.01374 0.0
O158 O 0.31343 0.39296 0.05658 0.0
Zn159 Zn 0.31292 0.40676 0.03359 0.0
O160 O 0.30863 0.38819 0.00826 0.0
C161 C 0.35039 0.42302 0.04213 0.0
O162 O 0.3497 0.40802 0.05055 0.0
O163 O 0.29338 0.42104 0.03455 0.0
C164 C 0.32087 0.38253 1.00059 0.0
O165 O 0.3367 0.3878 0.0098 0.0
C166 C 0.29945 0.38511 0.06261 0.0
O167 O 0.28445 0.38527 0.05334 0.0
O168 O 0.33629 0.42578 0.03435 0.0
C169 C 0.81106 0.12878 0.02833 0.0
O170 O 0.81369 0.14746 0.02973 0.0
O171 O 0.77487 0.14607 0.05187 0.0
Zn172 Zn 0.77541 0.13107 0.02599 0.0
O173 O 0.77777 0.14964 0.0075 0.0
C174 C 0.74319 0.1036 0.02836 0.0
O175 O 0.7479 0.1081 0.04685 0.0
O176 O 0.79558 0.11868 0.02662 0.0
C177 C 0.76423 0.15164 0.99786 0.0
O178 O 0.74895 0.14105 0.99966 0.0
C179 C 0.76311 0.15524 0.05436 0.0
O180 O 0.75098 0.15398 0.04017 0.0
O181 O 0.75319 0.11105 0.01724 0.0
C182 C 0.17402 0.48549 0.25684 0.0
O183 O 0.15772 0.48036 0.25992 0.0
O184 O 0.15156 0.51121 0.21731 0.0
Zn185 Zn 0.16281 0.51712 0.24434 0.0
O186 O 0.14468 0.51367 0.26212 0.0
C187 C 0.17005 0.55833 0.25393 0.0
O188 O 0.15323 0.5551 0.25487 0.0
O189 O 0.17893 0.50028 0.24936 0.0
C190 C 0.1492 0.52039 0.27972 0.0
O191 O 0.16535 0.52998 0.28558 0.0
C192 C 0.14102 0.49544 0.20985 0.0
O193 O 0.13744 0.48175 0.22003 0.0
O194 O 0.17686 0.54428 0.24961 0.0
C195 C 0.77891 0.91426 0.5287 0.0
O196 O 0.7765 0.89733 0.51803 0.0
O197 O 0.81258 0.89326 0.56191 0.0
Zn198 Zn 0.81299 0.90711 0.53889 0.0
O199 O 0.80994 0.88883 0.51354 0.0
C200 C 0.85048 0.92125 0.54705 0.0
O201 O 0.84908 0.90488 0.55322 0.0
O202 O 0.79357 0.92158 0.53883 0.0
C203 C 0.81353 0.8967 0.49914 0.0
O204 O 0.81867 0.91547 0.50166 0.0
C205 C 0.79847 0.88628 0.56821 0.0
O206 O 0.78363 0.88721 0.55913 0.0
O207 O 0.83669 0.92576 0.54074 0.0
C208 C 0.91051 0.10085 0.25826 0.0
O209 O 0.92743 0.10765 0.2598 0.0
O210 O 0.93693 0.06018 0.23188 0.0
Zn211 Zn 0.9204 0.05945 0.25591 0.0
O212 O 0.93513 0.06198 0.28437 0.0
C213 C 0.90734 0.01659 0.25824 0.0
O214 O 0.9237 0.01921 0.26535 0.0
O215 O 0.90496 0.08237 0.25652 0.0
C216 C 0.95021 0.05878 0.28903 0.0
O217 O 0.9592 0.05443 0.2752 0.0
C218 C 0.93296 0.04982 0.21497 0.0
O219 O 0.91778 0.03743 0.21144 0.0
O220 O 0.90264 0.03103 0.25268 0.0
C221 C 0.30729 0.60794 0.54076 0.0
O222 O 0.31097 0.62661 0.54161 0.0
O223 O 0.27447 0.63346 0.55731 0.0
Zn224 Zn 0.27365 0.61392 0.53375 0.0
O225 O 0.27895 0.62737 0.51162 0.0
C226 C 0.23658 0.60221 0.53133 0.0
O227 O 0.23898 0.61858 0.543 0.0
O228 O 0.29145 0.59874 0.53783 0.0
C229 C 0.26897 0.63757 0.50625 0.0
O230 O 0.25568 0.63924 0.51549 0.0
C231 C 0.2824 0.65094 0.55854 0.0
O232 O 0.29067 0.65634 0.54445 0.0
O233 O 0.24975 0.59653 0.52623 0.0
C234 C 0.41075 0.59825 0.75886 0.0
O235 O 0.42771 0.60501 0.76117 0.0
O236 O 0.43304 0.55405 0.72811 0.0
Zn237 Zn 0.42022 0.55645 0.75493 0.0
O238 O 0.43835 0.5599 0.78143 0.0
C239 C 0.40734 0.51268 0.75354 0.0
O240 O 0.42402 0.51362 0.75314 0.0
O241 O 0.4051 0.57972 0.75624 0.0
C242 C 0.43471 0.55029 0.79503 0.0
O243 O 0.41927 0.53851 0.79302 0.0
C244 C 0.44753 0.56372 0.7238 0.0
O245 O 0.45694 0.57764 0.73696 0.0
O246 O 0.40233 0.52846 0.75393 0.0
C247 C 0.68763 0.00961 0.74056 0.0
O248 O 0.68677 0.01703 0.72493 0.0
O249 O 0.64915 0.02215 0.72127 0.0
Zn250 Zn 0.65958 0.02737 0.74858 0.0
O251 O 0.64114 0.02043 0.76519 0.0
C252 C 0.66664 0.0684 0.74998 0.0
O253 O 0.65255 0.06418 0.73754 0.0
O254 O 0.67702 0.01194 0.75244 0.0
C255 C 0.62608 0.02353 0.76233 0.0
O256 O 0.62221 0.03169 0.74782 0.0
C257 C 0.63982 1.00572 0.7137 0.0
O258 O 0.63723 0.99199 0.72394 0.0
O259 O 0.67181 0.05501 0.75655 0.0
C260 C 0.81448 0.6641 1.00217 0.0
O261 O 0.81728 0.68098 0.01306 0.0
O262 O 0.78434 0.68929 0.01952 0.0
Zn263 Zn 0.78096 0.67265 0.99314 0.0
O264 O 0.78223 0.68859 0.97169 0.0
C265 C 0.75126 0.64391 1.00072 0.0
O266 O 0.76187 0.64356 0.01579 0.0
O267 O 0.7997 0.65724 0.99213 0.0
C268 C 0.79614 0.69457 0.96456 0.0
O269 O 0.81074 0.69122 0.97179 0.0
C270 C 0.77184 0.69455 0.02701 0.0
O271 O 0.75633 0.69004 0.01704 0.0
O272 O 0.75671 0.65477 0.98901 0.0
C273 C 0.901 0.58334 0.79184 0.0
O274 O 0.91701 0.59307 0.7916 0.0
O275 O 0.93547 0.56342 0.782 0.0
Zn276 Zn 0.91877 0.55504 0.80006 0.0
O277 O 0.93079 0.56369 0.82672 0.0
C278 C 0.90204 0.52027 0.77679 0.0
O279 O 0.90037 0.53254 0.76537 0.0
O280 O 0.89849 0.56663 0.79596 0.0
C281 C 0.92581 0.55568 0.84054 0.0
O282 O 0.91209 0.54118 0.83746 0.0
C283 C 0.94925 0.55743 0.78085 0.0
O284 O 0.95277 0.54554 0.79198 0.0
O285 O 0.91006 0.52655 0.7935 0.0
C286 C 0.77335 0.46073 0.49424 0.0
O287 O 0.76789 0.44307 0.49715 0.0
O288 O 0.79785 0.43389 0.51757 0.0
Zn289 Zn 0.80619 0.45107 0.499 0.0
O290 O 0.80792 0.43463 0.47446 0.0
C291 C 0.8331 0.47427 0.52788 0.0
O292 O 0.82079 0.471 0.53889 0.0
O293 O 0.78953 0.46751 0.49431 0.0
C294 C 0.8217 0.42923 0.47122 0.0
O295 O 0.83565 0.43526 0.48387 0.0
C296 C 0.79017 0.41634 0.51216 0.0
O297 O 0.78712 0.40922 0.49387 0.0
O298 O 0.82968 0.46753 0.51016 0.0
C299 C 0.68314 0.47719 0.27503 0.0
O300 O 0.66627 0.47044 0.27423 0.0
O301 O 0.65797 0.51541 0.24882 0.0
Zn302 Zn 0.67259 0.51805 0.27723 0.0
O303 O 0.6559 0.51654 0.30108 0.0
C304 C 0.69499 0.55521 0.26745 0.0
O305 O 0.69195 0.54472 0.25036 0.0
O306 O 0.68862 0.49564 0.27637 0.0
C307 C 0.65906 0.52806 0.31735 0.0
O308 O 0.67325 0.54195 0.32011 0.0
C309 C 0.64382 0.5206 0.24426 0.0
O310 O 0.63589 0.52726 0.25815 0.0
O311 O 0.68892 0.54721 0.28119 0.0
La312 La 0.02761 0.02725 1.00574 0.0
La313 La 0.06324 0.0511 0.02713 0.0
C314 C 0.99547 0.01244 0.99931 0.0
C315 C 0.98065 0.01986 1.00507 0.0
C316 C 0.96373 0.01089 0.99638 0.0
C317 C 0.94986 0.0191 1.00055 0.0
C318 C 0.95276 0.03643 0.01348 0.0
C319 C 0.96973 0.04502 0.02257 0.0
C320 C 0.98356 0.03687 0.01829 0.0
C321 C 0.05248 0.02743 0.98161 0.0
C322 C 0.03842 0.07197 1.0058 0.0
C323 C 0.09521 0.06687 0.03393 0.0
C324 C 0.11072 0.06293 0.02591 0.0
C325 C 0.12523 0.06233 0.03826 0.0
C326 C 0.13932 0.0565 0.03105 0.0
C327 C 0.13914 0.05115 0.0113 0.0
C328 C 0.12484 0.05245 0.99889 0.0
C329 C 0.11076 0.05832 1.00614 0.0
C330 C 0.03848 0.05125 0.05134 0.0
C331 C 0.0529 1.00579 0.02552 0.0
O332 O 1.0042 0.02176 0.98755 0.0
O333 O 1.00573 1.00904 0.01313 0.0
O334 O 0.03608 0.01903 0.97747 0.0
O335 O 0.05398 0.03494 0.99915 0.0
O336 O 0.02548 0.05669 1.00485 0.0
O337 O 0.05458 0.07226 0.01244 0.0
O338 O 0.08739 0.05394 0.04325 0.0
O339 O 0.08417 0.07265 0.02278 0.0
O340 O 0.05473 0.06025 0.05506 0.0
O341 O 0.03691 0.04331 0.03391 0.0
O342 O 0.06551 0.02165 0.02787 0.0
O343 O 0.03682 1.00497 0.01804 0.0
H344 H 0.96133 0.99784 0.98599 0.0
H345 H 0.937 0.01225 0.99313 0.0
H346 H 0.97237 0.0582 0.03279 0.0
H347 H 0.9966 0.0441 0.02499 0.0
H348 H 0.12542 0.06576 0.05355 0.0
H349 H 0.15001 0.05539 0.04101 0.0
H350 H 0.12442 0.04864 0.98361 0.0
H351 H 0.09972 0.05877 0.9963 0.0
La352 La 0.29315 0.77987 0.24669 0.0
La353 La 0.28862 0.79132 0.28947 0.0
C354 C 0.28712 0.77508 0.21107 0.0
C355 C 0.29527 0.78176 0.19491 0.0
C356 C 0.29198 0.76949 0.17728 0.0
C357 C 0.29712 0.77643 0.16098 0.0
C358 C 0.30549 0.79584 0.16206 0.0
C359 C 0.30978 0.80776 0.18003 0.0
C360 C 0.30476 0.80075 0.19634 0.0
C361 C 0.32033 0.7764 0.2697 0.0
C362 C 0.31217 0.82115 0.26971 0.0
C363 C 0.28716 0.79385 0.32463 0.0
C364 C 0.28912 0.78111 0.3383 0.0
C365 C 0.28316 0.78425 0.35603 0.0
C366 C 0.28436 0.77173 0.36886 0.0
C367 C 0.29161 0.75589 0.36415 0.0
C368 C 0.29773 0.75295 0.34638 0.0
C369 C 0.29642 0.76541 0.33352 0.0
C370 C 0.26644 0.79941 0.26367 0.0
C371 C 0.27577 0.74807 0.2688 0.0
O372 O 0.29443 0.76381 0.2201 0.0
O373 O 0.28208 0.78802 0.22263 0.0
O374 O 0.31902 0.7731 0.25121 0.0
O375 O 0.30676 0.7814 0.27372 0.0
O376 O 0.30555 0.81062 0.25276 0.0
O377 O 0.30881 0.81537 0.28597 0.0
O378 O 0.27344 0.7877 0.31175 0.0
O379 O 0.30127 0.80082 0.31733 0.0
O380 O 0.27214 0.80983 0.28029 0.0
O381 O 0.27252 0.78474 0.26257 0.0
O382 O 0.28174 0.76005 0.28505 0.0
O383 O 0.27696 0.75345 0.252 0.0
H384 H 0.28476 0.75474 0.17597 0.0
H385 H 0.29392 0.7668 0.14742 0.0
H386 H 0.31606 0.82281 0.1814 0.0
H387 H 0.30753 0.81044 0.20988 0.0
H388 H 0.27736 0.79623 0.35983 0.0
H389 H 0.27924 0.77421 0.38228 0.0
H390 H 0.30355 0.74102 0.34239 0.0
H391 H 0.30098 0.7627 0.31981 0.0
La392 La 0.5645 0.03964 0.51965 0.0
La393 La 0.5247 0.03335 0.51747 0.0
C394 C 0.59602 0.03852 0.52637 0.0
C395 C 0.60755 0.02504 0.52739 0.0
C396 C 0.61188 0.0151 0.5108 0.0
C397 C 0.62463 1.00457 0.51195 0.0
C398 C 0.63344 1.00379 0.52969 0.0
C399 C 0.62864 0.01318 0.5463 0.0
C400 C 0.61589 0.0237 0.54515 0.0
C401 C 0.54867 0.04908 0.49001 0.0
C402 C 0.53935 0.99783 0.5039 0.0
C403 C 0.49311 0.03436 0.51092 0.0
C404 C 0.48137 0.04767 0.51027 0.0
C405 C 0.47091 0.04987 0.52488 0.0
C406 C 0.4582 0.06039 0.52352 0.0
C407 C 0.45549 0.06894 0.50744 0.0
C408 C 0.46618 0.06704 0.49295 0.0
C409 C 0.47896 0.05652 0.49433 0.0
C410 C 0.54051 0.02386 0.5471 0.0
C411 C 0.54992 0.07522 0.53302 0.0
O412 O 0.5885 0.03948 0.50958 0.0
O413 O 0.5857 0.0397 0.53955 0.0
O414 O 0.56414 0.05819 0.49811 0.0
O415 O 0.54324 0.03494 0.49786 0.0
O416 O 0.55505 1.00825 0.51166 0.0
O417 O 0.52562 1.00536 0.50253 0.0
O418 O 0.50069 0.03334 0.52766 0.0
O419 O 0.50345 0.03339 0.49773 0.0
O420 O 0.52499 0.01488 0.53907 0.0
O421 O 0.54598 0.03804 0.5393 0.0
O422 O 0.53418 0.0648 0.52538 0.0
O423 O 0.56362 0.06766 0.53443 0.0
H424 H 0.60584 0.01594 0.49686 0.0
H425 H 0.62807 0.99769 0.49885 0.0
H426 H 0.63493 0.01264 0.56022 0.0
H427 H 0.61293 0.03127 0.55819 0.0
H428 H 0.47218 0.04293 0.53717 0.0
H429 H 0.45005 0.06118 0.53481 0.0
H430 H 0.46456 0.07354 0.48045 0.0
H431 H 0.48663 0.05497 0.48269 0.0
La432 La 0.27716 0.28547 0.76148 0.0
La433 La 0.31487 0.28111 0.76556 0.0
C434 C 0.24458 0.27633 0.76149 0.0
C435 C 0.23008 0.28107 0.77126 0.0
C436 C 0.23258 0.29002 0.79041 0.0
C437 C 0.21821 0.29176 0.80003 0.0
C438 C 0.20107 0.28453 0.7907 0.0
C439 C 0.19877 0.27617 0.77131 0.0
C440 C 0.2131 0.27448 0.76174 0.0
C441 C 0.2992 0.31981 0.76121 0.0
C442 C 0.29993 0.29686 0.80223 0.0
C443 C 0.34679 0.28231 0.76405 0.0
C444 C 0.36114 0.28688 0.75227 0.0
C445 C 0.36112 0.27583 0.73438 0.0
C446 C 0.37587 0.27888 0.72478 0.0
C447 C 0.39102 0.29299 0.73287 0.0
C448 C 0.39073 0.30445 0.75045 0.0
C449 C 0.37601 0.30139 0.76003 0.0
C450 C 0.29072 0.25089 0.77169 0.0
C451 C 0.29366 0.27498 0.72425 0.0
O452 O 0.25226 0.2882 0.75097 0.0
O453 O 0.25565 0.26932 0.77134 0.0
O454 O 0.28233 0.31659 0.76005 0.0
O455 O 0.3026 0.30377 0.76266 0.0
O456 O 0.28421 0.2918 0.79236 0.0
O457 O 0.31415 0.29562 0.79426 0.0
O458 O 0.33423 0.26698 0.75778 0.0
O459 O 0.34101 0.29659 0.77232 0.0
O460 O 0.30639 0.25696 0.78062 0.0
O461 O 0.28934 0.26153 0.75929 0.0
O462 O 0.30911 0.27939 0.73471 0.0
O463 O 0.27908 0.27458 0.73196 0.0
H464 H 0.24558 0.29515 0.79807 0.0
H465 H 0.22054 0.29854 0.81486 0.0
H466 H 0.18585 0.27016 0.76367 0.0
H467 H 0.21087 0.26732 0.74703 0.0
H468 H 0.34991 0.26445 0.72803 0.0
H469 H 0.37562 0.26967 0.71136 0.0
H470 H 0.40198 0.31568 0.75697 0.0
H471 H 0.37645 0.31006 0.77383 0.0
La472 La 0.04822 0.05968 0.52478 0.0
La473 La 0.04702 0.01944 0.50836 0.0
C474 C 0.05423 0.09574 0.53163 0.0
C475 C 0.05495 0.11128 0.5205 0.0
C476 C 0.05292 0.12906 0.52926 0.0
C477 C 0.05446 0.14434 0.51924 0.0
C478 C 0.05809 0.1421 0.50026 0.0
C479 C 0.05974 0.12407 0.49139 0.0
C480 C 0.05818 0.10878 0.50144 0.0
C481 C 0.0212 0.03436 0.53159 0.0
C482 C 0.03239 0.04336 0.48007 0.0
C483 C 0.0416 0.98346 0.50191 0.0
C484 C 0.04051 0.96836 0.51369 0.0
C485 C 0.04717 0.95243 0.50787 0.0
C486 C 0.04586 0.93769 0.51859 0.0
C487 C 0.03774 0.93855 0.53529 0.0
C488 C 0.03132 0.95475 0.54122 0.0
C489 C 0.03277 0.96956 0.53058 0.0
C490 C 0.07418 0.04496 0.50187 0.0
C491 C 0.0622 0.03543 0.55318 0.0
O492 O 0.03888 0.08448 0.5315 0.0
O493 O 0.06631 0.08619 0.52968 0.0
O494 O 0.02908 0.04973 0.54353 0.0
O495 O 0.02789 0.0343 0.51629 0.0
O496 O 0.0393 0.05852 0.49374 0.0
O497 O 0.0327 0.02587 0.48323 0.0
O498 O 0.05696 0.99492 0.50267 0.0
O499 O 0.02922 0.99273 0.50245 0.0
O500 O 0.06631 0.0297 0.48977 0.0
O501 O 0.06734 0.04477 0.51705 0.0
O502 O 0.05514 0.02035 0.5395 0.0
O503 O 0.06232 0.053 0.54995 0.0
H504 H 0.05035 0.13119 0.54394 0.0
H505 H 0.05284 0.15794 0.52638 0.0
H506 H 0.0627 0.1219 0.47687 0.0
H507 H 0.05983 0.09514 0.49443 0.0
H508 H 0.05332 0.95135 0.49497 0.0
H509 H 0.05126 0.92564 0.5138 0.0
H510 H 0.02483 0.95584 0.55387 0.0
H511 H 0.02764 0.98182 0.53543 0.0
La512 La 0.31338 0.79994 0.76502 0.0
La513 La 0.27979 0.77205 0.76633 0.0
C514 C 0.34405 0.82003 0.77378 0.0
C515 C 0.36148 0.8162 0.77569 0.0
C516 C 0.37569 0.82935 0.77126 0.0
C517 C 0.39248 0.82637 0.77402 0.0
C518 C 0.39529 0.81015 0.78125 0.0
C519 C 0.38091 0.79672 0.78512 0.0
C520 C 0.3642 0.79977 0.78246 0.0
C521 C 0.29657 0.78239 0.73166 0.0
C522 C 0.31356 0.75475 0.76675 0.0
C523 C 0.24946 0.75111 0.75746 0.0
C524 C 0.23152 0.75319 0.75681 0.0
C525 C 0.22772 0.77051 0.76445 0.0
C526 C 0.21057 0.77256 0.76236 0.0
C527 C 0.19706 0.75731 0.75256 0.0
C528 C 0.20096 0.73984 0.74544 0.0
C529 C 0.21806 0.73783 0.74752 0.0
C530 C 0.29656 0.7898 0.79975 0.0
C531 C 0.27954 0.81723 0.76453 0.0
O532 O 0.33572 0.81648 0.7565 0.0
O533 O 0.33396 0.81397 0.78622 0.0
O534 O 0.30595 0.79988 0.73478 0.0
O535 O 0.29798 0.77533 0.74657 0.0
O536 O 0.32253 0.77302 0.76854 0.0
O537 O 0.29621 0.75078 0.76424 0.0
O538 O 0.25831 0.75379 0.77439 0.0
O539 O 0.2586 0.7594 0.74535 0.0
O540 O 0.28699 0.77241 0.79675 0.0
O541 O 0.29516 0.79665 0.78474 0.0
O542 O 0.27054 0.79898 0.76303 0.0
O543 O 0.29692 0.8212 0.7667 0.0
H544 H 0.37384 0.84213 0.76605 0.0
H545 H 0.4033 0.83709 0.7711 0.0
H546 H 0.38259 0.78395 0.79044 0.0
H547 H 0.35347 0.78946 0.7861 0.0
H548 H 0.23802 0.78251 0.7717 0.0
H549 H 0.20798 0.78622 0.76788 0.0
H550 H 0.1908 0.72774 0.73811 0.0
H551 H 0.22081 0.72436 0.74158 0.0
La552 La 0.54916 0.04995 0.04504 0.0
La553 La 0.52651 0.03113 0.00767 0.0
C554 C 0.56237 0.06838 0.0776 0.0
C555 C 0.55647 0.07086 0.09642 0.0
C556 C 0.56845 0.07316 0.11269 0.0
C557 C 0.56283 0.07364 0.13065 0.0
C558 C 0.54509 0.07174 0.13255 0.0
C559 C 0.53318 0.06995 0.11621 0.0
C560 C 0.53882 0.0695 0.09827 0.0
C561 C 0.55513 0.01751 0.02873 0.0
C562 C 0.51042 0.02527 0.04468 0.0
C563 C 0.51361 0.01307 0.97492 0.0
C564 C 0.52041 1.0083 0.95694 0.0
C565 C 0.51008 1.00749 0.93978 0.0
C566 C 0.51686 1.00499 0.92253 0.0
C567 C 0.53412 1.00324 0.92216 0.0
C568 C 0.54427 1.00339 0.9394 0.0
C569 C 0.53748 1.00598 0.95668 0.0
C570 C 0.52086 0.0637 0.024 0.0
C571 C 0.56534 0.0551 0.00811 0.0
O572 O 0.56385 0.05108 0.07121 0.0
O573 O 0.55491 0.07579 0.06445 0.0
O574 O 0.56706 0.03168 0.03836 0.0
O575 O 0.54052 0.02146 0.02939 0.0
O576 O 0.52347 0.03931 0.05387 0.0
O577 O 0.51018 0.01759 0.02671 0.0
O578 O 0.51458 0.03132 0.98036 0.0
O579 O 0.51824 1.00486 0.989 0.0
O580 O 0.50874 0.04957 0.01459 0.0
O581 O 0.53538 0.05965 0.02317 0.0
O582 O 0.55255 0.04061 0.99926 0.0
O583 O 0.56503 0.0636 0.02568 0.0
H584 H 0.5821 0.07408 0.11145 0.0
H585 H 0.57227 0.07485 0.14295 0.0
H586 H 0.51947 0.06875 0.11728 0.0
H587 H 0.52938 0.06775 0.08585 0.0
H588 H 0.49693 1.0094 0.93978 0.0
H589 H 0.5088 1.00523 0.90956 0.0
H590 H 0.55753 1.00183 0.93957 0.0
H591 H 0.54569 1.00662 0.96982 0.0
La592 La 0.30693 0.30995 0.27124 0.0
La593 La 0.27923 0.2754 0.25502 0.0
C594 C 0.32497 0.34385 0.27962 0.0
C595 C 0.32086 0.36159 0.28873 0.0
C596 C 0.31472 0.36283 0.30659 0.0
C597 C 0.30727 0.37788 0.3131 0.0
C598 C 0.30557 0.39177 0.30175 0.0
C599 C 0.31308 0.39134 0.28465 0.0
C600 C 0.32073 0.37644 0.27827 0.0
C601 C 0.30132 0.28433 0.29401 0.0
C602 C 0.26678 0.30989 0.27455 0.0
C603 C 0.26221 0.24126 0.24637 0.0
C604 C 0.26892 0.22411 0.24745 0.0
C605 C 0.26599 0.20947 0.23153 0.0
C606 C 0.27558 0.19543 0.23089 0.0
C607 C 0.28831 0.19608 0.24611 0.0
C608 C 0.29044 0.21006 0.26245 0.0
C609 C 0.28087 0.22395 0.26312 0.0
C610 C 0.28493 0.30112 0.23242 0.0
C611 C 0.319 0.27501 0.25334 0.0
O612 O 0.32578 0.33079 0.29024 0.0
O613 O 0.31621 0.33642 0.2628 0.0
O614 O 0.31645 0.2951 0.29292 0.0
O615 O 0.28992 0.28893 0.28339 0.0
O616 O 0.28316 0.31984 0.27629 0.0
O617 O 0.26216 0.29139 0.26769 0.0
O618 O 0.26859 0.25133 0.2338 0.0
O619 O 0.26215 0.25209 0.2627 0.0
O620 O 0.26976 0.29057 0.23371 0.0
O621 O 0.29633 0.29629 0.24284 0.0
O622 O 0.30325 0.26512 0.25492 0.0
O623 O 0.32296 0.29388 0.2564 0.0
H624 H 0.31474 0.35165 0.31507 0.0
H625 H 0.30195 0.378 0.32652 0.0
H626 H 0.31189 0.40165 0.27541 0.0
H627 H 0.32542 0.37579 0.26449 0.0
H628 H 0.257 0.2095 0.21921 0.0
H629 H 0.27373 0.18473 0.21815 0.0
H630 H 0.29996 0.21064 0.2745 0.0
H631 H 0.28359 0.23517 0.27553 0.0
La632 La 0.55016 0.55993 0.02258 0.0
La633 La 0.54675 0.51819 0.00861 0.0
C634 C 0.56111 0.59548 0.03368 0.0
C635 C 0.55851 0.61306 0.0273 0.0
C636 C 0.56547 0.63075 0.03919 0.0
C637 C 0.56585 0.6478 0.0322 0.0
C638 C 0.55939 0.64742 0.01313 0.0
C639 C 0.55155 0.62959 1.00158 0.0
C640 C 0.5511 0.61256 0.00862 0.0
C641 C 0.51878 0.53789 0.02172 0.0
C642 C 0.53287 0.54267 0.97974 0.0
C643 C 0.53977 0.48214 1.00291 0.0
C644 C 0.53703 0.46701 0.01459 0.0
C645 C 0.53727 0.44834 1.0065 0.0
C646 C 0.53522 0.43382 0.0175 0.0
C647 C 0.53288 0.43776 0.0368 0.0
C648 C 0.53251 0.45653 0.04483 0.0
C649 C 0.53461 0.47107 0.03381 0.0
C650 C 0.57396 0.54182 0.99927 0.0
C651 C 0.56308 0.5351 0.05245 0.0
O652 O 0.54804 0.58502 0.04025 0.0
O653 O 0.56868 0.58511 0.02215 0.0
O654 O 0.52174 0.55526 0.01825 0.0
O655 O 0.53304 0.53393 0.0265 0.0
O656 O 0.54259 0.55812 0.99145 0.0
O657 O 0.53077 0.52552 0.98495 0.0
O658 O 0.55561 0.49292 1.00504 0.0
O659 O 0.52791 0.49214 1.00227 0.0
O660 O 0.56526 0.5262 0.98826 0.0
O661 O 0.5677 0.54299 0.01474 0.0
O662 O 0.55768 0.51975 0.03876 0.0
O663 O 0.56139 0.55226 0.0492 0.0
H664 H 0.57126 0.63138 0.05365 0.0
H665 H 0.57167 0.66127 0.04158 0.0
H666 H 0.54659 0.62873 0.98679 0.0
H667 H 0.54573 0.59899 0.9992 0.0
H668 H 0.53913 0.445 0.99167 0.0
H669 H 0.53534 0.41946 0.01084 0.0
H670 H 0.53092 0.46005 0.05971 0.0
H671 H 0.5345 0.48546 0.04032 0.0
La672 La 0.81335 0.30262 0.26211 0.0
La673 La 0.78093 0.27581 0.26815 0.0
C674 C 0.84425 0.32223 0.26601 0.0
C675 C 0.86151 0.31798 0.26583 0.0
C676 C 0.8745 0.32962 0.25788 0.0
C677 C 0.89115 0.32616 0.25824 0.0
C678 C 0.89503 0.31092 0.2665 0.0
C679 C 0.88185 0.29904 0.27408 0.0
C680 C 0.86528 0.30259 0.27382 0.0
C681 C 0.79325 0.28422 0.23084 0.0
C682 C 0.81408 0.25792 0.26558 0.0
C683 C 0.75012 0.256 0.26401 0.0
C684 C 0.73275 0.25976 0.2652 0.0
C685 C 0.72071 0.24802 0.27416 0.0
C686 C 0.70393 0.25087 0.27484 0.0
C687 C 0.69887 0.26551 0.2665 0.0
C688 C 0.71113 0.27754 0.25791 0.0
C689 C 0.72791 0.2747 0.25727 0.0
C690 C 0.80086 0.29468 0.29954 0.0
C691 C 0.78017 0.32056 0.26491 0.0
O692 O 0.83409 0.31758 0.24975 0.0
O693 O 0.83589 0.31763 0.28024 0.0
O694 O 0.8024 0.30171 0.23275 0.0
O695 O 0.79644 0.27754 0.24566 0.0
O696 O 0.82289 0.27599 0.26581 0.0
O697 O 0.79681 0.25411 0.26495 0.0
O698 O 0.76053 0.25973 0.28006 0.0
O699 O 0.75816 0.26171 0.24992 0.0
O700 O 0.79148 0.27731 0.29788 0.0
O701 O 0.79776 0.30092 0.28446 0.0
O702 O 0.77133 0.30249 0.26477 0.0
O703 O 0.79744 0.32432 0.26535 0.0
H704 H 0.87182 0.34153 0.2516 0.0
H705 H 0.90101 0.33546 0.25217 0.0
H706 H 0.8845 0.28739 0.28081 0.0
H707 H 0.85553 0.29351 0.28022 0.0
H708 H 0.72424 0.2365 0.28047 0.0
H709 H 0.69488 0.24153 0.28179 0.0
H710 H 0.70762 0.28878 0.25113 0.0
H711 H 0.73697 0.28396 0.25026 0.0
La712 La 0.04693 0.54704 0.53837 0.0
La713 La 0.02445 0.52034 0.50404 0.0
C714 C 0.05926 0.572 0.56756 0.0
C715 C 0.05285 0.57797 0.5855 0.0
C716 C 0.06455 0.58408 0.60228 0.0
C717 C 0.05841 0.5876 0.61982 0.0
C718 C 0.04046 0.58506 0.62079 0.0
C719 C 0.02883 0.57963 0.60382 0.0
C720 C 0.03498 0.57603 0.58632 0.0
C721 C 0.05434 0.51353 0.52965 0.0
C722 C 0.00908 0.52203 0.54211 0.0
C723 C 0.01285 0.49644 0.474 0.0
C724 C 0.02065 0.49104 0.45676 0.0
C725 C 0.01208 0.49171 0.43894 0.0
C726 C 0.02049 0.49005 0.4227 0.0
C727 C 0.03753 0.48745 0.42401 0.0
C728 C 0.04575 0.48567 0.44164 0.0
C729 C 0.03743 0.48759 0.45795 0.0
C730 C 0.01735 0.55399 0.51296 0.0
C731 C 0.06236 0.5447 0.50038 0.0
O732 O 0.06181 0.55467 0.56528 0.0
O733 O 0.0514 0.57559 0.55209 0.0
O734 O 0.06587 0.52928 0.53649 0.0
O735 O 0.03942 0.51684 0.52884 0.0
O736 O 0.02164 0.53767 0.54866 0.0
O737 O 0.00904 0.51093 0.5257 0.0
O738 O 0.01076 0.51396 0.47654 0.0
O739 O 0.01905 0.49186 0.48982 0.0
O740 O 1.00564 0.5383 0.50645 0.0
O741 O 0.03217 0.5505 0.51349 0.0
O742 O 0.05001 0.52886 0.49417 0.0
O743 O 0.06208 0.55621 0.51641 0.0
H744 H 0.07838 0.58557 0.60187 0.0
H745 H 0.06766 0.59193 0.63266 0.0
H746 H 0.01491 0.57736 0.60412 0.0
H747 H 0.02576 0.57139 0.57348 0.0
H748 H 0.99919 0.49445 0.43775 0.0
H749 H 0.01392 0.49143 0.40921 0.0
H750 H 0.05898 0.48393 0.44298 0.0
H751 H 0.04445 0.48728 0.47156 0.0
La752 La 0.77474 0.78992 0.26393 0.0
La753 La 0.81516 0.78831 0.26728 0.0
C754 C 0.74239 0.77944 0.26487 0.0
C755 C 0.72754 0.78379 0.27426 0.0
C756 C 0.72944 0.79199 0.2936 0.0
C757 C 0.71472 0.79313 0.30279 0.0
C758 C 0.6978 0.78603 0.29284 0.0
C759 C 0.69608 0.77849 0.27329 0.0
C760 C 0.71077 0.7774 0.26414 0.0
C761 C 0.79655 0.82443 0.26324 0.0
C762 C 0.7983 0.80207 0.30432 0.0
C763 C 0.84746 0.79866 0.26617 0.0
C764 C 0.86193 0.79396 0.25616 0.0
C765 C 0.87739 0.7933 0.26692 0.0
C766 C 0.89222 0.79185 0.25814 0.0
C767 C 0.892 0.79118 0.23834 0.0
C768 C 0.87625 0.79109 0.22748 0.0
C769 C 0.8614 0.79244 0.23628 0.0
C770 C 0.79355 0.75366 0.26772 0.0
C771 C 0.79151 0.77599 0.22693 0.0
O772 O 0.74922 0.7906 0.25326 0.0
O773 O 0.75417 0.77397 0.27534 0.0
O774 O 0.77961 0.82094 0.26131 0.0
O775 O 0.79974 0.80853 0.26559 0.0
O776 O 0.78245 0.79719 0.29462 0.0
O777 O 0.81268 0.80119 0.29633 0.0
O778 O 0.84065 0.78734 0.27766 0.0
O779 O 0.83572 0.80484 0.25638 0.0
O780 O 0.81049 0.75726 0.26935 0.0
O781 O 0.79013 0.7696 0.26589 0.0
O782 O 0.8074 0.78101 0.23656 0.0
O783 O 0.77718 0.77683 0.23501 0.0
H784 H 0.74225 0.79698 0.30175 0.0
H785 H 0.7166 0.7993 0.31777 0.0
H786 H 0.68335 0.77264 0.26516 0.0
H787 H 0.70898 0.77081 0.24927 0.0
H788 H 0.87819 0.79453 0.28227 0.0
H789 H 0.90396 0.79157 0.26695 0.0
H790 H 0.87555 0.79077 0.21225 0.0
H791 H 0.8497 0.793 0.22755 0.0
La792 La 0.7999 0.28125 0.74092 0.0
La793 La 0.79851 0.29674 0.78379 0.0
C794 C 0.79798 0.27501 0.70526 0.0
C795 C 0.79442 0.28549 0.68979 0.0
C796 C 0.80532 0.30322 0.68849 0.0
C797 C 0.80164 0.3129 0.67373 0.0
C798 C 0.78699 0.30507 0.66001 0.0
C799 C 0.77606 0.28738 0.66141 0.0
C800 C 0.77977 0.27767 0.67614 0.0
C801 C 0.82373 0.27519 0.76612 0.0
C802 C 0.81357 0.32567 0.75774 0.0
C803 C 0.80678 0.30414 0.81926 0.0
C804 C 0.79909 0.29811 0.83585 0.0
C805 C 0.8072 0.30687 0.85416 0.0
C806 C 0.8015 0.29949 0.87004 0.0
C807 C 0.78767 0.28312 0.86779 0.0
C808 C 0.77901 0.27501 0.8494 0.0
C809 C 0.78466 0.28248 0.83355 0.0
C810 C 0.77001 0.29871 0.76195 0.0
C811 C 0.77865 0.25408 0.76524 0.0
O812 O 0.8127 0.28188 0.71659 0.0
O813 O 0.78485 0.26932 0.71456 0.0
O814 O 0.81703 0.26358 0.75038 0.0
O815 O 0.81776 0.28992 0.76666 0.0
O816 O 0.80697 0.31239 0.74248 0.0
O817 O 0.8137 0.32198 0.77529 0.0
O818 O 0.79886 0.31462 0.80979 0.0
O819 O 0.81131 0.29058 0.80803 0.0
O820 O 0.77279 0.30399 0.78034 0.0
O821 O 0.78296 0.29268 0.75737 0.0
O822 O 0.78589 0.26631 0.78107 0.0
O823 O 0.78088 0.2579 0.74798 0.0
H824 H 0.81674 0.3096 0.69877 0.0
H825 H 0.81048 0.32635 0.67289 0.0
H826 H 0.76456 0.28108 0.6512 0.0
H827 H 0.77116 0.26404 0.67689 0.0
H828 H 0.81834 0.319 0.85612 0.0
H829 H 0.80826 0.30624 0.88404 0.0
H830 H 0.76845 0.26227 0.84712 0.0
H831 H 0.77827 0.27555 0.81945 0.0
La832 La 0.80915 0.81477 0.77799 0.0
La833 La 0.78206 0.77894 0.76287 0.0
C834 C 0.82685 0.84882 0.78528 0.0
C835 C 0.82245 0.86691 0.78245 0.0
C836 C 0.82644 0.88255 0.79746 0.0
C837 C 0.82047 0.899 0.79562 0.0
C838 C 0.81056 0.90003 0.77867 0.0
C839 C 0.80714 0.88459 0.76344 0.0
C840 C 0.81294 0.86815 0.76534 0.0
C841 C 0.80567 0.78917 0.80094 0.0
C842 C 0.76911 0.81381 0.78004 0.0
C843 C 0.76466 0.74474 0.75577 0.0
C844 C 0.77036 0.7269 0.75579 0.0
C845 C 0.76151 0.71015 0.74324 0.0
C846 C 0.76823 0.69381 0.74178 0.0
C847 C 0.784 0.69424 0.75267 0.0
C848 C 0.7925 0.71086 0.76562 0.0
C849 C 0.78573 0.72702 0.76721 0.0
C850 C 0.78569 0.80442 0.73972 0.0
C851 C 0.82211 0.78026 0.75969 0.0
O852 O 0.81879 0.84016 0.79788 0.0
O853 O 0.82712 0.83689 0.76976 0.0
O854 O 0.82026 0.80075 0.7995 0.0
O855 O 0.79362 0.79314 0.79078 0.0
O856 O 0.78474 0.82424 0.77866 0.0
O857 O 0.76544 0.79494 0.77655 0.0
O858 O 0.7702 0.75444 0.7426 0.0
O859 O 0.76656 0.75574 0.77241 0.0
O860 O 0.77105 0.79294 0.74129 0.0
O861 O 0.79767 0.80048 0.75004 0.0
O862 O 0.80649 0.76965 0.76079 0.0
O863 O 0.82572 0.79909 0.76384 0.0
H864 H 0.83367 0.8818 0.8108 0.0
H865 H 0.82328 0.91074 0.80756 0.0
H866 H 0.79925 0.88482 0.75035 0.0
H867 H 0.80943 0.85617 0.75362 0.0
H868 H 0.7497 0.70989 0.73425 0.0
H869 H 0.76148 0.6811 0.73172 0.0
H870 H 0.80452 0.71142 0.77439 0.0
H871 H 0.79276 0.73978 0.77704 0.0
La872 La 0.52904 0.52569 0.50528 0.0
La873 La 0.56345 0.55186 0.52639 0.0
C874 C 0.49749 0.50818 0.49878 0.0
C875 C 0.48189 0.51319 0.5053 0.0
C876 C 0.46535 0.50182 0.49779 0.0
C877 C 0.45048 0.5074 0.50316 0.0
C878 C 0.452 0.52442 0.51613 0.0
C879 C 0.46869 0.53544 0.52402 0.0
C880 C 0.4835 0.52994 0.51854 0.0
C881 C 0.55388 0.52658 0.48116 0.0
C882 C 0.53691 0.57043 0.50457 0.0
C883 C 0.59488 0.56992 0.53336 0.0
C884 C 0.61082 0.56652 0.52627 0.0
C885 C 0.62694 0.57884 0.53387 0.0
C886 C 0.64222 0.57519 0.52756 0.0
C887 C 0.64148 0.55931 0.5134 0.0
C888 C 0.62523 0.54721 0.50559 0.0
C889 C 0.61003 0.55068 0.51215 0.0
C890 C 0.53864 0.55102 0.55053 0.0
C891 C 0.55567 0.50693 0.52658 0.0
O892 O 0.50524 0.51917 0.48761 0.0
O893 O 0.50853 0.50515 0.51205 0.0
O894 O 0.53795 0.5165 0.47765 0.0
O895 O 0.55526 0.53502 0.4984 0.0
O896 O 0.52492 0.5542 0.50302 0.0
O897 O 0.55316 0.57225 0.51202 0.0
O898 O 0.58751 0.5575 0.54346 0.0
O899 O 0.58359 0.57359 0.52079 0.0
O900 O 0.55458 0.56103 0.554 0.0
O901 O 0.53724 0.54257 0.53329 0.0
O902 O 0.5676 0.52329 0.52853 0.0
O903 O 0.53946 0.50503 0.51895 0.0
H904 H 0.46394 0.4889 0.48747 0.0
H905 H 0.43782 0.49873 0.49665 0.0
H906 H 0.47032 0.54847 0.53425 0.0
H907 H 0.49622 0.53893 0.52438 0.0
H908 H 0.62772 0.59109 0.54484 0.0
H909 H 0.65462 0.58469 0.53379 0.0
H910 H 0.62435 0.53469 0.4949 0.0
H911 H 0.59766 0.54084 0.50642 0.0
La912 La 0.06374 0.5382 0.01929 0.0
La913 La 0.02401 0.53191 0.01836 0.0
C914 C 0.0954 0.53728 0.02484 0.0
C915 C 0.10698 0.5239 0.02612 0.0
C916 C 0.11055 0.51292 0.00971 0.0
C917 C 0.12334 0.50245 0.01093 0.0
C918 C 0.13295 0.50278 0.02856 0.0
C919 C 0.12891 0.51321 0.04504 0.0
C920 C 0.11613 0.52368 0.04381 0.0
C921 C 0.04698 0.54719 0.98991 0.0
C922 C 0.03852 0.49623 1.00484 0.0
C923 C 0.99246 0.53316 0.01225 0.0
C924 C 0.98126 0.54679 0.00996 0.0
C925 C 0.97735 0.55821 0.02585 0.0
C926 C 0.96498 0.56908 0.02371 0.0
C927 C 0.95613 0.56875 1.00565 0.0
C928 C 0.96047 0.55779 0.9897 0.0
C929 C 0.97286 0.54694 0.99183 0.0
C930 C 0.04042 0.5224 0.04757 0.0
C931 C 0.04939 0.57381 0.03298 0.0
O932 O 0.08715 0.53724 0.00811 0.0
O933 O 0.08573 0.53935 0.03853 0.0
O934 O 0.06257 0.55645 0.99747 0.0
O935 O 0.04196 0.53325 0.99815 0.0
O936 O 0.05433 0.50677 0.01202 0.0
O937 O 0.0247 0.50366 1.00385 0.0
O938 O 1.00067 0.53398 0.02922 0.0
O939 O 1.00205 0.52994 0.99875 0.0
O940 O 0.02465 0.51369 0.0401 0.0
O941 O 0.04577 0.5365 0.03959 0.0
O942 O 0.0336 0.56339 0.02552 0.0
O943 O 0.06309 0.56624 0.03416 0.0
H944 H 0.10387 0.51288 0.99582 0.0
H945 H 0.12619 0.49475 0.99791 0.0
H946 H 0.13582 0.51355 0.05889 0.0
H947 H 0.11377 0.53209 0.05669 0.0
H948 H 0.98342 0.55832 0.04005 0.0
H949 H 0.96186 0.57714 0.03636 0.0
H950 H 0.95412 0.55737 0.97554 0.0
H951 H 0.97549 0.53822 0.9793 0.0
H952 H 1.00668 0.20203 0.90855 0.0
H953 H 0.00809 0.17288 0.92156 0.0
H954 H 0.02959 0.20716 0.97646 0.0
H955 H 0.0281 0.23622 0.96368 0.0
H956 H 0.0371 0.16262 0.9376 0.0
H957 H 0.9905 0.16667 0.99028 0.0
H958 H 0.99193 0.18075 0.97142 0.0
H959 H 1.00737 0.1882 0.99268 0.0
C960 C 0.01154 0.20336 0.92344 0.0
C961 C 0.0172 0.22155 0.93504 0.0
C962 C 0.01238 0.18666 0.93086 0.0
C963 C 0.01872 0.18772 0.9501 0.0
C964 C 0.0243 0.20585 0.9617 0.0
H965 H 0.06188 0.10516 1.00306 0.0
H966 H 0.05644 0.1325 0.98937 0.0
C967 C 0.02353 0.22252 0.9543 0.0
C968 C 0.02024 0.17003 0.95788 0.0
H969 H 0.00842 0.14457 0.99324 0.0
C970 C 0.03073 0.15862 0.94968 0.0
C971 C 0.01179 0.16458 0.97354 0.0
C972 C 0.99962 0.17557 0.9824 0.0
C973 C 0.0334 0.14236 0.95701 0.0
C974 C 0.02555 0.1374 0.97317 0.0
C975 C 0.01463 0.14844 0.98101 0.0
C976 C 0.02868 0.12092 0.98219 0.0
C977 C 0.04451 0.13053 0.94724 0.0
C978 C 0.01483 0.10546 0.98339 0.0
C979 C 0.01789 0.08973 0.99133 0.0
C980 C 0.03487 0.08917 0.99844 0.0
C981 C 0.04863 0.10495 0.9977 0.0
C982 C 0.04557 0.12061 0.98971 0.0
H983 H 0.04557 0.133 0.93238 0.0
H984 H 0.05783 0.1346 0.95516 0.0
H985 H 0.03915 0.11501 0.94696 0.0
H986 H 1.00166 0.10539 0.97783 0.0
H987 H 1.00694 0.07792 0.99168 0.0
H988 H 0.13595 0.83061 0.15637 0.0
H989 H 0.16439 0.8316 0.17369 0.0
H990 H 0.14155 0.78113 0.19601 0.0
H991 H 0.11323 0.78021 0.1791 0.0
H992 H 0.1624 0.80849 0.2236 0.0
H993 H 0.19739 0.79717 0.16074 0.0
H994 H 0.1875 0.81722 0.1619 0.0
H995 H 0.17401 0.79333 0.15876 0.0
C996 C 0.13699 0.81973 0.16496 0.0
C997 C 0.12224 0.80532 0.16627 0.0
C998 C 0.15331 0.82022 0.17476 0.0
C999 C 0.15525 0.80626 0.18598 0.0
C1000 C 0.14048 0.79203 0.18743 0.0
H1001 H 0.24774 0.77409 0.23256 0.0
H1002 H 0.22136 0.77668 0.21341 0.0
C1003 C 0.12424 0.79153 0.1777 0.0
C1004 C 0.17244 0.80652 0.19662 0.0
H1005 H 0.21413 0.80323 0.19109 0.0
C1006 C 0.17372 0.80741 0.21647 0.0
C1007 C 0.18721 0.80483 0.18735 0.0
C1008 C 0.18651 0.8029 0.166 0.0
C1009 C 0.18922 0.80669 0.22726 0.0
C1010 C 0.20409 0.80539 0.21806 0.0
C1011 C 0.20283 0.80441 0.19819 0.0
C1012 C 0.22086 0.80449 0.22881 0.0
C1013 C 0.18936 0.80679 0.24838 0.0
C1014 C 0.22971 0.81945 0.24354 0.0
C1015 C 0.24476 0.81798 0.25449 0.0
C1016 C 0.25141 0.80158 0.25089 0.0
C1017 C 0.24296 0.78692 0.23569 0.0
C1018 C 0.22786 0.78839 0.22474 0.0
H1019 H 0.17597 0.80285 0.25232 0.0
H1020 H 0.19678 0.79668 0.25317 0.0
H1021 H 0.1957 0.82139 0.25622 0.0
H1022 H 0.22483 0.8322 0.24673 0.0
H1023 H 0.25104 0.82957 0.26601 0.0
H1024 H 0.53024 0.82545 0.41645 0.0
H1025 H 0.53621 0.85967 0.42938 0.0
H1026 H 0.50778 0.84691 0.47632 0.0
H1027 H 0.5021 0.81265 0.46372 0.0
H1028 H 0.51401 0.88233 0.4351 0.0
H1029 H 0.55191 0.883 0.50419 0.0
H1030 H 0.54696 0.86259 0.48517 0.0
H1031 H 0.53094 0.86657 0.50057 0.0
C1032 C 0.52538 0.82989 0.42963 0.0
C1033 C 0.51575 0.81623 0.43908 0.0
C1034 C 0.52879 0.84949 0.437 0.0
C1035 C 0.52269 0.85594 0.45401 0.0
C1036 C 0.51302 0.84234 0.46345 0.0
H1037 H 0.50903 0.9711 0.48949 0.0
H1038 H 0.50534 0.93702 0.47741 0.0
C1039 C 0.50968 0.82271 0.45614 0.0
C1040 C 0.52584 0.8769 0.46138 0.0
H1041 H 0.54253 0.91142 0.50058 0.0
C1042 C 0.52032 0.88869 0.4494 0.0
C1043 C 0.53431 0.88532 0.47994 0.0
C1044 C 0.54154 0.87376 0.49315 0.0
C1045 C 0.52271 0.9085 0.45554 0.0
C1046 C 0.53051 0.91679 0.47437 0.0
C1047 C 0.53636 0.90508 0.48623 0.0
C1048 C 0.53277 0.93756 0.48199 0.0
C1049 C 0.51713 0.92041 0.44163 0.0
C1050 C 0.54937 0.94921 0.48919 0.0
C1051 C 0.55153 0.96874 0.49632 0.0
C1052 C 0.53711 0.97707 0.49645 0.0
C1053 C 0.52047 0.96529 0.48945 0.0
C1054 C 0.51833 0.94576 0.48242 0.0
H1055 H 0.51629 0.91321 0.42664 0.0
H1056 H 0.50403 0.92253 0.44404 0.0
H1057 H 0.5263 0.93471 0.44355 0.0
H1058 H 0.56071 0.94323 0.48914 0.0
H1059 H 0.56453 0.97731 0.50163 0.0
H1060 H 0.51205 0.30374 0.62398 0.0
H1061 H 0.48666 0.30155 0.64106 0.0
H1062 H 0.51977 0.3113 0.69447 0.0
H1063 H 0.54544 0.31375 0.67743 0.0
H1064 H 0.4745 0.27583 0.66438 0.0
H1065 H 0.49019 0.35034 0.70436 0.0
H1066 H 0.50126 0.34325 0.68456 0.0
H1067 H 0.50692 0.3376 0.70758 0.0
C1068 C 0.51403 0.30554 0.63938 0.0
C1069 C 0.53086 0.309 0.64932 0.0
C1070 C 0.49943 0.30425 0.64913 0.0
C1071 C 0.50125 0.30648 0.66908 0.0
C1072 C 0.51803 0.30989 0.6791 0.0
H1073 H 0.42482 0.30014 0.74973 0.0
H1074 H 0.45136 0.30331 0.73441 0.0
C1075 C 0.5327 0.31119 0.66933 0.0
C1076 C 0.48546 0.30465 0.67914 0.0
H1077 H 0.46537 0.32897 0.71138 0.0
C1078 C 0.4725 0.28747 0.67464 0.0
C1079 C 0.48284 0.31981 0.69257 0.0
C1080 C 0.49594 0.33886 0.69748 0.0
C1081 C 0.4571 0.28497 0.68326 0.0
C1082 C 0.45438 0.3002 0.69652 0.0
C1083 C 0.46741 0.31732 0.70119 0.0
C1084 C 0.43812 0.29861 0.70574 0.0
C1085 C 0.44403 0.26589 0.67834 0.0
C1086 C 0.42179 0.29521 0.69477 0.0
C1087 C 0.40654 0.29349 0.70351 0.0
C1088 C 0.40727 0.29527 0.72345 0.0
C1089 C 0.42371 0.29895 0.73438 0.0
C1090 C 0.43893 0.30067 0.72563 0.0
H1091 H 0.45001 0.25432 0.67211 0.0
H1092 H 0.43822 0.26179 0.69112 0.0
H1093 H 0.43339 0.26692 0.66766 0.0
H1094 H 0.42083 0.294 0.67943 0.0
H1095 H 0.39418 0.29097 0.69464 0.0
H1096 H 0.99189 0.80543 0.63519 0.0
H1097 H 0.99631 0.83282 0.61844 0.0
H1098 H 0.04216 0.81822 0.59857 0.0
H1099 H 0.03812 0.79113 0.61565 0.0
H1100 H 0.04768 0.85618 0.61182 0.0
H1101 H 0.98656 0.83128 0.56167 0.0
H1102 H 0.9831 0.83295 0.58624 0.0
H1103 H 0.99456 0.81591 0.57613 0.0
C1104 C 1.00289 0.80802 0.6272 0.0
C1105 C 0.01462 0.79606 0.62668 0.0
C1106 C 1.00533 0.82361 0.61755 0.0
C1107 C 0.01939 0.82736 0.60699 0.0
C1108 C 0.03118 0.81554 0.60658 0.0
H1109 H 0.03007 0.90008 0.52121 0.0
H1110 H 0.02654 0.87362 0.53904 0.0
C1111 C 0.02883 0.80005 0.61633 0.0
C1112 C 0.02205 0.84379 0.59661 0.0
H1113 H 1.0028 0.86303 0.56214 0.0
C1114 C 0.03789 0.85767 0.60092 0.0
C1115 C 0.00936 0.84556 0.58222 0.0
C1116 C 0.99251 0.83055 0.57613 0.0
C1117 C 0.04135 0.87335 0.59133 0.0
C1118 C 0.02843 0.87545 0.57737 0.0
C1119 C 0.01263 0.8615 0.57297 0.0
C1120 C 0.03114 0.89171 0.56676 0.0
C1121 C 0.05898 0.88722 0.59591 0.0
C1122 C 0.03485 0.91071 0.5764 0.0
C1123 C 0.0372 0.92592 0.56625 0.0
C1124 C 0.03564 0.92244 0.54621 0.0
C1125 C 0.03172 0.90335 0.53662 0.0
C1126 C 0.02953 0.88817 0.54679 0.0
H1127 H 0.06886 0.88072 0.60267 0.0
H1128 H 0.06362 0.89215 0.5829 0.0
H1129 H 0.05801 0.89993 0.60607 0.0
H1130 H 0.03578 0.91377 0.59178 0.0
H1131 H 0.04033 0.94042 0.57412 0.0
H1132 H 0.52918 0.79769 0.87564 0.0
H1133 H 0.50238 0.79347 0.85427 0.0
H1134 H 0.53198 0.81728 0.81217 0.0
H1135 H 0.55896 0.82179 0.83361 0.0
H1136 H 0.5053 0.83456 0.8205 0.0
H1137 H 0.48067 0.7558 0.80565 0.0
H1138 H 0.48635 0.7649 0.83066 0.0
H1139 H 0.50301 0.7673 0.81511 0.0
C1140 C 0.53005 0.80179 0.86174 0.0
C1141 C 0.54619 0.81013 0.85634 0.0
C1142 C 0.51471 0.79921 0.84947 0.0
C1143 C 0.51523 0.80478 0.83153 0.0
C1144 C 0.53134 0.81273 0.8259 0.0
H1145 H 0.42274 0.81686 0.7604 0.0
H1146 H 0.45268 0.81455 0.7693 0.0
C1147 C 0.54672 0.8153 0.83817 0.0
C1148 C 0.49879 0.80403 0.81962 0.0
H1149 H 0.45932 0.77437 0.80118 0.0
C1150 C 0.49536 0.82137 0.81587 0.0
C1151 C 0.48591 0.78678 0.81359 0.0
C1152 C 0.48923 0.76762 0.81629 0.0
C1153 C 0.47894 0.82208 0.80739 0.0
C1154 C 0.46576 0.80495 0.80232 0.0
C1155 C 0.46947 0.78748 0.80516 0.0
C1156 C 0.44758 0.80517 0.79601 0.0
C1157 C 0.47549 0.84127 0.80499 0.0
C1158 C 0.43481 0.80024 0.80788 0.0
C1159 C 0.41781 0.80158 0.8029 0.0
C1160 C 0.4132 0.80779 0.78586 0.0
C1161 C 0.42595 0.81229 0.77373 0.0
C1162 C 0.44302 0.81093 0.77876 0.0
H1163 H 0.48626 0.8534 0.81236 0.0
H1164 H 0.47399 0.8422 0.78961 0.0
H1165 H 0.46323 0.84292 0.81061 0.0
H1166 H 0.43813 0.79584 0.8213 0.0
H1167 H 0.40839 0.79828 0.8127 0.0
H1168 H 0.47688 0.21399 0.10411 0.0
H1169 H 0.48073 0.18501 0.08447 0.0
H1170 H 0.51928 0.17942 0.1284 0.0
H1171 H 0.51541 0.2082 0.14821 0.0
H1172 H 0.51134 0.17839 0.07107 0.0
H1173 H 0.48559 0.12623 0.11706 0.0
H1174 H 0.48193 0.15008 0.11977 0.0
H1175 H 0.50243 0.14632 0.12918 0.0
C1176 C 0.48611 0.20655 0.10963 0.0
C1177 C 0.49579 0.21336 0.12774 0.0
C1178 C 0.48831 0.19001 0.0984 0.0
C1179 C 0.50011 0.17995 0.10511 0.0
C1180 C 0.50986 0.18677 0.12312 0.0
H1181 H 0.54472 0.09688 0.03916 0.0
H1182 H 0.53962 0.12516 0.05899 0.0
C1183 C 0.50768 0.20329 0.13436 0.0
C1184 C 0.50263 0.16264 0.09306 0.0
H1185 H 0.49987 0.11486 0.0915 0.0
C1186 C 0.50877 0.16447 0.07548 0.0
C1187 C 0.4991 0.1445 0.0988 0.0
C1188 C 0.49174 0.14155 0.11715 0.0
C1189 C 0.51174 0.14866 0.06359 0.0
C1190 C 0.50873 0.13065 0.0696 0.0
C1191 C 0.50231 0.12875 0.08703 0.0
C1192 C 0.51192 0.11352 0.05787 0.0
C1193 C 0.51787 0.15132 0.04458 0.0
C1194 C 0.49811 0.09747 0.0511 0.0
C1195 C 0.50103 0.08129 0.03995 0.0
C1196 C 0.51783 0.08086 0.03558 0.0
C1197 C 0.53166 0.09685 0.04247 0.0
C1198 C 0.52875 0.11304 0.05362 0.0
H1199 H 0.51534 0.16456 0.04008 0.0
H1200 H 0.53211 0.1525 0.0457 0.0
H1201 H 0.51137 0.13888 0.03336 0.0
H1202 H 0.48505 0.09754 0.05432 0.0
H1203 H 0.49017 0.06906 0.03489 0.0
H1204 H 0.14919 0.30413 0.36559 0.0
H1205 H 0.17584 0.31155 0.35089 0.0
H1206 H 0.16256 0.36242 0.33584 0.0
H1207 H 0.13558 0.35486 0.35018 0.0
H1208 H 0.17193 0.34204 0.30619 0.0
H1209 H 0.2212 0.35057 0.36821 0.0
H1210 H 0.20539 0.32831 0.36614 0.0
H1211 H 0.19877 0.35058 0.37068 0.0
C1212 C 0.15199 0.31701 0.35933 0.0
C1213 C 0.14026 0.32889 0.35904 0.0
C1214 C 0.16734 0.32133 0.35109 0.0
C1215 C 0.17138 0.33777 0.34264 0.0
C1216 C 0.15977 0.34977 0.34246 0.0
H1217 H 0.27146 0.3449 0.29758 0.0
H1218 H 0.24905 0.35771 0.31298 0.0
C1219 C 0.14435 0.3454 0.35062 0.0
C1220 C 0.18699 0.34132 0.3326 0.0
H1221 H 0.22983 0.34022 0.33724 0.0
C1222 C 0.18469 0.34211 0.31307 0.0
C1223 C 0.20377 0.34202 0.34165 0.0
C1224 C 0.20746 0.34305 0.36288 0.0
C1225 C 0.19836 0.34173 0.30203 0.0
C1226 C 0.21455 0.34005 0.31069 0.0
C1227 C 0.21731 0.34115 0.33052 0.0
C1228 C 0.22774 0.33422 0.2993 0.0
C1229 C 0.19514 0.3424 0.28107 0.0
C1230 C 0.22309 0.31686 0.28643 0.0
C1231 C 0.23574 0.30947 0.27775 0.0
C1232 C 0.25337 0.31922 0.28185 0.0
C1233 C 0.25798 0.33706 0.29411 0.0
C1234 C 0.24523 0.34442 0.30289 0.0
H1235 H 0.18546 0.35094 0.27829 0.0
H1236 H 0.20733 0.34867 0.27548 0.0
H1237 H 0.18973 0.32763 0.27312 0.0
H1238 H 0.20975 0.30848 0.2838 0.0
H1239 H 0.23173 0.29574 0.26833 0.0
H1240 H 0.92639 0.02812 0.17897 0.0
H1241 H 0.94348 0.02869 0.15241 0.0
H1242 H 0.9832 0.07486 0.18588 0.0
H1243 H 0.96607 0.07404 0.21299 0.0
H1244 H 0.95363 0.05147 0.12924 0.0
H1245 H 0.01503 0.04389 0.16661 0.0
H1246 H 0.99527 0.04121 0.17757 0.0
H1247 H 0.00849 0.06473 0.17716 0.0
C1248 C 0.93882 0.03845 0.18099 0.0
C1249 C 0.94458 0.05096 0.19873 0.0
C1250 C 0.94872 0.03878 0.16544 0.0
C1251 C 0.96514 0.05157 0.16655 0.0
C1252 C 0.97095 0.06431 0.18421 0.0
H1253 H 0.04367 0.07375 0.0863 0.0
H1254 H 0.02596 0.07343 0.11236 0.0
C1255 C 0.96097 0.06397 0.19993 0.0
C1256 C 0.9756 0.05147 0.14919 0.0
H1257 H 0.01593 0.05027 0.13517 0.0
C1258 C 0.96725 0.05113 0.13072 0.0
C1259 C 0.99352 0.05094 0.15032 0.0
C1260 C 1.0036 0.05001 0.16891 0.0
C1261 C 0.97604 0.05078 0.11407 0.0
C1262 C 0.99398 0.05032 0.11523 0.0
C1263 C 1.00231 0.05062 0.13369 0.0
C1264 C 1.00455 0.05039 0.09797 0.0
C1265 C 0.96597 0.05156 0.09542 0.0
C1266 C 0.99902 0.03757 0.08029 0.0
C1267 C 0.00939 0.03779 0.06488 0.0
C1268 C 0.02581 0.05082 0.06646 0.0
C1269 C 0.03119 0.0635 0.08409 0.0
C1270 C 0.02094 0.06328 0.09933 0.0
H1271 H 0.95441 0.05748 0.09764 0.0
H1272 H 0.97425 0.06046 0.08681 0.0
H1273 H 0.96129 0.03683 0.08715 0.0
H1274 H 0.98681 0.02695 0.07845 0.0
H1275 H 1.00472 0.02741 0.05196 0.0
H1276 H 0.25215 0.66325 0.49386 0.0
H1277 H 0.25814 0.68064 0.4676 0.0
H1278 H 0.29955 0.65263 0.45593 0.0
H1279 H 0.29389 0.63539 0.48253 0.0
H1280 H 0.30913 0.69121 0.45618 0.0
H1281 H 0.246 0.65979 0.41105 0.0
H1282 H 0.24326 0.66983 0.43469 0.0
H1283 H 0.25308 0.64971 0.43111 0.0
C1284 C 0.26248 0.66069 0.48566 0.0
C1285 C 0.2725 0.64787 0.4902 0.0
C1286 C 0.26581 0.67056 0.47058 0.0
C1287 C 0.27904 0.66761 0.4596 0.0
C1288 C 0.28918 0.65496 0.46417 0.0
H1289 H 0.28497 0.71679 0.35554 0.0
H1290 H 0.28449 0.69416 0.37769 0.0
C1291 C 0.28592 0.64513 0.47934 0.0
C1292 C 0.28261 0.67832 0.4438 0.0
H1293 H 0.26289 0.68904 0.40385 0.0
C1294 C 0.29911 0.69056 0.44458 0.0
C1295 C 0.26963 0.67715 0.4285 0.0
C1296 C 0.25206 0.66325 0.42615 0.0
C1297 C 0.30271 0.70241 0.43092 0.0
C1298 C 0.28932 0.70225 0.41642 0.0
C1299 C 0.27309 0.68932 0.41513 0.0
C1300 C 0.29146 0.716 0.40298 0.0
C1301 C 0.32079 0.71501 0.43222 0.0
C1302 C 0.29562 0.73577 0.40986 0.0
C1303 C 0.29614 0.74875 0.39724 0.0
C1304 C 0.29225 0.74218 0.3775 0.0
C1305 C 0.28829 0.72235 0.37064 0.0
C1306 C 0.2879 0.70938 0.38327 0.0
H1307 H 0.33064 0.70891 0.43962 0.0
H1308 H 0.32442 0.71697 0.41789 0.0
H1309 H 0.32127 0.72929 0.44059 0.0
H1310 H 0.29801 0.74118 0.42503 0.0
H1311 H 0.29941 0.76393 0.40298 0.0
H1312 H 0.61548 0.97415 0.6946 0.0
H1313 H 0.59917 0.9705 0.66299 0.0
H1314 H 0.62769 0.02676 0.65704 0.0
H1315 H 0.6441 0.03047 0.68838 0.0
H1316 H 0.57817 0.99441 0.65366 0.0
H1317 H 0.62881 0.99496 0.60539 0.0
H1318 H 0.6319 0.99012 0.62936 0.0
H1319 H 0.63507 0.01441 0.62515 0.0
C1320 C 0.61848 0.9856 0.68641 0.0
C1321 C 0.63103 1.00263 0.69401 0.0
C1322 C 0.60917 0.98348 0.66837 0.0
C1323 C 0.61243 0.99824 0.65759 0.0
C1324 C 0.62527 0.01501 0.66494 0.0
H1325 H 0.56919 0.04541 0.57016 0.0
H1326 H 0.58618 0.0357 0.59559 0.0
C1327 C 0.63452 0.01718 0.68295 0.0
C1328 C 0.60124 0.9972 0.63961 0.0
H1329 H 0.60293 1.0042 0.59364 0.0
C1330 C 0.58346 0.9961 0.64038 0.0
C1331 C 0.60823 0.99939 0.62237 0.0
C1332 C 0.62702 0.99959 0.62044 0.0
C1333 C 0.5727 0.99846 0.62471 0.0
C1334 C 0.57993 1.00172 0.60781 0.0
C1335 C 0.59749 1.00179 0.6067 0.0
C1336 C 0.56993 1.00693 0.59182 0.0
C1337 C 0.55397 0.99862 0.62671 0.0
C1338 C 0.55526 0.99388 0.58125 0.0
C1339 C 0.54557 0.99941 0.56668 0.0
C1340 C 0.55054 0.01797 0.56246 0.0
C1341 C 0.56527 0.03093 0.57299 0.0
C1342 C 0.57494 0.02542 0.5875 0.0
H1343 H 0.55121 0.99897 0.64169 0.0
H1344 H 0.55064 0.01121 0.62153 0.0
H1345 H 0.54532 0.98551 0.61791 0.0
H1346 H 0.55132 0.97949 0.58428 0.0
H1347 H 0.53428 0.98916 0.55865 0.0
H1348 H 0.29008 0.37029 0.97654 0.0
H1349 H 0.28557 0.3538 0.94339 0.0
H1350 H 0.34008 0.35394 0.94667 0.0
H1351 H 0.34464 0.37005 0.97977 0.0
H1352 H 0.30042 0.36664 0.91314 0.0
H1353 H 0.3177 0.29867 0.92346 0.0
H1354 H 0.31346 0.31519 0.94289 0.0
H1355 H 0.33434 0.31948 0.93429 0.0
C1356 C 0.30106 0.36659 0.97029 0.0
C1357 C 0.31771 0.37145 0.98088 0.0
C1358 C 0.29847 0.35719 0.95131 0.0
C1359 C 0.31243 0.35236 0.94258 0.0
C1360 C 0.32902 0.35709 0.95318 0.0
H1361 H 0.32959 0.30824 0.82811 0.0
H1362 H 0.33214 0.3215 0.86203 0.0
C1363 C 0.33162 0.36643 0.97212 0.0
C1364 C 0.3099 0.34335 0.92212 0.0
H1365 H 0.31576 0.30502 0.89163 0.0
C1366 C 0.30362 0.35307 0.90846 0.0
C1367 C 0.31413 0.32567 0.91597 0.0
C1368 C 0.32012 0.31404 0.92992 0.0
C1369 C 0.30187 0.34587 0.88885 0.0
C1370 C 0.3063 0.32832 0.88271 0.0
C1371 C 0.31245 0.31851 0.89635 0.0
C1372 C 0.30463 0.31993 0.86218 0.0
C1373 C 0.29575 0.35737 0.87484 0.0
C1374 C 0.28829 0.31436 0.85104 0.0
C1375 C 0.28677 0.30675 0.83165 0.0
C1376 C 0.30158 0.30449 0.82296 0.0
C1377 C 0.31792 0.30982 0.83426 0.0
C1378 C 0.3194 0.31739 0.85368 0.0
H1379 H 0.29692 0.37248 0.88154 0.0
H1380 H 0.3033 0.35727 0.86251 0.0
H1381 H 0.28184 0.3509 0.86938 0.0
H1382 H 0.27667 0.31585 0.85736 0.0
H1383 H 0.27396 0.30274 0.82349 0.0
H1384 H 0.98392 0.05949 0.30252 0.0
H1385 H 0.99674 0.05793 0.3343 0.0
H1386 H 0.94721 0.05617 0.35487 0.0
H1387 H 0.93431 0.0584 0.32279 0.0
H1388 H 0.97154 0.07657 0.38242 0.0
H1389 H 0.99522 0.0124 0.35837 0.0
H1390 H 1.00429 0.03154 0.3464 0.0
H1391 H 0.98111 0.02137 0.34271 0.0
C1392 C 0.97558 0.0588 0.31369 0.0
C1393 C 0.95785 0.05897 0.30958 0.0
C1394 C 0.98302 0.05768 0.33211 0.0
C1395 C 0.97309 0.05625 0.34745 0.0
C1396 C 0.95543 0.05702 0.3436 0.0
H1397 H 0.01281 0.01553 0.45067 0.0
H1398 H 0.99839 0.01908 0.42018 0.0
C1399 C 0.94796 0.05833 0.32506 0.0
C1400 C 0.98122 0.05409 0.36721 0.0
H1401 H 1.00696 0.02922 0.38963 0.0
C1402 C 0.9792 0.06611 0.38387 0.0
C1403 C 0.99112 0.04028 0.36984 0.0
C1404 C 0.99291 0.02554 0.35342 0.0
C1405 C 0.9869 0.06506 0.40242 0.0
C1406 C 0.99754 0.05189 0.40492 0.0
C1407 C 0.9992 0.03961 0.38827 0.0
C1408 C 1.00652 0.05004 0.42441 0.0
C1409 C 0.98296 0.07781 0.41925 0.0
C1410 C 0.01643 0.06606 0.43769 0.0
C1411 C 0.02467 0.06402 0.45555 0.0
C1412 C 0.02369 0.04584 0.46086 0.0
C1413 C 0.01406 0.02984 0.44744 0.0
C1414 C 1.00571 0.03189 0.42973 0.0
H1415 H 0.97057 0.08207 0.41596 0.0
H1416 H 0.98202 0.07062 0.4319 0.0
H1417 H 0.99352 0.0911 0.42287 0.0
H1418 H 0.01809 0.08029 0.43422 0.0
H1419 H 0.03199 0.0768 0.46514 0.0
H1420 H 0.26899 0.64434 0.59151 0.0
H1421 H 0.26921 0.66795 0.61978 0.0
H1422 H 0.29554 0.71312 0.59236 0.0
H1423 H 0.29541 0.68968 0.56404 0.0
H1424 H 0.30072 0.69374 0.64117 0.0
H1425 H 0.25349 0.73225 0.61273 0.0
H1426 H 0.25427 0.70843 0.60182 0.0
H1427 H 0.27045 0.72882 0.59848 0.0
C1428 C 0.27474 0.6593 0.59144 0.0
C1429 C 0.28221 0.66513 0.57555 0.0
C1430 C 0.27483 0.67276 0.60757 0.0
C1431 C 0.28219 0.69226 0.60799 0.0
C1432 C 0.28955 0.69816 0.59214 0.0
H1433 H 0.30179 0.79281 0.69699 0.0
H1434 H 0.29741 0.77122 0.66621 0.0
C1435 C 0.28956 0.68472 0.57605 0.0
C1436 C 0.2831 0.70627 0.62547 0.0
H1437 H 0.26829 0.74498 0.64377 0.0
C1438 C 0.29358 0.7049 0.64179 0.0
C1439 C 0.27392 0.72091 0.62606 0.0
C1440 C 0.26228 0.72271 0.6089 0.0
C1441 C 0.29524 0.71789 0.65877 0.0
C1442 C 0.28578 0.73231 0.65953 0.0
C1443 C 0.27543 0.73383 0.64313 0.0
C1444 C 0.28641 0.74572 0.6774 0.0
C1445 C 0.30739 0.71626 0.67562 0.0
C1446 C 0.281 0.7386 0.69361 0.0
C1447 C 0.28361 0.7508 0.71111 0.0
C1448 C 0.29143 0.77038 0.71265 0.0
C1449 C 0.29577 0.77775 0.69617 0.0
C1450 C 0.29329 0.76546 0.67863 0.0
H1451 H 0.31714 0.70818 0.67118 0.0
H1452 H 0.31441 0.73063 0.68355 0.0
H1453 H 0.29972 0.70846 0.68547 0.0
H1454 H 0.27531 0.72347 0.69285 0.0
H1455 H 0.28012 0.74471 0.72357 0.0
H1456 H 0.63007 1.00564 0.79275 0.0
H1457 H 0.61013 0.99936 0.81622 0.0
H1458 H 0.57346 0.02387 0.78601 0.0
H1459 H 0.59354 0.0305 0.76242 0.0
H1460 H 0.58038 0.03869 0.82422 0.0
H1461 H 0.56467 0.95953 0.81365 0.0
H1462 H 0.58771 0.96955 0.81651 0.0
H1463 H 0.57422 0.97286 0.79625 0.0
C1464 C 0.61769 1.00953 0.79092 0.0
C1465 C 0.6134 0.01862 0.77574 0.0
C1466 C 0.60624 1.00575 0.80428 0.0
C1467 C 0.59021 0.01084 0.80265 0.0
C1468 C 0.58573 0.01968 0.78737 0.0
H1469 H 0.51898 0.98346 0.88683 0.0
H1470 H 0.53079 0.98519 0.85651 0.0
C1471 C 0.59721 0.02346 0.77394 0.0
C1472 C 0.57898 1.00842 0.81791 0.0
H1473 H 0.56044 0.9757 0.84425 0.0
C1474 C 0.57574 0.02488 0.82841 0.0
C1475 C 0.57275 0.99036 0.82317 0.0
C1476 C 0.57485 0.97205 0.81166 0.0
C1477 C 0.5673 0.0239 0.84473 0.0
C1478 C 0.56229 1.00604 0.85083 0.0
C1479 C 0.56459 0.98942 0.8397 0.0
C1480 C 0.55531 1.00451 0.86913 0.0
C1481 C 0.56403 0.04203 0.85541 0.0
C1482 C 0.56541 0.01438 0.88624 0.0
C1483 C 0.5587 0.01354 0.90352 0.0
C1484 C 0.54179 1.00265 0.90401 0.0
C1485 C 0.53194 0.9922 0.88688 0.0
C1486 C 0.53868 0.9931 0.86958 0.0
H1487 H 0.56371 0.0529 0.84604 0.0
H1488 H 0.55154 0.0391 0.86154 0.0
H1489 H 0.57472 0.04828 0.86726 0.0
H1490 H 0.57845 0.02293 0.88621 0.0
H1491 H 0.56656 0.02189 0.91642 0.0
H1492 H 0.27179 0.36761 0.07889 0.0
H1493 H 0.27219 0.35441 0.10833 0.0
H1494 H 0.32831 0.36972 0.11593 0.0
H1495 H 0.32805 0.38326 0.08648 0.0
H1496 H 0.2866 0.32499 0.11753 0.0
H1497 H 0.31685 0.39285 0.1676 0.0
H1498 H 0.30809 0.39246 0.14332 0.0
H1499 H 0.32889 0.38711 0.14836 0.0
C1500 C 0.28426 0.36823 0.08679 0.0
C1501 C 0.2999 0.37659 0.08029 0.0
C1502 C 0.28445 0.36065 0.10366 0.0
C1503 C 0.30026 0.3613 0.11454 0.0
C1504 C 0.31593 0.3694 0.10801 0.0
H1505 H 0.31651 0.31737 0.22176 0.0
H1506 H 0.32154 0.33229 0.19337 0.0
C1507 C 0.31576 0.37701 0.09108 0.0
C1508 C 0.30011 0.35307 0.13244 0.0
H1509 H 0.31069 0.36453 0.18087 0.0
C1510 C 0.29192 0.33365 0.13136 0.0
C1511 C 0.30714 0.36431 0.15051 0.0
C1512 C 0.31563 0.38538 0.15265 0.0
C1513 C 0.2904 0.32523 0.14779 0.0
C1514 C 0.29699 0.33658 0.1659 0.0
C1515 C 0.30562 0.35587 0.16699 0.0
C1516 C 0.2942 0.3288 0.1838 0.0
C1517 C 0.28176 0.30419 0.14561 0.0
C1518 C 0.27723 0.32244 0.18815 0.0
C1519 C 0.27435 0.314 0.20428 0.0
C1520 C 0.28839 0.31178 0.21648 0.0
C1521 C 0.30544 0.31884 0.21257 0.0
C1522 C 0.30833 0.32734 0.19637 0.0
H1523 H 0.2818 0.29649 0.13101 0.0
H1524 H 0.28833 0.29728 0.15601 0.0
H1525 H 0.268 0.30257 0.14829 0.0
H1526 H 0.26615 0.32378 0.17889 0.0
H1527 H 0.26107 0.30887 0.20699 0.0
H1528 H 0.27337 0.98697 0.01116 0.0
H1529 H 0.2499 1.00374 0.00983 0.0
H1530 H 0.21876 0.95736 0.96751 0.0
H1531 H 0.24208 0.94032 0.96889 0.0
H1532 H 0.23344 0.01559 0.97816 0.0
H1533 H 0.18731 0.96296 0.00971 0.0
H1534 H 0.21022 0.96355 0.01086 0.0
H1535 H 0.19594 0.9532 0.98915 0.0
C1536 C 0.26153 0.9803 1.00157 0.0
C1537 C 0.25953 0.96224 0.99023 0.0
C1538 C 0.24817 0.98995 1.00079 0.0
C1539 C 0.23257 0.98168 0.98873 0.0
C1540 C 0.23062 0.96382 0.97713 0.0
H1541 H 0.13585 0.01994 0.98354 0.0
H1542 H 0.15859 1.00376 0.97457 0.0
C1543 C 0.24398 0.95414 0.97791 0.0
C1544 C 0.21827 0.99171 0.98861 0.0
H1545 H 0.17733 0.98893 1.00069 0.0
C1546 C 0.22112 0.00975 0.98298 0.0
C1547 C 0.20222 0.98397 0.99484 0.0
C1548 C 0.1987 0.96493 1.00164 0.0
C1549 C 0.20837 0.02038 0.98362 0.0
C1550 C 0.19251 0.01286 0.99033 0.0
C1551 C 0.18949 0.99461 0.99547 0.0
C1552 C 0.17934 0.02416 0.99356 0.0
C1553 C 0.21197 0.03956 0.97714 0.0
C1554 C 0.18356 0.04116 1.00696 0.0
C1555 C 0.17064 0.05048 0.01206 0.0
C1556 C 0.15323 0.04288 1.00394 0.0
C1557 C 0.14917 0.02628 0.98992 0.0
C1558 C 0.16211 0.01695 0.98484 0.0
H1559 H 0.22197 0.04057 0.96718 0.0
H1560 H 0.19994 0.04222 0.97 0.0
H1561 H 0.21699 0.05104 0.98971 0.0
H1562 H 0.19672 0.04679 0.01411 0.0
H1563 H 0.17419 0.06335 0.02276 0.0
H1564 H 0.73585 0.61856 0.02246 0.0
H1565 H 0.70538 0.60099 0.01886 0.0
H1566 H 0.69441 0.62604 0.96949 0.0
H1567 H 0.72491 0.64381 0.97303 0.0
H1568 H 0.67047 0.62803 0.99585 0.0
H1569 H 0.67976 0.55425 0.97892 0.0
H1570 H 0.69306 0.56818 1.00011 0.0
H1571 H 0.69642 0.5752 0.97741 0.0
C1572 C 0.72702 0.62025 0.01072 0.0
C1573 C 0.73289 0.63257 0.99799 0.0
C1574 C 0.7096 0.61009 0.00863 0.0
C1575 C 0.69764 0.61197 0.99375 0.0
C1576 C 0.70342 0.62426 0.98101 0.0
H1577 H 0.59112 0.53894 0.96779 0.0
H1578 H 0.62069 0.55654 0.9646 0.0
C1579 C 0.72088 0.63439 0.98304 0.0
C1580 C 0.67898 0.60171 0.992 0.0
H1581 H 0.65191 0.55714 0.98729 0.0
C1582 C 0.6664 0.61252 0.99381 0.0
C1583 C 0.67361 0.58147 0.98908 0.0
C1584 C 0.68638 0.56906 0.98608 0.0
C1585 C 0.6487 0.60367 0.99349 0.0
C1586 C 0.64346 0.58347 0.9915 0.0
C1587 C 0.65594 0.57263 0.98896 0.0
C1588 C 0.62526 0.5734 0.99295 0.0
C1589 C 0.63577 0.61603 0.99534 0.0
C1590 C 0.61807 0.57693 0.00994 0.0
C1591 C 0.6013 0.56689 0.01179 0.0
C1592 C 0.59132 0.55308 0.99668 0.0
C1593 C 0.59847 0.54958 0.97961 0.0
C1594 C 0.61534 0.5596 0.9778 0.0
H1595 H 0.64083 0.63024 0.99132 0.0
H1596 H 0.62323 0.60895 0.9863 0.0
H1597 H 0.63318 0.61845 0.01038 0.0
H1598 H 0.62559 0.58717 0.02197 0.0
H1599 H 0.59631 0.56965 0.02525 0.0
H1600 H 0.71989 0.48185 0.27476 0.0
H1601 H 0.73675 0.45686 0.27274 0.0
H1602 H 0.6897 0.41379 0.27198 0.0
H1603 H 0.67306 0.43816 0.27361 0.0
H1604 H 0.74427 0.43072 0.29386 0.0
H1605 H 0.70627 0.38706 0.22773 0.0
H1606 H 0.70375 0.41075 0.23645 0.0
H1607 H 0.69251 0.39038 0.24582 0.0
C1608 C 0.71306 0.46707 0.27406 0.0
C1609 C 0.69475 0.46252 0.27419 0.0
C1610 C 0.72282 0.45255 0.27292 0.0
C1611 C 0.71478 0.43276 0.27164 0.0
C1612 C 0.69661 0.42845 0.27222 0.0
H1613 H 0.7446 0.31979 0.26482 0.0
H1614 H 0.72991 0.34633 0.26657 0.0
C1615 C 0.68695 0.44278 0.27335 0.0
C1616 C 0.72498 0.41667 0.27003 0.0
H1617 H 0.72445 0.37177 0.24527 0.0
C1618 C 0.73991 0.41798 0.28304 0.0
C1619 C 0.71977 0.39952 0.25611 0.0
C1620 C 0.70482 0.39688 0.24062 0.0
C1621 C 0.74906 0.40298 0.28294 0.0
C1622 C 0.74372 0.38574 0.26914 0.0
C1623 C 0.72888 0.38454 0.25605 0.0
C1624 C 0.75312 0.36897 0.26802 0.0
C1625 C 0.76409 0.4056 0.29833 0.0
C1626 C 0.77136 0.37189 0.26784 0.0
C1627 C 0.77989 0.35647 0.26677 0.0
C1628 C 0.77071 0.33715 0.2657 0.0
C1629 C 0.75244 0.33417 0.26562 0.0
C1630 C 0.7439 0.34961 0.26663 0.0
H1631 H 0.76312 0.41601 0.31098 0.0
H1632 H 0.76473 0.39182 0.30297 0.0
H1633 H 0.77643 0.41131 0.29275 0.0
H1634 H 0.77918 0.3862 0.26826 0.0
H1635 H 0.79387 0.3598 0.26678 0.0
H1636 H 0.86124 0.48293 0.50889 0.0
H1637 H 0.8915 0.49631 0.52247 0.0
H1638 H 0.87635 0.50151 0.57903 0.0
H1639 H 0.84584 0.4878 0.56553 0.0
H1640 H 0.90804 0.53142 0.54664 0.0
H1641 H 0.91197 0.46777 0.58043 0.0
H1642 H 0.89411 0.46731 0.56274 0.0
H1643 H 0.8955 0.48033 0.58639 0.0
C1644 C 0.86426 0.48704 0.52421 0.0
C1645 C 0.85115 0.48413 0.53614 0.0
C1646 C 0.88157 0.49475 0.53195 0.0
C1647 C 0.88615 0.49969 0.55175 0.0
C1648 C 0.87307 0.49753 0.56372 0.0
H1649 H 0.99959 0.5459 0.57058 0.0
H1650 H 0.97058 0.54254 0.58061 0.0
C1651 C 0.85567 0.48978 0.55597 0.0
C1652 C 0.90481 0.50607 0.55942 0.0
H1653 H 0.93818 0.48914 0.57827 0.0
C1654 C 0.91468 0.52251 0.55403 0.0
C1655 C 0.9133 0.49434 0.56907 0.0
C1656 C 0.90328 0.47639 0.57497 0.0
C1657 C 0.93292 0.52667 0.55652 0.0
C1658 C 0.94144 0.51419 0.56499 0.0
C1659 C 0.93156 0.49867 0.57187 0.0
C1660 C 0.95993 0.51469 0.56312 0.0
C1661 C 0.94282 0.54337 0.54851 0.0
C1662 C 0.96383 0.49958 0.55105 0.0
C1663 C 0.98037 0.50136 0.54545 0.0
C1664 C 0.99332 0.51832 0.55179 0.0
C1665 C 0.98988 0.53271 0.56532 0.0
C1666 C 0.97327 0.53088 0.57099 0.0
H1667 H 0.93404 0.55016 0.54034 0.0
H1668 H 0.95064 0.55442 0.56034 0.0
H1669 H 0.9519 0.53865 0.53897 0.0
H1670 H 0.95373 0.48691 0.54489 0.0
H1671 H 0.98264 0.48989 0.53522 0.0
H1672 H 0.41213 0.12486 0.29217 0.0
H1673 H 0.3908 0.14083 0.27905 0.0
H1674 H 0.35287 0.08668 0.26471 0.0
H1675 H 0.37387 0.07072 0.27822 0.0
H1676 H 0.37265 0.13496 0.24271 0.0
H1677 H 0.3276 0.12001 0.29669 0.0
H1678 H 0.34947 0.11665 0.29931 0.0
H1679 H 0.33245 0.09909 0.2838 0.0
C1680 C 0.39923 0.11638 0.28628 0.0
C1681 C 0.39459 0.0966 0.28644 0.0
C1682 C 0.3871 0.12549 0.27873 0.0
C1683 C 0.37022 0.11494 0.27119 0.0
C1684 C 0.36572 0.09512 0.27085 0.0
H1685 H 0.27968 0.1571 0.2355 0.0
H1686 H 0.29932 0.13542 0.2373 0.0
C1687 C 0.37775 0.08604 0.27855 0.0
C1688 C 0.35722 0.12478 0.26403 0.0
H1689 H 0.31842 0.13518 0.27207 0.0
C1690 C 0.36074 0.13495 0.24904 0.0
C1691 C 0.3417 0.12465 0.27232 0.0
C1692 C 0.3376 0.11467 0.28903 0.0
C1693 C 0.3492 0.14527 0.24228 0.0
C1694 C 0.33389 0.14544 0.25085 0.0
C1695 C 0.33012 0.1348 0.26543 0.0
C1696 C 0.32253 0.15822 0.24657 0.0
C1697 C 0.35358 0.15605 0.2262 0.0
C1698 C 0.3292 0.1781 0.25098 0.0
C1699 C 0.31807 0.19038 0.25008 0.0
C1700 C 0.30009 0.18297 0.24483 0.0
C1701 C 0.29351 0.1631 0.23954 0.0
C1702 C 0.30467 0.15077 0.24056 0.0
H1703 H 0.36245 0.1498 0.21743 0.0
H1704 H 0.34164 0.15607 0.21683 0.0
H1705 H 0.36029 0.17114 0.23221 0.0
H1706 H 0.34288 0.18411 0.256 0.0
H1707 H 0.32346 0.20568 0.25405 0.0
H1708 H 0.3189 0.13734 0.47292 0.0
H1709 H 0.34317 0.12151 0.4717 0.0
H1710 H 0.35695 0.13902 0.53241 0.0
H1711 H 0.3327 0.1545 0.53383 0.0
H1712 H 0.37855 0.13669 0.48189 0.0
H1713 H 0.35487 0.08219 0.52604 0.0
H1714 H 0.34108 0.09606 0.51628 0.0
H1715 H 0.35597 0.10612 0.5377 0.0
C1716 C 0.32701 0.13768 0.48604 0.0
C1717 C 0.32373 0.14709 0.5035 0.0
C1718 C 0.34091 0.12866 0.4853 0.0
C1719 C 0.35174 0.12877 0.50201 0.0
C1720 C 0.34856 0.13831 0.51939 0.0
H1721 H 0.44461 0.09218 0.53535 0.0
H1722 H 0.41965 0.10662 0.53277 0.0
C1723 C 0.3347 0.14726 0.52015 0.0
C1724 C 0.36666 0.11941 0.50135 0.0
H1725 H 0.38466 0.08681 0.52079 0.0
C1726 C 0.37981 0.12564 0.49023 0.0
C1727 C 0.3683 0.10494 0.5122 0.0
C1728 C 0.35422 0.09679 0.52358 0.0
C1729 C 0.39482 0.11831 0.49023 0.0
C1730 C 0.39664 0.10422 0.50148 0.0
C1731 C 0.38334 0.09773 0.51229 0.0
C1732 C 0.41235 0.09619 0.50257 0.0
C1733 C 0.40886 0.12615 0.47868 0.0
C1734 C 0.41663 0.08553 0.48643 0.0
C1735 C 0.43086 0.0771 0.48788 0.0
C1736 C 0.44109 0.07906 0.50554 0.0
C1737 C 0.43691 0.09007 0.52159 0.0
C1738 C 0.42268 0.09844 0.52012 0.0
H1739 H 0.40732 0.13981 0.47433 0.0
H1740 H 0.42196 0.12861 0.48686 0.0
H1741 H 0.4082 0.11559 0.46558 0.0
H1742 H 0.40868 0.08329 0.4728 0.0
H1743 H 0.43347 0.06851 0.47526 0.0
H1744 H 0.69949 0.58583 0.29811 0.0
H1745 H 0.71422 0.61981 0.29946 0.0
H1746 H 0.72829 0.60606 0.24326 0.0
H1747 H 0.71339 0.57269 0.24165 0.0
H1748 H 0.74606 0.64029 0.29889 0.0
H1749 H 0.70844 0.64961 0.2339 0.0
H1750 H 0.70258 0.62844 0.2445 0.0
H1751 H 0.71911 0.63051 0.22869 0.0
C1752 C 0.70571 0.59002 0.28602 0.0
C1753 C 0.70493 0.57615 0.2697 0.0
C1754 C 0.71418 0.60963 0.28677 0.0
C1755 C 0.72214 0.61614 0.27122 0.0
C1756 C 0.72184 0.60208 0.25527 0.0
H1757 H 0.8035 0.72192 0.27593 0.0
H1758 H 0.78607 0.69012 0.27726 0.0
C1759 C 0.71335 0.58268 0.25446 0.0
C1760 C 0.73104 0.63726 0.27158 0.0
H1761 H 0.73493 0.67357 0.24497 0.0
C1762 C 0.74345 0.64749 0.28709 0.0
C1763 C 0.72768 0.64739 0.25655 0.0
C1764 C 0.71359 0.63849 0.24009 0.0
C1765 C 0.75281 0.66676 0.28767 0.0
C1766 C 0.75027 0.67645 0.27205 0.0
C1767 C 0.73737 0.66647 0.25689 0.0
C1768 C 0.76103 0.69655 0.27102 0.0
C1769 C 0.76511 0.67662 0.30539 0.0
C1770 C 0.75327 0.7113 0.26616 0.0
C1771 C 0.76345 0.72982 0.26508 0.0
C1772 C 0.7818 0.73428 0.2688 0.0
C1773 C 0.78946 0.7194 0.27326 0.0
C1774 C 0.77938 0.70101 0.27423 0.0
H1775 H 0.76106 0.67045 0.31806 0.0
H1776 H 0.77832 0.67449 0.30357 0.0
H1777 H 0.76583 0.69223 0.30824 0.0
H1778 H 0.73924 0.70855 0.26326 0.0
H1779 H 0.75694 0.74049 0.26107 0.0
H1780 H 0.90475 0.49083 0.7958 0.0
H1781 H 0.88981 0.45701 0.78623 0.0
H1782 H 0.86592 0.46926 0.7344 0.0
H1783 H 0.88079 0.50313 0.74381 0.0
H1784 H 0.84249 0.44868 0.75636 0.0
H1785 H 0.89793 0.41553 0.7437 0.0
H1786 H 0.9012 0.43184 0.76589 0.0
H1787 H 0.89926 0.44072 0.74382 0.0
C1788 C 0.89647 0.48631 0.78227 0.0
C1789 C 0.89392 0.49965 0.77058 0.0
C1790 C 0.88805 0.46697 0.77677 0.0
C1791 C 0.87697 0.46067 0.75951 0.0
C1792 C 0.87455 0.47388 0.7477 0.0
H1793 H 0.8241 0.33827 0.72536 0.0
H1794 H 0.83848 0.37111 0.72231 0.0
C1795 C 0.88305 0.49321 0.75312 0.0
C1796 C 0.86688 0.44055 0.75463 0.0
H1797 H 0.87129 0.39446 0.74825 0.0
C1798 C 0.84873 0.43681 0.75423 0.0
C1799 C 0.87507 0.42515 0.75167 0.0
C1800 C 0.89443 0.42845 0.7511 0.0
C1801 C 0.83866 0.418 0.75211 0.0
C1802 C 0.847 0.40267 0.7504 0.0
C1803 C 0.86499 0.40632 0.74965 0.0
C1804 C 0.83759 0.38307 0.75162 0.0
C1805 C 0.81926 0.41462 0.75237 0.0
C1806 C 0.83244 0.37909 0.76909 0.0
C1807 C 0.82444 0.36046 0.77093 0.0
C1808 C 0.82136 0.34546 0.75528 0.0
C1809 C 0.82625 0.34954 0.73764 0.0
C1810 C 0.83448 0.36823 0.73587 0.0
H1811 H 0.81436 0.42718 0.74927 0.0
H1812 H 0.81227 0.4018 0.74182 0.0
H1813 H 0.81614 0.41199 0.76671 0.0
H1814 H 0.83491 0.39038 0.78143 0.0
H1815 H 0.82076 0.35784 0.78469 0.0
H1816 H 0.05954 0.84679 0.08788 0.0
H1817 H 0.05409 0.87199 0.07037 0.0
H1818 H 0.09987 0.91131 0.10225 0.0
H1819 H 0.10539 0.88633 0.11977 0.0
H1820 H 0.04907 0.90895 0.08646 0.0
H1821 H 0.10601 0.91615 0.04617 0.0
H1822 H 0.09824 0.89539 0.05694 0.0
H1823 H 0.11107 0.9172 0.07136 0.0
C1824 C 0.06855 0.86074 0.09105 0.0
C1825 C 0.08295 0.86445 0.10524 0.0
C1826 C 0.06539 0.87517 0.08105 0.0
C1827 C 0.07668 0.89353 0.0848 0.0
C1828 C 0.09112 0.8972 0.09883 0.0
H1829 H 0.08257 1.00294 0.04674 0.0
H1830 H 0.08779 0.97541 0.06035 0.0
C1831 C 0.09421 0.88287 0.10893 0.0
C1832 C 0.07304 0.90911 0.07466 0.0
H1833 H 0.08993 0.94003 0.04558 0.0
C1834 C 0.05792 0.91564 0.07738 0.0
C1835 C 0.08465 0.91798 0.06293 0.0
C1836 C 0.10085 0.91126 0.05899 0.0
C1837 C 0.05433 0.93108 0.06918 0.0
C1838 C 0.06593 0.93998 0.05739 0.0
C1839 C 0.08099 0.93329 0.05454 0.0
C1840 C 0.06289 0.9565 0.04828 0.0
C1841 C 0.03845 0.93815 0.07386 0.0
C1842 C 0.04734 0.95506 0.03646 0.0
C1843 C 0.04425 0.97087 0.02875 0.0
C1844 C 0.05676 0.98849 0.03238 0.0
C1845 C 0.07261 0.98966 0.04359 0.0
C1846 C 0.07562 0.97388 0.05143 0.0
H1847 H 0.03395 0.93373 0.08715 0.0
H1848 H 0.04109 0.954 0.07557 0.0
H1849 H 0.02768 0.93191 0.06211 0.0
H1850 H 0.03749 0.9417 0.03327 0.0
H1851 H 0.03195 0.9693 0.02006 0.0
H1852 H 0.94122 0.23534 0.88121 0.0
H1853 H 0.91568 0.23922 0.8618 0.0
H1854 H 0.94877 0.28016 0.83492 0.0
H1855 H 0.97443 0.27606 0.85402 0.0
H1856 H 0.90264 0.27039 0.85991 0.0
H1857 H 0.91979 0.24442 0.78902 0.0
H1858 H 0.93112 0.24127 0.8109 0.0
H1859 H 0.93628 0.2639 0.80275 0.0
C1860 C 0.94312 0.24507 0.87107 0.0
C1861 C 0.95997 0.25527 0.86913 0.0
C1862 C 0.92845 0.24732 0.85999 0.0
C1863 C 0.93022 0.25979 0.84664 0.0
C1864 C 0.94701 0.27011 0.84476 0.0
H1865 H 0.84462 0.30208 0.79478 0.0
H1866 H 0.8702 0.29873 0.81475 0.0
C1867 C 0.96171 0.26781 0.85578 0.0
C1868 C 0.91445 0.26222 0.83503 0.0
H1869 H 0.89565 0.2587 0.78929 0.0
C1870 C 0.90111 0.2678 0.84446 0.0
C1871 C 0.91226 0.25862 0.81485 0.0
C1872 C 0.92553 0.25154 0.80375 0.0
C1873 C 0.88583 0.27004 0.83433 0.0
C1874 C 0.88387 0.26697 0.81415 0.0
C1875 C 0.89714 0.26124 0.80473 0.0
C1876 C 0.86801 0.26907 0.80247 0.0
C1877 C 0.87173 0.27518 0.84538 0.0
C1878 C 0.85834 0.2537 0.78862 0.0
C1879 C 0.84381 0.25566 0.77711 0.0
C1880 C 0.83859 0.27304 0.77913 0.0
C1881 C 0.84818 0.28842 0.79304 0.0
C1882 C 0.86279 0.28649 0.80452 0.0
H1883 H 0.87302 0.27176 0.86 0.0
H1884 H 0.87272 0.2908 0.84668 0.0
H1885 H 0.8586 0.26749 0.83802 0.0
H1886 H 0.86206 0.24014 0.78667 0.0
H1887 H 0.83672 0.24356 0.7665 0.0
H1888 H 0.5531 0.25387 0.59795 0.0
H1889 H 0.54556 0.21945 0.58499 0.0
H1890 H 0.59965 0.22134 0.58058 0.0
H1891 H 0.60732 0.25564 0.59339 0.0
H1892 H 0.55406 0.19913 0.54856 0.0
H1893 H 0.58301 0.17926 0.61413 0.0
H1894 H 0.57705 0.20185 0.61405 0.0
H1895 H 0.59661 0.19822 0.60494 0.0
C1896 C 0.56339 0.247 0.59411 0.0
C1897 C 0.58084 0.25756 0.5968 0.0
C1898 C 0.55905 0.22732 0.58669 0.0
C1899 C 0.57207 0.21779 0.58203 0.0
C1900 C 0.58942 0.22836 0.58428 0.0
H1901 H 0.58054 0.10183 0.54598 0.0
H1902 H 0.58481 0.1361 0.55724 0.0
C1903 C 0.59376 0.24802 0.59155 0.0
C1904 C 0.56768 0.19674 0.57514 0.0
H1905 H 0.57386 0.15469 0.58719 0.0
C1906 C 0.55826 0.18935 0.55702 0.0
C1907 C 0.57321 0.18404 0.5862 0.0
C1908 C 0.58292 0.19114 0.60598 0.0
C1909 C 0.55471 0.16967 0.54941 0.0
C1910 C 0.56036 0.15694 0.56044 0.0
C1911 C 0.56953 0.16437 0.5787 0.0
C1912 C 0.55745 0.13599 0.55316 0.0
C1913 C 0.54551 0.16283 0.52937 0.0
C1914 C 0.54061 0.12432 0.54722 0.0
C1915 C 0.53811 0.10462 0.54061 0.0
C1916 C 0.55239 0.0961 0.54005 0.0
C1917 C 0.56921 0.10781 0.54622 0.0
C1918 C 0.57169 0.12747 0.55268 0.0
H1919 H 0.54637 0.17477 0.52115 0.0
H1920 H 0.55107 0.15164 0.52161 0.0
H1921 H 0.53154 0.15656 0.52992 0.0
H1922 H 0.52935 0.1304 0.54788 0.0
H1923 H 0.52497 0.09607 0.53609 0.0
H1924 H 0.54543 0.76854 0.35249 0.0
H1925 H 0.57089 0.7723 0.33503 0.0
H1926 H 0.60279 0.76628 0.38474 0.0
H1927 H 0.57757 0.76249 0.40222 0.0
H1928 H 0.60348 0.80087 0.34524 0.0
H1929 H 0.61285 0.72703 0.34177 0.0
H1930 H 0.59271 0.73316 0.34687 0.0
H1931 H 0.611 0.73867 0.36519 0.0
C1932 C 0.55784 0.76786 0.35966 0.0
C1933 C 0.5594 0.76514 0.37876 0.0
C1934 C 0.57238 0.77007 0.34967 0.0
C1935 C 0.58872 0.76935 0.3585 0.0
C1936 C 0.59028 0.76658 0.37752 0.0
H1937 H 0.69332 0.77807 0.32871 0.0
H1938 H 0.66699 0.77524 0.34436 0.0
C1939 C 0.57582 0.76449 0.38752 0.0
C1940 C 0.60429 0.772 0.34813 0.0
H1941 H 0.63573 0.75001 0.33311 0.0
C1942 C 0.61046 0.78971 0.34243 0.0
C1943 C 0.61345 0.75747 0.34456 0.0
C1944 C 0.60712 0.73794 0.34975 0.0
C1945 C 0.62581 0.79346 0.33376 0.0
C1946 C 0.63506 0.77896 0.33029 0.0
C1947 C 0.62873 0.76117 0.33581 0.0
C1948 C 0.65134 0.78186 0.32105 0.0
C1949 C 0.63228 0.81315 0.32899 0.0
C1950 C 0.65144 0.7866 0.30271 0.0
C1951 C 0.66658 0.78848 0.29379 0.0
C1952 C 0.68199 0.78546 0.3029 0.0
C1953 C 0.68186 0.78085 0.32134 0.0
C1954 C 0.66673 0.77904 0.33027 0.0
H1955 H 0.62672 0.824 0.33734 0.0
H1956 H 0.6467 0.8178 0.33174 0.0
H1957 H 0.62824 0.81282 0.31366 0.0
H1958 H 0.63969 0.78849 0.2951 0.0
H1959 H 0.66616 0.7922 0.27967 0.0
H1960 H 0.10193 0.30256 0.44239 0.0
H1961 H 0.09563 0.27407 0.45741 0.0
H1962 H 0.06761 0.24075 0.40438 0.0
H1963 H 0.07401 0.26909 0.38915 0.0
H1964 H 0.06269 0.25164 0.46088 0.0
H1965 H 0.10138 0.20869 0.42007 0.0
H1966 H 0.10425 0.23412 0.42051 0.0
H1967 H 0.08614 0.21745 0.40575 0.0
C1968 C 0.09453 0.28915 0.43386 0.0
C1969 C 0.08853 0.28808 0.41454 0.0
C1970 C 0.09092 0.2729 0.44249 0.0
C1971 C 0.08135 0.25528 0.43194 0.0
C1972 C 0.07531 0.25415 0.41267 0.0
H1973 H 0.04657 0.14257 0.46303 0.0
H1974 H 0.05145 0.16994 0.44619 0.0
C1975 C 0.0789 0.27038 0.40402 0.0
C1976 C 0.07726 0.23824 0.44131 0.0
H1977 H 0.08365 0.19321 0.44076 0.0
C1978 C 0.06729 0.23887 0.45652 0.0
C1979 C 0.08322 0.22159 0.4355 0.0
C1980 C 0.09446 0.22039 0.41967 0.0
C1981 C 0.06304 0.22323 0.46603 0.0
C1982 C 0.06917 0.20667 0.46038 0.0
C1983 C 0.07896 0.20594 0.44503 0.0
C1984 C 0.06602 0.19018 0.47061 0.0
C1985 C 0.05183 0.22447 0.4819 0.0
C1986 C 0.0728 0.19248 0.48982 0.0
C1987 C 0.07012 0.1769 0.49944 0.0
C1988 C 0.06067 0.15867 0.49 0.0
C1989 C 0.05401 0.15638 0.47067 0.0
C1990 C 0.05671 0.172 0.46105 0.0
H1991 H 0.04442 0.23569 0.48105 0.0
H1992 H 0.04249 0.21054 0.48157 0.0
H1993 H 0.06027 0.22821 0.4958 0.0
H1994 H 0.08037 0.2063 0.49732 0.0
H1995 H 0.07575 0.17907 0.51419 0.0
H1996 H 0.53926 0.23039 0.21868 0.0
H1997 H 0.56826 0.23688 0.23633 0.0
H1998 H 0.57565 0.29697 0.23331 0.0
H1999 H 0.54672 0.29053 0.2152 0.0
H2000 H 0.60147 0.28276 0.2203 0.0
H2001 H 0.59064 0.26061 0.28971 0.0
H2002 H 0.5795 0.24214 0.27032 0.0
H2003 H 0.57337 0.26473 0.27382 0.0
C2004 C 0.54688 0.24506 0.2221 0.0
C2005 C 0.54073 0.25992 0.21541 0.0
C2006 C 0.56343 0.24878 0.23236 0.0
C2007 C 0.57405 0.26746 0.23637 0.0
C2008 C 0.56763 0.28247 0.23046 0.0
H2009 H 0.68732 0.29863 0.27151 0.0
H2010 H 0.65716 0.30167 0.26692 0.0
C2011 C 0.5511 0.27874 0.2201 0.0
C2012 C 0.59254 0.27078 0.24446 0.0
H2013 H 0.61911 0.26082 0.27992 0.0
C2014 C 0.60536 0.27837 0.23356 0.0
C2015 C 0.59758 0.26502 0.26175 0.0
C2016 C 0.58453 0.25786 0.27466 0.0
C2017 C 0.62299 0.27932 0.23888 0.0
C2018 C 0.62793 0.27267 0.25567 0.0
C2019 C 0.61523 0.26584 0.26702 0.0
C2020 C 0.64597 0.27112 0.26061 0.0
C2021 C 0.63611 0.28643 0.22598 0.0
C2022 C 0.64955 0.25295 0.25911 0.0
C2023 C 0.66671 0.25116 0.26159 0.0
C2024 C 0.68062 0.26753 0.26572 0.0
C2025 C 0.67692 0.28575 0.26801 0.0
C2026 C 0.65972 0.28752 0.26549 0.0
H2027 H 0.62978 0.28825 0.21209 0.0
H2028 H 0.64451 0.30051 0.23303 0.0
H2029 H 0.64462 0.27634 0.22325 0.0
H2030 H 0.63909 0.24013 0.25527 0.0
H2031 H 0.66908 0.23692 0.2595 0.0
H2032 H 0.56753 0.88978 0.8884 0.0
H2033 H 0.56254 0.91656 0.91038 0.0
H2034 H 0.59896 0.90655 0.95403 0.0
H2035 H 0.60368 0.87942 0.93231 0.0
H2036 H 0.56894 0.91013 0.96704 0.0
H2037 H 0.59253 0.97 0.92875 0.0
H2038 H 0.57607 0.95085 0.91452 0.0
H2039 H 0.59682 0.94663 0.92246 0.0
C2040 C 0.57462 0.89339 0.90262 0.0
C2041 C 0.586 0.88248 0.90862 0.0
C2042 C 0.57183 0.9088 0.91512 0.0
C2043 C 0.58057 0.91374 0.93375 0.0
C2044 C 0.59213 0.90302 0.93969 0.0
H2045 H 0.58595 0.01579 0.01579 0.0
H2046 H 0.59181 0.99049 0.99249 0.0
C2047 C 0.59482 0.88753 0.92725 0.0
C2048 C 0.5769 0.92928 0.94747 0.0
H2049 H 0.57707 0.97686 0.95494 0.0
C2050 C 0.5708 0.92474 0.96444 0.0
C2051 C 0.57943 0.94836 0.94408 0.0
C2052 C 0.58673 0.95433 0.92655 0.0
C2053 C 0.56709 0.93872 0.97809 0.0
C2054 C 0.56916 0.95766 0.97447 0.0
C2055 C 0.57536 0.96226 0.95757 0.0
C2056 C 0.56544 0.97301 0.98832 0.0
C2057 C 0.56132 0.93315 0.99643 0.0
C2058 C 0.54864 0.9716 0.99357 0.0
C2059 C 0.54533 0.98593 0.00701 0.0
C2060 C 0.55869 1.00199 0.01516 0.0
C2061 C 0.57545 1.00345 0.00981 0.0
C2062 C 0.57878 0.98911 0.99642 0.0
H2063 H 0.56471 0.91962 0.99906 0.0
H2064 H 0.56735 0.9446 0.00878 0.0
H2065 H 0.54698 0.93091 0.99559 0.0
H2066 H 0.53811 0.95943 0.98725 0.0
H2067 H 0.53234 0.98445 0.01105 0.0
H2068 H 0.93218 0.7649 0.65815 0.0
H2069 H 0.90724 0.76112 0.67606 0.0
H2070 H 0.92834 0.72323 0.70751 0.0
H2071 H 0.95373 0.7276 0.69017 0.0
H2072 H 0.88209 0.73106 0.68109 0.0
H2073 H 0.92375 0.76395 0.74994 0.0
H2074 H 0.93215 0.76401 0.72738 0.0
H2075 H 0.92841 0.74259 0.73774 0.0
C2076 C 0.93148 0.75569 0.66882 0.0
C2077 C 0.94502 0.7468 0.67299 0.0
C2078 C 0.91719 0.75348 0.67899 0.0
C2079 C 0.91609 0.74218 0.69337 0.0
C2080 C 0.92914 0.73242 0.69683 0.0
H2081 H 0.82015 0.74182 0.74837 0.0
H2082 H 0.84236 0.72757 0.73422 0.0
C2083 C 0.9436 0.73489 0.68688 0.0
C2084 C 0.90177 0.74174 0.70534 0.0
H2085 H 0.89365 0.75704 0.7503 0.0
C2086 C 0.88455 0.73645 0.69629 0.0
C2087 C 0.90508 0.74873 0.72518 0.0
C2088 C 0.92333 0.75529 0.73567 0.0
C2089 C 0.87064 0.73922 0.70628 0.0
C2090 C 0.87407 0.74706 0.72592 0.0
C2091 C 0.89112 0.75097 0.73524 0.0
C2092 C 0.86102 0.7547 0.73614 0.0
C2093 C 0.85262 0.73508 0.69544 0.0
C2094 C 0.86444 0.7745 0.74255 0.0
C2095 C 0.85197 0.7826 0.75076 0.0
C2096 C 0.83572 0.77108 0.7527 0.0
C2097 C 0.8325 0.7511 0.74695 0.0
C2098 C 0.84512 0.74295 0.73877 0.0
H2099 H 0.85266 0.7315 0.67981 0.0
H2100 H 0.84413 0.72275 0.70011 0.0
H2101 H 0.84682 0.74762 0.69842 0.0
H2102 H 0.87662 0.78384 0.74067 0.0
H2103 H 0.85498 0.79801 0.75511 0.0
H2104 H 0.15346 1.00669 0.84102 0.0
H2105 H 0.1399 1.00673 0.87087 0.0
H2106 H 0.10557 0.0396 0.85026 0.0
H2107 H 0.11898 0.03978 0.82091 0.0
H2108 H 0.13566 0.0383 0.90032 0.0
H2109 H 0.07099 0.99515 0.86604 0.0
H2110 H 0.09032 0.99619 0.85435 0.0
H2111 H 0.07937 0.01542 0.85508 0.0
C2112 C 0.14294 0.01382 0.8427 0.0
C2113 C 0.13748 0.02312 0.82798 0.0
C2114 C 0.13516 0.01395 0.86003 0.0
C2115 C 0.12133 0.02305 0.8633 0.0
C2116 C 0.11591 0.03219 0.84854 0.0
H2117 H 0.04623 0.03553 0.94595 0.0
H2118 H 0.0635 0.03487 0.91943 0.0
C2119 C 0.12377 0.0323 0.83149 0.0
C2120 C 0.11243 0.02313 0.88172 0.0
H2121 H 0.07249 0.01058 0.89782 0.0
C2122 C 0.12186 0.03207 0.89971 0.0
C2123 C 0.09431 0.01525 0.88156 0.0
C2124 C 0.08313 1.0048 0.86329 0.0
C2125 C 0.1138 0.03393 0.91685 0.0
C2126 C 0.09556 0.02613 0.91667 0.0
C2127 C 0.0863 0.01685 0.89865 0.0
C2128 C 0.08557 0.02787 0.93439 0.0
C2129 C 0.125 0.04511 0.93484 0.0
C2130 C 0.09165 0.02452 0.95265 0.0
C2131 C 0.0817 0.02545 0.96836 0.0
C2132 C 0.06507 0.02951 0.96652 0.0
C2133 C 0.05902 0.03273 0.94835 0.0
C2134 C 0.069 0.03213 0.93286 0.0
H2135 H 0.13674 0.05508 0.93166 0.0
H2136 H 0.11768 0.05358 0.94375 0.0
H2137 H 0.12951 0.03501 0.94321 0.0
H2138 H 0.10389 0.02045 0.95475 0.0
H2139 H 0.08673 0.0221 0.9817 0.0
H2140 H 0.77694 0.37756 0.50569 0.0
H2141 H 0.77157 0.3567 0.52952 0.0
H2142 H 0.78787 0.40591 0.57441 0.0
H2143 H 0.79321 0.42689 0.55078 0.0
H2144 H 0.79792 0.35439 0.55788 0.0
H2145 H 0.74235 0.37543 0.58971 0.0
H2146 H 0.74787 0.38044 0.56672 0.0
H2147 H 0.75998 0.39525 0.58819 0.0
C2148 C 0.77915 0.38398 0.52063 0.0
C2149 C 0.78556 0.40387 0.52636 0.0
C2150 C 0.77605 0.37204 0.53419 0.0
C2151 C 0.77912 0.37982 0.55366 0.0
C2152 C 0.7851 0.39969 0.55942 0.0
H2153 H 0.79002 0.34351 0.66132 0.0
H2154 H 0.78654 0.36027 0.63451 0.0
C2155 C 0.78827 0.41163 0.54589 0.0
C2156 C 0.77769 0.3671 0.56804 0.0
H2157 H 0.75805 0.35754 0.60717 0.0
C2158 C 0.78904 0.35483 0.56851 0.0
C2159 C 0.76614 0.36787 0.58188 0.0
C2160 C 0.75327 0.38033 0.58156 0.0
C2161 C 0.78967 0.34385 0.58298 0.0
C2162 C 0.77835 0.34488 0.59707 0.0
C2163 C 0.76669 0.3568 0.59632 0.0
C2164 C 0.77915 0.33448 0.61326 0.0
C2165 C 0.80299 0.3319 0.58353 0.0
C2166 C 0.77576 0.31442 0.61019 0.0
C2167 C 0.77797 0.30482 0.62542 0.0
C2168 C 0.78345 0.31513 0.64402 0.0
C2169 C 0.78612 0.33519 0.64712 0.0
C2170 C 0.78399 0.34477 0.63186 0.0
H2171 H 0.81323 0.33612 0.57433 0.0
H2172 H 0.80934 0.33321 0.5983 0.0
H2173 H 0.79641 0.31662 0.57833 0.0
H2174 H 0.77173 0.30622 0.59595 0.0
H2175 H 0.77589 0.28937 0.62254 0.0
H2176 H 0.4228 0.04698 0.37961 0.0
H2177 H 0.44466 0.05475 0.40764 0.0
H2178 H 0.47541 0.09971 0.3832 0.0
H2179 H 0.45379 0.09177 0.35495 0.0
H2180 H 0.49314 0.07413 0.39097 0.0
H2181 H 0.46246 0.09562 0.45424 0.0
H2182 H 0.44957 0.07358 0.44048 0.0
H2183 H 0.45271 0.09519 0.43031 0.0
C2184 C 0.43397 0.05886 0.38043 0.0
C2185 C 0.43671 0.06856 0.36496 0.0
C2186 C 0.4464 0.06342 0.39655 0.0
C2187 C 0.46161 0.07791 0.39757 0.0
C2188 C 0.46373 0.08852 0.38272 0.0
H2189 H 0.5521 0.08569 0.48328 0.0
H2190 H 0.5324 0.09706 0.46145 0.0
C2191 C 0.45139 0.0839 0.36656 0.0
C2192 C 0.47646 0.07958 0.41229 0.0
H2193 H 0.48712 0.08113 0.45987 0.0
C2194 C 0.49197 0.07619 0.40608 0.0
C2195 C 0.47496 0.0823 0.432 0.0
C2196 C 0.45906 0.08707 0.43963 0.0
C2197 C 0.50547 0.07402 0.41893 0.0
C2198 C 0.50338 0.07528 0.43838 0.0
C2199 C 0.48848 0.07999 0.44484 0.0
C2200 C 0.51534 0.06898 0.45157 0.0
C2201 C 0.52146 0.0692 0.41157 0.0
C2202 C 0.51222 0.0495 0.45288 0.0
C2203 C 0.52338 0.04303 0.46513 0.0
C2204 C 0.53777 0.05598 0.47626 0.0
C2205 C 0.54109 0.07547 0.47472 0.0
C2206 C 0.52984 0.08198 0.46245 0.0
H2207 H 0.52206 0.07099 0.39647 0.0
H2208 H 0.53339 0.07845 0.42041 0.0
H2209 H 0.5214 0.0541 0.41268 0.0
H2210 H 0.50111 0.03931 0.44445 0.0
H2211 H 0.52069 0.02791 0.46599 0.0
H2212 H 0.80189 0.70529 0.05231 0.0
H2213 H 0.80536 0.71988 0.08601 0.0
H2214 H 0.75108 0.72085 0.08106 0.0
H2215 H 0.74744 0.70618 0.04749 0.0
H2216 H 0.79867 0.75502 0.10354 0.0
H2217 H 0.75681 0.69221 0.12589 0.0
H2218 H 0.7652 0.69079 0.10323 0.0
H2219 H 0.74676 0.70092 0.10658 0.0
C2220 C 0.7907 0.70866 0.05836 0.0
C2221 C 0.77436 0.70443 0.04717 0.0
C2222 C 0.79271 0.71701 0.07764 0.0
C2223 C 0.77842 0.72117 0.08616 0.0
C2224 C 0.76222 0.71742 0.07491 0.0
H2225 H 0.76175 0.76545 0.20118 0.0
H2226 H 0.75892 0.75302 0.16708 0.0
C2227 C 0.76019 0.70912 0.05566 0.0
C2228 C 0.7804 0.72936 0.1068 0.0
H2229 H 0.7662 0.72045 0.14903 0.0
C2230 C 0.79164 0.74744 0.11351 0.0
C2231 C 0.77117 0.71948 0.11981 0.0
C2232 C 0.75942 0.6997 0.11361 0.0
C2233 C 0.79364 0.75608 0.13279 0.0
C2234 C 0.78444 0.74618 0.14582 0.0
C2235 C 0.77322 0.72808 0.13908 0.0
C2236 C 0.78634 0.75423 0.16652 0.0
C2237 C 0.80526 0.77594 0.13889 0.0
C2238 C 0.80266 0.75889 0.17769 0.0
C2239 C 0.80435 0.76609 0.19721 0.0
C2240 C 0.7897 0.7686 0.2061 0.0
C2241 C 0.77333 0.76376 0.19489 0.0
C2242 C 0.77168 0.75663 0.17535 0.0
H2243 H 0.80721 0.78361 0.12662 0.0
H2244 H 0.79976 0.78464 0.14976 0.0
H2245 H 0.81821 0.77485 0.14519 0.0
H2246 H 0.81411 0.75673 0.17137 0.0
H2247 H 0.81715 0.76949 0.20533 0.0
H2248 H 0.10658 0.01453 0.73003 0.0
H2249 H 0.09459 0.0169 0.69814 0.0
H2250 H 0.14503 0.02003 0.6794 0.0
H2251 H 0.15702 0.01699 0.71146 0.0
H2252 H 0.09795 0.04226 0.67737 0.0
H2253 H 0.11863 0.98328 0.63489 0.0
H2254 H 0.12091 0.98685 0.66055 0.0
H2255 H 0.13676 1.00082 0.64848 0.0
C2256 C 0.11523 0.01549 0.71917 0.0
C2257 C 0.13292 0.01536 0.72376 0.0
C2258 C 0.10826 0.01695 0.70067 0.0
C2259 C 0.11855 0.01842 0.68562 0.0
C2260 C 0.13633 0.01837 0.69014 0.0
H2261 H 0.08124 0.06295 0.58314 0.0
H2262 H 0.09484 0.05899 0.61387 0.0
C2263 C 0.14332 0.01673 0.70875 0.0
C2264 C 0.11064 0.02066 0.66578 0.0
H2265 H 0.10681 1.00395 0.61745 0.0
C2266 C 0.09998 0.03376 0.66437 0.0
C2267 C 0.11268 0.00958 0.6483 0.0
C2268 C 0.1227 0.99421 0.64807 0.0
C2269 C 0.0917 0.03617 0.64666 0.0
C2270 C 0.09429 0.02565 0.62912 0.0
C2271 C 0.10476 0.01236 0.6305 0.0
C2272 C 0.08615 0.02807 0.60947 0.0
C2273 C 0.07968 0.04962 0.64716 0.0
C2274 C 0.07703 0.01214 0.59561 0.0
C2275 C 0.06933 0.0144 0.57759 0.0
C2276 C 0.0704 0.03271 0.57253 0.0
C2277 C 0.07975 0.04858 0.58627 0.0
C2278 C 0.08753 0.04631 0.60418 0.0
H2279 H 0.0745 0.05137 0.66107 0.0
H2280 H 0.08702 0.06396 0.64527 0.0
H2281 H 0.0685 0.04443 0.6357 0.0
H2282 H 0.07564 0.99781 0.5988 0.0
H2283 H 0.06242 1.0017 0.56763 0.0
H2284 H 0.84975 0.41976 0.45615 0.0
H2285 H 0.84942 0.39707 0.42707 0.0
H2286 H 0.7933 0.38438 0.41857 0.0
H2287 H 0.79353 0.4074 0.44712 0.0
H2288 H 0.83558 0.35902 0.41706 0.0
H2289 H 0.80468 0.39753 0.36787 0.0
H2290 H 0.81301 0.40813 0.39228 0.0
H2291 H 0.79176 0.39202 0.3865 0.0
C2292 C 0.83736 0.41221 0.44799 0.0
C2293 C 0.82168 0.41555 0.45376 0.0
C2294 C 0.83719 0.39922 0.43144 0.0
C2295 C 0.82135 0.38933 0.42046 0.0
C2296 C 0.80569 0.39227 0.42651 0.0
H2297 H 0.79824 0.28649 0.33542 0.0
H2298 H 0.80554 0.30942 0.36535 0.0
C2299 C 0.80585 0.40539 0.44288 0.0
C2300 C 0.8211 0.37583 0.40271 0.0
H2301 H 0.80474 0.36513 0.35569 0.0
C2302 C 0.82901 0.36044 0.40357 0.0
C2303 C 0.81281 0.3779 0.38506 0.0
C2304 C 0.80526 0.39491 0.3828 0.0
C2305 C 0.82838 0.34671 0.38732 0.0
C2306 C 0.81919 0.34818 0.36993 0.0
C2307 C 0.81169 0.36387 0.36903 0.0
C2308 C 0.81687 0.33366 0.3524 0.0
C2309 C 0.83775 0.33096 0.38896 0.0
C2310 C 0.8207 0.3396 0.33515 0.0
C2311 C 0.81607 0.32668 0.31805 0.0
C2312 C 0.80782 0.30744 0.31787 0.0
C2313 C 0.80476 0.30121 0.3352 0.0
C2314 C 0.80906 0.31428 0.35233 0.0
H2315 H 0.84863 0.3354 0.40082 0.0
H2316 H 0.8285 0.31823 0.39204 0.0
H2317 H 0.84302 0.32672 0.37556 0.0
H2318 H 0.82665 0.35447 0.33482 0.0
H2319 H 0.81833 0.33198 0.30491 0.0
H2320 H 0.48779 0.0573 0.29711 0.0
H2321 H 0.50843 0.06152 0.27366 0.0
H2322 H 0.46801 0.06907 0.23308 0.0
H2323 H 0.4474 0.06494 0.25623 0.0
H2324 H 0.5048 0.03913 0.23605 0.0
H2325 H 0.50908 0.11601 0.23431 0.0
H2326 H 0.50126 0.10454 0.25367 0.0
H2327 H 0.48709 0.10198 0.23189 0.0
C2328 C 0.48334 0.05994 0.28322 0.0
C2329 C 0.46598 0.06084 0.27853 0.0
C2330 C 0.49513 0.06235 0.26988 0.0
C2331 C 0.48976 0.06591 0.25182 0.0
C2332 C 0.47245 0.0667 0.2471 0.0
H2333 H 0.51649 0.04735 0.14088 0.0
H2334 H 0.50599 0.04625 0.17182 0.0
C2335 C 0.46067 0.06421 0.26032 0.0
C2336 C 0.50187 0.06805 0.2374 0.0
H2337 H 0.51762 0.09807 0.20732 0.0
C2338 C 0.50792 0.05211 0.22997 0.0
C2339 C 0.50609 0.08511 0.22975 0.0
C2340 C 0.50069 0.10296 0.23793 0.0
C2341 C 0.51716 0.0524 0.21418 0.0
C2342 C 0.52016 0.06896 0.20557 0.0
C2343 C 0.51512 0.08531 0.21382 0.0
C2344 C 0.52716 0.06912 0.18716 0.0
C2345 C 0.52326 0.03483 0.20657 0.0
C2346 C 0.5423 0.08268 0.18549 0.0
C2347 C 0.54821 0.08351 0.16776 0.0
C2348 C 0.53895 0.07093 0.15141 0.0
C2349 C 0.52379 0.05738 0.15318 0.0
C2350 C 0.51792 0.05653 0.17088 0.0
H2351 H 0.52496 0.02614 0.21784 0.0
H2352 H 0.51335 0.02574 0.19501 0.0
H2353 H 0.53577 0.03877 0.20066 0.0
H2354 H 0.54947 0.09266 0.19789 0.0
H2355 H 0.55985 0.09422 0.16679 0.0
H2356 H 0.82373 0.70991 0.94686 0.0
H2357 H 0.82327 0.72477 0.91839 0.0
H2358 H 0.76747 0.71555 0.91486 0.0
H2359 H 0.76783 0.70094 0.9436 0.0
H2360 H 0.80705 0.70912 0.88226 0.0
H2361 H 0.78188 0.77179 0.91043 0.0
H2362 H 0.78984 0.75707 0.92571 0.0
H2363 H 0.76841 0.74902 0.91254 0.0
C2364 C 0.81134 0.71117 0.94016 0.0
C2365 C 0.79582 0.70428 0.94763 0.0
C2366 C 0.81111 0.71964 0.92382 0.0
C2367 C 0.79537 0.72152 0.91455 0.0
C2368 C 0.77983 0.71466 0.92194 0.0
H2369 H 0.77505 0.77125 0.81225 0.0
H2370 H 0.77151 0.7533 0.83877 0.0
C2371 C 0.78005 0.70621 0.93836 0.0
C2372 C 0.79532 0.73018 0.89688 0.0
H2373 H 0.78525 0.76744 0.87768 0.0
C2374 C 0.80227 0.72187 0.88128 0.0
C2375 C 0.78901 0.74677 0.89551 0.0
C2376 C 0.782 0.75682 0.91197 0.0
C2377 C 0.80314 0.7297 0.86444 0.0
C2378 C 0.79712 0.74647 0.8632 0.0
C2379 C 0.78983 0.75456 0.87862 0.0
C2380 C 0.7991 0.7564 0.84645 0.0
C2381 C 0.8104 0.71987 0.84804 0.0
C2382 C 0.81577 0.76411 0.84193 0.0
C2383 C 0.81781 0.77437 0.82686 0.0
C2384 C 0.80323 0.77718 0.816 0.0
C2385 C 0.78652 0.76923 0.82031 0.0
C2386 C 0.78449 0.75903 0.83549 0.0
H2387 H 0.80986 0.70465 0.84911 0.0
H2388 H 0.80319 0.72043 0.83418 0.0
H2389 H 0.82424 0.72729 0.84822 0.0
H2390 H 0.82725 0.76257 0.85036 0.0
H2391 H 0.83084 0.78036 0.8239 0.0
H2392 H 0.81008 0.09077 0.02719 0.0
H2393 H 0.8345 0.07539 0.02633 0.0
H2394 H 0.86994 0.13026 0.02865 0.0
H2395 H 0.84557 0.14582 0.0294 0.0
H2396 H 0.87345 0.10065 0.99937 0.0
H2397 H 0.87311 0.07754 0.07003 0.0
H2398 H 0.85242 0.07084 0.05528 0.0
H2399 H 0.86237 0.09573 0.06392 0.0
C2400 C 0.82307 0.09961 0.02764 0.0
C2401 C 0.82589 0.11953 0.02838 0.0
C2402 C 0.83701 0.0908 0.02726 0.0
C2403 C 0.85401 0.10174 0.02769 0.0
C2404 C 0.8569 0.12161 0.02844 0.0
H2405 H 0.95401 0.07468 0.01665 0.0
H2406 H 0.93021 0.09055 0.0208 0.0
C2407 C 0.84297 0.13046 0.02887 0.0
C2408 C 0.86867 0.09231 0.02642 0.0
H2409 H 0.89142 0.06561 0.0493 0.0
C2410 C 0.87747 0.09308 0.01032 0.0
C2411 C 0.87374 0.08238 0.0407 0.0
C2412 C 0.86504 0.08165 0.05855 0.0
C2413 C 0.89109 0.08387 0.00794 0.0
C2414 C 0.89623 0.07398 0.02226 0.0
C2415 C 0.88742 0.07321 0.03837 0.0
C2416 C 0.9108 0.06443 0.02076 0.0
C2417 C 0.89957 0.08442 0.98992 0.0
C2418 C 0.90789 0.04456 0.02007 0.0
C2419 C 0.92154 0.03544 0.01798 0.0
C2420 C 0.93836 0.04608 0.01666 0.0
C2421 C 0.94127 0.06607 0.01782 0.0
C2422 C 0.92764 0.07515 0.01995 0.0
H2423 H 0.8912 0.08807 0.97839 0.0
H2424 H 0.912 0.09555 0.99287 0.0
H2425 H 0.90251 0.07044 0.98474 0.0
H2426 H 0.89498 0.03607 0.02083 0.0
H2427 H 0.91893 0.02008 0.0174 0.0
H2428 H 0.35697 0.45546 0.02582 0.0
H2429 H 0.38541 0.47505 0.02186 0.0
H2430 H 0.411 0.43862 0.05058 0.0
H2431 H 0.38275 0.41898 0.05456 0.0
H2432 H 0.41412 0.49494 0.05052 0.0
H2433 H 0.43191 0.43906 0.99966 0.0
H2434 H 0.40986 0.43767 1.00479 0.0
H2435 H 0.42533 0.4316 0.02129 0.0
C2436 C 0.36864 0.45163 0.03133 0.0
C2437 C 0.36754 0.43557 0.04044 0.0
C2438 C 0.38489 0.46284 0.02905 0.0
C2439 C 0.40032 0.45811 0.03565 0.0
C2440 C 0.39926 0.44233 0.04506 0.0
H2441 H 0.51107 0.50389 0.03483 0.0
H2442 H 0.48222 0.48482 0.03809 0.0
C2443 C 0.38307 0.43118 0.04742 0.0
C2444 C 0.41756 0.46972 0.03288 0.0
H2445 H 0.45399 0.46725 0.01153 0.0
C2446 C 0.42281 0.48895 0.0419 0.0
C2447 C 0.4289 0.46184 0.0217 0.0
C2448 C 0.42372 0.44146 0.01115 0.0
C2449 C 0.43926 0.50038 0.04042 0.0
C2450 C 0.45063 0.49251 0.02921 0.0
C2451 C 0.44531 0.47329 0.02012 0.0
C2452 C 0.46811 0.50393 0.02682 0.0
C2453 C 0.4445 0.52061 0.05134 0.0
C2454 C 0.4698 0.52081 0.01902 0.0
C2455 C 0.48628 0.53174 0.0172 0.0
C2456 C 0.50138 0.52589 0.02296 0.0
C2457 C 0.49967 0.50874 0.03029 0.0
C2458 C 0.48318 0.49785 0.03217 0.0
H2459 H 0.43662 0.52262 0.06321 0.0
H2460 H 0.45848 0.5245 0.05729 0.0
H2461 H 0.44239 0.53067 0.04159 0.0
H2462 H 0.45837 0.52555 0.01432 0.0
H2463 H 0.4872 0.5448 0.01134 0.0
H2464 H 0.37375 0.59333 0.75477 0.0
H2465 H 0.35685 0.61825 0.75568 0.0
H2466 H 0.40456 0.66204 0.76579 0.0
H2467 H 0.42121 0.63766 0.7646 0.0
H2468 H 0.35269 0.64822 0.78132 0.0
H2469 H 0.38194 0.68175 0.72396 0.0
H2470 H 0.38537 0.65916 0.72897 0.0
H2471 H 0.39827 0.68138 0.7428 0.0
C2472 C 0.38071 0.60824 0.75707 0.0
C2473 C 0.39918 0.61296 0.75941 0.0
C2474 C 0.37092 0.62271 0.75764 0.0
C2475 C 0.37907 0.64261 0.76034 0.0
C2476 C 0.39746 0.64717 0.76302 0.0
H2477 H 0.34933 0.75574 0.76919 0.0
H2478 H 0.36406 0.72927 0.76797 0.0
C2479 C 0.40715 0.63287 0.76249 0.0
C2480 C 0.36878 0.6586 0.76072 0.0
H2481 H 0.36624 0.69996 0.74306 0.0
C2482 C 0.35565 0.65936 0.77274 0.0
C2483 C 0.37221 0.6737 0.74979 0.0
C2484 C 0.38508 0.6739 0.73552 0.0
C2485 C 0.34661 0.67449 0.77456 0.0
C2486 C 0.35016 0.68969 0.76374 0.0
C2487 C 0.3632 0.68881 0.75161 0.0
C2488 C 0.34072 0.70644 0.76476 0.0
C2489 C 0.33375 0.67432 0.78882 0.0
C2490 C 0.32234 0.70336 0.76314 0.0
C2491 C 0.31378 0.71875 0.76395 0.0
C2492 C 0.32305 0.73819 0.76627 0.0
C2493 C 0.34142 0.74129 0.76761 0.0
C2494 C 0.34999 0.72587 0.76681 0.0
H2495 H 0.33655 0.666 0.80009 0.0
H2496 H 0.33387 0.68907 0.79575 0.0
H2497 H 0.32048 0.66739 0.78142 0.0
H2498 H 0.31438 0.68888 0.7609 0.0
H2499 H 0.2997 0.71528 0.76258 0.0
H2500 H 0.22649 0.56715 0.50791 0.0
H2501 H 0.19727 0.55157 0.49118 0.0
H2502 H 0.17779 0.59877 0.5171 0.0
H2503 H 0.20667 0.61431 0.53392 0.0
H2504 H 0.1648 0.54261 0.50963 0.0
H2505 H 0.16258 0.59181 0.45777 0.0
H2506 H 0.18275 0.58861 0.46924 0.0
H2507 H 0.17091 0.60393 0.48166 0.0
C2508 C 0.21595 0.57415 0.51009 0.0
C2509 C 0.21888 0.59197 0.52223 0.0
C2510 C 0.19933 0.56528 0.50046 0.0
C2511 C 0.18556 0.57427 0.50264 0.0
C2512 C 0.18839 0.59184 0.51497 0.0
H2513 H 0.08703 0.57797 0.50439 0.0
H2514 H 0.11676 0.58135 0.4971 0.0
C2515 C 0.20488 0.6006 0.52471 0.0
C2516 C 0.16784 0.56515 0.49295 0.0
H2517 H 0.13484 0.57557 0.46578 0.0
C2518 C 0.15826 0.54932 0.49954 0.0
C2519 C 0.15953 0.57392 0.47967 0.0
C2520 C 0.16951 0.59041 0.47151 0.0
C2521 C 0.14012 0.54336 0.49485 0.0
C2522 C 0.13155 0.55339 0.483 0.0
C2523 C 0.14143 0.56794 0.47487 0.0
C2524 C 0.11267 0.55206 0.48266 0.0
C2525 C 0.13016 0.5277 0.50415 0.0
C2526 C 0.10024 0.53478 0.47591 0.0
C2527 C 0.08314 0.53278 0.48015 0.0
C2528 C 0.07837 0.54806 0.49119 0.0
C2529 C 0.0904 0.56588 0.49611 0.0
C2530 C 0.10739 0.56785 0.49187 0.0
H2531 H 0.13877 0.5227 0.51441 0.0
H2532 H 0.12008 0.53282 0.51185 0.0
H2533 H 0.12347 0.51524 0.49306 0.0
H2534 H 0.10402 0.52253 0.46846 0.0
H2535 H 0.07411 0.51888 0.47609 0.0
H2536 H 0.71115 0.99979 0.7176 0.0
H2537 H 0.73393 0.98319 0.72528 0.0
H2538 H 0.71791 0.98034 0.781 0.0
H2539 H 0.69502 0.99656 0.77342 0.0
H2540 H 0.76168 0.99436 0.75579 0.0
H2541 H 0.71731 0.9246 0.75967 0.0
H2542 H 0.71011 0.94281 0.74866 0.0
H2543 H 0.71278 0.94487 0.77415 0.0
C2544 C 0.71243 0.99554 0.73145 0.0
C2545 C 0.70123 0.99937 0.74486 0.0
C2546 C 0.72546 0.98612 0.73581 0.0
C2547 C 0.72741 0.98037 0.7536 0.0
C2548 C 0.71638 0.98436 0.76707 0.0
H2549 H 0.79299 0.91623 0.80492 0.0
H2550 H 0.77472 0.93865 0.80028 0.0
C2551 C 0.70334 0.99368 0.76271 0.0
C2552 C 0.74106 0.97031 0.75823 0.0
H2553 H 0.74718 0.92836 0.77024 0.0
C2554 C 0.75856 0.97991 0.75889 0.0
C2555 C 0.73686 0.9515 0.7623 0.0
C2556 C 0.71825 0.94024 0.76101 0.0
C2557 C 0.77205 0.9712 0.7638 0.0
C2558 C 0.76783 0.95242 0.76791 0.0
C2559 C 0.75033 0.94286 0.76726 0.0
C2560 C 0.78122 0.94187 0.77203 0.0
C2561 C 0.79069 0.98222 0.76482 0.0
C2562 C 0.7912 0.9367 0.75784 0.0
C2563 C 0.80168 0.92397 0.76048 0.0
C2564 C 0.80225 0.91617 0.77731 0.0
C2565 C 0.79297 0.92221 0.79192 0.0
C2566 C 0.78246 0.9349 0.78925 0.0
H2567 H 0.79177 0.99789 0.76618 0.0
H2568 H 0.79891 0.97952 0.77704 0.0
H2569 H 0.79593 0.97746 0.75156 0.0
H2570 H 0.79018 0.94169 0.74434 0.0
H2571 H 0.80877 0.9196 0.74904 0.0
H2572 H 0.7467 0.90265 0.50785 0.0
H2573 H 0.72259 0.91845 0.50901 0.0
H2574 H 0.75376 0.96385 0.55229 0.0
H2575 H 0.77813 0.94826 0.551 0.0
H2576 H 0.70481 0.92706 0.53906 0.0
H2577 H 0.73609 0.9936 0.51393 0.0
H2578 H 0.745 0.9727 0.51181 0.0
H2579 H 0.74817 0.98861 0.53426 0.0
C2580 C 0.74852 0.91607 0.51756 0.0
C2581 C 0.76443 0.92422 0.52928 0.0
C2582 C 0.73467 0.92507 0.51822 0.0
C2583 C 0.73639 0.94247 0.53055 0.0
C2584 C 0.75222 0.95064 0.54236 0.0
H2585 H 0.66459 0.01595 0.55293 0.0
H2586 H 0.68911 1.00068 0.55397 0.0
C2587 C 0.76613 0.94165 0.54168 0.0
C2588 C 0.72141 0.95171 0.53128 0.0
H2589 H 0.70851 0.9924 0.52449 0.0
C2590 C 0.70562 0.94133 0.53583 0.0
C2591 C 0.72244 0.97036 0.5271 0.0
C2592 C 0.73877 0.98194 0.52133 0.0
C2593 C 0.69092 0.94913 0.53649 0.0
C2594 C 0.69192 0.96771 0.53218 0.0
C2595 C 0.70775 0.97817 0.5278 0.0
C2596 C 0.67667 0.97652 0.53196 0.0
C2597 C 0.67453 0.93751 0.5421 0.0
C2598 C 0.66148 0.96806 0.5192 0.0
C2599 C 0.64736 0.9767 0.51863 0.0
C2600 C 0.64814 0.99405 0.53079 0.0
C2601 C 0.66338 1.00244 0.54359 0.0
C2602 C 0.67749 0.99381 0.5441 0.0
H2603 H 0.67722 0.92602 0.54977 0.0
H2604 H 0.66807 0.94676 0.55131 0.0
H2605 H 0.66533 0.9306 0.52907 0.0
H2606 H 0.66063 0.95489 0.50945 0.0
H2607 H 0.63583 0.96977 0.50867 0.0
H2608 H 0.41602 0.47813 0.75357 0.0
H2609 H 0.39791 0.4467 0.75489 0.0
H2610 H 0.35293 0.47056 0.75689 0.0
H2611 H 0.37118 0.50239 0.75529 0.0
H2612 H 0.37962 0.43205 0.78047 0.0
H2613 H 0.33278 0.42484 0.71617 0.0
H2614 H 0.35242 0.44372 0.72175 0.0
H2615 H 0.33364 0.44565 0.73352 0.0
C2616 C 0.40225 0.4769 0.75417 0.0
C2617 C 0.39528 0.49324 0.75418 0.0
C2618 C 0.39179 0.45864 0.75499 0.0
C2619 C 0.37374 0.45564 0.75572 0.0
C2620 C 0.36665 0.47195 0.75587 0.0
H2621 H 0.29016 0.35379 0.76038 0.0
H2622 H 0.30819 0.38548 0.75946 0.0
C2623 C 0.3772 0.49038 0.75508 0.0
C2624 C 0.36278 0.4356 0.75665 0.0
H2625 H 0.32671 0.40062 0.73508 0.0
C2626 C 0.36808 0.42526 0.77044 0.0
C2627 C 0.34759 0.42621 0.74371 0.0
C2628 C 0.34132 0.43555 0.72783 0.0
C2629 C 0.3587 0.40649 0.77191 0.0
C2630 C 0.34353 0.39706 0.75893 0.0
C2631 C 0.33823 0.40742 0.74514 0.0
C2632 C 0.33262 0.37695 0.75975 0.0
C2633 C 0.36493 0.39725 0.7879 0.0
C2634 C 0.33987 0.36079 0.76012 0.0
C2635 C 0.32939 0.34231 0.76078 0.0
C2636 C 0.31122 0.33924 0.76091 0.0
C2637 C 0.30404 0.35534 0.76036 0.0
C2638 C 0.31445 0.37369 0.75977 0.0
H2639 H 0.37318 0.40807 0.79968 0.0
H2640 H 0.35382 0.38884 0.79378 0.0
H2641 H 0.37293 0.38742 0.7824 0.0
H2642 H 0.35368 0.36234 0.75959 0.0
H2643 H 0.3355 0.3304 0.76095 0.0
H2644 H 0.20424 0.56999 0.24914 0.0
H2645 H 0.22225 0.60265 0.255 0.0
H2646 H 0.179 0.62399 0.27391 0.0
H2647 H 0.1607 0.59132 0.26764 0.0
H2648 H 0.19451 0.64399 0.2489 0.0
H2649 H 0.24471 0.63709 0.30459 0.0
H2650 H 0.24234 0.61941 0.28359 0.0
H2651 H 0.22446 0.61928 0.2974 0.0
C2652 C 0.19857 0.58161 0.25467 0.0
C2653 C 0.18104 0.57808 0.25794 0.0
C2654 C 0.20894 0.60026 0.25817 0.0
C2655 C 0.20207 0.6157 0.26526 0.0
C2656 C 0.18458 0.61223 0.26858 0.0
H2657 H 0.26548 0.73287 0.29996 0.0
H2658 H 0.24737 0.70092 0.30016 0.0
C2659 C 0.17415 0.59357 0.26496 0.0
C2660 C 0.21283 0.63554 0.26799 0.0
H2661 H 0.25192 0.66445 0.28903 0.0
C2662 C 0.20697 0.64853 0.25784 0.0
C2663 C 0.22896 0.64153 0.27989 0.0
C2664 C 0.23541 0.62865 0.29214 0.0
C2665 C 0.2171 0.66712 0.25871 0.0
C2666 C 0.23372 0.67269 0.26965 0.0
C2667 C 0.2393 0.66 0.28041 0.0
C2668 C 0.24557 0.69154 0.26976 0.0
C2669 C 0.20988 0.68063 0.24792 0.0
C2670 C 0.251 0.69654 0.25269 0.0
C2671 C 0.26123 0.71476 0.25249 0.0
C2672 C 0.2664 0.72823 0.2694 0.0
C2673 C 0.26165 0.72285 0.28666 0.0
C2674 C 0.2513 0.70462 0.28682 0.0
H2675 H 0.19544 0.67632 0.24513 0.0
H2676 H 0.21384 0.69556 0.25586 0.0
H2677 H 0.21495 0.68038 0.23396 0.0
H2678 H 0.2471 0.68644 0.23946 0.0
H2679 H 0.26485 0.71834 0.23899 0.0
H2680 H 0.48289 0.68786 0.40735 0.0
H2681 H 0.48803 0.66278 0.42489 0.0
H2682 H 0.53275 0.70244 0.45853 0.0
H2683 H 0.52736 0.7278 0.44136 0.0
H2684 H 0.51463 0.64654 0.42675 0.0
H2685 H 0.50945 0.67996 0.50006 0.0
H2686 H 0.50291 0.68948 0.4794 0.0
H2687 H 0.52552 0.69465 0.48903 0.0
C2688 C 0.49372 0.69136 0.41864 0.0
C2689 C 0.50465 0.70996 0.42296 0.0
C2690 C 0.49667 0.67694 0.42866 0.0
C2691 C 0.51065 0.68063 0.44331 0.0
C2692 C 0.52159 0.69922 0.44769 0.0
H2693 H 0.55676 0.60725 0.50832 0.0
H2694 H 0.54994 0.63372 0.49392 0.0
C2695 C 0.51855 0.71374 0.43775 0.0
C2696 C 0.51414 0.66476 0.45322 0.0
H2697 H 0.52054 0.65187 0.49705 0.0
C2698 C 0.51578 0.64772 0.44212 0.0
C2699 C 0.5157 0.66613 0.47333 0.0
C2700 C 0.51313 0.68346 0.48615 0.0
C2701 C 0.51916 0.63229 0.45047 0.0
C2702 C 0.52084 0.63373 0.47053 0.0
C2703 C 0.51926 0.65074 0.48168 0.0
C2704 C 0.52447 0.6178 0.48013 0.0
C2705 C 0.52126 0.61465 0.43776 0.0
C2706 C 0.51228 0.60007 0.47756 0.0
C2707 C 0.51608 0.58487 0.4859 0.0
C2708 C 0.53222 0.58701 0.49697 0.0
C2709 C 0.54422 0.60497 0.49987 0.0
C2710 C 0.54035 0.62018 0.49164 0.0
H2711 H 0.52317 0.61726 0.4231 0.0
H2712 H 0.53251 0.60964 0.44374 0.0
H2713 H 0.50939 0.60297 0.43684 0.0
H2714 H 0.49984 0.59792 0.46895 0.0
H2715 H 0.50648 0.57132 0.48333 0.0
H2716 H 0.61906 0.27257 0.66551 0.0
H2717 H 0.64716 0.27301 0.68255 0.0
H2718 H 0.66444 0.33346 0.68188 0.0
H2719 H 0.63627 0.33304 0.66422 0.0
H2720 H 0.69012 0.31476 0.67437 0.0
H2721 H 0.66243 0.29323 0.73829 0.0
H2722 H 0.65286 0.27641 0.71705 0.0
H2723 H 0.64984 0.30047 0.71966 0.0
C2724 C 0.62876 0.28603 0.669 0.0
C2725 C 0.62524 0.30283 0.66364 0.0
C2726 C 0.64488 0.28626 0.67887 0.0
C2727 C 0.65789 0.30334 0.68397 0.0
C2728 C 0.65461 0.3201 0.67827 0.0
H2729 H 0.74476 0.3164 0.77208 0.0
H2730 H 0.71863 0.31844 0.75252 0.0
C2731 C 0.63846 0.31986 0.66821 0.0
C2732 C 0.67478 0.30356 0.69528 0.0
H2733 H 0.69183 0.29168 0.73622 0.0
C2734 C 0.69051 0.30983 0.68796 0.0
C2735 C 0.67542 0.29737 0.71317 0.0
C2736 C 0.65926 0.29168 0.72261 0.0
C2737 C 0.70672 0.30974 0.69781 0.0
C2738 C 0.70727 0.3028 0.71533 0.0
C2739 C 0.69153 0.29682 0.72273 0.0
C2740 C 0.72392 0.30226 0.72672 0.0
C2741 C 0.7231 0.3175 0.68951 0.0
C2742 C 0.73583 0.29251 0.71889 0.0
C2743 C 0.75101 0.29153 0.73011 0.0
C2744 C 0.75443 0.3 0.74945 0.0
C2745 C 0.74252 0.30969 0.75723 0.0
C2746 C 0.72752 0.31085 0.74603 0.0
H2747 H 0.7209 0.32724 0.67941 0.0
H2748 H 0.73378 0.32543 0.70087 0.0
H2749 H 0.72736 0.30541 0.68154 0.0
H2750 H 0.73326 0.2853 0.70421 0.0
H2751 H 0.75984 0.28386 0.72375 0.0
H2752 H 0.98448 0.31936 0.93069 0.0
H2753 H 0.99183 0.35272 0.94663 0.0
H2754 H 0.0463 0.3525 0.95244 0.0
H2755 H 0.03907 0.3191 0.93609 0.0
H2756 H 0.00844 0.37021 0.98208 0.0
H2757 H 0.04608 0.39857 0.92644 0.0
H2758 H 0.03263 0.3745 0.9228 0.0
H2759 H 0.05377 0.38028 0.93656 0.0
C2760 C 0.99805 0.32633 0.93539 0.0
C2761 C 0.01119 0.31652 0.93195 0.0
C2762 C 1.00222 0.34546 0.94453 0.0
C2763 C 0.01964 0.3553 0.95044 0.0
C2764 C 0.03279 0.34539 0.94761 0.0
H2765 H 0.06371 0.47572 1.00235 0.0
H2766 H 0.05978 0.4415 0.99027 0.0
C2767 C 0.02862 0.32622 0.9384 0.0
C2768 C 0.02385 0.37593 0.9594 0.0
H2769 H 0.04496 0.42081 0.95365 0.0
C2770 C 0.01646 0.38126 0.97587 0.0
C2771 C 0.03433 0.39039 0.95134 0.0
C2772 C 0.04206 0.38574 0.93322 0.0
C2773 C 0.01921 0.40057 0.98444 0.0
C2774 C 0.02943 0.41504 0.97619 0.0
C2775 C 0.03713 0.40971 0.95996 0.0
C2776 C 0.03179 0.43579 0.9838 0.0
C2777 C 0.01123 0.40532 1.00235 0.0
C2778 C 0.01739 0.44405 0.98398 0.0
C2779 C 0.01957 0.46361 0.99083 0.0
C2780 C 0.03624 0.47542 0.99761 0.0
C2781 C 0.05067 0.46711 0.99731 0.0
C2782 C 0.04847 0.44753 0.99038 0.0
H2783 H 0.00794 0.39276 0.00966 0.0
H2784 H 0.02018 0.41732 0.01244 0.0
H2785 H 0.99903 0.40976 0.9986 0.0
H2786 H 1.00443 0.43538 0.97863 0.0
H2787 H 0.00816 0.46946 0.99075 0.0
H2788 H 0.00965 0.78621 0.12751 0.0
H2789 H 0.98514 0.78416 0.14601 0.0
H2790 H 0.01966 0.8165 0.19563 0.0
H2791 H 0.04441 0.8187 0.17714 0.0
H2792 H 0.98068 0.76828 0.18003 0.0
H2793 H 0.98042 0.84562 0.19071 0.0
H2794 H 0.99173 0.83496 0.17286 0.0
H2795 H 1.00086 0.84008 0.19747 0.0
C2796 C 0.0121 0.79296 0.14235 0.0
C2797 C 0.02904 0.80271 0.1508 0.0
C2798 C 0.99804 0.79172 0.15292 0.0
C2799 C 1.0005 0.80033 0.17215 0.0
C2800 C 0.0174 0.80998 0.18073 0.0
H2801 H 0.92536 0.81125 0.2526 0.0
H2802 H 0.95185 0.81249 0.23746 0.0
C2803 C 0.03155 0.81115 0.17016 0.0
C2804 C 0.98532 0.79896 0.18309 0.0
H2805 H 0.95994 0.8255 0.2052 0.0
C2806 C 0.97615 0.78079 0.18558 0.0
C2807 C 0.97946 0.81529 0.19037 0.0
C2808 C 0.9885 0.83511 0.18765 0.0
C2809 C 0.96133 0.77849 0.1952 0.0
C2810 C 0.95522 0.79479 0.20213 0.0
C2811 C 0.96456 0.813 0.19987 0.0
C2812 C 0.93909 0.79328 0.21158 0.0
C2813 C 0.95257 0.75865 0.19811 0.0
C2814 C 0.92299 0.78212 0.2021 0.0
C2815 C 0.90779 0.78116 0.21084 0.0
C2816 C 0.90828 0.79151 0.22922 0.0
C2817 C 0.92445 0.80275 0.23862 0.0
C2818 C 0.93964 0.80364 0.2299 0.0
H2819 H 0.96162 0.74896 0.19732 0.0
H2820 H 0.94751 0.75901 0.21209 0.0
H2821 H 0.94146 0.75244 0.18672 0.0
H2822 H 0.9221 0.77433 0.18779 0.0
H2823 H 0.89566 0.77226 0.20317 0.0
H2824 H 0.53877 0.29541 0.12271 0.0
H2825 H 0.5416 0.32166 0.10447 0.0
H2826 H 0.49756 0.33776 0.12747 0.0
H2827 H 0.49466 0.31164 0.14588 0.0
H2828 H 0.51583 0.3279 0.077 0.0
H2829 H 0.53615 0.3881 0.13826 0.0
H2830 H 0.53715 0.36386 0.14026 0.0
H2831 H 0.51668 0.37055 0.13983 0.0
C2832 C 0.52971 0.30456 0.12395 0.0
C2833 C 0.51653 0.30148 0.13581 0.0
C2834 C 0.53134 0.31953 0.11351 0.0
C2835 C 0.51993 0.33177 0.11484 0.0
C2836 C 0.50668 0.32866 0.12652 0.0
H2837 H 0.5099 0.43022 0.0626 0.0
H2838 H 0.5065 0.4043 0.08136 0.0
C2839 C 0.505 0.31366 0.13694 0.0
C2840 C 0.52166 0.34752 0.10365 0.0
H2841 H 0.53048 0.39623 0.10786 0.0
C2842 C 0.51908 0.34285 0.08371 0.0
C2843 C 0.52583 0.36697 0.11251 0.0
C2844 C 0.52926 0.37277 0.13389 0.0
C2845 C 0.52035 0.35715 0.07233 0.0
C2846 C 0.52467 0.37663 0.08118 0.0
C2847 C 0.52717 0.38129 0.10113 0.0
C2848 C 0.52687 0.39239 0.06996 0.0
C2849 C 0.5167 0.35125 0.05096 0.0
C2850 C 0.53966 0.39447 0.05762 0.0
C2851 C 0.54163 0.40923 0.04691 0.0
C2852 C 0.53095 0.42231 0.04848 0.0
C2853 C 0.51839 0.42044 0.06117 0.0
C2854 C 0.51638 0.40561 0.07182 0.0
H2855 H 0.50898 0.3362 0.04676 0.0
H2856 H 0.50953 0.36074 0.04448 0.0
H2857 H 0.52922 0.35234 0.04497 0.0
H2858 H 0.54819 0.38472 0.05634 0.0
H2859 H 0.55166 0.41052 0.03755 0.0
H2860 H 0.04179 0.27497 0.32459 0.0
H2861 H 0.01432 0.27138 0.30428 0.0
H2862 H 0.02118 0.33275 0.31398 0.0
H2863 H 0.0486 0.3365 0.33411 0.0
H2864 H 0.98612 0.28367 0.31753 0.0
H2865 H 1.00614 0.31822 0.25649 0.0
H2866 H 0.02114 0.31026 0.27217 0.0
H2867 H 0.01564 0.33283 0.27904 0.0
C2868 C 0.0376 0.28772 0.32212 0.0
C2869 C 0.04734 0.30602 0.33102 0.0
C2870 C 0.02192 0.28563 0.3105 0.0
C2871 C 0.01586 0.30181 0.30742 0.0
C2872 C 0.02582 0.3201 0.31582 0.0
H2873 H 0.92531 0.33833 0.27729 0.0
H2874 H 0.95459 0.33352 0.28403 0.0
C2875 C 0.04142 0.3222 0.32747 0.0
C2876 C 0.99827 0.29967 0.29728 0.0
H2877 H 0.97633 0.31574 0.26226 0.0
C2878 C 0.98393 0.2903 0.30518 0.0
C2879 C 0.99552 0.30839 0.28123 0.0
C2880 C 0.01044 0.31783 0.27161 0.0
C2881 C 0.96689 0.29047 0.29821 0.0
C2882 C 0.96417 0.29994 0.28267 0.0
C2883 C 0.97848 0.30853 0.2742 0.0
C2884 C 0.94677 0.30264 0.27628 0.0
C2885 C 0.95206 0.28151 0.30827 0.0
C2886 C 0.93278 0.28688 0.26914 0.0
C2887 C 0.916 0.28958 0.26531 0.0
C2888 C 0.913 0.30811 0.2684 0.0
C2889 C 0.92722 0.32391 0.27461 0.0
C2890 C 0.94394 0.32118 0.27852 0.0
H2891 H 0.95673 0.27814 0.32219 0.0
H2892 H 0.94314 0.29118 0.31076 0.0
H2893 H 0.94449 0.26795 0.29923 0.0
H2894 H 0.93477 0.27248 0.26697 0.0
H2895 H 0.90533 0.27717 0.26024 0.0
H2896 H 0.99311 0.71886 0.58367 0.0
H2897 H 0.99599 0.68933 0.56421 0.0
H2898 H 0.99768 0.66282 0.61428 0.0
H2899 H 0.99536 0.69241 0.63387 0.0
H2900 H 0.02302 0.65724 0.59383 0.0
H2901 H 0.96058 0.6393 0.54606 0.0
H2902 H 0.9735 0.66285 0.54573 0.0
H2903 H 0.96503 0.65733 0.56727 0.0
C2904 C 0.99395 0.70668 0.5905 0.0
C2905 C 0.99401 0.70795 0.61029 0.0
C2906 C 0.99548 0.68977 0.57934 0.0
C2907 C 0.99676 0.67377 0.58775 0.0
C2908 C 0.99665 0.67498 0.60749 0.0
H2909 H 0.9882 0.55798 0.52879 0.0
H2910 H 0.98321 0.58715 0.54706 0.0
C2911 C 0.99533 0.69191 0.61866 0.0
C2912 C 0.99917 0.65606 0.57625 0.0
H2913 H 0.98135 0.62137 0.53764 0.0
C2914 C 0.01386 0.64935 0.5816 0.0
C2915 C 0.98711 0.64566 0.56042 0.0
C2916 C 0.97058 0.65153 0.55462 0.0
C2917 C 0.01692 0.63263 0.57148 0.0
C2918 C 1.00521 0.62261 0.55522 0.0
C2919 C 0.9904 0.62918 0.54999 0.0
C2920 C 0.008 0.60516 0.54361 0.0
C2921 C 0.0325 0.62571 0.57858 0.0
C2922 C 0.02342 0.60571 0.53531 0.0
C2923 C 0.02634 0.58906 0.52507 0.0
C2924 C 0.01377 0.5717 0.5227 0.0
C2925 C 0.99806 0.57126 0.53038 0.0
C2926 C 0.99522 0.58787 0.54083 0.0
H2927 H 0.03653 0.63093 0.59409 0.0
H2928 H 0.02975 0.60986 0.57593 0.0
H2929 H 0.04361 0.63128 0.571 0.0
H2930 H 0.03326 0.61899 0.53688 0.0
H2931 H 0.03848 0.58972 0.51909 0.0
H2932 H 0.63827 0.82088 0.84963 0.0
H2933 H 0.66343 0.82304 0.83216 0.0
H2934 H 0.68106 0.88328 0.85531 0.0
H2935 H 0.65582 0.8813 0.87299 0.0
H2936 H 0.67381 0.84928 0.80488 0.0
H2937 H 0.72299 0.85852 0.86848 0.0
H2938 H 0.7001 0.84881 0.86912 0.0
H2939 H 0.70799 0.87386 0.86881 0.0
C2940 C 0.64747 0.83462 0.85106 0.0
C2941 C 0.64508 0.85091 0.86278 0.0
C2942 C 0.6618 0.83582 0.84101 0.0
C2943 C 0.67408 0.85329 0.84254 0.0
C2944 C 0.67175 0.86965 0.85408 0.0
H2945 H 0.77275 0.8515 0.79588 0.0
H2946 H 0.7503 0.86598 0.80918 0.0
C2947 C 0.65733 0.86848 0.86413 0.0
C2948 C 0.68939 0.85394 0.83215 0.0
H2949 H 0.73222 0.85289 0.83842 0.0
C2950 C 0.68668 0.85045 0.81218 0.0
C2951 C 0.70616 0.85569 0.84176 0.0
C2952 C 0.70963 0.85937 0.86323 0.0
C2953 C 0.70013 0.84755 0.80153 0.0
C2954 C 0.71654 0.8478 0.81116 0.0
C2955 C 0.71959 0.85268 0.8311 0.0
C2956 C 0.7297 0.84015 0.80117 0.0
C2957 C 0.69647 0.84357 0.78008 0.0
C2958 C 0.7255 0.82091 0.79225 0.0
C2959 C 0.73821 0.8126 0.78481 0.0
C2960 C 0.75545 0.82336 0.78619 0.0
C2961 C 0.75956 0.84285 0.79457 0.0
C2962 C 0.74678 0.85115 0.80217 0.0
H2963 H 0.68608 0.85037 0.77501 0.0
H2964 H 0.70834 0.84885 0.77348 0.0
H2965 H 0.69188 0.82788 0.77514 0.0
H2966 H 0.71249 0.81205 0.79171 0.0
H2967 H 0.73458 0.79759 0.77842 0.0
H2968 H 0.47806 0.58265 0.71271 0.0
H2969 H 0.49021 0.57804 0.68284 0.0
H2970 H 0.44594 0.53156 0.65996 0.0
H2971 H 0.43343 0.5364 0.69016 0.0
H2972 H 0.50238 0.55164 0.66459 0.0
H2973 H 0.44715 0.55703 0.61441 0.0
H2974 H 0.44768 0.56292 0.63988 0.0
H2975 H 0.44173 0.53829 0.62818 0.0
C2976 C 0.47066 0.57141 0.70143 0.0
C2977 C 0.45447 0.56002 0.70441 0.0
C2978 C 0.4778 0.56874 0.68403 0.0
C2979 C 0.4692 0.55458 0.66834 0.0
C2980 C 0.453 0.543 0.67122 0.0
H2981 H 0.50626 0.52505 0.55285 0.0
H2982 H 0.48888 0.52469 0.57999 0.0
C2983 C 0.44579 0.54568 0.6888 0.0
C2984 C 0.4777 0.55195 0.6497 0.0
H2985 H 0.47133 0.54936 0.60073 0.0
C2986 C 0.49541 0.55118 0.65072 0.0
C2987 C 0.46908 0.55109 0.63105 0.0
C2988 C 0.45042 0.55254 0.62822 0.0
C2989 C 0.50443 0.54968 0.63438 0.0
C2990 C 0.49599 0.54933 0.6158 0.0
C2991 C 0.47816 0.54963 0.61462 0.0
C2992 C 0.5058 0.54975 0.59803 0.0
C2993 C 0.52308 0.54813 0.63732 0.0
C2994 C 0.52102 0.56414 0.59813 0.0
C2995 C 0.53085 0.56441 0.58257 0.0
C2996 C 0.52606 0.55046 0.56575 0.0
C2997 C 0.5105 0.53627 0.5652 0.0
C2998 C 0.50052 0.53602 0.58096 0.0
H2999 H 0.52577 0.54206 0.65034 0.0
H3000 H 0.52632 0.539 0.62496 0.0
H3001 H 0.53184 0.56264 0.63916 0.0
H3002 H 0.5255 0.57535 0.61045 0.0
H3003 H 0.54257 0.57572 0.5839 0.0
H3004 H 0.73757 0.1603 0.97677 0.0
H3005 H 0.73947 0.18471 0.95643 0.0
H3006 H 0.79534 0.20035 0.97018 0.0
H3007 H 0.79359 0.17611 0.99081 0.0
H3008 H 0.77933 0.23193 0.97229 0.0
H3009 H 0.75726 0.1807 0.90412 0.0
H3010 H 0.74304 0.1777 0.92217 0.0
H3011 H 0.7644 0.17337 0.92593 0.0
C3012 C 0.75029 0.16888 0.97544 0.0
C3013 C 0.76546 0.16619 0.98531 0.0
C3014 C 0.75133 0.18278 0.96377 0.0
C3015 C 0.76755 0.19413 0.96166 0.0
C3016 C 0.78271 0.19165 0.97162 0.0
H3017 H 0.81043 0.27743 0.89603 0.0
H3018 H 0.80397 0.25789 0.92055 0.0
C3019 C 0.78169 0.17776 0.98334 0.0
C3020 C 0.76874 0.20859 0.94902 0.0
H3021 H 0.76188 0.21359 0.90249 0.0
C3022 C 0.77548 0.22796 0.95703 0.0
C3023 C 0.76359 0.20332 0.92916 0.0
C3024 C 0.7568 0.18264 0.91975 0.0
C3025 C 0.77734 0.24225 0.94563 0.0
C3026 C 0.77254 0.23692 0.92573 0.0
C3027 C 0.76543 0.2176 0.91779 0.0
C3028 C 0.77606 0.25085 0.91262 0.0
C3029 C 0.78439 0.2629 0.95495 0.0
C3030 C 0.76248 0.2534 0.90005 0.0
C3031 C 0.76613 0.26465 0.88599 0.0
C3032 C 0.78344 0.27338 0.88419 0.0
C3033 C 0.79694 0.27126 0.89725 0.0
C3034 C 0.79327 0.26007 0.91129 0.0
H3035 H 0.78248 0.26513 0.97024 0.0
H3036 H 0.79857 0.26704 0.9541 0.0
H3037 H 0.77806 0.27255 0.94765 0.0
H3038 H 0.74911 0.24629 0.90082 0.0
H3039 H 0.75544 0.26615 0.87627 0.0
H3040 H 0.14498 0.52165 0.186 0.0
H3041 H 0.1278 0.51984 0.15552 0.0
H3042 H 0.09923 0.46284 0.15899 0.0
H3043 H 0.1162 0.46465 0.18987 0.0
H3044 H 0.12211 0.49449 0.12094 0.0
H3045 H 0.06115 0.49242 0.15435 0.0
H3046 H 0.0823 0.49819 0.16828 0.0
H3047 H 0.07209 0.47378 0.15779 0.0
C3048 C 0.13513 0.50865 0.18027 0.0
C3049 C 0.13179 0.49338 0.19049 0.0
C3050 C 0.12537 0.50762 0.1628 0.0
C3051 C 0.11208 0.49134 0.15517 0.0
C3052 C 0.10923 0.47568 0.16484 0.0
H3053 H 0.03373 0.48765 0.0589 0.0
H3054 H 0.05126 0.47696 0.08331 0.0
C3055 C 0.11898 0.47671 0.18242 0.0
C3056 C 0.10073 0.4915 0.13766 0.0
H3057 H 0.05969 0.49435 0.12187 0.0
C3058 C 0.1084 0.4942 0.12104 0.0
C3059 C 0.08286 0.49111 0.13787 0.0
C3060 C 0.07406 0.48886 0.15553 0.0
C3061 C 0.09879 0.49716 0.10479 0.0
C3062 C 0.08114 0.49764 0.10533 0.0
C3063 C 0.07324 0.49398 0.12158 0.0
C3064 C 0.07105 0.50356 0.08988 0.0
C3065 C 0.10768 0.50018 0.08735 0.0
C3066 C 0.07626 0.52214 0.0858 0.0
C3067 C 0.06622 0.52831 0.07208 0.0
C3068 C 0.05087 0.51595 0.06217 0.0
C3069 C 0.04557 0.4974 0.06634 0.0
C3070 C 0.05558 0.49126 0.08017 0.0
H3071 H 0.11905 0.4936 0.08698 0.0
H3072 H 0.09856 0.49409 0.07407 0.0
H3073 H 0.11251 0.51578 0.08763 0.0
H3074 H 0.0879 0.53202 0.09353 0.0
H3075 H 0.07031 0.54283 0.06944 0.0
H3076 H 0.82209 0.90989 0.46667 0.0
H3077 H 0.81904 0.89173 0.43459 0.0
H3078 H 0.79815 0.83952 0.4551 0.0
H3079 H 0.8014 0.85767 0.48757 0.0
H3080 H 0.82268 0.83561 0.42982 0.0
H3081 H 0.77321 0.86999 0.39978 0.0
H3082 H 0.79255 0.88698 0.41162 0.0
H3083 H 0.77907 0.87201 0.42509 0.0
C3084 C 0.81681 0.89454 0.46445 0.0
C3085 C 0.81186 0.88527 0.47974 0.0
C3086 C 0.815 0.88418 0.44602 0.0
C3087 C 0.80806 0.8643 0.44233 0.0
C3088 C 0.80343 0.85487 0.45759 0.0
H3089 H 0.77211 0.80215 0.32673 0.0
H3090 H 0.77449 0.81556 0.36043 0.0
C3091 C 0.80527 0.86527 0.47613 0.0
C3092 C 0.80571 0.85354 0.42251 0.0
H3093 H 0.78654 0.85206 0.37742 0.0
C3094 C 0.81467 0.83909 0.41837 0.0
C3095 C 0.79508 0.85788 0.40759 0.0
C3096 C 0.78429 0.87242 0.41123 0.0
C3097 C 0.81368 0.82927 0.39965 0.0
C3098 C 0.8037 0.83426 0.3846 0.0
C3099 C 0.79436 0.84835 0.38886 0.0
C3100 C 0.80258 0.82506 0.36432 0.0
C3101 C 0.82317 0.81348 0.39623 0.0
C3102 C 0.81758 0.82589 0.35514 0.0
C3103 C 0.81629 0.81811 0.33577 0.0
C3104 C 0.79993 0.80954 0.3251 0.0
C3105 C 0.78495 0.80866 0.3344 0.0
C3106 C 0.78627 0.81634 0.35374 0.0
H3107 H 0.82579 0.80769 0.40945 0.0
H3108 H 0.81561 0.80154 0.38504 0.0
H3109 H 0.83588 0.81929 0.39144 0.0
H3110 H 0.8303 0.83295 0.36283 0.0
H3111 H 0.8281 0.81919 0.3291 0.0
H3112 H 0.43284 0.52399 0.81897 0.0
H3113 H 0.45068 0.52466 0.84871 0.0
H3114 H 0.48289 0.5791 0.84313 0.0
H3115 H 0.46488 0.57845 0.81282 0.0
H3116 H 0.48559 0.52546 0.85748 0.0
H3117 H 0.47202 0.59049 0.89825 0.0
H3118 H 0.45922 0.57815 0.87597 0.0
H3119 H 0.48042 0.5933 0.87607 0.0
C3120 C 0.44371 0.53623 0.82387 0.0
C3121 C 0.44713 0.5512 0.81306 0.0
C3122 C 0.45404 0.53655 0.84114 0.0
C3123 C 0.46824 0.55202 0.84883 0.0
C3124 C 0.47193 0.56702 0.83804 0.0
H3125 H 0.53636 0.57432 0.96112 0.0
H3126 H 0.52191 0.57676 0.93 0.0
C3127 C 0.46164 0.56658 0.82044 0.0
C3128 C 0.47897 0.55192 0.86783 0.0
H3129 H 0.49094 0.57544 0.91428 0.0
C3130 C 0.48673 0.53649 0.86983 0.0
C3131 C 0.48083 0.56617 0.88432 0.0
C3132 C 0.47261 0.58293 0.88374 0.0
C3133 C 0.49616 0.53499 0.88726 0.0
C3134 C 0.49758 0.54892 0.90399 0.0
C3135 C 0.49003 0.56454 0.90189 0.0
C3136 C 0.50662 0.54744 0.92357 0.0
C3137 C 0.505 0.51862 0.88719 0.0
C3138 C 0.50301 0.53033 0.93128 0.0
C3139 C 0.51152 0.52883 0.94912 0.0
C3140 C 0.52384 0.54449 0.96044 0.0
C3141 C 0.52714 0.56179 0.95304 0.0
C3142 C 0.51873 0.56323 0.93505 0.0
H3143 H 0.50809 0.51368 0.87273 0.0
H3144 H 0.51727 0.52272 0.89718 0.0
H3145 H 0.49611 0.50632 0.89146 0.0
H3146 H 0.49338 0.51797 0.92358 0.0
H3147 H 0.50823 0.51529 0.95414 0.0
H3148 H 0.7415 0.17888 0.06319 0.0
H3149 H 0.74388 0.20199 0.09241 0.0
H3150 H 0.78828 0.18395 0.11591 0.0
H3151 H 0.78621 0.16101 0.08665 0.0
H3152 H 0.74281 0.19721 0.13019 0.0
H3153 H 0.80658 0.24186 0.12029 0.0
H3154 H 0.79325 0.2238 0.10151 0.0
H3155 H 0.80664 0.21709 0.11974 0.0
C3156 C 0.75175 0.17977 0.07459 0.0
C3157 C 0.76377 0.16822 0.07253 0.0
C3158 C 0.75307 0.19298 0.09127 0.0
C3159 C 0.76645 0.19492 0.10614 0.0
C3160 C 0.7781 0.18297 0.1044 0.0
H3161 H 0.78006 0.24566 0.22374 0.0
H3162 H 0.77123 0.22497 0.19269 0.0
C3163 C 0.77683 0.16979 0.08772 0.0
C3164 C 0.76832 0.20952 0.12345 0.0
H3165 H 0.79715 0.24799 0.1508 0.0
C3166 C 0.75462 0.20843 0.13465 0.0
C3167 C 0.78359 0.22437 0.12899 0.0
C3168 C 0.79829 0.22702 0.11691 0.0
C3169 C 0.75608 0.22136 0.15168 0.0
C3170 C 0.77176 0.23551 0.15777 0.0
C3171 C 0.78518 0.23704 0.14619 0.0
C3172 C 0.77502 0.24823 0.17657 0.0
C3173 C 0.74083 0.21976 0.16297 0.0
C3174 C 0.78014 0.26821 0.17785 0.0
C3175 C 0.78537 0.28008 0.19561 0.0
C3176 C 0.78564 0.27212 0.21233 0.0
C3177 C 0.7799 0.25219 0.21107 0.0
C3178 C 0.77474 0.24035 0.19333 0.0
H3179 H 0.72837 0.21278 0.15372 0.0
H3180 H 0.74249 0.2108 0.17398 0.0
H3181 H 0.73992 0.23404 0.17022 0.0
H3182 H 0.78054 0.27457 0.16507 0.0
H3183 H 0.78973 0.2954 0.19621 0.0
H3184 H 0.1186 0.4932 0.27451 0.0
H3185 H 0.09871 0.48596 0.298 0.0
H3186 H 0.13157 0.53198 0.33951 0.0
H3187 H 0.15186 0.53882 0.31629 0.0
H3188 H 0.12218 0.50066 0.35461 0.0
H3189 H 0.06365 0.51427 0.31601 0.0
H3190 H 0.07226 0.49656 0.30238 0.0
H3191 H 0.08498 0.52089 0.30868 0.0
C3192 C 0.1215 0.50188 0.2886 0.0
C3193 C 0.13673 0.51664 0.29356 0.0
C3194 C 0.11008 0.49779 0.30198 0.0
C3195 C 0.11349 0.50865 0.3204 0.0
C3196 C 0.12866 0.52345 0.32534 0.0
H3197 H 0.04225 0.51596 0.40316 0.0
H3198 H 0.06056 0.51986 0.37767 0.0
C3199 C 0.14022 0.52736 0.31207 0.0
C3200 C 0.10157 0.50427 0.33477 0.0
H3201 H 0.05943 0.49975 0.34343 0.0
C3202 C 0.10846 0.50051 0.3522 0.0
C3203 C 0.08372 0.50426 0.33165 0.0
C3204 C 0.07574 0.5094 0.31375 0.0
C3205 C 0.09802 0.49685 0.36666 0.0
C3206 C 0.08006 0.49629 0.36332 0.0
C3207 C 0.07316 0.49995 0.34585 0.0
C3208 C 0.06842 0.49321 0.3782 0.0
C3209 C 0.1065 0.49432 0.38556 0.0
C3210 C 0.06649 0.47674 0.3867 0.0
C3211 C 0.05618 0.47462 0.40145 0.0
C3212 C 0.04739 0.48873 0.40756 0.0
C3213 C 0.04881 0.50481 0.39855 0.0
C3214 C 0.05928 0.50706 0.38404 0.0
H3215 H 0.12082 0.50028 0.38747 0.0
H3216 H 0.10102 0.50139 0.39761 0.0
H3217 H 0.10415 0.47881 0.38624 0.0
H3218 H 0.07303 0.46561 0.38205 0.0
H3219 H 0.05504 0.46199 0.40806 0.0
H3220 H 0.77051 0.86968 0.58463 0.0
H3221 H 0.77052 0.85694 0.61437 0.0
H3222 H 0.82663 0.87102 0.62205 0.0
H3223 H 0.82677 0.88402 0.59228 0.0
H3224 H 0.78463 0.82719 0.6242 0.0
H3225 H 0.81511 0.89557 0.67334 0.0
H3226 H 0.80634 0.89482 0.64899 0.0
H3227 H 0.8271 0.88944 0.65417 0.0
C3228 C 0.78289 0.87012 0.59261 0.0
C3229 C 0.79865 0.87796 0.58604 0.0
C3230 C 0.78286 0.86281 0.60964 0.0
C3231 C 0.79856 0.86327 0.62063 0.0
C3232 C 0.81435 0.87085 0.61403 0.0
H3233 H 0.81653 0.82209 0.72865 0.0
H3234 H 0.82051 0.83677 0.70001 0.0
C3235 C 0.8144 0.87815 0.59692 0.0
C3236 C 0.79822 0.85537 0.63873 0.0
H3237 H 0.809 0.86753 0.68709 0.0
C3238 C 0.78998 0.83602 0.63794 0.0
C3239 C 0.8053 0.86686 0.65667 0.0
C3240 C 0.81385 0.88787 0.65848 0.0
C3241 C 0.78856 0.82785 0.65454 0.0
C3242 C 0.79524 0.83943 0.67253 0.0
C3243 C 0.80383 0.85869 0.67332 0.0
C3244 C 0.79296 0.83182 0.69061 0.0
C3245 C 0.78004 0.80681 0.65262 0.0
C3246 C 0.77618 0.82475 0.69521 0.0
C3247 C 0.7739 0.8164 0.7115 0.0
C3248 C 0.78834 0.81503 0.72363 0.0
C3249 C 0.80516 0.82287 0.71952 0.0
C3250 C 0.80744 0.83125 0.70316 0.0
H3251 H 0.78012 0.79895 0.63809 0.0
H3252 H 0.78669 0.80008 0.66313 0.0
H3253 H 0.76628 0.80512 0.65527 0.0
H3254 H 0.76481 0.82545 0.68601 0.0
H3255 H 0.76078 0.81066 0.71439 0.0
H3256 H 0.73964 0.45362 0.50132 0.0
H3257 H 0.71932 0.47405 0.49858 0.0
H3258 H 0.7582 0.51522 0.47818 0.0
H3259 H 0.77891 0.49508 0.48158 0.0
H3260 H 0.74338 0.53271 0.50428 0.0
H3261 H 0.69126 0.48294 0.45321 0.0
H3262 H 0.69615 0.47167 0.47298 0.0
H3263 H 0.71256 0.47839 0.45776 0.0
C3264 C 0.74383 0.46692 0.49606 0.0
C3265 C 0.76085 0.47273 0.49162 0.0
C3266 C 0.73214 0.47852 0.49433 0.0
C3267 C 0.73709 0.49595 0.48772 0.0
C3268 C 0.75406 0.50174 0.48314 0.0
H3269 H 0.64959 0.55058 0.47738 0.0
H3270 H 0.67497 0.53903 0.46827 0.0
C3271 C 0.76587 0.49024 0.48511 0.0
C3272 C 0.72485 0.50862 0.48701 0.0
H3273 H 0.68222 0.50751 0.4742 0.0
C3274 C 0.7301 0.52735 0.49736 0.0
C3275 C 0.70767 0.5019 0.47752 0.0
C3276 C 0.70168 0.48269 0.46457 0.0
C3277 C 0.71824 0.53898 0.49969 0.0
C3278 C 0.70058 0.5314 0.49202 0.0
C3279 C 0.69568 0.51324 0.48043 0.0
C3280 C 0.68667 0.54109 0.49728 0.0
C3281 C 0.72476 0.55913 0.51062 0.0
C3282 C 0.68491 0.54629 0.51658 0.0
C3283 C 0.67062 0.55313 0.52176 0.0
C3284 C 0.65761 0.55447 0.50774 0.0
C3285 C 0.65949 0.54963 0.48843 0.0
C3286 C 0.67396 0.54308 0.48324 0.0
H3287 H 0.73849 0.56511 0.50861 0.0
H3288 H 0.71671 0.56879 0.50614 0.0
H3289 H 0.72443 0.55891 0.52606 0.0
H3290 H 0.69417 0.54425 0.5277 0.0
H3291 H 0.6693 0.55644 0.53674 0.0
H3292 H 0.2324 0.139 0.53016 0.0
H3293 H 0.20185 0.12199 0.52783 0.0
H3294 H 0.1963 0.11957 0.467 0.0
H3295 H 0.22693 0.13682 0.46916 0.0
H3296 H 0.17072 0.13487 0.50749 0.0
H3297 H 0.17889 0.06202 0.47955 0.0
H3298 H 0.19656 0.08029 0.49358 0.0
H3299 H 0.18969 0.08214 0.46952 0.0
C3300 C 0.22475 0.13481 0.51624 0.0
C3301 C 0.23218 0.13925 0.49983 0.0
C3302 C 0.20726 0.12513 0.51496 0.0
C3303 C 0.19684 0.11947 0.49725 0.0
C3304 C 0.20416 0.12375 0.4808 0.0
H3305 H 0.09085 0.04678 0.47018 0.0
H3306 H 0.11994 0.066 0.46792 0.0
C3307 C 0.22166 0.13361 0.48207 0.0
C3308 C 0.17828 0.10923 0.49615 0.0
H3309 H 0.15075 0.06473 0.4851 0.0
C3310 C 0.1663 0.11955 0.50251 0.0
C3311 C 0.17255 0.0893 0.48951 0.0
C3312 C 0.18502 0.07763 0.48268 0.0
C3313 C 0.1487 0.11043 0.50249 0.0
C3314 C 0.14304 0.09032 0.49648 0.0
C3315 C 0.15502 0.0801 0.48976 0.0
C3316 C 0.12493 0.0795 0.49759 0.0
C3317 C 0.13633 0.12253 0.50864 0.0
C3318 C 0.11797 0.0806 0.51499 0.0
C3319 C 0.1013 0.06977 0.51625 0.0
C3320 C 0.09132 0.05736 0.50019 0.0
C3321 C 0.09823 0.05626 0.48278 0.0
C3322 C 0.11487 0.06721 0.48149 0.0
H3323 H 0.14108 0.13759 0.50657 0.0
H3324 H 0.12312 0.11673 0.50061 0.0
H3325 H 0.13535 0.12274 0.52403 0.0
H3326 H 0.12559 0.0895 0.52776 0.0
H3327 H 0.09642 0.07075 0.52992 0.0
H3328 H 0.18069 0.94801 0.77174 0.0
H3329 H 0.19256 0.91909 0.77002 0.0
H3330 H 0.24439 0.95442 0.77416 0.0
H3331 H 0.23285 0.98286 0.77616 0.0
H3332 H 0.21096 0.90036 0.74636 0.0
H3333 H 0.25434 0.92466 0.81422 0.0
H3334 H 0.23804 0.93701 0.80736 0.0
H3335 H 0.25882 0.94163 0.79844 0.0
C3336 C 0.19464 0.94972 0.77241 0.0
C3337 C 0.20557 0.96838 0.77431 0.0
C3338 C 0.20154 0.93294 0.77137 0.0
C3339 C 0.21972 0.93397 0.77241 0.0
C3340 C 0.23047 0.95258 0.77393 0.0
H3341 H 0.29347 0.85674 0.76939 0.0
H3342 H 0.27879 0.88319 0.77091 0.0
C3343 C 0.22365 0.96917 0.77493 0.0
C3344 C 0.2276 0.91606 0.77167 0.0
H3345 H 0.2599 0.89841 0.79357 0.0
C3346 C 0.22155 0.90001 0.75688 0.0
C3347 C 0.24161 0.91484 0.78512 0.0
C3348 C 0.24847 0.93035 0.80228 0.0
C3349 C 0.22921 0.88377 0.75484 0.0
C3350 C 0.24339 0.8827 0.76816 0.0
C3351 C 0.24926 0.89866 0.78307 0.0
C3352 C 0.25246 0.86563 0.76688 0.0
C3353 C 0.22233 0.86819 0.73776 0.0
C3354 C 0.24314 0.84615 0.76429 0.0
C3355 C 0.25169 0.83071 0.76336 0.0
C3356 C 0.27008 0.83381 0.76508 0.0
C3357 C 0.27938 0.85328 0.76784 0.0
C3358 C 0.27084 0.86869 0.76879 0.0
H3359 H 0.21571 0.87356 0.72607 0.0
H3360 H 0.23293 0.86215 0.7322 0.0
H3361 H 0.21263 0.8565 0.74193 0.0
H3362 H 0.22909 0.84274 0.76332 0.0
H3363 H 0.24376 0.81622 0.76142 0.0
H3364 H 0.34775 0.9809 0.06722 0.0
H3365 H 0.37831 0.99491 0.07999 0.0
H3366 H 0.39096 0.99842 0.02306 0.0
H3367 H 0.36053 0.9845 0.01018 0.0
H3368 H 0.40545 0.97786 0.07048 0.0
H3369 H 0.41687 0.05107 0.05349 0.0
H3370 H 0.39533 0.0367 0.05433 0.0
H3371 H 0.40599 0.03331 0.03336 0.0
C3372 C 0.35698 0.985 0.05745 0.0
C3373 C 0.35174 0.98155 0.03767 0.0
C3374 C 0.37442 0.99298 0.06478 0.0
C3375 C 0.38682 0.9979 0.05249 0.0
C3376 C 0.38152 0.99508 0.03282 0.0
H3377 H 0.48531 0.99217 0.0351 0.0
H3378 H 0.45604 0.98632 0.04417 0.0
C3379 C 0.36413 0.987 0.02547 0.0
C3380 C 0.40557 1.00409 0.05973 0.0
H3381 H 0.44213 0.03754 0.05614 0.0
C3382 C 0.41348 0.99114 0.06783 0.0
C3383 C 0.41597 0.02157 0.05664 0.0
C3384 C 0.40808 0.03655 0.04916 0.0
C3385 C 0.43165 0.99444 0.07125 0.0
C3386 C 0.44207 0.01097 0.06622 0.0
C3387 C 0.43413 0.02476 0.05983 0.0
C3388 C 0.46074 0.01278 0.06436 0.0
C3389 C 0.43952 0.97978 0.07939 0.0
C3390 C 0.47325 0.02946 0.07297 0.0
C3391 C 0.49007 0.03286 0.06776 0.0
C3392 C 0.49447 0.01976 0.05363 0.0
C3393 C 0.48227 1.00253 0.046 0.0
C3394 C 0.46556 0.99909 0.0513 0.0
H3395 H 0.43093 0.97242 0.08882 0.0
H3396 H 0.44097 0.96873 0.06757 0.0
H3397 H 0.45254 0.98643 0.0876 0.0
H3398 H 0.46972 0.04028 0.08294 0.0
H3399 H 0.49916 0.04635 0.07375 0.0
H3400 H 0.90189 0.61819 0.78153 0.0
H3401 H 0.87719 0.63049 0.77053 0.0
H3402 H 0.84175 0.57827 0.77722 0.0
H3403 H 0.86636 0.56585 0.78844 0.0
H3404 H 0.85063 0.61299 0.73845 0.0
H3405 H 0.82416 0.62177 0.80795 0.0
H3406 H 0.84606 0.61906 0.80634 0.0
H3407 H 0.82794 0.59874 0.7991 0.0
C3408 C 0.88885 0.60934 0.78078 0.0
C3409 C 0.88607 0.5911 0.78595 0.0
C3410 C 0.87478 0.61636 0.77441 0.0
C3411 C 0.85771 0.60529 0.77316 0.0
C3412 C 0.85484 0.58707 0.77829 0.0
H3413 H 0.76895 0.65681 0.75384 0.0
H3414 H 0.78386 0.63059 0.75462 0.0
C3415 C 0.86892 0.58003 0.78469 0.0
C3416 C 0.84304 0.61312 0.76662 0.0
H3417 H 0.81095 0.63306 0.78281 0.0
C3418 C 0.84175 0.61712 0.74802 0.0
C3419 C 0.83138 0.61821 0.7791 0.0
C3420 C 0.83241 0.61437 0.79928 0.0
C3421 C 0.82963 0.62704 0.74188 0.0
C3422 C 0.81879 0.63332 0.75479 0.0
C3423 C 0.81929 0.62817 0.77295 0.0
C3424 C 0.80899 0.64772 0.75102 0.0
C3425 C 0.82892 0.63125 0.72183 0.0
C3426 C 0.81817 0.66585 0.74851 0.0
C3427 C 0.80977 0.68071 0.74816 0.0
C3428 C 0.79204 0.67773 0.75041 0.0
C3429 C 0.78261 0.65936 0.752 0.0
C3430 C 0.79109 0.64445 0.75246 0.0
H3431 H 0.83297 0.62012 0.71208 0.0
H3432 H 0.81564 0.63208 0.71628 0.0
H3433 H 0.83806 0.6452 0.72175 0.0
H3434 H 0.83206 0.66879 0.7478 0.0
H3435 H 0.81726 0.69474 0.74678 0.0
H3436 H 0.84698 0.67515 0.02234 0.0
H3437 H 0.8704 0.65836 0.0213 0.0
H3438 H 0.83762 0.61242 0.97977 0.0
H3439 H 0.81404 0.62928 0.98056 0.0
H3440 H 0.87055 0.62231 0.02986 0.0
H3441 H 0.88233 0.62545 0.9549 0.0
H3442 H 0.86979 0.64006 0.96735 0.0
H3443 H 0.86022 0.61521 0.95804 0.0
C3444 C 0.8447 0.6615 0.0129 0.0
C3445 C 0.82859 0.65361 1.00147 0.0
C3446 C 0.85815 0.65191 0.01234 0.0
C3447 C 0.8559 0.63424 1.00028 0.0
C3448 C 0.8398 0.62621 0.98893 0.0
H3449 H 0.92486 0.55648 0.98246 0.0
H3450 H 0.9007 0.57227 0.98081 0.0
C3451 C 0.82629 0.63581 0.98948 0.0
C3452 C 0.87032 0.62414 1.00009 0.0
H3453 H 0.89824 0.60778 0.97179 0.0
C3454 C 0.87661 0.61915 0.01716 0.0
C3455 C 0.87821 0.61997 0.98351 0.0
C3456 C 0.87243 0.62557 0.96492 0.0
C3457 C 0.89046 0.61002 0.0181 0.0
C3458 C 0.89853 0.60609 1.00159 0.0
C3459 C 0.89211 0.61086 0.98445 0.0
C3460 C 0.91365 0.59705 1.0019 0.0
C3461 C 0.89612 0.60436 0.0367 0.0
C3462 C 0.9292 0.60594 0.01393 0.0
C3463 C 0.94309 0.59699 0.01486 0.0
C3464 C 0.94182 0.57897 1.00368 0.0
C3465 C 0.92642 0.57041 0.99116 0.0
C3466 C 0.91252 0.57938 0.99026 0.0
H3467 H 0.88581 0.60359 0.04627 0.0
H3468 H 0.89954 0.59025 0.03427 0.0
H3469 H 0.90781 0.61523 0.04414 0.0
H3470 H 0.93056 0.61981 0.02269 0.0
H3471 H 0.95485 0.60421 0.02437 0.0
H3472 H 0.21855 0.07249 0.79287 0.0
H3473 H 0.23645 0.10515 0.79346 0.0
H3474 H 0.19671 0.11581 0.75429 0.0
H3475 H 0.17889 0.08397 0.75403 0.0
H3476 H 0.25173 0.12506 0.76805 0.0
H3477 H 0.20249 0.16272 0.79247 0.0
H3478 H 0.20005 0.13744 0.79235 0.0
H3479 H 0.19399 0.14601 0.7709 0.0
C3480 C 0.21358 0.08181 0.78445 0.0
C3481 C 0.19696 0.07526 0.7736 0.0
C3482 C 0.22389 0.10065 0.78477 0.0
C3483 C 0.21795 0.11366 0.77435 0.0
C3484 C 0.20163 0.10679 0.76311 0.0
H3485 H 0.25872 0.23148 0.75031 0.0
H3486 H 0.24156 0.19881 0.75095 0.0
C3487 C 0.19138 0.0882 0.76287 0.0
C3488 C 0.22864 0.13412 0.77472 0.0
H3489 H 0.22597 0.18134 0.77962 0.0
C3490 C 0.24605 0.13731 0.77078 0.0
C3491 C 0.22159 0.15058 0.7782 0.0
C3492 C 0.20358 0.14907 0.78391 0.0
C3493 C 0.25616 0.15587 0.76972 0.0
C3494 C 0.24901 0.17224 0.7729 0.0
C3495 C 0.23166 0.16909 0.77696 0.0
C3496 C 0.25939 0.19263 0.77258 0.0
C3497 C 0.27439 0.15766 0.76461 0.0
C3498 C 0.27511 0.20075 0.78474 0.0
C3499 C 0.28485 0.21951 0.78448 0.0
C3500 C 0.27938 0.2311 0.77206 0.0
C3501 C 0.26349 0.22317 0.76007 0.0
C3502 C 0.25363 0.20435 0.76044 0.0
H3503 H 0.27622 0.14379 0.75728 0.0
H3504 H 0.27758 0.16854 0.75526 0.0
H3505 H 0.28378 0.16221 0.77783 0.0
H3506 H 0.27987 0.19259 0.79465 0.0
H3507 H 0.29687 0.22493 0.79406 0.0
H3508 H 0.37973 1.00141 0.29232 0.0
H3509 H 0.3629 0.96823 0.2848 0.0
H3510 H 0.40958 0.94869 0.29679 0.0
H3511 H 0.42668 0.98195 0.304 0.0
H3512 H 0.3886 0.92828 0.26334 0.0
H3513 H 0.35016 0.93392 0.32409 0.0
H3514 H 0.34905 0.95146 0.30908 0.0
H3515 H 0.36946 0.95185 0.32244 0.0
C3516 C 0.38645 0.99009 0.29345 0.0
C3517 C 0.40454 0.99431 0.2989 0.0
C3518 C 0.37679 0.97114 0.28918 0.0
C3519 C 0.38497 0.95606 0.2905 0.0
C3520 C 0.40304 0.96017 0.29574 0.0
H3521 H 0.33506 0.84137 0.3001 0.0
H3522 H 0.35331 0.87359 0.30343 0.0
C3523 C 0.41276 0.97916 0.29993 0.0
C3524 C 0.37461 0.93602 0.28653 0.0
H3525 H 0.34127 0.90547 0.30116 0.0
C3526 C 0.37827 0.92322 0.27161 0.0
C3527 C 0.36126 0.92951 0.29746 0.0
C3528 C 0.35732 0.94233 0.31428 0.0
C3529 C 0.36884 0.90402 0.26728 0.0
C3530 C 0.35525 0.89764 0.27798 0.0
C3531 C 0.35162 0.91047 0.29288 0.0
C3532 C 0.3452 0.87747 0.27488 0.0
C3533 C 0.37375 0.89063 0.25165 0.0
C3534 C 0.33473 0.86884 0.25756 0.0
C3535 C 0.32428 0.85022 0.25553 0.0
C3536 C 0.32399 0.84019 0.27091 0.0
C3537 C 0.33479 0.84879 0.28805 0.0
C3538 C 0.34529 0.86721 0.28998 0.0
H3539 H 0.38689 0.89658 0.24787 0.0
H3540 H 0.37353 0.87649 0.25593 0.0
H3541 H 0.36419 0.8883 0.23872 0.0
H3542 H 0.33426 0.87666 0.24583 0.0
H3543 H 0.31605 0.84396 0.24219 0.0
H3544 H 0.56424 0.34869 0.58812 0.0
H3545 H 0.55948 0.37435 0.57094 0.0
H3546 H 0.6029 0.41394 0.60671 0.0
H3547 H 0.60773 0.3885 0.62394 0.0
H3548 H 0.55265 0.41037 0.58742 0.0
H3549 H 0.61258 0.42149 0.552 0.0
H3550 H 0.60445 0.39996 0.56145 0.0
H3551 H 0.61599 0.42155 0.57719 0.0
C3552 C 0.5729 0.3628 0.59221 0.0
C3553 C 0.58642 0.36644 0.60742 0.0
C3554 C 0.57012 0.37749 0.58239 0.0
C3555 C 0.58094 0.39608 0.58735 0.0
C3556 C 0.59454 0.39969 0.60238 0.0
H3557 H 0.58509 0.50613 0.54977 0.0
H3558 H 0.59108 0.47922 0.5641 0.0
C3559 C 0.59723 0.38509 0.61229 0.0
C3560 C 0.57757 0.41191 0.57744 0.0
H3561 H 0.59552 0.4443 0.55023 0.0
C3562 C 0.56196 0.4177 0.57917 0.0
C3563 C 0.5898 0.42165 0.56684 0.0
C3564 C 0.6066 0.41581 0.56407 0.0
C3565 C 0.55839 0.43314 0.57096 0.0
C3566 C 0.57054 0.4428 0.56016 0.0
C3567 C 0.58616 0.43697 0.55842 0.0
C3568 C 0.56727 0.45899 0.55065 0.0
C3569 C 0.54186 0.43932 0.57454 0.0
C3570 C 0.55215 0.4566 0.53781 0.0
C3571 C 0.54863 0.47201 0.52971 0.0
C3572 C 0.56028 0.49021 0.53395 0.0
C3573 C 0.57579 0.49238 0.54615 0.0
C3574 C 0.57923 0.47696 0.5544 0.0
H3575 H 0.53686 0.43462 0.5875 0.0
H3576 H 0.54391 0.45513 0.57622 0.0
H3577 H 0.53168 0.43268 0.56227 0.0
H3578 H 0.54295 0.44281 0.53413 0.0
H3579 H 0.53664 0.46966 0.52023 0.0
H3580 H 0.44338 0.7724 0.40072 0.0
H3581 H 0.41712 0.77358 0.38082 0.0
H3582 H 0.43923 0.75529 0.3305 0.0
H3583 H 0.46557 0.75382 0.35039 0.0
H3584 H 0.41367 0.79574 0.3536 0.0
H3585 H 0.39124 0.71895 0.32111 0.0
H3586 H 0.40776 0.72738 0.34148 0.0
H3587 H 0.41322 0.72956 0.31793 0.0
C3588 C 0.44266 0.76843 0.38543 0.0
C3589 C 0.45666 0.76292 0.37722 0.0
C3590 C 0.42759 0.76916 0.37404 0.0
C3591 C 0.42601 0.76432 0.35412 0.0
C3592 C 0.43992 0.75873 0.34583 0.0
H3593 H 0.34937 0.76554 0.26002 0.0
H3594 H 0.37452 0.76295 0.28098 0.0
C3595 C 0.45504 0.75797 0.35725 0.0
C3596 C 0.41009 0.76584 0.34211 0.0
H3597 H 0.37659 0.74035 0.30824 0.0
C3598 C 0.40551 0.78359 0.34376 0.0
C3599 C 0.39937 0.75002 0.32926 0.0
C3600 C 0.40301 0.73035 0.32742 0.0
C3601 C 0.39084 0.78606 0.33265 0.0
C3602 C 0.38019 0.77026 0.3197 0.0
C3603 C 0.38471 0.75248 0.31814 0.0
C3604 C 0.36468 0.77199 0.30715 0.0
C3605 C 0.38721 0.80573 0.33446 0.0
C3606 C 0.35056 0.7778 0.31478 0.0
C3607 C 0.33612 0.77936 0.30273 0.0
C3608 C 0.33544 0.77501 0.28285 0.0
C3609 C 0.34949 0.76905 0.27528 0.0
C3610 C 0.36389 0.76751 0.28727 0.0
H3611 H 0.39883 0.81711 0.34127 0.0
H3612 H 0.38295 0.80888 0.32031 0.0
H3613 H 0.37661 0.80635 0.34346 0.0
H3614 H 0.35063 0.78097 0.33006 0.0
H3615 H 0.32552 0.78392 0.30897 0.0
H3616 H 0.10628 0.75307 0.09796 0.0
H3617 H 0.09853 0.71892 0.08456 0.0
H3618 H 0.04407 0.71851 0.08305 0.0
H3619 H 0.05169 0.7528 0.09649 0.0
H3620 H 0.0782 0.68923 0.10136 0.0
H3621 H 0.04822 0.69161 0.02869 0.0
H3622 H 0.06237 0.71242 0.04378 0.0
H3623 H 0.04032 0.70425 0.04827 0.0
C3624 C 0.09263 0.74582 0.09462 0.0
C3625 C 0.07961 0.75576 0.09829 0.0
C3626 C 0.08823 0.72625 0.08698 0.0
C3627 C 0.07073 0.71616 0.08263 0.0
C3628 C 0.05767 0.72605 0.08602 0.0
H3629 H 0.02453 0.59483 0.03565 0.0
H3630 H 0.02894 0.62907 0.04812 0.0
C3631 C 0.06206 0.74565 0.09378 0.0
C3632 C 0.0663 0.69516 0.07539 0.0
H3633 H 0.0476 0.66101 0.03649 0.0
C3634 C 0.07151 0.68306 0.08718 0.0
C3635 C 0.05741 0.68708 0.05696 0.0
C3636 C 0.05182 0.69945 0.04357 0.0
C3637 C 0.0681 0.66314 0.08106 0.0
C3638 C 0.05964 0.65508 0.06242 0.0
C3639 C 0.05413 0.66715 0.05074 0.0
C3640 C 0.05691 0.63427 0.05462 0.0
C3641 C 0.07337 0.6509 0.0948 0.0
C3642 C 0.07116 0.6258 0.05378 0.0
C3643 C 0.06868 0.60624 0.04678 0.0
C3644 C 0.05189 0.59466 0.04022 0.0
C3645 C 0.03764 0.60325 0.04066 0.0
C3646 C 0.04014 0.62286 0.04776 0.0
H3647 H 0.07453 0.65812 0.10983 0.0
H3648 H 0.06386 0.63684 0.09293 0.0
H3649 H 0.08628 0.64831 0.09218 0.0
H3650 H 0.08427 0.63436 0.05848 0.0
H3651 H 0.08 0.60024 0.04648 0.0
H3652 H 0.05009 0.27017 0.85213 0.0
H3653 H 0.07569 0.27378 0.83491 0.0
H3654 H 0.10761 0.27003 0.88558 0.0
H3655 H 0.08224 0.26637 0.90283 0.0
H3656 H 0.1081 0.30263 0.84424 0.0
H3657 H 0.11794 0.22933 0.84429 0.0
H3658 H 0.09776 0.23557 0.84897 0.0
H3659 H 0.1161 0.24199 0.86727 0.0
C3660 C 0.06254 0.27002 0.85959 0.0
C3661 C 0.06405 0.26788 0.87887 0.0
C3662 C 0.07717 0.27213 0.84973 0.0
C3663 C 0.09353 0.27193 0.85888 0.0
C3664 C 0.09508 0.2699 0.87812 0.0
H3665 H 0.19755 0.27849 0.82734 0.0
H3666 H 0.17174 0.27681 0.84381 0.0
C3667 C 0.08053 0.26789 0.88799 0.0
C3668 C 0.10911 0.27417 0.8485 0.0
H3669 H 0.14044 0.25161 0.83427 0.0
C3670 C 0.11512 0.29144 0.84193 0.0
C3671 C 0.11832 0.2596 0.84559 0.0
C3672 C 0.11216 0.2405 0.85174 0.0
C3673 C 0.13032 0.29472 0.83296 0.0
C3674 C 0.13957 0.28015 0.83007 0.0
C3675 C 0.13344 0.26282 0.83653 0.0
C3676 C 0.15558 0.28247 0.82034 0.0
C3677 C 0.1366 0.314 0.8272 0.0
C3678 C 0.15522 0.28629 0.80164 0.0
C3679 C 0.17006 0.28753 0.79225 0.0
C3680 C 0.18562 0.28473 0.80123 0.0
C3681 C 0.18597 0.28106 0.82004 0.0
C3682 C 0.17113 0.27991 0.82944 0.0
H3683 H 0.13125 0.32518 0.83529 0.0
H3684 H 0.15103 0.31864 0.82949 0.0
H3685 H 0.13217 0.31299 0.81185 0.0
H3686 H 0.14333 0.28795 0.79412 0.0
H3687 H 0.16928 0.29054 0.77786 0.0
H3688 H 0.58876 0.77275 0.9033 0.0
H3689 H 0.58167 0.74544 0.91985 0.0
H3690 H 0.58978 0.78395 0.97354 0.0
H3691 H 0.59661 0.8114 0.95709 0.0
H3692 H 0.60126 0.73438 0.94774 0.0
H3693 H 0.54146 0.75015 0.97398 0.0
H3694 H 0.55183 0.7618 0.95597 0.0
H3695 H 0.56038 0.76965 0.98071 0.0
C3696 C 0.58907 0.77544 0.91864 0.0
C3697 C 0.59317 0.79427 0.92887 0.0
C3698 C 0.58498 0.7598 0.92806 0.0
C3699 C 0.58488 0.76268 0.94787 0.0
C3700 C 0.58938 0.78143 0.95819 0.0
H3701 H 0.58828 0.67719 0.01975 0.0
H3702 H 0.59388 0.70542 1.00443 0.0
C3703 C 0.59341 0.79709 0.94878 0.0
C3704 C 0.58037 0.74601 0.95773 0.0
H3705 H 0.55197 0.72544 0.9861 0.0
C3706 C 0.59046 0.73239 0.95609 0.0
C3707 C 0.5661 0.74331 0.96837 0.0
C3708 C 0.5542 0.75689 0.96975 0.0
C3709 C 0.58687 0.7163 0.96508 0.0
C3710 C 0.57302 0.71399 0.97632 0.0
C3711 C 0.56271 0.7274 0.97767 0.0
C3712 C 0.56901 0.69763 0.98666 0.0
C3713 C 0.59778 0.70178 0.96222 0.0
C3714 C 0.55285 0.68431 0.98234 0.0
C3715 C 0.54947 0.66826 0.99132 0.0
C3716 C 0.56217 0.66531 1.00485 0.0
C3717 C 0.57811 0.67909 0.00958 0.0
C3718 C 0.58145 0.69512 1.00065 0.0
H3719 H 0.60458 0.70292 0.94938 0.0
H3720 H 0.60781 0.70432 0.97476 0.0
H3721 H 0.58967 0.68696 0.96077 0.0
H3722 H 0.54301 0.6861 0.97169 0.0
H3723 H 0.53697 0.65808 0.98753 0.0
H3724 H 0.03947 0.71902 0.69724 0.0
H3725 H 0.06856 0.7261 0.71483 0.0
H3726 H 0.07151 0.78668 0.71985 0.0
H3727 H 0.04254 0.77972 0.70178 0.0
H3728 H 0.09899 0.77798 0.70591 0.0
H3729 H 0.08918 0.74421 0.76958 0.0
H3730 H 0.07948 0.7275 0.74832 0.0
H3731 H 0.07135 0.74855 0.7547 0.0
C3732 C 0.04615 0.73385 0.70239 0.0
C3733 C 0.03874 0.74881 0.69801 0.0
C3734 C 0.06275 0.73788 0.71261 0.0
C3735 C 0.07212 0.75692 0.71892 0.0
C3736 C 0.06446 0.77188 0.71521 0.0
H3737 H 0.17859 0.77455 0.77752 0.0
H3738 H 0.14855 0.77786 0.77131 0.0
C3739 C 0.04792 0.76787 0.70486 0.0
C3740 C 0.09062 0.76109 0.72725 0.0
H3741 H 0.11814 0.74845 0.75983 0.0
C3742 C 0.10315 0.77185 0.71796 0.0
C3743 C 0.09608 0.75339 0.74316 0.0
C3744 C 0.08328 0.74296 0.75463 0.0
C3745 C 0.12097 0.77402 0.72334 0.0
C3746 C 0.12637 0.76485 0.73812 0.0
C3747 C 0.11393 0.75522 0.74829 0.0
C3748 C 0.14465 0.76359 0.74196 0.0
C3749 C 0.13385 0.78571 0.71282 0.0
C3750 C 0.15225 0.75433 0.72757 0.0
C3751 C 0.16929 0.75248 0.73103 0.0
C3752 C 0.17905 0.7597 0.74903 0.0
C3753 C 0.17142 0.769 0.76347 0.0
C3754 C 0.15429 0.77082 0.75998 0.0
H3755 H 0.1283 0.7966 0.70667 0.0
H3756 H 0.14605 0.7931 0.72232 0.0
H3757 H 0.13713 0.77608 0.70089 0.0
H3758 H 0.14492 0.74834 0.71367 0.0
H3759 H 0.17486 0.74544 0.71955 0.0
H3760 H 0.04655 0.35796 0.41876 0.0
H3761 H 0.04515 0.38583 0.44182 0.0
H3762 H 0.09969 0.41019 0.44084 0.0
H3763 H 0.10119 0.38253 0.4176 0.0
H3764 H 0.0653 0.39969 0.47843 0.0
H3765 H 0.07668 0.45381 0.4304 0.0
H3766 H 0.06903 0.42844 0.42134 0.0
H3767 H 0.09144 0.43835 0.43095 0.0
C3768 C 0.05825 0.36927 0.4234 0.0
C3769 C 0.07396 0.36809 0.41627 0.0
C3770 C 0.05741 0.38516 0.43657 0.0
C3771 C 0.07224 0.40016 0.44277 0.0
C3772 C 0.08801 0.39892 0.4359 0.0
H3773 H 0.08489 0.51022 0.51673 0.0
H3774 H 0.09061 0.48219 0.49714 0.0
C3775 C 0.08886 0.38306 0.42271 0.0
C3776 C 0.07123 0.41689 0.45673 0.0
H3777 H 0.07399 0.46495 0.46221 0.0
C3778 C 0.06719 0.41398 0.47492 0.0
C3779 C 0.0739 0.4355 0.45211 0.0
C3780 C 0.07789 0.43931 0.43261 0.0
C3781 C 0.06568 0.42922 0.48865 0.0
C3782 C 0.06788 0.44774 0.48386 0.0
C3783 C 0.07226 0.45071 0.4658 0.0
C3784 C 0.06494 0.46411 0.49703 0.0
C3785 C 0.06196 0.42536 0.50821 0.0
C3786 C 0.04866 0.46319 0.5035 0.0
C3787 C 0.04543 0.4791 0.51478 0.0
C3788 C 0.05834 0.49625 0.51948 0.0
C3789 C 0.07475 0.49708 0.51336 0.0
C3790 C 0.078 0.48114 0.50211 0.0
H3791 H 0.06617 0.41244 0.51144 0.0
H3792 H 0.06859 0.43775 0.51943 0.0
H3793 H 0.04773 0.42274 0.5088 0.0
H3794 H 0.03826 0.45034 0.49938 0.0
H3795 H 0.03272 0.47814 0.51946 0.0
H3796 H 0.44864 0.20849 0.19475 0.0
H3797 H 0.4196 0.20516 0.20502 0.0
H3798 H 0.42128 0.26386 0.19965 0.0
H3799 H 0.4501 0.26736 0.18945 0.0
H3800 H 0.41028 0.22823 0.23723 0.0
H3801 H 0.3741 0.23308 0.16898 0.0
H3802 H 0.39497 0.22692 0.17041 0.0
H3803 H 0.39379 0.25158 0.17554 0.0
C3804 C 0.44278 0.22065 0.19569 0.0
C3805 C 0.45166 0.23818 0.19124 0.0
C3806 C 0.42621 0.2187 0.20153 0.0
C3807 C 0.41822 0.23416 0.20274 0.0
C3808 C 0.4271 0.25165 0.19841 0.0
H3809 H 0.35402 0.28938 0.25778 0.0
H3810 H 0.37606 0.27352 0.24616 0.0
C3811 C 0.44363 0.25365 0.19271 0.0
C3812 C 0.40097 0.23267 0.2094 0.0
H3813 H 0.36158 0.24218 0.19756 0.0
C3814 C 0.39943 0.23074 0.22844 0.0
C3815 C 0.38676 0.23565 0.19781 0.0
C3816 C 0.38739 0.23673 0.17698 0.0
C3817 C 0.38459 0.23352 0.23664 0.0
C3818 C 0.37116 0.23839 0.22551 0.0
C3819 C 0.37201 0.23857 0.20606 0.0
C3820 C 0.35781 0.24659 0.23437 0.0
C3821 C 0.38371 0.23236 0.2574 0.0
C3822 C 0.3403 0.23656 0.23164 0.0
C3823 C 0.32763 0.24554 0.23846 0.0
C3824 C 0.33235 0.2648 0.24764 0.0
C3825 C 0.34997 0.27459 0.25064 0.0
C3826 C 0.36259 0.26553 0.24413 0.0
H3827 H 0.39305 0.22448 0.26291 0.0
H3828 H 0.38694 0.24708 0.2658 0.0
H3829 H 0.37034 0.22518 0.25962 0.0
H3830 H 0.33642 0.22196 0.22398 0.0
H3831 H 0.31413 0.23764 0.23596 0.0
H3832 H 0.66395 0.55206 0.35197 0.0
H3833 H 0.64712 0.55123 0.37871 0.0
H3834 H 0.61045 0.5008 0.34781 0.0
H3835 H 0.62769 0.50139 0.32076 0.0
H3836 H 0.61681 0.55568 0.38569 0.0
H3837 H 0.61573 0.48176 0.39667 0.0
H3838 H 0.62908 0.4932 0.38059 0.0
H3839 H 0.60623 0.48278 0.37325 0.0
C3840 C 0.65236 0.5406 0.35062 0.0
C3841 C 0.64756 0.52672 0.33369 0.0
C3842 C 0.64254 0.5402 0.36624 0.0
C3843 C 0.62731 0.52581 0.36609 0.0
C3844 C 0.62226 0.51194 0.34909 0.0
H3845 H 0.55059 0.50166 0.44789 0.0
H3846 H 0.56816 0.50219 0.42168 0.0
C3847 C 0.63216 0.51235 0.33329 0.0
C3848 C 0.61695 0.52586 0.38351 0.0
H3849 H 0.5984 0.49805 0.415 0.0
C3850 C 0.61291 0.54298 0.39202 0.0
C3851 C 0.61157 0.50958 0.39244 0.0
C3852 C 0.616 0.49084 0.38543 0.0
C3853 C 0.60362 0.54415 0.40825 0.0
C3854 C 0.59821 0.52786 0.41716 0.0
C3855 C 0.6023 0.51075 0.40867 0.0
C3856 C 0.58766 0.52785 0.43443 0.0
C3857 C 0.59916 0.5629 0.4152 0.0
C3858 C 0.59232 0.54188 0.45136 0.0
C3859 C 0.58197 0.54163 0.46677 0.0
C3860 C 0.5666 0.52718 0.46609 0.0
C3861 C 0.56225 0.51307 0.44937 0.0
C3862 C 0.57247 0.51334 0.4341 0.0
H3863 H 0.5995 0.57198 0.40397 0.0
H3864 H 0.58604 0.56053 0.41994 0.0
H3865 H 0.60887 0.57095 0.42744 0.0
H3866 H 0.60406 0.55314 0.45278 0.0
H3867 H 0.58583 0.55302 0.479 0.0
H3868 H 0.316 0.91927 0.05276 0.0
H3869 H 0.31966 0.89784 0.07521 0.0
H3870 H 0.28356 0.85108 0.03758 0.0
H3871 H 0.28016 0.87237 0.01469 0.0
H3872 H 0.29577 0.87836 0.09383 0.0
H3873 H 0.3243 0.82746 0.04858 0.0
H3874 H 0.32226 0.85013 0.04235 0.0
H3875 H 0.30374 0.82997 0.038 0.0
C3876 C 0.30882 0.90442 0.04921 0.0
C3877 C 0.29781 0.89749 0.03191 0.0
C3878 C 0.31098 0.89219 0.06205 0.0
C3879 C 0.30216 0.8728 0.0579 0.0
C3880 C 0.29086 0.86588 0.04082 0.0
H3881 H 0.2829 0.78755 0.12917 0.0
H3882 H 0.28409 0.80506 0.10256 0.0
C3883 C 0.28879 0.8781 0.02785 0.0
C3884 C 0.30427 0.86014 0.07191 0.0
H3885 H 0.31612 0.81873 0.07797 0.0
C3886 C 0.30035 0.86541 0.09039 0.0
C3887 C 0.31031 0.84328 0.06738 0.0
C3888 C 0.31556 0.83744 0.04806 0.0
C3889 C 0.30201 0.85411 0.10437 0.0
C3890 C 0.30775 0.83714 0.09974 0.0
C3891 C 0.31176 0.83183 0.08135 0.0
C3892 C 0.30888 0.82448 0.11386 0.0
C3893 C 0.29738 0.86015 0.12397 0.0
C3894 C 0.32277 0.82929 0.1286 0.0
C3895 C 0.32226 0.81918 0.14379 0.0
C3896 C 0.30777 0.80422 0.14448 0.0
C3897 C 0.29438 0.79879 0.12902 0.0
C3898 C 0.29496 0.80883 0.11382 0.0
H3899 H 0.29184 0.87297 0.12483 0.0
H3900 H 0.2878 0.84824 0.12801 0.0
H3901 H 0.30922 0.86349 0.13455 0.0
H3902 H 0.33361 0.84138 0.12876 0.0
H3903 H 0.3329 0.82353 0.15532 0.0
H3904 H 0.92396 0.53661 0.87075 0.0
H3905 H 0.94445 0.54383 0.89987 0.0
H3906 H 0.97216 0.59519 0.8822 0.0
H3907 H 0.95199 0.58776 0.85276 0.0
H3908 H 0.99333 0.57357 0.89016 0.0
H3909 H 0.95419 0.58031 0.94949 0.0
H3910 H 0.94488 0.55831 0.9334 0.0
H3911 H 0.94577 0.58085 0.92531 0.0
C3912 C 0.93418 0.54965 0.87325 0.0
C3913 C 0.93647 0.5615 0.85938 0.0
C3914 C 0.94581 0.55388 0.89001 0.0
C3915 C 0.95973 0.5702 0.89335 0.0
C3916 C 0.96147 0.58258 0.87996 0.0
H3917 H 0.05036 0.58291 0.98056 0.0
H3918 H 0.03006 0.59294 0.95824 0.0
C3919 C 0.94996 0.57827 0.86312 0.0
C3920 C 0.97377 0.57267 0.90927 0.0
H3921 H 0.98093 0.5696 0.95633 0.0
C3922 C 0.99072 0.57327 0.90474 0.0
C3923 C 0.97039 0.57236 0.92832 0.0
C3924 C 0.95283 0.57314 0.93441 0.0
C3925 C 1.00403 0.57207 0.91843 0.0
C3926 C 1.00025 0.57024 0.93704 0.0
C3927 C 0.98367 0.57089 0.94194 0.0
C3928 C 0.01253 0.56483 0.95067 0.0
C3929 C 0.02172 0.5714 0.91264 0.0
C3930 C 0.00937 0.54575 0.95348 0.0
C3931 C 0.02095 0.54002 0.96587 0.0
C3932 C 0.03571 0.55332 0.97588 0.0
C3933 C 0.03904 0.57241 0.97292 0.0
C3934 C 0.02745 0.57816 0.96035 0.0
H3935 H 0.02241 0.57253 0.8974 0.0
H3936 H 0.03176 0.58336 0.92149 0.0
H3937 H 0.02494 0.55779 0.91521 0.0
H3938 H 0.99799 0.53527 0.94594 0.0
H3939 H 0.01829 0.52515 0.96771 0.0
H3940 H 0.25148 0.2138 0.54397 0.0
H3941 H 0.25598 0.22833 0.57766 0.0
H3942 H 0.30886 0.22215 0.5821 0.0
H3943 H 0.30452 0.2076 0.54835 0.0
H3944 H 0.26566 0.21047 0.60852 0.0
H3945 H 0.31364 0.27856 0.60709 0.0
H3946 H 0.30027 0.26426 0.5859 0.0
H3947 H 0.31892 0.25712 0.59583 0.0
C3948 C 0.26415 0.21571 0.55201 0.0
C3949 C 0.27765 0.20955 0.54338 0.0
C3950 C 0.26668 0.224 0.57131 0.0
C3951 C 0.2828 0.22651 0.58238 0.0
C3952 C 0.2964 0.22066 0.57377 0.0
H3953 H 0.31977 0.26875 0.70317 0.0
H3954 H 0.31725 0.25716 0.66889 0.0
C3955 C 0.29386 0.21227 0.55448 0.0
C3956 C 0.28501 0.23428 0.60314 0.0
H3957 H 0.30748 0.27169 0.63744 0.0
C3958 C 0.27476 0.22389 0.61484 0.0
C3959 C 0.29699 0.25171 0.61139 0.0
C3960 C 0.30802 0.26369 0.59944 0.0
C3961 C 0.27627 0.23032 0.63457 0.0
C3962 C 0.28805 0.24793 0.64283 0.0
C3963 C 0.29841 0.25825 0.63114 0.0
C3964 C 0.28972 0.25583 0.66355 0.0
C3965 C 0.26552 0.21791 0.64644 0.0
C3966 C 0.27519 0.25944 0.67194 0.0
C3967 C 0.27655 0.26597 0.69156 0.0
C3968 C 0.29254 0.26928 0.70323 0.0
C3969 C 0.30723 0.26633 0.69467 0.0
C3970 C 0.30582 0.25969 0.67504 0.0
H3971 H 0.26125 0.20274 0.63914 0.0
H3972 H 0.27291 0.21839 0.6605 0.0
H3973 H 0.25368 0.22318 0.64886 0.0
H3974 H 0.26273 0.25709 0.66333 0.0
H3975 H 0.26499 0.26826 0.69757 0.0
H3976 H 0.6594 0.51914 0.21036 0.0
H3977 H 0.64674 0.5215 0.17824 0.0
H3978 H 0.59774 0.52268 0.1991 0.0
H3979 H 0.61042 0.52118 0.23097 0.0
H3980 H 0.62266 0.50238 0.15099 0.0
H3981 H 0.60032 0.56755 0.17434 0.0
H3982 H 0.61387 0.55824 0.19027 0.0
H3983 H 0.59058 0.54876 0.18638 0.0
C3984 C 0.64592 0.51987 0.20813 0.0
C3985 C 0.63615 0.52012 0.2237 0.0
C3986 C 0.63859 0.52128 0.18958 0.0
C3987 C 0.62119 0.52296 0.18579 0.0
C3988 C 0.61131 0.5223 0.20123 0.0
H3989 H 0.56352 0.5021 0.06783 0.0
H3990 H 0.57709 0.49896 0.09896 0.0
C3991 C 0.61864 0.52118 0.21969 0.0
C3992 C 0.61327 0.5252 0.16599 0.0
H3993 H 0.58821 0.55051 0.14322 0.0
C3994 C 0.61522 0.51302 0.14942 0.0
C3995 C 0.60371 0.53928 0.16319 0.0
C3996 C 0.60216 0.55432 0.17946 0.0
C3997 C 0.60779 0.51416 0.1308 0.0
C3998 C 0.59738 0.52751 0.12815 0.0
C3999 C 0.59578 0.53996 0.14469 0.0
C4000 C 0.58848 0.52927 0.1086 0.0
C4001 C 0.6118 0.50131 0.1141 0.0
C4002 C 0.58918 0.54736 0.10314 0.0
C4003 C 0.58091 0.54922 0.08529 0.0
C4004 C 0.57156 0.53307 0.07191 0.0
C4005 C 0.57067 0.51498 0.07739 0.0
C4006 C 0.57873 0.51314 0.09537 0.0
H4007 H 0.62422 0.49712 0.11752 0.0
H4008 H 0.6013 0.48797 0.11056 0.0
H4009 H 0.61278 0.50837 0.10137 0.0
H4010 H 0.59637 0.56026 0.11266 0.0
H4011 H 0.58207 0.56346 0.0819 0.0
H4012 H 0.2904 0.90237 0.95193 0.0
H4013 H 0.28762 0.87789 0.92383 0.0
H4014 H 0.34357 0.8882 0.92771 0.0
H4015 H 0.34643 0.91223 0.95639 0.0
H4016 H 0.29756 0.88101 0.89056 0.0
H4017 H 0.33076 0.83096 0.92161 0.0
H4018 H 0.32488 0.8505 0.93609 0.0
H4019 H 0.34439 0.85472 0.92475 0.0
C4020 C 0.30213 0.8994 0.94684 0.0
C4021 C 0.31865 0.9092 0.95637 0.0
C4022 C 0.30051 0.88536 0.9308 0.0
C4023 C 0.31537 0.88093 0.92384 0.0
C4024 C 0.33191 0.89094 0.93314 0.0
H4025 H 0.31304 0.82748 0.80747 0.0
H4026 H 0.31896 0.84877 0.83816 0.0
C4027 C 0.33353 0.90481 0.9494 0.0
C4028 C 0.31343 0.86653 0.90631 0.0
H4029 H 0.32494 0.8257 0.88761 0.0
C4030 C 0.30347 0.86886 0.88998 0.0
C4031 C 0.32089 0.85048 0.90562 0.0
C4032 C 0.33067 0.84637 0.92301 0.0
C4033 C 0.30096 0.8558 0.87293 0.0
C4034 C 0.3092 0.84034 0.87194 0.0
C4035 C 0.31888 0.83774 0.88834 0.0
C4036 C 0.30784 0.82681 0.85393 0.0
C4037 C 0.28919 0.85853 0.85628 0.0
C4038 C 0.30067 0.80712 0.85282 0.0
C4039 C 0.29775 0.79474 0.83529 0.0
C4040 C 0.30188 0.80194 0.81867 0.0
C4041 C 0.30982 0.82147 0.82003 0.0
C4042 C 0.31299 0.83373 0.83754 0.0
H4043 H 0.27986 0.86704 0.86105 0.0
H4044 H 0.29721 0.86645 0.84677 0.0
H4045 H 0.28168 0.84456 0.84791 0.0
H4046 H 0.29673 0.80147 0.86537 0.0
H4047 H 0.29162 0.77973 0.83462 0.0
H4048 H 0.94567 0.58225 0.75648 0.0
H4049 H 0.96319 0.58997 0.73111 0.0
H4050 H 0.99587 0.55314 0.74687 0.0
H4051 H 0.97847 0.54537 0.7725 0.0
H4052 H 0.01393 0.59036 0.7387 0.0
H4053 H 0.96034 0.54982 0.68229 0.0
H4054 H 0.95455 0.5672 0.69954 0.0
H4055 H 0.96061 0.54669 0.70688 0.0
C4056 C 0.95664 0.57585 0.75466 0.0
C4057 C 0.96059 0.56303 0.76638 0.0
C4058 C 0.9666 0.58026 0.74014 0.0
C4059 C 0.98062 0.5719 0.73702 0.0
C4060 C 0.98502 0.55966 0.74908 0.0
H4061 H 0.05065 0.57059 0.6518 0.0
H4062 H 0.03729 0.56959 0.68116 0.0
C4063 C 0.97506 0.55522 0.76365 0.0
C4064 C 0.99022 0.5754 0.72068 0.0
H4065 H 0.98536 0.56777 0.67213 0.0
C4066 C 1.00775 0.58543 0.72413 0.0
C4067 C 0.98203 0.5689 0.70175 0.0
C4068 C 0.96339 0.55741 0.6973 0.0
C4069 C 0.01729 0.58943 0.70902 0.0
C4070 C 0.00909 0.58292 0.69007 0.0
C4071 C 0.99155 0.57288 0.68669 0.0
C4072 C 0.01852 0.58559 0.67342 0.0
C4073 C 0.03594 0.60083 0.71346 0.0
C4074 C 0.01234 0.59485 0.6593 0.0
C4075 C 0.0199 0.59535 0.64245 0.0
C4076 C 0.03372 0.58654 0.63944 0.0
C4077 C 0.04022 0.5778 0.65386 0.0
C4078 C 0.03262 0.57724 0.67067 0.0
H4079 H 0.03864 0.60934 0.72809 0.0
H4080 H 0.04469 0.59083 0.71251 0.0
H4081 H 0.03917 0.61069 0.70313 0.0
H4082 H 1.0014 0.6013 0.66114 0.0
H4083 H 0.01472 0.60231 0.63162 0.0
H4084 H 0.30239 0.20808 0.44591 0.0
H4085 H 0.30691 0.22353 0.41791 0.0
H4086 H 0.25152 0.20875 0.40052 0.0
H4087 H 0.24686 0.19346 0.42845 0.0
H4088 H 0.29719 0.20704 0.37894 0.0
H4089 H 0.26502 0.26629 0.39892 0.0
H4090 H 0.27145 0.25219 0.41584 0.0
H4091 H 0.25194 0.24281 0.3993 0.0
C4092 C 0.29115 0.20824 0.43622 0.0
C4093 C 0.27424 0.19958 0.43954 0.0
C4094 C 0.29376 0.21704 0.42017 0.0
C4095 C 0.27955 0.21754 0.4072 0.0
C4096 C 0.26268 0.20889 0.41048 0.0
H4097 H 0.26966 0.26621 0.30288 0.0
H4098 H 0.26411 0.24873 0.32945 0.0
C4099 C 0.26005 0.20005 0.42646 0.0
C4100 C 0.28235 0.22667 0.39002 0.0
H4101 H 0.27312 0.26252 0.36778 0.0
C4102 C 0.29199 0.21922 0.37653 0.0
C4103 C 0.27546 0.24248 0.38678 0.0
C4104 C 0.26551 0.25156 0.40103 0.0
C4105 C 0.29473 0.22696 0.35983 0.0
C4106 C 0.28798 0.2429 0.35668 0.0
C4107 C 0.27826 0.25028 0.37012 0.0
C4108 C 0.29132 0.25255 0.33988 0.0
C4109 C 0.30454 0.21773 0.34553 0.0
C4110 C 0.30844 0.26054 0.33684 0.0
C4111 C 0.31162 0.27042 0.32165 0.0
C4112 C 0.29775 0.27272 0.30924 0.0
C4113 C 0.28061 0.2646 0.31215 0.0
C4114 C 0.27743 0.25467 0.32737 0.0
H4115 H 0.30414 0.20265 0.34707 0.0
H4116 H 0.29915 0.21796 0.33071 0.0
H4117 H 0.31839 0.22574 0.34789 0.0
H4118 H 0.31938 0.25951 0.34649 0.0
H4119 H 0.32497 0.27659 0.31983 0.0
H4120 H 0.30434 0.5694 0.539 0.0
H4121 H 0.32776 0.55243 0.53693 0.0
H4122 H 0.36535 0.60624 0.54157 0.0
H4123 H 0.34217 0.62335 0.54369 0.0
H4124 H 0.36349 0.57529 0.50785 0.0
H4125 H 0.36991 0.55237 0.57867 0.0
H4126 H 0.34843 0.54924 0.56621 0.0
H4127 H 0.36142 0.57293 0.57526 0.0
C4128 C 0.31762 0.57764 0.53985 0.0
C4129 C 0.3214 0.59771 0.5414 0.0
C4130 C 0.33095 0.56793 0.53874 0.0
C4131 C 0.3482 0.57815 0.53919 0.0
C4132 C 0.35207 0.59817 0.54128 0.0
H4133 H 0.44808 0.56106 0.51934 0.0
H4134 H 0.42211 0.57249 0.52528 0.0
C4135 C 0.33881 0.6079 0.54248 0.0
C4136 C 0.3621 0.56802 0.53586 0.0
H4137 H 0.38875 0.54398 0.55697 0.0
C4138 C 0.36897 0.56834 0.51853 0.0
C4139 C 0.36897 0.55882 0.54977 0.0
C4140 C 0.36193 0.55829 0.5686 0.0
C4141 C 0.38287 0.55999 0.51483 0.0
C4142 C 0.3903 0.55152 0.52906 0.0
C4143 C 0.38304 0.5506 0.54616 0.0
C4144 C 0.40621 0.54453 0.52672 0.0
C4145 C 0.38951 0.56037 0.49575 0.0
C4146 C 0.40601 0.52511 0.52627 0.0
C4147 C 0.42095 0.51854 0.52312 0.0
C4148 C 0.43633 0.53133 0.52052 0.0
C4149 C 0.43654 0.55085 0.5215 0.0
C4150 C 0.42165 0.55739 0.52467 0.0
H4151 H 0.37948 0.56217 0.48474 0.0
H4152 H 0.40095 0.57266 0.49707 0.0
H4153 H 0.39363 0.54702 0.49079 0.0
H4154 H 0.39421 0.51503 0.52798 0.0
H4155 H 0.42047 0.50346 0.52269 0.0
H4156 H 0.8588 0.95221 0.52887 0.0
H4157 H 0.88791 0.97104 0.52624 0.0
H4158 H 0.9108 0.93739 0.56152 0.0
H4159 H 0.88186 0.91821 0.56376 0.0
H4160 H 0.91359 0.99346 0.55204 0.0
H4161 H 0.93729 0.93284 0.51647 0.0
H4162 H 0.9147 0.93084 0.51955 0.0
H4163 H 0.93001 0.92882 0.53886 0.0
C4164 C 0.87003 0.94884 0.53609 0.0
C4165 C 0.86798 0.93358 0.5464 0.0
C4166 C 0.88668 0.95961 0.53456 0.0
C4167 C 0.90162 0.95539 0.54332 0.0
C4168 C 0.89955 0.94059 0.55415 0.0
H4169 H 1.00535 0.03265 0.56376 0.0
H4170 H 0.97659 0.01328 0.56684 0.0
C4171 C 0.88295 0.92971 0.55554 0.0
C4172 C 0.91933 0.96656 0.54129 0.0
H4173 H 0.95862 0.96201 0.52772 0.0
C4174 C 0.92341 0.98658 0.54666 0.0
C4175 C 0.93211 0.95766 0.53396 0.0
C4176 C 0.92828 0.93638 0.52669 0.0
C4177 C 0.93993 0.99789 0.5452 0.0
C4178 C 0.95294 0.9889 0.53865 0.0
C4179 C 0.94877 0.96891 0.53299 0.0
C4180 C 0.97081 1.0 0.53711 0.0
C4181 C 0.9431 0.01939 0.55026 0.0
C4182 C 0.97755 0.99836 0.5196 0.0
C4183 C 0.99411 1.00918 0.5179 0.0
C4184 C 1.00425 0.02188 0.53368 0.0
C4185 C 0.99774 0.02312 0.55132 0.0
C4186 C 0.98124 0.01217 0.55305 0.0
H4187 H 0.9307 0.02412 0.54951 0.0
H4188 H 0.94973 0.02413 0.56508 0.0
H4189 H 0.95149 0.02666 0.54063 0.0
H4190 H 0.96985 0.98898 0.50712 0.0
H4191 H 0.99879 1.00793 0.50413 0.0
H4192 H 0.92062 0.14006 0.26076 0.0
H4193 H 0.90378 0.1643 0.26188 0.0
H4194 H 0.85655 0.12047 0.25751 0.0
H4195 H 0.87364 0.09584 0.2567 0.0
H4196 H 0.88144 0.17388 0.23921 0.0
H4197 H 0.84534 0.15629 0.29924 0.0
H4198 H 0.86291 0.14553 0.29301 0.0
H4199 H 0.84153 0.13666 0.27975 0.0
C4200 C 0.90664 0.13528 0.26011 0.0
C4201 C 0.89885 0.11545 0.25871 0.0
C4202 C 0.89684 0.14948 0.26072 0.0
C4203 C 0.87854 0.14493 0.26014 0.0
C4204 C 0.87057 0.12506 0.25855 0.0
H4205 H 0.80053 0.21857 0.26362 0.0
H4206 H 0.81546 0.19227 0.262 0.0
C4207 C 0.88046 0.1107 0.25789 0.0
C4208 C 0.8683 0.16099 0.26075 0.0
H4209 H 0.83758 0.18005 0.28321 0.0
C4210 C 0.87192 0.17509 0.24897 0.0
C4211 C 0.85557 0.16325 0.27325 0.0
C4212 C 0.85118 0.14977 0.28717 0.0
C4213 C 0.86339 0.19055 0.24907 0.0
C4214 C 0.85083 0.19299 0.26175 0.0
C4215 C 0.84707 0.17879 0.27342 0.0
C4216 C 0.84149 0.20982 0.263 0.0
C4217 C 0.86767 0.20379 0.2349 0.0
C4218 C 0.85059 0.22925 0.26448 0.0
C4219 C 0.84191 0.24455 0.26533 0.0
C4220 C 0.82361 0.24141 0.265 0.0
C4221 C 0.81454 0.22204 0.26389 0.0
C4222 C 0.82322 0.20673 0.26299 0.0
H4223 H 0.87257 0.19669 0.22238 0.0
H4224 H 0.85613 0.20877 0.22973 0.0
H4225 H 0.87809 0.21646 0.24179 0.0
H4226 H 0.86463 0.2328 0.26521 0.0
H4227 H 0.84969 0.25898 0.26625 0.0
H4228 H 0.72988 0.09081 0.99092 0.0
H4229 H 0.69935 0.07713 0.97799 0.0
H4230 H 0.68559 0.07836 0.03503 0.0
H4231 H 0.71609 0.09164 0.04809 0.0
H4232 H 0.66716 0.04558 0.00935 0.0
H4233 H 0.66586 0.1127 0.98081 0.0
H4234 H 0.68139 0.09976 0.97264 0.0
H4235 H 0.68379 0.11082 0.99719 0.0
C4236 C 0.7204 0.08787 1.00072 0.0
C4237 C 0.72535 0.09256 0.02056 0.0
C4238 C 0.70296 0.08013 0.99329 0.0
C4239 C 0.69021 0.07714 1.00556 0.0
C4240 C 0.69526 0.08065 0.02532 0.0
H4241 H 0.59171 0.087 0.01866 0.0
H4242 H 0.62154 0.09059 0.01157 0.0
C4243 C 0.7127 0.08827 0.03277 0.0
C4244 C 0.67146 0.0719 0.99818 0.0
H4245 H 0.63923 0.09069 0.97955 0.0
C4246 C 0.66102 0.05519 1.00246 0.0
C4247 C 0.66359 0.08458 0.98923 0.0
C4248 C 0.67415 0.10304 0.98477 0.0
C4249 C 0.6428 0.05139 0.99915 0.0
C4250 C 0.63491 0.06455 0.99104 0.0
C4251 C 0.64538 0.0806 0.9856 0.0
C4252 C 0.61623 0.06389 0.99165 0.0
C4253 C 0.63217 0.03412 1.00571 0.0
C4254 C 0.60318 0.0482 0.98196 0.0
C4255 C 0.58602 0.04609 0.98603 0.0
C4256 C 0.5818 0.05965 0.99986 0.0
C4257 C 0.5946 0.07621 0.00811 0.0
C4258 C 0.61166 0.0783 1.00403 0.0
H4259 H 0.64041 0.02675 0.01388 0.0
H4260 H 0.62259 0.03839 0.01481 0.0
H4261 H 0.62483 0.02371 0.99314 0.0
H4262 H 0.60642 0.0371 0.97209 0.0
H4263 H 0.57641 0.03319 0.97939 0.0
H4264 H 0.20871 0.49296 0.25332 0.0
H4265 H 0.23037 0.47752 0.26644 0.0
H4266 H 0.19044 0.44032 0.28964 0.0
H4267 H 0.16859 0.45551 0.27639 0.0
H4268 H 0.23876 0.47476 0.3056 0.0
H4269 H 0.21468 0.40348 0.25889 0.0
H4270 H 0.20823 0.42463 0.25348 0.0
H4271 H 0.19886 0.41251 0.27158 0.0
C4272 C 0.20448 0.48138 0.26107 0.0
C4273 C 0.18691 0.47538 0.26374 0.0
C4274 C 0.21689 0.47266 0.26863 0.0
C4275 C 0.21194 0.45777 0.27891 0.0
C4276 C 0.19444 0.45166 0.28155 0.0
H4277 H 0.27467 0.38325 0.31614 0.0
H4278 H 0.252 0.40094 0.31568 0.0
C4279 C 0.18199 0.46036 0.27396 0.0
C4280 C 0.22522 0.44868 0.2868 0.0
H4281 H 0.23878 0.4071 0.28182 0.0
C4282 C 0.23875 0.45993 0.30053 0.0
C4283 C 0.22503 0.42932 0.28021 0.0
C4284 C 0.21102 0.41676 0.26513 0.0
C4285 C 0.25232 0.45236 0.30765 0.0
C4286 C 0.25244 0.43319 0.30057 0.0
C4287 C 0.2386 0.42179 0.28729 0.0
C4288 C 0.26737 0.42493 0.30532 0.0
C4289 C 0.26638 0.46496 0.32261 0.0
C4290 C 0.2838 0.43294 0.30042 0.0
C4291 C 0.2969 0.42292 0.30087 0.0
C4292 C 0.29369 0.40459 0.30594 0.0
C4293 C 0.27766 0.39734 0.31226 0.0
C4294 C 0.26461 0.4074 0.31191 0.0
H4295 H 0.26154 0.47642 0.33095 0.0
H4296 H 0.27145 0.4565 0.33256 0.0
H4297 H 0.27733 0.47198 0.31553 0.0
H4298 H 0.28613 0.44632 0.29502 0.0
H4299 H 0.3092 0.42906 0.29621 0.0
H4300 H 0.24582 0.4017 1.00516 0.0
H4301 H 0.22171 0.41743 0.00709 0.0
H4302 H 0.25389 0.46347 0.04899 0.0
H4303 H 0.27826 0.44792 0.04697 0.0
H4304 H 0.20505 0.42683 0.03827 0.0
H4305 H 0.23482 0.49212 0.01012 0.0
H4306 H 0.24361 0.47112 0.00791 0.0
H4307 H 0.24765 0.48751 0.03013 0.0
C4308 C 0.24786 0.41523 0.01474 0.0
C4309 C 0.26405 0.42358 0.02585 0.0
C4310 C 0.23401 0.42419 0.01584 0.0
C4311 C 0.23601 0.44176 0.028 0.0
C4312 C 0.25212 0.45011 0.03922 0.0
H4313 H 0.16483 0.51598 0.05029 0.0
H4314 H 0.1894 0.5008 0.05117 0.0
C4315 C 0.26602 0.44115 0.03812 0.0
C4316 C 0.22108 0.45101 0.02911 0.0
H4317 H 0.20763 0.49117 0.02148 0.0
C4318 C 0.20561 0.44089 0.03458 0.0
C4319 C 0.22181 0.46938 0.02432 0.0
C4320 C 0.23779 0.48064 0.01763 0.0
C4321 C 0.19093 0.44868 0.03554 0.0
C4322 C 0.1916 0.46696 0.03057 0.0
C4323 C 0.20712 0.47716 0.02529 0.0
C4324 C 0.1763 0.47569 0.03055 0.0
C4325 C 0.17493 0.43738 0.04219 0.0
C4326 C 0.16072 0.46667 0.01863 0.0
C4327 C 0.14656 0.47525 0.0182 0.0
C4328 C 0.1477 0.49311 0.02961 0.0
C4329 C 0.16334 0.50207 0.04156 0.0
C4330 C 0.17748 0.49349 0.04197 0.0
H4331 H 0.17806 0.42643 0.05036 0.0
H4332 H 0.16865 0.44695 0.05126 0.0
H4333 H 0.16541 0.42983 0.0296 0.0
H4334 H 0.15959 0.4531 0.00943 0.0
H4335 H 0.13473 0.46787 0.0089 0.0
H4336 H 0.87112 1.00334 0.24668 0.0
H4337 H 0.85243 0.97136 0.24722 0.0
H4338 H 0.89726 0.95292 0.26856 0.0
H4339 H 0.91568 0.9844 0.26832 0.0
H4340 H 0.85094 0.93452 0.22975 0.0
H4341 H 0.86615 0.93654 0.30696 0.0
H4342 H 0.87218 0.95755 0.29611 0.0
H4343 H 0.88541 0.9403 0.29536 0.0
C4344 C 0.87702 0.99251 0.25153 0.0
C4345 C 0.89512 0.99693 0.25759 0.0
C4346 C 0.86625 0.97406 0.25185 0.0
C4347 C 0.87311 0.95939 0.25841 0.0
C4348 C 0.89122 0.96376 0.264 0.0
H4349 H 0.83277 0.83804 0.27354 0.0
H4350 H 0.85106 0.8698 0.27167 0.0
C4351 C 0.90189 0.98202 0.26368 0.0
C4352 C 0.86173 0.93954 0.25921 0.0
H4353 H 0.85196 0.90604 0.28859 0.0
C4354 C 0.85112 0.92846 0.24272 0.0
C4355 C 0.86174 0.93105 0.27597 0.0
C4356 C 0.87184 0.94203 0.29464 0.0
C4357 C 0.84112 0.90949 0.24238 0.0
C4358 C 0.84118 0.90098 0.25912 0.0
C4359 C 0.85176 0.91209 0.27562 0.0
C4360 C 0.83006 0.88101 0.25995 0.0
C4361 C 0.83101 0.8985 0.22371 0.0
C4362 C 0.81192 0.8762 0.25433 0.0
C4363 C 0.80149 0.85794 0.25528 0.0
C4364 C 0.80862 0.84355 0.26191 0.0
C4365 C 0.82673 0.84834 0.26782 0.0
C4366 C 0.83723 0.86674 0.26692 0.0
H4367 H 0.83661 0.90406 0.21139 0.0
H4368 H 0.83076 0.88301 0.22221 0.0
H4369 H 0.81741 0.90013 0.22307 0.0
H4370 H 0.80564 0.88673 0.24947 0.0
H4371 H 0.78763 0.85514 0.25084 0.0
H4372 H 0.66203 0.0999 0.73526 0.0
H4373 H 0.68113 0.13217 0.74231 0.0
H4374 H 0.7138 0.11432 0.78415 0.0
H4375 H 0.69498 0.08198 0.77704 0.0
H4376 H 0.69266 0.15931 0.77684 0.0
H4377 H 0.74675 0.13328 0.74603 0.0
H4378 H 0.72468 0.11893 0.7424 0.0
H4379 H 0.7381 0.12147 0.76466 0.0
C4380 C 0.67319 0.10287 0.74607 0.0
C4381 C 0.67713 0.08833 0.7554 0.0
C4382 C 0.68405 0.12132 0.75011 0.0
C4383 C 0.69898 0.12549 0.76353 0.0
C4384 C 0.70249 0.11126 0.77351 0.0
H4385 H 0.7685 0.24074 0.79752 0.0
H4386 H 0.74932 0.2097 0.79925 0.0
C4387 C 0.6917 0.09281 0.76943 0.0
C4388 C 0.71137 0.14439 0.76623 0.0
H4389 H 0.75232 0.16611 0.75877 0.0
C4390 C 0.70575 0.16085 0.77305 0.0
C4391 C 0.72838 0.14625 0.7611 0.0
C4392 C 0.73486 0.12909 0.75299 0.0
C4393 C 0.71668 0.17921 0.77463 0.0
C4394 C 0.73363 0.18103 0.7694 0.0
C4395 C 0.73934 0.16457 0.76292 0.0
C4396 C 0.74511 0.19987 0.76877 0.0
C4397 C 0.70983 0.19655 0.78116 0.0
C4398 C 0.74923 0.2044 0.75111 0.0
C4399 C 0.76016 0.22197 0.75006 0.0
C4400 C 0.76728 0.23538 0.76669 0.0
C4401 C 0.76322 0.23076 0.78444 0.0
C4402 C 0.7522 0.21309 0.78546 0.0
H4403 H 0.6956 0.19273 0.78191 0.0
H4404 H 0.71654 0.20362 0.79554 0.0
H4405 H 0.71256 0.20708 0.77138 0.0
H4406 H 0.7439 0.19433 0.73809 0.0
H4407 H 0.76299 0.22498 0.73614 0.0
loop_
_geom_bond_atom_site_label_1
_geom_bond_atom_site_label_2
_geom_bond_distance
_geom_bond_site_symmetry_2
_ccdc_geom_bond_type
C0 O1 1.160 . S
C0 O7 1.185 . S
O1 C0 1.160 . S
O2 Zn3 1.899 . S
O2 C10 1.284 . S
Zn3 O2 1.899 . S
Zn3 O4 2.032 . S
Zn3 O7 2.086 . S
Zn3 O12 1.977 . S
O4 Zn3 2.032 . S
O4 C8 1.278 . S
C5 O6 1.203 . S
C5 O12 1.267 . S
O6 C5 1.203 . S
O7 C0 1.185 . S
O7 Zn3 2.086 . S
C8 O4 1.278 . S
C8 O9 1.211 . S
O9 C8 1.211 . S
C10 O2 1.284 . S
C10 O11 1.273 . S
O11 C10 1.273 . S
O12 Zn3 1.977 . S
O12 C5 1.267 . S
C13 O14 1.160 . S
C13 O20 1.185 . S
O14 C13 1.160 . S
O15 Zn16 1.899 . S
O15 C23 1.284 . S
Zn16 O15 1.899 . S
Zn16 O17 2.032 . S
Zn16 O20 2.086 . S
Zn16 O25 1.977 1_655 S
O17 Zn16 2.032 . S
O17 C21 1.278 1_655 S
C18 O19 1.203 . S
C18 O25 1.267 . S
O19 C18 1.203 . S
O20 C13 1.185 . S
O20 Zn16 2.086 . S
C21 O17 1.278 1_455 S
C21 O22 1.211 . S
O22 C21 1.211 . S
C23 O15 1.284 . S
C23 O24 1.273 1_655 S
O24 C23 1.273 1_455 S
O25 Zn16 1.977 1_455 S
O25 C18 1.267 . S
C26 O27 1.160 . S
C26 O33 1.185 . S
O27 C26 1.160 . S
O28 Zn29 1.899 . S
O28 C36 1.284 . S
Zn29 O28 1.899 . S
Zn29 O30 2.032 . S
Zn29 O33 2.086 . S
Zn29 O38 1.977 . S
O30 Zn29 2.032 . S
O30 C34 1.278 . S
C31 O32 1.203 . S
C31 O38 1.267 . S
O32 C31 1.203 . S
O33 C26 1.185 . S
O33 Zn29 2.086 . S
C34 O30 1.278 . S
C34 O35 1.211 . S
O35 C34 1.211 . S
C36 O28 1.284 . S
C36 O37 1.273 . S
O37 C36 1.273 . S
O38 Zn29 1.977 . S
O38 C31 1.267 . S
C39 O40 1.160 . S
C39 O46 1.185 . S
O40 C39 1.160 . S
O41 Zn42 1.899 . S
O41 C49 1.284 . S
Zn42 O41 1.899 . S
Zn42 O43 2.032 . S
Zn42 O46 2.086 . S
Zn42 O51 1.977 . S
O43 Zn42 2.032 . S
O43 C47 1.278 . S
C44 O45 1.203 . S
C44 O51 1.267 . S
O45 C44 1.203 . S
O46 C39 1.185 . S
O46 Zn42 2.086 . S
C47 O43 1.278 . S
C47 O48 1.211 . S
O48 C47 1.211 . S
C49 O41 1.284 . S
C49 O50 1.273 . S
O50 C49 1.273 . S
O51 Zn42 1.977 . S
O51 C44 1.267 . S
C52 O53 1.160 . S
C52 O59 1.185 . S
O53 C52 1.160 . S
O54 Zn55 1.899 . S
O54 C62 1.284 . S
Zn55 O54 1.899 . S
Zn55 O56 2.032 . S
Zn55 O59 2.086 . S
Zn55 O64 1.977 . S
O56 Zn55 2.032 . S
O56 C60 1.278 . S
C57 O58 1.203 . S
C57 O64 1.267 . S
O58 C57 1.203 . S
O59 C52 1.185 . S
O59 Zn55 2.086 . S
C60 O56 1.278 . S
C60 O61 1.211 . S
O61 C60 1.211 . S
C62 O54 1.284 . S
C62 O63 1.273 . S
O63 C62 1.273 . S
O64 Zn55 1.977 . S
O64 C57 1.267 . S
C65 O66 1.160 . S
C65 O72 1.185 . S
O66 C65 1.160 . S
O67 Zn68 1.899 . S
O67 C75 1.284 . S
Zn68 O67 1.899 . S
Zn68 O69 2.032 . S
Zn68 O72 2.086 . S
Zn68 O77 1.977 . S
O69 Zn68 2.032 . S
O69 C73 1.278 . S
C70 O71 1.203 . S
C70 O77 1.267 . S
O71 C70 1.203 . S
O72 C65 1.185 . S
O72 Zn68 2.086 . S
C73 O69 1.278 . S
C73 O74 1.211 . S
O74 C73 1.211 . S
C75 O67 1.284 . S
C75 O76 1.273 . S
O76 C75 1.273 . S
O77 Zn68 1.977 . S
O77 C70 1.267 . S
C78 O79 1.160 . S
C78 O85 1.185 . S
O79 C78 1.160 . S
O80 Zn81 1.899 . S
O80 C88 1.284 . S
Zn81 O80 1.899 . S
Zn81 O82 2.032 . S
Zn81 O85 2.086 . S
Zn81 O90 1.977 . S
O82 Zn81 2.032 . S
O82 C86 1.278 . S
C83 O84 1.203 . S
C83 O90 1.267 . S
O84 C83 1.203 . S
O85 C78 1.185 . S
O85 Zn81 2.086 . S
C86 O82 1.278 . S
C86 O87 1.211 . S
O87 C86 1.211 . S
C88 O80 1.284 . S
C88 O89 1.273 . S
O89 C88 1.273 . S
O90 Zn81 1.977 . S
O90 C83 1.267 . S
C91 O92 1.160 . S
C91 O98 1.185 . S
O92 C91 1.160 . S
O93 Zn94 1.899 . S
O93 C101 1.284 . S
Zn94 O93 1.899 . S
Zn94 O95 2.032 . S
Zn94 O98 2.086 . S
Zn94 O103 1.977 1_455 S
O95 Zn94 2.032 . S
O95 C99 1.278 . S
C96 O97 1.203 . S
C96 O103 1.267 . S
O97 C96 1.203 . S
O98 C91 1.185 . S
O98 Zn94 2.086 . S
C99 O95 1.278 . S
C99 O100 1.168 1_455 S
O100 C99 1.168 1_655 S
C101 O93 1.284 . S
C101 O102 1.273 . S
O102 C101 1.273 . S
O103 Zn94 1.977 1_655 S
O103 C96 1.267 . S
C104 O105 1.160 . S
C104 O111 1.185 . S
O105 C104 1.160 . S
O106 Zn107 1.899 . S
O106 C114 1.284 . S
Zn107 O106 1.899 . S
Zn107 O108 2.032 . S
Zn107 O111 2.086 . S
Zn107 O116 1.977 1_545 S
O108 Zn107 2.032 . S
O108 C112 1.278 . S
C109 O110 1.203 . S
C109 O116 1.267 . S
O110 C109 1.203 . S
O111 C104 1.185 . S
O111 Zn107 2.086 . S
C112 O108 1.278 . S
C112 O113 1.211 1_545 S
O113 C112 1.211 1_565 S
C114 O106 1.284 . S
C114 O115 1.250 1_545 S
O115 C114 1.250 1_565 S
O116 Zn107 1.977 1_565 S
O116 C109 1.267 . S
C117 O118 1.160 . S
C117 O124 1.185 . S
O118 C117 1.160 . S
O119 Zn120 1.899 . S
O119 C127 1.284 . S
Zn120 O119 1.899 . S
Zn120 O121 2.032 . S
Zn120 O124 2.086 . S
Zn120 O129 1.977 . S
O121 Zn120 2.032 . S
O121 C125 1.278 . S
C122 O123 1.203 . S
C122 O129 1.267 . S
O123 C122 1.203 . S
O124 C117 1.185 . S
O124 Zn120 2.086 . S
C125 O121 1.278 . S
C125 O126 1.211 . S
O126 C125 1.211 . S
C127 O119 1.284 . S
C127 O128 1.273 . S
O128 C127 1.273 . S
O129 Zn120 1.977 . S
O129 C122 1.267 . S
C130 O131 1.160 . S
C130 O137 1.185 . S
O131 C130 1.160 . S
O132 Zn133 1.899 . S
O132 C140 1.284 . S
Zn133 O132 1.899 . S
Zn133 O134 2.032 . S
Zn133 O137 2.086 . S
Zn133 O142 1.977 1_565 S
O134 Zn133 2.032 . S
O134 C138 1.278 1_565 S
C135 O136 1.203 . S
C135 O142 1.267 . S
O136 C135 1.203 . S
O137 C130 1.185 . S
O137 Zn133 2.086 . S
C138 O134 1.278 1_545 S
C138 O139 1.211 . S
O139 C138 1.211 . S
C140 O132 1.284 . S
C140 O141 1.273 1_565 S
O141 C140 1.273 1_545 S
O142 Zn133 1.977 1_545 S
O142 C135 1.267 . S
C143 O144 1.160 . S
C143 O150 1.185 . S
O144 C143 1.160 . S
O145 Zn146 1.899 . S
O145 C153 1.284 . S
Zn146 O145 1.899 . S
Zn146 O147 2.032 1_554 S
Zn146 O150 2.086 . S
Zn146 O155 1.977 . S
O147 Zn146 2.032 1_556 S
O147 C151 1.278 . S
C148 O149 1.203 . S
C148 O155 1.267 . S
O149 C148 1.203 . S
O150 C143 1.185 . S
O150 Zn146 2.086 . S
C151 O147 1.278 . S
C151 O152 1.211 . S
O152 C151 1.211 . S
C153 O145 1.284 . S
C153 O154 1.273 . S
O154 C153 1.273 . S
O155 Zn146 1.977 . S
O155 C148 1.267 . S
C156 O157 1.160 . S
C156 O163 1.185 . S
O157 C156 1.160 . S
O158 Zn159 1.899 . S
O158 C166 1.284 . S
Zn159 O158 1.899 . S
Zn159 O160 2.032 1_554 S
Zn159 O163 2.086 . S
Zn159 O168 1.977 . S
O160 Zn159 2.032 1_556 S
O160 C164 1.278 . S
C161 O162 1.203 . S
C161 O168 1.267 . S
O162 C161 1.203 . S
O163 C156 1.185 . S
O163 Zn159 2.086 . S
C164 O160 1.278 . S
C164 O165 1.211 . S
O165 C164 1.211 . S
C166 O158 1.284 . S
C166 O167 1.273 . S
O167 C166 1.273 . S
O168 Zn159 1.977 . S
O168 C161 1.267 . S
C169 O170 1.160 . S
C169 O176 1.185 . S
O170 C169 1.160 . S
O171 Zn172 1.899 . S
O171 C179 1.284 . S
Zn172 O171 1.899 . S
Zn172 O173 2.032 1_554 S
Zn172 O176 2.086 . S
Zn172 O181 1.977 . S
O173 Zn172 2.032 1_556 S
O173 C177 1.278 . S
C174 O175 1.203 . S
C174 O181 1.267 . S
O175 C174 1.203 . S
O176 C169 1.185 . S
O176 Zn172 2.086 . S
C177 O173 1.278 . S
C177 O178 1.211 . S
O178 C177 1.211 . S
C179 O171 1.284 . S
C179 O180 1.273 . S
O180 C179 1.273 . S
O181 Zn172 1.977 . S
O181 C174 1.267 . S
C182 O183 1.160 . S
C182 O189 1.185 . S
O183 C182 1.160 . S
O184 Zn185 1.899 . S
O184 C192 1.284 . S
Zn185 O184 1.899 . S
Zn185 O186 2.032 . S
Zn185 O189 2.086 . S
Zn185 O194 1.977 . S
O186 Zn185 2.032 . S
O186 C190 1.278 . S
C187 O188 1.203 . S
C187 O194 1.267 . S
O188 C187 1.203 . S
O189 C182 1.185 . S
O189 Zn185 2.086 . S
C190 O186 1.278 . S
C190 O191 1.211 . S
O191 C190 1.211 . S
C192 O184 1.284 . S
C192 O193 1.273 . S
O193 C192 1.273 . S
O194 Zn185 1.977 . S
O194 C187 1.267 . S
C195 O196 1.160 . S
C195 O202 1.185 . S
O196 C195 1.160 . S
O197 Zn198 1.899 . S
O197 C205 1.284 . S
Zn198 O197 1.899 . S
Zn198 O199 2.032 . S
Zn198 O202 2.086 . S
Zn198 O207 1.977 . S
O199 Zn198 2.032 . S
O199 C203 1.278 . S
C200 O201 1.203 . S
C200 O207 1.267 . S
O201 C200 1.203 . S
O202 C195 1.185 . S
O202 Zn198 2.086 . S
C203 O199 1.278 . S
C203 O204 1.211 . S
O204 C203 1.211 . S
C205 O197 1.284 . S
C205 O206 1.273 . S
O206 C205 1.273 . S
O207 Zn198 1.977 . S
O207 C200 1.267 . S
C208 O209 1.160 . S
C208 O215 1.185 . S
O209 C208 1.160 . S
O210 Zn211 1.899 . S
O210 C218 1.284 . S
Zn211 O210 1.899 . S
Zn211 O212 2.032 . S
Zn211 O215 2.086 . S
Zn211 O220 1.977 . S
O212 Zn211 2.032 . S
O212 C216 1.278 . S
C213 O214 1.203 . S
C213 O220 1.267 . S
O214 C213 1.203 . S
O215 C208 1.185 . S
O215 Zn211 2.086 . S
C216 O212 1.278 . S
C216 O217 1.211 . S
O217 C216 1.211 . S
C218 O210 1.284 . S
C218 O219 1.273 . S
O219 C218 1.273 . S
O220 Zn211 1.977 . S
O220 C213 1.267 . S
C221 O222 1.160 . S
C221 O228 1.185 . S
O222 C221 1.160 . S
O223 Zn224 1.899 . S
O223 C231 1.284 . S
Zn224 O223 1.899 . S
Zn224 O225 2.032 . S
Zn224 O228 2.086 . S
Zn224 O233 1.977 . S
O225 Zn224 2.032 . S
O225 C229 1.278 . S
C226 O227 1.203 . S
C226 O233 1.267 . S
O227 C226 1.203 . S
O228 C221 1.185 . S
O228 Zn224 2.086 . S
C229 O225 1.278 . S
C229 O230 1.211 . S
O230 C229 1.211 . S
C231 O223 1.284 . S
C231 O232 1.273 . S
O232 C231 1.273 . S
O233 Zn224 1.977 . S
O233 C226 1.267 . S
C234 O235 1.160 . S
C234 O241 1.185 . S
O235 C234 1.160 . S
O236 Zn237 1.899 . S
O236 C244 1.284 . S
Zn237 O236 1.899 . S
Zn237 O238 2.032 . S
Zn237 O241 2.086 . S
Zn237 O246 1.977 . S
O238 Zn237 2.032 . S
O238 C242 1.278 . S
C239 O240 1.203 . S
C239 O246 1.267 . S
O240 C239 1.203 . S
O241 C234 1.185 . S
O241 Zn237 2.086 . S
C242 O238 1.278 . S
C242 O243 1.211 . S
O243 C242 1.211 . S
C244 O236 1.284 . S
C244 O245 1.273 . S
O245 C244 1.273 . S
O246 Zn237 1.977 . S
O246 C239 1.267 . S
C247 O248 1.160 . S
C247 O254 1.185 . S
O248 C247 1.160 . S
O249 Zn250 1.899 . S
O249 C257 1.284 . S
Zn250 O249 1.899 . S
Zn250 O251 2.032 . S
Zn250 O254 2.086 . S
Zn250 O259 1.977 . S
O251 Zn250 2.032 . S
O251 C255 1.278 . S
C252 O253 1.203 . S
C252 O259 1.267 . S
O253 C252 1.203 . S
O254 C247 1.185 . S
O254 Zn250 2.086 . S
C255 O251 1.278 . S
C255 O256 1.211 . S
O256 C255 1.211 . S
C257 O249 1.284 . S
C257 O258 1.273 . S
O258 C257 1.273 . S
O259 Zn250 1.977 . S
O259 C252 1.267 . S
C260 O261 1.160 . S
C260 O267 1.185 . S
O261 C260 1.160 . S
O262 Zn263 1.899 . S
O262 C270 1.284 . S
Zn263 O262 1.899 . S
Zn263 O264 2.032 1_554 S
Zn263 O267 2.086 . S
Zn263 O272 1.981 . S
O264 Zn263 2.032 1_556 S
O264 C268 1.278 . S
C265 O266 1.203 . S
C265 O272 1.278 . S
O266 C265 1.203 . S
O267 C260 1.185 . S
O267 Zn263 2.086 . S
C268 O264 1.278 . S
C268 O269 1.211 . S
O269 C268 1.211 . S
C270 O262 1.284 . S
C270 O271 1.273 . S
O271 C270 1.273 . S
O272 Zn263 1.981 . S
O272 C265 1.278 . S
C273 O274 1.160 . S
C273 O280 1.185 . S
O274 C273 1.160 . S
O275 Zn276 1.899 . S
O275 C283 1.284 . S
Zn276 O275 1.899 . S
Zn276 O277 2.032 . S
Zn276 O280 2.086 . S
Zn276 O285 1.977 . S
O277 Zn276 2.032 . S
O277 C281 1.278 . S
C278 O279 1.203 . S
C278 O285 1.267 . S
O279 C278 1.203 . S
O280 C273 1.185 . S
O280 Zn276 2.086 . S
C281 O277 1.278 . S
C281 O282 1.211 . S
O282 C281 1.211 . S
C283 O275 1.284 . S
C283 O284 1.273 . S
O284 C283 1.273 . S
O285 Zn276 1.977 . S
O285 C278 1.267 . S
C286 O287 1.160 . S
C286 O293 1.185 . S
O287 C286 1.160 . S
O288 Zn289 1.899 . S
O288 C296 1.284 . S
Zn289 O288 1.899 . S
Zn289 O290 2.032 . S
Zn289 O293 2.086 . S
Zn289 O298 1.977 . S
O290 Zn289 2.032 . S
O290 C294 1.278 . S
C291 O292 1.203 . S
C291 O298 1.267 . S
O292 C291 1.203 . S
O293 C286 1.185 . S
O293 Zn289 2.086 . S
C294 O290 1.278 . S
C294 O295 1.211 . S
O295 C294 1.211 . S
C296 O288 1.284 . S
C296 O297 1.273 . S
O297 C296 1.273 . S
O298 Zn289 1.977 . S
O298 C291 1.267 . S
C299 O300 1.160 . S
C299 O306 1.185 . S
O300 C299 1.160 . S
O301 Zn302 1.899 . S
O301 C309 1.284 . S
Zn302 O301 1.899 . S
Zn302 O303 2.032 . S
Zn302 O306 2.086 . S
Zn302 O311 1.977 . S
O303 Zn302 2.032 . S
O303 C307 1.278 . S
C304 O305 1.203 . S
C304 O311 1.267 . S
O305 C304 1.203 . S
O306 C299 1.185 . S
O306 Zn302 2.086 . S
C307 O303 1.278 . S
C307 O308 1.211 . S
O308 C307 1.211 . S
C309 O301 1.284 . S
C309 O310 1.273 . S
O310 C309 1.273 . S
O311 Zn302 1.977 . S
O311 C304 1.267 . S
La312 C314 2.928 1_455 S
La312 O332 2.521 1_455 S
La312 O333 2.628 1_456 S
La312 O334 2.554 . S
La312 O335 2.757 . S
La312 O336 2.470 . S
La312 O341 2.482 1_556 S
La312 O343 2.503 1_546 S
La313 C323 2.928 . S
La313 O335 2.482 1_554 S
La313 O337 2.503 . S
La313 O338 2.521 . S
La313 O339 2.628 . S
La313 O340 2.554 . S
La313 O341 2.757 . S
La313 O342 2.470 . S
C314 La312 2.928 1_655 S
C314 C315 1.503 . S
C314 O332 1.261 . S
C314 O333 1.243 1_556 S
C315 C314 1.503 . S
C315 C316 1.394 . S
C315 C320 1.373 . S
C316 C315 1.394 . S
C316 C317 1.380 . S
C316 H344 0.930 . S
C317 C316 1.380 . S
C317 C318 1.376 . S
C317 H345 0.930 . S
C318 C317 1.376 . S
C318 C319 1.370 . S
C319 C318 1.370 . S
C319 C320 1.396 . S
C319 H346 0.929 1_556 S
C320 C315 1.373 . S
C320 C319 1.396 . S
C320 H347 0.929 1_556 S
C321 O334 1.240 . S
C321 O335 1.289 . S
C322 O336 1.258 1_554 S
C322 O337 1.256 . S
C323 La313 2.928 . S
C323 C324 1.503 . S
C323 O338 1.261 . S
C323 O339 1.243 . S
C324 C323 1.503 . S
C324 C325 1.394 . S
C324 C329 1.390 . S
C325 C324 1.394 . S
C325 C326 1.380 . S
C325 H348 0.930 . S
C326 C325 1.380 . S
C326 C327 1.339 1_545 S
C326 H349 0.930 . S
C327 C326 1.339 1_565 S
C327 C328 1.374 . S
C328 C327 1.374 . S
C328 C329 1.381 1_565 S
C328 H350 0.929 . S
C329 C324 1.390 . S
C329 C328 1.381 1_545 S
C329 H351 0.928 1_545 S
C330 O340 1.240 . S
C330 O341 1.289 . S
C331 O342 1.258 1_565 S
C331 O343 1.256 . S
O332 La312 2.521 1_655 S
O332 C314 1.261 . S
O333 La312 2.628 1_654 S
O333 C314 1.243 1_554 S
O334 La312 2.554 . S
O334 C321 1.240 . S
O335 La312 2.757 . S
O335 La313 2.482 1_556 S
O335 C321 1.289 . S
O336 La312 2.470 . S
O336 C322 1.258 1_556 S
O337 La313 2.503 . S
O337 C322 1.256 . S
O338 La313 2.521 . S
O338 C323 1.261 . S
O339 La313 2.628 . S
O339 C323 1.243 . S
O340 La313 2.554 . S
O340 C330 1.240 . S
O341 La312 2.482 1_554 S
O341 La313 2.757 . S
O341 C330 1.289 . S
O342 La313 2.470 . S
O342 C331 1.258 1_545 S
O343 La312 2.503 1_564 S
O343 C331 1.256 . S
H344 C316 0.930 . S
H345 C317 0.930 . S
H346 C319 0.929 1_554 S
H347 C320 0.929 1_554 S
H348 C325 0.930 . S
H349 C326 0.930 . S
H350 C328 0.929 . S
H351 C329 0.928 1_565 S
La352 C354 2.928 . S
La352 O372 2.521 . S
La352 O373 2.628 . S
La352 O374 2.554 . S
La352 O375 2.757 . S
La352 O376 2.470 . S
La352 O381 2.482 . S
La352 O383 2.503 . S
La353 C363 2.928 . S
La353 O375 2.482 . S
La353 O377 2.503 . S
La353 O378 2.521 . S
La353 O379 2.628 . S
La353 O380 2.554 . S
La353 O381 2.757 . S
La353 O382 2.470 . S
C354 La352 2.928 . S
C354 C355 1.503 . S
C354 O372 1.261 . S
C354 O373 1.243 . S
C355 C354 1.503 . S
C355 C356 1.394 . S
C355 C360 1.373 . S
C356 C355 1.394 . S
C356 C357 1.380 . S
C356 H384 0.930 . S
C357 C356 1.380 . S
C357 C358 1.376 . S
C357 H385 0.930 . S
C358 C357 1.376 . S
C358 C359 1.370 . S
C359 C358 1.370 . S
C359 C360 1.396 . S
C359 H386 0.929 . S
C360 C355 1.373 . S
C360 C359 1.396 . S
C360 H387 0.929 . S
C361 O374 1.240 . S
C361 O375 1.289 . S
C362 O376 1.258 . S
C362 O377 1.256 . S
C363 La353 2.928 . S
C363 C364 1.503 . S
C363 O378 1.261 . S
C363 O379 1.243 . S
C364 C363 1.503 . S
C364 C365 1.394 . S
C364 C369 1.373 . S
C365 C364 1.394 . S
C365 C366 1.380 . S
C365 H388 0.930 . S
C366 C365 1.380 . S
C366 C367 1.376 . S
C366 H389 0.930 . S
C367 C366 1.376 . S
C367 C368 1.370 . S
C368 C367 1.370 . S
C368 C369 1.396 . S
C368 H390 0.929 . S
C369 C364 1.373 . S
C369 C368 1.396 . S
C369 H391 0.929 . S
C370 O380 1.240 . S
C370 O381 1.289 . S
C371 O382 1.258 . S
C371 O383 1.256 . S
O372 La352 2.521 . S
O372 C354 1.261 . S
O373 La352 2.628 . S
O373 C354 1.243 . S
O374 La352 2.554 . S
O374 C361 1.240 . S
O375 La352 2.757 . S
O375 La353 2.482 . S
O375 C361 1.289 . S
O376 La352 2.470 . S
O376 C362 1.258 . S
O377 La353 2.503 . S
O377 C362 1.256 . S
O378 La353 2.521 . S
O378 C363 1.261 . S
O379 La353 2.628 . S
O379 C363 1.243 . S
O380 La353 2.554 . S
O380 C370 1.240 . S
O381 La352 2.482 . S
O381 La353 2.757 . S
O381 C370 1.289 . S
O382 La353 2.470 . S
O382 C371 1.258 . S
O383 La352 2.503 . S
O383 C371 1.256 . S
H384 C356 0.930 . S
H385 C357 0.930 . S
H386 C359 0.929 . S
H387 C360 0.929 . S
H388 C365 0.930 . S
H389 C366 0.930 . S
H390 C368 0.929 . S
H391 C369 0.929 . S
La392 C394 2.928 . S
La392 O412 2.521 . S
La392 O413 2.628 . S
La392 O414 2.554 . S
La392 O415 2.757 . S
La392 O416 2.470 . S
La392 O421 2.482 . S
La392 O423 2.503 . S
La393 C403 2.928 . S
La393 O415 2.482 . S
La393 O417 2.503 1_545 S
La393 O418 2.521 . S
La393 O419 2.628 . S
La393 O420 2.554 . S
La393 O421 2.757 . S
La393 O422 2.470 . S
C394 La392 2.928 . S
C394 C395 1.503 . S
C394 O412 1.261 . S
C394 O413 1.243 . S
C395 C394 1.503 . S
C395 C396 1.393 . S
C395 C400 1.373 1_545 S
C396 C395 1.393 . S
C396 C397 1.342 1_545 S
C396 H424 0.971 . S
C397 C396 1.342 1_565 S
C397 C398 1.376 . S
C397 H425 0.930 . S
C398 C397 1.376 . S
C398 C399 1.370 . S
C399 C398 1.370 . S
C399 C400 1.396 . S
C399 H426 0.929 . S
C400 C395 1.373 1_565 S
C400 C399 1.396 . S
C400 H427 0.929 . S
C401 O414 1.240 . S
C401 O415 1.289 . S
C402 O416 1.258 1_565 S
C402 O417 1.256 . S
C403 La393 2.928 . S
C403 C404 1.503 . S
C403 O418 1.261 . S
C403 O419 1.243 . S
C404 C403 1.503 . S
C404 C405 1.394 . S
C404 C409 1.373 . S
C405 C404 1.394 . S
C405 C406 1.380 . S
C405 H428 0.930 . S
C406 C405 1.380 . S
C406 C407 1.376 . S
C406 H429 0.930 . S
C407 C406 1.376 . S
C407 C408 1.370 . S
C408 C407 1.370 . S
C408 C409 1.396 . S
C408 H430 0.929 . S
C409 C404 1.373 . S
C409 C408 1.396 . S
C409 H431 0.929 . S
C410 O420 1.240 . S
C410 O421 1.289 . S
C411 O422 1.258 . S
C411 O423 1.256 . S
O412 La392 2.521 . S
O412 C394 1.261 . S
O413 La392 2.628 . S
O413 C394 1.243 . S
O414 La392 2.554 . S
O414 C401 1.240 . S
O415 La392 2.757 . S
O415 La393 2.482 . S
O415 C401 1.289 . S
O416 La392 2.470 . S
O416 C402 1.258 1_545 S
O417 La393 2.503 1_565 S
O417 C402 1.256 . S
O418 La393 2.521 . S
O418 C403 1.261 . S
O419 La393 2.628 . S
O419 C403 1.243 . S
O420 La393 2.554 . S
O420 C410 1.240 . S
O421 La392 2.482 . S
O421 La393 2.757 . S
O421 C410 1.289 . S
O422 La393 2.470 . S
O422 C411 1.258 . S
O423 La392 2.503 . S
O423 C411 1.256 . S
H424 C396 0.971 . S
H425 C397 0.930 . S
H426 C399 0.929 . S
H427 C400 0.929 . S
H428 C405 0.930 . S
H429 C406 0.930 . S
H430 C408 0.929 . S
H431 C409 0.929 . S
La432 C434 2.928 . S
La432 O452 2.521 . S
La432 O453 2.628 . S
La432 O454 2.554 . S
La432 O455 2.757 . S
La432 O456 2.470 . S
La432 O461 2.482 . S
La432 O463 2.503 . S
La433 C443 2.928 . S
La433 O455 2.482 . S
La433 O457 2.503 . S
La433 O458 2.521 . S
La433 O459 2.628 . S
La433 O460 2.554 . S
La433 O461 2.757 . S
La433 O462 2.470 . S
C434 La432 2.928 . S
C434 C435 1.503 . S
C434 O452 1.261 . S
C434 O453 1.243 . S
C435 C434 1.503 . S
C435 C436 1.394 . S
C435 C440 1.373 . S
C436 C435 1.394 . S
C436 C437 1.380 . S
C436 H464 0.930 . S
C437 C436 1.380 . S
C437 C438 1.376 . S
C437 H465 0.930 . S
C438 C437 1.376 . S
C438 C439 1.370 . S
C439 C438 1.370 . S
C439 C440 1.396 . S
C439 H466 0.929 . S
C440 C435 1.373 . S
C440 C439 1.396 . S
C440 H467 0.929 . S
C441 O454 1.240 . S
C441 O455 1.289 . S
C442 O456 1.258 . S
C442 O457 1.256 . S
C443 La433 2.928 . S
C443 C444 1.503 . S
C443 O458 1.261 . S
C443 O459 1.243 . S
C444 C443 1.503 . S
C444 C445 1.394 . S
C444 C449 1.373 . S
C445 C444 1.394 . S
C445 C446 1.380 . S
C445 H468 0.930 . S
C446 C445 1.380 . S
C446 C447 1.376 . S
C446 H469 0.930 . S
C447 C446 1.376 . S
C447 C448 1.370 . S
C448 C447 1.370 . S
C448 C449 1.396 . S
C448 H470 0.929 . S
C449 C444 1.373 . S
C449 C448 1.396 . S
C449 H471 0.929 . S
C450 O460 1.240 . S
C450 O461 1.289 . S
C451 O462 1.258 . S
C451 O463 1.256 . S
O452 La432 2.521 . S
O452 C434 1.261 . S
O453 La432 2.628 . S
O453 C434 1.243 . S
O454 La432 2.554 . S
O454 C441 1.240 . S
O455 La432 2.757 . S
O455 La433 2.482 . S
O455 C441 1.289 . S
O456 La432 2.470 . S
O456 C442 1.258 . S
O457 La433 2.503 . S
O457 C442 1.256 . S
O458 La433 2.521 . S
O458 C443 1.261 . S
O459 La433 2.628 . S
O459 C443 1.243 . S
O460 La433 2.554 . S
O460 C450 1.240 . S
O461 La432 2.482 . S
O461 La433 2.757 . S
O461 C450 1.289 . S
O462 La433 2.470 . S
O462 C451 1.258 . S
O463 La432 2.503 . S
O463 C451 1.256 . S
H464 C436 0.930 . S
H465 C437 0.930 . S
H466 C439 0.929 . S
H467 C440 0.929 . S
H468 C445 0.930 . S
H469 C446 0.930 . S
H470 C448 0.929 . S
H471 C449 0.929 . S
La472 C474 2.928 . S
La472 O492 2.521 . S
La472 O493 2.628 . S
La472 O494 2.495 1_455 S
La472 O495 2.757 . S
La472 O496 2.470 . S
La472 O501 2.482 . S
La472 O503 2.503 . S
La473 C483 2.928 1_545 S
La473 O495 2.482 . S
La473 O497 2.503 . S
La473 O498 2.521 1_545 S
La473 O499 2.628 1_545 S
La473 O500 2.554 . S
La473 O501 2.757 . S
La473 O502 2.470 . S
C474 La472 2.928 . S
C474 C475 1.503 . S
C474 O492 1.261 . S
C474 O493 1.243 . S
C475 C474 1.503 . S
C475 C476 1.394 . S
C475 C480 1.373 . S
C476 C475 1.394 . S
C476 C477 1.380 . S
C476 H504 0.930 . S
C477 C476 1.380 . S
C477 C478 1.376 . S
C477 H505 0.930 1_455 S
C478 C477 1.376 . S
C478 C479 1.370 . S
C479 C478 1.370 . S
C479 C480 1.396 . S
C479 H506 0.929 . S
C480 C475 1.373 . S
C480 C479 1.396 . S
C480 H507 0.929 . S
C481 O494 1.202 1_455 S
C481 O495 1.344 . S
C482 O496 1.258 . S
C482 O497 1.256 . S
C483 La473 2.928 1_565 S
C483 C484 1.503 . S
C483 O498 1.261 . S
C483 O499 1.243 . S
C484 C483 1.503 . S
C484 C485 1.394 . S
C484 C489 1.373 . S
C485 C484 1.394 . S
C485 C486 1.380 . S
C485 H508 0.930 . S
C486 C485 1.380 . S
C486 C487 1.376 . S
C486 H509 0.930 . S
C487 C486 1.376 . S
C487 C488 1.370 . S
C488 C487 1.370 . S
C488 C489 1.396 . S
C488 H510 0.929 . S
C489 C484 1.373 . S
C489 C488 1.396 . S
C489 H511 0.929 . S
C490 O500 1.240 . S
C490 O501 1.289 . S
C491 O502 1.258 . S
C491 O503 1.256 . S
O492 La472 2.521 . S
O492 C474 1.261 . S
O493 La472 2.628 . S
O493 C474 1.243 . S
O494 La472 2.495 1_655 S
O494 C481 1.202 1_655 S
O495 La472 2.757 . S
O495 La473 2.482 . S
O495 C481 1.344 . S
O496 La472 2.470 . S
O496 C482 1.258 . S
O497 La473 2.503 . S
O497 C482 1.256 . S
O498 La473 2.521 1_565 S
O498 C483 1.261 . S
O499 La473 2.628 1_565 S
O499 C483 1.243 . S
O500 La473 2.554 . S
O500 C490 1.240 . S
O501 La472 2.482 . S
O501 La473 2.757 . S
O501 C490 1.289 . S
O502 La473 2.470 . S
O502 C491 1.258 . S
O503 La472 2.503 . S
O503 C491 1.256 . S
H504 C476 0.930 . S
H505 C477 0.930 1_655 S
H506 C479 0.929 . S
H507 C480 0.929 . S
H508 C485 0.930 . S
H509 C486 0.930 . S
H510 C488 0.929 . S
H511 C489 0.929 . S
La512 C514 2.928 . S
La512 O532 2.521 . S
La512 O533 2.628 . S
La512 O534 2.554 . S
La512 O535 2.757 . S
La512 O536 2.470 . S
La512 O541 2.482 . S
La512 O543 2.503 . S
La513 C523 2.928 . S
La513 O535 2.482 . S
La513 O537 2.503 . S
La513 O538 2.521 . S
La513 O539 2.628 . S
La513 O540 2.554 . S
La513 O541 2.757 . S
La513 O542 2.470 . S
C514 La512 2.928 . S
C514 C515 1.503 . S
C514 O532 1.261 . S
C514 O533 1.243 . S
C515 C514 1.503 . S
C515 C516 1.394 . S
C515 C520 1.373 . S
C516 C515 1.394 . S
C516 C517 1.380 . S
C516 H544 0.930 . S
C517 C516 1.380 . S
C517 C518 1.376 . S
C517 H545 0.930 . S
C518 C517 1.376 . S
C518 C519 1.370 . S
C519 C518 1.370 . S
C519 C520 1.396 . S
C519 H546 0.929 . S
C520 C515 1.373 . S
C520 C519 1.396 . S
C520 H547 0.929 . S
C521 O534 1.240 . S
C521 O535 1.289 . S
C522 O536 1.258 . S
C522 O537 1.256 . S
C523 La513 2.928 . S
C523 C524 1.503 . S
C523 O538 1.261 . S
C523 O539 1.243 . S
C524 C523 1.503 . S
C524 C525 1.394 . S
C524 C529 1.373 . S
C525 C524 1.394 . S
C525 C526 1.380 . S
C525 H548 0.930 . S
C526 C525 1.380 . S
C526 C527 1.376 . S
C526 H549 0.930 . S
C527 C526 1.376 . S
C527 C528 1.370 . S
C528 C527 1.370 . S
C528 C529 1.396 . S
C528 H550 0.929 . S
C529 C524 1.373 . S
C529 C528 1.396 . S
C529 H551 0.929 . S
C530 O540 1.240 . S
C530 O541 1.289 . S
C531 O542 1.258 . S
C531 O543 1.256 . S
O532 La512 2.521 . S
O532 C514 1.261 . S
O533 La512 2.628 . S
O533 C514 1.243 . S
O534 La512 2.554 . S
O534 C521 1.240 . S
O535 La512 2.757 . S
O535 La513 2.482 . S
O535 C521 1.289 . S
O536 La512 2.470 . S
O536 C522 1.258 . S
O537 La513 2.503 . S
O537 C522 1.256 . S
O538 La513 2.521 . S
O538 C523 1.261 . S
O539 La513 2.628 . S
O539 C523 1.243 . S
O540 La513 2.554 . S
O540 C530 1.240 . S
O541 La512 2.482 . S
O541 La513 2.757 . S
O541 C530 1.289 . S
O542 La513 2.470 . S
O542 C531 1.258 . S
O543 La512 2.503 . S
O543 C531 1.256 . S
H544 C516 0.930 . S
H545 C517 0.930 . S
H546 C519 0.929 . S
H547 C520 0.929 . S
H548 C525 0.930 . S
H549 C526 0.930 . S
H550 C528 0.929 . S
H551 C529 0.929 . S
La552 C554 2.928 . S
La552 O572 2.521 1_545 S
La552 O573 2.628 . S
La552 O574 2.554 1_545 S
La552 O575 2.757 . S
La552 O576 2.470 . S
La552 O581 2.482 . S
La552 O583 2.503 . S
La553 C563 2.928 . S
La553 O575 2.482 1_556 S
La553 O577 2.503 . S
La553 O578 2.521 . S
La553 O579 2.628 . S
La553 O580 2.554 1_556 S
La553 O581 2.757 1_556 S
La553 O582 2.470 1_556 S
C554 La552 2.928 . S
C554 C555 1.503 . S
C554 O572 1.261 1_545 S
C554 O573 1.243 . S
C555 C554 1.503 . S
C555 C556 1.394 1_545 S
C555 C560 1.373 . S
C556 C555 1.394 1_565 S
C556 C557 1.380 . S
C556 H584 0.930 . S
C557 C556 1.380 . S
C557 C558 1.376 . S
C557 H585 0.930 . S
C558 C557 1.376 . S
C558 C559 1.370 1_565 S
C559 C558 1.370 1_545 S
C559 C560 1.396 . S
C559 H586 0.929 . S
C560 C555 1.373 . S
C560 C559 1.396 . S
C560 H587 0.929 . S
C561 O574 1.240 . S
C561 O575 1.289 1_565 S
C562 O576 1.258 . S
C562 O577 1.256 1_554 S
C563 La553 2.928 . S
C563 C564 1.503 . S
C563 O578 1.261 . S
C563 O579 1.243 . S
C564 C563 1.503 . S
C564 C565 1.394 . S
C564 C569 1.373 . S
C565 C564 1.394 . S
C565 C566 1.380 . S
C565 H588 0.930 . S
C566 C565 1.380 . S
C566 C567 1.376 . S
C566 H589 0.930 . S
C567 C566 1.376 . S
C567 C568 1.370 . S
C568 C567 1.370 . S
C568 C569 1.396 . S
C568 H590 0.929 . S
C569 C564 1.373 . S
C569 C568 1.396 . S
C569 H591 0.929 . S
C570 O580 1.240 . S
C570 O581 1.289 . S
C571 O582 1.258 . S
C571 O583 1.256 . S
O572 La552 2.521 1_565 S
O572 C554 1.261 1_565 S
O573 La552 2.628 . S
O573 C554 1.243 . S
O574 La552 2.554 1_565 S
O574 C561 1.240 . S
O575 La552 2.757 . S
O575 La553 2.482 1_554 S
O575 C561 1.289 1_545 S
O576 La552 2.470 . S
O576 C562 1.258 . S
O577 La553 2.503 . S
O577 C562 1.256 1_556 S
O578 La553 2.521 . S
O578 C563 1.261 . S
O579 La553 2.628 . S
O579 C563 1.243 . S
O580 La553 2.554 1_554 S
O580 C570 1.240 . S
O581 La552 2.482 . S
O581 La553 2.757 1_554 S
O581 C570 1.289 . S
O582 La553 2.470 1_554 S
O582 C571 1.258 . S
O583 La552 2.503 . S
O583 C571 1.256 . S
H584 C556 0.930 . S
H585 C557 0.930 . S
H586 C559 0.929 . S
H587 C560 0.929 . S
H588 C565 0.930 . S
H589 C566 0.930 . S
H590 C568 0.929 . S
H591 C569 0.929 . S
La592 C594 2.928 . S
La592 O612 2.521 . S
La592 O613 2.628 . S
La592 O614 2.554 . S
La592 O615 2.757 . S
La592 O616 2.470 . S
La592 O621 2.482 . S
La592 O623 2.503 . S
La593 C603 2.928 . S
La593 O615 2.482 . S
La593 O617 2.503 . S
La593 O618 2.521 . S
La593 O619 2.628 . S
La593 O620 2.554 . S
La593 O621 2.757 . S
La593 O622 2.470 . S
C594 La592 2.928 . S
C594 C595 1.503 . S
C594 O612 1.261 . S
C594 O613 1.243 . S
C595 C594 1.503 . S
C595 C596 1.394 . S
C595 C600 1.373 . S
C596 C595 1.394 . S
C596 C597 1.380 . S
C596 H624 0.930 . S
C597 C596 1.380 . S
C597 C598 1.376 . S
C597 H625 0.930 . S
C598 C597 1.376 . S
C598 C599 1.370 . S
C599 C598 1.370 . S
C599 C600 1.396 . S
C599 H626 0.929 . S
C600 C595 1.373 . S
C600 C599 1.396 . S
C600 H627 0.929 . S
C601 O614 1.240 . S
C601 O615 1.289 . S
C602 O616 1.258 . S
C602 O617 1.256 . S
C603 La593 2.928 . S
C603 C604 1.503 . S
C603 O618 1.261 . S
C603 O619 1.243 . S
C604 C603 1.503 . S
C604 C605 1.394 . S
C604 C609 1.373 . S
C605 C604 1.394 . S
C605 C606 1.380 . S
C605 H628 0.930 . S
C606 C605 1.380 . S
C606 C607 1.376 . S
C606 H629 0.930 . S
C607 C606 1.376 . S
C607 C608 1.370 . S
C608 C607 1.370 . S
C608 C609 1.396 . S
C608 H630 0.929 . S
C609 C604 1.373 . S
C609 C608 1.396 . S
C609 H631 0.929 . S
C610 O620 1.240 . S
C610 O621 1.289 . S
C611 O622 1.258 . S
C611 O623 1.256 . S
O612 La592 2.521 . S
O612 C594 1.261 . S
O613 La592 2.628 . S
O613 C594 1.243 . S
O614 La592 2.554 . S
O614 C601 1.240 . S
O615 La592 2.757 . S
O615 La593 2.482 . S
O615 C601 1.289 . S
O616 La592 2.470 . S
O616 C602 1.258 . S
O617 La593 2.503 . S
O617 C602 1.256 . S
O618 La593 2.521 . S
O618 C603 1.261 . S
O619 La593 2.628 . S
O619 C603 1.243 . S
O620 La593 2.554 . S
O620 C610 1.240 . S
O621 La592 2.482 . S
O621 La593 2.757 . S
O621 C610 1.289 . S
O622 La593 2.470 . S
O622 C611 1.258 . S
O623 La592 2.503 . S
O623 C611 1.256 . S
H624 C596 0.930 . S
H625 C597 0.930 . S
H626 C599 0.929 . S
H627 C600 0.929 . S
H628 C605 0.930 . S
H629 C606 0.930 . S
H630 C608 0.929 . S
H631 C609 0.929 . S
La632 C634 2.928 . S
La632 O652 2.521 . S
La632 O653 2.652 . S
La632 O654 2.554 . S
La632 O655 2.757 . S
La632 O656 2.470 1_554 S
La632 O661 2.482 . S
La632 O663 2.503 . S
La633 C643 2.928 . S
La633 O655 2.482 . S
La633 O657 2.503 1_554 S
La633 O658 2.521 . S
La633 O659 2.628 . S
La633 O660 2.554 . S
La633 O661 2.757 . S
La633 O662 2.470 . S
C634 La632 2.928 . S
C634 C635 1.503 1_554 S
C634 O652 1.261 . S
C634 O653 1.248 . S
C635 C634 1.503 1_556 S
C635 C636 1.394 . S
C635 C640 1.373 . S
C636 C635 1.394 . S
C636 C637 1.380 . S
C636 H664 0.930 1_556 S
C637 C636 1.380 . S
C637 C638 1.376 . S
C637 H665 0.930 . S
C638 C637 1.376 . S
C638 C639 1.370 . S
C639 C638 1.370 . S
C639 C640 1.396 . S
C639 H666 0.929 . S
C640 C635 1.373 . S
C640 C639 1.396 . S
C640 H667 0.929 . S
C641 O654 1.240 . S
C641 O655 1.289 . S
C642 O656 1.258 . S
C642 O657 1.256 . S
C643 La633 2.928 . S
C643 C644 1.503 . S
C643 O658 1.261 . S
C643 O659 1.243 . S
C644 C643 1.503 . S
C644 C645 1.394 . S
C644 C649 1.373 . S
C645 C644 1.394 . S
C645 C646 1.380 . S
C645 H668 0.930 . S
C646 C645 1.380 . S
C646 C647 1.376 . S
C646 H669 0.930 . S
C647 C646 1.376 . S
C647 C648 1.370 . S
C648 C647 1.370 . S
C648 C649 1.396 . S
C648 H670 0.929 . S
C649 C644 1.373 . S
C649 C648 1.396 . S
C649 H671 0.929 . S
C650 O660 1.240 . S
C650 O661 1.289 . S
C651 O662 1.258 . S
C651 O663 1.256 . S
O652 La632 2.521 . S
O652 C634 1.261 . S
O653 La632 2.652 . S
O653 C634 1.248 . S
O654 La632 2.554 . S
O654 C641 1.240 . S
O655 La632 2.757 . S
O655 La633 2.482 . S
O655 C641 1.289 . S
O656 La632 2.470 1_556 S
O656 C642 1.258 . S
O657 La633 2.503 1_556 S
O657 C642 1.256 . S
O658 La633 2.521 . S
O658 C643 1.261 . S
O659 La633 2.628 . S
O659 C643 1.243 . S
O660 La633 2.554 . S
O660 C650 1.240 . S
O661 La632 2.482 . S
O661 La633 2.757 . S
O661 C650 1.289 . S
O662 La633 2.470 . S
O662 C651 1.258 . S
O663 La632 2.503 . S
O663 C651 1.256 . S
H664 C636 0.930 1_554 S
H665 C637 0.930 . S
H666 C639 0.929 . S
H667 C640 0.929 . S
H668 C645 0.930 . S
H669 C646 0.930 . S
H670 C648 0.929 . S
H671 C649 0.929 . S
La672 C674 2.928 . S
La672 O692 2.521 . S
La672 O693 2.628 . S
La672 O694 2.554 . S
La672 O695 2.757 . S
La672 O696 2.470 . S
La672 O701 2.482 . S
La672 O703 2.503 . S
La673 C683 2.928 . S
La673 O695 2.482 . S
La673 O697 2.503 . S
La673 O698 2.521 . S
La673 O699 2.628 . S
La673 O700 2.554 . S
La673 O701 2.757 . S
La673 O702 2.470 . S
C674 La672 2.928 . S
C674 C675 1.503 . S
C674 O692 1.261 . S
C674 O693 1.243 . S
C675 C674 1.503 . S
C675 C676 1.394 . S
C675 C680 1.373 . S
C676 C675 1.394 . S
C676 C677 1.380 . S
C676 H704 0.930 . S
C677 C676 1.380 . S
C677 C678 1.376 . S
C677 H705 0.930 . S
C678 C677 1.376 . S
C678 C679 1.370 . S
C679 C678 1.370 . S
C679 C680 1.396 . S
C679 H706 0.929 . S
C680 C675 1.373 . S
C680 C679 1.396 . S
C680 H707 0.929 . S
C681 O694 1.240 . S
C681 O695 1.289 . S
C682 O696 1.258 . S
C682 O697 1.256 . S
C683 La673 2.928 . S
C683 C684 1.503 . S
C683 O698 1.261 . S
C683 O699 1.243 . S
C684 C683 1.503 . S
C684 C685 1.394 . S
C684 C689 1.373 . S
C685 C684 1.394 . S
C685 C686 1.380 . S
C685 H708 0.930 . S
C686 C685 1.380 . S
C686 C687 1.376 . S
C686 H709 0.930 . S
C687 C686 1.376 . S
C687 C688 1.370 . S
C688 C687 1.370 . S
C688 C689 1.396 . S
C688 H710 0.929 . S
C689 C684 1.373 . S
C689 C688 1.396 . S
C689 H711 0.929 . S
C690 O700 1.240 . S
C690 O701 1.289 . S
C691 O702 1.258 . S
C691 O703 1.256 . S
O692 La672 2.521 . S
O692 C674 1.261 . S
O693 La672 2.628 . S
O693 C674 1.243 . S
O694 La672 2.554 . S
O694 C681 1.240 . S
O695 La672 2.757 . S
O695 La673 2.482 . S
O695 C681 1.289 . S
O696 La672 2.470 . S
O696 C682 1.258 . S
O697 La673 2.503 . S
O697 C682 1.256 . S
O698 La673 2.521 . S
O698 C683 1.261 . S
O699 La673 2.628 . S
O699 C683 1.243 . S
O700 La673 2.554 . S
O700 C690 1.240 . S
O701 La672 2.482 . S
O701 La673 2.757 . S
O701 C690 1.289 . S
O702 La673 2.470 . S
O702 C691 1.258 . S
O703 La672 2.503 . S
O703 C691 1.256 . S
H704 C676 0.930 . S
H705 C677 0.930 . S
H706 C679 0.929 . S
H707 C680 0.929 . S
H708 C685 0.930 . S
H709 C686 0.930 . S
H710 C688 0.929 . S
H711 C689 0.929 . S
La712 C714 2.928 . S
La712 O732 2.521 . S
La712 O733 2.628 . S
La712 O734 2.554 . S
La712 O735 2.757 . S
La712 O736 2.470 . S
La712 O741 2.482 . S
La712 O743 2.503 . S
La713 C723 2.928 . S
La713 O735 2.482 . S
La713 O737 2.503 . S
La713 O738 2.521 . S
La713 O739 2.628 . S
La713 O740 2.554 . S
La713 O741 2.757 . S
La713 O742 2.470 . S
C714 La712 2.928 . S
C714 C715 1.503 . S
C714 O732 1.261 . S
C714 O733 1.243 . S
C715 C714 1.503 . S
C715 C716 1.394 . S
C715 C720 1.373 . S
C716 C715 1.394 . S
C716 C717 1.380 . S
C716 H744 0.930 . S
C717 C716 1.380 . S
C717 C718 1.376 1_455 S
C717 H745 0.930 . S
C718 C717 1.376 1_655 S
C718 C719 1.370 . S
C719 C718 1.370 . S
C719 C720 1.396 1_655 S
C719 H746 0.929 . S
C720 C715 1.373 . S
C720 C719 1.396 1_455 S
C720 H747 0.932 . S
C721 O734 1.240 . S
C721 O735 1.289 . S
C722 O736 1.258 . S
C722 O737 1.256 . S
C723 La713 2.928 . S
C723 C724 1.503 . S
C723 O738 1.261 . S
C723 O739 1.243 . S
C724 C723 1.503 . S
C724 C725 1.394 . S
C724 C729 1.373 . S
C725 C724 1.394 . S
C725 C726 1.380 . S
C725 H748 0.930 . S
C726 C725 1.380 . S
C726 C727 1.376 . S
C726 H749 0.930 . S
C727 C726 1.376 . S
C727 C728 1.370 . S
C728 C727 1.370 . S
C728 C729 1.396 . S
C728 H750 0.929 . S
C729 C724 1.373 . S
C729 C728 1.396 . S
C729 H751 0.929 . S
C730 O740 1.240 . S
C730 O741 1.289 . S
C731 O742 1.258 . S
C731 O743 1.256 . S
O732 La712 2.521 . S
O732 C714 1.261 . S
O733 La712 2.628 . S
O733 C714 1.243 . S
O734 La712 2.554 . S
O734 C721 1.240 . S
O735 La712 2.757 . S
O735 La713 2.482 . S
O735 C721 1.289 . S
O736 La712 2.470 . S
O736 C722 1.258 . S
O737 La713 2.503 . S
O737 C722 1.256 . S
O738 La713 2.521 . S
O738 C723 1.261 . S
O739 La713 2.628 . S
O739 C723 1.243 . S
O740 La713 2.554 . S
O740 C730 1.240 . S
O741 La712 2.482 . S
O741 La713 2.757 . S
O741 C730 1.289 . S
O742 La713 2.470 . S
O742 C731 1.258 . S
O743 La712 2.503 . S
O743 C731 1.256 . S
H744 C716 0.930 . S
H745 C717 0.930 . S
H746 C719 0.929 . S
H747 C720 0.932 . S
H748 C725 0.930 . S
H749 C726 0.930 . S
H750 C728 0.929 . S
H751 C729 0.929 . S
La752 C754 2.928 . S
La752 O772 2.521 . S
La752 O773 2.628 . S
La752 O774 2.554 . S
La752 O775 2.757 . S
La752 O776 2.470 . S
La752 O781 2.482 . S
La752 O783 2.503 . S
La753 C763 2.928 . S
La753 O775 2.482 . S
La753 O777 2.503 . S
La753 O778 2.521 . S
La753 O779 2.628 . S
La753 O780 2.554 . S
La753 O781 2.757 . S
La753 O782 2.470 . S
C754 La752 2.928 . S
C754 C755 1.503 . S
C754 O772 1.261 . S
C754 O773 1.243 . S
C755 C754 1.503 . S
C755 C756 1.394 . S
C755 C760 1.373 . S
C756 C755 1.394 . S
C756 C757 1.380 . S
C756 H784 0.930 . S
C757 C756 1.380 . S
C757 C758 1.376 . S
C757 H785 0.930 . S
C758 C757 1.376 . S
C758 C759 1.370 . S
C759 C758 1.370 . S
C759 C760 1.396 . S
C759 H786 0.929 . S
C760 C755 1.373 . S
C760 C759 1.396 . S
C760 H787 0.929 . S
C761 O774 1.240 . S
C761 O775 1.289 . S
C762 O776 1.258 . S
C762 O777 1.256 . S
C763 La753 2.928 . S
C763 C764 1.503 . S
C763 O778 1.261 . S
C763 O779 1.243 . S
C764 C763 1.503 . S
C764 C765 1.394 . S
C764 C769 1.373 . S
C765 C764 1.394 . S
C765 C766 1.380 . S
C765 H788 0.930 . S
C766 C765 1.380 . S
C766 C767 1.376 . S
C766 H789 0.930 . S
C767 C766 1.376 . S
C767 C768 1.370 . S
C768 C767 1.370 . S
C768 C769 1.396 . S
C768 H790 0.929 . S
C769 C764 1.373 . S
C769 C768 1.396 . S
C769 H791 0.929 . S
C770 O780 1.240 . S
C770 O781 1.289 . S
C771 O782 1.258 . S
C771 O783 1.256 . S
O772 La752 2.521 . S
O772 C754 1.261 . S
O773 La752 2.628 . S
O773 C754 1.243 . S
O774 La752 2.554 . S
O774 C761 1.240 . S
O775 La752 2.757 . S
O775 La753 2.482 . S
O775 C761 1.289 . S
O776 La752 2.470 . S
O776 C762 1.258 . S
O777 La753 2.503 . S
O777 C762 1.256 . S
O778 La753 2.521 . S
O778 C763 1.261 . S
O779 La753 2.628 . S
O779 C763 1.243 . S
O780 La753 2.554 . S
O780 C770 1.240 . S
O781 La752 2.482 . S
O781 La753 2.757 . S
O781 C770 1.289 . S
O782 La753 2.470 . S
O782 C771 1.258 . S
O783 La752 2.503 . S
O783 C771 1.256 . S
H784 C756 0.930 . S
H785 C757 0.930 . S
H786 C759 0.929 . S
H787 C760 0.929 . S
H788 C765 0.930 . S
H789 C766 0.930 . S
H790 C768 0.929 . S
H791 C769 0.929 . S
La792 C794 2.928 . S
La792 O812 2.521 . S
La792 O813 2.628 . S
La792 O814 2.554 . S
La792 O815 2.757 . S
La792 O816 2.470 . S
La792 O821 2.482 . S
La792 O823 2.503 . S
La793 C803 2.928 . S
La793 O815 2.482 . S
La793 O817 2.503 . S
La793 O818 2.521 . S
La793 O819 2.628 . S
La793 O820 2.554 . S
La793 O821 2.757 . S
La793 O822 2.470 . S
C794 La792 2.928 . S
C794 C795 1.503 . S
C794 O812 1.261 . S
C794 O813 1.243 . S
C795 C794 1.503 . S
C795 C796 1.394 . S
C795 C800 1.373 . S
C796 C795 1.394 . S
C796 C797 1.380 . S
C796 H824 0.930 . S
C797 C796 1.380 . S
C797 C798 1.376 . S
C797 H825 0.930 . S
C798 C797 1.376 . S
C798 C799 1.370 . S
C799 C798 1.370 . S
C799 C800 1.396 . S
C799 H826 0.929 . S
C800 C795 1.373 . S
C800 C799 1.396 . S
C800 H827 0.929 . S
C801 O814 1.240 . S
C801 O815 1.289 . S
C802 O816 1.258 . S
C802 O817 1.256 . S
C803 La793 2.928 . S
C803 C804 1.503 . S
C803 O818 1.261 . S
C803 O819 1.243 . S
C804 C803 1.503 . S
C804 C805 1.394 . S
C804 C809 1.373 . S
C805 C804 1.394 . S
C805 C806 1.380 . S
C805 H828 0.930 . S
C806 C805 1.380 . S
C806 C807 1.376 . S
C806 H829 0.930 . S
C807 C806 1.376 . S
C807 C808 1.370 . S
C808 C807 1.370 . S
C808 C809 1.396 . S
C808 H830 0.929 . S
C809 C804 1.373 . S
C809 C808 1.396 . S
C809 H831 0.929 . S
C810 O820 1.240 . S
C810 O821 1.289 . S
C811 O822 1.258 . S
C811 O823 1.256 . S
O812 La792 2.521 . S
O812 C794 1.261 . S
O813 La792 2.628 . S
O813 C794 1.243 . S
O814 La792 2.554 . S
O814 C801 1.240 . S
O815 La792 2.757 . S
O815 La793 2.482 . S
O815 C801 1.289 . S
O816 La792 2.470 . S
O816 C802 1.258 . S
O817 La793 2.503 . S
O817 C802 1.256 . S
O818 La793 2.521 . S
O818 C803 1.261 . S
O819 La793 2.628 . S
O819 C803 1.243 . S
O820 La793 2.554 . S
O820 C810 1.240 . S
O821 La792 2.482 . S
O821 La793 2.757 . S
O821 C810 1.289 . S
O822 La793 2.470 . S
O822 C811 1.258 . S
O823 La792 2.503 . S
O823 C811 1.256 . S
H824 C796 0.930 . S
H825 C797 0.930 . S
H826 C799 0.929 . S
H827 C800 0.929 . S
H828 C805 0.930 . S
H829 C806 0.930 . S
H830 C808 0.929 . S
H831 C809 0.929 . S
La832 C834 2.928 . S
La832 O852 2.521 . S
La832 O853 2.628 . S
La832 O854 2.554 . S
La832 O855 2.757 . S
La832 O856 2.470 . S
La832 O861 2.482 . S
La832 O863 2.503 . S
La833 C843 2.928 . S
La833 O855 2.482 . S
La833 O857 2.503 . S
La833 O858 2.521 . S
La833 O859 2.628 . S
La833 O860 2.554 . S
La833 O861 2.757 . S
La833 O862 2.470 . S
C834 La832 2.928 . S
C834 C835 1.503 . S
C834 O852 1.261 . S
C834 O853 1.243 . S
C835 C834 1.503 . S
C835 C836 1.394 . S
C835 C840 1.373 . S
C836 C835 1.394 . S
C836 C837 1.380 . S
C836 H864 0.930 . S
C837 C836 1.380 . S
C837 C838 1.376 . S
C837 H865 0.930 . S
C838 C837 1.376 . S
C838 C839 1.370 . S
C839 C838 1.370 . S
C839 C840 1.396 . S
C839 H866 0.929 . S
C840 C835 1.373 . S
C840 C839 1.396 . S
C840 H867 0.929 . S
C841 O854 1.240 . S
C841 O855 1.289 . S
C842 O856 1.258 . S
C842 O857 1.256 . S
C843 La833 2.928 . S
C843 C844 1.503 . S
C843 O858 1.261 . S
C843 O859 1.243 . S
C844 C843 1.503 . S
C844 C845 1.394 . S
C844 C849 1.373 . S
C845 C844 1.394 . S
C845 C846 1.380 . S
C845 H868 0.930 . S
C846 C845 1.380 . S
C846 C847 1.376 . S
C846 H869 0.930 . S
C847 C846 1.376 . S
C847 C848 1.370 . S
C848 C847 1.370 . S
C848 C849 1.396 . S
C848 H870 0.929 . S
C849 C844 1.373 . S
C849 C848 1.396 . S
C849 H871 0.929 . S
C850 O860 1.240 . S
C850 O861 1.289 . S
C851 O862 1.258 . S
C851 O863 1.256 . S
O852 La832 2.521 . S
O852 C834 1.261 . S
O853 La832 2.628 . S
O853 C834 1.243 . S
O854 La832 2.554 . S
O854 C841 1.240 . S
O855 La832 2.757 . S
O855 La833 2.482 . S
O855 C841 1.289 . S
O856 La832 2.470 . S
O856 C842 1.258 . S
O857 La833 2.503 . S
O857 C842 1.256 . S
O858 La833 2.521 . S
O858 C843 1.261 . S
O859 La833 2.628 . S
O859 C843 1.243 . S
O860 La833 2.554 . S
O860 C850 1.240 . S
O861 La832 2.482 . S
O861 La833 2.757 . S
O861 C850 1.289 . S
O862 La833 2.470 . S
O862 C851 1.258 . S
O863 La832 2.503 . S
O863 C851 1.256 . S
H864 C836 0.930 . S
H865 C837 0.930 . S
H866 C839 0.929 . S
H867 C840 0.929 . S
H868 C845 0.930 . S
H869 C846 0.930 . S
H870 C848 0.929 . S
H871 C849 0.929 . S
La872 C874 2.928 . S
La872 O892 2.521 . S
La872 O893 2.628 . S
La872 O894 2.554 . S
La872 O895 2.757 . S
La872 O896 2.470 . S
La872 O901 2.482 . S
La872 O903 2.503 . S
La873 C883 2.928 . S
La873 O895 2.482 . S
La873 O897 2.503 . S
La873 O898 2.521 . S
La873 O899 2.628 . S
La873 O900 2.554 . S
La873 O901 2.757 . S
La873 O902 2.470 . S
C874 La872 2.928 . S
C874 C875 1.503 . S
C874 O892 1.261 . S
C874 O893 1.243 . S
C875 C874 1.503 . S
C875 C876 1.394 . S
C875 C880 1.373 . S
C876 C875 1.394 . S
C876 C877 1.380 . S
C876 H904 0.930 . S
C877 C876 1.380 . S
C877 C878 1.376 . S
C877 H905 0.930 . S
C878 C877 1.376 . S
C878 C879 1.370 . S
C879 C878 1.370 . S
C879 C880 1.396 . S
C879 H906 0.929 . S
C880 C875 1.373 . S
C880 C879 1.396 . S
C880 H907 0.929 . S
C881 O894 1.240 . S
C881 O895 1.289 . S
C882 O896 1.258 . S
C882 O897 1.256 . S
C883 La873 2.928 . S
C883 C884 1.503 . S
C883 O898 1.261 . S
C883 O899 1.243 . S
C884 C883 1.503 . S
C884 C885 1.394 . S
C884 C889 1.373 . S
C885 C884 1.394 . S
C885 C886 1.380 . S
C885 H908 0.930 . S
C886 C885 1.380 . S
C886 C887 1.376 . S
C886 H909 0.930 . S
C887 C886 1.376 . S
C887 C888 1.370 . S
C888 C887 1.370 . S
C888 C889 1.396 . S
C888 H910 0.929 . S
C889 C884 1.373 . S
C889 C888 1.396 . S
C889 H911 0.929 . S
C890 O900 1.240 . S
C890 O901 1.289 . S
C891 O902 1.258 . S
C891 O903 1.256 . S
O892 La872 2.521 . S
O892 C874 1.261 . S
O893 La872 2.628 . S
O893 C874 1.243 . S
O894 La872 2.554 . S
O894 C881 1.240 . S
O895 La872 2.757 . S
O895 La873 2.482 . S
O895 C881 1.289 . S
O896 La872 2.470 . S
O896 C882 1.258 . S
O897 La873 2.503 . S
O897 C882 1.256 . S
O898 La873 2.521 . S
O898 C883 1.261 . S
O899 La873 2.628 . S
O899 C883 1.243 . S
O900 La873 2.554 . S
O900 C890 1.240 . S
O901 La872 2.482 . S
O901 La873 2.757 . S
O901 C890 1.289 . S
O902 La873 2.470 . S
O902 C891 1.258 . S
O903 La872 2.503 . S
O903 C891 1.256 . S
H904 C876 0.930 . S
H905 C877 0.930 . S
H906 C879 0.929 . S
H907 C880 0.929 . S
H908 C885 0.930 . S
H909 C886 0.930 . S
H910 C888 0.929 . S
H911 C889 0.929 . S
La912 C914 2.928 . S
La912 O932 2.521 . S
La912 O933 2.628 1_556 S
La912 O934 2.554 . S
La912 O935 2.757 . S
La912 O936 2.470 . S
La912 O941 2.482 1_556 S
La912 O943 2.503 1_556 S
La913 C923 2.928 1_455 S
La913 O935 2.482 1_554 S
La913 O937 2.503 . S
La913 O938 2.521 1_455 S
La913 O939 2.628 1_455 S
La913 O940 2.554 . S
La913 O941 2.757 . S
La913 O942 2.470 . S
C914 La912 2.928 . S
C914 C915 1.503 . S
C914 O932 1.261 . S
C914 O933 1.243 1_556 S
C915 C914 1.503 . S
C915 C916 1.394 . S
C915 C920 1.332 1_556 S
C916 C915 1.394 . S
C916 C917 1.380 . S
C916 H944 0.930 . S
C917 C916 1.380 . S
C917 C918 1.376 . S
C917 H945 0.930 . S
C918 C917 1.376 . S
C918 C919 1.370 . S
C919 C918 1.370 . S
C919 C920 1.386 1_556 S
C919 H946 0.929 1_556 S
C920 C915 1.332 1_554 S
C920 C919 1.386 1_554 S
C920 H947 0.984 . S
C921 O934 1.240 . S
C921 O935 1.289 . S
C922 O936 1.258 . S
C922 O937 1.256 1_556 S
C923 La913 2.928 1_655 S
C923 C924 1.503 . S
C923 O938 1.261 . S
C923 O939 1.243 . S
C924 C923 1.503 . S
C924 C925 1.394 . S
C924 C929 1.373 . S
C925 C924 1.394 . S
C925 C926 1.380 . S
C925 H948 0.930 . S
C926 C925 1.380 . S
C926 C927 1.376 . S
C926 H949 0.930 . S
C927 C926 1.376 . S
C927 C928 1.370 . S
C928 C927 1.370 . S
C928 C929 1.396 . S
C928 H950 0.929 . S
C929 C924 1.373 . S
C929 C928 1.396 . S
C929 H951 0.929 . S
C930 O940 1.240 . S
C930 O941 1.289 . S
C931 O942 1.258 . S
C931 O943 1.256 . S
O932 La912 2.521 . S
O932 C914 1.261 . S
O933 La912 2.628 1_554 S
O933 C914 1.243 1_554 S
O934 La912 2.554 . S
O934 C921 1.240 . S
O935 La912 2.757 . S
O935 La913 2.482 1_556 S
O935 C921 1.289 . S
O936 La912 2.470 . S
O936 C922 1.258 . S
O937 La913 2.503 . S
O937 C922 1.256 1_554 S
O938 La913 2.521 1_655 S
O938 C923 1.261 . S
O939 La913 2.628 1_655 S
O939 C923 1.243 . S
O940 La913 2.554 . S
O940 C930 1.240 . S
O941 La912 2.482 1_554 S
O941 La913 2.757 . S
O941 C930 1.289 . S
O942 La913 2.470 . S
O942 C931 1.258 . S
O943 La912 2.503 1_554 S
O943 C931 1.256 . S
H944 C916 0.930 . S
H945 C917 0.930 . S
H946 C919 0.929 1_554 S
H947 C920 0.984 . S
H948 C925 0.930 . S
H949 C926 0.930 . S
H950 C928 0.929 . S
H951 C929 0.929 . S
H952 C960 0.924 1_655 S
H953 C962 0.930 . S
H954 C964 0.930 . S
H955 C967 0.929 . S
H956 C970 0.930 . S
H957 C972 0.983 . S
H958 C972 0.960 . S
H959 C972 0.960 1_455 S
C960 H952 0.924 1_455 S
C960 C961 1.377 . S
C960 C962 1.384 . S
C961 C960 1.377 . S
C961 C967 1.390 . S
C962 H953 0.930 . S
C962 C960 1.384 . S
C962 C963 1.372 . S
C963 C962 1.372 . S
C963 C964 1.400 . S
C963 C968 1.490 . S
C964 H954 0.930 . S
C964 C963 1.400 . S
C964 C967 1.386 . S
H965 C981 0.930 . S
H966 C982 0.931 1_554 S
C967 H955 0.929 . S
C967 C961 1.390 . S
C967 C964 1.386 . S
C968 C963 1.490 . S
C968 C970 1.395 . S
C968 C971 1.403 . S
H969 C975 0.930 . S
C970 H956 0.930 . S
C970 C968 1.395 . S
C970 C973 1.403 . S
C971 C968 1.403 . S
C971 C972 1.524 1_455 S
C971 C975 1.400 . S
C972 H957 0.983 . S
C972 H958 0.960 . S
C972 H959 0.960 1_655 S
C972 C971 1.524 1_655 S
C973 C970 1.403 . S
C973 C974 1.392 . S
C973 C977 1.495 . S
C974 C973 1.392 . S
C974 C975 1.385 . S
C974 C976 1.478 . S
C975 H969 0.930 . S
C975 C971 1.400 . S
C975 C974 1.385 . S
C976 C974 1.478 . S
C976 C978 1.381 . S
C976 C982 1.383 . S
C977 C973 1.495 . S
C977 H983 0.959 . S
C977 H984 0.961 . S
C977 H985 0.960 . S
C978 C976 1.381 . S
C978 C979 1.394 . S
C978 H986 0.930 . S
C979 C978 1.394 . S
C979 C980 1.383 . S
C979 H987 0.929 . S
C980 C979 1.383 . S
C980 C981 1.377 1_556 S
C981 H965 0.930 . S
C981 C980 1.377 1_554 S
C981 C982 1.379 1_554 S
C982 H966 0.931 1_556 S
C982 C976 1.383 . S
C982 C981 1.379 1_556 S
H983 C977 0.959 . S
H984 C977 0.961 . S
H985 C977 0.960 . S
H986 C978 0.930 . S
H987 C979 0.929 . S
H988 C996 0.929 . S
H989 C998 0.930 . S
H990 C1000 0.930 . S
H991 C1003 0.929 . S
H992 C1006 0.930 . S
H993 C1008 0.960 . S
H994 C1008 0.960 . S
H995 C1008 0.960 . S
C996 H988 0.929 . S
C996 C997 1.377 . S
C996 C998 1.384 . S
C997 C996 1.377 . S
C997 C1003 1.390 . S
C998 H989 0.930 . S
C998 C996 1.384 . S
C998 C999 1.372 . S
C999 C998 1.372 . S
C999 C1000 1.400 . S
C999 C1004 1.490 . S
C1000 H990 0.930 . S
C1000 C999 1.400 . S
C1000 C1003 1.386 . S
H1001 C1017 0.930 . S
H1002 C1018 0.931 . S
C1003 H991 0.929 . S
C1003 C997 1.390 . S
C1003 C1000 1.386 . S
C1004 C999 1.490 . S
C1004 C1006 1.395 . S
C1004 C1007 1.403 . S
H1005 C1011 0.930 . S
C1006 H992 0.930 . S
C1006 C1004 1.395 . S
C1006 C1009 1.403 . S
C1007 C1004 1.403 . S
C1007 C1008 1.524 . S
C1007 C1011 1.400 . S
C1008 H993 0.960 . S
C1008 H994 0.960 . S
C1008 H995 0.960 . S
C1008 C1007 1.524 . S
C1009 C1006 1.403 . S
C1009 C1010 1.392 . S
C1009 C1013 1.495 . S
C1010 C1009 1.392 . S
C1010 C1011 1.385 . S
C1010 C1012 1.478 . S
C1011 H1005 0.930 . S
C1011 C1007 1.400 . S
C1011 C1010 1.385 . S
C1012 C1010 1.478 . S
C1012 C1014 1.381 . S
C1012 C1018 1.383 . S
C1013 C1009 1.495 . S
C1013 H1019 0.959 . S
C1013 H1020 0.961 . S
C1013 H1021 0.960 . S
C1014 C1012 1.381 . S
C1014 C1015 1.394 . S
C1014 H1022 0.930 . S
C1015 C1014 1.394 . S
C1015 C1016 1.383 . S
C1015 H1023 0.929 . S
C1016 C1015 1.383 . S
C1016 C1017 1.377 . S
C1017 H1001 0.930 . S
C1017 C1016 1.377 . S
C1017 C1018 1.379 . S
C1018 H1002 0.931 . S
C1018 C1012 1.383 . S
C1018 C1017 1.379 . S
H1019 C1013 0.959 . S
H1020 C1013 0.961 . S
H1021 C1013 0.960 . S
H1022 C1014 0.930 . S
H1023 C1015 0.929 . S
H1024 C1032 0.929 . S
H1025 C1034 0.930 . S
H1026 C1036 0.930 . S
H1027 C1039 0.929 . S
H1028 C1042 0.930 . S
H1029 C1044 0.960 . S
H1030 C1044 0.960 . S
H1031 C1044 0.960 . S
C1032 H1024 0.929 . S
C1032 C1033 1.377 . S
C1032 C1034 1.384 . S
C1033 C1032 1.377 . S
C1033 C1039 1.390 . S
C1034 H1025 0.930 . S
C1034 C1032 1.384 . S
C1034 C1035 1.372 . S
C1035 C1034 1.372 . S
C1035 C1036 1.400 . S
C1035 C1040 1.490 . S
C1036 H1026 0.930 . S
C1036 C1035 1.400 . S
C1036 C1039 1.386 . S
H1037 C1053 0.930 . S
H1038 C1054 0.931 . S
C1039 H1027 0.929 . S
C1039 C1033 1.390 . S
C1039 C1036 1.386 . S
C1040 C1035 1.490 . S
C1040 C1042 1.395 . S
C1040 C1043 1.403 . S
H1041 C1047 0.930 . S
C1042 H1028 0.930 . S
C1042 C1040 1.395 . S
C1042 C1045 1.403 . S
C1043 C1040 1.403 . S
C1043 C1044 1.524 . S
C1043 C1047 1.400 . S
C1044 H1029 0.960 . S
C1044 H1030 0.960 . S
C1044 H1031 0.960 . S
C1044 C1043 1.524 . S
C1045 C1042 1.403 . S
C1045 C1046 1.392 . S
C1045 C1049 1.495 . S
C1046 C1045 1.392 . S
C1046 C1047 1.385 . S
C1046 C1048 1.478 . S
C1047 H1041 0.930 . S
C1047 C1043 1.400 . S
C1047 C1046 1.385 . S
C1048 C1046 1.478 . S
C1048 C1050 1.381 . S
C1048 C1054 1.383 . S
C1049 C1045 1.495 . S
C1049 H1055 0.959 . S
C1049 H1056 0.961 . S
C1049 H1057 0.960 . S
C1050 C1048 1.381 . S
C1050 C1051 1.394 . S
C1050 H1058 0.930 . S
C1051 C1050 1.394 . S
C1051 C1052 1.383 . S
C1051 H1059 0.929 . S
C1052 C1051 1.383 . S
C1052 C1053 1.377 . S
C1053 H1037 0.930 . S
C1053 C1052 1.377 . S
C1053 C1054 1.379 . S
C1054 H1038 0.931 . S
C1054 C1048 1.383 . S
C1054 C1053 1.379 . S
H1055 C1049 0.959 . S
H1056 C1049 0.961 . S
H1057 C1049 0.960 . S
H1058 C1050 0.930 . S
H1059 C1051 0.929 . S
H1060 C1068 0.929 . S
H1061 C1070 0.930 . S
H1062 C1072 0.930 . S
H1063 C1075 0.929 . S
H1064 C1078 0.930 . S
H1065 C1080 0.960 . S
H1066 C1080 0.960 . S
H1067 C1080 0.960 . S
C1068 H1060 0.929 . S
C1068 C1069 1.377 . S
C1068 C1070 1.384 . S
C1069 C1068 1.377 . S
C1069 C1075 1.390 . S
C1070 H1061 0.930 . S
C1070 C1068 1.384 . S
C1070 C1071 1.372 . S
C1071 C1070 1.372 . S
C1071 C1072 1.400 . S
C1071 C1076 1.490 . S
C1072 H1062 0.930 . S
C1072 C1071 1.400 . S
C1072 C1075 1.386 . S
H1073 C1089 0.930 . S
H1074 C1090 0.931 . S
C1075 H1063 0.929 . S
C1075 C1069 1.390 . S
C1075 C1072 1.386 . S
C1076 C1071 1.490 . S
C1076 C1078 1.395 . S
C1076 C1079 1.403 . S
H1077 C1083 0.930 . S
C1078 H1064 0.930 . S
C1078 C1076 1.395 . S
C1078 C1081 1.403 . S
C1079 C1076 1.403 . S
C1079 C1080 1.524 . S
C1079 C1083 1.400 . S
C1080 H1065 0.960 . S
C1080 H1066 0.960 . S
C1080 H1067 0.960 . S
C1080 C1079 1.524 . S
C1081 C1078 1.403 . S
C1081 C1082 1.392 . S
C1081 C1085 1.495 . S
C1082 C1081 1.392 . S
C1082 C1083 1.385 . S
C1082 C1084 1.478 . S
C1083 H1077 0.930 . S
C1083 C1079 1.400 . S
C1083 C1082 1.385 . S
C1084 C1082 1.478 . S
C1084 C1086 1.381 . S
C1084 C1090 1.383 . S
C1085 C1081 1.495 . S
C1085 H1091 0.959 . S
C1085 H1092 0.961 . S
C1085 H1093 0.960 . S
C1086 C1084 1.381 . S
C1086 C1087 1.394 . S
C1086 H1094 0.930 . S
C1087 C1086 1.394 . S
C1087 C1088 1.383 . S
C1087 H1095 0.929 . S
C1088 C1087 1.383 . S
C1088 C1089 1.377 . S
C1089 H1073 0.930 . S
C1089 C1088 1.377 . S
C1089 C1090 1.379 . S
C1090 H1074 0.931 . S
C1090 C1084 1.383 . S
C1090 C1089 1.379 . S
H1091 C1085 0.959 . S
H1092 C1085 0.961 . S
H1093 C1085 0.960 . S
H1094 C1086 0.930 . S
H1095 C1087 0.929 . S
H1096 C1104 0.929 1_655 S
H1097 C1106 0.930 . S
H1098 C1108 0.930 . S
H1099 C1111 0.929 . S
H1100 C1114 0.930 . S
H1101 C1116 0.960 . S
H1102 C1116 0.960 . S
H1103 C1116 0.947 1_455 S
C1104 H1096 0.929 1_455 S
C1104 C1105 1.377 . S
C1104 C1106 1.384 . S
C1105 C1104 1.377 . S
C1105 C1111 1.390 . S
C1106 H1097 0.930 . S
C1106 C1104 1.384 . S
C1106 C1107 1.372 . S
C1107 C1106 1.372 . S
C1107 C1108 1.400 . S
C1107 C1112 1.490 . S
C1108 H1098 0.930 . S
C1108 C1107 1.400 . S
C1108 C1111 1.386 . S
H1109 C1125 0.930 . S
H1110 C1126 0.931 . S
C1111 H1099 0.929 . S
C1111 C1105 1.390 . S
C1111 C1108 1.386 . S
C1112 C1107 1.490 . S
C1112 C1114 1.395 . S
C1112 C1115 1.403 . S
H1113 C1119 0.930 . S
C1114 H1100 0.930 . S
C1114 C1112 1.395 . S
C1114 C1117 1.403 . S
C1115 C1112 1.403 . S
C1115 C1116 1.524 1_455 S
C1115 C1119 1.400 . S
C1116 H1101 0.960 . S
C1116 H1102 0.960 . S
C1116 H1103 0.947 1_655 S
C1116 C1115 1.524 1_655 S
C1117 C1114 1.403 . S
C1117 C1118 1.392 . S
C1117 C1121 1.495 . S
C1118 C1117 1.392 . S
C1118 C1119 1.385 . S
C1118 C1120 1.478 . S
C1119 H1113 0.930 . S
C1119 C1115 1.400 . S
C1119 C1118 1.385 . S
C1120 C1118 1.478 . S
C1120 C1122 1.381 . S
C1120 C1126 1.383 . S
C1121 C1117 1.495 . S
C1121 H1127 0.959 . S
C1121 H1128 0.961 . S
C1121 H1129 0.960 . S
C1122 C1120 1.381 . S
C1122 C1123 1.394 . S
C1122 H1130 0.930 . S
C1123 C1122 1.394 . S
C1123 C1124 1.383 . S
C1123 H1131 0.929 . S
C1124 C1123 1.383 . S
C1124 C1125 1.377 . S
C1125 H1109 0.930 . S
C1125 C1124 1.377 . S
C1125 C1126 1.379 . S
C1126 H1110 0.931 . S
C1126 C1120 1.383 . S
C1126 C1125 1.379 . S
H1127 C1121 0.959 . S
H1128 C1121 0.961 . S
H1129 C1121 0.960 . S
H1130 C1122 0.930 . S
H1131 C1123 0.929 . S
H1132 C1140 0.929 . S
H1133 C1142 0.930 . S
H1134 C1144 0.930 . S
H1135 C1147 0.929 . S
H1136 C1150 0.930 . S
H1137 C1152 0.960 . S
H1138 C1152 0.960 . S
H1139 C1152 0.960 . S
C1140 H1132 0.929 . S
C1140 C1141 1.377 . S
C1140 C1142 1.384 . S
C1141 C1140 1.377 . S
C1141 C1147 1.390 . S
C1142 H1133 0.930 . S
C1142 C1140 1.384 . S
C1142 C1143 1.372 . S
C1143 C1142 1.372 . S
C1143 C1144 1.400 . S
C1143 C1148 1.490 . S
C1144 H1134 0.930 . S
C1144 C1143 1.400 . S
C1144 C1147 1.386 . S
H1145 C1161 0.930 . S
H1146 C1162 0.931 . S
C1147 H1135 0.929 . S
C1147 C1141 1.390 . S
C1147 C1144 1.386 . S
C1148 C1143 1.490 . S
C1148 C1150 1.395 . S
C1148 C1151 1.403 . S
H1149 C1155 0.930 . S
C1150 H1136 0.930 . S
C1150 C1148 1.395 . S
C1150 C1153 1.403 . S
C1151 C1148 1.403 . S
C1151 C1152 1.524 . S
C1151 C1155 1.400 . S
C1152 H1137 0.960 . S
C1152 H1138 0.960 . S
C1152 H1139 0.960 . S
C1152 C1151 1.524 . S
C1153 C1150 1.403 . S
C1153 C1154 1.392 . S
C1153 C1157 1.495 . S
C1154 C1153 1.392 . S
C1154 C1155 1.385 . S
C1154 C1156 1.478 . S
C1155 H1149 0.930 . S
C1155 C1151 1.400 . S
C1155 C1154 1.385 . S
C1156 C1154 1.478 . S
C1156 C1158 1.381 . S
C1156 C1162 1.383 . S
C1157 C1153 1.495 . S
C1157 H1163 0.959 . S
C1157 H1164 0.961 . S
C1157 H1165 0.960 . S
C1158 C1156 1.381 . S
C1158 C1159 1.394 . S
C1158 H1166 0.930 . S
C1159 C1158 1.394 . S
C1159 C1160 1.383 . S
C1159 H1167 0.929 . S
C1160 C1159 1.383 . S
C1160 C1161 1.377 . S
C1161 H1145 0.930 . S
C1161 C1160 1.377 . S
C1161 C1162 1.379 . S
C1162 H1146 0.931 . S
C1162 C1156 1.383 . S
C1162 C1161 1.379 . S
H1163 C1157 0.959 . S
H1164 C1157 0.961 . S
H1165 C1157 0.960 . S
H1166 C1158 0.930 . S
H1167 C1159 0.929 . S
H1168 C1176 0.929 . S
H1169 C1178 0.930 . S
H1170 C1180 0.930 . S
H1171 C1183 0.929 . S
H1172 C1186 0.930 . S
H1173 C1188 0.960 . S
H1174 C1188 0.960 . S
H1175 C1188 0.960 . S
C1176 H1168 0.929 . S
C1176 C1177 1.377 . S
C1176 C1178 1.384 . S
C1177 C1176 1.377 . S
C1177 C1183 1.390 . S
C1178 H1169 0.930 . S
C1178 C1176 1.384 . S
C1178 C1179 1.372 . S
C1179 C1178 1.372 . S
C1179 C1180 1.400 . S
C1179 C1184 1.490 . S
C1180 H1170 0.930 . S
C1180 C1179 1.400 . S
C1180 C1183 1.386 . S
H1181 C1197 0.930 . S
H1182 C1198 0.931 . S
C1183 H1171 0.929 . S
C1183 C1177 1.390 . S
C1183 C1180 1.386 . S
C1184 C1179 1.490 . S
C1184 C1186 1.395 . S
C1184 C1187 1.403 . S
H1185 C1191 0.930 . S
C1186 H1172 0.930 . S
C1186 C1184 1.395 . S
C1186 C1189 1.403 . S
C1187 C1184 1.403 . S
C1187 C1188 1.524 . S
C1187 C1191 1.400 . S
C1188 H1173 0.960 . S
C1188 H1174 0.960 . S
C1188 H1175 0.960 . S
C1188 C1187 1.524 . S
C1189 C1186 1.403 . S
C1189 C1190 1.392 . S
C1189 C1193 1.495 . S
C1190 C1189 1.392 . S
C1190 C1191 1.385 . S
C1190 C1192 1.478 . S
C1191 H1185 0.930 . S
C1191 C1187 1.400 . S
C1191 C1190 1.385 . S
C1192 C1190 1.478 . S
C1192 C1194 1.381 . S
C1192 C1198 1.383 . S
C1193 C1189 1.495 . S
C1193 H1199 0.959 . S
C1193 H1200 0.961 . S
C1193 H1201 0.960 . S
C1194 C1192 1.381 . S
C1194 C1195 1.394 . S
C1194 H1202 0.930 . S
C1195 C1194 1.394 . S
C1195 C1196 1.383 . S
C1195 H1203 0.929 . S
C1196 C1195 1.383 . S
C1196 C1197 1.377 . S
C1197 H1181 0.930 . S
C1197 C1196 1.377 . S
C1197 C1198 1.379 . S
C1198 H1182 0.931 . S
C1198 C1192 1.383 . S
C1198 C1197 1.379 . S
H1199 C1193 0.959 . S
H1200 C1193 0.961 . S
H1201 C1193 0.960 . S
H1202 C1194 0.930 . S
H1203 C1195 0.929 . S
H1204 C1212 0.929 . S
H1205 C1214 0.930 . S
H1206 C1216 0.930 . S
H1207 C1219 0.929 . S
H1208 C1222 0.930 . S
H1209 C1224 0.960 . S
H1210 C1224 0.960 . S
H1211 C1224 0.960 . S
C1212 H1204 0.929 . S
C1212 C1213 1.377 . S
C1212 C1214 1.384 . S
C1213 C1212 1.377 . S
C1213 C1219 1.390 . S
C1214 H1205 0.930 . S
C1214 C1212 1.384 . S
C1214 C1215 1.372 . S
C1215 C1214 1.372 . S
C1215 C1216 1.400 . S
C1215 C1220 1.490 . S
C1216 H1206 0.930 . S
C1216 C1215 1.400 . S
C1216 C1219 1.386 . S
H1217 C1233 0.930 . S
H1218 C1234 0.931 . S
C1219 H1207 0.929 . S
C1219 C1213 1.390 . S
C1219 C1216 1.386 . S
C1220 C1215 1.490 . S
C1220 C1222 1.395 . S
C1220 C1223 1.403 . S
H1221 C1227 0.930 . S
C1222 H1208 0.930 . S
C1222 C1220 1.395 . S
C1222 C1225 1.403 . S
C1223 C1220 1.403 . S
C1223 C1224 1.524 . S
C1223 C1227 1.400 . S
C1224 H1209 0.960 . S
C1224 H1210 0.960 . S
C1224 H1211 0.960 . S
C1224 C1223 1.524 . S
C1225 C1222 1.403 . S
C1225 C1226 1.392 . S
C1225 C1229 1.495 . S
C1226 C1225 1.392 . S
C1226 C1227 1.385 . S
C1226 C1228 1.478 . S
C1227 H1221 0.930 . S
C1227 C1223 1.400 . S
C1227 C1226 1.385 . S
C1228 C1226 1.478 . S
C1228 C1230 1.381 . S
C1228 C1234 1.383 . S
C1229 C1225 1.495 . S
C1229 H1235 0.959 . S
C1229 H1236 0.961 . S
C1229 H1237 0.960 . S
C1230 C1228 1.381 . S
C1230 C1231 1.394 . S
C1230 H1238 0.930 . S
C1231 C1230 1.394 . S
C1231 C1232 1.383 . S
C1231 H1239 0.929 . S
C1232 C1231 1.383 . S
C1232 C1233 1.377 . S
C1233 H1217 0.930 . S
C1233 C1232 1.377 . S
C1233 C1234 1.379 . S
C1234 H1218 0.931 . S
C1234 C1228 1.383 . S
C1234 C1233 1.379 . S
H1235 C1229 0.959 . S
H1236 C1229 0.961 . S
H1237 C1229 0.960 . S
H1238 C1230 0.930 . S
H1239 C1231 0.929 . S
H1240 C1248 0.929 . S
H1241 C1250 0.930 . S
H1242 C1252 0.930 . S
H1243 C1255 0.929 . S
H1244 C1258 0.930 . S
H1245 C1260 0.960 . S
H1246 C1260 0.960 . S
H1247 C1260 0.960 . S
C1248 H1240 0.929 . S
C1248 C1249 1.377 . S
C1248 C1250 1.384 . S
C1249 C1248 1.377 . S
C1249 C1255 1.390 . S
C1250 H1241 0.930 . S
C1250 C1248 1.384 . S
C1250 C1251 1.372 . S
C1251 C1250 1.372 . S
C1251 C1252 1.400 . S
C1251 C1256 1.490 . S
C1252 H1242 0.930 . S
C1252 C1251 1.400 . S
C1252 C1255 1.386 . S
H1253 C1269 0.930 . S
H1254 C1270 0.931 . S
C1255 H1243 0.929 . S
C1255 C1249 1.390 . S
C1255 C1252 1.386 . S
C1256 C1251 1.490 . S
C1256 C1258 1.395 . S
C1256 C1259 1.403 . S
H1257 C1263 0.930 . S
C1258 H1244 0.930 . S
C1258 C1256 1.395 . S
C1258 C1261 1.403 . S
C1259 C1256 1.403 . S
C1259 C1260 1.524 1_655 S
C1259 C1263 1.400 1_655 S
C1260 H1245 0.960 . S
C1260 H1246 0.960 . S
C1260 H1247 0.960 . S
C1260 C1259 1.524 1_455 S
C1261 C1258 1.403 . S
C1261 C1262 1.392 . S
C1261 C1265 1.495 . S
C1262 C1261 1.392 . S
C1262 C1263 1.385 1_655 S
C1262 C1264 1.502 . S
C1263 H1257 0.930 . S
C1263 C1259 1.400 1_455 S
C1263 C1262 1.385 1_455 S
C1264 C1262 1.502 . S
C1264 C1266 1.360 1_655 S
C1264 C1270 1.372 1_655 S
C1265 C1261 1.495 . S
C1265 H1271 0.959 . S
C1265 H1272 0.961 . S
C1265 H1273 0.960 . S
C1266 C1264 1.360 1_455 S
C1266 C1267 1.407 . S
C1266 H1274 0.925 1_455 S
C1267 C1266 1.407 . S
C1267 C1268 1.383 . S
C1267 H1275 0.929 . S
C1268 C1267 1.383 . S
C1268 C1269 1.377 . S
C1269 H1253 0.930 . S
C1269 C1268 1.377 . S
C1269 C1270 1.379 . S
C1270 H1254 0.931 . S
C1270 C1264 1.372 1_455 S
C1270 C1269 1.379 . S
H1271 C1265 0.959 . S
H1272 C1265 0.961 . S
H1273 C1265 0.960 . S
H1274 C1266 0.925 1_655 S
H1275 C1267 0.929 . S
H1276 C1284 0.929 . S
H1277 C1286 0.930 . S
H1278 C1288 0.930 . S
H1279 C1291 0.929 . S
H1280 C1294 0.930 . S
H1281 C1296 0.960 . S
H1282 C1296 0.960 . S
H1283 C1296 0.960 . S
C1284 H1276 0.929 . S
C1284 C1285 1.377 . S
C1284 C1286 1.384 . S
C1285 C1284 1.377 . S
C1285 C1291 1.390 . S
C1286 H1277 0.930 . S
C1286 C1284 1.384 . S
C1286 C1287 1.372 . S
C1287 C1286 1.372 . S
C1287 C1288 1.400 . S
C1287 C1292 1.490 . S
C1288 H1278 0.930 . S
C1288 C1287 1.400 . S
C1288 C1291 1.386 . S
H1289 C1305 0.930 . S
H1290 C1306 0.931 . S
C1291 H1279 0.929 . S
C1291 C1285 1.390 . S
C1291 C1288 1.386 . S
C1292 C1287 1.490 . S
C1292 C1294 1.395 . S
C1292 C1295 1.403 . S
H1293 C1299 0.930 . S
C1294 H1280 0.930 . S
C1294 C1292 1.395 . S
C1294 C1297 1.403 . S
C1295 C1292 1.403 . S
C1295 C1296 1.524 . S
C1295 C1299 1.400 . S
C1296 H1281 0.960 . S
C1296 H1282 0.960 . S
C1296 H1283 0.960 . S
C1296 C1295 1.524 . S
C1297 C1294 1.403 . S
C1297 C1298 1.392 . S
C1297 C1301 1.495 . S
C1298 C1297 1.392 . S
C1298 C1299 1.385 . S
C1298 C1300 1.478 . S
C1299 H1293 0.930 . S
C1299 C1295 1.400 . S
C1299 C1298 1.385 . S
C1300 C1298 1.478 . S
C1300 C1302 1.381 . S
C1300 C1306 1.383 . S
C1301 C1297 1.495 . S
C1301 H1307 0.959 . S
C1301 H1308 0.961 . S
C1301 H1309 0.960 . S
C1302 C1300 1.381 . S
C1302 C1303 1.394 . S
C1302 H1310 0.930 . S
C1303 C1302 1.394 . S
C1303 C1304 1.383 . S
C1303 H1311 0.929 . S
C1304 C1303 1.383 . S
C1304 C1305 1.377 . S
C1305 H1289 0.930 . S
C1305 C1304 1.377 . S
C1305 C1306 1.379 . S
C1306 H1290 0.931 . S
C1306 C1300 1.383 . S
C1306 C1305 1.379 . S
H1307 C1301 0.959 . S
H1308 C1301 0.961 . S
H1309 C1301 0.960 . S
H1310 C1302 0.930 . S
H1311 C1303 0.929 . S
H1312 C1320 0.929 . S
H1313 C1322 0.930 . S
H1314 C1324 0.930 . S
H1315 C1327 0.929 . S
H1316 C1330 0.930 . S
H1317 C1332 0.960 . S
H1318 C1332 0.960 . S
H1319 C1332 0.960 . S
C1320 H1312 0.929 . S
C1320 C1321 1.377 . S
C1320 C1322 1.384 . S
C1321 C1320 1.377 . S
C1321 C1327 1.390 . S
C1322 H1313 0.930 . S
C1322 C1320 1.384 . S
C1322 C1323 1.372 . S
C1323 C1322 1.372 . S
C1323 C1324 1.400 . S
C1323 C1328 1.490 . S
C1324 H1314 0.930 . S
C1324 C1323 1.400 . S
C1324 C1327 1.386 . S
H1325 C1341 0.930 . S
H1326 C1342 0.931 . S
C1327 H1315 0.929 . S
C1327 C1321 1.390 . S
C1327 C1324 1.386 . S
C1328 C1323 1.490 . S
C1328 C1330 1.395 . S
C1328 C1331 1.403 . S
H1329 C1335 0.930 . S
C1330 H1316 0.930 . S
C1330 C1328 1.395 . S
C1330 C1333 1.403 . S
C1331 C1328 1.403 . S
C1331 C1332 1.524 . S
C1331 C1335 1.400 . S
C1332 H1317 0.960 . S
C1332 H1318 0.960 . S
C1332 H1319 0.960 . S
C1332 C1331 1.524 . S
C1333 C1330 1.403 . S
C1333 C1334 1.392 . S
C1333 C1337 1.495 . S
C1334 C1333 1.392 . S
C1334 C1335 1.385 . S
C1334 C1336 1.478 . S
C1335 H1329 0.930 . S
C1335 C1331 1.400 . S
C1335 C1334 1.385 . S
C1336 C1334 1.478 . S
C1336 C1338 1.381 . S
C1336 C1342 1.383 . S
C1337 C1333 1.495 . S
C1337 H1343 0.959 . S
C1337 H1344 0.961 . S
C1337 H1345 0.960 . S
C1338 C1336 1.381 . S
C1338 C1339 1.394 . S
C1338 H1346 0.930 . S
C1339 C1338 1.394 . S
C1339 C1340 1.383 . S
C1339 H1347 0.929 . S
C1340 C1339 1.383 . S
C1340 C1341 1.377 . S
C1341 H1325 0.930 . S
C1341 C1340 1.377 . S
C1341 C1342 1.379 . S
C1342 H1326 0.931 . S
C1342 C1336 1.383 . S
C1342 C1341 1.379 . S
H1343 C1337 0.959 . S
H1344 C1337 0.961 . S
H1345 C1337 0.960 . S
H1346 C1338 0.930 . S
H1347 C1339 0.929 . S
H1348 C1356 0.929 . S
H1349 C1358 0.930 . S
H1350 C1360 0.930 . S
H1351 C1363 0.929 . S
H1352 C1366 0.930 . S
H1353 C1368 0.960 . S
H1354 C1368 0.960 . S
H1355 C1368 0.960 . S
C1356 H1348 0.929 . S
C1356 C1357 1.377 . S
C1356 C1358 1.384 . S
C1357 C1356 1.377 . S
C1357 C1363 1.390 . S
C1358 H1349 0.930 . S
C1358 C1356 1.384 . S
C1358 C1359 1.372 . S
C1359 C1358 1.372 . S
C1359 C1360 1.400 . S
C1359 C1364 1.490 . S
C1360 H1350 0.930 . S
C1360 C1359 1.400 . S
C1360 C1363 1.386 . S
H1361 C1377 0.930 . S
H1362 C1378 0.931 . S
C1363 H1351 0.929 . S
C1363 C1357 1.390 . S
C1363 C1360 1.386 . S
C1364 C1359 1.490 . S
C1364 C1366 1.395 . S
C1364 C1367 1.403 . S
H1365 C1371 0.930 . S
C1366 H1352 0.930 . S
C1366 C1364 1.395 . S
C1366 C1369 1.403 . S
C1367 C1364 1.403 . S
C1367 C1368 1.524 . S
C1367 C1371 1.400 . S
C1368 H1353 0.960 . S
C1368 H1354 0.960 . S
C1368 H1355 0.960 . S
C1368 C1367 1.524 . S
C1369 C1366 1.403 . S
C1369 C1370 1.392 . S
C1369 C1373 1.495 . S
C1370 C1369 1.392 . S
C1370 C1371 1.385 . S
C1370 C1372 1.478 . S
C1371 H1365 0.930 . S
C1371 C1367 1.400 . S
C1371 C1370 1.385 . S
C1372 C1370 1.478 . S
C1372 C1374 1.381 . S
C1372 C1378 1.383 . S
C1373 C1369 1.495 . S
C1373 H1379 0.959 . S
C1373 H1380 0.961 . S
C1373 H1381 0.960 . S
C1374 C1372 1.381 . S
C1374 C1375 1.394 . S
C1374 H1382 0.930 . S
C1375 C1374 1.394 . S
C1375 C1376 1.383 . S
C1375 H1383 0.929 . S
C1376 C1375 1.383 . S
C1376 C1377 1.377 . S
C1377 H1361 0.930 . S
C1377 C1376 1.377 . S
C1377 C1378 1.379 . S
C1378 H1362 0.931 . S
C1378 C1372 1.383 . S
C1378 C1377 1.379 . S
H1379 C1373 0.959 . S
H1380 C1373 0.961 . S
H1381 C1373 0.960 . S
H1382 C1374 0.930 . S
H1383 C1375 0.929 . S
H1384 C1392 0.929 . S
H1385 C1394 0.930 . S
H1386 C1396 0.930 . S
H1387 C1399 0.929 . S
H1388 C1402 0.930 . S
H1389 C1404 0.960 . S
H1390 C1404 0.960 . S
H1391 C1404 0.960 . S
C1392 H1384 0.929 . S
C1392 C1393 1.377 . S
C1392 C1394 1.384 . S
C1393 C1392 1.377 . S
C1393 C1399 1.390 . S
C1394 H1385 0.930 . S
C1394 C1392 1.384 . S
C1394 C1395 1.372 . S
C1395 C1394 1.372 . S
C1395 C1396 1.400 . S
C1395 C1400 1.490 . S
C1396 H1386 0.930 . S
C1396 C1395 1.400 . S
C1396 C1399 1.386 . S
H1397 C1413 0.894 1_655 S
H1398 C1414 0.931 . S
C1399 H1387 0.929 . S
C1399 C1393 1.390 . S
C1399 C1396 1.386 . S
C1400 C1395 1.490 . S
C1400 C1402 1.395 . S
C1400 C1403 1.403 . S
H1401 C1407 0.930 . S
C1402 H1388 0.930 . S
C1402 C1400 1.395 . S
C1402 C1405 1.414 . S
C1403 C1400 1.403 . S
C1403 C1404 1.524 . S
C1403 C1407 1.400 . S
C1404 H1389 0.960 . S
C1404 H1390 0.960 . S
C1404 H1391 0.960 . S
C1404 C1403 1.524 . S
C1405 C1402 1.414 . S
C1405 C1406 1.391 . S
C1405 C1409 1.488 1_655 S
C1406 C1405 1.391 . S
C1406 C1407 1.385 . S
C1406 C1408 1.478 1_655 S
C1407 H1401 0.930 . S
C1407 C1403 1.400 . S
C1407 C1406 1.385 . S
C1408 C1406 1.478 1_455 S
C1408 C1410 1.381 . S
C1408 C1414 1.383 1_455 S
C1409 C1405 1.488 1_455 S
C1409 H1415 0.959 . S
C1409 H1416 0.961 . S
C1409 H1417 0.960 . S
C1410 C1408 1.381 . S
C1410 C1411 1.394 . S
C1410 H1418 0.930 . S
C1411 C1410 1.394 . S
C1411 C1412 1.383 . S
C1411 H1419 0.929 . S
C1412 C1411 1.383 . S
C1412 C1413 1.436 . S
C1413 H1397 0.894 1_455 S
C1413 C1412 1.436 . S
C1413 C1414 1.358 1_455 S
C1414 H1398 0.931 . S
C1414 C1408 1.383 1_655 S
C1414 C1413 1.358 1_655 S
H1415 C1409 0.959 . S
H1416 C1409 0.961 . S
H1417 C1409 0.960 . S
H1418 C1410 0.930 . S
H1419 C1411 0.929 . S
H1420 C1428 0.929 . S
H1421 C1430 0.930 . S
H1422 C1432 0.930 . S
H1423 C1435 0.929 . S
H1424 C1438 0.930 . S
H1425 C1440 0.960 . S
H1426 C1440 0.960 . S
H1427 C1440 0.960 . S
C1428 H1420 0.929 . S
C1428 C1429 1.377 . S
C1428 C1430 1.384 . S
C1429 C1428 1.377 . S
C1429 C1435 1.390 . S
C1430 H1421 0.930 . S
C1430 C1428 1.384 . S
C1430 C1431 1.372 . S
C1431 C1430 1.372 . S
C1431 C1432 1.400 . S
C1431 C1436 1.490 . S
C1432 H1422 0.930 . S
C1432 C1431 1.400 . S
C1432 C1435 1.386 . S
H1433 C1449 0.930 . S
H1434 C1450 0.931 . S
C1435 H1423 0.929 . S
C1435 C1429 1.390 . S
C1435 C1432 1.386 . S
C1436 C1431 1.490 . S
C1436 C1438 1.395 . S
C1436 C1439 1.403 . S
H1437 C1443 0.930 . S
C1438 H1424 0.930 . S
C1438 C1436 1.395 . S
C1438 C1441 1.403 . S
C1439 C1436 1.403 . S
C1439 C1440 1.524 . S
C1439 C1443 1.400 . S
C1440 H1425 0.960 . S
C1440 H1426 0.960 . S
C1440 H1427 0.960 . S
C1440 C1439 1.524 . S
C1441 C1438 1.403 . S
C1441 C1442 1.392 . S
C1441 C1445 1.495 . S
C1442 C1441 1.392 . S
C1442 C1443 1.385 . S
C1442 C1444 1.478 . S
C1443 H1437 0.930 . S
C1443 C1439 1.400 . S
C1443 C1442 1.385 . S
C1444 C1442 1.478 . S
C1444 C1446 1.381 . S
C1444 C1450 1.383 . S
C1445 C1441 1.495 . S
C1445 H1451 0.959 . S
C1445 H1452 0.961 . S
C1445 H1453 0.960 . S
C1446 C1444 1.381 . S
C1446 C1447 1.394 . S
C1446 H1454 0.930 . S
C1447 C1446 1.394 . S
C1447 C1448 1.383 . S
C1447 H1455 0.929 . S
C1448 C1447 1.383 . S
C1448 C1449 1.377 . S
C1449 H1433 0.930 . S
C1449 C1448 1.377 . S
C1449 C1450 1.379 . S
C1450 H1434 0.931 . S
C1450 C1444 1.383 . S
C1450 C1449 1.379 . S
H1451 C1445 0.959 . S
H1452 C1445 0.961 . S
H1453 C1445 0.960 . S
H1454 C1446 0.930 . S
H1455 C1447 0.929 . S
H1456 C1464 0.929 . S
H1457 C1466 0.930 . S
H1458 C1468 0.930 . S
H1459 C1471 0.929 . S
H1460 C1474 0.930 . S
H1461 C1476 0.960 . S
H1462 C1476 0.960 . S
H1463 C1476 0.960 . S
C1464 H1456 0.929 . S
C1464 C1465 1.377 . S
C1464 C1466 1.384 . S
C1465 C1464 1.377 . S
C1465 C1471 1.390 . S
C1466 H1457 0.930 . S
C1466 C1464 1.384 . S
C1466 C1467 1.372 . S
C1467 C1466 1.372 . S
C1467 C1468 1.400 . S
C1467 C1472 1.490 . S
C1468 H1458 0.930 . S
C1468 C1467 1.400 . S
C1468 C1471 1.386 . S
H1469 C1485 0.930 . S
H1470 C1486 0.931 . S
C1471 H1459 0.929 . S
C1471 C1465 1.390 . S
C1471 C1468 1.386 . S
C1472 C1467 1.490 . S
C1472 C1474 1.395 . S
C1472 C1475 1.403 . S
H1473 C1479 0.930 . S
C1474 H1460 0.930 . S
C1474 C1472 1.395 . S
C1474 C1477 1.403 . S
C1475 C1472 1.403 . S
C1475 C1476 1.524 . S
C1475 C1479 1.400 . S
C1476 H1461 0.960 . S
C1476 H1462 0.960 . S
C1476 H1463 0.960 . S
C1476 C1475 1.524 . S
C1477 C1474 1.403 . S
C1477 C1478 1.392 . S
C1477 C1481 1.495 . S
C1478 C1477 1.392 . S
C1478 C1479 1.385 . S
C1478 C1480 1.478 . S
C1479 H1473 0.930 . S
C1479 C1475 1.400 . S
C1479 C1478 1.385 . S
C1480 C1478 1.478 . S
C1480 C1482 1.381 . S
C1480 C1486 1.383 . S
C1481 C1477 1.495 . S
C1481 H1487 0.959 . S
C1481 H1488 0.961 . S
C1481 H1489 0.960 . S
C1482 C1480 1.381 . S
C1482 C1483 1.394 . S
C1482 H1490 0.930 . S
C1483 C1482 1.394 . S
C1483 C1484 1.383 . S
C1483 H1491 0.929 . S
C1484 C1483 1.383 . S
C1484 C1485 1.377 . S
C1485 H1469 0.930 . S
C1485 C1484 1.377 . S
C1485 C1486 1.379 . S
C1486 H1470 0.931 . S
C1486 C1480 1.383 . S
C1486 C1485 1.379 . S
H1487 C1481 0.959 . S
H1488 C1481 0.961 . S
H1489 C1481 0.960 . S
H1490 C1482 0.930 . S
H1491 C1483 0.929 . S
H1492 C1500 0.929 . S
H1493 C1502 0.930 . S
H1494 C1504 0.930 . S
H1495 C1507 0.929 . S
H1496 C1510 0.930 . S
H1497 C1512 0.960 . S
H1498 C1512 0.960 . S
H1499 C1512 0.960 . S
C1500 H1492 0.929 . S
C1500 C1501 1.377 . S
C1500 C1502 1.384 . S
C1501 C1500 1.377 . S
C1501 C1507 1.390 . S
C1502 H1493 0.930 . S
C1502 C1500 1.384 . S
C1502 C1503 1.372 . S
C1503 C1502 1.372 . S
C1503 C1504 1.400 . S
C1503 C1508 1.490 . S
C1504 H1494 0.930 . S
C1504 C1503 1.400 . S
C1504 C1507 1.386 . S
H1505 C1521 0.930 . S
H1506 C1522 0.931 . S
C1507 H1495 0.929 . S
C1507 C1501 1.390 . S
C1507 C1504 1.386 . S
C1508 C1503 1.490 . S
C1508 C1510 1.395 . S
C1508 C1511 1.403 . S
H1509 C1515 0.930 . S
C1510 H1496 0.930 . S
C1510 C1508 1.395 . S
C1510 C1513 1.403 . S
C1511 C1508 1.403 . S
C1511 C1512 1.524 . S
C1511 C1515 1.400 . S
C1512 H1497 0.960 . S
C1512 H1498 0.960 . S
C1512 H1499 0.960 . S
C1512 C1511 1.524 . S
C1513 C1510 1.403 . S
C1513 C1514 1.392 . S
C1513 C1517 1.495 . S
C1514 C1513 1.392 . S
C1514 C1515 1.385 . S
C1514 C1516 1.478 . S
C1515 H1509 0.930 . S
C1515 C1511 1.400 . S
C1515 C1514 1.385 . S
C1516 C1514 1.478 . S
C1516 C1518 1.381 . S
C1516 C1522 1.383 . S
C1517 C1513 1.495 . S
C1517 H1523 0.959 . S
C1517 H1524 0.961 . S
C1517 H1525 0.960 . S
C1518 C1516 1.381 . S
C1518 C1519 1.394 . S
C1518 H1526 0.930 . S
C1519 C1518 1.394 . S
C1519 C1520 1.383 . S
C1519 H1527 0.929 . S
C1520 C1519 1.383 . S
C1520 C1521 1.377 . S
C1521 H1505 0.930 . S
C1521 C1520 1.377 . S
C1521 C1522 1.379 . S
C1522 H1506 0.931 . S
C1522 C1516 1.383 . S
C1522 C1521 1.379 . S
H1523 C1517 0.959 . S
H1524 C1517 0.961 . S
H1525 C1517 0.960 . S
H1526 C1518 0.930 . S
H1527 C1519 0.929 . S
H1528 C1536 0.929 . S
H1529 C1538 0.930 . S
H1530 C1540 0.945 . S
H1531 C1543 0.929 1_556 S
H1532 C1546 0.930 . S
H1533 C1548 0.960 . S
H1534 C1548 0.960 . S
H1535 C1548 0.960 . S
C1536 H1528 0.929 . S
C1536 C1537 1.377 . S
C1536 C1538 1.384 . S
C1537 C1536 1.377 . S
C1537 C1543 1.390 . S
C1538 H1529 0.930 . S
C1538 C1536 1.384 . S
C1538 C1539 1.372 . S
C1539 C1538 1.372 . S
C1539 C1540 1.400 . S
C1539 C1544 1.490 . S
C1540 H1530 0.945 . S
C1540 C1539 1.400 . S
C1540 C1543 1.386 . S
H1541 C1557 0.930 . S
H1542 C1558 0.931 . S
C1543 H1531 0.929 1_554 S
C1543 C1537 1.390 . S
C1543 C1540 1.386 . S
C1544 C1539 1.490 . S
C1544 C1546 1.395 . S
C1544 C1547 1.403 . S
H1545 C1551 0.930 . S
C1546 H1532 0.930 . S
C1546 C1544 1.395 . S
C1546 C1549 1.403 . S
C1547 C1544 1.403 . S
C1547 C1548 1.524 . S
C1547 C1551 1.400 . S
C1548 H1533 0.960 . S
C1548 H1534 0.960 . S
C1548 H1535 0.960 . S
C1548 C1547 1.524 . S
C1549 C1546 1.403 . S
C1549 C1550 1.392 . S
C1549 C1553 1.495 1_565 S
C1550 C1549 1.392 . S
C1550 C1551 1.385 . S
C1550 C1552 1.478 . S
C1551 H1545 0.930 . S
C1551 C1547 1.400 . S
C1551 C1550 1.385 . S
C1552 C1550 1.478 . S
C1552 C1554 1.386 . S
C1552 C1558 1.383 . S
C1553 C1549 1.495 1_545 S
C1553 H1559 0.959 . S
C1553 H1560 0.961 . S
C1553 H1561 0.960 . S
C1554 C1552 1.386 . S
C1554 C1555 1.391 1_565 S
C1554 H1562 0.928 1_565 S
C1555 C1554 1.391 1_545 S
C1555 C1556 1.383 1_545 S
C1555 H1563 0.929 . S
C1556 C1555 1.383 1_565 S
C1556 C1557 1.377 . S
C1557 H1541 0.930 . S
C1557 C1556 1.377 . S
C1557 C1558 1.379 . S
C1558 H1542 0.931 . S
C1558 C1552 1.383 . S
C1558 C1557 1.379 . S
H1559 C1553 0.959 . S
H1560 C1553 0.961 . S
H1561 C1553 0.960 . S
H1562 C1554 0.928 1_545 S
H1563 C1555 0.929 . S
H1564 C1572 0.929 . S
H1565 C1574 0.930 . S
H1566 C1576 0.930 . S
H1567 C1579 0.929 . S
H1568 C1582 0.930 . S
H1569 C1584 0.960 . S
H1570 C1584 0.960 1_554 S
H1571 C1584 0.960 . S
C1572 H1564 0.929 . S
C1572 C1573 1.377 . S
C1572 C1574 1.384 . S
C1573 C1572 1.377 . S
C1573 C1579 1.390 1_554 S
C1574 H1565 0.930 . S
C1574 C1572 1.384 . S
C1574 C1575 1.372 . S
C1575 C1574 1.372 . S
C1575 C1576 1.400 1_554 S
C1575 C1580 1.490 . S
C1576 H1566 0.930 . S
C1576 C1575 1.400 1_556 S
C1576 C1579 1.386 . S
H1577 C1593 0.930 . S
H1578 C1594 0.931 . S
C1579 H1567 0.929 . S
C1579 C1573 1.390 1_556 S
C1579 C1576 1.386 . S
C1580 C1575 1.490 . S
C1580 C1582 1.395 . S
C1580 C1583 1.400 1_554 S
H1581 C1587 0.927 1_556 S
C1582 H1568 0.930 . S
C1582 C1580 1.395 . S
C1582 C1585 1.403 . S
C1583 C1580 1.400 1_556 S
C1583 C1584 1.530 . S
C1583 C1587 1.391 1_556 S
C1584 H1569 0.960 . S
C1584 H1570 0.960 1_556 S
C1584 H1571 0.960 . S
C1584 C1583 1.530 . S
C1585 C1582 1.403 . S
C1585 C1586 1.392 . S
C1585 C1589 1.495 . S
C1586 C1585 1.392 . S
C1586 C1587 1.394 . S
C1586 C1588 1.478 . S
C1587 H1581 0.927 1_554 S
C1587 C1583 1.391 1_554 S
C1587 C1586 1.394 . S
C1588 C1586 1.478 . S
C1588 C1590 1.381 . S
C1588 C1594 1.383 1_554 S
C1589 C1585 1.495 . S
C1589 H1595 0.959 . S
C1589 H1596 0.961 . S
C1589 H1597 0.960 . S
C1590 C1588 1.381 . S
C1590 C1591 1.394 . S
C1590 H1598 0.930 . S
C1591 C1590 1.394 . S
C1591 C1592 1.383 . S
C1591 H1599 0.929 . S
C1592 C1591 1.383 . S
C1592 C1593 1.377 1_554 S
C1593 H1577 0.930 . S
C1593 C1592 1.377 1_556 S
C1593 C1594 1.379 . S
C1594 H1578 0.931 . S
C1594 C1588 1.383 1_556 S
C1594 C1593 1.379 . S
H1595 C1589 0.959 . S
H1596 C1589 0.961 . S
H1597 C1589 0.960 . S
H1598 C1590 0.930 . S
H1599 C1591 0.929 . S
H1600 C1608 0.929 . S
H1601 C1610 0.930 . S
H1602 C1612 0.930 . S
H1603 C1615 0.929 . S
H1604 C1618 0.930 . S
H1605 C1620 0.960 . S
H1606 C1620 0.960 . S
H1607 C1620 0.960 . S
C1608 H1600 0.929 . S
C1608 C1609 1.377 . S
C1608 C1610 1.384 . S
C1609 C1608 1.377 . S
C1609 C1615 1.390 . S
C1610 H1601 0.930 . S
C1610 C1608 1.384 . S
C1610 C1611 1.372 . S
C1611 C1610 1.372 . S
C1611 C1612 1.400 . S
C1611 C1616 1.490 . S
C1612 H1602 0.930 . S
C1612 C1611 1.400 . S
C1612 C1615 1.386 . S
H1613 C1629 0.930 . S
H1614 C1630 0.931 . S
C1615 H1603 0.929 . S
C1615 C1609 1.390 . S
C1615 C1612 1.386 . S
C1616 C1611 1.490 . S
C1616 C1618 1.395 . S
C1616 C1619 1.403 . S
H1617 C1623 0.930 . S
C1618 H1604 0.930 . S
C1618 C1616 1.395 . S
C1618 C1621 1.403 . S
C1619 C1616 1.403 . S
C1619 C1620 1.524 . S
C1619 C1623 1.400 . S
C1620 H1605 0.960 . S
C1620 H1606 0.960 . S
C1620 H1607 0.960 . S
C1620 C1619 1.524 . S
C1621 C1618 1.403 . S
C1621 C1622 1.392 . S
C1621 C1625 1.495 . S
C1622 C1621 1.392 . S
C1622 C1623 1.385 . S
C1622 C1624 1.478 . S
C1623 H1617 0.930 . S
C1623 C1619 1.400 . S
C1623 C1622 1.385 . S
C1624 C1622 1.478 . S
C1624 C1626 1.381 . S
C1624 C1630 1.383 . S
C1625 C1621 1.495 . S
C1625 H1631 0.959 . S
C1625 H1632 0.961 . S
C1625 H1633 0.960 . S
C1626 C1624 1.381 . S
C1626 C1627 1.394 . S
C1626 H1634 0.930 . S
C1627 C1626 1.394 . S
C1627 C1628 1.383 . S
C1627 H1635 0.929 . S
C1628 C1627 1.383 . S
C1628 C1629 1.377 . S
C1629 H1613 0.930 . S
C1629 C1628 1.377 . S
C1629 C1630 1.379 . S
C1630 H1614 0.931 . S
C1630 C1624 1.383 . S
C1630 C1629 1.379 . S
H1631 C1625 0.959 . S
H1632 C1625 0.961 . S
H1633 C1625 0.960 . S
H1634 C1626 0.930 . S
H1635 C1627 0.929 . S
H1636 C1644 0.929 . S
H1637 C1646 0.930 . S
H1638 C1648 0.930 . S
H1639 C1651 0.929 . S
H1640 C1654 0.930 . S
H1641 C1656 0.960 . S
H1642 C1656 0.960 . S
H1643 C1656 0.960 . S
C1644 H1636 0.929 . S
C1644 C1645 1.377 . S
C1644 C1646 1.384 . S
C1645 C1644 1.377 . S
C1645 C1651 1.390 . S
C1646 H1637 0.930 . S
C1646 C1644 1.384 . S
C1646 C1647 1.372 . S
C1647 C1646 1.372 . S
C1647 C1648 1.400 . S
C1647 C1652 1.490 . S
C1648 H1638 0.930 . S
C1648 C1647 1.400 . S
C1648 C1651 1.386 . S
H1649 C1665 0.930 . S
H1650 C1666 0.931 . S
C1651 H1639 0.929 . S
C1651 C1645 1.390 . S
C1651 C1648 1.386 . S
C1652 C1647 1.490 . S
C1652 C1654 1.395 . S
C1652 C1655 1.403 . S
H1653 C1659 0.930 . S
C1654 H1640 0.930 . S
C1654 C1652 1.395 . S
C1654 C1657 1.403 . S
C1655 C1652 1.403 . S
C1655 C1656 1.524 . S
C1655 C1659 1.400 . S
C1656 H1641 0.960 . S
C1656 H1642 0.960 . S
C1656 H1643 0.960 . S
C1656 C1655 1.524 . S
C1657 C1654 1.403 . S
C1657 C1658 1.392 . S
C1657 C1661 1.495 . S
C1658 C1657 1.392 . S
C1658 C1659 1.385 . S
C1658 C1660 1.478 . S
C1659 H1653 0.930 . S
C1659 C1655 1.400 . S
C1659 C1658 1.385 . S
C1660 C1658 1.478 . S
C1660 C1662 1.381 . S
C1660 C1666 1.383 . S
C1661 C1657 1.495 . S
C1661 H1667 0.959 . S
C1661 H1668 0.961 . S
C1661 H1669 0.960 . S
C1662 C1660 1.381 . S
C1662 C1663 1.394 . S
C1662 H1670 0.930 . S
C1663 C1662 1.394 . S
C1663 C1664 1.383 . S
C1663 H1671 0.929 . S
C1664 C1663 1.383 . S
C1664 C1665 1.377 . S
C1665 H1649 0.930 . S
C1665 C1664 1.377 . S
C1665 C1666 1.379 . S
C1666 H1650 0.931 . S
C1666 C1660 1.383 . S
C1666 C1665 1.379 . S
H1667 C1661 0.959 . S
H1668 C1661 0.961 . S
H1669 C1661 0.960 . S
H1670 C1662 0.930 . S
H1671 C1663 0.929 . S
H1672 C1680 0.929 . S
H1673 C1682 0.930 . S
H1674 C1684 0.930 . S
H1675 C1687 0.929 . S
H1676 C1690 0.930 . S
H1677 C1692 0.960 . S
H1678 C1692 0.960 . S
H1679 C1692 0.960 . S
C1680 H1672 0.929 . S
C1680 C1681 1.377 . S
C1680 C1682 1.384 . S
C1681 C1680 1.377 . S
C1681 C1687 1.390 . S
C1682 H1673 0.930 . S
C1682 C1680 1.384 . S
C1682 C1683 1.372 . S
C1683 C1682 1.372 . S
C1683 C1684 1.400 . S
C1683 C1688 1.490 . S
C1684 H1674 0.930 . S
C1684 C1683 1.400 . S
C1684 C1687 1.386 . S
H1685 C1701 0.930 . S
H1686 C1702 0.931 . S
C1687 H1675 0.929 . S
C1687 C1681 1.390 . S
C1687 C1684 1.386 . S
C1688 C1683 1.490 . S
C1688 C1690 1.395 . S
C1688 C1691 1.403 . S
H1689 C1695 0.930 . S
C1690 H1676 0.930 . S
C1690 C1688 1.395 . S
C1690 C1693 1.403 . S
C1691 C1688 1.403 . S
C1691 C1692 1.524 . S
C1691 C1695 1.400 . S
C1692 H1677 0.960 . S
C1692 H1678 0.960 . S
C1692 H1679 0.960 . S
C1692 C1691 1.524 . S
C1693 C1690 1.403 . S
C1693 C1694 1.392 . S
C1693 C1697 1.495 . S
C1694 C1693 1.392 . S
C1694 C1695 1.385 . S
C1694 C1696 1.478 . S
C1695 H1689 0.930 . S
C1695 C1691 1.400 . S
C1695 C1694 1.385 . S
C1696 C1694 1.478 . S
C1696 C1698 1.381 . S
C1696 C1702 1.383 . S
C1697 C1693 1.495 . S
C1697 H1703 0.959 . S
C1697 H1704 0.961 . S
C1697 H1705 0.960 . S
C1698 C1696 1.381 . S
C1698 C1699 1.394 . S
C1698 H1706 0.930 . S
C1699 C1698 1.394 . S
C1699 C1700 1.383 . S
C1699 H1707 0.929 . S
C1700 C1699 1.383 . S
C1700 C1701 1.377 . S
C1701 H1685 0.930 . S
C1701 C1700 1.377 . S
C1701 C1702 1.379 . S
C1702 H1686 0.931 . S
C1702 C1696 1.383 . S
C1702 C1701 1.379 . S
H1703 C1697 0.959 . S
H1704 C1697 0.961 . S
H1705 C1697 0.960 . S
H1706 C1698 0.930 . S
H1707 C1699 0.929 . S
H1708 C1716 0.929 . S
H1709 C1718 0.930 . S
H1710 C1720 0.930 . S
H1711 C1723 0.929 . S
H1712 C1726 0.930 . S
H1713 C1728 0.960 . S
H1714 C1728 0.960 . S
H1715 C1728 0.960 . S
C1716 H1708 0.929 . S
C1716 C1717 1.377 . S
C1716 C1718 1.384 . S
C1717 C1716 1.377 . S
C1717 C1723 1.390 . S
C1718 H1709 0.930 . S
C1718 C1716 1.384 . S
C1718 C1719 1.372 . S
C1719 C1718 1.372 . S
C1719 C1720 1.400 . S
C1719 C1724 1.490 . S
C1720 H1710 0.930 . S
C1720 C1719 1.400 . S
C1720 C1723 1.386 . S
H1721 C1737 0.930 . S
H1722 C1738 0.931 . S
C1723 H1711 0.929 . S
C1723 C1717 1.390 . S
C1723 C1720 1.386 . S
C1724 C1719 1.490 . S
C1724 C1726 1.395 . S
C1724 C1727 1.403 . S
H1725 C1731 0.930 . S
C1726 H1712 0.930 . S
C1726 C1724 1.395 . S
C1726 C1729 1.403 . S
C1727 C1724 1.403 . S
C1727 C1728 1.524 . S
C1727 C1731 1.400 . S
C1728 H1713 0.960 . S
C1728 H1714 0.960 . S
C1728 H1715 0.960 . S
C1728 C1727 1.524 . S
C1729 C1726 1.403 . S
C1729 C1730 1.392 . S
C1729 C1733 1.495 . S
C1730 C1729 1.392 . S
C1730 C1731 1.385 . S
C1730 C1732 1.478 . S
C1731 H1725 0.930 . S
C1731 C1727 1.400 . S
C1731 C1730 1.385 . S
C1732 C1730 1.478 . S
C1732 C1734 1.381 . S
C1732 C1738 1.383 . S
C1733 C1729 1.495 . S
C1733 H1739 0.959 . S
C1733 H1740 0.961 . S
C1733 H1741 0.960 . S
C1734 C1732 1.381 . S
C1734 C1735 1.394 . S
C1734 H1742 0.930 . S
C1735 C1734 1.394 . S
C1735 C1736 1.383 . S
C1735 H1743 0.929 . S
C1736 C1735 1.383 . S
C1736 C1737 1.377 . S
C1737 H1721 0.930 . S
C1737 C1736 1.377 . S
C1737 C1738 1.379 . S
C1738 H1722 0.931 . S
C1738 C1732 1.383 . S
C1738 C1737 1.379 . S
H1739 C1733 0.959 . S
H1740 C1733 0.961 . S
H1741 C1733 0.960 . S
H1742 C1734 0.930 . S
H1743 C1735 0.929 . S
H1744 C1752 0.929 . S
H1745 C1754 0.930 . S
H1746 C1756 0.930 . S
H1747 C1759 0.929 . S
H1748 C1762 0.930 . S
H1749 C1764 0.960 . S
H1750 C1764 0.960 . S
H1751 C1764 0.960 . S
C1752 H1744 0.929 . S
C1752 C1753 1.377 . S
C1752 C1754 1.384 . S
C1753 C1752 1.377 . S
C1753 C1759 1.390 . S
C1754 H1745 0.930 . S
C1754 C1752 1.384 . S
C1754 C1755 1.372 . S
C1755 C1754 1.372 . S
C1755 C1756 1.400 . S
C1755 C1760 1.490 . S
C1756 H1746 0.930 . S
C1756 C1755 1.400 . S
C1756 C1759 1.386 . S
H1757 C1773 0.930 . S
H1758 C1774 0.931 . S
C1759 H1747 0.929 . S
C1759 C1753 1.390 . S
C1759 C1756 1.386 . S
C1760 C1755 1.490 . S
C1760 C1762 1.395 . S
C1760 C1763 1.403 . S
H1761 C1767 0.930 . S
C1762 H1748 0.930 . S
C1762 C1760 1.395 . S
C1762 C1765 1.403 . S
C1763 C1760 1.403 . S
C1763 C1764 1.524 . S
C1763 C1767 1.400 . S
C1764 H1749 0.960 . S
C1764 H1750 0.960 . S
C1764 H1751 0.960 . S
C1764 C1763 1.524 . S
C1765 C1762 1.403 . S
C1765 C1766 1.392 . S
C1765 C1769 1.495 . S
C1766 C1765 1.392 . S
C1766 C1767 1.385 . S
C1766 C1768 1.478 . S
C1767 H1761 0.930 . S
C1767 C1763 1.400 . S
C1767 C1766 1.385 . S
C1768 C1766 1.478 . S
C1768 C1770 1.381 . S
C1768 C1774 1.383 . S
C1769 C1765 1.495 . S
C1769 H1775 0.959 . S
C1769 H1776 0.961 . S
C1769 H1777 0.960 . S
C1770 C1768 1.381 . S
C1770 C1771 1.394 . S
C1770 H1778 0.930 . S
C1771 C1770 1.394 . S
C1771 C1772 1.383 . S
C1771 H1779 0.929 . S
C1772 C1771 1.383 . S
C1772 C1773 1.377 . S
C1773 H1757 0.930 . S
C1773 C1772 1.377 . S
C1773 C1774 1.379 . S
C1774 H1758 0.931 . S
C1774 C1768 1.383 . S
C1774 C1773 1.379 . S
H1775 C1769 0.959 . S
H1776 C1769 0.961 . S
H1777 C1769 0.960 . S
H1778 C1770 0.930 . S
H1779 C1771 0.929 . S
H1780 C1788 0.929 . S
H1781 C1790 0.930 . S
H1782 C1792 0.930 . S
H1783 C1795 0.929 . S
H1784 C1798 0.930 . S
H1785 C1800 0.960 . S
H1786 C1800 0.960 . S
H1787 C1800 0.960 . S
C1788 H1780 0.929 . S
C1788 C1789 1.377 . S
C1788 C1790 1.384 . S
C1789 C1788 1.377 . S
C1789 C1795 1.390 . S
C1790 H1781 0.930 . S
C1790 C1788 1.384 . S
C1790 C1791 1.372 . S
C1791 C1790 1.372 . S
C1791 C1792 1.400 . S
C1791 C1796 1.490 . S
C1792 H1782 0.930 . S
C1792 C1791 1.400 . S
C1792 C1795 1.386 . S
H1793 C1809 0.930 . S
H1794 C1810 0.931 . S
C1795 H1783 0.929 . S
C1795 C1789 1.390 . S
C1795 C1792 1.386 . S
C1796 C1791 1.490 . S
C1796 C1798 1.395 . S
C1796 C1799 1.403 . S
H1797 C1803 0.930 . S
C1798 H1784 0.930 . S
C1798 C1796 1.395 . S
C1798 C1801 1.403 . S
C1799 C1796 1.403 . S
C1799 C1800 1.524 . S
C1799 C1803 1.400 . S
C1800 H1785 0.960 . S
C1800 H1786 0.960 . S
C1800 H1787 0.960 . S
C1800 C1799 1.524 . S
C1801 C1798 1.403 . S
C1801 C1802 1.392 . S
C1801 C1805 1.495 . S
C1802 C1801 1.392 . S
C1802 C1803 1.385 . S
C1802 C1804 1.478 . S
C1803 H1797 0.930 . S
C1803 C1799 1.400 . S
C1803 C1802 1.385 . S
C1804 C1802 1.478 . S
C1804 C1806 1.381 . S
C1804 C1810 1.383 . S
C1805 C1801 1.495 . S
C1805 H1811 0.959 . S
C1805 H1812 0.961 . S
C1805 H1813 0.960 . S
C1806 C1804 1.381 . S
C1806 C1807 1.394 . S
C1806 H1814 0.930 . S
C1807 C1806 1.394 . S
C1807 C1808 1.383 . S
C1807 H1815 0.929 . S
C1808 C1807 1.383 . S
C1808 C1809 1.377 . S
C1809 H1793 0.930 . S
C1809 C1808 1.377 . S
C1809 C1810 1.379 . S
C1810 H1794 0.931 . S
C1810 C1804 1.383 . S
C1810 C1809 1.379 . S
H1811 C1805 0.959 . S
H1812 C1805 0.961 . S
H1813 C1805 0.960 . S
H1814 C1806 0.930 . S
H1815 C1807 0.929 . S
H1816 C1824 0.929 . S
H1817 C1826 0.930 . S
H1818 C1828 0.930 . S
H1819 C1831 0.929 . S
H1820 C1834 0.930 . S
H1821 C1836 0.960 . S
H1822 C1836 0.960 . S
H1823 C1836 0.960 . S
C1824 H1816 0.929 . S
C1824 C1825 1.377 . S
C1824 C1826 1.384 . S
C1825 C1824 1.377 . S
C1825 C1831 1.390 . S
C1826 H1817 0.930 . S
C1826 C1824 1.384 . S
C1826 C1827 1.372 . S
C1827 C1826 1.372 . S
C1827 C1828 1.400 . S
C1827 C1832 1.490 . S
C1828 H1818 0.930 . S
C1828 C1827 1.400 . S
C1828 C1831 1.386 . S
H1829 C1845 0.930 . S
H1830 C1846 0.931 . S
C1831 H1819 0.929 . S
C1831 C1825 1.390 . S
C1831 C1828 1.386 . S
C1832 C1827 1.490 . S
C1832 C1834 1.395 . S
C1832 C1835 1.403 . S
H1833 C1839 0.930 . S
C1834 H1820 0.930 . S
C1834 C1832 1.395 . S
C1834 C1837 1.403 . S
C1835 C1832 1.403 . S
C1835 C1836 1.524 . S
C1835 C1839 1.400 . S
C1836 H1821 0.960 . S
C1836 H1822 0.960 . S
C1836 H1823 0.960 . S
C1836 C1835 1.524 . S
C1837 C1834 1.403 . S
C1837 C1838 1.392 . S
C1837 C1841 1.495 . S
C1838 C1837 1.392 . S
C1838 C1839 1.385 . S
C1838 C1840 1.478 . S
C1839 H1833 0.930 . S
C1839 C1835 1.400 . S
C1839 C1838 1.385 . S
C1840 C1838 1.478 . S
C1840 C1842 1.381 . S
C1840 C1846 1.383 . S
C1841 C1837 1.495 . S
C1841 H1847 0.959 . S
C1841 H1848 0.961 . S
C1841 H1849 0.960 . S
C1842 C1840 1.381 . S
C1842 C1843 1.394 . S
C1842 H1850 0.930 . S
C1843 C1842 1.394 . S
C1843 C1844 1.383 . S
C1843 H1851 0.929 . S
C1844 C1843 1.383 . S
C1844 C1845 1.377 . S
C1845 H1829 0.930 . S
C1845 C1844 1.377 . S
C1845 C1846 1.379 . S
C1846 H1830 0.931 . S
C1846 C1840 1.383 . S
C1846 C1845 1.379 . S
H1847 C1841 0.959 . S
H1848 C1841 0.961 . S
H1849 C1841 0.960 . S
H1850 C1842 0.930 . S
H1851 C1843 0.929 . S
H1852 C1860 0.929 . S
H1853 C1862 0.930 . S
H1854 C1864 0.930 . S
H1855 C1867 0.929 . S
H1856 C1870 0.930 . S
H1857 C1872 0.960 . S
H1858 C1872 0.960 . S
H1859 C1872 0.960 . S
C1860 H1852 0.929 . S
C1860 C1861 1.377 . S
C1860 C1862 1.384 . S
C1861 C1860 1.377 . S
C1861 C1867 1.390 . S
C1862 H1853 0.930 . S
C1862 C1860 1.384 . S
C1862 C1863 1.372 . S
C1863 C1862 1.372 . S
C1863 C1864 1.400 . S
C1863 C1868 1.490 . S
C1864 H1854 0.930 . S
C1864 C1863 1.400 . S
C1864 C1867 1.386 . S
H1865 C1881 0.930 . S
H1866 C1882 0.931 . S
C1867 H1855 0.929 . S
C1867 C1861 1.390 . S
C1867 C1864 1.386 . S
C1868 C1863 1.490 . S
C1868 C1870 1.395 . S
C1868 C1871 1.403 . S
H1869 C1875 0.930 . S
C1870 H1856 0.930 . S
C1870 C1868 1.395 . S
C1870 C1873 1.403 . S
C1871 C1868 1.403 . S
C1871 C1872 1.524 . S
C1871 C1875 1.400 . S
C1872 H1857 0.960 . S
C1872 H1858 0.960 . S
C1872 H1859 0.960 . S
C1872 C1871 1.524 . S
C1873 C1870 1.403 . S
C1873 C1874 1.392 . S
C1873 C1877 1.495 . S
C1874 C1873 1.392 . S
C1874 C1875 1.385 . S
C1874 C1876 1.478 . S
C1875 H1869 0.930 . S
C1875 C1871 1.400 . S
C1875 C1874 1.385 . S
C1876 C1874 1.478 . S
C1876 C1878 1.381 . S
C1876 C1882 1.383 . S
C1877 C1873 1.495 . S
C1877 H1883 0.959 . S
C1877 H1884 0.961 . S
C1877 H1885 0.960 . S
C1878 C1876 1.381 . S
C1878 C1879 1.394 . S
C1878 H1886 0.930 . S
C1879 C1878 1.394 . S
C1879 C1880 1.383 . S
C1879 H1887 0.929 . S
C1880 C1879 1.383 . S
C1880 C1881 1.377 . S
C1881 H1865 0.930 . S
C1881 C1880 1.377 . S
C1881 C1882 1.379 . S
C1882 H1866 0.931 . S
C1882 C1876 1.383 . S
C1882 C1881 1.379 . S
H1883 C1877 0.959 . S
H1884 C1877 0.961 . S
H1885 C1877 0.960 . S
H1886 C1878 0.930 . S
H1887 C1879 0.929 . S
H1888 C1896 0.929 . S
H1889 C1898 0.930 . S
H1890 C1900 0.930 . S
H1891 C1903 0.929 . S
H1892 C1906 0.930 . S
H1893 C1908 0.960 . S
H1894 C1908 0.960 . S
H1895 C1908 0.960 . S
C1896 H1888 0.929 . S
C1896 C1897 1.377 . S
C1896 C1898 1.384 . S
C1897 C1896 1.377 . S
C1897 C1903 1.390 . S
C1898 H1889 0.930 . S
C1898 C1896 1.384 . S
C1898 C1899 1.372 . S
C1899 C1898 1.372 . S
C1899 C1900 1.400 . S
C1899 C1904 1.490 . S
C1900 H1890 0.930 . S
C1900 C1899 1.400 . S
C1900 C1903 1.386 . S
H1901 C1917 0.930 . S
H1902 C1918 0.931 . S
C1903 H1891 0.929 . S
C1903 C1897 1.390 . S
C1903 C1900 1.386 . S
C1904 C1899 1.490 . S
C1904 C1906 1.395 . S
C1904 C1907 1.403 . S
H1905 C1911 0.930 . S
C1906 H1892 0.930 . S
C1906 C1904 1.395 . S
C1906 C1909 1.403 . S
C1907 C1904 1.403 . S
C1907 C1908 1.524 . S
C1907 C1911 1.400 . S
C1908 H1893 0.960 . S
C1908 H1894 0.960 . S
C1908 H1895 0.960 . S
C1908 C1907 1.524 . S
C1909 C1906 1.403 . S
C1909 C1910 1.392 . S
C1909 C1913 1.495 . S
C1910 C1909 1.392 . S
C1910 C1911 1.385 . S
C1910 C1912 1.478 . S
C1911 H1905 0.930 . S
C1911 C1907 1.400 . S
C1911 C1910 1.385 . S
C1912 C1910 1.478 . S
C1912 C1914 1.381 . S
C1912 C1918 1.383 . S
C1913 C1909 1.495 . S
C1913 H1919 0.959 . S
C1913 H1920 0.961 . S
C1913 H1921 0.960 . S
C1914 C1912 1.381 . S
C1914 C1915 1.394 . S
C1914 H1922 0.930 . S
C1915 C1914 1.394 . S
C1915 C1916 1.383 . S
C1915 H1923 0.929 . S
C1916 C1915 1.383 . S
C1916 C1917 1.377 . S
C1917 H1901 0.930 . S
C1917 C1916 1.377 . S
C1917 C1918 1.379 . S
C1918 H1902 0.931 . S
C1918 C1912 1.383 . S
C1918 C1917 1.379 . S
H1919 C1913 0.959 . S
H1920 C1913 0.961 . S
H1921 C1913 0.960 . S
H1922 C1914 0.930 . S
H1923 C1915 0.929 . S
H1924 C1932 0.929 . S
H1925 C1934 0.930 . S
H1926 C1936 0.930 . S
H1927 C1939 0.929 . S
H1928 C1942 0.930 . S
H1929 C1944 0.960 . S
H1930 C1944 0.960 . S
H1931 C1944 0.960 . S
C1932 H1924 0.929 . S
C1932 C1933 1.377 . S
C1932 C1934 1.384 . S
C1933 C1932 1.377 . S
C1933 C1939 1.390 . S
C1934 H1925 0.930 . S
C1934 C1932 1.384 . S
C1934 C1935 1.372 . S
C1935 C1934 1.372 . S
C1935 C1936 1.400 . S
C1935 C1940 1.490 . S
C1936 H1926 0.930 . S
C1936 C1935 1.400 . S
C1936 C1939 1.386 . S
H1937 C1953 0.930 . S
H1938 C1954 0.931 . S
C1939 H1927 0.929 . S
C1939 C1933 1.390 . S
C1939 C1936 1.386 . S
C1940 C1935 1.490 . S
C1940 C1942 1.395 . S
C1940 C1943 1.403 . S
H1941 C1947 0.930 . S
C1942 H1928 0.930 . S
C1942 C1940 1.395 . S
C1942 C1945 1.403 . S
C1943 C1940 1.403 . S
C1943 C1944 1.524 . S
C1943 C1947 1.400 . S
C1944 H1929 0.960 . S
C1944 H1930 0.960 . S
C1944 H1931 0.960 . S
C1944 C1943 1.524 . S
C1945 C1942 1.403 . S
C1945 C1946 1.392 . S
C1945 C1949 1.495 . S
C1946 C1945 1.392 . S
C1946 C1947 1.385 . S
C1946 C1948 1.478 . S
C1947 H1941 0.930 . S
C1947 C1943 1.400 . S
C1947 C1946 1.385 . S
C1948 C1946 1.478 . S
C1948 C1950 1.381 . S
C1948 C1954 1.383 . S
C1949 C1945 1.495 . S
C1949 H1955 0.959 . S
C1949 H1956 0.961 . S
C1949 H1957 0.960 . S
C1950 C1948 1.381 . S
C1950 C1951 1.394 . S
C1950 H1958 0.930 . S
C1951 C1950 1.394 . S
C1951 C1952 1.383 . S
C1951 H1959 0.929 . S
C1952 C1951 1.383 . S
C1952 C1953 1.377 . S
C1953 H1937 0.930 . S
C1953 C1952 1.377 . S
C1953 C1954 1.379 . S
C1954 H1938 0.931 . S
C1954 C1948 1.383 . S
C1954 C1953 1.379 . S
H1955 C1949 0.959 . S
H1956 C1949 0.961 . S
H1957 C1949 0.960 . S
H1958 C1950 0.930 . S
H1959 C1951 0.929 . S
H1960 C1968 0.929 . S
H1961 C1970 0.930 . S
H1962 C1972 0.930 . S
H1963 C1975 0.929 . S
H1964 C1978 0.930 . S
H1965 C1980 0.960 . S
H1966 C1980 0.960 . S
H1967 C1980 0.960 . S
C1968 H1960 0.929 . S
C1968 C1969 1.377 . S
C1968 C1970 1.384 . S
C1969 C1968 1.377 . S
C1969 C1975 1.390 . S
C1970 H1961 0.930 . S
C1970 C1968 1.384 . S
C1970 C1971 1.372 . S
C1971 C1970 1.372 . S
C1971 C1972 1.400 . S
C1971 C1976 1.490 . S
C1972 H1962 0.930 . S
C1972 C1971 1.400 . S
C1972 C1975 1.386 . S
H1973 C1989 0.930 . S
H1974 C1990 0.931 . S
C1975 H1963 0.929 . S
C1975 C1969 1.390 . S
C1975 C1972 1.386 . S
C1976 C1971 1.490 . S
C1976 C1978 1.395 . S
C1976 C1979 1.403 . S
H1977 C1983 0.930 . S
C1978 H1964 0.930 . S
C1978 C1976 1.395 . S
C1978 C1981 1.403 . S
C1979 C1976 1.403 . S
C1979 C1980 1.524 . S
C1979 C1983 1.400 . S
C1980 H1965 0.960 . S
C1980 H1966 0.960 . S
C1980 H1967 0.960 . S
C1980 C1979 1.524 . S
C1981 C1978 1.403 . S
C1981 C1982 1.392 . S
C1981 C1985 1.495 . S
C1982 C1981 1.392 . S
C1982 C1983 1.385 . S
C1982 C1984 1.478 . S
C1983 H1977 0.930 . S
C1983 C1979 1.400 . S
C1983 C1982 1.385 . S
C1984 C1982 1.478 . S
C1984 C1986 1.381 . S
C1984 C1990 1.383 . S
C1985 C1981 1.495 . S
C1985 H1991 0.959 . S
C1985 H1992 0.983 . S
C1985 H1993 0.960 . S
C1986 C1984 1.381 . S
C1986 C1987 1.394 . S
C1986 H1994 0.930 . S
C1987 C1986 1.394 . S
C1987 C1988 1.383 . S
C1987 H1995 0.929 . S
C1988 C1987 1.383 . S
C1988 C1989 1.377 . S
C1989 H1973 0.930 . S
C1989 C1988 1.377 . S
C1989 C1990 1.379 . S
C1990 H1974 0.931 . S
C1990 C1984 1.383 . S
C1990 C1989 1.379 . S
H1991 C1985 0.959 . S
H1992 C1985 0.983 . S
H1993 C1985 0.960 . S
H1994 C1986 0.930 . S
H1995 C1987 0.929 . S
H1996 C2004 0.929 . S
H1997 C2006 0.930 . S
H1998 C2008 0.930 . S
H1999 C2011 0.929 . S
H2000 C2014 0.930 . S
H2001 C2016 0.960 . S
H2002 C2016 0.960 . S
H2003 C2016 0.960 . S
C2004 H1996 0.929 . S
C2004 C2005 1.377 . S
C2004 C2006 1.384 . S
C2005 C2004 1.377 . S
C2005 C2011 1.390 . S
C2006 H1997 0.930 . S
C2006 C2004 1.384 . S
C2006 C2007 1.372 . S
C2007 C2006 1.372 . S
C2007 C2008 1.400 . S
C2007 C2012 1.490 . S
C2008 H1998 0.930 . S
C2008 C2007 1.400 . S
C2008 C2011 1.386 . S
H2009 C2025 0.930 . S
H2010 C2026 0.931 . S
C2011 H1999 0.929 . S
C2011 C2005 1.390 . S
C2011 C2008 1.386 . S
C2012 C2007 1.490 . S
C2012 C2014 1.395 . S
C2012 C2015 1.403 . S
H2013 C2019 0.930 . S
C2014 H2000 0.930 . S
C2014 C2012 1.395 . S
C2014 C2017 1.403 . S
C2015 C2012 1.403 . S
C2015 C2016 1.524 . S
C2015 C2019 1.400 . S
C2016 H2001 0.960 . S
C2016 H2002 0.960 . S
C2016 H2003 0.960 . S
C2016 C2015 1.524 . S
C2017 C2014 1.403 . S
C2017 C2018 1.392 . S
C2017 C2021 1.495 . S
C2018 C2017 1.392 . S
C2018 C2019 1.385 . S
C2018 C2020 1.478 . S
C2019 H2013 0.930 . S
C2019 C2015 1.400 . S
C2019 C2018 1.385 . S
C2020 C2018 1.478 . S
C2020 C2022 1.381 . S
C2020 C2026 1.383 . S
C2021 C2017 1.495 . S
C2021 H2027 0.959 . S
C2021 H2028 0.961 . S
C2021 H2029 0.960 . S
C2022 C2020 1.381 . S
C2022 C2023 1.394 . S
C2022 H2030 0.930 . S
C2023 C2022 1.394 . S
C2023 C2024 1.383 . S
C2023 H2031 0.929 . S
C2024 C2023 1.383 . S
C2024 C2025 1.377 . S
C2025 H2009 0.930 . S
C2025 C2024 1.377 . S
C2025 C2026 1.379 . S
C2026 H2010 0.931 . S
C2026 C2020 1.383 . S
C2026 C2025 1.379 . S
H2027 C2021 0.959 . S
H2028 C2021 0.961 . S
H2029 C2021 0.960 . S
H2030 C2022 0.930 . S
H2031 C2023 0.929 . S
H2032 C2040 0.929 . S
H2033 C2042 0.930 . S
H2034 C2044 0.930 . S
H2035 C2047 0.929 . S
H2036 C2050 0.930 . S
H2037 C2052 0.960 . S
H2038 C2052 0.960 . S
H2039 C2052 0.960 . S
C2040 H2032 0.929 . S
C2040 C2041 1.377 . S
C2040 C2042 1.384 . S
C2041 C2040 1.377 . S
C2041 C2047 1.390 . S
C2042 H2033 0.930 . S
C2042 C2040 1.384 . S
C2042 C2043 1.372 . S
C2043 C2042 1.372 . S
C2043 C2044 1.400 . S
C2043 C2048 1.490 . S
C2044 H2034 0.930 . S
C2044 C2043 1.400 . S
C2044 C2047 1.386 . S
H2045 C2061 0.922 . S
H2046 C2062 0.931 . S
C2047 H2035 0.929 . S
C2047 C2041 1.390 . S
C2047 C2044 1.386 . S
C2048 C2043 1.490 . S
C2048 C2050 1.395 . S
C2048 C2051 1.403 . S
H2049 C2055 0.930 . S
C2050 H2036 0.930 . S
C2050 C2048 1.395 . S
C2050 C2053 1.403 . S
C2051 C2048 1.403 . S
C2051 C2052 1.524 . S
C2051 C2055 1.400 . S
C2052 H2037 0.960 . S
C2052 H2038 0.960 . S
C2052 H2039 0.960 . S
C2052 C2051 1.524 . S
C2053 C2050 1.403 . S
C2053 C2054 1.392 . S
C2053 C2057 1.495 . S
C2054 C2053 1.392 . S
C2054 C2055 1.385 . S
C2054 C2056 1.478 . S
C2055 H2049 0.930 . S
C2055 C2051 1.400 . S
C2055 C2054 1.385 . S
C2056 C2054 1.478 . S
C2056 C2058 1.381 . S
C2056 C2062 1.383 . S
C2057 C2053 1.495 . S
C2057 H2063 0.959 . S
C2057 H2064 0.961 . S
C2057 H2065 0.960 . S
C2058 C2056 1.381 . S
C2058 C2059 1.394 . S
C2058 H2066 0.930 . S
C2059 C2058 1.394 . S
C2059 C2060 1.383 . S
C2059 H2067 0.929 . S
C2060 C2059 1.383 . S
C2060 C2061 1.380 1_556 S
C2061 H2045 0.922 . S
C2061 C2060 1.380 1_554 S
C2061 C2062 1.383 1_554 S
C2062 H2046 0.931 . S
C2062 C2056 1.383 . S
C2062 C2061 1.383 1_556 S
H2063 C2057 0.959 . S
H2064 C2057 0.961 . S
H2065 C2057 0.960 . S
H2066 C2058 0.930 . S
H2067 C2059 0.929 . S
H2068 C2076 0.929 . S
H2069 C2078 0.930 . S
H2070 C2080 0.930 . S
H2071 C2083 0.929 . S
H2072 C2086 0.930 . S
H2073 C2088 0.960 . S
H2074 C2088 0.960 . S
H2075 C2088 0.960 . S
C2076 H2068 0.929 . S
C2076 C2077 1.377 . S
C2076 C2078 1.384 . S
C2077 C2076 1.377 . S
C2077 C2083 1.390 . S
C2078 H2069 0.930 . S
C2078 C2076 1.384 . S
C2078 C2079 1.372 . S
C2079 C2078 1.372 . S
C2079 C2080 1.400 . S
C2079 C2084 1.490 . S
C2080 H2070 0.930 . S
C2080 C2079 1.400 . S
C2080 C2083 1.386 . S
H2081 C2097 0.930 . S
H2082 C2098 0.931 . S
C2083 H2071 0.929 . S
C2083 C2077 1.390 . S
C2083 C2080 1.386 . S
C2084 C2079 1.490 . S
C2084 C2086 1.395 . S
C2084 C2087 1.403 . S
H2085 C2091 0.930 . S
C2086 H2072 0.930 . S
C2086 C2084 1.395 . S
C2086 C2089 1.403 . S
C2087 C2084 1.403 . S
C2087 C2088 1.524 . S
C2087 C2091 1.400 . S
C2088 H2073 0.960 . S
C2088 H2074 0.960 . S
C2088 H2075 0.960 . S
C2088 C2087 1.524 . S
C2089 C2086 1.403 . S
C2089 C2090 1.392 . S
C2089 C2093 1.495 . S
C2090 C2089 1.392 . S
C2090 C2091 1.385 . S
C2090 C2092 1.478 . S
C2091 H2085 0.930 . S
C2091 C2087 1.400 . S
C2091 C2090 1.385 . S
C2092 C2090 1.478 . S
C2092 C2094 1.381 . S
C2092 C2098 1.383 . S
C2093 C2089 1.495 . S
C2093 H2099 0.959 . S
C2093 H2100 0.961 . S
C2093 H2101 0.960 . S
C2094 C2092 1.381 . S
C2094 C2095 1.394 . S
C2094 H2102 0.930 . S
C2095 C2094 1.394 . S
C2095 C2096 1.383 . S
C2095 H2103 0.929 . S
C2096 C2095 1.383 . S
C2096 C2097 1.377 . S
C2097 H2081 0.930 . S
C2097 C2096 1.377 . S
C2097 C2098 1.379 . S
C2098 H2082 0.931 . S
C2098 C2092 1.383 . S
C2098 C2097 1.379 . S
H2099 C2093 0.959 . S
H2100 C2093 0.961 . S
H2101 C2093 0.960 . S
H2102 C2094 0.930 . S
H2103 C2095 0.929 . S
H2104 C2112 0.929 . S
H2105 C2114 0.930 . S
H2106 C2116 0.930 . S
H2107 C2119 0.929 . S
H2108 C2122 0.930 . S
H2109 C2124 0.960 . S
H2110 C2124 0.960 . S
H2111 C2124 0.960 1_545 S
C2112 H2104 0.929 . S
C2112 C2113 1.340 1_565 S
C2112 C2114 1.384 . S
C2113 C2112 1.340 1_545 S
C2113 C2119 1.429 . S
C2114 H2105 0.930 . S
C2114 C2112 1.384 . S
C2114 C2115 1.372 1_565 S
C2115 C2114 1.372 1_545 S
C2115 C2116 1.400 . S
C2115 C2120 1.490 . S
C2116 H2106 0.930 . S
C2116 C2115 1.400 . S
C2116 C2119 1.386 . S
H2117 C2133 0.930 . S
H2118 C2134 0.931 . S
C2119 H2107 0.929 . S
C2119 C2113 1.429 . S
C2119 C2116 1.386 . S
C2120 C2115 1.490 . S
C2120 C2122 1.395 . S
C2120 C2123 1.403 . S
H2121 C2127 0.930 . S
C2122 H2108 0.930 . S
C2122 C2120 1.395 . S
C2122 C2125 1.403 . S
C2123 C2120 1.403 . S
C2123 C2124 1.521 1_545 S
C2123 C2127 1.402 . S
C2124 H2109 0.960 . S
C2124 H2110 0.960 . S
C2124 H2111 0.960 1_565 S
C2124 C2123 1.521 1_565 S
C2125 C2122 1.403 . S
C2125 C2126 1.392 . S
C2125 C2129 1.495 . S
C2126 C2125 1.392 . S
C2126 C2127 1.385 . S
C2126 C2128 1.478 . S
C2127 H2121 0.930 . S
C2127 C2123 1.402 . S
C2127 C2126 1.385 . S
C2128 C2126 1.478 . S
C2128 C2130 1.371 1_545 S
C2128 C2134 1.383 . S
C2129 C2125 1.495 . S
C2129 H2135 0.959 . S
C2129 H2136 0.961 . S
C2129 H2137 0.960 . S
C2130 C2128 1.371 1_565 S
C2130 C2131 1.393 1_565 S
C2130 H2138 0.942 . S
C2131 C2130 1.393 1_545 S
C2131 C2132 1.420 . S
C2131 H2139 0.895 1_545 S
C2132 C2131 1.420 . S
C2132 C2133 1.377 . S
C2133 H2117 0.930 . S
C2133 C2132 1.377 . S
C2133 C2134 1.379 . S
C2134 H2118 0.931 . S
C2134 C2128 1.383 . S
C2134 C2133 1.379 . S
H2135 C2129 0.959 . S
H2136 C2129 0.961 . S
H2137 C2129 0.960 . S
H2138 C2130 0.942 . S
H2139 C2131 0.895 1_565 S
H2140 C2148 0.929 . S
H2141 C2150 0.930 . S
H2142 C2152 0.930 . S
H2143 C2155 0.929 . S
H2144 C2158 0.930 . S
H2145 C2160 0.960 . S
H2146 C2160 0.960 . S
H2147 C2160 0.960 . S
C2148 H2140 0.929 . S
C2148 C2149 1.377 . S
C2148 C2150 1.384 . S
C2149 C2148 1.377 . S
C2149 C2155 1.390 . S
C2150 H2141 0.930 . S
C2150 C2148 1.384 . S
C2150 C2151 1.372 . S
C2151 C2150 1.372 . S
C2151 C2152 1.400 . S
C2151 C2156 1.490 . S
C2152 H2142 0.930 . S
C2152 C2151 1.400 . S
C2152 C2155 1.386 . S
H2153 C2169 0.930 . S
H2154 C2170 0.931 . S
C2155 H2143 0.929 . S
C2155 C2149 1.390 . S
C2155 C2152 1.386 . S
C2156 C2151 1.490 . S
C2156 C2158 1.395 . S
C2156 C2159 1.403 . S
H2157 C2163 0.930 . S
C2158 H2144 0.930 . S
C2158 C2156 1.395 . S
C2158 C2161 1.403 . S
C2159 C2156 1.403 . S
C2159 C2160 1.524 . S
C2159 C2163 1.400 . S
C2160 H2145 0.960 . S
C2160 H2146 0.960 . S
C2160 H2147 0.960 . S
C2160 C2159 1.524 . S
C2161 C2158 1.403 . S
C2161 C2162 1.392 . S
C2161 C2165 1.495 . S
C2162 C2161 1.392 . S
C2162 C2163 1.385 . S
C2162 C2164 1.478 . S
C2163 H2157 0.930 . S
C2163 C2159 1.400 . S
C2163 C2162 1.385 . S
C2164 C2162 1.478 . S
C2164 C2166 1.381 . S
C2164 C2170 1.383 . S
C2165 C2161 1.495 . S
C2165 H2171 0.959 . S
C2165 H2172 0.961 . S
C2165 H2173 0.960 . S
C2166 C2164 1.381 . S
C2166 C2167 1.394 . S
C2166 H2174 0.930 . S
C2167 C2166 1.394 . S
C2167 C2168 1.383 . S
C2167 H2175 0.929 . S
C2168 C2167 1.383 . S
C2168 C2169 1.377 . S
C2169 H2153 0.930 . S
C2169 C2168 1.377 . S
C2169 C2170 1.379 . S
C2170 H2154 0.931 . S
C2170 C2164 1.383 . S
C2170 C2169 1.379 . S
H2171 C2165 0.959 . S
H2172 C2165 0.961 . S
H2173 C2165 0.960 . S
H2174 C2166 0.930 . S
H2175 C2167 0.929 . S
H2176 C2184 0.929 . S
H2177 C2186 0.930 . S
H2178 C2188 0.930 . S
H2179 C2191 0.929 . S
H2180 C2194 0.930 . S
H2181 C2196 0.960 . S
H2182 C2196 0.960 . S
H2183 C2196 0.960 . S
C2184 H2176 0.929 . S
C2184 C2185 1.377 . S
C2184 C2186 1.384 . S
C2185 C2184 1.377 . S
C2185 C2191 1.390 . S
C2186 H2177 0.930 . S
C2186 C2184 1.384 . S
C2186 C2187 1.372 . S
C2187 C2186 1.372 . S
C2187 C2188 1.400 . S
C2187 C2192 1.490 . S
C2188 H2178 0.930 . S
C2188 C2187 1.400 . S
C2188 C2191 1.386 . S
H2189 C2205 0.930 . S
H2190 C2206 0.931 . S
C2191 H2179 0.929 . S
C2191 C2185 1.390 . S
C2191 C2188 1.386 . S
C2192 C2187 1.490 . S
C2192 C2194 1.395 . S
C2192 C2195 1.403 . S
H2193 C2199 0.930 . S
C2194 H2180 0.930 . S
C2194 C2192 1.395 . S
C2194 C2197 1.403 . S
C2195 C2192 1.403 . S
C2195 C2196 1.524 1_545 S
C2195 C2199 1.400 . S
C2196 H2181 0.960 . S
C2196 H2182 0.960 . S
C2196 H2183 0.960 . S
C2196 C2195 1.524 1_565 S
C2197 C2194 1.403 . S
C2197 C2198 1.392 . S
C2197 C2201 1.495 . S
C2198 C2197 1.392 . S
C2198 C2199 1.385 . S
C2198 C2200 1.478 . S
C2199 H2193 0.930 . S
C2199 C2195 1.400 . S
C2199 C2198 1.385 . S
C2200 C2198 1.478 . S
C2200 C2202 1.381 . S
C2200 C2206 1.383 . S
C2201 C2197 1.495 . S
C2201 H2207 0.959 . S
C2201 H2208 0.961 . S
C2201 H2209 0.960 . S
C2202 C2200 1.381 . S
C2202 C2203 1.394 . S
C2202 H2210 0.930 . S
C2203 C2202 1.394 . S
C2203 C2204 1.383 . S
C2203 H2211 0.929 . S
C2204 C2203 1.383 . S
C2204 C2205 1.377 . S
C2205 H2189 0.930 . S
C2205 C2204 1.377 . S
C2205 C2206 1.379 . S
C2206 H2190 0.931 . S
C2206 C2200 1.383 . S
C2206 C2205 1.379 . S
H2207 C2201 0.959 . S
H2208 C2201 0.961 . S
H2209 C2201 0.960 . S
H2210 C2202 0.930 . S
H2211 C2203 0.929 . S
H2212 C2220 0.929 . S
H2213 C2222 0.930 . S
H2214 C2224 0.930 . S
H2215 C2227 0.929 . S
H2216 C2230 0.930 . S
H2217 C2232 0.960 . S
H2218 C2232 0.960 . S
H2219 C2232 0.960 . S
C2220 H2212 0.929 . S
C2220 C2221 1.377 . S
C2220 C2222 1.384 . S
C2221 C2220 1.377 . S
C2221 C2227 1.390 . S
C2222 H2213 0.930 . S
C2222 C2220 1.384 . S
C2222 C2223 1.372 . S
C2223 C2222 1.372 . S
C2223 C2224 1.400 . S
C2223 C2228 1.490 . S
C2224 H2214 0.930 . S
C2224 C2223 1.400 . S
C2224 C2227 1.386 . S
H2225 C2241 0.930 . S
H2226 C2242 0.931 . S
C2227 H2215 0.929 . S
C2227 C2221 1.390 . S
C2227 C2224 1.386 . S
C2228 C2223 1.490 . S
C2228 C2230 1.395 . S
C2228 C2231 1.403 . S
H2229 C2235 0.930 . S
C2230 H2216 0.930 . S
C2230 C2228 1.395 . S
C2230 C2233 1.403 . S
C2231 C2228 1.403 . S
C2231 C2232 1.524 . S
C2231 C2235 1.400 . S
C2232 H2217 0.960 . S
C2232 H2218 0.960 . S
C2232 H2219 0.960 . S
C2232 C2231 1.524 . S
C2233 C2230 1.403 . S
C2233 C2234 1.392 . S
C2233 C2237 1.495 . S
C2234 C2233 1.392 . S
C2234 C2235 1.385 . S
C2234 C2236 1.478 . S
C2235 H2229 0.930 . S
C2235 C2231 1.400 . S
C2235 C2234 1.385 . S
C2236 C2234 1.478 . S
C2236 C2238 1.381 . S
C2236 C2242 1.383 . S
C2237 C2233 1.495 . S
C2237 H2243 0.959 . S
C2237 H2244 0.961 . S
C2237 H2245 0.960 . S
C2238 C2236 1.381 . S
C2238 C2239 1.394 . S
C2238 H2246 0.930 . S
C2239 C2238 1.394 . S
C2239 C2240 1.383 . S
C2239 H2247 0.929 . S
C2240 C2239 1.383 . S
C2240 C2241 1.377 . S
C2241 H2225 0.930 . S
C2241 C2240 1.377 . S
C2241 C2242 1.379 . S
C2242 H2226 0.931 . S
C2242 C2236 1.383 . S
C2242 C2241 1.379 . S
H2243 C2237 0.959 . S
H2244 C2237 0.961 . S
H2245 C2237 0.960 . S
H2246 C2238 0.930 . S
H2247 C2239 0.929 . S
H2248 C2256 0.929 . S
H2249 C2258 0.930 . S
H2250 C2260 0.930 . S
H2251 C2263 0.929 . S
H2252 C2266 0.930 . S
H2253 C2268 0.959 . S
H2254 C2268 1.018 . S
H2255 C2268 0.940 1_545 S
C2256 H2248 0.929 . S
C2256 C2257 1.377 . S
C2256 C2258 1.384 . S
C2257 C2256 1.377 . S
C2257 C2263 1.390 1_565 S
C2258 H2249 0.930 . S
C2258 C2256 1.384 . S
C2258 C2259 1.372 1_565 S
C2259 C2258 1.372 1_545 S
C2259 C2260 1.400 . S
C2259 C2264 1.490 . S
C2260 H2250 0.930 . S
C2260 C2259 1.400 . S
C2260 C2263 1.386 . S
H2261 C2277 0.930 . S
H2262 C2278 0.931 . S
C2263 H2251 0.929 . S
C2263 C2257 1.390 1_545 S
C2263 C2260 1.386 . S
C2264 C2259 1.490 . S
C2264 C2266 1.395 . S
C2264 C2267 1.403 . S
H2265 C2271 0.930 . S
C2266 H2252 0.930 . S
C2266 C2264 1.395 . S
C2266 C2269 1.403 . S
C2267 C2264 1.403 . S
C2267 C2268 1.495 1_545 S
C2267 C2271 1.400 . S
C2268 H2253 0.959 . S
C2268 H2254 1.018 . S
C2268 H2255 0.940 1_565 S
C2268 C2267 1.495 1_565 S
C2269 C2266 1.403 . S
C2269 C2270 1.392 . S
C2269 C2273 1.495 . S
C2270 C2269 1.392 . S
C2270 C2271 1.385 . S
C2270 C2272 1.478 . S
C2271 H2265 0.930 . S
C2271 C2267 1.400 . S
C2271 C2270 1.385 . S
C2272 C2270 1.478 . S
C2272 C2274 1.381 . S
C2272 C2278 1.383 . S
C2273 C2269 1.495 . S
C2273 H2279 0.959 . S
C2273 H2280 0.961 . S
C2273 H2281 0.960 . S
C2274 C2272 1.381 . S
C2274 C2275 1.394 . S
C2274 H2282 0.930 1_545 S
C2275 C2274 1.394 . S
C2275 C2276 1.383 . S
C2275 H2283 0.929 . S
C2276 C2275 1.383 . S
C2276 C2277 1.377 . S
C2277 H2261 0.930 . S
C2277 C2276 1.377 . S
C2277 C2278 1.379 . S
C2278 H2262 0.931 . S
C2278 C2272 1.383 . S
C2278 C2277 1.379 . S
H2279 C2273 0.959 . S
H2280 C2273 0.961 . S
H2281 C2273 0.960 . S
H2282 C2274 0.930 1_565 S
H2283 C2275 0.929 . S
H2284 C2292 0.929 . S
H2285 C2294 0.930 . S
H2286 C2296 0.930 . S
H2287 C2299 0.929 . S
H2288 C2302 0.930 . S
H2289 C2304 0.960 . S
H2290 C2304 0.960 . S
H2291 C2304 0.960 . S
C2292 H2284 0.929 . S
C2292 C2293 1.377 . S
C2292 C2294 1.384 . S
C2293 C2292 1.377 . S
C2293 C2299 1.390 . S
C2294 H2285 0.930 . S
C2294 C2292 1.384 . S
C2294 C2295 1.372 . S
C2295 C2294 1.372 . S
C2295 C2296 1.400 . S
C2295 C2300 1.490 . S
C2296 H2286 0.930 . S
C2296 C2295 1.400 . S
C2296 C2299 1.386 . S
H2297 C2313 0.930 . S
H2298 C2314 0.931 . S
C2299 H2287 0.929 . S
C2299 C2293 1.390 . S
C2299 C2296 1.386 . S
C2300 C2295 1.490 . S
C2300 C2302 1.395 . S
C2300 C2303 1.403 . S
H2301 C2307 0.930 . S
C2302 H2288 0.930 . S
C2302 C2300 1.395 . S
C2302 C2305 1.403 . S
C2303 C2300 1.403 . S
C2303 C2304 1.524 . S
C2303 C2307 1.400 . S
C2304 H2289 0.960 . S
C2304 H2290 0.960 . S
C2304 H2291 0.960 . S
C2304 C2303 1.524 . S
C2305 C2302 1.403 . S
C2305 C2306 1.392 . S
C2305 C2309 1.495 . S
C2306 C2305 1.392 . S
C2306 C2307 1.385 . S
C2306 C2308 1.478 . S
C2307 H2301 0.930 . S
C2307 C2303 1.400 . S
C2307 C2306 1.385 . S
C2308 C2306 1.478 . S
C2308 C2310 1.381 . S
C2308 C2314 1.383 . S
C2309 C2305 1.495 . S
C2309 H2315 0.959 . S
C2309 H2316 0.961 . S
C2309 H2317 0.960 . S
C2310 C2308 1.381 . S
C2310 C2311 1.394 . S
C2310 H2318 0.930 . S
C2311 C2310 1.394 . S
C2311 C2312 1.383 . S
C2311 H2319 0.929 . S
C2312 C2311 1.383 . S
C2312 C2313 1.377 . S
C2313 H2297 0.930 . S
C2313 C2312 1.377 . S
C2313 C2314 1.379 . S
C2314 H2298 0.931 . S
C2314 C2308 1.383 . S
C2314 C2313 1.379 . S
H2315 C2309 0.959 . S
H2316 C2309 0.961 . S
H2317 C2309 0.960 . S
H2318 C2310 0.930 . S
H2319 C2311 0.929 . S
H2320 C2328 0.929 . S
H2321 C2330 0.930 . S
H2322 C2332 0.930 . S
H2323 C2335 0.929 . S
H2324 C2338 0.930 . S
H2325 C2340 0.960 . S
H2326 C2340 0.960 . S
H2327 C2340 0.960 . S
C2328 H2320 0.929 . S
C2328 C2329 1.377 1_565 S
C2328 C2330 1.384 . S
C2329 C2328 1.377 1_545 S
C2329 C2335 1.390 . S
C2330 H2321 0.930 . S
C2330 C2328 1.384 . S
C2330 C2331 1.372 . S
C2331 C2330 1.372 . S
C2331 C2332 1.400 1_565 S
C2331 C2336 1.490 . S
C2332 H2322 0.930 . S
C2332 C2331 1.400 1_545 S
C2332 C2335 1.386 . S
H2333 C2349 0.930 . S
H2334 C2350 0.931 . S
C2335 H2323 0.929 . S
C2335 C2329 1.390 . S
C2335 C2332 1.386 . S
C2336 C2331 1.490 . S
C2336 C2338 1.395 . S
C2336 C2339 1.403 1_565 S
H2337 C2343 0.930 . S
C2338 H2324 0.930 . S
C2338 C2336 1.395 . S
C2338 C2341 1.403 . S
C2339 C2336 1.403 1_545 S
C2339 C2340 1.524 . S
C2339 C2343 1.400 . S
C2340 H2325 0.960 . S
C2340 H2326 0.960 . S
C2340 H2327 0.960 . S
C2340 C2339 1.524 . S
C2341 C2338 1.403 . S
C2341 C2342 1.392 . S
C2341 C2345 1.495 . S
C2342 C2341 1.392 . S
C2342 C2343 1.385 1_565 S
C2342 C2344 1.478 . S
C2343 H2337 0.930 . S
C2343 C2339 1.400 . S
C2343 C2342 1.385 1_545 S
C2344 C2342 1.478 . S
C2344 C2346 1.381 . S
C2344 C2350 1.383 . S
C2345 C2341 1.495 . S
C2345 H2351 0.959 . S
C2345 H2352 0.961 . S
C2345 H2353 0.960 . S
C2346 C2344 1.381 . S
C2346 C2347 1.394 . S
C2346 H2354 0.930 . S
C2347 C2346 1.394 . S
C2347 C2348 1.383 . S
C2347 H2355 0.929 . S
C2348 C2347 1.383 . S
C2348 C2349 1.377 . S
C2349 H2333 0.930 . S
C2349 C2348 1.377 . S
C2349 C2350 1.379 . S
C2350 H2334 0.931 . S
C2350 C2344 1.383 . S
C2350 C2349 1.379 . S
H2351 C2345 0.959 . S
H2352 C2345 0.961 . S
H2353 C2345 0.960 . S
H2354 C2346 0.930 . S
H2355 C2347 0.929 . S
H2356 C2364 0.929 . S
H2357 C2366 0.930 . S
H2358 C2368 0.930 . S
H2359 C2371 0.929 . S
H2360 C2374 0.930 . S
H2361 C2376 0.960 . S
H2362 C2376 0.960 . S
H2363 C2376 0.960 . S
C2364 H2356 0.929 . S
C2364 C2365 1.377 . S
C2364 C2366 1.384 . S
C2365 C2364 1.377 . S
C2365 C2371 1.390 . S
C2366 H2357 0.930 . S
C2366 C2364 1.384 . S
C2366 C2367 1.372 . S
C2367 C2366 1.372 . S
C2367 C2368 1.400 . S
C2367 C2372 1.490 . S
C2368 H2358 0.930 . S
C2368 C2367 1.400 . S
C2368 C2371 1.386 . S
H2369 C2385 0.930 . S
H2370 C2386 0.931 . S
C2371 H2359 0.929 . S
C2371 C2365 1.390 . S
C2371 C2368 1.386 . S
C2372 C2367 1.490 . S
C2372 C2374 1.395 . S
C2372 C2375 1.403 . S
H2373 C2379 0.930 . S
C2374 H2360 0.930 . S
C2374 C2372 1.395 . S
C2374 C2377 1.403 . S
C2375 C2372 1.403 . S
C2375 C2376 1.524 . S
C2375 C2379 1.400 . S
C2376 H2361 0.960 . S
C2376 H2362 0.960 . S
C2376 H2363 0.960 . S
C2376 C2375 1.524 . S
C2377 C2374 1.403 . S
C2377 C2378 1.392 . S
C2377 C2381 1.495 . S
C2378 C2377 1.392 . S
C2378 C2379 1.385 . S
C2378 C2380 1.478 . S
C2379 H2373 0.930 . S
C2379 C2375 1.400 . S
C2379 C2378 1.385 . S
C2380 C2378 1.478 . S
C2380 C2382 1.381 . S
C2380 C2386 1.383 . S
C2381 C2377 1.495 . S
C2381 H2387 0.959 . S
C2381 H2388 0.961 . S
C2381 H2389 0.960 . S
C2382 C2380 1.381 . S
C2382 C2383 1.394 . S
C2382 H2390 0.930 . S
C2383 C2382 1.394 . S
C2383 C2384 1.383 . S
C2383 H2391 0.929 . S
C2384 C2383 1.383 . S
C2384 C2385 1.377 . S
C2385 H2369 0.930 . S
C2385 C2384 1.377 . S
C2385 C2386 1.379 . S
C2386 H2370 0.931 . S
C2386 C2380 1.383 . S
C2386 C2385 1.379 . S
H2387 C2381 0.959 . S
H2388 C2381 0.961 . S
H2389 C2381 0.960 . S
H2390 C2382 0.930 . S
H2391 C2383 0.929 . S
H2392 C2400 0.929 . S
H2393 C2402 0.930 . S
H2394 C2404 0.930 . S
H2395 C2407 0.929 . S
H2396 C2410 0.930 . S
H2397 C2412 0.960 . S
H2398 C2412 0.960 . S
H2399 C2412 0.960 . S
C2400 H2392 0.929 . S
C2400 C2401 1.377 1_556 S
C2400 C2402 1.384 . S
C2401 C2400 1.377 1_554 S
C2401 C2407 1.390 . S
C2402 H2393 0.930 . S
C2402 C2400 1.384 . S
C2402 C2403 1.372 . S
C2403 C2402 1.372 . S
C2403 C2404 1.400 1_556 S
C2403 C2408 1.490 . S
C2404 H2394 0.930 . S
C2404 C2403 1.400 1_554 S
C2404 C2407 1.386 . S
H2405 C2421 0.930 . S
H2406 C2422 0.931 1_554 S
C2407 H2395 0.929 . S
C2407 C2401 1.390 . S
C2407 C2404 1.386 . S
C2408 C2403 1.490 . S
C2408 C2410 1.395 . S
C2408 C2411 1.403 1_556 S
H2409 C2415 0.930 1_554 S
C2410 H2396 0.930 . S
C2410 C2408 1.395 . S
C2410 C2413 1.403 . S
C2411 C2408 1.403 1_554 S
C2411 C2412 1.524 . S
C2411 C2415 1.400 1_554 S
C2412 H2397 0.960 . S
C2412 H2398 0.960 . S
C2412 H2399 0.960 . S
C2412 C2411 1.524 . S
C2413 C2410 1.403 . S
C2413 C2414 1.392 . S
C2413 C2417 1.495 . S
C2414 C2413 1.392 . S
C2414 C2415 1.385 . S
C2414 C2416 1.478 . S
C2415 H2409 0.930 1_556 S
C2415 C2411 1.400 1_556 S
C2415 C2414 1.385 . S
C2416 C2414 1.478 . S
C2416 C2418 1.381 . S
C2416 C2422 1.383 . S
C2417 C2413 1.495 . S
C2417 H2423 0.959 . S
C2417 H2424 0.961 . S
C2417 H2425 0.960 . S
C2418 C2416 1.381 . S
C2418 C2419 1.394 . S
C2418 H2426 0.930 . S
C2419 C2418 1.394 . S
C2419 C2420 1.383 . S
C2419 H2427 0.929 . S
C2420 C2419 1.383 . S
C2420 C2421 1.377 . S
C2421 H2405 0.930 . S
C2421 C2420 1.377 . S
C2421 C2422 1.379 . S
C2422 H2406 0.931 1_556 S
C2422 C2416 1.383 . S
C2422 C2421 1.379 . S
H2423 C2417 0.959 . S
H2424 C2417 0.961 . S
H2425 C2417 0.960 . S
H2426 C2418 0.930 . S
H2427 C2419 0.929 . S
H2428 C2436 0.929 . S
H2429 C2438 0.930 . S
H2430 C2440 0.930 . S
H2431 C2443 0.929 . S
H2432 C2446 0.930 . S
H2433 C2448 0.960 . S
H2434 C2448 0.960 . S
H2435 C2448 0.960 . S
C2436 H2428 0.929 . S
C2436 C2437 1.377 . S
C2436 C2438 1.384 . S
C2437 C2436 1.377 . S
C2437 C2443 1.390 . S
C2438 H2429 0.930 . S
C2438 C2436 1.384 . S
C2438 C2439 1.372 . S
C2439 C2438 1.372 . S
C2439 C2440 1.400 . S
C2439 C2444 1.490 . S
C2440 H2430 0.930 . S
C2440 C2439 1.400 . S
C2440 C2443 1.386 . S
H2441 C2457 0.930 . S
H2442 C2458 0.931 . S
C2443 H2431 0.929 . S
C2443 C2437 1.390 . S
C2443 C2440 1.386 . S
C2444 C2439 1.490 . S
C2444 C2446 1.395 . S
C2444 C2447 1.403 . S
H2445 C2451 0.930 1_556 S
C2446 H2432 0.930 . S
C2446 C2444 1.395 . S
C2446 C2449 1.403 . S
C2447 C2444 1.403 . S
C2447 C2448 1.524 1_554 S
C2447 C2451 1.400 . S
C2448 H2433 0.960 . S
C2448 H2434 0.960 . S
C2448 H2435 0.960 . S
C2448 C2447 1.524 1_556 S
C2449 C2446 1.403 . S
C2449 C2450 1.392 . S
C2449 C2453 1.495 . S
C2450 C2449 1.392 . S
C2450 C2451 1.385 . S
C2450 C2452 1.478 . S
C2451 H2445 0.930 1_554 S
C2451 C2447 1.400 . S
C2451 C2450 1.385 . S
C2452 C2450 1.478 . S
C2452 C2454 1.381 . S
C2452 C2458 1.383 . S
C2453 C2449 1.495 . S
C2453 H2459 0.959 . S
C2453 H2460 0.961 . S
C2453 H2461 0.960 . S
C2454 C2452 1.381 . S
C2454 C2455 1.394 . S
C2454 H2462 0.930 . S
C2455 C2454 1.394 . S
C2455 C2456 1.383 . S
C2455 H2463 0.929 . S
C2456 C2455 1.383 . S
C2456 C2457 1.377 . S
C2457 H2441 0.930 . S
C2457 C2456 1.377 . S
C2457 C2458 1.379 . S
C2458 H2442 0.931 . S
C2458 C2452 1.383 . S
C2458 C2457 1.379 . S
H2459 C2453 0.959 . S
H2460 C2453 0.961 . S
H2461 C2453 0.960 . S
H2462 C2454 0.930 . S
H2463 C2455 0.929 . S
H2464 C2472 0.929 . S
H2465 C2474 0.930 . S
H2466 C2476 0.930 . S
H2467 C2479 0.929 . S
H2468 C2482 0.930 . S
H2469 C2484 0.960 . S
H2470 C2484 0.960 . S
H2471 C2484 0.960 . S
C2472 H2464 0.929 . S
C2472 C2473 1.377 . S
C2472 C2474 1.384 . S
C2473 C2472 1.377 . S
C2473 C2479 1.390 . S
C2474 H2465 0.930 . S
C2474 C2472 1.384 . S
C2474 C2475 1.372 . S
C2475 C2474 1.372 . S
C2475 C2476 1.400 . S
C2475 C2480 1.490 . S
C2476 H2466 0.930 . S
C2476 C2475 1.400 . S
C2476 C2479 1.386 . S
H2477 C2493 0.930 . S
H2478 C2494 0.931 . S
C2479 H2467 0.929 . S
C2479 C2473 1.390 . S
C2479 C2476 1.386 . S
C2480 C2475 1.490 . S
C2480 C2482 1.395 . S
C2480 C2483 1.403 . S
H2481 C2487 0.930 . S
C2482 H2468 0.930 . S
C2482 C2480 1.395 . S
C2482 C2485 1.403 . S
C2483 C2480 1.403 . S
C2483 C2484 1.524 . S
C2483 C2487 1.400 . S
C2484 H2469 0.960 . S
C2484 H2470 0.960 . S
C2484 H2471 0.960 . S
C2484 C2483 1.524 . S
C2485 C2482 1.403 . S
C2485 C2486 1.392 . S
C2485 C2489 1.495 . S
C2486 C2485 1.392 . S
C2486 C2487 1.385 . S
C2486 C2488 1.478 . S
C2487 H2481 0.930 . S
C2487 C2483 1.400 . S
C2487 C2486 1.385 . S
C2488 C2486 1.478 . S
C2488 C2490 1.381 . S
C2488 C2494 1.383 . S
C2489 C2485 1.495 . S
C2489 H2495 0.959 . S
C2489 H2496 0.961 . S
C2489 H2497 0.960 . S
C2490 C2488 1.381 . S
C2490 C2491 1.394 . S
C2490 H2498 0.930 . S
C2491 C2490 1.394 . S
C2491 C2492 1.383 . S
C2491 H2499 0.929 . S
C2492 C2491 1.383 . S
C2492 C2493 1.377 . S
C2493 H2477 0.930 . S
C2493 C2492 1.377 . S
C2493 C2494 1.379 . S
C2494 H2478 0.931 . S
C2494 C2488 1.383 . S
C2494 C2493 1.379 . S
H2495 C2489 0.959 . S
H2496 C2489 0.961 . S
H2497 C2489 0.960 . S
H2498 C2490 0.930 . S
H2499 C2491 0.929 . S
H2500 C2508 0.929 . S
H2501 C2510 0.930 . S
H2502 C2512 0.930 . S
H2503 C2515 0.929 . S
H2504 C2518 0.930 . S
H2505 C2520 0.960 . S
H2506 C2520 0.960 . S
H2507 C2520 0.960 . S
C2508 H2500 0.929 . S
C2508 C2509 1.377 . S
C2508 C2510 1.384 . S
C2509 C2508 1.377 . S
C2509 C2515 1.390 . S
C2510 H2501 0.930 . S
C2510 C2508 1.384 . S
C2510 C2511 1.372 . S
C2511 C2510 1.372 . S
C2511 C2512 1.400 . S
C2511 C2516 1.490 . S
C2512 H2502 0.930 . S
C2512 C2511 1.400 . S
C2512 C2515 1.386 . S
H2513 C2529 0.930 . S
H2514 C2530 0.931 . S
C2515 H2503 0.929 . S
C2515 C2509 1.390 . S
C2515 C2512 1.386 . S
C2516 C2511 1.490 . S
C2516 C2518 1.395 . S
C2516 C2519 1.403 . S
H2517 C2523 0.930 . S
C2518 H2504 0.930 . S
C2518 C2516 1.395 . S
C2518 C2521 1.403 . S
C2519 C2516 1.403 . S
C2519 C2520 1.524 . S
C2519 C2523 1.400 . S
C2520 H2505 0.960 . S
C2520 H2506 0.960 . S
C2520 H2507 0.960 . S
C2520 C2519 1.524 . S
C2521 C2518 1.403 . S
C2521 C2522 1.392 . S
C2521 C2525 1.495 . S
C2522 C2521 1.392 . S
C2522 C2523 1.385 . S
C2522 C2524 1.478 . S
C2523 H2517 0.930 . S
C2523 C2519 1.400 . S
C2523 C2522 1.385 . S
C2524 C2522 1.478 . S
C2524 C2526 1.381 . S
C2524 C2530 1.383 . S
C2525 C2521 1.495 . S
C2525 H2531 0.959 . S
C2525 H2532 0.961 . S
C2525 H2533 0.960 . S
C2526 C2524 1.381 . S
C2526 C2527 1.394 . S
C2526 H2534 0.930 . S
C2527 C2526 1.394 . S
C2527 C2528 1.383 . S
C2527 H2535 0.929 . S
C2528 C2527 1.383 . S
C2528 C2529 1.377 . S
C2529 H2513 0.930 . S
C2529 C2528 1.377 . S
C2529 C2530 1.379 . S
C2530 H2514 0.931 . S
C2530 C2524 1.383 . S
C2530 C2529 1.379 . S
H2531 C2525 0.959 . S
H2532 C2525 0.961 . S
H2533 C2525 0.960 . S
H2534 C2526 0.930 . S
H2535 C2527 0.929 . S
H2536 C2544 0.929 . S
H2537 C2546 0.930 . S
H2538 C2548 0.923 . S
H2539 C2551 0.929 . S
H2540 C2554 0.930 . S
H2541 C2556 0.960 . S
H2542 C2556 0.960 . S
H2543 C2556 0.960 . S
C2544 H2536 0.929 . S
C2544 C2545 1.377 1_565 S
C2544 C2546 1.384 . S
C2545 C2544 1.377 1_545 S
C2545 C2551 1.390 . S
C2546 H2537 0.930 . S
C2546 C2544 1.384 . S
C2546 C2547 1.372 . S
C2547 C2546 1.372 . S
C2547 C2548 1.400 . S
C2547 C2552 1.490 . S
C2548 H2538 0.923 . S
C2548 C2547 1.400 . S
C2548 C2551 1.386 1_565 S
H2549 C2565 0.930 . S
H2550 C2566 0.931 . S
C2551 H2539 0.929 . S
C2551 C2545 1.390 . S
C2551 C2548 1.386 1_545 S
C2552 C2547 1.490 . S
C2552 C2554 1.395 . S
C2552 C2555 1.403 . S
H2553 C2559 0.930 . S
C2554 H2540 0.930 . S
C2554 C2552 1.395 . S
C2554 C2557 1.403 . S
C2555 C2552 1.403 . S
C2555 C2556 1.524 . S
C2555 C2559 1.400 . S
C2556 H2541 0.960 . S
C2556 H2542 0.960 . S
C2556 H2543 0.960 . S
C2556 C2555 1.524 . S
C2557 C2554 1.403 . S
C2557 C2558 1.392 . S
C2557 C2561 1.495 . S
C2558 C2557 1.392 . S
C2558 C2559 1.385 . S
C2558 C2560 1.478 . S
C2559 H2553 0.930 . S
C2559 C2555 1.400 . S
C2559 C2558 1.385 . S
C2560 C2558 1.478 . S
C2560 C2562 1.381 . S
C2560 C2566 1.383 . S
C2561 C2557 1.495 . S
C2561 H2567 0.959 . S
C2561 H2568 0.961 . S
C2561 H2569 0.960 . S
C2562 C2560 1.381 . S
C2562 C2563 1.394 . S
C2562 H2570 0.930 . S
C2563 C2562 1.394 . S
C2563 C2564 1.383 . S
C2563 H2571 0.929 . S
C2564 C2563 1.383 . S
C2564 C2565 1.377 . S
C2565 H2549 0.930 . S
C2565 C2564 1.377 . S
C2565 C2566 1.379 . S
C2566 H2550 0.931 . S
C2566 C2560 1.383 . S
C2566 C2565 1.379 . S
H2567 C2561 0.959 . S
H2568 C2561 0.961 . S
H2569 C2561 0.960 . S
H2570 C2562 0.930 . S
H2571 C2563 0.929 . S
H2572 C2580 0.929 . S
H2573 C2582 0.930 . S
H2574 C2584 0.930 . S
H2575 C2587 0.929 . S
H2576 C2590 0.930 . S
H2577 C2592 0.960 . S
H2578 C2592 0.960 . S
H2579 C2592 0.960 . S
C2580 H2572 0.929 . S
C2580 C2581 1.377 . S
C2580 C2582 1.384 . S
C2581 C2580 1.377 . S
C2581 C2587 1.390 . S
C2582 H2573 0.930 . S
C2582 C2580 1.384 . S
C2582 C2583 1.372 . S
C2583 C2582 1.372 . S
C2583 C2584 1.400 . S
C2583 C2588 1.490 . S
C2584 H2574 0.930 . S
C2584 C2583 1.400 . S
C2584 C2587 1.386 . S
H2585 C2601 0.930 . S
H2586 C2602 0.931 . S
C2587 H2575 0.929 . S
C2587 C2581 1.390 . S
C2587 C2584 1.386 . S
C2588 C2583 1.490 . S
C2588 C2590 1.395 . S
C2588 C2591 1.403 . S
H2589 C2595 0.930 . S
C2590 H2576 0.930 . S
C2590 C2588 1.395 . S
C2590 C2593 1.403 . S
C2591 C2588 1.403 . S
C2591 C2592 1.524 . S
C2591 C2595 1.400 . S
C2592 H2577 0.960 . S
C2592 H2578 0.960 . S
C2592 H2579 0.960 . S
C2592 C2591 1.524 . S
C2593 C2590 1.403 . S
C2593 C2594 1.392 . S
C2593 C2597 1.495 . S
C2594 C2593 1.392 . S
C2594 C2595 1.385 . S
C2594 C2596 1.478 . S
C2595 H2589 0.930 . S
C2595 C2591 1.400 . S
C2595 C2594 1.385 . S
C2596 C2594 1.478 . S
C2596 C2598 1.381 . S
C2596 C2602 1.383 . S
C2597 C2593 1.495 . S
C2597 H2603 0.959 . S
C2597 H2604 0.961 . S
C2597 H2605 0.960 . S
C2598 C2596 1.381 . S
C2598 C2599 1.394 . S
C2598 H2606 0.930 . S
C2599 C2598 1.394 . S
C2599 C2600 1.383 . S
C2599 H2607 0.929 . S
C2600 C2599 1.383 . S
C2600 C2601 1.377 . S
C2601 H2585 0.930 . S
C2601 C2600 1.377 . S
C2601 C2602 1.379 . S
C2602 H2586 0.931 . S
C2602 C2596 1.383 . S
C2602 C2601 1.379 . S
H2603 C2597 0.959 . S
H2604 C2597 0.961 . S
H2605 C2597 0.960 . S
H2606 C2598 0.930 . S
H2607 C2599 0.929 . S
H2608 C2616 0.929 . S
H2609 C2618 0.930 . S
H2610 C2620 0.930 . S
H2611 C2623 0.929 . S
H2612 C2626 0.930 . S
H2613 C2628 0.960 . S
H2614 C2628 0.960 . S
H2615 C2628 0.960 . S
C2616 H2608 0.929 . S
C2616 C2617 1.377 . S
C2616 C2618 1.384 . S
C2617 C2616 1.377 . S
C2617 C2623 1.390 . S
C2618 H2609 0.930 . S
C2618 C2616 1.384 . S
C2618 C2619 1.372 . S
C2619 C2618 1.372 . S
C2619 C2620 1.400 . S
C2619 C2624 1.490 . S
C2620 H2610 0.930 . S
C2620 C2619 1.400 . S
C2620 C2623 1.386 . S
H2621 C2637 0.930 . S
H2622 C2638 0.931 . S
C2623 H2611 0.929 . S
C2623 C2617 1.390 . S
C2623 C2620 1.386 . S
C2624 C2619 1.490 . S
C2624 C2626 1.395 . S
C2624 C2627 1.403 . S
H2625 C2631 0.930 . S
C2626 H2612 0.930 . S
C2626 C2624 1.395 . S
C2626 C2629 1.403 . S
C2627 C2624 1.403 . S
C2627 C2628 1.524 . S
C2627 C2631 1.400 . S
C2628 H2613 0.960 . S
C2628 H2614 0.960 . S
C2628 H2615 0.960 . S
C2628 C2627 1.524 . S
C2629 C2626 1.403 . S
C2629 C2630 1.392 . S
C2629 C2633 1.495 . S
C2630 C2629 1.392 . S
C2630 C2631 1.385 . S
C2630 C2632 1.478 . S
C2631 H2625 0.930 . S
C2631 C2627 1.400 . S
C2631 C2630 1.385 . S
C2632 C2630 1.478 . S
C2632 C2634 1.381 . S
C2632 C2638 1.383 . S
C2633 C2629 1.495 . S
C2633 H2639 0.959 . S
C2633 H2640 0.961 . S
C2633 H2641 0.960 . S
C2634 C2632 1.381 . S
C2634 C2635 1.394 . S
C2634 H2642 0.930 . S
C2635 C2634 1.394 . S
C2635 C2636 1.383 . S
C2635 H2643 0.929 . S
C2636 C2635 1.383 . S
C2636 C2637 1.377 . S
C2637 H2621 0.930 . S
C2637 C2636 1.377 . S
C2637 C2638 1.379 . S
C2638 H2622 0.931 . S
C2638 C2632 1.383 . S
C2638 C2637 1.379 . S
H2639 C2633 0.959 . S
H2640 C2633 0.961 . S
H2641 C2633 0.960 . S
H2642 C2634 0.930 . S
H2643 C2635 0.929 . S
H2644 C2652 0.929 . S
H2645 C2654 0.930 . S
H2646 C2656 0.930 . S
H2647 C2659 0.929 . S
H2648 C2662 0.930 . S
H2649 C2664 0.960 . S
H2650 C2664 0.960 . S
H2651 C2664 0.960 . S
C2652 H2644 0.929 . S
C2652 C2653 1.377 . S
C2652 C2654 1.384 . S
C2653 C2652 1.377 . S
C2653 C2659 1.390 . S
C2654 H2645 0.930 . S
C2654 C2652 1.384 . S
C2654 C2655 1.372 . S
C2655 C2654 1.372 . S
C2655 C2656 1.400 . S
C2655 C2660 1.490 . S
C2656 H2646 0.930 . S
C2656 C2655 1.400 . S
C2656 C2659 1.386 . S
H2657 C2673 0.930 . S
H2658 C2674 0.931 . S
C2659 H2647 0.929 . S
C2659 C2653 1.390 . S
C2659 C2656 1.386 . S
C2660 C2655 1.490 . S
C2660 C2662 1.395 . S
C2660 C2663 1.403 . S
H2661 C2667 0.930 . S
C2662 H2648 0.930 . S
C2662 C2660 1.395 . S
C2662 C2665 1.403 . S
C2663 C2660 1.403 . S
C2663 C2664 1.524 . S
C2663 C2667 1.400 . S
C2664 H2649 0.960 . S
C2664 H2650 0.960 . S
C2664 H2651 0.960 . S
C2664 C2663 1.524 . S
C2665 C2662 1.403 . S
C2665 C2666 1.392 . S
C2665 C2669 1.495 . S
C2666 C2665 1.392 . S
C2666 C2667 1.385 . S
C2666 C2668 1.478 . S
C2667 H2661 0.930 . S
C2667 C2663 1.400 . S
C2667 C2666 1.385 . S
C2668 C2666 1.478 . S
C2668 C2670 1.381 . S
C2668 C2674 1.383 . S
C2669 C2665 1.495 . S
C2669 H2675 0.959 . S
C2669 H2676 0.961 . S
C2669 H2677 0.960 . S
C2670 C2668 1.381 . S
C2670 C2671 1.394 . S
C2670 H2678 0.930 . S
C2671 C2670 1.394 . S
C2671 C2672 1.383 . S
C2671 H2679 0.929 . S
C2672 C2671 1.383 . S
C2672 C2673 1.377 . S
C2673 H2657 0.930 . S
C2673 C2672 1.377 . S
C2673 C2674 1.379 . S
C2674 H2658 0.931 . S
C2674 C2668 1.383 . S
C2674 C2673 1.379 . S
H2675 C2669 0.959 . S
H2676 C2669 0.961 . S
H2677 C2669 0.960 . S
H2678 C2670 0.930 . S
H2679 C2671 0.929 . S
H2680 C2688 0.929 . S
H2681 C2690 0.930 . S
H2682 C2692 0.930 . S
H2683 C2695 0.929 . S
H2684 C2698 0.930 . S
H2685 C2700 0.960 . S
H2686 C2700 0.960 . S
H2687 C2700 0.960 . S
C2688 H2680 0.929 . S
C2688 C2689 1.377 . S
C2688 C2690 1.384 . S
C2689 C2688 1.377 . S
C2689 C2695 1.390 . S
C2690 H2681 0.930 . S
C2690 C2688 1.384 . S
C2690 C2691 1.372 . S
C2691 C2690 1.372 . S
C2691 C2692 1.400 . S
C2691 C2696 1.490 . S
C2692 H2682 0.930 . S
C2692 C2691 1.400 . S
C2692 C2695 1.386 . S
H2693 C2709 0.930 . S
H2694 C2710 0.931 . S
C2695 H2683 0.929 . S
C2695 C2689 1.390 . S
C2695 C2692 1.386 . S
C2696 C2691 1.490 . S
C2696 C2698 1.395 . S
C2696 C2699 1.403 . S
H2697 C2703 0.930 . S
C2698 H2684 0.930 . S
C2698 C2696 1.395 . S
C2698 C2701 1.403 . S
C2699 C2696 1.403 . S
C2699 C2700 1.524 . S
C2699 C2703 1.400 . S
C2700 H2685 0.960 . S
C2700 H2686 0.960 . S
C2700 H2687 0.960 . S
C2700 C2699 1.524 . S
C2701 C2698 1.403 . S
C2701 C2702 1.392 . S
C2701 C2705 1.495 . S
C2702 C2701 1.392 . S
C2702 C2703 1.385 . S
C2702 C2704 1.478 . S
C2703 H2697 0.930 . S
C2703 C2699 1.400 . S
C2703 C2702 1.385 . S
C2704 C2702 1.478 . S
C2704 C2706 1.381 . S
C2704 C2710 1.383 . S
C2705 C2701 1.495 . S
C2705 H2711 0.959 . S
C2705 H2712 0.961 . S
C2705 H2713 0.960 . S
C2706 C2704 1.381 . S
C2706 C2707 1.394 . S
C2706 H2714 0.930 . S
C2707 C2706 1.394 . S
C2707 C2708 1.383 . S
C2707 H2715 0.929 . S
C2708 C2707 1.383 . S
C2708 C2709 1.377 . S
C2709 H2693 0.930 . S
C2709 C2708 1.377 . S
C2709 C2710 1.379 . S
C2710 H2694 0.931 . S
C2710 C2704 1.383 . S
C2710 C2709 1.379 . S
H2711 C2705 0.959 . S
H2712 C2705 0.961 . S
H2713 C2705 0.960 . S
H2714 C2706 0.930 . S
H2715 C2707 0.929 . S
H2716 C2724 0.929 . S
H2717 C2726 0.930 . S
H2718 C2728 0.930 . S
H2719 C2731 0.929 . S
H2720 C2734 0.930 . S
H2721 C2736 0.960 . S
H2722 C2736 0.960 . S
H2723 C2736 0.960 . S
C2724 H2716 0.929 . S
C2724 C2725 1.377 . S
C2724 C2726 1.384 . S
C2725 C2724 1.377 . S
C2725 C2731 1.390 . S
C2726 H2717 0.930 . S
C2726 C2724 1.384 . S
C2726 C2727 1.372 . S
C2727 C2726 1.372 . S
C2727 C2728 1.400 . S
C2727 C2732 1.490 . S
C2728 H2718 0.930 . S
C2728 C2727 1.400 . S
C2728 C2731 1.386 . S
H2729 C2745 0.930 . S
H2730 C2746 0.931 . S
C2731 H2719 0.929 . S
C2731 C2725 1.390 . S
C2731 C2728 1.386 . S
C2732 C2727 1.490 . S
C2732 C2734 1.395 . S
C2732 C2735 1.403 . S
H2733 C2739 0.930 . S
C2734 H2720 0.930 . S
C2734 C2732 1.395 . S
C2734 C2737 1.403 . S
C2735 C2732 1.403 . S
C2735 C2736 1.524 . S
C2735 C2739 1.400 . S
C2736 H2721 0.960 . S
C2736 H2722 0.960 . S
C2736 H2723 0.960 . S
C2736 C2735 1.524 . S
C2737 C2734 1.403 . S
C2737 C2738 1.392 . S
C2737 C2741 1.495 . S
C2738 C2737 1.392 . S
C2738 C2739 1.385 . S
C2738 C2740 1.478 . S
C2739 H2733 0.930 . S
C2739 C2735 1.400 . S
C2739 C2738 1.385 . S
C2740 C2738 1.478 . S
C2740 C2742 1.381 . S
C2740 C2746 1.383 . S
C2741 C2737 1.495 . S
C2741 H2747 0.959 . S
C2741 H2748 0.961 . S
C2741 H2749 0.960 . S
C2742 C2740 1.381 . S
C2742 C2743 1.394 . S
C2742 H2750 0.930 . S
C2743 C2742 1.394 . S
C2743 C2744 1.383 . S
C2743 H2751 0.929 . S
C2744 C2743 1.383 . S
C2744 C2745 1.377 . S
C2745 H2729 0.930 . S
C2745 C2744 1.377 . S
C2745 C2746 1.379 . S
C2746 H2730 0.931 . S
C2746 C2740 1.383 . S
C2746 C2745 1.379 . S
H2747 C2741 0.959 . S
H2748 C2741 0.961 . S
H2749 C2741 0.960 . S
H2750 C2742 0.930 . S
H2751 C2743 0.929 . S
H2752 C2760 0.929 . S
H2753 C2762 0.930 . S
H2754 C2764 0.930 . S
H2755 C2767 0.929 . S
H2756 C2770 0.947 . S
H2757 C2772 0.960 . S
H2758 C2772 0.960 . S
H2759 C2772 0.960 . S
C2760 H2752 0.929 . S
C2760 C2761 1.377 . S
C2760 C2762 1.384 . S
C2761 C2760 1.377 . S
C2761 C2767 1.390 . S
C2762 H2753 0.930 . S
C2762 C2760 1.384 . S
C2762 C2763 1.372 . S
C2763 C2762 1.372 . S
C2763 C2764 1.400 . S
C2763 C2768 1.490 . S
C2764 H2754 0.930 . S
C2764 C2763 1.400 . S
C2764 C2767 1.386 . S
H2765 C2781 0.930 . S
H2766 C2782 0.954 . S
C2767 H2755 0.929 . S
C2767 C2761 1.390 . S
C2767 C2764 1.386 . S
C2768 C2763 1.490 . S
C2768 C2770 1.395 . S
C2768 C2771 1.403 . S
H2769 C2775 0.930 . S
C2770 H2756 0.947 . S
C2770 C2768 1.395 . S
C2770 C2773 1.403 . S
C2771 C2768 1.403 . S
C2771 C2772 1.524 . S
C2771 C2775 1.400 . S
C2772 H2757 0.960 . S
C2772 H2758 0.960 . S
C2772 H2759 0.960 . S
C2772 C2771 1.524 . S
C2773 C2770 1.403 . S
C2773 C2774 1.392 . S
C2773 C2777 1.495 1_455 S
C2774 C2773 1.392 . S
C2774 C2775 1.385 . S
C2774 C2776 1.478 . S
C2775 H2769 0.930 . S
C2775 C2771 1.400 . S
C2775 C2774 1.385 . S
C2776 C2774 1.478 . S
C2776 C2778 1.381 . S
C2776 C2782 1.355 1_556 S
C2777 C2773 1.495 1_655 S
C2777 H2783 0.959 . S
C2777 H2784 0.961 . S
C2777 H2785 0.960 . S
C2778 C2776 1.381 . S
C2778 C2779 1.394 . S
C2778 H2786 0.930 . S
C2779 C2778 1.394 . S
C2779 C2780 1.383 . S
C2779 H2787 0.929 . S
C2780 C2779 1.383 . S
C2780 C2781 1.377 1_556 S
C2781 H2765 0.930 . S
C2781 C2780 1.377 1_554 S
C2781 C2782 1.386 . S
C2782 H2766 0.954 . S
C2782 C2776 1.355 1_554 S
C2782 C2781 1.386 . S
H2783 C2777 0.959 . S
H2784 C2777 0.961 . S
H2785 C2777 0.960 . S
H2786 C2778 0.930 . S
H2787 C2779 0.929 . S
H2788 C2796 0.929 . S
H2789 C2798 0.930 . S
H2790 C2800 0.930 . S
H2791 C2803 0.929 . S
H2792 C2806 0.930 . S
H2793 C2808 0.960 . S
H2794 C2808 0.960 . S
H2795 C2808 0.960 . S
C2796 H2788 0.929 . S
C2796 C2797 1.377 1_655 S
C2796 C2798 1.384 . S
C2797 C2796 1.377 1_455 S
C2797 C2803 1.390 . S
C2798 H2789 0.930 . S
C2798 C2796 1.384 . S
C2798 C2799 1.372 . S
C2799 C2798 1.372 . S
C2799 C2800 1.400 . S
C2799 C2804 1.490 . S
C2800 H2790 0.930 . S
C2800 C2799 1.400 . S
C2800 C2803 1.386 1_655 S
H2801 C2817 0.930 . S
H2802 C2818 0.931 . S
C2803 H2791 0.929 . S
C2803 C2797 1.390 . S
C2803 C2800 1.386 1_455 S
C2804 C2799 1.490 . S
C2804 C2806 1.395 . S
C2804 C2807 1.403 . S
H2805 C2811 0.930 . S
C2806 H2792 0.930 . S
C2806 C2804 1.395 . S
C2806 C2809 1.403 . S
C2807 C2804 1.403 . S
C2807 C2808 1.524 . S
C2807 C2811 1.400 . S
C2808 H2793 0.960 . S
C2808 H2794 0.960 . S
C2808 H2795 0.960 . S
C2808 C2807 1.524 . S
C2809 C2806 1.403 . S
C2809 C2810 1.392 . S
C2809 C2813 1.495 . S
C2810 C2809 1.392 . S
C2810 C2811 1.385 . S
C2810 C2812 1.478 . S
C2811 H2805 0.930 . S
C2811 C2807 1.400 . S
C2811 C2810 1.385 . S
C2812 C2810 1.478 . S
C2812 C2814 1.381 . S
C2812 C2818 1.383 . S
C2813 C2809 1.495 . S
C2813 H2819 0.959 . S
C2813 H2820 0.961 . S
C2813 H2821 0.960 . S
C2814 C2812 1.381 . S
C2814 C2815 1.394 . S
C2814 H2822 0.930 . S
C2815 C2814 1.394 . S
C2815 C2816 1.383 . S
C2815 H2823 0.929 . S
C2816 C2815 1.383 . S
C2816 C2817 1.377 . S
C2817 H2801 0.930 . S
C2817 C2816 1.377 . S
C2817 C2818 1.379 . S
C2818 H2802 0.931 . S
C2818 C2812 1.383 . S
C2818 C2817 1.379 . S
H2819 C2813 0.959 . S
H2820 C2813 0.961 . S
H2821 C2813 0.960 . S
H2822 C2814 0.930 . S
H2823 C2815 0.929 . S
H2824 C2832 0.929 . S
H2825 C2834 0.930 . S
H2826 C2836 0.930 . S
H2827 C2839 0.929 . S
H2828 C2842 0.930 . S
H2829 C2844 0.960 . S
H2830 C2844 0.960 . S
H2831 C2844 0.960 . S
C2832 H2824 0.929 . S
C2832 C2833 1.377 . S
C2832 C2834 1.384 . S
C2833 C2832 1.377 . S
C2833 C2839 1.390 . S
C2834 H2825 0.930 . S
C2834 C2832 1.384 . S
C2834 C2835 1.372 . S
C2835 C2834 1.372 . S
C2835 C2836 1.400 . S
C2835 C2840 1.490 . S
C2836 H2826 0.930 . S
C2836 C2835 1.400 . S
C2836 C2839 1.386 . S
H2837 C2853 0.930 . S
H2838 C2854 0.931 . S
C2839 H2827 0.929 . S
C2839 C2833 1.390 . S
C2839 C2836 1.386 . S
C2840 C2835 1.490 . S
C2840 C2842 1.395 . S
C2840 C2843 1.403 . S
H2841 C2847 0.930 . S
C2842 H2828 0.930 . S
C2842 C2840 1.395 . S
C2842 C2845 1.403 . S
C2843 C2840 1.403 . S
C2843 C2844 1.524 . S
C2843 C2847 1.400 . S
C2844 H2829 0.960 . S
C2844 H2830 0.960 . S
C2844 H2831 0.960 . S
C2844 C2843 1.524 . S
C2845 C2842 1.403 . S
C2845 C2846 1.392 . S
C2845 C2849 1.495 . S
C2846 C2845 1.392 . S
C2846 C2847 1.385 . S
C2846 C2848 1.478 . S
C2847 H2841 0.930 . S
C2847 C2843 1.400 . S
C2847 C2846 1.385 . S
C2848 C2846 1.478 . S
C2848 C2850 1.381 . S
C2848 C2854 1.383 . S
C2849 C2845 1.495 . S
C2849 H2855 0.959 . S
C2849 H2856 0.961 . S
C2849 H2857 0.960 . S
C2850 C2848 1.381 . S
C2850 C2851 1.394 . S
C2850 H2858 0.930 . S
C2851 C2850 1.394 . S
C2851 C2852 1.383 . S
C2851 H2859 0.929 . S
C2852 C2851 1.383 . S
C2852 C2853 1.377 . S
C2853 H2837 0.930 . S
C2853 C2852 1.377 . S
C2853 C2854 1.379 . S
C2854 H2838 0.931 . S
C2854 C2848 1.383 . S
C2854 C2853 1.379 . S
H2855 C2849 0.959 . S
H2856 C2849 0.961 . S
H2857 C2849 0.960 . S
H2858 C2850 0.930 . S
H2859 C2851 0.929 . S
H2860 C2868 0.929 . S
H2861 C2870 0.930 1_655 S
H2862 C2872 0.930 . S
H2863 C2875 0.929 . S
H2864 C2878 0.930 . S
H2865 C2880 0.960 . S
H2866 C2880 0.960 . S
H2867 C2880 0.960 1_455 S
C2868 H2860 0.929 . S
C2868 C2869 1.377 . S
C2868 C2870 1.384 . S
C2869 C2868 1.377 . S
C2869 C2875 1.390 . S
C2870 H2861 0.930 1_455 S
C2870 C2868 1.384 . S
C2870 C2871 1.372 . S
C2871 C2870 1.372 . S
C2871 C2872 1.400 . S
C2871 C2876 1.490 1_455 S
C2872 H2862 0.930 . S
C2872 C2871 1.400 . S
C2872 C2875 1.386 . S
H2873 C2889 0.930 . S
H2874 C2890 0.931 . S
C2875 H2863 0.929 . S
C2875 C2869 1.390 . S
C2875 C2872 1.386 . S
C2876 C2871 1.490 1_655 S
C2876 C2878 1.395 . S
C2876 C2879 1.403 . S
H2877 C2883 0.930 . S
C2878 H2864 0.930 . S
C2878 C2876 1.395 . S
C2878 C2881 1.403 . S
C2879 C2876 1.403 . S
C2879 C2880 1.524 . S
C2879 C2883 1.400 . S
C2880 H2865 0.960 . S
C2880 H2866 0.960 . S
C2880 H2867 0.960 1_655 S
C2880 C2879 1.524 . S
C2881 C2878 1.403 . S
C2881 C2882 1.392 . S
C2881 C2885 1.495 . S
C2882 C2881 1.392 . S
C2882 C2883 1.385 . S
C2882 C2884 1.478 . S
C2883 H2877 0.930 . S
C2883 C2879 1.400 . S
C2883 C2882 1.385 . S
C2884 C2882 1.478 . S
C2884 C2886 1.381 . S
C2884 C2890 1.383 . S
C2885 C2881 1.495 . S
C2885 H2891 0.959 . S
C2885 H2892 0.961 . S
C2885 H2893 0.960 . S
C2886 C2884 1.381 . S
C2886 C2887 1.394 . S
C2886 H2894 0.930 . S
C2887 C2886 1.394 . S
C2887 C2888 1.383 . S
C2887 H2895 0.929 . S
C2888 C2887 1.383 . S
C2888 C2889 1.377 . S
C2889 H2873 0.930 . S
C2889 C2888 1.377 . S
C2889 C2890 1.379 . S
C2890 H2874 0.931 . S
C2890 C2884 1.383 . S
C2890 C2889 1.379 . S
H2891 C2885 0.959 . S
H2892 C2885 0.961 . S
H2893 C2885 0.960 . S
H2894 C2886 0.930 . S
H2895 C2887 0.929 . S
H2896 C2904 0.929 . S
H2897 C2906 0.930 . S
H2898 C2908 0.930 . S
H2899 C2911 0.929 . S
H2900 C2914 0.930 . S
H2901 C2916 0.960 . S
H2902 C2916 0.960 . S
H2903 C2916 0.960 . S
C2904 H2896 0.929 . S
C2904 C2905 1.377 1_455 S
C2904 C2906 1.384 . S
C2905 C2904 1.377 1_655 S
C2905 C2911 1.390 . S
C2906 H2897 0.930 . S
C2906 C2904 1.384 . S
C2906 C2907 1.372 . S
C2907 C2906 1.372 . S
C2907 C2908 1.400 1_455 S
C2907 C2912 1.490 . S
C2908 H2898 0.930 . S
C2908 C2907 1.400 1_655 S
C2908 C2911 1.386 . S
H2909 C2925 0.930 . S
H2910 C2926 0.931 . S
C2911 H2899 0.929 . S
C2911 C2905 1.390 . S
C2911 C2908 1.386 . S
C2912 C2907 1.490 . S
C2912 C2914 1.395 . S
C2912 C2915 1.403 . S
H2913 C2919 0.929 1_655 S
C2914 H2900 0.930 . S
C2914 C2912 1.395 . S
C2914 C2917 1.403 . S
C2915 C2912 1.403 . S
C2915 C2916 1.524 1_455 S
C2915 C2919 1.400 . S
C2916 H2901 0.960 . S
C2916 H2902 0.960 . S
C2916 H2903 0.960 . S
C2916 C2915 1.524 1_655 S
C2917 C2914 1.403 . S
C2917 C2918 1.392 . S
C2917 C2921 1.495 . S
C2918 C2917 1.392 . S
C2918 C2919 1.385 . S
C2918 C2920 1.478 . S
C2919 H2913 0.929 1_455 S
C2919 C2915 1.400 . S
C2919 C2918 1.385 . S
C2920 C2918 1.478 . S
C2920 C2922 1.381 . S
C2920 C2926 1.383 . S
C2921 C2917 1.495 . S
C2921 H2927 0.959 . S
C2921 H2928 0.961 . S
C2921 H2929 0.960 . S
C2922 C2920 1.381 . S
C2922 C2923 1.394 . S
C2922 H2930 0.930 . S
C2923 C2922 1.394 . S
C2923 C2924 1.383 . S
C2923 H2931 0.929 . S
C2924 C2923 1.383 . S
C2924 C2925 1.377 . S
C2925 H2909 0.930 . S
C2925 C2924 1.377 . S
C2925 C2926 1.379 . S
C2926 H2910 0.931 . S
C2926 C2920 1.383 . S
C2926 C2925 1.379 . S
H2927 C2921 0.959 . S
H2928 C2921 0.961 . S
H2929 C2921 0.960 . S
H2930 C2922 0.930 . S
H2931 C2923 0.929 . S
H2932 C2940 0.929 . S
H2933 C2942 0.930 . S
H2934 C2944 0.930 . S
H2935 C2947 0.929 . S
H2936 C2950 0.930 . S
H2937 C2952 0.960 . S
H2938 C2952 0.960 . S
H2939 C2952 0.960 . S
C2940 H2932 0.929 . S
C2940 C2941 1.377 . S
C2940 C2942 1.384 . S
C2941 C2940 1.377 . S
C2941 C2947 1.390 . S
C2942 H2933 0.930 . S
C2942 C2940 1.384 . S
C2942 C2943 1.372 . S
C2943 C2942 1.372 . S
C2943 C2944 1.400 . S
C2943 C2948 1.490 . S
C2944 H2934 0.930 . S
C2944 C2943 1.400 . S
C2944 C2947 1.386 . S
H2945 C2961 0.930 . S
H2946 C2962 0.931 . S
C2947 H2935 0.929 . S
C2947 C2941 1.390 . S
C2947 C2944 1.386 . S
C2948 C2943 1.490 . S
C2948 C2950 1.395 . S
C2948 C2951 1.403 . S
H2949 C2955 0.930 . S
C2950 H2936 0.930 . S
C2950 C2948 1.395 . S
C2950 C2953 1.403 . S
C2951 C2948 1.403 . S
C2951 C2952 1.524 . S
C2951 C2955 1.400 . S
C2952 H2937 0.960 . S
C2952 H2938 0.960 . S
C2952 H2939 0.960 . S
C2952 C2951 1.524 . S
C2953 C2950 1.403 . S
C2953 C2954 1.392 . S
C2953 C2957 1.495 . S
C2954 C2953 1.392 . S
C2954 C2955 1.385 . S
C2954 C2956 1.478 . S
C2955 H2949 0.930 . S
C2955 C2951 1.400 . S
C2955 C2954 1.385 . S
C2956 C2954 1.478 . S
C2956 C2958 1.381 . S
C2956 C2962 1.383 . S
C2957 C2953 1.495 . S
C2957 H2963 0.959 . S
C2957 H2964 0.961 . S
C2957 H2965 0.960 . S
C2958 C2956 1.381 . S
C2958 C2959 1.394 . S
C2958 H2966 0.930 . S
C2959 C2958 1.394 . S
C2959 C2960 1.383 . S
C2959 H2967 0.929 . S
C2960 C2959 1.383 . S
C2960 C2961 1.377 . S
C2961 H2945 0.930 . S
C2961 C2960 1.377 . S
C2961 C2962 1.379 . S
C2962 H2946 0.931 . S
C2962 C2956 1.383 . S
C2962 C2961 1.379 . S
H2963 C2957 0.959 . S
H2964 C2957 0.961 . S
H2965 C2957 0.960 . S
H2966 C2958 0.930 . S
H2967 C2959 0.929 . S
H2968 C2976 0.929 . S
H2969 C2978 0.930 . S
H2970 C2980 0.930 . S
H2971 C2983 0.929 . S
H2972 C2986 0.930 . S
H2973 C2988 0.960 . S
H2974 C2988 0.960 . S
H2975 C2988 0.960 . S
C2976 H2968 0.929 . S
C2976 C2977 1.377 . S
C2976 C2978 1.384 . S
C2977 C2976 1.377 . S
C2977 C2983 1.390 . S
C2978 H2969 0.930 . S
C2978 C2976 1.384 . S
C2978 C2979 1.372 . S
C2979 C2978 1.372 . S
C2979 C2980 1.400 . S
C2979 C2984 1.490 . S
C2980 H2970 0.930 . S
C2980 C2979 1.400 . S
C2980 C2983 1.386 . S
H2981 C2997 0.930 . S
H2982 C2998 0.931 . S
C2983 H2971 0.929 . S
C2983 C2977 1.390 . S
C2983 C2980 1.386 . S
C2984 C2979 1.490 . S
C2984 C2986 1.395 . S
C2984 C2987 1.403 . S
H2985 C2991 0.930 . S
C2986 H2972 0.930 . S
C2986 C2984 1.395 . S
C2986 C2989 1.403 . S
C2987 C2984 1.403 . S
C2987 C2988 1.524 . S
C2987 C2991 1.400 . S
C2988 H2973 0.960 . S
C2988 H2974 0.960 . S
C2988 H2975 0.960 . S
C2988 C2987 1.524 . S
C2989 C2986 1.403 . S
C2989 C2990 1.392 . S
C2989 C2993 1.495 . S
C2990 C2989 1.392 . S
C2990 C2991 1.385 . S
C2990 C2992 1.478 . S
C2991 H2985 0.930 . S
C2991 C2987 1.400 . S
C2991 C2990 1.385 . S
C2992 C2990 1.478 . S
C2992 C2994 1.381 . S
C2992 C2998 1.383 . S
C2993 C2989 1.495 . S
C2993 H2999 0.959 . S
C2993 H3000 0.961 . S
C2993 H3001 0.960 . S
C2994 C2992 1.381 . S
C2994 C2995 1.394 . S
C2994 H3002 0.930 . S
C2995 C2994 1.394 . S
C2995 C2996 1.383 . S
C2995 H3003 0.929 . S
C2996 C2995 1.383 . S
C2996 C2997 1.377 . S
C2997 H2981 0.930 . S
C2997 C2996 1.377 . S
C2997 C2998 1.379 . S
C2998 H2982 0.931 . S
C2998 C2992 1.383 . S
C2998 C2997 1.379 . S
H2999 C2993 0.959 . S
H3000 C2993 0.961 . S
H3001 C2993 0.960 . S
H3002 C2994 0.930 . S
H3003 C2995 0.929 . S
H3004 C3012 0.929 . S
H3005 C3014 0.930 . S
H3006 C3016 0.930 . S
H3007 C3019 0.929 . S
H3008 C3022 0.930 . S
H3009 C3024 0.960 . S
H3010 C3024 0.960 . S
H3011 C3024 0.960 . S
C3012 H3004 0.929 . S
C3012 C3013 1.377 . S
C3012 C3014 1.384 . S
C3013 C3012 1.377 . S
C3013 C3019 1.390 . S
C3014 H3005 0.930 . S
C3014 C3012 1.384 . S
C3014 C3015 1.372 . S
C3015 C3014 1.372 . S
C3015 C3016 1.400 . S
C3015 C3020 1.490 . S
C3016 H3006 0.930 . S
C3016 C3015 1.400 . S
C3016 C3019 1.386 . S
H3017 C3033 0.930 . S
H3018 C3034 0.931 . S
C3019 H3007 0.929 . S
C3019 C3013 1.390 . S
C3019 C3016 1.386 . S
C3020 C3015 1.490 . S
C3020 C3022 1.395 . S
C3020 C3023 1.403 . S
H3021 C3027 0.930 . S
C3022 H3008 0.930 . S
C3022 C3020 1.395 . S
C3022 C3025 1.403 . S
C3023 C3020 1.403 . S
C3023 C3024 1.524 . S
C3023 C3027 1.400 . S
C3024 H3009 0.960 . S
C3024 H3010 0.960 . S
C3024 H3011 0.960 . S
C3024 C3023 1.524 . S
C3025 C3022 1.403 . S
C3025 C3026 1.392 . S
C3025 C3029 1.495 . S
C3026 C3025 1.392 . S
C3026 C3027 1.385 . S
C3026 C3028 1.478 . S
C3027 H3021 0.930 . S
C3027 C3023 1.400 . S
C3027 C3026 1.385 . S
C3028 C3026 1.478 . S
C3028 C3030 1.381 . S
C3028 C3034 1.383 . S
C3029 C3025 1.495 . S
C3029 H3035 0.959 . S
C3029 H3036 0.961 . S
C3029 H3037 0.960 . S
C3030 C3028 1.381 . S
C3030 C3031 1.394 . S
C3030 H3038 0.930 . S
C3031 C3030 1.394 . S
C3031 C3032 1.383 . S
C3031 H3039 0.929 . S
C3032 C3031 1.383 . S
C3032 C3033 1.377 . S
C3033 H3017 0.930 . S
C3033 C3032 1.377 . S
C3033 C3034 1.379 . S
C3034 H3018 0.931 . S
C3034 C3028 1.383 . S
C3034 C3033 1.379 . S
H3035 C3029 0.959 . S
H3036 C3029 0.961 . S
H3037 C3029 0.960 . S
H3038 C3030 0.930 . S
H3039 C3031 0.929 . S
H3040 C3048 0.929 . S
H3041 C3050 0.930 . S
H3042 C3052 0.930 . S
H3043 C3055 0.929 . S
H3044 C3058 0.930 . S
H3045 C3060 0.960 . S
H3046 C3060 0.960 . S
H3047 C3060 0.960 . S
C3048 H3040 0.929 . S
C3048 C3049 1.377 . S
C3048 C3050 1.384 . S
C3049 C3048 1.377 . S
C3049 C3055 1.390 . S
C3050 H3041 0.930 . S
C3050 C3048 1.384 . S
C3050 C3051 1.372 . S
C3051 C3050 1.372 . S
C3051 C3052 1.400 . S
C3051 C3056 1.490 . S
C3052 H3042 0.930 . S
C3052 C3051 1.400 . S
C3052 C3055 1.386 . S
H3053 C3069 0.930 . S
H3054 C3070 0.931 . S
C3055 H3043 0.929 . S
C3055 C3049 1.390 . S
C3055 C3052 1.386 . S
C3056 C3051 1.490 . S
C3056 C3058 1.395 . S
C3056 C3059 1.403 . S
H3057 C3063 0.930 . S
C3058 H3044 0.930 . S
C3058 C3056 1.395 . S
C3058 C3061 1.403 . S
C3059 C3056 1.403 . S
C3059 C3060 1.524 . S
C3059 C3063 1.400 . S
C3060 H3045 0.960 . S
C3060 H3046 0.960 . S
C3060 H3047 0.960 . S
C3060 C3059 1.524 . S
C3061 C3058 1.403 . S
C3061 C3062 1.392 . S
C3061 C3065 1.495 . S
C3062 C3061 1.392 . S
C3062 C3063 1.385 . S
C3062 C3064 1.478 . S
C3063 H3057 0.930 . S
C3063 C3059 1.400 . S
C3063 C3062 1.385 . S
C3064 C3062 1.478 . S
C3064 C3066 1.381 . S
C3064 C3070 1.383 . S
C3065 C3061 1.495 . S
C3065 H3071 0.959 . S
C3065 H3072 0.961 . S
C3065 H3073 0.960 . S
C3066 C3064 1.381 . S
C3066 C3067 1.394 . S
C3066 H3074 0.930 . S
C3067 C3066 1.394 . S
C3067 C3068 1.383 . S
C3067 H3075 0.929 . S
C3068 C3067 1.383 . S
C3068 C3069 1.377 . S
C3069 H3053 0.930 . S
C3069 C3068 1.377 . S
C3069 C3070 1.379 . S
C3070 H3054 0.931 . S
C3070 C3064 1.383 . S
C3070 C3069 1.379 . S
H3071 C3065 0.959 . S
H3072 C3065 0.961 . S
H3073 C3065 0.960 . S
H3074 C3066 0.930 . S
H3075 C3067 0.929 . S
H3076 C3084 0.929 . S
H3077 C3086 0.930 . S
H3078 C3088 0.930 . S
H3079 C3091 0.929 . S
H3080 C3094 0.930 . S
H3081 C3096 0.960 . S
H3082 C3096 0.960 . S
H3083 C3096 0.960 . S
C3084 H3076 0.929 . S
C3084 C3085 1.377 . S
C3084 C3086 1.384 . S
C3085 C3084 1.377 . S
C3085 C3091 1.390 . S
C3086 H3077 0.930 . S
C3086 C3084 1.384 . S
C3086 C3087 1.372 . S
C3087 C3086 1.372 . S
C3087 C3088 1.400 . S
C3087 C3092 1.490 . S
C3088 H3078 0.930 . S
C3088 C3087 1.400 . S
C3088 C3091 1.386 . S
H3089 C3105 0.930 . S
H3090 C3106 0.931 . S
C3091 H3079 0.929 . S
C3091 C3085 1.390 . S
C3091 C3088 1.386 . S
C3092 C3087 1.490 . S
C3092 C3094 1.395 . S
C3092 C3095 1.403 . S
H3093 C3099 0.930 . S
C3094 H3080 0.930 . S
C3094 C3092 1.395 . S
C3094 C3097 1.403 . S
C3095 C3092 1.403 . S
C3095 C3096 1.524 . S
C3095 C3099 1.400 . S
C3096 H3081 0.960 . S
C3096 H3082 0.960 . S
C3096 H3083 0.960 . S
C3096 C3095 1.524 . S
C3097 C3094 1.403 . S
C3097 C3098 1.392 . S
C3097 C3101 1.495 . S
C3098 C3097 1.392 . S
C3098 C3099 1.385 . S
C3098 C3100 1.478 . S
C3099 H3093 0.930 . S
C3099 C3095 1.400 . S
C3099 C3098 1.385 . S
C3100 C3098 1.478 . S
C3100 C3102 1.381 . S
C3100 C3106 1.383 . S
C3101 C3097 1.495 . S
C3101 H3107 0.959 . S
C3101 H3108 0.961 . S
C3101 H3109 0.960 . S
C3102 C3100 1.381 . S
C3102 C3103 1.394 . S
C3102 H3110 0.930 . S
C3103 C3102 1.394 . S
C3103 C3104 1.383 . S
C3103 H3111 0.929 . S
C3104 C3103 1.383 . S
C3104 C3105 1.377 . S
C3105 H3089 0.930 . S
C3105 C3104 1.377 . S
C3105 C3106 1.379 . S
C3106 H3090 0.931 . S
C3106 C3100 1.383 . S
C3106 C3105 1.379 . S
H3107 C3101 0.959 . S
H3108 C3101 0.961 . S
H3109 C3101 0.960 . S
H3110 C3102 0.930 . S
H3111 C3103 0.929 . S
H3112 C3120 0.929 . S
H3113 C3122 0.930 . S
H3114 C3124 0.930 . S
H3115 C3127 0.929 . S
H3116 C3130 0.930 . S
H3117 C3132 0.960 . S
H3118 C3132 0.960 . S
H3119 C3132 0.960 . S
C3120 H3112 0.929 . S
C3120 C3121 1.377 . S
C3120 C3122 1.384 . S
C3121 C3120 1.377 . S
C3121 C3127 1.390 . S
C3122 H3113 0.930 . S
C3122 C3120 1.384 . S
C3122 C3123 1.372 . S
C3123 C3122 1.372 . S
C3123 C3124 1.400 . S
C3123 C3128 1.490 . S
C3124 H3114 0.930 . S
C3124 C3123 1.400 . S
C3124 C3127 1.386 . S
H3125 C3141 0.930 . S
H3126 C3142 0.931 . S
C3127 H3115 0.929 . S
C3127 C3121 1.390 . S
C3127 C3124 1.386 . S
C3128 C3123 1.490 . S
C3128 C3130 1.395 . S
C3128 C3131 1.403 . S
H3129 C3135 0.930 . S
C3130 H3116 0.930 . S
C3130 C3128 1.395 . S
C3130 C3133 1.403 . S
C3131 C3128 1.403 . S
C3131 C3132 1.524 . S
C3131 C3135 1.400 . S
C3132 H3117 0.960 . S
C3132 H3118 0.960 . S
C3132 H3119 0.960 . S
C3132 C3131 1.524 . S
C3133 C3130 1.403 . S
C3133 C3134 1.392 . S
C3133 C3137 1.495 . S
C3134 C3133 1.392 . S
C3134 C3135 1.385 . S
C3134 C3136 1.478 . S
C3135 H3129 0.930 . S
C3135 C3131 1.400 . S
C3135 C3134 1.385 . S
C3136 C3134 1.478 . S
C3136 C3138 1.381 . S
C3136 C3142 1.383 . S
C3137 C3133 1.495 . S
C3137 H3143 0.959 . S
C3137 H3144 0.961 . S
C3137 H3145 0.960 . S
C3138 C3136 1.381 . S
C3138 C3139 1.394 . S
C3138 H3146 0.930 . S
C3139 C3138 1.394 . S
C3139 C3140 1.383 . S
C3139 H3147 0.929 . S
C3140 C3139 1.383 . S
C3140 C3141 1.377 . S
C3141 H3125 0.930 . S
C3141 C3140 1.377 . S
C3141 C3142 1.379 . S
C3142 H3126 0.931 . S
C3142 C3136 1.383 . S
C3142 C3141 1.379 . S
H3143 C3137 0.959 . S
H3144 C3137 0.961 . S
H3145 C3137 0.960 . S
H3146 C3138 0.930 . S
H3147 C3139 0.929 . S
H3148 C3156 0.929 . S
H3149 C3158 0.930 . S
H3150 C3160 0.930 . S
H3151 C3163 0.929 . S
H3152 C3166 0.930 . S
H3153 C3168 0.960 . S
H3154 C3168 0.960 . S
H3155 C3168 0.960 . S
C3156 H3148 0.929 . S
C3156 C3157 1.377 . S
C3156 C3158 1.384 . S
C3157 C3156 1.377 . S
C3157 C3163 1.390 . S
C3158 H3149 0.930 . S
C3158 C3156 1.384 . S
C3158 C3159 1.372 . S
C3159 C3158 1.372 . S
C3159 C3160 1.400 . S
C3159 C3164 1.490 . S
C3160 H3150 0.930 . S
C3160 C3159 1.400 . S
C3160 C3163 1.386 . S
H3161 C3177 0.930 . S
H3162 C3178 0.931 . S
C3163 H3151 0.929 . S
C3163 C3157 1.390 . S
C3163 C3160 1.386 . S
C3164 C3159 1.490 . S
C3164 C3166 1.395 . S
C3164 C3167 1.403 . S
H3165 C3171 0.930 . S
C3166 H3152 0.930 . S
C3166 C3164 1.395 . S
C3166 C3169 1.403 . S
C3167 C3164 1.403 . S
C3167 C3168 1.524 . S
C3167 C3171 1.400 . S
C3168 H3153 0.960 . S
C3168 H3154 0.960 . S
C3168 H3155 0.960 . S
C3168 C3167 1.524 . S
C3169 C3166 1.403 . S
C3169 C3170 1.392 . S
C3169 C3173 1.495 . S
C3170 C3169 1.392 . S
C3170 C3171 1.385 . S
C3170 C3172 1.478 . S
C3171 H3165 0.930 . S
C3171 C3167 1.400 . S
C3171 C3170 1.385 . S
C3172 C3170 1.478 . S
C3172 C3174 1.381 . S
C3172 C3178 1.383 . S
C3173 C3169 1.495 . S
C3173 H3179 0.959 . S
C3173 H3180 0.961 . S
C3173 H3181 0.960 . S
C3174 C3172 1.381 . S
C3174 C3175 1.394 . S
C3174 H3182 0.930 . S
C3175 C3174 1.394 . S
C3175 C3176 1.383 . S
C3175 H3183 0.929 . S
C3176 C3175 1.383 . S
C3176 C3177 1.377 . S
C3177 H3161 0.930 . S
C3177 C3176 1.377 . S
C3177 C3178 1.379 . S
C3178 H3162 0.931 . S
C3178 C3172 1.383 . S
C3178 C3177 1.379 . S
H3179 C3173 0.959 . S
H3180 C3173 0.961 . S
H3181 C3173 0.960 . S
H3182 C3174 0.930 . S
H3183 C3175 0.929 . S
H3184 C3192 0.929 . S
H3185 C3194 0.930 . S
H3186 C3196 0.930 . S
H3187 C3199 0.929 . S
H3188 C3202 0.930 . S
H3189 C3204 0.960 . S
H3190 C3204 0.960 . S
H3191 C3204 0.960 . S
C3192 H3184 0.929 . S
C3192 C3193 1.377 . S
C3192 C3194 1.384 . S
C3193 C3192 1.377 . S
C3193 C3199 1.390 . S
C3194 H3185 0.930 . S
C3194 C3192 1.384 . S
C3194 C3195 1.372 . S
C3195 C3194 1.372 . S
C3195 C3196 1.400 . S
C3195 C3200 1.490 . S
C3196 H3186 0.930 . S
C3196 C3195 1.400 . S
C3196 C3199 1.386 . S
H3197 C3213 0.930 . S
H3198 C3214 0.931 . S
C3199 H3187 0.929 . S
C3199 C3193 1.390 . S
C3199 C3196 1.386 . S
C3200 C3195 1.490 . S
C3200 C3202 1.395 . S
C3200 C3203 1.403 . S
H3201 C3207 0.930 . S
C3202 H3188 0.930 . S
C3202 C3200 1.395 . S
C3202 C3205 1.403 . S
C3203 C3200 1.403 . S
C3203 C3204 1.524 . S
C3203 C3207 1.400 . S
C3204 H3189 0.960 . S
C3204 H3190 0.960 . S
C3204 H3191 0.960 . S
C3204 C3203 1.524 . S
C3205 C3202 1.403 . S
C3205 C3206 1.392 . S
C3205 C3209 1.495 . S
C3206 C3205 1.392 . S
C3206 C3207 1.385 . S
C3206 C3208 1.478 . S
C3207 H3201 0.930 . S
C3207 C3203 1.400 . S
C3207 C3206 1.385 . S
C3208 C3206 1.478 . S
C3208 C3210 1.381 . S
C3208 C3214 1.383 . S
C3209 C3205 1.495 . S
C3209 H3215 0.959 . S
C3209 H3216 0.961 . S
C3209 H3217 0.960 . S
C3210 C3208 1.381 . S
C3210 C3211 1.394 . S
C3210 H3218 0.930 . S
C3211 C3210 1.394 . S
C3211 C3212 1.383 . S
C3211 H3219 0.929 . S
C3212 C3211 1.383 . S
C3212 C3213 1.377 . S
C3213 H3197 0.930 . S
C3213 C3212 1.377 . S
C3213 C3214 1.379 . S
C3214 H3198 0.931 . S
C3214 C3208 1.383 . S
C3214 C3213 1.379 . S
H3215 C3209 0.959 . S
H3216 C3209 0.961 . S
H3217 C3209 0.960 . S
H3218 C3210 0.930 . S
H3219 C3211 0.929 . S
H3220 C3228 0.929 . S
H3221 C3230 0.930 . S
H3222 C3232 0.930 . S
H3223 C3235 0.929 . S
H3224 C3238 0.930 . S
H3225 C3240 0.960 . S
H3226 C3240 0.960 . S
H3227 C3240 0.960 . S
C3228 H3220 0.929 . S
C3228 C3229 1.377 . S
C3228 C3230 1.384 . S
C3229 C3228 1.377 . S
C3229 C3235 1.390 . S
C3230 H3221 0.930 . S
C3230 C3228 1.384 . S
C3230 C3231 1.372 . S
C3231 C3230 1.372 . S
C3231 C3232 1.400 . S
C3231 C3236 1.490 . S
C3232 H3222 0.930 . S
C3232 C3231 1.400 . S
C3232 C3235 1.386 . S
H3233 C3249 0.930 . S
H3234 C3250 0.931 . S
C3235 H3223 0.929 . S
C3235 C3229 1.390 . S
C3235 C3232 1.386 . S
C3236 C3231 1.490 . S
C3236 C3238 1.395 . S
C3236 C3239 1.403 . S
H3237 C3243 0.930 . S
C3238 H3224 0.930 . S
C3238 C3236 1.395 . S
C3238 C3241 1.403 . S
C3239 C3236 1.403 . S
C3239 C3240 1.524 . S
C3239 C3243 1.400 . S
C3240 H3225 0.960 . S
C3240 H3226 0.960 . S
C3240 H3227 0.960 . S
C3240 C3239 1.524 . S
C3241 C3238 1.403 . S
C3241 C3242 1.392 . S
C3241 C3245 1.495 . S
C3242 C3241 1.392 . S
C3242 C3243 1.385 . S
C3242 C3244 1.478 . S
C3243 H3237 0.930 . S
C3243 C3239 1.400 . S
C3243 C3242 1.385 . S
C3244 C3242 1.478 . S
C3244 C3246 1.381 . S
C3244 C3250 1.383 . S
C3245 C3241 1.495 . S
C3245 H3251 0.959 . S
C3245 H3252 0.961 . S
C3245 H3253 0.960 . S
C3246 C3244 1.381 . S
C3246 C3247 1.394 . S
C3246 H3254 0.930 . S
C3247 C3246 1.394 . S
C3247 C3248 1.383 . S
C3247 H3255 0.929 . S
C3248 C3247 1.383 . S
C3248 C3249 1.377 . S
C3249 H3233 0.930 . S
C3249 C3248 1.377 . S
C3249 C3250 1.379 . S
C3250 H3234 0.931 . S
C3250 C3244 1.383 . S
C3250 C3249 1.379 . S
H3251 C3245 0.959 . S
H3252 C3245 0.961 . S
H3253 C3245 0.960 . S
H3254 C3246 0.930 . S
H3255 C3247 0.929 . S
H3256 C3264 0.929 . S
H3257 C3266 0.930 . S
H3258 C3268 0.930 . S
H3259 C3271 0.929 . S
H3260 C3274 0.930 . S
H3261 C3276 0.960 . S
H3262 C3276 0.960 . S
H3263 C3276 0.960 . S
C3264 H3256 0.929 . S
C3264 C3265 1.377 . S
C3264 C3266 1.384 . S
C3265 C3264 1.377 . S
C3265 C3271 1.390 . S
C3266 H3257 0.930 . S
C3266 C3264 1.384 . S
C3266 C3267 1.372 . S
C3267 C3266 1.372 . S
C3267 C3268 1.400 . S
C3267 C3272 1.490 . S
C3268 H3258 0.930 . S
C3268 C3267 1.400 . S
C3268 C3271 1.386 . S
H3269 C3285 0.930 . S
H3270 C3286 0.931 . S
C3271 H3259 0.929 . S
C3271 C3265 1.390 . S
C3271 C3268 1.386 . S
C3272 C3267 1.490 . S
C3272 C3274 1.395 . S
C3272 C3275 1.403 . S
H3273 C3279 0.930 . S
C3274 H3260 0.930 . S
C3274 C3272 1.395 . S
C3274 C3277 1.403 . S
C3275 C3272 1.403 . S
C3275 C3276 1.524 . S
C3275 C3279 1.400 . S
C3276 H3261 0.960 . S
C3276 H3262 0.960 . S
C3276 H3263 0.960 . S
C3276 C3275 1.524 . S
C3277 C3274 1.403 . S
C3277 C3278 1.392 . S
C3277 C3281 1.495 . S
C3278 C3277 1.392 . S
C3278 C3279 1.385 . S
C3278 C3280 1.478 . S
C3279 H3273 0.930 . S
C3279 C3275 1.400 . S
C3279 C3278 1.385 . S
C3280 C3278 1.478 . S
C3280 C3282 1.381 . S
C3280 C3286 1.383 . S
C3281 C3277 1.495 . S
C3281 H3287 0.959 . S
C3281 H3288 0.961 . S
C3281 H3289 0.960 . S
C3282 C3280 1.381 . S
C3282 C3283 1.394 . S
C3282 H3290 0.930 . S
C3283 C3282 1.394 . S
C3283 C3284 1.383 . S
C3283 H3291 0.929 . S
C3284 C3283 1.383 . S
C3284 C3285 1.377 . S
C3285 H3269 0.930 . S
C3285 C3284 1.377 . S
C3285 C3286 1.379 . S
C3286 H3270 0.931 . S
C3286 C3280 1.383 . S
C3286 C3285 1.379 . S
H3287 C3281 0.959 . S
H3288 C3281 0.961 . S
H3289 C3281 0.960 . S
H3290 C3282 0.930 . S
H3291 C3283 0.929 . S
H3292 C3300 0.929 . S
H3293 C3302 0.930 . S
H3294 C3304 0.930 . S
H3295 C3307 0.929 . S
H3296 C3310 0.930 . S
H3297 C3312 0.960 . S
H3298 C3312 0.960 . S
H3299 C3312 0.960 . S
C3300 H3292 0.929 . S
C3300 C3301 1.377 . S
C3300 C3302 1.384 . S
C3301 C3300 1.377 . S
C3301 C3307 1.390 . S
C3302 H3293 0.930 . S
C3302 C3300 1.384 . S
C3302 C3303 1.372 . S
C3303 C3302 1.372 . S
C3303 C3304 1.400 . S
C3303 C3308 1.490 . S
C3304 H3294 0.930 . S
C3304 C3303 1.400 . S
C3304 C3307 1.386 . S
H3305 C3321 0.930 . S
H3306 C3322 0.931 . S
C3307 H3295 0.929 . S
C3307 C3301 1.390 . S
C3307 C3304 1.386 . S
C3308 C3303 1.490 . S
C3308 C3310 1.395 . S
C3308 C3311 1.403 . S
H3309 C3315 0.930 . S
C3310 H3296 0.930 . S
C3310 C3308 1.395 . S
C3310 C3313 1.403 . S
C3311 C3308 1.403 . S
C3311 C3312 1.524 . S
C3311 C3315 1.400 . S
C3312 H3297 0.960 . S
C3312 H3298 0.960 . S
C3312 H3299 0.960 . S
C3312 C3311 1.524 . S
C3313 C3310 1.403 . S
C3313 C3314 1.392 . S
C3313 C3317 1.495 . S
C3314 C3313 1.392 . S
C3314 C3315 1.385 . S
C3314 C3316 1.478 . S
C3315 H3309 0.930 . S
C3315 C3311 1.400 . S
C3315 C3314 1.385 . S
C3316 C3314 1.478 . S
C3316 C3318 1.381 . S
C3316 C3322 1.383 . S
C3317 C3313 1.495 . S
C3317 H3323 0.959 . S
C3317 H3324 0.961 . S
C3317 H3325 0.960 . S
C3318 C3316 1.381 . S
C3318 C3319 1.394 . S
C3318 H3326 0.930 . S
C3319 C3318 1.394 . S
C3319 C3320 1.383 . S
C3319 H3327 0.929 . S
C3320 C3319 1.383 . S
C3320 C3321 1.377 . S
C3321 H3305 0.930 . S
C3321 C3320 1.377 . S
C3321 C3322 1.379 . S
C3322 H3306 0.931 . S
C3322 C3316 1.383 . S
C3322 C3321 1.379 . S
H3323 C3317 0.959 . S
H3324 C3317 0.961 . S
H3325 C3317 0.960 . S
H3326 C3318 0.930 . S
H3327 C3319 0.929 . S
H3328 C3336 0.929 . S
H3329 C3338 0.930 . S
H3330 C3340 0.930 . S
H3331 C3343 0.929 . S
H3332 C3346 0.930 . S
H3333 C3348 0.960 . S
H3334 C3348 0.960 . S
H3335 C3348 0.960 . S
C3336 H3328 0.929 . S
C3336 C3337 1.377 . S
C3336 C3338 1.384 . S
C3337 C3336 1.377 . S
C3337 C3343 1.390 . S
C3338 H3329 0.930 . S
C3338 C3336 1.384 . S
C3338 C3339 1.372 . S
C3339 C3338 1.372 . S
C3339 C3340 1.400 . S
C3339 C3344 1.490 . S
C3340 H3330 0.930 . S
C3340 C3339 1.400 . S
C3340 C3343 1.386 . S
H3341 C3357 0.930 . S
H3342 C3358 0.931 . S
C3343 H3331 0.929 . S
C3343 C3337 1.390 . S
C3343 C3340 1.386 . S
C3344 C3339 1.490 . S
C3344 C3346 1.395 . S
C3344 C3347 1.403 . S
H3345 C3351 0.930 . S
C3346 H3332 0.930 . S
C3346 C3344 1.395 . S
C3346 C3349 1.403 . S
C3347 C3344 1.403 . S
C3347 C3348 1.524 . S
C3347 C3351 1.400 . S
C3348 H3333 0.960 . S
C3348 H3334 0.960 . S
C3348 H3335 0.960 . S
C3348 C3347 1.524 . S
C3349 C3346 1.403 . S
C3349 C3350 1.392 . S
C3349 C3353 1.495 . S
C3350 C3349 1.392 . S
C3350 C3351 1.385 . S
C3350 C3352 1.478 . S
C3351 H3345 0.930 . S
C3351 C3347 1.400 . S
C3351 C3350 1.385 . S
C3352 C3350 1.478 . S
C3352 C3354 1.381 . S
C3352 C3358 1.383 . S
C3353 C3349 1.495 . S
C3353 H3359 0.959 . S
C3353 H3360 0.961 . S
C3353 H3361 0.960 . S
C3354 C3352 1.381 . S
C3354 C3355 1.394 . S
C3354 H3362 0.930 . S
C3355 C3354 1.394 . S
C3355 C3356 1.383 . S
C3355 H3363 0.929 . S
C3356 C3355 1.383 . S
C3356 C3357 1.377 . S
C3357 H3341 0.930 . S
C3357 C3356 1.377 . S
C3357 C3358 1.379 . S
C3358 H3342 0.931 . S
C3358 C3352 1.383 . S
C3358 C3357 1.379 . S
H3359 C3353 0.959 . S
H3360 C3353 0.961 . S
H3361 C3353 0.960 . S
H3362 C3354 0.930 . S
H3363 C3355 0.929 . S
H3364 C3372 0.929 . S
H3365 C3374 0.930 . S
H3366 C3376 0.930 1_556 S
H3367 C3379 0.929 1_556 S
H3368 C3382 0.930 . S
H3369 C3384 0.994 . S
H3370 C3384 0.973 . S
H3371 C3384 0.951 1_566 S
C3372 H3364 0.929 . S
C3372 C3373 1.377 . S
C3372 C3374 1.384 . S
C3373 C3372 1.377 . S
C3373 C3379 1.390 . S
C3374 H3365 0.930 . S
C3374 C3372 1.384 . S
C3374 C3375 1.372 . S
C3375 C3374 1.372 . S
C3375 C3376 1.400 . S
C3375 C3380 1.490 . S
C3376 H3366 0.930 1_554 S
C3376 C3375 1.400 . S
C3376 C3379 1.386 . S
H3377 C3393 0.929 1_545 S
H3378 C3394 0.938 . S
C3379 H3367 0.929 1_554 S
C3379 C3373 1.390 . S
C3379 C3376 1.386 . S
C3380 C3375 1.490 . S
C3380 C3382 1.395 . S
C3380 C3383 1.403 . S
H3381 C3387 0.930 1_545 S
C3382 H3368 0.930 . S
C3382 C3380 1.395 . S
C3382 C3385 1.403 . S
C3383 C3380 1.403 . S
C3383 C3384 1.496 1_565 S
C3383 C3387 1.400 . S
C3384 H3369 0.994 . S
C3384 H3370 0.973 . S
C3384 H3371 0.951 1_544 S
C3384 C3383 1.496 1_545 S
C3385 C3382 1.403 . S
C3385 C3386 1.392 . S
C3385 C3389 1.495 . S
C3386 C3385 1.392 . S
C3386 C3387 1.385 . S
C3386 C3388 1.478 . S
C3387 H3381 0.930 1_565 S
C3387 C3383 1.400 . S
C3387 C3386 1.385 . S
C3388 C3386 1.478 . S
C3388 C3390 1.390 . S
C3388 C3394 1.373 1_554 S
C3389 C3385 1.495 . S
C3389 H3395 0.959 . S
C3389 H3396 0.961 . S
C3389 H3397 0.960 . S
C3390 C3388 1.390 . S
C3390 C3391 1.382 1_565 S
C3390 H3398 0.938 . S
C3391 C3390 1.382 1_545 S
C3391 C3392 1.383 . S
C3391 H3399 0.929 . S
C3392 C3391 1.383 . S
C3392 C3393 1.377 1_544 S
C3393 H3377 0.929 1_565 S
C3393 C3392 1.377 1_566 S
C3393 C3394 1.381 . S
C3394 H3378 0.938 . S
C3394 C3388 1.373 1_556 S
C3394 C3393 1.381 . S
H3395 C3389 0.959 . S
H3396 C3389 0.961 . S
H3397 C3389 0.960 . S
H3398 C3390 0.938 . S
H3399 C3391 0.929 . S
H3400 C3408 0.929 . S
H3401 C3410 0.930 . S
H3402 C3412 0.930 . S
H3403 C3415 0.929 . S
H3404 C3418 0.930 . S
H3405 C3420 0.960 . S
H3406 C3420 0.960 . S
H3407 C3420 0.960 . S
C3408 H3400 0.929 . S
C3408 C3409 1.377 . S
C3408 C3410 1.384 . S
C3409 C3408 1.377 . S
C3409 C3415 1.390 . S
C3410 H3401 0.930 . S
C3410 C3408 1.384 . S
C3410 C3411 1.372 . S
C3411 C3410 1.372 . S
C3411 C3412 1.400 . S
C3411 C3416 1.490 . S
C3412 H3402 0.930 . S
C3412 C3411 1.400 . S
C3412 C3415 1.386 . S
H3413 C3429 0.930 . S
H3414 C3430 0.931 . S
C3415 H3403 0.929 . S
C3415 C3409 1.390 . S
C3415 C3412 1.386 . S
C3416 C3411 1.490 . S
C3416 C3418 1.395 . S
C3416 C3419 1.403 . S
H3417 C3423 0.930 . S
C3418 H3404 0.930 . S
C3418 C3416 1.395 . S
C3418 C3421 1.403 . S
C3419 C3416 1.403 . S
C3419 C3420 1.524 . S
C3419 C3423 1.400 . S
C3420 H3405 0.960 . S
C3420 H3406 0.960 . S
C3420 H3407 0.960 . S
C3420 C3419 1.524 . S
C3421 C3418 1.403 . S
C3421 C3422 1.392 . S
C3421 C3425 1.495 . S
C3422 C3421 1.392 . S
C3422 C3423 1.385 . S
C3422 C3424 1.478 . S
C3423 H3417 0.930 . S
C3423 C3419 1.400 . S
C3423 C3422 1.385 . S
C3424 C3422 1.478 . S
C3424 C3426 1.381 . S
C3424 C3430 1.383 . S
C3425 C3421 1.495 . S
C3425 H3431 0.959 . S
C3425 H3432 0.961 . S
C3425 H3433 0.960 . S
C3426 C3424 1.381 . S
C3426 C3427 1.394 . S
C3426 H3434 0.930 . S
C3427 C3426 1.394 . S
C3427 C3428 1.383 . S
C3427 H3435 0.929 . S
C3428 C3427 1.383 . S
C3428 C3429 1.377 . S
C3429 H3413 0.930 . S
C3429 C3428 1.377 . S
C3429 C3430 1.379 . S
C3430 H3414 0.931 . S
C3430 C3424 1.383 . S
C3430 C3429 1.379 . S
H3431 C3425 0.959 . S
H3432 C3425 0.961 . S
H3433 C3425 0.960 . S
H3434 C3426 0.930 . S
H3435 C3427 0.929 . S
H3436 C3444 0.929 . S
H3437 C3446 0.930 . S
H3438 C3448 0.930 . S
H3439 C3451 0.929 . S
H3440 C3454 0.930 . S
H3441 C3456 0.948 1_556 S
H3442 C3456 0.976 . S
H3443 C3456 0.934 1_556 S
C3444 H3436 0.929 . S
C3444 C3445 1.377 . S
C3444 C3446 1.384 . S
C3445 C3444 1.377 . S
C3445 C3451 1.390 1_554 S
C3446 H3437 0.930 . S
C3446 C3444 1.384 . S
C3446 C3447 1.372 . S
C3447 C3446 1.372 . S
C3447 C3448 1.400 1_554 S
C3447 C3452 1.490 . S
C3448 H3438 0.930 . S
C3448 C3447 1.400 1_556 S
C3448 C3451 1.386 . S
H3449 C3465 0.930 . S
H3450 C3466 0.931 . S
C3451 H3439 0.929 . S
C3451 C3445 1.390 1_556 S
C3451 C3448 1.386 . S
C3452 C3447 1.490 . S
C3452 C3454 1.395 . S
C3452 C3455 1.403 . S
H3453 C3459 0.930 . S
C3454 H3440 0.930 . S
C3454 C3452 1.395 . S
C3454 C3457 1.403 . S
C3455 C3452 1.403 . S
C3455 C3456 1.547 . S
C3455 C3459 1.400 . S
C3456 H3441 0.948 1_554 S
C3456 H3442 0.976 . S
C3456 H3443 0.934 1_554 S
C3456 C3455 1.547 . S
C3457 C3454 1.403 . S
C3457 C3458 1.392 . S
C3457 C3461 1.495 . S
C3458 C3457 1.392 . S
C3458 C3459 1.385 . S
C3458 C3460 1.478 . S
C3459 H3453 0.930 . S
C3459 C3455 1.400 . S
C3459 C3458 1.385 . S
C3460 C3458 1.478 . S
C3460 C3462 1.381 . S
C3460 C3466 1.383 . S
C3461 C3457 1.495 . S
C3461 H3467 0.959 . S
C3461 H3468 0.961 . S
C3461 H3469 0.960 . S
C3462 C3460 1.381 . S
C3462 C3463 1.394 . S
C3462 H3470 0.930 . S
C3463 C3462 1.394 . S
C3463 C3464 1.383 . S
C3463 H3471 0.929 . S
C3464 C3463 1.383 . S
C3464 C3465 1.377 . S
C3465 H3449 0.930 . S
C3465 C3464 1.377 . S
C3465 C3466 1.379 . S
C3466 H3450 0.931 . S
C3466 C3460 1.383 . S
C3466 C3465 1.379 . S
H3467 C3461 0.959 . S
H3468 C3461 0.961 . S
H3469 C3461 0.960 . S
H3470 C3462 0.930 . S
H3471 C3463 0.929 . S
H3472 C3480 0.929 . S
H3473 C3482 0.930 . S
H3474 C3484 0.930 . S
H3475 C3487 0.929 . S
H3476 C3490 0.930 . S
H3477 C3492 0.960 . S
H3478 C3492 0.960 . S
H3479 C3492 0.960 . S
C3480 H3472 0.929 . S
C3480 C3481 1.377 . S
C3480 C3482 1.384 . S
C3481 C3480 1.377 . S
C3481 C3487 1.390 . S
C3482 H3473 0.930 . S
C3482 C3480 1.384 . S
C3482 C3483 1.372 . S
C3483 C3482 1.372 . S
C3483 C3484 1.400 . S
C3483 C3488 1.490 . S
C3484 H3474 0.930 . S
C3484 C3483 1.400 . S
C3484 C3487 1.386 . S
H3485 C3501 0.930 . S
H3486 C3502 0.931 . S
C3487 H3475 0.929 . S
C3487 C3481 1.390 . S
C3487 C3484 1.386 . S
C3488 C3483 1.490 . S
C3488 C3490 1.395 . S
C3488 C3491 1.403 . S
H3489 C3495 0.930 . S
C3490 H3476 0.930 . S
C3490 C3488 1.395 . S
C3490 C3493 1.403 . S
C3491 C3488 1.403 . S
C3491 C3492 1.524 . S
C3491 C3495 1.400 . S
C3492 H3477 0.960 . S
C3492 H3478 0.960 . S
C3492 H3479 0.960 . S
C3492 C3491 1.524 . S
C3493 C3490 1.403 . S
C3493 C3494 1.392 . S
C3493 C3497 1.495 . S
C3494 C3493 1.392 . S
C3494 C3495 1.385 . S
C3494 C3496 1.478 . S
C3495 H3489 0.930 . S
C3495 C3491 1.400 . S
C3495 C3494 1.385 . S
C3496 C3494 1.478 . S
C3496 C3498 1.381 . S
C3496 C3502 1.383 . S
C3497 C3493 1.495 . S
C3497 H3503 0.959 . S
C3497 H3504 0.961 . S
C3497 H3505 0.960 . S
C3498 C3496 1.381 . S
C3498 C3499 1.394 . S
C3498 H3506 0.930 . S
C3499 C3498 1.394 . S
C3499 C3500 1.383 . S
C3499 H3507 0.929 . S
C3500 C3499 1.383 . S
C3500 C3501 1.377 . S
C3501 H3485 0.930 . S
C3501 C3500 1.377 . S
C3501 C3502 1.379 . S
C3502 H3486 0.931 . S
C3502 C3496 1.383 . S
C3502 C3501 1.379 . S
H3503 C3497 0.959 . S
H3504 C3497 0.961 . S
H3505 C3497 0.960 . S
H3506 C3498 0.930 . S
H3507 C3499 0.929 . S
H3508 C3516 0.929 . S
H3509 C3518 0.930 . S
H3510 C3520 0.930 . S
H3511 C3523 0.929 . S
H3512 C3526 0.930 . S
H3513 C3528 0.960 . S
H3514 C3528 0.960 . S
H3515 C3528 0.960 . S
C3516 H3508 0.929 . S
C3516 C3517 1.377 . S
C3516 C3518 1.384 . S
C3517 C3516 1.377 . S
C3517 C3523 1.390 . S
C3518 H3509 0.930 . S
C3518 C3516 1.384 . S
C3518 C3519 1.372 . S
C3519 C3518 1.372 . S
C3519 C3520 1.400 . S
C3519 C3524 1.490 . S
C3520 H3510 0.930 . S
C3520 C3519 1.400 . S
C3520 C3523 1.386 . S
H3521 C3537 0.930 . S
H3522 C3538 0.931 . S
C3523 H3511 0.929 . S
C3523 C3517 1.390 . S
C3523 C3520 1.386 . S
C3524 C3519 1.490 . S
C3524 C3526 1.395 . S
C3524 C3527 1.403 . S
H3525 C3531 0.930 . S
C3526 H3512 0.930 . S
C3526 C3524 1.395 . S
C3526 C3529 1.403 . S
C3527 C3524 1.403 . S
C3527 C3528 1.524 . S
C3527 C3531 1.400 . S
C3528 H3513 0.960 . S
C3528 H3514 0.960 . S
C3528 H3515 0.960 . S
C3528 C3527 1.524 . S
C3529 C3526 1.403 . S
C3529 C3530 1.392 . S
C3529 C3533 1.495 . S
C3530 C3529 1.392 . S
C3530 C3531 1.385 . S
C3530 C3532 1.478 . S
C3531 H3525 0.930 . S
C3531 C3527 1.400 . S
C3531 C3530 1.385 . S
C3532 C3530 1.478 . S
C3532 C3534 1.381 . S
C3532 C3538 1.383 . S
C3533 C3529 1.495 . S
C3533 H3539 0.959 . S
C3533 H3540 0.961 . S
C3533 H3541 0.960 . S
C3534 C3532 1.381 . S
C3534 C3535 1.394 . S
C3534 H3542 0.930 . S
C3535 C3534 1.394 . S
C3535 C3536 1.383 . S
C3535 H3543 0.929 . S
C3536 C3535 1.383 . S
C3536 C3537 1.377 . S
C3537 H3521 0.930 . S
C3537 C3536 1.377 . S
C3537 C3538 1.379 . S
C3538 H3522 0.931 . S
C3538 C3532 1.383 . S
C3538 C3537 1.379 . S
H3539 C3533 0.959 . S
H3540 C3533 0.961 . S
H3541 C3533 0.960 . S
H3542 C3534 0.930 . S
H3543 C3535 0.929 . S
H3544 C3552 0.929 . S
H3545 C3554 0.930 . S
H3546 C3556 0.930 . S
H3547 C3559 0.929 . S
H3548 C3562 0.930 . S
H3549 C3564 0.960 . S
H3550 C3564 0.960 . S
H3551 C3564 0.960 . S
C3552 H3544 0.929 . S
C3552 C3553 1.377 . S
C3552 C3554 1.384 . S
C3553 C3552 1.377 . S
C3553 C3559 1.390 . S
C3554 H3545 0.930 . S
C3554 C3552 1.384 . S
C3554 C3555 1.372 . S
C3555 C3554 1.372 . S
C3555 C3556 1.400 . S
C3555 C3560 1.490 . S
C3556 H3546 0.930 . S
C3556 C3555 1.400 . S
C3556 C3559 1.386 . S
H3557 C3573 0.930 . S
H3558 C3574 0.931 . S
C3559 H3547 0.929 . S
C3559 C3553 1.390 . S
C3559 C3556 1.386 . S
C3560 C3555 1.490 . S
C3560 C3562 1.395 . S
C3560 C3563 1.403 . S
H3561 C3567 0.930 . S
C3562 H3548 0.930 . S
C3562 C3560 1.395 . S
C3562 C3565 1.403 . S
C3563 C3560 1.403 . S
C3563 C3564 1.524 . S
C3563 C3567 1.400 . S
C3564 H3549 0.960 . S
C3564 H3550 0.960 . S
C3564 H3551 0.960 . S
C3564 C3563 1.524 . S
C3565 C3562 1.403 . S
C3565 C3566 1.392 . S
C3565 C3569 1.495 . S
C3566 C3565 1.392 . S
C3566 C3567 1.385 . S
C3566 C3568 1.478 . S
C3567 H3561 0.930 . S
C3567 C3563 1.400 . S
C3567 C3566 1.385 . S
C3568 C3566 1.478 . S
C3568 C3570 1.381 . S
C3568 C3574 1.383 . S
C3569 C3565 1.495 . S
C3569 H3575 0.959 . S
C3569 H3576 0.961 . S
C3569 H3577 0.960 . S
C3570 C3568 1.381 . S
C3570 C3571 1.394 . S
C3570 H3578 0.930 . S
C3571 C3570 1.394 . S
C3571 C3572 1.383 . S
C3571 H3579 0.929 . S
C3572 C3571 1.383 . S
C3572 C3573 1.377 . S
C3573 H3557 0.930 . S
C3573 C3572 1.377 . S
C3573 C3574 1.379 . S
C3574 H3558 0.931 . S
C3574 C3568 1.383 . S
C3574 C3573 1.379 . S
H3575 C3569 0.959 . S
H3576 C3569 0.961 . S
H3577 C3569 0.960 . S
H3578 C3570 0.930 . S
H3579 C3571 0.929 . S
H3580 C3588 0.929 . S
H3581 C3590 0.930 . S
H3582 C3592 0.930 . S
H3583 C3595 0.929 . S
H3584 C3598 0.930 . S
H3585 C3600 0.960 . S
H3586 C3600 0.960 . S
H3587 C3600 0.960 . S
C3588 H3580 0.929 . S
C3588 C3589 1.377 . S
C3588 C3590 1.384 . S
C3589 C3588 1.377 . S
C3589 C3595 1.390 . S
C3590 H3581 0.930 . S
C3590 C3588 1.384 . S
C3590 C3591 1.372 . S
C3591 C3590 1.372 . S
C3591 C3592 1.400 . S
C3591 C3596 1.490 . S
C3592 H3582 0.930 . S
C3592 C3591 1.400 . S
C3592 C3595 1.386 . S
H3593 C3609 0.930 . S
H3594 C3610 0.931 . S
C3595 H3583 0.929 . S
C3595 C3589 1.390 . S
C3595 C3592 1.386 . S
C3596 C3591 1.490 . S
C3596 C3598 1.395 . S
C3596 C3599 1.403 . S
H3597 C3603 0.930 . S
C3598 H3584 0.930 . S
C3598 C3596 1.395 . S
C3598 C3601 1.403 . S
C3599 C3596 1.403 . S
C3599 C3600 1.524 . S
C3599 C3603 1.400 . S
C3600 H3585 0.960 . S
C3600 H3586 0.960 . S
C3600 H3587 0.960 . S
C3600 C3599 1.524 . S
C3601 C3598 1.403 . S
C3601 C3602 1.392 . S
C3601 C3605 1.495 . S
C3602 C3601 1.392 . S
C3602 C3603 1.385 . S
C3602 C3604 1.478 . S
C3603 H3597 0.930 . S
C3603 C3599 1.400 . S
C3603 C3602 1.385 . S
C3604 C3602 1.478 . S
C3604 C3606 1.381 . S
C3604 C3610 1.383 . S
C3605 C3601 1.495 . S
C3605 H3611 0.959 . S
C3605 H3612 0.961 . S
C3605 H3613 0.960 . S
C3606 C3604 1.381 . S
C3606 C3607 1.394 . S
C3606 H3614 0.930 . S
C3607 C3606 1.394 . S
C3607 C3608 1.383 . S
C3607 H3615 0.929 . S
C3608 C3607 1.383 . S
C3608 C3609 1.377 . S
C3609 H3593 0.930 . S
C3609 C3608 1.377 . S
C3609 C3610 1.379 . S
C3610 H3594 0.931 . S
C3610 C3604 1.383 . S
C3610 C3609 1.379 . S
H3611 C3605 0.959 . S
H3612 C3605 0.961 . S
H3613 C3605 0.960 . S
H3614 C3606 0.930 . S
H3615 C3607 0.929 . S
H3616 C3624 0.929 . S
H3617 C3626 0.930 . S
H3618 C3628 0.930 . S
H3619 C3631 0.929 . S
H3620 C3634 0.930 . S
H3621 C3636 0.960 . S
H3622 C3636 0.960 . S
H3623 C3636 0.960 . S
C3624 H3616 0.929 . S
C3624 C3625 1.377 . S
C3624 C3626 1.384 . S
C3625 C3624 1.377 . S
C3625 C3631 1.390 . S
C3626 H3617 0.930 . S
C3626 C3624 1.384 . S
C3626 C3627 1.372 . S
C3627 C3626 1.372 . S
C3627 C3628 1.400 . S
C3627 C3632 1.490 . S
C3628 H3618 0.930 . S
C3628 C3627 1.400 . S
C3628 C3631 1.386 . S
H3629 C3645 0.930 . S
H3630 C3646 0.931 . S
C3631 H3619 0.929 . S
C3631 C3625 1.390 . S
C3631 C3628 1.386 . S
C3632 C3627 1.490 . S
C3632 C3634 1.395 . S
C3632 C3635 1.403 . S
H3633 C3639 0.930 . S
C3634 H3620 0.930 . S
C3634 C3632 1.395 . S
C3634 C3637 1.403 . S
C3635 C3632 1.403 . S
C3635 C3636 1.524 . S
C3635 C3639 1.400 . S
C3636 H3621 0.960 . S
C3636 H3622 0.960 . S
C3636 H3623 0.960 . S
C3636 C3635 1.524 . S
C3637 C3634 1.403 . S
C3637 C3638 1.392 . S
C3637 C3641 1.495 . S
C3638 C3637 1.392 . S
C3638 C3639 1.385 . S
C3638 C3640 1.478 . S
C3639 H3633 0.930 . S
C3639 C3635 1.400 . S
C3639 C3638 1.385 . S
C3640 C3638 1.478 . S
C3640 C3642 1.381 . S
C3640 C3646 1.383 . S
C3641 C3637 1.495 . S
C3641 H3647 0.959 . S
C3641 H3648 0.961 . S
C3641 H3649 0.960 . S
C3642 C3640 1.381 . S
C3642 C3643 1.394 . S
C3642 H3650 0.930 . S
C3643 C3642 1.394 . S
C3643 C3644 1.383 . S
C3643 H3651 0.929 1_554 S
C3644 C3643 1.383 . S
C3644 C3645 1.377 . S
C3645 H3629 0.930 . S
C3645 C3644 1.377 . S
C3645 C3646 1.379 . S
C3646 H3630 0.931 . S
C3646 C3640 1.383 . S
C3646 C3645 1.379 . S
H3647 C3641 0.959 . S
H3648 C3641 0.961 . S
H3649 C3641 0.960 . S
H3650 C3642 0.930 . S
H3651 C3643 0.929 1_556 S
H3652 C3660 0.929 . S
H3653 C3662 0.930 . S
H3654 C3664 0.930 . S
H3655 C3667 0.929 . S
H3656 C3670 0.930 . S
H3657 C3672 0.960 . S
H3658 C3672 0.960 . S
H3659 C3672 0.960 . S
C3660 H3652 0.929 . S
C3660 C3661 1.377 . S
C3660 C3662 1.384 . S
C3661 C3660 1.377 . S
C3661 C3667 1.390 . S
C3662 H3653 0.930 . S
C3662 C3660 1.384 . S
C3662 C3663 1.372 . S
C3663 C3662 1.372 . S
C3663 C3664 1.400 . S
C3663 C3668 1.490 . S
C3664 H3654 0.930 . S
C3664 C3663 1.400 . S
C3664 C3667 1.386 . S
H3665 C3681 0.930 . S
H3666 C3682 0.931 . S
C3667 H3655 0.929 . S
C3667 C3661 1.390 . S
C3667 C3664 1.386 . S
C3668 C3663 1.490 . S
C3668 C3670 1.395 . S
C3668 C3671 1.403 . S
H3669 C3675 0.930 . S
C3670 H3656 0.930 . S
C3670 C3668 1.395 . S
C3670 C3673 1.403 . S
C3671 C3668 1.403 . S
C3671 C3672 1.524 . S
C3671 C3675 1.400 . S
C3672 H3657 0.960 . S
C3672 H3658 0.960 . S
C3672 H3659 0.960 . S
C3672 C3671 1.524 . S
C3673 C3670 1.403 . S
C3673 C3674 1.392 . S
C3673 C3677 1.495 . S
C3674 C3673 1.392 . S
C3674 C3675 1.385 . S
C3674 C3676 1.478 . S
C3675 H3669 0.930 . S
C3675 C3671 1.400 . S
C3675 C3674 1.385 . S
C3676 C3674 1.478 . S
C3676 C3678 1.381 . S
C3676 C3682 1.383 . S
C3677 C3673 1.495 . S
C3677 H3683 0.959 . S
C3677 H3684 0.961 . S
C3677 H3685 0.960 . S
C3678 C3676 1.381 . S
C3678 C3679 1.394 . S
C3678 H3686 0.930 . S
C3679 C3678 1.394 . S
C3679 C3680 1.383 . S
C3679 H3687 0.929 . S
C3680 C3679 1.383 . S
C3680 C3681 1.377 . S
C3681 H3665 0.930 . S
C3681 C3680 1.377 . S
C3681 C3682 1.379 . S
C3682 H3666 0.931 . S
C3682 C3676 1.383 . S
C3682 C3681 1.379 . S
H3683 C3677 0.959 . S
H3684 C3677 0.961 . S
H3685 C3677 0.960 . S
H3686 C3678 0.930 . S
H3687 C3679 0.929 . S
H3688 C3696 0.929 . S
H3689 C3698 0.930 . S
H3690 C3700 0.930 . S
H3691 C3703 0.929 . S
H3692 C3706 0.930 . S
H3693 C3708 0.960 . S
H3694 C3708 0.960 . S
H3695 C3708 0.960 . S
C3696 H3688 0.929 . S
C3696 C3697 1.377 . S
C3696 C3698 1.384 . S
C3697 C3696 1.377 . S
C3697 C3703 1.390 . S
C3698 H3689 0.930 . S
C3698 C3696 1.384 . S
C3698 C3699 1.372 . S
C3699 C3698 1.372 . S
C3699 C3700 1.400 . S
C3699 C3704 1.490 . S
C3700 H3690 0.930 . S
C3700 C3699 1.400 . S
C3700 C3703 1.386 . S
H3701 C3717 0.930 . S
H3702 C3718 0.931 . S
C3703 H3691 0.929 . S
C3703 C3697 1.390 . S
C3703 C3700 1.386 . S
C3704 C3699 1.490 . S
C3704 C3706 1.395 . S
C3704 C3707 1.403 . S
H3705 C3711 0.930 . S
C3706 H3692 0.930 . S
C3706 C3704 1.395 . S
C3706 C3709 1.403 . S
C3707 C3704 1.403 . S
C3707 C3708 1.524 . S
C3707 C3711 1.400 . S
C3708 H3693 0.960 . S
C3708 H3694 0.960 . S
C3708 H3695 0.960 . S
C3708 C3707 1.524 . S
C3709 C3706 1.403 . S
C3709 C3710 1.392 . S
C3709 C3713 1.495 . S
C3710 C3709 1.392 . S
C3710 C3711 1.385 . S
C3710 C3712 1.478 . S
C3711 H3705 0.930 . S
C3711 C3707 1.400 . S
C3711 C3710 1.385 . S
C3712 C3710 1.478 . S
C3712 C3714 1.381 . S
C3712 C3718 1.383 . S
C3713 C3709 1.495 . S
C3713 H3719 0.959 . S
C3713 H3720 0.961 . S
C3713 H3721 0.960 . S
C3714 C3712 1.381 . S
C3714 C3715 1.394 . S
C3714 H3722 0.930 . S
C3715 C3714 1.394 . S
C3715 C3716 1.383 . S
C3715 H3723 0.929 . S
C3716 C3715 1.383 . S
C3716 C3717 1.377 . S
C3717 H3701 0.930 . S
C3717 C3716 1.377 . S
C3717 C3718 1.379 . S
C3718 H3702 0.931 . S
C3718 C3712 1.383 . S
C3718 C3717 1.379 . S
H3719 C3713 0.959 . S
H3720 C3713 0.961 . S
H3721 C3713 0.960 . S
H3722 C3714 0.930 . S
H3723 C3715 0.929 . S
H3724 C3732 0.929 . S
H3725 C3734 0.930 . S
H3726 C3736 0.930 . S
H3727 C3739 0.929 . S
H3728 C3742 0.930 . S
H3729 C3744 0.960 . S
H3730 C3744 0.960 . S
H3731 C3744 0.960 . S
C3732 H3724 0.929 . S
C3732 C3733 1.377 . S
C3732 C3734 1.384 . S
C3733 C3732 1.377 . S
C3733 C3739 1.390 . S
C3734 H3725 0.930 . S
C3734 C3732 1.384 . S
C3734 C3735 1.372 . S
C3735 C3734 1.372 . S
C3735 C3736 1.400 . S
C3735 C3740 1.490 . S
C3736 H3726 0.930 . S
C3736 C3735 1.400 . S
C3736 C3739 1.386 . S
H3737 C3753 0.930 . S
H3738 C3754 0.931 . S
C3739 H3727 0.929 . S
C3739 C3733 1.390 . S
C3739 C3736 1.386 . S
C3740 C3735 1.490 . S
C3740 C3742 1.395 . S
C3740 C3743 1.403 . S
H3741 C3747 0.930 . S
C3742 H3728 0.930 . S
C3742 C3740 1.395 . S
C3742 C3745 1.403 . S
C3743 C3740 1.403 . S
C3743 C3744 1.524 . S
C3743 C3747 1.400 . S
C3744 H3729 0.960 . S
C3744 H3730 0.960 . S
C3744 H3731 0.960 . S
C3744 C3743 1.524 . S
C3745 C3742 1.403 . S
C3745 C3746 1.392 . S
C3745 C3749 1.495 . S
C3746 C3745 1.392 . S
C3746 C3747 1.385 . S
C3746 C3748 1.478 . S
C3747 H3741 0.930 . S
C3747 C3743 1.400 . S
C3747 C3746 1.385 . S
C3748 C3746 1.478 . S
C3748 C3750 1.381 . S
C3748 C3754 1.383 . S
C3749 C3745 1.495 . S
C3749 H3755 0.959 . S
C3749 H3756 0.961 . S
C3749 H3757 0.960 . S
C3750 C3748 1.381 . S
C3750 C3751 1.394 . S
C3750 H3758 0.930 . S
C3751 C3750 1.394 . S
C3751 C3752 1.383 . S
C3751 H3759 0.929 . S
C3752 C3751 1.383 . S
C3752 C3753 1.377 . S
C3753 H3737 0.930 . S
C3753 C3752 1.377 . S
C3753 C3754 1.379 . S
C3754 H3738 0.931 . S
C3754 C3748 1.383 . S
C3754 C3753 1.379 . S
H3755 C3749 0.959 . S
H3756 C3749 0.961 . S
H3757 C3749 0.960 . S
H3758 C3750 0.930 . S
H3759 C3751 0.929 . S
H3760 C3768 0.929 . S
H3761 C3770 0.930 . S
H3762 C3772 0.930 . S
H3763 C3775 0.929 . S
H3764 C3778 0.930 . S
H3765 C3780 0.960 . S
H3766 C3780 0.960 . S
H3767 C3780 0.960 . S
C3768 H3760 0.929 . S
C3768 C3769 1.377 . S
C3768 C3770 1.384 . S
C3769 C3768 1.377 . S
C3769 C3775 1.390 . S
C3770 H3761 0.930 . S
C3770 C3768 1.384 . S
C3770 C3771 1.372 . S
C3771 C3770 1.372 . S
C3771 C3772 1.400 . S
C3771 C3776 1.490 . S
C3772 H3762 0.930 . S
C3772 C3771 1.400 . S
C3772 C3775 1.386 . S
H3773 C3789 0.930 . S
H3774 C3790 0.931 . S
C3775 H3763 0.929 . S
C3775 C3769 1.390 . S
C3775 C3772 1.386 . S
C3776 C3771 1.490 . S
C3776 C3778 1.395 . S
C3776 C3779 1.403 . S
H3777 C3783 0.930 . S
C3778 H3764 0.930 . S
C3778 C3776 1.395 . S
C3778 C3781 1.403 . S
C3779 C3776 1.403 . S
C3779 C3780 1.524 . S
C3779 C3783 1.400 . S
C3780 H3765 0.960 . S
C3780 H3766 0.960 . S
C3780 H3767 0.960 . S
C3780 C3779 1.524 . S
C3781 C3778 1.403 . S
C3781 C3782 1.392 . S
C3781 C3785 1.495 . S
C3782 C3781 1.392 . S
C3782 C3783 1.385 . S
C3782 C3784 1.478 . S
C3783 H3777 0.930 . S
C3783 C3779 1.400 . S
C3783 C3782 1.385 . S
C3784 C3782 1.478 . S
C3784 C3786 1.381 . S
C3784 C3790 1.383 . S
C3785 C3781 1.495 . S
C3785 H3791 0.959 . S
C3785 H3792 0.961 . S
C3785 H3793 0.960 . S
C3786 C3784 1.381 . S
C3786 C3787 1.394 . S
C3786 H3794 0.930 . S
C3787 C3786 1.394 . S
C3787 C3788 1.383 . S
C3787 H3795 0.929 . S
C3788 C3787 1.383 . S
C3788 C3789 1.377 . S
C3789 H3773 0.930 . S
C3789 C3788 1.377 . S
C3789 C3790 1.379 . S
C3790 H3774 0.931 . S
C3790 C3784 1.383 . S
C3790 C3789 1.379 . S
H3791 C3785 0.959 . S
H3792 C3785 0.961 . S
H3793 C3785 0.960 . S
H3794 C3786 0.930 . S
H3795 C3787 0.929 . S
H3796 C3804 0.929 . S
H3797 C3806 0.930 . S
H3798 C3808 0.930 . S
H3799 C3811 0.929 . S
H3800 C3814 0.930 . S
H3801 C3816 0.960 . S
H3802 C3816 0.960 . S
H3803 C3816 0.960 . S
C3804 H3796 0.929 . S
C3804 C3805 1.377 . S
C3804 C3806 1.384 . S
C3805 C3804 1.377 . S
C3805 C3811 1.390 . S
C3806 H3797 0.930 . S
C3806 C3804 1.384 . S
C3806 C3807 1.372 . S
C3807 C3806 1.372 . S
C3807 C3808 1.400 . S
C3807 C3812 1.490 . S
C3808 H3798 0.930 . S
C3808 C3807 1.400 . S
C3808 C3811 1.386 . S
H3809 C3825 0.930 . S
H3810 C3826 0.931 . S
C3811 H3799 0.929 . S
C3811 C3805 1.390 . S
C3811 C3808 1.386 . S
C3812 C3807 1.490 . S
C3812 C3814 1.395 . S
C3812 C3815 1.403 . S
H3813 C3819 0.930 . S
C3814 H3800 0.930 . S
C3814 C3812 1.395 . S
C3814 C3817 1.403 . S
C3815 C3812 1.403 . S
C3815 C3816 1.524 . S
C3815 C3819 1.400 . S
C3816 H3801 0.960 . S
C3816 H3802 0.960 . S
C3816 H3803 0.960 . S
C3816 C3815 1.524 . S
C3817 C3814 1.403 . S
C3817 C3818 1.392 . S
C3817 C3821 1.495 . S
C3818 C3817 1.392 . S
C3818 C3819 1.385 . S
C3818 C3820 1.478 . S
C3819 H3813 0.930 . S
C3819 C3815 1.400 . S
C3819 C3818 1.385 . S
C3820 C3818 1.478 . S
C3820 C3822 1.381 . S
C3820 C3826 1.383 . S
C3821 C3817 1.495 . S
C3821 H3827 0.959 . S
C3821 H3828 0.961 . S
C3821 H3829 0.960 . S
C3822 C3820 1.381 . S
C3822 C3823 1.394 . S
C3822 H3830 0.930 . S
C3823 C3822 1.394 . S
C3823 C3824 1.383 . S
C3823 H3831 0.929 . S
C3824 C3823 1.383 . S
C3824 C3825 1.377 . S
C3825 H3809 0.930 . S
C3825 C3824 1.377 . S
C3825 C3826 1.379 . S
C3826 H3810 0.931 . S
C3826 C3820 1.383 . S
C3826 C3825 1.379 . S
H3827 C3821 0.959 . S
H3828 C3821 0.961 . S
H3829 C3821 0.960 . S
H3830 C3822 0.930 . S
H3831 C3823 0.929 . S
H3832 C3840 0.929 . S
H3833 C3842 0.930 . S
H3834 C3844 0.930 . S
H3835 C3847 0.929 . S
H3836 C3850 0.930 . S
H3837 C3852 0.960 . S
H3838 C3852 0.960 . S
H3839 C3852 0.960 . S
C3840 H3832 0.929 . S
C3840 C3841 1.377 . S
C3840 C3842 1.384 . S
C3841 C3840 1.377 . S
C3841 C3847 1.390 . S
C3842 H3833 0.930 . S
C3842 C3840 1.384 . S
C3842 C3843 1.372 . S
C3843 C3842 1.372 . S
C3843 C3844 1.400 . S
C3843 C3848 1.490 . S
C3844 H3834 0.930 . S
C3844 C3843 1.400 . S
C3844 C3847 1.386 . S
H3845 C3861 0.930 . S
H3846 C3862 0.931 . S
C3847 H3835 0.929 . S
C3847 C3841 1.390 . S
C3847 C3844 1.386 . S
C3848 C3843 1.490 . S
C3848 C3850 1.395 . S
C3848 C3851 1.403 . S
H3849 C3855 0.930 . S
C3850 H3836 0.930 . S
C3850 C3848 1.395 . S
C3850 C3853 1.403 . S
C3851 C3848 1.403 . S
C3851 C3852 1.524 . S
C3851 C3855 1.400 . S
C3852 H3837 0.960 . S
C3852 H3838 0.960 . S
C3852 H3839 0.960 . S
C3852 C3851 1.524 . S
C3853 C3850 1.403 . S
C3853 C3854 1.392 . S
C3853 C3857 1.495 . S
C3854 C3853 1.392 . S
C3854 C3855 1.385 . S
C3854 C3856 1.478 . S
C3855 H3849 0.930 . S
C3855 C3851 1.400 . S
C3855 C3854 1.385 . S
C3856 C3854 1.478 . S
C3856 C3858 1.381 . S
C3856 C3862 1.383 . S
C3857 C3853 1.495 . S
C3857 H3863 0.959 . S
C3857 H3864 0.961 . S
C3857 H3865 0.960 . S
C3858 C3856 1.381 . S
C3858 C3859 1.394 . S
C3858 H3866 0.930 . S
C3859 C3858 1.394 . S
C3859 C3860 1.383 . S
C3859 H3867 0.929 . S
C3860 C3859 1.383 . S
C3860 C3861 1.377 . S
C3861 H3845 0.930 . S
C3861 C3860 1.377 . S
C3861 C3862 1.379 . S
C3862 H3846 0.931 . S
C3862 C3856 1.383 . S
C3862 C3861 1.379 . S
H3863 C3857 0.959 . S
H3864 C3857 0.961 . S
H3865 C3857 0.960 . S
H3866 C3858 0.930 . S
H3867 C3859 0.929 . S
H3868 C3876 0.929 . S
H3869 C3878 0.930 . S
H3870 C3880 0.930 . S
H3871 C3883 0.929 . S
H3872 C3886 0.930 . S
H3873 C3888 0.960 . S
H3874 C3888 0.960 . S
H3875 C3888 0.960 . S
C3876 H3868 0.929 . S
C3876 C3877 1.377 . S
C3876 C3878 1.384 . S
C3877 C3876 1.377 . S
C3877 C3883 1.390 . S
C3878 H3869 0.930 . S
C3878 C3876 1.384 . S
C3878 C3879 1.372 . S
C3879 C3878 1.372 . S
C3879 C3880 1.400 . S
C3879 C3884 1.490 . S
C3880 H3870 0.930 . S
C3880 C3879 1.400 . S
C3880 C3883 1.386 . S
H3881 C3897 0.930 . S
H3882 C3898 0.931 . S
C3883 H3871 0.929 . S
C3883 C3877 1.390 . S
C3883 C3880 1.386 . S
C3884 C3879 1.490 . S
C3884 C3886 1.395 . S
C3884 C3887 1.403 . S
H3885 C3891 0.930 . S
C3886 H3872 0.930 . S
C3886 C3884 1.395 . S
C3886 C3889 1.403 . S
C3887 C3884 1.403 . S
C3887 C3888 1.524 . S
C3887 C3891 1.400 . S
C3888 H3873 0.960 . S
C3888 H3874 0.960 . S
C3888 H3875 0.960 . S
C3888 C3887 1.524 . S
C3889 C3886 1.403 . S
C3889 C3890 1.392 . S
C3889 C3893 1.495 . S
C3890 C3889 1.392 . S
C3890 C3891 1.385 . S
C3890 C3892 1.478 . S
C3891 H3885 0.930 . S
C3891 C3887 1.400 . S
C3891 C3890 1.385 . S
C3892 C3890 1.478 . S
C3892 C3894 1.381 . S
C3892 C3898 1.383 . S
C3893 C3889 1.495 . S
C3893 H3899 0.959 . S
C3893 H3900 0.961 . S
C3893 H3901 0.960 . S
C3894 C3892 1.381 . S
C3894 C3895 1.394 . S
C3894 H3902 0.930 . S
C3895 C3894 1.394 . S
C3895 C3896 1.383 . S
C3895 H3903 0.929 . S
C3896 C3895 1.383 . S
C3896 C3897 1.377 . S
C3897 H3881 0.930 . S
C3897 C3896 1.377 . S
C3897 C3898 1.379 . S
C3898 H3882 0.931 . S
C3898 C3892 1.383 . S
C3898 C3897 1.379 . S
H3899 C3893 0.959 . S
H3900 C3893 0.961 . S
H3901 C3893 0.960 . S
H3902 C3894 0.930 . S
H3903 C3895 0.929 . S
H3904 C3912 0.929 . S
H3905 C3914 0.930 . S
H3906 C3916 0.930 . S
H3907 C3919 0.929 . S
H3908 C3922 0.930 . S
H3909 C3924 0.960 . S
H3910 C3924 0.960 . S
H3911 C3924 0.960 . S
C3912 H3904 0.929 . S
C3912 C3913 1.377 . S
C3912 C3914 1.384 . S
C3913 C3912 1.377 . S
C3913 C3919 1.390 . S
C3914 H3905 0.930 . S
C3914 C3912 1.384 . S
C3914 C3915 1.372 . S
C3915 C3914 1.372 . S
C3915 C3916 1.400 . S
C3915 C3920 1.490 . S
C3916 H3906 0.930 . S
C3916 C3915 1.400 . S
C3916 C3919 1.386 . S
H3917 C3933 0.927 . S
H3918 C3934 0.931 . S
C3919 H3907 0.929 . S
C3919 C3913 1.390 . S
C3919 C3916 1.386 . S
C3920 C3915 1.490 . S
C3920 C3922 1.395 . S
C3920 C3923 1.403 . S
H3921 C3927 0.930 . S
C3922 H3908 0.930 . S
C3922 C3920 1.395 . S
C3922 C3925 1.403 . S
C3923 C3920 1.403 . S
C3923 C3924 1.524 . S
C3923 C3927 1.400 . S
C3924 H3909 0.960 . S
C3924 H3910 0.960 . S
C3924 H3911 0.960 . S
C3924 C3923 1.524 . S
C3925 C3922 1.403 . S
C3925 C3926 1.392 . S
C3925 C3929 1.495 1_655 S
C3926 C3925 1.392 . S
C3926 C3927 1.385 . S
C3926 C3928 1.478 1_655 S
C3927 H3921 0.930 . S
C3927 C3923 1.400 . S
C3927 C3926 1.385 . S
C3928 C3926 1.478 1_455 S
C3928 C3930 1.381 . S
C3928 C3934 1.383 1_455 S
C3929 C3925 1.495 1_455 S
C3929 H3935 0.959 . S
C3929 H3936 0.961 . S
C3929 H3937 0.960 . S
C3930 C3928 1.381 . S
C3930 C3931 1.394 . S
C3930 H3938 0.930 . S
C3931 C3930 1.394 . S
C3931 C3932 1.383 . S
C3931 H3939 0.929 . S
C3932 C3931 1.383 . S
C3932 C3933 1.377 . S
C3933 H3917 0.927 . S
C3933 C3932 1.377 . S
C3933 C3934 1.379 1_455 S
C3934 H3918 0.931 . S
C3934 C3928 1.383 1_655 S
C3934 C3933 1.379 1_655 S
H3935 C3929 0.959 . S
H3936 C3929 0.961 . S
H3937 C3929 0.960 . S
H3938 C3930 0.930 . S
H3939 C3931 0.929 . S
H3940 C3948 0.929 . S
H3941 C3950 0.930 . S
H3942 C3952 0.930 . S
H3943 C3955 0.929 . S
H3944 C3958 0.930 . S
H3945 C3960 0.960 . S
H3946 C3960 0.960 . S
H3947 C3960 0.960 . S
C3948 H3940 0.929 . S
C3948 C3949 1.377 . S
C3948 C3950 1.384 . S
C3949 C3948 1.377 . S
C3949 C3955 1.390 . S
C3950 H3941 0.930 . S
C3950 C3948 1.384 . S
C3950 C3951 1.372 . S
C3951 C3950 1.372 . S
C3951 C3952 1.400 . S
C3951 C3956 1.490 . S
C3952 H3942 0.930 . S
C3952 C3951 1.400 . S
C3952 C3955 1.386 . S
H3953 C3969 0.930 . S
H3954 C3970 0.931 . S
C3955 H3943 0.929 . S
C3955 C3949 1.390 . S
C3955 C3952 1.386 . S
C3956 C3951 1.490 . S
C3956 C3958 1.395 . S
C3956 C3959 1.403 . S
H3957 C3963 0.930 . S
C3958 H3944 0.930 . S
C3958 C3956 1.395 . S
C3958 C3961 1.403 . S
C3959 C3956 1.403 . S
C3959 C3960 1.524 . S
C3959 C3963 1.400 . S
C3960 H3945 0.960 . S
C3960 H3946 0.960 . S
C3960 H3947 0.960 . S
C3960 C3959 1.524 . S
C3961 C3958 1.403 . S
C3961 C3962 1.392 . S
C3961 C3965 1.495 . S
C3962 C3961 1.392 . S
C3962 C3963 1.385 . S
C3962 C3964 1.478 . S
C3963 H3957 0.930 . S
C3963 C3959 1.400 . S
C3963 C3962 1.385 . S
C3964 C3962 1.478 . S
C3964 C3966 1.381 . S
C3964 C3970 1.383 . S
C3965 C3961 1.495 . S
C3965 H3971 0.959 . S
C3965 H3972 0.961 . S
C3965 H3973 0.960 . S
C3966 C3964 1.381 . S
C3966 C3967 1.394 . S
C3966 H3974 0.930 . S
C3967 C3966 1.394 . S
C3967 C3968 1.383 . S
C3967 H3975 0.929 . S
C3968 C3967 1.383 . S
C3968 C3969 1.377 . S
C3969 H3953 0.930 . S
C3969 C3968 1.377 . S
C3969 C3970 1.379 . S
C3970 H3954 0.931 . S
C3970 C3964 1.383 . S
C3970 C3969 1.379 . S
H3971 C3965 0.959 . S
H3972 C3965 0.961 . S
H3973 C3965 0.960 . S
H3974 C3966 0.930 . S
H3975 C3967 0.929 . S
H3976 C3984 0.929 . S
H3977 C3986 0.930 . S
H3978 C3988 0.930 . S
H3979 C3991 0.929 . S
H3980 C3994 0.930 . S
H3981 C3996 0.960 . S
H3982 C3996 0.960 . S
H3983 C3996 0.960 . S
C3984 H3976 0.929 . S
C3984 C3985 1.377 . S
C3984 C3986 1.384 . S
C3985 C3984 1.377 . S
C3985 C3991 1.390 . S
C3986 H3977 0.930 . S
C3986 C3984 1.384 . S
C3986 C3987 1.372 . S
C3987 C3986 1.372 . S
C3987 C3988 1.400 . S
C3987 C3992 1.490 . S
C3988 H3978 0.930 . S
C3988 C3987 1.400 . S
C3988 C3991 1.386 . S
H3989 C4005 0.930 . S
H3990 C4006 0.931 . S
C3991 H3979 0.929 . S
C3991 C3985 1.390 . S
C3991 C3988 1.386 . S
C3992 C3987 1.490 . S
C3992 C3994 1.395 . S
C3992 C3995 1.403 . S
H3993 C3999 0.930 . S
C3994 H3980 0.930 . S
C3994 C3992 1.395 . S
C3994 C3997 1.403 . S
C3995 C3992 1.403 . S
C3995 C3996 1.524 . S
C3995 C3999 1.400 . S
C3996 H3981 0.960 . S
C3996 H3982 0.960 . S
C3996 H3983 0.960 . S
C3996 C3995 1.524 . S
C3997 C3994 1.403 . S
C3997 C3998 1.392 . S
C3997 C4001 1.495 . S
C3998 C3997 1.392 . S
C3998 C3999 1.385 . S
C3998 C4000 1.478 . S
C3999 H3993 0.930 . S
C3999 C3995 1.400 . S
C3999 C3998 1.385 . S
C4000 C3998 1.478 . S
C4000 C4002 1.381 . S
C4000 C4006 1.383 . S
C4001 C3997 1.495 . S
C4001 H4007 0.959 . S
C4001 H4008 0.961 . S
C4001 H4009 0.960 . S
C4002 C4000 1.381 . S
C4002 C4003 1.394 . S
C4002 H4010 0.930 . S
C4003 C4002 1.394 . S
C4003 C4004 1.383 . S
C4003 H4011 0.929 . S
C4004 C4003 1.383 . S
C4004 C4005 1.377 . S
C4005 H3989 0.930 . S
C4005 C4004 1.377 . S
C4005 C4006 1.379 . S
C4006 H3990 0.931 . S
C4006 C4000 1.383 . S
C4006 C4005 1.379 . S
H4007 C4001 0.959 . S
H4008 C4001 0.961 . S
H4009 C4001 0.960 . S
H4010 C4002 0.930 . S
H4011 C4003 0.929 . S
H4012 C4020 0.929 . S
H4013 C4022 0.930 . S
H4014 C4024 0.930 . S
H4015 C4027 0.929 . S
H4016 C4030 0.930 . S
H4017 C4032 0.960 . S
H4018 C4032 0.960 . S
H4019 C4032 0.960 . S
C4020 H4012 0.929 . S
C4020 C4021 1.377 . S
C4020 C4022 1.384 . S
C4021 C4020 1.377 . S
C4021 C4027 1.390 . S
C4022 H4013 0.930 . S
C4022 C4020 1.384 . S
C4022 C4023 1.372 . S
C4023 C4022 1.372 . S
C4023 C4024 1.400 . S
C4023 C4028 1.490 . S
C4024 H4014 0.930 . S
C4024 C4023 1.400 . S
C4024 C4027 1.386 . S
H4025 C4041 0.930 . S
H4026 C4042 0.931 . S
C4027 H4015 0.929 . S
C4027 C4021 1.390 . S
C4027 C4024 1.386 . S
C4028 C4023 1.490 . S
C4028 C4030 1.395 . S
C4028 C4031 1.403 . S
H4029 C4035 0.930 . S
C4030 H4016 0.930 . S
C4030 C4028 1.395 . S
C4030 C4033 1.403 . S
C4031 C4028 1.403 . S
C4031 C4032 1.524 . S
C4031 C4035 1.400 . S
C4032 H4017 0.960 . S
C4032 H4018 0.960 . S
C4032 H4019 0.960 . S
C4032 C4031 1.524 . S
C4033 C4030 1.403 . S
C4033 C4034 1.392 . S
C4033 C4037 1.495 . S
C4034 C4033 1.392 . S
C4034 C4035 1.385 . S
C4034 C4036 1.478 . S
C4035 H4029 0.930 . S
C4035 C4031 1.400 . S
C4035 C4034 1.385 . S
C4036 C4034 1.478 . S
C4036 C4038 1.381 . S
C4036 C4042 1.383 . S
C4037 C4033 1.495 . S
C4037 H4043 0.959 . S
C4037 H4044 0.961 . S
C4037 H4045 0.960 . S
C4038 C4036 1.381 . S
C4038 C4039 1.394 . S
C4038 H4046 0.930 . S
C4039 C4038 1.394 . S
C4039 C4040 1.383 . S
C4039 H4047 0.929 . S
C4040 C4039 1.383 . S
C4040 C4041 1.377 . S
C4041 H4025 0.930 . S
C4041 C4040 1.377 . S
C4041 C4042 1.379 . S
C4042 H4026 0.931 . S
C4042 C4036 1.383 . S
C4042 C4041 1.379 . S
H4043 C4037 0.959 . S
H4044 C4037 0.961 . S
H4045 C4037 0.960 . S
H4046 C4038 0.930 . S
H4047 C4039 0.929 . S
H4048 C4056 0.929 . S
H4049 C4058 0.930 . S
H4050 C4060 0.930 . S
H4051 C4063 0.929 . S
H4052 C4066 0.930 . S
H4053 C4068 0.960 . S
H4054 C4068 0.960 . S
H4055 C4068 0.960 . S
C4056 H4048 0.929 . S
C4056 C4057 1.377 . S
C4056 C4058 1.384 . S
C4057 C4056 1.377 . S
C4057 C4063 1.390 . S
C4058 H4049 0.930 . S
C4058 C4056 1.384 . S
C4058 C4059 1.372 . S
C4059 C4058 1.372 . S
C4059 C4060 1.400 . S
C4059 C4064 1.490 . S
C4060 H4050 0.930 . S
C4060 C4059 1.400 . S
C4060 C4063 1.386 . S
H4061 C4077 0.930 . S
H4062 C4078 0.931 . S
C4063 H4051 0.929 . S
C4063 C4057 1.390 . S
C4063 C4060 1.386 . S
C4064 C4059 1.490 . S
C4064 C4066 1.395 . S
C4064 C4067 1.403 . S
H4065 C4071 0.930 . S
C4066 H4052 0.930 . S
C4066 C4064 1.395 . S
C4066 C4069 1.403 . S
C4067 C4064 1.403 . S
C4067 C4068 1.524 . S
C4067 C4071 1.400 . S
C4068 H4053 0.960 . S
C4068 H4054 0.960 . S
C4068 H4055 0.960 . S
C4068 C4067 1.524 . S
C4069 C4066 1.403 . S
C4069 C4070 1.392 . S
C4069 C4073 1.443 1_655 S
C4070 C4069 1.392 . S
C4070 C4071 1.385 . S
C4070 C4072 1.478 . S
C4071 H4065 0.930 . S
C4071 C4067 1.400 . S
C4071 C4070 1.385 . S
C4072 C4070 1.478 . S
C4072 C4074 1.381 . S
C4072 C4078 1.383 . S
C4073 C4069 1.443 1_455 S
C4073 H4079 0.968 . S
C4073 H4080 0.996 . S
C4073 H4081 0.972 . S
C4074 C4072 1.381 . S
C4074 C4075 1.394 . S
C4074 H4082 0.930 . S
C4075 C4074 1.394 . S
C4075 C4076 1.383 . S
C4075 H4083 0.929 1_655 S
C4076 C4075 1.383 . S
C4076 C4077 1.377 . S
C4077 H4061 0.930 . S
C4077 C4076 1.377 . S
C4077 C4078 1.379 . S
C4078 H4062 0.931 . S
C4078 C4072 1.383 . S
C4078 C4077 1.379 . S
H4079 C4073 0.968 . S
H4080 C4073 0.996 . S
H4081 C4073 0.972 . S
H4082 C4074 0.930 . S
H4083 C4075 0.929 1_455 S
H4084 C4092 0.929 . S
H4085 C4094 0.930 . S
H4086 C4096 0.930 . S
H4087 C4099 0.929 . S
H4088 C4102 0.930 . S
H4089 C4104 0.960 . S
H4090 C4104 0.960 . S
H4091 C4104 0.960 . S
C4092 H4084 0.929 . S
C4092 C4093 1.377 . S
C4092 C4094 1.384 . S
C4093 C4092 1.377 . S
C4093 C4099 1.390 . S
C4094 H4085 0.930 . S
C4094 C4092 1.384 . S
C4094 C4095 1.372 . S
C4095 C4094 1.372 . S
C4095 C4096 1.400 . S
C4095 C4100 1.490 . S
C4096 H4086 0.930 . S
C4096 C4095 1.400 . S
C4096 C4099 1.386 . S
H4097 C4113 0.930 . S
H4098 C4114 0.931 . S
C4099 H4087 0.929 . S
C4099 C4093 1.390 . S
C4099 C4096 1.386 . S
C4100 C4095 1.490 . S
C4100 C4102 1.395 . S
C4100 C4103 1.403 . S
H4101 C4107 0.930 . S
C4102 H4088 0.930 . S
C4102 C4100 1.395 . S
C4102 C4105 1.403 . S
C4103 C4100 1.403 . S
C4103 C4104 1.524 . S
C4103 C4107 1.400 . S
C4104 H4089 0.960 . S
C4104 H4090 0.960 . S
C4104 H4091 0.960 . S
C4104 C4103 1.524 . S
C4105 C4102 1.403 . S
C4105 C4106 1.392 . S
C4105 C4109 1.495 . S
C4106 C4105 1.392 . S
C4106 C4107 1.385 . S
C4106 C4108 1.478 . S
C4107 H4101 0.930 . S
C4107 C4103 1.400 . S
C4107 C4106 1.385 . S
C4108 C4106 1.478 . S
C4108 C4110 1.381 . S
C4108 C4114 1.383 . S
C4109 C4105 1.495 . S
C4109 H4115 0.959 . S
C4109 H4116 0.961 . S
C4109 H4117 0.960 . S
C4110 C4108 1.381 . S
C4110 C4111 1.394 . S
C4110 H4118 0.930 . S
C4111 C4110 1.394 . S
C4111 C4112 1.383 . S
C4111 H4119 0.929 . S
C4112 C4111 1.383 . S
C4112 C4113 1.377 . S
C4113 H4097 0.930 . S
C4113 C4112 1.377 . S
C4113 C4114 1.379 . S
C4114 H4098 0.931 . S
C4114 C4108 1.383 . S
C4114 C4113 1.379 . S
H4115 C4109 0.959 . S
H4116 C4109 0.961 . S
H4117 C4109 0.960 . S
H4118 C4110 0.930 . S
H4119 C4111 0.929 . S
H4120 C4128 0.929 . S
H4121 C4130 0.930 . S
H4122 C4132 0.930 . S
H4123 C4135 0.929 . S
H4124 C4138 0.930 . S
H4125 C4140 0.960 . S
H4126 C4140 0.960 . S
H4127 C4140 0.960 . S
C4128 H4120 0.929 . S
C4128 C4129 1.377 . S
C4128 C4130 1.384 . S
C4129 C4128 1.377 . S
C4129 C4135 1.390 . S
C4130 H4121 0.930 . S
C4130 C4128 1.384 . S
C4130 C4131 1.372 . S
C4131 C4130 1.372 . S
C4131 C4132 1.400 . S
C4131 C4136 1.490 . S
C4132 H4122 0.930 . S
C4132 C4131 1.400 . S
C4132 C4135 1.386 . S
H4133 C4149 0.930 . S
H4134 C4150 0.931 . S
C4135 H4123 0.929 . S
C4135 C4129 1.390 . S
C4135 C4132 1.386 . S
C4136 C4131 1.490 . S
C4136 C4138 1.395 . S
C4136 C4139 1.403 . S
H4137 C4143 0.930 . S
C4138 H4124 0.930 . S
C4138 C4136 1.395 . S
C4138 C4141 1.403 . S
C4139 C4136 1.403 . S
C4139 C4140 1.524 . S
C4139 C4143 1.400 . S
C4140 H4125 0.960 . S
C4140 H4126 0.960 . S
C4140 H4127 0.960 . S
C4140 C4139 1.524 . S
C4141 C4138 1.403 . S
C4141 C4142 1.392 . S
C4141 C4145 1.495 . S
C4142 C4141 1.392 . S
C4142 C4143 1.385 . S
C4142 C4144 1.478 . S
C4143 H4137 0.930 . S
C4143 C4139 1.400 . S
C4143 C4142 1.385 . S
C4144 C4142 1.478 . S
C4144 C4146 1.381 . S
C4144 C4150 1.383 . S
C4145 C4141 1.495 . S
C4145 H4151 0.959 . S
C4145 H4152 0.961 . S
C4145 H4153 0.960 . S
C4146 C4144 1.381 . S
C4146 C4147 1.394 . S
C4146 H4154 0.930 . S
C4147 C4146 1.394 . S
C4147 C4148 1.383 . S
C4147 H4155 0.929 . S
C4148 C4147 1.383 . S
C4148 C4149 1.377 . S
C4149 H4133 0.930 . S
C4149 C4148 1.377 . S
C4149 C4150 1.379 . S
C4150 H4134 0.931 . S
C4150 C4144 1.383 . S
C4150 C4149 1.379 . S
H4151 C4145 0.959 . S
H4152 C4145 0.961 . S
H4153 C4145 0.960 . S
H4154 C4146 0.930 . S
H4155 C4147 0.929 . S
H4156 C4164 0.929 . S
H4157 C4166 0.930 . S
H4158 C4168 0.930 . S
H4159 C4171 0.929 . S
H4160 C4174 0.930 . S
H4161 C4176 0.960 . S
H4162 C4176 0.960 . S
H4163 C4176 0.960 . S
C4164 H4156 0.929 . S
C4164 C4165 1.377 . S
C4164 C4166 1.384 . S
C4165 C4164 1.377 . S
C4165 C4171 1.390 . S
C4166 H4157 0.930 . S
C4166 C4164 1.384 . S
C4166 C4167 1.372 . S
C4167 C4166 1.372 . S
C4167 C4168 1.400 . S
C4167 C4172 1.490 . S
C4168 H4158 0.930 . S
C4168 C4167 1.400 . S
C4168 C4171 1.386 . S
H4169 C4185 0.930 . S
H4170 C4186 0.931 . S
C4171 H4159 0.929 . S
C4171 C4165 1.390 . S
C4171 C4168 1.386 . S
C4172 C4167 1.490 . S
C4172 C4174 1.395 . S
C4172 C4175 1.403 . S
H4173 C4179 0.930 . S
C4174 H4160 0.930 . S
C4174 C4172 1.395 . S
C4174 C4177 1.403 . S
C4175 C4172 1.403 . S
C4175 C4176 1.524 . S
C4175 C4179 1.400 . S
C4176 H4161 0.960 . S
C4176 H4162 0.960 . S
C4176 H4163 0.960 . S
C4176 C4175 1.524 . S
C4177 C4174 1.403 . S
C4177 C4178 1.392 . S
C4177 C4181 1.495 . S
C4178 C4177 1.392 . S
C4178 C4179 1.385 . S
C4178 C4180 1.478 . S
C4179 H4173 0.930 . S
C4179 C4175 1.400 . S
C4179 C4178 1.385 . S
C4180 C4178 1.478 . S
C4180 C4182 1.381 . S
C4180 C4186 1.383 . S
C4181 C4177 1.495 . S
C4181 H4187 0.961 . S
C4181 H4188 0.961 1_565 S
C4181 H4189 0.947 1_565 S
C4182 C4180 1.381 . S
C4182 C4183 1.394 1_565 S
C4182 H4190 0.930 . S
C4183 C4182 1.394 1_545 S
C4183 C4184 1.383 . S
C4183 H4191 0.929 . S
C4184 C4183 1.383 . S
C4184 C4185 1.376 . S
C4185 H4169 0.930 . S
C4185 C4184 1.376 . S
C4185 C4186 1.380 1_545 S
C4186 H4170 0.931 . S
C4186 C4180 1.383 . S
C4186 C4185 1.380 1_565 S
H4187 C4181 0.961 . S
H4188 C4181 0.961 1_545 S
H4189 C4181 0.947 1_545 S
H4190 C4182 0.930 . S
H4191 C4183 0.929 . S
H4192 C4200 0.929 . S
H4193 C4202 0.930 . S
H4194 C4204 0.930 . S
H4195 C4207 0.929 . S
H4196 C4210 0.930 . S
H4197 C4212 0.960 . S
H4198 C4212 0.960 . S
H4199 C4212 0.960 . S
C4200 H4192 0.929 . S
C4200 C4201 1.377 . S
C4200 C4202 1.384 . S
C4201 C4200 1.377 . S
C4201 C4207 1.390 . S
C4202 H4193 0.930 . S
C4202 C4200 1.384 . S
C4202 C4203 1.372 . S
C4203 C4202 1.372 . S
C4203 C4204 1.400 . S
C4203 C4208 1.490 . S
C4204 H4194 0.930 . S
C4204 C4203 1.400 . S
C4204 C4207 1.386 . S
H4205 C4221 0.930 . S
H4206 C4222 0.931 . S
C4207 H4195 0.929 . S
C4207 C4201 1.390 . S
C4207 C4204 1.386 . S
C4208 C4203 1.490 . S
C4208 C4210 1.395 . S
C4208 C4211 1.403 . S
H4209 C4215 0.930 . S
C4210 H4196 0.930 . S
C4210 C4208 1.395 . S
C4210 C4213 1.403 . S
C4211 C4208 1.403 . S
C4211 C4212 1.524 . S
C4211 C4215 1.400 . S
C4212 H4197 0.960 . S
C4212 H4198 0.960 . S
C4212 H4199 0.960 . S
C4212 C4211 1.524 . S
C4213 C4210 1.403 . S
C4213 C4214 1.392 . S
C4213 C4217 1.495 . S
C4214 C4213 1.392 . S
C4214 C4215 1.385 . S
C4214 C4216 1.478 . S
C4215 H4209 0.930 . S
C4215 C4211 1.400 . S
C4215 C4214 1.385 . S
C4216 C4214 1.478 . S
C4216 C4218 1.381 . S
C4216 C4222 1.383 . S
C4217 C4213 1.495 . S
C4217 H4223 0.959 . S
C4217 H4224 0.961 . S
C4217 H4225 0.960 . S
C4218 C4216 1.381 . S
C4218 C4219 1.394 . S
C4218 H4226 0.930 . S
C4219 C4218 1.394 . S
C4219 C4220 1.383 . S
C4219 H4227 0.929 . S
C4220 C4219 1.383 . S
C4220 C4221 1.377 . S
C4221 H4205 0.930 . S
C4221 C4220 1.377 . S
C4221 C4222 1.379 . S
C4222 H4206 0.931 . S
C4222 C4216 1.383 . S
C4222 C4221 1.379 . S
H4223 C4217 0.959 . S
H4224 C4217 0.961 . S
H4225 C4217 0.960 . S
H4226 C4218 0.930 . S
H4227 C4219 0.929 . S
H4228 C4236 0.929 . S
H4229 C4238 0.930 . S
H4230 C4240 0.930 . S
H4231 C4243 0.929 . S
H4232 C4246 0.930 . S
H4233 C4248 0.960 . S
H4234 C4248 0.960 . S
H4235 C4248 0.960 . S
C4236 H4228 0.929 . S
C4236 C4237 1.377 1_556 S
C4236 C4238 1.384 . S
C4237 C4236 1.377 1_554 S
C4237 C4243 1.390 . S
C4238 H4229 0.930 . S
C4238 C4236 1.384 . S
C4238 C4239 1.372 1_556 S
C4239 C4238 1.372 1_554 S
C4239 C4240 1.400 . S
C4239 C4244 1.490 . S
C4240 H4230 0.930 . S
C4240 C4239 1.400 . S
C4240 C4243 1.386 . S
H4241 C4257 0.930 . S
H4242 C4258 0.931 . S
C4243 H4231 0.929 . S
C4243 C4237 1.390 . S
C4243 C4240 1.386 . S
C4244 C4239 1.490 . S
C4244 C4246 1.395 1_554 S
C4244 C4247 1.403 . S
H4245 C4251 0.930 . S
C4246 H4232 0.930 . S
C4246 C4244 1.395 1_556 S
C4246 C4249 1.403 . S
C4247 C4244 1.403 . S
C4247 C4248 1.524 . S
C4247 C4251 1.400 . S
C4248 H4233 0.960 . S
C4248 H4234 0.960 . S
C4248 H4235 0.960 . S
C4248 C4247 1.524 . S
C4249 C4246 1.403 . S
C4249 C4250 1.392 1_556 S
C4249 C4253 1.495 . S
C4250 C4249 1.392 1_554 S
C4250 C4251 1.385 . S
C4250 C4252 1.478 . S
C4251 H4245 0.930 . S
C4251 C4247 1.400 . S
C4251 C4250 1.385 . S
C4252 C4250 1.478 . S
C4252 C4254 1.381 1_554 S
C4252 C4258 1.383 . S
C4253 C4249 1.495 . S
C4253 H4259 0.959 . S
C4253 H4260 0.961 . S
C4253 H4261 0.960 . S
C4254 C4252 1.381 1_556 S
C4254 C4255 1.394 . S
C4254 H4262 0.930 . S
C4255 C4254 1.394 . S
C4255 C4256 1.383 1_556 S
C4255 H4263 0.929 . S
C4256 C4255 1.383 1_554 S
C4256 C4257 1.377 . S
C4257 H4241 0.930 . S
C4257 C4256 1.377 . S
C4257 C4258 1.379 . S
C4258 H4242 0.931 . S
C4258 C4252 1.383 . S
C4258 C4257 1.379 . S
H4259 C4253 0.959 . S
H4260 C4253 0.961 . S
H4261 C4253 0.960 . S
H4262 C4254 0.930 . S
H4263 C4255 0.929 . S
H4264 C4272 0.929 . S
H4265 C4274 0.930 . S
H4266 C4276 0.930 . S
H4267 C4279 0.929 . S
H4268 C4282 0.930 . S
H4269 C4284 0.960 . S
H4270 C4284 0.960 . S
H4271 C4284 0.960 . S
C4272 H4264 0.929 . S
C4272 C4273 1.377 . S
C4272 C4274 1.384 . S
C4273 C4272 1.377 . S
C4273 C4279 1.390 . S
C4274 H4265 0.930 . S
C4274 C4272 1.384 . S
C4274 C4275 1.372 . S
C4275 C4274 1.372 . S
C4275 C4276 1.400 . S
C4275 C4280 1.490 . S
C4276 H4266 0.930 . S
C4276 C4275 1.400 . S
C4276 C4279 1.386 . S
H4277 C4293 0.930 . S
H4278 C4294 0.931 . S
C4279 H4267 0.929 . S
C4279 C4273 1.390 . S
C4279 C4276 1.386 . S
C4280 C4275 1.490 . S
C4280 C4282 1.395 . S
C4280 C4283 1.403 . S
H4281 C4287 0.930 . S
C4282 H4268 0.930 . S
C4282 C4280 1.395 . S
C4282 C4285 1.403 . S
C4283 C4280 1.403 . S
C4283 C4284 1.524 . S
C4283 C4287 1.400 . S
C4284 H4269 0.960 . S
C4284 H4270 0.960 . S
C4284 H4271 0.960 . S
C4284 C4283 1.524 . S
C4285 C4282 1.403 . S
C4285 C4286 1.392 . S
C4285 C4289 1.495 . S
C4286 C4285 1.392 . S
C4286 C4287 1.385 . S
C4286 C4288 1.478 . S
C4287 H4281 0.930 . S
C4287 C4283 1.400 . S
C4287 C4286 1.385 . S
C4288 C4286 1.478 . S
C4288 C4290 1.381 . S
C4288 C4294 1.383 . S
C4289 C4285 1.495 . S
C4289 H4295 0.959 . S
C4289 H4296 0.961 . S
C4289 H4297 0.960 . S
C4290 C4288 1.381 . S
C4290 C4291 1.394 . S
C4290 H4298 0.930 . S
C4291 C4290 1.394 . S
C4291 C4292 1.383 . S
C4291 H4299 0.929 . S
C4292 C4291 1.383 . S
C4292 C4293 1.377 . S
C4293 H4277 0.930 . S
C4293 C4292 1.377 . S
C4293 C4294 1.379 . S
C4294 H4278 0.931 . S
C4294 C4288 1.383 . S
C4294 C4293 1.379 . S
H4295 C4289 0.959 . S
H4296 C4289 0.961 . S
H4297 C4289 0.960 . S
H4298 C4290 0.930 . S
H4299 C4291 0.929 . S
H4300 C4308 0.953 . S
H4301 C4310 0.930 . S
H4302 C4312 0.930 . S
H4303 C4315 0.929 . S
H4304 C4318 0.930 . S
H4305 C4320 0.960 . S
H4306 C4320 0.960 . S
H4307 C4320 0.960 . S
C4308 H4300 0.953 . S
C4308 C4309 1.344 1_556 S
C4308 C4310 1.399 . S
C4309 C4308 1.344 1_554 S
C4309 C4315 1.390 . S
C4310 H4301 0.930 . S
C4310 C4308 1.399 . S
C4310 C4311 1.372 1_556 S
C4311 C4310 1.372 1_554 S
C4311 C4312 1.400 . S
C4311 C4316 1.487 1_554 S
C4312 H4302 0.930 . S
C4312 C4311 1.400 . S
C4312 C4315 1.386 . S
H4313 C4329 0.930 1_554 S
H4314 C4330 0.910 1_554 S
C4315 H4303 0.929 . S
C4315 C4309 1.390 . S
C4315 C4312 1.386 . S
C4316 C4311 1.487 1_556 S
C4316 C4318 1.389 1_556 S
C4316 C4319 1.412 . S
H4317 C4323 0.930 . S
C4318 H4304 0.930 . S
C4318 C4316 1.389 1_554 S
C4318 C4321 1.400 1_554 S
C4319 C4316 1.412 . S
C4319 C4320 1.524 . S
C4319 C4323 1.400 . S
C4320 H4305 0.960 . S
C4320 H4306 0.960 . S
C4320 H4307 0.960 . S
C4320 C4319 1.524 . S
C4321 C4318 1.400 1_556 S
C4321 C4322 1.403 . S
C4321 C4325 1.488 1_556 S
C4322 C4321 1.403 . S
C4322 C4323 1.385 . S
C4322 C4324 1.478 . S
C4323 H4317 0.930 . S
C4323 C4319 1.400 . S
C4323 C4322 1.385 . S
C4324 C4322 1.478 . S
C4324 C4326 1.381 . S
C4324 C4330 1.396 . S
C4325 C4321 1.488 1_554 S
C4325 H4331 0.959 . S
C4325 H4332 0.961 . S
C4325 H4333 0.960 1_554 S
C4326 C4324 1.381 . S
C4326 C4327 1.394 . S
C4326 H4334 0.930 . S
C4327 C4326 1.394 . S
C4327 C4328 1.383 . S
C4327 H4335 0.929 . S
C4328 C4327 1.383 . S
C4328 C4329 1.377 . S
C4329 H4313 0.930 1_556 S
C4329 C4328 1.377 . S
C4329 C4330 1.388 . S
C4330 H4314 0.910 1_556 S
C4330 C4324 1.396 . S
C4330 C4329 1.388 . S
H4331 C4325 0.959 . S
H4332 C4325 0.961 . S
H4333 C4325 0.960 1_556 S
H4334 C4326 0.930 . S
H4335 C4327 0.929 . S
H4336 C4344 0.930 . S
H4337 C4346 0.930 . S
H4338 C4348 0.930 . S
H4339 C4351 0.929 . S
H4340 C4354 0.930 . S
H4341 C4356 0.960 . S
H4342 C4356 0.960 . S
H4343 C4356 0.960 . S
C4344 H4336 0.930 . S
C4344 C4345 1.377 . S
C4344 C4346 1.384 . S
C4345 C4344 1.377 . S
C4345 C4351 1.390 . S
C4346 H4337 0.930 . S
C4346 C4344 1.384 . S
C4346 C4347 1.372 . S
C4347 C4346 1.372 . S
C4347 C4348 1.400 . S
C4347 C4352 1.490 . S
C4348 H4338 0.930 . S
C4348 C4347 1.400 . S
C4348 C4351 1.386 . S
H4349 C4365 0.930 . S
H4350 C4366 0.931 . S
C4351 H4339 0.929 . S
C4351 C4345 1.390 . S
C4351 C4348 1.386 . S
C4352 C4347 1.490 . S
C4352 C4354 1.395 . S
C4352 C4355 1.403 . S
H4353 C4359 0.930 . S
C4354 H4340 0.930 . S
C4354 C4352 1.395 . S
C4354 C4357 1.403 . S
C4355 C4352 1.403 . S
C4355 C4356 1.524 . S
C4355 C4359 1.400 . S
C4356 H4341 0.960 . S
C4356 H4342 0.960 . S
C4356 H4343 0.960 . S
C4356 C4355 1.524 . S
C4357 C4354 1.403 . S
C4357 C4358 1.392 . S
C4357 C4361 1.495 . S
C4358 C4357 1.392 . S
C4358 C4359 1.385 . S
C4358 C4360 1.478 . S
C4359 H4353 0.930 . S
C4359 C4355 1.400 . S
C4359 C4358 1.385 . S
C4360 C4358 1.478 . S
C4360 C4362 1.381 . S
C4360 C4366 1.383 . S
C4361 C4357 1.495 . S
C4361 H4367 0.959 . S
C4361 H4368 0.961 . S
C4361 H4369 0.960 . S
C4362 C4360 1.381 . S
C4362 C4363 1.394 . S
C4362 H4370 0.930 . S
C4363 C4362 1.394 . S
C4363 C4364 1.383 . S
C4363 H4371 0.929 . S
C4364 C4363 1.383 . S
C4364 C4365 1.377 . S
C4365 H4349 0.930 . S
C4365 C4364 1.377 . S
C4365 C4366 1.379 . S
C4366 H4350 0.931 . S
C4366 C4360 1.383 . S
C4366 C4365 1.379 . S
H4367 C4361 0.959 . S
H4368 C4361 0.961 . S
H4369 C4361 0.960 . S
H4370 C4362 0.930 . S
H4371 C4363 0.929 . S
H4372 C4380 0.929 . S
H4373 C4382 0.930 . S
H4374 C4384 0.930 . S
H4375 C4387 0.929 . S
H4376 C4390 0.930 . S
H4377 C4392 0.960 . S
H4378 C4392 0.960 . S
H4379 C4392 0.960 . S
C4380 H4372 0.929 . S
C4380 C4381 1.377 . S
C4380 C4382 1.384 . S
C4381 C4380 1.377 . S
C4381 C4387 1.390 . S
C4382 H4373 0.930 . S
C4382 C4380 1.384 . S
C4382 C4383 1.372 . S
C4383 C4382 1.372 . S
C4383 C4384 1.400 . S
C4383 C4388 1.490 . S
C4384 H4374 0.930 . S
C4384 C4383 1.400 . S
C4384 C4387 1.386 . S
H4385 C4401 0.930 . S
H4386 C4402 0.931 . S
C4387 H4375 0.929 . S
C4387 C4381 1.390 . S
C4387 C4384 1.386 . S
C4388 C4383 1.490 . S
C4388 C4390 1.395 . S
C4388 C4391 1.403 . S
H4389 C4395 0.930 . S
C4390 H4376 0.930 . S
C4390 C4388 1.395 . S
C4390 C4393 1.403 . S
C4391 C4388 1.403 . S
C4391 C4392 1.524 . S
C4391 C4395 1.400 . S
C4392 H4377 0.960 . S
C4392 H4378 0.960 . S
C4392 H4379 0.960 . S
C4392 C4391 1.524 . S
C4393 C4390 1.403 . S
C4393 C4394 1.392 . S
C4393 C4397 1.495 . S
C4394 C4393 1.392 . S
C4394 C4395 1.385 . S
C4394 C4396 1.478 . S
C4395 H4389 0.930 . S
C4395 C4391 1.400 . S
C4395 C4394 1.385 . S
C4396 C4394 1.478 . S
C4396 C4398 1.381 . S
C4396 C4402 1.383 . S
C4397 C4393 1.495 . S
C4397 H4403 0.959 . S
C4397 H4404 0.961 . S
C4397 H4405 0.960 . S
C4398 C4396 1.381 . S
C4398 C4399 1.394 . S
C4398 H4406 0.930 . S
C4399 C4398 1.394 . S
C4399 C4400 1.383 . S
C4399 H4407 0.929 . S
C4400 C4399 1.383 . S
C4400 C4401 1.377 . S
C4401 H4385 0.930 . S
C4401 C4400 1.377 . S
C4401 C4402 1.379 . S
C4402 H4386 0.931 . S
C4402 C4396 1.383 . S
C4402 C4401 1.379 . S
H4403 C4397 0.959 . S
H4404 C4397 0.961 . S
H4405 C4397 0.960 . S
H4406 C4398 0.930 . S
H4407 C4399 0.929 . S
C961 C101 2.259 . S
C980 C322 2.198 1_556 S
C997 C57 2.051 . S
C1016 C370 2.062 . S
C1033 C73 1.074 . S
C1052 C402 1.065 . S
C1088 C447 1.367 . S
C1069 C78 1.326 . S
C1105 C21 1.170 . S
C1124 C487 1.205 . S
C1160 C518 0.292 . S
C1141 C31 0.365 . S
C1196 C570 1.204 . S
C1177 C49 1.225 . S
C1213 C0 1.592 . S
C1232 C602 1.614 . S
C1268 C330 2.441 . S
C1249 C218 2.455 . S
C1285 C229 0.383 . S
C1304 C367 0.245 . S
C1340 C410 1.324 . S
C1321 C257 1.361 . S
C1376 C442 1.134 . S
C1357 C164 1.128 . S
C1393 C216 1.627 . S
C1412 C482 1.704 . S
C1448 C521 1.452 . S
C1429 C231 1.486 . S
C1484 C567 0.369 . S
C1465 C255 0.367 . S
C1520 C610 1.950 . S
C1501 C166 1.996 . S
C1556 C327 1.393 . S
C1537 C143 1.330 . S
C1573 C265 1.985 . S
C1592 C650 2.019 . S
C1628 C691 2.471 . S
C1609 C299 2.527 . S
C1664 C722 0.602 1_655 S
C1645 C291 0.596 . S
C1681 C104 1.147 . S
C1700 C607 1.192 . S
C1717 C117 1.433 . S
C1736 C407 1.461 . S
C1753 C304 2.224 . S
C1772 C770 2.234 . S
C1808 C802 0.504 . S
C1789 C278 0.345 . S
C1844 C331 2.155 . S
C1825 C60 2.206 . S
C1880 C801 1.972 . S
C1861 C96 1.969 . S
C1897 C88 0.969 . S
C1916 C411 0.966 . S
C1933 C65 1.271 . S
C1952 C758 1.286 . S
C1988 C478 1.170 . S
C1969 C10 1.161 . S
C2005 C44 0.374 . S
C2024 C687 0.168 . S
C2060 C561 1.100 1_556 S
C2041 C34 1.038 . S
C2096 C851 1.557 . S
C2077 C13 1.636 . S
C2132 C321 2.370 . S
C2113 C138 2.333 . S
C2168 C798 0.393 . S
C2149 C296 0.249 . S
C2185 C112 1.232 . S
C2204 C401 1.242 . S
C2221 C270 1.053 . S
C2240 C771 1.063 . S
C2257 C140 1.627 . S
C2276 C491 1.614 . S
C2312 C690 1.419 . S
C2293 C294 1.399 . S
C2329 C114 0.147 . S
C2348 C558 0.412 . S
C2365 C268 1.883 . S
C2384 C841 1.899 . S
C2401 C169 1.361 . S
C2420 C318 1.360 . S
C2437 C161 1.913 . S
C2456 C641 1.909 . S
C2473 C234 2.470 . S
C2492 C522 2.431 . S
C2509 C226 0.480 . S
C2528 C731 0.490 . S
C2564 C838 1.155 . S
C2545 C247 1.204 . S
C2581 C195 1.454 . S
C2600 C398 1.418 . S
C2636 C441 2.153 . S
C2617 C239 2.142 . S
C2672 C371 0.310 . S
C2653 C187 0.283 . S
C2689 C75 2.257 . S
C2708 C882 2.211 . S
C2744 C810 2.083 . S
C2725 C83 2.048 . S
C2761 C99 1.060 . S
C2780 C922 1.080 . S
C2797 C52 1.332 . S
C2816 C767 1.373 . S
C2833 C47 1.157 . S
C2852 C647 1.209 . S
C2888 C678 0.224 . S
C2869 C5 0.390 . S
C2924 C730 1.243 . S
C2905 C23 1.214 . S
C2960 C842 1.626 . S
C2941 C26 1.592 . S
C2996 C890 2.436 . S
C2977 C244 2.455 . S
C3013 C177 0.384 . S
C3032 C807 0.422 . S
C3068 C930 1.352 . S
C3049 C192 1.362 . S
C3104 C762 1.147 . S
C3085 C203 1.116 . S
C3140 C642 1.698 . S
C3121 C242 1.628 . S
C3157 C179 1.485 . S
C3176 C681 1.475 . S
C3212 C727 0.290 . S
C3193 C190 0.388 . S
C3229 C205 1.996 . S
C3248 C850 1.951 . S
C3284 C887 1.386 . S
C3265 C286 1.329 . S
C3301 C122 1.985 . S
C3320 C490 2.019 . S
C3356 C531 2.481 . S
C3337 C130 2.531 . S
C3392 C562 0.567 . S
C3373 C148 0.616 . S
C3428 C847 1.192 . S
C3409 C273 1.147 . S
C3445 C260 1.423 . S
C3464 C927 1.472 . S
C3500 C450 2.231 . S
C3481 C135 2.225 . S
C3536 C362 0.457 . S
C3517 C109 0.356 . S
C3553 C86 2.206 . S
C3572 C891 2.157 . S
C3608 C361 1.963 . S
C3589 C70 1.966 . S
C3625 C62 0.971 . S
C3644 C931 0.929 . S
C3661 C91 1.270 . S
C3680 C438 1.280 . S
C3697 C36 1.162 . S
C3716 C638 1.112 . S
C3752 C527 0.234 . S
C3733 C18 0.351 . S
C3769 C8 1.027 . S
C3788 C721 1.078 . S
C3805 C39 1.627 . S
C3824 C611 1.588 . S
C3860 C881 2.358 . S
C3841 C307 2.323 . S
C3877 C153 0.233 . S
C3896 C358 0.263 . S
C3932 C921 1.242 . S
C3913 C281 1.232 . S
C3949 C127 1.054 . S
C3968 C451 1.023 . S
C3985 C309 1.621 . S
C4004 C651 1.583 . S
C4040 C530 1.384 . S
C4021 C151 1.403 . S
C4057 C283 0.178 . S
C4076 C718 0.321 . S
C4112 C601 1.906 . S
C4093 C125 1.885 . S
C4148 C878 1.361 . S
C4129 C221 1.361 . S
C4184 C481 1.862 1_655 S
C4165 C200 1.911 . S
C4201 C208 2.474 . S
C4220 C682 2.421 . S
C4256 C571 0.491 . S
C4237 C174 0.482 . S
C4273 C182 1.206 . S
C4292 C598 1.200 . S
C4309 C156 1.454 . S
C4328 C918 1.416 . S
C4364 C761 2.135 . S
C4345 C213 2.143 1_565 S
C4400 C811 0.363 . S
C4381 C252 0.267 . S
