# Generated by pormake.
# Topology gar, (4,6)-cn, num edge types: 1
# Building blocks:
#     Node 0, Type 0, BuildingBlock: AZAVOO_clean_sbu_0, # of connection points: 4
#     Node 1, Type 0, BuildingBlock: AZAVOO_clean_sbu_0, # of connection points: 4
#     Node 2, Type 0, BuildingBlock: AZAVOO_clean_sbu_0, # of connection points: 4
#     Node 3, Type 0, BuildingBlock: AZAVOO_clean_sbu_0, # of connection points: 4
#     Node 4, Type 0, BuildingBlock: AZAVOO_clean_sbu_0, # of connection points: 4
#     Node 5, Type 0, BuildingBlock: AZAVOO_clean_sbu_0, # of connection points: 4
#     Node 6, Type 0, BuildingBlock: AZAVOO_clean_sbu_0, # of connection points: 4
#     Node 7, Type 0, BuildingBlock: AZAVOO_clean_sbu_0, # of connection points: 4
#     Node 8, Type 0, BuildingBlock: AZAVOO_clean_sbu_0, # of connection points: 4
#     Node 9, Type 0, BuildingBlock: AZAVOO_clean_sbu_0, # of connection points: 4
#     Node 10, Type 0, BuildingBlock: AZAVOO_clean_sbu_0, # of connection points: 4
#     Node 11, Type 0, BuildingBlock: AZAVOO_clean_sbu_0, # of connection points: 4
#     Node 12, Type 0, BuildingBlock: AZAVOO_clean_sbu_0, # of connection points: 4
#     Node 13, Type 0, BuildingBlock: AZAVOO_clean_sbu_0, # of connection points: 4
#     Node 14, Type 0, BuildingBlock: AZAVOO_clean_sbu_0, # of connection points: 4
#     Node 15, Type 0, BuildingBlock: AZAVOO_clean_sbu_0, # of connection points: 4
#     Node 16, Type 0, BuildingBlock: AZAVOO_clean_sbu_0, # of connection points: 4
#     Node 17, Type 0, BuildingBlock: AZAVOO_clean_sbu_0, # of connection points: 4
#     Node 18, Type 0, BuildingBlock: AZAVOO_clean_sbu_0, # of connection points: 4
#     Node 19, Type 0, BuildingBlock: AZAVOO_clean_sbu_0, # of connection points: 4
#     Node 20, Type 0, BuildingBlock: AZAVOO_clean_sbu_0, # of connection points: 4
#     Node 21, Type 0, BuildingBlock: AZAVOO_clean_sbu_0, # of connection points: 4
#     Node 22, Type 0, BuildingBlock: AZAVOO_clean_sbu_0, # of connection points: 4
#     Node 23, Type 0, BuildingBlock: AZAVOO_clean_sbu_0, # of connection points: 4
#     Node 24, Type 1, BuildingBlock: CUKXOW_clean_sbu_0, # of connection points: 6
#     Node 25, Type 1, BuildingBlock: CUKXOW_clean_sbu_0, # of connection points: 6
#     Node 26, Type 1, BuildingBlock: CUKXOW_clean_sbu_0, # of connection points: 6
#     Node 27, Type 1, BuildingBlock: CUKXOW_clean_sbu_0, # of connection points: 6
#     Node 28, Type 1, BuildingBlock: CUKXOW_clean_sbu_0, # of connection points: 6
#     Node 29, Type 1, BuildingBlock: CUKXOW_clean_sbu_0, # of connection points: 6
#     Node 30, Type 1, BuildingBlock: CUKXOW_clean_sbu_0, # of connection points: 6
#     Node 31, Type 1, BuildingBlock: CUKXOW_clean_sbu_0, # of connection points: 6
#     Node 32, Type 1, BuildingBlock: CUKXOW_clean_sbu_0, # of connection points: 6
#     Node 33, Type 1, BuildingBlock: CUKXOW_clean_sbu_0, # of connection points: 6
#     Node 34, Type 1, BuildingBlock: CUKXOW_clean_sbu_0, # of connection points: 6
#     Node 35, Type 1, BuildingBlock: CUKXOW_clean_sbu_0, # of connection points: 6
#     Node 36, Type 1, BuildingBlock: CUKXOW_clean_sbu_0, # of connection points: 6
#     Node 37, Type 1, BuildingBlock: CUKXOW_clean_sbu_0, # of connection points: 6
#     Node 38, Type 1, BuildingBlock: CUKXOW_clean_sbu_0, # of connection points: 6
#     Node 39, Type 1, BuildingBlock: CUKXOW_clean_sbu_0, # of connection points: 6
#     Edge 40, Type (0, 1), BuildingBlock: XUDNAN_clean_linker_2, # of connection points: 2
#     Edge 41, Type (0, 1), BuildingBlock: XUDNAN_clean_linker_2, # of connection points: 2
#     Edge 42, Type (0, 1), BuildingBlock: XUDNAN_clean_linker_2, # of connection points: 2
#     Edge 43, Type (0, 1), BuildingBlock: XUDNAN_clean_linker_2, # of connection points: 2
#     Edge 44, Type (0, 1), BuildingBlock: XUDNAN_clean_linker_2, # of connection points: 2
#     Edge 45, Type (0, 1), BuildingBlock: XUDNAN_clean_linker_2, # of connection points: 2
#     Edge 46, Type (0, 1), BuildingBlock: XUDNAN_clean_linker_2, # of connection points: 2
#     Edge 47, Type (0, 1), BuildingBlock: XUDNAN_clean_linker_2, # of connection points: 2
#     Edge 48, Type (0, 1), BuildingBlock: XUDNAN_clean_linker_2, # of connection points: 2
#     Edge 49, Type (0, 1), BuildingBlock: XUDNAN_clean_linker_2, # of connection points: 2
#     Edge 50, Type (0, 1), BuildingBlock: XUDNAN_clean_linker_2, # of connection points: 2
#     Edge 51, Type (0, 1), BuildingBlock: XUDNAN_clean_linker_2, # of connection points: 2
#     Edge 52, Type (0, 1), BuildingBlock: XUDNAN_clean_linker_2, # of connection points: 2
#     Edge 53, Type (0, 1), BuildingBlock: XUDNAN_clean_linker_2, # of connection points: 2
#     Edge 54, Type (0, 1), BuildingBlock: XUDNAN_clean_linker_2, # of connection points: 2
#     Edge 55, Type (0, 1), BuildingBlock: XUDNAN_clean_linker_2, # of connection points: 2
#     Edge 56, Type (0, 1), BuildingBlock: XUDNAN_clean_linker_2, # of connection points: 2
#     Edge 57, Type (0, 1), BuildingBlock: XUDNAN_clean_linker_2, # of connection points: 2
#     Edge 58, Type (0, 1), BuildingBlock: XUDNAN_clean_linker_2, # of connection points: 2
#     Edge 59, Type (0, 1), BuildingBlock: XUDNAN_clean_linker_2, # of connection points: 2
#     Edge 60, Type (0, 1), BuildingBlock: XUDNAN_clean_linker_2, # of connection points: 2
#     Edge 61, Type (0, 1), BuildingBlock: XUDNAN_clean_linker_2, # of connection points: 2
#     Edge 62, Type (0, 1), BuildingBlock: XUDNAN_clean_linker_2, # of connection points: 2
#     Edge 63, Type (0, 1), BuildingBlock: XUDNAN_clean_linker_2, # of connection points: 2
#     Edge 64, Type (0, 1), BuildingBlock: XUDNAN_clean_linker_2, # of connection points: 2
#     Edge 65, Type (0, 1), BuildingBlock: XUDNAN_clean_linker_2, # of connection points: 2
#     Edge 66, Type (0, 1), BuildingBlock: XUDNAN_clean_linker_2, # of connection points: 2
#     Edge 67, Type (0, 1), BuildingBlock: XUDNAN_clean_linker_2, # of connection points: 2
#     Edge 68, Type (0, 1), BuildingBlock: XUDNAN_clean_linker_2, # of connection points: 2
#     Edge 69, Type (0, 1), BuildingBlock: XUDNAN_clean_linker_2, # of connection points: 2
#     Edge 70, Type (0, 1), BuildingBlock: XUDNAN_clean_linker_2, # of connection points: 2
#     Edge 71, Type (0, 1), BuildingBlock: XUDNAN_clean_linker_2, # of connection points: 2
#     Edge 72, Type (0, 1), BuildingBlock: XUDNAN_clean_linker_2, # of connection points: 2
#     Edge 73, Type (0, 1), BuildingBlock: XUDNAN_clean_linker_2, # of connection points: 2
#     Edge 74, Type (0, 1), BuildingBlock: XUDNAN_clean_linker_2, # of connection points: 2
#     Edge 75, Type (0, 1), BuildingBlock: XUDNAN_clean_linker_2, # of connection points: 2
#     Edge 76, Type (0, 1), BuildingBlock: XUDNAN_clean_linker_2, # of connection points: 2
#     Edge 77, Type (0, 1), BuildingBlock: XUDNAN_clean_linker_2, # of connection points: 2
#     Edge 78, Type (0, 1), BuildingBlock: XUDNAN_clean_linker_2, # of connection points: 2
#     Edge 79, Type (0, 1), BuildingBlock: XUDNAN_clean_linker_2, # of connection points: 2
#     Edge 80, Type (0, 1), BuildingBlock: XUDNAN_clean_linker_2, # of connection points: 2
#     Edge 81, Type (0, 1), BuildingBlock: XUDNAN_clean_linker_2, # of connection points: 2
#     Edge 82, Type (0, 1), BuildingBlock: XUDNAN_clean_linker_2, # of connection points: 2
#     Edge 83, Type (0, 1), BuildingBlock: XUDNAN_clean_linker_2, # of connection points: 2
#     Edge 84, Type (0, 1), BuildingBlock: XUDNAN_clean_linker_2, # of connection points: 2
#     Edge 85, Type (0, 1), BuildingBlock: XUDNAN_clean_linker_2, # of connection points: 2
#     Edge 86, Type (0, 1), BuildingBlock: XUDNAN_clean_linker_2, # of connection points: 2
#     Edge 87, Type (0, 1), BuildingBlock: XUDNAN_clean_linker_2, # of connection points: 2
#     Edge 88, Type (0, 1), BuildingBlock: XUDNAN_clean_linker_2, # of connection points: 2
#     Edge 89, Type (0, 1), BuildingBlock: XUDNAN_clean_linker_2, # of connection points: 2
#     Edge 90, Type (0, 1), BuildingBlock: XUDNAN_clean_linker_2, # of connection points: 2
#     Edge 91, Type (0, 1), BuildingBlock: XUDNAN_clean_linker_2, # of connection points: 2
#     Edge 92, Type (0, 1), BuildingBlock: XUDNAN_clean_linker_2, # of connection points: 2
#     Edge 93, Type (0, 1), BuildingBlock: XUDNAN_clean_linker_2, # of connection points: 2
#     Edge 94, Type (0, 1), BuildingBlock: XUDNAN_clean_linker_2, # of connection points: 2
#     Edge 95, Type (0, 1), BuildingBlock: XUDNAN_clean_linker_2, # of connection points: 2
#     Edge 96, Type (0, 1), BuildingBlock: XUDNAN_clean_linker_2, # of connection points: 2
#     Edge 97, Type (0, 1), BuildingBlock: XUDNAN_clean_linker_2, # of connection points: 2
#     Edge 98, Type (0, 1), BuildingBlock: XUDNAN_clean_linker_2, # of connection points: 2
#     Edge 99, Type (0, 1), BuildingBlock: XUDNAN_clean_linker_2, # of connection points: 2
#     Edge 100, Type (0, 1), BuildingBlock: XUDNAN_clean_linker_2, # of connection points: 2
#     Edge 101, Type (0, 1), BuildingBlock: XUDNAN_clean_linker_2, # of connection points: 2
#     Edge 102, Type (0, 1), BuildingBlock: XUDNAN_clean_linker_2, # of connection points: 2
#     Edge 103, Type (0, 1), BuildingBlock: XUDNAN_clean_linker_2, # of connection points: 2
#     Edge 104, Type (0, 1), BuildingBlock: XUDNAN_clean_linker_2, # of connection points: 2
#     Edge 105, Type (0, 1), BuildingBlock: XUDNAN_clean_linker_2, # of connection points: 2
#     Edge 106, Type (0, 1), BuildingBlock: XUDNAN_clean_linker_2, # of connection points: 2
#     Edge 107, Type (0, 1), BuildingBlock: XUDNAN_clean_linker_2, # of connection points: 2
#     Edge 108, Type (0, 1), BuildingBlock: XUDNAN_clean_linker_2, # of connection points: 2
#     Edge 109, Type (0, 1), BuildingBlock: XUDNAN_clean_linker_2, # of connection points: 2
#     Edge 110, Type (0, 1), BuildingBlock: XUDNAN_clean_linker_2, # of connection points: 2
#     Edge 111, Type (0, 1), BuildingBlock: XUDNAN_clean_linker_2, # of connection points: 2
#     Edge 112, Type (0, 1), BuildingBlock: XUDNAN_clean_linker_2, # of connection points: 2
#     Edge 113, Type (0, 1), BuildingBlock: XUDNAN_clean_linker_2, # of connection points: 2
#     Edge 114, Type (0, 1), BuildingBlock: XUDNAN_clean_linker_2, # of connection points: 2
#     Edge 115, Type (0, 1), BuildingBlock: XUDNAN_clean_linker_2, # of connection points: 2
#     Edge 116, Type (0, 1), BuildingBlock: XUDNAN_clean_linker_2, # of connection points: 2
#     Edge 117, Type (0, 1), BuildingBlock: XUDNAN_clean_linker_2, # of connection points: 2
#     Edge 118, Type (0, 1), BuildingBlock: XUDNAN_clean_linker_2, # of connection points: 2
#     Edge 119, Type (0, 1), BuildingBlock: XUDNAN_clean_linker_2, # of connection points: 2
#     Edge 120, Type (0, 1), BuildingBlock: XUDNAN_clean_linker_2, # of connection points: 2
#     Edge 121, Type (0, 1), BuildingBlock: XUDNAN_clean_linker_2, # of connection points: 2
#     Edge 122, Type (0, 1), BuildingBlock: XUDNAN_clean_linker_2, # of connection points: 2
#     Edge 123, Type (0, 1), BuildingBlock: XUDNAN_clean_linker_2, # of connection points: 2
#     Edge 124, Type (0, 1), BuildingBlock: XUDNAN_clean_linker_2, # of connection points: 2
#     Edge 125, Type (0, 1), BuildingBlock: XUDNAN_clean_linker_2, # of connection points: 2
#     Edge 126, Type (0, 1), BuildingBlock: XUDNAN_clean_linker_2, # of connection points: 2
#     Edge 127, Type (0, 1), BuildingBlock: XUDNAN_clean_linker_2, # of connection points: 2
#     Edge 128, Type (0, 1), BuildingBlock: XUDNAN_clean_linker_2, # of connection points: 2
#     Edge 129, Type (0, 1), BuildingBlock: XUDNAN_clean_linker_2, # of connection points: 2
#     Edge 130, Type (0, 1), BuildingBlock: XUDNAN_clean_linker_2, # of connection points: 2
#     Edge 131, Type (0, 1), BuildingBlock: XUDNAN_clean_linker_2, # of connection points: 2
#     Edge 132, Type (0, 1), BuildingBlock: XUDNAN_clean_linker_2, # of connection points: 2
#     Edge 133, Type (0, 1), BuildingBlock: XUDNAN_clean_linker_2, # of connection points: 2
#     Edge 134, Type (0, 1), BuildingBlock: XUDNAN_clean_linker_2, # of connection points: 2
#     Edge 135, Type (0, 1), BuildingBlock: XUDNAN_clean_linker_2, # of connection points: 2
# Relax obj value: 0.132
# Max RMSD: 0.231
# Mean RMSD: 0.169
data_MOF--net-gar--node1-AZAVOO_clean_sbu_0--node2-CUKXOW_clean_sbu_0--edge1-XUDNAN_clean_linker_2
_symmetry_space_group_name_H-M    P1
_symmetry_Int_Tables_number       1
_symmetry_cell_setting            triclinic
loop_
_symmetry_equiv_pos_as_xyz
'x, y, z'
_cell_length_a     56.155026
_cell_length_b     52.379664
_cell_length_c     53.731029
_cell_angle_alpha  96.25502
_cell_angle_beta   95.075531
_cell_angle_gamma 100.31901
loop_
_atom_site_label
_atom_site_type_symbol
_atom_site_fract_x
_atom_site_fract_y
_atom_site_fract_z
_atom_type_partial_charge
Mg0 Mg 0.0143 0.25422 0.4135 0.0
O1 O 0.01369 0.29306 0.43729 0.0
O2 O 0.97506 0.29294 0.44449 0.0
Mg3 Mg 0.95118 0.25485 0.42499 0.0
C4 C 0.99749 0.30394 0.44703 0.0
C5 C 0.06744 0.27973 0.41093 0.0
O6 O 0.05648 0.29895 0.40566 0.0
O7 O 0.00925 0.23273 0.44729 0.0
O8 O 0.96964 0.23073 0.45144 0.0
O9 O 0.00741 0.27106 0.37806 0.0
O10 O 0.97883 0.2513 0.3991 0.0
C11 C 0.99024 0.2248 0.45781 0.0
C12 C 0.98454 0.26341 0.38027 0.0
O13 O 0.05532 0.2601 0.41909 0.0
Mg14 Mg 0.9938 0.82067 0.63204 0.0
O15 O 0.99025 0.78044 0.6101 0.0
O16 O 0.9521 0.76445 0.59305 0.0
Mg17 Mg 0.93125 0.79728 0.60349 0.0
C18 C 0.97438 0.76242 0.59705 0.0
C19 C 0.04784 0.83503 0.65368 0.0
O20 O 0.03863 0.84833 0.67135 0.0
O21 O 0.99273 0.83734 0.59565 0.0
O22 O 0.95413 0.82305 0.5786 0.0
O23 O 0.9837 0.80313 0.66605 0.0
O24 O 0.95765 0.81341 0.63695 0.0
C25 C 0.97567 0.83589 0.57798 0.0
C26 C 0.96146 0.80349 0.65751 0.0
O27 O 0.03407 0.82351 0.63425 0.0
Mg28 Mg 0.51724 0.77924 0.91421 0.0
O29 O 0.51063 0.81391 0.94123 0.0
O30 O 0.47062 0.80584 0.94484 0.0
Mg31 Mg 0.45191 0.76862 0.91963 0.0
C32 C 0.49188 0.81988 0.95055 0.0
C33 C 0.57018 0.80615 0.91357 0.0
O34 O 0.55898 0.82332 0.90381 0.0
O35 O 0.51192 0.75248 0.9443 0.0
O36 O 0.47154 0.74531 0.94582 0.0
O37 O 0.511 0.80029 0.88115 0.0
O38 O 0.48248 0.77379 0.89682 0.0
C39 C 0.49279 0.74157 0.95302 0.0
C40 C 0.4883 0.78956 0.88065 0.0
O41 O 0.55795 0.78879 0.92453 0.0
Mg42 Mg 0.50598 0.33588 0.13935 0.0
O43 O 0.50488 0.29594 0.11654 0.0
O44 O 0.46572 0.27921 0.10312 0.0
Mg45 Mg 0.44222 0.30762 0.11824 0.0
C46 C 0.48829 0.27787 0.10433 0.0
C47 C 0.56821 0.35429 0.13521 0.0
O48 O 0.57987 0.36868 0.11988 0.0
O49 O 0.49626 0.35138 0.10402 0.0
O50 O 0.45697 0.33681 0.09084 0.0
O51 O 0.5032 0.31874 0.17565 0.0
O52 O 0.47194 0.32277 0.14939 0.0
C53 C 0.47767 0.35062 0.08852 0.0
C54 C 0.47981 0.31508 0.16999 0.0
O55 O 0.54514 0.35039 0.13258 0.0
Mg56 Mg 0.98611 0.76394 0.1723 0.0
O57 O 0.97805 0.72617 0.14382 0.0
O58 O 0.94255 0.72651 0.12162 0.0
Mg59 Mg 0.92557 0.76002 0.13927 0.0
C60 C 0.96135 0.71638 0.12585 0.0
C61 C 0.04398 0.77914 0.18406 0.0
O62 O 0.04039 0.80281 0.18126 0.0
O63 O 0.9927 0.78928 0.14044 0.0
O64 O 0.95465 0.78962 0.12422 0.0
O65 O 0.96872 0.74404 0.20261 0.0
O66 O 0.94902 0.7631 0.17497 0.0
C67 C 0.97768 0.79766 0.12548 0.0
C68 C 0.94861 0.75061 0.19433 0.0
O69 O 0.02599 0.76004 0.17993 0.0
Mg70 Mg 0.51879 0.78101 0.35011 0.0
O71 O 0.51785 0.81707 0.37871 0.0
O72 O 0.4835 0.80778 0.39689 0.0
Mg73 Mg 0.46202 0.7677 0.37905 0.0
C74 C 0.50337 0.82309 0.39452 0.0
C75 C 0.57201 0.77831 0.34086 0.0
O76 O 0.56297 0.75367 0.34246 0.0
O77 O 0.5279 0.75789 0.38226 0.0
O78 O 0.49192 0.74848 0.39728 0.0
O79 O 0.49941 0.79805 0.32015 0.0
O80 O 0.48072 0.77207 0.34505 0.0
C81 C 0.51435 0.74669 0.39735 0.0
C82 C 0.47924 0.7867 0.32739 0.0
O83 O 0.55882 0.79532 0.34512 0.0
Mg84 Mg 0.48472 0.28091 0.66518 0.0
O85 O 0.48049 0.23894 0.64535 0.0
O86 O 0.44746 0.22961 0.61728 0.0
Mg87 Mg 0.42774 0.26442 0.62269 0.0
C88 C 0.46654 0.22357 0.62787 0.0
C89 C 0.54345 0.2949 0.68499 0.0
O90 O 0.54321 0.31876 0.6797 0.0
O91 O 0.49506 0.29889 0.62877 0.0
O92 O 0.45843 0.28924 0.60595 0.0
O93 O 0.46135 0.26751 0.69556 0.0
O94 O 0.44691 0.28019 0.66056 0.0
C95 C 0.48094 0.30002 0.60891 0.0
C96 C 0.44294 0.27241 0.68193 0.0
O97 O 0.52394 0.27766 0.68039 0.0
Mg98 Mg 0.01615 0.27664 0.84398 0.0
O99 O 0.01736 0.31487 0.87109 0.0
O100 O 0.98262 0.30766 0.88908 0.0
Mg101 Mg 0.95808 0.26893 0.87177 0.0
C102 C 0.00312 0.32192 0.88681 0.0
C103 C 0.0629 0.26246 0.83098 0.0
O104 O 0.04589 0.24135 0.8294 0.0
O105 O 0.02266 0.25486 0.87819 0.0
O106 O 0.98514 0.247 0.89037 0.0
O107 O 0.99707 0.29206 0.81144 0.0
O108 O 0.97818 0.27037 0.83897 0.0
C109 C 0.00732 0.24413 0.89196 0.0
C110 C 0.97674 0.28232 0.81946 0.0
O111 O 0.0573 0.28435 0.83844 0.0
Mg112 Mg 0.41652 0.09633 0.27534 0.0
O113 O 0.38811 0.05791 0.27261 0.0
O114 O 0.36876 0.05919 0.30732 0.0
Mg115 Mg 0.38276 0.09894 0.33101 0.0
C116 C 0.37244 0.04751 0.28626 0.0
C117 C 0.44118 0.09887 0.22475 0.0
O118 O 0.45631 0.1178 0.23928 0.0
O119 O 0.3857 0.11812 0.26408 0.0
O120 O 0.36691 0.11835 0.29915 0.0
O121 O 0.44402 0.0789 0.29836 0.0
O122 O 0.4173 0.10001 0.31464 0.0
C123 C 0.36894 0.12414 0.2769 0.0
C124 C 0.43396 0.08636 0.31794 0.0
O125 O 0.42299 0.08657 0.23389 0.0
Mg126 Mg 0.28407 0.13563 0.48429 0.0
O127 O 0.29671 0.15984 0.52248 0.0
O128 O 0.3372 0.1724 0.52621 0.0
Mg129 Mg 0.35034 0.15408 0.49039 0.0
C130 C 0.31667 0.17218 0.53481 0.0
C131 C 0.22843 0.12781 0.47288 0.0
O132 O 0.23393 0.11612 0.45184 0.0
O133 O 0.2916 0.17284 0.4665 0.0
O134 O 0.33221 0.18167 0.46736 0.0
O135 O 0.28639 0.09931 0.50065 0.0
O136 O 0.31713 0.12332 0.48545 0.0
C137 C 0.31116 0.18662 0.46123 0.0
C138 C 0.30926 0.10399 0.4975 0.0
O139 O 0.24551 0.1398 0.4893 0.0
Mg140 Mg 0.12085 0.99349 0.78889 0.0
O141 O 0.14522 0.03389 0.7911 0.0
O142 O 0.17155 0.04233 0.82579 0.0
Mg143 Mg 0.16361 0.00524 0.84575 0.0
C144 C 0.16264 0.04896 0.80533 0.0
C145 C 0.09753 0.01649 0.7455 0.0
O146 O 0.09682 0.03328 0.76533 0.0
O147 O 0.15182 0.97413 0.77707 0.0
O148 O 0.17626 0.9798 0.81323 0.0
O149 O 0.09434 0.00926 0.8119 0.0
O150 O 0.12549 0.99345 0.82784 0.0
C151 C 0.1708 0.97038 0.78999 0.0
C152 C 0.10643 0.00329 0.83138 0.0
O153 O 0.1072 0.99673 0.74843 0.0
Mg154 Mg 0.22546 0.91139 0.03109 0.0
O155 O 0.22537 0.88466 0.99248 0.0
O156 O 0.26203 0.87328 0.99519 0.0
Mg157 Mg 0.28533 0.89186 0.03238 0.0
C158 C 0.24135 0.87287 0.98292 0.0
C159 C 0.17684 0.93044 0.01497 0.0
O160 O 0.1917 0.94211 1.00036 0.0
O161 O 0.22199 0.87685 0.05549 0.0
O162 O 0.26051 0.8708 0.05906 0.0
O163 O 0.2414 0.94725 0.01439 0.0
O164 O 0.26344 0.92232 0.03254 0.0
C165 C 0.23893 0.86649 0.06555 0.0
C166 C 0.26264 0.94227 0.02077 0.0
O167 O 0.18408 0.91353 0.02778 0.0
Mg168 Mg 0.26263 0.43934 0.05453 0.0
O169 O 0.2588 0.40963 0.01899 0.0
O170 O 0.29162 0.39099 0.02028 0.0
Mg171 Mg 0.31585 0.4083 0.05679 0.0
C172 C 0.27118 0.3936 0.00943 0.0
C173 C 0.21591 0.44881 0.02493 0.0
O174 O 0.22781 0.44286 0.00584 0.0
O175 O 0.25199 0.40611 0.07726 0.0
O176 O 0.28581 0.38916 0.07941 0.0
O177 O 0.28222 0.4702 0.03543 0.0
O178 O 0.30036 0.444 0.05698 0.0
C179 C 0.26417 0.38961 0.08495 0.0
C180 C 0.30201 0.46254 0.04289 0.0
O181 O 0.22415 0.44596 0.04703 0.0
Mg182 Mg 0.80543 0.16213 1.00201 0.0
O183 O 0.80736 0.19324 0.03663 0.0
O184 O 0.84152 0.22203 0.03686 0.0
Mg185 Mg 0.86078 0.20809 0.00298 0.0
C186 C 0.8221 0.21395 0.04663 0.0
C187 C 0.74725 0.14152 0.99249 0.0
O188 O 0.74916 0.14391 0.96863 0.0
O189 O 0.79577 0.18888 0.9729 0.0
O190 O 0.83131 0.21558 0.97202 0.0
O191 O 0.82412 0.1391 0.02612 0.0
O192 O 0.84444 0.16519 1.00228 0.0
C193 C 0.80882 0.20743 0.96379 0.0
C194 C 0.84471 0.14863 0.01858 0.0
O195 O 0.766 0.14822 0.00849 0.0
Mg196 Mg 0.11119 0.49039 0.28748 0.0
O197 O 0.14106 0.52658 0.28965 0.0
O198 O 0.1611 0.53584 0.32832 0.0
Mg199 Mg 0.14398 0.50345 0.3508 0.0
C200 C 0.15766 0.54068 0.30563 0.0
C201 C 0.08578 0.48997 0.23315 0.0
O202 O 0.06739 0.49083 0.24653 0.0
O203 O 0.1405 0.46562 0.28571 0.0
O204 O 0.15905 0.47258 0.32512 0.0
O205 O 0.08513 0.51466 0.30106 0.0
O206 O 0.1088 0.49724 0.32663 0.0
C207 C 0.15649 0.46138 0.30238 0.0
C208 C 0.09272 0.51181 0.32387 0.0
O209 O 0.1065 0.48912 0.2444 0.0
Mg210 Mg 0.76391 0.91818 0.5484 0.0
O211 O 0.75773 0.88651 0.51402 0.0
O212 O 0.78854 0.86477 0.51527 0.0
Mg213 Mg 0.81255 0.88039 0.55205 0.0
C214 C 0.76865 0.86897 0.50456 0.0
C215 C 0.7225 0.94905 0.54627 0.0
O216 O 0.73931 0.965 0.56201 0.0
O217 O 0.74998 0.8873 0.57288 0.0
O218 O 0.77986 0.86418 0.57287 0.0
O219 O 0.78578 0.94479 0.52678 0.0
O220 O 0.80146 0.91852 0.5505 0.0
C221 C 0.75922 0.86808 0.5791 0.0
C222 C 0.80421 0.93465 0.53394 0.0
O223 O 0.72629 0.92655 0.53831 0.0
Mg224 Mg 0.86534 0.05374 0.2361 0.0
O225 O 0.84142 0.01305 0.24001 0.0
O226 O 0.83552 0.01673 0.28085 0.0
Mg227 Mg 0.8561 0.05531 0.30261 0.0
C228 C 0.83207 0.00379 0.25886 0.0
C229 C 0.86924 0.06979 0.18522 0.0
O230 O 0.87002 0.09146 0.20036 0.0
O231 O 0.83295 0.07509 0.23919 0.0
O232 O 0.83103 0.07735 0.28075 0.0
O233 O 0.89934 0.03858 0.24438 0.0
O234 O 0.88058 0.05773 0.2733 0.0
C235 C 0.82392 0.08289 0.25905 0.0
C236 C 0.89827 0.0463 0.26787 0.0
O237 O 0.86202 0.04811 0.19334 0.0
Mg238 Mg 0.30521 0.66482 0.49186 0.0
O239 O 0.30744 0.69257 0.52825 0.0
O240 O 0.34075 0.72344 0.53398 0.0
Mg241 Mg 0.35995 0.71405 0.4981 0.0
C242 C 0.32086 0.71254 0.5413 0.0
C243 C 0.24832 0.63631 0.4852 0.0
O244 O 0.25111 0.62849 0.46174 0.0
O245 O 0.29426 0.69547 0.46763 0.0
O246 O 0.32943 0.72402 0.46996 0.0
O247 O 0.32663 0.6392 0.5113 0.0
O248 O 0.34365 0.67103 0.49119 0.0
C249 C 0.30706 0.71591 0.46116 0.0
C250 C 0.34615 0.65186 0.50386 0.0
O251 O 0.26615 0.65037 0.49953 0.0
Mg252 Mg 0.3814 0.56655 0.74656 0.0
O253 O 0.35681 0.52547 0.74591 0.0
O254 O 0.3481 0.5231 0.78554 0.0
Mg255 Mg 0.36727 0.55987 0.81148 0.0
C256 C 0.34627 0.51312 0.76252 0.0
C257 C 0.3899 0.54597 0.69315 0.0
O258 O 0.39464 0.52743 0.70635 0.0
O259 O 0.34898 0.58822 0.75014 0.0
O260 O 0.34598 0.58609 0.7911 0.0
O261 O 0.4158 0.55154 0.75639 0.0
O262 O 0.39337 0.56628 0.7842 0.0
C263 C 0.34017 0.59482 0.77057 0.0
C264 C 0.41206 0.55639 0.77964 0.0
O265 O 0.38027 0.56403 0.70359 0.0
Mg266 Mg 0.60261 0.9795 0.79503 0.0
O267 O 0.63173 0.01563 0.79439 0.0
O268 O 0.6502 0.03015 0.83315 0.0
Mg269 Mg 0.63279 1.00131 0.85893 0.0
C270 C 0.64744 0.0319 0.80959 0.0
C271 C 0.57875 0.9734 0.74011 0.0
O272 O 0.56017 0.97496 0.75307 0.0
O273 O 0.63231 0.955 0.79827 0.0
O274 O 0.64799 0.96735 0.83847 0.0
O275 O 0.57549 0.00457 0.80404 0.0
O276 O 0.59871 0.99102 0.83313 0.0
C277 C 0.64691 0.9531 0.81732 0.0
C278 C 0.58247 0.00467 0.82766 0.0
O279 O 0.59942 0.97356 0.75194 0.0
Mg280 Mg 0.78559 0.6253 0.96879 0.0
O281 O 0.78442 0.65058 0.00555 0.0
O282 O 0.82172 0.67086 0.0221 0.0
Mg283 Mg 0.84746 0.6574 0.99464 0.0
C284 C 0.79868 0.66607 0.02267 0.0
C285 C 0.73005 0.60172 0.95858 0.0
O286 O 0.73784 0.58002 0.95202 0.0
O287 O 0.79292 0.66186 0.95019 0.0
O288 O 0.83148 0.68014 0.96465 0.0
O289 O 0.78938 0.59167 0.98936 0.0
O290 O 0.8204 0.6212 0.98113 0.0
C291 C 0.81166 0.67981 0.9508 0.0
C292 C 0.81247 0.60134 0.99237 0.0
O293 O 0.74513 0.62322 0.96303 0.0
Mg294 Mg 0.91029 0.58518 0.76017 0.0
O295 O 0.88237 0.54643 0.75796 0.0
O296 O 0.86216 0.54855 0.79199 0.0
Mg297 Mg 0.87565 0.58839 0.8155 0.0
C298 C 0.86641 0.5363 0.77146 0.0
C299 C 0.92743 0.55308 0.7157 0.0
O300 O 0.92802 0.53882 0.73433 0.0
O301 O 0.8792 0.60694 0.74775 0.0
O302 O 0.86128 0.60795 0.78324 0.0
O303 O 0.93782 0.56896 0.78459 0.0
O304 O 0.91034 0.58957 0.79968 0.0
C305 C 0.86278 0.61361 0.76088 0.0
C306 C 0.92728 0.57649 0.80376 0.0
O307 O 0.91943 0.57433 0.71929 0.0
Mg308 Mg 0.72731 0.40439 0.53041 0.0
O309 O 0.72612 0.37473 0.4933 0.0
O310 O 0.76205 0.36174 0.49778 0.0
Mg311 Mg 0.78585 0.38207 0.53365 0.0
C312 C 0.74148 0.36114 0.48526 0.0
C313 C 0.68335 0.42979 0.53596 0.0
O314 O 0.70233 0.44592 0.54844 0.0
O315 O 0.72201 0.37134 0.55652 0.0
O316 O 0.75919 0.36114 0.55823 0.0
O317 O 0.74492 0.43724 0.51061 0.0
O318 O 0.76518 0.41344 0.53268 0.0
C319 C 0.73776 0.35855 0.56503 0.0
C320 C 0.7656 0.43173 0.51855 0.0
O321 O 0.68659 0.40786 0.5252 0.0
Mg322 Mg 0.62913 0.47297 0.28237 0.0
O323 O 0.6488 0.51481 0.27789 0.0
O324 O 0.66384 0.53374 0.31683 0.0
Mg325 Mg 0.6517 0.50579 0.34554 0.0
C326 C 0.66099 0.5343 0.29302 0.0
C327 C 0.63034 0.45382 0.21854 0.0
O328 O 0.64089 0.43663 0.20627 0.0
O329 O 0.6648 0.46172 0.2923 0.0
O330 O 0.67771 0.47809 0.33217 0.0
O331 O 0.59272 0.48453 0.28546 0.0
O332 O 0.62056 0.48641 0.31749 0.0
C333 C 0.67998 0.46414 0.31175 0.0
C334 C 0.59923 0.48983 0.30949 0.0
O335 O 0.63331 0.45639 0.24242 0.0
Tb336 Tb 0.01287 0.0608 0.01716 0.0
C337 C 0.01447 0.01316 0.97736 0.0
Tb338 Tb 0.99712 0.00482 0.03114 0.0
O339 O 0.05024 0.05428 0.01479 0.0
O340 O 0.02842 0.03486 0.03871 0.0
O341 O 0.0116 0.03782 0.98081 0.0
C342 C 0.99924 0.95835 0.0466 0.0
O343 O 0.0114 0.99732 0.99501 0.0
C344 C 0.96052 0.02827 0.01883 0.0
C345 C 0.99201 0.05299 0.06949 0.0
O346 O 0.01377 0.98028 0.05497 0.0
O347 O 0.98301 0.96243 0.0294 0.0
O348 O 0.95898 0.0083 0.03147 0.0
O349 O 0.98119 0.03117 0.0105 0.0
O350 O 0.99438 0.02802 0.06668 0.0
O351 O 0.99746 0.06897 0.05234 0.0
C352 C 0.01589 0.1075 1.00099 0.0
O353 O 0.03052 0.10208 0.01897 0.0
O354 O 0.99936 0.08693 0.99286 0.0
C355 C 0.04862 0.03634 0.02973 0.0
Tb356 Tb 0.26442 0.81681 0.26863 0.0
C357 C 0.30953 0.78759 0.26632 0.0
Tb358 Tb 0.25512 0.75721 0.2608 0.0
O359 O 0.25133 0.81563 0.30614 0.0
O360 O 0.26853 0.78666 0.29126 0.0
O361 O 0.30145 0.80994 0.26619 0.0
C362 C 0.24756 0.70713 0.26845 0.0
O363 O 0.29488 0.76444 0.26528 0.0
C364 C 0.24658 0.77906 0.21965 0.0
C365 C 0.21096 0.7863 0.26138 0.0
O366 O 0.25682 0.71622 0.24905 0.0
O367 O 0.24292 0.72629 0.28352 0.0
O368 O 0.23551 0.75607 0.22335 0.0
O369 O 0.26315 0.78755 0.23763 0.0
O370 O 0.2199 0.76626 0.26883 0.0
O371 O 0.22534 0.80806 0.25722 0.0
C372 C 0.27953 0.86765 0.26533 0.0
O373 O 0.26771 0.85043 0.24718 0.0
O374 O 0.28243 0.85632 0.28538 0.0
C375 C 0.25784 0.79357 0.3097 0.0
Tb376 Tb 0.53949 0.03502 0.51848 0.0
C377 C 0.53202 0.00735 0.56869 0.0
Tb378 Tb 0.48916 0.02039 0.53568 0.0
O379 O 0.53838 0.07686 0.52717 0.0
O380 O 0.52072 0.04886 0.54769 0.0
O381 O 0.54514 0.01146 0.54951 0.0
C382 C 0.4469 0.02909 0.55006 0.0
O383 O 0.50987 0.01274 0.56886 0.0
C384 C 0.50361 0.98222 0.50916 0.0
C385 C 0.4957 0.04562 0.48376 0.0
O386 O 0.45111 0.0063 0.54157 0.0
O387 O 0.46658 0.04647 0.55087 0.0
O388 O 0.48814 0.97847 0.52572 0.0
O389 O 0.50791 0.00618 0.50658 0.0
O390 O 0.48188 0.03891 0.50179 0.0
O391 O 0.51916 0.04416 0.48513 0.0
C392 C 0.58341 0.02984 0.50558 0.0
O393 O 0.57936 0.04567 0.52439 0.0
O394 O 0.56271 0.01794 0.4936 0.0
C395 C 0.52382 0.07261 0.54449 0.0
Tb396 Tb 0.25946 0.28439 0.79348 0.0
C397 C 0.27058 0.32748 0.75685 0.0
Tb398 Tb 0.25836 0.26622 0.73719 0.0
O399 O 0.29905 0.29742 0.79537 0.0
O400 O 0.28126 0.26543 0.77019 0.0
O401 O 0.26535 0.3227 0.77979 0.0
C402 C 0.27582 0.25548 0.69351 0.0
O403 O 0.26942 0.30853 0.73793 0.0
C404 C 0.21573 0.26959 0.75247 0.0
C405 C 0.24428 0.22362 0.77248 0.0
O406 O 0.28861 0.26593 0.71452 0.0
O407 O 0.25286 0.25119 0.69687 0.0
O408 O 0.21873 0.25407 0.73283 0.0
O409 O 0.23596 0.28422 0.76056 0.0
O410 O 0.25408 0.22874 0.75153 0.0
O411 O 0.2429 0.24243 0.79083 0.0
C412 C 0.24959 0.29786 0.8402 0.0
O413 O 0.26834 0.28806 0.83437 0.0
O414 O 0.23625 0.29968 0.81973 0.0
C415 C 0.30169 0.27996 0.77726 0.0
Tb416 Tb 0.01211 0.02037 0.4642 0.0
C417 C 0.96871 0.99234 0.49159 0.0
Tb418 Tb 0.01885 0.01628 0.52095 0.0
O419 O 0.00616 0.97845 0.45346 0.0
O420 O 0.02672 0.99545 0.48742 0.0
O421 O 0.97513 0.00713 0.47374 0.0
C422 C 0.03334 0.01768 0.56972 0.0
O423 O 0.98437 0.98959 0.51063 0.0
C424 C 0.99757 0.05401 0.50711 0.0
C425 C 0.06367 0.04265 0.49387 0.0
O426 O 0.03059 0.03748 0.55814 0.0
O427 O 0.02809 0.9964 0.55369 0.0
O428 O 0.99195 0.0416 0.52596 0.0
O429 O 0.01485 0.04563 0.4979 0.0
O430 O 0.056 0.03292 0.51426 0.0
O431 O 0.04955 0.04078 0.47236 0.0
C432 C 0.00268 0.03636 0.41985 0.0
O433 O 0.01889 0.02226 0.425 0.0
O434 O 0.99219 0.04184 0.43985 0.0
C435 C 0.01673 0.97394 0.47454 0.0
Tb436 Tb 0.29252 0.79988 0.76567 0.0
C437 C 0.25444 0.80588 0.80517 0.0
Tb438 Tb 0.23944 0.78511 0.7465 0.0
O439 O 0.28968 0.84084 0.7739 0.0
O440 O 0.26765 0.81671 0.74385 0.0
O441 O 0.27763 0.80505 0.80212 0.0
C442 C 0.19355 0.78577 0.73034 0.0
O443 O 0.23686 0.79951 0.78599 0.0
C444 C 0.26026 0.74596 0.75654 0.0
C445 C 0.27659 0.78094 0.70726 0.0
O446 O 0.20447 0.76625 0.72585 0.0
O447 O 0.20826 0.8047 0.74452 0.0
O448 O 0.24187 0.74362 0.73957 0.0
O449 O 0.26411 0.76847 0.76867 0.0
O450 O 0.25527 0.78723 0.71118 0.0
O451 O 0.29359 0.7819 0.72645 0.0
C452 C 0.339 0.80003 0.77958 0.0
O453 O 0.33106 0.8174 0.76737 0.0
O454 O 0.32081 0.78266 0.78394 0.0
C455 C 0.27166 0.83905 0.75652 0.0
Tb456 Tb 0.47695 0.04787 0.01223 0.0
C457 C 0.50486 1.00092 0.01874 0.0
Tb458 Tb 0.53269 0.05944 0.02477 0.0
O459 O 0.4806 0.06182 0.97528 0.0
O460 O 0.50761 0.04559 0.99242 0.0
O461 O 0.48386 0.00933 0.01881 0.0
C462 C 0.58027 0.0673 0.021 0.0
O463 O 0.52626 0.01675 0.01908 0.0
C464 C 0.50768 0.06546 0.0636 0.0
C465 C 0.50469 0.10581 0.02379 0.0
O466 O 0.56976 0.05679 0.03907 0.0
O467 O 0.56396 0.07317 0.00507 0.0
O468 O 0.52983 0.07781 0.06308 0.0
O469 O 0.50194 0.049 0.04422 0.0
O470 O 0.52473 0.0975 0.01808 0.0
O471 O 0.48427 0.08942 0.02588 0.0
C472 C 0.42893 0.03278 0.01089 0.0
O473 O 0.44188 0.05337 0.02457 0.0
O474 O 0.44294 0.02074 0.9979 0.0
C475 C 0.50242 0.05715 0.97404 0.0
Tb476 Tb 0.24114 0.28915 0.28645 0.0
C477 C 0.2835 0.28973 0.32816 0.0
Tb478 Tb 0.29401 0.30221 0.27365 0.0
O479 O 0.24489 0.2489 0.29113 0.0
O480 O 0.26539 0.26956 0.26697 0.0
O481 O 0.26127 0.29453 0.32351 0.0
C482 C 0.33828 0.2994 0.26075 0.0
O483 O 0.2984 0.28821 0.31042 0.0
C484 C 0.2731 0.34271 0.28316 0.0
C485 C 0.25079 0.30151 0.23184 0.0
O486 O 0.33391 0.31185 0.28161 0.0
O487 O 0.3179 0.28889 0.24733 0.0
O488 O 0.29089 0.34265 0.26927 0.0
O489 O 0.27006 0.32186 0.29308 0.0
O490 O 0.27359 0.29832 0.23675 0.0
O491 O 0.23524 0.30113 0.24912 0.0
C492 C 0.19648 0.2856 0.30058 0.0
O493 O 0.20413 0.26774 0.28649 0.0
O494 O 0.21376 0.30612 0.30576 0.0
C495 C 0.26252 0.24891 0.27714 0.0
Tb496 Tb 0.51233 0.54824 0.99139 0.0
C497 C 0.471 0.5399 0.02669 0.0
Tb498 Tb 0.52513 0.54567 0.0474 0.0
O499 O 0.52099 0.50966 0.98081 0.0
O500 O 0.50949 0.51879 0.01548 0.0
O501 O 0.4789 0.5524 0.00793 0.0
C502 C 0.54211 0.5306 0.09015 0.0
O503 O 0.48604 0.5309 0.04256 0.0
C504 C 0.51763 0.591 0.03667 0.0
C505 C 0.56746 0.55756 0.01165 0.0
O506 O 0.52945 0.54893 0.08868 0.0
O507 O 0.54484 0.52065 0.06765 0.0
O508 O 0.5142 0.58296 0.05834 0.0
O509 O 0.52735 0.57518 0.0236 0.0
O510 O 0.56135 0.55299 0.03432 0.0
O511 O 0.55144 0.55803 0.99219 0.0
C512 C 0.4958 0.558 0.94613 0.0
O513 O 0.48511 0.54032 0.95861 0.0
O514 O 0.51578 0.57058 0.95924 0.0
C515 C 0.51828 0.50201 0.00269 0.0
Tb516 Tb 0.7897 0.2837 0.27226 0.0
C517 C 0.75211 0.28944 0.31117 0.0
Tb518 Tb 0.73789 0.2833 0.25162 0.0
O519 O 0.7954 0.32311 0.29131 0.0
O520 O 0.77053 0.31196 0.25881 0.0
O521 O 0.77255 0.28094 0.30703 0.0
C522 C 0.69521 0.29505 0.23632 0.0
O523 O 0.73697 0.2943 0.29247 0.0
C524 C 0.75033 0.23711 0.25075 0.0
C525 C 0.77569 0.27604 0.21287 0.0
O526 O 0.69791 0.27638 0.24976 0.0
O527 O 0.71638 0.30697 0.23189 0.0
O528 O 0.73348 0.24211 0.23495 0.0
O529 O 0.75681 0.25637 0.26746 0.0
O530 O 0.75445 0.28296 0.21611 0.0
O531 O 0.79097 0.27284 0.23198 0.0
C532 C 0.83443 0.27543 0.28255 0.0
O533 O 0.82867 0.29385 0.2704 0.0
O534 O 0.81496 0.26158 0.28919 0.0
C535 C 0.77839 0.32994 0.27709 0.0
Tb536 Tb 0.98203 0.53392 0.50951 0.0
C537 C 0.01358 0.48869 0.51166 0.0
Tb538 Tb 0.036 0.5481 0.52504 0.0
O539 O 0.98681 0.54938 0.47357 0.0
O540 O 0.01378 0.53302 0.491 0.0
O541 O 0.99157 0.49497 0.5101 0.0
C542 C 0.08344 0.56684 0.52466 0.0
O543 O 0.03391 0.50656 0.51534 0.0
C544 C 0.00942 0.53591 0.56147 0.0
C545 C 0.00476 0.59278 0.52472 0.0
O546 O 0.07201 0.56627 0.54464 0.0
O547 O 0.06821 0.55678 0.50506 0.0
O548 O 0.0314 0.53148 0.56035 0.0
O549 O 0.00418 0.54861 0.54382 0.0
O550 O 0.02623 0.58634 0.52174 0.0
O551 O 0.98489 0.57473 0.52461 0.0
C552 C 0.93412 0.51537 0.50566 0.0
O553 O 0.94514 0.53007 0.49066 0.0
O554 O 0.95007 0.5111 0.52295 0.0
C555 C 0.0088 0.54515 0.4729 0.0
Tb556 Tb 0.7566 0.76753 0.28801 0.0
C557 C 0.76846 0.81643 0.25815 0.0
Tb558 Tb 0.75248 0.7599 0.23051 0.0
O559 O 0.79597 0.78036 0.29147 0.0
O560 O 0.77838 0.75492 0.26016 0.0
O561 O 0.75936 0.8073 0.27811 0.0
C562 C 0.75511 0.74493 0.1819 0.0
O563 O 0.7715 0.80064 0.23814 0.0
C564 C 0.71576 0.77495 0.2512 0.0
C565 C 0.7392 0.70999 0.26023 0.0
O566 O 0.7352 0.743 0.19268 0.0
O567 O 0.77343 0.75547 0.19841 0.0
O568 O 0.72251 0.78226 0.23016 0.0
O569 O 0.72853 0.75932 0.25834 0.0
O570 O 0.74296 0.71909 0.23835 0.0
O571 O 0.74289 0.72543 0.28215 0.0
C572 C 0.74505 0.77733 0.33456 0.0
O573 O 0.76169 0.76411 0.32842 0.0
O574 O 0.73493 0.78452 0.31454 0.0
C575 C 0.79863 0.76886 0.26951 0.0
Tb576 Tb 0.76202 0.30533 0.76627 0.0
C577 C 0.8048 0.27352 0.75952 0.0
Tb578 Tb 0.74976 0.24609 0.75604 0.0
O579 O 0.7594 0.30431 0.8075 0.0
O580 O 0.7684 0.27375 0.78553 0.0
O581 O 0.79708 0.2958 0.7575 0.0
C582 C 0.73332 0.19635 0.7623 0.0
O583 O 0.7897 0.25187 0.76319 0.0
C584 C 0.75218 0.26925 0.71499 0.0
C585 C 0.70652 0.27882 0.75918 0.0
O586 O 0.74477 0.20396 0.74364 0.0
O587 O 0.73108 0.21669 0.77731 0.0
O588 O 0.75638 0.24587 0.71679 0.0
O589 O 0.74438 0.2774 0.73519 0.0
O590 O 0.71367 0.25604 0.76059 0.0
O591 O 0.72242 0.30086 0.75884 0.0
C592 C 0.77927 0.35464 0.75891 0.0
O593 O 0.77951 0.33386 0.7436 0.0
O594 O 0.76912 0.34778 0.77863 0.0
C595 C 0.76315 0.28047 0.80712 0.0
Tb596 Tb 0.72168 0.76622 0.7728 0.0
C597 C 0.76835 0.77099 0.81134 0.0
Tb598 Tb 0.77127 0.7873 0.75647 0.0
O599 O 0.72943 0.72643 0.77108 0.0
O600 O 0.74527 0.75251 0.74806 0.0
O601 O 0.74446 0.76986 0.80845 0.0
C602 C 0.81599 0.789 0.74391 0.0
O603 O 0.78227 0.77636 0.7932 0.0
C604 C 0.74786 0.82262 0.77516 0.0
C605 C 0.7252 0.78006 0.71734 0.0
O606 O 0.80531 0.77289 0.75788 0.0
O607 O 0.80165 0.80452 0.73719 0.0
O608 O 0.76365 0.82733 0.75917 0.0
O609 O 0.74837 0.80052 0.78184 0.0
O610 O 0.74872 0.77914 0.72054 0.0
O611 O 0.7109 0.77747 0.73572 0.0
C612 C 0.67958 0.76426 0.79232 0.0
O613 O 0.69004 0.74443 0.78717 0.0
O614 O 0.69225 0.78485 0.78518 0.0
C615 C 0.74554 0.73056 0.75532 0.0
Tb616 Tb 0.52125 0.55783 0.50903 0.0
C617 C 0.51457 0.51678 0.45887 0.0
Tb618 Tb 0.49285 0.50019 0.50856 0.0
O619 O 0.55174 0.54918 0.53417 0.0
O620 O 0.52886 0.52023 0.50994 0.0
O621 O 0.52105 0.5415 0.46974 0.0
C622 C 0.49034 0.45166 0.5201 0.0
O623 O 0.50383 0.4971 0.47032 0.0
C624 C 0.46518 0.53496 0.50164 0.0
C625 C 0.49326 0.5431 0.55505 0.0
O626 O 0.47824 0.45784 0.50038 0.0
O627 O 0.50336 0.4727 0.53296 0.0
O628 O 0.4572 0.51232 0.50901 0.0
O629 O 0.48643 0.53511 0.49561 0.0
O630 O 0.49311 0.51808 0.5474 0.0
O631 O 0.50216 0.5622 0.54223 0.0
C632 C 0.53422 0.6065 0.4976 0.0
O633 O 0.51418 0.59725 0.50651 0.0
O634 O 0.54737 0.58848 0.49579 0.0
C635 C 0.54617 0.524 0.52707 0.0
Tb636 Tb 0.03674 0.53655 0.00606 0.0
C637 C 0.03273 0.51282 0.05889 0.0
Tb638 Tb 0.98745 0.52013 0.02477 0.0
O639 O 0.03191 0.57727 0.00951 0.0
O640 O 0.01714 0.55169 0.03401 0.0
O641 O 0.04593 0.51868 0.04017 0.0
C642 C 0.94584 0.52623 0.04269 0.0
O643 O 0.00927 0.51374 0.05783 0.0
C644 C 0.00425 0.48187 1.00074 0.0
C645 C 0.99118 0.54184 0.97115 0.0
O646 O 0.94801 0.50813 0.02491 0.0
O647 O 0.96709 0.54036 0.05044 0.0
O648 O 0.98928 0.47841 0.01785 0.0
O649 O 0.0068 0.50531 0.99644 0.0
O650 O 0.97861 0.53812 0.99081 0.0
O651 O 0.01441 0.53953 0.97163 0.0
C652 C 0.0818 0.5369 0.99389 0.0
O653 O 0.06309 0.5184 0.98648 0.0
O654 O 0.07488 0.5556 0.00759 0.0
C655 C 0.01837 0.57437 0.02781 0.0
H656 H 0.98111 0.19789 0.89988 0.0
H657 H 0.04972 0.2511 0.92396 0.0
H658 H 0.05942 0.22261 0.95611 0.0
H659 H 0.96656 0.18003 0.95953 0.0
H660 H 0.95433 0.14638 0.94713 0.0
H661 H 0.9534 0.17169 0.92717 0.0
H662 H 0.97621 0.1468 0.89524 0.0
H663 H 0.9773 0.12187 0.91565 0.0
H664 H 0.00505 0.13886 0.90584 0.0
H665 H 0.05984 0.18865 0.98739 0.0
H666 H 0.05345 0.15012 0.0109 0.0
H667 H 0.98616 0.11853 0.96285 0.0
C668 C 0.99821 0.20352 0.91192 0.0
C669 C 0.01461 0.22671 0.90976 0.0
C670 C 0.03698 0.23331 0.92543 0.0
C671 C 0.04252 0.21736 0.94377 0.0
C672 C 0.02566 0.19474 0.94569 0.0
C673 C 0.00418 0.18764 0.92977 0.0
C674 C 0.98951 0.16191 0.93462 0.0
C675 C 0.96448 0.16523 0.9426 0.0
C676 C 0.98688 0.14113 0.91146 0.0
C677 C 0.00576 0.15578 0.95618 0.0
C678 C 0.02643 0.17496 0.96257 0.0
C679 C 0.04377 0.17348 0.9824 0.0
C680 C 0.03997 0.15165 0.99571 0.0
C681 C 0.01915 0.13162 0.98888 0.0
C682 C 0.00198 0.13382 0.96885 0.0
H683 H 0.08845 0.81285 0.18916 0.0
H684 H 0.05336 0.73661 0.20559 0.0
H685 H 0.09171 0.73142 0.22872 0.0
H686 H 0.14714 0.79395 0.17958 0.0
H687 H 0.16458 0.82537 0.19336 0.0
H688 H 0.13439 0.82301 0.17772 0.0
H689 H 0.12194 0.84654 0.21817 0.0
H690 H 0.15199 0.84861 0.23402 0.0
H691 H 0.12567 0.83322 0.24751 0.0
H692 H 0.13295 0.73513 0.25174 0.0
H693 H 0.17615 0.74507 0.26896 0.0
H694 H 0.18552 0.81823 0.23659 0.0
C695 C 0.0889 0.79498 0.19746 0.0
C696 C 0.06782 0.77518 0.19562 0.0
C697 C 0.06923 0.75203 0.20663 0.0
C698 C 0.09091 0.74894 0.21996 0.0
C699 C 0.11118 0.76902 0.22187 0.0
C700 C 0.11057 0.79138 0.21055 0.0
C701 C 0.13525 0.8096 0.21497 0.0
C702 C 0.14597 0.81318 0.18992 0.0
C703 C 0.1336 0.83606 0.22954 0.0
C704 C 0.14961 0.79417 0.23092 0.0
C705 C 0.1353 0.77089 0.23475 0.0
C706 C 0.1444 0.75324 0.24878 0.0
C707 C 0.16898 0.75915 0.25859 0.0
C708 C 0.18432 0.78249 0.25424 0.0
C709 C 0.17429 0.80038 0.24053 0.0
H710 H 0.48796 0.83659 0.44024 0.0
H711 H 0.53156 0.86816 0.38395 0.0
H712 H 0.53815 0.91219 0.40834 0.0
H713 H 0.45829 0.88932 0.45276 0.0
H714 H 0.45906 0.88795 0.48619 0.0
H715 H 0.45896 0.85876 0.46511 0.0
H716 H 0.4986 0.85208 0.48995 0.0
H717 H 0.49877 0.88121 0.51123 0.0
H718 H 0.52495 0.87813 0.49482 0.0
H719 H 0.53561 0.95338 0.43618 0.0
H720 H 0.5277 0.98801 0.46752 0.0
H721 H 0.48924 0.92921 0.50798 0.0
C722 C 0.4991 0.85272 0.43316 0.0
C723 C 0.50918 0.84899 0.41013 0.0
C724 C 0.52377 0.87055 0.40159 0.0
C725 C 0.52755 0.89562 0.41529 0.0
C726 C 0.51702 0.89868 0.43772 0.0
C727 C 0.50344 0.87773 0.44683 0.0
C728 C 0.49392 0.88629 0.4713 0.0
C729 C 0.4659 0.88022 0.46867 0.0
C730 C 0.50471 0.87368 0.49311 0.0
C731 C 0.50368 0.91547 0.47421 0.0
C732 C 0.51688 0.92222 0.45458 0.0
C733 C 0.526 0.94824 0.45206 0.0
C734 C 0.52164 0.96781 0.47012 0.0
C735 C 0.50877 0.96131 0.49077 0.0
C736 C 0.49971 0.93475 0.49277 0.0
H737 H 0.41377 0.23918 0.70903 0.0
H738 H 0.42097 0.31374 0.67958 0.0
H739 H 0.38589 0.32356 0.70075 0.0
H740 H 0.34602 0.22657 0.70039 0.0
H741 H 0.34314 0.21049 0.72826 0.0
H742 H 0.36898 0.20892 0.71088 0.0
H743 H 0.39815 0.22771 0.75128 0.0
H744 H 0.37249 0.22945 0.76885 0.0
H745 H 0.39528 0.25837 0.76843 0.0
H746 H 0.35395 0.32806 0.72943 0.0
H747 H 0.32112 0.32326 0.75726 0.0
H748 H 0.32917 0.24333 0.76325 0.0
C749 C 0.4077 0.25738 0.70687 0.0
C750 C 0.42015 0.2758 0.69277 0.0
C751 C 0.41162 0.29933 0.69018 0.0
C752 C 0.39179 0.30516 0.70225 0.0
C753 C 0.38011 0.28691 0.71631 0.0
C754 C 0.38716 0.26313 0.71807 0.0
C755 C 0.3705 0.24667 0.73355 0.0
C756 C 0.35632 0.22168 0.7173 0.0
C757 C 0.38498 0.24017 0.75691 0.0
C758 C 0.35366 0.26531 0.74087 0.0
C759 C 0.35989 0.28858 0.73102 0.0
C760 C 0.34847 0.3097 0.73674 0.0
C761 C 0.32992 0.30686 0.75263 0.0
C762 C 0.32238 0.28283 0.76194 0.0
C763 C 0.33439 0.26176 0.75597 0.0
H764 H 0.01333 0.87635 0.57705 0.0
H765 H 0.94932 0.82968 0.53158 0.0
H766 H 0.95666 0.85734 0.49758 0.0
H767 H 0.0031 0.93655 0.56287 0.0
H768 H 0.03493 0.95027 0.56274 0.0
H769 H 0.0261 0.92448 0.58135 0.0
H770 H 0.05466 0.89815 0.55826 0.0
H771 H 0.06251 0.9241 0.53927 0.0
H772 H 0.05023 0.89128 0.52437 0.0
H773 H 0.96865 0.89172 0.47058 0.0
H774 H 0.98251 0.93257 0.4531 0.0
H775 H 0.0375 0.95847 0.5172 0.0
C776 C 0.00118 0.87151 0.5597 0.0
C777 C 0.98086 0.85078 0.5568 0.0
C778 C 0.96503 0.84546 0.53409 0.0
C779 C 0.96915 0.86092 0.51466 0.0
C780 C 0.98912 0.88152 0.51836 0.0
C781 C 0.00484 0.88689 0.54032 0.0
C782 C 0.02335 0.9118 0.54071 0.0
C783 C 0.0217 0.93194 0.56326 0.0
C784 C 0.04922 0.90597 0.54064 0.0
C785 C 0.01485 0.92033 0.516 0.0
C786 C 0.99554 0.90213 0.50312 0.0
C787 C 0.98391 0.90597 0.48031 0.0
C788 C 0.99193 0.92924 0.47058 0.0
C789 C 0.01102 0.94857 0.48393 0.0
C790 C 0.0229 0.94391 0.5067 0.0
H791 H 0.44223 0.76217 0.86916 0.0
H792 H 0.49213 0.82902 0.85065 0.0
H793 H 0.45979 0.83756 0.81992 0.0
H794 H 0.412 0.74061 0.80602 0.0
H795 H 0.38272 0.73075 0.81697 0.0
H796 H 0.41016 0.72949 0.83651 0.0
H797 H 0.39704 0.75889 0.87285 0.0
H798 H 0.36954 0.76008 0.8535 0.0
H799 H 0.38976 0.79004 0.86709 0.0
H800 H 0.42094 0.83996 0.79321 0.0
H801 H 0.37883 0.83611 0.77293 0.0
H802 H 0.35586 0.7669 0.80881 0.0
C803 C 0.44641 0.77864 0.85869 0.0
C804 C 0.46952 0.79509 0.86234 0.0
C805 C 0.47442 0.81624 0.84808 0.0
C806 C 0.45624 0.82117 0.83059 0.0
C807 C 0.43355 0.80453 0.82752 0.0
C808 C 0.42869 0.78364 0.84113 0.0
C809 C 0.40278 0.76901 0.83499 0.0
C810 C 0.40188 0.7408 0.8229 0.0
C811 C 0.38897 0.76956 0.8585 0.0
C812 C 0.39355 0.78528 0.81618 0.0
C813 C 0.41153 0.8056 0.81193 0.0
C814 C 0.40679 0.82396 0.79617 0.0
C815 C 0.38292 0.82164 0.78477 0.0
C816 C 0.36436 0.80116 0.78934 0.0
C817 C 0.36985 0.78259 0.80486 0.0
H818 H 0.45965 0.2297 0.08893 0.0
H819 H 0.53297 0.27372 0.08925 0.0
H820 H 0.54441 0.23526 0.06579 0.0
H821 H 0.47781 0.16936 0.09941 0.0
H822 H 0.45201 0.14933 0.07988 0.0
H823 H 0.4494 0.18072 0.09555 0.0
H824 H 0.43534 0.19467 0.05261 0.0
H825 H 0.43806 0.16336 0.03677 0.0
H826 H 0.45423 0.19302 0.02725 0.0
H827 H 0.54787 0.19174 0.04266 0.0
H828 H 0.54411 0.14556 0.02481 0.0
H829 H 0.46869 0.13007 0.04062 0.0
C830 C 0.47807 0.23134 0.08392 0.0
C831 C 0.49538 0.25476 0.09075 0.0
C832 C 0.51941 0.25595 0.08422 0.0
C833 C 0.52604 0.23428 0.07078 0.0
C834 C 0.50848 0.21153 0.06422 0.0
C835 C 0.48507 0.20984 0.07082 0.0
C836 C 0.47 0.18273 0.06276 0.0
C837 C 0.46183 0.16977 0.08577 0.0
C838 C 0.44811 0.1835 0.04371 0.0
C839 C 0.48856 0.16944 0.05048 0.0
C840 C 0.51059 0.18639 0.05136 0.0
C841 C 0.53067 0.1783 0.04181 0.0
C842 C 0.52832 0.15203 0.03162 0.0
C843 C 0.50608 0.13414 0.03121 0.0
C844 C 0.48589 0.14322 0.04041 0.0
H845 H 0.10026 0.31784 0.39424 0.0
H846 H 0.08488 0.23473 0.40097 0.0
H847 H 0.11598 0.2276 0.37291 0.0
H848 H 0.10875 0.31343 0.33122 0.0
H849 H 0.13419 0.34035 0.33369 0.0
H850 H 0.11248 0.34002 0.35643 0.0
H851 H 0.14698 0.34452 0.39288 0.0
H852 H 0.16889 0.34553 0.37028 0.0
H853 H 0.16747 0.32166 0.39211 0.0
H854 H 0.14322 0.22817 0.33897 0.0
H855 H 0.17302 0.23785 0.3086 0.0
H856 H 0.1738 0.32077 0.32617 0.0
C857 C 0.10396 0.29828 0.39039 0.0
C858 C 0.09001 0.27684 0.39966 0.0
C859 C 0.09534 0.2515 0.39418 0.0
C860 C 0.11285 0.24719 0.37807 0.0
C861 C 0.12529 0.26848 0.36814 0.0
C862 C 0.12178 0.29368 0.37474 0.0
C863 C 0.13773 0.31304 0.3613 0.0
C864 C 0.12235 0.32755 0.34468 0.0
C865 C 0.15638 0.33232 0.38027 0.0
C866 C 0.14998 0.29459 0.34546 0.0
C867 C 0.14228 0.26897 0.34951 0.0
C868 C 0.14982 0.2482 0.336 0.0
C869 C 0.16649 0.25387 0.31858 0.0
C870 C 0.17568 0.28009 0.31519 0.0
C871 C 0.16708 0.30064 0.32854 0.0
H872 H 0.88956 0.03059 0.16233 0.0
H873 H 0.88383 0.11197 0.16084 0.0
H874 H 0.91619 0.1171 0.1325 0.0
H875 H 0.95252 0.03954 0.16558 0.0
H876 H 0.95375 0.01018 0.14524 0.0
H877 H 0.9281 0.01154 0.16288 0.0
H878 H 0.89832 0.99948 0.12181 0.0
H879 H 0.92383 0.99721 0.10414 0.0
H880 H 0.9032 0.01843 0.096 0.0
H881 H 0.95153 0.11441 0.10735 0.0
H882 H 0.98333 0.10241 0.08208 0.0
H883 H 0.96682 0.0231 0.10112 0.0
C884 C 0.89454 0.04927 0.15543 0.0
C885 C 0.88408 0.07087 0.16376 0.0
C886 C 0.89152 0.09512 0.15464 0.0
C887 C 0.91 0.09828 0.13868 0.0
C888 C 0.92087 0.077 0.13197 0.0
C889 C 0.91309 0.05282 0.13961 0.0
C890 C 0.92827 0.03333 0.13026 0.0
C891 C 0.94143 0.02305 0.15231 0.0
C892 C 0.91246 0.01078 0.11197 0.0
C893 C 0.94612 0.05048 0.11669 0.0
C894 C 0.94151 0.07558 0.11785 0.0
C895 C 0.95528 0.09479 0.10627 0.0
C896 C 0.97351 0.08782 0.09214 0.0
C897 C 0.9778 0.06182 0.08966 0.0
C898 C 0.96439 0.04324 0.10289 0.0
H899 H 0.30932 0.70842 0.41026 0.0
H900 H 0.28034 0.75441 0.46799 0.0
H901 H 0.26279 0.77802 0.43538 0.0
H902 H 0.3262 0.75898 0.37213 0.0
H903 H 0.31726 0.7381 0.34259 0.0
H904 H 0.32675 0.72452 0.37035 0.0
H905 H 0.28587 0.69104 0.36409 0.0
H906 H 0.27657 0.70481 0.33634 0.0
H907 H 0.25757 0.70277 0.36164 0.0
H908 H 0.24954 0.79766 0.39608 0.0
H909 H 0.24232 0.81194 0.35404 0.0
H910 H 0.27982 0.75292 0.32182 0.0
C911 C 0.29917 0.7234 0.41593 0.0
C912 C 0.29615 0.7297 0.44162 0.0
C913 C 0.2828 0.74936 0.44842 0.0
C914 C 0.27276 0.7628 0.43 0.0
C915 C 0.27609 0.75622 0.40478 0.0
C916 C 0.28891 0.73688 0.39773 0.0
C917 C 0.29015 0.73377 0.36943 0.0
C918 C 0.31667 0.73918 0.36329 0.0
C919 C 0.27674 0.70648 0.35716 0.0
C920 C 0.27665 0.75484 0.36171 0.0
C921 C 0.26844 0.76739 0.38232 0.0
C922 C 0.25582 0.78783 0.37985 0.0
C923 C 0.25177 0.79582 0.35587 0.0
C924 C 0.26037 0.78353 0.33457 0.0
C925 C 0.27279 0.7626 0.33765 0.0
H926 H 0.53769 0.97728 0.71056 0.0
H927 H 0.61356 0.9717 0.70727 0.0
H928 H 0.60925 0.9765 0.66186 0.0
H929 H 0.51445 0.9426 0.64774 0.0
H930 H 0.49311 0.9639 0.64248 0.0
H931 H 0.50176 0.95758 0.67399 0.0
H932 H 0.51511 0.00744 0.68811 0.0
H933 H 0.50658 0.01389 0.65668 0.0
H934 H 0.53708 0.02649 0.6716 0.0
H935 H 0.59709 0.98525 0.6172 0.0
H936 H 0.5783 0.99725 0.57781 0.0
H937 H 0.51066 0.99712 0.61128 0.0
C938 C 0.55334 0.97662 0.70027 0.0
C939 C 0.57594 0.97399 0.71249 0.0
C940 C 0.59602 0.97356 0.6983 0.0
C941 C 0.59374 0.97626 0.67249 0.0
C942 C 0.57126 0.97927 0.66115 0.0
C943 C 0.5514 0.97934 0.67462 0.0
C944 C 0.52962 0.98435 0.65855 0.0
C945 C 0.50849 0.96069 0.65551 0.0
C946 C 0.52165 0.00954 0.66938 0.0
C947 C 0.54039 0.98755 0.63401 0.0
C948 C 0.56435 0.98437 0.63573 0.0
C949 C 0.57825 0.98752 0.61561 0.0
C950 C 0.56742 0.99434 0.59329 0.0
C951 C 0.54296 0.99808 0.59135 0.0
C952 C 0.52933 0.99428 0.61198 0.0
H953 H 0.29375 0.35983 0.98158 0.0
H954 H 0.22756 0.39193 0.98116 0.0
H955 H 0.21306 0.36741 0.93911 0.0
H956 H 0.30202 0.36404 0.9183 0.0
H957 H 0.3133 0.33398 0.91329 0.0
H958 H 0.31741 0.35213 0.94426 0.0
H959 H 0.29583 0.31109 0.96203 0.0
H960 H 0.29161 0.29278 0.93104 0.0
H961 H 0.26574 0.29493 0.94823 0.0
H962 H 0.20733 0.34237 0.89569 0.0
H963 H 0.21121 0.31908 0.8541 0.0
H964 H 0.28059 0.30273 0.88326 0.0
C965 C 0.27604 0.36148 0.97286 0.0
C966 C 0.26182 0.37787 0.98475 0.0
C967 C 0.23885 0.37957 0.97248 0.0
C968 C 0.23039 0.36562 0.94861 0.0
C969 C 0.24501 0.3499 0.93734 0.0
C970 C 0.26732 0.34769 0.9491 0.0
C971 C 0.28016 0.33067 0.93238 0.0
C972 C 0.30466 0.34614 0.92672 0.0
C973 C 0.28353 0.3059 0.94412 0.0
C974 C 0.26186 0.32417 0.90911 0.0
C975 C 0.2416 0.33524 0.91243 0.0
C976 C 0.22292 0.33327 0.89302 0.0
C977 C 0.22523 0.32 0.8695 0.0
C978 C 0.246 0.3089 0.86567 0.0
C979 C 0.26431 0.31066 0.88585 0.0
H980 H 0.9022 0.06298 0.31843 0.0
H981 H 0.9373 0.02261 0.26153 0.0
H982 H 0.97032 0.01946 0.29393 0.0
H983 H 0.95718 0.10019 0.35463 0.0
H984 H 0.94544 0.09698 0.38452 0.0
H985 H 0.92493 0.09694 0.35674 0.0
H986 H 0.89987 0.05224 0.36395 0.0
H987 H 0.92003 0.05239 0.39194 0.0
H988 H 0.91512 0.02511 0.36732 0.0
H989 H 0.99889 0.01971 0.33267 0.0
H990 H 0.019 0.02004 0.37561 0.0
H991 H 0.96522 0.06042 0.40681 0.0
C992 C 0.91675 0.05337 0.31277 0.0
C993 C 0.91715 0.04297 0.28748 0.0
C994 C 0.9366 0.03066 0.28083 0.0
C995 C 0.95551 0.02893 0.29905 0.0
C996 C 0.9547 0.03967 0.32376 0.0
C997 C 0.93573 0.05147 0.33067 0.0
C998 C 0.93865 0.06051 0.35866 0.0
C999 C 0.94174 0.09044 0.36394 0.0
C1000 C 0.91715 0.04673 0.3712 0.0
C1001 C 0.962 0.05151 0.3665 0.0
C1002 C 0.97115 0.03983 0.34606 0.0
C1003 C 0.99201 0.02898 0.3488 0.0
C1004 C 0.00335 0.02934 0.37319 0.0
C1005 C 0.99366 0.04035 0.39435 0.0
C1006 C 0.97313 0.05215 0.39088 0.0
H1007 H 0.34574 0.73402 0.5886 0.0
H1008 H 0.27424 0.71661 0.54581 0.0
H1009 H 0.2564 0.73356 0.5829 0.0
H1010 H 0.32426 0.71393 0.64638 0.0
H1011 H 0.34537 0.73895 0.66704 0.0
H1012 H 0.35342 0.72716 0.63675 0.0
H1013 H 0.36154 0.77447 0.62535 0.0
H1014 H 0.35351 0.78639 0.65563 0.0
H1015 H 0.33795 0.79364 0.62721 0.0
H1016 H 0.24575 0.75181 0.62358 0.0
H1017 H 0.24192 0.76828 0.66713 0.0
H1018 H 0.3194 0.77237 0.68687 0.0
C1019 C 0.32641 0.73415 0.58706 0.0
C1020 C 0.3114 0.72418 0.56412 0.0
C1021 C 0.2861 0.72414 0.56305 0.0
C1022 C 0.27578 0.7338 0.58404 0.0
C1023 C 0.29086 0.74319 0.60635 0.0
C1024 C 0.31557 0.7433 0.60825 0.0
C1025 C 0.32707 0.75329 0.63519 0.0
C1026 C 0.33819 0.73206 0.64704 0.0
C1027 C 0.34615 0.77845 0.63588 0.0
C1028 C 0.30494 0.75881 0.64791 0.0
C1029 C 0.28439 0.753 0.63064 0.0
C1030 C 0.26171 0.75643 0.6373 0.0
C1031 C 0.25978 0.76593 0.66226 0.0
C1032 C 0.28033 0.77182 0.68073 0.0
C1033 C 0.30331 0.76813 0.67333 0.0
H1034 H 0.58795 0.00279 0.87884 0.0
H1035 H 0.55166 0.03892 0.82128 0.0
H1036 H 0.53004 0.05974 0.85345 0.0
H1037 H 0.53788 0.98684 0.91191 0.0
H1038 H 0.55457 0.99373 0.94287 0.0
H1039 H 0.56952 0.9842 0.91607 0.0
H1040 H 0.6026 0.02656 0.92689 0.0
H1041 H 0.58771 0.03591 0.9539 0.0
H1042 H 0.5933 0.05784 0.93056 0.0
H1043 H 0.50932 0.07321 0.89096 0.0
H1044 H 0.49128 0.07826 0.9312 0.0
H1045 H 0.54095 0.03358 0.96441 0.0
C1046 C 0.57588 0.01556 0.87309 0.0
C1047 C 0.57162 0.01933 0.84752 0.0
C1048 C 0.55531 0.0358 0.84074 0.0
C1049 C 0.54296 0.04777 0.8589 0.0
C1050 C 0.54715 0.04322 0.88384 0.0
C1051 C 0.56333 0.02763 0.89101 0.0
C1052 C 0.56333 0.02455 0.91877 0.0
C1053 C 0.55588 0.99562 0.92261 0.0
C1054 C 0.58823 0.03694 0.9334 0.0
C1055 C 0.54405 0.04007 0.92582 0.0
C1056 C 0.53517 0.05097 0.9055 0.0
C1057 C 0.51637 0.06506 0.9071 0.0
C1058 C 0.50621 0.06782 0.92999 0.0
C1059 C 0.51482 0.05648 0.95089 0.0
C1060 C 0.53423 0.04278 0.94882 0.0
H1061 H 0.28472 0.35202 0.10541 0.0
H1062 H 0.22032 0.38722 0.1045 0.0
H1063 H 0.20595 0.36173 0.13807 0.0
H1064 H 0.2551 0.2864 0.12157 0.0
H1065 H 0.28203 0.28418 0.14149 0.0
H1066 H 0.28473 0.30108 0.11408 0.0
H1067 H 0.30922 0.34254 0.14213 0.0
H1068 H 0.30655 0.32581 0.16947 0.0
H1069 H 0.29612 0.35635 0.16869 0.0
H1070 H 0.20232 0.33866 0.17652 0.0
H1071 H 0.20987 0.31998 0.21611 0.0
H1072 H 0.27612 0.29934 0.19099 0.0
C1073 C 0.26724 0.35385 0.11171 0.0
C1074 C 0.25369 0.37165 0.1023 0.0
C1075 C 0.23104 0.37366 0.11134 0.0
C1076 C 0.22265 0.35917 0.13035 0.0
C1077 C 0.23693 0.34249 0.13985 0.0
C1078 C 0.25863 0.33956 0.1306 0.0
C1079 C 0.27197 0.32277 0.14579 0.0
C1080 C 0.27353 0.29708 0.12977 0.0
C1081 C 0.29744 0.33778 0.15719 0.0
C1082 C 0.25506 0.31791 0.16585 0.0
C1083 C 0.2347 0.32897 0.1619 0.0
C1084 C 0.21786 0.32932 0.17948 0.0
C1085 C 0.22228 0.31865 0.20191 0.0
C1086 C 0.24352 0.30808 0.20659 0.0
C1087 C 0.25959 0.30702 0.1879 0.0
H1088 H 0.15592 0.96434 0.98862 0.0
H1089 H 0.14689 0.92063 0.05234 0.0
H1090 H 0.11288 0.94259 0.06308 0.0
H1091 H 0.14504 0.02414 0.01868 0.0
H1092 H 0.12897 0.0325 0.99109 0.0
H1093 H 0.15164 0.01239 0.98772 0.0
H1094 H 0.12007 0.97611 0.95966 0.0
H1095 H 0.09771 0.99663 0.9626 0.0
H1096 H 0.09157 0.96386 0.97117 0.0
H1097 H 0.0826 0.97353 0.06941 0.0
H1098 H 0.05549 0.00593 0.06744 0.0
H1099 H 0.08228 0.02662 0.99777 0.0
C1100 C 0.14659 0.959 0.00462 0.0
C1101 C 0.15415 0.94059 0.01957 0.0
C1102 C 0.14141 0.93443 0.04044 0.0
C1103 C 0.12214 0.94698 0.04678 0.0
C1104 C 0.11562 0.96553 0.03199 0.0
C1105 C 0.12729 0.9712 0.01112 0.0
C1106 C 0.11714 0.9921 0.99844 0.0
C1107 C 0.13688 0.01673 0.99903 0.0
C1108 C 0.10593 0.98152 0.97135 0.0
C1109 C 0.09779 0.99728 0.01531 0.0
C1110 C 0.09741 0.98206 0.0348 0.0
C1111 C 0.08219 0.98483 0.05372 0.0
C1112 C 0.0666 0.00305 0.05232 0.0
C1113 C 0.06585 0.01789 0.03188 0.0
C1114 C 0.08201 0.01517 0.01339 0.0
H1115 H 0.68718 0.56773 0.94102 0.0
H1116 H 0.71968 0.63228 0.99861 0.0
H1117 H 0.68196 0.62674 0.01915 0.0
H1118 H 0.6263 0.58503 0.93711 0.0
H1119 H 0.61078 0.55135 0.93151 0.0
H1120 H 0.64041 0.56057 0.92115 0.0
H1121 H 0.65617 0.52628 0.94629 0.0
H1122 H 0.62672 0.51729 0.95709 0.0
H1123 H 0.65342 0.52775 0.97957 0.0
H1124 H 0.64276 0.61147 0.03591 0.0
H1125 H 0.60068 0.5929 0.04339 0.0
H1126 H 0.59166 0.54151 0.97288 0.0
C1127 C 0.68613 0.58088 0.95773 0.0
C1128 C 0.70624 0.6004 0.96825 0.0
C1129 C 0.70434 0.61736 0.99011 0.0
C1130 C 0.68309 0.61423 1.00206 0.0
C1131 C 0.66376 0.59445 0.99158 0.0
C1132 C 0.66474 0.57854 0.96954 0.0
C1133 C 0.6409 0.55949 0.96183 0.0
C1134 C 0.62889 0.56442 0.9364 0.0
C1135 C 0.64454 0.53102 0.96116 0.0
C1136 C 0.62665 0.5669 0.98325 0.0
C1137 C 0.64038 0.58678 1.00044 0.0
C1138 C 0.63165 0.59615 0.02244 0.0
C1139 C 0.60791 0.58537 0.02665 0.0
C1140 C 0.59321 0.56593 0.00866 0.0
C1141 C 0.60269 0.55648 0.9868 0.0
H1142 H 0.68506 0.42784 0.27309 0.0
H1143 H 0.71829 0.46378 0.34772 0.0
H1144 H 0.74845 0.43457 0.34579 0.0
H1145 H 0.68962 0.3644 0.28353 0.0
H1146 H 0.69609 0.35336 0.25249 0.0
H1147 H 0.67813 0.37841 0.25677 0.0
H1148 H 0.70737 0.41098 0.23571 0.0
H1149 H 0.72445 0.38556 0.2288 0.0
H1150 H 0.73961 0.41677 0.24556 0.0
H1151 H 0.77363 0.40013 0.33614 0.0
H1152 H 0.79152 0.36276 0.3205 0.0
H1153 H 0.74168 0.34957 0.25195 0.0
C1154 C 0.69891 0.43006 0.28894 0.0
C1155 C 0.69942 0.44838 0.31052 0.0
C1156 C 0.71762 0.45007 0.33095 0.0
C1157 C 0.73481 0.43357 0.32999 0.0
C1158 C 0.73349 0.41557 0.30849 0.0
C1159 C 0.716 0.41378 0.28836 0.0
C1160 C 0.7173 0.39164 0.2682 0.0
C1161 C 0.69385 0.37075 0.26507 0.0
C1162 C 0.7225 0.40186 0.24308 0.0
C1163 C 0.73865 0.38143 0.27982 0.0
C1164 C 0.74763 0.39545 0.30312 0.0
C1165 C 0.76679 0.38915 0.31789 0.0
C1166 C 0.77685 0.36787 0.30874 0.0
C1167 C 0.76784 0.35306 0.28499 0.0
C1168 C 0.74868 0.36021 0.27024 0.0
H1169 H 0.81145 0.43108 0.53986 0.0
H1170 H 0.77234 0.46415 0.48194 0.0
H1171 H 0.81146 0.48853 0.47164 0.0
H1172 H 0.85543 0.48865 0.56173 0.0
H1173 H 0.88005 0.47152 0.56773 0.0
H1174 H 0.84915 0.4557 0.56961 0.0
H1175 H 0.85408 0.41724 0.537 0.0
H1176 H 0.88505 0.43288 0.53512 0.0
H1177 H 0.86392 0.42392 0.50693 0.0
H1178 H 0.8549 0.50973 0.46819 0.0
H1179 H 0.89928 0.52681 0.47237 0.0
H1180 H 0.90957 0.48067 0.53338 0.0
C1181 C 0.81109 0.44318 0.52478 0.0
C1182 C 0.78888 0.44557 0.51153 0.0
C1183 C 0.78918 0.46199 0.49226 0.0
C1184 C 0.81128 0.47588 0.48628 0.0
C1185 C 0.83285 0.47321 0.49985 0.0
C1186 C 0.83291 0.4573 0.51874 0.0
C1187 C 0.85846 0.45848 0.53109 0.0
C1188 C 0.86091 0.46923 0.5592 0.0
C1189 C 0.86581 0.43153 0.5273 0.0
C1190 C 0.87281 0.47763 0.51627 0.0
C1191 C 0.85774 0.48578 0.49823 0.0
C1192 C 0.86686 0.50347 0.48223 0.0
C1193 C 0.89205 0.51307 0.48475 0.0
C1194 C 0.90773 0.50507 0.50321 0.0
C1195 C 0.89795 0.48714 0.51914 0.0
H1196 H 0.37417 0.17541 0.2689 0.0
H1197 H 0.32158 0.10323 0.26414 0.0
H1198 H 0.288 0.12738 0.25823 0.0
H1199 H 0.34447 0.21291 0.30557 0.0
H1200 H 0.35119 0.24259 0.29127 0.0
H1201 H 0.37131 0.21951 0.28944 0.0
H1202 H 0.36673 0.21682 0.24089 0.0
H1203 H 0.34644 0.23985 0.24239 0.0
H1204 H 0.3368 0.20845 0.22359 0.0
H1205 H 0.26079 0.15946 0.26203 0.0
H1206 H 0.2411 0.19767 0.2704 0.0
H1207 H 0.31062 0.24958 0.27197 0.0
C1208 C 0.35559 0.16467 0.26522 0.0
C1209 C 0.35029 0.13743 0.26616 0.0
C1210 C 0.32584 0.12399 0.26272 0.0
C1211 C 0.3067 0.13757 0.25949 0.0
C1212 C 0.31237 0.1646 0.25971 0.0
C1213 C 0.33621 0.17805 0.262 0.0
C1214 C 0.33717 0.20739 0.26433 0.0
C1215 C 0.3519 0.2214 0.28913 0.0
C1216 C 0.34739 0.21878 0.24143 0.0
C1217 C 0.31031 0.20826 0.26433 0.0
C1218 C 0.29634 0.18335 0.26142 0.0
C1219 C 0.2714 0.17907 0.26351 0.0
C1220 C 0.26041 0.20082 0.26845 0.0
C1221 C 0.2743 0.22645 0.27102 0.0
C1222 C 0.2995 0.23021 0.26886 0.0
H1223 H 0.35731 0.12059 0.5151 0.0
H1224 H 0.29832 0.05335 0.50672 0.0
H1225 H 0.32634 0.02742 0.52556 0.0
H1226 H 0.40195 0.08692 0.49786 0.0
H1227 H 0.42628 0.10612 0.51981 0.0
H1228 H 0.40132 0.1206 0.50864 0.0
H1229 H 0.39233 0.13341 0.55405 0.0
H1230 H 0.41738 0.11948 0.56625 0.0
H1231 H 0.3873 0.10878 0.57498 0.0
H1232 H 0.36226 0.00753 0.5396 0.0
H1233 H 0.40284 0.99591 0.54832 0.0
H1234 H 0.43679 0.07743 0.55085 0.0
C1235 C 0.35024 0.10048 0.51725 0.0
C1236 C 0.32581 0.08883 0.50919 0.0
C1237 C 0.3171 0.06255 0.51278 0.0
C1238 C 0.33281 0.04775 0.52355 0.0
C1239 C 0.35694 0.05979 0.53112 0.0
C1240 C 0.36551 0.08566 0.52834 0.0
C1241 C 0.39247 0.09367 0.53652 0.0
C1242 C 0.4063 0.10234 0.51441 0.0
C1243 C 0.39766 0.1151 0.5593 0.0
C1244 C 0.39791 0.06808 0.54372 0.0
C1245 C 0.37725 0.0487 0.54052 0.0
C1246 C 0.37846 0.02267 0.54288 0.0
C1247 C 0.40149 0.01623 0.54788 0.0
C1248 C 0.42273 0.03586 0.55066 0.0
C1249 C 0.42076 0.06214 0.5495 0.0
H1250 H 0.68257 0.58201 0.31953 0.0
H1251 H 0.66509 0.5414 0.24342 0.0
H1252 H 0.68444 0.58132 0.2268 0.0
H1253 H 0.67067 0.64401 0.30465 0.0
H1254 H 0.69512 0.6628 0.32686 0.0
H1255 H 0.6804 0.63086 0.33264 0.0
H1256 H 0.72218 0.61631 0.33642 0.0
H1257 H 0.73701 0.64819 0.33053 0.0
H1258 H 0.74094 0.61936 0.31095 0.0
H1259 H 0.70596 0.6261 0.21854 0.0
H1260 H 0.72585 0.67223 0.21915 0.0
H1261 H 0.72856 0.68352 0.30072 0.0
C1262 C 0.68284 0.58139 0.29935 0.0
C1263 C 0.67234 0.55839 0.28282 0.0
C1264 C 0.67297 0.55868 0.25652 0.0
C1265 C 0.684 0.58127 0.24689 0.0
C1266 C 0.69424 0.60353 0.26375 0.0
C1267 C 0.6936 0.60378 0.28942 0.0
C1268 C 0.70534 0.63037 0.30351 0.0
C1269 C 0.68677 0.64273 0.31775 0.0
C1270 C 0.7277 0.62843 0.32141 0.0
C1271 C 0.71272 0.64509 0.28178 0.0
C1272 C 0.70628 0.62925 0.259 0.0
C1273 C 0.71108 0.63864 0.23629 0.0
C1274 C 0.72247 0.66492 0.23685 0.0
C1275 C 0.72889 0.68168 0.25997 0.0
C1276 C 0.72404 0.67136 0.28269 0.0
H1277 H 0.83664 0.50566 0.7989 0.0
H1278 H 0.86583 0.50517 0.72667 0.0
H1279 H 0.84441 0.45939 0.71467 0.0
H1280 H 0.84312 0.44154 0.80855 0.0
H1281 H 0.81549 0.43435 0.82329 0.0
H1282 H 0.83162 0.46759 0.82543 0.0
H1283 H 0.79257 0.48141 0.80637 0.0
H1284 H 0.77629 0.44817 0.80415 0.0
H1285 H 0.77734 0.4648 0.7765 0.0
H1286 H 0.82126 0.41312 0.71128 0.0
H1287 H 0.79923 0.36938 0.71725 0.0
H1288 H 0.78551 0.39989 0.79188 0.0
C1289 C 0.83833 0.49611 0.7804 0.0
C1290 C 0.85285 0.50915 0.76366 0.0
C1291 C 0.85479 0.49568 0.7398 0.0
C1292 C 0.84263 0.46968 0.73279 0.0
C1293 C 0.82862 0.45742 0.74984 0.0
C1294 C 0.82645 0.47017 0.77317 0.0
C1295 C 0.81128 0.4522 0.78852 0.0
C1296 C 0.82628 0.44872 0.81288 0.0
C1297 C 0.78799 0.46225 0.79421 0.0
C1298 C 0.80549 0.42718 0.77031 0.0
C1299 C 0.8155 0.43069 0.74802 0.0
C1300 C 0.81323 0.41021 0.72859 0.0
C1301 C 0.8007 0.38545 0.73216 0.0
C1302 C 0.79065 0.38135 0.75499 0.0
C1303 C 0.79285 0.40257 0.77417 0.0
H1304 H 0.9513 0.82022 0.09136 0.0
H1305 H 0.02468 0.82443 0.12694 0.0
H1306 H 0.03874 0.86388 0.10703 0.0
H1307 H 0.96921 0.84467 0.03186 0.0
H1308 H 0.94475 0.86267 0.02981 0.0
H1309 H 0.94106 0.83294 0.04428 0.0
H1310 H 0.93022 0.85795 0.08473 0.0
H1311 H 0.93406 0.88775 0.07052 0.0
H1312 H 0.95119 0.88659 0.10023 0.0
H1313 H 0.04366 0.90589 0.08832 0.0
H1314 H 0.03968 0.94623 0.06985 0.0
H1315 H 0.96358 0.91439 0.04487 0.0
C1316 C 0.97046 0.82903 0.09455 0.0
C1317 C 0.98688 0.81909 0.11076 0.0
C1318 C 0.01174 0.83149 0.11454 0.0
C1319 C 0.01991 0.85396 0.10331 0.0
C1320 C 0.00309 0.86364 0.08808 0.0
C1321 C 0.97894 0.85139 0.08339 0.0
C1322 C 0.96429 0.8667 0.06755 0.0
C1323 C 0.95424 0.85079 0.04185 0.0
C1324 C 0.94374 0.87525 0.0816 0.0
C1325 C 0.98382 0.88994 0.06476 0.0
C1326 C 0.00608 0.88768 0.07667 0.0
C1327 C 0.02646 0.90761 0.07849 0.0
C1328 C 0.024 0.93048 0.06803 0.0
C1329 C 0.00142 0.93321 0.05571 0.0
C1330 C 0.98116 0.91252 0.05374 0.0
H1331 H 0.93183 0.25593 0.82723 0.0
H1332 H 0.96727 0.31256 0.78246 0.0
H1333 H 0.92713 0.31433 0.7603 0.0
H1334 H 0.88662 0.22068 0.77772 0.0
H1335 H 0.86297 0.21509 0.79819 0.0
H1336 H 0.8944 0.2183 0.81056 0.0
H1337 H 0.88987 0.25591 0.8443 0.0
H1338 H 0.85838 0.2526 0.83222 0.0
H1339 H 0.87864 0.28383 0.83454 0.0
H1340 H 0.88293 0.31118 0.74433 0.0
H1341 H 0.83807 0.30371 0.73594 0.0
H1342 H 0.83162 0.24753 0.78974 0.0
C1343 C 0.93119 0.26887 0.81289 0.0
C1344 C 0.95272 0.2843 0.80671 0.0
C1345 C 0.95104 0.30065 0.78757 0.0
C1346 C 0.92833 0.30172 0.77484 0.0
C1347 C 0.9075 0.2861 0.7813 0.0
C1348 C 0.90874 0.26997 0.79987 0.0
C1349 C 0.88366 0.25525 0.80335 0.0
C1350 C 0.88181 0.22557 0.79707 0.0
C1351 C 0.87726 0.26233 0.83019 0.0
C1352 C 0.86802 0.26581 0.784 0.0
C1353 C 0.88214 0.2836 0.7715 0.0
C1354 C 0.87174 0.29706 0.75378 0.0
C1355 C 0.84626 0.29265 0.7491 0.0
C1356 C 0.83143 0.27471 0.76185 0.0
C1357 C 0.84252 0.2608 0.77919 0.0
H1358 H 0.4748 0.20539 0.58026 0.0
H1359 H 0.47444 0.18558 0.65645 0.0
H1360 H 0.48748 0.14396 0.64285 0.0
H1361 H 0.45498 0.13971 0.54717 0.0
H1362 H 0.47515 0.14432 0.52306 0.0
H1363 H 0.46404 0.17175 0.53791 0.0
H1364 H 0.50805 0.19704 0.55097 0.0
H1365 H 0.5196 0.17009 0.53587 0.0
H1366 H 0.52941 0.18204 0.56858 0.0
H1367 H 0.49989 0.10437 0.62084 0.0
H1368 H 0.51492 0.07137 0.59312 0.0
H1369 H 0.51169 0.11872 0.53201 0.0
C1370 C 0.47714 0.19202 0.59391 0.0
C1371 C 0.47321 0.19829 0.6193 0.0
C1372 C 0.47712 0.18086 0.63688 0.0
C1373 C 0.48449 0.15723 0.62931 0.0
C1374 C 0.4884 0.15163 0.60418 0.0
C1375 C 0.4852 0.16868 0.58679 0.0
C1376 C 0.49236 0.1588 0.5614 0.0
C1377 C 0.47032 0.15332 0.54117 0.0
C1378 C 0.51362 0.17815 0.55376 0.0
C1379 C 0.50018 0.13361 0.56724 0.0
C1380 C 0.49727 0.12965 0.59191 0.0
C1381 C 0.50245 0.10739 0.60158 0.0
C1382 C 0.51098 0.08877 0.58571 0.0
C1383 C 0.51478 0.09273 0.5606 0.0
C1384 C 0.50932 0.11547 0.55127 0.0
H1385 H 0.60686 0.74834 0.33534 0.0
H1386 H 0.58977 0.8235 0.32157 0.0
H1387 H 0.62594 0.83208 0.29843 0.0
H1388 H 0.6725 0.76957 0.3443 0.0
H1389 H 0.67896 0.73987 0.32835 0.0
H1390 H 0.65227 0.73891 0.34482 0.0
H1391 H 0.62386 0.71721 0.30524 0.0
H1392 H 0.64996 0.7164 0.28823 0.0
H1393 H 0.62572 0.7317 0.27637 0.0
H1394 H 0.66129 0.82978 0.27213 0.0
H1395 H 0.69541 0.81874 0.24921 0.0
H1396 H 0.6902 0.74649 0.28252 0.0
C1397 C 0.61094 0.76682 0.32786 0.0
C1398 C 0.59546 0.78524 0.33026 0.0
C1399 C 0.60144 0.80916 0.32013 0.0
C1400 C 0.6219 0.81417 0.30685 0.0
C1401 C 0.63639 0.79523 0.3042 0.0
C1402 C 0.63137 0.77223 0.31482 0.0
C1403 C 0.64937 0.75474 0.30882 0.0
C1404 C 0.66418 0.75053 0.333 0.0
C1405 C 0.63645 0.72847 0.29377 0.0
C1406 C 0.66502 0.77124 0.29275 0.0
C1407 C 0.6572 0.79446 0.29009 0.0
C1408 C 0.66782 0.81187 0.27445 0.0
C1409 C 0.68701 0.80541 0.26138 0.0
C1410 C 0.69541 0.78193 0.26431 0.0
C1411 C 0.6843 0.76478 0.28026 0.0
H1412 H 0.02205 0.19162 0.45816 0.0
H1413 H 0.95865 0.20947 0.49203 0.0
H1414 H 0.95466 0.1681 0.51099 0.0
H1415 H 0.99727 0.12743 0.43863 0.0
H1416 H 0.02512 0.1152 0.44355 0.0
H1417 H 0.0262 0.14832 0.43704 0.0
H1418 H 0.05492 0.1659 0.47822 0.0
H1419 H 0.05448 0.13274 0.48452 0.0
H1420 H 0.04611 0.15609 0.50774 0.0
H1421 H 0.95543 0.12233 0.52248 0.0
H1422 H 0.96169 0.07705 0.52619 0.0
H1423 H 0.0221 0.08934 0.48107 0.0
C1424 C 0.0079 0.18745 0.47041 0.0
C1425 C 0.99088 0.2039 0.47396 0.0
C1426 C 0.97206 0.1972 0.48935 0.0
C1427 C 0.96963 0.17375 0.50011 0.0
C1428 C 0.98603 0.15728 0.49507 0.0
C1429 C 0.00488 0.16398 0.48067 0.0
C1430 C 0.01838 0.14187 0.47544 0.0
C1431 C 0.01662 0.13268 0.44699 0.0
C1432 C 0.04505 0.14961 0.48719 0.0
C1433 C 0.00403 0.12153 0.48886 0.0
C1434 C 0.98563 0.13073 0.50039 0.0
C1435 C 0.96988 0.115 0.51366 0.0
C1436 C 0.97343 0.08936 0.51553 0.0
C1437 C 0.99225 0.07987 0.5038 0.0
C1438 C 0.00746 0.09609 0.49012 0.0
H1439 H 0.61669 0.36756 0.14924 0.0
H1440 H 0.55139 0.31659 0.16495 0.0
H1441 H 0.57642 0.2971 0.19541 0.0
H1442 H 0.6541 0.32154 0.14875 0.0
H1443 H 0.68103 0.34432 0.16307 0.0
H1444 H 0.65756 0.35572 0.14485 0.0
H1445 H 0.65421 0.38936 0.18289 0.0
H1446 H 0.67769 0.37805 0.20128 0.0
H1447 H 0.64854 0.37828 0.21281 0.0
H1448 H 0.61006 0.28137 0.22221 0.0
H1449 H 0.64842 0.27126 0.24211 0.0
H1450 H 0.69011 0.33238 0.20667 0.0
C1451 C 0.60751 0.3525 0.15925 0.0
C1452 C 0.58212 0.34356 0.15479 0.0
C1453 C 0.57085 0.32381 0.16828 0.0
C1454 C 0.58492 0.31266 0.18556 0.0
C1455 C 0.61009 0.32169 0.18915 0.0
C1456 C 0.62115 0.34131 0.17639 0.0
C1457 C 0.64847 0.3468 0.18224 0.0
C1458 C 0.66101 0.34178 0.15831 0.0
C1459 C 0.65776 0.37479 0.19561 0.0
C1460 C 0.65126 0.32679 0.19984 0.0
C1461 C 0.62904 0.31262 0.20399 0.0
C1462 C 0.62752 0.29254 0.21923 0.0
C1463 C 0.6493 0.28689 0.23039 0.0
C1464 C 0.67208 0.30117 0.22596 0.0
C1465 C 0.67292 0.32128 0.21053 0.0
H1466 H 0.52596 0.86517 0.95325 0.0
H1467 H 0.46261 0.82963 0.9867 0.0
H1468 H 0.46318 0.87146 0.01273 0.0
H1469 H 0.55569 0.91151 0.01051 0.0
H1470 H 0.56556 0.93721 0.99185 0.0
H1471 H 0.56294 0.90345 0.97893 0.0
H1472 H 0.53418 0.91061 0.94094 0.0
H1473 H 0.53669 0.94426 0.95376 0.0
H1474 H 0.50711 0.92337 0.94658 0.0
H1475 H 0.46643 0.91752 0.03013 0.0
H1476 H 0.47239 0.96562 0.0381 0.0
H1477 H 0.53395 0.97226 0.99423 0.0
C1478 C 0.51271 0.86605 0.96664 0.0
C1479 C 0.49433 0.84415 0.9681 0.0
C1480 C 0.47685 0.84618 0.98529 0.0
C1481 C 0.47711 0.86981 1.00028 0.0
C1482 C 0.49501 0.89125 0.99792 0.0
C1483 C 0.51258 0.88965 0.98163 0.0
C1484 C 0.52809 0.91636 0.98079 0.0
C1485 C 0.55465 0.91717 0.99115 0.0
C1486 C 0.52639 0.92409 0.95393 0.0
C1487 C 0.51584 0.93325 0.99836 0.0
C1488 C 0.49702 0.91825 0.00828 0.0
C1489 C 0.48145 0.92947 0.023 0.0
C1490 C 0.4849 0.95677 0.02734 0.0
C1491 C 0.50381 0.97251 0.01707 0.0
C1492 C 0.51981 0.9606 0.00289 0.0
H1493 H 0.91637 0.81465 0.65113 0.0
H1494 H 0.96088 0.77322 0.69618 0.0
H1495 H 0.92725 0.76292 0.72257 0.0
H1496 H 0.89321 0.84542 0.70123 0.0
H1497 H 0.86344 0.84382 0.68487 0.0
H1498 H 0.88942 0.84462 0.66746 0.0
H1499 H 0.86834 0.80152 0.63962 0.0
H1500 H 0.84205 0.80081 0.65666 0.0
H1501 H 0.85707 0.77312 0.65438 0.0
H1502 H 0.88928 0.75922 0.745 0.0
H1503 H 0.85049 0.76338 0.76234 0.0
H1504 H 0.83337 0.81034 0.70397 0.0
C1505 C 0.91888 0.80284 0.66614 0.0
C1506 C 0.94101 0.79445 0.67154 0.0
C1507 C 0.94389 0.77964 0.69173 0.0
C1508 C 0.92494 0.7737 0.70674 0.0
C1509 C 0.90353 0.78296 0.70128 0.0
C1510 C 0.90046 0.79721 0.68145 0.0
C1511 C 0.8767 0.80686 0.68067 0.0
C1512 C 0.88097 0.83696 0.68375 0.0
C1513 C 0.86006 0.79485 0.6564 0.0
C1514 C 0.86697 0.79621 0.70346 0.0
C1515 C 0.88244 0.7821 0.7149 0.0
C1516 C 0.87705 0.77025 0.73623 0.0
C1517 C 0.85514 0.7728 0.74598 0.0
C1518 C 0.83937 0.78747 0.73457 0.0
C1519 C 0.84539 0.79935 0.71318 0.0
H1520 H 0.0761 0.03414 0.85107 0.0
H1521 H 0.11246 0.97 0.86577 0.0
H1522 H 0.08962 0.963 0.9024 0.0
H1523 H 0.07765 0.05914 0.91764 0.0
H1524 H 0.04868 0.06921 0.91309 0.0
H1525 H 0.06767 0.0687 0.88781 0.0
H1526 H 0.03183 0.03857 0.85894 0.0
H1527 H 0.01296 0.03848 0.88437 0.0
H1528 H 0.01792 0.008 0.86864 0.0
H1529 H 0.06 0.96021 0.9347 0.0
H1530 H 0.03479 0.9697 0.96858 0.0
H1531 H 0.01968 0.0377 0.93494 0.0
C1532 C 0.07943 0.01886 0.86222 0.0
C1533 C 0.09593 0.00253 0.85556 0.0
C1534 C 0.1 0.98283 0.87065 0.0
C1535 C 0.08688 0.97848 0.89128 0.0
C1536 C 0.07012 0.99431 0.89684 0.0
C1537 C 0.06697 0.01468 0.88333 0.0
C1538 C 0.04908 0.02995 0.89446 0.0
C1539 C 0.06151 0.05843 0.90381 0.0
C1540 C 0.02662 0.02866 0.87546 0.0
C1541 C 0.0426 0.01484 0.9162 0.0
C1542 C 0.05446 0.99396 0.9168 0.0
C1543 C 0.05102 0.97684 0.93482 0.0
C1544 C 0.03639 0.98222 0.95381 0.0
C1545 C 0.02533 0.00454 0.95455 0.0
C1546 C 0.02794 0.02054 0.935 0.0
H1547 H 0.73018 0.36919 0.61487 0.0
H1548 H 0.73552 0.30654 0.55719 0.0
H1549 H 0.73696 0.27651 0.58939 0.0
H1550 H 0.77189 0.3548 0.66019 0.0
H1551 H 0.75628 0.36198 0.68725 0.0
H1552 H 0.75161 0.37787 0.65965 0.0
H1553 H 0.70504 0.36092 0.657 0.0
H1554 H 0.70971 0.34536 0.68488 0.0
H1555 H 0.69357 0.32641 0.65642 0.0
H1556 H 0.74417 0.25536 0.62737 0.0
H1557 H 0.75247 0.24214 0.66923 0.0
H1558 H 0.74152 0.31726 0.70422 0.0
C1559 C 0.73047 0.34881 0.60901 0.0
C1560 C 0.73196 0.33986 0.58341 0.0
C1561 C 0.73367 0.31349 0.57654 0.0
C1562 C 0.73467 0.29637 0.59475 0.0
C1563 C 0.73403 0.3059 0.61989 0.0
C1564 C 0.73155 0.33135 0.62713 0.0
C1565 C 0.7331 0.33682 0.65578 0.0
C1566 C 0.75449 0.3592 0.66632 0.0
C1567 C 0.70891 0.34273 0.664 0.0
C1568 C 0.73762 0.31078 0.66338 0.0
C1569 C 0.73801 0.29333 0.64224 0.0
C1570 C 0.74341 0.26865 0.64405 0.0
C1571 C 0.74826 0.26138 0.66802 0.0
C1572 C 0.74751 0.27853 0.69012 0.0
C1573 C 0.74203 0.30362 0.68772 0.0
H1574 H 0.47862 0.08198 0.34182 0.0
H1575 H 0.40138 0.06952 0.34985 0.0
H1576 H 0.40948 0.05987 0.39298 0.0
H1577 H 0.49051 0.02863 0.37768 0.0
H1578 H 0.52001 0.04603 0.39203 0.0
H1579 H 0.50839 0.05222 0.36136 0.0
H1580 H 0.51428 0.10155 0.37769 0.0
H1581 H 0.52567 0.09547 0.40847 0.0
H1582 H 0.50011 0.11175 0.40494 0.0
H1583 H 0.42524 0.05414 0.43547 0.0
H1584 H 0.4475 0.04686 0.47447 0.0
H1585 H 0.51527 0.05957 0.44013 0.0
C1586 C 0.46347 0.07699 0.35267 0.0
C1587 C 0.43936 0.07755 0.34275 0.0
C1588 C 0.42002 0.07065 0.35737 0.0
C1589 C 0.42442 0.06475 0.38187 0.0
C1590 C 0.44834 0.06538 0.3915 0.0
C1591 C 0.46758 0.0708 0.37736 0.0
C1592 C 0.49145 0.06952 0.39256 0.0
C1593 C 0.50328 0.0478 0.38017 0.0
C1594 C 0.50891 0.09616 0.39612 0.0
C1595 C 0.48245 0.06277 0.41738 0.0
C1596 C 0.45751 0.06074 0.4162 0.0
C1597 C 0.44476 0.05535 0.43661 0.0
C1598 C 0.4577 0.05132 0.45879 0.0
C1599 C 0.48323 0.05241 0.4605 0.0
C1600 C 0.49579 0.0585 0.43948 0.0
H1601 H 0.82167 0.69015 0.0687 0.0
H1602 H 0.75104 0.67048 0.02407 0.0
H1603 H 0.73241 0.69034 0.05932 0.0
H1604 H 0.79818 0.67381 0.12454 0.0
H1605 H 0.81839 0.69886 0.14569 0.0
H1606 H 0.82834 0.68612 0.11675 0.0
H1607 H 0.83802 0.73158 0.10201 0.0
H1608 H 0.83014 0.74572 0.13152 0.0
H1609 H 0.81544 0.7521 0.10223 0.0
H1610 H 0.72107 0.71047 0.10016 0.0
H1611 H 0.71811 0.72955 0.14378 0.0
H1612 H 0.79606 0.73677 0.16127 0.0
C1613 C 0.80237 0.69042 0.06618 0.0
C1614 C 0.78786 0.67888 0.04359 0.0
C1615 C 0.76254 0.67913 0.04125 0.0
C1616 C 0.75179 0.69048 0.06111 0.0
C1617 C 0.76657 0.70148 0.08321 0.0
C1618 C 0.7913 0.70156 0.08585 0.0
C1619 C 0.80275 0.71282 0.11219 0.0
C1620 C 0.81252 0.69167 0.12556 0.0
C1621 C 0.82277 0.737 0.11196 0.0
C1622 C 0.78081 0.72004 0.12364 0.0
C1623 C 0.76003 0.71299 0.10674 0.0
C1624 C 0.73727 0.71635 0.11349 0.0
C1625 C 0.73575 0.72718 0.13823 0.0
C1626 C 0.75689 0.73474 0.15567 0.0
C1627 C 0.77968 0.73134 0.14818 0.0
H1628 H 0.09115 0.98316 0.70088 0.0
H1629 H 0.07927 0.05885 0.73362 0.0
H1630 H 0.06045 0.06593 0.69251 0.0
H1631 H 0.10616 0.00257 0.64113 0.0
H1632 H 0.09066 0.97223 0.62299 0.0
H1633 H 0.10298 0.97257 0.65516 0.0
H1634 H 0.06052 0.9508 0.66568 0.0
H1635 H 0.04804 0.95055 0.63355 0.0
H1636 H 0.03469 0.96601 0.65903 0.0
H1637 H 0.04412 0.06583 0.6487 0.0
H1638 H 0.03084 0.05873 0.60329 0.0
H1639 H 0.05214 0.9828 0.59764 0.0
C1640 C 0.08459 1.00121 0.69936 0.0
C1641 C 0.08668 0.02047 0.7205 0.0
C1642 C 0.07784 0.0438 0.71776 0.0
C1643 C 0.06709 0.04801 0.69449 0.0
C1644 C 0.0652 0.02867 0.67412 0.0
C1645 C 0.07364 0.00572 0.67618 0.0
C1646 C 0.06946 0.98837 0.65101 0.0
C1647 C 0.09377 0.98367 0.64205 0.0
C1648 C 0.05215 0.96239 0.65241 0.0
C1649 C 0.05756 0.00536 0.63454 0.0
C1650 C 0.05532 0.02846 0.64843 0.0
C1651 C 0.04563 0.04779 0.63761 0.0
C1652 C 0.03818 0.04355 0.61179 0.0
C1653 C 0.04034 0.02015 0.59704 0.0
C1654 C 0.04995 1.00066 0.60857 0.0
H1655 H 0.72698 0.37323 0.43769 0.0
H1656 H 0.74693 0.31096 0.47715 0.0
H1657 H 0.74795 0.28446 0.4366 0.0
H1658 H 0.68947 0.32933 0.38188 0.0
H1659 H 0.70018 0.35128 0.3599 0.0
H1660 H 0.69738 0.36407 0.39183 0.0
H1661 H 0.7427 0.38717 0.3971 0.0
H1662 H 0.74535 0.37436 0.36523 0.0
H1663 H 0.76575 0.36813 0.39072 0.0
H1664 H 0.75301 0.26734 0.39294 0.0
H1665 H 0.7587 0.25901 0.34795 0.0
H1666 H 0.73436 0.33087 0.33466 0.0
C1667 C 0.73054 0.35358 0.43766 0.0
C1668 C 0.73637 0.34391 0.46067 0.0
C1669 C 0.74202 0.31857 0.45984 0.0
C1670 C 0.74273 0.30339 0.43685 0.0
C1671 C 0.73776 0.3137 0.41456 0.0
C1672 C 0.73145 0.33806 0.41461 0.0
C1673 C 0.72872 0.34502 0.38778 0.0
C1674 C 0.70236 0.34757 0.37988 0.0
C1675 C 0.74671 0.37016 0.38507 0.0
C1676 C 0.73519 0.32117 0.37292 0.0
C1677 C 0.74027 0.30338 0.38887 0.0
C1678 C 0.74856 0.28083 0.38018 0.0
C1679 C 0.75183 0.27629 0.35458 0.0
C1680 C 0.74656 0.29396 0.3377 0.0
C1681 C 0.73787 0.31661 0.347 0.0
H1682 H 0.4792 0.12051 0.20004 0.0
H1683 H 0.41393 0.06013 0.18972 0.0
H1684 H 0.42268 0.04657 0.1465 0.0
H1685 H 0.4749 0.13708 0.13543 0.0
H1686 H 0.50737 0.14238 0.13431 0.0
H1687 H 0.49526 0.14848 0.16389 0.0
H1688 H 0.51997 0.1168 0.18332 0.0
H1689 H 0.53225 0.11065 0.15391 0.0
H1690 H 0.51656 0.08374 0.16807 0.0
H1691 H 0.4396 0.03826 0.10493 0.0
H1692 H 0.46375 0.03549 0.06872 0.0
H1693 H 0.51804 0.10106 0.10623 0.0
C1694 C 0.46659 0.10459 0.18865 0.0
C1695 C 0.44583 0.09141 0.19835 0.0
C1696 C 0.42991 0.07058 0.18277 0.0
C1697 C 0.43472 0.06275 0.15815 0.0
C1698 C 0.45545 0.07601 0.14929 0.0
C1699 C 0.47109 0.09654 0.16404 0.0
C1700 C 0.49257 0.10696 0.15035 0.0
C1701 C 0.49251 0.13542 0.14573 0.0
C1702 C 0.51676 0.10437 0.16477 0.0
C1703 C 0.48693 0.08862 0.12586 0.0
C1704 C 0.46528 0.07111 0.12548 0.0
C1705 C 0.45651 0.05197 0.105 0.0
C1706 C 0.47033 0.05054 0.08452 0.0
C1707 C 0.49274 0.06803 0.08474 0.0
C1708 C 0.50097 0.08743 0.10559 0.0
H1709 H 0.77076 0.69203 0.92772 0.0
H1710 H 0.84965 0.71328 0.93574 0.0
H1711 H 0.84706 0.74373 0.90394 0.0
H1712 H 0.76199 0.68948 0.86336 0.0
H1713 H 0.73448 0.70272 0.86246 0.0
H1714 H 0.74256 0.6856 0.8882 0.0
H1715 H 0.74052 0.72599 0.91996 0.0
H1716 H 0.73239 0.74325 0.8942 0.0
H1717 H 0.75839 0.75743 0.91671 0.0
H1718 H 0.83584 0.76657 0.86691 0.0
H1719 H 0.81689 0.78144 0.82916 0.0
H1720 H 0.74545 0.74615 0.84699 0.0
C1721 C 0.78752 0.70344 0.92318 0.0
C1722 C 0.81041 0.70025 0.93413 0.0
C1723 C 0.8319 0.71552 0.92765 0.0
C1724 C 0.8306 0.73286 0.90964 0.0
C1725 C 0.80769 0.73497 0.8987 0.0
C1726 C 0.78653 0.7209 0.9055 0.0
C1727 C 0.76425 0.72514 0.88977 0.0
C1728 C 0.75 0.6992 0.87508 0.0
C1729 C 0.74793 0.73877 0.90614 0.0
C1730 C 0.77619 0.74305 0.87239 0.0
C1731 C 0.80124 0.74869 0.87789 0.0
C1732 C 0.81623 0.76281 0.86279 0.0
C1733 C 0.80531 0.77108 0.84136 0.0
C1734 C 0.77969 0.76521 0.83535 0.0
C1735 C 0.76503 0.75149 0.85141 0.0
H1736 H 0.88411 0.14167 0.9916 0.0
H1737 H 0.853 0.12686 0.06096 0.0
H1738 H 0.88137 0.0974 0.0693 0.0
H1739 H 0.8924 0.07943 0.97199 0.0
H1740 H 0.9219 0.0878 0.96102 0.0
H1741 H 0.90178 0.11096 0.96165 0.0
H1742 H 0.93506 0.14547 0.98923 0.0
H1743 H 0.95538 0.12243 0.9888 0.0
H1744 H 0.94875 0.13762 0.01836 0.0
H1745 H 0.90609 0.0634 0.06623 0.0
H1746 H 0.93202 0.03172 0.05625 0.0
H1747 H 0.95193 0.06912 0.99086 0.0
C1748 C 0.88396 0.13299 0.00898 0.0
C1749 C 0.86621 0.1367 0.02566 0.0
C1750 C 0.8663 0.12443 0.0479 0.0
C1751 C 0.88235 0.10754 0.0528 0.0
C1752 C 0.89868 0.1032 0.0355 0.0
C1753 C 0.90022 0.11603 0.01438 0.0
C1754 C 0.91928 0.1069 0.99874 0.0
C1755 C 0.90816 0.0956 0.97175 0.0
C1756 C 0.9409 0.12948 0.99878 0.0
C1757 C 0.9268 0.08571 0.01345 0.0
C1758 C 0.91462 0.08425 0.03466 0.0
C1759 C 0.91635 0.06493 0.05015 0.0
C1760 C 0.93118 0.04687 0.0442 0.0
C1761 C 0.94486 0.0483 0.02325 0.0
C1762 C 0.94253 0.06806 0.00755 0.0
H1763 H 0.34776 0.45617 0.06044 0.0
H1764 H 0.3094 0.49863 0.01018 0.0
H1765 H 0.34855 0.52375 1.00155 0.0
H1766 H 0.39399 0.50992 0.08733 0.0
H1767 H 0.41806 0.49135 0.08893 0.0
H1768 H 0.38708 0.47553 0.09046 0.0
H1769 H 0.38969 0.44147 0.05249 0.0
H1770 H 0.42081 0.45694 0.0511 0.0
H1771 H 0.39894 0.4526 0.0236 0.0
H1772 H 0.39127 0.54527 0.9994 0.0
H1773 H 0.43569 0.56001 1.00158 0.0
H1774 H 0.44654 0.50395 0.05345 0.0
C1775 C 0.34763 0.47048 0.04735 0.0
C1776 C 0.32557 0.47545 0.03597 0.0
C1777 C 0.3261 0.49451 0.01912 0.0
C1778 C 0.34823 0.50893 0.01413 0.0
C1779 C 0.36962 0.50402 0.02611 0.0
C1780 C 0.36958 0.48512 0.04217 0.0
C1781 C 0.39523 0.48399 0.05273 0.0
C1782 C 0.39879 0.4906 0.08157 0.0
C1783 C 0.40153 0.45716 0.04448 0.0
C1784 C 0.40959 0.50533 0.0402 0.0
C1785 C 0.39443 0.51662 0.02495 0.0
C1786 C 0.40338 0.53657 0.01121 0.0
C1787 C 0.42862 0.54484 0.01264 0.0
C1788 C 0.44454 0.53316 0.02772 0.0
C1789 C 0.43483 0.51343 0.04195 0.0
H1790 H 0.31638 0.61601 0.73212 0.0
H1791 H 0.33272 0.62321 0.81353 0.0
H1792 H 0.3144 0.66214 0.81818 0.0
H1793 H 0.32728 0.68416 0.72631 0.0
H1794 H 0.30199 0.68259 0.70271 0.0
H1795 H 0.31611 0.65452 0.70501 0.0
H1796 H 0.27443 0.62611 0.70996 0.0
H1797 H 0.26015 0.65405 0.70743 0.0
H1798 H 0.25694 0.63654 0.73439 0.0
H1799 H 0.29865 0.70273 0.81462 0.0
H1800 H 0.27946 0.73931 0.80294 0.0
H1801 H 0.26872 0.70479 0.72469 0.0
C1802 C 0.31578 0.62559 0.7509 0.0
C1803 C 0.32611 0.61636 0.77239 0.0
C1804 C 0.3249 0.62957 0.79666 0.0
C1805 C 0.31463 0.65193 0.7996 0.0
C1806 C 0.3051 0.66079 0.77818 0.0
C1807 C 0.30497 0.64783 0.75431 0.0
C1808 C 0.29277 0.66151 0.73465 0.0
C1809 C 0.31061 0.67127 0.71607 0.0
C1810 C 0.2697 0.64348 0.72079 0.0
C1811 C 0.28652 0.68422 0.75129 0.0
C1812 C 0.29422 0.68358 0.77629 0.0
C1813 C 0.29204 0.70323 0.79517 0.0
C1814 C 0.28125 0.72395 0.78839 0.0
C1815 C 0.27232 0.72449 0.76308 0.0
C1816 C 0.27501 0.70443 0.74428 0.0
H1817 H 0.20521 0.6073 0.46034 0.0
H1818 H 0.23856 0.64682 0.53376 0.0
H1819 H 0.20034 0.63264 0.55183 0.0
H1820 H 0.1459 0.62322 0.46566 0.0
H1821 H 0.12958 0.59214 0.44971 0.0
H1822 H 0.15969 0.60508 0.44232 0.0
H1823 H 0.17386 0.56265 0.45239 0.0
H1824 H 0.14394 0.54944 0.4601 0.0
H1825 H 0.17011 0.5518 0.48276 0.0
H1826 H 0.15882 0.61387 0.56232 0.0
H1827 H 0.11586 0.59311 0.56387 0.0
H1828 H 0.10909 0.56648 0.48378 0.0
C1829 C 0.20447 0.613 0.4802 0.0
C1830 C 0.22496 0.62814 0.4956 0.0
C1831 C 0.22317 0.63522 0.52152 0.0
C1832 C 0.20153 0.62723 0.53202 0.0
C1833 C 0.18175 0.61222 0.51639 0.0
C1834 C 0.18293 0.60527 0.49102 0.0
C1835 C 0.15888 0.58922 0.4784 0.0
C1836 C 0.14787 0.60326 0.45781 0.0
C1837 C 0.16189 0.56164 0.46779 0.0
C1838 C 0.14404 0.58838 0.50063 0.0
C1839 C 0.15764 0.60163 0.5224 0.0
C1840 C 0.14795 0.60347 0.5454 0.0
C1841 C 0.1236 0.59161 0.54612 0.0
C1842 C 0.10928 0.57827 0.52398 0.0
C1843 C 0.11969 0.57657 0.501 0.0
H1844 H 0.6677 0.93474 0.77601 0.0
H1845 H 0.66076 0.92588 0.85456 0.0
H1846 H 0.68536 0.89128 0.85197 0.0
H1847 H 0.66585 0.86678 0.75331 0.0
H1848 H 0.68877 0.87366 0.73223 0.0
H1849 H 0.66976 0.89708 0.73977 0.0
H1850 H 0.70818 0.93274 0.75484 0.0
H1851 H 0.72725 0.90938 0.74729 0.0
H1852 H 0.73054 0.92678 0.77863 0.0
H1853 H 0.7081 0.85566 0.84024 0.0
H1854 H 0.73296 0.82554 0.82183 0.0
H1855 H 0.72904 0.86008 0.75217 0.0
C1856 C 0.6713 0.92539 0.79259 0.0
C1857 C 0.6622 0.93285 0.81546 0.0
C1858 C 0.6676 0.9205 0.83688 0.0
C1859 C 0.68142 0.90072 0.83556 0.0
C1860 C 0.69002 0.89371 0.81276 0.0
C1861 C 0.68558 0.90594 0.79175 0.0
C1862 C 0.69818 0.89559 0.76999 0.0
C1863 C 0.67952 0.8825 0.7475 0.0
C1864 C 0.71717 0.91743 0.76224 0.0
C1865 C 0.71025 0.87558 0.78205 0.0
C1866 C 0.70488 0.87451 0.80658 0.0
C1867 C 0.7128 0.85664 0.82122 0.0
C1868 C 0.72685 0.83961 0.81062 0.0
C1869 C 0.73321 0.84092 0.78583 0.0
C1870 C 0.72483 0.85914 0.77137 0.0
H1871 H 0.70408 0.99142 0.56475 0.0
H1872 H 0.69277 0.92812 0.5031 0.0
H1873 H 0.65889 0.94572 0.48323 0.0
H1874 H 0.64087 0.99138 0.56877 0.0
H1875 H 0.64517 0.02635 0.57671 0.0
H1876 H 0.66934 0.00946 0.5851 0.0
H1877 H 0.6983 0.03999 0.56122 0.0
H1878 H 0.67399 0.05661 0.55234 0.0
H1879 H 0.68992 0.0422 0.52846 0.0
H1880 H 0.62587 0.96944 0.47052 0.0
H1881 H 0.5924 0.9942 0.4687 0.0
H1882 H 0.62468 0.04173 0.53884 0.0
C1883 C 0.69451 0.98131 0.54704 0.0
C1884 C 0.70111 0.95849 0.5354 0.0
C1885 C 0.68797 0.9456 0.51239 0.0
C1886 C 0.66886 0.95559 0.50084 0.0
C1887 C 0.66306 0.97836 0.51261 0.0
C1888 C 0.67522 0.99084 0.53539 0.0
C1889 C 0.66423 0.01391 0.54496 0.0
C1890 C 0.65431 0.01003 0.57038 0.0
C1891 C 0.68272 0.0397 0.54685 0.0
C1892 C 0.64384 0.01231 0.5241 0.0
C1893 C 0.64373 0.99189 0.50544 0.0
C1894 C 0.62587 0.98561 0.48489 0.0
C1895 C 0.60703 0.99988 0.48394 0.0
C1896 C 0.60617 0.02 0.50349 0.0
C1897 C 0.62522 0.02681 0.52337 0.0
H1898 H 0.32519 0.47994 0.79403 0.0
H1899 H 0.33693 0.48379 0.7156 0.0
H1900 H 0.31655 0.43739 0.70521 0.0
H1901 H 0.33766 0.41663 0.79686 0.0
H1902 H 0.31493 0.40729 0.81754 0.0
H1903 H 0.32874 0.44118 0.81838 0.0
H1904 H 0.28608 0.45292 0.81008 0.0
H1905 H 0.27212 0.41902 0.80924 0.0
H1906 H 0.2658 0.43635 0.78297 0.0
H1907 H 0.29683 0.38971 0.70396 0.0
H1908 H 0.27981 0.34493 0.7117 0.0
H1909 H 0.28121 0.37233 0.79117 0.0
C1910 C 0.32324 0.47124 0.77455 0.0
C1911 C 0.33263 0.48573 0.7556 0.0
C1912 C 0.32984 0.47327 0.73045 0.0
C1913 C 0.31827 0.44689 0.72438 0.0
C1914 C 0.30952 0.43319 0.74362 0.0
C1915 C 0.31185 0.44499 0.7682 0.0
C1916 C 0.3019 0.42572 0.78562 0.0
C1917 C 0.32201 0.42252 0.80578 0.0
C1918 C 0.28018 0.434 0.79768 0.0
C1919 C 0.29385 0.40107 0.76708 0.0
C1920 C 0.29828 0.40582 0.74293 0.0
C1921 C 0.29312 0.38587 0.72276 0.0
C1922 C 0.28342 0.36042 0.7274 0.0
C1923 C 0.27895 0.35496 0.75206 0.0
C1924 C 0.28409 0.37577 0.77206 0.0
H1925 H 0.17883 0.58864 0.332 0.0
H1926 H 0.17316 0.54176 0.25926 0.0
H1927 H 0.19977 0.57788 0.24351 0.0
H1928 H 0.1742 0.64752 0.30737 0.0
H1929 H 0.19509 0.6684 0.33179 0.0
H1930 H 0.17819 0.63779 0.33841 0.0
H1931 H 0.21856 0.62383 0.35344 0.0
H1932 H 0.23553 0.65445 0.34674 0.0
H1933 H 0.24211 0.62401 0.33268 0.0
H1934 H 0.22546 0.61939 0.23492 0.0
H1935 H 0.24466 0.66529 0.23264 0.0
H1936 H 0.23168 0.68641 0.3099 0.0
C1937 C 0.18357 0.5859 0.31292 0.0
C1938 C 0.17414 0.56237 0.29689 0.0
C1939 C 0.18021 0.55966 0.27183 0.0
C1940 C 0.19545 0.57998 0.26277 0.0
C1941 C 0.20431 0.60303 0.27892 0.0
C1942 C 0.1984 0.60626 0.30338 0.0
C1943 C 0.20841 0.63393 0.31596 0.0
C1944 C 0.18774 0.64772 0.32383 0.0
C1945 C 0.22727 0.63405 0.33854 0.0
C1946 C 0.22038 0.64581 0.29458 0.0
C1947 C 0.21829 0.62746 0.27359 0.0
C1948 C 0.22734 0.63392 0.25127 0.0
C1949 C 0.23827 0.65998 0.25016 0.0
C1950 C 0.23963 0.67926 0.27107 0.0
C1951 C 0.23098 0.67196 0.29368 0.0
H1952 H 0.49153 0.72205 0.43365 0.0
H1953 H 0.5595 0.73285 0.39988 0.0
H1954 H 0.57415 0.70152 0.42593 0.0
H1955 H 0.5177 0.71359 0.49736 0.0
H1956 H 0.49173 0.6892 0.50131 0.0
H1957 H 0.48798 0.71489 0.48239 0.0
H1958 H 0.46835 0.68024 0.44443 0.0
H1959 H 0.47179 0.65484 0.46358 0.0
H1960 H 0.48455 0.65499 0.43395 0.0
H1961 H 0.57937 0.66517 0.45216 0.0
H1962 H 0.57458 0.62713 0.47617 0.0
H1963 H 0.50341 0.64077 0.49282 0.0
C1964 C 0.5097 0.71827 0.432 0.0
C1965 C 0.52435 0.73 0.41467 0.0
C1966 C 0.54794 0.72425 0.41307 0.0
C1967 C 0.55644 0.70649 0.42784 0.0
C1968 C 0.54127 0.69486 0.44432 0.0
C1969 C 0.51846 0.70071 0.4466 0.0
C1970 C 0.50496 0.68428 0.4643 0.0
C1971 C 0.50033 0.70153 0.48773 0.0
C1972 C 0.48102 0.66759 0.45073 0.0
C1973 C 0.52335 0.66754 0.47093 0.0
C1974 C 0.54434 0.67415 0.45951 0.0
C1975 C 0.56321 0.66015 0.46154 0.0
C1976 C 0.56035 0.6386 0.47521 0.0
C1977 C 0.53877 0.63127 0.48655 0.0
C1978 C 0.52031 0.64626 0.48475 0.0
H1979 H 0.58992 0.32509 0.69432 0.0
H1980 H 0.54783 0.24972 0.70472 0.0
H1981 H 0.58423 0.23887 0.72709 0.0
H1982 H 0.64521 0.30172 0.6828 0.0
H1983 H 0.66503 0.33071 0.69916 0.0
H1984 H 0.6355 0.3328 0.68441 0.0
H1985 H 0.62507 0.35388 0.72702 0.0
H1986 H 0.65451 0.35151 0.74188 0.0
H1987 H 0.62725 0.337 0.75439 0.0
H1988 H 0.62518 0.23575 0.74805 0.0
H1989 H 0.66846 0.23947 0.76367 0.0
H1990 H 0.68459 0.31665 0.73968 0.0
C1991 C 0.58834 0.30632 0.70132 0.0
C1992 C 0.56586 0.28831 0.69775 0.0
C1993 C 0.56473 0.26388 0.70712 0.0
C1994 C 0.58533 0.25755 0.71998 0.0
C1995 C 0.60709 0.27576 0.72333 0.0
C1996 C 0.60883 0.29957 0.7141 0.0
C1997 C 0.63467 0.31524 0.71962 0.0
C1998 C 0.64575 0.32041 0.69503 0.0
C1999 C 0.63541 0.34093 0.73675 0.0
C2000 C 0.64714 0.29649 0.73332 0.0
C2001 C 0.63083 0.27391 0.73536 0.0
C2002 C 0.6381 0.25339 0.74663 0.0
C2003 C 0.66277 0.25573 0.75552 0.0
C2004 C 0.68003 0.27841 0.75314 0.0
C2005 C 0.67188 0.29922 0.74223 0.0
H2006 H 0.98823 0.33576 0.93265 0.0
H2007 H 0.03272 0.3665 0.87669 0.0
H2008 H 0.04008 0.41054 0.90131 0.0
H2009 H 0.95952 0.38892 0.94489 0.0
H2010 H 0.95986 0.38761 0.9783 0.0
H2011 H 0.95963 0.35832 0.95732 0.0
H2012 H 0.99883 0.35113 0.98261 0.0
H2013 H 0.99911 0.38037 0.00379 0.0
H2014 H 0.02542 0.37689 0.98773 0.0
H2015 H 0.03772 0.45201 0.92908 0.0
H2016 H 0.02947 0.48691 0.95983 0.0
H2017 H 0.98988 0.42871 1.00012 0.0
C2018 C 0.99979 0.35168 0.92571 0.0
C2019 C 0.00984 0.34773 0.90266 0.0
C2020 C 0.02495 0.36904 0.89433 0.0
C2021 C 0.02916 0.39412 0.90817 0.0
C2022 C 0.01854 0.39742 0.93056 0.0
C2023 C 0.00454 0.37666 0.93951 0.0
C2024 C 0.99483 0.38544 0.96384 0.0
C2025 C 0.9668 0.37973 0.96089 0.0
C2026 C 0.00517 0.3727 0.98579 0.0
C2027 C 0.00491 0.41457 0.96682 0.0
C2028 C 0.01849 0.42108 0.94738 0.0
C2029 C 0.02782 0.44703 0.94482 0.0
C2030 C 0.02324 0.46677 0.96257 0.0
C2031 C 0.00992 0.46058 0.98302 0.0
C2032 C 0.00073 0.43406 0.98513 0.0
H2033 H 0.90012 0.74764 0.17782 0.0
H2034 H 0.94985 0.74917 0.24476 0.0
H2035 H 0.91663 0.75277 0.27128 0.0
H2036 H 0.86534 0.79181 0.2008 0.0
H2037 H 0.83629 0.77352 0.18603 0.0
H2038 H 0.86368 0.76978 0.17219 0.0
H2039 H 0.85327 0.72003 0.17354 0.0
H2040 H 0.82592 0.72316 0.18809 0.0
H2041 H 0.84835 0.70756 0.203 0.0
H2042 H 0.87951 0.76233 0.29072 0.0
H2043 H 0.83929 0.77 0.30147 0.0
H2044 H 0.81245 0.75781 0.22221 0.0
C2045 C 0.90387 0.74829 0.19802 0.0
C2046 C 0.92757 0.74819 0.20924 0.0
C2047 C 0.93178 0.74897 0.23573 0.0
C2048 C 0.91306 0.75121 0.25099 0.0
C2049 C 0.89006 0.75198 0.23943 0.0
C2050 C 0.8852 0.74982 0.21354 0.0
C2051 C 0.85864 0.75027 0.20596 0.0
C2052 C 0.85584 0.77269 0.19033 0.0
C2053 C 0.84576 0.72367 0.19177 0.0
C2054 C 0.84976 0.75479 0.23161 0.0
C2055 C 0.86818 0.75565 0.25067 0.0
C2056 C 0.86481 0.76115 0.27594 0.0
C2057 C 0.84193 0.76563 0.28185 0.0
C2058 C 0.82259 0.76421 0.26263 0.0
C2059 C 0.82663 0.75857 0.23724 0.0
H2060 H 0.5158 0.3898 0.08699 0.0
H2061 H 0.44627 0.35161 0.04579 0.0
H2062 H 0.45216 0.38335 0.01463 0.0
H2063 H 0.50639 0.45202 0.08182 0.0
H2064 H 0.53775 0.46582 0.0799 0.0
H2065 H 0.53026 0.43795 0.09644 0.0
H2066 H 0.55509 0.41166 0.06849 0.0
H2067 H 0.56347 0.4397 0.05223 0.0
H2068 H 0.54901 0.40866 0.03468 0.0
H2069 H 0.46479 0.42217 0.99032 0.0
H2070 H 0.48068 0.46571 0.97779 0.0
H2071 H 0.54083 0.4775 0.03658 0.0
C2072 C 0.50194 0.38748 0.07112 0.0
C2073 C 0.48068 0.36796 0.06864 0.0
C2074 C 0.46278 0.36633 0.04795 0.0
C2075 C 0.46607 0.38415 0.03013 0.0
C2076 C 0.48729 0.40333 0.03343 0.0
C2077 C 0.50478 0.40505 0.05359 0.0
C2078 C 0.52441 0.4291 0.05521 0.0
C2079 C 0.5247 0.44726 0.07982 0.0
C2080 C 0.54947 0.42183 0.05247 0.0
C2081 C 0.51548 0.44087 0.03267 0.0
C2082 C 0.49417 0.4257 0.0201 0.0
C2083 C 0.48166 0.43389 0.99977 0.0
C2084 C 0.49085 0.45848 0.99269 0.0
C2085 C 0.51211 0.47443 0.00609 0.0
C2086 C 0.52478 0.46532 0.02589 0.0
H2087 H 0.93675 0.24085 0.37543 0.0
H2088 H 0.9894 0.29497 0.34279 0.0
H2089 H 0.95678 0.30067 0.3109 0.0
H2090 H 0.90128 0.21011 0.31649 0.0
H2091 H 0.87285 0.20696 0.33009 0.0
H2092 H 0.9006 0.20616 0.34935 0.0
H2093 H 0.89304 0.24439 0.38075 0.0
H2094 H 0.8652 0.2451 0.36177 0.0
H2095 H 0.88826 0.27435 0.36923 0.0
H2096 H 0.91799 0.30255 0.28479 0.0
H2097 H 0.87565 0.30158 0.26706 0.0
H2098 H 0.84924 0.24506 0.31636 0.0
C2099 C 0.94148 0.25395 0.36162 0.0
C2100 C 0.96547 0.26765 0.36159 0.0
C2101 C 0.97102 0.28437 0.34307 0.0
C2102 C 0.95269 0.2876 0.32487 0.0
C2103 C 0.92918 0.27367 0.32541 0.0
C2104 C 0.92358 0.25716 0.34329 0.0
C2105 C 0.89681 0.2452 0.34053 0.0
C2106 C 0.89265 0.21533 0.3337 0.0
C2107 C 0.88515 0.25273 0.36449 0.0
C2108 C 0.888 0.25819 0.31872 0.0
C2109 C 0.90696 0.27433 0.31007 0.0
C2110 C 0.90304 0.28972 0.29114 0.0
C2111 C 0.87901 0.28905 0.28122 0.0
C2112 C 0.85944 0.27312 0.29037 0.0
C2113 C 0.86401 0.25706 0.30885 0.0
H2114 H 0.94781 0.71269 0.58187 0.0
H2115 H 0.02 0.76039 0.58493 0.0
H2116 H 0.03462 0.72285 0.56409 0.0
H2117 H 0.96897 0.65452 0.5962 0.0
H2118 H 0.94505 0.63248 0.57581 0.0
H2119 H 0.93972 0.66351 0.58977 0.0
H2120 H 0.92701 0.675 0.54538 0.0
H2121 H 0.93247 0.64405 0.53128 0.0
H2122 H 0.94765 0.67407 0.52157 0.0
H2123 H 0.04176 0.68066 0.54344 0.0
H2124 H 0.04193 0.63488 0.52728 0.0
H2125 H 0.9656 0.61361 0.53869 0.0
C2126 C 0.96663 0.71521 0.57798 0.0
C2127 C 0.98274 0.73946 0.58491 0.0
C2128 C 0.00735 0.74195 0.57987 0.0
C2129 C 0.01581 0.7208 0.5679 0.0
C2130 C 0.99952 0.6972 0.56128 0.0
C2131 C 0.97553 0.69411 0.56637 0.0
C2132 C 0.9623 0.66612 0.55854 0.0
C2133 C 0.9535 0.65342 0.58144 0.0
C2134 C 0.9411 0.66474 0.53796 0.0
C2135 C 0.98262 0.65411 0.54825 0.0
C2136 C 0.00384 0.67247 0.54983 0.0
C2137 C 0.02525 0.66605 0.54205 0.0
C2138 C 0.02514 0.63998 0.53286 0.0
C2139 C 0.00379 0.62062 0.5317 0.0
C2140 C 0.98217 0.62795 0.53916 0.0
H2141 H 0.59639 0.83226 0.88021 0.0
H2142 H 0.59365 0.76611 0.92285 0.0
H2143 H 0.62181 0.74844 0.89618 0.0
H2144 H 0.59429 0.79891 0.82226 0.0
H2145 H 0.61557 0.82257 0.80934 0.0
H2146 H 0.59877 0.83316 0.83423 0.0
H2147 H 0.63882 0.85534 0.8618 0.0
H2148 H 0.65574 0.84547 0.83665 0.0
H2149 H 0.66232 0.83667 0.86766 0.0
H2150 H 0.64335 0.73367 0.86036 0.0
H2151 H 0.6655 0.72777 0.82308 0.0
H2152 H 0.65584 0.80416 0.80464 0.0
C2153 C 0.60245 0.81461 0.88462 0.0
C2154 C 0.59255 0.80042 0.90343 0.0
C2155 C 0.60087 0.7773 0.90847 0.0
C2156 C 0.61677 0.76699 0.89333 0.0
C2157 C 0.62462 0.78037 0.87366 0.0
C2158 C 0.61852 0.80417 0.86981 0.0
C2159 C 0.62856 0.81388 0.84657 0.0
C2160 C 0.60807 0.81732 0.82695 0.0
C2161 C 0.64749 0.83935 0.85362 0.0
C2162 C 0.64041 0.79133 0.8375 0.0
C2163 C 0.6378 0.77216 0.85332 0.0
C2164 C 0.64599 0.74878 0.8481 0.0
C2165 C 0.65821 0.74544 0.82672 0.0
C2166 C 0.66225 0.7655 0.81108 0.0
C2167 C 0.65287 0.7885 0.8163 0.0
H2168 H 0.41239 0.51118 0.66675 0.0
H2169 H 0.39356 0.58798 0.66616 0.0
H2170 H 0.41848 0.59585 0.63106 0.0
H2171 H 0.47328 0.52901 0.65629 0.0
H2172 H 0.47432 0.49955 0.636 0.0
H2173 H 0.45328 0.49878 0.65943 0.0
H2174 H 0.41712 0.48008 0.62509 0.0
H2175 H 0.43813 0.48023 0.60162 0.0
H2176 H 0.41292 0.49702 0.59804 0.0
H2177 H 0.44864 0.59684 0.59865 0.0
H2178 H 0.47724 0.58874 0.56774 0.0
H2179 H 0.4761 0.51111 0.58951 0.0
C2180 C 0.41306 0.52947 0.65894 0.0
C2181 C 0.40098 0.54897 0.66928 0.0
C2182 C 0.4025 0.57267 0.65852 0.0
C2183 C 0.41676 0.57739 0.63867 0.0
C2184 C 0.42922 0.55815 0.62967 0.0
C2185 C 0.42712 0.53446 0.63913 0.0
C2186 C 0.4427 0.5172 0.62649 0.0
C2187 C 0.46204 0.51077 0.64571 0.0
C2188 C 0.42677 0.49215 0.61194 0.0
C2189 C 0.45427 0.53506 0.60874 0.0
C2190 C 0.44633 0.55862 0.6109 0.0
C2191 C 0.45484 0.57839 0.59671 0.0
C2192 C 0.47135 0.57369 0.57938 0.0
C2193 C 0.47917 0.54935 0.57628 0.0
C2194 C 0.47065 0.52998 0.59147 0.0
H2195 H 0.80145 0.25629 0.95106 0.0
H2196 H 0.79534 0.17488 0.92084 0.0
H2197 H 0.7828 0.18505 0.87847 0.0
H2198 H 0.74709 0.26565 0.91109 0.0
H2199 H 0.75992 0.29885 0.90707 0.0
H2200 H 0.76882 0.28568 0.93534 0.0
H2201 H 0.81405 0.29742 0.92743 0.0
H2202 H 0.80527 0.31053 0.89911 0.0
H2203 H 0.82329 0.28529 0.89781 0.0
H2204 H 0.77655 0.20445 0.839 0.0
H2205 H 0.76928 0.23036 0.80483 0.0
H2206 H 0.77131 0.2985 0.8591 0.0
C2207 C 0.79724 0.24067 0.93549 0.0
C2208 C 0.79944 0.2147 0.93922 0.0
C2209 C 0.79369 0.19479 0.91844 0.0
C2210 C 0.78665 0.20042 0.89426 0.0
C2211 C 0.78479 0.22605 0.89106 0.0
C2212 C 0.78929 0.24583 0.91108 0.0
C2213 C 0.78483 0.27145 0.90207 0.0
C2214 C 0.76392 0.28097 0.91464 0.0
C2215 C 0.80826 0.29241 0.9069 0.0
C2216 C 0.77766 0.26297 0.87388 0.0
C2217 C 0.77829 0.23675 0.86813 0.0
C2218 C 0.77495 0.2247 0.84337 0.0
C2219 C 0.77041 0.23957 0.82397 0.0
C2220 C 0.76801 0.26604 0.82907 0.0
C2221 C 0.77193 0.278 0.85454 0.0
H2222 H 0.04395 0.4931 0.2042 0.0
H2223 H 0.1201 0.48954 0.19965 0.0
H2224 H 0.11457 0.49296 0.15401 0.0
H2225 H 0.02047 0.45547 0.14347 0.0
H2226 H 0.998 0.47527 0.13725 0.0
H2227 H 0.00784 0.47142 0.16923 0.0
H2228 H 0.01964 0.52181 0.18031 0.0
H2229 H 0.00984 0.5258 0.1484 0.0
H2230 H 0.04038 0.54029 0.16213 0.0
H2231 H 0.10082 0.49873 0.10885 0.0
H2232 H 0.08015 0.50635 0.0685 0.0
H2233 H 0.0131 0.50572 0.10318 0.0
C2234 C 0.05947 0.49282 0.19363 0.0
C2235 C 0.08247 0.49099 0.20556 0.0
C2236 C 0.10228 0.49086 0.19096 0.0
C2237 C 0.09931 0.49277 0.16501 0.0
C2238 C 0.0764 0.49473 0.1539 0.0
C2239 C 0.05683 0.4947 0.16779 0.0
C2240 C 0.03427 0.49776 0.15162 0.0
C2241 C 0.01395 0.47353 0.15032 0.0
C2242 C 0.02553 0.52291 0.16119 0.0
C2243 C 0.04422 0.49976 0.12649 0.0
C2244 C 0.06853 0.4979 0.1281 0.0
C2245 C 0.08174 0.50003 0.10737 0.0
C2246 C 0.06983 0.50437 0.0845 0.0
C2247 C 0.04494 0.50654 0.08252 0.0
C2248 C 0.03206 0.50393 0.10386 0.0
H2249 H 0.78744 0.83098 0.47782 0.0
H2250 H 0.72679 0.87214 0.47551 0.0
H2251 H 0.71126 0.84837 0.43338 0.0
H2252 H 0.79855 0.83381 0.41573 0.0
H2253 H 0.80628 0.80185 0.41063 0.0
H2254 H 0.81089 0.81951 0.44182 0.0
H2255 H 0.78423 0.78041 0.45806 0.0
H2256 H 0.77949 0.7626 0.42682 0.0
H2257 H 0.75373 0.76794 0.44307 0.0
H2258 H 0.70518 0.82458 0.38989 0.0
H2259 H 0.70911 0.80253 0.34791 0.0
H2260 H 0.77278 0.77552 0.37867 0.0
C2261 C 0.77064 0.8347 0.46871 0.0
C2262 C 0.75833 0.85344 0.48005 0.0
C2263 C 0.73655 0.85787 0.46728 0.0
C2264 C 0.72751 0.84437 0.44337 0.0
C2265 C 0.74032 0.82633 0.43261 0.0
C2266 C 0.76134 0.82137 0.44489 0.0
C2267 C 0.77269 0.80256 0.42841 0.0
C2268 C 0.79863 0.8152 0.42388 0.0
C2269 C 0.77252 0.77685 0.43977 0.0
C2270 C 0.75523 0.79846 0.40456 0.0
C2271 C 0.73652 0.81211 0.40752 0.0
C2272 C 0.71938 0.8133 0.38751 0.0
C2273 C 0.72171 0.80065 0.36377 0.0
C2274 C 0.7409 0.78688 0.36028 0.0
C2275 C 0.75756 0.78533 0.38104 0.0
H2276 H 0.40166 0.53774 0.82348 0.0
H2277 H 0.46141 0.56888 0.78293 0.0
H2278 H 0.49011 0.57273 0.82155 0.0
H2279 H 0.41978 0.57789 0.8799 0.0
H2280 H 0.41082 0.55328 0.9 0.0
H2281 H 0.39544 0.5505 0.86872 0.0
H2282 H 0.40559 0.50446 0.85799 0.0
H2283 H 0.42052 0.50681 0.88947 0.0
H2284 H 0.43674 0.50018 0.86275 0.0
H2285 H 0.51083 0.57909 0.86622 0.0
H2286 H 0.52354 0.57959 0.9117 0.0
H2287 H 0.4504 0.54178 0.92175 0.0
C2288 C 0.42086 0.54486 0.82265 0.0
C2289 C 0.42947 0.55311 0.80047 0.0
C2290 C 0.45466 0.56219 0.79983 0.0
C2291 C 0.47099 0.56466 0.82167 0.0
C2292 C 0.46175 0.55741 0.84365 0.0
C2293 C 0.43738 0.54696 0.84408 0.0
C2294 C 0.43194 0.54088 0.87007 0.0
C2295 C 0.4134 0.55658 0.88026 0.0
C2296 C 0.42319 0.51133 0.87006 0.0
C2297 C 0.45692 0.55021 0.88439 0.0
C2298 C 0.47386 0.55993 0.86895 0.0
C2299 C 0.49785 0.57106 0.87839 0.0
C2300 C 0.50484 0.57149 0.9042 0.0
C2301 C 0.48793 0.56054 0.91994 0.0
C2302 C 0.46369 0.55004 0.90995 0.0
H2303 H 0.78413 0.20127 0.07584 0.0
H2304 H 0.84921 0.25929 0.07269 0.0
H2305 H 0.84293 0.28223 0.11338 0.0
H2306 H 0.74867 0.24625 0.10489 0.0
H2307 H 0.73486 0.22329 0.12453 0.0
H2308 H 0.74379 0.2116 0.09462 0.0
H2309 H 0.77019 0.18315 0.11682 0.0
H2310 H 0.7613 0.19472 0.14678 0.0
H2311 H 0.7931 0.19835 0.14233 0.0
H2312 H 0.83147 0.29752 0.15579 0.0
H2313 H 0.81466 0.3048 0.19645 0.0
H2314 H 0.75592 0.23853 0.17247 0.0
C2315 C 0.79694 0.21895 0.08355 0.0
C2316 C 0.81721 0.2284 0.07076 0.0
C2317 C 0.83355 0.25153 0.08184 0.0
C2318 C 0.83013 0.26478 0.10505 0.0
C2319 C 0.81018 0.25485 0.11719 0.0
C2320 C 0.79377 0.23253 0.10683 0.0
C2321 C 0.77416 0.22578 0.12421 0.0
C2322 C 0.74887 0.2268 0.11129 0.0
C2323 C 0.77473 0.19891 0.13305 0.0
C2324 C 0.78219 0.24775 0.14594 0.0
C2325 C 0.80311 0.2642 0.14147 0.0
C2326 C 0.81489 0.28502 0.15929 0.0
C2327 C 0.8052 0.28906 0.18231 0.0
C2328 C 0.78371 0.2727 0.18731 0.0
C2329 C 0.77196 0.25183 0.16879 0.0
H2330 H 0.09605 0.50115 0.37323 0.0
H2331 H 0.06495 0.54944 0.32343 0.0
H2332 H 0.04319 0.56617 0.35761 0.0
H2333 H 0.04375 0.48195 0.40219 0.0
H2334 H 0.05895 0.48281 0.43334 0.0
H2335 H 0.07475 0.477 0.40619 0.0
H2336 H 0.10929 0.51631 0.42385 0.0
H2337 H 0.0936 0.52213 0.45117 0.0
H2338 H 0.10184 0.54798 0.4322 0.0
H2339 H 0.02123 0.57409 0.39522 0.0
H2340 H 0.00125 0.57336 0.43438 0.0
H2341 H 0.04636 0.52046 0.46058 0.0
C2342 C 0.08515 0.51574 0.36974 0.0
C2343 C 0.08234 0.52407 0.34562 0.0
C2344 C 0.06748 0.54279 0.3417 0.0
C2345 C 0.05505 0.55247 0.36105 0.0
C2346 C 0.05767 0.54338 0.38436 0.0
C2347 C 0.07249 0.52559 0.38892 0.0
C2348 C 0.07074 0.51775 0.41522 0.0
C2349 C 0.06149 0.48812 0.41415 0.0
C2350 C 0.09533 0.52657 0.43158 0.0
C2351 C 0.05205 0.53323 0.42432 0.0
C2352 C 0.04497 0.54809 0.40628 0.0
C2353 C 0.02689 0.56286 0.40964 0.0
C2354 C 0.01559 0.56227 0.4319 0.0
C2355 C 0.02238 0.54706 0.45055 0.0
C2356 C 0.04108 0.53263 0.44681 0.0
H2357 H 0.73714 0.87893 0.62129 0.0
H2358 H 0.75213 0.81522 0.57037 0.0
H2359 H 0.73325 0.78346 0.59698 0.0
H2360 H 0.75586 0.85574 0.67453 0.0
H2361 H 0.73384 0.8664 0.69373 0.0
H2362 H 0.74227 0.8832 0.66754 0.0
H2363 H 0.6968 0.87501 0.6494 0.0
H2364 H 0.68842 0.85777 0.67556 0.0
H2365 H 0.67945 0.84207 0.64371 0.0
H2366 H 0.72067 0.7598 0.63185 0.0
H2367 H 0.71992 0.74668 0.67452 0.0
H2368 H 0.71349 0.8249 0.70437 0.0
C2369 C 0.73554 0.8582 0.61539 0.0
C2370 C 0.74565 0.84933 0.59369 0.0
C2371 C 0.74427 0.82224 0.58689 0.0
C2372 C 0.73335 0.80409 0.60174 0.0
C2373 C 0.72406 0.81337 0.62344 0.0
C2374 C 0.72517 0.83983 0.6304 0.0
C2375 C 0.71806 0.84496 0.65682 0.0
C2376 C 0.73874 0.86365 0.67416 0.0
C2377 C 0.69426 0.85558 0.65633 0.0
C2378 C 0.71431 0.81748 0.66417 0.0
C2379 C 0.71698 0.79945 0.64427 0.0
C2380 C 0.71773 0.7735 0.64734 0.0
C2381 C 0.71712 0.76612 0.67157 0.0
C2382 C 0.71573 0.78459 0.69231 0.0
C2383 C 0.71325 0.81021 0.68845 0.0
H2384 H 0.67243 0.47602 0.55675 0.0
H2385 H 0.63974 0.40286 0.51042 0.0
H2386 H 0.60049 0.41811 0.50586 0.0
H2387 H 0.61901 0.48442 0.58894 0.0
H2388 H 0.62474 0.5194 0.58896 0.0
H2389 H 0.64978 0.50214 0.58985 0.0
H2390 H 0.66389 0.52158 0.55011 0.0
H2391 H 0.63895 0.5389 0.54912 0.0
H2392 H 0.64276 0.51714 0.522 0.0
H2393 H 0.56585 0.44261 0.50379 0.0
H2394 H 0.53821 0.47399 0.50417 0.0
H2395 H 0.59253 0.53126 0.55317 0.0
C2396 C 0.65699 0.46301 0.54583 0.0
C2397 C 0.65924 0.43809 0.53397 0.0
C2398 C 0.63853 0.42191 0.51974 0.0
C2399 C 0.61615 0.43044 0.51708 0.0
C2400 C 0.61468 0.45517 0.52886 0.0
C2401 C 0.63453 0.4712 0.54302 0.0
C2402 C 0.62838 0.4973 0.55296 0.0
C2403 C 0.63061 0.50102 0.5819 0.0
C2404 C 0.64445 0.52007 0.54294 0.0
C2405 C 0.602 0.49368 0.54181 0.0
C2406 C 0.5945 0.46915 0.52809 0.0
C2407 C 0.57141 0.46163 0.51488 0.0
C2408 C 0.55569 0.47962 0.51545 0.0
C2409 C 0.56278 0.50491 0.52938 0.0
C2410 C 0.5863 0.51191 0.54288 0.0
H2411 H 0.18713 0.10328 0.44249 0.0
H2412 H 0.21325 0.13882 0.51915 0.0
H2413 H 0.17319 0.12214 0.53258 0.0
H2414 H 0.1236 0.11495 0.44433 0.0
H2415 H 0.11102 0.08426 0.42515 0.0
H2416 H 0.14088 0.10164 0.42111 0.0
H2417 H 0.15859 0.06029 0.42838 0.0
H2418 H 0.12894 0.04297 0.43295 0.0
H2419 H 0.15412 0.04587 0.45699 0.0
H2420 H 0.13266 0.09637 0.53885 0.0
H2421 H 0.09189 0.06841 0.53631 0.0
H2422 H 0.09156 0.0513 0.45537 0.0
C2423 C 0.18423 0.10813 0.46196 0.0
C2424 C 0.20333 0.12225 0.47977 0.0
C2425 C 0.19887 0.12809 0.50513 0.0
C2426 C 0.1762 0.11863 0.51299 0.0
C2427 C 0.15809 0.10379 0.49517 0.0
C2428 C 0.16163 0.0991 0.47007 0.0
C2429 C 0.13946 0.0818 0.45493 0.0
C2430 C 0.12806 0.09655 0.43522 0.0
C2431 C 0.14566 0.05622 0.4426 0.0
C2432 C 0.12326 0.0768 0.4756 0.0
C2433 C 0.13436 0.08961 0.49868 0.0
C2434 C 0.12357 0.08662 0.52082 0.0
C2435 C 0.10056 0.07051 0.51923 0.0
C2436 C 0.08861 0.05782 0.49564 0.0
C2437 C 0.10018 0.06101 0.47362 0.0
H2438 H 0.21119 0.95547 0.81215 0.0
H2439 H 0.16355 0.9439 0.74199 0.0
H2440 H 0.18539 0.91023 0.72475 0.0
H2441 H 0.2665 0.94595 0.78445 0.0
H2442 H 0.27658 0.92906 0.8097 0.0
H2443 H 0.25826 0.95353 0.8157 0.0
H2444 H 0.22694 0.91969 0.83375 0.0
H2445 H 0.24507 0.89511 0.82764 0.0
H2446 H 0.21359 0.88914 0.81466 0.0
H2447 H 0.20991 0.87443 0.71682 0.0
H2448 H 0.23767 0.84254 0.71777 0.0
H2449 H 0.26934 0.87867 0.79264 0.0
C2450 C 0.20552 0.94621 0.79301 0.0
C2451 C 0.18563 0.95245 0.77846 0.0
C2452 C 0.17877 0.93959 0.75354 0.0
C2453 C 0.191 0.92033 0.74359 0.0
C2454 C 0.21009 0.91418 0.75874 0.0
C2455 C 0.21747 0.92697 0.78282 0.0
C2456 C 0.23801 0.91628 0.79556 0.0
C2457 C 0.26121 0.93747 0.80171 0.0
C2458 C 0.23044 0.90435 0.8193 0.0
C2459 C 0.24094 0.89536 0.77498 0.0
C2460 C 0.22461 0.89427 0.7539 0.0
C2461 C 0.22307 0.87543 0.73305 0.0
C2462 C 0.2388 0.85739 0.73376 0.0
C2463 C 0.25573 0.85844 0.75515 0.0
C2464 C 0.25684 0.87774 0.77587 0.0
H2465 H 0.30657 0.92922 0.01148 0.0
H2466 H 0.26904 0.99466 0.01963 0.0
H2467 H 0.30739 0.02512 0.01644 0.0
H2468 H 0.36191 0.95953 0.0468 0.0
H2469 H 0.38107 0.94509 0.02641 0.0
H2470 H 0.35047 0.92828 0.02812 0.0
H2471 H 0.34089 0.92616 0.97978 0.0
H2472 H 0.37156 0.94281 0.9779 0.0
H2473 H 0.34608 0.95588 0.96536 0.0
H2474 H 0.35067 0.04864 0.01799 0.0
H2475 H 0.39512 0.06333 0.01787 0.0
H2476 H 0.40374 0.98257 0.00427 0.0
C2477 C 0.30642 0.94993 0.01235 0.0
C2478 C 0.28497 0.95969 0.01598 0.0
C2479 C 0.28532 0.98685 0.01673 0.0
C2480 C 0.30701 0.00428 0.01505 0.0
C2481 C 0.328 0.99412 0.012 0.0
C2482 C 0.32779 0.96754 0.01004 0.0
C2483 C 0.35285 0.96174 0.00662 0.0
C2484 C 0.36211 0.94784 0.02828 0.0
C2485 C 0.35284 0.9457 0.98088 0.0
C2486 C 0.36731 0.98926 0.00771 0.0
C2487 C 0.35267 0.00767 0.01108 0.0
C2488 C 0.36224 0.03443 0.01476 0.0
C2489 C 0.38743 0.04259 0.01479 0.0
C2490 C 0.40255 0.02404 0.01064 0.0
C2491 C 0.39236 0.99709 0.00689 0.0
H2492 H 0.82007 0.61906 0.77889 0.0
H2493 H 0.86627 0.64501 0.72239 0.0
H2494 H 0.83947 0.67632 0.71233 0.0
H2495 H 0.76182 0.62512 0.7461 0.0
H2496 H 0.75076 0.63641 0.775 0.0
H2497 H 0.77204 0.61444 0.77529 0.0
H2498 H 0.80113 0.64739 0.80909 0.0
H2499 H 0.78008 0.66953 0.80875 0.0
H2500 H 0.8111 0.68051 0.80278 0.0
H2501 H 0.80907 0.708 0.71187 0.0
H2502 H 0.77787 0.73508 0.71982 0.0
H2503 H 0.75308 0.68786 0.77727 0.0
C2504 C 0.82445 0.63095 0.76404 0.0
C2505 C 0.84533 0.62953 0.7514 0.0
C2506 C 0.85027 0.64554 0.73215 0.0
C2507 C 0.83519 0.66346 0.72643 0.0
C2508 C 0.8152 0.6649 0.73997 0.0
C2509 C 0.80977 0.64879 0.75822 0.0
C2510 C 0.78826 0.65483 0.77127 0.0
C2511 C 0.76696 0.6313 0.76663 0.0
C2512 C 0.79559 0.66359 0.79964 0.0
C2513 C 0.78247 0.6772 0.75783 0.0
C2514 C 0.79806 0.68277 0.73975 0.0
C2515 C 0.79666 0.70352 0.72578 0.0
C2516 C 0.77895 0.71885 0.73048 0.0
C2517 C 0.7631 0.71351 0.74915 0.0
C2518 C 0.7648 0.69225 0.76273 0.0
H2519 H 0.82087 0.55195 0.98841 0.0
H2520 H 0.84202 0.62787 0.03316 0.0
H2521 H 0.87324 0.61142 0.05898 0.0
H2522 H 0.83644 0.51019 0.0391 0.0
H2523 H 0.84859 0.48909 0.0168 0.0
H2524 H 0.82362 0.50421 0.00656 0.0
H2525 H 0.84843 0.52429 0.97255 0.0
H2526 H 0.87321 0.50908 0.98254 0.0
H2527 H 0.87833 0.54398 0.98196 0.0
H2528 H 0.90588 0.58987 0.07478 0.0
H2529 H 0.94076 0.56735 0.07572 0.0
H2530 H 0.90035 0.50577 0.01925 0.0
C2531 C 0.83154 0.56465 0.0043 0.0
C2532 C 0.82904 0.5909 0.00929 0.0
C2533 C 0.84375 0.6076 0.02938 0.0
C2534 C 0.86127 0.59832 0.04425 0.0
C2535 C 0.86387 0.57241 0.03853 0.0
C2536 C 0.84953 0.55584 0.01887 0.0
C2537 C 0.85902 0.53075 0.01344 0.0
C2538 C 0.84083 0.50716 0.01934 0.0
C2539 C 0.86512 0.52683 0.98602 0.0
C2540 C 0.88172 0.53644 0.03208 0.0
C2541 C 0.88364 0.56012 0.04704 0.0
C2542 C 0.90434 0.57103 0.06364 0.0
C2543 C 0.92406 0.55808 0.06406 0.0
C2544 C 0.92304 0.5348 0.04764 0.0
C2545 C 0.90127 0.52324 0.03236 0.0
H2546 H 0.18623 0.09566 0.83375 0.0
H2547 H 0.16422 0.0585 0.75687 0.0
H2548 H 0.18348 0.0986 0.74097 0.0
H2549 H 0.17465 0.15979 0.82119 0.0
H2550 H 0.20008 0.17781 0.84264 0.0
H2551 H 0.18515 0.14592 0.84843 0.0
H2552 H 0.22645 0.13033 0.84985 0.0
H2553 H 0.24145 0.16214 0.84393 0.0
H2554 H 0.24407 0.13334 0.8235 0.0
H2555 H 0.2063 0.14111 0.73296 0.0
H2556 H 0.22796 0.18611 0.73285 0.0
H2557 H 0.23326 0.1988 0.81459 0.0
C2558 C 0.18554 0.09603 0.81359 0.0
C2559 C 0.17382 0.07383 0.79654 0.0
C2560 C 0.173 0.07521 0.7703 0.0
C2561 C 0.18399 0.09788 0.76105 0.0
C2562 C 0.19542 0.11932 0.77824 0.0
C2563 C 0.19598 0.1189 0.80394 0.0
C2564 C 0.2087 0.14531 0.81805 0.0
C2565 C 0.19109 0.15795 0.83349 0.0
C2566 C 0.23153 0.14261 0.83483 0.0
C2567 C 0.21544 0.16038 0.79622 0.0
C2568 C 0.20776 0.14474 0.7735 0.0
C2569 C 0.21229 0.15362 0.75061 0.0
C2570 C 0.2248 0.17926 0.7508 0.0
C2571 C 0.23248 0.19608 0.77371 0.0
C2572 C 0.22763 0.18646 0.79677 0.0
H2573 H 0.35264 0.01145 0.31543 0.0
H2574 H 0.35991 0.02356 0.23766 0.0
H2575 H 0.3349 0.97952 0.22353 0.0
H2576 H 0.35835 0.94414 0.30752 0.0
H2577 H 0.33705 0.93475 0.32961 0.0
H2578 H 0.35441 0.9676 0.33324 0.0
H2579 H 0.31441 0.98582 0.33266 0.0
H2580 H 0.29691 0.95301 0.32885 0.0
H2581 H 0.29111 0.975 0.30645 0.0
H2582 H 0.30822 0.93414 0.2181 0.0
H2583 H 0.28595 0.88966 0.22197 0.0
H2584 H 0.29857 0.90677 0.30335 0.0
C2585 C 0.34884 0.00492 0.29541 0.0
C2586 C 0.35801 0.02099 0.27761 0.0
C2587 C 0.35304 0.01154 0.2516 0.0
C2588 C 0.33876 0.98663 0.24341 0.0
C2589 C 0.32989 0.97133 0.26149 0.0
C2590 C 0.33503 0.98001 0.28696 0.0
C2591 C 0.32449 0.95933 0.30265 0.0
C2592 C 0.34479 0.95096 0.31922 0.0
C2593 C 0.30561 0.96887 0.31859 0.0
C2594 C 0.31253 0.93761 0.28206 0.0
C2595 C 0.31553 0.94499 0.25842 0.0
C2596 C 0.30585 0.92816 0.23652 0.0
C2597 C 0.29316 0.90301 0.23888 0.0
C2598 C 0.29063 0.89489 0.26294 0.0
C2599 C 0.30027 0.91252 0.28473 0.0
H2600 H 0.5084 0.34971 0.61623 0.0
H2601 H 0.46925 0.28887 0.55842 0.0
H2602 H 0.47101 0.32058 0.5276 0.0
H2603 H 0.47802 0.39689 0.60118 0.0
H2604 H 0.50322 0.42423 0.60677 0.0
H2605 H 0.5041 0.39614 0.62304 0.0
H2606 H 0.54479 0.39045 0.60596 0.0
H2607 H 0.54437 0.41898 0.59004 0.0
H2608 H 0.54688 0.38839 0.57253 0.0
H2609 H 0.46976 0.36018 0.50543 0.0
H2610 H 0.46989 0.40425 0.49248 0.0
H2611 H 0.51026 0.43941 0.56421 0.0
C2612 C 0.50143 0.34283 0.59676 0.0
C2613 C 0.48909 0.31673 0.58958 0.0
C2614 C 0.47912 0.30869 0.56418 0.0
C2615 C 0.47993 0.3266 0.54655 0.0
C2616 C 0.49092 0.35256 0.55452 0.0
C2617 C 0.502 0.3606 0.57888 0.0
C2618 C 0.51035 0.39009 0.58326 0.0
C2619 C 0.49819 0.40255 0.60483 0.0
C2620 C 0.53826 0.3974 0.58824 0.0
C2621 C 0.50128 0.39736 0.55803 0.0
C2622 C 0.4903 0.37545 0.54161 0.0
C2623 C 0.47883 0.37746 0.51792 0.0
C2624 C 0.47881 0.40252 0.51076 0.0
C2625 C 0.49017 0.42514 0.52725 0.0
C2626 C 0.50166 0.42241 0.55107 0.0
H2627 H 0.43366 0.75861 0.33108 0.0
H2628 H 0.4713 0.82367 0.2972 0.0
H2629 H 0.43209 0.82956 0.27632 0.0
H2630 H 0.38956 0.73209 0.27741 0.0
H2631 H 0.365 0.72288 0.29606 0.0
H2632 H 0.396 0.72382 0.30869 0.0
H2633 H 0.39082 0.75577 0.34735 0.0
H2634 H 0.35978 0.7546 0.33489 0.0
H2635 H 0.38038 0.78564 0.34243 0.0
H2636 H 0.3889 0.82939 0.26021 0.0
H2637 H 0.34431 0.82308 0.2499 0.0
H2638 H 0.33465 0.75684 0.29242 0.0
C2639 C 0.43362 0.77418 0.31938 0.0
C2640 C 0.45552 0.79075 0.31584 0.0
C2641 C 0.45475 0.81074 0.30019 0.0
C2642 C 0.43257 0.81422 0.28821 0.0
C2643 C 0.41134 0.7974 0.29186 0.0
C2644 C 0.41164 0.77775 0.30703 0.0
C2645 C 0.38619 0.76238 0.30776 0.0
C2646 C 0.38407 0.73359 0.29682 0.0
C2647 C 0.37887 0.76476 0.33471 0.0
C2648 C 0.37153 0.77656 0.29075 0.0
C2649 C 0.38643 0.79675 0.28186 0.0
C2650 C 0.37706 0.81347 0.26683 0.0
C2651 C 0.35175 0.80973 0.26105 0.0
C2652 C 0.33614 0.78924 0.27002 0.0
C2653 C 0.34622 0.77224 0.28477 0.0
H2654 H 0.98564 0.67631 0.13514 0.0
H2655 H 0.94505 0.70611 0.07592 0.0
H2656 H 0.95329 0.67144 0.04479 0.0
H2657 H 0.03182 0.65886 0.10072 0.0
H2658 H 0.03322 0.62886 0.11384 0.0
H2659 H 0.02317 0.65518 0.13185 0.0
H2660 H 0.98308 0.62399 0.1369 0.0
H2661 H 0.99288 0.59749 0.1188 0.0
H2662 H 0.9642 0.60639 0.10928 0.0
H2663 H 0.9704 0.63742 0.01933 0.0
H2664 H 0.99119 0.60265 1.00194 0.0
H2665 H 0.0168 0.59119 0.07761 0.0
C2666 C 0.97827 0.67531 0.11566 0.0
C2667 C 0.96476 0.69399 0.10794 0.0
C2668 C 0.95532 0.69195 0.08231 0.0
C2669 C 0.95996 0.67236 0.06445 0.0
C2670 C 0.97357 0.65447 0.07257 0.0
C2671 C 0.98216 0.65535 0.09763 0.0
C2672 C 0.99626 0.6336 0.10126 0.0
C2673 C 0.02268 0.6448 0.11258 0.0
C2674 C 0.98333 0.61421 0.11753 0.0
C2675 C 0.9951 0.62109 0.07422 0.0
C2676 C 0.982 0.63355 0.05797 0.0
C2677 C 0.98021 0.62711 0.03189 0.0
C2678 C 0.99213 0.60748 0.02218 0.0
C2679 C 0.00521 0.59417 0.03849 0.0
C2680 C 0.00643 0.60079 0.06483 0.0
H2681 H 0.10186 0.30149 0.82345 0.0
H2682 H 0.07866 0.21722 0.81888 0.0
H2683 H 0.1161 0.21077 0.80104 0.0
H2684 H 0.12845 0.30152 0.76597 0.0
H2685 H 0.15415 0.32737 0.77722 0.0
H2686 H 0.12616 0.3261 0.79143 0.0
H2687 H 0.14949 0.3263 0.83509 0.0
H2688 H 0.17765 0.32727 0.82117 0.0
H2689 H 0.16744 0.30162 0.83982 0.0
H2690 H 0.15295 0.21237 0.77938 0.0
H2691 H 0.18977 0.22239 0.75783 0.0
H2692 H 0.19277 0.30542 0.77825 0.0
C2693 C 0.1049 0.28174 0.81908 0.0
C2694 C 0.08709 0.25988 0.82258 0.0
C2695 C 0.09177 0.23435 0.81637 0.0
C2696 C 0.1131 0.2304 0.80621 0.0
C2697 C 0.12995 0.25215 0.80248 0.0
C2698 C 0.12641 0.27736 0.80894 0.0
C2699 C 0.14752 0.29709 0.80219 0.0
C2700 C 0.13852 0.31402 0.78307 0.0
C2701 C 0.16136 0.31408 0.82599 0.0
C2702 C 0.163 0.27892 0.79041 0.0
C2703 C 0.15231 0.25308 0.79079 0.0
C2704 C 0.16179 0.2325 0.77939 0.0
C2705 C 0.18269 0.23839 0.76712 0.0
C2706 C 0.1943 0.2646 0.76672 0.0
C2707 C 0.1845 0.28518 0.77878 0.0
H2708 H 0.52215 0.70571 0.95116 0.0
H2709 H 0.46749 0.73349 0.9934 0.0
H2710 H 0.46932 0.69888 0.0211 0.0
H2711 H 0.4978 0.63831 0.95109 0.0
H2712 H 0.52702 0.62856 0.95326 0.0
H2713 H 0.52311 0.657 0.93851 0.0
H2714 H 0.55878 0.6852 0.96924 0.0
H2715 H 0.56275 0.65676 0.98402 0.0
H2716 H 0.55781 0.68568 0.00273 0.0
H2717 H 0.47681 0.66089 0.04356 0.0
H2718 H 0.48743 0.62042 0.05753 0.0
H2719 H 0.53472 0.61593 0.99825 0.0
C2720 C 0.51096 0.70479 0.96659 0.0
C2721 C 0.495 0.72237 0.97059 0.0
C2722 C 0.47997 0.7202 0.99033 0.0
C2723 C 0.48093 0.7007 0.0061 0.0
C2724 C 0.49667 0.68339 1.00146 0.0
C2725 C 0.51123 0.68508 0.98202 0.0
C2726 C 0.52511 0.66289 0.97974 0.0
C2727 C 0.51781 0.64568 0.95414 0.0
C2728 C 0.55275 0.67326 0.98421 0.0
C2729 C 0.51619 0.64851 1.00102 0.0
C2730 C 0.5 0.66077 0.01351 0.0
C2731 C 0.48944 0.6511 0.03393 0.0
C2732 C 0.49557 0.62821 0.04173 0.0
C2733 C 0.51177 0.61525 0.02885 0.0
C2734 C 0.52217 0.6255 0.00829 0.0
H2735 H 0.08281 0.8549 0.69343 0.0
H2736 H 0.06664 0.79838 0.6258 0.0
H2737 H 0.1023 0.77981 0.63854 0.0
H2738 H 0.15065 0.86396 0.69454 0.0
H2739 H 0.15493 0.86719 0.72845 0.0
H2740 H 0.12956 0.87799 0.71268 0.0
H2741 H 0.10026 0.84826 0.73686 0.0
H2742 H 0.12551 0.83694 0.75215 0.0
H2743 H 0.1006 0.81372 0.73438 0.0
H2744 H 0.13535 0.76318 0.66107 0.0
H2745 H 0.16996 0.75482 0.68854 0.0
H2746 H 0.16673 0.82348 0.7403 0.0
C2747 C 0.08716 0.83909 0.68099 0.0
C2748 C 0.07184 0.82796 0.65877 0.0
C2749 C 0.07808 0.80723 0.64296 0.0
C2750 C 0.09824 0.79644 0.65005 0.0
C2751 C 0.11223 0.80696 0.67268 0.0
C2752 C 0.10751 0.82831 0.68758 0.0
C2753 C 0.12532 0.83543 0.71123 0.0
C2754 C 0.14104 0.86277 0.71173 0.0
C2755 C 0.11212 0.83346 0.73506 0.0
C2756 C 0.14023 0.81424 0.70755 0.0
C2757 C 0.13219 0.79791 0.6853 0.0
C2758 C 0.14217 0.77608 0.67833 0.0
C2759 C 0.16159 0.77133 0.69415 0.0
C2760 C 0.17085 0.78856 0.71637 0.0
C2761 C 0.15989 0.81007 0.72333 0.0
H2762 H 0.96764 0.33794 0.46052 0.0
H2763 H 0.04367 0.33065 0.46402 0.0
H2764 H 0.0557 0.37624 0.48459 0.0
H2765 H 0.97636 0.40151 0.44419 0.0
H2766 H 0.95355 0.41196 0.46235 0.0
H2767 H 0.95072 0.37796 0.4505 0.0
H2768 H 0.94821 0.36563 0.49576 0.0
H2769 H 0.95101 0.39966 0.50775 0.0
H2770 H 0.97204 0.38083 0.52039 0.0
H2771 H 0.05962 0.42318 0.502 0.0
H2772 H 0.05543 0.46876 0.51376 0.0
H2773 H 0.97677 0.44573 0.4982 0.0
C2774 C 0.98681 0.34572 0.46603 0.0
C2775 C 0.00471 0.33065 0.46081 0.0
C2776 C 0.02963 0.34179 0.46788 0.0
C2777 C 0.03663 0.36763 0.47966 0.0
C2778 C 0.01852 0.38202 0.48422 0.0
C2779 C 0.99412 0.3715 0.47762 0.0
C2780 C 0.97839 0.3917 0.4829 0.0
C2781 C 0.96391 0.39604 0.45853 0.0
C2782 C 0.96141 0.38399 0.50289 0.0
C2783 C 0.99781 0.4154 0.49304 0.0
C2784 C 0.0208 0.4093 0.49393 0.0
C2785 C 0.04171 0.42816 0.5016 0.0
C2786 C 0.0391 0.45404 0.50821 0.0
C2787 C 0.01575 0.46089 0.50693 0.0
C2788 C 0.99485 0.44115 0.49959 0.0
H2789 H 0.43105 0.29596 0.15946 0.0
H2790 H 0.48966 0.31348 0.22054 0.0
H2791 H 0.45951 0.30661 0.25121 0.0
H2792 H 0.39261 0.32981 0.18722 0.0
H2793 H 0.36475 0.30722 0.17542 0.0
H2794 H 0.3908 0.30852 0.15812 0.0
H2795 H 0.38946 0.25893 0.15943 0.0
H2796 H 0.36304 0.25738 0.17639 0.0
H2797 H 0.3895 0.2462 0.18929 0.0
H2798 H 0.42263 0.30635 0.2752 0.0
H2799 H 0.38217 0.30763 0.29006 0.0
H2800 H 0.34836 0.28852 0.213 0.0
C2801 C 0.43763 0.29755 0.17919 0.0
C2802 C 0.46266 0.30528 0.18763 0.0
C2803 C 0.47054 0.30733 0.21366 0.0
C2804 C 0.45355 0.30355 0.23122 0.0
C2805 C 0.42885 0.29721 0.22232 0.0
C2806 C 0.42097 0.29359 0.19683 0.0
C2807 C 0.3935 0.28889 0.19208 0.0
C2808 C 0.38494 0.30986 0.17735 0.0
C2809 C 0.38328 0.2612 0.1785 0.0
C2810 C 0.38717 0.29162 0.21884 0.0
C2811 C 0.40771 0.29628 0.23611 0.0
C2812 C 0.40638 0.30204 0.26189 0.0
C2813 C 0.38345 0.30295 0.27015 0.0
C2814 C 0.36234 0.29798 0.25263 0.0
C2815 C 0.36425 0.29196 0.22679 0.0
H2816 H 0.60948 0.51583 0.35753 0.0
H2817 H 0.54969 0.47679 0.30197 0.0
H2818 H 0.52086 0.47996 0.33388 0.0
H2819 H 0.5897 0.48666 0.40921 0.0
H2820 H 0.59889 0.51557 0.43187 0.0
H2821 H 0.61463 0.51188 0.40432 0.0
H2822 H 0.60568 0.55603 0.39212 0.0
H2823 H 0.59022 0.56006 0.41987 0.0
H2824 H 0.57474 0.56125 0.38929 0.0
H2825 H 0.49951 0.48195 0.37374 0.0
H2826 H 0.48648 0.48958 0.41655 0.0
H2827 H 0.55948 0.53084 0.44455 0.0
C2828 C 0.59027 0.50844 0.35196 0.0
C2829 C 0.58181 0.49605 0.3273 0.0
C2830 C 0.55653 0.48659 0.32071 0.0
C2831 C 0.54003 0.48812 0.33876 0.0
C2832 C 0.54905 0.49973 0.36315 0.0
C2833 C 0.5735 0.51037 0.36957 0.0
C2834 C 0.57855 0.52183 0.39705 0.0
C2835 C 0.5965 0.50816 0.41145 0.0
C2836 C 0.58784 0.55156 0.39973 0.0
C2837 C 0.55328 0.51537 0.40524 0.0
C2838 C 0.53651 0.50233 0.38554 0.0
C2839 C 0.51237 0.49267 0.38917 0.0
C2840 C 0.50515 0.49689 0.41347 0.0
C2841 C 0.52192 0.51106 0.43353 0.0
C2842 C 0.54622 0.52036 0.4293 0.0
H2843 H 0.27269 0.86036 0.10353 0.0
H2844 H 0.19548 0.83939 0.07784 0.0
H2845 H 0.1889 0.81596 0.11512 0.0
H2846 H 0.27962 0.80125 0.12871 0.0
H2847 H 0.30055 0.81759 0.15544 0.0
H2848 H 0.29904 0.83216 0.12664 0.0
H2849 H 0.29061 0.87448 0.15113 0.0
H2850 H 0.29209 0.85993 0.17997 0.0
H2851 H 0.26545 0.87247 0.16994 0.0
H2852 H 0.19132 0.79307 0.15469 0.0
H2853 H 0.20209 0.77422 0.19347 0.0
H2854 H 0.27725 0.81308 0.19522 0.0
C2855 C 0.25438 0.85064 0.10555 0.0
C2856 C 0.23461 0.85142 0.08739 0.0
C2857 C 0.21092 0.83894 0.09126 0.0
C2858 C 0.20704 0.82562 0.11244 0.0
C2859 C 0.22694 0.82535 0.12995 0.0
C2860 C 0.25013 0.83778 0.12682 0.0
C2861 C 0.26838 0.83519 0.14864 0.0
C2862 C 0.28805 0.82068 0.13929 0.0
C2863 C 0.2798 0.86212 0.16328 0.0
C2864 C 0.25199 0.81888 0.16438 0.0
C2865 C 0.22815 0.81333 0.15321 0.0
C2866 C 0.20989 0.79752 0.1636 0.0
C2867 C 0.21619 0.78686 0.18564 0.0
C2868 C 0.24045 0.79231 0.19745 0.0
C2869 C 0.25849 0.80889 0.18683 0.0
H2870 H 0.97197 0.57311 0.82793 0.0
H2871 H 0.8948 0.56058 0.83629 0.0
H2872 H 0.90319 0.55173 0.87971 0.0
H2873 H 0.98467 0.52098 0.86486 0.0
H2874 H 0.01409 0.53895 0.87884 0.0
H2875 H 0.00218 0.5443 0.84798 0.0
H2876 H 0.00753 0.59382 0.8633 0.0
H2877 H 0.01926 0.58858 0.89425 0.0
H2878 H 0.99341 0.60438 0.89047 0.0
H2879 H 0.91943 0.54639 0.92255 0.0
H2880 H 0.94243 0.54069 0.9619 0.0
H2881 H 0.00966 0.55408 0.92676 0.0
C2882 C 0.95689 0.56829 0.83891 0.0
C2883 C 0.93273 0.56851 0.82895 0.0
C2884 C 0.91348 0.56189 0.84378 0.0
C2885 C 0.91805 0.55644 0.86845 0.0
C2886 C 0.94203 0.55729 0.87805 0.0
C2887 C 0.96117 0.56264 0.86375 0.0
C2888 C 0.98519 0.56199 0.87894 0.0
C2889 C 0.99724 0.54026 0.86694 0.0
C2890 C 0.00235 0.58879 0.88191 0.0
C2891 C 0.97644 0.5557 0.90396 0.0
C2892 C 0.95146 0.55322 0.90291 0.0
C2893 C 0.93899 0.54806 0.9236 0.0
C2894 C 0.95231 0.54496 0.94596 0.0
C2895 C 0.97792 0.54683 0.94754 0.0
C2896 C 0.99011 0.55242 0.92619 0.0
H2897 H 0.27611 0.17738 0.55824 0.0
H2898 H 0.35493 0.20102 0.56746 0.0
H2899 H 0.35281 0.2265 0.60842 0.0
H2900 H 0.26291 0.23842 0.5855 0.0
H2901 H 0.23767 0.22305 0.60056 0.0
H2902 H 0.24538 0.20696 0.57184 0.0
H2903 H 0.24933 0.16598 0.59374 0.0
H2904 H 0.2415 0.18185 0.62248 0.0
H2905 H 0.26944 0.16945 0.62249 0.0
H2906 H 0.34207 0.24874 0.64869 0.0
H2907 H 0.32355 0.26521 0.68573 0.0
H2908 H 0.25186 0.22712 0.64985 0.0
C2909 C 0.29299 0.1879 0.56879 0.0
C2910 C 0.31571 0.18718 0.55957 0.0
C2911 C 0.3373 0.20125 0.57409 0.0
C2912 C 0.33628 0.21583 0.59735 0.0
C2913 C 0.31355 0.21617 0.60576 0.0
C2914 C 0.29231 0.20253 0.59194 0.0
C2915 C 0.27021 0.2057 0.60533 0.0
C2916 C 0.25303 0.21935 0.58988 0.0
C2917 C 0.25685 0.17917 0.61137 0.0
C2918 C 0.28234 0.22314 0.62899 0.0
C2919 C 0.30735 0.22904 0.62883 0.0
C2920 C 0.32252 0.24436 0.64894 0.0
C2921 C 0.31184 0.25363 0.66985 0.0
C2922 C 0.28632 0.24746 0.67048 0.0
C2923 C 0.2714 0.23228 0.64969 0.0
H2924 H 0.62431 0.45293 0.16788 0.0
H2925 H 0.60338 0.48954 0.23688 0.0
H2926 H 0.57808 0.51389 0.21167 0.0
H2927 H 0.62926 0.5091 0.13484 0.0
H2928 H 0.61767 0.48998 0.10487 0.0
H2929 H 0.63386 0.47591 0.12864 0.0
H2930 H 0.59707 0.43753 0.12615 0.0
H2931 H 0.58077 0.45158 0.10248 0.0
H2932 H 0.56739 0.44451 0.13084 0.0
H2933 H 0.55416 0.5333 0.17777 0.0
H2934 H 0.5352 0.5467 0.13894 0.0
H2935 H 0.574 0.49783 0.09369 0.0
C2936 C 0.61447 0.46607 0.17783 0.0
C2937 C 0.61566 0.46925 0.20434 0.0
C2938 C 0.6026 0.48676 0.21655 0.0
C2939 C 0.58822 0.50063 0.20239 0.0
C2940 C 0.58733 0.4968 0.17617 0.0
C2941 C 0.6003 0.48002 0.16412 0.0
C2942 C 0.59665 0.47921 0.13587 0.0
C2943 C 0.6208 0.48916 0.12546 0.0
C2944 C 0.58475 0.45157 0.1231 0.0
C2945 C 0.57945 0.49808 0.13373 0.0
C2946 C 0.57413 0.50804 0.15706 0.0
C2947 C 0.55827 0.52564 0.15945 0.0
C2948 C 0.54761 0.53313 0.13737 0.0
C2949 C 0.55298 0.523 0.11345 0.0
C2950 C 0.56927 0.50554 0.11174 0.0
H2951 H 0.27473 0.85452 0.95439 0.0
H2952 H 0.19938 0.86429 0.94945 0.0
H2953 H 0.19436 0.84727 0.90405 0.0
H2954 H 0.28706 0.87546 0.89517 0.0
H2955 H 0.30671 0.85256 0.88814 0.0
H2956 H 0.30393 0.864 0.9204 0.0
H2957 H 0.29137 0.81617 0.92948 0.0
H2958 H 0.2942 0.80458 0.89726 0.0
H2959 H 0.26601 0.79486 0.91038 0.0
H2960 H 0.19812 0.83022 0.85839 0.0
H2961 H 0.2099 0.81493 0.81708 0.0
H2962 H 0.2833 0.81714 0.85145 0.0
C2963 C 0.25699 0.85278 0.94396 0.0
C2964 C 0.23734 0.86062 0.95586 0.0
C2965 C 0.21468 0.85831 0.94108 0.0
C2966 C 0.21168 0.84868 0.91518 0.0
C2967 C 0.23153 0.84148 0.9041 0.0
C2968 C 0.25376 0.84342 0.91809 0.0
C2969 C 0.27249 0.83527 0.90157 0.0
C2970 C 0.2938 0.85819 0.90131 0.0
C2971 C 0.28154 0.81129 0.91019 0.0
C2972 C 0.25739 0.82839 0.87602 0.0
C2973 C 0.23379 0.83204 0.87792 0.0
C2974 C 0.21652 0.82721 0.85682 0.0
C2975 C 0.22346 0.81844 0.83332 0.0
C2976 C 0.24757 0.81455 0.83073 0.0
C2977 C 0.2647 0.81971 0.85258 0.0
H2978 H 0.93082 0.57738 0.67196 0.0
H2979 H 0.94848 0.5107 0.70618 0.0
H2980 H 0.96902 0.49819 0.6696 0.0
H2981 H 0.91999 0.54351 0.60634 0.0
H2982 H 0.93323 0.57223 0.59308 0.0
H2983 H 0.91849 0.57558 0.62141 0.0
H2984 H 0.95779 0.60556 0.64433 0.0
H2985 H 0.97254 0.60219 0.61606 0.0
H2986 H 0.98615 0.59392 0.64503 0.0
H2987 H 0.99107 0.49475 0.6318 0.0
H2988 H 0.01116 0.49922 0.59299 0.0
H2989 H 0.97791 0.56603 0.5806 0.0
C2990 C 0.93874 0.55998 0.67157 0.0
C2991 C 0.93798 0.54511 0.69217 0.0
C2992 C 0.9487 0.52251 0.69084 0.0
C2993 C 0.96047 0.51516 0.67006 0.0
C2994 C 0.96124 0.53034 0.65035 0.0
C2995 C 0.95044 0.55209 0.65065 0.0
C2996 C 0.95445 0.56506 0.62692 0.0
C2997 C 0.93009 0.56402 0.611 0.0
C2998 C 0.96858 0.59336 0.63349 0.0
C2999 C 0.96969 0.54757 0.61377 0.0
C3000 C 0.97334 0.52768 0.62772 0.0
C3001 C 0.98802 0.50997 0.62048 0.0
C3002 C 0.99941 0.51267 0.59846 0.0
C3003 C 0.99586 0.5327 0.5837 0.0
C3004 C 0.98055 0.5502 0.59131 0.0
H3005 H 0.33477 0.20079 0.42113 0.0
H3006 H 0.28202 0.22185 0.46993 0.0
H3007 H 0.27515 0.25696 0.44456 0.0
H3008 H 0.35823 0.26816 0.40421 0.0
H3009 H 0.35985 0.25543 0.37198 0.0
H3010 H 0.36474 0.23587 0.39689 0.0
H3011 H 0.33064 0.19846 0.37416 0.0
H3012 H 0.32567 0.21788 0.34931 0.0
H3013 H 0.3007 0.20517 0.36614 0.0
H3014 H 0.26974 0.28504 0.41157 0.0
H3015 H 0.2636 0.30225 0.37117 0.0
H3016 H 0.31852 0.26208 0.34204 0.0
C3017 C 0.32243 0.21345 0.42686 0.0
C3018 C 0.30917 0.20908 0.44759 0.0
C3019 C 0.29243 0.22518 0.45415 0.0
C3020 C 0.28857 0.24524 0.43999 0.0
C3021 C 0.30147 0.24874 0.41925 0.0
C3022 C 0.31798 0.23323 0.41255 0.0
C3023 C 0.32662 0.23848 0.38731 0.0
C3024 C 0.35399 0.25019 0.39029 0.0
C3025 C 0.32052 0.21352 0.36811 0.0
C3026 C 0.3116 0.25851 0.38044 0.0
C3027 C 0.29772 0.26461 0.39945 0.0
C3028 C 0.2808 0.28081 0.39671 0.0
C3029 C 0.27738 0.2904 0.37364 0.0
C3030 C 0.29066 0.28356 0.35354 0.0
C3031 C 0.30851 0.26807 0.35727 0.0
H3032 H 0.35611 0.61044 0.52791 0.0
H3033 H 0.38803 0.6685 0.48259 0.0
H3034 H 0.42316 0.64635 0.47909 0.0
H3035 H 0.41504 0.6017 0.56107 0.0
H3036 H 0.40432 0.56714 0.561 0.0
H3037 H 0.38317 0.58926 0.56241 0.0
H3038 H 0.35713 0.5621 0.52293 0.0
H3039 H 0.37827 0.54006 0.52123 0.0
H3040 H 0.37113 0.55634 0.49443 0.0
H3041 H 0.45224 0.61442 0.47593 0.0
H3042 H 0.47459 0.57782 0.47659 0.0
H3043 H 0.42469 0.54121 0.52509 0.0
C3044 C 0.37077 0.61893 0.51778 0.0
C3045 C 0.36923 0.64137 0.50559 0.0
C3046 C 0.38876 0.65153 0.49227 0.0
C3047 C 0.4088 0.63898 0.49009 0.0
C3048 C 0.4093 0.6164 0.5016 0.0
C3049 C 0.391 0.60673 0.51559 0.0
C3050 C 0.39539 0.58153 0.5252 0.0
C3051 C 0.39974 0.58513 0.55413 0.0
C3052 C 0.37423 0.55867 0.51535 0.0
C3053 C 0.4185 0.57799 0.51366 0.0
C3054 C 0.42634 0.59842 0.50027 0.0
C3055 C 0.44659 0.59874 0.4869 0.0
C3056 C 0.45924 0.57789 0.48743 0.0
C3057 C 0.45172 0.55695 0.50128 0.0
C3058 C 0.43101 0.55707 0.51449 0.0
H3059 H 0.85056 0.93018 0.55188 0.0
H3060 H 0.80853 0.95149 0.48828 0.0
H3061 H 0.84602 0.96355 0.46831 0.0
H3062 H 0.89894 0.98279 0.55579 0.0
H3063 H 0.92262 0.96516 0.5642 0.0
H3064 H 0.89225 0.9544 0.57199 0.0
H3065 H 0.89128 0.90842 0.54809 0.0
H3066 H 0.92172 0.91909 0.54021 0.0
H3067 H 0.8974 0.90537 0.51564 0.0
H3068 H 0.88763 0.97721 0.45697 0.0
H3069 H 0.93137 0.99332 0.45565 0.0
H3070 H 0.94726 0.96426 0.52683 0.0
C3071 C 0.84927 0.93683 0.5335 0.0
C3072 C 0.82669 0.93984 0.52157 0.0
C3073 C 0.82568 0.94911 0.49778 0.0
C3074 C 0.84684 0.95584 0.48618 0.0
C3075 C 0.8689 0.95321 0.49861 0.0
C3076 C 0.87036 0.94394 0.52173 0.0
C3077 C 0.89667 0.94542 0.53202 0.0
C3078 C 0.90298 0.963 0.5575 0.0
C3079 C 0.90208 0.91794 0.53411 0.0
C3080 C 0.90966 0.95781 0.51149 0.0
C3081 C 0.89325 0.96165 0.4922 0.0
C3082 C 0.90071 0.97405 0.4718 0.0
C3083 C 0.92563 0.9832 0.47127 0.0
C3084 C 0.94279 0.98013 0.49115 0.0
C3085 C 0.93464 0.96678 0.51125 0.0
H3086 H 0.81591 0.11552 0.22315 0.0
H3087 H 0.79243 0.09138 0.29328 0.0
H3088 H 0.76807 0.12594 0.2964 0.0
H3089 H 0.82377 0.18236 0.24138 0.0
H3090 H 0.81253 0.19095 0.21155 0.0
H3091 H 0.82562 0.16208 0.21253 0.0
H3092 H 0.78617 0.13379 0.18811 0.0
H3093 H 0.77308 0.1627 0.18688 0.0
H3094 H 0.75731 0.13506 0.19999 0.0
H3095 H 0.75187 0.16672 0.296 0.0
H3096 H 0.74111 0.20947 0.28952 0.0
H3097 H 0.77236 0.20692 0.21861 0.0
C3098 C 0.80499 0.11698 0.23869 0.0
C3099 C 0.80607 0.10063 0.25795 0.0
C3100 C 0.79197 0.10362 0.27831 0.0
C3101 C 0.77801 0.1232 0.28026 0.0
C3102 C 0.77806 0.13961 0.26157 0.0
C3103 C 0.79081 0.13654 0.24092 0.0
C3104 C 0.78892 0.15809 0.22446 0.0
C3105 C 0.81421 0.17432 0.22237 0.0
C3106 C 0.77557 0.14672 0.19831 0.0
C3107 C 0.77374 0.17404 0.2395 0.0
C3108 C 0.76772 0.16295 0.26086 0.0
C3109 C 0.75585 0.17524 0.27902 0.0
C3110 C 0.74988 0.19949 0.27527 0.0
C3111 C 0.75544 0.21093 0.25337 0.0
C3112 C 0.76732 0.19802 0.23514 0.0
H3113 H 0.70143 0.13103 0.96617 0.0
H3114 H 0.74054 0.1237 0.03769 0.0
H3115 H 0.70245 0.10155 0.05153 0.0
H3116 H 0.64776 0.14527 0.9919 0.0
H3117 H 0.62708 0.1272 0.96573 0.0
H3118 H 0.65767 0.14155 0.96092 0.0
H3119 H 0.66475 0.0961 0.94189 0.0
H3120 H 0.63405 0.08199 0.94649 0.0
H3121 H 0.65914 0.06881 0.95973 0.0
H3122 H 0.66041 0.08018 0.05784 0.0
H3123 H 0.61617 0.0643 0.0575 0.0
H3124 H 0.60386 0.08655 0.98265 0.0
C3125 C 0.70197 0.1247 0.9847 0.0
C3126 C 0.72401 0.12903 1.00078 0.0
C3127 C 0.7239 0.12066 0.02501 0.0
C3128 C 0.70237 0.10792 0.03303 0.0
C3129 C 0.68102 0.10381 0.0167 0.0
C3130 C 0.68054 0.11216 0.99316 0.0
C3131 C 0.65489 0.10624 0.97977 0.0
C3132 C 0.64635 0.13158 0.97427 0.0
C3133 C 0.65312 0.08714 0.95554 0.0
C3134 C 0.64106 0.09347 0.99957 0.0
C3135 C 0.65655 0.09197 0.0206 0.0
C3136 C 0.64807 0.08122 0.0415 0.0
C3137 C 0.62297 0.07219 0.04112 0.0
C3138 C 0.60673 0.07427 0.0201 0.0
C3139 C 0.61594 0.08473 0.99896 0.0
H3140 H 0.18043 0.43192 0.33193 0.0
H3141 H 0.17029 0.45089 0.25553 0.0
H3142 H 0.19886 0.42255 0.24253 0.0
H3143 H 0.24404 0.4289 0.33408 0.0
H3144 H 0.24168 0.40123 0.35155 0.0
H3145 H 0.22082 0.42346 0.35508 0.0
H3146 H 0.18452 0.38479 0.34317 0.0
H3147 H 0.20511 0.3623 0.33919 0.0
H3148 H 0.18249 0.36408 0.31371 0.0
H3149 H 0.23031 0.39445 0.23831 0.0
H3150 H 0.2598 0.36493 0.24219 0.0
H3151 H 0.247 0.36048 0.32015 0.0
C3152 C 0.18428 0.43013 0.31249 0.0
C3153 C 0.17321 0.44373 0.29476 0.0
C3154 C 0.17847 0.44061 0.26942 0.0
C3155 C 0.19475 0.42463 0.26187 0.0
C3156 C 0.20538 0.41155 0.27978 0.0
C3157 C 0.20016 0.41382 0.30448 0.0
C3158 C 0.21347 0.39686 0.31971 0.0
C3159 C 0.23105 0.41362 0.34139 0.0
C3160 C 0.19532 0.37574 0.32953 0.0
C3161 C 0.22721 0.38497 0.29977 0.0
C3162 C 0.22247 0.39401 0.27695 0.0
C3163 C 0.23395 0.38701 0.25599 0.0
C3164 C 0.25073 0.37034 0.25839 0.0
C3165 C 0.25547 0.36038 0.28139 0.0
C3166 C 0.24341 0.36762 0.30228 0.0
H3167 H 0.17629 0.44246 0.98966 0.0
H3168 H 0.21707 0.49485 0.05336 0.0
H3169 H 0.19076 0.52704 0.04662 0.0
H3170 H 0.16162 0.49197 0.95062 0.0
H3171 H 0.13099 0.4746 0.94048 0.0
H3172 H 0.15473 0.45675 0.94808 0.0
H3173 H 0.12952 0.43433 0.98063 0.0
H3174 H 0.10557 0.45161 0.97263 0.0
H3175 H 0.11857 0.4543 0.00492 0.0
H3176 H 0.16007 0.55293 0.03395 0.0
H3177 H 0.12137 0.56691 0.02239 0.0
H3178 H 0.09829 0.49661 0.96891 0.0
C3179 C 0.1796 0.46077 1.00205 0.0
C3180 C 0.19856 0.46636 0.02197 0.0
C3181 C 0.20239 0.49026 0.03813 0.0
C3182 C 0.18782 0.50878 0.03421 0.0
C3183 C 0.16936 0.5029 0.01426 0.0
C3184 C 0.16476 0.47923 0.99884 0.0
C3185 C 0.14186 0.47654 0.98086 0.0
C3186 C 0.14766 0.47487 0.95338 0.0
C3187 C 0.12275 0.4528 0.98503 0.0
C3188 C 0.13409 0.50213 0.98903 0.0
C3189 C 0.15069 0.51739 0.00773 0.0
C3190 C 0.14697 0.54129 0.01922 0.0
C3191 C 0.12502 0.54915 0.01242 0.0
C3192 C 0.107 0.53281 0.99477 0.0
C3193 C 0.11199 0.50959 0.9822 0.0
H3194 H 0.83867 0.95756 0.23199 0.0
H3195 H 0.79114 0.99017 0.28082 0.0
H3196 H 0.76823 0.94596 0.283 0.0
H3197 H 0.79121 0.90174 0.19829 0.0
H3198 H 0.81216 0.87938 0.1974 0.0
H3199 H 0.82313 0.9138 0.19675 0.0
H3200 H 0.85408 0.91463 0.23564 0.0
H3201 H 0.84306 0.88032 0.23657 0.0
H3202 H 0.84328 0.90355 0.26397 0.0
H3203 H 0.75348 0.89914 0.2844 0.0
H3204 H 0.74584 0.85128 0.28301 0.0
H3205 H 0.80193 0.84675 0.2329 0.0
C3206 C 0.82294 0.95533 0.24242 0.0
C3207 C 0.8165 0.97735 0.25604 0.0
C3208 C 0.79631 0.97363 0.27016 0.0
C3209 C 0.78316 0.94857 0.27151 0.0
C3210 C 0.79036 0.92722 0.25864 0.0
C3211 C 0.80959 0.93018 0.24414 0.0
C3212 C 0.81435 0.90353 0.23374 0.0
C3213 C 0.80994 0.89937 0.20482 0.0
C3214 C 0.84023 0.90033 0.24304 0.0
C3215 C 0.79519 0.88535 0.24517 0.0
C3216 C 0.78157 0.89962 0.25937 0.0
C3217 C 0.76377 0.8877 0.27306 0.0
C3218 C 0.75969 0.86046 0.27229 0.0
C3219 C 0.77323 0.84521 0.25783 0.0
C3220 C 0.79108 0.85786 0.24386 0.0
H3221 H 0.6671 0.08162 0.83277 0.0
H3222 H 0.662 0.03038 0.7626 0.0
H3223 H 0.68598 0.06618 0.74388 0.0
H3224 H 0.6585 0.13754 0.80429 0.0
H3225 H 0.67919 0.16064 0.82722 0.0
H3226 H 0.66388 0.13031 0.83612 0.0
H3227 H 0.7055 0.11937 0.85151 0.0
H3228 H 0.72095 0.1497 0.84265 0.0
H3229 H 0.72859 0.11918 0.83025 0.0
H3230 H 0.70936 0.10769 0.73223 0.0
H3231 H 0.72821 0.15315 0.72761 0.0
H3232 H 0.71614 0.17821 0.80434 0.0
C3233 C 0.67143 0.07786 0.81362 0.0
C3234 C 0.66291 0.05319 0.79918 0.0
C3235 C 0.6684 0.04915 0.77399 0.0
C3236 C 0.68209 0.06931 0.76323 0.0
C3237 C 0.68998 0.09351 0.77781 0.0
C3238 C 0.68474 0.09797 0.80241 0.0
C3239 C 0.6938 0.12636 0.81328 0.0
C3240 C 0.67258 0.13948 0.82065 0.0
C3241 C 0.71337 0.12878 0.83575 0.0
C3242 C 0.70465 0.13716 0.79085 0.0
C3243 C 0.7026 0.11779 0.77073 0.0
C3244 C 0.71112 0.12303 0.74786 0.0
C3245 C 0.72179 0.14885 0.7454 0.0
C3246 C 0.72349 0.16905 0.76557 0.0
C3247 C 0.71497 0.16307 0.78861 0.0
loop_
_geom_bond_atom_site_label_1
_geom_bond_atom_site_label_2
_geom_bond_distance
_geom_bond_site_symmetry_2
_ccdc_geom_bond_type
Mg0 O1 2.028 . S
Mg0 O7 1.986 . S
Mg0 O9 2.114 1_455 S
Mg0 O10 2.251 1_455 S
Mg0 O13 2.010 . S
O1 Mg0 2.028 . S
O1 C4 1.250 . S
O2 Mg3 2.028 . S
O2 C4 1.248 1_655 S
Mg3 O2 2.028 . S
Mg3 O8 2.032 . S
Mg3 O10 2.079 . S
C4 O1 1.250 . S
C4 O2 1.248 1_455 S
C5 O6 1.264 . S
C5 O13 1.249 . S
O6 C5 1.264 . S
O7 Mg0 1.986 . S
O7 C11 1.246 . S
O8 Mg3 2.032 . S
O8 C11 1.259 1_655 S
O9 Mg0 2.114 1_655 S
O9 C12 1.252 . S
O10 Mg0 2.251 1_655 S
O10 Mg3 2.079 . S
O10 C12 1.273 . S
C11 O7 1.246 . S
C11 O8 1.259 1_455 S
C12 O9 1.252 . S
C12 O10 1.273 . S
O13 Mg0 2.010 . S
O13 C5 1.249 . S
Mg14 O15 2.028 . S
Mg14 O21 1.986 . S
Mg14 O23 2.114 1_455 S
Mg14 O24 2.251 1_455 S
Mg14 O27 2.010 . S
O15 Mg14 2.028 . S
O15 C18 1.250 1_455 S
O16 Mg17 2.028 . S
O16 C18 1.248 . S
Mg17 O16 2.028 . S
Mg17 O22 2.032 . S
Mg17 O24 2.079 . S
C18 O15 1.250 1_655 S
C18 O16 1.248 . S
C19 O20 1.264 . S
C19 O27 1.249 . S
O20 C19 1.264 . S
O21 Mg14 1.986 . S
O21 C25 1.246 1_455 S
O22 Mg17 2.032 . S
O22 C25 1.259 . S
O23 Mg14 2.114 1_655 S
O23 C26 1.252 . S
O24 Mg14 2.251 1_655 S
O24 Mg17 2.079 . S
O24 C26 1.273 . S
C25 O21 1.246 1_655 S
C25 O22 1.259 . S
C26 O23 1.252 . S
C26 O24 1.273 . S
O27 Mg14 2.010 . S
O27 C19 1.249 . S
Mg28 O29 2.028 . S
Mg28 O35 1.986 . S
Mg28 O37 2.114 . S
Mg28 O38 2.251 . S
Mg28 O41 2.010 . S
O29 Mg28 2.028 . S
O29 C32 1.250 . S
O30 Mg31 2.028 . S
O30 C32 1.248 . S
Mg31 O30 2.028 . S
Mg31 O36 2.032 . S
Mg31 O38 2.079 . S
C32 O29 1.250 . S
C32 O30 1.248 . S
C33 O34 1.264 . S
C33 O41 1.249 . S
O34 C33 1.264 . S
O35 Mg28 1.986 . S
O35 C39 1.246 . S
O36 Mg31 2.032 . S
O36 C39 1.259 . S
O37 Mg28 2.114 . S
O37 C40 1.252 . S
O38 Mg28 2.251 . S
O38 Mg31 2.079 . S
O38 C40 1.273 . S
C39 O35 1.246 . S
C39 O36 1.259 . S
C40 O37 1.252 . S
C40 O38 1.273 . S
O41 Mg28 2.010 . S
O41 C33 1.249 . S
Mg42 O43 2.028 . S
Mg42 O49 1.986 . S
Mg42 O51 2.114 . S
Mg42 O52 2.251 . S
Mg42 O55 2.010 . S
O43 Mg42 2.028 . S
O43 C46 1.250 . S
O44 Mg45 2.028 . S
O44 C46 1.248 . S
Mg45 O44 2.028 . S
Mg45 O50 2.032 . S
Mg45 O52 2.079 . S
C46 O43 1.250 . S
C46 O44 1.248 . S
C47 O48 1.264 . S
C47 O55 1.249 . S
O48 C47 1.264 . S
O49 Mg42 1.986 . S
O49 C53 1.246 . S
O50 Mg45 2.032 . S
O50 C53 1.259 . S
O51 Mg42 2.114 . S
O51 C54 1.252 . S
O52 Mg42 2.251 . S
O52 Mg45 2.079 . S
O52 C54 1.273 . S
C53 O49 1.246 . S
C53 O50 1.259 . S
C54 O51 1.252 . S
C54 O52 1.273 . S
O55 Mg42 2.010 . S
O55 C47 1.249 . S
Mg56 O57 2.028 . S
Mg56 O63 1.986 . S
Mg56 O65 2.114 1_455 S
Mg56 O66 2.251 1_455 S
Mg56 O69 2.010 . S
O57 Mg56 2.028 . S
O57 C60 1.230 1_455 S
O58 Mg59 2.028 . S
O58 C60 1.289 . S
Mg59 O58 2.028 . S
Mg59 O64 2.032 . S
Mg59 O66 2.079 . S
C60 O57 1.230 1_655 S
C60 O58 1.289 . S
C61 O62 1.264 . S
C61 O69 1.249 . S
O62 C61 1.264 . S
O63 Mg56 1.986 . S
O63 C67 1.246 . S
O64 Mg59 2.032 . S
O64 C67 1.259 1_655 S
O65 Mg56 2.114 1_655 S
O65 C68 1.252 . S
O66 Mg56 2.251 1_655 S
O66 Mg59 2.079 . S
O66 C68 1.273 . S
C67 O63 1.246 . S
C67 O64 1.259 1_455 S
C68 O65 1.252 . S
C68 O66 1.273 . S
O69 Mg56 2.010 . S
O69 C61 1.249 . S
Mg70 O71 2.028 . S
Mg70 O77 1.986 . S
Mg70 O79 2.114 . S
Mg70 O80 2.251 . S
Mg70 O83 2.010 . S
O71 Mg70 2.028 . S
O71 C74 1.250 . S
O72 Mg73 2.028 . S
O72 C74 1.248 . S
Mg73 O72 2.028 . S
Mg73 O78 2.032 . S
Mg73 O80 2.079 . S
C74 O71 1.250 . S
C74 O72 1.248 . S
C75 O76 1.264 . S
C75 O83 1.249 . S
O76 C75 1.264 . S
O77 Mg70 1.986 . S
O77 C81 1.246 . S
O78 Mg73 2.032 . S
O78 C81 1.259 . S
O79 Mg70 2.114 . S
O79 C82 1.252 . S
O80 Mg70 2.251 . S
O80 Mg73 2.079 . S
O80 C82 1.273 . S
C81 O77 1.246 . S
C81 O78 1.259 . S
C82 O79 1.252 . S
C82 O80 1.273 . S
O83 Mg70 2.010 . S
O83 C75 1.249 . S
Mg84 O85 2.028 . S
Mg84 O91 1.986 . S
Mg84 O93 2.114 . S
Mg84 O94 2.251 . S
Mg84 O97 2.010 . S
O85 Mg84 2.028 . S
O85 C88 1.250 . S
O86 Mg87 2.028 . S
O86 C88 1.248 . S
Mg87 O86 2.028 . S
Mg87 O92 2.032 . S
Mg87 O94 2.079 . S
C88 O85 1.250 . S
C88 O86 1.248 . S
C89 O90 1.264 . S
C89 O97 1.249 . S
O90 C89 1.264 . S
O91 Mg84 1.986 . S
O91 C95 1.246 . S
O92 Mg87 2.032 . S
O92 C95 1.259 . S
O93 Mg84 2.114 . S
O93 C96 1.252 . S
O94 Mg84 2.251 . S
O94 Mg87 2.079 . S
O94 C96 1.273 . S
C95 O91 1.246 . S
C95 O92 1.259 . S
C96 O93 1.252 . S
C96 O94 1.273 . S
O97 Mg84 2.010 . S
O97 C89 1.249 . S
Mg98 O99 2.028 . S
Mg98 O105 1.986 . S
Mg98 O107 2.114 1_455 S
Mg98 O108 2.251 1_455 S
Mg98 O111 2.010 . S
O99 Mg98 2.028 . S
O99 C102 1.250 . S
O100 Mg101 2.028 . S
O100 C102 1.248 1_655 S
Mg101 O100 2.028 . S
Mg101 O106 2.032 . S
Mg101 O108 2.079 . S
C102 O99 1.250 . S
C102 O100 1.248 1_455 S
C103 O104 1.264 . S
C103 O111 1.249 . S
O104 C103 1.264 . S
O105 Mg98 1.986 . S
O105 C109 1.246 . S
O106 Mg101 2.032 . S
O106 C109 1.259 1_655 S
O107 Mg98 2.114 1_655 S
O107 C110 1.252 . S
O108 Mg98 2.251 1_655 S
O108 Mg101 2.079 . S
O108 C110 1.273 . S
C109 O105 1.246 . S
C109 O106 1.259 1_455 S
C110 O107 1.252 . S
C110 O108 1.273 . S
O111 Mg98 2.010 . S
O111 C103 1.249 . S
Mg112 O113 2.028 . S
Mg112 O119 1.986 . S
Mg112 O121 2.114 . S
Mg112 O122 2.251 . S
Mg112 O125 2.010 . S
O113 Mg112 2.028 . S
O113 C116 1.250 . S
O114 Mg115 2.028 . S
O114 C116 1.248 . S
Mg115 O114 2.028 . S
Mg115 O120 2.032 . S
Mg115 O122 2.079 . S
C116 O113 1.250 . S
C116 O114 1.248 . S
C117 O118 1.264 . S
C117 O125 1.249 . S
O118 C117 1.264 . S
O119 Mg112 1.986 . S
O119 C123 1.246 . S
O120 Mg115 2.032 . S
O120 C123 1.259 . S
O121 Mg112 2.114 . S
O121 C124 1.252 . S
O122 Mg112 2.251 . S
O122 Mg115 2.079 . S
O122 C124 1.273 . S
C123 O119 1.246 . S
C123 O120 1.259 . S
C124 O121 1.252 . S
C124 O122 1.273 . S
O125 Mg112 2.010 . S
O125 C117 1.249 . S
Mg126 O127 2.028 . S
Mg126 O133 1.986 . S
Mg126 O135 2.114 . S
Mg126 O136 2.251 . S
Mg126 O139 2.010 . S
O127 Mg126 2.028 . S
O127 C130 1.250 . S
O128 Mg129 2.028 . S
O128 C130 1.248 . S
Mg129 O128 2.028 . S
Mg129 O134 2.032 . S
Mg129 O136 2.079 . S
C130 O127 1.250 . S
C130 O128 1.248 . S
C131 O132 1.264 . S
C131 O139 1.249 . S
O132 C131 1.264 . S
O133 Mg126 1.986 . S
O133 C137 1.246 . S
O134 Mg129 2.032 . S
O134 C137 1.259 . S
O135 Mg126 2.114 . S
O135 C138 1.252 . S
O136 Mg126 2.251 . S
O136 Mg129 2.079 . S
O136 C138 1.273 . S
C137 O133 1.246 . S
C137 O134 1.259 . S
C138 O135 1.252 . S
C138 O136 1.273 . S
O139 Mg126 2.010 . S
O139 C131 1.249 . S
Mg140 O141 2.028 1_565 S
Mg140 O147 1.986 . S
Mg140 O149 2.114 1_565 S
Mg140 O150 2.251 . S
Mg140 O153 2.010 . S
O141 Mg140 2.028 1_545 S
O141 C144 1.250 . S
O142 Mg143 2.028 . S
O142 C144 1.248 . S
Mg143 O142 2.028 . S
Mg143 O148 2.032 1_545 S
Mg143 O150 2.079 1_545 S
C144 O141 1.250 . S
C144 O142 1.248 . S
C145 O146 1.264 . S
C145 O153 1.249 . S
O146 C145 1.264 . S
O147 Mg140 1.986 . S
O147 C151 1.246 . S
O148 Mg143 2.032 1_565 S
O148 C151 1.259 . S
O149 Mg140 2.114 1_545 S
O149 C152 1.252 . S
O150 Mg140 2.251 . S
O150 Mg143 2.079 1_565 S
O150 C152 1.273 1_565 S
C151 O147 1.246 . S
C151 O148 1.259 . S
C152 O149 1.252 . S
C152 O150 1.273 1_545 S
O153 Mg140 2.010 . S
O153 C145 1.249 . S
Mg154 O155 2.028 . S
Mg154 O161 1.986 . S
Mg154 O163 2.114 . S
Mg154 O164 2.251 . S
Mg154 O167 2.010 . S
O155 Mg154 2.028 . S
O155 C158 1.250 1_554 S
O156 Mg157 2.028 . S
O156 C158 1.248 1_554 S
Mg157 O156 2.028 . S
Mg157 O162 2.032 . S
Mg157 O164 2.079 . S
C158 O155 1.250 1_556 S
C158 O156 1.248 1_556 S
C159 O160 1.264 . S
C159 O167 1.249 . S
O160 C159 1.264 . S
O161 Mg154 1.986 . S
O161 C165 1.246 . S
O162 Mg157 2.032 . S
O162 C165 1.259 . S
O163 Mg154 2.114 . S
O163 C166 1.252 . S
O164 Mg154 2.251 . S
O164 Mg157 2.079 . S
O164 C166 1.273 . S
C165 O161 1.246 . S
C165 O162 1.259 . S
C166 O163 1.252 . S
C166 O164 1.273 . S
O167 Mg154 2.010 . S
O167 C159 1.249 . S
Mg168 O169 2.028 . S
Mg168 O175 1.986 . S
Mg168 O177 2.114 . S
Mg168 O178 2.251 . S
Mg168 O181 2.010 . S
O169 Mg168 2.028 . S
O169 C172 1.250 1_554 S
O170 Mg171 2.028 1_556 S
O170 C172 1.248 . S
Mg171 O170 2.028 1_554 S
Mg171 O176 2.032 . S
Mg171 O178 2.079 . S
C172 O169 1.250 1_556 S
C172 O170 1.248 . S
C173 O174 1.264 . S
C173 O181 1.249 . S
O174 C173 1.264 . S
O175 Mg168 1.986 . S
O175 C179 1.246 . S
O176 Mg171 2.032 . S
O176 C179 1.259 . S
O177 Mg168 2.114 . S
O177 C180 1.252 . S
O178 Mg168 2.251 . S
O178 Mg171 2.079 . S
O178 C180 1.273 . S
C179 O175 1.246 . S
C179 O176 1.259 . S
C180 O177 1.252 . S
C180 O178 1.273 . S
O181 Mg168 2.010 . S
O181 C173 1.249 . S
Mg182 O183 2.028 1_556 S
Mg182 O189 1.986 . S
Mg182 O191 2.114 1_556 S
Mg182 O192 2.251 . S
Mg182 O195 2.010 . S
O183 Mg182 2.028 1_554 S
O183 C186 1.250 . S
O184 Mg185 2.028 . S
O184 C186 1.248 . S
Mg185 O184 2.028 . S
Mg185 O190 2.032 1_554 S
Mg185 O192 2.079 1_554 S
C186 O183 1.250 . S
C186 O184 1.248 . S
C187 O188 1.264 . S
C187 O195 1.249 . S
O188 C187 1.264 . S
O189 Mg182 1.986 . S
O189 C193 1.246 . S
O190 Mg185 2.032 1_556 S
O190 C193 1.259 . S
O191 Mg182 2.114 1_554 S
O191 C194 1.252 . S
O192 Mg182 2.251 . S
O192 Mg185 2.079 1_556 S
O192 C194 1.273 1_556 S
C193 O189 1.246 . S
C193 O190 1.259 . S
C194 O191 1.252 . S
C194 O192 1.273 1_554 S
O195 Mg182 2.010 . S
O195 C187 1.249 . S
Mg196 O197 2.028 . S
Mg196 O203 1.986 . S
Mg196 O205 2.114 . S
Mg196 O206 2.251 . S
Mg196 O209 2.010 . S
O197 Mg196 2.028 . S
O197 C200 1.250 . S
O198 Mg199 2.028 . S
O198 C200 1.248 . S
Mg199 O198 2.028 . S
Mg199 O204 2.032 . S
Mg199 O206 2.079 . S
C200 O197 1.250 . S
C200 O198 1.248 . S
C201 O202 1.264 . S
C201 O209 1.249 . S
O202 C201 1.264 . S
O203 Mg196 1.986 . S
O203 C207 1.246 . S
O204 Mg199 2.032 . S
O204 C207 1.259 . S
O205 Mg196 2.114 . S
O205 C208 1.252 . S
O206 Mg196 2.251 . S
O206 Mg199 2.079 . S
O206 C208 1.273 . S
C207 O203 1.246 . S
C207 O204 1.259 . S
C208 O205 1.252 . S
C208 O206 1.273 . S
O209 Mg196 2.010 . S
O209 C201 1.249 . S
Mg210 O211 2.028 . S
Mg210 O217 1.986 . S
Mg210 O219 2.114 . S
Mg210 O220 2.251 . S
Mg210 O223 2.010 . S
O211 Mg210 2.028 . S
O211 C214 1.250 . S
O212 Mg213 2.028 . S
O212 C214 1.248 . S
Mg213 O212 2.028 . S
Mg213 O218 2.032 . S
Mg213 O220 2.079 . S
C214 O211 1.250 . S
C214 O212 1.248 . S
C215 O216 1.264 . S
C215 O223 1.249 . S
O216 C215 1.264 . S
O217 Mg210 1.986 . S
O217 C221 1.246 . S
O218 Mg213 2.032 . S
O218 C221 1.259 . S
O219 Mg210 2.114 . S
O219 C222 1.252 . S
O220 Mg210 2.251 . S
O220 Mg213 2.079 . S
O220 C222 1.273 . S
C221 O217 1.246 . S
C221 O218 1.259 . S
C222 O219 1.252 . S
C222 O220 1.273 . S
O223 Mg210 2.010 . S
O223 C215 1.249 . S
Mg224 O225 2.028 . S
Mg224 O231 1.986 . S
Mg224 O233 2.114 . S
Mg224 O234 2.251 . S
Mg224 O237 2.010 . S
O225 Mg224 2.028 . S
O225 C228 1.250 . S
O226 Mg227 2.028 . S
O226 C228 1.248 . S
Mg227 O226 2.028 . S
Mg227 O232 2.032 . S
Mg227 O234 2.079 . S
C228 O225 1.250 . S
C228 O226 1.248 . S
C229 O230 1.264 . S
C229 O237 1.249 . S
O230 C229 1.264 . S
O231 Mg224 1.986 . S
O231 C235 1.246 . S
O232 Mg227 2.032 . S
O232 C235 1.259 . S
O233 Mg224 2.114 . S
O233 C236 1.252 . S
O234 Mg224 2.251 . S
O234 Mg227 2.079 . S
O234 C236 1.273 . S
C235 O231 1.246 . S
C235 O232 1.259 . S
C236 O233 1.252 . S
C236 O234 1.273 . S
O237 Mg224 2.010 . S
O237 C229 1.249 . S
Mg238 O239 2.028 . S
Mg238 O245 1.986 . S
Mg238 O247 2.114 . S
Mg238 O248 2.251 . S
Mg238 O251 2.010 . S
O239 Mg238 2.028 . S
O239 C242 1.250 . S
O240 Mg241 2.028 . S
O240 C242 1.248 . S
Mg241 O240 2.028 . S
Mg241 O246 2.032 . S
Mg241 O248 2.079 . S
C242 O239 1.250 . S
C242 O240 1.248 . S
C243 O244 1.264 . S
C243 O251 1.249 . S
O244 C243 1.264 . S
O245 Mg238 1.986 . S
O245 C249 1.246 . S
O246 Mg241 2.032 . S
O246 C249 1.259 . S
O247 Mg238 2.114 . S
O247 C250 1.252 . S
O248 Mg238 2.251 . S
O248 Mg241 2.079 . S
O248 C250 1.273 . S
C249 O245 1.246 . S
C249 O246 1.259 . S
C250 O247 1.252 . S
C250 O248 1.273 . S
O251 Mg238 2.010 . S
O251 C243 1.249 . S
Mg252 O253 2.028 . S
Mg252 O259 1.986 . S
Mg252 O261 2.114 . S
Mg252 O262 2.251 . S
Mg252 O265 2.010 . S
O253 Mg252 2.028 . S
O253 C256 1.250 . S
O254 Mg255 2.028 . S
O254 C256 1.248 . S
Mg255 O254 2.028 . S
Mg255 O260 2.032 . S
Mg255 O262 2.079 . S
C256 O253 1.250 . S
C256 O254 1.248 . S
C257 O258 1.264 . S
C257 O265 1.249 . S
O258 C257 1.264 . S
O259 Mg252 1.986 . S
O259 C263 1.246 . S
O260 Mg255 2.032 . S
O260 C263 1.259 . S
O261 Mg252 2.114 . S
O261 C264 1.252 . S
O262 Mg252 2.251 . S
O262 Mg255 2.079 . S
O262 C264 1.273 . S
C263 O259 1.246 . S
C263 O260 1.259 . S
C264 O261 1.252 . S
C264 O262 1.273 . S
O265 Mg252 2.010 . S
O265 C257 1.249 . S
Mg266 O267 2.028 . S
Mg266 O273 1.986 1_545 S
Mg266 O275 2.114 . S
Mg266 O276 2.251 . S
Mg266 O279 2.010 1_545 S
O267 Mg266 2.028 . S
O267 C270 1.250 . S
O268 Mg269 2.028 . S
O268 C270 1.248 . S
Mg269 O268 2.028 . S
Mg269 O274 2.032 1_545 S
Mg269 O276 2.079 . S
C270 O267 1.250 . S
C270 O268 1.248 . S
C271 O272 1.266 1_545 S
C271 O279 1.251 1_545 S
O272 C271 1.266 1_565 S
O273 Mg266 1.986 1_565 S
O273 C277 1.246 . S
O274 Mg269 2.032 1_565 S
O274 C277 1.259 . S
O275 Mg266 2.114 . S
O275 C278 1.252 . S
O276 Mg266 2.251 . S
O276 Mg269 2.079 . S
O276 C278 1.273 . S
C277 O273 1.246 . S
C277 O274 1.259 . S
C278 O275 1.252 . S
C278 O276 1.273 . S
O279 Mg266 2.010 1_565 S
O279 C271 1.251 1_565 S
Mg280 O281 2.028 1_556 S
Mg280 O287 1.986 . S
Mg280 O289 2.114 1_556 S
Mg280 O290 2.251 . S
Mg280 O293 2.010 . S
O281 Mg280 2.028 1_554 S
O281 C284 1.250 . S
O282 Mg283 2.028 . S
O282 C284 1.248 . S
Mg283 O282 2.028 . S
Mg283 O288 2.032 1_554 S
Mg283 O290 2.079 1_554 S
C284 O281 1.250 . S
C284 O282 1.248 . S
C285 O286 1.264 . S
C285 O293 1.249 . S
O286 C285 1.264 . S
O287 Mg280 1.986 . S
O287 C291 1.246 . S
O288 Mg283 2.032 1_556 S
O288 C291 1.259 . S
O289 Mg280 2.114 1_554 S
O289 C292 1.252 . S
O290 Mg280 2.251 . S
O290 Mg283 2.079 1_556 S
O290 C292 1.273 1_556 S
C291 O287 1.246 . S
C291 O288 1.259 . S
C292 O289 1.252 . S
C292 O290 1.273 1_554 S
O293 Mg280 2.010 . S
O293 C285 1.249 . S
Mg294 O295 2.028 . S
Mg294 O301 1.986 . S
Mg294 O303 2.114 . S
Mg294 O304 2.251 . S
Mg294 O307 2.010 . S
O295 Mg294 2.028 . S
O295 C298 1.250 . S
O296 Mg297 2.028 . S
O296 C298 1.248 . S
Mg297 O296 2.028 . S
Mg297 O302 2.032 . S
Mg297 O304 2.079 . S
C298 O295 1.250 . S
C298 O296 1.248 . S
C299 O300 1.264 . S
C299 O307 1.249 . S
O300 C299 1.264 . S
O301 Mg294 1.986 . S
O301 C305 1.246 . S
O302 Mg297 2.032 . S
O302 C305 1.259 . S
O303 Mg294 2.114 . S
O303 C306 1.252 . S
O304 Mg294 2.251 . S
O304 Mg297 2.079 . S
O304 C306 1.273 . S
C305 O301 1.246 . S
C305 O302 1.259 . S
C306 O303 1.252 . S
C306 O304 1.273 . S
O307 Mg294 2.010 . S
O307 C299 1.249 . S
Mg308 O309 2.028 . S
Mg308 O315 1.986 . S
Mg308 O317 2.114 . S
Mg308 O318 2.251 . S
Mg308 O321 2.010 . S
O309 Mg308 2.028 . S
O309 C312 1.250 . S
O310 Mg311 2.028 . S
O310 C312 1.248 . S
Mg311 O310 2.028 . S
Mg311 O316 2.032 . S
Mg311 O318 2.079 . S
C312 O309 1.250 . S
C312 O310 1.248 . S
C313 O314 1.264 . S
C313 O321 1.249 . S
O314 C313 1.264 . S
O315 Mg308 1.986 . S
O315 C319 1.246 . S
O316 Mg311 2.032 . S
O316 C319 1.259 . S
O317 Mg308 2.114 . S
O317 C320 1.252 . S
O318 Mg308 2.251 . S
O318 Mg311 2.079 . S
O318 C320 1.273 . S
C319 O315 1.246 . S
C319 O316 1.259 . S
C320 O317 1.252 . S
C320 O318 1.273 . S
O321 Mg308 2.010 . S
O321 C313 1.249 . S
Mg322 O323 2.028 . S
Mg322 O329 1.986 . S
Mg322 O331 2.114 . S
Mg322 O332 2.251 . S
Mg322 O335 2.010 . S
O323 Mg322 2.028 . S
O323 C326 1.250 . S
O324 Mg325 2.028 . S
O324 C326 1.248 . S
Mg325 O324 2.028 . S
Mg325 O330 2.032 . S
Mg325 O332 2.079 . S
C326 O323 1.250 . S
C326 O324 1.248 . S
C327 O328 1.264 . S
C327 O335 1.249 . S
O328 C327 1.264 . S
O329 Mg322 1.986 . S
O329 C333 1.246 . S
O330 Mg325 2.032 . S
O330 C333 1.259 . S
O331 Mg322 2.114 . S
O331 C334 1.252 . S
O332 Mg322 2.251 . S
O332 Mg325 2.079 . S
O332 C334 1.273 . S
C333 O329 1.246 . S
C333 O330 1.259 . S
C334 O331 1.252 . S
C334 O332 1.273 . S
O335 Mg322 2.010 . S
O335 C327 1.249 . S
Tb336 O339 2.453 . S
Tb336 O340 2.596 . S
Tb336 O341 2.374 1_554 S
Tb336 O349 2.343 1_455 S
Tb336 O351 2.353 . S
Tb336 O353 2.427 . S
Tb336 O354 2.513 1_554 S
C337 O341 1.251 . S
C337 O343 1.263 1_445 S
Tb338 O340 2.343 1_665 S
Tb338 O343 2.353 1_554 S
Tb338 O346 2.427 . S
Tb338 O347 2.513 . S
Tb338 O348 2.453 1_564 S
Tb338 O349 2.596 1_565 S
Tb338 O350 2.374 1_565 S
O339 Tb336 2.453 . S
O339 C355 1.245 . S
O340 Tb336 2.596 . S
O340 Tb338 2.343 1_445 S
O340 C355 1.259 . S
O341 Tb336 2.374 1_556 S
O341 C337 1.251 . S
C342 O346 1.275 1_455 S
C342 O347 1.246 1_455 S
O343 C337 1.263 1_665 S
O343 Tb338 2.353 1_556 S
C344 O348 1.245 . S
C344 O349 1.259 1_556 S
C345 O350 1.250 . S
C345 O351 1.263 1_655 S
O346 Tb338 2.427 . S
O346 C342 1.275 1_655 S
O347 Tb338 2.513 . S
O347 C342 1.246 1_655 S
O348 Tb338 2.453 1_546 S
O348 C344 1.245 . S
O349 Tb336 2.343 1_655 S
O349 Tb338 2.596 1_545 S
O349 C344 1.259 1_554 S
O350 Tb338 2.374 1_545 S
O350 C345 1.250 . S
O351 Tb336 2.353 . S
O351 C345 1.263 1_455 S
C352 O353 1.275 1_556 S
C352 O354 1.246 . S
O353 Tb336 2.427 . S
O353 C352 1.275 1_554 S
O354 Tb336 2.513 1_556 S
O354 C352 1.246 . S
C355 O339 1.245 . S
C355 O340 1.259 . S
Tb356 O359 2.453 . S
Tb356 O360 2.596 . S
Tb356 O361 2.374 . S
Tb356 O369 2.343 . S
Tb356 O371 2.353 . S
Tb356 O373 2.427 . S
Tb356 O374 2.513 . S
C357 O361 1.251 . S
C357 O363 1.263 . S
Tb358 O360 2.343 . S
Tb358 O363 2.353 . S
Tb358 O366 2.427 . S
Tb358 O367 2.513 . S
Tb358 O368 2.453 . S
Tb358 O369 2.596 . S
Tb358 O370 2.374 . S
O359 Tb356 2.453 . S
O359 C375 1.245 . S
O360 Tb356 2.596 . S
O360 Tb358 2.343 . S
O360 C375 1.259 . S
O361 Tb356 2.374 . S
O361 C357 1.251 . S
C362 O366 1.275 . S
C362 O367 1.246 . S
O363 C357 1.263 . S
O363 Tb358 2.353 . S
C364 O368 1.245 . S
C364 O369 1.259 . S
C365 O370 1.250 . S
C365 O371 1.263 . S
O366 Tb358 2.427 . S
O366 C362 1.275 . S
O367 Tb358 2.513 . S
O367 C362 1.246 . S
O368 Tb358 2.453 . S
O368 C364 1.245 . S
O369 Tb356 2.343 . S
O369 Tb358 2.596 . S
O369 C364 1.259 . S
O370 Tb358 2.374 . S
O370 C365 1.250 . S
O371 Tb356 2.353 . S
O371 C365 1.263 . S
C372 O373 1.275 . S
C372 O374 1.246 . S
O373 Tb356 2.427 . S
O373 C372 1.275 . S
O374 Tb356 2.513 . S
O374 C372 1.246 . S
C375 O359 1.245 . S
C375 O360 1.259 . S
Tb376 O379 2.453 . S
Tb376 O380 2.596 . S
Tb376 O381 2.374 . S
Tb376 O389 2.343 . S
Tb376 O391 2.353 . S
Tb376 O393 2.427 . S
Tb376 O394 2.513 . S
C377 O381 1.251 . S
C377 O383 1.263 . S
Tb378 O380 2.343 . S
Tb378 O383 2.353 . S
Tb378 O386 2.427 . S
Tb378 O387 2.513 . S
Tb378 O388 2.453 1_545 S
Tb378 O389 2.596 . S
Tb378 O390 2.374 . S
O379 Tb376 2.453 . S
O379 C395 1.245 . S
O380 Tb376 2.596 . S
O380 Tb378 2.343 . S
O380 C395 1.259 . S
O381 Tb376 2.374 . S
O381 C377 1.251 . S
C382 O386 1.275 . S
C382 O387 1.246 . S
O383 C377 1.263 . S
O383 Tb378 2.353 . S
C384 O388 1.245 . S
C384 O389 1.259 1_565 S
C385 O390 1.250 . S
C385 O391 1.263 . S
O386 Tb378 2.427 . S
O386 C382 1.275 . S
O387 Tb378 2.513 . S
O387 C382 1.246 . S
O388 Tb378 2.453 1_565 S
O388 C384 1.245 . S
O389 Tb376 2.343 . S
O389 Tb378 2.596 . S
O389 C384 1.259 1_545 S
O390 Tb378 2.374 . S
O390 C385 1.250 . S
O391 Tb376 2.353 . S
O391 C385 1.263 . S
C392 O393 1.275 . S
C392 O394 1.246 . S
O393 Tb376 2.427 . S
O393 C392 1.275 . S
O394 Tb376 2.513 . S
O394 C392 1.246 . S
C395 O379 1.245 . S
C395 O380 1.259 . S
Tb396 O399 2.453 . S
Tb396 O400 2.596 . S
Tb396 O401 2.374 . S
Tb396 O409 2.343 . S
Tb396 O411 2.353 . S
Tb396 O413 2.427 . S
Tb396 O414 2.513 . S
C397 O401 1.251 . S
C397 O403 1.263 . S
Tb398 O400 2.343 . S
Tb398 O403 2.353 . S
Tb398 O406 2.427 . S
Tb398 O407 2.513 . S
Tb398 O408 2.453 . S
Tb398 O409 2.596 . S
Tb398 O410 2.374 . S
O399 Tb396 2.453 . S
O399 C415 1.245 . S
O400 Tb396 2.596 . S
O400 Tb398 2.343 . S
O400 C415 1.259 . S
O401 Tb396 2.374 . S
O401 C397 1.251 . S
C402 O406 1.275 . S
C402 O407 1.246 . S
O403 C397 1.263 . S
O403 Tb398 2.353 . S
C404 O408 1.245 . S
C404 O409 1.259 . S
C405 O410 1.250 . S
C405 O411 1.263 . S
O406 Tb398 2.427 . S
O406 C402 1.275 . S
O407 Tb398 2.513 . S
O407 C402 1.246 . S
O408 Tb398 2.453 . S
O408 C404 1.245 . S
O409 Tb396 2.343 . S
O409 Tb398 2.596 . S
O409 C404 1.259 . S
O410 Tb398 2.374 . S
O410 C405 1.250 . S
O411 Tb396 2.353 . S
O411 C405 1.263 . S
C412 O413 1.275 . S
C412 O414 1.246 . S
O413 Tb396 2.427 . S
O413 C412 1.275 . S
O414 Tb396 2.513 . S
O414 C412 1.246 . S
C415 O399 1.245 . S
C415 O400 1.259 . S
Tb416 O419 2.453 1_645 S
Tb416 O420 2.596 1_655 S
Tb416 O421 2.374 . S
Tb416 O429 2.334 . S
Tb416 O431 2.353 1_655 S
Tb416 O433 2.427 1_655 S
Tb416 O434 2.513 . S
C417 O421 1.251 . S
C417 O423 1.263 . S
Tb418 O420 2.343 . S
Tb418 O423 2.353 1_455 S
Tb418 O426 2.427 1_455 S
Tb418 O427 2.513 . S
Tb418 O428 2.453 1_455 S
Tb418 O429 2.591 1_455 S
Tb418 O430 2.374 . S
O419 Tb416 2.453 1_465 S
O419 C435 1.245 . S
O420 Tb416 2.596 1_455 S
O420 Tb418 2.343 . S
O420 C435 1.259 1_545 S
O421 Tb416 2.374 . S
O421 C417 1.251 . S
C422 O426 1.275 1_455 S
C422 O427 1.246 . S
O423 C417 1.263 . S
O423 Tb418 2.353 1_655 S
C424 O428 1.245 . S
C424 O429 1.270 . S
C425 O430 1.250 . S
C425 O431 1.263 . S
O426 Tb418 2.427 1_655 S
O426 C422 1.275 1_655 S
O427 Tb418 2.513 . S
O427 C422 1.246 . S
O428 Tb418 2.453 1_655 S
O428 C424 1.245 . S
O429 Tb416 2.334 . S
O429 Tb418 2.591 1_655 S
O429 C424 1.270 . S
O430 Tb418 2.374 . S
O430 C425 1.250 . S
O431 Tb416 2.353 1_455 S
O431 C425 1.263 . S
C432 O433 1.275 1_655 S
C432 O434 1.246 . S
O433 Tb416 2.427 1_455 S
O433 C432 1.275 1_455 S
O434 Tb416 2.513 . S
O434 C432 1.246 . S
C435 O419 1.245 . S
C435 O420 1.259 1_565 S
Tb436 O439 2.453 . S
Tb436 O440 2.596 . S
Tb436 O441 2.374 . S
Tb436 O449 2.343 . S
Tb436 O451 2.353 . S
Tb436 O453 2.427 . S
Tb436 O454 2.513 . S
C437 O441 1.251 . S
C437 O443 1.263 . S
Tb438 O440 2.343 . S
Tb438 O443 2.353 . S
Tb438 O446 2.427 . S
Tb438 O447 2.513 . S
Tb438 O448 2.453 . S
Tb438 O449 2.596 . S
Tb438 O450 2.374 . S
O439 Tb436 2.453 . S
O439 C455 1.245 . S
O440 Tb436 2.596 . S
O440 Tb438 2.343 . S
O440 C455 1.259 . S
O441 Tb436 2.374 . S
O441 C437 1.251 . S
C442 O446 1.275 . S
C442 O447 1.246 . S
O443 C437 1.263 . S
O443 Tb438 2.353 . S
C444 O448 1.245 . S
C444 O449 1.259 . S
C445 O450 1.250 . S
C445 O451 1.263 . S
O446 Tb438 2.427 . S
O446 C442 1.275 . S
O447 Tb438 2.513 . S
O447 C442 1.246 . S
O448 Tb438 2.453 . S
O448 C444 1.245 . S
O449 Tb436 2.343 . S
O449 Tb438 2.596 . S
O449 C444 1.259 . S
O450 Tb438 2.374 . S
O450 C445 1.250 . S
O451 Tb436 2.353 . S
O451 C445 1.263 . S
C452 O453 1.275 . S
C452 O454 1.246 . S
O453 Tb436 2.427 . S
O453 C452 1.275 . S
O454 Tb436 2.513 . S
O454 C452 1.246 . S
C455 O439 1.245 . S
C455 O440 1.259 . S
Tb456 O459 2.453 . S
Tb456 O460 2.596 . S
Tb456 O461 2.374 1_545 S
Tb456 O469 2.343 1_556 S
Tb456 O471 2.353 1_556 S
Tb456 O473 2.427 1_556 S
Tb456 O474 2.513 1_546 S
C457 O461 1.251 . S
C457 O463 1.263 1_556 S
Tb458 O460 2.343 1_554 S
Tb458 O463 2.353 1_545 S
Tb458 O466 2.427 . S
Tb458 O467 2.513 . S
Tb458 O468 2.453 . S
Tb458 O469 2.596 . S
Tb458 O470 2.374 . S
O459 Tb456 2.453 . S
O459 C475 1.245 . S
O460 Tb456 2.596 . S
O460 Tb458 2.343 1_556 S
O460 C475 1.259 . S
O461 Tb456 2.374 1_565 S
O461 C457 1.251 . S
C462 O466 1.275 . S
C462 O467 1.246 . S
O463 C457 1.263 1_554 S
O463 Tb458 2.353 1_565 S
C464 O468 1.245 . S
C464 O469 1.259 . S
C465 O470 1.250 . S
C465 O471 1.263 . S
O466 Tb458 2.427 . S
O466 C462 1.275 . S
O467 Tb458 2.513 . S
O467 C462 1.246 . S
O468 Tb458 2.453 . S
O468 C464 1.245 . S
O469 Tb456 2.343 1_554 S
O469 Tb458 2.596 . S
O469 C464 1.259 . S
O470 Tb458 2.374 . S
O470 C465 1.250 . S
O471 Tb456 2.353 1_554 S
O471 C465 1.263 . S
C472 O473 1.275 . S
C472 O474 1.246 1_545 S
O473 Tb456 2.427 1_554 S
O473 C472 1.275 . S
O474 Tb456 2.513 1_564 S
O474 C472 1.246 1_565 S
C475 O459 1.245 . S
C475 O460 1.259 . S
Tb476 O479 2.453 . S
Tb476 O480 2.596 . S
Tb476 O481 2.374 . S
Tb476 O489 2.343 . S
Tb476 O491 2.353 . S
Tb476 O493 2.427 . S
Tb476 O494 2.513 . S
C477 O481 1.251 . S
C477 O483 1.263 . S
Tb478 O480 2.343 . S
Tb478 O483 2.353 . S
Tb478 O486 2.427 . S
Tb478 O487 2.513 . S
Tb478 O488 2.453 . S
Tb478 O489 2.596 . S
Tb478 O490 2.374 . S
O479 Tb476 2.453 . S
O479 C495 1.245 . S
O480 Tb476 2.596 . S
O480 Tb478 2.343 . S
O480 C495 1.259 . S
O481 Tb476 2.374 . S
O481 C477 1.251 . S
C482 O486 1.275 . S
C482 O487 1.246 . S
O483 C477 1.263 . S
O483 Tb478 2.353 . S
C484 O488 1.245 . S
C484 O489 1.259 . S
C485 O490 1.250 . S
C485 O491 1.263 . S
O486 Tb478 2.427 . S
O486 C482 1.275 . S
O487 Tb478 2.513 . S
O487 C482 1.246 . S
O488 Tb478 2.453 . S
O488 C484 1.245 . S
O489 Tb476 2.343 . S
O489 Tb478 2.596 . S
O489 C484 1.259 . S
O490 Tb478 2.374 . S
O490 C485 1.250 . S
O491 Tb476 2.353 . S
O491 C485 1.263 . S
C492 O493 1.275 . S
C492 O494 1.246 . S
O493 Tb476 2.427 . S
O493 C492 1.275 . S
O494 Tb476 2.513 . S
O494 C492 1.246 . S
C495 O479 1.245 . S
C495 O480 1.259 . S
Tb496 O499 2.453 1_556 S
Tb496 O500 2.596 1_556 S
Tb496 O501 2.383 . S
Tb496 O509 2.343 . S
Tb496 O511 2.353 . S
Tb496 O513 2.427 . S
Tb496 O514 2.513 . S
C497 O501 1.234 1_554 S
C497 O503 1.263 . S
Tb498 O500 2.343 . S
Tb498 O503 2.353 . S
Tb498 O506 2.427 . S
Tb498 O507 2.513 . S
Tb498 O508 2.453 . S
Tb498 O509 2.596 1_554 S
Tb498 O510 2.374 . S
O499 Tb496 2.453 1_554 S
O499 C515 1.245 . S
O500 Tb496 2.596 1_554 S
O500 Tb498 2.343 . S
O500 C515 1.259 . S
O501 Tb496 2.383 . S
O501 C497 1.234 1_556 S
C502 O506 1.275 . S
C502 O507 1.246 . S
O503 C497 1.263 . S
O503 Tb498 2.353 . S
C504 O508 1.245 . S
C504 O509 1.259 1_554 S
C505 O510 1.250 . S
C505 O511 1.263 1_554 S
O506 Tb498 2.427 . S
O506 C502 1.275 . S
O507 Tb498 2.513 . S
O507 C502 1.246 . S
O508 Tb498 2.453 . S
O508 C504 1.245 . S
O509 Tb496 2.343 . S
O509 Tb498 2.596 1_556 S
O509 C504 1.259 1_556 S
O510 Tb498 2.374 . S
O510 C505 1.250 . S
O511 Tb496 2.353 . S
O511 C505 1.263 1_556 S
C512 O513 1.275 . S
C512 O514 1.246 . S
O513 Tb496 2.427 . S
O513 C512 1.275 . S
O514 Tb496 2.513 . S
O514 C512 1.246 . S
C515 O499 1.245 . S
C515 O500 1.259 . S
Tb516 O519 2.453 . S
Tb516 O520 2.596 . S
Tb516 O521 2.374 . S
Tb516 O529 2.343 . S
Tb516 O531 2.353 . S
Tb516 O533 2.427 . S
Tb516 O534 2.513 . S
C517 O521 1.251 . S
C517 O523 1.263 . S
Tb518 O520 2.343 . S
Tb518 O523 2.353 . S
Tb518 O526 2.427 . S
Tb518 O527 2.513 . S
Tb518 O528 2.453 . S
Tb518 O529 2.596 . S
Tb518 O530 2.374 . S
O519 Tb516 2.453 . S
O519 C535 1.245 . S
O520 Tb516 2.596 . S
O520 Tb518 2.343 . S
O520 C535 1.259 . S
O521 Tb516 2.374 . S
O521 C517 1.251 . S
C522 O526 1.275 . S
C522 O527 1.246 . S
O523 C517 1.263 . S
O523 Tb518 2.353 . S
C524 O528 1.245 . S
C524 O529 1.259 . S
C525 O530 1.250 . S
C525 O531 1.263 . S
O526 Tb518 2.427 . S
O526 C522 1.275 . S
O527 Tb518 2.513 . S
O527 C522 1.246 . S
O528 Tb518 2.453 . S
O528 C524 1.245 . S
O529 Tb516 2.343 . S
O529 Tb518 2.596 . S
O529 C524 1.259 . S
O530 Tb518 2.374 . S
O530 C525 1.250 . S
O531 Tb516 2.353 . S
O531 C525 1.263 . S
C532 O533 1.275 . S
C532 O534 1.246 . S
O533 Tb516 2.427 . S
O533 C532 1.275 . S
O534 Tb516 2.513 . S
O534 C532 1.246 . S
C535 O519 1.245 . S
C535 O520 1.259 . S
Tb536 O539 2.463 . S
Tb536 O540 2.596 1_655 S
Tb536 O541 2.374 . S
Tb536 O549 2.343 . S
Tb536 O551 2.353 . S
Tb536 O553 2.427 . S
Tb536 O554 2.513 . S
C537 O541 1.251 1_455 S
C537 O543 1.263 . S
Tb538 O540 2.343 . S
Tb538 O543 2.353 . S
Tb538 O546 2.427 . S
Tb538 O547 2.513 . S
Tb538 O548 2.453 . S
Tb538 O549 2.596 1_455 S
Tb538 O550 2.374 . S
O539 Tb536 2.463 . S
O539 C555 1.229 1_655 S
O540 Tb536 2.596 1_455 S
O540 Tb538 2.343 . S
O540 C555 1.259 . S
O541 Tb536 2.374 . S
O541 C537 1.251 1_655 S
C542 O546 1.275 . S
C542 O547 1.246 . S
O543 C537 1.263 . S
O543 Tb538 2.353 . S
C544 O548 1.245 1_655 S
C544 O549 1.259 . S
C545 O550 1.250 . S
C545 O551 1.263 1_455 S
O546 Tb538 2.427 . S
O546 C542 1.275 . S
O547 Tb538 2.513 . S
O547 C542 1.246 . S
O548 Tb538 2.453 . S
O548 C544 1.245 1_455 S
O549 Tb536 2.343 . S
O549 Tb538 2.596 1_655 S
O549 C544 1.259 . S
O550 Tb538 2.374 . S
O550 C545 1.250 . S
O551 Tb536 2.353 . S
O551 C545 1.263 1_655 S
C552 O553 1.275 . S
C552 O554 1.246 . S
O553 Tb536 2.427 . S
O553 C552 1.275 . S
O554 Tb536 2.513 . S
O554 C552 1.246 . S
C555 O539 1.229 1_455 S
C555 O540 1.259 . S
Tb556 O559 2.453 . S
Tb556 O560 2.596 . S
Tb556 O561 2.374 . S
Tb556 O569 2.343 . S
Tb556 O571 2.353 . S
Tb556 O573 2.427 . S
Tb556 O574 2.513 . S
C557 O561 1.251 . S
C557 O563 1.263 . S
Tb558 O560 2.343 . S
Tb558 O563 2.353 . S
Tb558 O566 2.427 . S
Tb558 O567 2.513 . S
Tb558 O568 2.453 . S
Tb558 O569 2.596 . S
Tb558 O570 2.374 . S
O559 Tb556 2.453 . S
O559 C575 1.245 . S
O560 Tb556 2.596 . S
O560 Tb558 2.343 . S
O560 C575 1.259 . S
O561 Tb556 2.374 . S
O561 C557 1.251 . S
C562 O566 1.275 . S
C562 O567 1.246 . S
O563 C557 1.263 . S
O563 Tb558 2.353 . S
C564 O568 1.245 . S
C564 O569 1.259 . S
C565 O570 1.250 . S
C565 O571 1.263 . S
O566 Tb558 2.427 . S
O566 C562 1.275 . S
O567 Tb558 2.513 . S
O567 C562 1.246 . S
O568 Tb558 2.453 . S
O568 C564 1.245 . S
O569 Tb556 2.343 . S
O569 Tb558 2.596 . S
O569 C564 1.259 . S
O570 Tb558 2.374 . S
O570 C565 1.250 . S
O571 Tb556 2.353 . S
O571 C565 1.263 . S
C572 O573 1.275 . S
C572 O574 1.246 . S
O573 Tb556 2.427 . S
O573 C572 1.275 . S
O574 Tb556 2.513 . S
O574 C572 1.246 . S
C575 O559 1.245 . S
C575 O560 1.259 . S
Tb576 O579 2.453 . S
Tb576 O580 2.596 . S
Tb576 O581 2.374 . S
Tb576 O589 2.343 . S
Tb576 O591 2.353 . S
Tb576 O593 2.427 . S
Tb576 O594 2.513 . S
C577 O581 1.251 . S
C577 O583 1.263 . S
Tb578 O580 2.343 . S
Tb578 O583 2.353 . S
Tb578 O586 2.427 . S
Tb578 O587 2.513 . S
Tb578 O588 2.453 . S
Tb578 O589 2.596 . S
Tb578 O590 2.374 . S
O579 Tb576 2.453 . S
O579 C595 1.245 . S
O580 Tb576 2.596 . S
O580 Tb578 2.343 . S
O580 C595 1.259 . S
O581 Tb576 2.374 . S
O581 C577 1.251 . S
C582 O586 1.275 . S
C582 O587 1.246 . S
O583 C577 1.263 . S
O583 Tb578 2.353 . S
C584 O588 1.245 . S
C584 O589 1.259 . S
C585 O590 1.250 . S
C585 O591 1.263 . S
O586 Tb578 2.427 . S
O586 C582 1.275 . S
O587 Tb578 2.513 . S
O587 C582 1.246 . S
O588 Tb578 2.453 . S
O588 C584 1.245 . S
O589 Tb576 2.343 . S
O589 Tb578 2.596 . S
O589 C584 1.259 . S
O590 Tb578 2.374 . S
O590 C585 1.250 . S
O591 Tb576 2.353 . S
O591 C585 1.263 . S
C592 O593 1.275 . S
C592 O594 1.246 . S
O593 Tb576 2.427 . S
O593 C592 1.275 . S
O594 Tb576 2.513 . S
O594 C592 1.246 . S
C595 O579 1.245 . S
C595 O580 1.259 . S
Tb596 O599 2.453 . S
Tb596 O600 2.596 . S
Tb596 O601 2.374 . S
Tb596 O609 2.343 . S
Tb596 O611 2.353 . S
Tb596 O613 2.427 . S
Tb596 O614 2.513 . S
C597 O601 1.251 . S
C597 O603 1.263 . S
Tb598 O600 2.343 . S
Tb598 O603 2.353 . S
Tb598 O606 2.427 . S
Tb598 O607 2.513 . S
Tb598 O608 2.453 . S
Tb598 O609 2.596 . S
Tb598 O610 2.374 . S
O599 Tb596 2.453 . S
O599 C615 1.245 . S
O600 Tb596 2.596 . S
O600 Tb598 2.343 . S
O600 C615 1.259 . S
O601 Tb596 2.374 . S
O601 C597 1.251 . S
C602 O606 1.275 . S
C602 O607 1.246 . S
O603 C597 1.263 . S
O603 Tb598 2.353 . S
C604 O608 1.245 . S
C604 O609 1.259 . S
C605 O610 1.250 . S
C605 O611 1.263 . S
O606 Tb598 2.427 . S
O606 C602 1.275 . S
O607 Tb598 2.513 . S
O607 C602 1.246 . S
O608 Tb598 2.453 . S
O608 C604 1.245 . S
O609 Tb596 2.343 . S
O609 Tb598 2.596 . S
O609 C604 1.259 . S
O610 Tb598 2.374 . S
O610 C605 1.250 . S
O611 Tb596 2.353 . S
O611 C605 1.263 . S
C612 O613 1.275 . S
C612 O614 1.246 . S
O613 Tb596 2.427 . S
O613 C612 1.275 . S
O614 Tb596 2.513 . S
O614 C612 1.246 . S
C615 O599 1.245 . S
C615 O600 1.259 . S
Tb616 O619 2.453 . S
Tb616 O620 2.596 . S
Tb616 O621 2.374 . S
Tb616 O629 2.343 . S
Tb616 O631 2.353 . S
Tb616 O633 2.427 . S
Tb616 O634 2.513 . S
C617 O621 1.251 . S
C617 O623 1.263 . S
Tb618 O620 2.343 . S
Tb618 O623 2.353 . S
Tb618 O626 2.427 . S
Tb618 O627 2.513 . S
Tb618 O628 2.453 . S
Tb618 O629 2.596 . S
Tb618 O630 2.374 . S
O619 Tb616 2.453 . S
O619 C635 1.245 . S
O620 Tb616 2.596 . S
O620 Tb618 2.343 . S
O620 C635 1.259 . S
O621 Tb616 2.374 . S
O621 C617 1.251 . S
C622 O626 1.275 . S
C622 O627 1.246 . S
O623 C617 1.263 . S
O623 Tb618 2.353 . S
C624 O628 1.245 . S
C624 O629 1.259 . S
C625 O630 1.250 . S
C625 O631 1.263 . S
O626 Tb618 2.427 . S
O626 C622 1.275 . S
O627 Tb618 2.513 . S
O627 C622 1.246 . S
O628 Tb618 2.453 . S
O628 C624 1.245 . S
O629 Tb616 2.343 . S
O629 Tb618 2.596 . S
O629 C624 1.259 . S
O630 Tb618 2.374 . S
O630 C625 1.250 . S
O631 Tb616 2.353 . S
O631 C625 1.263 . S
C632 O633 1.275 . S
C632 O634 1.246 . S
O633 Tb616 2.427 . S
O633 C632 1.275 . S
O634 Tb616 2.513 . S
O634 C632 1.246 . S
C635 O619 1.245 . S
C635 O620 1.259 . S
Tb636 O639 2.453 . S
Tb636 O640 2.596 . S
Tb636 O641 2.374 . S
Tb636 O649 2.343 . S
Tb636 O651 2.353 1_554 S
Tb636 O653 2.427 1_554 S
Tb636 O654 2.513 . S
C637 O641 1.251 . S
C637 O643 1.263 1_455 S
Tb638 O640 2.343 1_655 S
Tb638 O643 2.353 . S
Tb638 O646 2.427 . S
Tb638 O647 2.513 . S
Tb638 O648 2.456 . S
Tb638 O649 2.596 1_655 S
Tb638 O650 2.374 1_554 S
O639 Tb636 2.453 . S
O639 C655 1.245 . S
O640 Tb636 2.596 . S
O640 Tb638 2.343 1_455 S
O640 C655 1.259 . S
O641 Tb636 2.374 . S
O641 C637 1.251 . S
C642 O646 1.275 . S
C642 O647 1.246 . S
O643 C637 1.263 1_655 S
O643 Tb638 2.353 . S
C644 O648 1.241 1_556 S
C644 O649 1.259 1_656 S
C645 O650 1.250 . S
C645 O651 1.263 1_655 S
O646 Tb638 2.427 . S
O646 C642 1.275 . S
O647 Tb638 2.513 . S
O647 C642 1.246 . S
O648 Tb638 2.456 . S
O648 C644 1.241 1_554 S
O649 Tb636 2.343 . S
O649 Tb638 2.596 1_455 S
O649 C644 1.259 1_454 S
O650 Tb638 2.374 1_556 S
O650 C645 1.250 . S
O651 Tb636 2.353 1_556 S
O651 C645 1.263 1_455 S
C652 O653 1.275 . S
C652 O654 1.246 1_556 S
O653 Tb636 2.427 1_556 S
O653 C652 1.275 . S
O654 Tb636 2.513 . S
O654 C652 1.246 1_554 S
C655 O639 1.245 . S
C655 O640 1.259 . S
H656 C668 0.930 . S
H657 C670 0.930 . S
H658 C671 0.930 . S
H659 C675 0.959 . S
H660 C675 0.959 . S
H661 C675 0.961 . S
H662 C676 0.960 . S
H663 C676 0.961 . S
H664 C676 0.959 . S
H665 C679 0.929 1_554 S
H666 C680 0.931 . S
H667 C682 0.930 . S
C668 H656 0.930 . S
C668 C669 1.399 . S
C668 C673 1.399 . S
C669 C668 1.399 . S
C669 C670 1.376 . S
C670 H657 0.930 . S
C670 C669 1.376 . S
C670 C671 1.388 . S
C671 H658 0.930 . S
C671 C670 1.388 . S
C671 C672 1.390 . S
C672 C671 1.390 . S
C672 C673 1.394 . S
C672 C678 1.465 . S
C673 C668 1.399 . S
C673 C672 1.394 . S
C673 C674 1.516 . S
C674 C673 1.516 . S
C674 C675 1.502 1_455 S
C674 C676 1.561 . S
C674 C677 1.526 . S
C675 H659 0.959 . S
C675 H660 0.959 . S
C675 H661 0.961 . S
C675 C674 1.502 1_655 S
C676 H662 0.960 . S
C676 H663 0.961 . S
C676 H664 0.959 . S
C676 C674 1.561 . S
C677 C674 1.526 . S
C677 C678 1.396 . S
C677 C682 1.390 . S
C678 C672 1.465 . S
C678 C677 1.396 . S
C678 C679 1.399 . S
C679 H665 0.929 1_556 S
C679 C678 1.399 . S
C679 C680 1.385 1_556 S
C680 H666 0.931 . S
C680 C679 1.385 1_554 S
C680 C681 1.389 1_554 S
C681 C680 1.389 1_556 S
C681 C682 1.387 . S
C682 H667 0.930 . S
C682 C677 1.390 . S
C682 C681 1.387 . S
H683 C695 0.930 . S
H684 C697 0.930 . S
H685 C698 0.930 . S
H686 C702 0.959 . S
H687 C702 0.959 . S
H688 C702 0.961 . S
H689 C703 0.960 . S
H690 C703 0.961 . S
H691 C703 0.959 . S
H692 C706 0.929 . S
H693 C707 0.931 . S
H694 C709 0.930 . S
C695 H683 0.930 . S
C695 C696 1.399 . S
C695 C700 1.399 . S
C696 C695 1.399 . S
C696 C697 1.376 . S
C697 H684 0.930 . S
C697 C696 1.376 . S
C697 C698 1.388 . S
C698 H685 0.930 . S
C698 C697 1.388 . S
C698 C699 1.390 . S
C699 C698 1.390 . S
C699 C700 1.394 . S
C699 C705 1.465 . S
C700 C695 1.399 . S
C700 C699 1.394 . S
C700 C701 1.516 . S
C701 C700 1.516 . S
C701 C702 1.502 . S
C701 C703 1.561 . S
C701 C704 1.526 . S
C702 H686 0.959 . S
C702 H687 0.959 . S
C702 H688 0.961 . S
C702 C701 1.502 . S
C703 H689 0.960 . S
C703 H690 0.961 . S
C703 H691 0.959 . S
C703 C701 1.561 . S
C704 C701 1.526 . S
C704 C705 1.396 . S
C704 C709 1.390 . S
C705 C699 1.465 . S
C705 C704 1.396 . S
C705 C706 1.399 . S
C706 H692 0.929 . S
C706 C705 1.399 . S
C706 C707 1.385 . S
C707 H693 0.931 . S
C707 C706 1.385 . S
C707 C708 1.389 . S
C708 C707 1.389 . S
C708 C709 1.387 . S
C709 H694 0.930 . S
C709 C704 1.390 . S
C709 C708 1.387 . S
H710 C722 0.930 . S
H711 C724 0.930 . S
H712 C725 0.930 . S
H713 C729 0.959 . S
H714 C729 0.959 . S
H715 C729 0.961 . S
H716 C730 0.960 . S
H717 C730 0.961 . S
H718 C730 0.959 . S
H719 C733 0.929 . S
H720 C734 0.931 . S
H721 C736 0.930 . S
C722 H710 0.930 . S
C722 C723 1.399 . S
C722 C727 1.399 . S
C723 C722 1.399 . S
C723 C724 1.376 . S
C724 H711 0.930 . S
C724 C723 1.376 . S
C724 C725 1.388 . S
C725 H712 0.930 . S
C725 C724 1.388 . S
C725 C726 1.390 . S
C726 C725 1.390 . S
C726 C727 1.394 . S
C726 C732 1.465 . S
C727 C722 1.399 . S
C727 C726 1.394 . S
C727 C728 1.516 . S
C728 C727 1.516 . S
C728 C729 1.502 . S
C728 C730 1.561 . S
C728 C731 1.526 . S
C729 H713 0.959 . S
C729 H714 0.959 . S
C729 H715 0.961 . S
C729 C728 1.502 . S
C730 H716 0.960 . S
C730 H717 0.961 . S
C730 H718 0.959 . S
C730 C728 1.561 . S
C731 C728 1.526 . S
C731 C732 1.396 . S
C731 C736 1.390 . S
C732 C726 1.465 . S
C732 C731 1.396 . S
C732 C733 1.399 . S
C733 H719 0.929 . S
C733 C732 1.399 . S
C733 C734 1.385 . S
C734 H720 0.931 . S
C734 C733 1.385 . S
C734 C735 1.389 . S
C735 C734 1.389 . S
C735 C736 1.387 . S
C736 H721 0.930 . S
C736 C731 1.390 . S
C736 C735 1.387 . S
H737 C749 0.930 . S
H738 C751 0.930 . S
H739 C752 0.930 . S
H740 C756 0.959 . S
H741 C756 0.959 . S
H742 C756 0.961 . S
H743 C757 0.960 . S
H744 C757 0.961 . S
H745 C757 0.959 . S
H746 C760 0.929 . S
H747 C761 0.931 . S
H748 C763 0.930 . S
C749 H737 0.930 . S
C749 C750 1.399 . S
C749 C754 1.399 . S
C750 C749 1.399 . S
C750 C751 1.376 . S
C751 H738 0.930 . S
C751 C750 1.376 . S
C751 C752 1.388 . S
C752 H739 0.930 . S
C752 C751 1.388 . S
C752 C753 1.390 . S
C753 C752 1.390 . S
C753 C754 1.394 . S
C753 C759 1.465 . S
C754 C749 1.399 . S
C754 C753 1.394 . S
C754 C755 1.516 . S
C755 C754 1.516 . S
C755 C756 1.502 . S
C755 C757 1.561 . S
C755 C758 1.526 . S
C756 H740 0.959 . S
C756 H741 0.959 . S
C756 H742 0.961 . S
C756 C755 1.502 . S
C757 H743 0.960 . S
C757 H744 0.961 . S
C757 H745 0.959 . S
C757 C755 1.561 . S
C758 C755 1.526 . S
C758 C759 1.396 . S
C758 C763 1.390 . S
C759 C753 1.465 . S
C759 C758 1.396 . S
C759 C760 1.399 . S
C760 H746 0.929 . S
C760 C759 1.399 . S
C760 C761 1.385 . S
C761 H747 0.931 . S
C761 C760 1.385 . S
C761 C762 1.389 . S
C762 C761 1.389 . S
C762 C763 1.387 . S
C763 H748 0.930 . S
C763 C758 1.390 . S
C763 C762 1.387 . S
H764 C776 0.930 . S
H765 C778 0.932 1_655 S
H766 C779 0.930 1_655 S
H767 C783 0.959 . S
H768 C783 0.959 . S
H769 C783 0.961 . S
H770 C784 0.960 . S
H771 C784 0.961 . S
H772 C784 0.959 . S
H773 C787 0.929 . S
H774 C788 0.931 . S
H775 C790 0.930 . S
C776 H764 0.930 . S
C776 C777 1.399 . S
C776 C781 1.399 . S
C777 C776 1.399 . S
C777 C778 1.376 . S
C778 H765 0.932 1_455 S
C778 C777 1.376 . S
C778 C779 1.388 . S
C779 H766 0.930 1_455 S
C779 C778 1.388 . S
C779 C780 1.390 . S
C780 C779 1.390 . S
C780 C781 1.394 . S
C780 C786 1.465 . S
C781 C776 1.399 . S
C781 C780 1.394 . S
C781 C782 1.516 . S
C782 C781 1.516 . S
C782 C783 1.502 1_455 S
C782 C784 1.561 . S
C782 C785 1.526 . S
C783 H767 0.959 . S
C783 H768 0.959 . S
C783 H769 0.961 . S
C783 C782 1.502 1_655 S
C784 H770 0.960 . S
C784 H771 0.961 . S
C784 H772 0.959 . S
C784 C782 1.561 . S
C785 C782 1.526 . S
C785 C786 1.396 . S
C785 C790 1.390 . S
C786 C780 1.465 . S
C786 C785 1.396 . S
C786 C787 1.399 . S
C787 H773 0.929 . S
C787 C786 1.399 . S
C787 C788 1.385 . S
C788 H774 0.931 . S
C788 C787 1.385 . S
C788 C789 1.389 . S
C789 C788 1.389 . S
C789 C790 1.387 . S
C790 H775 0.930 . S
C790 C785 1.390 . S
C790 C789 1.387 . S
H791 C803 0.930 . S
H792 C805 0.930 . S
H793 C806 0.930 . S
H794 C810 0.959 . S
H795 C810 0.959 . S
H796 C810 0.961 . S
H797 C811 0.960 . S
H798 C811 0.961 . S
H799 C811 0.959 . S
H800 C814 0.929 . S
H801 C815 0.931 . S
H802 C817 0.930 . S
C803 H791 0.930 . S
C803 C804 1.399 . S
C803 C808 1.399 . S
C804 C803 1.399 . S
C804 C805 1.376 . S
C805 H792 0.930 . S
C805 C804 1.376 . S
C805 C806 1.388 . S
C806 H793 0.930 . S
C806 C805 1.388 . S
C806 C807 1.390 . S
C807 C806 1.390 . S
C807 C808 1.394 . S
C807 C813 1.465 . S
C808 C803 1.399 . S
C808 C807 1.394 . S
C808 C809 1.516 . S
C809 C808 1.516 . S
C809 C810 1.502 . S
C809 C811 1.561 . S
C809 C812 1.526 . S
C810 H794 0.959 . S
C810 H795 0.959 . S
C810 H796 0.961 . S
C810 C809 1.502 . S
C811 H797 0.960 . S
C811 H798 0.961 . S
C811 H799 0.959 . S
C811 C809 1.561 . S
C812 C809 1.526 . S
C812 C813 1.396 . S
C812 C817 1.390 . S
C813 C807 1.465 . S
C813 C812 1.396 . S
C813 C814 1.399 . S
C814 H800 0.929 . S
C814 C813 1.399 . S
C814 C815 1.385 . S
C815 H801 0.931 . S
C815 C814 1.385 . S
C815 C816 1.389 . S
C816 C815 1.389 . S
C816 C817 1.387 . S
C817 H802 0.930 . S
C817 C812 1.390 . S
C817 C816 1.387 . S
H818 C830 0.930 . S
H819 C832 0.930 . S
H820 C833 0.930 . S
H821 C837 0.959 . S
H822 C837 0.959 . S
H823 C837 0.961 . S
H824 C838 0.960 . S
H825 C838 0.961 . S
H826 C838 0.959 . S
H827 C841 0.929 . S
H828 C842 0.931 . S
H829 C844 0.930 . S
C830 H818 0.930 . S
C830 C831 1.399 . S
C830 C835 1.399 . S
C831 C830 1.399 . S
C831 C832 1.376 . S
C832 H819 0.930 . S
C832 C831 1.376 . S
C832 C833 1.388 . S
C833 H820 0.930 . S
C833 C832 1.388 . S
C833 C834 1.390 . S
C834 C833 1.390 . S
C834 C835 1.394 . S
C834 C840 1.465 . S
C835 C830 1.399 . S
C835 C834 1.394 . S
C835 C836 1.516 . S
C836 C835 1.516 . S
C836 C837 1.502 . S
C836 C838 1.561 . S
C836 C839 1.526 . S
C837 H821 0.959 . S
C837 H822 0.959 . S
C837 H823 0.961 . S
C837 C836 1.502 . S
C838 H824 0.960 . S
C838 H825 0.961 . S
C838 H826 0.959 . S
C838 C836 1.561 . S
C839 C836 1.526 . S
C839 C840 1.396 . S
C839 C844 1.390 . S
C840 C834 1.465 . S
C840 C839 1.396 . S
C840 C841 1.399 . S
C841 H827 0.929 . S
C841 C840 1.399 . S
C841 C842 1.385 . S
C842 H828 0.931 . S
C842 C841 1.385 . S
C842 C843 1.389 . S
C843 C842 1.389 . S
C843 C844 1.387 . S
C844 H829 0.930 . S
C844 C839 1.390 . S
C844 C843 1.387 . S
H845 C857 0.930 . S
H846 C859 0.930 . S
H847 C860 0.930 . S
H848 C864 0.959 . S
H849 C864 0.959 . S
H850 C864 0.961 . S
H851 C865 0.960 . S
H852 C865 0.961 . S
H853 C865 0.959 . S
H854 C868 0.929 . S
H855 C869 0.931 . S
H856 C871 0.930 . S
C857 H845 0.930 . S
C857 C858 1.399 . S
C857 C862 1.399 . S
C858 C857 1.399 . S
C858 C859 1.376 . S
C859 H846 0.930 . S
C859 C858 1.376 . S
C859 C860 1.388 . S
C860 H847 0.930 . S
C860 C859 1.388 . S
C860 C861 1.390 . S
C861 C860 1.390 . S
C861 C862 1.394 . S
C861 C867 1.465 . S
C862 C857 1.399 . S
C862 C861 1.394 . S
C862 C863 1.516 . S
C863 C862 1.516 . S
C863 C864 1.502 . S
C863 C865 1.561 . S
C863 C866 1.526 . S
C864 H848 0.959 . S
C864 H849 0.959 . S
C864 H850 0.961 . S
C864 C863 1.502 . S
C865 H851 0.960 . S
C865 H852 0.961 . S
C865 H853 0.959 . S
C865 C863 1.561 . S
C866 C863 1.526 . S
C866 C867 1.396 . S
C866 C871 1.390 . S
C867 C861 1.465 . S
C867 C866 1.396 . S
C867 C868 1.399 . S
C868 H854 0.929 . S
C868 C867 1.399 . S
C868 C869 1.385 . S
C869 H855 0.931 . S
C869 C868 1.385 . S
C869 C870 1.389 . S
C870 C869 1.389 . S
C870 C871 1.387 . S
C871 H856 0.930 . S
C871 C866 1.390 . S
C871 C870 1.387 . S
H872 C884 0.930 . S
H873 C886 0.930 . S
H874 C887 0.930 . S
H875 C891 0.959 . S
H876 C891 0.959 . S
H877 C891 0.961 . S
H878 C892 0.960 . S
H879 C892 0.961 . S
H880 C892 0.959 1_545 S
H881 C895 0.929 . S
H882 C896 0.931 . S
H883 C898 0.930 . S
C884 H872 0.930 . S
C884 C885 1.399 . S
C884 C889 1.399 . S
C885 C884 1.399 . S
C885 C886 1.376 . S
C886 H873 0.930 . S
C886 C885 1.376 . S
C886 C887 1.388 . S
C887 H874 0.930 . S
C887 C886 1.388 . S
C887 C888 1.390 . S
C888 C887 1.390 . S
C888 C889 1.394 . S
C888 C894 1.465 . S
C889 C884 1.399 . S
C889 C888 1.394 . S
C889 C890 1.516 . S
C890 C889 1.516 . S
C890 C891 1.502 . S
C890 C892 1.561 1_545 S
C890 C893 1.526 . S
C891 H875 0.959 . S
C891 H876 0.959 . S
C891 H877 0.961 . S
C891 C890 1.502 . S
C892 H878 0.960 . S
C892 H879 0.961 . S
C892 H880 0.959 1_565 S
C892 C890 1.561 1_565 S
C893 C890 1.526 . S
C893 C894 1.396 . S
C893 C898 1.390 . S
C894 C888 1.465 . S
C894 C893 1.396 . S
C894 C895 1.399 . S
C895 H881 0.929 . S
C895 C894 1.399 . S
C895 C896 1.385 . S
C896 H882 0.931 . S
C896 C895 1.385 . S
C896 C897 1.389 . S
C897 C896 1.389 . S
C897 C898 1.387 . S
C898 H883 0.930 . S
C898 C893 1.390 . S
C898 C897 1.387 . S
H899 C911 0.930 . S
H900 C913 0.930 . S
H901 C914 0.930 . S
H902 C918 0.959 . S
H903 C918 0.959 . S
H904 C918 0.961 . S
H905 C919 0.960 . S
H906 C919 0.961 . S
H907 C919 0.959 . S
H908 C922 0.929 . S
H909 C923 0.931 . S
H910 C925 0.930 . S
C911 H899 0.930 . S
C911 C912 1.399 . S
C911 C916 1.399 . S
C912 C911 1.399 . S
C912 C913 1.376 . S
C913 H900 0.930 . S
C913 C912 1.376 . S
C913 C914 1.388 . S
C914 H901 0.930 . S
C914 C913 1.388 . S
C914 C915 1.390 . S
C915 C914 1.390 . S
C915 C916 1.394 . S
C915 C921 1.465 . S
C916 C911 1.399 . S
C916 C915 1.394 . S
C916 C917 1.516 . S
C917 C916 1.516 . S
C917 C918 1.502 . S
C917 C919 1.561 . S
C917 C920 1.526 . S
C918 H902 0.959 . S
C918 H903 0.959 . S
C918 H904 0.961 . S
C918 C917 1.502 . S
C919 H905 0.960 . S
C919 H906 0.961 . S
C919 H907 0.959 . S
C919 C917 1.561 . S
C920 C917 1.526 . S
C920 C921 1.396 . S
C920 C925 1.390 . S
C921 C915 1.465 . S
C921 C920 1.396 . S
C921 C922 1.399 . S
C922 H908 0.929 . S
C922 C921 1.399 . S
C922 C923 1.385 . S
C923 H909 0.931 . S
C923 C922 1.385 . S
C923 C924 1.389 . S
C924 C923 1.389 . S
C924 C925 1.387 . S
C925 H910 0.930 . S
C925 C920 1.390 . S
C925 C924 1.387 . S
H926 C938 0.930 . S
H927 C940 0.930 . S
H928 C941 0.930 . S
H929 C945 0.959 . S
H930 C945 0.959 . S
H931 C945 0.961 . S
H932 C946 0.960 . S
H933 C946 0.961 . S
H934 C946 0.959 . S
H935 C949 0.929 . S
H936 C950 0.931 . S
H937 C952 0.930 . S
C938 H926 0.930 . S
C938 C939 1.399 . S
C938 C943 1.399 . S
C939 C938 1.399 . S
C939 C940 1.376 1_545 S
C940 H927 0.930 . S
C940 C939 1.376 1_565 S
C940 C941 1.388 . S
C941 H928 0.930 . S
C941 C940 1.388 . S
C941 C942 1.390 1_565 S
C942 C941 1.390 1_545 S
C942 C943 1.394 . S
C942 C948 1.465 . S
C943 C938 1.399 . S
C943 C942 1.394 . S
C943 C944 1.516 . S
C944 C943 1.516 . S
C944 C945 1.502 . S
C944 C946 1.561 . S
C944 C947 1.526 . S
C945 H929 0.959 . S
C945 H930 0.959 . S
C945 H931 0.961 . S
C945 C944 1.502 . S
C946 H932 0.960 . S
C946 H933 0.961 . S
C946 H934 0.959 . S
C946 C944 1.561 . S
C947 C944 1.526 . S
C947 C948 1.396 . S
C947 C952 1.390 . S
C948 C942 1.465 . S
C948 C947 1.396 . S
C948 C949 1.399 1_545 S
C949 H935 0.929 . S
C949 C948 1.399 1_565 S
C949 C950 1.385 . S
C950 H936 0.931 . S
C950 C949 1.385 . S
C950 C951 1.389 1_565 S
C951 C950 1.389 1_545 S
C951 C952 1.387 . S
C952 H937 0.930 . S
C952 C947 1.390 . S
C952 C951 1.387 . S
H953 C965 0.930 . S
H954 C967 0.930 . S
H955 C968 0.930 . S
H956 C972 0.959 . S
H957 C972 0.959 . S
H958 C972 0.961 . S
H959 C973 0.960 . S
H960 C973 0.961 . S
H961 C973 0.959 . S
H962 C976 0.929 . S
H963 C977 0.931 . S
H964 C979 0.930 . S
C965 H953 0.930 . S
C965 C966 1.399 . S
C965 C970 1.399 . S
C966 C965 1.399 . S
C966 C967 1.376 . S
C967 H954 0.930 . S
C967 C966 1.376 . S
C967 C968 1.388 . S
C968 H955 0.930 . S
C968 C967 1.388 . S
C968 C969 1.390 . S
C969 C968 1.390 . S
C969 C970 1.394 . S
C969 C975 1.465 . S
C970 C965 1.399 . S
C970 C969 1.394 . S
C970 C971 1.516 . S
C971 C970 1.516 . S
C971 C972 1.502 . S
C971 C973 1.561 . S
C971 C974 1.526 . S
C972 H956 0.959 . S
C972 H957 0.959 . S
C972 H958 0.961 . S
C972 C971 1.502 . S
C973 H959 0.960 . S
C973 H960 0.961 . S
C973 H961 0.959 . S
C973 C971 1.561 . S
C974 C971 1.526 . S
C974 C975 1.396 . S
C974 C979 1.390 . S
C975 C969 1.465 . S
C975 C974 1.396 . S
C975 C976 1.399 . S
C976 H962 0.929 . S
C976 C975 1.399 . S
C976 C977 1.385 . S
C977 H963 0.931 . S
C977 C976 1.385 . S
C977 C978 1.389 . S
C978 C977 1.389 . S
C978 C979 1.387 . S
C979 H964 0.930 . S
C979 C974 1.390 . S
C979 C978 1.387 . S
H980 C992 0.930 . S
H981 C994 0.930 . S
H982 C995 0.930 . S
H983 C999 0.944 1_455 S
H984 C999 0.959 1_455 S
H985 C999 0.961 . S
H986 C1000 0.960 . S
H987 C1000 0.961 . S
H988 C1000 0.959 . S
H989 C1003 0.927 1_565 S
H990 C1004 0.925 1_565 S
H991 C1006 0.930 . S
C992 H980 0.930 . S
C992 C993 1.399 . S
C992 C997 1.399 . S
C993 C992 1.399 . S
C993 C994 1.376 . S
C994 H981 0.930 . S
C994 C993 1.376 . S
C994 C995 1.388 . S
C995 H982 0.930 . S
C995 C994 1.388 . S
C995 C996 1.390 . S
C996 C995 1.390 . S
C996 C997 1.394 . S
C996 C1002 1.465 . S
C997 C992 1.399 . S
C997 C996 1.394 . S
C997 C998 1.516 . S
C998 C997 1.516 . S
C998 C999 1.502 . S
C998 C1000 1.561 . S
C998 C1001 1.526 . S
C999 H983 0.944 1_655 S
C999 H984 0.959 1_655 S
C999 H985 0.961 . S
C999 C998 1.502 . S
C1000 H986 0.960 . S
C1000 H987 0.961 . S
C1000 H988 0.959 . S
C1000 C998 1.561 . S
C1001 C998 1.526 . S
C1001 C1002 1.396 . S
C1001 C1006 1.390 . S
C1002 C996 1.465 . S
C1002 C1001 1.396 . S
C1002 C1003 1.399 . S
C1003 H989 0.927 1_545 S
C1003 C1002 1.399 . S
C1003 C1004 1.385 . S
C1004 H990 0.925 1_545 S
C1004 C1003 1.385 . S
C1004 C1005 1.389 . S
C1005 C1004 1.389 . S
C1005 C1006 1.387 . S
C1006 H991 0.930 . S
C1006 C1001 1.390 . S
C1006 C1005 1.387 . S
H1007 C1019 0.930 . S
H1008 C1021 0.930 . S
H1009 C1022 0.930 . S
H1010 C1026 0.959 . S
H1011 C1026 0.959 . S
H1012 C1026 0.961 . S
H1013 C1027 0.960 . S
H1014 C1027 0.961 . S
H1015 C1027 0.959 . S
H1016 C1030 0.929 . S
H1017 C1031 0.931 . S
H1018 C1033 0.930 . S
C1019 H1007 0.930 . S
C1019 C1020 1.399 . S
C1019 C1024 1.399 . S
C1020 C1019 1.399 . S
C1020 C1021 1.376 . S
C1021 H1008 0.930 . S
C1021 C1020 1.376 . S
C1021 C1022 1.388 . S
C1022 H1009 0.930 . S
C1022 C1021 1.388 . S
C1022 C1023 1.390 . S
C1023 C1022 1.390 . S
C1023 C1024 1.394 . S
C1023 C1029 1.465 . S
C1024 C1019 1.399 . S
C1024 C1023 1.394 . S
C1024 C1025 1.516 . S
C1025 C1024 1.516 . S
C1025 C1026 1.502 . S
C1025 C1027 1.561 . S
C1025 C1028 1.526 . S
C1026 H1010 0.959 . S
C1026 H1011 0.959 . S
C1026 H1012 0.961 . S
C1026 C1025 1.502 . S
C1027 H1013 0.960 . S
C1027 H1014 0.961 . S
C1027 H1015 0.959 . S
C1027 C1025 1.561 . S
C1028 C1025 1.526 . S
C1028 C1029 1.396 . S
C1028 C1033 1.390 . S
C1029 C1023 1.465 . S
C1029 C1028 1.396 . S
C1029 C1030 1.399 . S
C1030 H1016 0.929 . S
C1030 C1029 1.399 . S
C1030 C1031 1.385 . S
C1031 H1017 0.931 . S
C1031 C1030 1.385 . S
C1031 C1032 1.389 . S
C1032 C1031 1.389 . S
C1032 C1033 1.387 . S
C1033 H1018 0.930 . S
C1033 C1028 1.390 . S
C1033 C1032 1.387 . S
H1034 C1046 0.930 . S
H1035 C1048 0.930 1_565 S
H1036 C1049 0.930 1_565 S
H1037 C1053 0.959 . S
H1038 C1053 0.959 . S
H1039 C1053 0.961 . S
H1040 C1054 0.960 . S
H1041 C1054 0.961 . S
H1042 C1054 0.959 . S
H1043 C1057 0.929 1_565 S
H1044 C1058 0.931 . S
H1045 C1060 0.930 . S
C1046 H1034 0.930 . S
C1046 C1047 1.399 . S
C1046 C1051 1.399 . S
C1047 C1046 1.399 . S
C1047 C1048 1.376 . S
C1048 H1035 0.930 1_545 S
C1048 C1047 1.376 . S
C1048 C1049 1.388 . S
C1049 H1036 0.930 1_545 S
C1049 C1048 1.388 . S
C1049 C1050 1.390 . S
C1050 C1049 1.390 . S
C1050 C1051 1.394 . S
C1050 C1056 1.465 . S
C1051 C1046 1.399 . S
C1051 C1050 1.394 . S
C1051 C1052 1.516 . S
C1052 C1051 1.516 . S
C1052 C1053 1.502 . S
C1052 C1054 1.561 . S
C1052 C1055 1.526 . S
C1053 H1037 0.959 . S
C1053 H1038 0.959 . S
C1053 H1039 0.961 . S
C1053 C1052 1.502 . S
C1054 H1040 0.960 . S
C1054 H1041 0.961 . S
C1054 H1042 0.959 . S
C1054 C1052 1.561 . S
C1055 C1052 1.526 . S
C1055 C1056 1.396 . S
C1055 C1060 1.390 . S
C1056 C1050 1.465 . S
C1056 C1055 1.396 . S
C1056 C1057 1.399 . S
C1057 H1043 0.929 1_545 S
C1057 C1056 1.399 . S
C1057 C1058 1.385 . S
C1058 H1044 0.931 . S
C1058 C1057 1.385 . S
C1058 C1059 1.389 . S
C1059 C1058 1.389 . S
C1059 C1060 1.387 . S
C1060 H1045 0.930 . S
C1060 C1055 1.390 . S
C1060 C1059 1.387 . S
H1061 C1073 0.930 . S
H1062 C1075 0.930 . S
H1063 C1076 0.930 . S
H1064 C1080 0.959 . S
H1065 C1080 0.959 . S
H1066 C1080 0.961 . S
H1067 C1081 0.960 . S
H1068 C1081 0.961 . S
H1069 C1081 0.959 . S
H1070 C1084 0.929 . S
H1071 C1085 0.931 . S
H1072 C1087 0.930 . S
C1073 H1061 0.930 . S
C1073 C1074 1.399 . S
C1073 C1078 1.399 . S
C1074 C1073 1.399 . S
C1074 C1075 1.376 . S
C1075 H1062 0.930 . S
C1075 C1074 1.376 . S
C1075 C1076 1.388 . S
C1076 H1063 0.930 . S
C1076 C1075 1.388 . S
C1076 C1077 1.390 . S
C1077 C1076 1.390 . S
C1077 C1078 1.394 . S
C1077 C1083 1.465 . S
C1078 C1073 1.399 . S
C1078 C1077 1.394 . S
C1078 C1079 1.516 . S
C1079 C1078 1.516 . S
C1079 C1080 1.502 . S
C1079 C1081 1.561 . S
C1079 C1082 1.526 . S
C1080 H1064 0.959 . S
C1080 H1065 0.959 . S
C1080 H1066 0.961 . S
C1080 C1079 1.502 . S
C1081 H1067 0.960 . S
C1081 H1068 0.961 . S
C1081 H1069 0.959 . S
C1081 C1079 1.561 . S
C1082 C1079 1.526 . S
C1082 C1083 1.396 . S
C1082 C1087 1.390 . S
C1083 C1077 1.465 . S
C1083 C1082 1.396 . S
C1083 C1084 1.399 . S
C1084 H1070 0.929 . S
C1084 C1083 1.399 . S
C1084 C1085 1.385 . S
C1085 H1071 0.931 . S
C1085 C1084 1.385 . S
C1085 C1086 1.389 . S
C1086 C1085 1.389 . S
C1086 C1087 1.387 . S
C1087 H1072 0.930 . S
C1087 C1082 1.390 . S
C1087 C1086 1.387 . S
H1088 C1100 0.930 1_556 S
H1089 C1102 0.930 . S
H1090 C1103 0.930 . S
H1091 C1107 0.959 . S
H1092 C1107 0.959 . S
H1093 C1107 0.961 . S
H1094 C1108 0.960 . S
H1095 C1108 0.961 . S
H1096 C1108 0.959 1_554 S
H1097 C1111 0.929 . S
H1098 C1112 0.931 . S
H1099 C1114 0.930 1_556 S
C1100 H1088 0.930 1_554 S
C1100 C1101 1.399 . S
C1100 C1105 1.399 . S
C1101 C1100 1.399 . S
C1101 C1102 1.376 . S
C1102 H1089 0.930 . S
C1102 C1101 1.376 . S
C1102 C1103 1.388 . S
C1103 H1090 0.930 . S
C1103 C1102 1.388 . S
C1103 C1104 1.390 . S
C1104 C1103 1.390 . S
C1104 C1105 1.394 . S
C1104 C1110 1.465 . S
C1105 C1100 1.399 . S
C1105 C1104 1.394 . S
C1105 C1106 1.516 1_554 S
C1106 C1105 1.516 1_556 S
C1106 C1107 1.502 . S
C1106 C1108 1.561 . S
C1106 C1109 1.526 1_556 S
C1107 H1091 0.959 . S
C1107 H1092 0.959 . S
C1107 H1093 0.961 . S
C1107 C1106 1.502 . S
C1108 H1094 0.960 . S
C1108 H1095 0.961 . S
C1108 H1096 0.959 1_556 S
C1108 C1106 1.561 . S
C1109 C1106 1.526 1_554 S
C1109 C1110 1.396 . S
C1109 C1114 1.390 . S
C1110 C1104 1.465 . S
C1110 C1109 1.396 . S
C1110 C1111 1.399 . S
C1111 H1097 0.929 . S
C1111 C1110 1.399 . S
C1111 C1112 1.385 1_565 S
C1112 H1098 0.931 . S
C1112 C1111 1.385 1_545 S
C1112 C1113 1.390 1_545 S
C1113 C1112 1.390 1_565 S
C1113 C1114 1.390 . S
C1114 H1099 0.930 1_554 S
C1114 C1109 1.390 . S
C1114 C1113 1.390 . S
H1115 C1127 0.930 . S
H1116 C1129 0.930 . S
H1117 C1130 0.930 . S
H1118 C1134 0.959 . S
H1119 C1134 0.959 . S
H1120 C1134 0.961 . S
H1121 C1135 0.960 . S
H1122 C1135 0.961 . S
H1123 C1135 0.959 . S
H1124 C1138 0.929 . S
H1125 C1139 0.931 . S
H1126 C1141 0.930 . S
C1127 H1115 0.930 . S
C1127 C1128 1.399 1_556 S
C1127 C1132 1.399 . S
C1128 C1127 1.399 1_554 S
C1128 C1129 1.376 . S
C1129 H1116 0.930 . S
C1129 C1128 1.376 . S
C1129 C1130 1.388 . S
C1130 H1117 0.930 . S
C1130 C1129 1.388 . S
C1130 C1131 1.390 . S
C1131 C1130 1.390 . S
C1131 C1132 1.394 1_554 S
C1131 C1137 1.465 . S
C1132 C1127 1.399 . S
C1132 C1131 1.394 1_556 S
C1132 C1133 1.516 . S
C1133 C1132 1.516 . S
C1133 C1134 1.502 . S
C1133 C1135 1.561 . S
C1133 C1136 1.526 . S
C1134 H1118 0.959 . S
C1134 H1119 0.959 . S
C1134 H1120 0.961 . S
C1134 C1133 1.502 . S
C1135 H1121 0.960 . S
C1135 H1122 0.961 . S
C1135 H1123 0.959 . S
C1135 C1133 1.561 . S
C1136 C1133 1.526 . S
C1136 C1137 1.396 1_556 S
C1136 C1141 1.390 . S
C1137 C1131 1.465 . S
C1137 C1136 1.396 1_554 S
C1137 C1138 1.399 . S
C1138 H1124 0.929 . S
C1138 C1137 1.399 . S
C1138 C1139 1.385 . S
C1139 H1125 0.931 . S
C1139 C1138 1.385 . S
C1139 C1140 1.389 . S
C1140 C1139 1.389 . S
C1140 C1141 1.387 1_554 S
C1141 H1126 0.930 . S
C1141 C1136 1.390 . S
C1141 C1140 1.387 1_556 S
H1142 C1154 0.930 . S
H1143 C1156 0.930 . S
H1144 C1157 0.930 . S
H1145 C1161 0.959 . S
H1146 C1161 0.959 . S
H1147 C1161 0.961 . S
H1148 C1162 0.960 . S
H1149 C1162 0.961 . S
H1150 C1162 0.959 . S
H1151 C1165 0.929 . S
H1152 C1166 0.931 . S
H1153 C1168 0.930 . S
C1154 H1142 0.930 . S
C1154 C1155 1.399 . S
C1154 C1159 1.399 . S
C1155 C1154 1.399 . S
C1155 C1156 1.376 . S
C1156 H1143 0.930 . S
C1156 C1155 1.376 . S
C1156 C1157 1.388 . S
C1157 H1144 0.930 . S
C1157 C1156 1.388 . S
C1157 C1158 1.390 . S
C1158 C1157 1.390 . S
C1158 C1159 1.394 . S
C1158 C1164 1.465 . S
C1159 C1154 1.399 . S
C1159 C1158 1.394 . S
C1159 C1160 1.516 . S
C1160 C1159 1.516 . S
C1160 C1161 1.502 . S
C1160 C1162 1.561 . S
C1160 C1163 1.526 . S
C1161 H1145 0.959 . S
C1161 H1146 0.959 . S
C1161 H1147 0.961 . S
C1161 C1160 1.502 . S
C1162 H1148 0.960 . S
C1162 H1149 0.961 . S
C1162 H1150 0.959 . S
C1162 C1160 1.561 . S
C1163 C1160 1.526 . S
C1163 C1164 1.396 . S
C1163 C1168 1.390 . S
C1164 C1158 1.465 . S
C1164 C1163 1.396 . S
C1164 C1165 1.399 . S
C1165 H1151 0.929 . S
C1165 C1164 1.399 . S
C1165 C1166 1.385 . S
C1166 H1152 0.931 . S
C1166 C1165 1.385 . S
C1166 C1167 1.389 . S
C1167 C1166 1.389 . S
C1167 C1168 1.387 . S
C1168 H1153 0.930 . S
C1168 C1163 1.390 . S
C1168 C1167 1.387 . S
H1169 C1181 0.930 . S
H1170 C1183 0.930 . S
H1171 C1184 0.930 . S
H1172 C1188 0.959 . S
H1173 C1188 0.959 . S
H1174 C1188 0.961 . S
H1175 C1189 0.960 . S
H1176 C1189 0.961 . S
H1177 C1189 0.959 . S
H1178 C1192 0.929 . S
H1179 C1193 0.931 . S
H1180 C1195 0.930 . S
C1181 H1169 0.930 . S
C1181 C1182 1.399 . S
C1181 C1186 1.399 . S
C1182 C1181 1.399 . S
C1182 C1183 1.376 . S
C1183 H1170 0.930 . S
C1183 C1182 1.376 . S
C1183 C1184 1.388 . S
C1184 H1171 0.930 . S
C1184 C1183 1.388 . S
C1184 C1185 1.390 . S
C1185 C1184 1.390 . S
C1185 C1186 1.394 . S
C1185 C1191 1.465 . S
C1186 C1181 1.399 . S
C1186 C1185 1.394 . S
C1186 C1187 1.516 . S
C1187 C1186 1.516 . S
C1187 C1188 1.502 . S
C1187 C1189 1.561 . S
C1187 C1190 1.526 . S
C1188 H1172 0.959 . S
C1188 H1173 0.959 . S
C1188 H1174 0.961 . S
C1188 C1187 1.502 . S
C1189 H1175 0.960 . S
C1189 H1176 0.961 . S
C1189 H1177 0.959 . S
C1189 C1187 1.561 . S
C1190 C1187 1.526 . S
C1190 C1191 1.396 . S
C1190 C1195 1.390 . S
C1191 C1185 1.465 . S
C1191 C1190 1.396 . S
C1191 C1192 1.399 . S
C1192 H1178 0.929 . S
C1192 C1191 1.399 . S
C1192 C1193 1.385 . S
C1193 H1179 0.931 . S
C1193 C1192 1.385 . S
C1193 C1194 1.389 . S
C1194 C1193 1.389 . S
C1194 C1195 1.387 . S
C1195 H1180 0.930 . S
C1195 C1190 1.390 . S
C1195 C1194 1.387 . S
H1196 C1208 0.930 . S
H1197 C1210 0.930 . S
H1198 C1211 0.930 . S
H1199 C1215 0.959 . S
H1200 C1215 0.959 . S
H1201 C1215 0.961 . S
H1202 C1216 0.960 . S
H1203 C1216 0.961 . S
H1204 C1216 0.959 . S
H1205 C1219 0.929 . S
H1206 C1220 0.931 . S
H1207 C1222 0.930 . S
C1208 H1196 0.930 . S
C1208 C1209 1.399 . S
C1208 C1213 1.399 . S
C1209 C1208 1.399 . S
C1209 C1210 1.376 . S
C1210 H1197 0.930 . S
C1210 C1209 1.376 . S
C1210 C1211 1.388 . S
C1211 H1198 0.930 . S
C1211 C1210 1.388 . S
C1211 C1212 1.390 . S
C1212 C1211 1.390 . S
C1212 C1213 1.394 . S
C1212 C1218 1.465 . S
C1213 C1208 1.399 . S
C1213 C1212 1.394 . S
C1213 C1214 1.516 . S
C1214 C1213 1.516 . S
C1214 C1215 1.502 . S
C1214 C1216 1.561 . S
C1214 C1217 1.526 . S
C1215 H1199 0.959 . S
C1215 H1200 0.959 . S
C1215 H1201 0.961 . S
C1215 C1214 1.502 . S
C1216 H1202 0.960 . S
C1216 H1203 0.961 . S
C1216 H1204 0.959 . S
C1216 C1214 1.561 . S
C1217 C1214 1.526 . S
C1217 C1218 1.396 . S
C1217 C1222 1.390 . S
C1218 C1212 1.465 . S
C1218 C1217 1.396 . S
C1218 C1219 1.399 . S
C1219 H1205 0.929 . S
C1219 C1218 1.399 . S
C1219 C1220 1.385 . S
C1220 H1206 0.931 . S
C1220 C1219 1.385 . S
C1220 C1221 1.389 . S
C1221 C1220 1.389 . S
C1221 C1222 1.387 . S
C1222 H1207 0.930 . S
C1222 C1217 1.390 . S
C1222 C1221 1.387 . S
H1223 C1235 0.930 . S
H1224 C1237 0.930 . S
H1225 C1238 0.930 . S
H1226 C1242 0.959 . S
H1227 C1242 0.959 . S
H1228 C1242 0.961 . S
H1229 C1243 0.960 . S
H1230 C1243 0.961 . S
H1231 C1243 0.959 . S
H1232 C1246 0.929 . S
H1233 C1247 0.931 . S
H1234 C1249 0.930 . S
C1235 H1223 0.930 . S
C1235 C1236 1.399 . S
C1235 C1240 1.399 . S
C1236 C1235 1.399 . S
C1236 C1237 1.376 . S
C1237 H1224 0.930 . S
C1237 C1236 1.376 . S
C1237 C1238 1.388 . S
C1238 H1225 0.930 . S
C1238 C1237 1.388 . S
C1238 C1239 1.390 . S
C1239 C1238 1.390 . S
C1239 C1240 1.394 . S
C1239 C1245 1.465 . S
C1240 C1235 1.399 . S
C1240 C1239 1.394 . S
C1240 C1241 1.516 . S
C1241 C1240 1.516 . S
C1241 C1242 1.502 . S
C1241 C1243 1.561 . S
C1241 C1244 1.526 . S
C1242 H1226 0.959 . S
C1242 H1227 0.959 . S
C1242 H1228 0.961 . S
C1242 C1241 1.502 . S
C1243 H1229 0.960 . S
C1243 H1230 0.961 . S
C1243 H1231 0.959 . S
C1243 C1241 1.561 . S
C1244 C1241 1.526 . S
C1244 C1245 1.396 . S
C1244 C1249 1.390 . S
C1245 C1239 1.465 . S
C1245 C1244 1.396 . S
C1245 C1246 1.399 . S
C1246 H1232 0.929 . S
C1246 C1245 1.399 . S
C1246 C1247 1.385 . S
C1247 H1233 0.931 . S
C1247 C1246 1.385 . S
C1247 C1248 1.389 . S
C1248 C1247 1.389 . S
C1248 C1249 1.387 . S
C1249 H1234 0.930 . S
C1249 C1244 1.390 . S
C1249 C1248 1.387 . S
H1250 C1262 0.930 . S
H1251 C1264 0.930 . S
H1252 C1265 0.930 . S
H1253 C1269 0.959 . S
H1254 C1269 0.959 . S
H1255 C1269 0.961 . S
H1256 C1270 0.960 . S
H1257 C1270 0.961 . S
H1258 C1270 0.959 . S
H1259 C1273 0.929 . S
H1260 C1274 0.931 . S
H1261 C1276 0.930 . S
C1262 H1250 0.930 . S
C1262 C1263 1.399 . S
C1262 C1267 1.399 . S
C1263 C1262 1.399 . S
C1263 C1264 1.376 . S
C1264 H1251 0.930 . S
C1264 C1263 1.376 . S
C1264 C1265 1.388 . S
C1265 H1252 0.930 . S
C1265 C1264 1.388 . S
C1265 C1266 1.390 . S
C1266 C1265 1.390 . S
C1266 C1267 1.394 . S
C1266 C1272 1.465 . S
C1267 C1262 1.399 . S
C1267 C1266 1.394 . S
C1267 C1268 1.516 . S
C1268 C1267 1.516 . S
C1268 C1269 1.502 . S
C1268 C1270 1.561 . S
C1268 C1271 1.526 . S
C1269 H1253 0.959 . S
C1269 H1254 0.959 . S
C1269 H1255 0.961 . S
C1269 C1268 1.502 . S
C1270 H1256 0.960 . S
C1270 H1257 0.961 . S
C1270 H1258 0.959 . S
C1270 C1268 1.561 . S
C1271 C1268 1.526 . S
C1271 C1272 1.396 . S
C1271 C1276 1.390 . S
C1272 C1266 1.465 . S
C1272 C1271 1.396 . S
C1272 C1273 1.399 . S
C1273 H1259 0.929 . S
C1273 C1272 1.399 . S
C1273 C1274 1.385 . S
C1274 H1260 0.931 . S
C1274 C1273 1.385 . S
C1274 C1275 1.389 . S
C1275 C1274 1.389 . S
C1275 C1276 1.387 . S
C1276 H1261 0.930 . S
C1276 C1271 1.390 . S
C1276 C1275 1.387 . S
H1277 C1289 0.930 . S
H1278 C1291 0.930 . S
H1279 C1292 0.930 . S
H1280 C1296 0.959 . S
H1281 C1296 0.959 . S
H1282 C1296 0.961 . S
H1283 C1297 0.960 . S
H1284 C1297 0.961 . S
H1285 C1297 0.959 . S
H1286 C1300 0.929 . S
H1287 C1301 0.931 . S
H1288 C1303 0.930 . S
C1289 H1277 0.930 . S
C1289 C1290 1.399 . S
C1289 C1294 1.399 . S
C1290 C1289 1.399 . S
C1290 C1291 1.376 . S
C1291 H1278 0.930 . S
C1291 C1290 1.376 . S
C1291 C1292 1.388 . S
C1292 H1279 0.930 . S
C1292 C1291 1.388 . S
C1292 C1293 1.390 . S
C1293 C1292 1.390 . S
C1293 C1294 1.394 . S
C1293 C1299 1.465 . S
C1294 C1289 1.399 . S
C1294 C1293 1.394 . S
C1294 C1295 1.516 . S
C1295 C1294 1.516 . S
C1295 C1296 1.502 . S
C1295 C1297 1.561 . S
C1295 C1298 1.526 . S
C1296 H1280 0.959 . S
C1296 H1281 0.959 . S
C1296 H1282 0.961 . S
C1296 C1295 1.502 . S
C1297 H1283 0.960 . S
C1297 H1284 0.961 . S
C1297 H1285 0.959 . S
C1297 C1295 1.561 . S
C1298 C1295 1.526 . S
C1298 C1299 1.396 . S
C1298 C1303 1.390 . S
C1299 C1293 1.465 . S
C1299 C1298 1.396 . S
C1299 C1300 1.399 . S
C1300 H1286 0.929 . S
C1300 C1299 1.399 . S
C1300 C1301 1.385 . S
C1301 H1287 0.931 . S
C1301 C1300 1.385 . S
C1301 C1302 1.389 . S
C1302 C1301 1.389 . S
C1302 C1303 1.387 . S
C1303 H1288 0.930 . S
C1303 C1298 1.390 . S
C1303 C1302 1.387 . S
H1304 C1316 0.930 1_655 S
H1305 C1318 0.930 . S
H1306 C1319 0.930 . S
H1307 C1323 0.959 . S
H1308 C1323 0.959 . S
H1309 C1323 0.961 . S
H1310 C1324 0.960 . S
H1311 C1324 0.961 . S
H1312 C1324 0.959 . S
H1313 C1327 0.929 . S
H1314 C1328 0.931 . S
H1315 C1330 0.930 1_655 S
C1316 H1304 0.930 1_455 S
C1316 C1317 1.399 . S
C1316 C1321 1.399 . S
C1317 C1316 1.399 . S
C1317 C1318 1.376 . S
C1318 H1305 0.930 . S
C1318 C1317 1.376 . S
C1318 C1319 1.388 . S
C1319 H1306 0.930 . S
C1319 C1318 1.388 . S
C1319 C1320 1.390 . S
C1320 C1319 1.390 . S
C1320 C1321 1.394 . S
C1320 C1326 1.465 . S
C1321 C1316 1.399 . S
C1321 C1320 1.394 . S
C1321 C1322 1.515 . S
C1322 C1321 1.515 . S
C1322 C1323 1.505 1_455 S
C1322 C1324 1.560 . S
C1322 C1325 1.525 . S
C1323 H1307 0.959 . S
C1323 H1308 0.959 . S
C1323 H1309 0.961 . S
C1323 C1322 1.505 1_655 S
C1324 H1310 0.960 . S
C1324 H1311 0.961 . S
C1324 H1312 0.959 . S
C1324 C1322 1.560 . S
C1325 C1322 1.525 . S
C1325 C1326 1.396 . S
C1325 C1330 1.390 . S
C1326 C1320 1.465 . S
C1326 C1325 1.396 . S
C1326 C1327 1.399 . S
C1327 H1313 0.929 . S
C1327 C1326 1.399 . S
C1327 C1328 1.385 . S
C1328 H1314 0.931 . S
C1328 C1327 1.385 . S
C1328 C1329 1.389 . S
C1329 C1328 1.389 . S
C1329 C1330 1.387 . S
C1330 H1315 0.930 1_455 S
C1330 C1325 1.390 . S
C1330 C1329 1.387 . S
H1331 C1343 0.930 . S
H1332 C1345 0.930 . S
H1333 C1346 0.930 . S
H1334 C1350 0.959 . S
H1335 C1350 0.959 . S
H1336 C1350 0.961 . S
H1337 C1351 0.960 . S
H1338 C1351 0.961 . S
H1339 C1351 0.959 . S
H1340 C1354 0.929 . S
H1341 C1355 0.931 . S
H1342 C1357 0.930 . S
C1343 H1331 0.930 . S
C1343 C1344 1.399 . S
C1343 C1348 1.399 . S
C1344 C1343 1.399 . S
C1344 C1345 1.376 . S
C1345 H1332 0.930 . S
C1345 C1344 1.376 . S
C1345 C1346 1.388 . S
C1346 H1333 0.930 . S
C1346 C1345 1.388 . S
C1346 C1347 1.390 . S
C1347 C1346 1.390 . S
C1347 C1348 1.394 . S
C1347 C1353 1.465 . S
C1348 C1343 1.399 . S
C1348 C1347 1.394 . S
C1348 C1349 1.516 . S
C1349 C1348 1.516 . S
C1349 C1350 1.502 . S
C1349 C1351 1.561 . S
C1349 C1352 1.526 . S
C1350 H1334 0.959 . S
C1350 H1335 0.959 . S
C1350 H1336 0.961 . S
C1350 C1349 1.502 . S
C1351 H1337 0.960 . S
C1351 H1338 0.961 . S
C1351 H1339 0.959 . S
C1351 C1349 1.561 . S
C1352 C1349 1.526 . S
C1352 C1353 1.396 . S
C1352 C1357 1.390 . S
C1353 C1347 1.465 . S
C1353 C1352 1.396 . S
C1353 C1354 1.399 . S
C1354 H1340 0.929 . S
C1354 C1353 1.399 . S
C1354 C1355 1.385 . S
C1355 H1341 0.931 . S
C1355 C1354 1.385 . S
C1355 C1356 1.389 . S
C1356 C1355 1.389 . S
C1356 C1357 1.387 . S
C1357 H1342 0.930 . S
C1357 C1352 1.390 . S
C1357 C1356 1.387 . S
H1358 C1370 0.930 . S
H1359 C1372 0.930 . S
H1360 C1373 0.930 . S
H1361 C1377 0.959 . S
H1362 C1377 0.959 . S
H1363 C1377 0.961 . S
H1364 C1378 0.960 . S
H1365 C1378 0.961 . S
H1366 C1378 0.959 . S
H1367 C1381 0.929 . S
H1368 C1382 0.931 . S
H1369 C1384 0.930 . S
C1370 H1358 0.930 . S
C1370 C1371 1.399 . S
C1370 C1375 1.399 . S
C1371 C1370 1.399 . S
C1371 C1372 1.376 . S
C1372 H1359 0.930 . S
C1372 C1371 1.376 . S
C1372 C1373 1.388 . S
C1373 H1360 0.930 . S
C1373 C1372 1.388 . S
C1373 C1374 1.390 . S
C1374 C1373 1.390 . S
C1374 C1375 1.394 . S
C1374 C1380 1.465 . S
C1375 C1370 1.399 . S
C1375 C1374 1.394 . S
C1375 C1376 1.516 . S
C1376 C1375 1.516 . S
C1376 C1377 1.502 . S
C1376 C1378 1.561 . S
C1376 C1379 1.526 . S
C1377 H1361 0.959 . S
C1377 H1362 0.959 . S
C1377 H1363 0.961 . S
C1377 C1376 1.502 . S
C1378 H1364 0.960 . S
C1378 H1365 0.961 . S
C1378 H1366 0.959 . S
C1378 C1376 1.561 . S
C1379 C1376 1.526 . S
C1379 C1380 1.396 . S
C1379 C1384 1.390 . S
C1380 C1374 1.465 . S
C1380 C1379 1.396 . S
C1380 C1381 1.399 . S
C1381 H1367 0.929 . S
C1381 C1380 1.399 . S
C1381 C1382 1.385 . S
C1382 H1368 0.931 . S
C1382 C1381 1.385 . S
C1382 C1383 1.389 . S
C1383 C1382 1.389 . S
C1383 C1384 1.387 . S
C1384 H1369 0.930 . S
C1384 C1379 1.390 . S
C1384 C1383 1.387 . S
H1385 C1397 0.930 . S
H1386 C1399 0.930 . S
H1387 C1400 0.930 . S
H1388 C1404 0.959 . S
H1389 C1404 0.959 . S
H1390 C1404 0.961 . S
H1391 C1405 0.960 . S
H1392 C1405 0.961 . S
H1393 C1405 0.959 . S
H1394 C1408 0.929 . S
H1395 C1409 0.931 . S
H1396 C1411 0.930 . S
C1397 H1385 0.930 . S
C1397 C1398 1.399 . S
C1397 C1402 1.399 . S
C1398 C1397 1.399 . S
C1398 C1399 1.376 . S
C1399 H1386 0.930 . S
C1399 C1398 1.376 . S
C1399 C1400 1.388 . S
C1400 H1387 0.930 . S
C1400 C1399 1.388 . S
C1400 C1401 1.390 . S
C1401 C1400 1.390 . S
C1401 C1402 1.394 . S
C1401 C1407 1.465 . S
C1402 C1397 1.399 . S
C1402 C1401 1.394 . S
C1402 C1403 1.516 . S
C1403 C1402 1.516 . S
C1403 C1404 1.502 . S
C1403 C1405 1.561 . S
C1403 C1406 1.526 . S
C1404 H1388 0.959 . S
C1404 H1389 0.959 . S
C1404 H1390 0.961 . S
C1404 C1403 1.502 . S
C1405 H1391 0.960 . S
C1405 H1392 0.961 . S
C1405 H1393 0.959 . S
C1405 C1403 1.561 . S
C1406 C1403 1.526 . S
C1406 C1407 1.396 . S
C1406 C1411 1.390 . S
C1407 C1401 1.465 . S
C1407 C1406 1.396 . S
C1407 C1408 1.399 . S
C1408 H1394 0.929 . S
C1408 C1407 1.399 . S
C1408 C1409 1.385 . S
C1409 H1395 0.931 . S
C1409 C1408 1.385 . S
C1409 C1410 1.389 . S
C1410 C1409 1.389 . S
C1410 C1411 1.387 . S
C1411 H1396 0.930 . S
C1411 C1406 1.390 . S
C1411 C1410 1.387 . S
H1412 C1424 0.930 1_655 S
H1413 C1426 0.930 . S
H1414 C1427 0.930 . S
H1415 C1431 0.959 . S
H1416 C1431 0.959 . S
H1417 C1431 0.961 . S
H1418 C1432 0.960 . S
H1419 C1432 0.961 . S
H1420 C1432 0.959 . S
H1421 C1435 0.929 . S
H1422 C1436 0.931 . S
H1423 C1438 0.930 . S
C1424 H1412 0.930 1_455 S
C1424 C1425 1.399 . S
C1424 C1429 1.399 . S
C1425 C1424 1.399 . S
C1425 C1426 1.376 . S
C1426 H1413 0.930 . S
C1426 C1425 1.376 . S
C1426 C1427 1.388 . S
C1427 H1414 0.930 . S
C1427 C1426 1.388 . S
C1427 C1428 1.390 . S
C1428 C1427 1.390 . S
C1428 C1429 1.394 . S
C1428 C1434 1.465 . S
C1429 C1424 1.399 . S
C1429 C1428 1.394 . S
C1429 C1430 1.516 1_455 S
C1430 C1429 1.516 1_655 S
C1430 C1431 1.502 . S
C1430 C1432 1.561 1_655 S
C1430 C1433 1.526 1_655 S
C1431 H1415 0.959 . S
C1431 H1416 0.959 . S
C1431 H1417 0.961 . S
C1431 C1430 1.502 . S
C1432 H1418 0.960 . S
C1432 H1419 0.961 . S
C1432 H1420 0.959 . S
C1432 C1430 1.561 1_455 S
C1433 C1430 1.526 1_455 S
C1433 C1434 1.396 . S
C1433 C1438 1.390 1_455 S
C1434 C1428 1.465 . S
C1434 C1433 1.396 . S
C1434 C1435 1.399 . S
C1435 H1421 0.929 . S
C1435 C1434 1.399 . S
C1435 C1436 1.385 . S
C1436 H1422 0.931 . S
C1436 C1435 1.385 . S
C1436 C1437 1.389 . S
C1437 C1436 1.389 . S
C1437 C1438 1.387 1_455 S
C1438 H1423 0.930 . S
C1438 C1433 1.390 1_655 S
C1438 C1437 1.387 1_655 S
H1439 C1451 0.930 . S
H1440 C1453 0.930 . S
H1441 C1454 0.930 . S
H1442 C1458 0.959 . S
H1443 C1458 0.959 . S
H1444 C1458 0.961 . S
H1445 C1459 0.960 . S
H1446 C1459 0.961 . S
H1447 C1459 0.959 . S
H1448 C1462 0.929 . S
H1449 C1463 0.931 . S
H1450 C1465 0.930 . S
C1451 H1439 0.930 . S
C1451 C1452 1.399 . S
C1451 C1456 1.399 . S
C1452 C1451 1.399 . S
C1452 C1453 1.376 . S
C1453 H1440 0.930 . S
C1453 C1452 1.376 . S
C1453 C1454 1.388 . S
C1454 H1441 0.930 . S
C1454 C1453 1.388 . S
C1454 C1455 1.390 . S
C1455 C1454 1.390 . S
C1455 C1456 1.394 . S
C1455 C1461 1.465 . S
C1456 C1451 1.399 . S
C1456 C1455 1.394 . S
C1456 C1457 1.516 . S
C1457 C1456 1.516 . S
C1457 C1458 1.502 . S
C1457 C1459 1.561 . S
C1457 C1460 1.526 . S
C1458 H1442 0.959 . S
C1458 H1443 0.959 . S
C1458 H1444 0.961 . S
C1458 C1457 1.502 . S
C1459 H1445 0.960 . S
C1459 H1446 0.961 . S
C1459 H1447 0.959 . S
C1459 C1457 1.561 . S
C1460 C1457 1.526 . S
C1460 C1461 1.396 . S
C1460 C1465 1.390 . S
C1461 C1455 1.465 . S
C1461 C1460 1.396 . S
C1461 C1462 1.399 . S
C1462 H1448 0.929 . S
C1462 C1461 1.399 . S
C1462 C1463 1.385 . S
C1463 H1449 0.931 . S
C1463 C1462 1.385 . S
C1463 C1464 1.389 . S
C1464 C1463 1.389 . S
C1464 C1465 1.387 . S
C1465 H1450 0.930 . S
C1465 C1460 1.390 . S
C1465 C1464 1.387 . S
H1466 C1478 0.930 . S
H1467 C1480 0.930 . S
H1468 C1481 0.930 . S
H1469 C1485 0.959 . S
H1470 C1485 0.959 . S
H1471 C1485 0.961 . S
H1472 C1486 0.960 . S
H1473 C1486 0.961 . S
H1474 C1486 0.959 . S
H1475 C1489 0.929 1_554 S
H1476 C1490 0.931 . S
H1477 C1492 0.930 . S
C1478 H1466 0.930 . S
C1478 C1479 1.399 . S
C1478 C1483 1.399 . S
C1479 C1478 1.399 . S
C1479 C1480 1.376 . S
C1480 H1467 0.930 . S
C1480 C1479 1.376 . S
C1480 C1481 1.388 . S
C1481 H1468 0.930 . S
C1481 C1480 1.388 . S
C1481 C1482 1.390 . S
C1482 C1481 1.390 . S
C1482 C1483 1.394 . S
C1482 C1488 1.465 . S
C1483 C1478 1.399 . S
C1483 C1482 1.394 . S
C1483 C1484 1.516 . S
C1484 C1483 1.516 . S
C1484 C1485 1.502 . S
C1484 C1486 1.561 . S
C1484 C1487 1.526 . S
C1485 H1469 0.959 . S
C1485 H1470 0.959 . S
C1485 H1471 0.961 . S
C1485 C1484 1.502 . S
C1486 H1472 0.960 . S
C1486 H1473 0.961 . S
C1486 H1474 0.959 . S
C1486 C1484 1.561 . S
C1487 C1484 1.526 . S
C1487 C1488 1.396 . S
C1487 C1492 1.390 . S
C1488 C1482 1.465 . S
C1488 C1487 1.396 . S
C1488 C1489 1.399 . S
C1489 H1475 0.929 1_556 S
C1489 C1488 1.399 . S
C1489 C1490 1.385 1_556 S
C1490 H1476 0.931 . S
C1490 C1489 1.385 1_554 S
C1490 C1491 1.389 1_554 S
C1491 C1490 1.389 1_556 S
C1491 C1492 1.387 . S
C1492 H1477 0.930 . S
C1492 C1487 1.390 . S
C1492 C1491 1.387 . S
H1493 C1505 0.930 . S
H1494 C1507 0.930 . S
H1495 C1508 0.930 . S
H1496 C1512 0.959 . S
H1497 C1512 0.959 . S
H1498 C1512 0.961 . S
H1499 C1513 0.960 . S
H1500 C1513 0.961 . S
H1501 C1513 0.959 . S
H1502 C1516 0.929 . S
H1503 C1517 0.931 . S
H1504 C1519 0.930 . S
C1505 H1493 0.930 . S
C1505 C1506 1.399 . S
C1505 C1510 1.399 . S
C1506 C1505 1.399 . S
C1506 C1507 1.376 . S
C1507 H1494 0.930 . S
C1507 C1506 1.376 . S
C1507 C1508 1.388 . S
C1508 H1495 0.930 . S
C1508 C1507 1.388 . S
C1508 C1509 1.390 . S
C1509 C1508 1.390 . S
C1509 C1510 1.394 . S
C1509 C1515 1.465 . S
C1510 C1505 1.399 . S
C1510 C1509 1.394 . S
C1510 C1511 1.516 . S
C1511 C1510 1.516 . S
C1511 C1512 1.502 . S
C1511 C1513 1.561 . S
C1511 C1514 1.526 . S
C1512 H1496 0.959 . S
C1512 H1497 0.959 . S
C1512 H1498 0.961 . S
C1512 C1511 1.502 . S
C1513 H1499 0.960 . S
C1513 H1500 0.961 . S
C1513 H1501 0.959 . S
C1513 C1511 1.561 . S
C1514 C1511 1.526 . S
C1514 C1515 1.396 . S
C1514 C1519 1.390 . S
C1515 C1509 1.465 . S
C1515 C1514 1.396 . S
C1515 C1516 1.399 . S
C1516 H1502 0.929 . S
C1516 C1515 1.399 . S
C1516 C1517 1.385 . S
C1517 H1503 0.931 . S
C1517 C1516 1.385 . S
C1517 C1518 1.389 . S
C1518 C1517 1.389 . S
C1518 C1519 1.387 . S
C1519 H1504 0.930 . S
C1519 C1514 1.390 . S
C1519 C1518 1.387 . S
H1520 C1532 0.930 . S
H1521 C1534 0.930 . S
H1522 C1535 0.930 . S
H1523 C1539 0.959 . S
H1524 C1539 0.959 . S
H1525 C1539 0.961 . S
H1526 C1540 0.960 . S
H1527 C1540 0.961 . S
H1528 C1540 0.959 . S
H1529 C1543 0.929 . S
H1530 C1544 0.931 . S
H1531 C1546 0.930 . S
C1532 H1520 0.930 . S
C1532 C1533 1.397 1_545 S
C1532 C1537 1.399 . S
C1533 C1532 1.397 1_565 S
C1533 C1534 1.379 . S
C1534 H1521 0.930 . S
C1534 C1533 1.379 . S
C1534 C1535 1.388 . S
C1535 H1522 0.930 . S
C1535 C1534 1.388 . S
C1535 C1536 1.390 . S
C1536 C1535 1.390 . S
C1536 C1537 1.394 1_565 S
C1536 C1542 1.465 . S
C1537 C1532 1.399 . S
C1537 C1536 1.394 1_545 S
C1537 C1538 1.516 . S
C1538 C1537 1.516 . S
C1538 C1539 1.502 . S
C1538 C1540 1.561 . S
C1538 C1541 1.526 . S
C1539 H1523 0.959 . S
C1539 H1524 0.959 . S
C1539 H1525 0.961 . S
C1539 C1538 1.502 . S
C1540 H1526 0.960 . S
C1540 H1527 0.961 . S
C1540 H1528 0.959 . S
C1540 C1538 1.561 . S
C1541 C1538 1.526 . S
C1541 C1542 1.396 1_545 S
C1541 C1546 1.390 . S
C1542 C1536 1.465 . S
C1542 C1541 1.396 1_565 S
C1542 C1543 1.399 . S
C1543 H1529 0.929 . S
C1543 C1542 1.399 . S
C1543 C1544 1.385 . S
C1544 H1530 0.931 . S
C1544 C1543 1.385 . S
C1544 C1545 1.389 1_565 S
C1545 C1544 1.389 1_545 S
C1545 C1546 1.387 . S
C1546 H1531 0.930 . S
C1546 C1541 1.390 . S
C1546 C1545 1.387 . S
H1547 C1559 0.930 . S
H1548 C1561 0.930 . S
H1549 C1562 0.930 . S
H1550 C1566 0.959 . S
H1551 C1566 0.959 . S
H1552 C1566 0.961 . S
H1553 C1567 0.960 . S
H1554 C1567 0.961 . S
H1555 C1567 0.959 . S
H1556 C1570 0.929 . S
H1557 C1571 0.931 . S
H1558 C1573 0.930 . S
C1559 H1547 0.930 . S
C1559 C1560 1.399 . S
C1559 C1564 1.399 . S
C1560 C1559 1.399 . S
C1560 C1561 1.376 . S
C1561 H1548 0.930 . S
C1561 C1560 1.376 . S
C1561 C1562 1.388 . S
C1562 H1549 0.930 . S
C1562 C1561 1.388 . S
C1562 C1563 1.390 . S
C1563 C1562 1.390 . S
C1563 C1564 1.394 . S
C1563 C1569 1.465 . S
C1564 C1559 1.399 . S
C1564 C1563 1.394 . S
C1564 C1565 1.516 . S
C1565 C1564 1.516 . S
C1565 C1566 1.502 . S
C1565 C1567 1.561 . S
C1565 C1568 1.526 . S
C1566 H1550 0.959 . S
C1566 H1551 0.959 . S
C1566 H1552 0.961 . S
C1566 C1565 1.502 . S
C1567 H1553 0.960 . S
C1567 H1554 0.961 . S
C1567 H1555 0.959 . S
C1567 C1565 1.561 . S
C1568 C1565 1.526 . S
C1568 C1569 1.396 . S
C1568 C1573 1.390 . S
C1569 C1563 1.465 . S
C1569 C1568 1.396 . S
C1569 C1570 1.399 . S
C1570 H1556 0.929 . S
C1570 C1569 1.399 . S
C1570 C1571 1.385 . S
C1571 H1557 0.931 . S
C1571 C1570 1.385 . S
C1571 C1572 1.389 . S
C1572 C1571 1.389 . S
C1572 C1573 1.387 . S
C1573 H1558 0.930 . S
C1573 C1568 1.390 . S
C1573 C1572 1.387 . S
H1574 C1586 0.930 . S
H1575 C1588 0.930 . S
H1576 C1589 0.930 . S
H1577 C1593 0.959 . S
H1578 C1593 0.959 . S
H1579 C1593 0.961 . S
H1580 C1594 0.960 . S
H1581 C1594 0.961 . S
H1582 C1594 0.959 . S
H1583 C1597 0.929 1_565 S
H1584 C1598 0.931 1_565 S
H1585 C1600 0.930 . S
C1586 H1574 0.930 . S
C1586 C1587 1.399 . S
C1586 C1591 1.399 . S
C1587 C1586 1.399 . S
C1587 C1588 1.376 . S
C1588 H1575 0.930 . S
C1588 C1587 1.376 . S
C1588 C1589 1.388 . S
C1589 H1576 0.930 . S
C1589 C1588 1.388 . S
C1589 C1590 1.390 . S
C1590 C1589 1.390 . S
C1590 C1591 1.394 . S
C1590 C1596 1.465 . S
C1591 C1586 1.399 . S
C1591 C1590 1.394 . S
C1591 C1592 1.516 . S
C1592 C1591 1.516 . S
C1592 C1593 1.502 . S
C1592 C1594 1.561 . S
C1592 C1595 1.526 . S
C1593 H1577 0.959 . S
C1593 H1578 0.959 . S
C1593 H1579 0.961 . S
C1593 C1592 1.502 . S
C1594 H1580 0.960 . S
C1594 H1581 0.961 . S
C1594 H1582 0.959 . S
C1594 C1592 1.561 . S
C1595 C1592 1.526 . S
C1595 C1596 1.396 . S
C1595 C1600 1.390 . S
C1596 C1590 1.465 . S
C1596 C1595 1.396 . S
C1596 C1597 1.399 . S
C1597 H1583 0.929 1_545 S
C1597 C1596 1.399 . S
C1597 C1598 1.385 . S
C1598 H1584 0.931 1_545 S
C1598 C1597 1.385 . S
C1598 C1599 1.389 . S
C1599 C1598 1.389 . S
C1599 C1600 1.387 . S
C1600 H1585 0.930 . S
C1600 C1595 1.390 . S
C1600 C1599 1.387 . S
H1601 C1613 0.930 . S
H1602 C1615 0.930 . S
H1603 C1616 0.930 . S
H1604 C1620 0.959 . S
H1605 C1620 0.959 . S
H1606 C1620 0.961 . S
H1607 C1621 0.960 . S
H1608 C1621 0.961 . S
H1609 C1621 0.959 . S
H1610 C1624 0.929 . S
H1611 C1625 0.931 . S
H1612 C1627 0.930 . S
C1613 H1601 0.930 . S
C1613 C1614 1.399 . S
C1613 C1618 1.399 . S
C1614 C1613 1.399 . S
C1614 C1615 1.376 . S
C1615 H1602 0.930 . S
C1615 C1614 1.376 . S
C1615 C1616 1.388 . S
C1616 H1603 0.930 . S
C1616 C1615 1.388 . S
C1616 C1617 1.390 . S
C1617 C1616 1.390 . S
C1617 C1618 1.394 . S
C1617 C1623 1.465 . S
C1618 C1613 1.399 . S
C1618 C1617 1.394 . S
C1618 C1619 1.516 . S
C1619 C1618 1.516 . S
C1619 C1620 1.502 . S
C1619 C1621 1.561 . S
C1619 C1622 1.526 . S
C1620 H1604 0.959 . S
C1620 H1605 0.959 . S
C1620 H1606 0.961 . S
C1620 C1619 1.502 . S
C1621 H1607 0.960 . S
C1621 H1608 0.961 . S
C1621 H1609 0.959 . S
C1621 C1619 1.561 . S
C1622 C1619 1.526 . S
C1622 C1623 1.396 . S
C1622 C1627 1.390 . S
C1623 C1617 1.465 . S
C1623 C1622 1.396 . S
C1623 C1624 1.399 . S
C1624 H1610 0.929 . S
C1624 C1623 1.399 . S
C1624 C1625 1.385 . S
C1625 H1611 0.931 . S
C1625 C1624 1.385 . S
C1625 C1626 1.389 . S
C1626 C1625 1.389 . S
C1626 C1627 1.387 . S
C1627 H1612 0.930 . S
C1627 C1622 1.390 . S
C1627 C1626 1.387 . S
H1628 C1640 0.930 . S
H1629 C1642 0.930 . S
H1630 C1643 0.930 . S
H1631 C1647 0.959 . S
H1632 C1647 0.959 . S
H1633 C1647 0.961 . S
H1634 C1648 0.960 . S
H1635 C1648 0.961 . S
H1636 C1648 0.959 . S
H1637 C1651 0.929 . S
H1638 C1652 0.931 . S
H1639 C1654 0.930 1_565 S
C1640 H1628 0.930 . S
C1640 C1641 1.399 . S
C1640 C1645 1.399 . S
C1641 C1640 1.399 . S
C1641 C1642 1.377 1_565 S
C1642 H1629 0.930 . S
C1642 C1641 1.377 1_545 S
C1642 C1643 1.388 . S
C1643 H1630 0.930 . S
C1643 C1642 1.388 . S
C1643 C1644 1.390 . S
C1644 C1643 1.390 . S
C1644 C1645 1.394 1_545 S
C1644 C1650 1.465 . S
C1645 C1640 1.399 . S
C1645 C1644 1.394 1_565 S
C1645 C1646 1.516 . S
C1646 C1645 1.516 . S
C1646 C1647 1.502 . S
C1646 C1648 1.561 . S
C1646 C1649 1.526 1_565 S
C1647 H1631 0.959 . S
C1647 H1632 0.959 . S
C1647 H1633 0.961 . S
C1647 C1646 1.502 . S
C1648 H1634 0.960 . S
C1648 H1635 0.961 . S
C1648 H1636 0.959 . S
C1648 C1646 1.561 . S
C1649 C1646 1.526 1_545 S
C1649 C1650 1.396 . S
C1649 C1654 1.390 . S
C1650 C1644 1.465 . S
C1650 C1649 1.396 . S
C1650 C1651 1.399 . S
C1651 H1637 0.929 . S
C1651 C1650 1.399 . S
C1651 C1652 1.385 . S
C1652 H1638 0.931 . S
C1652 C1651 1.385 . S
C1652 C1653 1.389 . S
C1653 C1652 1.389 . S
C1653 C1654 1.387 . S
C1654 H1639 0.930 1_545 S
C1654 C1649 1.390 . S
C1654 C1653 1.387 . S
H1655 C1667 0.930 . S
H1656 C1669 0.930 . S
H1657 C1670 0.930 . S
H1658 C1674 0.959 . S
H1659 C1674 0.959 . S
H1660 C1674 0.961 . S
H1661 C1675 0.960 . S
H1662 C1675 0.961 . S
H1663 C1675 0.959 . S
H1664 C1678 0.929 . S
H1665 C1679 0.931 . S
H1666 C1681 0.930 . S
C1667 H1655 0.930 . S
C1667 C1668 1.399 . S
C1667 C1672 1.399 . S
C1668 C1667 1.399 . S
C1668 C1669 1.376 . S
C1669 H1656 0.930 . S
C1669 C1668 1.376 . S
C1669 C1670 1.388 . S
C1670 H1657 0.930 . S
C1670 C1669 1.388 . S
C1670 C1671 1.390 . S
C1671 C1670 1.390 . S
C1671 C1672 1.394 . S
C1671 C1677 1.465 . S
C1672 C1667 1.399 . S
C1672 C1671 1.394 . S
C1672 C1673 1.516 . S
C1673 C1672 1.516 . S
C1673 C1674 1.502 . S
C1673 C1675 1.561 . S
C1673 C1676 1.526 . S
C1674 H1658 0.959 . S
C1674 H1659 0.959 . S
C1674 H1660 0.961 . S
C1674 C1673 1.502 . S
C1675 H1661 0.960 . S
C1675 H1662 0.961 . S
C1675 H1663 0.959 . S
C1675 C1673 1.561 . S
C1676 C1673 1.526 . S
C1676 C1677 1.396 . S
C1676 C1681 1.390 . S
C1677 C1671 1.465 . S
C1677 C1676 1.396 . S
C1677 C1678 1.399 . S
C1678 H1664 0.929 . S
C1678 C1677 1.399 . S
C1678 C1679 1.385 . S
C1679 H1665 0.931 . S
C1679 C1678 1.385 . S
C1679 C1680 1.389 . S
C1680 C1679 1.389 . S
C1680 C1681 1.387 . S
C1681 H1666 0.930 . S
C1681 C1676 1.390 . S
C1681 C1680 1.387 . S
H1682 C1694 0.930 . S
H1683 C1696 0.930 . S
H1684 C1697 0.930 . S
H1685 C1701 0.932 1_545 S
H1686 C1701 0.987 . S
H1687 C1701 0.977 . S
H1688 C1702 0.960 . S
H1689 C1702 0.961 . S
H1690 C1702 0.959 . S
H1691 C1705 0.929 . S
H1692 C1706 0.931 . S
H1693 C1708 0.930 1_565 S
C1694 H1682 0.930 . S
C1694 C1695 1.399 . S
C1694 C1699 1.399 . S
C1695 C1694 1.399 . S
C1695 C1696 1.376 . S
C1696 H1683 0.930 . S
C1696 C1695 1.376 . S
C1696 C1697 1.388 . S
C1697 H1684 0.930 . S
C1697 C1696 1.388 . S
C1697 C1698 1.390 . S
C1698 C1697 1.390 . S
C1698 C1699 1.394 . S
C1698 C1704 1.465 . S
C1699 C1694 1.399 . S
C1699 C1698 1.394 . S
C1699 C1700 1.516 . S
C1700 C1699 1.516 . S
C1700 C1701 1.486 1_545 S
C1700 C1702 1.561 1_545 S
C1700 C1703 1.526 . S
C1701 H1685 0.932 1_565 S
C1701 H1686 0.987 . S
C1701 H1687 0.977 . S
C1701 C1700 1.486 1_565 S
C1702 H1688 0.960 . S
C1702 H1689 0.961 . S
C1702 H1690 0.959 . S
C1702 C1700 1.561 1_565 S
C1703 C1700 1.526 . S
C1703 C1704 1.396 . S
C1703 C1708 1.390 . S
C1704 C1698 1.465 . S
C1704 C1703 1.396 . S
C1704 C1705 1.399 . S
C1705 H1691 0.929 . S
C1705 C1704 1.399 . S
C1705 C1706 1.385 . S
C1706 H1692 0.931 . S
C1706 C1705 1.385 . S
C1706 C1707 1.389 . S
C1707 C1706 1.389 . S
C1707 C1708 1.387 . S
C1708 H1693 0.930 1_545 S
C1708 C1703 1.390 . S
C1708 C1707 1.387 . S
H1709 C1721 0.930 . S
H1710 C1723 0.930 . S
H1711 C1724 0.930 . S
H1712 C1728 0.959 . S
H1713 C1728 0.959 . S
H1714 C1728 0.961 . S
H1715 C1729 0.960 . S
H1716 C1729 0.961 . S
H1717 C1729 0.959 . S
H1718 C1732 0.929 . S
H1719 C1733 0.931 . S
H1720 C1735 0.930 . S
C1721 H1709 0.930 . S
C1721 C1722 1.399 . S
C1721 C1726 1.399 . S
C1722 C1721 1.399 . S
C1722 C1723 1.376 . S
C1723 H1710 0.930 . S
C1723 C1722 1.376 . S
C1723 C1724 1.388 . S
C1724 H1711 0.930 . S
C1724 C1723 1.388 . S
C1724 C1725 1.390 . S
C1725 C1724 1.390 . S
C1725 C1726 1.394 . S
C1725 C1731 1.465 . S
C1726 C1721 1.399 . S
C1726 C1725 1.394 . S
C1726 C1727 1.516 . S
C1727 C1726 1.516 . S
C1727 C1728 1.502 . S
C1727 C1729 1.561 . S
C1727 C1730 1.526 . S
C1728 H1712 0.959 . S
C1728 H1713 0.959 . S
C1728 H1714 0.961 . S
C1728 C1727 1.502 . S
C1729 H1715 0.960 . S
C1729 H1716 0.961 . S
C1729 H1717 0.959 . S
C1729 C1727 1.561 . S
C1730 C1727 1.526 . S
C1730 C1731 1.396 . S
C1730 C1735 1.390 . S
C1731 C1725 1.465 . S
C1731 C1730 1.396 . S
C1731 C1732 1.399 . S
C1732 H1718 0.929 . S
C1732 C1731 1.399 . S
C1732 C1733 1.385 . S
C1733 H1719 0.931 . S
C1733 C1732 1.385 . S
C1733 C1734 1.389 . S
C1734 C1733 1.389 . S
C1734 C1735 1.387 . S
C1735 H1720 0.930 . S
C1735 C1730 1.390 . S
C1735 C1734 1.387 . S
H1736 C1748 0.930 . S
H1737 C1750 0.930 . S
H1738 C1751 0.930 . S
H1739 C1755 0.959 . S
H1740 C1755 0.959 . S
H1741 C1755 0.961 . S
H1742 C1756 0.960 . S
H1743 C1756 0.961 . S
H1744 C1756 0.959 . S
H1745 C1759 0.929 . S
H1746 C1760 0.931 . S
H1747 C1762 0.930 . S
C1748 H1736 0.930 . S
C1748 C1749 1.399 1_556 S
C1748 C1753 1.399 . S
C1749 C1748 1.399 1_554 S
C1749 C1750 1.376 . S
C1750 H1737 0.930 . S
C1750 C1749 1.376 . S
C1750 C1751 1.388 . S
C1751 H1738 0.930 . S
C1751 C1750 1.388 . S
C1751 C1752 1.390 . S
C1752 C1751 1.390 . S
C1752 C1753 1.394 1_554 S
C1752 C1758 1.465 . S
C1753 C1748 1.399 . S
C1753 C1752 1.394 1_556 S
C1753 C1754 1.516 . S
C1754 C1753 1.516 . S
C1754 C1755 1.502 . S
C1754 C1756 1.561 . S
C1754 C1757 1.526 . S
C1755 H1739 0.959 . S
C1755 H1740 0.959 . S
C1755 H1741 0.961 . S
C1755 C1754 1.502 . S
C1756 H1742 0.960 . S
C1756 H1743 0.961 . S
C1756 H1744 0.959 . S
C1756 C1754 1.561 . S
C1757 C1754 1.526 . S
C1757 C1758 1.396 1_556 S
C1757 C1762 1.390 . S
C1758 C1752 1.465 . S
C1758 C1757 1.396 1_554 S
C1758 C1759 1.399 . S
C1759 H1745 0.929 . S
C1759 C1758 1.399 . S
C1759 C1760 1.385 . S
C1760 H1746 0.931 . S
C1760 C1759 1.385 . S
C1760 C1761 1.389 1_554 S
C1761 C1760 1.389 1_556 S
C1761 C1762 1.387 . S
C1762 H1747 0.930 . S
C1762 C1757 1.390 . S
C1762 C1761 1.387 . S
H1763 C1775 0.930 . S
H1764 C1777 0.930 . S
H1765 C1778 0.930 . S
H1766 C1782 0.959 . S
H1767 C1782 0.959 1_556 S
H1768 C1782 0.961 . S
H1769 C1783 0.960 . S
H1770 C1783 0.961 . S
H1771 C1783 0.959 . S
H1772 C1786 0.929 . S
H1773 C1787 0.931 . S
H1774 C1789 0.930 . S
C1775 H1763 0.930 . S
C1775 C1776 1.399 . S
C1775 C1780 1.399 . S
C1776 C1775 1.399 . S
C1776 C1777 1.376 . S
C1777 H1764 0.930 . S
C1777 C1776 1.376 . S
C1777 C1778 1.388 . S
C1778 H1765 0.930 . S
C1778 C1777 1.388 . S
C1778 C1779 1.390 . S
C1779 C1778 1.390 . S
C1779 C1780 1.394 . S
C1779 C1785 1.465 . S
C1780 C1775 1.399 . S
C1780 C1779 1.394 . S
C1780 C1781 1.516 . S
C1781 C1780 1.516 . S
C1781 C1782 1.502 . S
C1781 C1783 1.561 1_554 S
C1781 C1784 1.526 . S
C1782 H1766 0.959 . S
C1782 H1767 0.959 1_554 S
C1782 H1768 0.961 . S
C1782 C1781 1.502 . S
C1783 H1769 0.960 . S
C1783 H1770 0.961 . S
C1783 H1771 0.959 . S
C1783 C1781 1.561 1_556 S
C1784 C1781 1.526 . S
C1784 C1785 1.396 . S
C1784 C1789 1.390 . S
C1785 C1779 1.465 . S
C1785 C1784 1.396 . S
C1785 C1786 1.399 . S
C1786 H1772 0.929 . S
C1786 C1785 1.399 . S
C1786 C1787 1.385 . S
C1787 H1773 0.931 . S
C1787 C1786 1.385 . S
C1787 C1788 1.389 . S
C1788 C1787 1.389 . S
C1788 C1789 1.387 . S
C1789 H1774 0.930 . S
C1789 C1784 1.390 . S
C1789 C1788 1.387 . S
H1790 C1802 0.930 . S
H1791 C1804 0.930 . S
H1792 C1805 0.930 . S
H1793 C1809 0.959 . S
H1794 C1809 0.959 . S
H1795 C1809 0.961 . S
H1796 C1810 0.960 . S
H1797 C1810 0.961 . S
H1798 C1810 0.959 . S
H1799 C1813 0.929 . S
H1800 C1814 0.931 . S
H1801 C1816 0.930 . S
C1802 H1790 0.930 . S
C1802 C1803 1.399 . S
C1802 C1807 1.399 . S
C1803 C1802 1.399 . S
C1803 C1804 1.376 . S
C1804 H1791 0.930 . S
C1804 C1803 1.376 . S
C1804 C1805 1.388 . S
C1805 H1792 0.930 . S
C1805 C1804 1.388 . S
C1805 C1806 1.390 . S
C1806 C1805 1.390 . S
C1806 C1807 1.394 . S
C1806 C1812 1.465 . S
C1807 C1802 1.399 . S
C1807 C1806 1.394 . S
C1807 C1808 1.516 . S
C1808 C1807 1.516 . S
C1808 C1809 1.502 . S
C1808 C1810 1.561 . S
C1808 C1811 1.526 . S
C1809 H1793 0.959 . S
C1809 H1794 0.959 . S
C1809 H1795 0.961 . S
C1809 C1808 1.502 . S
C1810 H1796 0.960 . S
C1810 H1797 0.961 . S
C1810 H1798 0.959 . S
C1810 C1808 1.561 . S
C1811 C1808 1.526 . S
C1811 C1812 1.396 . S
C1811 C1816 1.390 . S
C1812 C1806 1.465 . S
C1812 C1811 1.396 . S
C1812 C1813 1.399 . S
C1813 H1799 0.929 . S
C1813 C1812 1.399 . S
C1813 C1814 1.385 . S
C1814 H1800 0.931 . S
C1814 C1813 1.385 . S
C1814 C1815 1.389 . S
C1815 C1814 1.389 . S
C1815 C1816 1.387 . S
C1816 H1801 0.930 . S
C1816 C1811 1.390 . S
C1816 C1815 1.387 . S
H1817 C1829 0.930 . S
H1818 C1831 0.930 . S
H1819 C1832 0.930 . S
H1820 C1836 0.959 . S
H1821 C1836 0.959 . S
H1822 C1836 0.961 . S
H1823 C1837 0.960 . S
H1824 C1837 0.961 . S
H1825 C1837 0.959 . S
H1826 C1840 0.929 . S
H1827 C1841 0.931 . S
H1828 C1843 0.930 . S
C1829 H1817 0.930 . S
C1829 C1830 1.399 . S
C1829 C1834 1.399 . S
C1830 C1829 1.399 . S
C1830 C1831 1.376 . S
C1831 H1818 0.930 . S
C1831 C1830 1.376 . S
C1831 C1832 1.388 . S
C1832 H1819 0.930 . S
C1832 C1831 1.388 . S
C1832 C1833 1.390 . S
C1833 C1832 1.390 . S
C1833 C1834 1.394 . S
C1833 C1839 1.465 . S
C1834 C1829 1.399 . S
C1834 C1833 1.394 . S
C1834 C1835 1.516 . S
C1835 C1834 1.516 . S
C1835 C1836 1.502 . S
C1835 C1837 1.561 . S
C1835 C1838 1.526 . S
C1836 H1820 0.959 . S
C1836 H1821 0.959 . S
C1836 H1822 0.961 . S
C1836 C1835 1.502 . S
C1837 H1823 0.960 . S
C1837 H1824 0.961 . S
C1837 H1825 0.959 . S
C1837 C1835 1.561 . S
C1838 C1835 1.526 . S
C1838 C1839 1.396 . S
C1838 C1843 1.390 . S
C1839 C1833 1.465 . S
C1839 C1838 1.396 . S
C1839 C1840 1.399 . S
C1840 H1826 0.929 . S
C1840 C1839 1.399 . S
C1840 C1841 1.385 . S
C1841 H1827 0.931 . S
C1841 C1840 1.385 . S
C1841 C1842 1.389 . S
C1842 C1841 1.389 . S
C1842 C1843 1.387 . S
C1843 H1828 0.930 . S
C1843 C1838 1.390 . S
C1843 C1842 1.387 . S
H1844 C1856 0.930 . S
H1845 C1858 0.930 . S
H1846 C1859 0.930 . S
H1847 C1863 0.959 . S
H1848 C1863 0.959 . S
H1849 C1863 0.961 . S
H1850 C1864 0.960 . S
H1851 C1864 0.961 . S
H1852 C1864 0.959 . S
H1853 C1867 0.929 . S
H1854 C1868 0.931 . S
H1855 C1870 0.930 . S
C1856 H1844 0.930 . S
C1856 C1857 1.399 . S
C1856 C1861 1.399 . S
C1857 C1856 1.399 . S
C1857 C1858 1.376 . S
C1858 H1845 0.930 . S
C1858 C1857 1.376 . S
C1858 C1859 1.388 . S
C1859 H1846 0.930 . S
C1859 C1858 1.388 . S
C1859 C1860 1.390 . S
C1860 C1859 1.390 . S
C1860 C1861 1.394 . S
C1860 C1866 1.465 . S
C1861 C1856 1.399 . S
C1861 C1860 1.394 . S
C1861 C1862 1.516 . S
C1862 C1861 1.516 . S
C1862 C1863 1.502 . S
C1862 C1864 1.561 . S
C1862 C1865 1.526 . S
C1863 H1847 0.959 . S
C1863 H1848 0.959 . S
C1863 H1849 0.961 . S
C1863 C1862 1.502 . S
C1864 H1850 0.960 . S
C1864 H1851 0.961 . S
C1864 H1852 0.959 . S
C1864 C1862 1.561 . S
C1865 C1862 1.526 . S
C1865 C1866 1.396 . S
C1865 C1870 1.390 . S
C1866 C1860 1.465 . S
C1866 C1865 1.396 . S
C1866 C1867 1.399 . S
C1867 H1853 0.929 . S
C1867 C1866 1.399 . S
C1867 C1868 1.385 . S
C1868 H1854 0.931 . S
C1868 C1867 1.385 . S
C1868 C1869 1.389 . S
C1869 C1868 1.389 . S
C1869 C1870 1.387 . S
C1870 H1855 0.930 . S
C1870 C1865 1.390 . S
C1870 C1869 1.387 . S
H1871 C1883 0.930 . S
H1872 C1885 0.930 . S
H1873 C1886 0.930 . S
H1874 C1890 0.959 . S
H1875 C1890 0.959 . S
H1876 C1890 0.961 . S
H1877 C1891 0.960 . S
H1878 C1891 0.961 1_545 S
H1879 C1891 0.959 1_545 S
H1880 C1894 0.929 . S
H1881 C1895 0.931 . S
H1882 C1897 0.930 . S
C1883 H1871 0.930 . S
C1883 C1884 1.399 . S
C1883 C1888 1.399 . S
C1884 C1883 1.399 . S
C1884 C1885 1.376 . S
C1885 H1872 0.930 . S
C1885 C1884 1.376 . S
C1885 C1886 1.388 . S
C1886 H1873 0.930 . S
C1886 C1885 1.388 . S
C1886 C1887 1.390 . S
C1887 C1886 1.390 . S
C1887 C1888 1.394 . S
C1887 C1893 1.465 . S
C1888 C1883 1.399 . S
C1888 C1887 1.394 . S
C1888 C1889 1.516 . S
C1889 C1888 1.516 . S
C1889 C1890 1.502 . S
C1889 C1891 1.561 . S
C1889 C1892 1.526 . S
C1890 H1874 0.959 . S
C1890 H1875 0.959 . S
C1890 H1876 0.961 . S
C1890 C1889 1.502 . S
C1891 H1877 0.960 . S
C1891 H1878 0.961 1_565 S
C1891 H1879 0.959 1_565 S
C1891 C1889 1.561 . S
C1892 C1889 1.526 . S
C1892 C1893 1.396 . S
C1892 C1897 1.390 . S
C1893 C1887 1.465 . S
C1893 C1892 1.396 . S
C1893 C1894 1.399 . S
C1894 H1880 0.929 . S
C1894 C1893 1.399 . S
C1894 C1895 1.385 . S
C1895 H1881 0.931 . S
C1895 C1894 1.385 . S
C1895 C1896 1.389 . S
C1896 C1895 1.389 . S
C1896 C1897 1.387 . S
C1897 H1882 0.930 . S
C1897 C1892 1.390 . S
C1897 C1896 1.387 . S
H1898 C1910 0.930 . S
H1899 C1912 0.930 . S
H1900 C1913 0.930 . S
H1901 C1917 0.959 . S
H1902 C1917 0.959 . S
H1903 C1917 0.961 . S
H1904 C1918 0.960 . S
H1905 C1918 0.961 . S
H1906 C1918 0.959 . S
H1907 C1921 0.929 . S
H1908 C1922 0.931 . S
H1909 C1924 0.930 . S
C1910 H1898 0.930 . S
C1910 C1911 1.399 . S
C1910 C1915 1.399 . S
C1911 C1910 1.399 . S
C1911 C1912 1.376 . S
C1912 H1899 0.930 . S
C1912 C1911 1.376 . S
C1912 C1913 1.388 . S
C1913 H1900 0.930 . S
C1913 C1912 1.388 . S
C1913 C1914 1.390 . S
C1914 C1913 1.390 . S
C1914 C1915 1.394 . S
C1914 C1920 1.465 . S
C1915 C1910 1.399 . S
C1915 C1914 1.394 . S
C1915 C1916 1.516 . S
C1916 C1915 1.516 . S
C1916 C1917 1.502 . S
C1916 C1918 1.561 . S
C1916 C1919 1.526 . S
C1917 H1901 0.959 . S
C1917 H1902 0.959 . S
C1917 H1903 0.961 . S
C1917 C1916 1.502 . S
C1918 H1904 0.960 . S
C1918 H1905 0.961 . S
C1918 H1906 0.959 . S
C1918 C1916 1.561 . S
C1919 C1916 1.526 . S
C1919 C1920 1.396 . S
C1919 C1924 1.390 . S
C1920 C1914 1.465 . S
C1920 C1919 1.396 . S
C1920 C1921 1.399 . S
C1921 H1907 0.929 . S
C1921 C1920 1.399 . S
C1921 C1922 1.385 . S
C1922 H1908 0.931 . S
C1922 C1921 1.385 . S
C1922 C1923 1.389 . S
C1923 C1922 1.389 . S
C1923 C1924 1.387 . S
C1924 H1909 0.930 . S
C1924 C1919 1.390 . S
C1924 C1923 1.387 . S
H1925 C1937 0.930 . S
H1926 C1939 0.930 . S
H1927 C1940 0.930 . S
H1928 C1944 0.959 . S
H1929 C1944 0.959 . S
H1930 C1944 0.961 . S
H1931 C1945 0.960 . S
H1932 C1945 0.961 . S
H1933 C1945 0.959 . S
H1934 C1948 0.929 . S
H1935 C1949 0.931 . S
H1936 C1951 0.930 . S
C1937 H1925 0.930 . S
C1937 C1938 1.399 . S
C1937 C1942 1.399 . S
C1938 C1937 1.399 . S
C1938 C1939 1.376 . S
C1939 H1926 0.930 . S
C1939 C1938 1.376 . S
C1939 C1940 1.388 . S
C1940 H1927 0.930 . S
C1940 C1939 1.388 . S
C1940 C1941 1.390 . S
C1941 C1940 1.390 . S
C1941 C1942 1.394 . S
C1941 C1947 1.465 . S
C1942 C1937 1.399 . S
C1942 C1941 1.394 . S
C1942 C1943 1.516 . S
C1943 C1942 1.516 . S
C1943 C1944 1.502 . S
C1943 C1945 1.561 . S
C1943 C1946 1.526 . S
C1944 H1928 0.959 . S
C1944 H1929 0.959 . S
C1944 H1930 0.961 . S
C1944 C1943 1.502 . S
C1945 H1931 0.960 . S
C1945 H1932 0.961 . S
C1945 H1933 0.959 . S
C1945 C1943 1.561 . S
C1946 C1943 1.526 . S
C1946 C1947 1.396 . S
C1946 C1951 1.390 . S
C1947 C1941 1.465 . S
C1947 C1946 1.396 . S
C1947 C1948 1.399 . S
C1948 H1934 0.929 . S
C1948 C1947 1.399 . S
C1948 C1949 1.385 . S
C1949 H1935 0.931 . S
C1949 C1948 1.385 . S
C1949 C1950 1.389 . S
C1950 C1949 1.389 . S
C1950 C1951 1.387 . S
C1951 H1936 0.930 . S
C1951 C1946 1.390 . S
C1951 C1950 1.387 . S
H1952 C1964 0.930 . S
H1953 C1966 0.930 . S
H1954 C1967 0.930 . S
H1955 C1971 0.959 . S
H1956 C1971 0.959 . S
H1957 C1971 0.961 . S
H1958 C1972 0.960 . S
H1959 C1972 0.961 . S
H1960 C1972 0.959 . S
H1961 C1975 0.929 . S
H1962 C1976 0.931 . S
H1963 C1978 0.930 . S
C1964 H1952 0.930 . S
C1964 C1965 1.399 . S
C1964 C1969 1.399 . S
C1965 C1964 1.399 . S
C1965 C1966 1.376 . S
C1966 H1953 0.930 . S
C1966 C1965 1.376 . S
C1966 C1967 1.388 . S
C1967 H1954 0.930 . S
C1967 C1966 1.388 . S
C1967 C1968 1.390 . S
C1968 C1967 1.390 . S
C1968 C1969 1.394 . S
C1968 C1974 1.465 . S
C1969 C1964 1.399 . S
C1969 C1968 1.394 . S
C1969 C1970 1.516 . S
C1970 C1969 1.516 . S
C1970 C1971 1.502 . S
C1970 C1972 1.561 . S
C1970 C1973 1.526 . S
C1971 H1955 0.959 . S
C1971 H1956 0.959 . S
C1971 H1957 0.961 . S
C1971 C1970 1.502 . S
C1972 H1958 0.960 . S
C1972 H1959 0.961 . S
C1972 H1960 0.959 . S
C1972 C1970 1.561 . S
C1973 C1970 1.526 . S
C1973 C1974 1.396 . S
C1973 C1978 1.390 . S
C1974 C1968 1.465 . S
C1974 C1973 1.396 . S
C1974 C1975 1.399 . S
C1975 H1961 0.929 . S
C1975 C1974 1.399 . S
C1975 C1976 1.385 . S
C1976 H1962 0.931 . S
C1976 C1975 1.385 . S
C1976 C1977 1.389 . S
C1977 C1976 1.389 . S
C1977 C1978 1.387 . S
C1978 H1963 0.930 . S
C1978 C1973 1.390 . S
C1978 C1977 1.387 . S
H1979 C1991 0.930 . S
H1980 C1993 0.930 . S
H1981 C1994 0.930 . S
H1982 C1998 0.959 . S
H1983 C1998 0.959 . S
H1984 C1998 0.961 . S
H1985 C1999 0.960 . S
H1986 C1999 0.961 . S
H1987 C1999 0.959 . S
H1988 C2002 0.929 . S
H1989 C2003 0.931 . S
H1990 C2005 0.930 . S
C1991 H1979 0.930 . S
C1991 C1992 1.399 . S
C1991 C1996 1.399 . S
C1992 C1991 1.399 . S
C1992 C1993 1.376 . S
C1993 H1980 0.930 . S
C1993 C1992 1.376 . S
C1993 C1994 1.388 . S
C1994 H1981 0.930 . S
C1994 C1993 1.388 . S
C1994 C1995 1.390 . S
C1995 C1994 1.390 . S
C1995 C1996 1.394 . S
C1995 C2001 1.465 . S
C1996 C1991 1.399 . S
C1996 C1995 1.394 . S
C1996 C1997 1.516 . S
C1997 C1996 1.516 . S
C1997 C1998 1.502 . S
C1997 C1999 1.561 . S
C1997 C2000 1.526 . S
C1998 H1982 0.959 . S
C1998 H1983 0.959 . S
C1998 H1984 0.961 . S
C1998 C1997 1.502 . S
C1999 H1985 0.960 . S
C1999 H1986 0.961 . S
C1999 H1987 0.959 . S
C1999 C1997 1.561 . S
C2000 C1997 1.526 . S
C2000 C2001 1.396 . S
C2000 C2005 1.390 . S
C2001 C1995 1.465 . S
C2001 C2000 1.396 . S
C2001 C2002 1.399 . S
C2002 H1988 0.929 . S
C2002 C2001 1.399 . S
C2002 C2003 1.385 . S
C2003 H1989 0.931 . S
C2003 C2002 1.385 . S
C2003 C2004 1.389 . S
C2004 C2003 1.389 . S
C2004 C2005 1.387 . S
C2005 H1990 0.930 . S
C2005 C2000 1.390 . S
C2005 C2004 1.387 . S
H2006 C2018 0.930 . S
H2007 C2020 0.930 . S
H2008 C2021 0.930 . S
H2009 C2025 0.959 . S
H2010 C2025 0.957 . S
H2011 C2025 0.961 . S
H2012 C2026 0.960 . S
H2013 C2026 0.961 1_554 S
H2014 C2026 0.959 . S
H2015 C2029 0.929 . S
H2016 C2030 0.931 . S
H2017 C2032 0.930 1_654 S
C2018 H2006 0.930 . S
C2018 C2019 1.399 . S
C2018 C2023 1.399 . S
C2019 C2018 1.399 . S
C2019 C2020 1.376 . S
C2020 H2007 0.930 . S
C2020 C2019 1.376 . S
C2020 C2021 1.388 . S
C2021 H2008 0.930 . S
C2021 C2020 1.388 . S
C2021 C2022 1.390 . S
C2022 C2021 1.390 . S
C2022 C2023 1.394 . S
C2022 C2028 1.465 . S
C2023 C2018 1.399 . S
C2023 C2022 1.394 . S
C2023 C2024 1.516 . S
C2024 C2023 1.516 . S
C2024 C2025 1.502 1_455 S
C2024 C2026 1.561 . S
C2024 C2027 1.526 . S
C2025 H2009 0.959 . S
C2025 H2010 0.957 . S
C2025 H2011 0.961 . S
C2025 C2024 1.502 1_655 S
C2026 H2012 0.960 . S
C2026 H2013 0.961 1_556 S
C2026 H2014 0.959 . S
C2026 C2024 1.561 . S
C2027 C2024 1.526 . S
C2027 C2028 1.396 . S
C2027 C2032 1.390 . S
C2028 C2022 1.465 . S
C2028 C2027 1.396 . S
C2028 C2029 1.399 . S
C2029 H2015 0.929 . S
C2029 C2028 1.399 . S
C2029 C2030 1.385 . S
C2030 H2016 0.931 . S
C2030 C2029 1.385 . S
C2030 C2031 1.389 . S
C2031 C2030 1.389 . S
C2031 C2032 1.387 . S
C2032 H2017 0.930 1_456 S
C2032 C2027 1.390 . S
C2032 C2031 1.387 . S
H2033 C2045 0.930 . S
H2034 C2047 0.930 . S
H2035 C2048 0.930 . S
H2036 C2052 0.959 . S
H2037 C2052 0.959 . S
H2038 C2052 0.961 . S
H2039 C2053 0.960 . S
H2040 C2053 0.961 . S
H2041 C2053 0.959 . S
H2042 C2056 0.929 . S
H2043 C2057 0.931 . S
H2044 C2059 0.930 . S
C2045 H2033 0.930 . S
C2045 C2046 1.399 . S
C2045 C2050 1.399 . S
C2046 C2045 1.399 . S
C2046 C2047 1.376 . S
C2047 H2034 0.930 . S
C2047 C2046 1.376 . S
C2047 C2048 1.388 . S
C2048 H2035 0.930 . S
C2048 C2047 1.388 . S
C2048 C2049 1.390 . S
C2049 C2048 1.390 . S
C2049 C2050 1.394 . S
C2049 C2055 1.465 . S
C2050 C2045 1.399 . S
C2050 C2049 1.394 . S
C2050 C2051 1.516 . S
C2051 C2050 1.516 . S
C2051 C2052 1.502 . S
C2051 C2053 1.561 . S
C2051 C2054 1.526 . S
C2052 H2036 0.959 . S
C2052 H2037 0.959 . S
C2052 H2038 0.961 . S
C2052 C2051 1.502 . S
C2053 H2039 0.960 . S
C2053 H2040 0.961 . S
C2053 H2041 0.959 . S
C2053 C2051 1.561 . S
C2054 C2051 1.526 . S
C2054 C2055 1.396 . S
C2054 C2059 1.390 . S
C2055 C2049 1.465 . S
C2055 C2054 1.396 . S
C2055 C2056 1.399 . S
C2056 H2042 0.929 . S
C2056 C2055 1.399 . S
C2056 C2057 1.385 . S
C2057 H2043 0.931 . S
C2057 C2056 1.385 . S
C2057 C2058 1.389 . S
C2058 C2057 1.389 . S
C2058 C2059 1.387 . S
C2059 H2044 0.930 . S
C2059 C2054 1.390 . S
C2059 C2058 1.387 . S
H2060 C2072 0.930 . S
H2061 C2074 0.930 . S
H2062 C2075 0.930 . S
H2063 C2079 0.959 . S
H2064 C2079 0.959 . S
H2065 C2079 0.961 . S
H2066 C2080 0.960 . S
H2067 C2080 0.961 . S
H2068 C2080 0.959 . S
H2069 C2083 0.929 . S
H2070 C2084 0.931 . S
H2071 C2086 0.930 . S
C2072 H2060 0.930 . S
C2072 C2073 1.399 . S
C2072 C2077 1.399 . S
C2073 C2072 1.399 . S
C2073 C2074 1.376 . S
C2074 H2061 0.930 . S
C2074 C2073 1.376 . S
C2074 C2075 1.388 . S
C2075 H2062 0.930 . S
C2075 C2074 1.388 . S
C2075 C2076 1.390 . S
C2076 C2075 1.390 . S
C2076 C2077 1.394 . S
C2076 C2082 1.465 . S
C2077 C2072 1.399 . S
C2077 C2076 1.394 . S
C2077 C2078 1.516 . S
C2078 C2077 1.516 . S
C2078 C2079 1.502 . S
C2078 C2080 1.561 . S
C2078 C2081 1.526 . S
C2079 H2063 0.959 . S
C2079 H2064 0.959 . S
C2079 H2065 0.961 . S
C2079 C2078 1.502 . S
C2080 H2066 0.960 . S
C2080 H2067 0.961 . S
C2080 H2068 0.959 . S
C2080 C2078 1.561 . S
C2081 C2078 1.526 . S
C2081 C2082 1.396 . S
C2081 C2086 1.390 . S
C2082 C2076 1.465 . S
C2082 C2081 1.396 . S
C2082 C2083 1.399 . S
C2083 H2069 0.929 . S
C2083 C2082 1.399 . S
C2083 C2084 1.385 . S
C2084 H2070 0.931 . S
C2084 C2083 1.385 . S
C2084 C2085 1.389 . S
C2085 C2084 1.389 . S
C2085 C2086 1.387 . S
C2086 H2071 0.930 . S
C2086 C2081 1.390 . S
C2086 C2085 1.387 . S
H2087 C2099 0.930 . S
H2088 C2101 0.930 . S
H2089 C2102 0.930 . S
H2090 C2106 0.959 . S
H2091 C2106 0.959 . S
H2092 C2106 0.961 . S
H2093 C2107 0.960 . S
H2094 C2107 0.961 . S
H2095 C2107 0.959 . S
H2096 C2110 0.929 . S
H2097 C2111 0.931 . S
H2098 C2113 0.930 . S
C2099 H2087 0.930 . S
C2099 C2100 1.399 . S
C2099 C2104 1.399 . S
C2100 C2099 1.399 . S
C2100 C2101 1.376 . S
C2101 H2088 0.930 . S
C2101 C2100 1.376 . S
C2101 C2102 1.388 . S
C2102 H2089 0.930 . S
C2102 C2101 1.388 . S
C2102 C2103 1.390 . S
C2103 C2102 1.390 . S
C2103 C2104 1.394 . S
C2103 C2109 1.465 . S
C2104 C2099 1.399 . S
C2104 C2103 1.394 . S
C2104 C2105 1.516 . S
C2105 C2104 1.516 . S
C2105 C2106 1.502 . S
C2105 C2107 1.561 . S
C2105 C2108 1.526 . S
C2106 H2090 0.959 . S
C2106 H2091 0.959 . S
C2106 H2092 0.961 . S
C2106 C2105 1.502 . S
C2107 H2093 0.960 . S
C2107 H2094 0.961 . S
C2107 H2095 0.959 . S
C2107 C2105 1.561 . S
C2108 C2105 1.526 . S
C2108 C2109 1.396 . S
C2108 C2113 1.390 . S
C2109 C2103 1.465 . S
C2109 C2108 1.396 . S
C2109 C2110 1.399 . S
C2110 H2096 0.929 . S
C2110 C2109 1.399 . S
C2110 C2111 1.385 . S
C2111 H2097 0.931 . S
C2111 C2110 1.385 . S
C2111 C2112 1.389 . S
C2112 C2111 1.389 . S
C2112 C2113 1.387 . S
C2113 H2098 0.930 . S
C2113 C2108 1.390 . S
C2113 C2112 1.387 . S
H2114 C2126 0.930 . S
H2115 C2128 0.930 . S
H2116 C2129 0.930 . S
H2117 C2133 0.959 . S
H2118 C2133 0.959 . S
H2119 C2133 0.961 . S
H2120 C2134 0.960 . S
H2121 C2134 0.961 . S
H2122 C2134 0.959 1_455 S
H2123 C2137 0.929 . S
H2124 C2138 0.931 . S
H2125 C2140 0.930 . S
C2126 H2114 0.930 . S
C2126 C2127 1.399 . S
C2126 C2131 1.399 . S
C2127 C2126 1.399 . S
C2127 C2128 1.376 1_655 S
C2128 H2115 0.930 . S
C2128 C2127 1.376 1_455 S
C2128 C2129 1.388 . S
C2129 H2116 0.930 . S
C2129 C2128 1.388 . S
C2129 C2130 1.390 . S
C2130 C2129 1.390 . S
C2130 C2131 1.394 1_455 S
C2130 C2136 1.465 . S
C2131 C2126 1.399 . S
C2131 C2130 1.394 1_655 S
C2131 C2132 1.516 . S
C2132 C2131 1.516 . S
C2132 C2133 1.502 . S
C2132 C2134 1.561 . S
C2132 C2135 1.526 . S
C2133 H2117 0.959 . S
C2133 H2118 0.959 . S
C2133 H2119 0.961 . S
C2133 C2132 1.502 . S
C2134 H2120 0.960 . S
C2134 H2121 0.961 . S
C2134 H2122 0.959 1_655 S
C2134 C2132 1.561 . S
C2135 C2132 1.526 . S
C2135 C2136 1.396 1_655 S
C2135 C2140 1.390 . S
C2136 C2130 1.465 . S
C2136 C2135 1.396 1_455 S
C2136 C2137 1.399 . S
C2137 H2123 0.929 . S
C2137 C2136 1.399 . S
C2137 C2138 1.385 . S
C2138 H2124 0.931 . S
C2138 C2137 1.385 . S
C2138 C2139 1.389 . S
C2139 C2138 1.389 . S
C2139 C2140 1.387 1_455 S
C2140 H2125 0.930 . S
C2140 C2135 1.390 . S
C2140 C2139 1.387 1_655 S
H2141 C2153 0.930 . S
H2142 C2155 0.930 . S
H2143 C2156 0.930 . S
H2144 C2160 0.959 . S
H2145 C2160 0.959 . S
H2146 C2160 0.961 . S
H2147 C2161 0.960 . S
H2148 C2161 0.961 . S
H2149 C2161 0.959 . S
H2150 C2164 0.929 . S
H2151 C2165 0.931 . S
H2152 C2167 0.930 . S
C2153 H2141 0.930 . S
C2153 C2154 1.399 . S
C2153 C2158 1.399 . S
C2154 C2153 1.399 . S
C2154 C2155 1.376 . S
C2155 H2142 0.930 . S
C2155 C2154 1.376 . S
C2155 C2156 1.388 . S
C2156 H2143 0.930 . S
C2156 C2155 1.388 . S
C2156 C2157 1.390 . S
C2157 C2156 1.390 . S
C2157 C2158 1.394 . S
C2157 C2163 1.465 . S
C2158 C2153 1.399 . S
C2158 C2157 1.394 . S
C2158 C2159 1.516 . S
C2159 C2158 1.516 . S
C2159 C2160 1.502 . S
C2159 C2161 1.561 . S
C2159 C2162 1.526 . S
C2160 H2144 0.959 . S
C2160 H2145 0.959 . S
C2160 H2146 0.961 . S
C2160 C2159 1.502 . S
C2161 H2147 0.960 . S
C2161 H2148 0.961 . S
C2161 H2149 0.959 . S
C2161 C2159 1.561 . S
C2162 C2159 1.526 . S
C2162 C2163 1.396 . S
C2162 C2167 1.390 . S
C2163 C2157 1.465 . S
C2163 C2162 1.396 . S
C2163 C2164 1.399 . S
C2164 H2150 0.929 . S
C2164 C2163 1.399 . S
C2164 C2165 1.385 . S
C2165 H2151 0.931 . S
C2165 C2164 1.385 . S
C2165 C2166 1.389 . S
C2166 C2165 1.389 . S
C2166 C2167 1.387 . S
C2167 H2152 0.930 . S
C2167 C2162 1.390 . S
C2167 C2166 1.387 . S
H2168 C2180 0.930 . S
H2169 C2182 0.930 . S
H2170 C2183 0.930 . S
H2171 C2187 0.959 . S
H2172 C2187 0.959 . S
H2173 C2187 0.961 . S
H2174 C2188 0.960 . S
H2175 C2188 0.961 . S
H2176 C2188 0.959 . S
H2177 C2191 0.929 . S
H2178 C2192 0.931 . S
H2179 C2194 0.930 . S
C2180 H2168 0.930 . S
C2180 C2181 1.399 . S
C2180 C2185 1.399 . S
C2181 C2180 1.399 . S
C2181 C2182 1.376 . S
C2182 H2169 0.930 . S
C2182 C2181 1.376 . S
C2182 C2183 1.388 . S
C2183 H2170 0.930 . S
C2183 C2182 1.388 . S
C2183 C2184 1.390 . S
C2184 C2183 1.390 . S
C2184 C2185 1.394 . S
C2184 C2190 1.465 . S
C2185 C2180 1.399 . S
C2185 C2184 1.394 . S
C2185 C2186 1.516 . S
C2186 C2185 1.516 . S
C2186 C2187 1.502 . S
C2186 C2188 1.561 . S
C2186 C2189 1.526 . S
C2187 H2171 0.959 . S
C2187 H2172 0.959 . S
C2187 H2173 0.961 . S
C2187 C2186 1.502 . S
C2188 H2174 0.960 . S
C2188 H2175 0.961 . S
C2188 H2176 0.959 . S
C2188 C2186 1.561 . S
C2189 C2186 1.526 . S
C2189 C2190 1.396 . S
C2189 C2194 1.390 . S
C2190 C2184 1.465 . S
C2190 C2189 1.396 . S
C2190 C2191 1.399 . S
C2191 H2177 0.929 . S
C2191 C2190 1.399 . S
C2191 C2192 1.385 . S
C2192 H2178 0.931 . S
C2192 C2191 1.385 . S
C2192 C2193 1.389 . S
C2193 C2192 1.389 . S
C2193 C2194 1.387 . S
C2194 H2179 0.930 . S
C2194 C2189 1.390 . S
C2194 C2193 1.387 . S
H2195 C2207 0.930 . S
H2196 C2209 0.930 . S
H2197 C2210 0.930 . S
H2198 C2214 0.959 . S
H2199 C2214 0.959 . S
H2200 C2214 0.961 . S
H2201 C2215 0.960 . S
H2202 C2215 0.961 . S
H2203 C2215 0.959 . S
H2204 C2218 0.929 . S
H2205 C2219 0.931 . S
H2206 C2221 0.930 . S
C2207 H2195 0.930 . S
C2207 C2208 1.399 . S
C2207 C2212 1.399 . S
C2208 C2207 1.399 . S
C2208 C2209 1.376 . S
C2209 H2196 0.930 . S
C2209 C2208 1.376 . S
C2209 C2210 1.388 . S
C2210 H2197 0.930 . S
C2210 C2209 1.388 . S
C2210 C2211 1.390 . S
C2211 C2210 1.390 . S
C2211 C2212 1.394 . S
C2211 C2217 1.465 . S
C2212 C2207 1.399 . S
C2212 C2211 1.394 . S
C2212 C2213 1.516 . S
C2213 C2212 1.516 . S
C2213 C2214 1.502 . S
C2213 C2215 1.561 . S
C2213 C2216 1.526 . S
C2214 H2198 0.959 . S
C2214 H2199 0.959 . S
C2214 H2200 0.961 . S
C2214 C2213 1.502 . S
C2215 H2201 0.960 . S
C2215 H2202 0.961 . S
C2215 H2203 0.959 . S
C2215 C2213 1.561 . S
C2216 C2213 1.526 . S
C2216 C2217 1.396 . S
C2216 C2221 1.390 . S
C2217 C2211 1.465 . S
C2217 C2216 1.396 . S
C2217 C2218 1.399 . S
C2218 H2204 0.929 . S
C2218 C2217 1.399 . S
C2218 C2219 1.385 . S
C2219 H2205 0.931 . S
C2219 C2218 1.385 . S
C2219 C2220 1.389 . S
C2220 C2219 1.389 . S
C2220 C2221 1.387 . S
C2221 H2206 0.930 . S
C2221 C2216 1.390 . S
C2221 C2220 1.387 . S
H2222 C2234 0.930 . S
H2223 C2236 0.930 . S
H2224 C2237 0.930 . S
H2225 C2241 0.959 . S
H2226 C2241 0.959 . S
H2227 C2241 0.961 . S
H2228 C2242 0.960 . S
H2229 C2242 0.961 . S
H2230 C2242 0.959 . S
H2231 C2245 0.929 . S
H2232 C2246 0.931 . S
H2233 C2248 0.930 . S
C2234 H2222 0.930 . S
C2234 C2235 1.399 . S
C2234 C2239 1.399 . S
C2235 C2234 1.399 . S
C2235 C2236 1.376 . S
C2236 H2223 0.930 . S
C2236 C2235 1.376 . S
C2236 C2237 1.388 . S
C2237 H2224 0.930 . S
C2237 C2236 1.388 . S
C2237 C2238 1.390 . S
C2238 C2237 1.390 . S
C2238 C2239 1.394 . S
C2238 C2244 1.465 . S
C2239 C2234 1.399 . S
C2239 C2238 1.394 . S
C2239 C2240 1.516 . S
C2240 C2239 1.516 . S
C2240 C2241 1.502 . S
C2240 C2242 1.561 . S
C2240 C2243 1.526 . S
C2241 H2225 0.959 . S
C2241 H2226 0.959 . S
C2241 H2227 0.961 . S
C2241 C2240 1.502 . S
C2242 H2228 0.960 . S
C2242 H2229 0.961 . S
C2242 H2230 0.959 . S
C2242 C2240 1.561 . S
C2243 C2240 1.526 . S
C2243 C2244 1.396 . S
C2243 C2248 1.390 . S
C2244 C2238 1.465 . S
C2244 C2243 1.396 . S
C2244 C2245 1.399 . S
C2245 H2231 0.929 . S
C2245 C2244 1.399 . S
C2245 C2246 1.385 . S
C2246 H2232 0.931 . S
C2246 C2245 1.385 . S
C2246 C2247 1.389 . S
C2247 C2246 1.389 . S
C2247 C2248 1.387 . S
C2248 H2233 0.930 . S
C2248 C2243 1.390 . S
C2248 C2247 1.387 . S
H2249 C2261 0.930 . S
H2250 C2263 0.930 . S
H2251 C2264 0.930 . S
H2252 C2268 0.959 . S
H2253 C2268 0.959 . S
H2254 C2268 0.961 . S
H2255 C2269 0.960 . S
H2256 C2269 0.961 . S
H2257 C2269 0.959 . S
H2258 C2272 0.929 . S
H2259 C2273 0.931 . S
H2260 C2275 0.930 . S
C2261 H2249 0.930 . S
C2261 C2262 1.399 . S
C2261 C2266 1.399 . S
C2262 C2261 1.399 . S
C2262 C2263 1.376 . S
C2263 H2250 0.930 . S
C2263 C2262 1.376 . S
C2263 C2264 1.388 . S
C2264 H2251 0.930 . S
C2264 C2263 1.388 . S
C2264 C2265 1.390 . S
C2265 C2264 1.390 . S
C2265 C2266 1.394 . S
C2265 C2271 1.465 . S
C2266 C2261 1.399 . S
C2266 C2265 1.394 . S
C2266 C2267 1.516 . S
C2267 C2266 1.516 . S
C2267 C2268 1.502 . S
C2267 C2269 1.561 . S
C2267 C2270 1.526 . S
C2268 H2252 0.959 . S
C2268 H2253 0.959 . S
C2268 H2254 0.961 . S
C2268 C2267 1.502 . S
C2269 H2255 0.960 . S
C2269 H2256 0.961 . S
C2269 H2257 0.959 . S
C2269 C2267 1.561 . S
C2270 C2267 1.526 . S
C2270 C2271 1.396 . S
C2270 C2275 1.390 . S
C2271 C2265 1.465 . S
C2271 C2270 1.396 . S
C2271 C2272 1.399 . S
C2272 H2258 0.929 . S
C2272 C2271 1.399 . S
C2272 C2273 1.385 . S
C2273 H2259 0.931 . S
C2273 C2272 1.385 . S
C2273 C2274 1.389 . S
C2274 C2273 1.389 . S
C2274 C2275 1.387 . S
C2275 H2260 0.930 . S
C2275 C2270 1.390 . S
C2275 C2274 1.387 . S
H2276 C2288 0.930 . S
H2277 C2290 0.930 . S
H2278 C2291 0.930 . S
H2279 C2295 0.959 . S
H2280 C2295 0.959 . S
H2281 C2295 0.961 . S
H2282 C2296 0.960 . S
H2283 C2296 0.961 . S
H2284 C2296 0.959 . S
H2285 C2299 0.929 . S
H2286 C2300 0.931 . S
H2287 C2302 0.930 . S
C2288 H2276 0.930 . S
C2288 C2289 1.399 . S
C2288 C2293 1.399 . S
C2289 C2288 1.399 . S
C2289 C2290 1.376 . S
C2290 H2277 0.930 . S
C2290 C2289 1.376 . S
C2290 C2291 1.388 . S
C2291 H2278 0.930 . S
C2291 C2290 1.388 . S
C2291 C2292 1.390 . S
C2292 C2291 1.390 . S
C2292 C2293 1.394 . S
C2292 C2298 1.465 . S
C2293 C2288 1.399 . S
C2293 C2292 1.394 . S
C2293 C2294 1.516 . S
C2294 C2293 1.516 . S
C2294 C2295 1.502 . S
C2294 C2296 1.561 . S
C2294 C2297 1.526 . S
C2295 H2279 0.959 . S
C2295 H2280 0.959 . S
C2295 H2281 0.961 . S
C2295 C2294 1.502 . S
C2296 H2282 0.960 . S
C2296 H2283 0.961 . S
C2296 H2284 0.959 . S
C2296 C2294 1.561 . S
C2297 C2294 1.526 . S
C2297 C2298 1.396 . S
C2297 C2302 1.390 . S
C2298 C2292 1.465 . S
C2298 C2297 1.396 . S
C2298 C2299 1.399 . S
C2299 H2285 0.929 . S
C2299 C2298 1.399 . S
C2299 C2300 1.385 . S
C2300 H2286 0.931 . S
C2300 C2299 1.385 . S
C2300 C2301 1.389 . S
C2301 C2300 1.389 . S
C2301 C2302 1.387 . S
C2302 H2287 0.930 . S
C2302 C2297 1.390 . S
C2302 C2301 1.387 . S
H2303 C2315 0.930 . S
H2304 C2317 0.930 . S
H2305 C2318 0.930 . S
H2306 C2322 0.959 . S
H2307 C2322 0.959 . S
H2308 C2322 0.961 . S
H2309 C2323 0.960 . S
H2310 C2323 0.961 . S
H2311 C2323 0.959 . S
H2312 C2326 0.929 . S
H2313 C2327 0.931 . S
H2314 C2329 0.930 . S
C2315 H2303 0.930 . S
C2315 C2316 1.399 . S
C2315 C2320 1.399 . S
C2316 C2315 1.399 . S
C2316 C2317 1.376 . S
C2317 H2304 0.930 . S
C2317 C2316 1.376 . S
C2317 C2318 1.388 . S
C2318 H2305 0.930 . S
C2318 C2317 1.388 . S
C2318 C2319 1.390 . S
C2319 C2318 1.390 . S
C2319 C2320 1.394 . S
C2319 C2325 1.465 . S
C2320 C2315 1.399 . S
C2320 C2319 1.394 . S
C2320 C2321 1.516 . S
C2321 C2320 1.516 . S
C2321 C2322 1.502 . S
C2321 C2323 1.561 . S
C2321 C2324 1.526 . S
C2322 H2306 0.959 . S
C2322 H2307 0.959 . S
C2322 H2308 0.961 . S
C2322 C2321 1.502 . S
C2323 H2309 0.960 . S
C2323 H2310 0.961 . S
C2323 H2311 0.959 . S
C2323 C2321 1.561 . S
C2324 C2321 1.526 . S
C2324 C2325 1.396 . S
C2324 C2329 1.390 . S
C2325 C2319 1.465 . S
C2325 C2324 1.396 . S
C2325 C2326 1.399 . S
C2326 H2312 0.929 . S
C2326 C2325 1.399 . S
C2326 C2327 1.385 . S
C2327 H2313 0.931 . S
C2327 C2326 1.385 . S
C2327 C2328 1.389 . S
C2328 C2327 1.389 . S
C2328 C2329 1.387 . S
C2329 H2314 0.930 . S
C2329 C2324 1.390 . S
C2329 C2328 1.387 . S
H2330 C2342 0.930 . S
H2331 C2344 0.930 . S
H2332 C2345 0.930 . S
H2333 C2349 0.959 . S
H2334 C2349 0.959 . S
H2335 C2349 0.961 . S
H2336 C2350 0.960 . S
H2337 C2350 0.961 . S
H2338 C2350 0.959 . S
H2339 C2353 0.929 . S
H2340 C2354 0.931 . S
H2341 C2356 0.930 . S
C2342 H2330 0.930 . S
C2342 C2343 1.399 . S
C2342 C2347 1.399 . S
C2343 C2342 1.399 . S
C2343 C2344 1.376 . S
C2344 H2331 0.930 . S
C2344 C2343 1.376 . S
C2344 C2345 1.388 . S
C2345 H2332 0.930 . S
C2345 C2344 1.388 . S
C2345 C2346 1.390 . S
C2346 C2345 1.390 . S
C2346 C2347 1.394 . S
C2346 C2352 1.465 . S
C2347 C2342 1.399 . S
C2347 C2346 1.394 . S
C2347 C2348 1.516 . S
C2348 C2347 1.516 . S
C2348 C2349 1.502 . S
C2348 C2350 1.561 . S
C2348 C2351 1.526 . S
C2349 H2333 0.959 . S
C2349 H2334 0.959 . S
C2349 H2335 0.961 . S
C2349 C2348 1.502 . S
C2350 H2336 0.960 . S
C2350 H2337 0.961 . S
C2350 H2338 0.959 . S
C2350 C2348 1.561 . S
C2351 C2348 1.526 . S
C2351 C2352 1.396 . S
C2351 C2356 1.390 . S
C2352 C2346 1.465 . S
C2352 C2351 1.396 . S
C2352 C2353 1.399 . S
C2353 H2339 0.929 . S
C2353 C2352 1.399 . S
C2353 C2354 1.385 . S
C2354 H2340 0.931 . S
C2354 C2353 1.385 . S
C2354 C2355 1.389 . S
C2355 C2354 1.389 . S
C2355 C2356 1.387 . S
C2356 H2341 0.930 . S
C2356 C2351 1.390 . S
C2356 C2355 1.387 . S
H2357 C2369 0.930 . S
H2358 C2371 0.930 . S
H2359 C2372 0.930 . S
H2360 C2376 0.959 . S
H2361 C2376 0.959 . S
H2362 C2376 0.961 . S
H2363 C2377 0.960 . S
H2364 C2377 0.961 . S
H2365 C2377 0.959 . S
H2366 C2380 0.929 . S
H2367 C2381 0.931 . S
H2368 C2383 0.930 . S
C2369 H2357 0.930 . S
C2369 C2370 1.399 . S
C2369 C2374 1.399 . S
C2370 C2369 1.399 . S
C2370 C2371 1.376 . S
C2371 H2358 0.930 . S
C2371 C2370 1.376 . S
C2371 C2372 1.388 . S
C2372 H2359 0.930 . S
C2372 C2371 1.388 . S
C2372 C2373 1.390 . S
C2373 C2372 1.390 . S
C2373 C2374 1.394 . S
C2373 C2379 1.465 . S
C2374 C2369 1.399 . S
C2374 C2373 1.394 . S
C2374 C2375 1.516 . S
C2375 C2374 1.516 . S
C2375 C2376 1.502 . S
C2375 C2377 1.561 . S
C2375 C2378 1.526 . S
C2376 H2360 0.959 . S
C2376 H2361 0.959 . S
C2376 H2362 0.961 . S
C2376 C2375 1.502 . S
C2377 H2363 0.960 . S
C2377 H2364 0.961 . S
C2377 H2365 0.959 . S
C2377 C2375 1.561 . S
C2378 C2375 1.526 . S
C2378 C2379 1.396 . S
C2378 C2383 1.390 . S
C2379 C2373 1.465 . S
C2379 C2378 1.396 . S
C2379 C2380 1.399 . S
C2380 H2366 0.929 . S
C2380 C2379 1.399 . S
C2380 C2381 1.385 . S
C2381 H2367 0.931 . S
C2381 C2380 1.385 . S
C2381 C2382 1.389 . S
C2382 C2381 1.389 . S
C2382 C2383 1.387 . S
C2383 H2368 0.930 . S
C2383 C2378 1.390 . S
C2383 C2382 1.387 . S
H2384 C2396 0.930 . S
H2385 C2398 0.930 . S
H2386 C2399 0.930 . S
H2387 C2403 0.959 . S
H2388 C2403 0.959 . S
H2389 C2403 0.961 . S
H2390 C2404 0.960 . S
H2391 C2404 0.961 . S
H2392 C2404 0.959 . S
H2393 C2407 0.929 . S
H2394 C2408 0.931 . S
H2395 C2410 0.930 . S
C2396 H2384 0.930 . S
C2396 C2397 1.399 . S
C2396 C2401 1.399 . S
C2397 C2396 1.399 . S
C2397 C2398 1.376 . S
C2398 H2385 0.930 . S
C2398 C2397 1.376 . S
C2398 C2399 1.388 . S
C2399 H2386 0.930 . S
C2399 C2398 1.388 . S
C2399 C2400 1.390 . S
C2400 C2399 1.390 . S
C2400 C2401 1.394 . S
C2400 C2406 1.465 . S
C2401 C2396 1.399 . S
C2401 C2400 1.394 . S
C2401 C2402 1.516 . S
C2402 C2401 1.516 . S
C2402 C2403 1.502 . S
C2402 C2404 1.561 . S
C2402 C2405 1.526 . S
C2403 H2387 0.959 . S
C2403 H2388 0.959 . S
C2403 H2389 0.961 . S
C2403 C2402 1.502 . S
C2404 H2390 0.960 . S
C2404 H2391 0.961 . S
C2404 H2392 0.959 . S
C2404 C2402 1.561 . S
C2405 C2402 1.526 . S
C2405 C2406 1.396 . S
C2405 C2410 1.390 . S
C2406 C2400 1.465 . S
C2406 C2405 1.396 . S
C2406 C2407 1.399 . S
C2407 H2393 0.929 . S
C2407 C2406 1.399 . S
C2407 C2408 1.385 . S
C2408 H2394 0.931 . S
C2408 C2407 1.385 . S
C2408 C2409 1.389 . S
C2409 C2408 1.389 . S
C2409 C2410 1.387 . S
C2410 H2395 0.930 . S
C2410 C2405 1.390 . S
C2410 C2409 1.387 . S
H2411 C2423 0.930 . S
H2412 C2425 0.930 . S
H2413 C2426 0.930 . S
H2414 C2430 0.959 . S
H2415 C2430 0.959 . S
H2416 C2430 0.961 . S
H2417 C2431 0.960 . S
H2418 C2431 0.961 . S
H2419 C2431 0.959 . S
H2420 C2434 0.929 . S
H2421 C2435 0.931 . S
H2422 C2437 0.930 . S
C2423 H2411 0.930 . S
C2423 C2424 1.399 . S
C2423 C2428 1.399 . S
C2424 C2423 1.399 . S
C2424 C2425 1.376 . S
C2425 H2412 0.930 . S
C2425 C2424 1.376 . S
C2425 C2426 1.388 . S
C2426 H2413 0.930 . S
C2426 C2425 1.388 . S
C2426 C2427 1.390 . S
C2427 C2426 1.390 . S
C2427 C2428 1.394 . S
C2427 C2433 1.465 . S
C2428 C2423 1.399 . S
C2428 C2427 1.394 . S
C2428 C2429 1.516 . S
C2429 C2428 1.516 . S
C2429 C2430 1.502 . S
C2429 C2431 1.561 . S
C2429 C2432 1.526 . S
C2430 H2414 0.959 . S
C2430 H2415 0.959 . S
C2430 H2416 0.961 . S
C2430 C2429 1.502 . S
C2431 H2417 0.960 . S
C2431 H2418 0.961 . S
C2431 H2419 0.959 . S
C2431 C2429 1.561 . S
C2432 C2429 1.526 . S
C2432 C2433 1.396 . S
C2432 C2437 1.390 . S
C2433 C2427 1.465 . S
C2433 C2432 1.396 . S
C2433 C2434 1.399 . S
C2434 H2420 0.929 . S
C2434 C2433 1.399 . S
C2434 C2435 1.385 . S
C2435 H2421 0.931 . S
C2435 C2434 1.385 . S
C2435 C2436 1.389 . S
C2436 C2435 1.389 . S
C2436 C2437 1.387 . S
C2437 H2422 0.930 . S
C2437 C2432 1.390 . S
C2437 C2436 1.387 . S
H2438 C2450 0.930 . S
H2439 C2452 0.930 . S
H2440 C2453 0.930 . S
H2441 C2457 0.959 . S
H2442 C2457 0.959 . S
H2443 C2457 0.961 . S
H2444 C2458 0.960 . S
H2445 C2458 0.961 . S
H2446 C2458 0.959 . S
H2447 C2461 0.929 . S
H2448 C2462 0.931 . S
H2449 C2464 0.930 . S
C2450 H2438 0.930 . S
C2450 C2451 1.399 . S
C2450 C2455 1.399 . S
C2451 C2450 1.399 . S
C2451 C2452 1.376 . S
C2452 H2439 0.930 . S
C2452 C2451 1.376 . S
C2452 C2453 1.388 . S
C2453 H2440 0.930 . S
C2453 C2452 1.388 . S
C2453 C2454 1.390 . S
C2454 C2453 1.390 . S
C2454 C2455 1.394 . S
C2454 C2460 1.465 . S
C2455 C2450 1.399 . S
C2455 C2454 1.394 . S
C2455 C2456 1.516 . S
C2456 C2455 1.516 . S
C2456 C2457 1.502 . S
C2456 C2458 1.561 . S
C2456 C2459 1.526 . S
C2457 H2441 0.959 . S
C2457 H2442 0.959 . S
C2457 H2443 0.961 . S
C2457 C2456 1.502 . S
C2458 H2444 0.960 . S
C2458 H2445 0.961 . S
C2458 H2446 0.959 . S
C2458 C2456 1.561 . S
C2459 C2456 1.526 . S
C2459 C2460 1.396 . S
C2459 C2464 1.390 . S
C2460 C2454 1.465 . S
C2460 C2459 1.396 . S
C2460 C2461 1.399 . S
C2461 H2447 0.929 . S
C2461 C2460 1.399 . S
C2461 C2462 1.385 . S
C2462 H2448 0.931 . S
C2462 C2461 1.385 . S
C2462 C2463 1.389 . S
C2463 C2462 1.389 . S
C2463 C2464 1.387 . S
C2464 H2449 0.930 . S
C2464 C2459 1.390 . S
C2464 C2463 1.387 . S
H2465 C2477 0.930 . S
H2466 C2479 0.930 . S
H2467 C2480 0.933 1_545 S
H2468 C2484 0.959 . S
H2469 C2484 0.959 1_556 S
H2470 C2484 0.961 1_556 S
H2471 C2485 0.960 . S
H2472 C2485 0.961 . S
H2473 C2485 0.959 . S
H2474 C2488 0.929 . S
H2475 C2489 0.931 . S
H2476 C2491 0.930 1_556 S
C2477 H2465 0.930 . S
C2477 C2478 1.399 . S
C2477 C2482 1.399 . S
C2478 C2477 1.399 . S
C2478 C2479 1.376 . S
C2479 H2466 0.930 . S
C2479 C2478 1.376 . S
C2479 C2480 1.388 . S
C2480 H2467 0.933 1_565 S
C2480 C2479 1.388 . S
C2480 C2481 1.390 . S
C2481 C2480 1.390 . S
C2481 C2482 1.394 . S
C2481 C2487 1.465 . S
C2482 C2477 1.399 . S
C2482 C2481 1.394 . S
C2482 C2483 1.516 . S
C2483 C2482 1.516 . S
C2483 C2484 1.502 . S
C2483 C2485 1.561 1_554 S
C2483 C2486 1.526 . S
C2484 H2468 0.959 . S
C2484 H2469 0.959 1_554 S
C2484 H2470 0.961 1_554 S
C2484 C2483 1.502 . S
C2485 H2471 0.960 . S
C2485 H2472 0.961 . S
C2485 H2473 0.959 . S
C2485 C2483 1.561 1_556 S
C2486 C2483 1.526 . S
C2486 C2487 1.396 . S
C2486 C2491 1.390 . S
C2487 C2481 1.465 . S
C2487 C2486 1.396 . S
C2487 C2488 1.399 1_565 S
C2488 H2474 0.929 . S
C2488 C2487 1.399 1_545 S
C2488 C2489 1.385 . S
C2489 H2475 0.931 . S
C2489 C2488 1.385 . S
C2489 C2490 1.389 . S
C2490 C2489 1.389 . S
C2490 C2491 1.387 1_545 S
C2491 H2476 0.930 1_554 S
C2491 C2486 1.390 . S
C2491 C2490 1.387 1_565 S
H2492 C2504 0.930 . S
H2493 C2506 0.930 . S
H2494 C2507 0.930 . S
H2495 C2511 0.959 . S
H2496 C2511 0.959 . S
H2497 C2511 0.961 . S
H2498 C2512 0.960 . S
H2499 C2512 0.961 . S
H2500 C2512 0.959 . S
H2501 C2515 0.929 . S
H2502 C2516 0.931 . S
H2503 C2518 0.930 . S
C2504 H2492 0.930 . S
C2504 C2505 1.399 . S
C2504 C2509 1.399 . S
C2505 C2504 1.399 . S
C2505 C2506 1.376 . S
C2506 H2493 0.930 . S
C2506 C2505 1.376 . S
C2506 C2507 1.388 . S
C2507 H2494 0.930 . S
C2507 C2506 1.388 . S
C2507 C2508 1.390 . S
C2508 C2507 1.390 . S
C2508 C2509 1.394 . S
C2508 C2514 1.465 . S
C2509 C2504 1.399 . S
C2509 C2508 1.394 . S
C2509 C2510 1.516 . S
C2510 C2509 1.516 . S
C2510 C2511 1.502 . S
C2510 C2512 1.561 . S
C2510 C2513 1.526 . S
C2511 H2495 0.959 . S
C2511 H2496 0.959 . S
C2511 H2497 0.961 . S
C2511 C2510 1.502 . S
C2512 H2498 0.960 . S
C2512 H2499 0.961 . S
C2512 H2500 0.959 . S
C2512 C2510 1.561 . S
C2513 C2510 1.526 . S
C2513 C2514 1.396 . S
C2513 C2518 1.390 . S
C2514 C2508 1.465 . S
C2514 C2513 1.396 . S
C2514 C2515 1.399 . S
C2515 H2501 0.929 . S
C2515 C2514 1.399 . S
C2515 C2516 1.385 . S
C2516 H2502 0.931 . S
C2516 C2515 1.385 . S
C2516 C2517 1.389 . S
C2517 C2516 1.389 . S
C2517 C2518 1.387 . S
C2518 H2503 0.930 . S
C2518 C2513 1.390 . S
C2518 C2517 1.387 . S
H2519 C2531 0.930 . S
H2520 C2533 0.930 . S
H2521 C2534 0.930 . S
H2522 C2538 0.959 . S
H2523 C2538 0.959 . S
H2524 C2538 0.961 . S
H2525 C2539 0.960 . S
H2526 C2539 0.961 . S
H2527 C2539 0.959 . S
H2528 C2542 0.929 . S
H2529 C2543 0.931 . S
H2530 C2545 0.930 1_556 S
C2531 H2519 0.930 . S
C2531 C2532 1.399 1_556 S
C2531 C2536 1.399 1_556 S
C2532 C2531 1.399 1_554 S
C2532 C2533 1.376 . S
C2533 H2520 0.930 . S
C2533 C2532 1.376 . S
C2533 C2534 1.388 . S
C2534 H2521 0.930 . S
C2534 C2533 1.388 . S
C2534 C2535 1.390 . S
C2535 C2534 1.390 . S
C2535 C2536 1.394 . S
C2535 C2541 1.465 . S
C2536 C2531 1.399 1_554 S
C2536 C2535 1.394 . S
C2536 C2537 1.516 1_554 S
C2537 C2536 1.516 1_556 S
C2537 C2538 1.502 . S
C2537 C2539 1.561 . S
C2537 C2540 1.526 1_556 S
C2538 H2522 0.959 . S
C2538 H2523 0.959 . S
C2538 H2524 0.961 . S
C2538 C2537 1.502 . S
C2539 H2525 0.960 . S
C2539 H2526 0.961 . S
C2539 H2527 0.959 . S
C2539 C2537 1.561 . S
C2540 C2537 1.526 1_554 S
C2540 C2541 1.396 . S
C2540 C2545 1.390 . S
C2541 C2535 1.465 . S
C2541 C2540 1.396 . S
C2541 C2542 1.399 . S
C2542 H2528 0.929 . S
C2542 C2541 1.399 . S
C2542 C2543 1.385 . S
C2543 H2529 0.931 . S
C2543 C2542 1.385 . S
C2543 C2544 1.389 . S
C2544 C2543 1.389 . S
C2544 C2545 1.387 . S
C2545 H2530 0.930 1_554 S
C2545 C2540 1.390 . S
C2545 C2544 1.387 . S
H2546 C2558 0.930 . S
H2547 C2560 0.930 . S
H2548 C2561 0.930 . S
H2549 C2565 0.959 . S
H2550 C2565 0.959 . S
H2551 C2565 0.961 . S
H2552 C2566 0.960 . S
H2553 C2566 0.961 . S
H2554 C2566 0.959 . S
H2555 C2569 0.929 . S
H2556 C2570 0.931 . S
H2557 C2572 0.930 . S
C2558 H2546 0.930 . S
C2558 C2559 1.399 . S
C2558 C2563 1.399 . S
C2559 C2558 1.399 . S
C2559 C2560 1.376 . S
C2560 H2547 0.930 . S
C2560 C2559 1.376 . S
C2560 C2561 1.388 . S
C2561 H2548 0.930 . S
C2561 C2560 1.388 . S
C2561 C2562 1.390 . S
C2562 C2561 1.390 . S
C2562 C2563 1.394 . S
C2562 C2568 1.465 . S
C2563 C2558 1.399 . S
C2563 C2562 1.394 . S
C2563 C2564 1.516 . S
C2564 C2563 1.516 . S
C2564 C2565 1.502 . S
C2564 C2566 1.561 . S
C2564 C2567 1.526 . S
C2565 H2549 0.959 . S
C2565 H2550 0.959 . S
C2565 H2551 0.961 . S
C2565 C2564 1.502 . S
C2566 H2552 0.960 . S
C2566 H2553 0.961 . S
C2566 H2554 0.959 . S
C2566 C2564 1.561 . S
C2567 C2564 1.526 . S
C2567 C2568 1.396 . S
C2567 C2572 1.390 . S
C2568 C2562 1.465 . S
C2568 C2567 1.396 . S
C2568 C2569 1.399 . S
C2569 H2555 0.929 . S
C2569 C2568 1.399 . S
C2569 C2570 1.385 . S
C2570 H2556 0.931 . S
C2570 C2569 1.385 . S
C2570 C2571 1.389 . S
C2571 C2570 1.389 . S
C2571 C2572 1.387 . S
C2572 H2557 0.930 . S
C2572 C2567 1.390 . S
C2572 C2571 1.387 . S
H2573 C2585 0.930 . S
H2574 C2587 0.930 1_545 S
H2575 C2588 0.930 . S
H2576 C2592 0.959 . S
H2577 C2592 0.959 . S
H2578 C2592 0.961 . S
H2579 C2593 0.960 . S
H2580 C2593 0.961 . S
H2581 C2593 0.959 . S
H2582 C2596 0.929 . S
H2583 C2597 0.931 . S
H2584 C2599 0.930 . S
C2585 H2573 0.930 . S
C2585 C2586 1.399 . S
C2585 C2590 1.399 . S
C2586 C2585 1.399 . S
C2586 C2587 1.376 . S
C2587 H2574 0.930 1_565 S
C2587 C2586 1.376 . S
C2587 C2588 1.388 . S
C2588 H2575 0.930 . S
C2588 C2587 1.388 . S
C2588 C2589 1.390 . S
C2589 C2588 1.390 . S
C2589 C2590 1.394 . S
C2589 C2595 1.465 . S
C2590 C2585 1.399 . S
C2590 C2589 1.394 . S
C2590 C2591 1.516 . S
C2591 C2590 1.516 . S
C2591 C2592 1.502 . S
C2591 C2593 1.561 . S
C2591 C2594 1.526 . S
C2592 H2576 0.959 . S
C2592 H2577 0.959 . S
C2592 H2578 0.961 . S
C2592 C2591 1.502 . S
C2593 H2579 0.960 . S
C2593 H2580 0.961 . S
C2593 H2581 0.959 . S
C2593 C2591 1.561 . S
C2594 C2591 1.526 . S
C2594 C2595 1.396 . S
C2594 C2599 1.390 . S
C2595 C2589 1.465 . S
C2595 C2594 1.396 . S
C2595 C2596 1.399 . S
C2596 H2582 0.929 . S
C2596 C2595 1.399 . S
C2596 C2597 1.385 . S
C2597 H2583 0.931 . S
C2597 C2596 1.385 . S
C2597 C2598 1.389 . S
C2598 C2597 1.389 . S
C2598 C2599 1.387 . S
C2599 H2584 0.930 . S
C2599 C2594 1.390 . S
C2599 C2598 1.387 . S
H2600 C2612 0.930 . S
H2601 C2614 0.930 . S
H2602 C2615 0.930 . S
H2603 C2619 0.959 . S
H2604 C2619 0.959 . S
H2605 C2619 0.961 . S
H2606 C2620 0.960 . S
H2607 C2620 0.961 . S
H2608 C2620 0.959 . S
H2609 C2623 0.929 . S
H2610 C2624 0.931 . S
H2611 C2626 0.930 . S
C2612 H2600 0.930 . S
C2612 C2613 1.399 . S
C2612 C2617 1.399 . S
C2613 C2612 1.399 . S
C2613 C2614 1.376 . S
C2614 H2601 0.930 . S
C2614 C2613 1.376 . S
C2614 C2615 1.388 . S
C2615 H2602 0.930 . S
C2615 C2614 1.388 . S
C2615 C2616 1.390 . S
C2616 C2615 1.390 . S
C2616 C2617 1.394 . S
C2616 C2622 1.465 . S
C2617 C2612 1.399 . S
C2617 C2616 1.394 . S
C2617 C2618 1.516 . S
C2618 C2617 1.516 . S
C2618 C2619 1.502 . S
C2618 C2620 1.561 . S
C2618 C2621 1.526 . S
C2619 H2603 0.959 . S
C2619 H2604 0.959 . S
C2619 H2605 0.961 . S
C2619 C2618 1.502 . S
C2620 H2606 0.960 . S
C2620 H2607 0.961 . S
C2620 H2608 0.959 . S
C2620 C2618 1.561 . S
C2621 C2618 1.526 . S
C2621 C2622 1.396 . S
C2621 C2626 1.390 . S
C2622 C2616 1.465 . S
C2622 C2621 1.396 . S
C2622 C2623 1.399 . S
C2623 H2609 0.929 . S
C2623 C2622 1.399 . S
C2623 C2624 1.385 . S
C2624 H2610 0.931 . S
C2624 C2623 1.385 . S
C2624 C2625 1.389 . S
C2625 C2624 1.389 . S
C2625 C2626 1.387 . S
C2626 H2611 0.930 . S
C2626 C2621 1.390 . S
C2626 C2625 1.387 . S
H2627 C2639 0.930 . S
H2628 C2641 0.930 . S
H2629 C2642 0.930 . S
H2630 C2646 0.959 . S
H2631 C2646 0.959 . S
H2632 C2646 0.961 . S
H2633 C2647 0.960 . S
H2634 C2647 0.961 . S
H2635 C2647 0.959 . S
H2636 C2650 0.929 . S
H2637 C2651 0.931 . S
H2638 C2653 0.930 . S
C2639 H2627 0.930 . S
C2639 C2640 1.399 . S
C2639 C2644 1.399 . S
C2640 C2639 1.399 . S
C2640 C2641 1.376 . S
C2641 H2628 0.930 . S
C2641 C2640 1.376 . S
C2641 C2642 1.388 . S
C2642 H2629 0.930 . S
C2642 C2641 1.388 . S
C2642 C2643 1.390 . S
C2643 C2642 1.390 . S
C2643 C2644 1.394 . S
C2643 C2649 1.465 . S
C2644 C2639 1.399 . S
C2644 C2643 1.394 . S
C2644 C2645 1.516 . S
C2645 C2644 1.516 . S
C2645 C2646 1.502 . S
C2645 C2647 1.561 . S
C2645 C2648 1.526 . S
C2646 H2630 0.959 . S
C2646 H2631 0.959 . S
C2646 H2632 0.961 . S
C2646 C2645 1.502 . S
C2647 H2633 0.960 . S
C2647 H2634 0.961 . S
C2647 H2635 0.959 . S
C2647 C2645 1.561 . S
C2648 C2645 1.526 . S
C2648 C2649 1.396 . S
C2648 C2653 1.390 . S
C2649 C2643 1.465 . S
C2649 C2648 1.396 . S
C2649 C2650 1.399 . S
C2650 H2636 0.929 . S
C2650 C2649 1.399 . S
C2650 C2651 1.385 . S
C2651 H2637 0.931 . S
C2651 C2650 1.385 . S
C2651 C2652 1.389 . S
C2652 C2651 1.389 . S
C2652 C2653 1.387 . S
C2653 H2638 0.930 . S
C2653 C2648 1.390 . S
C2653 C2652 1.387 . S
H2654 C2666 0.930 . S
H2655 C2668 0.930 . S
H2656 C2669 0.930 . S
H2657 C2673 0.959 . S
H2658 C2673 0.959 . S
H2659 C2673 0.961 . S
H2660 C2674 0.960 . S
H2661 C2674 0.961 . S
H2662 C2674 0.959 . S
H2663 C2677 0.921 1_655 S
H2664 C2678 0.931 . S
H2665 C2680 0.930 . S
C2666 H2654 0.930 . S
C2666 C2667 1.399 . S
C2666 C2671 1.399 . S
C2667 C2666 1.399 . S
C2667 C2668 1.376 1_455 S
C2668 H2655 0.930 . S
C2668 C2667 1.376 1_655 S
C2668 C2669 1.388 . S
C2669 H2656 0.930 . S
C2669 C2668 1.388 . S
C2669 C2670 1.381 1_655 S
C2670 C2669 1.381 1_455 S
C2670 C2671 1.396 . S
C2670 C2676 1.476 . S
C2671 C2666 1.399 . S
C2671 C2670 1.396 . S
C2671 C2672 1.516 . S
C2672 C2671 1.516 . S
C2672 C2673 1.502 . S
C2672 C2674 1.561 1_455 S
C2672 C2675 1.526 . S
C2673 H2657 0.959 . S
C2673 H2658 0.959 . S
C2673 H2659 0.961 . S
C2673 C2672 1.502 . S
C2674 H2660 0.960 . S
C2674 H2661 0.961 . S
C2674 H2662 0.959 . S
C2674 C2672 1.561 1_655 S
C2675 C2672 1.526 . S
C2675 C2676 1.396 . S
C2675 C2680 1.390 . S
C2676 C2670 1.476 . S
C2676 C2675 1.396 . S
C2676 C2677 1.395 . S
C2677 H2663 0.921 1_455 S
C2677 C2676 1.395 . S
C2677 C2678 1.400 . S
C2678 H2664 0.931 . S
C2678 C2677 1.400 . S
C2678 C2679 1.389 . S
C2679 C2678 1.389 . S
C2679 C2680 1.387 . S
C2680 H2665 0.930 . S
C2680 C2675 1.390 . S
C2680 C2679 1.387 . S
H2681 C2693 0.930 . S
H2682 C2695 0.930 . S
H2683 C2696 0.930 . S
H2684 C2700 0.959 . S
H2685 C2700 0.959 . S
H2686 C2700 0.961 . S
H2687 C2701 0.960 . S
H2688 C2701 0.961 . S
H2689 C2701 0.959 . S
H2690 C2704 0.929 . S
H2691 C2705 0.931 . S
H2692 C2707 0.930 . S
C2693 H2681 0.930 . S
C2693 C2694 1.399 . S
C2693 C2698 1.399 . S
C2694 C2693 1.399 . S
C2694 C2695 1.376 . S
C2695 H2682 0.930 . S
C2695 C2694 1.376 . S
C2695 C2696 1.388 . S
C2696 H2683 0.930 . S
C2696 C2695 1.388 . S
C2696 C2697 1.390 . S
C2697 C2696 1.390 . S
C2697 C2698 1.394 . S
C2697 C2703 1.465 . S
C2698 C2693 1.399 . S
C2698 C2697 1.394 . S
C2698 C2699 1.516 . S
C2699 C2698 1.516 . S
C2699 C2700 1.502 . S
C2699 C2701 1.561 . S
C2699 C2702 1.526 . S
C2700 H2684 0.959 . S
C2700 H2685 0.959 . S
C2700 H2686 0.961 . S
C2700 C2699 1.502 . S
C2701 H2687 0.960 . S
C2701 H2688 0.961 . S
C2701 H2689 0.959 . S
C2701 C2699 1.561 . S
C2702 C2699 1.526 . S
C2702 C2703 1.396 . S
C2702 C2707 1.390 . S
C2703 C2697 1.465 . S
C2703 C2702 1.396 . S
C2703 C2704 1.399 . S
C2704 H2690 0.929 . S
C2704 C2703 1.399 . S
C2704 C2705 1.385 . S
C2705 H2691 0.931 . S
C2705 C2704 1.385 . S
C2705 C2706 1.389 . S
C2706 C2705 1.389 . S
C2706 C2707 1.387 . S
C2707 H2692 0.930 . S
C2707 C2702 1.390 . S
C2707 C2706 1.387 . S
H2708 C2720 0.930 . S
H2709 C2722 0.930 . S
H2710 C2723 0.930 . S
H2711 C2727 0.959 . S
H2712 C2727 0.959 . S
H2713 C2727 0.961 . S
H2714 C2728 0.960 . S
H2715 C2728 0.961 . S
H2716 C2728 0.959 . S
H2717 C2731 0.929 1_554 S
H2718 C2732 0.931 . S
H2719 C2734 0.930 . S
C2720 H2708 0.930 . S
C2720 C2721 1.399 . S
C2720 C2725 1.399 . S
C2721 C2720 1.399 . S
C2721 C2722 1.376 . S
C2722 H2709 0.930 . S
C2722 C2721 1.376 . S
C2722 C2723 1.388 . S
C2723 H2710 0.930 . S
C2723 C2722 1.388 . S
C2723 C2724 1.390 . S
C2724 C2723 1.390 . S
C2724 C2725 1.394 . S
C2724 C2730 1.465 . S
C2725 C2720 1.399 . S
C2725 C2724 1.394 . S
C2725 C2726 1.516 . S
C2726 C2725 1.516 . S
C2726 C2727 1.502 . S
C2726 C2728 1.561 . S
C2726 C2729 1.526 . S
C2727 H2711 0.959 . S
C2727 H2712 0.959 . S
C2727 H2713 0.961 . S
C2727 C2726 1.502 . S
C2728 H2714 0.960 . S
C2728 H2715 0.961 . S
C2728 H2716 0.959 . S
C2728 C2726 1.561 . S
C2729 C2726 1.526 . S
C2729 C2730 1.396 . S
C2729 C2734 1.390 . S
C2730 C2724 1.465 . S
C2730 C2729 1.396 . S
C2730 C2731 1.399 . S
C2731 H2717 0.929 1_556 S
C2731 C2730 1.399 . S
C2731 C2732 1.385 1_556 S
C2732 H2718 0.931 . S
C2732 C2731 1.385 1_554 S
C2732 C2733 1.389 1_554 S
C2733 C2732 1.389 1_556 S
C2733 C2734 1.387 . S
C2734 H2719 0.930 . S
C2734 C2729 1.390 . S
C2734 C2733 1.387 . S
H2735 C2747 0.930 . S
H2736 C2749 0.930 . S
H2737 C2750 0.930 . S
H2738 C2754 0.959 . S
H2739 C2754 0.959 . S
H2740 C2754 0.961 . S
H2741 C2755 0.960 . S
H2742 C2755 0.961 . S
H2743 C2755 0.959 . S
H2744 C2758 0.929 . S
H2745 C2759 0.931 . S
H2746 C2761 0.930 . S
C2747 H2735 0.930 . S
C2747 C2748 1.399 . S
C2747 C2752 1.399 . S
C2748 C2747 1.399 . S
C2748 C2749 1.376 . S
C2749 H2736 0.930 . S
C2749 C2748 1.376 . S
C2749 C2750 1.388 . S
C2750 H2737 0.930 . S
C2750 C2749 1.388 . S
C2750 C2751 1.390 . S
C2751 C2750 1.390 . S
C2751 C2752 1.394 . S
C2751 C2757 1.465 . S
C2752 C2747 1.399 . S
C2752 C2751 1.394 . S
C2752 C2753 1.516 . S
C2753 C2752 1.516 . S
C2753 C2754 1.502 . S
C2753 C2755 1.561 . S
C2753 C2756 1.526 . S
C2754 H2738 0.959 . S
C2754 H2739 0.959 . S
C2754 H2740 0.961 . S
C2754 C2753 1.502 . S
C2755 H2741 0.960 . S
C2755 H2742 0.961 . S
C2755 H2743 0.959 . S
C2755 C2753 1.561 . S
C2756 C2753 1.526 . S
C2756 C2757 1.396 . S
C2756 C2761 1.390 . S
C2757 C2751 1.465 . S
C2757 C2756 1.396 . S
C2757 C2758 1.399 . S
C2758 H2744 0.929 . S
C2758 C2757 1.399 . S
C2758 C2759 1.385 . S
C2759 H2745 0.931 . S
C2759 C2758 1.385 . S
C2759 C2760 1.389 . S
C2760 C2759 1.389 . S
C2760 C2761 1.387 . S
C2761 H2746 0.930 . S
C2761 C2756 1.390 . S
C2761 C2760 1.387 . S
H2762 C2774 0.930 . S
H2763 C2776 0.930 . S
H2764 C2777 0.930 . S
H2765 C2781 0.959 . S
H2766 C2781 0.959 . S
H2767 C2781 0.961 . S
H2768 C2782 0.960 . S
H2769 C2782 0.961 . S
H2770 C2782 0.959 . S
H2771 C2785 0.929 . S
H2772 C2786 0.931 . S
H2773 C2788 0.930 . S
C2774 H2762 0.930 . S
C2774 C2775 1.399 . S
C2774 C2779 1.399 . S
C2775 C2774 1.399 . S
C2775 C2776 1.376 . S
C2776 H2763 0.930 . S
C2776 C2775 1.376 . S
C2776 C2777 1.388 . S
C2777 H2764 0.930 . S
C2777 C2776 1.388 . S
C2777 C2778 1.390 . S
C2778 C2777 1.390 . S
C2778 C2779 1.394 . S
C2778 C2784 1.465 . S
C2779 C2774 1.399 . S
C2779 C2778 1.394 . S
C2779 C2780 1.516 . S
C2780 C2779 1.516 . S
C2780 C2781 1.502 1_455 S
C2780 C2782 1.561 . S
C2780 C2783 1.526 . S
C2781 H2765 0.959 . S
C2781 H2766 0.959 . S
C2781 H2767 0.961 . S
C2781 C2780 1.502 1_655 S
C2782 H2768 0.960 . S
C2782 H2769 0.961 . S
C2782 H2770 0.959 . S
C2782 C2780 1.561 . S
C2783 C2780 1.526 . S
C2783 C2784 1.396 . S
C2783 C2788 1.390 . S
C2784 C2778 1.465 . S
C2784 C2783 1.396 . S
C2784 C2785 1.399 . S
C2785 H2771 0.929 . S
C2785 C2784 1.399 . S
C2785 C2786 1.385 . S
C2786 H2772 0.931 . S
C2786 C2785 1.385 . S
C2786 C2787 1.389 . S
C2787 C2786 1.389 . S
C2787 C2788 1.387 . S
C2788 H2773 0.930 . S
C2788 C2783 1.390 . S
C2788 C2787 1.387 . S
H2789 C2801 0.930 . S
H2790 C2803 0.930 . S
H2791 C2804 0.930 . S
H2792 C2808 0.959 . S
H2793 C2808 0.959 . S
H2794 C2808 0.961 . S
H2795 C2809 0.960 . S
H2796 C2809 0.961 . S
H2797 C2809 0.959 . S
H2798 C2812 0.929 . S
H2799 C2813 0.931 . S
H2800 C2815 0.930 . S
C2801 H2789 0.930 . S
C2801 C2802 1.399 . S
C2801 C2806 1.399 . S
C2802 C2801 1.399 . S
C2802 C2803 1.376 . S
C2803 H2790 0.930 . S
C2803 C2802 1.376 . S
C2803 C2804 1.388 . S
C2804 H2791 0.930 . S
C2804 C2803 1.388 . S
C2804 C2805 1.390 . S
C2805 C2804 1.390 . S
C2805 C2806 1.394 . S
C2805 C2811 1.465 . S
C2806 C2801 1.399 . S
C2806 C2805 1.394 . S
C2806 C2807 1.516 . S
C2807 C2806 1.516 . S
C2807 C2808 1.502 . S
C2807 C2809 1.561 . S
C2807 C2810 1.526 . S
C2808 H2792 0.959 . S
C2808 H2793 0.959 . S
C2808 H2794 0.961 . S
C2808 C2807 1.502 . S
C2809 H2795 0.960 . S
C2809 H2796 0.961 . S
C2809 H2797 0.959 . S
C2809 C2807 1.561 . S
C2810 C2807 1.526 . S
C2810 C2811 1.396 . S
C2810 C2815 1.390 . S
C2811 C2805 1.465 . S
C2811 C2810 1.396 . S
C2811 C2812 1.399 . S
C2812 H2798 0.929 . S
C2812 C2811 1.399 . S
C2812 C2813 1.385 . S
C2813 H2799 0.931 . S
C2813 C2812 1.385 . S
C2813 C2814 1.389 . S
C2814 C2813 1.389 . S
C2814 C2815 1.387 . S
C2815 H2800 0.930 . S
C2815 C2810 1.390 . S
C2815 C2814 1.387 . S
H2816 C2828 0.930 . S
H2817 C2830 0.930 . S
H2818 C2831 0.930 . S
H2819 C2835 0.959 . S
H2820 C2835 0.959 . S
H2821 C2835 0.961 . S
H2822 C2836 0.960 . S
H2823 C2836 0.961 . S
H2824 C2836 0.959 . S
H2825 C2839 0.929 . S
H2826 C2840 0.931 . S
H2827 C2842 0.930 . S
C2828 H2816 0.930 . S
C2828 C2829 1.399 . S
C2828 C2833 1.399 . S
C2829 C2828 1.399 . S
C2829 C2830 1.376 . S
C2830 H2817 0.930 . S
C2830 C2829 1.376 . S
C2830 C2831 1.388 . S
C2831 H2818 0.930 . S
C2831 C2830 1.388 . S
C2831 C2832 1.390 . S
C2832 C2831 1.390 . S
C2832 C2833 1.394 . S
C2832 C2838 1.465 . S
C2833 C2828 1.399 . S
C2833 C2832 1.394 . S
C2833 C2834 1.516 . S
C2834 C2833 1.516 . S
C2834 C2835 1.502 . S
C2834 C2836 1.561 . S
C2834 C2837 1.526 . S
C2835 H2819 0.959 . S
C2835 H2820 0.959 . S
C2835 H2821 0.961 . S
C2835 C2834 1.502 . S
C2836 H2822 0.960 . S
C2836 H2823 0.961 . S
C2836 H2824 0.959 . S
C2836 C2834 1.561 . S
C2837 C2834 1.526 . S
C2837 C2838 1.396 . S
C2837 C2842 1.390 . S
C2838 C2832 1.465 . S
C2838 C2837 1.396 . S
C2838 C2839 1.399 . S
C2839 H2825 0.929 . S
C2839 C2838 1.399 . S
C2839 C2840 1.385 . S
C2840 H2826 0.931 . S
C2840 C2839 1.385 . S
C2840 C2841 1.389 . S
C2841 C2840 1.389 . S
C2841 C2842 1.387 . S
C2842 H2827 0.930 . S
C2842 C2837 1.390 . S
C2842 C2841 1.387 . S
H2843 C2855 0.930 . S
H2844 C2857 0.930 . S
H2845 C2858 0.930 . S
H2846 C2862 0.959 . S
H2847 C2862 0.959 . S
H2848 C2862 0.961 . S
H2849 C2863 0.960 . S
H2850 C2863 0.961 . S
H2851 C2863 0.959 . S
H2852 C2866 0.929 . S
H2853 C2867 0.931 . S
H2854 C2869 0.930 . S
C2855 H2843 0.930 . S
C2855 C2856 1.399 . S
C2855 C2860 1.399 . S
C2856 C2855 1.399 . S
C2856 C2857 1.376 . S
C2857 H2844 0.930 . S
C2857 C2856 1.376 . S
C2857 C2858 1.388 . S
C2858 H2845 0.930 . S
C2858 C2857 1.388 . S
C2858 C2859 1.390 . S
C2859 C2858 1.390 . S
C2859 C2860 1.394 . S
C2859 C2865 1.465 . S
C2860 C2855 1.399 . S
C2860 C2859 1.394 . S
C2860 C2861 1.516 . S
C2861 C2860 1.516 . S
C2861 C2862 1.502 . S
C2861 C2863 1.561 . S
C2861 C2864 1.526 . S
C2862 H2846 0.959 . S
C2862 H2847 0.959 . S
C2862 H2848 0.961 . S
C2862 C2861 1.502 . S
C2863 H2849 0.960 . S
C2863 H2850 0.961 . S
C2863 H2851 0.959 . S
C2863 C2861 1.561 . S
C2864 C2861 1.526 . S
C2864 C2865 1.396 . S
C2864 C2869 1.390 . S
C2865 C2859 1.465 . S
C2865 C2864 1.396 . S
C2865 C2866 1.399 . S
C2866 H2852 0.929 . S
C2866 C2865 1.399 . S
C2866 C2867 1.385 . S
C2867 H2853 0.931 . S
C2867 C2866 1.385 . S
C2867 C2868 1.389 . S
C2868 C2867 1.389 . S
C2868 C2869 1.387 . S
C2869 H2854 0.930 . S
C2869 C2864 1.390 . S
C2869 C2868 1.387 . S
H2870 C2882 0.930 . S
H2871 C2884 0.930 . S
H2872 C2885 0.930 . S
H2873 C2889 0.959 . S
H2874 C2889 0.959 . S
H2875 C2889 0.961 . S
H2876 C2890 0.960 . S
H2877 C2890 0.961 . S
H2878 C2890 0.959 . S
H2879 C2893 0.929 . S
H2880 C2894 0.931 . S
H2881 C2896 0.930 1_455 S
C2882 H2870 0.930 . S
C2882 C2883 1.399 . S
C2882 C2887 1.399 . S
C2883 C2882 1.399 . S
C2883 C2884 1.376 . S
C2884 H2871 0.930 . S
C2884 C2883 1.376 . S
C2884 C2885 1.388 . S
C2885 H2872 0.930 . S
C2885 C2884 1.388 . S
C2885 C2886 1.390 . S
C2886 C2885 1.390 . S
C2886 C2887 1.394 . S
C2886 C2892 1.465 . S
C2887 C2882 1.399 . S
C2887 C2886 1.394 . S
C2887 C2888 1.516 . S
C2888 C2887 1.516 . S
C2888 C2889 1.502 1_655 S
C2888 C2890 1.561 . S
C2888 C2891 1.526 . S
C2889 H2873 0.959 . S
C2889 H2874 0.959 . S
C2889 H2875 0.961 . S
C2889 C2888 1.502 1_455 S
C2890 H2876 0.960 . S
C2890 H2877 0.961 . S
C2890 H2878 0.959 . S
C2890 C2888 1.561 . S
C2891 C2888 1.526 . S
C2891 C2892 1.396 . S
C2891 C2896 1.390 . S
C2892 C2886 1.465 . S
C2892 C2891 1.396 . S
C2892 C2893 1.399 . S
C2893 H2879 0.929 . S
C2893 C2892 1.399 . S
C2893 C2894 1.385 . S
C2894 H2880 0.931 . S
C2894 C2893 1.385 . S
C2894 C2895 1.389 . S
C2895 C2894 1.389 . S
C2895 C2896 1.387 . S
C2896 H2881 0.930 1_655 S
C2896 C2891 1.390 . S
C2896 C2895 1.387 . S
H2897 C2909 0.930 . S
H2898 C2911 0.930 . S
H2899 C2912 0.930 . S
H2900 C2916 0.959 . S
H2901 C2916 0.959 . S
H2902 C2916 0.961 . S
H2903 C2917 0.960 . S
H2904 C2917 0.961 . S
H2905 C2917 0.959 . S
H2906 C2920 0.929 . S
H2907 C2921 0.931 . S
H2908 C2923 0.930 . S
C2909 H2897 0.930 . S
C2909 C2910 1.399 . S
C2909 C2914 1.399 . S
C2910 C2909 1.399 . S
C2910 C2911 1.376 . S
C2911 H2898 0.930 . S
C2911 C2910 1.376 . S
C2911 C2912 1.388 . S
C2912 H2899 0.930 . S
C2912 C2911 1.388 . S
C2912 C2913 1.390 . S
C2913 C2912 1.390 . S
C2913 C2914 1.394 . S
C2913 C2919 1.465 . S
C2914 C2909 1.399 . S
C2914 C2913 1.394 . S
C2914 C2915 1.516 . S
C2915 C2914 1.516 . S
C2915 C2916 1.502 . S
C2915 C2917 1.561 . S
C2915 C2918 1.526 . S
C2916 H2900 0.959 . S
C2916 H2901 0.959 . S
C2916 H2902 0.961 . S
C2916 C2915 1.502 . S
C2917 H2903 0.960 . S
C2917 H2904 0.961 . S
C2917 H2905 0.959 . S
C2917 C2915 1.561 . S
C2918 C2915 1.526 . S
C2918 C2919 1.396 . S
C2918 C2923 1.390 . S
C2919 C2913 1.465 . S
C2919 C2918 1.396 . S
C2919 C2920 1.399 . S
C2920 H2906 0.929 . S
C2920 C2919 1.399 . S
C2920 C2921 1.385 . S
C2921 H2907 0.931 . S
C2921 C2920 1.385 . S
C2921 C2922 1.389 . S
C2922 C2921 1.389 . S
C2922 C2923 1.387 . S
C2923 H2908 0.930 . S
C2923 C2918 1.390 . S
C2923 C2922 1.387 . S
H2924 C2936 0.930 . S
H2925 C2938 0.930 . S
H2926 C2939 0.930 . S
H2927 C2943 0.959 . S
H2928 C2943 0.959 . S
H2929 C2943 0.961 . S
H2930 C2944 0.960 . S
H2931 C2944 0.961 . S
H2932 C2944 0.959 . S
H2933 C2947 0.929 . S
H2934 C2948 0.931 . S
H2935 C2950 0.930 . S
C2936 H2924 0.930 . S
C2936 C2937 1.399 . S
C2936 C2941 1.399 . S
C2937 C2936 1.399 . S
C2937 C2938 1.376 . S
C2938 H2925 0.930 . S
C2938 C2937 1.376 . S
C2938 C2939 1.388 . S
C2939 H2926 0.930 . S
C2939 C2938 1.388 . S
C2939 C2940 1.390 . S
C2940 C2939 1.390 . S
C2940 C2941 1.394 . S
C2940 C2946 1.465 . S
C2941 C2936 1.399 . S
C2941 C2940 1.394 . S
C2941 C2942 1.516 . S
C2942 C2941 1.516 . S
C2942 C2943 1.502 . S
C2942 C2944 1.561 . S
C2942 C2945 1.526 . S
C2943 H2927 0.959 . S
C2943 H2928 0.959 . S
C2943 H2929 0.961 . S
C2943 C2942 1.502 . S
C2944 H2930 0.960 . S
C2944 H2931 0.961 . S
C2944 H2932 0.959 . S
C2944 C2942 1.561 . S
C2945 C2942 1.526 . S
C2945 C2946 1.396 . S
C2945 C2950 1.390 . S
C2946 C2940 1.465 . S
C2946 C2945 1.396 . S
C2946 C2947 1.399 . S
C2947 H2933 0.929 . S
C2947 C2946 1.399 . S
C2947 C2948 1.385 . S
C2948 H2934 0.931 . S
C2948 C2947 1.385 . S
C2948 C2949 1.389 . S
C2949 C2948 1.389 . S
C2949 C2950 1.387 . S
C2950 H2935 0.930 . S
C2950 C2945 1.390 . S
C2950 C2949 1.387 . S
H2951 C2963 0.930 . S
H2952 C2965 0.930 . S
H2953 C2966 0.930 . S
H2954 C2970 0.959 . S
H2955 C2970 0.959 . S
H2956 C2970 0.961 . S
H2957 C2971 0.960 . S
H2958 C2971 0.961 . S
H2959 C2971 0.959 . S
H2960 C2974 0.929 . S
H2961 C2975 0.931 . S
H2962 C2977 0.930 . S
C2963 H2951 0.930 . S
C2963 C2964 1.399 . S
C2963 C2968 1.399 . S
C2964 C2963 1.399 . S
C2964 C2965 1.376 . S
C2965 H2952 0.930 . S
C2965 C2964 1.376 . S
C2965 C2966 1.388 . S
C2966 H2953 0.930 . S
C2966 C2965 1.388 . S
C2966 C2967 1.390 . S
C2967 C2966 1.390 . S
C2967 C2968 1.394 . S
C2967 C2973 1.465 . S
C2968 C2963 1.399 . S
C2968 C2967 1.394 . S
C2968 C2969 1.516 . S
C2969 C2968 1.516 . S
C2969 C2970 1.502 . S
C2969 C2971 1.561 . S
C2969 C2972 1.526 . S
C2970 H2954 0.959 . S
C2970 H2955 0.959 . S
C2970 H2956 0.961 . S
C2970 C2969 1.502 . S
C2971 H2957 0.960 . S
C2971 H2958 0.961 . S
C2971 H2959 0.959 . S
C2971 C2969 1.561 . S
C2972 C2969 1.526 . S
C2972 C2973 1.396 . S
C2972 C2977 1.390 . S
C2973 C2967 1.465 . S
C2973 C2972 1.396 . S
C2973 C2974 1.399 . S
C2974 H2960 0.929 . S
C2974 C2973 1.399 . S
C2974 C2975 1.385 . S
C2975 H2961 0.931 . S
C2975 C2974 1.385 . S
C2975 C2976 1.389 . S
C2976 C2975 1.389 . S
C2976 C2977 1.387 . S
C2977 H2962 0.930 . S
C2977 C2972 1.390 . S
C2977 C2976 1.387 . S
H2978 C2990 0.930 . S
H2979 C2992 0.930 . S
H2980 C2993 0.930 . S
H2981 C2997 0.959 . S
H2982 C2997 0.959 . S
H2983 C2997 0.961 . S
H2984 C2998 0.960 . S
H2985 C2998 0.961 . S
H2986 C2998 0.959 . S
H2987 C3001 0.929 . S
H2988 C3002 0.959 . S
H2989 C3004 0.930 . S
C2990 H2978 0.930 . S
C2990 C2991 1.399 . S
C2990 C2995 1.399 . S
C2991 C2990 1.399 . S
C2991 C2992 1.376 . S
C2992 H2979 0.930 . S
C2992 C2991 1.376 . S
C2992 C2993 1.388 . S
C2993 H2980 0.930 . S
C2993 C2992 1.388 . S
C2993 C2994 1.390 . S
C2994 C2993 1.390 . S
C2994 C2995 1.394 . S
C2994 C3000 1.465 . S
C2995 C2990 1.399 . S
C2995 C2994 1.394 . S
C2995 C2996 1.516 . S
C2996 C2995 1.516 . S
C2996 C2997 1.502 . S
C2996 C2998 1.561 . S
C2996 C2999 1.526 . S
C2997 H2981 0.959 . S
C2997 H2982 0.959 . S
C2997 H2983 0.961 . S
C2997 C2996 1.502 . S
C2998 H2984 0.960 . S
C2998 H2985 0.961 . S
C2998 H2986 0.959 . S
C2998 C2996 1.561 . S
C2999 C2996 1.526 . S
C2999 C3000 1.396 . S
C2999 C3004 1.390 . S
C3000 C2994 1.465 . S
C3000 C2999 1.396 . S
C3000 C3001 1.399 . S
C3001 H2987 0.929 . S
C3001 C3000 1.399 . S
C3001 C3002 1.385 . S
C3002 H2988 0.959 . S
C3002 C3001 1.385 . S
C3002 C3003 1.389 . S
C3003 C3002 1.389 . S
C3003 C3004 1.387 . S
C3004 H2989 0.930 . S
C3004 C2999 1.390 . S
C3004 C3003 1.387 . S
H3005 C3017 0.930 . S
H3006 C3019 0.930 . S
H3007 C3020 0.930 . S
H3008 C3024 0.959 . S
H3009 C3024 0.959 . S
H3010 C3024 0.961 . S
H3011 C3025 0.960 . S
H3012 C3025 0.961 . S
H3013 C3025 0.959 . S
H3014 C3028 0.929 . S
H3015 C3029 0.931 . S
H3016 C3031 0.930 . S
C3017 H3005 0.930 . S
C3017 C3018 1.399 . S
C3017 C3022 1.399 . S
C3018 C3017 1.399 . S
C3018 C3019 1.376 . S
C3019 H3006 0.930 . S
C3019 C3018 1.376 . S
C3019 C3020 1.388 . S
C3020 H3007 0.930 . S
C3020 C3019 1.388 . S
C3020 C3021 1.390 . S
C3021 C3020 1.390 . S
C3021 C3022 1.394 . S
C3021 C3027 1.465 . S
C3022 C3017 1.399 . S
C3022 C3021 1.394 . S
C3022 C3023 1.516 . S
C3023 C3022 1.516 . S
C3023 C3024 1.502 . S
C3023 C3025 1.561 . S
C3023 C3026 1.526 . S
C3024 H3008 0.959 . S
C3024 H3009 0.959 . S
C3024 H3010 0.961 . S
C3024 C3023 1.502 . S
C3025 H3011 0.960 . S
C3025 H3012 0.961 . S
C3025 H3013 0.959 . S
C3025 C3023 1.561 . S
C3026 C3023 1.526 . S
C3026 C3027 1.396 . S
C3026 C3031 1.390 . S
C3027 C3021 1.465 . S
C3027 C3026 1.396 . S
C3027 C3028 1.399 . S
C3028 H3014 0.929 . S
C3028 C3027 1.399 . S
C3028 C3029 1.385 . S
C3029 H3015 0.931 . S
C3029 C3028 1.385 . S
C3029 C3030 1.389 . S
C3030 C3029 1.389 . S
C3030 C3031 1.387 . S
C3031 H3016 0.930 . S
C3031 C3026 1.390 . S
C3031 C3030 1.387 . S
H3032 C3044 0.930 . S
H3033 C3046 0.930 . S
H3034 C3047 0.930 . S
H3035 C3051 0.959 . S
H3036 C3051 0.959 . S
H3037 C3051 0.961 . S
H3038 C3052 0.960 . S
H3039 C3052 0.961 . S
H3040 C3052 0.959 . S
H3041 C3055 0.929 . S
H3042 C3056 0.931 . S
H3043 C3058 0.930 . S
C3044 H3032 0.930 . S
C3044 C3045 1.399 . S
C3044 C3049 1.399 . S
C3045 C3044 1.399 . S
C3045 C3046 1.376 . S
C3046 H3033 0.930 . S
C3046 C3045 1.376 . S
C3046 C3047 1.388 . S
C3047 H3034 0.930 . S
C3047 C3046 1.388 . S
C3047 C3048 1.390 . S
C3048 C3047 1.390 . S
C3048 C3049 1.394 . S
C3048 C3054 1.465 . S
C3049 C3044 1.399 . S
C3049 C3048 1.394 . S
C3049 C3050 1.516 . S
C3050 C3049 1.516 . S
C3050 C3051 1.502 . S
C3050 C3052 1.561 . S
C3050 C3053 1.526 . S
C3051 H3035 0.959 . S
C3051 H3036 0.959 . S
C3051 H3037 0.961 . S
C3051 C3050 1.502 . S
C3052 H3038 0.960 . S
C3052 H3039 0.961 . S
C3052 H3040 0.959 . S
C3052 C3050 1.561 . S
C3053 C3050 1.526 . S
C3053 C3054 1.396 . S
C3053 C3058 1.390 . S
C3054 C3048 1.465 . S
C3054 C3053 1.396 . S
C3054 C3055 1.399 . S
C3055 H3041 0.929 . S
C3055 C3054 1.399 . S
C3055 C3056 1.385 . S
C3056 H3042 0.931 . S
C3056 C3055 1.385 . S
C3056 C3057 1.389 . S
C3057 C3056 1.389 . S
C3057 C3058 1.387 . S
C3058 H3043 0.930 . S
C3058 C3053 1.390 . S
C3058 C3057 1.387 . S
H3059 C3071 0.930 . S
H3060 C3073 0.930 . S
H3061 C3074 0.930 . S
H3062 C3078 0.959 . S
H3063 C3078 0.959 . S
H3064 C3078 0.961 . S
H3065 C3079 0.960 . S
H3066 C3079 0.961 . S
H3067 C3079 0.959 . S
H3068 C3082 0.929 . S
H3069 C3083 0.931 . S
H3070 C3085 0.930 1_545 S
C3071 H3059 0.930 . S
C3071 C3072 1.399 . S
C3071 C3076 1.399 . S
C3072 C3071 1.399 . S
C3072 C3073 1.376 . S
C3073 H3060 0.930 . S
C3073 C3072 1.376 . S
C3073 C3074 1.388 . S
C3074 H3061 0.930 . S
C3074 C3073 1.388 . S
C3074 C3075 1.390 . S
C3075 C3074 1.390 . S
C3075 C3076 1.394 . S
C3075 C3081 1.465 . S
C3076 C3071 1.399 . S
C3076 C3075 1.394 . S
C3076 C3077 1.516 . S
C3077 C3076 1.516 . S
C3077 C3078 1.502 1_565 S
C3077 C3079 1.561 . S
C3077 C3080 1.526 . S
C3078 H3062 0.959 . S
C3078 H3063 0.959 . S
C3078 H3064 0.961 . S
C3078 C3077 1.502 1_545 S
C3079 H3065 0.960 . S
C3079 H3066 0.961 . S
C3079 H3067 0.959 . S
C3079 C3077 1.561 . S
C3080 C3077 1.526 . S
C3080 C3081 1.396 . S
C3080 C3085 1.390 . S
C3081 C3075 1.465 . S
C3081 C3080 1.396 . S
C3081 C3082 1.399 . S
C3082 H3068 0.929 . S
C3082 C3081 1.399 . S
C3082 C3083 1.385 . S
C3083 H3069 0.931 . S
C3083 C3082 1.385 . S
C3083 C3084 1.389 . S
C3084 C3083 1.389 . S
C3084 C3085 1.387 . S
C3085 H3070 0.930 1_565 S
C3085 C3080 1.390 . S
C3085 C3084 1.387 . S
H3086 C3098 0.930 . S
H3087 C3100 0.930 . S
H3088 C3101 0.930 . S
H3089 C3105 0.959 . S
H3090 C3105 0.959 . S
H3091 C3105 0.961 . S
H3092 C3106 0.960 . S
H3093 C3106 0.961 . S
H3094 C3106 0.959 . S
H3095 C3109 0.929 . S
H3096 C3110 0.931 . S
H3097 C3112 0.930 . S
C3098 H3086 0.930 . S
C3098 C3099 1.399 . S
C3098 C3103 1.399 . S
C3099 C3098 1.399 . S
C3099 C3100 1.376 . S
C3100 H3087 0.930 . S
C3100 C3099 1.376 . S
C3100 C3101 1.388 . S
C3101 H3088 0.930 . S
C3101 C3100 1.388 . S
C3101 C3102 1.390 . S
C3102 C3101 1.390 . S
C3102 C3103 1.394 . S
C3102 C3108 1.465 . S
C3103 C3098 1.399 . S
C3103 C3102 1.394 . S
C3103 C3104 1.516 . S
C3104 C3103 1.516 . S
C3104 C3105 1.502 . S
C3104 C3106 1.561 . S
C3104 C3107 1.526 . S
C3105 H3089 0.959 . S
C3105 H3090 0.959 . S
C3105 H3091 0.961 . S
C3105 C3104 1.502 . S
C3106 H3092 0.960 . S
C3106 H3093 0.961 . S
C3106 H3094 0.959 . S
C3106 C3104 1.561 . S
C3107 C3104 1.526 . S
C3107 C3108 1.396 . S
C3107 C3112 1.390 . S
C3108 C3102 1.465 . S
C3108 C3107 1.396 . S
C3108 C3109 1.399 . S
C3109 H3095 0.929 . S
C3109 C3108 1.399 . S
C3109 C3110 1.385 . S
C3110 H3096 0.931 . S
C3110 C3109 1.385 . S
C3110 C3111 1.389 . S
C3111 C3110 1.389 . S
C3111 C3112 1.387 . S
C3112 H3097 0.930 . S
C3112 C3107 1.390 . S
C3112 C3111 1.387 . S
H3113 C3125 0.930 . S
H3114 C3127 0.930 . S
H3115 C3128 0.930 . S
H3116 C3132 0.959 . S
H3117 C3132 0.959 . S
H3118 C3132 0.961 . S
H3119 C3133 0.960 . S
H3120 C3133 0.961 . S
H3121 C3133 0.959 . S
H3122 C3136 0.929 . S
H3123 C3137 0.931 . S
H3124 C3139 0.930 . S
C3125 H3113 0.930 . S
C3125 C3126 1.399 1_556 S
C3125 C3130 1.399 . S
C3126 C3125 1.399 1_554 S
C3126 C3127 1.376 . S
C3127 H3114 0.930 . S
C3127 C3126 1.376 . S
C3127 C3128 1.388 . S
C3128 H3115 0.930 . S
C3128 C3127 1.388 . S
C3128 C3129 1.390 . S
C3129 C3128 1.390 . S
C3129 C3130 1.394 1_554 S
C3129 C3135 1.465 . S
C3130 C3125 1.399 . S
C3130 C3129 1.394 1_556 S
C3130 C3131 1.516 . S
C3131 C3130 1.516 . S
C3131 C3132 1.502 . S
C3131 C3133 1.561 . S
C3131 C3134 1.526 . S
C3132 H3116 0.959 . S
C3132 H3117 0.959 . S
C3132 H3118 0.961 . S
C3132 C3131 1.502 . S
C3133 H3119 0.960 . S
C3133 H3120 0.961 . S
C3133 H3121 0.959 . S
C3133 C3131 1.561 . S
C3134 C3131 1.526 . S
C3134 C3135 1.396 1_556 S
C3134 C3139 1.390 . S
C3135 C3129 1.465 . S
C3135 C3134 1.396 1_554 S
C3135 C3136 1.399 . S
C3136 H3122 0.929 . S
C3136 C3135 1.399 . S
C3136 C3137 1.385 . S
C3137 H3123 0.931 . S
C3137 C3136 1.385 . S
C3137 C3138 1.389 . S
C3138 C3137 1.389 . S
C3138 C3139 1.387 1_554 S
C3139 H3124 0.930 . S
C3139 C3134 1.390 . S
C3139 C3138 1.387 1_556 S
H3140 C3152 0.930 . S
H3141 C3154 0.930 . S
H3142 C3155 0.930 . S
H3143 C3159 0.959 . S
H3144 C3159 0.959 . S
H3145 C3159 0.961 . S
H3146 C3160 0.960 . S
H3147 C3160 0.961 . S
H3148 C3160 0.959 . S
H3149 C3163 0.929 . S
H3150 C3164 0.931 . S
H3151 C3166 0.930 . S
C3152 H3140 0.930 . S
C3152 C3153 1.399 . S
C3152 C3157 1.399 . S
C3153 C3152 1.399 . S
C3153 C3154 1.376 . S
C3154 H3141 0.930 . S
C3154 C3153 1.376 . S
C3154 C3155 1.388 . S
C3155 H3142 0.930 . S
C3155 C3154 1.388 . S
C3155 C3156 1.390 . S
C3156 C3155 1.390 . S
C3156 C3157 1.394 . S
C3156 C3162 1.465 . S
C3157 C3152 1.399 . S
C3157 C3156 1.394 . S
C3157 C3158 1.516 . S
C3158 C3157 1.516 . S
C3158 C3159 1.502 . S
C3158 C3160 1.561 . S
C3158 C3161 1.526 . S
C3159 H3143 0.959 . S
C3159 H3144 0.959 . S
C3159 H3145 0.961 . S
C3159 C3158 1.502 . S
C3160 H3146 0.960 . S
C3160 H3147 0.961 . S
C3160 H3148 0.959 . S
C3160 C3158 1.561 . S
C3161 C3158 1.526 . S
C3161 C3162 1.396 . S
C3161 C3166 1.390 . S
C3162 C3156 1.465 . S
C3162 C3161 1.396 . S
C3162 C3163 1.399 . S
C3163 H3149 0.929 . S
C3163 C3162 1.399 . S
C3163 C3164 1.385 . S
C3164 H3150 0.931 . S
C3164 C3163 1.385 . S
C3164 C3165 1.389 . S
C3165 C3164 1.389 . S
C3165 C3166 1.387 . S
C3166 H3151 0.930 . S
C3166 C3161 1.390 . S
C3166 C3165 1.387 . S
H3167 C3179 0.913 1_556 S
H3168 C3181 0.930 . S
H3169 C3182 0.930 . S
H3170 C3186 0.959 . S
H3171 C3186 0.959 . S
H3172 C3186 0.961 . S
H3173 C3187 0.960 . S
H3174 C3187 0.961 . S
H3175 C3187 0.959 . S
H3176 C3190 0.929 . S
H3177 C3191 0.931 . S
H3178 C3193 0.930 . S
C3179 H3167 0.913 1_554 S
C3179 C3180 1.416 . S
C3179 C3184 1.400 1_554 S
C3180 C3179 1.416 . S
C3180 C3181 1.376 . S
C3181 H3168 0.930 . S
C3181 C3180 1.376 . S
C3181 C3182 1.388 . S
C3182 H3169 0.930 . S
C3182 C3181 1.388 . S
C3182 C3183 1.390 . S
C3183 C3182 1.390 . S
C3183 C3184 1.360 1_554 S
C3183 C3189 1.465 . S
C3184 C3179 1.400 1_556 S
C3184 C3183 1.360 1_556 S
C3184 C3185 1.548 . S
C3185 C3184 1.548 . S
C3185 C3186 1.502 . S
C3185 C3187 1.561 . S
C3185 C3188 1.526 . S
C3186 H3170 0.959 . S
C3186 H3171 0.959 . S
C3186 H3172 0.961 . S
C3186 C3185 1.502 . S
C3187 H3173 0.960 . S
C3187 H3174 0.961 . S
C3187 H3175 0.959 . S
C3187 C3185 1.561 . S
C3188 C3185 1.526 . S
C3188 C3189 1.396 1_556 S
C3188 C3193 1.390 . S
C3189 C3183 1.465 . S
C3189 C3188 1.396 1_554 S
C3189 C3190 1.399 . S
C3190 H3176 0.929 . S
C3190 C3189 1.399 . S
C3190 C3191 1.385 . S
C3191 H3177 0.931 . S
C3191 C3190 1.385 . S
C3191 C3192 1.389 1_554 S
C3192 C3191 1.389 1_556 S
C3192 C3193 1.387 . S
C3193 H3178 0.930 . S
C3193 C3188 1.390 . S
C3193 C3192 1.387 . S
H3194 C3206 0.930 . S
H3195 C3208 0.930 . S
H3196 C3209 0.930 . S
H3197 C3213 0.959 . S
H3198 C3213 0.959 . S
H3199 C3213 0.961 . S
H3200 C3214 0.960 . S
H3201 C3214 0.961 . S
H3202 C3214 0.959 . S
H3203 C3217 0.929 . S
H3204 C3218 0.931 . S
H3205 C3220 0.930 . S
C3206 H3194 0.930 . S
C3206 C3207 1.399 . S
C3206 C3211 1.399 . S
C3207 C3206 1.399 . S
C3207 C3208 1.376 . S
C3208 H3195 0.930 . S
C3208 C3207 1.376 . S
C3208 C3209 1.388 . S
C3209 H3196 0.930 . S
C3209 C3208 1.388 . S
C3209 C3210 1.390 . S
C3210 C3209 1.390 . S
C3210 C3211 1.394 . S
C3210 C3216 1.465 . S
C3211 C3206 1.399 . S
C3211 C3210 1.394 . S
C3211 C3212 1.516 . S
C3212 C3211 1.516 . S
C3212 C3213 1.502 . S
C3212 C3214 1.561 . S
C3212 C3215 1.526 . S
C3213 H3197 0.959 . S
C3213 H3198 0.959 . S
C3213 H3199 0.961 . S
C3213 C3212 1.502 . S
C3214 H3200 0.960 . S
C3214 H3201 0.961 . S
C3214 H3202 0.959 . S
C3214 C3212 1.561 . S
C3215 C3212 1.526 . S
C3215 C3216 1.396 . S
C3215 C3220 1.390 . S
C3216 C3210 1.465 . S
C3216 C3215 1.396 . S
C3216 C3217 1.399 . S
C3217 H3203 0.929 . S
C3217 C3216 1.399 . S
C3217 C3218 1.385 . S
C3218 H3204 0.931 . S
C3218 C3217 1.385 . S
C3218 C3219 1.389 . S
C3219 C3218 1.389 . S
C3219 C3220 1.387 . S
C3220 H3205 0.930 . S
C3220 C3215 1.390 . S
C3220 C3219 1.387 . S
H3221 C3233 0.930 . S
H3222 C3235 0.930 . S
H3223 C3236 0.930 . S
H3224 C3240 0.959 . S
H3225 C3240 0.959 . S
H3226 C3240 0.961 . S
H3227 C3241 0.960 . S
H3228 C3241 0.961 . S
H3229 C3241 0.959 . S
H3230 C3244 0.929 . S
H3231 C3245 0.931 . S
H3232 C3247 0.930 . S
C3233 H3221 0.930 . S
C3233 C3234 1.399 . S
C3233 C3238 1.399 . S
C3234 C3233 1.399 . S
C3234 C3235 1.376 . S
C3235 H3222 0.930 . S
C3235 C3234 1.376 . S
C3235 C3236 1.388 . S
C3236 H3223 0.930 . S
C3236 C3235 1.388 . S
C3236 C3237 1.390 . S
C3237 C3236 1.390 . S
C3237 C3238 1.394 . S
C3237 C3243 1.465 . S
C3238 C3233 1.399 . S
C3238 C3237 1.394 . S
C3238 C3239 1.516 . S
C3239 C3238 1.516 . S
C3239 C3240 1.502 . S
C3239 C3241 1.561 . S
C3239 C3242 1.526 . S
C3240 H3224 0.959 . S
C3240 H3225 0.959 . S
C3240 H3226 0.961 . S
C3240 C3239 1.502 . S
C3241 H3227 0.960 . S
C3241 H3228 0.961 . S
C3241 H3229 0.959 . S
C3241 C3239 1.561 . S
C3242 C3239 1.526 . S
C3242 C3243 1.396 . S
C3242 C3247 1.390 . S
C3243 C3237 1.465 . S
C3243 C3242 1.396 . S
C3243 C3244 1.399 . S
C3244 H3230 0.929 . S
C3244 C3243 1.399 . S
C3244 C3245 1.385 . S
C3245 H3231 0.931 . S
C3245 C3244 1.385 . S
C3245 C3246 1.389 . S
C3246 C3245 1.389 . S
C3246 C3247 1.387 . S
C3247 H3232 0.930 . S
C3247 C3242 1.390 . S
C3247 C3246 1.387 . S
C669 C109 1.128 . S
C681 C352 1.132 . S
C696 C61 1.118 . S
C708 C365 1.213 . S
C723 C74 1.298 . S
C735 C384 1.324 . S
C762 C415 1.902 . S
C750 C96 1.942 . S
C777 C25 1.629 1_455 S
C789 C435 1.570 . S
C816 C452 0.775 . S
C804 C40 0.791 . S
C843 C465 1.472 . S
C831 C46 1.464 . S
C858 C5 0.878 . S
C870 C492 0.886 . S
C897 C345 1.096 . S
C885 C229 0.919 . S
C912 C249 1.440 . S
C924 C375 1.362 . S
C951 C377 1.536 . S
C939 C271 1.396 . S
C978 C412 0.970 . S
C966 C172 0.988 . S
C993 C236 1.055 . S
C1005 C432 1.054 . S
C1032 C445 1.895 . S
C1020 C242 1.908 . S
C1059 C475 1.141 . S
C1047 C278 1.220 . S
C1086 C485 1.231 . S
C1074 C179 1.265 . S
C1113 C355 1.548 1_565 S
C1101 C159 1.273 . S
C1128 C285 1.509 1_554 S
C1140 C505 1.651 . S
C1167 C535 1.425 . S
C1155 C333 1.454 . S
C1194 C552 1.159 . S
C1182 C320 1.170 . S
C1209 C123 1.779 . S
C1221 C495 1.768 . S
C1236 C138 1.246 . S
C1248 C382 1.146 . S
C1263 C326 1.940 . S
C1275 C565 1.913 . S
C1302 C592 0.933 . S
C1290 C298 0.964 . S
C1329 C342 1.150 . S
C1317 C67 1.137 . S
C1356 C577 1.198 . S
C1344 C110 1.218 . S
C1371 C88 1.334 . S
C1383 C395 1.276 . S
C1398 C75 1.569 . S
C1410 C564 1.795 . S
C1437 C424 1.533 1_455 S
C1425 C11 1.590 . S
C1452 C47 0.692 . S
C1464 C522 0.851 . S
C1491 C457 1.407 . S
C1479 C32 1.344 . S
C1518 C602 0.987 . S
C1506 C26 0.994 . S
C1545 C337 1.185 . S
C1533 C152 1.170 1_565 S
C1572 C584 1.374 . S
C1560 C319 1.389 . S
C1587 C124 1.573 . S
C1599 C385 1.560 . S
C1614 C284 0.950 . S
C1626 C562 0.968 . S
C1641 C145 0.995 . S
C1653 C422 1.038 . S
C1680 C517 1.795 . S
C1668 C312 1.704 . S
C1695 C117 0.958 . S
C1707 C464 1.073 . S
C1722 C291 1.133 . S
C1734 C597 1.176 . S
C1749 C194 1.603 . S
C1761 C344 1.571 . S
C1776 C180 1.689 . S
C1788 C497 1.660 . S
C1803 C263 1.301 . S
C1815 C444 1.353 . S
C1830 C243 1.068 . S
C1842 C542 1.036 . S
C1869 C604 1.803 . S
C1857 C277 1.802 . S
C1884 C215 1.111 . S
C1896 C392 1.201 1_565 S
C1923 C397 1.849 . S
C1911 C256 1.816 . S
C1950 C362 1.016 . S
C1938 C200 1.038 . S
C1965 C81 1.121 . S
C1977 C632 1.105 . S
C2004 C585 1.212 . S
C1992 C89 1.132 . S
C2019 C102 1.308 . S
C2031 C644 1.330 1_455 S
C2046 C68 1.947 . S
C2058 C575 1.887 . S
C2073 C53 1.605 . S
C2085 C515 1.618 . S
C2112 C532 0.773 . S
C2100 C12 0.789 . S
C2139 C545 1.472 . S
C2127 C18 1.493 . S
C2166 C612 0.882 . S
C2154 C33 0.848 . S
C2193 C625 1.090 . S
C2181 C257 0.964 . S
C2208 C193 1.431 . S
C2220 C595 1.406 . S
C2247 C637 1.528 . S
C2235 C201 1.424 . S
C2274 C572 0.949 . S
C2262 C214 0.963 . S
C2301 C512 1.106 . S
C2289 C264 1.108 . S
C2316 C186 1.896 . S
C2328 C525 1.895 . S
C2355 C555 1.180 . S
C2343 C208 1.205 . S
C2370 C221 1.265 . S
C2382 C605 1.231 . S
C2409 C635 1.535 . S
C2397 C313 1.350 . S
C2424 C131 1.539 . S
C2436 C425 1.656 . S
C2463 C455 1.437 . S
C2451 C151 1.459 . S
C2490 C472 1.174 . S
C2478 C166 1.175 . S
C2517 C615 1.784 . S
C2505 C305 1.815 . S
C2532 C292 1.234 . S
C2544 C642 1.243 . S
C2571 C405 1.914 . S
C2559 C144 1.941 . S
C2598 C372 1.027 . S
C2586 C116 0.977 1_565 S
C2613 C95 1.126 . S
C2625 C622 1.144 . S
C2652 C357 1.214 . S
C2640 C82 1.244 . S
C2667 C60 1.281 1_455 S
C2679 C655 1.290 . S
C2694 C103 1.509 . S
C2706 C404 1.810 . S
C2721 C39 1.591 . S
C2733 C504 1.534 1_556 S
C2760 C442 0.784 . S
C2748 C19 0.876 . S
C2775 C4 1.411 . S
C2787 C537 1.432 . S
C2802 C54 0.993 . S
C2814 C482 0.997 . S
C2841 C617 1.162 . S
C2829 C334 1.169 . S
C2856 C165 1.389 . S
C2868 C364 1.434 . S
C2895 C645 1.555 . S
C2883 C306 1.573 . S
C2910 C130 0.938 . S
C2922 C402 0.988 . S
C2937 C327 0.908 . S
C2949 C502 1.072 . S
C2976 C437 1.801 . S
C2964 C158 1.725 . S
C2991 C299 0.978 . S
C3003 C544 1.024 . S
C3030 C477 1.157 . S
C3018 C137 1.142 . S
C3057 C624 1.554 . S
C3045 C250 1.593 . S
C3084 C417 1.652 1_565 S
C3072 C222 1.671 . S
C3099 C235 1.306 . S
C3111 C524 1.330 . S
C3138 C462 1.040 . S
C3126 C187 1.040 1_554 S
C3153 C207 1.836 . S
C3165 C484 1.817 . S
C3180 C173 1.057 . S
C3192 C652 1.133 . S
C3219 C557 1.839 . S
C3207 C228 1.773 1_565 S
C3246 C582 1.000 . S
C3234 C270 1.049 . S
