# Generated by pormake.
# Topology pth, (4,4)-cn, num edge types: 1
# Building blocks:
#     Node 0, Type 0, BuildingBlock: UXUYUI_clean_sbu_0, # of connection points: 4
#     Node 1, Type 0, BuildingBlock: UXUYUI_clean_sbu_0, # of connection points: 4
#     Node 2, Type 0, BuildingBlock: UXUYUI_clean_sbu_0, # of connection points: 4
#     Node 3, Type 1, BuildingBlock: MUDLON_clean_sbu_0, # of connection points: 4
#     Node 4, Type 1, BuildingBlock: MUDLON_clean_sbu_0, # of connection points: 4
#     Node 5, Type 1, BuildingBlock: MUDLON_clean_sbu_0, # of connection points: 4
#     Edge 6, Type (0, 1), BuildingBlock: XIVTED_clean_linker_0, # of connection points: 2
#     Edge 7, Type (0, 1), BuildingBlock: XIVTED_clean_linker_0, # of connection points: 2
#     Edge 8, Type (0, 1), BuildingBlock: XIVTED_clean_linker_0, # of connection points: 2
#     Edge 9, Type (0, 1), BuildingBlock: XIVTED_clean_linker_0, # of connection points: 2
#     Edge 10, Type (0, 1), BuildingBlock: XIVTED_clean_linker_0, # of connection points: 2
#     Edge 11, Type (0, 1), BuildingBlock: XIVTED_clean_linker_0, # of connection points: 2
#     Edge 12, Type (0, 1), BuildingBlock: XIVTED_clean_linker_0, # of connection points: 2
#     Edge 13, Type (0, 1), BuildingBlock: XIVTED_clean_linker_0, # of connection points: 2
#     Edge 14, Type (0, 1), BuildingBlock: XIVTED_clean_linker_0, # of connection points: 2
#     Edge 15, Type (0, 1), BuildingBlock: XIVTED_clean_linker_0, # of connection points: 2
#     Edge 16, Type (0, 1), BuildingBlock: XIVTED_clean_linker_0, # of connection points: 2
#     Edge 17, Type (0, 1), BuildingBlock: XIVTED_clean_linker_0, # of connection points: 2
# Relax obj value: 0.110
# Max RMSD: 0.229
# Mean RMSD: 0.139
data_MOF--net-pth--node1-UXUYUI_clean_sbu_0--node2-MUDLON_clean_sbu_0--edge1-XIVTED_clean_linker_0
_symmetry_space_group_name_H-M    P1
_symmetry_Int_Tables_number       1
_symmetry_cell_setting            triclinic
loop_
_symmetry_equiv_pos_as_xyz
'x, y, z'
_cell_length_a     27.894465
_cell_length_b     27.847817
_cell_length_c     73.910821
_cell_angle_alpha  90.103789
_cell_angle_beta   89.851522
_cell_angle_gamma 119.98321
loop_
_atom_site_label
_atom_site_type_symbol
_atom_site_fract_x
_atom_site_fract_y
_atom_site_fract_z
_atom_type_partial_charge
Li0 Li 0.0558 0.04913 0.09443 0.0
Li1 Li 0.99357 0.04313 0.11709 0.0
Li2 Li 0.02064 0.9718 0.11569 0.0
Li3 Li 0.95649 0.9795 0.09159 0.0
C4 C 0.12251 0.08271 0.1242 0.0
N5 N 0.23463 0.14681 0.13083 0.0
C6 C 0.14735 0.14039 0.12514 0.0
C7 C 0.15454 0.05755 0.12686 0.0
C8 C 0.20415 0.1721 0.12841 0.0
C9 C 0.21119 0.0907 0.13016 0.0
C10 C 0.98527 0.10568 0.09122 0.0
C11 C 0.92767 0.14673 0.08724 0.0
N12 N 0.97124 0.19708 0.09174 0.0
C13 C 0.02959 0.15786 0.09563 0.0
C14 C 0.93398 0.10002 0.08685 0.0
C15 C 0.02163 0.20355 0.09588 0.0
C16 C 0.1037 0.11767 0.0644 0.0
N17 N 0.11704 0.09619 0.07876 0.0
C18 C 0.20969 0.13386 0.06757 0.0
C19 C 0.16892 0.10364 0.08052 0.0
C20 C 0.19665 0.15573 0.05249 0.0
C21 C 0.14292 0.14764 0.05108 0.0
H22 H 0.06196 0.11016 0.06298 0.0
H23 H 0.17834 0.08446 0.09153 0.0
C24 C 0.01018 0.10459 0.14901 0.0
N25 N 0.97568 0.0832 0.13458 0.0
C26 C 0.99881 0.1318 0.1628 0.0
C27 C 0.91658 0.11487 0.14669 0.0
C28 C 0.92937 0.08762 0.13324 0.0
C29 C 0.9514 0.13714 0.16178 0.0
H30 H 0.04628 0.0999 0.14994 0.0
H31 H 0.90163 0.06901 0.12195 0.0
C32 C 0.05562 0.96936 0.07522 0.0
N33 N 0.12652 0.97681 0.04783 0.0
C34 C 0.04448 0.97659 0.05733 0.0
C35 C 0.10255 0.96554 0.0792 0.0
C36 C 0.08094 0.98042 0.04366 0.0
C37 C 0.13791 0.96942 0.06515 0.0
C38 C 0.90361 0.955 0.1296 0.0
C39 C 0.91267 0.95619 0.14822 0.0
C40 C 0.85399 0.94942 0.12319 0.0
C41 C 0.87202 0.9524 0.16017 0.0
C42 C 0.8143 0.94558 0.13557 0.0
N43 N 0.82409 0.94722 0.15365 0.0
C44 C 0.04154 0.92931 0.14739 0.0
C45 C 0.03202 0.87702 0.12095 0.0
C46 C 0.04813 0.89154 0.15801 0.0
N47 N 0.03314 0.92111 0.12927 0.0
C48 C 0.03881 0.83841 0.13103 0.0
C49 C 0.04627 0.8449 0.14989 0.0
H50 H 0.04237 0.96489 0.15362 0.0
H51 H 0.02523 0.87152 0.10651 0.0
C52 C 0.89399 0.96685 0.06031 0.0
N53 N 0.89786 0.93958 0.07496 0.0
C54 C 0.85338 0.93843 0.04723 0.0
C55 C 0.82139 0.85433 0.06458 0.0
C56 C 0.86252 0.88449 0.07738 0.0
C57 C 0.81665 0.88118 0.04913 0.0
H58 H 0.92307 0.0106 0.05865 0.0
H59 H 0.86696 0.86381 0.08909 0.0
O60 O 0.06685 0.05098 0.12123 0.0
O61 O 0.99222 0.06045 0.09099 0.0
O62 O 0.02143 0.96737 0.08883 0.0
O63 O 0.94337 0.95994 0.11768 0.0
H64 H 0.123 0.16046 0.12345 0.0
H65 H 0.1361 0.013 0.12618 0.0
H66 H 0.22397 0.21681 0.12911 0.0
H67 H 0.23656 0.07183 0.13212 0.0
H68 H 0.88811 0.14292 0.08403 0.0
H69 H 0.0697 0.16297 0.09878 0.0
H70 H 0.89921 0.05985 0.08343 0.0
H71 H 0.05552 0.24417 0.09935 0.0
H72 H 0.25036 0.13837 0.06902 0.0
H73 H 0.13118 0.1641 0.03974 0.0
H74 H 0.02712 0.1488 0.17409 0.0
H75 H 0.8792 0.11734 0.14548 0.0
H76 H 0.00846 0.97995 0.05407 0.0
H77 H 0.11198 0.96046 0.09302 0.0
H78 H 0.07312 0.98646 0.02976 0.0
H79 H 0.17459 0.9669 0.06802 0.0
H80 H 0.95097 0.96074 0.15339 0.0
H81 H 0.8465 0.94871 0.1088 0.0
H82 H 0.87862 0.95371 0.17462 0.0
H83 H 0.77581 0.94155 0.13081 0.0
H84 H 0.05298 0.89806 0.17249 0.0
H85 H 0.03793 0.80369 0.1241 0.0
H86 H 0.851 0.96113 0.03572 0.0
H87 H 0.79473 0.81017 0.06652 0.0
Li88 Li 0.99019 0.95657 0.42415 0.0
Li89 Li 0.05379 0.01958 0.44742 0.0
Li90 Li 0.95295 0.99307 0.4477 0.0
Li91 Li 0.01884 0.05888 0.42531 0.0
C92 C 0.95929 0.89008 0.45523 0.0
N93 N 0.90355 0.77867 0.46401 0.0
C94 C 0.98766 0.86578 0.46303 0.0
C95 C 0.9024 0.85784 0.4522 0.0
C96 C 0.95881 0.80936 0.46729 0.0
C97 C 0.87499 0.80158 0.45665 0.0
C98 C 0.11853 0.03581 0.41897 0.0
C99 C 0.21638 0.10144 0.4204 0.0
N100 N 0.22723 0.06016 0.41632 0.0
C101 C 0.13063 0.99416 0.41461 0.0
C102 C 0.1617 0.09 0.42172 0.0
C103 C 0.18586 0.00726 0.41339 0.0
C104 C 0.94673 0.8886 0.39291 0.0
N105 N 0.97352 0.89449 0.40882 0.0
C106 C 0.9781 0.81238 0.40283 0.0
C107 C 0.98957 0.8577 0.41385 0.0
C108 C 0.95002 0.80481 0.38637 0.0
C109 C 0.93425 0.84376 0.38149 0.0
H110 H 0.93511 0.91884 0.38906 0.0
H111 H 0.01228 0.86408 0.42628 0.0
C112 C 0.136 0.07366 0.47489 0.0
N113 N 0.11455 0.03182 0.46253 0.0
C114 C 0.17617 0.07826 0.4872 0.0
C115 C 0.1722 0.99746 0.47354 0.0
C116 C 0.13255 0.99469 0.46146 0.0
C117 C 0.19366 0.03892 0.4869 0.0
H118 H 0.12049 0.10223 0.47567 0.0
H119 H 0.1147 0.9617 0.45157 0.0
C120 C 0.89124 0.97507 0.4155 0.0
N121 N 0.784 0.93961 0.40444 0.0
C122 C 0.87532 0.01361 0.41069 0.0
C123 C 0.85282 0.91843 0.4143 0.0
C124 C 0.82086 0.9949 0.40525 0.0
C125 C 0.79876 0.90134 0.40878 0.0
C126 C 0.0329 0.12001 0.45542 0.0
C127 C 0.99244 0.13134 0.46188 0.0
C128 C 0.08651 0.16369 0.45223 0.0
C129 C 0.0061 0.18634 0.46475 0.0
C130 C 0.09853 0.21813 0.45523 0.0
N131 N 0.0584 0.22824 0.46136 0.0
C132 C 0.88414 0.94598 0.47841 0.0
C133 C 0.85477 0.99358 0.45893 0.0
C134 C 0.83972 0.93255 0.4901 0.0
N135 N 0.89053 0.97545 0.46305 0.0
C136 C 0.81 0.98146 0.47029 0.0
C137 C 0.80183 0.95042 0.48616 0.0
H138 H 0.91373 0.93304 0.48167 0.0
H139 H 0.86169 0.01869 0.44705 0.0
C140 C 0.07397 0.1367 0.39714 0.0
N141 N 0.03644 0.12282 0.41076 0.0
C142 C 0.08663 0.18196 0.38592 0.0
C143 C 0.02209 0.19811 0.40299 0.0
C144 C 0.01056 0.15249 0.41382 0.0
C145 C 0.06037 0.21328 0.38872 0.0
H146 H 0.09371 0.11227 0.39485 0.0
H147 H 0.98023 0.14028 0.42451 0.0
O148 O 0.98703 0.94522 0.4508 0.0
O149 O 0.06471 0.02362 0.42048 0.0
O150 O 0.94454 0.99277 0.42081 0.0
O151 O 0.02012 0.06642 0.45239 0.0
H152 H 0.0315 0.89009 0.46573 0.0
H153 H 0.87948 0.87622 0.44673 0.0
H154 H 0.98035 0.78998 0.47321 0.0
H155 H 0.83096 0.7762 0.45434 0.0
H156 H 0.25019 0.14315 0.42259 0.0
H157 H 0.09778 0.9521 0.41231 0.0
H158 H 0.15309 0.12286 0.42484 0.0
H159 H 0.19582 0.97534 0.41015 0.0
H160 H 0.9923 0.78433 0.407 0.0
H161 H 0.91224 0.83958 0.36901 0.0
H162 H 0.19123 0.11046 0.49742 0.0
H163 H 0.1849 0.96657 0.47275 0.0
H164 H 0.9045 0.05752 0.41128 0.0
H165 H 0.86464 0.88786 0.41734 0.0
H166 H 0.80793 0.02435 0.40165 0.0
H167 H 0.76862 0.85763 0.40787 0.0
H168 H 0.95089 0.09808 0.46459 0.0
H169 H 0.11845 0.15567 0.44742 0.0
H170 H 0.97511 0.19572 0.46965 0.0
H171 H 0.13978 0.25234 0.4527 0.0
H172 H 0.83514 0.90826 0.50208 0.0
H173 H 0.78294 0.99752 0.46688 0.0
H174 H 0.11671 0.1923 0.37518 0.0
H175 H 1.00005 0.22031 0.40548 0.0
Li176 Li 0.05051 0.9949 0.76444 0.0
Li177 Li 0.04909 0.05713 0.78652 0.0
Li178 Li 0.98127 0.96033 0.78826 0.0
Li179 Li 0.97785 0.01942 0.76375 0.0
C180 C 0.07505 0.95453 0.79516 0.0
N181 N 0.10061 0.87334 0.80369 0.0
C182 C 0.11388 0.96399 0.80862 0.0
C183 C 0.04923 0.90376 0.78602 0.0
C184 C 0.12625 0.92243 0.81274 0.0
C185 C 0.0627 0.86325 0.79053 0.0
C186 C 0.11162 0.10596 0.75515 0.0
C187 C 0.1774 0.17551 0.73483 0.0
N188 N 0.21951 0.18044 0.74539 0.0
C189 C 0.15555 0.11175 0.7658 0.0
C190 C 0.12256 0.13808 0.73955 0.0
C191 C 0.20979 0.14961 0.76063 0.0
C192 C 0.07419 0.95211 0.73317 0.0
N193 N 0.09547 0.97761 0.74924 0.0
C194 C 0.1805 0.97931 0.74307 0.0
C195 C 0.1474 0.9909 0.7544 0.0
C196 C 0.15982 0.95299 0.7263 0.0
C197 C 0.10556 0.93903 0.72151 0.0
H198 H 0.03279 0.94207 0.72939 0.0
H199 H 0.16341 0.01098 0.76728 0.0
C200 C 0.10373 0.11045 0.81854 0.0
N201 N 0.09245 0.12034 0.80153 0.0
C202 C 0.13512 0.15447 0.83029 0.0
C203 C 0.14228 0.21816 0.80685 0.0
C204 C 0.11066 0.17284 0.79556 0.0
C205 C 0.15513 0.20932 0.82448 0.0
H206 H 0.08844 0.06822 0.82295 0.0
H207 H 0.10056 0.17953 0.78202 0.0
C208 C 0.91593 0.90613 0.75768 0.0
N209 N 0.80715 0.83016 0.74947 0.0
C210 C 0.8728 0.90535 0.76761 0.0
C211 C 0.90369 0.86818 0.74361 0.0
C212 C 0.8181 0.86667 0.76324 0.0
C213 C 0.84844 0.8301 0.73966 0.0
C214 C 0.96505 0.06638 0.79833 0.0
C215 C 0.95556 0.06513 0.81694 0.0
C216 C 0.97378 0.11246 0.78822 0.0
C217 C 0.95508 0.11012 0.82515 0.0
C218 C 0.97292 0.15659 0.79692 0.0
N219 N 0.96371 0.15454 0.81505 0.0
C220 C 0.94225 0.91418 0.82255 0.0
C221 C 0.91099 0.84651 0.79935 0.0
C222 C 0.91272 0.87346 0.83553 0.0
N223 N 0.94002 0.90034 0.80481 0.0
C224 C 0.88075 0.80438 0.81188 0.0
C225 C 0.88088 0.81763 0.83026 0.0
H226 H 0.96706 0.95702 0.82661 0.0
H227 H 0.91129 0.83605 0.78529 0.0
C228 C 0.94449 0.04195 0.73028 0.0
N229 N 0.93052 0.03124 0.74805 0.0
C230 C 0.90877 0.04669 0.7181 0.0
C231 C 0.84559 0.03039 0.74284 0.0
C232 C 0.88257 0.02619 0.75453 0.0
C233 C 0.85806 0.0399 0.72429 0.0
H234 H 0.98279 0.04542 0.7255 0.0
H235 H 0.87247 0.0177 0.76873 0.0
O236 O 0.06281 0.99509 0.79105 0.0
O237 O 0.05805 0.06926 0.75987 0.0
O238 O 0.96991 0.94393 0.76154 0.0
O239 O 0.96733 0.02351 0.79009 0.0
H240 H 0.13429 1.00311 0.81581 0.0
H241 H 0.01921 0.8956 0.77552 0.0
H242 H 0.15624 0.9292 0.82313 0.0
H243 H 0.04304 0.8238 0.78356 0.0
H244 H 0.18647 0.20064 0.72279 0.0
H245 H 0.14797 0.08735 0.77793 0.0
H246 H 0.08898 0.13412 0.73117 0.0
H247 H 0.24416 0.15448 0.76875 0.0
H248 H 0.22227 0.99196 0.74731 0.0
H249 H 0.08725 0.91799 0.70892 0.0
H250 H 0.14456 0.14559 0.84365 0.0
H251 H 0.15618 0.25962 0.80187 0.0
H252 H 0.88131 0.93404 0.77863 0.0
H253 H 0.93652 0.86807 0.73581 0.0
H254 H 0.78436 0.86564 0.77081 0.0
H255 H 0.8384 0.80051 0.7288 0.0
H256 H 0.94874 0.02994 0.825 0.0
H257 H 0.98218 0.11462 0.77386 0.0
H258 H 0.94791 0.10975 0.83955 0.0
H259 H 0.97992 0.19263 0.78927 0.0
H260 H 0.91399 0.88584 0.8495 0.0
H261 H 0.85784 0.76184 0.80724 0.0
H262 H 0.91974 0.05336 0.70389 0.0
H263 H 0.80725 0.02547 0.74823 0.0
Mg264 Mg 0.99546 0.49625 0.27072 0.0
C265 C 0.06197 0.49193 0.3035 0.0
O266 O 0.05402 0.53122 0.3101 0.0
C267 C 0.01504 0.5515 0.23485 0.0
O268 O 0.97109 0.50295 0.23187 0.0
C269 C 0.93921 0.37457 0.26043 0.0
O270 O 0.95984 0.37177 0.27609 0.0
O271 O 0.94244 0.42008 0.25581 0.0
O272 O 0.04714 0.47544 0.28735 0.0
O273 O 0.95425 0.529 0.28762 0.0
C274 C 0.93502 0.51307 0.30347 0.0
O275 O 0.93353 0.46876 0.31025 0.0
O276 O 0.03826 0.56084 0.25029 0.0
Mg277 Mg 0.49882 0.9853 0.60537 0.0
C278 C 0.41679 0.99544 0.58496 0.0
O279 O 0.39339 0.94523 0.5918 0.0
C280 C 0.58014 0.99225 0.62989 0.0
O281 O 0.54496 0.93986 0.62637 0.0
C282 C 0.43809 0.95864 0.64098 0.0
O283 O 0.48588 1.00127 0.6456 0.0
O284 O 0.43176 0.93958 0.62495 0.0
O285 O 0.46759 0.0286 0.58859 0.0
O286 O 0.52057 0.93726 0.58707 0.0
C287 C 0.51532 0.9386 0.57 0.0
O288 O 0.48858 0.96232 0.56345 0.0
O289 O 0.57356 0.02902 0.62186 0.0
Mg290 Mg 0.50532 0.51069 0.93957 0.0
C291 C 0.43593 0.49608 0.90641 0.0
O292 O 0.48528 0.52815 0.89947 0.0
C293 C 0.56312 0.63064 0.95301 0.0
O294 O 0.57845 0.64146 0.93599 0.0
C295 C 0.4438 0.39303 0.95327 0.0
O296 O 0.42223 0.38547 0.93702 0.0
O297 O 0.48363 0.44069 0.95746 0.0
O298 O 0.4316 0.48642 0.92333 0.0
O299 O 0.57309 0.53178 0.92066 0.0
C300 C 0.62387 0.56191 0.9248 0.0
O301 O 0.63733 0.57551 0.94183 0.0
O302 O 0.52959 0.58089 0.95765 0.0
H303 H 0.91412 0.21129 0.15857 0.0
H304 H 0.93649 0.27564 0.26481 0.0
H305 H 0.95931 0.12797 0.19842 0.0
H306 H 0.91035 0.37297 0.2248 0.0
H307 H 0.92975 0.21163 0.24104 0.0
H308 H 0.8987 0.26181 0.18294 0.0
C309 C 0.92024 0.20318 0.17245 0.0
C310 C 0.93861 0.16574 0.17644 0.0
C311 C 0.92487 0.24664 0.23747 0.0
C312 C 0.92121 0.22356 0.2044 0.0
C313 C 0.92842 0.28313 0.25107 0.0
C314 C 0.92465 0.33023 0.2468 0.0
C315 C 0.91757 0.25723 0.21941 0.0
C316 C 0.91391 0.33747 0.22873 0.0
C317 C 0.91164 0.23221 0.18635 0.0
C318 C 0.9462 0.1572 0.19468 0.0
N319 N 0.91138 0.30174 0.21568 0.0
N320 N 0.93771 0.18602 0.20795 0.0
H321 H 0.80118 0.94722 0.5234 0.0
H322 H 0.50828 0.92896 0.53314 0.0
H323 H 0.69597 0.92655 0.47781 0.0
H324 H 0.59943 0.91848 0.57859 0.0
H325 H 0.57379 0.92271 0.51265 0.0
H326 H 0.726 0.93219 0.54376 0.0
C327 C 0.76212 0.93883 0.51762 0.0
C328 C 0.75529 0.93852 0.49877 0.0
C329 C 0.5791 0.92103 0.5271 0.0
C330 C 0.66899 0.92219 0.52217 0.0
C331 C 0.54158 0.92447 0.53882 0.0
C332 C 0.54857 0.92472 0.55763 0.0
C333 C 0.62444 0.91849 0.53421 0.0
C334 C 0.59243 0.91858 0.5642 0.0
C335 C 0.71919 0.93048 0.5293 0.0
C336 C 0.70376 0.92834 0.4922 0.0
N337 N 0.62912 0.9165 0.55251 0.0
N338 N 0.66285 0.92102 0.50387 0.0
H339 H 0.90779 0.80773 0.86532 0.0
H340 H 0.60826 0.55041 0.88808 0.0
H341 H 0.77651 0.72778 0.82614 0.0
H342 H 0.73417 0.63878 0.92835 0.0
H343 H 0.67369 0.6072 0.86457 0.0
H344 H 0.84874 0.73956 0.8879 0.0
C345 C 0.86658 0.77586 0.86144 0.0
C346 C 0.84703 0.77396 0.84379 0.0
C347 C 0.68722 0.61383 0.87853 0.0
C348 C 0.77926 0.69521 0.86961 0.0
C349 C 0.6499 0.58121 0.89199 0.0
C350 C 0.66551 0.59006 0.91028 0.0
C351 C 0.74064 0.65579 0.88335 0.0
C352 C 0.72014 0.6306 0.91446 0.0
C353 C 0.83298 0.73671 0.87433 0.0
C354 C 0.79363 0.73081 0.8395 0.0
N355 N 0.75554 0.66225 0.90112 0.0
N356 N 0.76156 0.69348 0.85232 0.0
H357 H 0.98934 0.73203 0.14527 0.0
H358 H 0.08743 0.66387 0.23851 0.0
H359 H 0.10934 0.85938 0.18035 0.0
H360 H 0.97859 0.54058 0.20016 0.0
H361 H 0.10202 0.73659 0.21678 0.0
H362 H 0.99054 0.66199 0.16452 0.0
C363 C 0.0166 0.74548 0.15688 0.0
C364 C 0.04924 0.802 0.16113 0.0
C365 C 0.07544 0.69356 0.21308 0.0
C366 C 0.04986 0.72125 0.18363 0.0
C367 C 0.06729 0.65204 0.22545 0.0
C368 C 0.03131 0.59603 0.22123 0.0
C369 C 0.04732 0.67885 0.19643 0.0
C370 C 0.00624 0.58316 0.20411 0.0
C371 C 0.01696 0.70525 0.16798 0.0
C372 C 0.08275 0.81638 0.17666 0.0
N373 N 0.01435 0.62415 0.19245 0.0
N374 N 0.08195 0.7763 0.1874 0.0
H375 H 0.29005 0.12528 0.501 0.0
H376 H 0.3071 0.93417 0.578 0.0
H377 H 0.17839 0.94929 0.50613 0.0
H378 H 0.45278 0.0866 0.56222 0.0
H379 H 0.2547 0.94852 0.55469 0.0
H380 H 0.34635 0.12003 0.52579 0.0
C381 C 0.27748 0.08565 0.50731 0.0
C382 C 0.22972 0.03753 0.50141 0.0
C383 C 0.29809 0.97902 0.55628 0.0
C384 C 0.29305 0.03151 0.52975 0.0
C385 C 0.3282 0.971 0.56968 0.0
C386 C 0.38478 0.00891 0.57197 0.0
C387 C 0.3243 0.02551 0.54497 0.0
C388 C 0.40931 0.05621 0.56086 0.0
C389 C 0.30963 0.0827 0.52137 0.0
C390 C 0.21526 0.98726 0.51002 0.0
N391 N 0.37891 0.06312 0.54772 0.0
N392 N 0.24655 0.98568 0.52376 0.0
H393 H 0.14415 0.21884 0.86109 0.0
H394 H 0.43143 0.50363 0.86959 0.0
H395 H 0.24716 0.30819 0.81551 0.0
H396 H 0.33214 0.41172 0.9155 0.0
H397 H 0.35836 0.43876 0.84945 0.0
H398 H 0.20709 0.29421 0.88101 0.0
C399 C 0.17994 0.25433 0.85525 0.0
C400 C 0.19056 0.2568 0.83658 0.0
C401 C 0.35224 0.43309 0.86393 0.0
C402 C 0.26267 0.34367 0.85935 0.0
C403 C 0.39393 0.47029 0.87546 0.0
C404 C 0.38825 0.46288 0.89429 0.0
C405 C 0.3045 0.38785 0.87123 0.0
C406 C 0.33852 0.41898 0.90109 0.0
C407 C 0.2157 0.29754 0.86664 0.0
C408 C 0.237 0.30448 0.82977 0.0
N409 N 0.29887 0.38281 0.88957 0.0
N410 N 0.2715 0.34573 0.84116 0.0
H411 H 0.74677 0.9679 0.72396 0.0
H412 H 0.67819 0.09048 0.63609 0.0
H413 H 0.87481 0.10793 0.69496 0.0
H414 H 0.57675 0.92423 0.6565 0.0
H415 H 0.7469 0.10715 0.65989 0.0
H416 H 0.67936 0.96181 0.7019 0.0
C417 C 0.76065 0.9979 0.71307 0.0
C418 C 0.81661 0.0385 0.71134 0.0
C419 C 0.70943 0.06718 0.65908 0.0
C420 C 0.73935 0.03121 0.68574 0.0
C421 C 0.67026 0.05775 0.6456 0.0
C422 C 0.62193 0.00578 0.64424 0.0
C423 C 0.69933 0.02463 0.6714 0.0
C424 C 0.61363 0.96475 0.65687 0.0
C425 C 0.72215 0.99409 0.70036 0.0
C426 C 0.83215 0.07563 0.6967 0.0
N427 N 0.65171 0.9751 0.66988 0.0
N428 N 0.7937 0.07111 0.68442 0.0
H429 H 0.82866 0.89516 0.01227 0.0
H430 H 0.54213 0.62283 0.98949 0.0
H431 H 0.71009 0.79407 0.05311 0.0
H432 H 0.65237 0.73511 0.94884 0.0
H433 H 0.59989 0.6879 0.01295 0.0
H434 H 0.76212 0.84003 0.98893 0.0
C435 C 0.78841 0.86185 0.01639 0.0
C436 C 0.77524 0.84932 0.03478 0.0
C437 C 0.61112 0.69861 0.99889 0.0
C438 C 0.69886 0.78508 1.00793 0.0
C439 C 0.57805 0.6615 0.98546 0.0
C440 C 0.5926 0.67325 0.96713 0.0
C441 C 0.65942 0.74772 0.994 0.0
C442 C 0.63957 0.72414 0.96277 0.0
C443 C 0.75045 0.83011 1.00299 0.0
C444 C 0.7226 0.80479 0.03915 0.0
N445 N 0.67159 0.75916 0.9761 0.0
N446 N 0.68655 0.77415 0.02584 0.0
H447 H 0.91975 0.69752 0.39558 0.0
H448 H 0.9344 0.60752 0.29367 0.0
H449 H 0.95524 0.80434 0.34923 0.0
H450 H 0.91284 0.5043 0.33998 0.0
H451 H 0.93049 0.67528 0.31364 0.0
H452 H 0.90731 0.6226 0.37534 0.0
C453 C 0.92495 0.70533 0.38116 0.0
C454 C 0.93898 0.75767 0.37416 0.0
C455 C 0.92613 0.63762 0.31944 0.0
C456 C 0.92406 0.67157 0.35085 0.0
C457 C 0.92817 0.59871 0.30802 0.0
C458 C 0.92443 0.55022 0.31514 0.0
C459 C 0.92048 0.62827 0.33819 0.0
C460 C 0.9161 0.54112 0.33387 0.0
C461 C 0.91748 0.66234 0.3696 0.0
C462 C 0.94396 0.76473 0.35529 0.0
N463 N 0.91492 0.58001 0.34476 0.0
N464 N 0.93682 0.72236 0.34435 0.0
H465 H 0.23897 0.92502 0.73488 0.0
H466 H 0.32871 0.91723 0.6325 0.0
H467 H 0.16173 0.95472 0.68895 0.0
H468 H 0.44026 0.9612 0.67776 0.0
H469 H 0.25493 0.90541 0.65342 0.0
H470 H 0.30161 0.91459 0.71423 0.0
C471 C 0.23498 0.92939 0.7205 0.0
C472 C 0.19519 0.94167 0.71378 0.0
C473 C 0.29536 0.91675 0.65875 0.0
C474 C 0.26606 0.92797 0.69 0.0
C475 C 0.33724 0.92297 0.64687 0.0
C476 C 0.39063 0.94045 0.65344 0.0
C477 C 0.30689 0.9272 0.6773 0.0
C478 C 0.3997 0.94801 0.67215 0.0
C479 C 0.27056 0.92293 0.70872 0.0
C480 C 0.1912 0.94489 0.69488 0.0
N481 N 0.35834 0.94154 0.68343 0.0
N482 N 0.22631 0.93833 0.68368 0.0
H483 H 0.30632 0.23493 0.05617 0.0
H484 H 0.35223 0.29029 0.9495 0.0
H485 H 0.18149 0.14437 0.01586 0.0
H486 H 0.46839 0.39911 0.98953 0.0
H487 H 0.2961 0.22746 0.97361 0.0
H488 H 0.37222 0.28699 0.03193 0.0
C489 C 0.29294 0.22567 0.04222 0.0
C490 C 0.23814 0.18571 0.03803 0.0
C491 C 0.33414 0.26482 0.97713 0.0
C492 C 0.31322 0.24498 0.01027 0.0
C493 C 0.36644 0.30066 0.96333 0.0
C494 C 0.41487 0.35048 0.96747 0.0
C495 C 0.35024 0.27873 0.99525 0.0
C496 C 0.43119 0.36139 0.98569 0.0
C497 C 0.33048 0.25552 0.02841 0.0
C498 C 0.22299 0.17555 0.01972 0.0
N499 N 0.39866 0.32609 0.99892 0.0
N500 N 0.26021 0.20506 1.00655 0.0
H501 H 0.07081 0.31401 0.39762 0.0
H502 H 0.07838 0.4055 0.29464 0.0
H503 H 0.07401 0.21935 0.3518 0.0
H504 H 0.07718 0.50179 0.3403 0.0
H505 H 0.08688 0.34216 0.31544 0.0
H506 H 0.08152 0.38731 0.377 0.0
C507 C 0.07386 0.30863 0.38323 0.0
C508 C 0.07105 0.2601 0.37647 0.0
C509 C 0.08539 0.37748 0.32092 0.0
C510 C 0.08376 0.34427 0.35273 0.0
C511 C 0.08075 0.41388 0.30903 0.0
C512 C 0.07659 0.45892 0.31571 0.0
C513 C 0.08558 0.38584 0.33968 0.0
C514 C 0.08003 0.46757 0.33451 0.0
C515 C 0.08032 0.3507 0.37146 0.0
C516 C 0.07634 0.25607 0.35769 0.0
N517 N 0.0837 0.43105 0.34583 0.0
N518 N 0.08198 0.29732 0.3465 0.0
loop_
_geom_bond_atom_site_label_1
_geom_bond_atom_site_label_2
_geom_bond_distance
_geom_bond_site_symmetry_2
_ccdc_geom_bond_type
Li0 N17 1.990 . S
Li0 O60 1.956 . S
Li0 O61 1.970 1_455 S
Li0 O62 1.961 1_545 S
Li1 N25 1.990 . S
Li1 O60 1.970 1_655 S
Li1 O61 1.956 . S
Li1 O63 1.961 1_545 S
Li2 N47 1.990 . S
Li2 O60 1.961 1_565 S
Li2 O62 1.956 . S
Li2 O63 1.970 1_455 S
Li3 N53 1.990 . S
Li3 O61 1.961 1_565 S
Li3 O62 1.970 1_655 S
Li3 O63 1.956 . S
C4 C6 1.348 . S
C4 C7 1.356 . S
C4 O60 1.325 . S
N5 C8 1.314 . S
N5 C9 1.279 . S
C6 C4 1.348 . S
C6 C8 1.353 . S
C6 H64 0.929 . S
C7 C4 1.356 . S
C7 C9 1.358 . S
C7 H65 0.930 . S
C8 N5 1.314 . S
C8 C6 1.353 . S
C8 H66 0.930 . S
C9 N5 1.279 . S
C9 C7 1.358 . S
C9 H67 0.930 . S
C10 C13 1.348 1_655 S
C10 C14 1.356 . S
C10 O61 1.325 . S
C11 N12 1.279 . S
C11 C14 1.358 . S
C11 H68 0.930 . S
N12 C11 1.279 . S
N12 C15 1.314 . S
C13 C10 1.348 1_455 S
C13 C15 1.353 1_455 S
C13 H69 0.929 . S
C14 C10 1.356 . S
C14 C11 1.358 . S
C14 H70 0.930 . S
C15 N12 1.314 . S
C15 C13 1.353 1_655 S
C15 H71 0.930 1_655 S
C16 N17 1.314 . S
C16 C21 1.353 . S
C16 H22 0.930 . S
N17 Li0 1.990 . S
N17 C16 1.314 . S
N17 C19 1.279 . S
C18 C19 1.358 . S
C18 C20 1.356 . S
C18 H72 0.930 . S
C19 N17 1.279 . S
C19 C18 1.358 . S
C19 H23 0.930 . S
C20 C18 1.356 . S
C20 C21 1.348 . S
C21 C16 1.353 . S
C21 C20 1.348 . S
C21 H73 0.929 . S
H22 C16 0.930 . S
H23 C19 0.930 . S
C24 N25 1.314 . S
C24 C26 1.353 . S
C24 H30 0.930 . S
N25 Li1 1.990 . S
N25 C24 1.314 . S
N25 C28 1.279 . S
C26 C24 1.353 . S
C26 C29 1.348 . S
C26 H74 0.929 . S
C27 C28 1.358 . S
C27 C29 1.356 . S
C27 H75 0.930 . S
C28 N25 1.279 . S
C28 C27 1.358 . S
C28 H31 0.930 . S
C29 C26 1.348 . S
C29 C27 1.356 . S
H30 C24 0.930 . S
H31 C28 0.930 . S
C32 C34 1.348 1_455 S
C32 C35 1.356 . S
C32 O62 1.325 . S
N33 C36 1.314 . S
N33 C37 1.279 . S
C34 C32 1.348 1_655 S
C34 C36 1.353 1_655 S
C34 H76 0.929 . S
C35 C32 1.356 . S
C35 C37 1.358 . S
C35 H77 0.930 . S
C36 N33 1.314 . S
C36 C34 1.353 1_455 S
C36 H78 0.930 1_455 S
C37 N33 1.279 . S
C37 C35 1.358 . S
C37 H79 0.930 . S
C38 C39 1.348 . S
C38 C40 1.356 . S
C38 O63 1.325 . S
C39 C38 1.348 . S
C39 C41 1.353 . S
C39 H80 0.929 . S
C40 C38 1.356 . S
C40 C42 1.358 . S
C40 H81 0.930 . S
C41 C39 1.353 . S
C41 N43 1.314 . S
C41 H82 0.930 . S
C42 C40 1.358 . S
C42 N43 1.279 . S
C42 H83 0.930 . S
N43 C41 1.314 . S
N43 C42 1.279 . S
C44 C46 1.353 . S
C44 N47 1.314 . S
C44 H50 0.930 . S
C45 N47 1.279 . S
C45 C48 1.358 . S
C45 H51 0.930 . S
C46 C44 1.353 . S
C46 C49 1.348 . S
C46 H84 0.929 . S
N47 Li2 1.990 . S
N47 C44 1.314 . S
N47 C45 1.279 . S
C48 C45 1.358 . S
C48 C49 1.356 . S
C48 H85 0.930 . S
C49 C46 1.348 . S
C49 C48 1.356 . S
H50 C44 0.930 . S
H51 C45 0.930 . S
C52 N53 1.314 . S
C52 C54 1.353 . S
C52 H58 0.930 . S
N53 Li3 1.990 . S
N53 C52 1.314 . S
N53 C56 1.279 . S
C54 C52 1.353 . S
C54 C57 1.348 . S
C54 H86 0.929 . S
C55 C56 1.358 . S
C55 C57 1.356 . S
C55 H87 0.930 . S
C56 N53 1.279 . S
C56 C55 1.358 . S
C56 H59 0.930 . S
C57 C54 1.348 . S
C57 C55 1.356 . S
H58 C52 0.930 . S
H59 C56 0.930 . S
O60 Li0 1.956 . S
O60 Li1 1.970 1_455 S
O60 Li2 1.961 1_545 S
O60 C4 1.325 . S
O61 Li0 1.970 1_655 S
O61 Li1 1.956 . S
O61 Li3 1.961 1_545 S
O61 C10 1.325 . S
O62 Li0 1.961 1_565 S
O62 Li2 1.956 . S
O62 Li3 1.970 1_455 S
O62 C32 1.325 . S
O63 Li1 1.961 1_565 S
O63 Li2 1.970 1_655 S
O63 Li3 1.956 . S
O63 C38 1.325 . S
H64 C6 0.929 . S
H65 C7 0.930 . S
H66 C8 0.930 . S
H67 C9 0.930 . S
H68 C11 0.930 . S
H69 C13 0.929 . S
H70 C14 0.930 . S
H71 C15 0.930 1_455 S
H72 C18 0.930 . S
H73 C21 0.929 . S
H74 C26 0.929 . S
H75 C27 0.930 . S
H76 C34 0.929 . S
H77 C35 0.930 . S
H78 C36 0.930 1_655 S
H79 C37 0.930 . S
H80 C39 0.929 . S
H81 C40 0.930 . S
H82 C41 0.930 . S
H83 C42 0.930 . S
H84 C46 0.929 . S
H85 C48 0.930 . S
H86 C54 0.929 . S
H87 C55 0.930 . S
Li88 N105 1.990 . S
Li88 O148 1.956 . S
Li88 O149 1.970 1_665 S
Li88 O150 1.961 . S
Li89 N113 1.990 . S
Li89 O148 1.970 1_445 S
Li89 O149 1.956 . S
Li89 O151 1.961 . S
Li90 N135 1.990 . S
Li90 O148 1.961 . S
Li90 O150 1.956 . S
Li90 O151 1.970 1_665 S
Li91 N141 1.990 . S
Li91 O149 1.961 . S
Li91 O150 1.970 1_445 S
Li91 O151 1.956 . S
C92 C94 1.348 1_655 S
C92 C95 1.356 . S
C92 O148 1.325 . S
N93 C96 1.314 . S
N93 C97 1.279 . S
C94 C92 1.348 1_455 S
C94 C96 1.353 1_455 S
C94 H152 0.929 . S
C95 C92 1.356 . S
C95 C97 1.358 . S
C95 H153 0.930 . S
C96 N93 1.314 . S
C96 C94 1.353 1_655 S
C96 H154 0.930 1_655 S
C97 N93 1.279 . S
C97 C95 1.358 . S
C97 H155 0.930 . S
C98 C101 1.348 1_545 S
C98 C102 1.356 . S
C98 O149 1.325 . S
C99 N100 1.279 . S
C99 C102 1.358 . S
C99 H156 0.930 . S
N100 C99 1.279 . S
N100 C103 1.314 . S
C101 C98 1.348 1_565 S
C101 C103 1.353 1_565 S
C101 H157 0.929 . S
C102 C98 1.356 . S
C102 C99 1.358 . S
C102 H158 0.930 . S
C103 N100 1.314 . S
C103 C101 1.353 1_545 S
C103 H159 0.930 1_545 S
C104 N105 1.314 . S
C104 C109 1.353 . S
C104 H110 0.930 . S
N105 Li88 1.990 . S
N105 C104 1.314 . S
N105 C107 1.279 . S
C106 C107 1.358 . S
C106 C108 1.356 . S
C106 H160 0.930 . S
C107 N105 1.279 . S
C107 C106 1.358 . S
C107 H111 0.930 . S
C108 C106 1.356 . S
C108 C109 1.348 . S
C109 C104 1.353 . S
C109 C108 1.348 . S
C109 H161 0.929 . S
H110 C104 0.930 . S
H111 C107 0.930 . S
C112 N113 1.314 . S
C112 C114 1.353 . S
C112 H118 0.930 . S
N113 Li89 1.990 . S
N113 C112 1.314 . S
N113 C116 1.279 . S
C114 C112 1.353 . S
C114 C117 1.348 . S
C114 H162 0.929 . S
C115 C116 1.358 . S
C115 C117 1.356 . S
C115 H163 0.930 . S
C116 N113 1.279 . S
C116 C115 1.358 . S
C116 H119 0.930 . S
C117 C114 1.348 . S
C117 C115 1.356 . S
H118 C112 0.930 . S
H119 C116 0.930 . S
C120 C122 1.348 1_565 S
C120 C123 1.356 . S
C120 O150 1.325 . S
N121 C124 1.314 . S
N121 C125 1.279 . S
C122 C120 1.348 1_545 S
C122 C124 1.353 1_545 S
C122 H164 0.929 . S
C123 C120 1.356 . S
C123 C125 1.358 . S
C123 H165 0.930 . S
C124 N121 1.314 . S
C124 C122 1.353 1_565 S
C124 H166 0.930 1_565 S
C125 N121 1.279 . S
C125 C123 1.358 . S
C125 H167 0.930 . S
C126 C127 1.348 1_455 S
C126 C128 1.356 . S
C126 O151 1.325 . S
C127 C126 1.348 1_655 S
C127 C129 1.353 1_655 S
C127 H168 0.929 . S
C128 C126 1.356 . S
C128 C130 1.358 . S
C128 H169 0.930 . S
C129 C127 1.353 1_455 S
C129 N131 1.314 . S
C129 H170 0.930 1_455 S
C130 C128 1.358 . S
C130 N131 1.279 . S
C130 H171 0.930 . S
N131 C129 1.314 . S
N131 C130 1.279 . S
C132 C134 1.353 . S
C132 N135 1.314 . S
C132 H138 0.930 . S
C133 N135 1.279 . S
C133 C136 1.358 . S
C133 H139 0.930 . S
C134 C132 1.353 . S
C134 C137 1.348 . S
C134 H172 0.929 . S
N135 Li90 1.990 . S
N135 C132 1.314 . S
N135 C133 1.279 . S
C136 C133 1.358 . S
C136 C137 1.356 . S
C136 H173 0.930 . S
C137 C134 1.348 . S
C137 C136 1.356 . S
H138 C132 0.930 . S
H139 C133 0.930 . S
C140 N141 1.314 . S
C140 C142 1.353 . S
C140 H146 0.930 . S
N141 Li91 1.990 . S
N141 C140 1.314 . S
N141 C144 1.279 . S
C142 C140 1.353 . S
C142 C145 1.348 . S
C142 H174 0.929 . S
C143 C144 1.358 . S
C143 C145 1.356 . S
C143 H175 0.930 . S
C144 N141 1.279 . S
C144 C143 1.358 . S
C144 H147 0.930 . S
C145 C142 1.348 . S
C145 C143 1.356 . S
H146 C140 0.930 . S
H147 C144 0.930 . S
O148 Li88 1.956 . S
O148 Li89 1.970 1_665 S
O148 Li90 1.961 . S
O148 C92 1.325 . S
O149 Li88 1.970 1_445 S
O149 Li89 1.956 . S
O149 Li91 1.961 . S
O149 C98 1.325 . S
O150 Li88 1.961 . S
O150 Li90 1.956 . S
O150 Li91 1.970 1_665 S
O150 C120 1.325 . S
O151 Li89 1.961 . S
O151 Li90 1.970 1_445 S
O151 Li91 1.956 . S
O151 C126 1.325 . S
H152 C94 0.929 . S
H153 C95 0.930 . S
H154 C96 0.930 1_455 S
H155 C97 0.930 . S
H156 C99 0.930 . S
H157 C101 0.929 . S
H158 C102 0.930 . S
H159 C103 0.930 1_565 S
H160 C106 0.930 . S
H161 C109 0.929 . S
H162 C114 0.929 . S
H163 C115 0.930 . S
H164 C122 0.929 . S
H165 C123 0.930 . S
H166 C124 0.930 1_545 S
H167 C125 0.930 . S
H168 C127 0.929 . S
H169 C128 0.930 . S
H170 C129 0.930 1_655 S
H171 C130 0.930 . S
H172 C134 0.929 . S
H173 C136 0.930 . S
H174 C142 0.929 . S
H175 C143 0.930 . S
Li176 N193 1.990 . S
Li176 O236 1.956 . S
Li176 O237 1.970 1_565 S
Li176 O238 1.961 1_455 S
Li177 N201 1.990 . S
Li177 O236 1.970 1_545 S
Li177 O237 1.956 . S
Li177 O239 1.961 1_455 S
Li178 N223 1.990 . S
Li178 O236 1.961 1_655 S
Li178 O238 1.956 . S
Li178 O239 1.970 1_565 S
Li179 N229 1.990 . S
Li179 O237 1.961 1_655 S
Li179 O238 1.970 1_545 S
Li179 O239 1.956 . S
C180 C182 1.348 1_565 S
C180 C183 1.356 . S
C180 O236 1.325 . S
N181 C184 1.314 . S
N181 C185 1.279 . S
C182 C180 1.348 1_545 S
C182 C184 1.353 1_545 S
C182 H240 0.929 . S
C183 C180 1.356 . S
C183 C185 1.358 . S
C183 H241 0.930 . S
C184 N181 1.314 . S
C184 C182 1.353 1_565 S
C184 H242 0.930 1_565 S
C185 N181 1.279 . S
C185 C183 1.358 . S
C185 H243 0.930 . S
C186 C189 1.348 . S
C186 C190 1.356 . S
C186 O237 1.325 . S
C187 N188 1.279 . S
C187 C190 1.358 . S
C187 H244 0.930 . S
N188 C187 1.279 . S
N188 C191 1.314 . S
C189 C186 1.348 . S
C189 C191 1.353 . S
C189 H245 0.929 . S
C190 C186 1.356 . S
C190 C187 1.358 . S
C190 H246 0.930 . S
C191 N188 1.314 . S
C191 C189 1.353 . S
C191 H247 0.930 . S
C192 N193 1.314 . S
C192 C197 1.353 . S
C192 H198 0.930 . S
N193 Li176 1.990 . S
N193 C192 1.314 . S
N193 C195 1.279 . S
C194 C195 1.358 . S
C194 C196 1.356 . S
C194 H248 0.930 . S
C195 N193 1.279 . S
C195 C194 1.358 . S
C195 H199 0.930 . S
C196 C194 1.356 . S
C196 C197 1.348 . S
C197 C192 1.353 . S
C197 C196 1.348 . S
C197 H249 0.929 . S
H198 C192 0.930 . S
H199 C195 0.930 . S
C200 N201 1.314 . S
C200 C202 1.353 . S
C200 H206 0.930 . S
N201 Li177 1.990 . S
N201 C200 1.314 . S
N201 C204 1.279 . S
C202 C200 1.353 . S
C202 C205 1.348 . S
C202 H250 0.929 . S
C203 C204 1.358 . S
C203 C205 1.356 . S
C203 H251 0.930 . S
C204 N201 1.279 . S
C204 C203 1.358 . S
C204 H207 0.930 . S
C205 C202 1.348 . S
C205 C203 1.356 . S
H206 C200 0.930 . S
H207 C204 0.930 . S
C208 C210 1.348 . S
C208 C211 1.356 . S
C208 O238 1.325 . S
N209 C212 1.314 . S
N209 C213 1.279 . S
C210 C208 1.348 . S
C210 C212 1.353 . S
C210 H252 0.929 . S
C211 C208 1.356 . S
C211 C213 1.358 . S
C211 H253 0.930 . S
C212 N209 1.314 . S
C212 C210 1.353 . S
C212 H254 0.930 . S
C213 N209 1.279 . S
C213 C211 1.358 . S
C213 H255 0.930 . S
C214 C215 1.348 1_545 S
C214 C216 1.356 . S
C214 O239 1.325 . S
C215 C214 1.348 1_565 S
C215 C217 1.353 1_565 S
C215 H256 0.929 . S
C216 C214 1.356 . S
C216 C218 1.358 . S
C216 H257 0.930 . S
C217 C215 1.353 1_545 S
C217 N219 1.314 . S
C217 H258 0.930 1_545 S
C218 C216 1.358 . S
C218 N219 1.279 . S
C218 H259 0.930 . S
N219 C217 1.314 . S
N219 C218 1.279 . S
C220 C222 1.353 . S
C220 N223 1.314 . S
C220 H226 0.930 . S
C221 N223 1.279 . S
C221 C224 1.358 . S
C221 H227 0.930 . S
C222 C220 1.353 . S
C222 C225 1.348 . S
C222 H260 0.929 . S
N223 Li178 1.990 . S
N223 C220 1.314 . S
N223 C221 1.279 . S
C224 C221 1.358 . S
C224 C225 1.356 . S
C224 H261 0.930 . S
C225 C222 1.348 . S
C225 C224 1.356 . S
H226 C220 0.930 . S
H227 C221 0.930 . S
C228 N229 1.314 . S
C228 C230 1.353 . S
C228 H234 0.930 . S
N229 Li179 1.990 . S
N229 C228 1.314 . S
N229 C232 1.279 . S
C230 C228 1.353 . S
C230 C233 1.348 . S
C230 H262 0.929 . S
C231 C232 1.358 . S
C231 C233 1.356 . S
C231 H263 0.930 . S
C232 N229 1.279 . S
C232 C231 1.358 . S
C232 H235 0.930 . S
C233 C230 1.348 . S
C233 C231 1.356 . S
H234 C228 0.930 . S
H235 C232 0.930 . S
O236 Li176 1.956 . S
O236 Li177 1.970 1_565 S
O236 Li178 1.961 1_455 S
O236 C180 1.325 . S
O237 Li176 1.970 1_545 S
O237 Li177 1.956 . S
O237 Li179 1.961 1_455 S
O237 C186 1.325 . S
O238 Li176 1.961 1_655 S
O238 Li178 1.956 . S
O238 Li179 1.970 1_565 S
O238 C208 1.325 . S
O239 Li177 1.961 1_655 S
O239 Li178 1.970 1_545 S
O239 Li179 1.956 . S
O239 C214 1.325 . S
H240 C182 0.929 . S
H241 C183 0.930 . S
H242 C184 0.930 1_545 S
H243 C185 0.930 . S
H244 C187 0.930 . S
H245 C189 0.929 . S
H246 C190 0.930 . S
H247 C191 0.930 . S
H248 C194 0.930 . S
H249 C197 0.929 . S
H250 C202 0.929 . S
H251 C203 0.930 . S
H252 C210 0.929 . S
H253 C211 0.930 . S
H254 C212 0.930 . S
H255 C213 0.930 . S
H256 C215 0.929 . S
H257 C216 0.930 . S
H258 C217 0.930 1_565 S
H259 C218 0.930 . S
H260 C222 0.929 . S
H261 C224 0.930 . S
H262 C230 0.929 . S
H263 C231 0.930 . S
Mg264 O271 2.141 . S
Mg264 O272 2.048 . S
Mg264 O273 2.048 . S
Mg264 O276 2.141 . S
C265 O266 1.313 . S
C265 O272 1.195 1_655 S
O266 C265 1.313 . S
C267 O268 1.245 . S
C267 O276 1.289 1_655 S
O268 C267 1.245 . S
C269 O270 1.245 . S
C269 O271 1.289 1_655 S
O270 C269 1.245 . S
O271 Mg264 2.141 . S
O271 C269 1.289 1_455 S
O272 Mg264 2.048 . S
O272 C265 1.195 1_455 S
O273 Mg264 2.048 . S
O273 C274 1.195 1_455 S
C274 O273 1.195 1_655 S
C274 O275 1.313 . S
O275 C274 1.313 . S
O276 Mg264 2.141 . S
O276 C267 1.289 1_455 S
Mg277 O284 2.141 . S
Mg277 O285 2.048 . S
Mg277 O286 2.048 . S
Mg277 O289 2.141 . S
C278 O279 1.313 . S
C278 O285 1.195 1_565 S
O279 C278 1.313 . S
C280 O281 1.245 . S
C280 O289 1.289 1_565 S
O281 C280 1.245 . S
C282 O283 1.245 . S
C282 O284 1.289 1_565 S
O283 C282 1.245 . S
O284 Mg277 2.141 . S
O284 C282 1.289 1_545 S
O285 Mg277 2.048 . S
O285 C278 1.195 1_545 S
O286 Mg277 2.048 . S
O286 C287 1.195 1_545 S
C287 O286 1.195 1_565 S
C287 O288 1.313 . S
O288 C287 1.313 . S
O289 Mg277 2.141 . S
O289 C280 1.289 1_545 S
Mg290 O297 2.141 . S
Mg290 O298 2.048 . S
Mg290 O299 2.048 . S
Mg290 O302 2.141 . S
C291 O292 1.313 . S
C291 O298 1.195 . S
O292 C291 1.313 . S
C293 O294 1.245 . S
C293 O302 1.289 . S
O294 C293 1.245 . S
C295 O296 1.245 . S
C295 O297 1.289 . S
O296 C295 1.245 . S
O297 Mg290 2.141 . S
O297 C295 1.289 . S
O298 Mg290 2.048 . S
O298 C291 1.195 . S
O299 Mg290 2.048 . S
O299 C300 1.195 . S
C300 O299 1.195 . S
C300 O301 1.313 . S
O301 C300 1.313 . S
O302 Mg290 2.141 . S
O302 C293 1.289 . S
H303 C309 0.930 . S
H304 C313 0.930 . S
H305 C318 0.929 . S
H306 C316 0.926 . S
H307 C311 0.929 . S
H308 C317 0.929 . S
C309 H303 0.930 . S
C309 C310 1.367 . S
C309 C317 1.378 . S
C310 C309 1.367 . S
C310 C318 1.433 . S
C311 H307 0.929 . S
C311 C313 1.378 . S
C311 C315 1.350 . S
C312 C315 1.463 . S
C312 C317 1.350 . S
C312 N320 1.427 . S
C313 H304 0.930 . S
C313 C311 1.378 . S
C313 C314 1.367 . S
C314 C313 1.367 . S
C314 C316 1.434 1_655 S
C315 C311 1.350 . S
C315 C312 1.463 . S
C315 N319 1.427 . S
C316 H306 0.926 . S
C316 C314 1.434 1_455 S
C316 N319 1.387 1_455 S
C317 H308 0.929 . S
C317 C309 1.378 . S
C317 C312 1.350 . S
C318 H305 0.929 . S
C318 C310 1.433 . S
C318 N320 1.384 . S
N319 C315 1.427 . S
N319 C316 1.387 1_655 S
N320 C312 1.427 . S
N320 C318 1.384 . S
H321 C327 0.930 1_545 S
H322 C331 0.930 . S
H323 C336 0.929 . S
H324 C334 0.929 . S
H325 C329 0.929 . S
H326 C335 0.929 . S
C327 H321 0.930 1_565 S
C327 C328 1.367 . S
C327 C335 1.378 1_565 S
C328 C327 1.367 . S
C328 C336 1.433 . S
C329 H325 0.929 . S
C329 C331 1.378 . S
C329 C333 1.350 . S
C330 C333 1.463 . S
C330 C335 1.350 1_565 S
C330 N338 1.427 . S
C331 H322 0.930 . S
C331 C329 1.378 . S
C331 C332 1.367 . S
C332 C331 1.367 . S
C332 C334 1.433 1_565 S
C333 C329 1.350 . S
C333 C330 1.463 . S
C333 N337 1.427 1_565 S
C334 H324 0.929 . S
C334 C332 1.433 1_545 S
C334 N337 1.384 . S
C335 H326 0.929 . S
C335 C327 1.378 1_545 S
C335 C330 1.350 1_545 S
C336 H323 0.929 . S
C336 C328 1.433 . S
C336 N338 1.384 . S
N337 C333 1.427 1_545 S
N337 C334 1.384 . S
N338 C330 1.427 . S
N338 C336 1.384 . S
H339 C345 0.930 . S
H340 C349 0.930 . S
H341 C354 0.929 . S
H342 C352 0.929 . S
H343 C347 0.929 . S
H344 C353 0.929 . S
C345 H339 0.930 . S
C345 C346 1.367 . S
C345 C353 1.378 . S
C346 C345 1.367 . S
C346 C354 1.433 . S
C347 H343 0.929 . S
C347 C349 1.378 . S
C347 C351 1.350 . S
C348 C351 1.463 . S
C348 C353 1.350 . S
C348 N356 1.427 . S
C349 H340 0.930 . S
C349 C347 1.378 . S
C349 C350 1.367 . S
C350 C349 1.367 . S
C350 C352 1.433 . S
C351 C347 1.350 . S
C351 C348 1.463 . S
C351 N355 1.427 . S
C352 H342 0.929 . S
C352 C350 1.433 . S
C352 N355 1.384 . S
C353 H344 0.929 . S
C353 C345 1.378 . S
C353 C348 1.350 . S
C354 H341 0.929 . S
C354 C346 1.433 . S
C354 N356 1.384 . S
N355 C351 1.427 . S
N355 C352 1.384 . S
N356 C348 1.427 . S
N356 C354 1.384 . S
H357 C363 0.930 1_655 S
H358 C367 0.930 . S
H359 C372 0.929 . S
H360 C370 0.929 . S
H361 C365 0.929 . S
H362 C371 0.929 . S
C363 H357 0.930 1_455 S
C363 C364 1.367 . S
C363 C371 1.378 1_455 S
C364 C363 1.367 . S
C364 C372 1.433 . S
C365 H361 0.929 . S
C365 C367 1.378 . S
C365 C369 1.350 . S
C366 C369 1.463 . S
C366 C371 1.350 1_455 S
C366 N374 1.427 . S
C367 H358 0.930 . S
C367 C365 1.378 . S
C367 C368 1.367 . S
C368 C367 1.367 . S
C368 C370 1.433 1_455 S
C369 C365 1.350 . S
C369 C366 1.463 . S
C369 N373 1.427 1_455 S
C370 H360 0.929 . S
C370 C368 1.433 1_655 S
C370 N373 1.384 . S
C371 H362 0.929 . S
C371 C363 1.378 1_655 S
C371 C366 1.350 1_655 S
C372 H359 0.929 . S
C372 C364 1.433 . S
C372 N374 1.384 . S
N373 C369 1.427 1_655 S
N373 C370 1.384 . S
N374 C366 1.427 . S
N374 C372 1.384 . S
H375 C381 0.930 . S
H376 C385 0.930 . S
H377 C390 0.929 . S
H378 C388 0.929 . S
H379 C383 0.929 . S
H380 C389 0.929 . S
C381 H375 0.930 . S
C381 C382 1.367 . S
C381 C389 1.378 . S
C382 C381 1.367 . S
C382 C390 1.433 . S
C383 H379 0.929 . S
C383 C385 1.378 . S
C383 C387 1.350 1_565 S
C384 C387 1.463 . S
C384 C389 1.350 . S
C384 N392 1.427 . S
C385 H376 0.930 . S
C385 C383 1.378 . S
C385 C386 1.367 1_565 S
C386 C385 1.367 1_545 S
C386 C388 1.433 . S
C387 C383 1.350 1_545 S
C387 C384 1.463 . S
C387 N391 1.427 . S
C388 H378 0.929 . S
C388 C386 1.433 . S
C388 N391 1.384 . S
C389 H380 0.929 . S
C389 C381 1.378 . S
C389 C384 1.350 . S
C390 H377 0.929 . S
C390 C382 1.433 . S
C390 N392 1.384 . S
N391 C387 1.427 . S
N391 C388 1.384 . S
N392 C384 1.427 . S
N392 C390 1.384 . S
H393 C399 0.930 . S
H394 C403 0.930 . S
H395 C408 0.929 . S
H396 C406 0.929 . S
H397 C401 0.929 . S
H398 C407 0.929 . S
C399 H393 0.930 . S
C399 C400 1.367 . S
C399 C407 1.378 . S
C400 C399 1.367 . S
C400 C408 1.433 . S
C401 H397 0.929 . S
C401 C403 1.378 . S
C401 C405 1.350 . S
C402 C405 1.463 . S
C402 C407 1.350 . S
C402 N410 1.427 . S
C403 H394 0.930 . S
C403 C401 1.378 . S
C403 C404 1.367 . S
C404 C403 1.367 . S
C404 C406 1.433 . S
C405 C401 1.350 . S
C405 C402 1.463 . S
C405 N409 1.427 . S
C406 H396 0.929 . S
C406 C404 1.433 . S
C406 N409 1.384 . S
C407 H398 0.929 . S
C407 C399 1.378 . S
C407 C402 1.350 . S
C408 H395 0.929 . S
C408 C400 1.433 . S
C408 N410 1.384 . S
N409 C405 1.427 . S
N409 C406 1.384 . S
N410 C402 1.427 . S
N410 C408 1.384 . S
H411 C417 0.930 1_565 S
H412 C421 0.930 . S
H413 C426 0.929 . S
H414 C424 0.929 . S
H415 C419 0.929 . S
H416 C425 0.929 1_565 S
C417 H411 0.930 1_545 S
C417 C418 1.367 . S
C417 C425 1.378 . S
C418 C417 1.367 . S
C418 C426 1.433 . S
C419 H415 0.929 . S
C419 C421 1.378 . S
C419 C423 1.350 . S
C420 C423 1.463 . S
C420 C425 1.350 . S
C420 N428 1.427 . S
C421 H412 0.930 . S
C421 C419 1.378 . S
C421 C422 1.367 . S
C422 C421 1.367 . S
C422 C424 1.433 1_545 S
C423 C419 1.350 . S
C423 C420 1.463 . S
C423 N427 1.427 1_545 S
C424 H414 0.929 . S
C424 C422 1.433 1_565 S
C424 N427 1.384 . S
C425 H416 0.929 1_545 S
C425 C417 1.378 . S
C425 C420 1.350 . S
C426 H413 0.929 . S
C426 C418 1.433 . S
C426 N428 1.384 . S
N427 C423 1.427 1_565 S
N427 C424 1.384 . S
N428 C420 1.427 . S
N428 C426 1.384 . S
H429 C435 0.930 . S
H430 C439 0.930 . S
H431 C444 0.929 . S
H432 C442 0.929 . S
H433 C437 0.925 1_554 S
H434 C443 0.929 1_556 S
C435 H429 0.930 . S
C435 C436 1.367 . S
C435 C443 1.378 . S
C436 C435 1.367 . S
C436 C444 1.433 . S
C437 H433 0.925 1_556 S
C437 C439 1.381 . S
C437 C441 1.351 . S
C438 C441 1.463 1_554 S
C438 C443 1.350 . S
C438 N446 1.427 . S
C439 H430 0.930 . S
C439 C437 1.381 . S
C439 C440 1.367 . S
C440 C439 1.367 . S
C440 C442 1.433 . S
C441 C437 1.351 . S
C441 C438 1.463 1_556 S
C441 N445 1.427 . S
C442 H432 0.929 . S
C442 C440 1.433 . S
C442 N445 1.384 . S
C443 H434 0.929 1_554 S
C443 C435 1.378 . S
C443 C438 1.350 . S
C444 H431 0.929 . S
C444 C436 1.433 . S
C444 N446 1.384 . S
N445 C441 1.427 . S
N445 C442 1.384 . S
N446 C438 1.427 . S
N446 C444 1.384 . S
H447 C453 0.930 . S
H448 C457 0.930 . S
H449 C462 0.929 1_455 S
H450 C460 0.929 . S
H451 C455 0.929 . S
H452 C461 0.929 . S
C453 H447 0.930 . S
C453 C454 1.367 . S
C453 C461 1.378 . S
C454 C453 1.367 . S
C454 C462 1.433 . S
C455 H451 0.929 . S
C455 C457 1.378 . S
C455 C459 1.350 1_455 S
C456 C459 1.463 . S
C456 C461 1.350 . S
C456 N464 1.427 1_655 S
C457 H448 0.930 . S
C457 C455 1.378 . S
C457 C458 1.367 1_455 S
C458 C457 1.367 1_655 S
C458 C460 1.433 . S
C459 C455 1.350 1_655 S
C459 C456 1.463 . S
C459 N463 1.427 . S
C460 H450 0.929 . S
C460 C458 1.433 . S
C460 N463 1.384 . S
C461 H452 0.929 . S
C461 C453 1.378 . S
C461 C456 1.350 . S
C462 H449 0.929 1_655 S
C462 C454 1.433 . S
C462 N464 1.384 1_655 S
N463 C459 1.427 . S
N463 C460 1.384 . S
N464 C456 1.427 1_455 S
N464 C462 1.384 1_455 S
H465 C471 0.930 . S
H466 C475 0.930 . S
H467 C480 0.929 1_545 S
H468 C478 0.929 . S
H469 C473 0.929 . S
H470 C479 0.929 . S
C471 H465 0.930 . S
C471 C472 1.367 . S
C471 C479 1.378 . S
C472 C471 1.367 . S
C472 C480 1.433 . S
C473 H469 0.929 . S
C473 C475 1.378 . S
C473 C477 1.350 1_545 S
C474 C477 1.463 . S
C474 C479 1.350 . S
C474 N482 1.427 1_565 S
C475 H466 0.930 . S
C475 C473 1.378 . S
C475 C476 1.367 1_545 S
C476 C475 1.367 1_565 S
C476 C478 1.433 . S
C477 C473 1.350 1_565 S
C477 C474 1.463 . S
C477 N481 1.427 . S
C478 H468 0.929 . S
C478 C476 1.433 . S
C478 N481 1.384 . S
C479 H470 0.929 . S
C479 C471 1.378 . S
C479 C474 1.350 . S
C480 H467 0.929 1_565 S
C480 C472 1.433 . S
C480 N482 1.384 1_565 S
N481 C477 1.427 . S
N481 C478 1.384 . S
N482 C474 1.427 1_545 S
N482 C480 1.384 1_545 S
H483 C489 0.930 . S
H484 C493 0.930 . S
H485 C498 0.929 . S
H486 C496 0.929 . S
H487 C491 0.929 . S
H488 C497 0.929 . S
C489 H483 0.930 . S
C489 C490 1.367 . S
C489 C497 1.378 . S
C490 C489 1.367 . S
C490 C498 1.433 . S
C491 H487 0.929 . S
C491 C493 1.378 . S
C491 C495 1.350 . S
C492 C495 1.463 1_554 S
C492 C497 1.350 . S
C492 N500 1.427 . S
C493 H484 0.930 . S
C493 C491 1.378 . S
C493 C494 1.367 . S
C494 C493 1.367 . S
C494 C496 1.433 . S
C495 C491 1.350 . S
C495 C492 1.463 1_556 S
C495 N499 1.427 1_556 S
C496 H486 0.929 . S
C496 C494 1.433 . S
C496 N499 1.384 1_556 S
C497 H488 0.929 . S
C497 C489 1.378 . S
C497 C492 1.350 . S
C498 H485 0.929 . S
C498 C490 1.433 . S
C498 N500 1.384 . S
N499 C495 1.427 1_554 S
N499 C496 1.384 1_554 S
N500 C492 1.427 . S
N500 C498 1.384 . S
H501 C507 0.930 . S
H502 C511 0.930 . S
H503 C516 0.929 . S
H504 C514 0.929 . S
H505 C509 0.933 1_655 S
H506 C515 0.929 . S
C507 H501 0.930 . S
C507 C508 1.367 . S
C507 C515 1.378 . S
C508 C507 1.367 . S
C508 C516 1.433 . S
C509 H505 0.933 1_455 S
C509 C511 1.369 1_455 S
C509 C513 1.354 . S
C510 C513 1.463 . S
C510 C515 1.350 . S
C510 N518 1.427 . S
C511 H502 0.930 . S
C511 C509 1.369 1_655 S
C511 C512 1.367 1_655 S
C512 C511 1.367 1_455 S
C512 C514 1.433 . S
C513 C509 1.354 . S
C513 C510 1.463 . S
C513 N517 1.427 . S
C514 H504 0.929 . S
C514 C512 1.433 . S
C514 N517 1.384 . S
C515 H506 0.929 . S
C515 C507 1.378 . S
C515 C510 1.350 . S
C516 H503 0.929 . S
C516 C508 1.433 . S
C516 N518 1.384 . S
N517 C513 1.427 . S
N517 C514 1.384 . S
N518 C510 1.427 . S
N518 C516 1.384 . S
C314 C269 1.391 . S
C310 C29 1.395 . S
C328 C137 1.462 . S
C332 C287 1.466 . S
C346 C225 1.475 . S
C350 C300 1.479 . S
C364 C49 1.391 . S
C368 C267 1.425 1_455 S
C386 C278 1.492 1_545 S
C382 C117 1.466 . S
C400 C205 1.470 . S
C404 C291 1.494 . S
C422 C280 1.419 1_545 S
C418 C233 1.392 . S
C436 C57 1.392 . S
C440 C293 1.423 . S
C458 C274 1.474 . S
C454 C108 1.474 . S
C476 C282 1.393 . S
C472 C196 1.396 . S
C494 C295 1.390 . S
C490 C20 1.394 . S
C508 C145 1.470 . S
C512 C265 1.491 1_455 S
