# Generated by pormake.
# Topology ocu, (6,8)-cn, num edge types: 1
# Building blocks:
#     Node 0, Type 0, BuildingBlock: KUMBOL_clean_sbu_1, # of connection points: 6
#     Node 1, Type 0, BuildingBlock: KUMBOL_clean_sbu_1, # of connection points: 6
#     Node 2, Type 0, BuildingBlock: KUMBOL_clean_sbu_1, # of connection points: 6
#     Node 3, Type 0, BuildingBlock: KUMBOL_clean_sbu_1, # of connection points: 6
#     Node 4, Type 0, BuildingBlock: KUMBOL_clean_sbu_1, # of connection points: 6
#     Node 5, Type 0, BuildingBlock: KUMBOL_clean_sbu_1, # of connection points: 6
#     Node 6, Type 0, BuildingBlock: KUMBOL_clean_sbu_1, # of connection points: 6
#     Node 7, Type 0, BuildingBlock: KUMBOL_clean_sbu_1, # of connection points: 6
#     Node 8, Type 1, BuildingBlock: GIZVER_clean_sbu_0, # of connection points: 8
#     Node 9, Type 1, BuildingBlock: GIZVER_clean_sbu_0, # of connection points: 8
#     Node 10, Type 1, BuildingBlock: GIZVER_clean_sbu_0, # of connection points: 8
#     Node 11, Type 1, BuildingBlock: GIZVER_clean_sbu_0, # of connection points: 8
#     Node 12, Type 1, BuildingBlock: GIZVER_clean_sbu_0, # of connection points: 8
#     Node 13, Type 1, BuildingBlock: GIZVER_clean_sbu_0, # of connection points: 8
#     Edge 14, Type (0, 1), BuildingBlock: XIVTED_clean_linker_0, # of connection points: 2
#     Edge 15, Type (0, 1), BuildingBlock: XIVTED_clean_linker_0, # of connection points: 2
#     Edge 16, Type (0, 1), BuildingBlock: XIVTED_clean_linker_0, # of connection points: 2
#     Edge 17, Type (0, 1), BuildingBlock: XIVTED_clean_linker_0, # of connection points: 2
#     Edge 18, Type (0, 1), BuildingBlock: XIVTED_clean_linker_0, # of connection points: 2
#     Edge 19, Type (0, 1), BuildingBlock: XIVTED_clean_linker_0, # of connection points: 2
#     Edge 20, Type (0, 1), BuildingBlock: XIVTED_clean_linker_0, # of connection points: 2
#     Edge 21, Type (0, 1), BuildingBlock: XIVTED_clean_linker_0, # of connection points: 2
#     Edge 22, Type (0, 1), BuildingBlock: XIVTED_clean_linker_0, # of connection points: 2
#     Edge 23, Type (0, 1), BuildingBlock: XIVTED_clean_linker_0, # of connection points: 2
#     Edge 24, Type (0, 1), BuildingBlock: XIVTED_clean_linker_0, # of connection points: 2
#     Edge 25, Type (0, 1), BuildingBlock: XIVTED_clean_linker_0, # of connection points: 2
#     Edge 26, Type (0, 1), BuildingBlock: XIVTED_clean_linker_0, # of connection points: 2
#     Edge 27, Type (0, 1), BuildingBlock: XIVTED_clean_linker_0, # of connection points: 2
#     Edge 28, Type (0, 1), BuildingBlock: XIVTED_clean_linker_0, # of connection points: 2
#     Edge 29, Type (0, 1), BuildingBlock: XIVTED_clean_linker_0, # of connection points: 2
#     Edge 30, Type (0, 1), BuildingBlock: XIVTED_clean_linker_0, # of connection points: 2
#     Edge 31, Type (0, 1), BuildingBlock: XIVTED_clean_linker_0, # of connection points: 2
#     Edge 32, Type (0, 1), BuildingBlock: XIVTED_clean_linker_0, # of connection points: 2
#     Edge 33, Type (0, 1), BuildingBlock: XIVTED_clean_linker_0, # of connection points: 2
#     Edge 34, Type (0, 1), BuildingBlock: XIVTED_clean_linker_0, # of connection points: 2
#     Edge 35, Type (0, 1), BuildingBlock: XIVTED_clean_linker_0, # of connection points: 2
#     Edge 36, Type (0, 1), BuildingBlock: XIVTED_clean_linker_0, # of connection points: 2
#     Edge 37, Type (0, 1), BuildingBlock: XIVTED_clean_linker_0, # of connection points: 2
#     Edge 38, Type (0, 1), BuildingBlock: XIVTED_clean_linker_0, # of connection points: 2
#     Edge 39, Type (0, 1), BuildingBlock: XIVTED_clean_linker_0, # of connection points: 2
#     Edge 40, Type (0, 1), BuildingBlock: XIVTED_clean_linker_0, # of connection points: 2
#     Edge 41, Type (0, 1), BuildingBlock: XIVTED_clean_linker_0, # of connection points: 2
#     Edge 42, Type (0, 1), BuildingBlock: XIVTED_clean_linker_0, # of connection points: 2
#     Edge 43, Type (0, 1), BuildingBlock: XIVTED_clean_linker_0, # of connection points: 2
#     Edge 44, Type (0, 1), BuildingBlock: XIVTED_clean_linker_0, # of connection points: 2
#     Edge 45, Type (0, 1), BuildingBlock: XIVTED_clean_linker_0, # of connection points: 2
#     Edge 46, Type (0, 1), BuildingBlock: XIVTED_clean_linker_0, # of connection points: 2
#     Edge 47, Type (0, 1), BuildingBlock: XIVTED_clean_linker_0, # of connection points: 2
#     Edge 48, Type (0, 1), BuildingBlock: XIVTED_clean_linker_0, # of connection points: 2
#     Edge 49, Type (0, 1), BuildingBlock: XIVTED_clean_linker_0, # of connection points: 2
#     Edge 50, Type (0, 1), BuildingBlock: XIVTED_clean_linker_0, # of connection points: 2
#     Edge 51, Type (0, 1), BuildingBlock: XIVTED_clean_linker_0, # of connection points: 2
#     Edge 52, Type (0, 1), BuildingBlock: XIVTED_clean_linker_0, # of connection points: 2
#     Edge 53, Type (0, 1), BuildingBlock: XIVTED_clean_linker_0, # of connection points: 2
#     Edge 54, Type (0, 1), BuildingBlock: XIVTED_clean_linker_0, # of connection points: 2
#     Edge 55, Type (0, 1), BuildingBlock: XIVTED_clean_linker_0, # of connection points: 2
#     Edge 56, Type (0, 1), BuildingBlock: XIVTED_clean_linker_0, # of connection points: 2
#     Edge 57, Type (0, 1), BuildingBlock: XIVTED_clean_linker_0, # of connection points: 2
#     Edge 58, Type (0, 1), BuildingBlock: XIVTED_clean_linker_0, # of connection points: 2
#     Edge 59, Type (0, 1), BuildingBlock: XIVTED_clean_linker_0, # of connection points: 2
#     Edge 60, Type (0, 1), BuildingBlock: XIVTED_clean_linker_0, # of connection points: 2
#     Edge 61, Type (0, 1), BuildingBlock: XIVTED_clean_linker_0, # of connection points: 2
# Relax obj value: 0.164
# Max RMSD: 0.211
# Mean RMSD: 0.172
data_MOF--net-ocu--node1-KUMBOL_clean_sbu_1--node2-GIZVER_clean_sbu_0--edge1-XIVTED_clean_linker_0
_symmetry_space_group_name_H-M    P1
_symmetry_Int_Tables_number       1
_symmetry_cell_setting            triclinic
loop_
_symmetry_equiv_pos_as_xyz
'x, y, z'
_cell_length_a     42.840626
_cell_length_b     45.262868
_cell_length_c     34.999185
_cell_angle_alpha  101.17638
_cell_angle_beta   78.929362
_cell_angle_gamma 111.70251
loop_
_atom_site_label
_atom_site_type_symbol
_atom_site_fract_x
_atom_site_fract_y
_atom_site_fract_z
_atom_type_partial_charge
C0 C 0.32242 0.3441 0.36373 0.0
C1 C 0.27435 0.32949 0.41465 0.0
C2 C 0.29327 0.3211 0.37933 0.0
C3 C 0.28475 0.36122 0.43361 0.0
C4 C 0.33305 0.37592 0.38287 0.0
C5 C 0.314 0.38436 0.41778 0.0
N6 N 0.34015 0.33539 0.3296 0.0
C7 C 0.36913 0.35701 0.31363 0.0
C8 C 0.36247 0.39837 0.36625 0.0
C9 C 0.38065 0.38882 0.33155 0.0
Gd10 Gd 0.26227 0.25644 0.21463 0.0
Gd11 Gd 0.31884 0.2816 0.30184 0.0
N12 N 0.28341 0.29063 0.35988 0.0
C13 C 0.24569 0.30564 0.4301 0.0
C14 C 0.25672 0.26698 0.37618 0.0
C15 C 0.23712 0.27419 0.41104 0.0
H16 H 0.25091 0.24238 0.36332 0.0
H17 H 0.2157 0.25534 0.42351 0.0
H18 H 0.3319 0.28818 0.15152 0.0
H19 H 0.38378 0.34955 0.28755 0.0
H20 H 0.36355 0.27032 0.09083 0.0
H21 H 0.2305 0.31111 0.45719 0.0
H22 H 0.27042 0.36808 0.46068 0.0
H23 H 0.19131 0.19396 0.23184 0.0
H24 H 0.37147 0.42305 0.38008 0.0
H25 H 0.40366 0.4059 0.31874 0.0
H26 H 0.2975 0.15927 0.05919 0.0
H27 H 0.32171 0.40871 0.43282 0.0
H28 H 0.19485 0.11464 0.14403 0.0
H29 H 0.16582 0.13718 0.20422 0.0
N30 N 0.23524 0.20273 0.18959 0.0
C31 C 0.25112 0.19114 0.15585 0.0
C32 C 0.20472 0.18398 0.20655 0.0
C33 C 0.20639 0.13941 0.15647 0.0
C34 C 0.18998 0.152 0.19052 0.0
C35 C 0.23718 0.15908 0.13847 0.0
H36 H 0.24396 0.12317 0.08997 0.0
N37 N 0.29434 0.24222 0.15629 0.0
C38 C 0.28131 0.21155 0.1384 0.0
C39 C 0.3285 0.22168 0.08638 0.0
C40 C 0.29832 0.20035 0.10326 0.0
C41 C 0.3229 0.26345 0.13899 0.0
C42 C 0.34065 0.25344 0.10414 0.0
O43 O 0.28714 0.3125 0.29971 0.0
O44 O 0.23998 0.27689 0.27358 0.0
O45 O 0.25809 0.28973 0.18008 0.0
O46 O 0.21458 0.24818 0.19438 0.0
O47 O 0.27965 0.23121 0.29494 0.0
O48 O 0.23572 0.23606 0.27082 0.0
O49 O 0.29617 0.22682 0.21386 0.0
O50 O 0.34219 0.26153 0.24348 0.0
O51 O 0.32674 0.24953 0.33492 0.0
O52 O 0.3669 0.29419 0.32378 0.0
O53 O 0.30306 0.30596 0.21958 0.0
O54 O 0.34656 0.30211 0.24605 0.0
C55 C 0.25502 0.30407 0.29506 0.0
C56 C 0.2475 0.22087 0.28978 0.0
C57 C 0.21703 0.26818 0.13577 0.0
C58 C 0.19394 0.28602 0.08902 0.0
C59 C 0.20486 0.2355 0.07315 0.0
C60 C 0.21643 0.2405 0.10933 0.0
C61 C 0.19338 0.25781 0.06317 0.0
C62 C 0.20643 0.29106 0.12522 0.0
C63 C 0.22666 0.27292 0.17537 0.0
C64 C 0.28471 0.16833 0.08611 0.0
C65 C 0.25423 0.14776 0.10366 0.0
H66 H 0.34234 0.214 0.0594 0.0
C67 C 0.32794 0.23519 0.22017 0.0
C68 C 0.33529 0.31562 0.22419 0.0
C69 C 0.36527 0.27329 0.38154 0.0
C70 C 0.38647 0.25526 0.42956 0.0
C71 C 0.36917 0.30216 0.44755 0.0
C72 C 0.3609 0.29853 0.40977 0.0
C73 C 0.38194 0.28075 0.45745 0.0
C74 C 0.37799 0.25176 0.39158 0.0
C75 C 0.35704 0.26882 0.34136 0.0
H76 H 0.20414 0.2139 0.05305 0.0
H77 H 0.22433 0.22252 0.11682 0.0
H78 H 0.18338 0.25241 0.03551 0.0
H79 H 0.2078 0.31267 0.14562 0.0
H80 H 0.36567 0.32166 0.46923 0.0
H81 H 0.35132 0.31548 0.40269 0.0
H82 H 0.38788 0.28391 0.48702 0.0
H83 H 0.38175 0.23254 0.3695 0.0
C84 C 0.87762 0.25952 0.15909 0.0
C85 C 0.92807 0.30663 0.16668 0.0
C86 C 0.89727 0.28506 0.18276 0.0
C87 C 0.93775 0.3032 0.12585 0.0
C88 C 0.88836 0.25472 0.1184 0.0
C89 C 0.91791 0.27727 0.10173 0.0
N90 N 0.84966 0.23786 0.1764 0.0
C91 C 0.83369 0.2091 0.1553 0.0
C92 C 0.86999 0.22666 0.09603 0.0
C93 C 0.84299 0.20343 0.11474 0.0
Gd94 Gd 0.75828 0.28887 0.26154 0.0
Gd95 Gd 0.83392 0.25169 0.24418 0.0
N96 N 0.88716 0.2877 0.22203 0.0
C97 C 0.94873 0.33023 0.1923 0.0
C98 C 0.9083 0.30899 0.24737 0.0
C99 C 0.93912 0.33098 0.23288 0.0
H100 H 0.9006 0.30966 0.27867 0.0
H101 H 0.95533 0.34855 0.25296 0.0
H102 H 0.70771 0.24582 0.19332 0.0
H103 H 0.81372 0.19032 0.16958 0.0
H104 H 0.65332 0.20095 0.18877 0.0
H105 H 0.9726 0.34728 0.18111 0.0
H106 H 0.96108 0.31979 0.11281 0.0
H107 H 0.76078 0.31879 0.35622 0.0
H108 H 0.8774 0.22204 0.06469 0.0
H109 H 0.82959 0.18097 0.09804 0.0
H110 H 0.60677 0.1897 0.32344 0.0
H111 H 0.92631 0.27422 0.07045 0.0
H112 H 0.66883 0.2654 0.42244 0.0
H113 H 0.72471 0.30901 0.41998 0.0
N114 N 0.72604 0.28056 0.32333 0.0
C115 C 0.69493 0.25732 0.32386 0.0
C116 C 0.73659 0.29952 0.35713 0.0
C117 C 0.68455 0.26958 0.39444 0.0
C118 C 0.71614 0.29416 0.39319 0.0
C119 C 0.6735 0.25087 0.3595 0.0
H120 H 0.62527 0.22039 0.38623 0.0
N121 N 0.70539 0.24803 0.2547 0.0
C122 C 0.68466 0.24001 0.28852 0.0
C123 C 0.64177 0.20062 0.25142 0.0
C124 C 0.65244 0.21581 0.28785 0.0
C125 C 0.69353 0.23577 0.21944 0.0
C126 C 0.66214 0.21117 0.21703 0.0
O127 O 0.84601 0.30287 0.2349 0.0
O128 O 0.80006 0.30242 0.21037 0.0
O129 O 0.7283 0.30655 0.23498 0.0
O130 O 0.75623 0.33697 0.28175 0.0
O131 O 0.82615 0.2823 0.30276 0.0
O132 O 0.80351 0.31929 0.29291 0.0
O133 O 0.76001 0.25552 0.30179 0.0
O134 O 0.78084 0.21898 0.26167 0.0
O135 O 0.85138 0.24368 0.29419 0.0
O136 O 0.85965 0.21721 0.23739 0.0
O137 O 0.76875 0.26188 0.2014 0.0
O138 O 0.78657 0.22322 0.21462 0.0
C139 C 0.83262 0.31423 0.21313 0.0
C140 C 0.82251 0.31075 0.31117 0.0
C141 C 0.70434 0.34245 0.27454 0.0
C142 C 0.6608 0.36062 0.26164 0.0
C143 C 0.65815 0.3456 0.32559 0.0
C144 C 0.68798 0.33861 0.31294 0.0
C145 C 0.64453 0.35651 0.30014 0.0
C146 C 0.69056 0.35322 0.24916 0.0
C147 C 0.73431 0.33335 0.25851 0.0
C148 C 0.63147 0.20842 0.32336 0.0
C149 C 0.64193 0.22599 0.35911 0.0
H150 H 0.61723 0.18189 0.24959 0.0
C151 C 0.75926 0.22587 0.29083 0.0
C152 C 0.77065 0.23293 0.19356 0.0
C153 C 0.8521 0.19211 0.29325 0.0
C154 C 0.86528 0.16068 0.33315 0.0
C155 C 0.80931 0.14281 0.31234 0.0
C156 C 0.81919 0.16962 0.29286 0.0
C157 C 0.83211 0.13832 0.33238 0.0
C158 C 0.87509 0.18757 0.31326 0.0
C159 C 0.86231 0.2212 0.27456 0.0
H160 H 0.64555 0.3426 0.35524 0.0
H161 H 0.69795 0.33 0.33294 0.0
H162 H 0.62171 0.36226 0.31077 0.0
H163 H 0.70291 0.35529 0.2192 0.0
H164 H 0.78389 0.12547 0.31195 0.0
H165 H 0.80115 0.17287 0.2777 0.0
H166 H 0.82388 0.11712 0.34689 0.0
H167 H 0.90033 0.20532 0.31399 0.0
C168 C 0.874 0.81321 0.15319 0.0
C169 C 0.86645 0.77315 0.09514 0.0
C170 C 0.85388 0.78526 0.13278 0.0
C171 C 0.90007 0.78855 0.07924 0.0
C172 C 0.90754 0.82913 0.13678 0.0
C173 C 0.9206 0.81636 0.10006 0.0
N174 N 0.86033 0.82562 0.18808 0.0
C175 C 0.87841 0.85452 0.20716 0.0
C176 C 0.92671 0.8579 0.15728 0.0
C177 C 0.91198 0.87076 0.19244 0.0
Gd178 Gd 0.77632 0.7429 0.29728 0.0
Gd179 Gd 0.80356 0.79628 0.20909 0.0
N180 N 0.8216 0.77042 0.14918 0.0
C181 C 0.84473 0.74602 0.07453 0.0
C182 C 0.79992 0.7448 0.12868 0.0
C183 C 0.81125 0.73194 0.09129 0.0
H184 H 0.77387 0.7345 0.1411 0.0
H185 H 0.79409 0.71137 0.07529 0.0
H186 H 0.80344 0.81015 0.36022 0.0
H187 H 0.8669 0.86566 0.23326 0.0
H188 H 0.78044 0.83756 0.42095 0.0
H189 H 0.85343 0.73602 0.04555 0.0
H190 H 0.91034 0.77933 0.0507 0.0
H191 H 0.71623 0.67088 0.2781 0.0
H192 H 0.95259 0.87079 0.14569 0.0
H193 H 0.92628 0.89349 0.20789 0.0
H194 H 0.66603 0.76636 0.44862 0.0
H195 H 0.94635 0.82821 0.08713 0.0
H196 H 0.62919 0.66688 0.36365 0.0
H197 H 0.65722 0.64191 0.30474 0.0
N198 N 0.72084 0.71248 0.32029 0.0
C199 C 0.70622 0.72641 0.35323 0.0
C200 C 0.70392 0.68235 0.30319 0.0
C201 C 0.65493 0.6799 0.35178 0.0
C202 C 0.67064 0.66574 0.31847 0.0
C203 C 0.67279 0.71046 0.36983 0.0
H204 H 0.63271 0.71338 0.41713 0.0
N205 N 0.75719 0.7714 0.35433 0.0
C206 C 0.725 0.75647 0.37102 0.0
C207 C 0.73095 0.80082 0.42351 0.0
C208 C 0.71086 0.77107 0.4058 0.0
C209 C 0.77746 0.79951 0.37251 0.0
C210 C 0.76451 0.81492 0.40701 0.0
O211 O 0.8267 0.75581 0.20104 0.0
O212 O 0.7943 0.7164 0.2408 0.0
O213 O 0.81733 0.74593 0.32714 0.0
O214 O 0.77189 0.70372 0.32811 0.0
O215 O 0.75083 0.75993 0.22084 0.0
O216 O 0.75267 0.71628 0.24253 0.0
O217 O 0.74923 0.77913 0.29992 0.0
O218 O 0.78551 0.82143 0.26731 0.0
O219 O 0.76289 0.79719 0.18109 0.0
O220 O 0.81016 0.83728 0.18068 0.0
O221 O 0.82918 0.77733 0.28157 0.0
O222 O 0.82664 0.8219 0.26458 0.0
C223 C 0.81883 0.72707 0.21219 0.0
C224 C 0.74216 0.72875 0.21873 0.0
C225 C 0.80464 0.71738 0.38087 0.0
C226 C 0.83291 0.70397 0.42602 0.0
C227 C 0.79136 0.7303 0.45124 0.0
C228 C 0.78633 0.73031 0.41293 0.0
C229 C 0.81451 0.71728 0.45785 0.0
C230 C 0.82788 0.7044 0.38755 0.0
C231 C 0.8015 0.7184 0.34008 0.0
C232 C 0.67738 0.75544 0.422 0.0
C233 C 0.6584 0.72525 0.40405 0.0
H234 H 0.721 0.81281 0.45026 0.0
C235 C 0.75863 0.80907 0.29258 0.0
C236 C 0.83808 0.80852 0.28615 0.0
C237 C 0.77876 0.82678 0.12747 0.0
C238 C 0.75043 0.8387 0.08096 0.0
C239 C 0.80034 0.82337 0.05795 0.0
C240 C 0.80274 0.82098 0.0964 0.0
C241 C 0.77444 0.83223 0.05018 0.0
C242 C 0.75258 0.83534 0.11953 0.0
C243 C 0.78056 0.82457 0.16845 0.0
H244 H 0.77716 0.74032 0.47592 0.0
H245 H 0.76836 0.74049 0.40845 0.0
H246 H 0.81749 0.71704 0.48783 0.0
H247 H 0.84239 0.69494 0.36259 0.0
H248 H 0.81897 0.81887 0.03415 0.0
H249 H 0.82348 0.81498 0.10175 0.0
H250 H 0.77388 0.83495 0.02028 0.0
H251 H 0.73398 0.83962 0.14361 0.0
C252 C 0.38798 0.75508 0.26343 0.0
C253 C 0.3755 0.69834 0.26255 0.0
C254 C 0.3664 0.72392 0.25684 0.0
C255 C 0.40636 0.705 0.27658 0.0
C256 C 0.41957 0.76201 0.27601 0.0
C257 C 0.42838 0.73682 0.28331 0.0
N258 N 0.37874 0.77852 0.2554 0.0
C259 C 0.4007 0.80945 0.25727 0.0
C260 C 0.44162 0.79392 0.27981 0.0
C261 C 0.43227 0.8177 0.26996 0.0
Gd262 Gd 0.24478 0.78997 0.28053 0.0
Gd263 Gd 0.32437 0.76364 0.23728 0.0
N264 N 0.33726 0.71858 0.24268 0.0
C265 C 0.35371 0.66692 0.25298 0.0
C266 C 0.31665 0.68803 0.23164 0.0
C267 C 0.32431 0.66175 0.23705 0.0
H268 H 0.29409 0.68391 0.2189 0.0
H269 H 0.30762 0.63756 0.2288 0.0
H270 H 0.23545 0.79647 0.37829 0.0
H271 H 0.39366 0.82791 0.24959 0.0
H272 H 0.22509 0.83468 0.43598 0.0
H273 H 0.35973 0.64655 0.25692 0.0
H274 H 0.41374 0.68571 0.28146 0.0
H275 H 0.22828 0.81219 0.2034 0.0
H276 H 0.46614 0.80031 0.28944 0.0
H277 H 0.44936 0.84236 0.2721 0.0
H278 H 0.21036 0.91677 0.37992 0.0
H279 H 0.45243 0.74162 0.29328 0.0
H280 H 0.20963 0.90081 0.2404 0.0
H281 H 0.21559 0.85725 0.18776 0.0
N282 N 0.2308 0.83086 0.26375 0.0
C283 C 0.22654 0.85391 0.29319 0.0
C284 C 0.22601 0.83128 0.22643 0.0
C285 C 0.2155 0.88127 0.2473 0.0
C286 C 0.21878 0.8567 0.21752 0.0
C287 C 0.21883 0.87982 0.28585 0.0
H288 H 0.20803 0.92305 0.31227 0.0
N289 N 0.2338 0.8243 0.33684 0.0
C290 C 0.228 0.85047 0.33106 0.0
C291 C 0.22108 0.86714 0.4011 0.0
C292 C 0.22162 0.87273 0.36297 0.0
C293 C 0.23189 0.81797 0.37397 0.0
C294 C 0.22598 0.83948 0.40661 0.0
O295 O 0.27889 0.72829 0.26973 0.0
O296 O 0.25957 0.76217 0.31702 0.0
O297 O 0.18993 0.77682 0.29134 0.0
O298 O 0.21202 0.7399 0.27196 0.0
O299 O 0.27278 0.732 0.22244 0.0
O300 O 0.25562 0.77205 0.2162 0.0
O301 O 0.2825 0.8171 0.23323 0.0
O302 O 0.33187 0.81683 0.24824 0.0
O303 O 0.32435 0.78315 0.18567 0.0
O304 O 0.35239 0.75146 0.18096 0.0
O305 O 0.28653 0.81286 0.3205 0.0
O306 O 0.33273 0.79547 0.29607 0.0
C307 C 0.26198 0.73371 0.30446 0.0
C308 C 0.25513 0.74247 0.20523 0.0
C309 C 0.16283 0.72722 0.31685 0.0
C310 C 0.13939 0.72461 0.38581 0.0
C311 C 0.12754 0.67601 0.33885 0.0
C312 C 0.14726 0.69385 0.30871 0.0
C313 C 0.12332 0.69132 0.37728 0.0
C314 C 0.15896 0.74226 0.35537 0.0
C315 C 0.18451 0.74606 0.28569 0.0
C316 C 0.21511 0.89927 0.35582 0.0
C317 C 0.21377 0.90284 0.31731 0.0
H318 H 0.2162 0.88362 0.42643 0.0
C319 C 0.31503 0.83143 0.23589 0.0
C320 C 0.31697 0.8123 0.32262 0.0
C321 C 0.327 0.75032 0.1252 0.0
C322 C 0.33041 0.71562 0.06328 0.0
C323 C 0.28498 0.73729 0.08072 0.0
C324 C 0.29819 0.75378 0.11545 0.0
C325 C 0.30084 0.71794 0.05475 0.0
C326 C 0.34321 0.73162 0.09854 0.0
C327 C 0.34115 0.7669 0.16209 0.0
H328 H 0.11549 0.65029 0.33241 0.0
H329 H 0.15045 0.68163 0.27916 0.0
H330 H 0.10758 0.67731 0.40019 0.0
H331 H 0.17037 0.76808 0.36153 0.0
H332 H 0.26248 0.73963 0.07388 0.0
H333 H 0.28573 0.76911 0.13457 0.0
H334 H 0.29047 0.70526 0.02789 0.0
H335 H 0.36575 0.72922 0.10537 0.0
C336 C 0.38599 0.74737 0.6464 0.0
C337 C 0.43341 0.79773 0.65085 0.0
C338 C 0.40299 0.77629 0.66794 0.0
C339 C 0.44609 0.79004 0.6116 0.0
C340 C 0.39884 0.73947 0.6071 0.0
C341 C 0.42883 0.76104 0.58976 0.0
N342 N 0.35717 0.72683 0.66401 0.0
C343 C 0.34036 0.69775 0.64434 0.0
C344 C 0.3813 0.70999 0.58645 0.0
C345 C 0.35202 0.689 0.60522 0.0
Gd346 Gd 0.26356 0.77891 0.75904 0.0
Gd347 Gd 0.33991 0.74423 0.72936 0.0
N348 N 0.3898 0.7834 0.7057 0.0
C349 C 0.45021 0.82622 0.67381 0.0
C350 C 0.40672 0.81047 0.72869 0.0
C351 C 0.43693 0.83249 0.71297 0.0
H352 H 0.39707 0.81518 0.7591 0.0
H353 H 0.45003 0.85421 0.73111 0.0
H354 H 0.20798 0.72559 0.70065 0.0
H355 H 0.31824 0.681 0.65893 0.0
H356 H 0.15691 0.67729 0.70641 0.0
H357 H 0.4736 0.84336 0.66172 0.0
H358 H 0.46933 0.8063 0.5979 0.0
H359 H 0.2725 0.81848 0.84969 0.0
H360 H 0.39035 0.70305 0.55618 0.0
H361 H 0.33856 0.66598 0.58965 0.0
H362 H 0.12689 0.6758 0.84546 0.0
H363 H 0.43904 0.75539 0.55957 0.0
H364 H 0.19259 0.76444 0.92984 0.0
H365 H 0.24415 0.8116 0.91755 0.0
N366 N 0.2375 0.7755 0.82413 0.0
C367 C 0.20879 0.74978 0.83011 0.0
C368 C 0.25007 0.79778 0.85482 0.0
C369 C 0.20488 0.76736 0.90004 0.0
C370 C 0.23402 0.794 0.89322 0.0
C371 C 0.19181 0.7449 0.8683 0.0
H372 H 0.1494 0.71339 0.90276 0.0
N373 N 0.21329 0.73396 0.76129 0.0
C374 C 0.1966 0.72817 0.79779 0.0
C375 C 0.15288 0.68235 0.76948 0.0
C376 C 0.16636 0.70174 0.8029 0.0
C377 C 0.19799 0.71757 0.72898 0.0
C378 C 0.16829 0.69085 0.73236 0.0
O379 O 0.33876 0.78091 0.6938 0.0
O380 O 0.31312 0.81382 0.73552 0.0
O381 O 0.24005 0.79378 0.72006 0.0
O382 O 0.24055 0.81554 0.78071 0.0
O383 O 0.33977 0.7778 0.78643 0.0
O384 O 0.31055 0.81212 0.78616 0.0
O385 O 0.27235 0.74873 0.79807 0.0
O386 O 0.28973 0.71111 0.75549 0.0
O387 O 0.36355 0.73988 0.77641 0.0
O388 O 0.36466 0.70889 0.72087 0.0
O389 O 0.27013 0.75017 0.69832 0.0
O390 O 0.29033 0.71256 0.70938 0.0
C391 C 0.33539 0.80909 0.70583 0.0
C392 C 0.33304 0.80443 0.79951 0.0
C393 C 0.19327 0.80913 0.74976 0.0
C394 C 0.15002 0.81967 0.72329 0.0
C395 C 0.13447 0.78965 0.77891 0.0
C396 C 0.16826 0.79276 0.77804 0.0
C397 C 0.12536 0.80311 0.75193 0.0
C398 C 0.18397 0.82208 0.72223 0.0
C399 C 0.22913 0.81266 0.7478 0.0
C400 C 0.14989 0.69624 0.84098 0.0
C401 C 0.16259 0.71776 0.8736 0.0
H402 H 0.12968 0.66184 0.7721 0.0
C403 C 0.27217 0.71923 0.78815 0.0
C404 C 0.27278 0.72144 0.68994 0.0
C405 C 0.41036 0.72266 0.75733 0.0
C406 C 0.45067 0.71078 0.78698 0.0
C407 C 0.47069 0.74654 0.73698 0.0
C408 C 0.43728 0.7423 0.73369 0.0
C409 C 0.47745 0.73085 0.7634 0.0
C410 C 0.41717 0.70729 0.78409 0.0
C411 C 0.37493 0.71801 0.75535 0.0
H412 H 0.11531 0.77711 0.80092 0.0
H413 H 0.17478 0.7825 0.7995 0.0
H414 H 0.09913 0.80116 0.75421 0.0
H415 H 0.20338 0.83401 0.69994 0.0
H416 H 0.49139 0.7617 0.71862 0.0
H417 H 0.43261 0.75424 0.71272 0.0
H418 H 0.50351 0.73374 0.76457 0.0
H419 H 0.39621 0.69248 0.80263 0.0
C420 C 0.36855 0.28494 0.63881 0.0
C421 C 0.34027 0.25044 0.58438 0.0
C422 C 0.3389 0.26711 0.62281 0.0
C423 C 0.37176 0.2508 0.56317 0.0
C424 C 0.4003 0.28638 0.61716 0.0
C425 C 0.40172 0.26879 0.57948 0.0
N426 N 0.36627 0.30116 0.67564 0.0
C427 C 0.39474 0.3211 0.69152 0.0
C428 C 0.42964 0.30573 0.63393 0.0
C429 C 0.42684 0.32342 0.6711 0.0
Gd430 Gd 0.28317 0.24128 0.79477 0.0
Gd431 Gd 0.31151 0.29555 0.70813 0.0
N432 N 0.3089 0.26751 0.64397 0.0
C433 C 0.31004 0.23476 0.56797 0.0
C434 C 0.27987 0.25457 0.62685 0.0
C435 C 0.27978 0.23734 0.58907 0.0
H436 H 0.25698 0.25836 0.64181 0.0
H437 H 0.25649 0.22657 0.57599 0.0
H438 H 0.31359 0.29411 0.87072 0.0
H439 H 0.39266 0.33495 0.72011 0.0
H440 H 0.29202 0.32185 0.93255 0.0
H441 H 0.31 0.22173 0.53853 0.0
H442 H 0.37324 0.23785 0.53379 0.0
H443 H 0.21469 0.17816 0.76621 0.0
H444 H 0.45454 0.30752 0.61824 0.0
H445 H 0.44938 0.33884 0.68402 0.0
H446 H 0.17102 0.2778 0.93556 0.0
H447 H 0.42586 0.26933 0.56248 0.0
H448 H 0.12607 0.19067 0.8364 0.0
H449 H 0.15269 0.16077 0.78151 0.0
N450 N 0.22351 0.22005 0.80881 0.0
C451 C 0.20944 0.23542 0.84085 0.0
C452 C 0.20361 0.19258 0.78886 0.0
C453 C 0.1534 0.19904 0.82909 0.0
C454 C 0.16832 0.18215 0.79803 0.0
C455 C 0.174 0.22552 0.85164 0.0
H456 H 0.13317 0.23447 0.89381 0.0
N457 N 0.26465 0.26814 0.85392 0.0
C458 C 0.23064 0.2598 0.86451 0.0
C459 C 0.23963 0.298 0.92359 0.0
C460 C 0.21717 0.27497 0.89931 0.0
C461 C 0.28666 0.28903 0.87862 0.0
C462 C 0.27451 0.30465 0.91352 0.0
O463 O 0.34249 0.26365 0.71029 0.0
O464 O 0.30405 0.21898 0.73599 0.0
O465 O 0.31857 0.23512 0.82665 0.0
O466 O 0.26903 0.1989 0.82365 0.0
O467 O 0.25854 0.25819 0.71165 0.0
O468 O 0.26328 0.21684 0.7367 0.0
O469 O 0.27615 0.29033 0.80513 0.0
O470 O 0.26131 0.29133 0.74683 0.0
O471 O 0.30369 0.32182 0.6669 0.0
O472 O 0.32659 0.34746 0.7189 0.0
O473 O 0.33691 0.27568 0.78762 0.0
O474 O 0.33508 0.31906 0.76441 0.0
C475 C 0.33199 0.23261 0.71291 0.0
C476 C 0.24995 0.22739 0.71358 0.0
C477 C 0.31464 0.18208 0.82591 0.0
C478 C 0.34771 0.15549 0.84608 0.0
C479 C 0.32898 0.13928 0.78154 0.0
C480 C 0.31335 0.16236 0.78953 0.0
C481 C 0.34588 0.13566 0.80977 0.0
C482 C 0.33218 0.17882 0.85399 0.0
C483 C 0.29876 0.20678 0.83456 0.0
C484 C 0.18188 0.2662 0.90914 0.0
C485 C 0.16034 0.24156 0.88531 0.0
H486 H 0.2303 0.31024 0.95054 0.0
C487 C 0.25915 0.29947 0.78505 0.0
C488 C 0.34686 0.30673 0.78726 0.0
C489 C 0.28678 0.36539 0.7001 0.0
C490 C 0.24309 0.38061 0.68112 0.0
C491 C 0.25376 0.39195 0.74918 0.0
C492 C 0.27901 0.37827 0.73919 0.0
C493 C 0.23575 0.39294 0.72053 0.0
C494 C 0.26892 0.36704 0.67103 0.0
C495 C 0.3121 0.34888 0.6901 0.0
H496 H 0.32787 0.12409 0.75348 0.0
H497 H 0.30026 0.1648 0.76739 0.0
H498 H 0.35762 0.11745 0.80328 0.0
H499 H 0.3334 0.1941 0.88207 0.0
H500 H 0.24799 0.4017 0.77937 0.0
H501 H 0.29211 0.37747 0.76233 0.0
H502 H 0.21646 0.40394 0.72915 0.0
H503 H 0.27463 0.3572 0.64082 0.0
C504 C 0.8409 0.18635 0.74801 0.0
C505 C 0.84955 0.16442 0.67962 0.0
C506 C 0.84406 0.18898 0.70869 0.0
C507 C 0.85119 0.13695 0.69092 0.0
C508 C 0.84346 0.15929 0.75961 0.0
C509 C 0.84819 0.1344 0.73086 0.0
N510 N 0.83659 0.21089 0.77492 0.0
C511 C 0.83614 0.21072 0.81396 0.0
C512 C 0.84179 0.15837 0.79974 0.0
C513 C 0.8384 0.18435 0.82702 0.0
Gd514 Gd 0.75318 0.28568 0.77284 0.0
Gd515 Gd 0.83068 0.25336 0.75148 0.0
N516 N 0.84287 0.21606 0.69892 0.0
C517 C 0.85373 0.16844 0.64008 0.0
C518 C 0.84842 0.2207 0.66033 0.0
C519 C 0.85346 0.19685 0.63042 0.0
H520 H 0.84812 0.24256 0.6526 0.0
H521 H 0.85728 0.20045 0.59995 0.0
H522 H 0.78696 0.36546 0.78973 0.0
H523 H 0.83362 0.23085 0.83506 0.0
H524 H 0.78217 0.41281 0.76937 0.0
H525 H 0.8579 0.1501 0.61686 0.0
H526 H 0.85527 0.11777 0.66903 0.0
H527 H 0.68424 0.224 0.7506 0.0
H528 H 0.84364 0.138 0.80989 0.0
H529 H 0.83755 0.18409 0.85806 0.0
H530 H 0.69013 0.36807 0.69162 0.0
H531 H 0.85004 0.11332 0.73917 0.0
H532 H 0.62934 0.25467 0.68539 0.0
H533 H 0.63576 0.21175 0.71429 0.0
N534 N 0.70541 0.27287 0.74106 0.0
C535 C 0.70155 0.29692 0.72691 0.0
C536 C 0.68162 0.24279 0.73795 0.0
C537 C 0.6507 0.26007 0.70107 0.0
C538 C 0.65418 0.2358 0.71744 0.0
C539 C 0.67424 0.29125 0.7063 0.0
H540 H 0.65015 0.31318 0.67657 0.0
N541 N 0.74823 0.33193 0.75758 0.0
C542 C 0.72383 0.32758 0.73543 0.0
C543 C 0.7415 0.38477 0.73527 0.0
C544 C 0.71975 0.3538 0.72351 0.0
C545 C 0.76841 0.3621 0.7708 0.0
C546 C 0.76569 0.38894 0.75942 0.0
O547 O 0.78703 0.23298 0.79829 0.0
O548 O 0.74194 0.23263 0.77206 0.0
O549 O 0.74953 0.27816 0.83281 0.0
O550 O 0.71342 0.29533 0.81702 0.0
O551 O 0.79359 0.22798 0.70691 0.0
O552 O 0.75036 0.24974 0.71723 0.0
O553 O 0.80271 0.31739 0.7427 0.0
O554 O 0.82547 0.2805 0.70606 0.0
O555 O 0.88266 0.26375 0.76041 0.0
O556 O 0.86712 0.30217 0.75337 0.0
O557 O 0.80267 0.31701 0.79542 0.0
O558 O 0.81173 0.27502 0.81009 0.0
C559 C 0.75539 0.21913 0.79128 0.0
C560 C 0.76613 0.2301 0.69731 0.0
C561 C 0.69643 0.26453 0.87007 0.0
C562 C 0.66808 0.25685 0.93656 0.0
C563 C 0.65694 0.21214 0.88368 0.0
C564 C 0.67915 0.23227 0.85694 0.0
C565 C 0.65131 0.22432 0.92335 0.0
C566 C 0.69088 0.27656 0.90951 0.0
C567 C 0.72264 0.28582 0.84454 0.0
C568 C 0.69355 0.34828 0.70135 0.0
C569 C 0.67079 0.31703 0.69277 0.0
H570 H 0.73927 0.40559 0.72672 0.0
C571 C 0.8233 0.30939 0.71278 0.0
C572 C 0.81781 0.30595 0.8155 0.0
C573 C 0.9225 0.30549 0.72802 0.0
C574 C 0.95366 0.29245 0.66551 0.0
C575 C 0.98107 0.3384 0.71145 0.0
C576 C 0.95131 0.33131 0.73831 0.0
C577 C 0.98259 0.31858 0.67546 0.0
C578 C 0.92325 0.28815 0.69071 0.0
C579 C 0.89237 0.29404 0.75648 0.0
H580 H 0.64372 0.18717 0.87357 0.0
H581 H 0.68298 0.22278 0.8263 0.0
H582 H 0.63336 0.20858 0.94341 0.0
H583 H 0.7037 0.30186 0.91869 0.0
H584 H 1.00349 0.35818 0.7194 0.0
H585 H 0.95101 0.34536 0.76711 0.0
H586 H 1.00661 0.32267 0.65668 0.0
H587 H 0.90053 0.26907 0.68288 0.0
C588 C 0.84215 0.84712 0.85695 0.0
C589 C 0.79477 0.83907 0.90937 0.0
C590 C 0.81157 0.82725 0.8745 0.0
C591 C 0.80885 0.87114 0.92608 0.0
C592 C 0.85646 0.87927 0.87381 0.0
C593 C 0.83959 0.89119 0.90833 0.0
N594 N 0.85791 0.83496 0.82351 0.0
C595 C 0.88842 0.85334 0.80609 0.0
C596 C 0.88741 0.89848 0.85553 0.0
C597 C 0.90352 0.88539 0.82162 0.0
Gd598 Gd 0.77343 0.75576 0.71276 0.0
Gd599 Gd 0.83031 0.78115 0.79944 0.0
N600 N 0.79817 0.79642 0.85717 0.0
C601 C 0.76432 0.81827 0.92647 0.0
C602 C 0.76938 0.77569 0.87482 0.0
C603 C 0.75178 0.78637 0.90934 0.0
H604 H 0.76004 0.75084 0.86286 0.0
H605 H 0.72868 0.7699 0.92291 0.0
H606 H 0.83217 0.80253 0.64897 0.0
H607 H 0.90153 0.84303 0.78076 0.0
H608 H 0.86877 0.7959 0.58731 0.0
H609 H 0.75058 0.82649 0.95314 0.0
H610 H 0.79623 0.88064 0.95281 0.0
H611 H 0.71834 0.68237 0.72592 0.0
H612 H 0.89923 0.92331 0.86756 0.0
H613 H 0.92771 0.8999 0.80763 0.0
H614 H 0.83093 0.68236 0.54731 0.0
H615 H 0.85018 0.91585 0.92165 0.0
H616 H 0.73861 0.61584 0.62834 0.0
H617 H 0.70534 0.62689 0.69199 0.0
N618 N 0.75927 0.70226 0.68292 0.0
C619 C 0.77744 0.69688 0.64754 0.0
C620 C 0.73346 0.67769 0.69872 0.0
C621 C 0.74456 0.6402 0.64329 0.0
C622 C 0.72581 0.64631 0.67929 0.0
C623 C 0.77068 0.6656 0.62689 0.0
H624 H 0.78559 0.63672 0.57471 0.0
N625 N 0.80939 0.75266 0.65304 0.0
C626 C 0.80348 0.72269 0.63247 0.0
C627 C 0.84736 0.74433 0.58026 0.0
C628 C 0.82274 0.71772 0.59583 0.0
C629 C 0.83114 0.77876 0.63607 0.0
C630 C 0.85111 0.77503 0.60014 0.0
O631 O 0.7978 0.81166 0.79907 0.0
O632 O 0.75088 0.77766 0.77064 0.0
O633 O 0.75953 0.78494 0.68079 0.0
O634 O 0.72546 0.73717 0.6894 0.0
O635 O 0.78858 0.7321 0.79635 0.0
O636 O 0.74527 0.73492 0.76833 0.0
O637 O 0.80475 0.72462 0.7159 0.0
O638 O 0.85257 0.76032 0.74063 0.0
O639 O 0.8344 0.74659 0.83185 0.0
O640 O 0.87677 0.79033 0.82345 0.0
O641 O 0.8132 0.80603 0.7192 0.0
O642 O 0.85709 0.80042 0.74262 0.0
C643 C 0.766 0.804 0.79351 0.0
C644 C 0.75644 0.722 0.79104 0.0
C645 C 0.70071 0.77563 0.68797 0.0
C646 C 0.6667 0.80387 0.67251 0.0
C647 C 0.65126 0.77973 0.73292 0.0
C648 C 0.67875 0.76898 0.72302 0.0
C649 C 0.64517 0.79696 0.70789 0.0
C650 C 0.69469 0.79323 0.66287 0.0
C651 C 0.72949 0.7638 0.67705 0.0
C652 C 0.81627 0.68657 0.5754 0.0
C653 C 0.79034 0.66059 0.59089 0.0
H654 H 0.86263 0.74154 0.55222 0.0
C655 C 0.83727 0.73334 0.71892 0.0
C656 C 0.84561 0.81553 0.72315 0.0
C657 C 0.87013 0.7678 0.88157 0.0
C658 C 0.8873 0.7486 0.93215 0.0
C659 C 0.86833 0.79454 0.94874 0.0
C660 C 0.86353 0.79209 0.90977 0.0
C661 C 0.88008 0.77297 0.95996 0.0
C662 C 0.88204 0.74616 0.89288 0.0
C663 C 0.86459 0.76446 0.84036 0.0
H664 H 0.63457 0.77464 0.76012 0.0
H665 H 0.68277 0.75535 0.74269 0.0
H666 H 0.62381 0.80526 0.7165 0.0
H667 H 0.71143 0.79812 0.63561 0.0
H668 H 0.86296 0.81326 0.97034 0.0
H669 H 0.85483 0.80925 0.90179 0.0
H670 H 0.88325 0.77524 0.99046 0.0
H671 H 0.88773 0.72778 0.87086 0.0
Co672 Co 0.06385 0.93909 0.49232 0.0
Co673 Co 0.07863 0.98566 0.5512 0.0
Co674 Co 0.05047 1.01011 0.49776 0.0
O675 O 0.08063 0.98573 0.49736 0.0
H676 H 0.10347 0.99537 0.48497 0.0
O677 O 1.01958 0.03362 0.49858 0.0
Co678 Co 1.03391 0.07966 0.50698 0.0
Co679 Co 1.02057 0.03524 0.44562 0.0
H680 H 0.99674 0.02311 0.51064 0.0
O681 O 0.1107 0.97785 0.56982 0.0
O682 O 0.06119 0.94168 0.55119 0.0
O683 O 0.04819 1.00264 0.58898 0.0
O684 O 1.01636 0.9878 0.54182 0.0
O685 O 0.07627 0.04509 0.53566 0.0
O686 O 0.04366 0.1213 0.51474 0.0
O687 O 0.99214 0.08241 0.51692 0.0
O688 O 0.08055 0.08338 0.50182 0.0
O689 O 0.08462 0.03269 0.45386 0.0
O690 O 0.05305 0.02209 0.4069 0.0
O691 O 1.03288 0.07924 0.44934 0.0
O692 O 0.98546 0.03998 0.42946 0.0
C693 C 0.08445 0.90435 0.4872 0.0
C694 C 1.0094 0.94713 0.46645 0.0
C695 C 1.01911 0.99014 0.57811 0.0
C696 C 0.08834 0.94904 0.5683 0.0
C697 C 1.0109 0.11279 0.51929 0.0
C698 C 0.08985 0.07414 0.52875 0.0
C699 C 0.08201 0.03306 0.41815 0.0
C700 C 1.00424 0.07011 0.43464 0.0
O701 O 0.05215 0.89738 0.48801 0.0
O702 O 0.10484 0.93418 0.48743 0.0
O703 O 1.02501 0.97586 0.45941 0.0
O704 O 1.01759 0.93652 0.49301 0.0
Co705 Co 0.58428 0.95981 0.9598 0.0
Co706 Co 0.55629 0.95814 0.02565 0.0
Co707 Co 0.54362 0.01806 0.01141 0.0
O708 O 0.57806 0.9948 1.00241 0.0
H709 H 0.59869 1.00781 0.0134 0.0
O710 O 0.50889 0.03977 0.0212 0.0
Co711 Co 0.51215 0.08234 0.04824 0.0
Co712 Co 0.50801 0.05499 0.97702 0.0
H713 H 0.48653 0.02474 0.02828 0.0
O714 O 0.57938 0.95395 0.06045 0.0
O715 O 0.57382 0.92856 0.99804 0.0
O716 O 0.50796 0.94352 0.03772 0.0
O717 O 0.51357 0.99445 0.0573 0.0
O718 O 0.57159 0.05262 0.04873 0.0
O719 O 0.51101 0.12059 0.07479 0.0
O720 O 0.46649 0.07561 0.06448 0.0
O721 O 0.56124 0.09522 0.03737 0.0
O722 O 0.57451 0.04285 0.96725 0.0
O723 O 0.54448 0.05846 0.93524 0.0
O724 O 0.50728 0.0953 0.99816 0.0
O725 O 0.46787 0.05321 0.96701 0.0
C726 C 0.62281 0.94125 0.93048 0.0
C727 C 0.51358 0.95717 0.95644 0.0
C728 C 0.49605 0.96448 0.05701 0.0
C729 C 0.58585 0.93337 0.0314 0.0
C730 C 0.47829 0.10587 0.07948 0.0
C731 C 0.58005 0.083 0.04884 0.0
C732 C 0.57206 0.05572 0.9389 0.0
C733 C 0.47914 0.08326 0.98196 0.0
O734 O 0.59212 0.93001 0.92175 0.0
O735 O 0.63055 0.96622 0.95795 0.0
O736 O 0.5145 0.98503 0.97356 0.0
O737 O 0.53803 0.94698 0.9537 0.0
Co738 Co 0.08061 0.457 0.95944 0.0
Co739 Co 0.08178 0.47991 0.03259 0.0
Co740 Co 0.04623 0.51938 0.99952 0.0
O741 O 0.08255 0.49876 0.99022 0.0
H742 H 0.10484 0.51453 0.98499 0.0
O743 O 1.00953 0.5402 0.00803 0.0
Co744 Co 0.99815 0.57112 0.05292 0.0
Co745 Co 1.02797 0.57784 0.98733 0.0
H746 H 0.98966 0.52622 0.99614 0.0
O747 O 0.11989 0.47665 0.04425 0.0
O748 O 0.08099 0.43952 0.00783 0.0
O749 O 0.04403 0.4755 0.07285 0.0
O750 O 1.01469 0.49208 0.04089 0.0
O751 O 0.07264 0.55225 0.04021 0.0
O752 O 0.98519 0.59724 0.09326 0.0
O753 O 0.95265 0.56264 0.04936 0.0
O754 O 0.04319 0.58528 0.06354 0.0
O755 O 0.07722 0.54602 0.95682 0.0
O756 O 0.07574 0.59504 0.97709 0.0
O757 O 1.0101 0.60564 0.01903 0.0
O758 O 1.00306 0.58398 0.95562 0.0
C759 C 0.11549 0.43465 0.92776 0.0
C760 C 1.01344 0.45592 0.95586 0.0
C761 C 1.01664 0.47838 0.06868 0.0
C762 C 0.10693 0.44746 0.02713 0.0
C763 C 0.9562 0.5852 0.07985 0.0
C764 C 0.06977 0.57818 0.06027 0.0
C765 C 0.09136 0.5766 0.95892 0.0
C766 C 0.9978 0.60354 0.98664 0.0
O767 O 0.08283 0.42016 0.92957 0.0
O768 O 0.12674 0.46391 0.94631 0.0
O769 O 1.02092 0.48633 0.95885 0.0
O770 O 1.032 0.44349 0.96706 0.0
Co771 Co 0.5693 0.44923 0.0092 0.0
Co772 Co 0.5705 0.49665 0.06715 0.0
Co773 Co 0.54701 0.51311 1.00377 0.0
O774 O 0.58026 0.49526 0.01225 0.0
H775 H 0.60356 0.50755 1.00374 0.0
O776 O 0.5127 0.5293 0.99589 0.0
Co777 Co 0.51509 0.5726 0.00722 0.0
Co778 Co 0.51995 0.53291 0.94286 0.0
H779 H 0.49003 0.5146 1.0024 0.0
O780 O 0.60048 0.49481 0.09498 0.0
O781 O 0.55782 0.45319 0.06846 0.0
O782 O 0.53296 0.50847 0.09685 0.0
O783 O 0.5101 0.48706 0.04278 0.0
O784 O 0.56284 0.54913 0.0457 0.0
O785 O 0.51161 0.61142 0.01683 0.0
O786 O 0.47166 0.56317 1.00274 0.0
O787 O 0.56222 0.58833 0.01653 0.0
O788 O 0.58391 0.54013 0.96514 0.0
O789 O 0.55923 0.52605 0.91152 0.0
O790 O 0.52732 0.57644 0.94968 0.0
O791 O 0.48812 0.53601 0.91728 0.0
C792 C 0.59424 0.42006 0.01455 0.0
C793 C 0.51688 0.44863 0.96859 0.0
C794 C 0.50719 0.49146 0.08027 0.0
C795 C 0.58153 0.46466 0.09172 0.0
C796 C 0.48065 0.59426 0.01029 0.0
C797 C 0.57355 0.57863 0.04122 0.0
C798 C 0.58558 0.5402 0.92818 0.0
C799 C 0.50421 0.56652 0.92606 0.0
O800 O 0.56293 0.40857 0.00785 0.0
O801 O 0.61114 0.45083 0.01553 0.0
O802 O 0.53156 0.47743 0.96156 0.0
O803 O 0.52327 0.43951 0.99782 0.0
Co804 Co 0.10511 0.48394 0.50481 0.0
Co805 Co 0.08588 0.47717 0.43899 0.0
Co806 Co 0.04483 0.51752 0.5044 0.0
O807 O 0.06262 0.4804 0.48918 0.0
H808 H 0.04497 0.46015 0.49365 0.0
O809 O 1.02754 0.55504 0.51986 0.0
Co810 Co 0.98686 0.554 0.5026 0.0
Co811 Co 1.00341 0.55848 0.5692 0.0
H812 H 0.04579 0.57515 0.51642 0.0
O813 O 0.08501 0.43745 0.41195 0.0
O814 O 0.12475 0.47162 0.44878 0.0
O815 O 0.09952 0.51474 0.41348 0.0
O816 O 0.07673 0.54405 0.46162 0.0
O817 O 1.00952 0.49455 0.46854 0.0
O818 O 0.95207 0.55576 0.48461 0.0
O819 O 1.00053 0.59629 0.49695 0.0
O820 O 0.96741 0.50899 0.5044 0.0
O821 O 1.01291 0.49117 0.54735 0.0
O822 O 0.9899 0.52111 0.59446 0.0
O823 O 0.96506 0.56438 0.55838 0.0
O824 O 1.00393 0.59813 0.59656 0.0
C825 C 0.12395 0.45454 0.52405 0.0
C826 C 0.11183 0.54697 0.5277 0.0
C827 C 0.09552 0.5412 0.42863 0.0
C828 C 0.1139 0.4449 0.42469 0.0
C829 C 0.97084 0.58579 0.48472 0.0
C830 C 0.97785 0.48954 0.47838 0.0
C831 C 0.99411 0.49459 0.58021 0.0
C832 C 0.97528 0.59074 0.58328 0.0
O833 O 0.142 0.48438 0.52088 0.0
O834 O 0.09329 0.44269 0.51421 0.0
O835 O 0.08021 0.54005 0.53992 0.0
O836 O 0.12257 0.5287 0.50005 0.0
Co837 Co 0.60142 0.98179 0.51021 0.0
Co838 Co 0.58823 0.97885 0.44224 0.0
Co839 Co 0.54656 0.02141 0.50499 0.0
O840 O 0.56295 0.98343 0.49052 0.0
H841 H 0.54395 0.96368 0.49306 0.0
O842 O 0.52992 0.05929 0.51989 0.0
Co843 Co 0.49002 0.06013 0.50257 0.0
Co844 Co 0.50617 0.06388 0.56975 0.0
H845 H 0.54865 0.07908 0.51639 0.0
O846 O 0.58724 0.93858 0.41559 0.0
O847 O 0.62504 0.97171 0.45538 0.0
O848 O 0.60286 1.01603 0.41608 0.0
O849 O 0.57758 0.04577 0.46077 0.0
O850 O 0.51031 0.99785 0.4703 0.0
O851 O 0.45611 0.06452 0.48489 0.0
O852 O 0.50562 0.10262 0.49874 0.0
O853 O 0.46861 1.01477 0.50279 0.0
O854 O 0.51572 0.99704 0.54894 0.0
O855 O 0.49242 0.0268 0.596 0.0
O856 O 0.46787 0.06948 0.55834 0.0
O857 O 0.50625 0.10407 0.59632 0.0
C858 C 0.61242 0.94724 0.52978 0.0
C859 C 0.61416 0.04854 0.53129 0.0
C860 C 0.59718 0.04212 0.42881 0.0
C861 C 0.61534 0.94567 0.42997 0.0
C862 C 0.47608 0.09436 0.48684 0.0
C863 C 0.47873 0.99363 0.47965 0.0
C864 C 0.49717 1.0005 0.58176 0.0
C865 C 0.47761 0.0961 0.58283 0.0
O866 O 0.63382 0.97651 0.53035 0.0
O867 O 0.58401 0.93957 0.51548 0.0
O868 O 0.58268 0.04493 0.53969 0.0
O869 O 0.6242 0.02685 0.50938 0.0
H870 H 0.1778 0.19832 0.29946 0.0
H871 H 0.08153 0.04667 0.34541 0.0
H872 H 0.26269 0.17796 0.32257 0.0
H873 H 0.14632 0.07133 0.43574 0.0
H874 H 0.12205 0.09117 0.31254 0.0
H875 H 0.13941 0.14962 0.32609 0.0
C876 C 0.18849 0.18334 0.30936 0.0
C877 C 0.22372 0.19179 0.3073 0.0
C878 C 0.12747 0.08672 0.33945 0.0
C879 C 0.17958 0.13629 0.33922 0.0
C880 C 0.10452 0.06104 0.35811 0.0
C881 C 0.11015 0.05527 0.39385 0.0
C882 C 0.15662 0.10684 0.35622 0.0
C883 C 0.14074 0.07485 0.40841 0.0
C884 C 0.16648 0.15556 0.32475 0.0
C885 C 0.23577 0.17217 0.32285 0.0
N886 N 0.16279 0.09986 0.38962 0.0
N887 N 0.21375 0.14544 0.33837 0.0
H888 H 0.85259 0.14061 0.40524 0.0
H889 H 1.03297 0.1208 0.39138 0.0
H890 H 0.93302 0.16964 0.31014 0.0
H891 H 0.94182 0.07123 0.46338 0.0
H892 H 1.00213 0.15085 0.37174 0.0
H893 H 0.8905 0.12704 0.437 0.0
C894 C 0.87828 0.1442 0.39105 0.0
C895 C 0.88939 0.15565 0.35455 0.0
C896 C 0.98918 0.13381 0.39242 0.0
C897 C 0.93316 0.14032 0.39099 0.0
C898 C 1.0068 0.11693 0.40379 0.0
C899 C 0.98968 0.09342 0.42864 0.0
C900 C 0.95454 0.12724 0.40658 0.0
C901 C 0.95575 0.08895 0.44376 0.0
C902 C 0.9 0.13662 0.40932 0.0
C903 C 0.92333 0.16073 0.33818 0.0
N904 N 0.93928 0.10553 0.43237 0.0
N905 N 0.94392 0.15264 0.35626 0.0
H906 H 0.87671 0.78954 0.32401 0.0
H907 H 0.97588 0.96632 0.42264 0.0
H908 H 0.85717 0.87349 0.30986 0.0
H909 H 0.97954 0.88113 0.4568 0.0
H910 H 0.93368 0.93274 0.37992 0.0
H911 H 0.91582 0.82253 0.37065 0.0
C912 C 0.88046 0.81488 0.33076 0.0
C913 C 0.86334 0.82865 0.31299 0.0
C914 C 0.94349 0.92132 0.3969 0.0
C915 C 0.90873 0.86678 0.36623 0.0
C916 C 0.96767 0.9405 0.42136 0.0
C917 C 0.98145 0.92656 0.44336 0.0
C918 C 0.93309 0.88778 0.39383 0.0
C919 C 0.96959 0.89294 0.44051 0.0
C920 C 0.90292 0.83373 0.35743 0.0
C921 C 0.8699 0.8618 0.32254 0.0
N922 N 0.94632 0.87469 0.41594 0.0
N923 N 0.89208 0.8797 0.34839 0.0
H924 H 0.07819 0.71959 0.42907 0.0
H925 H 0.04911 0.85206 0.52342 0.0
H926 H 0.18513 0.77143 0.42937 0.0
H927 H 0.14687 0.89805 0.45969 0.0
H928 H 0.06448 0.80514 0.52152 0.0
H929 H 0.06631 0.76361 0.47322 0.0
C930 C 0.0992 0.73963 0.44005 0.0
C931 C 0.13266 0.74256 0.42455 0.0
C932 C 0.08259 0.82539 0.50788 0.0
C933 C 0.1195 0.79356 0.47439 0.0
C934 C 0.0739 0.85221 0.50891 0.0
C935 C 0.09633 0.87839 0.49025 0.0
C936 C 0.11353 0.82429 0.48688 0.0
C937 C 0.12857 0.87796 0.47349 0.0
C938 C 0.09247 0.76506 0.46524 0.0
C939 C 0.15894 0.76904 0.43973 0.0
N940 N 0.13597 0.85087 0.47135 0.0
N941 N 0.15187 0.79423 0.46258 0.0
H942 H 0.18789 0.87649 0.69498 0.0
H943 H 0.04388 0.89303 0.59614 0.0
H944 H 0.09092 0.80012 0.6893 0.0
H945 H 0.15007 0.9499 0.5766 0.0
H946 H 0.05854 0.85767 0.62978 0.0
H947 H 0.17275 0.90336 0.65184 0.0
C948 C 0.16356 0.865 0.68427 0.0
C949 C 0.14084 0.83572 0.69584 0.0
C950 C 0.07854 0.87776 0.61772 0.0
C951 C 0.12273 0.86729 0.64681 0.0
C952 C 0.0702 0.89784 0.59855 0.0
C953 C 0.09574 0.92476 0.5843 0.0
C954 C 0.11255 0.88497 0.62268 0.0
C955 C 0.12945 0.92987 0.58792 0.0
C956 C 0.15478 0.88058 0.65969 0.0
C957 C 0.10916 0.82284 0.6817 0.0
N958 N 0.13677 0.91042 0.60699 0.0
N959 N 0.10092 0.83882 0.65814 0.0
H960 H 0.24165 0.16404 0.68836 0.0
H961 H 0.112 0.14019 0.53856 0.0
H962 H 0.20153 0.23697 0.68114 0.0
H963 H 0.1249 0.06083 0.57688 0.0
H964 H 0.15034 0.17732 0.58442 0.0
H965 H 0.20344 0.12674 0.64262 0.0
C966 C 0.22468 0.17217 0.67734 0.0
C967 C 0.22514 0.20384 0.68822 0.0
C968 C 0.1448 0.15176 0.58268 0.0
C969 C 0.18171 0.1614 0.6353 0.0
C970 C 0.12311 0.13057 0.55629 0.0
C971 C 0.11511 0.0973 0.55386 0.0
C972 C 0.159 0.13967 0.60643 0.0
C973 C 0.13019 0.08626 0.57782 0.0
C974 C 0.20298 0.15091 0.65108 0.0
C975 C 0.20251 0.21298 0.67299 0.0
N976 N 0.15141 0.10735 0.60296 0.0
N977 N 0.182 0.19201 0.64703 0.0
H978 H 0.92205 0.2285 0.66824 0.0
H979 H 0.04176 0.17418 0.50333 0.0
H980 H 0.99102 0.29561 0.59125 0.0
H981 H 0.94575 0.10859 0.54957 0.0
H982 H 1.02077 0.21855 0.52705 0.0
H983 H 0.92722 0.18471 0.61966 0.0
C984 C 0.93751 0.23421 0.64048 0.0
C985 C 0.95562 0.26609 0.63365 0.0
C986 C 1.00399 0.19439 0.53117 0.0
C987 C 0.96281 0.2151 0.57799 0.0
C988 C 1.01603 0.16908 0.51805 0.0
C989 C 0.99584 0.13797 0.52616 0.0
C990 C 0.97184 0.18848 0.5531 0.0
C991 C 0.96241 0.13241 0.54385 0.0
C992 C 0.94049 0.2089 0.61263 0.0
C993 C 0.97666 0.27146 0.5978 0.0
N994 N 0.95166 0.15765 0.55765 0.0
N995 N 0.98015 0.24611 0.57141 0.0
H996 H 0.83156 0.85889 0.68993 0.0
H997 H 1.02401 0.97102 0.64558 0.0
H998 H 0.91533 0.83606 0.71174 0.0
H999 H 0.95119 0.96025 0.56939 0.0
H1000 H 0.98109 0.93019 0.68225 0.0
H1001 H 0.87213 0.90371 0.65653 0.0
C1002 C 0.85842 0.8634 0.68809 0.0
C1003 C 0.86994 0.84368 0.70416 0.0
C1004 C 0.9744 0.93703 0.65778 0.0
C1005 C 0.9164 0.89541 0.66662 0.0
C1006 C 0.9988 0.96061 0.63694 0.0
C1007 C 0.99133 0.96927 0.60415 0.0
C1008 C 0.94189 0.9222 0.64647 0.0
C1009 C 0.95814 0.95443 0.59441 0.0
C1010 C 0.88149 0.88896 0.66895 0.0
C1011 C 0.90512 0.85083 0.70068 0.0
N1012 N 0.93461 0.93164 0.6155 0.0
N1013 N 0.92702 0.87617 0.68259 0.0
H1014 H 0.30742 0.17436 0.17715 0.0
H1015 H 0.49624 0.16701 0.11934 0.0
H1016 H 0.39705 0.24975 0.2143 0.0
H1017 H 0.40779 0.08719 0.08757 0.0
H1018 H 0.45985 0.19752 0.15247 0.0
H1019 H 0.34275 0.14265 0.14266 0.0
C1020 C 0.33449 0.18445 0.17796 0.0
C1021 C 0.34903 0.21515 0.19874 0.0
C1022 C 0.44822 0.17333 0.13838 0.0
C1023 C 0.38999 0.17836 0.15929 0.0
C1024 C 0.46911 0.15573 0.11931 0.0
C1025 C 0.45533 0.12416 0.10053 0.0
C1026 C 0.41285 0.15966 0.13888 0.0
C1027 C 0.41977 0.11126 0.10174 0.0
C1028 C 0.35471 0.16613 0.15833 0.0
C1029 C 0.38439 0.22637 0.1989 0.0
N1030 N 0.39989 0.12898 0.12043 0.0
N1031 N 0.40342 0.20815 0.17963 0.0
H1032 H 0.88585 0.36196 0.24251 0.0
H1033 H 0.95111 0.45186 0.05104 0.0
H1034 H 0.83028 0.33266 0.14314 0.0
H1035 H 1.01137 0.46422 0.14239 0.0
H1036 H 0.90241 0.41506 0.08832 0.0
H1037 H 0.92754 0.40603 0.21019 0.0
C1038 C 0.88241 0.36487 0.21377 0.0
C1039 C 0.85494 0.34321 0.19511 0.0
C1040 C 0.92618 0.42622 0.10038 0.0
C1041 C 0.90267 0.39417 0.15782 0.0
C1042 C 0.95389 0.44746 0.07933 0.0
C1043 C 0.98541 0.4611 0.0936 0.0
C1044 C 0.93001 0.41891 0.13609 0.0
C1045 C 0.98766 0.45416 0.13014 0.0
C1046 C 0.9062 0.39018 0.19536 0.0
C1047 C 0.85122 0.34877 0.15842 0.0
N1048 N 0.96048 0.43353 0.14992 0.0
N1049 N 0.87507 0.37357 0.1407 0.0
H1050 H 0.72801 0.88505 0.12638 0.0
H1051 H 0.6083 0.88861 0.979 0.0
H1052 H 0.71382 0.8201 0.01801 0.0
H1053 H 0.6122 0.93769 0.09778 0.0
H1054 H 0.64761 0.86379 0.99005 0.0
H1055 H 0.68631 0.90526 0.11395 0.0
C1056 C 0.71585 0.87472 0.1001 0.0
C1057 C 0.72439 0.85061 0.07338 0.0
C1058 C 0.63958 0.87987 0.01364 0.0
C1059 C 0.67672 0.87437 0.05834 0.0
C1060 C 0.61723 0.89409 0.00733 0.0
C1061 C 0.60716 0.9156 0.03731 0.0
C1062 C 0.65178 0.88727 0.05017 0.0
C1063 C 0.6193 0.92151 0.07358 0.0
C1064 C 0.69211 0.88648 0.09283 0.0
C1065 C 0.70833 0.83895 0.03923 0.0
N1066 N 0.64095 0.9076 0.07883 0.0
N1067 N 0.68529 0.85098 0.03261 0.0
H1068 H 0.20301 0.75158 0.17977 0.0
H1069 H 0.12969 0.5719 0.06945 0.0
H1070 H 0.24904 0.68046 0.17464 0.0
H1071 H 0.07595 0.63903 0.0959 0.0
H1072 H 0.17647 0.61238 0.10219 0.0
H1073 H 0.15932 0.71182 0.14258 0.0
C1074 C 0.20405 0.72766 0.17065 0.0
C1075 C 0.22955 0.71928 0.18069 0.0
C1076 C 0.15437 0.61813 0.10079 0.0
C1077 C 0.17951 0.67349 0.13802 0.0
C1078 C 0.12765 0.59503 0.08211 0.0
C1079 C 0.09859 0.60184 0.08012 0.0
C1080 C 0.15217 0.64835 0.11722 0.0
C1081 C 0.09757 0.6324 0.09692 0.0
C1082 C 0.17901 0.70489 0.14951 0.0
C1083 C 0.22962 0.68787 0.16793 0.0
N1084 N 0.12386 0.65439 0.11463 0.0
N1085 N 0.20496 0.6661 0.14735 0.0
H1086 H 0.36705 0.79067 0.84768 0.0
H1087 H 0.46301 0.97252 0.93544 0.0
H1088 H 0.34679 0.86987 0.81909 0.0
H1089 H 0.49464 0.8924 0.9357 0.0
H1090 H 0.41477 0.93577 0.90174 0.0
H1091 H 0.40738 0.82805 0.88991 0.0
C1092 C 0.37089 0.81599 0.85049 0.0
C1093 C 0.35375 0.82715 0.82934 0.0
C1094 C 0.43226 0.92635 0.9094 0.0
C1095 C 0.40049 0.87044 0.87786 0.0
C1096 C 0.45972 0.94724 0.9287 0.0
C1097 C 0.48314 0.93559 0.9381 0.0
C1098 C 0.42802 0.89359 0.90002 0.0
C1099 C 0.47757 0.90262 0.92867 0.0
C1100 C 0.39407 0.83739 0.87464 0.0
C1101 C 0.3595 0.86025 0.83479 0.0
N1102 N 0.45071 0.88291 0.91023 0.0
N1103 N 0.3827 0.88085 0.85828 0.0
H1104 H 0.20363 0.3051 0.76233 0.0
H1105 H 0.18182 0.44411 0.93711 0.0
H1106 H 0.2674 0.3414 0.85434 0.0
H1107 H 0.10202 0.38367 0.86888 0.0
H1108 H 0.21707 0.41187 0.90291 0.0
H1109 H 0.16986 0.33844 0.79629 0.0
C1110 C 0.21058 0.32004 0.7897 0.0
C1111 C 0.23838 0.32001 0.80552 0.0
C1112 C 0.19189 0.40578 0.89531 0.0
C1113 C 0.19976 0.35902 0.84469 0.0
C1114 C 0.1718 0.42437 0.91469 0.0
C1115 C 0.13875 0.41689 0.90593 0.0
C1116 C 0.17928 0.37971 0.86627 0.0
C1117 C 0.1272 0.39055 0.87682 0.0
C1118 C 0.19116 0.33908 0.80921 0.0
C1119 C 0.24601 0.34016 0.84116 0.0
N1120 N 0.14733 0.37324 0.85807 0.0
N1121 N 0.22707 0.35886 0.8593 0.0
H1122 H 0.69837 0.17468 0.76481 0.0
H1123 H 0.63861 0.08118 0.9535 0.0
H1124 H 0.76026 0.19676 0.8573 0.0
H1125 H 0.57559 0.06993 0.86549 0.0
H1126 H 0.68667 0.11735 0.91475 0.0
H1127 H 0.65682 0.13036 0.79712 0.0
C1128 C 0.70337 0.17001 0.79183 0.0
C1129 C 0.73266 0.18977 0.80862 0.0
C1130 C 0.66244 0.10656 0.90369 0.0
C1131 C 0.68481 0.13877 0.84617 0.0
C1132 C 0.63505 0.08565 0.92561 0.0
C1133 C 0.60292 0.07245 0.91278 0.0
C1134 C 0.65771 0.11413 0.86856 0.0
C1135 C 0.59977 0.07958 0.87669 0.0
C1136 C 0.67956 0.14464 0.81035 0.0
C1137 C 0.73796 0.18222 0.84341 0.0
N1138 N 0.62663 0.09996 0.8561 0.0
N1139 N 0.71407 0.15754 0.86131 0.0
H1140 H 0.87118 0.68391 0.90811 0.0
H1141 H 0.99694 0.66021 0.03278 0.0
H1142 H 0.9337 0.76176 0.98321 0.0
H1143 H 0.9549 0.59378 0.93386 0.0
H1144 H 0.96719 0.69501 0.02336 0.0
H1145 H 0.89525 0.64786 0.92532 0.0
C1146 C 0.89 0.69348 0.92818 0.0
C1147 C 0.90057 0.72604 0.94396 0.0
C1148 C 0.9645 0.67275 1.00385 0.0
C1149 C 0.92795 0.68464 0.96433 0.0
C1150 C 0.98138 0.6529 0.00927 0.0
C1151 C 0.97874 0.62427 0.98376 0.0
C1152 C 0.94465 0.66365 0.973 0.0
C1153 C 0.95808 0.61583 0.95391 0.0
C1154 C 0.90361 0.67281 0.9382 0.0
C1155 C 0.92448 0.73679 0.97065 0.0
N1156 N 0.94193 0.6354 0.94936 0.0
N1157 N 0.93746 0.71619 0.97988 0.0
H1158 H 0.16338 0.32562 0.13917 0.0
H1159 H 0.1025 0.38876 0.98256 0.0
H1160 H 0.19306 0.30013 0.01549 0.0
H1161 H 0.14038 0.44983 0.08681 0.0
H1162 H 0.12438 0.34891 0.99566 0.0
H1163 H 0.14319 0.36447 0.12233 0.0
C1164 C 0.16611 0.32822 0.1085 0.0
C1165 C 0.18068 0.30954 0.07888 0.0
C1166 C 0.1279 0.37116 0.01542 0.0
C1167 C 0.15581 0.35335 0.0595 0.0
C1168 C 0.11544 0.39385 0.00803 0.0
C1169 C 0.11989 0.42283 0.03341 0.0
C1170 C 0.14374 0.37712 0.04913 0.0
C1171 C 0.13661 0.428 0.06622 0.0
C1172 C 0.15416 0.35029 0.09897 0.0
C1173 C 0.18184 0.31351 0.03953 0.0
N1174 N 0.14754 0.40527 0.07336 0.0
N1175 N 0.16942 0.33483 0.03098 0.0
H1176 H 0.23992 0.65497 0.76679 0.0
H1177 H 0.14012 0.63141 0.98262 0.0
H1178 H 0.25658 0.72787 0.86767 0.0
H1179 H 0.11705 0.55751 0.88347 0.0
H1180 H 0.18889 0.66362 0.94201 0.0
H1181 H 0.20038 0.61615 0.80946 0.0
C1182 C 0.23555 0.66267 0.79799 0.0
C1183 C 0.2511 0.69473 0.81373 0.0
C1184 C 0.17357 0.64021 0.92905 0.0
C1185 C 0.20624 0.6506 0.86263 0.0
C1186 C 0.14579 0.62175 0.95231 0.0
C1187 C 0.12447 0.59191 0.93623 0.0
C1188 C 0.17999 0.62904 0.88907 0.0
C1189 C 0.13299 0.58039 0.89694 0.0
C1190 C 0.21296 0.64055 0.82229 0.0
C1191 C 0.24469 0.70348 0.85428 0.0
N1192 N 0.15989 0.59924 0.87441 0.0
N1193 N 0.22263 0.68163 0.87724 0.0
H1194 H 0.32489 0.10676 0.88986 0.0
H1195 H 0.50288 0.14327 0.95869 0.0
H1196 H 0.40925 0.19328 0.86939 0.0
H1197 H 0.41125 0.06748 0.99449 0.0
H1198 H 0.46874 0.16698 0.93377 0.0
H1199 H 0.35525 0.09586 0.9348 0.0
C1200 C 0.34977 0.1236 0.8953 0.0
C1201 C 0.36479 0.15078 0.87602 0.0
C1202 C 0.45606 0.14561 0.94798 0.0
C1203 C 0.40012 0.13841 0.92679 0.0
C1204 C 0.47552 0.1323 0.96251 0.0
C1205 C 0.45976 0.10322 0.97809 0.0
C1206 C 0.42084 0.12952 0.94911 0.0
C1207 C 0.42433 0.08971 0.98209 0.0
C1208 C 0.36713 0.1175 0.92098 0.0
C1209 C 0.39701 0.17201 0.88387 0.0
N1210 N 0.40615 0.10267 0.96716 0.0
N1211 N 0.41391 0.16515 0.90828 0.0
H1212 H 0.85721 0.2902 0.85538 0.0
H1213 H 0.96885 0.47236 0.9246 0.0
H1214 H 0.84146 0.37186 0.82707 0.0
H1215 H 0.98836 0.39002 0.94492 0.0
H1216 H 0.92038 0.4362 0.89184 0.0
H1217 H 0.90362 0.3266 0.89096 0.0
C1218 C 0.86341 0.31581 0.85676 0.0
C1219 C 0.84537 0.32796 0.83817 0.0
C1220 C 0.93524 0.42606 0.90354 0.0
C1221 C 0.89866 0.36995 0.87906 0.0
C1222 C 0.96293 0.44671 0.92235 0.0
C1223 C 0.98294 0.4343 0.93749 0.0
C1224 C 0.92733 0.39271 0.89986 0.0
C1225 C 0.97385 0.40079 0.93366 0.0
C1226 C 0.88999 0.33662 0.87709 0.0
C1227 C 0.85464 0.36141 0.84098 0.0
N1228 N 0.94682 0.38123 0.9152 0.0
N1229 N 0.88065 0.38123 0.861 0.0
H1230 H 0.7898 0.86561 0.83381 0.0
H1231 H 0.60836 0.8875 0.87656 0.0
H1232 H 0.69705 0.79186 0.80272 0.0
H1233 H 0.69091 0.95245 0.93837 0.0
H1234 H 0.64309 0.8555 0.84541 0.0
H1235 H 0.75705 0.89968 0.86868 0.0
C1236 C 0.76257 0.85636 0.83434 0.0
C1237 C 0.74639 0.82544 0.81495 0.0
C1238 C 0.65388 0.87671 0.86568 0.0
C1239 C 0.70855 0.86517 0.85438 0.0
C1240 C 0.63396 0.89537 0.88362 0.0
C1241 C 0.64641 0.92323 0.91043 0.0
C1242 C 0.68719 0.88558 0.87381 0.0
C1243 C 0.68003 0.93145 0.91789 0.0
C1244 C 0.74387 0.87604 0.85424 0.0
C1245 C 0.71099 0.81544 0.81645 0.0
N1246 N 0.69923 0.91284 0.89964 0.0
N1247 N 0.69351 0.83514 0.83544 0.0
H1248 H 0.862 0.7303 0.14132 0.0
H1249 H 0.93585 0.59885 0.15792 0.0
H1250 H 0.81928 0.67211 0.23491 0.0
H1251 H 0.91763 0.60699 0.04429 0.0
H1252 H 0.90045 0.63132 0.18896 0.0
H1253 H 0.89017 0.69235 0.10717 0.0
C1254 C 0.85807 0.70952 0.15457 0.0
C1255 C 0.83726 0.70449 0.1908 0.0
C1256 C 0.90385 0.62573 0.15725 0.0
C1257 C 0.87115 0.66113 0.15247 0.0
C1258 C 0.92392 0.607 0.13945 0.0
C1259 C 0.92947 0.59964 0.09832 0.0
C1260 C 0.89011 0.63858 0.13392 0.0
C1261 C 0.9138 0.6116 0.07603 0.0
C1262 C 0.87435 0.68777 0.13503 0.0
C1263 C 0.83451 0.67717 0.20688 0.0
N1264 N 0.89545 0.63092 0.094 0.0
N1265 N 0.85147 0.65695 0.18801 0.0
H1266 H 0.37288 0.87946 0.25473 0.0
H1267 H 0.43773 0.91741 0.03886 0.0
H1268 H 0.30555 0.84441 0.16623 0.0
H1269 H 0.48243 0.9838 0.13606 0.0
H1270 H 0.38883 0.89069 0.08461 0.0
H1271 H 0.41308 0.91824 0.21266 0.0
C1272 C 0.36628 0.88042 0.22673 0.0
C1273 C 0.33582 0.85874 0.21397 0.0
C1274 C 0.40894 0.91149 0.09594 0.0
C1275 C 0.38217 0.90248 0.16516 0.0
C1276 C 0.43684 0.92676 0.06985 0.0
C1277 C 0.46404 0.95292 0.08373 0.0
C1278 C 0.40865 0.92178 0.13647 0.0
C1279 C 0.46181 0.96391 0.12416 0.0
C1280 C 0.38923 0.90256 0.20274 0.0
C1281 C 0.32861 0.86086 0.17734 0.0
N1282 N 0.43492 0.94788 0.14924 0.0
N1283 N 0.35192 0.88187 0.15387 0.0
H1284 H 0.74332 0.16756 0.19117 0.0
H1285 H 0.61176 0.14808 0.04698 0.0
H1286 H 0.75004 0.24386 0.12955 0.0
H1287 H 0.62169 0.06762 0.08621 0.0
H1288 H 0.66266 0.18347 0.07614 0.0
H1289 H 0.70015 0.13026 0.15141 0.0
C1290 C 0.73607 0.17641 0.16891 0.0
C1291 C 0.74966 0.2091 0.16449 0.0
C1292 C 0.65385 0.15802 0.07807 0.0
C1293 C 0.69991 0.16648 0.11886 0.0
C1294 C 0.62466 0.13777 0.06153 0.0
C1295 C 0.6121 0.10473 0.06428 0.0
C1296 C 0.67054 0.1453 0.09794 0.0
C1297 C 0.6302 0.09287 0.08337 0.0
C1298 C 0.71128 0.15509 0.14624 0.0
C1299 C 0.7397 0.21898 0.13452 0.0
N1300 N 0.65819 0.11312 0.09972 0.0
N1301 N 0.71499 0.19794 0.1134 0.0
H1302 H 0.68766 0.69319 0.78887 0.0
H1303 H 0.64718 0.58025 0.9527 0.0
H1304 H 0.76898 0.68898 0.84143 0.0
H1305 H 0.5901 0.55516 0.85485 0.0
H1306 H 0.69024 0.62427 0.91945 0.0
H1307 H 0.64864 0.6474 0.82099 0.0
C1308 C 0.69747 0.68261 0.8069 0.0
C1309 C 0.73199 0.69472 0.81157 0.0
C1310 C 0.66838 0.60879 0.90526 0.0
C1311 C 0.68692 0.64264 0.84961 0.0
C1312 C 0.64389 0.58358 0.9241 0.0
C1313 C 0.61483 0.56375 0.90669 0.0
C1314 C 0.66336 0.61466 0.86927 0.0
C1315 C 0.61192 0.56959 0.86964 0.0
C1316 C 0.67509 0.65645 0.82532 0.0
C1317 C 0.74274 0.68032 0.83643 0.0
N1318 N 0.63549 0.59464 0.85258 0.0
N1319 N 0.7203 0.65518 0.85465 0.0
H1320 H 0.50173 0.7297 0.83346 0.0
H1321 H 0.44649 0.55472 0.89533 0.0
H1322 H 0.41472 0.64882 0.79926 0.0
H1323 H 0.53853 0.63106 0.92452 0.0
H1324 H 0.43122 0.59184 0.86752 0.0
H1325 H 0.51304 0.69657 0.87315 0.0
C1326 C 0.48498 0.70506 0.83436 0.0
C1327 C 0.45726 0.69202 0.81292 0.0
C1328 C 0.45478 0.60061 0.87998 0.0
C1329 C 0.46983 0.65425 0.85844 0.0
C1330 C 0.46359 0.57935 0.89577 0.0
C1331 C 0.49419 0.58968 0.91145 0.0
C1332 C 0.47691 0.63245 0.87936 0.0
C1333 C 0.5149 0.62207 0.91218 0.0
C1334 C 0.49133 0.68627 0.85719 0.0
C1335 C 0.4361 0.66011 0.81566 0.0
N1336 N 0.50607 0.64232 0.89587 0.0
N1337 N 0.44292 0.64237 0.8378 0.0
H1338 H 0.37374 0.37282 0.79811 0.0
H1339 H 0.4837 0.38306 0.96571 0.0
H1340 H 0.37782 0.2895 0.83673 0.0
H1341 H 0.48965 0.46483 0.9147 0.0
H1342 H 0.44209 0.34842 0.92185 0.0
H1343 H 0.414 0.40707 0.84331 0.0
C1344 C 0.38312 0.36168 0.81593 0.0
C1345 C 0.37226 0.32814 0.81344 0.0
C1346 C 0.45252 0.37398 0.92036 0.0
C1347 C 0.41829 0.36731 0.86567 0.0
C1348 C 0.47618 0.39376 0.94552 0.0
C1349 C 0.4904 0.42693 0.94391 0.0
C1350 C 0.44281 0.38747 0.89356 0.0
C1351 C 0.47965 0.4394 0.91698 0.0
C1352 C 0.4061 0.38127 0.84184 0.0
C1353 C 0.38535 0.31518 0.8375 0.0
N1354 N 0.45663 0.41974 0.89302 0.0
N1355 N 0.40751 0.33473 0.86258 0.0
H1356 H 0.60443 0.24601 0.97657 0.0
H1357 H 0.56005 0.37053 0.05577 0.0
H1358 H 0.709 0.30386 0.98615 0.0
H1359 H 0.65999 0.42054 1.00013 0.0
H1360 H 0.5795 0.32855 0.06507 0.0
H1361 H 0.58719 0.28697 0.02044 0.0
C1362 C 0.62382 0.26667 0.98943 0.0
C1363 C 0.65824 0.27232 0.97603 0.0
C1364 C 0.59726 0.34867 0.0509 0.0
C1365 C 0.63876 0.32011 0.02563 0.0
C1366 C 0.58622 0.37262 0.04551 0.0
C1367 C 0.60817 0.39817 0.0255 0.0
C1368 C 0.63007 0.34959 0.03459 0.0
C1369 C 0.64208 0.40063 0.01455 0.0
C1370 C 0.61395 0.29043 0.0146 0.0
C1371 C 0.68212 0.29942 0.99427 0.0
N1372 N 0.65184 0.37603 0.01823 0.0
N1373 N 0.67202 0.32313 0.01669 0.0
H1374 H 0.69756 0.4038 0.21119 0.0
H1375 H 0.53958 0.41277 0.12931 0.0
H1376 H 0.59448 0.34673 0.25003 0.0
H1377 H 0.6445 0.46894 0.09826 0.0
H1378 H 0.55764 0.38362 0.16871 0.0
H1379 H 0.6772 0.42371 0.16518 0.0
C1380 C 0.67055 0.39522 0.20984 0.0
C1381 C 0.64775 0.37336 0.23441 0.0
C1382 C 0.5766 0.40215 0.15293 0.0
C1383 C 0.6239 0.39682 0.1819 0.0
C1384 C 0.56632 0.41859 0.1304 0.0
C1385 C 0.59063 0.44348 0.11113 0.0
C1386 C 0.6113 0.41079 0.15569 0.0
C1387 C 0.62493 0.45027 0.1133 0.0
C1388 C 0.65885 0.40676 0.18358 0.0
C1389 C 0.61293 0.36379 0.23187 0.0
N1390 N 0.63417 0.43416 0.13525 0.0
N1391 N 0.602 0.37566 0.20608 0.0
H1392 H 0.70603 0.74542 0.17468 0.0
H1393 H 0.60924 0.56391 0.08687 0.0
H1394 H 0.72093 0.66312 0.20246 0.0
H1395 H 0.59788 0.64508 0.05108 0.0
H1396 H 0.65003 0.60039 0.12928 0.0
H1397 H 0.66624 0.70974 0.12993 0.0
C1398 C 0.70093 0.71986 0.17151 0.0
C1399 C 0.71689 0.70731 0.1926 0.0
C1400 C 0.63877 0.61036 0.11215 0.0
C1401 C 0.67116 0.66625 0.14124 0.0
C1402 C 0.61535 0.58947 0.0878 0.0
C1403 C 0.59986 0.60136 0.06533 0.0
C1404 C 0.64692 0.6436 0.11446 0.0
C1405 C 0.60915 0.63481 0.0678 0.0
C1406 C 0.67818 0.69949 0.14586 0.0
C1407 C 0.70911 0.67394 0.18719 0.0
N1408 N 0.63196 0.65476 0.09209 0.0
N1409 N 0.68685 0.65464 0.16212 0.0
H1410 H 0.30627 0.65101 0.04258 0.0
H1411 H 0.41629 0.56588 0.99088 0.0
H1412 H 0.39478 0.73526 0.02663 0.0
H1413 H 0.49124 0.65842 0.02163 0.0
H1414 H 0.37702 0.5924 0.98701 0.0
H1415 H 0.34107 0.61753 0.01742 0.0
C1416 C 0.33285 0.66226 0.03205 0.0
C1417 C 0.34798 0.69569 0.03685 0.0
C1418 C 0.40184 0.60693 0.99508 0.0
C1419 C 0.3881 0.65799 0.00836 0.0
C1420 C 0.42433 0.59179 0.99729 0.0
C1421 C 0.4567 0.60996 0.00784 0.0
C1422 C 0.41179 0.64045 1.0039 0.0
C1423 C 0.46624 0.64343 0.0144 0.0
C1424 C 0.35286 0.6432 0.0177 0.0
C1425 C 0.38247 0.70944 0.02352 0.0
N1426 N 0.44375 0.65756 0.01264 0.0
N1427 N 0.40155 0.69051 0.01057 0.0
H1428 H 0.40467 0.34036 0.2212 0.0
H1429 H 0.44411 0.45357 0.05938 0.0
H1430 H 0.32231 0.35146 0.17796 0.0
H1431 H 0.50535 0.47689 0.153 0.0
H1432 H 0.4006 0.41138 0.095 0.0
H1433 H 0.44428 0.38525 0.18811 0.0
C1434 C 0.39475 0.35241 0.20524 0.0
C1435 C 0.35984 0.34253 0.20342 0.0
C1436 C 0.42345 0.4261 0.10777 0.0
C1437 C 0.40549 0.39327 0.16399 0.0
C1438 C 0.44821 0.45019 0.08758 0.0
C1439 C 0.47839 0.469 0.10325 0.0
C1440 C 0.42942 0.42028 0.14326 0.0
C1441 C 0.48246 0.46328 0.13979 0.0
C1442 C 0.41748 0.37797 0.18615 0.0
C1443 C 0.3489 0.35845 0.18073 0.0
N1444 N 0.45855 0.43921 0.15818 0.0
N1445 N 0.37165 0.38291 0.1617 0.0
H1446 H 0.90659 0.74778 0.70711 0.0
H1447 H 0.90753 0.5796 0.57688 0.0
H1448 H 0.81444 0.67045 0.68159 0.0
H1449 H 0.99386 0.65013 0.62738 0.0
H1450 H 0.87358 0.61383 0.60814 0.0
H1451 H 0.93912 0.71383 0.67226 0.0
C1452 C 0.89304 0.72373 0.69405 0.0
C1453 C 0.85742 0.71241 0.69716 0.0
C1454 C 0.89998 0.62178 0.6123 0.0
C1455 C 0.89512 0.67286 0.65637 0.0
C1456 C 0.91948 0.60224 0.59428 0.0
C1457 C 0.95379 0.61159 0.59954 0.0
C1458 C 0.91485 0.65125 0.6355 0.0
C1459 C 0.96759 0.64146 0.62249 0.0
C1460 C 0.91177 0.70424 0.67397 0.0
C1461 C 0.84173 0.68076 0.67932 0.0
N1462 N 0.94828 0.65995 0.63937 0.0
N1463 N 0.86053 0.66227 0.65976 0.0
H1464 H 0.35402 0.87182 0.73845 0.0
H1465 H 0.48924 0.93725 0.55451 0.0
H1466 H 0.37208 0.81056 0.63212 0.0
H1467 H 0.45954 0.99826 0.65464 0.0
H1468 H 0.45102 0.8902 0.58502 0.0
H1469 H 0.39605 0.91802 0.70998 0.0
C1470 C 0.36665 0.86811 0.70893 0.0
C1471 C 0.35953 0.83726 0.68761 0.0
C1472 C 0.45306 0.91391 0.60036 0.0
C1473 C 0.40812 0.89016 0.65492 0.0
C1474 C 0.47506 0.94083 0.58311 0.0
C1475 C 0.47754 0.97188 0.60191 0.0
C1476 C 0.43346 0.91802 0.63673 0.0
C1477 C 0.45838 0.97488 0.63888 0.0
C1478 C 0.39086 0.8945 0.69279 0.0
C1479 C 0.37702 0.83389 0.64969 0.0
N1480 N 0.43709 0.94834 0.65493 0.0
N1481 N 0.40056 0.86002 0.63454 0.0
H1482 H 0.26856 0.40034 0.60855 0.0
H1483 H 0.09208 0.40443 0.56773 0.0
H1484 H 0.17464 0.36686 0.68519 0.0
H1485 H 0.19039 0.46099 0.51481 0.0
H1486 H 0.1199 0.37941 0.60071 0.0
H1487 H 0.23799 0.4113 0.56362 0.0
C1488 C 0.24142 0.39476 0.61559 0.0
C1489 C 0.22423 0.38308 0.65094 0.0
C1490 C 0.13528 0.39698 0.58142 0.0
C1491 C 0.18908 0.39575 0.5998 0.0
C1492 C 0.11941 0.41107 0.56244 0.0
C1493 C 0.13901 0.43507 0.53895 0.0
C1494 C 0.1709 0.40669 0.57631 0.0
C1495 C 0.17436 0.44292 0.53317 0.0
C1496 C 0.224 0.40122 0.59007 0.0
C1497 C 0.18901 0.37644 0.6586 0.0
N1498 N 0.18914 0.42893 0.55184 0.0
N1499 N 0.17265 0.38308 0.63344 0.0
H1500 H 0.77656 0.17383 0.66269 0.0
H1501 H 0.60583 0.10535 0.56557 0.0
H1502 H 0.716 0.23107 0.65972 0.0
H1503 H 0.67976 0.05795 0.54009 0.0
H1504 H 0.64594 0.15148 0.60048 0.0
H1505 H 0.7424 0.13141 0.61731 0.0
C1506 C 0.75648 0.17778 0.65209 0.0
C1507 C 0.74898 0.20606 0.66555 0.0
C1508 C 0.65354 0.13112 0.58699 0.0
C1509 C 0.7092 0.15712 0.61417 0.0
C1510 C 0.63057 0.10468 0.56714 0.0
C1511 C 0.63931 0.07759 0.55002 0.0
C1512 C 0.68542 0.13042 0.59033 0.0
C1513 C 0.67189 0.07828 0.55281 0.0
C1514 C 0.73682 0.1534 0.62631 0.0
C1515 C 0.72232 0.20949 0.65093 0.0
N1516 N 0.6936 0.10409 0.57296 0.0
N1517 N 0.70321 0.18522 0.62649 0.0
H1518 H 0.87222 0.30688 0.34734 0.0
H1519 H 0.91223 0.48128 0.47223 0.0
H1520 H 0.81933 0.37042 0.34179 0.0
H1521 H 0.98665 0.43455 0.43693 0.0
H1522 H 0.87251 0.43653 0.43466 0.0
H1523 H 0.90888 0.34927 0.39043 0.0
C1524 C 0.8681 0.32962 0.35529 0.0
C1525 C 0.84282 0.33512 0.34036 0.0
C1526 C 0.8975 0.43606 0.4353 0.0
C1527 C 0.8845 0.38361 0.39032 0.0
C1528 C 0.92014 0.46149 0.45688 0.0
C1529 C 0.95291 0.46175 0.45759 0.0
C1530 C 0.90743 0.41038 0.41482 0.0
C1531 C 0.96175 0.43548 0.43697 0.0
C1532 C 0.88914 0.35383 0.37985 0.0
C1533 C 0.83861 0.36508 0.35221 0.0
N1534 N 0.93913 0.41083 0.41652 0.0
N1535 N 0.8592 0.38815 0.37647 0.0
H1536 H 0.77878 0.87546 0.30728 0.0
H1537 H 0.59505 0.88196 0.39971 0.0
H1538 H 0.69274 0.79051 0.32982 0.0
H1539 H 0.68555 0.96234 0.42286 0.0
H1540 H 0.63004 0.84924 0.36896 0.0
H1541 H 0.74533 0.90859 0.34366 0.0
C1542 C 0.75288 0.86368 0.31974 0.0
C1543 C 0.73874 0.82991 0.31513 0.0
C1544 C 0.64236 0.87397 0.38091 0.0
C1545 C 0.6999 0.86807 0.3568 0.0
C1546 C 0.62232 0.89279 0.39855 0.0
C1547 C 0.63714 0.92517 0.41417 0.0
C1548 C 0.67791 0.88751 0.37769 0.0
C1549 C 0.6728 0.93755 0.41157 0.0
C1550 C 0.73381 0.8827 0.34076 0.0
C1551 C 0.70497 0.81631 0.33244 0.0
N1552 N 0.69188 0.91893 0.39331 0.0
N1553 N 0.68678 0.83529 0.35197 0.0
H1554 H 0.22648 0.73428 0.37914 0.0
H1555 H 0.12966 0.54334 0.35394 0.0
H1556 H 0.24285 0.66953 0.27576 0.0
H1557 H 0.11131 0.60554 0.45919 0.0
H1558 H 0.17013 0.58996 0.32501 0.0
H1559 H 0.18498 0.6883 0.40966 0.0
C1560 C 0.22158 0.71042 0.36291 0.0
C1561 C 0.23847 0.70592 0.32475 0.0
C1562 C 0.15719 0.59358 0.35436 0.0
C1563 C 0.1902 0.65307 0.35934 0.0
C1564 C 0.13383 0.56685 0.37094 0.0
C1565 C 0.1168 0.57027 0.40922 0.0
C1566 C 0.16408 0.62434 0.37606 0.0
C1567 C 0.12353 0.6016 0.42953 0.0
C1568 C 0.19775 0.68415 0.38036 0.0
C1569 C 0.2308 0.67435 0.30524 0.0
N1570 N 0.14674 0.62733 0.41283 0.0
N1571 N 0.20722 0.64934 0.32259 0.0
H1572 H 0.4385 0.26798 0.47268 0.0
H1573 H 0.42091 0.08334 0.45122 0.0
H1574 H 0.36488 0.19 0.41009 0.0
H1575 H 0.50298 0.16032 0.50226 0.0
H1576 H 0.39904 0.12256 0.43874 0.0
H1577 H 0.4609 0.22941 0.48738 0.0
C1578 C 0.42696 0.24276 0.46215 0.0
C1579 C 0.39991 0.23225 0.43983 0.0
C1580 C 0.4219 0.13101 0.45255 0.0
C1581 C 0.42561 0.18808 0.45627 0.0
C1582 C 0.43446 0.10857 0.4597 0.0
C1583 C 0.46396 0.11854 0.47766 0.0
C1584 C 0.43875 0.16384 0.4636 0.0
C1585 C 0.48033 0.15159 0.48802 0.0
C1586 C 0.43991 0.2208 0.47036 0.0
C1587 C 0.38611 0.19931 0.42679 0.0
N1588 N 0.46745 0.1731 0.48094 0.0
N1589 N 0.39911 0.17848 0.43518 0.0
H1590 H 0.71217 0.85321 0.63394 0.0
H1591 H 0.57042 0.88712 0.54643 0.0
H1592 H 0.60566 0.797 0.6514 0.0
H1593 H 0.67329 0.95272 0.54932 0.0
H1594 H 0.58419 0.84987 0.57705 0.0
H1595 H 0.69969 0.88581 0.59473 0.0
C1596 C 0.68621 0.84749 0.62917 0.0
C1597 C 0.65991 0.82247 0.64627 0.0
C1598 C 0.60377 0.87236 0.57078 0.0
C1599 C 0.64536 0.85985 0.6016 0.0
C1600 C 0.59594 0.89358 0.55318 0.0
C1601 C 0.62064 0.92322 0.54557 0.0
C1602 C 0.63659 0.88072 0.58054 0.0
C1603 C 0.65332 0.93029 0.55496 0.0
C1604 C 0.67906 0.86624 0.607 0.0
C1605 C 0.62668 0.81637 0.63933 0.0
N1606 N 0.6603 0.90928 0.57199 0.0
N1607 N 0.62035 0.83495 0.61766 0.0
H1608 H 0.73321 0.16318 0.26007 0.0
H1609 H 0.6087 0.10628 0.45491 0.0
H1610 H 0.72768 0.22777 0.36711 0.0
H1611 H 0.6305 0.04181 0.35386 0.0
H1612 H 0.64636 0.15191 0.42104 0.0
H1613 H 0.69069 0.11925 0.29219 0.0
C1614 C 0.72287 0.16817 0.29034 0.0
C1615 C 0.73355 0.19932 0.31073 0.0
C1616 C 0.64267 0.12775 0.40626 0.0
C1617 C 0.68473 0.14894 0.34798 0.0
C1618 C 0.62098 0.10167 0.42544 0.0
C1619 C 0.61649 0.07007 0.40731 0.0
C1620 C 0.65979 0.12219 0.3686 0.0
C1621 C 0.6333 0.06566 0.36918 0.0
C1622 C 0.69851 0.14305 0.3087 0.0
C1623 C 0.71946 0.20427 0.35004 0.0
N1624 N 0.6542 0.09135 0.35124 0.0
N1625 N 0.69571 0.17936 0.36744 0.0
H1626 H 0.84116 0.64846 0.38685 0.0
H1627 H 0.97971 0.6494 0.51257 0.0
H1628 H 0.8782 0.72441 0.48026 0.0
H1629 H 0.92919 0.57024 0.42962 0.0
H1630 H 0.94866 0.68085 0.49674 0.0
H1631 H 0.87906 0.62301 0.39774 0.0
C1632 C 0.8575 0.65998 0.40949 0.0
C1633 C 0.85644 0.68868 0.43263 0.0
C1634 C 0.94475 0.65672 0.48176 0.0
C1635 C 0.89984 0.65919 0.44583 0.0
C1636 C 0.96265 0.63894 0.49051 0.0
C1637 C 0.95692 0.60724 0.47234 0.0
C1638 C 0.92138 0.64263 0.45443 0.0
C1639 C 0.9342 0.59455 0.44445 0.0
C1640 C 0.87906 0.64529 0.4159 0.0
C1641 C 0.87786 0.70208 0.46207 0.0
N1642 N 0.91728 0.6122 0.43646 0.0
N1643 N 0.89868 0.6872 0.4679 0.0
H1644 H 0.30329 0.86287 0.37153 0.0
H1645 H 0.48891 0.93961 0.43663 0.0
H1646 H 0.37702 0.81514 0.34278 0.0
H1647 H 0.41056 0.98076 0.48067 0.0
H1648 H 0.44763 0.89317 0.40364 0.0
H1649 H 0.34088 0.90493 0.41394 0.0
C1650 C 0.32707 0.86084 0.37456 0.0
C1651 C 0.33697 0.83536 0.35313 0.0
C1652 C 0.43938 0.91224 0.42072 0.0
C1653 C 0.38063 0.88407 0.40121 0.0
C1654 C 0.46301 0.93888 0.43952 0.0
C1655 C 0.45336 0.96437 0.46134 0.0
C1656 C 0.40577 0.91103 0.42334 0.0
C1657 C 0.41927 0.9618 0.46416 0.0
C1658 C 0.34869 0.88508 0.39865 0.0
C1659 C 0.36839 0.83445 0.35815 0.0
N1660 N 0.39684 0.9358 0.44515 0.0
N1661 N 0.38915 0.85855 0.38126 0.0
H1662 H 0.27775 0.36549 0.33593 0.0
H1663 H 0.09496 0.38592 0.37988 0.0
H1664 H 0.18616 0.29183 0.30121 0.0
H1665 H 0.18136 0.45519 0.43155 0.0
H1666 H 0.12884 0.35233 0.3503 0.0
H1667 H 0.24438 0.39905 0.37003 0.0
C1668 C 0.25062 0.35609 0.33571 0.0
C1669 C 0.23497 0.32528 0.31583 0.0
C1670 C 0.14056 0.3748 0.36813 0.0
C1671 C 0.19629 0.36447 0.35438 0.0
C1672 C 0.12112 0.39421 0.38518 0.0
C1673 C 0.13509 0.42385 0.40836 0.0
C1674 C 0.17477 0.38476 0.37369 0.0
C1675 C 0.16929 0.43272 0.41395 0.0
C1676 C 0.23153 0.3755 0.35512 0.0
C1677 C 0.19965 0.3152 0.31601 0.0
N1678 N 0.18791 0.41346 0.39663 0.0
N1679 N 0.18174 0.33462 0.33472 0.0
H1680 H 0.31111 0.16699 0.69092 0.0
H1681 H 0.49743 0.15935 0.61546 0.0
H1682 H 0.40059 0.25159 0.68483 0.0
H1683 H 0.40777 0.08046 0.5854 0.0
H1684 H 0.46238 0.19233 0.64427 0.0
H1685 H 0.34539 0.13415 0.65673 0.0
C1686 C 0.33796 0.17878 0.68238 0.0
C1687 C 0.35275 0.2124 0.69088 0.0
C1688 C 0.45025 0.16787 0.63127 0.0
C1689 C 0.39259 0.17444 0.65154 0.0
C1690 C 0.47033 0.14885 0.61475 0.0
C1691 C 0.45578 0.11676 0.59785 0.0
C1692 C 0.41486 0.15487 0.63192 0.0
C1693 C 0.42034 0.10495 0.5979 0.0
C1694 C 0.35754 0.15991 0.6626 0.0
C1695 C 0.38778 0.22598 0.67869 0.0
N1696 N 0.40119 0.12377 0.61498 0.0
N1697 N 0.40638 0.20708 0.6601 0.0
H1698 H 0.87136 0.3042 0.64886 0.0
H1699 H 0.95862 0.49485 0.65391 0.0
H1700 H 0.83563 0.37413 0.72821 0.0
H1701 H 0.98123 0.42953 0.55443 0.0
H1702 H 0.91872 0.44946 0.68511 0.0
H1703 H 0.91565 0.34811 0.61696 0.0
C1704 C 0.87256 0.32866 0.65945 0.0
C1705 C 0.8493 0.33527 0.69122 0.0
C1706 C 0.93243 0.44488 0.65653 0.0
C1707 C 0.90035 0.3857 0.65507 0.0
C1708 C 0.95549 0.47092 0.63862 0.0
C1709 C 0.97338 0.46627 0.60115 0.0
C1710 C 0.92687 0.41351 0.63719 0.0
C1711 C 0.96813 0.4344 0.58329 0.0
C1712 C 0.89793 0.35372 0.64121 0.0
C1713 C 0.8525 0.36757 0.70371 0.0
N1714 N 0.94523 0.40925 0.60136 0.0
N1715 N 0.87745 0.39137 0.68578 0.0
H1716 H 0.24166 0.65858 0.69765 0.0
H1717 H 0.17288 0.58815 0.49746 0.0
H1718 H 0.25474 0.72754 0.6211 0.0
H1719 H 0.10617 0.56823 0.60578 0.0
H1720 H 0.21361 0.6331 0.53477 0.0
H1721 H 0.20253 0.61744 0.65614 0.0
C1722 C 0.23665 0.66494 0.67176 0.0
C1723 C 0.2513 0.69648 0.66279 0.0
C1724 C 0.1899 0.61887 0.55005 0.0
C1725 C 0.20719 0.6494 0.61496 0.0
C1726 C 0.16689 0.59326 0.529 0.0
C1727 C 0.1363 0.57454 0.54874 0.0
C1728 C 0.18252 0.62486 0.591 0.0
C1729 C 0.12946 0.58217 0.58952 0.0
C1730 C 0.21423 0.64153 0.64832 0.0
C1731 C 0.24375 0.70347 0.62899 0.0
N1732 N 0.15266 0.60642 0.60943 0.0
N1733 N 0.22227 0.67994 0.60593 0.0
loop_
_geom_bond_atom_site_label_1
_geom_bond_atom_site_label_2
_geom_bond_distance
_geom_bond_site_symmetry_2
_ccdc_geom_bond_type
C0 C2 1.422 . S
C0 C4 1.415 . S
C0 N6 1.369 . S
C1 C2 1.421 . S
C1 C3 1.417 . S
C1 C13 1.422 . S
C2 C0 1.422 . S
C2 C1 1.421 . S
C2 N12 1.359 . S
C3 C1 1.417 . S
C3 C5 1.329 . S
C3 H22 0.930 . S
C4 C0 1.415 . S
C4 C5 1.437 . S
C4 C8 1.413 . S
C5 C3 1.329 . S
C5 C4 1.437 . S
C5 H27 0.929 . S
N6 C0 1.369 . S
N6 C7 1.338 . S
N6 Gd11 2.622 . S
C7 N6 1.338 . S
C7 C9 1.378 . S
C7 H19 0.929 . S
C8 C4 1.413 . S
C8 C9 1.348 . S
C8 H24 0.931 . S
C9 C7 1.378 . S
C9 C8 1.348 . S
C9 H25 0.930 . S
Gd10 N30 2.622 . S
Gd10 N37 2.570 . S
Gd10 O44 2.353 . S
Gd10 O45 2.468 . S
Gd10 O46 2.427 . S
Gd10 O48 2.388 . S
Gd10 O49 2.386 . S
Gd10 O53 2.307 . S
Gd10 C63 2.805 . S
Gd11 N6 2.622 . S
Gd11 N12 2.570 . S
Gd11 O43 2.386 . S
Gd11 O47 2.307 . S
Gd11 O50 2.353 . S
Gd11 O51 2.468 . S
Gd11 O52 2.427 . S
Gd11 O54 2.388 . S
Gd11 C75 2.805 . S
N12 C2 1.359 . S
N12 Gd11 2.570 . S
N12 C14 1.343 . S
C13 C1 1.422 . S
C13 C15 1.321 . S
C13 H21 0.931 . S
C14 N12 1.343 . S
C14 C15 1.390 . S
C14 H16 0.931 . S
C15 C13 1.321 . S
C15 C14 1.390 . S
C15 H17 0.930 . S
H16 C14 0.931 . S
H17 C15 0.930 . S
H18 C41 0.931 . S
H19 C7 0.929 . S
H20 C42 0.930 . S
H21 C13 0.931 . S
H22 C3 0.930 . S
H23 C32 0.929 . S
H24 C8 0.931 . S
H25 C9 0.930 . S
H26 C64 0.930 . S
H27 C5 0.929 . S
H28 C33 0.931 . S
H29 C34 0.930 . S
N30 Gd10 2.622 . S
N30 C31 1.369 . S
N30 C32 1.338 . S
C31 N30 1.369 . S
C31 C35 1.415 . S
C31 C38 1.422 . S
C32 H23 0.929 . S
C32 N30 1.338 . S
C32 C34 1.378 . S
C33 H28 0.931 . S
C33 C34 1.348 . S
C33 C35 1.413 . S
C34 H29 0.930 . S
C34 C32 1.378 . S
C34 C33 1.348 . S
C35 C31 1.415 . S
C35 C33 1.413 . S
C35 C65 1.437 . S
H36 C65 0.929 . S
N37 Gd10 2.570 . S
N37 C38 1.359 . S
N37 C41 1.343 . S
C38 C31 1.422 . S
C38 N37 1.359 . S
C38 C40 1.421 . S
C39 C40 1.422 . S
C39 C42 1.321 . S
C39 H66 0.931 . S
C40 C38 1.421 . S
C40 C39 1.422 . S
C40 C64 1.417 . S
C41 H18 0.931 . S
C41 N37 1.343 . S
C41 C42 1.390 . S
C42 H20 0.930 . S
C42 C39 1.321 . S
C42 C41 1.390 . S
O43 Gd11 2.386 . S
O43 C55 1.265 . S
O44 Gd10 2.353 . S
O44 C55 1.242 . S
O45 Gd10 2.468 . S
O45 C63 1.263 . S
O46 Gd10 2.427 . S
O46 C63 1.252 . S
O47 Gd11 2.307 . S
O47 C56 1.261 . S
O48 Gd10 2.388 . S
O48 C56 1.252 . S
O49 Gd10 2.386 . S
O49 C67 1.265 . S
O50 Gd11 2.353 . S
O50 C67 1.242 . S
O51 Gd11 2.468 . S
O51 C75 1.263 . S
O52 Gd11 2.427 . S
O52 C75 1.252 . S
O53 Gd10 2.307 . S
O53 C68 1.261 . S
O54 Gd11 2.388 . S
O54 C68 1.252 . S
C55 O43 1.265 . S
C55 O44 1.242 . S
C56 O47 1.261 . S
C56 O48 1.252 . S
C57 C60 1.394 . S
C57 C62 1.370 . S
C57 C63 1.500 . S
C58 C61 1.383 . S
C58 C62 1.395 . S
C59 C60 1.396 . S
C59 C61 1.365 . S
C59 H76 0.929 . S
C60 C57 1.394 . S
C60 C59 1.396 . S
C60 H77 0.930 . S
C61 C58 1.383 . S
C61 C59 1.365 . S
C61 H78 0.931 . S
C62 C57 1.370 . S
C62 C58 1.395 . S
C62 H79 0.930 . S
C63 Gd10 2.805 . S
C63 O45 1.263 . S
C63 O46 1.252 . S
C63 C57 1.500 . S
C64 H26 0.930 . S
C64 C40 1.417 . S
C64 C65 1.329 . S
C65 C35 1.437 . S
C65 H36 0.929 . S
C65 C64 1.329 . S
H66 C39 0.931 . S
C67 O49 1.265 . S
C67 O50 1.242 . S
C68 O53 1.261 . S
C68 O54 1.252 . S
C69 C72 1.394 . S
C69 C74 1.370 . S
C69 C75 1.500 . S
C70 C73 1.383 . S
C70 C74 1.395 . S
C71 C72 1.396 . S
C71 C73 1.365 . S
C71 H80 0.929 . S
C72 C69 1.394 . S
C72 C71 1.396 . S
C72 H81 0.930 . S
C73 C70 1.383 . S
C73 C71 1.365 . S
C73 H82 0.931 . S
C74 C69 1.370 . S
C74 C70 1.395 . S
C74 H83 0.930 . S
C75 Gd11 2.805 . S
C75 O51 1.263 . S
C75 O52 1.252 . S
C75 C69 1.500 . S
H76 C59 0.929 . S
H77 C60 0.930 . S
H78 C61 0.931 . S
H79 C62 0.930 . S
H80 C71 0.929 . S
H81 C72 0.930 . S
H82 C73 0.931 . S
H83 C74 0.930 . S
C84 C86 1.422 . S
C84 C88 1.415 . S
C84 N90 1.369 . S
C85 C86 1.421 . S
C85 C87 1.417 . S
C85 C97 1.422 . S
C86 C84 1.422 . S
C86 C85 1.421 . S
C86 N96 1.359 . S
C87 C85 1.417 . S
C87 C89 1.329 . S
C87 H106 0.930 . S
C88 C84 1.415 . S
C88 C89 1.437 . S
C88 C92 1.413 . S
C89 C87 1.329 . S
C89 C88 1.437 . S
C89 H111 0.929 . S
N90 C84 1.369 . S
N90 C91 1.338 . S
N90 Gd95 2.622 . S
C91 N90 1.338 . S
C91 C93 1.378 . S
C91 H103 0.929 . S
C92 C88 1.413 . S
C92 C93 1.348 . S
C92 H108 0.931 . S
C93 C91 1.378 . S
C93 C92 1.348 . S
C93 H109 0.930 . S
Gd94 N114 2.622 . S
Gd94 N121 2.570 . S
Gd94 O128 2.353 . S
Gd94 O129 2.468 . S
Gd94 O130 2.427 . S
Gd94 O132 2.388 . S
Gd94 O133 2.386 . S
Gd94 O137 2.307 . S
Gd94 C147 2.805 . S
Gd95 N90 2.622 . S
Gd95 N96 2.570 . S
Gd95 O127 2.386 . S
Gd95 O131 2.307 . S
Gd95 O134 2.353 . S
Gd95 O135 2.468 . S
Gd95 O136 2.427 . S
Gd95 O138 2.388 . S
Gd95 C159 2.805 . S
N96 C86 1.359 . S
N96 Gd95 2.570 . S
N96 C98 1.343 . S
C97 C85 1.422 . S
C97 C99 1.321 . S
C97 H105 0.931 . S
C98 N96 1.343 . S
C98 C99 1.390 . S
C98 H100 0.931 . S
C99 C97 1.321 . S
C99 C98 1.390 . S
C99 H101 0.930 . S
H100 C98 0.931 . S
H101 C99 0.930 . S
H102 C125 0.931 . S
H103 C91 0.929 . S
H104 C126 0.930 . S
H105 C97 0.931 . S
H106 C87 0.930 . S
H107 C116 0.929 . S
H108 C92 0.931 . S
H109 C93 0.930 . S
H110 C148 0.930 . S
H111 C89 0.929 . S
H112 C117 0.931 . S
H113 C118 0.930 . S
N114 Gd94 2.622 . S
N114 C115 1.369 . S
N114 C116 1.338 . S
C115 N114 1.369 . S
C115 C119 1.415 . S
C115 C122 1.422 . S
C116 H107 0.929 . S
C116 N114 1.338 . S
C116 C118 1.378 . S
C117 H112 0.931 . S
C117 C118 1.348 . S
C117 C119 1.413 . S
C118 H113 0.930 . S
C118 C116 1.378 . S
C118 C117 1.348 . S
C119 C115 1.415 . S
C119 C117 1.413 . S
C119 C149 1.437 . S
H120 C149 0.929 . S
N121 Gd94 2.570 . S
N121 C122 1.359 . S
N121 C125 1.343 . S
C122 C115 1.422 . S
C122 N121 1.359 . S
C122 C124 1.421 . S
C123 C124 1.422 . S
C123 C126 1.321 . S
C123 H150 0.931 . S
C124 C122 1.421 . S
C124 C123 1.422 . S
C124 C148 1.417 . S
C125 H102 0.931 . S
C125 N121 1.343 . S
C125 C126 1.390 . S
C126 H104 0.930 . S
C126 C123 1.321 . S
C126 C125 1.390 . S
O127 Gd95 2.386 . S
O127 C139 1.265 . S
O128 Gd94 2.353 . S
O128 C139 1.242 . S
O129 Gd94 2.468 . S
O129 C147 1.263 . S
O130 Gd94 2.427 . S
O130 C147 1.252 . S
O131 Gd95 2.307 . S
O131 C140 1.261 . S
O132 Gd94 2.388 . S
O132 C140 1.252 . S
O133 Gd94 2.386 . S
O133 C151 1.265 . S
O134 Gd95 2.353 . S
O134 C151 1.242 . S
O135 Gd95 2.468 . S
O135 C159 1.263 . S
O136 Gd95 2.427 . S
O136 C159 1.252 . S
O137 Gd94 2.307 . S
O137 C152 1.261 . S
O138 Gd95 2.388 . S
O138 C152 1.252 . S
C139 O127 1.265 . S
C139 O128 1.242 . S
C140 O131 1.261 . S
C140 O132 1.252 . S
C141 C144 1.394 . S
C141 C146 1.370 . S
C141 C147 1.500 . S
C142 C145 1.383 . S
C142 C146 1.395 . S
C143 C144 1.396 . S
C143 C145 1.365 . S
C143 H160 0.929 . S
C144 C141 1.394 . S
C144 C143 1.396 . S
C144 H161 0.930 . S
C145 C142 1.383 . S
C145 C143 1.365 . S
C145 H162 0.931 . S
C146 C141 1.370 . S
C146 C142 1.395 . S
C146 H163 0.930 . S
C147 Gd94 2.805 . S
C147 O129 1.263 . S
C147 O130 1.252 . S
C147 C141 1.500 . S
C148 H110 0.930 . S
C148 C124 1.417 . S
C148 C149 1.329 . S
C149 C119 1.437 . S
C149 H120 0.929 . S
C149 C148 1.329 . S
H150 C123 0.931 . S
C151 O133 1.265 . S
C151 O134 1.242 . S
C152 O137 1.261 . S
C152 O138 1.252 . S
C153 C156 1.394 . S
C153 C158 1.370 . S
C153 C159 1.500 . S
C154 C157 1.383 . S
C154 C158 1.395 . S
C155 C156 1.396 . S
C155 C157 1.365 . S
C155 H164 0.929 . S
C156 C153 1.394 . S
C156 C155 1.396 . S
C156 H165 0.930 . S
C157 C154 1.383 . S
C157 C155 1.365 . S
C157 H166 0.931 . S
C158 C153 1.370 . S
C158 C154 1.395 . S
C158 H167 0.930 . S
C159 Gd95 2.805 . S
C159 O135 1.263 . S
C159 O136 1.252 . S
C159 C153 1.500 . S
H160 C143 0.929 . S
H161 C144 0.930 . S
H162 C145 0.931 . S
H163 C146 0.930 . S
H164 C155 0.929 . S
H165 C156 0.930 . S
H166 C157 0.931 . S
H167 C158 0.930 . S
C168 C170 1.422 . S
C168 C172 1.415 . S
C168 N174 1.369 . S
C169 C170 1.421 . S
C169 C171 1.417 . S
C169 C181 1.422 . S
C170 C168 1.422 . S
C170 C169 1.421 . S
C170 N180 1.359 . S
C171 C169 1.417 . S
C171 C173 1.329 . S
C171 H190 0.930 . S
C172 C168 1.415 . S
C172 C173 1.437 . S
C172 C176 1.413 . S
C173 C171 1.329 . S
C173 C172 1.437 . S
C173 H195 0.929 . S
N174 C168 1.369 . S
N174 C175 1.338 . S
N174 Gd179 2.622 . S
C175 N174 1.338 . S
C175 C177 1.378 . S
C175 H187 0.929 . S
C176 C172 1.413 . S
C176 C177 1.348 . S
C176 H192 0.931 . S
C177 C175 1.378 . S
C177 C176 1.348 . S
C177 H193 0.930 . S
Gd178 N198 2.622 . S
Gd178 N205 2.570 . S
Gd178 O212 2.353 . S
Gd178 O213 2.468 . S
Gd178 O214 2.427 . S
Gd178 O216 2.388 . S
Gd178 O217 2.386 . S
Gd178 O221 2.307 . S
Gd178 C231 2.805 . S
Gd179 N174 2.622 . S
Gd179 N180 2.570 . S
Gd179 O211 2.386 . S
Gd179 O215 2.307 . S
Gd179 O218 2.353 . S
Gd179 O219 2.468 . S
Gd179 O220 2.427 . S
Gd179 O222 2.388 . S
Gd179 C243 2.805 . S
N180 C170 1.359 . S
N180 Gd179 2.570 . S
N180 C182 1.343 . S
C181 C169 1.422 . S
C181 C183 1.321 . S
C181 H189 0.931 . S
C182 N180 1.343 . S
C182 C183 1.390 . S
C182 H184 0.931 . S
C183 C181 1.321 . S
C183 C182 1.390 . S
C183 H185 0.930 . S
H184 C182 0.931 . S
H185 C183 0.930 . S
H186 C209 0.931 . S
H187 C175 0.929 . S
H188 C210 0.930 . S
H189 C181 0.931 . S
H190 C171 0.930 . S
H191 C200 0.929 . S
H192 C176 0.931 . S
H193 C177 0.930 . S
H194 C232 0.930 . S
H195 C173 0.929 . S
H196 C201 0.931 . S
H197 C202 0.930 . S
N198 Gd178 2.622 . S
N198 C199 1.369 . S
N198 C200 1.338 . S
C199 N198 1.369 . S
C199 C203 1.415 . S
C199 C206 1.422 . S
C200 H191 0.929 . S
C200 N198 1.338 . S
C200 C202 1.378 . S
C201 H196 0.931 . S
C201 C202 1.348 . S
C201 C203 1.413 . S
C202 H197 0.930 . S
C202 C200 1.378 . S
C202 C201 1.348 . S
C203 C199 1.415 . S
C203 C201 1.413 . S
C203 C233 1.437 . S
H204 C233 0.929 . S
N205 Gd178 2.570 . S
N205 C206 1.359 . S
N205 C209 1.343 . S
C206 C199 1.422 . S
C206 N205 1.359 . S
C206 C208 1.421 . S
C207 C208 1.422 . S
C207 C210 1.321 . S
C207 H234 0.931 . S
C208 C206 1.421 . S
C208 C207 1.422 . S
C208 C232 1.417 . S
C209 H186 0.931 . S
C209 N205 1.343 . S
C209 C210 1.390 . S
C210 H188 0.930 . S
C210 C207 1.321 . S
C210 C209 1.390 . S
O211 Gd179 2.386 . S
O211 C223 1.265 . S
O212 Gd178 2.353 . S
O212 C223 1.242 . S
O213 Gd178 2.468 . S
O213 C231 1.263 . S
O214 Gd178 2.427 . S
O214 C231 1.252 . S
O215 Gd179 2.307 . S
O215 C224 1.261 . S
O216 Gd178 2.388 . S
O216 C224 1.252 . S
O217 Gd178 2.386 . S
O217 C235 1.265 . S
O218 Gd179 2.353 . S
O218 C235 1.242 . S
O219 Gd179 2.468 . S
O219 C243 1.263 . S
O220 Gd179 2.427 . S
O220 C243 1.252 . S
O221 Gd178 2.307 . S
O221 C236 1.261 . S
O222 Gd179 2.388 . S
O222 C236 1.252 . S
C223 O211 1.265 . S
C223 O212 1.242 . S
C224 O215 1.261 . S
C224 O216 1.252 . S
C225 C228 1.394 . S
C225 C230 1.370 . S
C225 C231 1.500 . S
C226 C229 1.383 . S
C226 C230 1.395 . S
C227 C228 1.396 . S
C227 C229 1.365 . S
C227 H244 0.929 . S
C228 C225 1.394 . S
C228 C227 1.396 . S
C228 H245 0.930 . S
C229 C226 1.383 . S
C229 C227 1.365 . S
C229 H246 0.931 . S
C230 C225 1.370 . S
C230 C226 1.395 . S
C230 H247 0.930 . S
C231 Gd178 2.805 . S
C231 O213 1.263 . S
C231 O214 1.252 . S
C231 C225 1.500 . S
C232 H194 0.930 . S
C232 C208 1.417 . S
C232 C233 1.329 . S
C233 C203 1.437 . S
C233 H204 0.929 . S
C233 C232 1.329 . S
H234 C207 0.931 . S
C235 O217 1.265 . S
C235 O218 1.242 . S
C236 O221 1.261 . S
C236 O222 1.252 . S
C237 C240 1.394 . S
C237 C242 1.370 . S
C237 C243 1.500 . S
C238 C241 1.383 . S
C238 C242 1.395 . S
C239 C240 1.396 . S
C239 C241 1.365 . S
C239 H248 0.929 . S
C240 C237 1.394 . S
C240 C239 1.396 . S
C240 H249 0.930 . S
C241 C238 1.383 . S
C241 C239 1.365 . S
C241 H250 0.931 . S
C242 C237 1.370 . S
C242 C238 1.395 . S
C242 H251 0.930 . S
C243 Gd179 2.805 . S
C243 O219 1.263 . S
C243 O220 1.252 . S
C243 C237 1.500 . S
H244 C227 0.929 . S
H245 C228 0.930 . S
H246 C229 0.931 . S
H247 C230 0.930 . S
H248 C239 0.929 . S
H249 C240 0.930 . S
H250 C241 0.931 . S
H251 C242 0.930 . S
C252 C254 1.422 . S
C252 C256 1.415 . S
C252 N258 1.369 . S
C253 C254 1.421 . S
C253 C255 1.417 . S
C253 C265 1.422 . S
C254 C252 1.422 . S
C254 C253 1.421 . S
C254 N264 1.359 . S
C255 C253 1.417 . S
C255 C257 1.329 . S
C255 H274 0.930 . S
C256 C252 1.415 . S
C256 C257 1.437 . S
C256 C260 1.413 . S
C257 C255 1.329 . S
C257 C256 1.437 . S
C257 H279 0.929 . S
N258 C252 1.369 . S
N258 C259 1.338 . S
N258 Gd263 2.622 . S
C259 N258 1.338 . S
C259 C261 1.378 . S
C259 H271 0.929 . S
C260 C256 1.413 . S
C260 C261 1.348 . S
C260 H276 0.931 . S
C261 C259 1.378 . S
C261 C260 1.348 . S
C261 H277 0.930 . S
Gd262 N282 2.622 . S
Gd262 N289 2.570 . S
Gd262 O296 2.353 . S
Gd262 O297 2.468 . S
Gd262 O298 2.427 . S
Gd262 O300 2.388 . S
Gd262 O301 2.386 . S
Gd262 O305 2.307 . S
Gd262 C315 2.805 . S
Gd263 N258 2.622 . S
Gd263 N264 2.570 . S
Gd263 O295 2.386 . S
Gd263 O299 2.307 . S
Gd263 O302 2.353 . S
Gd263 O303 2.468 . S
Gd263 O304 2.427 . S
Gd263 O306 2.388 . S
Gd263 C327 2.805 . S
N264 C254 1.359 . S
N264 Gd263 2.570 . S
N264 C266 1.343 . S
C265 C253 1.422 . S
C265 C267 1.321 . S
C265 H273 0.931 . S
C266 N264 1.343 . S
C266 C267 1.390 . S
C266 H268 0.931 . S
C267 C265 1.321 . S
C267 C266 1.390 . S
C267 H269 0.930 . S
H268 C266 0.931 . S
H269 C267 0.930 . S
H270 C293 0.931 . S
H271 C259 0.929 . S
H272 C294 0.930 . S
H273 C265 0.931 . S
H274 C255 0.930 . S
H275 C284 0.929 . S
H276 C260 0.931 . S
H277 C261 0.930 . S
H278 C316 0.930 . S
H279 C257 0.929 . S
H280 C285 0.931 . S
H281 C286 0.930 . S
N282 Gd262 2.622 . S
N282 C283 1.369 . S
N282 C284 1.338 . S
C283 N282 1.369 . S
C283 C287 1.415 . S
C283 C290 1.422 . S
C284 H275 0.929 . S
C284 N282 1.338 . S
C284 C286 1.378 . S
C285 H280 0.931 . S
C285 C286 1.348 . S
C285 C287 1.413 . S
C286 H281 0.930 . S
C286 C284 1.378 . S
C286 C285 1.348 . S
C287 C283 1.415 . S
C287 C285 1.413 . S
C287 C317 1.437 . S
H288 C317 0.929 . S
N289 Gd262 2.570 . S
N289 C290 1.359 . S
N289 C293 1.343 . S
C290 C283 1.422 . S
C290 N289 1.359 . S
C290 C292 1.421 . S
C291 C292 1.422 . S
C291 C294 1.321 . S
C291 H318 0.931 . S
C292 C290 1.421 . S
C292 C291 1.422 . S
C292 C316 1.417 . S
C293 H270 0.931 . S
C293 N289 1.343 . S
C293 C294 1.390 . S
C294 H272 0.930 . S
C294 C291 1.321 . S
C294 C293 1.390 . S
O295 Gd263 2.386 . S
O295 C307 1.265 . S
O296 Gd262 2.353 . S
O296 C307 1.242 . S
O297 Gd262 2.468 . S
O297 C315 1.263 . S
O298 Gd262 2.427 . S
O298 C315 1.252 . S
O299 Gd263 2.307 . S
O299 C308 1.261 . S
O300 Gd262 2.388 . S
O300 C308 1.252 . S
O301 Gd262 2.386 . S
O301 C319 1.265 . S
O302 Gd263 2.353 . S
O302 C319 1.242 . S
O303 Gd263 2.468 . S
O303 C327 1.263 . S
O304 Gd263 2.427 . S
O304 C327 1.252 . S
O305 Gd262 2.307 . S
O305 C320 1.261 . S
O306 Gd263 2.388 . S
O306 C320 1.252 . S
C307 O295 1.265 . S
C307 O296 1.242 . S
C308 O299 1.261 . S
C308 O300 1.252 . S
C309 C312 1.394 . S
C309 C314 1.370 . S
C309 C315 1.500 . S
C310 C313 1.383 . S
C310 C314 1.395 . S
C311 C312 1.396 . S
C311 C313 1.365 . S
C311 H328 0.929 . S
C312 C309 1.394 . S
C312 C311 1.396 . S
C312 H329 0.930 . S
C313 C310 1.383 . S
C313 C311 1.365 . S
C313 H330 0.931 . S
C314 C309 1.370 . S
C314 C310 1.395 . S
C314 H331 0.930 . S
C315 Gd262 2.805 . S
C315 O297 1.263 . S
C315 O298 1.252 . S
C315 C309 1.500 . S
C316 H278 0.930 . S
C316 C292 1.417 . S
C316 C317 1.329 . S
C317 C287 1.437 . S
C317 H288 0.929 . S
C317 C316 1.329 . S
H318 C291 0.931 . S
C319 O301 1.265 . S
C319 O302 1.242 . S
C320 O305 1.261 . S
C320 O306 1.252 . S
C321 C324 1.394 . S
C321 C326 1.370 . S
C321 C327 1.500 . S
C322 C325 1.383 . S
C322 C326 1.395 . S
C323 C324 1.396 . S
C323 C325 1.365 . S
C323 H332 0.929 . S
C324 C321 1.394 . S
C324 C323 1.396 . S
C324 H333 0.930 . S
C325 C322 1.383 . S
C325 C323 1.365 . S
C325 H334 0.931 . S
C326 C321 1.370 . S
C326 C322 1.395 . S
C326 H335 0.930 . S
C327 Gd263 2.805 . S
C327 O303 1.263 . S
C327 O304 1.252 . S
C327 C321 1.500 . S
H328 C311 0.929 . S
H329 C312 0.930 . S
H330 C313 0.931 . S
H331 C314 0.930 . S
H332 C323 0.929 . S
H333 C324 0.930 . S
H334 C325 0.931 . S
H335 C326 0.930 . S
C336 C338 1.422 . S
C336 C340 1.415 . S
C336 N342 1.369 . S
C337 C338 1.421 . S
C337 C339 1.417 . S
C337 C349 1.422 . S
C338 C336 1.422 . S
C338 C337 1.421 . S
C338 N348 1.359 . S
C339 C337 1.417 . S
C339 C341 1.329 . S
C339 H358 0.930 . S
C340 C336 1.415 . S
C340 C341 1.437 . S
C340 C344 1.413 . S
C341 C339 1.329 . S
C341 C340 1.437 . S
C341 H363 0.929 . S
N342 C336 1.369 . S
N342 C343 1.338 . S
N342 Gd347 2.622 . S
C343 N342 1.338 . S
C343 C345 1.378 . S
C343 H355 0.929 . S
C344 C340 1.413 . S
C344 C345 1.348 . S
C344 H360 0.931 . S
C345 C343 1.378 . S
C345 C344 1.348 . S
C345 H361 0.930 . S
Gd346 N366 2.622 . S
Gd346 N373 2.570 . S
Gd346 O380 2.353 . S
Gd346 O381 2.468 . S
Gd346 O382 2.427 . S
Gd346 O384 2.388 . S
Gd346 O385 2.386 . S
Gd346 O389 2.307 . S
Gd346 C399 2.805 . S
Gd347 N342 2.622 . S
Gd347 N348 2.570 . S
Gd347 O379 2.386 . S
Gd347 O383 2.307 . S
Gd347 O386 2.353 . S
Gd347 O387 2.468 . S
Gd347 O388 2.427 . S
Gd347 O390 2.388 . S
Gd347 C411 2.805 . S
N348 C338 1.359 . S
N348 Gd347 2.570 . S
N348 C350 1.343 . S
C349 C337 1.422 . S
C349 C351 1.321 . S
C349 H357 0.931 . S
C350 N348 1.343 . S
C350 C351 1.390 . S
C350 H352 0.931 . S
C351 C349 1.321 . S
C351 C350 1.390 . S
C351 H353 0.930 . S
H352 C350 0.931 . S
H353 C351 0.930 . S
H354 C377 0.931 . S
H355 C343 0.929 . S
H356 C378 0.930 . S
H357 C349 0.931 . S
H358 C339 0.930 . S
H359 C368 0.929 . S
H360 C344 0.931 . S
H361 C345 0.930 . S
H362 C400 0.930 . S
H363 C341 0.929 . S
H364 C369 0.931 . S
H365 C370 0.930 . S
N366 Gd346 2.622 . S
N366 C367 1.369 . S
N366 C368 1.338 . S
C367 N366 1.369 . S
C367 C371 1.415 . S
C367 C374 1.422 . S
C368 H359 0.929 . S
C368 N366 1.338 . S
C368 C370 1.378 . S
C369 H364 0.931 . S
C369 C370 1.348 . S
C369 C371 1.413 . S
C370 H365 0.930 . S
C370 C368 1.378 . S
C370 C369 1.348 . S
C371 C367 1.415 . S
C371 C369 1.413 . S
C371 C401 1.437 . S
H372 C401 0.929 . S
N373 Gd346 2.570 . S
N373 C374 1.359 . S
N373 C377 1.343 . S
C374 C367 1.422 . S
C374 N373 1.359 . S
C374 C376 1.421 . S
C375 C376 1.422 . S
C375 C378 1.321 . S
C375 H402 0.931 . S
C376 C374 1.421 . S
C376 C375 1.422 . S
C376 C400 1.417 . S
C377 H354 0.931 . S
C377 N373 1.343 . S
C377 C378 1.390 . S
C378 H356 0.930 . S
C378 C375 1.321 . S
C378 C377 1.390 . S
O379 Gd347 2.386 . S
O379 C391 1.265 . S
O380 Gd346 2.353 . S
O380 C391 1.242 . S
O381 Gd346 2.468 . S
O381 C399 1.263 . S
O382 Gd346 2.427 . S
O382 C399 1.252 . S
O383 Gd347 2.307 . S
O383 C392 1.261 . S
O384 Gd346 2.388 . S
O384 C392 1.252 . S
O385 Gd346 2.386 . S
O385 C403 1.265 . S
O386 Gd347 2.353 . S
O386 C403 1.242 . S
O387 Gd347 2.468 . S
O387 C411 1.263 . S
O388 Gd347 2.427 . S
O388 C411 1.252 . S
O389 Gd346 2.307 . S
O389 C404 1.261 . S
O390 Gd347 2.388 . S
O390 C404 1.252 . S
C391 O379 1.265 . S
C391 O380 1.242 . S
C392 O383 1.261 . S
C392 O384 1.252 . S
C393 C396 1.394 . S
C393 C398 1.370 . S
C393 C399 1.500 . S
C394 C397 1.383 . S
C394 C398 1.395 . S
C395 C396 1.396 . S
C395 C397 1.365 . S
C395 H412 0.929 . S
C396 C393 1.394 . S
C396 C395 1.396 . S
C396 H413 0.930 . S
C397 C394 1.383 . S
C397 C395 1.365 . S
C397 H414 0.931 . S
C398 C393 1.370 . S
C398 C394 1.395 . S
C398 H415 0.930 . S
C399 Gd346 2.805 . S
C399 O381 1.263 . S
C399 O382 1.252 . S
C399 C393 1.500 . S
C400 H362 0.930 . S
C400 C376 1.417 . S
C400 C401 1.329 . S
C401 C371 1.437 . S
C401 H372 0.929 . S
C401 C400 1.329 . S
H402 C375 0.931 . S
C403 O385 1.265 . S
C403 O386 1.242 . S
C404 O389 1.261 . S
C404 O390 1.252 . S
C405 C408 1.394 . S
C405 C410 1.370 . S
C405 C411 1.500 . S
C406 C409 1.383 . S
C406 C410 1.395 . S
C407 C408 1.396 . S
C407 C409 1.365 . S
C407 H416 0.929 . S
C408 C405 1.394 . S
C408 C407 1.396 . S
C408 H417 0.930 . S
C409 C406 1.383 . S
C409 C407 1.365 . S
C409 H418 0.931 . S
C410 C405 1.370 . S
C410 C406 1.395 . S
C410 H419 0.930 . S
C411 Gd347 2.805 . S
C411 O387 1.263 . S
C411 O388 1.252 . S
C411 C405 1.500 . S
H412 C395 0.929 . S
H413 C396 0.930 . S
H414 C397 0.931 . S
H415 C398 0.930 . S
H416 C407 0.929 . S
H417 C408 0.930 . S
H418 C409 0.931 . S
H419 C410 0.930 . S
C420 C422 1.422 . S
C420 C424 1.415 . S
C420 N426 1.369 . S
C421 C422 1.421 . S
C421 C423 1.417 . S
C421 C433 1.422 . S
C422 C420 1.422 . S
C422 C421 1.421 . S
C422 N432 1.359 . S
C423 C421 1.417 . S
C423 C425 1.329 . S
C423 H442 0.930 . S
C424 C420 1.415 . S
C424 C425 1.437 . S
C424 C428 1.413 . S
C425 C423 1.329 . S
C425 C424 1.437 . S
C425 H447 0.929 . S
N426 C420 1.369 . S
N426 C427 1.338 . S
N426 Gd431 2.622 . S
C427 N426 1.338 . S
C427 C429 1.378 . S
C427 H439 0.929 . S
C428 C424 1.413 . S
C428 C429 1.348 . S
C428 H444 0.931 . S
C429 C427 1.378 . S
C429 C428 1.348 . S
C429 H445 0.930 . S
Gd430 N450 2.622 . S
Gd430 N457 2.570 . S
Gd430 O464 2.353 . S
Gd430 O465 2.468 . S
Gd430 O466 2.427 . S
Gd430 O468 2.388 . S
Gd430 O469 2.386 . S
Gd430 O473 2.307 . S
Gd430 C483 2.805 . S
Gd431 N426 2.622 . S
Gd431 N432 2.570 . S
Gd431 O463 2.386 . S
Gd431 O467 2.307 . S
Gd431 O470 2.353 . S
Gd431 O471 2.468 . S
Gd431 O472 2.427 . S
Gd431 O474 2.388 . S
Gd431 C495 2.805 . S
N432 C422 1.359 . S
N432 Gd431 2.570 . S
N432 C434 1.343 . S
C433 C421 1.422 . S
C433 C435 1.321 . S
C433 H441 0.931 . S
C434 N432 1.343 . S
C434 C435 1.390 . S
C434 H436 0.931 . S
C435 C433 1.321 . S
C435 C434 1.390 . S
C435 H437 0.930 . S
H436 C434 0.931 . S
H437 C435 0.930 . S
H438 C461 0.931 . S
H439 C427 0.929 . S
H440 C462 0.930 . S
H441 C433 0.931 . S
H442 C423 0.930 . S
H443 C452 0.929 . S
H444 C428 0.931 . S
H445 C429 0.930 . S
H446 C484 0.930 . S
H447 C425 0.929 . S
H448 C453 0.931 . S
H449 C454 0.930 . S
N450 Gd430 2.622 . S
N450 C451 1.369 . S
N450 C452 1.338 . S
C451 N450 1.369 . S
C451 C455 1.415 . S
C451 C458 1.422 . S
C452 H443 0.929 . S
C452 N450 1.338 . S
C452 C454 1.378 . S
C453 H448 0.931 . S
C453 C454 1.348 . S
C453 C455 1.413 . S
C454 H449 0.930 . S
C454 C452 1.378 . S
C454 C453 1.348 . S
C455 C451 1.415 . S
C455 C453 1.413 . S
C455 C485 1.437 . S
H456 C485 0.929 . S
N457 Gd430 2.570 . S
N457 C458 1.359 . S
N457 C461 1.343 . S
C458 C451 1.422 . S
C458 N457 1.359 . S
C458 C460 1.421 . S
C459 C460 1.422 . S
C459 C462 1.321 . S
C459 H486 0.931 . S
C460 C458 1.421 . S
C460 C459 1.422 . S
C460 C484 1.417 . S
C461 H438 0.931 . S
C461 N457 1.343 . S
C461 C462 1.390 . S
C462 H440 0.930 . S
C462 C459 1.321 . S
C462 C461 1.390 . S
O463 Gd431 2.386 . S
O463 C475 1.265 . S
O464 Gd430 2.353 . S
O464 C475 1.242 . S
O465 Gd430 2.468 . S
O465 C483 1.263 . S
O466 Gd430 2.427 . S
O466 C483 1.252 . S
O467 Gd431 2.307 . S
O467 C476 1.261 . S
O468 Gd430 2.388 . S
O468 C476 1.252 . S
O469 Gd430 2.386 . S
O469 C487 1.265 . S
O470 Gd431 2.353 . S
O470 C487 1.242 . S
O471 Gd431 2.468 . S
O471 C495 1.263 . S
O472 Gd431 2.427 . S
O472 C495 1.252 . S
O473 Gd430 2.307 . S
O473 C488 1.261 . S
O474 Gd431 2.388 . S
O474 C488 1.252 . S
C475 O463 1.265 . S
C475 O464 1.242 . S
C476 O467 1.261 . S
C476 O468 1.252 . S
C477 C480 1.394 . S
C477 C482 1.370 . S
C477 C483 1.500 . S
C478 C481 1.383 . S
C478 C482 1.395 . S
C479 C480 1.396 . S
C479 C481 1.365 . S
C479 H496 0.929 . S
C480 C477 1.394 . S
C480 C479 1.396 . S
C480 H497 0.930 . S
C481 C478 1.383 . S
C481 C479 1.365 . S
C481 H498 0.931 . S
C482 C477 1.370 . S
C482 C478 1.395 . S
C482 H499 0.930 . S
C483 Gd430 2.805 . S
C483 O465 1.263 . S
C483 O466 1.252 . S
C483 C477 1.500 . S
C484 H446 0.930 . S
C484 C460 1.417 . S
C484 C485 1.329 . S
C485 C455 1.437 . S
C485 H456 0.929 . S
C485 C484 1.329 . S
H486 C459 0.931 . S
C487 O469 1.265 . S
C487 O470 1.242 . S
C488 O473 1.261 . S
C488 O474 1.252 . S
C489 C492 1.394 . S
C489 C494 1.370 . S
C489 C495 1.500 . S
C490 C493 1.383 . S
C490 C494 1.395 . S
C491 C492 1.396 . S
C491 C493 1.365 . S
C491 H500 0.929 . S
C492 C489 1.394 . S
C492 C491 1.396 . S
C492 H501 0.930 . S
C493 C490 1.383 . S
C493 C491 1.365 . S
C493 H502 0.931 . S
C494 C489 1.370 . S
C494 C490 1.395 . S
C494 H503 0.930 . S
C495 Gd431 2.805 . S
C495 O471 1.263 . S
C495 O472 1.252 . S
C495 C489 1.500 . S
H496 C479 0.929 . S
H497 C480 0.930 . S
H498 C481 0.931 . S
H499 C482 0.930 . S
H500 C491 0.929 . S
H501 C492 0.930 . S
H502 C493 0.931 . S
H503 C494 0.930 . S
C504 C506 1.422 . S
C504 C508 1.415 . S
C504 N510 1.369 . S
C505 C506 1.421 . S
C505 C507 1.417 . S
C505 C517 1.422 . S
C506 C504 1.422 . S
C506 C505 1.421 . S
C506 N516 1.359 . S
C507 C505 1.417 . S
C507 C509 1.329 . S
C507 H526 0.930 . S
C508 C504 1.415 . S
C508 C509 1.437 . S
C508 C512 1.413 . S
C509 C507 1.329 . S
C509 C508 1.437 . S
C509 H531 0.929 . S
N510 C504 1.369 . S
N510 C511 1.338 . S
N510 Gd515 2.622 . S
C511 N510 1.338 . S
C511 C513 1.378 . S
C511 H523 0.929 . S
C512 C508 1.413 . S
C512 C513 1.348 . S
C512 H528 0.931 . S
C513 C511 1.378 . S
C513 C512 1.348 . S
C513 H529 0.930 . S
Gd514 N534 2.622 . S
Gd514 N541 2.570 . S
Gd514 O548 2.353 . S
Gd514 O549 2.468 . S
Gd514 O550 2.427 . S
Gd514 O552 2.388 . S
Gd514 O553 2.386 . S
Gd514 O557 2.307 . S
Gd514 C567 2.805 . S
Gd515 N510 2.622 . S
Gd515 N516 2.570 . S
Gd515 O547 2.386 . S
Gd515 O551 2.307 . S
Gd515 O554 2.353 . S
Gd515 O555 2.468 . S
Gd515 O556 2.427 . S
Gd515 O558 2.388 . S
Gd515 C579 2.805 . S
N516 C506 1.359 . S
N516 Gd515 2.570 . S
N516 C518 1.343 . S
C517 C505 1.422 . S
C517 C519 1.321 . S
C517 H525 0.931 . S
C518 N516 1.343 . S
C518 C519 1.390 . S
C518 H520 0.931 . S
C519 C517 1.321 . S
C519 C518 1.390 . S
C519 H521 0.930 . S
H520 C518 0.931 . S
H521 C519 0.930 . S
H522 C545 0.931 . S
H523 C511 0.929 . S
H524 C546 0.930 . S
H525 C517 0.931 . S
H526 C507 0.930 . S
H527 C536 0.929 . S
H528 C512 0.931 . S
H529 C513 0.930 . S
H530 C568 0.930 . S
H531 C509 0.929 . S
H532 C537 0.931 . S
H533 C538 0.930 . S
N534 Gd514 2.622 . S
N534 C535 1.369 . S
N534 C536 1.338 . S
C535 N534 1.369 . S
C535 C539 1.415 . S
C535 C542 1.422 . S
C536 H527 0.929 . S
C536 N534 1.338 . S
C536 C538 1.378 . S
C537 H532 0.931 . S
C537 C538 1.348 . S
C537 C539 1.413 . S
C538 H533 0.930 . S
C538 C536 1.378 . S
C538 C537 1.348 . S
C539 C535 1.415 . S
C539 C537 1.413 . S
C539 C569 1.437 . S
H540 C569 0.929 . S
N541 Gd514 2.570 . S
N541 C542 1.359 . S
N541 C545 1.343 . S
C542 C535 1.422 . S
C542 N541 1.359 . S
C542 C544 1.421 . S
C543 C544 1.422 . S
C543 C546 1.321 . S
C543 H570 0.931 . S
C544 C542 1.421 . S
C544 C543 1.422 . S
C544 C568 1.417 . S
C545 H522 0.931 . S
C545 N541 1.343 . S
C545 C546 1.390 . S
C546 H524 0.930 . S
C546 C543 1.321 . S
C546 C545 1.390 . S
O547 Gd515 2.386 . S
O547 C559 1.265 . S
O548 Gd514 2.353 . S
O548 C559 1.242 . S
O549 Gd514 2.468 . S
O549 C567 1.263 . S
O550 Gd514 2.427 . S
O550 C567 1.252 . S
O551 Gd515 2.307 . S
O551 C560 1.261 . S
O552 Gd514 2.388 . S
O552 C560 1.252 . S
O553 Gd514 2.386 . S
O553 C571 1.265 . S
O554 Gd515 2.353 . S
O554 C571 1.242 . S
O555 Gd515 2.468 . S
O555 C579 1.263 . S
O556 Gd515 2.427 . S
O556 C579 1.252 . S
O557 Gd514 2.307 . S
O557 C572 1.261 . S
O558 Gd515 2.388 . S
O558 C572 1.252 . S
C559 O547 1.265 . S
C559 O548 1.242 . S
C560 O551 1.261 . S
C560 O552 1.252 . S
C561 C564 1.394 . S
C561 C566 1.370 . S
C561 C567 1.500 . S
C562 C565 1.383 . S
C562 C566 1.395 . S
C563 C564 1.396 . S
C563 C565 1.365 . S
C563 H580 0.929 . S
C564 C561 1.394 . S
C564 C563 1.396 . S
C564 H581 0.930 . S
C565 C562 1.383 . S
C565 C563 1.365 . S
C565 H582 0.931 . S
C566 C561 1.370 . S
C566 C562 1.395 . S
C566 H583 0.930 . S
C567 Gd514 2.805 . S
C567 O549 1.263 . S
C567 O550 1.252 . S
C567 C561 1.500 . S
C568 H530 0.930 . S
C568 C544 1.417 . S
C568 C569 1.329 . S
C569 C539 1.437 . S
C569 H540 0.929 . S
C569 C568 1.329 . S
H570 C543 0.931 . S
C571 O553 1.265 . S
C571 O554 1.242 . S
C572 O557 1.261 . S
C572 O558 1.252 . S
C573 C576 1.394 . S
C573 C578 1.370 . S
C573 C579 1.500 . S
C574 C577 1.383 . S
C574 C578 1.395 . S
C575 C576 1.396 . S
C575 C577 1.365 . S
C575 H584 0.929 . S
C576 C573 1.394 . S
C576 C575 1.396 . S
C576 H585 0.930 . S
C577 C574 1.383 . S
C577 C575 1.365 . S
C577 H586 0.931 . S
C578 C573 1.370 . S
C578 C574 1.395 . S
C578 H587 0.930 . S
C579 Gd515 2.805 . S
C579 O555 1.263 . S
C579 O556 1.252 . S
C579 C573 1.500 . S
H580 C563 0.929 . S
H581 C564 0.930 . S
H582 C565 0.931 . S
H583 C566 0.930 . S
H584 C575 0.929 . S
H585 C576 0.930 . S
H586 C577 0.931 . S
H587 C578 0.930 . S
C588 C590 1.422 . S
C588 C592 1.415 . S
C588 N594 1.369 . S
C589 C590 1.421 . S
C589 C591 1.417 . S
C589 C601 1.422 . S
C590 C588 1.422 . S
C590 C589 1.421 . S
C590 N600 1.359 . S
C591 C589 1.417 . S
C591 C593 1.329 . S
C591 H610 0.930 . S
C592 C588 1.415 . S
C592 C593 1.437 . S
C592 C596 1.413 . S
C593 C591 1.329 . S
C593 C592 1.437 . S
C593 H615 0.929 . S
N594 C588 1.369 . S
N594 C595 1.338 . S
N594 Gd599 2.622 . S
C595 N594 1.338 . S
C595 C597 1.378 . S
C595 H607 0.929 . S
C596 C592 1.413 . S
C596 C597 1.348 . S
C596 H612 0.931 . S
C597 C595 1.378 . S
C597 C596 1.348 . S
C597 H613 0.930 . S
Gd598 N618 2.622 . S
Gd598 N625 2.570 . S
Gd598 O632 2.353 . S
Gd598 O633 2.468 . S
Gd598 O634 2.427 . S
Gd598 O636 2.388 . S
Gd598 O637 2.386 . S
Gd598 O641 2.307 . S
Gd598 C651 2.805 . S
Gd599 N594 2.622 . S
Gd599 N600 2.570 . S
Gd599 O631 2.386 . S
Gd599 O635 2.307 . S
Gd599 O638 2.353 . S
Gd599 O639 2.468 . S
Gd599 O640 2.427 . S
Gd599 O642 2.388 . S
Gd599 C663 2.805 . S
N600 C590 1.359 . S
N600 Gd599 2.570 . S
N600 C602 1.343 . S
C601 C589 1.422 . S
C601 C603 1.321 . S
C601 H609 0.931 . S
C602 N600 1.343 . S
C602 C603 1.390 . S
C602 H604 0.931 . S
C603 C601 1.321 . S
C603 C602 1.390 . S
C603 H605 0.930 . S
H604 C602 0.931 . S
H605 C603 0.930 . S
H606 C629 0.931 . S
H607 C595 0.929 . S
H608 C630 0.930 . S
H609 C601 0.931 . S
H610 C591 0.930 . S
H611 C620 0.929 . S
H612 C596 0.931 . S
H613 C597 0.930 . S
H614 C652 0.930 . S
H615 C593 0.929 . S
H616 C621 0.931 . S
H617 C622 0.930 . S
N618 Gd598 2.622 . S
N618 C619 1.369 . S
N618 C620 1.338 . S
C619 N618 1.369 . S
C619 C623 1.415 . S
C619 C626 1.422 . S
C620 H611 0.929 . S
C620 N618 1.338 . S
C620 C622 1.378 . S
C621 H616 0.931 . S
C621 C622 1.348 . S
C621 C623 1.413 . S
C622 H617 0.930 . S
C622 C620 1.378 . S
C622 C621 1.348 . S
C623 C619 1.415 . S
C623 C621 1.413 . S
C623 C653 1.437 . S
H624 C653 0.929 . S
N625 Gd598 2.570 . S
N625 C626 1.359 . S
N625 C629 1.343 . S
C626 C619 1.422 . S
C626 N625 1.359 . S
C626 C628 1.421 . S
C627 C628 1.422 . S
C627 C630 1.321 . S
C627 H654 0.931 . S
C628 C626 1.421 . S
C628 C627 1.422 . S
C628 C652 1.417 . S
C629 H606 0.931 . S
C629 N625 1.343 . S
C629 C630 1.390 . S
C630 H608 0.930 . S
C630 C627 1.321 . S
C630 C629 1.390 . S
O631 Gd599 2.386 . S
O631 C643 1.265 . S
O632 Gd598 2.353 . S
O632 C643 1.242 . S
O633 Gd598 2.468 . S
O633 C651 1.263 . S
O634 Gd598 2.427 . S
O634 C651 1.252 . S
O635 Gd599 2.307 . S
O635 C644 1.261 . S
O636 Gd598 2.388 . S
O636 C644 1.252 . S
O637 Gd598 2.386 . S
O637 C655 1.265 . S
O638 Gd599 2.353 . S
O638 C655 1.242 . S
O639 Gd599 2.468 . S
O639 C663 1.263 . S
O640 Gd599 2.427 . S
O640 C663 1.252 . S
O641 Gd598 2.307 . S
O641 C656 1.261 . S
O642 Gd599 2.388 . S
O642 C656 1.252 . S
C643 O631 1.265 . S
C643 O632 1.242 . S
C644 O635 1.261 . S
C644 O636 1.252 . S
C645 C648 1.394 . S
C645 C650 1.370 . S
C645 C651 1.500 . S
C646 C649 1.383 . S
C646 C650 1.395 . S
C647 C648 1.396 . S
C647 C649 1.365 . S
C647 H664 0.929 . S
C648 C645 1.394 . S
C648 C647 1.396 . S
C648 H665 0.930 . S
C649 C646 1.383 . S
C649 C647 1.365 . S
C649 H666 0.931 . S
C650 C645 1.370 . S
C650 C646 1.395 . S
C650 H667 0.930 . S
C651 Gd598 2.805 . S
C651 O633 1.263 . S
C651 O634 1.252 . S
C651 C645 1.500 . S
C652 H614 0.930 . S
C652 C628 1.417 . S
C652 C653 1.329 . S
C653 C623 1.437 . S
C653 H624 0.929 . S
C653 C652 1.329 . S
H654 C627 0.931 . S
C655 O637 1.265 . S
C655 O638 1.242 . S
C656 O641 1.261 . S
C656 O642 1.252 . S
C657 C660 1.394 . S
C657 C662 1.370 . S
C657 C663 1.500 . S
C658 C661 1.383 . S
C658 C662 1.395 . S
C659 C660 1.396 . S
C659 C661 1.365 . S
C659 H668 0.929 . S
C660 C657 1.394 . S
C660 C659 1.396 . S
C660 H669 0.930 . S
C661 C658 1.383 . S
C661 C659 1.365 . S
C661 H670 0.931 . S
C662 C657 1.370 . S
C662 C658 1.395 . S
C662 H671 0.930 . S
C663 Gd599 2.805 . S
C663 O639 1.263 . S
C663 O640 1.252 . S
C663 C657 1.500 . S
H664 C647 0.929 . S
H665 C648 0.930 . S
H666 C649 0.931 . S
H667 C650 0.930 . S
H668 C659 0.929 . S
H669 C660 0.930 . S
H670 C661 0.931 . S
H671 C662 0.930 . S
Co672 O675 2.042 . S
Co672 O682 2.264 . S
Co672 O701 2.286 . S
Co672 O702 2.069 . S
Co672 O704 2.015 1_455 S
Co673 O675 2.122 . S
Co673 O681 2.073 . S
Co673 O682 2.327 . S
Co673 O683 1.976 1_455 S
Co674 O675 2.094 1_545 S
Co674 O677 2.080 1_455 S
Co674 O684 2.108 1_445 S
Co674 O685 2.146 . S
Co674 O689 2.115 . S
Co674 O703 2.141 1_445 S
O675 Co672 2.042 . S
O675 Co673 2.122 . S
O675 Co674 2.094 1_565 S
O675 H676 0.980 . S
H676 O675 0.980 . S
O677 Co674 2.080 1_655 S
O677 Co678 2.042 . S
O677 Co679 2.122 . S
O677 H680 0.980 . S
Co678 O677 2.042 . S
Co678 O686 2.286 . S
Co678 O687 2.069 . S
Co678 O688 2.015 1_655 S
Co678 O691 2.264 . S
Co679 O677 2.122 . S
Co679 O690 1.976 1_655 S
Co679 O691 2.327 . S
Co679 O692 2.073 . S
H680 O677 0.980 . S
O681 Co673 2.073 . S
O681 C696 1.245 . S
O682 Co672 2.264 . S
O682 Co673 2.327 . S
O682 C696 1.257 . S
O683 Co673 1.976 1_655 S
O683 C695 1.251 . S
O684 Co674 2.108 1_665 S
O684 C695 1.274 . S
O685 Co674 2.146 . S
O685 C698 1.246 . S
O686 Co678 2.286 . S
O686 C697 1.259 . S
O687 Co678 2.069 . S
O687 C697 1.289 . S
O688 Co678 2.015 1_455 S
O688 C698 1.257 . S
O689 Co674 2.115 . S
O689 C699 1.274 . S
O690 Co679 1.976 1_455 S
O690 C699 1.251 . S
O691 Co678 2.264 . S
O691 Co679 2.327 . S
O691 C700 1.257 . S
O692 Co679 2.073 . S
O692 C700 1.245 . S
C693 O701 1.259 . S
C693 O702 1.289 . S
C694 O703 1.246 . S
C694 O704 1.257 . S
C695 O683 1.251 . S
C695 O684 1.274 . S
C696 O681 1.245 . S
C696 O682 1.257 . S
C697 O686 1.259 . S
C697 O687 1.289 . S
C698 O685 1.246 . S
C698 O688 1.257 . S
C699 O689 1.274 . S
C699 O690 1.251 . S
C700 O691 1.257 . S
C700 O692 1.245 . S
O701 Co672 2.286 . S
O701 C693 1.259 . S
O702 Co672 2.069 . S
O702 C693 1.289 . S
O703 Co674 2.141 1_665 S
O703 C694 1.246 . S
O704 Co672 2.015 1_655 S
O704 C694 1.257 . S
Co705 O708 2.042 1_556 S
Co705 O715 2.264 1_556 S
Co705 O734 2.286 . S
Co705 O735 2.069 . S
Co705 O737 2.015 . S
Co706 O708 2.122 . S
Co706 O714 2.073 . S
Co706 O715 2.327 . S
Co706 O716 1.976 . S
Co707 O708 2.087 1_545 S
Co707 O710 2.087 1_554 S
Co707 O717 2.111 1_545 S
Co707 O718 2.143 . S
Co707 O722 2.111 1_554 S
Co707 O736 2.143 1_544 S
O708 Co705 2.042 1_554 S
O708 Co706 2.122 . S
O708 Co707 2.087 1_565 S
O708 H709 0.980 . S
H709 O708 0.980 . S
O710 Co707 2.087 1_556 S
O710 Co711 2.042 1_556 S
O710 Co712 2.122 . S
O710 H713 0.980 . S
Co711 O710 2.042 1_554 S
Co711 O719 2.286 . S
Co711 O720 2.069 . S
Co711 O721 2.015 . S
Co711 O724 2.264 1_554 S
Co712 O710 2.122 . S
Co712 O723 1.976 . S
Co712 O724 2.327 . S
Co712 O725 2.073 . S
H713 O710 0.980 . S
O714 Co706 2.073 . S
O714 C729 1.245 . S
O715 Co705 2.264 1_554 S
O715 Co706 2.327 . S
O715 C729 1.257 . S
O716 Co706 1.976 . S
O716 C728 1.251 . S
O717 Co707 2.111 1_565 S
O717 C728 1.274 . S
O718 Co707 2.143 . S
O718 C731 1.246 . S
O719 Co711 2.286 . S
O719 C730 1.259 . S
O720 Co711 2.069 . S
O720 C730 1.289 . S
O721 Co711 2.015 . S
O721 C731 1.257 . S
O722 Co707 2.111 1_556 S
O722 C732 1.274 . S
O723 Co712 1.976 . S
O723 C732 1.251 . S
O724 Co711 2.264 1_556 S
O724 Co712 2.327 . S
O724 C733 1.257 . S
O725 Co712 2.073 . S
O725 C733 1.245 . S
C726 O734 1.259 . S
C726 O735 1.289 . S
C727 O736 1.246 . S
C727 O737 1.257 . S
C728 O716 1.251 . S
C728 O717 1.274 . S
C729 O714 1.245 . S
C729 O715 1.257 . S
C730 O719 1.259 . S
C730 O720 1.289 . S
C731 O718 1.246 . S
C731 O721 1.257 . S
C732 O722 1.274 . S
C732 O723 1.251 . S
C733 O724 1.257 . S
C733 O725 1.245 . S
O734 Co705 2.286 . S
O734 C726 1.259 . S
O735 Co705 2.069 . S
O735 C726 1.289 . S
O736 Co707 2.143 1_566 S
O736 C727 1.246 . S
O737 Co705 2.015 . S
O737 C727 1.257 . S
Co738 O741 2.042 1_556 S
Co738 O748 2.264 1_556 S
Co738 O767 2.286 . S
Co738 O768 2.069 . S
Co738 O770 2.015 1_455 S
Co739 O741 2.122 . S
Co739 O747 2.073 . S
Co739 O748 2.327 . S
Co739 O749 1.976 1_455 S
Co740 O741 2.094 . S
Co740 O743 2.080 1_454 S
Co740 O750 2.108 1_455 S
Co740 O751 2.146 . S
Co740 O755 2.115 1_554 S
Co740 O769 2.141 1_454 S
O741 Co738 2.042 1_554 S
O741 Co739 2.122 . S
O741 Co740 2.094 . S
O741 H742 0.980 . S
H742 O741 0.980 . S
O743 Co740 2.080 1_656 S
O743 Co744 2.042 1_556 S
O743 Co745 2.122 . S
O743 H746 0.980 . S
Co744 O743 2.042 1_554 S
Co744 O752 2.286 . S
Co744 O753 2.069 . S
Co744 O754 2.015 1_655 S
Co744 O757 2.264 1_554 S
Co745 O743 2.122 . S
Co745 O756 1.976 1_655 S
Co745 O757 2.327 . S
Co745 O758 2.073 . S
H746 O743 0.980 . S
O747 Co739 2.073 . S
O747 C762 1.245 . S
O748 Co738 2.264 1_554 S
O748 Co739 2.327 . S
O748 C762 1.257 . S
O749 Co739 1.976 1_655 S
O749 C761 1.251 . S
O750 Co740 2.108 1_655 S
O750 C761 1.274 . S
O751 Co740 2.146 . S
O751 C764 1.246 . S
O752 Co744 2.286 . S
O752 C763 1.259 . S
O753 Co744 2.069 . S
O753 C763 1.289 . S
O754 Co744 2.015 1_455 S
O754 C764 1.257 . S
O755 Co740 2.115 1_556 S
O755 C765 1.274 . S
O756 Co745 1.976 1_455 S
O756 C765 1.251 . S
O757 Co744 2.264 1_556 S
O757 Co745 2.327 . S
O757 C766 1.257 . S
O758 Co745 2.073 . S
O758 C766 1.245 . S
C759 O767 1.259 . S
C759 O768 1.289 . S
C760 O769 1.246 . S
C760 O770 1.257 . S
C761 O749 1.251 . S
C761 O750 1.274 . S
C762 O747 1.245 . S
C762 O748 1.257 . S
C763 O752 1.259 . S
C763 O753 1.289 . S
C764 O751 1.246 . S
C764 O754 1.257 . S
C765 O755 1.274 . S
C765 O756 1.251 . S
C766 O757 1.257 . S
C766 O758 1.245 . S
O767 Co738 2.286 . S
O767 C759 1.259 . S
O768 Co738 2.069 . S
O768 C759 1.289 . S
O769 Co740 2.141 1_656 S
O769 C760 1.246 . S
O770 Co738 2.015 1_655 S
O770 C760 1.257 . S
Co771 O774 2.042 1_556 S
Co771 O781 2.264 1_556 S
Co771 O800 2.286 . S
Co771 O801 2.069 . S
Co771 O803 2.015 . S
Co772 O774 2.122 . S
Co772 O780 2.073 . S
Co772 O781 2.327 . S
Co772 O782 1.976 . S
Co773 O774 2.087 . S
Co773 O776 2.087 1_554 S
Co773 O783 2.111 . S
Co773 O784 2.143 . S
Co773 O788 2.111 1_554 S
Co773 O802 2.143 1_554 S
O774 Co771 2.042 1_554 S
O774 Co772 2.122 . S
O774 Co773 2.087 . S
O774 H775 0.980 . S
H775 O774 0.980 . S
O776 Co773 2.087 1_556 S
O776 Co777 2.042 1_556 S
O776 Co778 2.122 . S
O776 H779 0.980 . S
Co777 O776 2.042 1_554 S
Co777 O785 2.286 . S
Co777 O786 2.069 . S
Co777 O787 2.015 . S
Co777 O790 2.264 1_554 S
Co778 O776 2.122 . S
Co778 O789 1.976 . S
Co778 O790 2.327 . S
Co778 O791 2.073 . S
H779 O776 0.980 . S
O780 Co772 2.073 . S
O780 C795 1.245 . S
O781 Co771 2.264 1_554 S
O781 Co772 2.327 . S
O781 C795 1.257 . S
O782 Co772 1.976 . S
O782 C794 1.251 . S
O783 Co773 2.111 . S
O783 C794 1.274 . S
O784 Co773 2.143 . S
O784 C797 1.246 . S
O785 Co777 2.286 . S
O785 C796 1.259 . S
O786 Co777 2.069 . S
O786 C796 1.289 . S
O787 Co777 2.015 . S
O787 C797 1.257 . S
O788 Co773 2.111 1_556 S
O788 C798 1.274 . S
O789 Co778 1.976 . S
O789 C798 1.251 . S
O790 Co777 2.264 1_556 S
O790 Co778 2.327 . S
O790 C799 1.257 . S
O791 Co778 2.073 . S
O791 C799 1.245 . S
C792 O800 1.259 . S
C792 O801 1.289 . S
C793 O802 1.246 . S
C793 O803 1.257 . S
C794 O782 1.251 . S
C794 O783 1.274 . S
C795 O780 1.245 . S
C795 O781 1.257 . S
C796 O785 1.259 . S
C796 O786 1.289 . S
C797 O784 1.246 . S
C797 O787 1.257 . S
C798 O788 1.274 . S
C798 O789 1.251 . S
C799 O790 1.257 . S
C799 O791 1.245 . S
O800 Co771 2.286 . S
O800 C792 1.259 . S
O801 Co771 2.069 . S
O801 C792 1.289 . S
O802 Co773 2.143 1_556 S
O802 C793 1.246 . S
O803 Co771 2.015 . S
O803 C793 1.257 . S
Co804 O807 2.042 . S
Co804 O814 2.264 . S
Co804 O833 2.286 . S
Co804 O834 2.069 . S
Co804 O836 2.015 . S
Co805 O807 2.122 . S
Co805 O813 2.073 . S
Co805 O814 2.327 . S
Co805 O815 1.976 . S
Co806 O807 2.093 . S
Co806 O809 2.081 1_455 S
Co806 O816 2.113 . S
Co806 O817 2.139 1_455 S
Co806 O821 2.110 1_455 S
Co806 O835 2.148 . S
O807 Co804 2.042 . S
O807 Co805 2.122 . S
O807 Co806 2.093 . S
O807 H808 0.980 . S
H808 O807 0.980 . S
O809 Co806 2.081 1_655 S
O809 Co810 2.042 . S
O809 Co811 2.122 . S
O809 H812 0.980 . S
Co810 O809 2.042 . S
Co810 O818 2.286 . S
Co810 O819 2.069 . S
Co810 O820 2.015 . S
Co810 O823 2.264 . S
Co811 O809 2.122 . S
Co811 O822 1.976 . S
Co811 O823 2.327 . S
Co811 O824 2.073 . S
H812 O809 0.980 . S
O813 Co805 2.073 . S
O813 C828 1.245 . S
O814 Co804 2.264 . S
O814 Co805 2.327 . S
O814 C828 1.257 . S
O815 Co805 1.976 . S
O815 C827 1.251 . S
O816 Co806 2.113 . S
O816 C827 1.274 . S
O817 Co806 2.139 1_655 S
O817 C830 1.246 . S
O818 Co810 2.286 . S
O818 C829 1.259 . S
O819 Co810 2.069 . S
O819 C829 1.289 . S
O820 Co810 2.015 . S
O820 C830 1.257 . S
O821 Co806 2.110 1_655 S
O821 C831 1.274 . S
O822 Co811 1.976 . S
O822 C831 1.251 . S
O823 Co810 2.264 . S
O823 Co811 2.327 . S
O823 C832 1.257 . S
O824 Co811 2.073 . S
O824 C832 1.245 . S
C825 O833 1.259 . S
C825 O834 1.289 . S
C826 O835 1.246 . S
C826 O836 1.257 . S
C827 O815 1.251 . S
C827 O816 1.274 . S
C828 O813 1.245 . S
C828 O814 1.257 . S
C829 O818 1.259 . S
C829 O819 1.289 . S
C830 O817 1.246 . S
C830 O820 1.257 . S
C831 O821 1.274 . S
C831 O822 1.251 . S
C832 O823 1.257 . S
C832 O824 1.245 . S
O833 Co804 2.286 . S
O833 C825 1.259 . S
O834 Co804 2.069 . S
O834 C825 1.289 . S
O835 Co806 2.148 . S
O835 C826 1.246 . S
O836 Co804 2.015 . S
O836 C826 1.257 . S
Co837 O840 2.042 . S
Co837 O847 2.264 . S
Co837 O866 2.286 . S
Co837 O867 2.069 . S
Co837 O869 2.015 1_565 S
Co838 O840 2.122 . S
Co838 O846 2.073 . S
Co838 O847 2.327 . S
Co838 O848 1.976 1_565 S
Co839 O840 2.087 1_545 S
Co839 O842 2.087 . S
Co839 O849 2.111 . S
Co839 O850 2.143 1_545 S
Co839 O854 2.111 1_545 S
Co839 O868 2.143 . S
O840 Co837 2.042 . S
O840 Co838 2.122 . S
O840 Co839 2.087 1_565 S
O840 H841 0.980 . S
H841 O840 0.980 . S
O842 Co839 2.087 . S
O842 Co843 2.042 . S
O842 Co844 2.122 . S
O842 H845 0.980 . S
Co843 O842 2.042 . S
Co843 O851 2.286 . S
Co843 O852 2.069 . S
Co843 O853 2.015 1_545 S
Co843 O856 2.264 . S
Co844 O842 2.122 . S
Co844 O855 1.976 1_545 S
Co844 O856 2.327 . S
Co844 O857 2.073 . S
H845 O842 0.980 . S
O846 Co838 2.073 . S
O846 C861 1.245 . S
O847 Co837 2.264 . S
O847 Co838 2.327 . S
O847 C861 1.257 . S
O848 Co838 1.976 1_545 S
O848 C860 1.251 . S
O849 Co839 2.111 . S
O849 C860 1.274 . S
O850 Co839 2.143 1_565 S
O850 C863 1.246 . S
O851 Co843 2.286 . S
O851 C862 1.259 . S
O852 Co843 2.069 . S
O852 C862 1.289 . S
O853 Co843 2.015 1_565 S
O853 C863 1.257 . S
O854 Co839 2.111 1_565 S
O854 C864 1.274 . S
O855 Co844 1.976 1_565 S
O855 C864 1.251 . S
O856 Co843 2.264 . S
O856 Co844 2.327 . S
O856 C865 1.257 . S
O857 Co844 2.073 . S
O857 C865 1.245 . S
C858 O866 1.259 . S
C858 O867 1.289 . S
C859 O868 1.246 . S
C859 O869 1.257 . S
C860 O848 1.251 . S
C860 O849 1.274 . S
C861 O846 1.245 . S
C861 O847 1.257 . S
C862 O851 1.259 . S
C862 O852 1.289 . S
C863 O850 1.246 . S
C863 O853 1.257 . S
C864 O854 1.274 . S
C864 O855 1.251 . S
C865 O856 1.257 . S
C865 O857 1.245 . S
O866 Co837 2.286 . S
O866 C858 1.259 . S
O867 Co837 2.069 . S
O867 C858 1.289 . S
O868 Co839 2.143 . S
O868 C859 1.246 . S
O869 Co837 2.015 1_545 S
O869 C859 1.257 . S
H870 C876 0.930 . S
H871 C880 0.930 . S
H872 C885 0.929 . S
H873 C883 0.929 . S
H874 C878 0.929 . S
H875 C884 0.929 . S
C876 H870 0.930 . S
C876 C877 1.367 . S
C876 C884 1.378 . S
C877 C876 1.367 . S
C877 C885 1.433 . S
C878 H874 0.929 . S
C878 C880 1.378 . S
C878 C882 1.350 . S
C879 C882 1.463 . S
C879 C884 1.350 . S
C879 N887 1.427 . S
C880 H871 0.930 . S
C880 C878 1.378 . S
C880 C881 1.367 . S
C881 C880 1.367 . S
C881 C883 1.433 . S
C882 C878 1.350 . S
C882 C879 1.463 . S
C882 N886 1.427 . S
C883 H873 0.929 . S
C883 C881 1.433 . S
C883 N886 1.384 . S
C884 H875 0.929 . S
C884 C876 1.378 . S
C884 C879 1.350 . S
C885 H872 0.929 . S
C885 C877 1.433 . S
C885 N887 1.384 . S
N886 C882 1.427 . S
N886 C883 1.384 . S
N887 C879 1.427 . S
N887 C885 1.384 . S
H888 C894 0.930 . S
H889 C898 0.930 . S
H890 C903 0.929 . S
H891 C901 0.929 . S
H892 C896 0.929 . S
H893 C902 0.929 . S
C894 H888 0.930 . S
C894 C895 1.367 . S
C894 C902 1.378 . S
C895 C894 1.367 . S
C895 C903 1.433 . S
C896 H892 0.929 . S
C896 C898 1.378 . S
C896 C900 1.350 . S
C897 C900 1.463 . S
C897 C902 1.350 . S
C897 N905 1.427 . S
C898 H889 0.930 . S
C898 C896 1.378 . S
C898 C899 1.367 . S
C899 C898 1.367 . S
C899 C901 1.433 . S
C900 C896 1.350 . S
C900 C897 1.463 . S
C900 N904 1.427 . S
C901 H891 0.929 . S
C901 C899 1.433 . S
C901 N904 1.384 . S
C902 H893 0.929 . S
C902 C894 1.378 . S
C902 C897 1.350 . S
C903 H890 0.929 . S
C903 C895 1.433 . S
C903 N905 1.384 . S
N904 C900 1.427 . S
N904 C901 1.384 . S
N905 C897 1.427 . S
N905 C903 1.384 . S
H906 C912 0.930 . S
H907 C916 0.930 . S
H908 C921 0.929 . S
H909 C919 0.929 . S
H910 C914 0.929 . S
H911 C920 0.929 . S
C912 H906 0.930 . S
C912 C913 1.367 . S
C912 C920 1.378 . S
C913 C912 1.367 . S
C913 C921 1.433 . S
C914 H910 0.929 . S
C914 C916 1.378 . S
C914 C918 1.350 . S
C915 C918 1.463 . S
C915 C920 1.350 . S
C915 N923 1.427 . S
C916 H907 0.930 . S
C916 C914 1.378 . S
C916 C917 1.367 . S
C917 C916 1.367 . S
C917 C919 1.433 . S
C918 C914 1.350 . S
C918 C915 1.463 . S
C918 N922 1.427 . S
C919 H909 0.929 . S
C919 C917 1.433 . S
C919 N922 1.384 . S
C920 H911 0.929 . S
C920 C912 1.378 . S
C920 C915 1.350 . S
C921 H908 0.929 . S
C921 C913 1.433 . S
C921 N923 1.384 . S
N922 C918 1.427 . S
N922 C919 1.384 . S
N923 C915 1.427 . S
N923 C921 1.384 . S
H924 C930 0.930 . S
H925 C934 0.930 . S
H926 C939 0.929 . S
H927 C937 0.929 . S
H928 C932 0.929 . S
H929 C938 0.929 . S
C930 H924 0.930 . S
C930 C931 1.367 . S
C930 C938 1.378 . S
C931 C930 1.367 . S
C931 C939 1.433 . S
C932 H928 0.929 . S
C932 C934 1.378 . S
C932 C936 1.350 . S
C933 C936 1.463 . S
C933 C938 1.350 . S
C933 N941 1.427 . S
C934 H925 0.930 . S
C934 C932 1.378 . S
C934 C935 1.367 . S
C935 C934 1.367 . S
C935 C937 1.433 . S
C936 C932 1.350 . S
C936 C933 1.463 . S
C936 N940 1.427 . S
C937 H927 0.929 . S
C937 C935 1.433 . S
C937 N940 1.384 . S
C938 H929 0.929 . S
C938 C930 1.378 . S
C938 C933 1.350 . S
C939 H926 0.929 . S
C939 C931 1.433 . S
C939 N941 1.384 . S
N940 C936 1.427 . S
N940 C937 1.384 . S
N941 C933 1.427 . S
N941 C939 1.384 . S
H942 C948 0.930 . S
H943 C952 0.930 . S
H944 C957 0.929 . S
H945 C955 0.929 . S
H946 C950 0.929 . S
H947 C956 0.929 . S
C948 H942 0.930 . S
C948 C949 1.367 . S
C948 C956 1.378 . S
C949 C948 1.367 . S
C949 C957 1.433 . S
C950 H946 0.929 . S
C950 C952 1.378 . S
C950 C954 1.350 . S
C951 C954 1.463 . S
C951 C956 1.350 . S
C951 N959 1.427 . S
C952 H943 0.930 . S
C952 C950 1.378 . S
C952 C953 1.367 . S
C953 C952 1.367 . S
C953 C955 1.433 . S
C954 C950 1.350 . S
C954 C951 1.463 . S
C954 N958 1.427 . S
C955 H945 0.929 . S
C955 C953 1.433 . S
C955 N958 1.384 . S
C956 H947 0.929 . S
C956 C948 1.378 . S
C956 C951 1.350 . S
C957 H944 0.929 . S
C957 C949 1.433 . S
C957 N959 1.384 . S
N958 C954 1.427 . S
N958 C955 1.384 . S
N959 C951 1.427 . S
N959 C957 1.384 . S
H960 C966 0.930 . S
H961 C970 0.930 . S
H962 C975 0.929 . S
H963 C973 0.929 . S
H964 C968 0.929 . S
H965 C974 0.929 . S
C966 H960 0.930 . S
C966 C967 1.367 . S
C966 C974 1.378 . S
C967 C966 1.367 . S
C967 C975 1.433 . S
C968 H964 0.929 . S
C968 C970 1.378 . S
C968 C972 1.350 . S
C969 C972 1.463 . S
C969 C974 1.350 . S
C969 N977 1.427 . S
C970 H961 0.930 . S
C970 C968 1.378 . S
C970 C971 1.367 . S
C971 C970 1.367 . S
C971 C973 1.433 . S
C972 C968 1.350 . S
C972 C969 1.463 . S
C972 N976 1.427 . S
C973 H963 0.929 . S
C973 C971 1.433 . S
C973 N976 1.384 . S
C974 H965 0.929 . S
C974 C966 1.378 . S
C974 C969 1.350 . S
C975 H962 0.929 . S
C975 C967 1.433 . S
C975 N977 1.384 . S
N976 C972 1.427 . S
N976 C973 1.384 . S
N977 C969 1.427 . S
N977 C975 1.384 . S
H978 C984 0.930 . S
H979 C988 0.930 . S
H980 C993 0.929 . S
H981 C991 0.929 . S
H982 C986 0.929 . S
H983 C992 0.929 . S
C984 H978 0.930 . S
C984 C985 1.367 . S
C984 C992 1.378 . S
C985 C984 1.367 . S
C985 C993 1.433 . S
C986 H982 0.929 . S
C986 C988 1.378 . S
C986 C990 1.350 . S
C987 C990 1.463 . S
C987 C992 1.350 . S
C987 N995 1.427 . S
C988 H979 0.930 . S
C988 C986 1.378 . S
C988 C989 1.367 . S
C989 C988 1.367 . S
C989 C991 1.433 . S
C990 C986 1.350 . S
C990 C987 1.463 . S
C990 N994 1.427 . S
C991 H981 0.929 . S
C991 C989 1.433 . S
C991 N994 1.384 . S
C992 H983 0.929 . S
C992 C984 1.378 . S
C992 C987 1.350 . S
C993 H980 0.929 . S
C993 C985 1.433 . S
C993 N995 1.384 . S
N994 C990 1.427 . S
N994 C991 1.384 . S
N995 C987 1.427 . S
N995 C993 1.384 . S
H996 C1002 0.930 . S
H997 C1006 0.930 . S
H998 C1011 0.929 . S
H999 C1009 0.929 . S
H1000 C1004 0.929 . S
H1001 C1010 0.929 . S
C1002 H996 0.930 . S
C1002 C1003 1.367 . S
C1002 C1010 1.378 . S
C1003 C1002 1.367 . S
C1003 C1011 1.433 . S
C1004 H1000 0.929 . S
C1004 C1006 1.378 . S
C1004 C1008 1.350 . S
C1005 C1008 1.463 . S
C1005 C1010 1.350 . S
C1005 N1013 1.427 . S
C1006 H997 0.930 . S
C1006 C1004 1.378 . S
C1006 C1007 1.367 . S
C1007 C1006 1.367 . S
C1007 C1009 1.433 . S
C1008 C1004 1.350 . S
C1008 C1005 1.463 . S
C1008 N1012 1.427 . S
C1009 H999 0.929 . S
C1009 C1007 1.433 . S
C1009 N1012 1.384 . S
C1010 H1001 0.929 . S
C1010 C1002 1.378 . S
C1010 C1005 1.350 . S
C1011 H998 0.929 . S
C1011 C1003 1.433 . S
C1011 N1013 1.384 . S
N1012 C1008 1.427 . S
N1012 C1009 1.384 . S
N1013 C1005 1.427 . S
N1013 C1011 1.384 . S
H1014 C1020 0.930 . S
H1015 C1024 0.930 . S
H1016 C1029 0.929 . S
H1017 C1027 0.929 . S
H1018 C1022 0.929 . S
H1019 C1028 0.929 . S
C1020 H1014 0.930 . S
C1020 C1021 1.367 . S
C1020 C1028 1.378 . S
C1021 C1020 1.367 . S
C1021 C1029 1.433 . S
C1022 H1018 0.929 . S
C1022 C1024 1.378 . S
C1022 C1026 1.350 . S
C1023 C1026 1.463 . S
C1023 C1028 1.350 . S
C1023 N1031 1.427 . S
C1024 H1015 0.930 . S
C1024 C1022 1.378 . S
C1024 C1025 1.367 . S
C1025 C1024 1.367 . S
C1025 C1027 1.433 . S
C1026 C1022 1.350 . S
C1026 C1023 1.463 . S
C1026 N1030 1.427 . S
C1027 H1017 0.929 . S
C1027 C1025 1.433 . S
C1027 N1030 1.384 . S
C1028 H1019 0.929 . S
C1028 C1020 1.378 . S
C1028 C1023 1.350 . S
C1029 H1016 0.929 . S
C1029 C1021 1.433 . S
C1029 N1031 1.384 . S
N1030 C1026 1.427 . S
N1030 C1027 1.384 . S
N1031 C1023 1.427 . S
N1031 C1029 1.384 . S
H1032 C1038 0.930 . S
H1033 C1042 0.930 . S
H1034 C1047 0.929 . S
H1035 C1045 0.929 . S
H1036 C1040 0.929 . S
H1037 C1046 0.929 . S
C1038 H1032 0.930 . S
C1038 C1039 1.367 . S
C1038 C1046 1.378 . S
C1039 C1038 1.367 . S
C1039 C1047 1.433 . S
C1040 H1036 0.929 . S
C1040 C1042 1.378 . S
C1040 C1044 1.350 . S
C1041 C1044 1.463 . S
C1041 C1046 1.350 . S
C1041 N1049 1.427 . S
C1042 H1033 0.930 . S
C1042 C1040 1.378 . S
C1042 C1043 1.367 . S
C1043 C1042 1.367 . S
C1043 C1045 1.433 . S
C1044 C1040 1.350 . S
C1044 C1041 1.463 . S
C1044 N1048 1.427 . S
C1045 H1035 0.929 . S
C1045 C1043 1.433 . S
C1045 N1048 1.384 . S
C1046 H1037 0.929 . S
C1046 C1038 1.378 . S
C1046 C1041 1.350 . S
C1047 H1034 0.929 . S
C1047 C1039 1.433 . S
C1047 N1049 1.384 . S
N1048 C1044 1.427 . S
N1048 C1045 1.384 . S
N1049 C1041 1.427 . S
N1049 C1047 1.384 . S
H1050 C1056 0.930 . S
H1051 C1060 0.930 1_556 S
H1052 C1065 0.929 . S
H1053 C1063 0.929 . S
H1054 C1058 0.929 . S
H1055 C1064 0.929 . S
C1056 H1050 0.930 . S
C1056 C1057 1.367 . S
C1056 C1064 1.378 . S
C1057 C1056 1.367 . S
C1057 C1065 1.433 . S
C1058 H1054 0.929 . S
C1058 C1060 1.378 . S
C1058 C1062 1.350 . S
C1059 C1062 1.463 . S
C1059 C1064 1.350 . S
C1059 N1067 1.427 . S
C1060 H1051 0.930 1_554 S
C1060 C1058 1.378 . S
C1060 C1061 1.367 . S
C1061 C1060 1.367 . S
C1061 C1063 1.433 . S
C1062 C1058 1.350 . S
C1062 C1059 1.463 . S
C1062 N1066 1.427 . S
C1063 H1053 0.929 . S
C1063 C1061 1.433 . S
C1063 N1066 1.384 . S
C1064 H1055 0.929 . S
C1064 C1056 1.378 . S
C1064 C1059 1.350 . S
C1065 H1052 0.929 . S
C1065 C1057 1.433 . S
C1065 N1067 1.384 . S
N1066 C1062 1.427 . S
N1066 C1063 1.384 . S
N1067 C1059 1.427 . S
N1067 C1065 1.384 . S
H1068 C1074 0.930 . S
H1069 C1078 0.930 . S
H1070 C1083 0.929 . S
H1071 C1081 0.929 . S
H1072 C1076 0.929 . S
H1073 C1082 0.929 . S
C1074 H1068 0.930 . S
C1074 C1075 1.367 . S
C1074 C1082 1.378 . S
C1075 C1074 1.367 . S
C1075 C1083 1.433 . S
C1076 H1072 0.929 . S
C1076 C1078 1.378 . S
C1076 C1080 1.350 . S
C1077 C1080 1.463 . S
C1077 C1082 1.350 . S
C1077 N1085 1.427 . S
C1078 H1069 0.930 . S
C1078 C1076 1.378 . S
C1078 C1079 1.367 . S
C1079 C1078 1.367 . S
C1079 C1081 1.433 . S
C1080 C1076 1.350 . S
C1080 C1077 1.463 . S
C1080 N1084 1.427 . S
C1081 H1071 0.929 . S
C1081 C1079 1.433 . S
C1081 N1084 1.384 . S
C1082 H1073 0.929 . S
C1082 C1074 1.378 . S
C1082 C1077 1.350 . S
C1083 H1070 0.929 . S
C1083 C1075 1.433 . S
C1083 N1085 1.384 . S
N1084 C1080 1.427 . S
N1084 C1081 1.384 . S
N1085 C1077 1.427 . S
N1085 C1083 1.384 . S
H1086 C1092 0.930 . S
H1087 C1096 0.930 . S
H1088 C1101 0.929 . S
H1089 C1099 0.929 . S
H1090 C1094 0.929 . S
H1091 C1100 0.929 . S
C1092 H1086 0.930 . S
C1092 C1093 1.367 . S
C1092 C1100 1.378 . S
C1093 C1092 1.367 . S
C1093 C1101 1.433 . S
C1094 H1090 0.929 . S
C1094 C1096 1.378 . S
C1094 C1098 1.350 . S
C1095 C1098 1.463 . S
C1095 C1100 1.350 . S
C1095 N1103 1.427 . S
C1096 H1087 0.930 . S
C1096 C1094 1.378 . S
C1096 C1097 1.367 . S
C1097 C1096 1.367 . S
C1097 C1099 1.433 . S
C1098 C1094 1.350 . S
C1098 C1095 1.463 . S
C1098 N1102 1.427 . S
C1099 H1089 0.929 . S
C1099 C1097 1.433 . S
C1099 N1102 1.384 . S
C1100 H1091 0.929 . S
C1100 C1092 1.378 . S
C1100 C1095 1.350 . S
C1101 H1088 0.929 . S
C1101 C1093 1.433 . S
C1101 N1103 1.384 . S
N1102 C1098 1.427 . S
N1102 C1099 1.384 . S
N1103 C1095 1.427 . S
N1103 C1101 1.384 . S
H1104 C1110 0.930 . S
H1105 C1114 0.930 . S
H1106 C1119 0.929 . S
H1107 C1117 0.929 . S
H1108 C1112 0.929 . S
H1109 C1118 0.929 . S
C1110 H1104 0.930 . S
C1110 C1111 1.367 . S
C1110 C1118 1.378 . S
C1111 C1110 1.367 . S
C1111 C1119 1.433 . S
C1112 H1108 0.929 . S
C1112 C1114 1.378 . S
C1112 C1116 1.350 . S
C1113 C1116 1.463 . S
C1113 C1118 1.350 . S
C1113 N1121 1.427 . S
C1114 H1105 0.930 . S
C1114 C1112 1.378 . S
C1114 C1115 1.367 . S
C1115 C1114 1.367 . S
C1115 C1117 1.433 . S
C1116 C1112 1.350 . S
C1116 C1113 1.463 . S
C1116 N1120 1.427 . S
C1117 H1107 0.929 . S
C1117 C1115 1.433 . S
C1117 N1120 1.384 . S
C1118 H1109 0.929 . S
C1118 C1110 1.378 . S
C1118 C1113 1.350 . S
C1119 H1106 0.929 . S
C1119 C1111 1.433 . S
C1119 N1121 1.384 . S
N1120 C1116 1.427 . S
N1120 C1117 1.384 . S
N1121 C1113 1.427 . S
N1121 C1119 1.384 . S
H1122 C1128 0.930 . S
H1123 C1132 0.930 . S
H1124 C1137 0.929 . S
H1125 C1135 0.929 . S
H1126 C1130 0.929 . S
H1127 C1136 0.929 . S
C1128 H1122 0.930 . S
C1128 C1129 1.367 . S
C1128 C1136 1.378 . S
C1129 C1128 1.367 . S
C1129 C1137 1.433 . S
C1130 H1126 0.929 . S
C1130 C1132 1.378 . S
C1130 C1134 1.350 . S
C1131 C1134 1.463 . S
C1131 C1136 1.350 . S
C1131 N1139 1.427 . S
C1132 H1123 0.930 . S
C1132 C1130 1.378 . S
C1132 C1133 1.367 . S
C1133 C1132 1.367 . S
C1133 C1135 1.433 . S
C1134 C1130 1.350 . S
C1134 C1131 1.463 . S
C1134 N1138 1.427 . S
C1135 H1125 0.929 . S
C1135 C1133 1.433 . S
C1135 N1138 1.384 . S
C1136 H1127 0.929 . S
C1136 C1128 1.378 . S
C1136 C1131 1.350 . S
C1137 H1124 0.929 . S
C1137 C1129 1.433 . S
C1137 N1139 1.384 . S
N1138 C1134 1.427 . S
N1138 C1135 1.384 . S
N1139 C1131 1.427 . S
N1139 C1137 1.384 . S
H1140 C1146 0.930 . S
H1141 C1150 0.930 . S
H1142 C1155 0.929 . S
H1143 C1153 0.929 . S
H1144 C1148 0.929 . S
H1145 C1154 0.929 . S
C1146 H1140 0.930 . S
C1146 C1147 1.367 . S
C1146 C1154 1.378 . S
C1147 C1146 1.367 . S
C1147 C1155 1.433 . S
C1148 H1144 0.929 . S
C1148 C1150 1.378 . S
C1148 C1152 1.350 . S
C1149 C1152 1.463 . S
C1149 C1154 1.350 . S
C1149 N1157 1.427 . S
C1150 H1141 0.930 . S
C1150 C1148 1.378 . S
C1150 C1151 1.367 . S
C1151 C1150 1.367 . S
C1151 C1153 1.433 . S
C1152 C1148 1.350 . S
C1152 C1149 1.463 . S
C1152 N1156 1.427 . S
C1153 H1143 0.929 . S
C1153 C1151 1.433 . S
C1153 N1156 1.384 . S
C1154 H1145 0.929 . S
C1154 C1146 1.378 . S
C1154 C1149 1.350 . S
C1155 H1142 0.929 . S
C1155 C1147 1.433 . S
C1155 N1157 1.384 . S
N1156 C1152 1.427 . S
N1156 C1153 1.384 . S
N1157 C1149 1.427 . S
N1157 C1155 1.384 . S
H1158 C1164 0.930 . S
H1159 C1168 0.951 . S
H1160 C1173 0.929 . S
H1161 C1171 0.929 . S
H1162 C1166 0.929 . S
H1163 C1172 0.929 . S
C1164 H1158 0.930 . S
C1164 C1165 1.367 . S
C1164 C1172 1.378 . S
C1165 C1164 1.367 . S
C1165 C1173 1.433 . S
C1166 H1162 0.929 . S
C1166 C1168 1.378 . S
C1166 C1170 1.350 . S
C1167 C1170 1.463 . S
C1167 C1172 1.350 . S
C1167 N1175 1.427 . S
C1168 H1159 0.951 . S
C1168 C1166 1.378 . S
C1168 C1169 1.367 . S
C1169 C1168 1.367 . S
C1169 C1171 1.433 . S
C1170 C1166 1.350 . S
C1170 C1167 1.463 . S
C1170 N1174 1.427 . S
C1171 H1161 0.929 . S
C1171 C1169 1.433 . S
C1171 N1174 1.384 . S
C1172 H1163 0.929 . S
C1172 C1164 1.378 . S
C1172 C1167 1.350 . S
C1173 H1160 0.929 . S
C1173 C1165 1.433 . S
C1173 N1175 1.384 . S
N1174 C1170 1.427 . S
N1174 C1171 1.384 . S
N1175 C1167 1.427 . S
N1175 C1173 1.384 . S
H1176 C1182 0.930 . S
H1177 C1186 0.930 . S
H1178 C1191 0.929 . S
H1179 C1189 0.929 . S
H1180 C1184 0.929 . S
H1181 C1190 0.929 . S
C1182 H1176 0.930 . S
C1182 C1183 1.367 . S
C1182 C1190 1.378 . S
C1183 C1182 1.367 . S
C1183 C1191 1.433 . S
C1184 H1180 0.929 . S
C1184 C1186 1.378 . S
C1184 C1188 1.350 . S
C1185 C1188 1.463 . S
C1185 C1190 1.350 . S
C1185 N1193 1.427 . S
C1186 H1177 0.930 . S
C1186 C1184 1.378 . S
C1186 C1187 1.367 . S
C1187 C1186 1.367 . S
C1187 C1189 1.433 . S
C1188 C1184 1.350 . S
C1188 C1185 1.463 . S
C1188 N1192 1.427 . S
C1189 H1179 0.929 . S
C1189 C1187 1.433 . S
C1189 N1192 1.384 . S
C1190 H1181 0.929 . S
C1190 C1182 1.378 . S
C1190 C1185 1.350 . S
C1191 H1178 0.929 . S
C1191 C1183 1.433 . S
C1191 N1193 1.384 . S
N1192 C1188 1.427 . S
N1192 C1189 1.384 . S
N1193 C1185 1.427 . S
N1193 C1191 1.384 . S
H1194 C1200 0.930 . S
H1195 C1204 0.930 . S
H1196 C1209 0.929 . S
H1197 C1207 0.929 . S
H1198 C1202 0.929 . S
H1199 C1208 0.929 . S
C1200 H1194 0.930 . S
C1200 C1201 1.367 . S
C1200 C1208 1.378 . S
C1201 C1200 1.367 . S
C1201 C1209 1.433 . S
C1202 H1198 0.929 . S
C1202 C1204 1.378 . S
C1202 C1206 1.350 . S
C1203 C1206 1.463 . S
C1203 C1208 1.350 . S
C1203 N1211 1.427 . S
C1204 H1195 0.930 . S
C1204 C1202 1.378 . S
C1204 C1205 1.367 . S
C1205 C1204 1.367 . S
C1205 C1207 1.433 . S
C1206 C1202 1.350 . S
C1206 C1203 1.463 . S
C1206 N1210 1.427 . S
C1207 H1197 0.929 . S
C1207 C1205 1.433 . S
C1207 N1210 1.384 . S
C1208 H1199 0.929 . S
C1208 C1200 1.378 . S
C1208 C1203 1.350 . S
C1209 H1196 0.929 . S
C1209 C1201 1.433 . S
C1209 N1211 1.384 . S
N1210 C1206 1.427 . S
N1210 C1207 1.384 . S
N1211 C1203 1.427 . S
N1211 C1209 1.384 . S
H1212 C1218 0.930 . S
H1213 C1222 0.930 . S
H1214 C1227 0.929 . S
H1215 C1225 0.929 . S
H1216 C1220 0.929 . S
H1217 C1226 0.929 . S
C1218 H1212 0.930 . S
C1218 C1219 1.367 . S
C1218 C1226 1.378 . S
C1219 C1218 1.367 . S
C1219 C1227 1.433 . S
C1220 H1216 0.929 . S
C1220 C1222 1.378 . S
C1220 C1224 1.350 . S
C1221 C1224 1.463 . S
C1221 C1226 1.350 . S
C1221 N1229 1.427 . S
C1222 H1213 0.930 . S
C1222 C1220 1.378 . S
C1222 C1223 1.367 . S
C1223 C1222 1.367 . S
C1223 C1225 1.433 . S
C1224 C1220 1.350 . S
C1224 C1221 1.463 . S
C1224 N1228 1.427 . S
C1225 H1215 0.929 . S
C1225 C1223 1.433 . S
C1225 N1228 1.384 . S
C1226 H1217 0.929 . S
C1226 C1218 1.378 . S
C1226 C1221 1.350 . S
C1227 H1214 0.929 . S
C1227 C1219 1.433 . S
C1227 N1229 1.384 . S
N1228 C1224 1.427 . S
N1228 C1225 1.384 . S
N1229 C1221 1.427 . S
N1229 C1227 1.384 . S
H1230 C1236 0.930 . S
H1231 C1240 0.930 . S
H1232 C1245 0.929 . S
H1233 C1243 0.929 . S
H1234 C1238 0.929 . S
H1235 C1244 0.929 . S
C1236 H1230 0.930 . S
C1236 C1237 1.367 . S
C1236 C1244 1.378 . S
C1237 C1236 1.367 . S
C1237 C1245 1.433 . S
C1238 H1234 0.929 . S
C1238 C1240 1.378 . S
C1238 C1242 1.350 . S
C1239 C1242 1.463 . S
C1239 C1244 1.350 . S
C1239 N1247 1.427 . S
C1240 H1231 0.930 . S
C1240 C1238 1.378 . S
C1240 C1241 1.367 . S
C1241 C1240 1.367 . S
C1241 C1243 1.433 . S
C1242 C1238 1.350 . S
C1242 C1239 1.463 . S
C1242 N1246 1.427 . S
C1243 H1233 0.929 . S
C1243 C1241 1.433 . S
C1243 N1246 1.384 . S
C1244 H1235 0.929 . S
C1244 C1236 1.378 . S
C1244 C1239 1.350 . S
C1245 H1232 0.929 . S
C1245 C1237 1.433 . S
C1245 N1247 1.384 . S
N1246 C1242 1.427 . S
N1246 C1243 1.384 . S
N1247 C1239 1.427 . S
N1247 C1245 1.384 . S
H1248 C1254 0.930 . S
H1249 C1258 0.930 . S
H1250 C1263 0.929 . S
H1251 C1261 0.929 . S
H1252 C1256 0.929 . S
H1253 C1262 0.929 . S
C1254 H1248 0.930 . S
C1254 C1255 1.367 . S
C1254 C1262 1.378 . S
C1255 C1254 1.367 . S
C1255 C1263 1.433 . S
C1256 H1252 0.929 . S
C1256 C1258 1.378 . S
C1256 C1260 1.350 . S
C1257 C1260 1.463 . S
C1257 C1262 1.350 . S
C1257 N1265 1.427 . S
C1258 H1249 0.930 . S
C1258 C1256 1.378 . S
C1258 C1259 1.367 . S
C1259 C1258 1.367 . S
C1259 C1261 1.433 . S
C1260 C1256 1.350 . S
C1260 C1257 1.463 . S
C1260 N1264 1.427 . S
C1261 H1251 0.929 . S
C1261 C1259 1.433 . S
C1261 N1264 1.384 . S
C1262 H1253 0.929 . S
C1262 C1254 1.378 . S
C1262 C1257 1.350 . S
C1263 H1250 0.929 . S
C1263 C1255 1.433 . S
C1263 N1265 1.384 . S
N1264 C1260 1.427 . S
N1264 C1261 1.384 . S
N1265 C1257 1.427 . S
N1265 C1263 1.384 . S
H1266 C1272 0.930 . S
H1267 C1276 0.930 . S
H1268 C1281 0.929 . S
H1269 C1279 0.929 . S
H1270 C1274 0.929 . S
H1271 C1280 0.929 . S
C1272 H1266 0.930 . S
C1272 C1273 1.367 . S
C1272 C1280 1.378 . S
C1273 C1272 1.367 . S
C1273 C1281 1.433 . S
C1274 H1270 0.929 . S
C1274 C1276 1.378 . S
C1274 C1278 1.350 . S
C1275 C1278 1.463 . S
C1275 C1280 1.350 . S
C1275 N1283 1.427 . S
C1276 H1267 0.930 . S
C1276 C1274 1.378 . S
C1276 C1277 1.367 . S
C1277 C1276 1.367 . S
C1277 C1279 1.433 . S
C1278 C1274 1.350 . S
C1278 C1275 1.463 . S
C1278 N1282 1.427 . S
C1279 H1269 0.929 . S
C1279 C1277 1.433 . S
C1279 N1282 1.384 . S
C1280 H1271 0.929 . S
C1280 C1272 1.378 . S
C1280 C1275 1.350 . S
C1281 H1268 0.929 . S
C1281 C1273 1.433 . S
C1281 N1283 1.384 . S
N1282 C1278 1.427 . S
N1282 C1279 1.384 . S
N1283 C1275 1.427 . S
N1283 C1281 1.384 . S
H1284 C1290 0.930 . S
H1285 C1294 0.930 . S
H1286 C1299 0.929 . S
H1287 C1297 0.929 . S
H1288 C1292 0.929 . S
H1289 C1298 0.929 . S
C1290 H1284 0.930 . S
C1290 C1291 1.367 . S
C1290 C1298 1.378 . S
C1291 C1290 1.367 . S
C1291 C1299 1.433 . S
C1292 H1288 0.929 . S
C1292 C1294 1.378 . S
C1292 C1296 1.350 . S
C1293 C1296 1.463 . S
C1293 C1298 1.350 . S
C1293 N1301 1.427 . S
C1294 H1285 0.930 . S
C1294 C1292 1.378 . S
C1294 C1295 1.367 . S
C1295 C1294 1.367 . S
C1295 C1297 1.433 . S
C1296 C1292 1.350 . S
C1296 C1293 1.463 . S
C1296 N1300 1.427 . S
C1297 H1287 0.929 . S
C1297 C1295 1.433 . S
C1297 N1300 1.384 . S
C1298 H1289 0.929 . S
C1298 C1290 1.378 . S
C1298 C1293 1.350 . S
C1299 H1286 0.929 . S
C1299 C1291 1.433 . S
C1299 N1301 1.384 . S
N1300 C1296 1.427 . S
N1300 C1297 1.384 . S
N1301 C1293 1.427 . S
N1301 C1299 1.384 . S
H1302 C1308 0.930 . S
H1303 C1312 0.930 . S
H1304 C1317 0.929 . S
H1305 C1315 0.929 . S
H1306 C1310 0.929 . S
H1307 C1316 0.929 . S
C1308 H1302 0.930 . S
C1308 C1309 1.367 . S
C1308 C1316 1.378 . S
C1309 C1308 1.367 . S
C1309 C1317 1.433 . S
C1310 H1306 0.929 . S
C1310 C1312 1.378 . S
C1310 C1314 1.350 . S
C1311 C1314 1.463 . S
C1311 C1316 1.350 . S
C1311 N1319 1.427 . S
C1312 H1303 0.930 . S
C1312 C1310 1.378 . S
C1312 C1313 1.367 . S
C1313 C1312 1.367 . S
C1313 C1315 1.433 . S
C1314 C1310 1.350 . S
C1314 C1311 1.463 . S
C1314 N1318 1.427 . S
C1315 H1305 0.929 . S
C1315 C1313 1.433 . S
C1315 N1318 1.384 . S
C1316 H1307 0.929 . S
C1316 C1308 1.378 . S
C1316 C1311 1.350 . S
C1317 H1304 0.929 . S
C1317 C1309 1.433 . S
C1317 N1319 1.384 . S
N1318 C1314 1.427 . S
N1318 C1315 1.384 . S
N1319 C1311 1.427 . S
N1319 C1317 1.384 . S
H1320 C1326 0.930 . S
H1321 C1330 0.930 . S
H1322 C1335 0.929 . S
H1323 C1333 0.929 . S
H1324 C1328 0.929 . S
H1325 C1334 0.929 . S
C1326 H1320 0.930 . S
C1326 C1327 1.367 . S
C1326 C1334 1.378 . S
C1327 C1326 1.367 . S
C1327 C1335 1.433 . S
C1328 H1324 0.929 . S
C1328 C1330 1.378 . S
C1328 C1332 1.350 . S
C1329 C1332 1.463 . S
C1329 C1334 1.350 . S
C1329 N1337 1.427 . S
C1330 H1321 0.930 . S
C1330 C1328 1.378 . S
C1330 C1331 1.367 . S
C1331 C1330 1.367 . S
C1331 C1333 1.433 . S
C1332 C1328 1.350 . S
C1332 C1329 1.463 . S
C1332 N1336 1.427 . S
C1333 H1323 0.929 . S
C1333 C1331 1.433 . S
C1333 N1336 1.384 . S
C1334 H1325 0.929 . S
C1334 C1326 1.378 . S
C1334 C1329 1.350 . S
C1335 H1322 0.929 . S
C1335 C1327 1.433 . S
C1335 N1337 1.384 . S
N1336 C1332 1.427 . S
N1336 C1333 1.384 . S
N1337 C1329 1.427 . S
N1337 C1335 1.384 . S
H1338 C1344 0.930 . S
H1339 C1348 0.930 . S
H1340 C1353 0.929 . S
H1341 C1351 0.929 . S
H1342 C1346 0.929 . S
H1343 C1352 0.929 . S
C1344 H1338 0.930 . S
C1344 C1345 1.367 . S
C1344 C1352 1.378 . S
C1345 C1344 1.367 . S
C1345 C1353 1.433 . S
C1346 H1342 0.929 . S
C1346 C1348 1.378 . S
C1346 C1350 1.350 . S
C1347 C1350 1.463 . S
C1347 C1352 1.350 . S
C1347 N1355 1.427 . S
C1348 H1339 0.930 . S
C1348 C1346 1.378 . S
C1348 C1349 1.367 . S
C1349 C1348 1.367 . S
C1349 C1351 1.433 . S
C1350 C1346 1.350 . S
C1350 C1347 1.463 . S
C1350 N1354 1.427 . S
C1351 H1341 0.929 . S
C1351 C1349 1.433 . S
C1351 N1354 1.384 . S
C1352 H1343 0.929 . S
C1352 C1344 1.378 . S
C1352 C1347 1.350 . S
C1353 H1340 0.929 . S
C1353 C1345 1.433 . S
C1353 N1355 1.384 . S
N1354 C1350 1.427 . S
N1354 C1351 1.384 . S
N1355 C1347 1.427 . S
N1355 C1353 1.384 . S
H1356 C1362 0.930 . S
H1357 C1366 0.930 . S
H1358 C1371 0.929 . S
H1359 C1369 0.929 . S
H1360 C1364 0.929 . S
H1361 C1370 0.929 . S
C1362 H1356 0.930 . S
C1362 C1363 1.367 . S
C1362 C1370 1.378 . S
C1363 C1362 1.367 . S
C1363 C1371 1.433 . S
C1364 H1360 0.929 . S
C1364 C1366 1.378 . S
C1364 C1368 1.350 . S
C1365 C1368 1.463 . S
C1365 C1370 1.350 . S
C1365 N1373 1.427 . S
C1366 H1357 0.930 . S
C1366 C1364 1.378 . S
C1366 C1367 1.367 . S
C1367 C1366 1.367 . S
C1367 C1369 1.433 . S
C1368 C1364 1.350 . S
C1368 C1365 1.463 . S
C1368 N1372 1.427 . S
C1369 H1359 0.929 . S
C1369 C1367 1.433 . S
C1369 N1372 1.384 . S
C1370 H1361 0.929 . S
C1370 C1362 1.378 . S
C1370 C1365 1.350 . S
C1371 H1358 0.929 . S
C1371 C1363 1.433 . S
C1371 N1373 1.384 . S
N1372 C1368 1.427 . S
N1372 C1369 1.384 . S
N1373 C1365 1.427 . S
N1373 C1371 1.384 . S
H1374 C1380 0.930 . S
H1375 C1384 0.930 . S
H1376 C1389 0.929 . S
H1377 C1387 0.929 . S
H1378 C1382 0.929 . S
H1379 C1388 0.929 . S
C1380 H1374 0.930 . S
C1380 C1381 1.367 . S
C1380 C1388 1.378 . S
C1381 C1380 1.367 . S
C1381 C1389 1.433 . S
C1382 H1378 0.929 . S
C1382 C1384 1.378 . S
C1382 C1386 1.350 . S
C1383 C1386 1.463 . S
C1383 C1388 1.350 . S
C1383 N1391 1.427 . S
C1384 H1375 0.930 . S
C1384 C1382 1.378 . S
C1384 C1385 1.367 . S
C1385 C1384 1.367 . S
C1385 C1387 1.433 . S
C1386 C1382 1.350 . S
C1386 C1383 1.463 . S
C1386 N1390 1.427 . S
C1387 H1377 0.929 . S
C1387 C1385 1.433 . S
C1387 N1390 1.384 . S
C1388 H1379 0.929 . S
C1388 C1380 1.378 . S
C1388 C1383 1.350 . S
C1389 H1376 0.929 . S
C1389 C1381 1.433 . S
C1389 N1391 1.384 . S
N1390 C1386 1.427 . S
N1390 C1387 1.384 . S
N1391 C1383 1.427 . S
N1391 C1389 1.384 . S
H1392 C1398 0.930 . S
H1393 C1402 0.930 . S
H1394 C1407 0.929 . S
H1395 C1405 0.929 . S
H1396 C1400 0.929 . S
H1397 C1406 0.929 . S
C1398 H1392 0.930 . S
C1398 C1399 1.367 . S
C1398 C1406 1.378 . S
C1399 C1398 1.367 . S
C1399 C1407 1.433 . S
C1400 H1396 0.929 . S
C1400 C1402 1.378 . S
C1400 C1404 1.350 . S
C1401 C1404 1.463 . S
C1401 C1406 1.350 . S
C1401 N1409 1.427 . S
C1402 H1393 0.930 . S
C1402 C1400 1.378 . S
C1402 C1403 1.367 . S
C1403 C1402 1.367 . S
C1403 C1405 1.433 . S
C1404 C1400 1.350 . S
C1404 C1401 1.463 . S
C1404 N1408 1.427 . S
C1405 H1395 0.929 . S
C1405 C1403 1.433 . S
C1405 N1408 1.384 . S
C1406 H1397 0.929 . S
C1406 C1398 1.378 . S
C1406 C1401 1.350 . S
C1407 H1394 0.929 . S
C1407 C1399 1.433 . S
C1407 N1409 1.384 . S
N1408 C1404 1.427 . S
N1408 C1405 1.384 . S
N1409 C1401 1.427 . S
N1409 C1407 1.384 . S
H1410 C1416 0.930 . S
H1411 C1420 0.930 . S
H1412 C1425 0.929 . S
H1413 C1423 0.929 . S
H1414 C1418 0.929 . S
H1415 C1424 0.929 . S
C1416 H1410 0.930 . S
C1416 C1417 1.367 . S
C1416 C1424 1.378 . S
C1417 C1416 1.367 . S
C1417 C1425 1.433 . S
C1418 H1414 0.929 . S
C1418 C1420 1.378 . S
C1418 C1422 1.350 . S
C1419 C1422 1.463 . S
C1419 C1424 1.350 . S
C1419 N1427 1.427 . S
C1420 H1411 0.930 . S
C1420 C1418 1.378 . S
C1420 C1421 1.367 . S
C1421 C1420 1.367 . S
C1421 C1423 1.433 . S
C1422 C1418 1.350 . S
C1422 C1419 1.463 . S
C1422 N1426 1.427 . S
C1423 H1413 0.929 . S
C1423 C1421 1.433 . S
C1423 N1426 1.384 . S
C1424 H1415 0.929 . S
C1424 C1416 1.378 . S
C1424 C1419 1.350 . S
C1425 H1412 0.929 . S
C1425 C1417 1.433 . S
C1425 N1427 1.384 . S
N1426 C1422 1.427 . S
N1426 C1423 1.384 . S
N1427 C1419 1.427 . S
N1427 C1425 1.384 . S
H1428 C1434 0.930 . S
H1429 C1438 0.930 . S
H1430 C1443 0.929 . S
H1431 C1441 0.929 . S
H1432 C1436 0.929 . S
H1433 C1442 0.929 . S
C1434 H1428 0.930 . S
C1434 C1435 1.367 . S
C1434 C1442 1.378 . S
C1435 C1434 1.367 . S
C1435 C1443 1.433 . S
C1436 H1432 0.929 . S
C1436 C1438 1.378 . S
C1436 C1440 1.350 . S
C1437 C1440 1.463 . S
C1437 C1442 1.350 . S
C1437 N1445 1.427 . S
C1438 H1429 0.930 . S
C1438 C1436 1.378 . S
C1438 C1439 1.367 . S
C1439 C1438 1.367 . S
C1439 C1441 1.433 . S
C1440 C1436 1.350 . S
C1440 C1437 1.463 . S
C1440 N1444 1.427 . S
C1441 H1431 0.929 . S
C1441 C1439 1.433 . S
C1441 N1444 1.384 . S
C1442 H1433 0.929 . S
C1442 C1434 1.378 . S
C1442 C1437 1.350 . S
C1443 H1430 0.929 . S
C1443 C1435 1.433 . S
C1443 N1445 1.384 . S
N1444 C1440 1.427 . S
N1444 C1441 1.384 . S
N1445 C1437 1.427 . S
N1445 C1443 1.384 . S
H1446 C1452 0.930 . S
H1447 C1456 0.930 . S
H1448 C1461 0.929 . S
H1449 C1459 0.929 . S
H1450 C1454 0.929 . S
H1451 C1460 0.929 . S
C1452 H1446 0.930 . S
C1452 C1453 1.367 . S
C1452 C1460 1.378 . S
C1453 C1452 1.367 . S
C1453 C1461 1.433 . S
C1454 H1450 0.929 . S
C1454 C1456 1.378 . S
C1454 C1458 1.350 . S
C1455 C1458 1.463 . S
C1455 C1460 1.350 . S
C1455 N1463 1.427 . S
C1456 H1447 0.930 . S
C1456 C1454 1.378 . S
C1456 C1457 1.367 . S
C1457 C1456 1.367 . S
C1457 C1459 1.433 . S
C1458 C1454 1.350 . S
C1458 C1455 1.463 . S
C1458 N1462 1.427 . S
C1459 H1449 0.929 . S
C1459 C1457 1.433 . S
C1459 N1462 1.384 . S
C1460 H1451 0.929 . S
C1460 C1452 1.378 . S
C1460 C1455 1.350 . S
C1461 H1448 0.929 . S
C1461 C1453 1.433 . S
C1461 N1463 1.384 . S
N1462 C1458 1.427 . S
N1462 C1459 1.384 . S
N1463 C1455 1.427 . S
N1463 C1461 1.384 . S
H1464 C1470 0.930 . S
H1465 C1474 0.930 . S
H1466 C1479 0.929 . S
H1467 C1477 0.929 . S
H1468 C1472 0.929 . S
H1469 C1478 0.929 . S
C1470 H1464 0.930 . S
C1470 C1471 1.367 . S
C1470 C1478 1.378 . S
C1471 C1470 1.367 . S
C1471 C1479 1.433 . S
C1472 H1468 0.929 . S
C1472 C1474 1.378 . S
C1472 C1476 1.350 . S
C1473 C1476 1.463 . S
C1473 C1478 1.350 . S
C1473 N1481 1.427 . S
C1474 H1465 0.930 . S
C1474 C1472 1.378 . S
C1474 C1475 1.367 . S
C1475 C1474 1.367 . S
C1475 C1477 1.433 . S
C1476 C1472 1.350 . S
C1476 C1473 1.463 . S
C1476 N1480 1.427 . S
C1477 H1467 0.929 . S
C1477 C1475 1.433 . S
C1477 N1480 1.384 . S
C1478 H1469 0.929 . S
C1478 C1470 1.378 . S
C1478 C1473 1.350 . S
C1479 H1466 0.929 . S
C1479 C1471 1.433 . S
C1479 N1481 1.384 . S
N1480 C1476 1.427 . S
N1480 C1477 1.384 . S
N1481 C1473 1.427 . S
N1481 C1479 1.384 . S
H1482 C1488 0.930 . S
H1483 C1492 0.930 . S
H1484 C1497 0.929 . S
H1485 C1495 0.929 . S
H1486 C1490 0.929 . S
H1487 C1496 0.929 . S
C1488 H1482 0.930 . S
C1488 C1489 1.367 . S
C1488 C1496 1.378 . S
C1489 C1488 1.367 . S
C1489 C1497 1.433 . S
C1490 H1486 0.929 . S
C1490 C1492 1.378 . S
C1490 C1494 1.350 . S
C1491 C1494 1.463 . S
C1491 C1496 1.350 . S
C1491 N1499 1.427 . S
C1492 H1483 0.930 . S
C1492 C1490 1.378 . S
C1492 C1493 1.367 . S
C1493 C1492 1.367 . S
C1493 C1495 1.433 . S
C1494 C1490 1.350 . S
C1494 C1491 1.463 . S
C1494 N1498 1.427 . S
C1495 H1485 0.929 . S
C1495 C1493 1.433 . S
C1495 N1498 1.384 . S
C1496 H1487 0.929 . S
C1496 C1488 1.378 . S
C1496 C1491 1.350 . S
C1497 H1484 0.929 . S
C1497 C1489 1.433 . S
C1497 N1499 1.384 . S
N1498 C1494 1.427 . S
N1498 C1495 1.384 . S
N1499 C1491 1.427 . S
N1499 C1497 1.384 . S
H1500 C1506 0.930 . S
H1501 C1510 0.930 . S
H1502 C1515 0.929 . S
H1503 C1513 0.929 . S
H1504 C1508 0.929 . S
H1505 C1514 0.929 . S
C1506 H1500 0.930 . S
C1506 C1507 1.367 . S
C1506 C1514 1.378 . S
C1507 C1506 1.367 . S
C1507 C1515 1.433 . S
C1508 H1504 0.929 . S
C1508 C1510 1.378 . S
C1508 C1512 1.350 . S
C1509 C1512 1.463 . S
C1509 C1514 1.350 . S
C1509 N1517 1.427 . S
C1510 H1501 0.930 . S
C1510 C1508 1.378 . S
C1510 C1511 1.367 . S
C1511 C1510 1.367 . S
C1511 C1513 1.433 . S
C1512 C1508 1.350 . S
C1512 C1509 1.463 . S
C1512 N1516 1.427 . S
C1513 H1503 0.929 . S
C1513 C1511 1.433 . S
C1513 N1516 1.384 . S
C1514 H1505 0.929 . S
C1514 C1506 1.378 . S
C1514 C1509 1.350 . S
C1515 H1502 0.929 . S
C1515 C1507 1.433 . S
C1515 N1517 1.384 . S
N1516 C1512 1.427 . S
N1516 C1513 1.384 . S
N1517 C1509 1.427 . S
N1517 C1515 1.384 . S
H1518 C1524 0.930 . S
H1519 C1528 0.930 . S
H1520 C1533 0.929 . S
H1521 C1531 0.929 . S
H1522 C1526 0.929 . S
H1523 C1532 0.929 . S
C1524 H1518 0.930 . S
C1524 C1525 1.367 . S
C1524 C1532 1.378 . S
C1525 C1524 1.367 . S
C1525 C1533 1.433 . S
C1526 H1522 0.929 . S
C1526 C1528 1.378 . S
C1526 C1530 1.350 . S
C1527 C1530 1.463 . S
C1527 C1532 1.350 . S
C1527 N1535 1.427 . S
C1528 H1519 0.930 . S
C1528 C1526 1.378 . S
C1528 C1529 1.367 . S
C1529 C1528 1.367 . S
C1529 C1531 1.433 . S
C1530 C1526 1.350 . S
C1530 C1527 1.463 . S
C1530 N1534 1.427 . S
C1531 H1521 0.929 . S
C1531 C1529 1.433 . S
C1531 N1534 1.384 . S
C1532 H1523 0.929 . S
C1532 C1524 1.378 . S
C1532 C1527 1.350 . S
C1533 H1520 0.929 . S
C1533 C1525 1.433 . S
C1533 N1535 1.384 . S
N1534 C1530 1.427 . S
N1534 C1531 1.384 . S
N1535 C1527 1.427 . S
N1535 C1533 1.384 . S
H1536 C1542 0.930 . S
H1537 C1546 0.930 . S
H1538 C1551 0.929 . S
H1539 C1549 0.929 . S
H1540 C1544 0.929 . S
H1541 C1550 0.929 . S
C1542 H1536 0.930 . S
C1542 C1543 1.367 . S
C1542 C1550 1.378 . S
C1543 C1542 1.367 . S
C1543 C1551 1.433 . S
C1544 H1540 0.929 . S
C1544 C1546 1.378 . S
C1544 C1548 1.350 . S
C1545 C1548 1.463 . S
C1545 C1550 1.350 . S
C1545 N1553 1.427 . S
C1546 H1537 0.930 . S
C1546 C1544 1.378 . S
C1546 C1547 1.367 . S
C1547 C1546 1.367 . S
C1547 C1549 1.433 . S
C1548 C1544 1.350 . S
C1548 C1545 1.463 . S
C1548 N1552 1.427 . S
C1549 H1539 0.929 . S
C1549 C1547 1.433 . S
C1549 N1552 1.384 . S
C1550 H1541 0.929 . S
C1550 C1542 1.378 . S
C1550 C1545 1.350 . S
C1551 H1538 0.929 . S
C1551 C1543 1.433 . S
C1551 N1553 1.384 . S
N1552 C1548 1.427 . S
N1552 C1549 1.384 . S
N1553 C1545 1.427 . S
N1553 C1551 1.384 . S
H1554 C1560 0.930 . S
H1555 C1564 0.930 . S
H1556 C1569 0.929 . S
H1557 C1567 0.929 . S
H1558 C1562 0.929 . S
H1559 C1568 0.929 . S
C1560 H1554 0.930 . S
C1560 C1561 1.367 . S
C1560 C1568 1.378 . S
C1561 C1560 1.367 . S
C1561 C1569 1.433 . S
C1562 H1558 0.929 . S
C1562 C1564 1.378 . S
C1562 C1566 1.350 . S
C1563 C1566 1.463 . S
C1563 C1568 1.350 . S
C1563 N1571 1.427 . S
C1564 H1555 0.930 . S
C1564 C1562 1.378 . S
C1564 C1565 1.367 . S
C1565 C1564 1.367 . S
C1565 C1567 1.433 . S
C1566 C1562 1.350 . S
C1566 C1563 1.463 . S
C1566 N1570 1.427 . S
C1567 H1557 0.929 . S
C1567 C1565 1.433 . S
C1567 N1570 1.384 . S
C1568 H1559 0.929 . S
C1568 C1560 1.378 . S
C1568 C1563 1.350 . S
C1569 H1556 0.929 . S
C1569 C1561 1.433 . S
C1569 N1571 1.384 . S
N1570 C1566 1.427 . S
N1570 C1567 1.384 . S
N1571 C1563 1.427 . S
N1571 C1569 1.384 . S
H1572 C1578 0.930 . S
H1573 C1582 0.930 . S
H1574 C1587 0.929 . S
H1575 C1585 0.929 . S
H1576 C1580 0.929 . S
H1577 C1586 0.929 . S
C1578 H1572 0.930 . S
C1578 C1579 1.367 . S
C1578 C1586 1.378 . S
C1579 C1578 1.367 . S
C1579 C1587 1.433 . S
C1580 H1576 0.929 . S
C1580 C1582 1.378 . S
C1580 C1584 1.350 . S
C1581 C1584 1.463 . S
C1581 C1586 1.350 . S
C1581 N1589 1.427 . S
C1582 H1573 0.930 . S
C1582 C1580 1.378 . S
C1582 C1583 1.367 . S
C1583 C1582 1.367 . S
C1583 C1585 1.433 . S
C1584 C1580 1.350 . S
C1584 C1581 1.463 . S
C1584 N1588 1.427 . S
C1585 H1575 0.929 . S
C1585 C1583 1.433 . S
C1585 N1588 1.384 . S
C1586 H1577 0.929 . S
C1586 C1578 1.378 . S
C1586 C1581 1.350 . S
C1587 H1574 0.929 . S
C1587 C1579 1.433 . S
C1587 N1589 1.384 . S
N1588 C1584 1.427 . S
N1588 C1585 1.384 . S
N1589 C1581 1.427 . S
N1589 C1587 1.384 . S
H1590 C1596 0.930 . S
H1591 C1600 0.930 . S
H1592 C1605 0.929 . S
H1593 C1603 0.929 . S
H1594 C1598 0.929 . S
H1595 C1604 0.929 . S
C1596 H1590 0.930 . S
C1596 C1597 1.367 . S
C1596 C1604 1.378 . S
C1597 C1596 1.367 . S
C1597 C1605 1.433 . S
C1598 H1594 0.929 . S
C1598 C1600 1.378 . S
C1598 C1602 1.350 . S
C1599 C1602 1.463 . S
C1599 C1604 1.350 . S
C1599 N1607 1.427 . S
C1600 H1591 0.930 . S
C1600 C1598 1.378 . S
C1600 C1601 1.367 . S
C1601 C1600 1.367 . S
C1601 C1603 1.433 . S
C1602 C1598 1.350 . S
C1602 C1599 1.463 . S
C1602 N1606 1.427 . S
C1603 H1593 0.929 . S
C1603 C1601 1.433 . S
C1603 N1606 1.384 . S
C1604 H1595 0.929 . S
C1604 C1596 1.378 . S
C1604 C1599 1.350 . S
C1605 H1592 0.929 . S
C1605 C1597 1.433 . S
C1605 N1607 1.384 . S
N1606 C1602 1.427 . S
N1606 C1603 1.384 . S
N1607 C1599 1.427 . S
N1607 C1605 1.384 . S
H1608 C1614 0.930 . S
H1609 C1618 0.930 . S
H1610 C1623 0.929 . S
H1611 C1621 0.929 . S
H1612 C1616 0.929 . S
H1613 C1622 0.929 . S
C1614 H1608 0.930 . S
C1614 C1615 1.367 . S
C1614 C1622 1.378 . S
C1615 C1614 1.367 . S
C1615 C1623 1.433 . S
C1616 H1612 0.929 . S
C1616 C1618 1.378 . S
C1616 C1620 1.350 . S
C1617 C1620 1.463 . S
C1617 C1622 1.350 . S
C1617 N1625 1.427 . S
C1618 H1609 0.930 . S
C1618 C1616 1.378 . S
C1618 C1619 1.367 . S
C1619 C1618 1.367 . S
C1619 C1621 1.433 . S
C1620 C1616 1.350 . S
C1620 C1617 1.463 . S
C1620 N1624 1.427 . S
C1621 H1611 0.929 . S
C1621 C1619 1.433 . S
C1621 N1624 1.384 . S
C1622 H1613 0.929 . S
C1622 C1614 1.378 . S
C1622 C1617 1.350 . S
C1623 H1610 0.929 . S
C1623 C1615 1.433 . S
C1623 N1625 1.384 . S
N1624 C1620 1.427 . S
N1624 C1621 1.384 . S
N1625 C1617 1.427 . S
N1625 C1623 1.384 . S
H1626 C1632 0.930 . S
H1627 C1636 0.930 . S
H1628 C1641 0.929 . S
H1629 C1639 0.929 . S
H1630 C1634 0.929 . S
H1631 C1640 0.929 . S
C1632 H1626 0.930 . S
C1632 C1633 1.367 . S
C1632 C1640 1.378 . S
C1633 C1632 1.367 . S
C1633 C1641 1.433 . S
C1634 H1630 0.929 . S
C1634 C1636 1.378 . S
C1634 C1638 1.350 . S
C1635 C1638 1.463 . S
C1635 C1640 1.350 . S
C1635 N1643 1.427 . S
C1636 H1627 0.930 . S
C1636 C1634 1.378 . S
C1636 C1637 1.367 . S
C1637 C1636 1.367 . S
C1637 C1639 1.433 . S
C1638 C1634 1.350 . S
C1638 C1635 1.463 . S
C1638 N1642 1.427 . S
C1639 H1629 0.929 . S
C1639 C1637 1.433 . S
C1639 N1642 1.384 . S
C1640 H1631 0.929 . S
C1640 C1632 1.378 . S
C1640 C1635 1.350 . S
C1641 H1628 0.929 . S
C1641 C1633 1.433 . S
C1641 N1643 1.384 . S
N1642 C1638 1.427 . S
N1642 C1639 1.384 . S
N1643 C1635 1.427 . S
N1643 C1641 1.384 . S
H1644 C1650 0.930 . S
H1645 C1654 0.930 . S
H1646 C1659 0.929 . S
H1647 C1657 0.929 . S
H1648 C1652 0.929 . S
H1649 C1658 0.929 . S
C1650 H1644 0.930 . S
C1650 C1651 1.367 . S
C1650 C1658 1.378 . S
C1651 C1650 1.367 . S
C1651 C1659 1.433 . S
C1652 H1648 0.929 . S
C1652 C1654 1.378 . S
C1652 C1656 1.350 . S
C1653 C1656 1.463 . S
C1653 C1658 1.350 . S
C1653 N1661 1.427 . S
C1654 H1645 0.930 . S
C1654 C1652 1.378 . S
C1654 C1655 1.367 . S
C1655 C1654 1.367 . S
C1655 C1657 1.433 . S
C1656 C1652 1.350 . S
C1656 C1653 1.463 . S
C1656 N1660 1.427 . S
C1657 H1647 0.929 . S
C1657 C1655 1.433 . S
C1657 N1660 1.384 . S
C1658 H1649 0.929 . S
C1658 C1650 1.378 . S
C1658 C1653 1.350 . S
C1659 H1646 0.929 . S
C1659 C1651 1.433 . S
C1659 N1661 1.384 . S
N1660 C1656 1.427 . S
N1660 C1657 1.384 . S
N1661 C1653 1.427 . S
N1661 C1659 1.384 . S
H1662 C1668 0.930 . S
H1663 C1672 0.930 . S
H1664 C1677 0.929 . S
H1665 C1675 0.929 . S
H1666 C1670 0.929 . S
H1667 C1676 0.929 . S
C1668 H1662 0.930 . S
C1668 C1669 1.367 . S
C1668 C1676 1.378 . S
C1669 C1668 1.367 . S
C1669 C1677 1.433 . S
C1670 H1666 0.929 . S
C1670 C1672 1.378 . S
C1670 C1674 1.350 . S
C1671 C1674 1.463 . S
C1671 C1676 1.350 . S
C1671 N1679 1.427 . S
C1672 H1663 0.930 . S
C1672 C1670 1.378 . S
C1672 C1673 1.367 . S
C1673 C1672 1.367 . S
C1673 C1675 1.433 . S
C1674 C1670 1.350 . S
C1674 C1671 1.463 . S
C1674 N1678 1.427 . S
C1675 H1665 0.929 . S
C1675 C1673 1.433 . S
C1675 N1678 1.384 . S
C1676 H1667 0.929 . S
C1676 C1668 1.378 . S
C1676 C1671 1.350 . S
C1677 H1664 0.929 . S
C1677 C1669 1.433 . S
C1677 N1679 1.384 . S
N1678 C1674 1.427 . S
N1678 C1675 1.384 . S
N1679 C1671 1.427 . S
N1679 C1677 1.384 . S
H1680 C1686 0.930 . S
H1681 C1690 0.930 . S
H1682 C1695 0.929 . S
H1683 C1693 0.929 . S
H1684 C1688 0.929 . S
H1685 C1694 0.929 . S
C1686 H1680 0.930 . S
C1686 C1687 1.367 . S
C1686 C1694 1.378 . S
C1687 C1686 1.367 . S
C1687 C1695 1.433 . S
C1688 H1684 0.929 . S
C1688 C1690 1.378 . S
C1688 C1692 1.350 . S
C1689 C1692 1.463 . S
C1689 C1694 1.350 . S
C1689 N1697 1.427 . S
C1690 H1681 0.930 . S
C1690 C1688 1.378 . S
C1690 C1691 1.367 . S
C1691 C1690 1.367 . S
C1691 C1693 1.433 . S
C1692 C1688 1.350 . S
C1692 C1689 1.463 . S
C1692 N1696 1.427 . S
C1693 H1683 0.929 . S
C1693 C1691 1.433 . S
C1693 N1696 1.384 . S
C1694 H1685 0.929 . S
C1694 C1686 1.378 . S
C1694 C1689 1.350 . S
C1695 H1682 0.929 . S
C1695 C1687 1.433 . S
C1695 N1697 1.384 . S
N1696 C1692 1.427 . S
N1696 C1693 1.384 . S
N1697 C1689 1.427 . S
N1697 C1695 1.384 . S
H1698 C1704 0.930 . S
H1699 C1708 0.930 . S
H1700 C1713 0.929 . S
H1701 C1711 0.929 . S
H1702 C1706 0.929 . S
H1703 C1712 0.929 . S
C1704 H1698 0.930 . S
C1704 C1705 1.367 . S
C1704 C1712 1.378 . S
C1705 C1704 1.367 . S
C1705 C1713 1.433 . S
C1706 H1702 0.929 . S
C1706 C1708 1.378 . S
C1706 C1710 1.350 . S
C1707 C1710 1.463 . S
C1707 C1712 1.350 . S
C1707 N1715 1.427 . S
C1708 H1699 0.930 . S
C1708 C1706 1.378 . S
C1708 C1709 1.367 . S
C1709 C1708 1.367 . S
C1709 C1711 1.433 . S
C1710 C1706 1.350 . S
C1710 C1707 1.463 . S
C1710 N1714 1.427 . S
C1711 H1701 0.929 . S
C1711 C1709 1.433 . S
C1711 N1714 1.384 . S
C1712 H1703 0.929 . S
C1712 C1704 1.378 . S
C1712 C1707 1.350 . S
C1713 H1700 0.929 . S
C1713 C1705 1.433 . S
C1713 N1715 1.384 . S
N1714 C1710 1.427 . S
N1714 C1711 1.384 . S
N1715 C1707 1.427 . S
N1715 C1713 1.384 . S
H1716 C1722 0.930 . S
H1717 C1726 0.930 . S
H1718 C1731 0.929 . S
H1719 C1729 0.929 . S
H1720 C1724 0.929 . S
H1721 C1730 0.929 . S
C1722 H1716 0.930 . S
C1722 C1723 1.367 . S
C1722 C1730 1.378 . S
C1723 C1722 1.367 . S
C1723 C1731 1.433 . S
C1724 H1720 0.929 . S
C1724 C1726 1.378 . S
C1724 C1728 1.350 . S
C1725 C1728 1.463 . S
C1725 C1730 1.350 . S
C1725 N1733 1.427 . S
C1726 H1717 0.930 . S
C1726 C1724 1.378 . S
C1726 C1727 1.367 . S
C1727 C1726 1.367 . S
C1727 C1729 1.433 . S
C1728 C1724 1.350 . S
C1728 C1725 1.463 . S
C1728 N1732 1.427 . S
C1729 H1719 0.929 . S
C1729 C1727 1.433 . S
C1729 N1732 1.384 . S
C1730 H1721 0.929 . S
C1730 C1722 1.378 . S
C1730 C1725 1.350 . S
C1731 H1718 0.929 . S
C1731 C1723 1.433 . S
C1731 N1733 1.384 . S
N1732 C1728 1.427 . S
N1732 C1729 1.384 . S
N1733 C1725 1.427 . S
N1733 C1731 1.384 . S
C881 C699 1.352 . S
C877 C56 1.473 . S
C899 C700 1.604 . S
C895 C154 1.514 . S
C917 C694 1.583 . S
C913 C236 1.601 . S
C931 C310 0.934 . S
C935 C693 0.290 . S
C949 C394 1.515 . S
C953 C696 1.604 . S
C971 C698 1.579 . S
C967 C476 1.593 . S
C985 C574 0.909 . S
C989 C697 0.281 . S
C1003 C656 1.481 . S
C1007 C695 1.349 . S
C1025 C730 2.619 . S
C1021 C67 2.616 . S
C1039 C139 1.622 . S
C1043 C761 1.509 . S
C1061 C729 1.376 . S
C1057 C238 1.268 . S
C1079 C764 1.364 . S
C1075 C308 1.334 . S
C1093 C392 1.635 . S
C1097 C727 1.638 . S
C1115 C759 2.627 . S
C1111 C487 2.630 . S
C1129 C559 1.349 . S
C1133 C732 1.250 . S
C1147 C658 1.264 . S
C1151 C766 1.329 . S
C1165 C58 1.255 . S
C1169 C762 1.339 . S
C1183 C403 1.624 . S
C1187 C765 1.501 . S
C1205 C733 1.366 . S
C1201 C478 1.270 . S
C1223 C760 1.368 . S
C1219 C572 1.331 . S
C1237 C643 2.617 . S
C1241 C726 2.619 . S
C1255 C223 2.632 . S
C1259 C763 2.624 . S
C1277 C728 1.258 . S
C1273 C319 1.354 . S
C1291 C152 1.624 . S
C1295 C731 1.636 . S
C1309 C644 1.512 . S
C1313 C798 1.424 . S
C1327 C406 1.252 . S
C1331 C799 1.249 . S
C1349 C793 1.400 . S
C1345 C488 1.412 . S
C1367 C792 0.307 . S
C1363 C562 0.762 . S
C1381 C142 1.228 . S
C1385 C795 1.259 . S
C1403 C797 1.413 . S
C1399 C224 1.417 . S
C1417 C322 0.741 . S
C1421 C796 0.317 . S
C1435 C68 1.512 . S
C1439 C794 1.419 . S
C1453 C655 2.821 . S
C1457 C832 2.740 . S
C1475 C864 1.335 . S
C1471 C391 1.398 . S
C1489 C490 1.144 . S
C1493 C825 1.309 . S
C1507 C560 1.636 . S
C1511 C859 1.622 . S
C1529 C830 1.341 . S
C1525 C140 1.344 . S
C1543 C235 2.843 . S
C1547 C861 2.765 . S
C1565 C827 1.646 . S
C1561 C307 1.729 . S
C1583 C862 1.318 . S
C1579 C70 1.200 . S
C1601 C858 1.319 . S
C1597 C646 1.211 . S
C1615 C151 1.399 . S
C1619 C860 1.325 . S
C1633 C226 1.138 . S
C1637 C829 1.310 . S
C1655 C863 1.630 . S
C1651 C320 1.630 . S
C1669 C55 2.822 . S
C1673 C828 2.738 . S
C1687 C475 2.843 . S
C1691 C865 2.765 . S
C1709 C831 1.647 . S
C1705 C571 1.729 . S
C1727 C826 1.349 . S
C1723 C404 1.332 . S
