# Generated by pormake.
# Topology fgl, (4,4)-cn, num edge types: 1
# Building blocks:
#     Node 0, Type 0, BuildingBlock: ESEHIV_clean_sbu_0, # of connection points: 4
#     Node 1, Type 0, BuildingBlock: ESEHIV_clean_sbu_0, # of connection points: 4
#     Node 2, Type 0, BuildingBlock: ESEHIV_clean_sbu_0, # of connection points: 4
#     Node 3, Type 0, BuildingBlock: ESEHIV_clean_sbu_0, # of connection points: 4
#     Node 4, Type 0, BuildingBlock: ESEHIV_clean_sbu_0, # of connection points: 4
#     Node 5, Type 0, BuildingBlock: ESEHIV_clean_sbu_0, # of connection points: 4
#     Node 6, Type 0, BuildingBlock: ESEHIV_clean_sbu_0, # of connection points: 4
#     Node 7, Type 0, BuildingBlock: ESEHIV_clean_sbu_0, # of connection points: 4
#     Node 8, Type 0, BuildingBlock: ESEHIV_clean_sbu_0, # of connection points: 4
#     Node 9, Type 0, BuildingBlock: ESEHIV_clean_sbu_0, # of connection points: 4
#     Node 10, Type 0, BuildingBlock: ESEHIV_clean_sbu_0, # of connection points: 4
#     Node 11, Type 0, BuildingBlock: ESEHIV_clean_sbu_0, # of connection points: 4
#     Node 12, Type 0, BuildingBlock: ESEHIV_clean_sbu_0, # of connection points: 4
#     Node 13, Type 0, BuildingBlock: ESEHIV_clean_sbu_0, # of connection points: 4
#     Node 14, Type 0, BuildingBlock: ESEHIV_clean_sbu_0, # of connection points: 4
#     Node 15, Type 0, BuildingBlock: ESEHIV_clean_sbu_0, # of connection points: 4
#     Node 16, Type 0, BuildingBlock: ESEHIV_clean_sbu_0, # of connection points: 4
#     Node 17, Type 0, BuildingBlock: ESEHIV_clean_sbu_0, # of connection points: 4
#     Node 18, Type 1, BuildingBlock: QUQFOY_clean_sbu_3, # of connection points: 4
#     Node 19, Type 1, BuildingBlock: QUQFOY_clean_sbu_3, # of connection points: 4
#     Node 20, Type 1, BuildingBlock: QUQFOY_clean_sbu_3, # of connection points: 4
#     Node 21, Type 1, BuildingBlock: QUQFOY_clean_sbu_3, # of connection points: 4
#     Node 22, Type 1, BuildingBlock: QUQFOY_clean_sbu_3, # of connection points: 4
#     Node 23, Type 1, BuildingBlock: QUQFOY_clean_sbu_3, # of connection points: 4
#     Node 24, Type 1, BuildingBlock: QUQFOY_clean_sbu_3, # of connection points: 4
#     Node 25, Type 1, BuildingBlock: QUQFOY_clean_sbu_3, # of connection points: 4
#     Node 26, Type 1, BuildingBlock: QUQFOY_clean_sbu_3, # of connection points: 4
#     Node 27, Type 1, BuildingBlock: QUQFOY_clean_sbu_3, # of connection points: 4
#     Node 28, Type 1, BuildingBlock: QUQFOY_clean_sbu_3, # of connection points: 4
#     Node 29, Type 1, BuildingBlock: QUQFOY_clean_sbu_3, # of connection points: 4
#     Node 30, Type 1, BuildingBlock: QUQFOY_clean_sbu_3, # of connection points: 4
#     Node 31, Type 1, BuildingBlock: QUQFOY_clean_sbu_3, # of connection points: 4
#     Node 32, Type 1, BuildingBlock: QUQFOY_clean_sbu_3, # of connection points: 4
#     Node 33, Type 1, BuildingBlock: QUQFOY_clean_sbu_3, # of connection points: 4
#     Node 34, Type 1, BuildingBlock: QUQFOY_clean_sbu_3, # of connection points: 4
#     Node 35, Type 1, BuildingBlock: QUQFOY_clean_sbu_3, # of connection points: 4
#     Edge 36, Type (0, 1), BuildingBlock: CIFDUS_clean_linker_0, # of connection points: 2
#     Edge 37, Type (0, 1), BuildingBlock: CIFDUS_clean_linker_0, # of connection points: 2
#     Edge 38, Type (0, 1), BuildingBlock: CIFDUS_clean_linker_0, # of connection points: 2
#     Edge 39, Type (0, 1), BuildingBlock: CIFDUS_clean_linker_0, # of connection points: 2
#     Edge 40, Type (0, 1), BuildingBlock: CIFDUS_clean_linker_0, # of connection points: 2
#     Edge 41, Type (0, 1), BuildingBlock: CIFDUS_clean_linker_0, # of connection points: 2
#     Edge 42, Type (0, 1), BuildingBlock: CIFDUS_clean_linker_0, # of connection points: 2
#     Edge 43, Type (0, 1), BuildingBlock: CIFDUS_clean_linker_0, # of connection points: 2
#     Edge 44, Type (0, 1), BuildingBlock: CIFDUS_clean_linker_0, # of connection points: 2
#     Edge 45, Type (0, 1), BuildingBlock: CIFDUS_clean_linker_0, # of connection points: 2
#     Edge 46, Type (0, 1), BuildingBlock: CIFDUS_clean_linker_0, # of connection points: 2
#     Edge 47, Type (0, 1), BuildingBlock: CIFDUS_clean_linker_0, # of connection points: 2
#     Edge 48, Type (0, 1), BuildingBlock: CIFDUS_clean_linker_0, # of connection points: 2
#     Edge 49, Type (0, 1), BuildingBlock: CIFDUS_clean_linker_0, # of connection points: 2
#     Edge 50, Type (0, 1), BuildingBlock: CIFDUS_clean_linker_0, # of connection points: 2
#     Edge 51, Type (0, 1), BuildingBlock: CIFDUS_clean_linker_0, # of connection points: 2
#     Edge 52, Type (0, 1), BuildingBlock: CIFDUS_clean_linker_0, # of connection points: 2
#     Edge 53, Type (0, 1), BuildingBlock: CIFDUS_clean_linker_0, # of connection points: 2
#     Edge 54, Type (0, 1), BuildingBlock: CIFDUS_clean_linker_0, # of connection points: 2
#     Edge 55, Type (0, 1), BuildingBlock: CIFDUS_clean_linker_0, # of connection points: 2
#     Edge 56, Type (0, 1), BuildingBlock: CIFDUS_clean_linker_0, # of connection points: 2
#     Edge 57, Type (0, 1), BuildingBlock: CIFDUS_clean_linker_0, # of connection points: 2
#     Edge 58, Type (0, 1), BuildingBlock: CIFDUS_clean_linker_0, # of connection points: 2
#     Edge 59, Type (0, 1), BuildingBlock: CIFDUS_clean_linker_0, # of connection points: 2
#     Edge 60, Type (0, 1), BuildingBlock: CIFDUS_clean_linker_0, # of connection points: 2
#     Edge 61, Type (0, 1), BuildingBlock: CIFDUS_clean_linker_0, # of connection points: 2
#     Edge 62, Type (0, 1), BuildingBlock: CIFDUS_clean_linker_0, # of connection points: 2
#     Edge 63, Type (0, 1), BuildingBlock: CIFDUS_clean_linker_0, # of connection points: 2
#     Edge 64, Type (0, 1), BuildingBlock: CIFDUS_clean_linker_0, # of connection points: 2
#     Edge 65, Type (0, 1), BuildingBlock: CIFDUS_clean_linker_0, # of connection points: 2
#     Edge 66, Type (0, 1), BuildingBlock: CIFDUS_clean_linker_0, # of connection points: 2
#     Edge 67, Type (0, 1), BuildingBlock: CIFDUS_clean_linker_0, # of connection points: 2
#     Edge 68, Type (0, 1), BuildingBlock: CIFDUS_clean_linker_0, # of connection points: 2
#     Edge 69, Type (0, 1), BuildingBlock: CIFDUS_clean_linker_0, # of connection points: 2
#     Edge 70, Type (0, 1), BuildingBlock: CIFDUS_clean_linker_0, # of connection points: 2
#     Edge 71, Type (0, 1), BuildingBlock: CIFDUS_clean_linker_0, # of connection points: 2
#     Edge 72, Type (0, 1), BuildingBlock: CIFDUS_clean_linker_0, # of connection points: 2
#     Edge 73, Type (0, 1), BuildingBlock: CIFDUS_clean_linker_0, # of connection points: 2
#     Edge 74, Type (0, 1), BuildingBlock: CIFDUS_clean_linker_0, # of connection points: 2
#     Edge 75, Type (0, 1), BuildingBlock: CIFDUS_clean_linker_0, # of connection points: 2
#     Edge 76, Type (0, 1), BuildingBlock: CIFDUS_clean_linker_0, # of connection points: 2
#     Edge 77, Type (0, 1), BuildingBlock: CIFDUS_clean_linker_0, # of connection points: 2
#     Edge 78, Type (0, 1), BuildingBlock: CIFDUS_clean_linker_0, # of connection points: 2
#     Edge 79, Type (0, 1), BuildingBlock: CIFDUS_clean_linker_0, # of connection points: 2
#     Edge 80, Type (0, 1), BuildingBlock: CIFDUS_clean_linker_0, # of connection points: 2
#     Edge 81, Type (0, 1), BuildingBlock: CIFDUS_clean_linker_0, # of connection points: 2
#     Edge 82, Type (0, 1), BuildingBlock: CIFDUS_clean_linker_0, # of connection points: 2
#     Edge 83, Type (0, 1), BuildingBlock: CIFDUS_clean_linker_0, # of connection points: 2
#     Edge 84, Type (0, 1), BuildingBlock: CIFDUS_clean_linker_0, # of connection points: 2
#     Edge 85, Type (0, 1), BuildingBlock: CIFDUS_clean_linker_0, # of connection points: 2
#     Edge 86, Type (0, 1), BuildingBlock: CIFDUS_clean_linker_0, # of connection points: 2
#     Edge 87, Type (0, 1), BuildingBlock: CIFDUS_clean_linker_0, # of connection points: 2
#     Edge 88, Type (0, 1), BuildingBlock: CIFDUS_clean_linker_0, # of connection points: 2
#     Edge 89, Type (0, 1), BuildingBlock: CIFDUS_clean_linker_0, # of connection points: 2
#     Edge 90, Type (0, 1), BuildingBlock: CIFDUS_clean_linker_0, # of connection points: 2
#     Edge 91, Type (0, 1), BuildingBlock: CIFDUS_clean_linker_0, # of connection points: 2
#     Edge 92, Type (0, 1), BuildingBlock: CIFDUS_clean_linker_0, # of connection points: 2
#     Edge 93, Type (0, 1), BuildingBlock: CIFDUS_clean_linker_0, # of connection points: 2
#     Edge 94, Type (0, 1), BuildingBlock: CIFDUS_clean_linker_0, # of connection points: 2
#     Edge 95, Type (0, 1), BuildingBlock: CIFDUS_clean_linker_0, # of connection points: 2
#     Edge 96, Type (0, 1), BuildingBlock: CIFDUS_clean_linker_0, # of connection points: 2
#     Edge 97, Type (0, 1), BuildingBlock: CIFDUS_clean_linker_0, # of connection points: 2
#     Edge 98, Type (0, 1), BuildingBlock: CIFDUS_clean_linker_0, # of connection points: 2
#     Edge 99, Type (0, 1), BuildingBlock: CIFDUS_clean_linker_0, # of connection points: 2
#     Edge 100, Type (0, 1), BuildingBlock: CIFDUS_clean_linker_0, # of connection points: 2
#     Edge 101, Type (0, 1), BuildingBlock: CIFDUS_clean_linker_0, # of connection points: 2
#     Edge 102, Type (0, 1), BuildingBlock: CIFDUS_clean_linker_0, # of connection points: 2
#     Edge 103, Type (0, 1), BuildingBlock: CIFDUS_clean_linker_0, # of connection points: 2
#     Edge 104, Type (0, 1), BuildingBlock: CIFDUS_clean_linker_0, # of connection points: 2
#     Edge 105, Type (0, 1), BuildingBlock: CIFDUS_clean_linker_0, # of connection points: 2
#     Edge 106, Type (0, 1), BuildingBlock: CIFDUS_clean_linker_0, # of connection points: 2
#     Edge 107, Type (0, 1), BuildingBlock: CIFDUS_clean_linker_0, # of connection points: 2
# Relax obj value: 0.018
# Max RMSD: 0.135
# Mean RMSD: 0.074
data_MOF--net-fgl--node1-ESEHIV_clean_sbu_0--node2-QUQFOY_clean_sbu_3--edge1-CIFDUS_clean_linker_0
_symmetry_space_group_name_H-M    P1
_symmetry_Int_Tables_number       1
_symmetry_cell_setting            triclinic
loop_
_symmetry_equiv_pos_as_xyz
'x, y, z'
_cell_length_a     67.306061
_cell_length_b     67.500125
_cell_length_c     46.056715
_cell_angle_alpha  88.875321
_cell_angle_beta   91.034844
_cell_angle_gamma 119.82116
loop_
_atom_site_label
_atom_site_type_symbol
_atom_site_fract_x
_atom_site_fract_y
_atom_site_fract_z
_atom_type_partial_charge
Cu0 Cu 0.01293 0.5375 0.98893 0.0
N1 N 0.03025 0.56042 0.01601 0.0
N2 N 0.03689 0.58325 0.05398 0.0
C3 C 0.02149 0.56957 0.034 0.0
C4 C 0.05639 0.58316 0.04795 0.0
C5 C 0.05221 0.56896 0.02457 0.0
O6 O 0.99094 0.54509 0.97183 0.0
C7 C 0.99483 0.50461 0.03516 0.0
O8 O 0.99353 0.52051 0.04953 0.0
H9 H 0.00383 0.56555 0.03328 0.0
H10 H 0.06402 0.56436 0.01539 0.0
N11 N 0.03072 0.53668 0.95882 0.0
N12 N 0.0408 0.5228 0.92154 0.0
C13 C 0.02522 0.51827 0.94248 0.0
C14 C 0.05044 0.55354 0.94796 0.0
C15 C 0.05674 0.54502 0.92501 0.0
C16 C 0.97394 0.54367 0.98527 0.0
O17 O 0.96773 0.53225 0.00996 0.0
H18 H 0.01005 0.50187 0.94604 0.0
H19 H 0.05942 0.57084 0.95588 0.0
O20 O 1.00044 0.50801 0.00854 0.0
H21 H 0.07211 0.59166 0.06053 0.0
H22 H 0.07162 0.55467 0.91154 0.0
Cu23 Cu 0.51102 0.55032 0.01266 0.0
N24 N 0.51155 0.56128 0.97285 0.0
N25 N 0.52385 0.57739 0.92914 0.0
C26 C 0.52954 0.57126 0.95476 0.0
C27 C 0.50142 0.57087 0.93137 0.0
C28 C 0.4939 0.56097 0.95833 0.0
O29 O 0.54002 0.58051 0.0221 0.0
C30 C 0.48185 0.50408 0.98939 0.0
O31 O 0.50141 0.50658 0.98049 0.0
H32 H 0.54652 0.57444 0.96059 0.0
H33 H 0.47681 0.55412 0.96685 0.0
N34 N 0.51036 0.53934 0.05245 0.0
N35 N 0.49819 0.52597 0.09727 0.0
C36 C 0.49364 0.53352 0.07195 0.0
C37 C 0.5261 0.53547 0.06563 0.0
C38 C 0.51866 0.52724 0.09331 0.0
C39 C 0.54045 0.59467 0.04041 0.0
O40 O 0.5217 0.58965 0.05453 0.0
H41 H 0.47851 0.53486 0.06753 0.0
H42 H 0.54171 0.53818 0.05567 0.0
O43 O 0.48183 0.52025 1.00325 0.0
H44 H 0.49107 0.57296 0.91466 0.0
H45 H 0.52741 0.52205 0.10897 0.0
Cu46 Cu 0.48315 0.01563 0.0272 0.0
N47 N 0.47398 0.99989 0.99228 0.0
N48 N 0.46721 0.99384 0.94472 0.0
C49 C 0.47617 0.0095 0.96587 0.0
C50 C 0.45907 0.97342 0.9584 0.0
C51 C 0.46341 0.97724 0.9878 0.0
O52 O 0.45998 0.02276 0.04119 0.0
C53 C 0.52386 0.05701 1.00491 0.0
O54 O 0.51077 0.0621 0.98863 0.0
H55 H 0.48291 0.02756 0.96239 0.0
H56 H 0.45876 0.96443 1.00478 0.0
N57 N 0.48602 0.99714 0.05526 0.0
N58 N 0.50608 0.98904 0.08757 0.0
C59 C 0.5059 0.99761 0.061 0.0
C60 C 0.47291 0.98751 0.07876 0.0
C61 C 0.48533 0.98255 0.09886 0.0
C62 C 0.44413 0.02239 0.02516 0.0
O63 O 0.44491 0.02045 0.99696 0.0
H64 H 0.52092 0.00671 0.04755 0.0
H65 H 0.45655 0.98644 0.08227 0.0
O66 O 0.51477 0.04045 0.023 0.0
H67 H 0.45028 0.95695 0.94802 0.0
H68 H 0.48029 0.97654 0.12093 0.0
Cu69 Cu 0.51068 0.0426 0.48874 0.0
N70 N 0.50963 0.02911 0.45338 0.0
N71 N 0.52285 0.02355 0.41197 0.0
C72 C 0.52828 0.03274 0.43868 0.0
C73 C 0.49986 0.01373 0.40978 0.0
C74 C 0.49178 0.01742 0.43523 0.0
O75 O 0.53843 0.04671 0.50865 0.0
C76 C 0.50008 0.07868 0.49475 0.0
O77 O 0.4967 0.07271 0.52229 0.0
H78 H 0.54557 0.04257 0.44713 0.0
H79 H 0.47432 0.01306 0.43935 0.0
N80 N 0.48566 0.02397 0.51239 0.0
N81 N 0.46434 0.01359 0.5525 0.0
C82 C 0.48534 0.02687 0.54115 0.0
C83 C 0.4642 0.00783 0.50529 0.0
C84 C 0.45101 1.0014 0.52998 0.0
C85 C 0.53733 0.02805 0.51714 0.0
O86 O 0.51819 0.00881 0.51263 0.0
H87 H 0.49995 0.03973 0.55303 0.0
H88 H 0.45818 1.00178 0.48364 0.0
O89 O 0.50874 0.06989 0.47854 0.0
H90 H 0.48976 0.0056 0.39057 0.0
H91 H 0.43287 0.98924 0.53099 0.0
Cu92 Cu 0.02813 0.5468 0.51134 0.0
N93 N 0.04792 0.53983 0.5324 0.0
N94 N 0.05682 0.52122 0.56646 0.0
C95 C 0.04033 0.52482 0.55474 0.0
C96 C 0.07569 0.53465 0.55056 0.0
C97 C 0.07013 0.54608 0.52951 0.0
O98 O 1.00065 0.51692 0.50843 0.0
C99 C 0.04175 0.58635 0.5434 0.0
O100 O 0.06114 0.58613 0.54464 0.0
H101 H 0.02268 0.51625 0.56162 0.0
H102 H 0.08138 0.55791 0.51322 0.0
N103 N 0.0381 0.55981 0.47444 0.0
N104 N 0.03853 0.5792 0.43413 0.0
C105 C 0.02999 0.57228 0.46107 0.0
C106 C 0.05243 0.5587 0.45538 0.0
C107 C 0.05269 0.57064 0.4304 0.0
C108 C 0.99429 0.50576 0.48487 0.0
O109 O 1.00186 0.51669 0.46007 0.0
H110 H 0.01745 0.57561 0.47081 0.0
H111 H 0.06171 0.54962 0.45915 0.0
O112 O 0.02421 0.56956 0.53191 0.0
H113 H 0.09236 0.5362 0.55381 0.0
H114 H 0.06258 0.57287 0.41112 0.0
Cu115 Cu 0.54679 0.55676 0.5083 0.0
N116 N 0.57362 0.56211 0.48994 0.0
N117 N 0.60907 0.58249 0.47259 0.0
C118 C 0.59161 0.5831 0.4856 0.0
C119 C 0.60174 0.56017 0.46829 0.0
C120 C 0.57983 0.54759 0.47917 0.0
O121 O 0.55626 0.58055 0.53783 0.0
C122 C 0.51839 0.53542 0.46271 0.0
O123 O 0.52786 0.52289 0.46887 0.0
H124 H 0.5919 0.59856 0.4921 0.0
H125 H 0.5694 0.52918 0.47959 0.0
N126 N 0.53277 0.52928 0.52909 0.0
N127 N 0.50438 0.49932 0.55174 0.0
C128 C 0.51106 0.51954 0.5383 0.0
C129 C 0.54031 0.51486 0.53705 0.0
C130 C 0.52273 0.49625 0.55099 0.0
C131 C 0.57116 0.58034 0.55527 0.0
O132 O 0.57762 0.56519 0.55099 0.0
H133 H 0.50012 0.52681 0.53412 0.0
H134 H 0.5572 0.51752 0.5327 0.0
O135 O 0.52452 0.55334 0.47773 0.0
H136 H 0.61173 0.55343 0.45884 0.0
H137 H 0.52336 0.48155 0.55965 0.0
Cu138 Cu 0.70042 0.88895 0.35935 0.0
N139 N 0.71355 0.91523 0.33647 0.0
N140 N 0.7153 0.94283 0.30775 0.0
C141 C 0.70157 0.92249 0.32043 0.0
C142 C 0.73682 0.94866 0.31602 0.0
C143 C 0.73572 0.93135 0.33354 0.0
O144 O 0.6831 0.89318 0.39098 0.0
C145 C 0.6985 0.86379 0.31202 0.0
O146 O 0.72021 0.87955 0.31387 0.0
H147 H 0.68303 0.91367 0.31951 0.0
H148 H 0.74996 0.93095 0.34419 0.0
N149 N 0.72361 0.88592 0.37762 0.0
N150 N 0.74329 0.86963 0.39445 0.0
C151 C 0.7253 0.86693 0.37822 0.0
C152 C 0.7411 0.90114 0.39414 0.0
C153 C 0.75327 0.89107 0.40468 0.0
C154 C 0.69337 0.91275 0.40321 0.0
O155 O 0.71292 0.92843 0.39233 0.0
H156 H 0.71315 0.8512 0.36774 0.0
H157 H 0.74466 0.91827 0.39854 0.0
O158 O 0.68488 0.86371 0.3312 0.0
H159 H 0.75206 0.96458 0.31057 0.0
H160 H 0.76818 0.89881 0.41881 0.0
Cu161 Cu 0.18942 0.88231 0.36363 0.0
N162 N 0.18583 0.85329 0.3587 0.0
N163 N 0.16636 0.81751 0.34221 0.0
C164 C 0.17226 0.83953 0.33748 0.0
C165 C 0.17726 0.81747 0.36709 0.0
C166 C 0.18916 0.8396 0.37737 0.0
O167 O 0.16429 0.8771 0.38924 0.0
C168 C 0.19312 0.91138 0.31237 0.0
O169 O 0.19203 0.9265 0.32877 0.0
H170 H 0.16507 0.84529 0.32031 0.0
H171 H 0.19775 0.84488 0.3982 0.0
N172 N 0.21678 0.9027 0.38274 0.0
N173 N 0.24652 0.93631 0.39631 0.0
C174 C 0.23141 0.92456 0.37488 0.0
C175 C 0.223 0.90051 0.41002 0.0
C176 C 0.24132 0.92116 0.41844 0.0
C177 C 0.14394 0.86048 0.38612 0.0
O178 O 0.1378 0.85007 0.36106 0.0
H179 H 0.23007 0.93214 0.35458 0.0
H180 H 0.21397 0.88536 0.42348 0.0
O181 O 0.19052 0.89287 0.3236 0.0
H182 H 0.175 0.80231 0.37846 0.0
H183 H 0.24969 0.92491 0.43951 0.0
Cu184 Cu 0.18415 0.40679 0.38539 0.0
N185 N 0.17673 0.42377 0.35942 0.0
N186 N 0.16156 0.42803 0.31772 0.0
C187 C 0.17401 0.41964 0.33076 0.0
C188 C 0.15691 0.43855 0.33906 0.0
C189 C 0.16615 0.43574 0.36481 0.0
O190 O 0.15524 0.38143 0.3985 0.0
C191 C 0.22341 0.41794 0.35823 0.0
O192 O 0.22404 0.43759 0.36105 0.0
H193 H 0.17924 0.40876 0.32037 0.0
H194 H 0.16333 0.44005 0.38626 0.0
N195 N 0.19997 0.42235 0.41859 0.0
N196 N 0.22263 0.42862 0.4575 0.0
C197 C 0.21022 0.414 0.43625 0.0
C198 C 0.20588 0.44307 0.42897 0.0
C199 C 0.21981 0.44695 0.45317 0.0
C200 C 0.13758 0.37156 0.38217 0.0
O201 O 0.13999 0.37406 0.35388 0.0
H202 H 0.20877 0.39748 0.43312 0.0
H203 H 0.20103 0.45477 0.41918 0.0
O204 O 0.20556 0.39982 0.36664 0.0
H205 H 0.14574 0.44576 0.33689 0.0
H206 H 0.22788 0.46237 0.46588 0.0
Cu207 Cu 0.19098 0.39011 0.87032 0.0
N208 N 0.21389 0.41305 0.84775 0.0
N209 N 0.2394 0.42891 0.81212 0.0
C210 C 0.22231 0.40937 0.82347 0.0
C211 C 0.24186 0.44559 0.83003 0.0
C212 C 0.22598 0.43575 0.85195 0.0
O213 O 0.2008 0.36735 0.87537 0.0
C214 C 0.14206 0.36696 0.85687 0.0
O215 O 0.13866 0.3558 0.88164 0.0
H216 H 0.21637 0.39254 0.81477 0.0
H217 H 0.22357 0.4445 0.8698 0.0
N218 N 0.19025 0.40226 0.90635 0.0
N219 N 0.17832 0.41059 0.94697 0.0
C220 C 0.17201 0.39946 0.92146 0.0
C221 C 0.20864 0.41561 0.92294 0.0
C222 C 0.20137 0.42087 0.94791 0.0
C223 C 0.20051 0.35764 0.8995 0.0
O224 O 0.18973 0.35988 0.92157 0.0
H225 H 0.15449 0.38976 0.91394 0.0
H226 H 0.22615 0.42095 0.91732 0.0
O227 O 0.16243 0.38048 0.8485 0.0
H228 H 0.25415 0.46357 0.82741 0.0
H229 H 0.21213 0.43102 0.9657 0.0
Cu230 Cu 0.68758 0.88597 0.86266 0.0
N231 N 0.70091 0.87048 0.84528 0.0
N232 N 0.70282 0.83999 0.83093 0.0
C233 C 0.69105 0.84756 0.84615 0.0
C234 C 0.72094 0.85888 0.81996 0.0
C235 C 0.71984 0.87775 0.82908 0.0
O236 O 0.67388 0.86819 0.89868 0.0
C237 C 0.67884 0.90027 0.80977 0.0
O238 O 0.70069 0.90678 0.80809 0.0
H239 H 0.67526 0.83656 0.85745 0.0
H240 H 0.73189 0.89543 0.82405 0.0
N241 N 0.70814 0.91576 0.87462 0.0
N242 N 0.71867 0.95022 0.89289 0.0
C243 C 0.70113 0.93013 0.88357 0.0
C244 C 0.73103 0.92706 0.87812 0.0
C245 C 0.73758 0.94834 0.88935 0.0
C246 C 0.68892 0.86739 0.91538 0.0
O247 O 0.71037 0.87863 0.90707 0.0
H248 H 0.68333 0.92572 0.88309 0.0
H249 H 0.74209 0.92019 0.8734 0.0
O250 O 0.66814 0.88975 0.83286 0.0
H251 H 0.73415 0.85903 0.80674 0.0
H252 H 0.7549 0.96117 0.89498 0.0
Cu253 Cu 0.17873 0.8747 0.83001 0.0
N254 N 0.16136 0.87602 0.79867 0.0
N255 N 0.14189 0.8663 0.75647 0.0
C256 C 0.15247 0.86046 0.77738 0.0
C257 C 0.14426 0.8864 0.76519 0.0
C258 C 0.15628 0.89234 0.79115 0.0
O259 O 0.16532 0.84243 0.83979 0.0
C260 C 0.21955 0.91077 0.81401 0.0
O261 O 0.20713 0.92055 0.81795 0.0
H262 H 0.15382 0.84514 0.77739 0.0
H263 H 0.16131 0.90766 0.80338 0.0
N264 N 0.17809 0.89078 0.86249 0.0
N265 N 0.18901 0.90863 0.90518 0.0
C266 C 0.19409 0.89853 0.88378 0.0
C267 C 0.1624 0.89638 0.87046 0.0
C268 C 0.16913 0.90748 0.89678 0.0
C269 C 0.16083 0.83449 0.86562 0.0
O270 O 0.16909 0.84856 0.88754 0.0
H271 H 0.20903 0.89646 0.88369 0.0
H272 H 0.14696 0.89231 0.8583 0.0
O273 O 0.21032 0.88925 0.81763 0.0
H274 H 0.13824 0.89645 0.75343 0.0
H275 H 0.15975 0.91353 0.9092 0.0
Cu276 Cu 0.37584 0.22873 0.70191 0.0
N277 N 0.38764 0.25931 0.69166 0.0
N278 N 0.38476 0.28987 0.6789 0.0
C279 C 0.37526 0.26702 0.67717 0.0
C280 C 0.40403 0.29684 0.69499 0.0
C281 C 0.40571 0.2779 0.70296 0.0
O282 O 0.35604 0.22584 0.73459 0.0
C283 C 0.37615 0.21808 0.64499 0.0
O284 O 0.39646 0.23605 0.64905 0.0
H285 H 0.35849 0.25583 0.66796 0.0
H286 H 0.41815 0.27752 0.71781 0.0
N287 N 0.39871 0.22207 0.71331 0.0
N288 N 0.41387 0.19989 0.72369 0.0
C289 C 0.39479 0.20168 0.72375 0.0
C290 C 0.42109 0.23361 0.70652 0.0
C291 C 0.43049 0.21992 0.71286 0.0
C292 C 0.36442 0.23062 0.76035 0.0
O293 O 0.38438 0.23219 0.76571 0.0
H294 H 0.37792 0.18781 0.72919 0.0
H295 H 0.42961 0.25015 0.69584 0.0
O296 O 0.36224 0.21086 0.66631 0.0
H297 H 0.41539 0.31419 0.70187 0.0
H298 H 0.44791 0.22397 0.70876 0.0
Cu299 Cu 0.8344 0.19749 0.7013 0.0
N300 N 0.85617 0.19927 0.67541 0.0
N301 N 0.87736 0.21263 0.63537 0.0
C302 C 0.85868 0.20964 0.64946 0.0
C303 C 0.88703 0.20363 0.65328 0.0
C304 C 0.87387 0.19536 0.67807 0.0
O305 O 0.84466 0.22997 0.70677 0.0
C306 C 0.80172 0.15819 0.67602 0.0
O307 O 0.8191 0.15461 0.67959 0.0
H308 H 0.84776 0.21629 0.64205 0.0
H309 H 0.87755 0.18802 0.69705 0.0
N310 N 0.83335 0.18348 0.73703 0.0
N311 N 0.81733 0.16606 0.77902 0.0
C312 C 0.8142 0.17364 0.75298 0.0
C313 C 0.84941 0.18215 0.75341 0.0
C314 C 0.83954 0.17138 0.77941 0.0
C315 C 0.85212 0.24001 0.73103 0.0
O316 O 0.84657 0.22777 0.7551 0.0
H317 H 0.7985 0.17307 0.74593 0.0
H318 H 0.86711 0.1891 0.74736 0.0
O319 O 0.80433 0.17751 0.68346 0.0
H320 H 0.90282 0.20363 0.64923 0.0
H321 H 0.84816 0.16801 0.79725 0.0
Cu322 Cu 0.8583 0.69446 0.70176 0.0
N323 N 0.85564 0.69565 0.66162 0.0
N324 N 0.85024 0.702 0.61525 0.0
C325 C 0.84991 0.70778 0.64318 0.0
C326 C 0.85656 0.68592 0.61643 0.0
C327 C 0.85958 0.68192 0.64486 0.0
O328 O 0.82817 0.67557 0.71904 0.0
C329 C 0.90068 0.70014 0.69537 0.0
O330 O 0.90298 0.71997 0.68774 0.0
H331 H 0.84508 0.72001 0.6501 0.0
H332 H 0.86429 0.66964 0.65289 0.0
N333 N 0.87111 0.72268 0.72002 0.0
N334 N 0.89843 0.7456 0.75106 0.0
C335 C 0.88089 0.72445 0.74618 0.0
C336 C 0.88186 0.74389 0.70837 0.0
C337 C 0.89906 0.75803 0.7274 0.0
C338 C 0.80993 0.66462 0.70389 0.0
O339 O 0.8116 0.66176 0.67611 0.0
H340 H 0.87825 0.70957 0.75868 0.0
H341 H 0.88019 0.74788 0.68591 0.0
O342 O 0.88136 0.6847 0.70523 0.0
H343 H 0.85893 0.67757 0.59808 0.0
H344 H 0.91286 0.77506 0.72243 0.0
Cu345 Cu 0.86885 0.73601 0.1564 0.0
N346 N 0.88769 0.75267 0.12581 0.0
N347 N 0.90846 0.75909 0.08597 0.0
C348 C 0.90023 0.74628 0.11028 0.0
C349 C 0.90089 0.77422 0.08626 0.0
C350 C 0.8881 0.77025 0.11101 0.0
O351 O 0.8775 0.71279 0.16579 0.0
C352 C 0.81903 0.71886 0.1562 0.0
O353 O 0.81824 0.71282 0.18363 0.0
H354 H 0.90173 0.73136 0.11546 0.0
H355 H 0.87858 0.77858 0.11685 0.0
N356 N 0.87593 0.75514 0.1882 0.0
N357 N 0.87036 0.76858 0.22933 0.0
C358 C 0.86119 0.75851 0.20377 0.0
C359 C 0.89548 0.76426 0.20388 0.0
C360 C 0.89209 0.77257 0.22933 0.0
C361 C 0.87781 0.70529 0.19133 0.0
O362 O 0.86766 0.70959 0.21241 0.0
H363 H 0.84368 0.75265 0.19732 0.0
H364 H 0.91046 0.76317 0.19834 0.0
O365 O 0.83762 0.72627 0.14214 0.0
H366 H 0.90355 0.78654 0.0692 0.0
H367 H 0.90396 0.77904 0.24749 0.0
Cu368 Cu 0.33458 0.22202 0.20231 0.0
N369 N 0.3138 0.19271 0.18943 0.0
N370 N 0.30125 0.15635 0.17818 0.0
C371 C 0.31789 0.17516 0.19113 0.0
C372 C 0.286 0.16224 0.16782 0.0
C373 C 0.29376 0.18473 0.17492 0.0
O374 O 0.35156 0.2173 0.2345 0.0
C375 C 0.33873 0.2441 0.1502 0.0
O376 O 0.31729 0.23676 0.15688 0.0
H377 H 0.33324 0.17643 0.20084 0.0
H378 H 0.28554 0.1946 0.16943 0.0
N379 N 0.32001 0.23691 0.21761 0.0
N380 N 0.31535 0.26575 0.23201 0.0
C381 C 0.33032 0.25942 0.22299 0.0
C382 C 0.29773 0.2286 0.22353 0.0
C383 C 0.29479 0.24638 0.23239 0.0
C384 C 0.33857 0.20576 0.25559 0.0
O385 O 0.31675 0.19954 0.25357 0.0
H386 H 0.34833 0.27106 0.2192 0.0
H387 H 0.28452 0.21097 0.22108 0.0
O388 O 0.35117 0.23987 0.16772 0.0
H389 H 0.27045 0.15112 0.15596 0.0
H390 H 0.27875 0.24515 0.23842 0.0
Cu391 Cu 0.85387 0.23234 0.18885 0.0
N392 N 0.83631 0.2325 0.15711 0.0
N393 N 0.81064 0.21605 0.12122 0.0
C394 C 0.82241 0.21302 0.14315 0.0
C395 C 0.81763 0.23862 0.12116 0.0
C396 C 0.83346 0.24875 0.14351 0.0
O397 O 0.83386 0.20274 0.20686 0.0
C398 C 0.89105 0.24277 0.15086 0.0
O399 O 0.87689 0.2407 0.12962 0.0
H400 H 0.82129 0.19688 0.14887 0.0
H401 H 0.84214 0.26657 0.14943 0.0
N402 N 0.86158 0.25525 0.21608 0.0
N403 N 0.87806 0.27421 0.25698 0.0
C404 C 0.8763 0.25841 0.23797 0.0
C405 C 0.85382 0.2698 0.22085 0.0
C406 C 0.86398 0.28155 0.24612 0.0
C407 C 0.81964 0.20108 0.22603 0.0
O408 O 0.8221 0.21969 0.23791 0.0
H409 H 0.8852 0.24882 0.23996 0.0
H410 H 0.8411 0.27114 0.2076 0.0
O411 O 0.88338 0.2369 0.17654 0.0
H412 H 0.81151 0.24712 0.1064 0.0
H413 H 0.86052 0.29385 0.25618 0.0
C414 C 0.01079 0.64335 0.30565 0.0
O415 O 1.00093 0.65369 0.31538 0.0
Cd416 Cd 0.994 0.68033 0.28731 0.0
O417 O 0.01728 0.64638 0.27928 0.0
Cd418 Cd 0.01745 0.67051 0.23696 0.0
C419 C 0.04965 0.71944 0.27552 0.0
O420 O 0.97815 0.66566 0.24008 0.0
O421 O 1.00135 0.6914 0.21017 0.0
O422 O 0.01071 0.6397 0.20351 0.0
C423 C 0.98121 0.68015 0.22012 0.0
O424 O 0.03079 0.71558 0.28641 0.0
C425 C 0.02859 0.65144 0.1885 0.0
O426 O 0.05033 0.7051 0.25854 0.0
O427 O 0.04145 0.67204 0.19608 0.0
C428 C 0.40141 0.46999 0.2181 0.0
O429 O 0.38004 0.46121 0.2135 0.0
Cd430 Cd 0.35017 0.44022 0.24725 0.0
O431 O 0.40894 0.46849 0.24327 0.0
Cd432 Cd 0.39079 0.45098 0.29171 0.0
C433 C 0.36171 0.39719 0.26412 0.0
O434 O 0.3607 0.46093 0.2912 0.0
O435 O 0.35539 0.434 0.32124 0.0
O436 O 0.4194 0.48321 0.3217 0.0
C437 C 0.34884 0.44752 0.31144 0.0
O438 O 0.34791 0.40314 0.25321 0.0
C439 C 0.42594 0.4712 0.33608 0.0
O440 O 0.37983 0.41164 0.27747 0.0
O441 O 0.4165 0.45024 0.32946 0.0
C442 C 0.61779 0.03171 0.1855 0.0
O443 O 0.63122 0.02546 0.17546 0.0
Cd444 Cd 0.66505 0.03103 0.20099 0.0
O445 O 0.62199 0.04158 0.20995 0.0
Cd446 Cd 0.64922 0.05324 0.25133 0.0
C447 C 0.69732 0.08891 0.21371 0.0
O448 O 0.65462 0.02036 0.25041 0.0
O449 O 0.67625 0.04726 0.28007 0.0
O450 O 0.6153 0.0357 0.2808 0.0
C451 C 0.67042 0.0279 0.26953 0.0
O452 O 0.69442 0.07107 0.20097 0.0
C453 C 0.62029 0.05286 0.29635 0.0
O454 O 0.68264 0.08793 0.23175 0.0
O455 O 0.63916 0.07094 0.29101 0.0
C456 C 0.0551 0.38343 0.75145 0.0
O457 O 0.05333 0.38143 0.72403 0.0
Cd458 Cd 0.02826 0.38955 0.69473 0.0
O459 O 0.04333 0.39035 0.765 0.0
Cd460 Cd 0.01577 0.40431 0.75054 0.0
C461 C 0.97405 0.35441 0.72039 0.0
O462 O 0.0366 0.42736 0.70688 0.0
O463 O 1.00351 0.42372 0.71461 0.0
O464 O 0.03506 0.43409 0.78741 0.0
C465 C 0.02182 0.43311 0.70006 0.0
O466 O 0.98814 0.35978 0.69964 0.0
C467 C 0.01708 0.43011 0.80069 0.0
O468 O 0.97991 0.36662 0.74316 0.0
O469 O 0.99838 0.41367 0.79124 0.0
C470 C 0.70399 0.66475 0.77968 0.0
O471 O 0.70126 0.6665 0.80653 0.0
Cd472 Cd 0.66812 0.66556 0.82605 0.0
O473 O 0.68876 0.66279 0.76114 0.0
Cd474 Cd 0.65029 0.66096 0.76024 0.0
C475 C 0.67141 0.71307 0.79231 0.0
O476 O 0.63622 0.63486 0.80207 0.0
O477 O 0.61392 0.64727 0.78733 0.0
O478 O 0.64426 0.63582 0.71989 0.0
C479 C 0.61731 0.6344 0.80464 0.0
O480 O 0.6719 0.7028 0.81556 0.0
C481 C 0.6333 0.64227 0.70322 0.0
O482 O 0.66581 0.70261 0.76812 0.0
O483 O 0.62999 0.65793 0.71275 0.0
C484 C 0.40512 0.08361 0.77918 0.0
O485 O 0.40558 0.0783 0.80568 0.0
Cd486 Cd 0.40299 0.04378 0.82379 0.0
O487 O 0.40336 0.07008 0.75901 0.0
Cd488 Cd 0.3992 0.03086 0.75636 0.0
C489 C 0.35022 0.00596 0.79534 0.0
O490 O 0.42592 0.03429 0.79463 0.0
O491 O 0.40265 1.00004 0.78054 0.0
O492 O 0.42532 0.03868 0.71631 0.0
C493 C 0.41962 0.01321 0.79629 0.0
O494 O 0.36262 0.01606 0.81735 0.0
C495 C 0.41015 0.02522 0.69858 0.0
O496 O 0.35876 0.00884 0.7701 0.0
O497 O 0.3896 0.01487 0.70735 0.0
C498 C 0.65591 0.95943 0.67074 0.0
O499 O 0.64585 0.97005 0.67884 0.0
Cd500 Cd 0.64083 0.99679 0.64849 0.0
O501 O 0.6634 0.96211 0.64473 0.0
Cd502 Cd 0.66361 0.98449 0.59894 0.0
C503 C 0.69582 0.03673 0.63208 0.0
O504 O 0.6249 0.9796 0.60227 0.0
O505 O 0.6477 0.00639 0.57329 0.0
O506 O 0.65652 0.95375 0.56287 0.0
C507 C 0.62758 0.99437 0.58298 0.0
O508 O 0.67764 0.03275 0.6451 0.0
C509 C 0.67463 0.96611 0.5485 0.0
O510 O 0.6958 0.02155 0.61593 0.0
O511 O 0.68743 0.98614 0.55802 0.0
C512 C 0.05632 0.77564 0.50602 0.0
O513 O 0.03507 0.76188 0.5023 0.0
Cd514 Cd 0.00883 0.73348 0.53575 0.0
O515 O 0.06604 0.77572 0.53018 0.0
Cd516 Cd 0.05333 0.75385 0.57834 0.0
C517 C 0.03515 0.70137 0.54856 0.0
O518 O 0.01482 0.74863 0.58311 0.0
O519 O 0.02387 0.72935 0.61322 0.0
O520 O 0.07182 0.78876 0.60667 0.0
C521 C 0.00919 0.73469 0.60446 0.0
O522 O 0.01869 0.7036 0.53822 0.0
C523 C 0.08535 0.78415 0.62092 0.0
O524 O 0.0515 0.71756 0.56278 0.0
O525 O 0.08503 0.76575 0.61439 0.0
C526 C 0.29783 0.39406 0.55968 0.0
O527 O 0.30479 0.38014 0.55432 0.0
Cd528 Cd 0.32984 0.37261 0.58521 0.0
O529 O 0.30271 0.40435 0.58387 0.0
Cd530 Cd 0.32261 0.40519 0.63022 0.0
C531 C 0.37364 0.42806 0.59646 0.0
O532 O 0.318 0.36666 0.63426 0.0
O533 O 0.34243 0.39264 0.66303 0.0
O534 O 0.28783 0.39664 0.65465 0.0
C535 C 0.33306 0.37223 0.65431 0.0
O536 O 0.36592 0.40799 0.5867 0.0
C537 C 0.29654 0.41375 0.67129 0.0
O538 O 0.36097 0.43322 0.61125 0.0
O539 O 0.31784 0.42781 0.66844 0.0
C540 C 0.72254 0.74963 0.10597 0.0
O541 O 0.72183 0.7503 0.07843 0.0
Cd542 Cd 0.69647 0.75904 0.05152 0.0
O543 O 0.7101 0.7551 0.12084 0.0
Cd544 Cd 0.68178 0.76995 0.11236 0.0
C545 C 0.64452 0.71883 0.08076 0.0
O546 O 0.70114 0.79398 0.07005 0.0
O547 O 0.66744 0.78901 0.07608 0.0
O548 O 0.70356 0.79665 0.15105 0.0
C549 C 0.6859 0.7987 0.06179 0.0
O550 O 0.65861 0.72609 0.05983 0.0
C551 C 0.68707 0.79397 0.16673 0.0
O552 O 0.6486 0.73078 0.10362 0.0
O553 O 0.66712 0.77975 0.15744 0.0
C554 C 0.33329 0.99916 0.11543 0.0
O555 O 0.33154 0.99884 0.14286 0.0
Cd556 Cd 0.29892 0.99462 0.16876 0.0
O557 O 0.31634 0.9959 0.09921 0.0
Cd558 Cd 0.2755 0.98731 0.10704 0.0
C559 C 0.29286 0.03828 0.13862 0.0
O560 O 0.26419 0.96266 0.1514 0.0
O561 O 0.24372 0.97805 0.1402 0.0
O562 O 0.25979 0.95932 0.06714 0.0
C563 C 0.24687 0.96471 0.15688 0.0
O564 O 0.29728 0.02973 0.16104 0.0
C565 C 0.25109 0.96957 0.053 0.0
O566 O 0.28642 0.02724 0.11496 0.0
O567 O 0.25384 0.98791 0.06389 0.0
C568 C 0.0316 0.42111 0.11109 0.0
O569 O 0.02947 0.42147 0.1384 0.0
Cd570 Cd 0.04481 0.40604 0.17379 0.0
O571 O 0.04236 0.41186 0.10046 0.0
Cd572 Cd 0.06256 0.39133 0.11856 0.0
C573 C 0.01535 0.34991 0.15368 0.0
O574 O 0.08268 0.4177 0.15812 0.0
O575 O 0.08577 0.38746 0.15829 0.0
O576 O 0.09108 0.40952 0.08015 0.0
C577 C 0.09159 0.40667 0.1694 0.0
O578 O 0.01973 0.36479 0.17303 0.0
C579 C 0.08801 0.3911 0.06913 0.0
O580 O 0.02703 0.35521 0.13044 0.0
O581 O 0.07285 0.37262 0.08083 0.0
C582 C 0.33812 0.31487 0.01163 0.0
O583 O 0.32882 0.32721 0.01316 0.0
Cd584 Cd 0.31981 0.34627 0.97589 0.0
O585 O 0.34357 0.3107 0.98686 0.0
Cd586 Cd 0.34076 0.32358 0.9343 0.0
C587 C 0.37532 0.38013 0.95343 0.0
O588 O 0.30191 0.31889 0.93865 0.0
O589 O 0.32024 0.33668 0.90045 0.0
O590 O 0.33657 0.2865 0.91821 0.0
C591 C 0.30175 0.32813 0.91453 0.0
O592 O 0.35738 0.37852 0.96455 0.0
C593 C 0.34656 0.29399 0.89403 0.0
O594 O 0.37474 0.36266 0.94219 0.0
O595 O 0.35457 0.31515 0.88893 0.0
C596 C 0.7102 0.10809 0.88511 0.0
O597 O 0.68919 0.09612 0.87819 0.0
Cd598 Cd 0.66054 0.07312 0.91344 0.0
O599 O 0.71635 0.10983 0.91168 0.0
Cd600 Cd 0.69807 0.09628 0.96006 0.0
C601 C 0.68647 0.04355 0.9392 0.0
O602 O 0.66094 0.09557 0.95355 0.0
O603 O 0.66368 0.07665 0.99016 0.0
O604 O 0.72246 0.13602 0.97453 0.0
C605 C 0.65224 0.08436 0.97683 0.0
O606 O 0.6693 0.04294 0.92624 0.0
C607 C 0.73002 0.13168 0.99781 0.0
O608 O 0.70125 0.06156 0.95217 0.0
O609 O 0.72306 0.11073 1.00353 0.0
C610 C 0.96861 0.71457 0.86102 0.0
O611 O 0.97688 0.7044 0.84689 0.0
Cd612 Cd 0.99383 0.68378 0.87047 0.0
O613 O 0.96977 0.71511 0.88863 0.0
Cd614 Cd 0.98563 0.70287 0.9294 0.0
C615 C 0.0402 0.72799 0.902 0.0
O616 O 0.96955 0.66359 0.91138 0.0
O617 O 0.98556 0.67061 0.95389 0.0
O618 O 0.95707 0.70877 0.95355 0.0
C619 C 0.97529 0.65638 0.93386 0.0
O620 O 0.03292 0.71279 0.88253 0.0
C621 C 0.96891 0.71715 0.97645 0.0
O622 O 0.02649 0.72848 0.92029 0.0
O623 O 0.98841 0.7185 0.97777 0.0
C624 C 0.41143 0.11802 0.44259 0.0
O625 O 0.40939 0.11683 0.41512 0.0
Cd626 Cd 0.37772 0.11617 0.38894 0.0
O627 O 0.39685 0.1201 0.45769 0.0
Cd628 Cd 0.36151 0.12344 0.44994 0.0
C629 C 0.33281 0.06933 0.42098 0.0
O630 O 0.37278 0.14729 0.40448 0.0
O631 O 0.33762 0.13243 0.4176 0.0
O632 O 0.37405 0.1537 0.48654 0.0
C633 C 0.35328 0.14552 0.40018 0.0
O634 O 0.3447 0.07825 0.39828 0.0
C635 C 0.35759 0.14281 0.50401 0.0
O636 O 0.33605 0.08146 0.44342 0.0
O637 O 0.34272 0.12269 0.49663 0.0
C638 C 0.0272 0.35076 0.46968 0.0
O639 O 0.02622 0.35223 0.49706 0.0
Cd640 Cd 0.99354 0.34223 0.52631 0.0
O641 O 0.00941 0.34465 0.45362 0.0
Cd642 Cd 0.96821 0.33405 0.46224 0.0
C643 C 0.97944 0.38181 0.5023 0.0
O644 O 0.96659 0.30896 0.50108 0.0
O645 O 0.93423 0.3068 0.49251 0.0
O646 O 0.95568 0.31277 0.41617 0.0
C647 C 0.94569 0.29984 0.50727 0.0
O648 O 0.98626 0.37428 0.5235 0.0
C649 C 0.94532 0.32304 0.40659 0.0
O650 O 0.97338 0.3711 0.47838 0.0
O651 O 0.94579 0.33829 0.42271 0.0
C652 C 0.77126 0.77633 0.45737 0.0
O653 O 0.77408 0.77226 0.48371 0.0
Cd654 Cd 0.77822 0.74052 0.49894 0.0
O655 O 0.7715 0.76394 0.43698 0.0
Cd656 Cd 0.77741 0.7316 0.42644 0.0
C657 C 0.72976 0.69642 0.46526 0.0
O658 O 0.80435 0.74127 0.46485 0.0
O659 O 0.79557 0.70965 0.44418 0.0
O660 O 0.80263 0.75483 0.38784 0.0
C661 C 0.80673 0.72388 0.46396 0.0
O662 O 0.74092 0.70749 0.48762 0.0
C663 C 0.79302 0.74014 0.36805 0.0
O664 O 0.73852 0.70174 0.43997 0.0
O665 O 0.77551 0.72134 0.37522 0.0
H666 H 0.00949 0.47611 0.01614 0.0
H667 H 0.98133 0.49068 0.09092 0.0
H668 H 0.98854 0.46447 0.1205 0.0
H669 H 0.00659 0.44082 0.12637 0.0
H670 H 0.03615 0.42736 0.0521 0.0
H671 H 0.02453 0.44968 0.02111 0.0
C672 C 0.0045 0.47322 0.03876 0.0
C673 C 0.99505 0.48552 0.05134 0.0
C674 C 0.00925 0.45858 0.05587 0.0
C675 C 0.98874 0.48156 0.08071 0.0
C676 C 0.99296 0.46665 0.0977 0.0
C677 C 0.01034 0.44256 0.10335 0.0
C678 C 0.02251 0.43264 0.09171 0.0
C679 C 0.00386 0.45564 0.08572 0.0
C680 C 0.02696 0.43493 0.06175 0.0
C681 C 0.02033 0.44771 0.04398 0.0
H682 H 0.54919 0.62623 0.08246 0.0
H683 H 0.57967 0.61338 0.00868 0.0
H684 H 0.6142 0.65035 0.01488 0.0
H685 H 0.6356 0.68648 0.04051 0.0
H686 H 0.60608 0.69961 0.11502 0.0
H687 H 0.57138 0.66236 0.10928 0.0
C688 C 0.56339 0.6315 0.06775 0.0
C689 C 0.56171 0.61696 0.04504 0.0
C690 C 0.58338 0.65285 0.07154 0.0
C691 C 0.58041 0.62409 0.02635 0.0
C692 C 0.60019 0.64529 0.02984 0.0
C693 C 0.6216 0.6813 0.05556 0.0
C694 C 0.62348 0.69601 0.07809 0.0
C695 C 0.60183 0.65984 0.05225 0.0
C696 C 0.60517 0.68873 0.09748 0.0
C697 C 0.58529 0.66741 0.09416 0.0
H698 H 0.43188 0.01661 0.08243 0.0
H699 H 0.4089 0.02398 0.9969 0.0
H700 H 0.37274 0.01736 0.01687 0.0
H701 H 0.34682 0.0081 0.05846 0.0
H702 H 0.36998 1.00078 0.14393 0.0
H703 H 0.40653 0.0086 0.12414 0.0
C704 C 0.4191 0.01706 0.06818 0.0
C705 C 0.42325 0.02083 0.03815 0.0
C706 C 0.39811 0.01297 0.07977 0.0
C707 C 0.4063 0.02114 0.02009 0.0
C708 C 0.3855 0.01725 0.03148 0.0
C709 C 0.35983 0.00817 0.07276 0.0
C710 C 0.35544 0.00371 0.10268 0.0
C711 C 0.38106 0.01285 0.06125 0.0
C712 C 0.37271 0.00409 0.12082 0.0
C713 C 0.39372 0.00861 0.10953 0.0
H714 H 0.47415 0.0936 0.52147 0.0
H715 H 0.50052 0.09115 0.43766 0.0
H716 H 0.47674 0.10496 0.4144 0.0
H717 H 0.44555 0.11383 0.41724 0.0
H718 H 0.41852 0.11535 0.50096 0.0
H719 H 0.44553 0.10593 0.52473 0.0
C720 C 0.47505 0.09645 0.49817 0.0
C721 C 0.48904 0.0911 0.48138 0.0
C722 C 0.46096 0.10398 0.4848 0.0
C723 C 0.48991 0.095 0.45119 0.0
C724 C 0.47619 0.1028 0.43781 0.0
C725 C 0.4457 0.11237 0.44072 0.0
C726 C 0.42975 0.11507 0.45719 0.0
C727 C 0.46117 0.10671 0.4543 0.0
C728 C 0.43043 0.11326 0.48764 0.0
C729 C 0.44588 0.10782 0.50129 0.0
H730 H 0.99452 0.47953 0.53046 0.0
H731 H 0.97338 0.47569 0.44076 0.0
H732 H 0.96516 0.43616 0.43888 0.0
H733 H 0.96807 0.40424 0.46104 0.0
H734 H 0.99111 0.409 0.55008 0.0
H735 H 0.99454 0.44656 0.55377 0.0
C736 C 0.98758 0.46991 0.51068 0.0
C737 C 0.98461 0.48063 0.48575 0.0
C738 C 0.98364 0.44743 0.50945 0.0
C739 C 0.97585 0.46789 0.46025 0.0
C740 C 0.97129 0.44531 0.4591 0.0
C741 C 0.97362 0.41336 0.48137 0.0
C742 C 0.97954 0.40379 0.50513 0.0
C743 C 0.97582 0.43515 0.48329 0.0
C744 C 0.98659 0.41592 0.53132 0.0
C745 C 0.98854 0.43745 0.5335 0.0
H746 H 0.63158 0.62028 0.50436 0.0
H747 H 0.63673 0.58771 0.42761 0.0
H748 H 0.67449 0.62078 0.41744 0.0
H749 H 0.7062 0.65899 0.43096 0.0
H750 H 0.7008 0.69027 0.50907 0.0
H751 H 0.6628 0.65785 0.51787 0.0
C752 C 0.64085 0.62053 0.48522 0.0
C753 C 0.63134 0.60171 0.46662 0.0
C754 C 0.66247 0.63941 0.47975 0.0
C755 C 0.64379 0.602 0.4423 0.0
C756 C 0.6653 0.62093 0.43644 0.0
C757 C 0.69659 0.65875 0.44974 0.0
C758 C 0.70629 0.67704 0.46928 0.0
C759 C 0.67483 0.63975 0.45505 0.0
C760 C 0.69377 0.67637 0.49375 0.0
C761 C 0.67203 0.65785 0.49882 0.0
H762 H 0.97544 0.56343 0.93258 0.0
H763 H 0.95692 0.56252 0.02203 0.0
H764 H 0.95412 0.59679 0.01337 0.0
H765 H 0.96198 0.62981 0.98212 0.0
H766 H 0.97857 0.63014 0.89214 0.0
H767 H 0.977 0.59327 0.89914 0.0
C768 C 0.97025 0.57044 0.94996 0.0
C769 C 0.96664 0.56056 0.97797 0.0
C770 C 0.96868 0.59023 0.94485 0.0
C771 C 0.95974 0.5697 1.00025 0.0
C772 C 0.95835 0.58946 0.9954 0.0
C773 C 0.96488 0.62158 0.96398 0.0
C774 C 0.97072 0.63269 0.93679 0.0
C775 C 0.96359 0.60031 0.96809 0.0
C776 C 0.9741 0.62183 0.91327 0.0
C777 C 0.97329 0.60083 0.91731 0.0
H778 H 0.47562 0.46603 0.96091 0.0
H779 H 0.43867 0.49352 1.00489 0.0
H780 H 0.40277 0.45822 0.9965 0.0
H781 H 0.38185 0.41934 0.97791 0.0
H782 H 0.41824 0.39105 0.93443 0.0
H783 H 0.45426 0.42692 0.94121 0.0
C784 C 0.45972 0.46434 0.96861 0.0
C785 C 0.45998 0.48253 0.98362 0.0
C786 C 0.43898 0.44384 0.96377 0.0
C787 C 0.43912 0.47992 0.99336 0.0
C788 C 0.41851 0.45969 0.98855 0.0
C789 C 0.39759 0.42094 0.9697 0.0
C790 C 0.39719 0.40234 0.95565 0.0
C791 C 0.41824 0.44151 0.97393 0.0
C792 C 0.41791 0.40497 0.94528 0.0
C793 C 0.43856 0.4255 0.94924 0.0
H794 H 0.55496 0.04845 0.03271 0.0
H795 H 0.54883 0.08845 0.9625 0.0
H796 H 0.58819 0.10105 0.94807 0.0
H797 H 0.62363 0.09868 0.95342 0.0
H798 H 0.62899 0.0581 0.02348 0.0
H799 H 0.59072 0.04774 0.03969 0.0
C800 C 0.56224 0.06014 0.01443 0.0
C801 C 0.54877 0.06737 0.99869 0.0
C802 C 0.58477 0.06704 1.00595 0.0
C803 C 0.5587 0.08259 0.97511 0.0
C804 C 0.58122 0.08971 0.96671 0.0
C805 C 0.61647 0.08765 0.97231 0.0
C806 C 0.62921 0.07906 0.98703 0.0
C807 C 0.59428 0.0817 0.98162 0.0
C808 C 0.61963 0.0649 0.01159 0.0
C809 C 0.5977 0.05896 0.02094 0.0
H810 H 0.53593 0.99389 0.55003 0.0
H811 H 0.58328 0.05972 0.5132 0.0
H812 H 0.61559 0.05522 0.53038 0.0
H813 H 0.63019 0.03147 0.55398 0.0
H814 H 0.58208 0.96617 0.59167 0.0
H815 H 0.55027 0.97153 0.57589 0.0
C816 C 0.55332 0.00737 0.54588 0.0
C817 C 0.55717 0.02706 0.53017 0.0
C818 C 0.57168 0.00464 0.55578 0.0
C819 C 0.57983 0.04444 0.52532 0.0
C820 C 0.59829 0.04178 0.53498 0.0
C821 C 0.61273 0.01844 0.55874 0.0
C822 C 0.60854 0.99832 0.5738 0.0
C823 C 0.59441 0.02178 0.54989 0.0
C824 C 0.58583 0.98175 0.5801 0.0
C825 C 0.56761 0.98481 0.57107 0.0
H826 H 0.01393 0.60131 0.52093 0.0
H827 H 0.07065 0.61992 0.58017 0.0
H828 H 0.07414 0.6574 0.58689 0.0
H829 H 0.06174 0.68548 0.57465 0.0
H830 H 0.00575 0.66664 0.5138 0.0
H831 H 1.0016 0.62902 0.50883 0.0
C832 C 0.02678 0.61341 0.53572 0.0
C833 C 0.04183 0.60774 0.55027 0.0
C834 C 0.02911 0.63514 0.53886 0.0
C835 C 0.05875 0.62383 0.56884 0.0
C836 C 0.06085 0.64532 0.57257 0.0
C837 C 0.04874 0.6732 0.56019 0.0
C838 C 0.03414 0.67905 0.54467 0.0
C839 C 0.04631 0.65132 0.55738 0.0
C840 C 0.01727 0.66275 0.52613 0.0
C841 C 0.01478 0.6411 0.52328 0.0
H842 H 0.4735 0.5098 0.57243 0.0
H843 H 0.48397 0.45328 0.55367 0.0
H844 H 0.44448 0.4264 0.56686 0.0
H845 H 0.40672 0.41895 0.58118 0.0
H846 H 0.39541 0.47494 0.60008 0.0
H847 H 0.43561 0.50217 0.58909 0.0
C848 C 0.46711 0.4916 0.57118 0.0
C849 C 0.48165 0.48357 0.56186 0.0
C850 C 0.44427 0.47622 0.57858 0.0
C851 C 0.47326 0.45993 0.56098 0.0
C852 C 0.45062 0.44455 0.5683 0.0
C853 C 0.41295 0.43712 0.58286 0.0
C854 C 0.39799 0.44493 0.59104 0.0
C855 C 0.43593 0.45252 0.5767 0.0
C856 C 0.40654 0.4685 0.59368 0.0
C857 C 0.4295 0.48404 0.58737 0.0
H858 H 0.75865 0.86264 0.44549 0.0
H859 H 0.74097 0.83796 0.35795 0.0
H860 H 0.74871 0.80693 0.36962 0.0
H861 H 0.7592 0.7863 0.40506 0.0
H862 H 0.77569 0.81011 0.49333 0.0
H863 H 0.76974 0.84215 0.48103 0.0
C864 C 0.75683 0.85061 0.42896 0.0
C865 C 0.74932 0.85245 0.40096 0.0
C866 C 0.76091 0.83266 0.436 0.0
C867 C 0.74659 0.83664 0.37972 0.0
C868 C 0.75103 0.81898 0.38636 0.0
C869 C 0.76159 0.79852 0.42163 0.0
C870 C 0.76784 0.7958 0.45007 0.0
C871 C 0.75795 0.81671 0.41452 0.0
C872 C 0.77077 0.81175 0.47129 0.0
C873 C 0.76743 0.8301 0.46427 0.0
H874 H 0.26013 0.96469 0.44229 0.0
H875 H 0.26997 0.96258 0.3504 0.0
H876 H 0.29731 0.00357 0.34985 0.0
H877 H 0.31852 0.03999 0.37541 0.0
H878 H 0.30827 0.04249 0.46722 0.0
H879 H 0.28107 1.00145 0.46785 0.0
C880 C 0.26843 0.97316 0.42221 0.0
C881 C 0.26305 0.96048 0.39641 0.0
C882 C 0.28401 0.99685 0.42202 0.0
C883 C 0.27366 0.97189 0.37049 0.0
C884 C 0.28935 0.99534 0.37019 0.0
C885 C 0.31036 0.03162 0.39561 0.0
C886 C 0.31558 0.04446 0.42126 0.0
C887 C 0.29464 0.008 0.3958 0.0
C888 C 0.30464 0.03318 0.44713 0.0
C889 C 0.28909 0.00964 0.44752 0.0
H890 H 0.12762 0.37478 0.43814 0.0
H891 H 0.09577 0.34949 0.35462 0.0
H892 H 0.05866 0.34085 0.37404 0.0
H893 H 0.03561 0.34245 0.4143 0.0
H894 H 0.06862 0.36902 0.49704 0.0
H895 H 0.10481 0.37541 0.47815 0.0
C896 C 0.11254 0.36704 0.42421 0.0
C897 C 0.11455 0.36277 0.39495 0.0
C898 C 0.09143 0.36269 0.43526 0.0
C899 C 0.09475 0.3529 0.37727 0.0
C900 C 0.07353 0.34811 0.3883 0.0
C901 C 0.05074 0.34972 0.42814 0.0
C902 C 0.04927 0.35532 0.45704 0.0
C903 C 0.07173 0.35336 0.41715 0.0
C904 C 0.0691 0.36455 0.4747 0.0
C905 C 0.08988 0.36817 0.46397 0.0
H906 H 0.1399 0.37607 0.79944 0.0
H907 H 0.10039 0.35711 0.87802 0.0
H908 H 0.0699 0.36048 0.85272 0.0
H909 H 0.05516 0.37066 0.80848 0.0
H910 H 0.09396 0.38716 0.72939 0.0
H911 H 0.12382 0.38292 0.75454 0.0
C912 C 0.12452 0.37247 0.81096 0.0
C913 C 0.12251 0.36645 0.84062 0.0
C914 C 0.10691 0.37416 0.79617 0.0
C915 C 0.10237 0.36166 0.85515 0.0
C916 C 0.08496 0.36373 0.84072 0.0
C917 C 0.07011 0.37322 0.79677 0.0
C918 C 0.07233 0.37938 0.7671 0.0
C919 C 0.08715 0.37027 0.81129 0.0
C920 C 0.09172 0.38236 0.75218 0.0
C921 C 0.10889 0.38 0.76658 0.0
H922 H 0.70384 0.8189 0.78218 0.0
H923 H 0.68876 0.80842 0.87352 0.0
H924 H 0.67776 0.76818 0.86954 0.0
H925 H 0.67211 0.736 0.84024 0.0
H926 H 0.68496 0.74514 0.74817 0.0
H927 H 0.69695 0.78576 0.75211 0.0
C928 C 0.6983 0.80774 0.80114 0.0
C929 C 0.6972 0.81654 0.82816 0.0
C930 C 0.69145 0.78441 0.79849 0.0
C931 C 0.68964 0.80194 0.85255 0.0
C932 C 0.68338 0.77897 0.85026 0.0
C933 C 0.67755 0.74683 0.82097 0.0
C934 C 0.67774 0.73751 0.79397 0.0
C935 C 0.68413 0.77001 0.82336 0.0
C936 C 0.68458 0.75182 0.76922 0.0
C937 C 0.69153 0.77508 0.77149 0.0
H938 H 0.2465 0.95433 0.82954 0.0
H939 H 0.24753 0.89949 0.78442 0.0
H940 H 0.28809 0.92476 0.77273 0.0
H941 H 0.32336 0.96272 0.77587 0.0
H942 H 0.32221 0.01585 0.825 0.0
H943 H 0.28141 0.99108 0.83439 0.0
C944 C 0.25558 0.94791 0.81704 0.0
C945 C 0.2441 0.92521 0.8076 0.0
C946 C 0.27879 0.96229 0.81105 0.0
C947 C 0.25611 0.91695 0.79192 0.0
C948 C 0.27922 0.93141 0.78516 0.0
C949 C 0.31401 0.96881 0.78838 0.0
C950 C 0.32549 0.99105 0.7995 0.0
C951 C 0.29073 0.95415 0.79459 0.0
C952 C 0.31354 0.99877 0.81621 0.0
C953 C 0.2903 0.98464 0.8216 0.0
H954 H 0.73034 0.98678 0.31836 0.0
H955 H 0.68231 0.92985 0.26704 0.0
H956 H 0.6646 0.95191 0.24908 0.0
H957 H 0.66095 0.98618 0.25137 0.0
H958 H 0.70772 0.04236 0.30515 0.0
H959 H 0.72782 0.02183 0.31892 0.0
C960 C 0.71637 0.97953 0.30269 0.0
C961 C 0.70762 0.95694 0.29376 0.0
C962 C 0.70586 0.99199 0.2934 0.0
C963 C 0.68921 0.94733 0.27401 0.0
C964 C 0.67907 0.95984 0.26393 0.0
C965 C 0.6756 0.99396 0.26602 0.0
C966 C 0.68273 0.01564 0.27743 0.0
C967 C 0.6869 0.98198 0.27408 0.0
C968 C 0.70178 0.02558 0.29628 0.0
C969 C 0.71334 0.0139 0.30409 0.0
H970 H 0.12695 0.81397 0.32247 0.0
H971 H 0.1636 0.77695 0.33109 0.0
H972 H 0.13128 0.74347 0.30844 0.0
H973 H 0.09172 0.72435 0.28796 0.0
H974 H 0.05474 0.76132 0.28343 0.0
H975 H 0.0882 0.79539 0.30217 0.0
C976 C 0.12806 0.79873 0.31898 0.0
C977 C 0.14777 0.79802 0.3281 0.0
C978 C 0.10931 0.77956 0.30661 0.0
C979 C 0.14861 0.77787 0.32419 0.0
C980 C 0.13017 0.75879 0.3112 0.0
C981 C 0.0912 0.74001 0.29067 0.0
C982 C 0.07088 0.74043 0.28407 0.0
C983 C 0.11032 0.75938 0.3025 0.0
C984 C 0.07021 0.76063 0.28827 0.0
C985 C 0.0893 0.78009 0.29906 0.0
H986 H 0.25892 0.45212 0.33017 0.0
H987 H 0.23521 0.38445 0.36545 0.0
H988 H 0.27236 0.38774 0.35475 0.0
H989 H 0.31225 0.41078 0.33694 0.0
H990 H 0.33479 0.47828 0.30153 0.0
H991 H 0.29748 0.47425 0.3112 0.0
C992 C 0.26176 0.43798 0.3354 0.0
C993 C 0.24436 0.4181 0.34867 0.0
C994 C 0.28308 0.44012 0.32952 0.0
C995 C 0.24829 0.39988 0.35504 0.0
C996 C 0.26959 0.40186 0.34916 0.0
C997 C 0.30898 0.42464 0.33154 0.0
C998 C 0.32634 0.44491 0.31875 0.0
C999 C 0.28725 0.42206 0.33677 0.0
C1000 C 0.32178 0.46257 0.31145 0.0
C1001 C 0.30042 0.46025 0.3169 0.0
H1002 H 0.23419 0.36051 0.86424 0.0
H1003 H 0.20075 0.33186 0.94585 0.0
H1004 H 0.22818 0.319 0.95694 0.0
H1005 H 0.26339 0.31826 0.94518 0.0
H1006 H 0.29754 0.34801 0.8643 0.0
H1007 H 0.26818 0.35792 0.85129 0.0
C1008 C 0.23265 0.35113 0.88426 0.0
C1009 C 0.21535 0.34722 0.90418 0.0
C1010 C 0.24882 0.34415 0.89081 0.0
C1011 C 0.21385 0.33519 0.93011 0.0
C1012 C 0.22961 0.32787 0.93653 0.0
C1013 C 0.26431 0.32672 0.92458 0.0
C1014 C 0.28279 0.33247 0.90585 0.0
C1015 C 0.24745 0.33264 0.91733 0.0
C1016 C 0.28363 0.34346 0.87924 0.0
C1017 C 0.26681 0.34915 0.87176 0.0
H1018 H 0.68091 0.94987 0.91329 0.0
H1019 H 0.75315 0.99433 0.89837 0.0
H1020 H 0.75018 0.02683 0.91506 0.0
H1021 H 0.72636 0.04333 0.93032 0.0
H1022 H 0.6537 0.99893 0.94083 0.0
H1023 H 0.65755 0.96582 0.9294 0.0
C1024 C 0.69606 0.9666 0.91336 0.0
C1025 C 0.7172 0.96941 0.90411 0.0
C1026 C 0.69414 0.98537 0.92232 0.0
C1027 C 0.73664 0.99139 0.90535 0.0
C1028 C 0.73494 0.0101 0.91482 0.0
C1029 C 0.7115 0.02632 0.93067 0.0
C1030 C 0.68979 0.02353 0.93663 0.0
C1031 C 0.71371 0.00738 0.92297 0.0
C1032 C 0.67058 1.00148 0.93641 0.0
C1033 C 0.67276 0.98256 0.92974 0.0
H1034 H 0.13605 0.81695 0.91464 0.0
H1035 H 0.14259 0.79927 0.82715 0.0
H1036 H 0.10671 0.76312 0.83208 0.0
H1037 H 0.07132 0.73899 0.85899 0.0
H1038 H 0.06365 0.75836 0.94508 0.0
H1039 H 0.10219 0.79136 0.94295 0.0
C1040 C 0.12993 0.80499 0.89684 0.0
C1041 C 0.14193 0.81087 0.8705 0.0
C1042 C 0.10888 0.78468 0.89943 0.0
C1043 C 0.13363 0.7952 0.84762 0.0
C1044 C 0.11305 0.77458 0.85037 0.0
C1045 C 0.0782 0.75022 0.87748 0.0
C1046 C 0.06451 0.74631 0.90205 0.0
C1047 C 0.10016 0.76951 0.87582 0.0
C1048 C 0.07371 0.76108 0.92578 0.0
C1049 C 0.09576 0.77997 0.92459 0.0
H1050 H 0.39492 0.1715 0.76887 0.0
H1051 H 0.43572 0.18295 0.69288 0.0
H1052 H 0.43616 0.1473 0.70254 0.0
H1053 H 0.42432 0.11241 0.73264 0.0
H1054 H 0.3859 0.10296 0.81065 0.0
H1055 H 0.38499 0.13807 0.80024 0.0
C1056 C 0.40391 0.16612 0.75454 0.0
C1057 C 0.4152 0.17966 0.73023 0.0
C1058 C 0.40442 0.1459 0.76057 0.0
C1059 C 0.42707 0.1728 0.71188 0.0
C1060 C 0.4272 0.15238 0.71731 0.0
C1061 C 0.41575 0.11809 0.74725 0.0
C1062 C 0.40509 0.10508 0.77227 0.0
C1063 C 0.41583 0.13872 0.74155 0.0
C1064 C 0.39429 0.11273 0.79129 0.0
C1065 C 0.39372 0.13278 0.78534 0.0
H1066 H 0.88232 0.26393 0.68787 0.0
H1067 H 0.86655 0.26935 0.77669 0.0
H1068 H 0.90234 0.30568 0.78117 0.0
H1069 H 0.93971 0.33459 0.76097 0.0
H1070 H 0.95576 0.32772 0.67268 0.0
H1071 H 0.91858 0.2935 0.66709 0.0
C1072 C 0.88642 0.2733 0.70802 0.0
C1073 C 0.8716 0.26392 0.73185 0.0
C1074 C 0.90742 0.29386 0.71075 0.0
C1075 C 0.87754 0.27617 0.75794 0.0
C1076 C 0.89812 0.29692 0.76059 0.0
C1077 C 0.93505 0.32569 0.74046 0.0
C1078 C 0.95079 0.33382 0.71741 0.0
C1079 C 0.91349 0.3057 0.73735 0.0
C1080 C 0.94425 0.32194 0.69097 0.0
C1081 C 0.92286 0.30231 0.68765 0.0
H1082 H 0.80092 0.67438 0.75775 0.0
H1083 H 0.76835 0.64425 0.67614 0.0
H1084 H 0.73277 0.64159 0.6922 0.0
H1085 H 0.71141 0.64995 0.72829 0.0
H1086 H 0.74393 0.67962 0.81008 0.0
H1087 H 0.77886 0.68042 0.79497 0.0
C1088 C 0.78596 0.66691 0.74361 0.0
C1089 C 0.78746 0.65965 0.71569 0.0
C1090 C 0.76553 0.66564 0.75285 0.0
C1091 C 0.76781 0.65003 0.69773 0.0
C1092 C 0.74742 0.64861 0.70682 0.0
C1093 C 0.72615 0.65661 0.74279 0.0
C1094 C 0.72505 0.66491 0.77017 0.0
C1095 C 0.74621 0.6568 0.7341 0.0
C1096 C 0.74425 0.67317 0.78884 0.0
C1097 C 0.76428 0.67362 0.78024 0.0
H1098 H 0.78614 0.7242 0.18352 0.0
H1099 H 0.80951 0.71961 0.0986 0.0
H1100 H 0.78137 0.72794 0.07592 0.0
H1101 H 0.75165 0.73849 0.07994 0.0
H1102 H 0.72885 0.74477 0.1645 0.0
H1103 H 0.75523 0.7339 0.18748 0.0
C1104 C 0.7848 0.72463 0.16004 0.0
C1105 C 0.79989 0.7211 0.1428 0.0
C1106 C 0.76886 0.73003 0.14705 0.0
C1107 C 0.79814 0.72217 0.11241 0.0
C1108 C 0.78208 0.72703 0.09941 0.0
C1109 C 0.7523 0.73744 0.10343 0.0
C1110 C 0.7382 0.74257 0.12039 0.0
C1111 C 0.76762 0.73135 0.11648 0.0
C1112 C 0.73946 0.74103 0.15081 0.0
C1113 C 0.75456 0.73477 0.16399 0.0
H1114 H 0.28596 0.12842 0.13215 0.0
H1115 H 0.31577 0.13637 0.21772 0.0
H1116 H 0.31645 0.10075 0.21269 0.0
H1117 H 0.30846 0.06737 0.18415 0.0
H1118 H 0.27924 0.05944 0.09802 0.0
H1119 H 0.27858 0.09508 0.10299 0.0
C1120 C 0.29239 0.12218 0.14972 0.0
C1121 C 0.30073 0.13491 0.1753 0.0
C1122 C 0.293 0.10182 0.1465 0.0
C1123 C 0.30941 0.12691 0.19777 0.0
C1124 C 0.30977 0.10655 0.19492 0.0
C1125 C 0.30202 0.07344 0.16637 0.0
C1126 C 0.29388 0.06067 0.14077 0.0
C1127 C 0.30167 0.09391 0.16936 0.0
C1128 C 0.28568 0.06891 0.11795 0.0
C1129 C 0.2852 0.08926 0.12081 0.0
H1130 H 0.92394 0.26356 0.19237 0.0
H1131 H 0.91427 0.25606 0.09952 0.0
H1132 H 0.95356 0.28697 0.09212 0.0
H1133 H 0.98867 0.31966 0.11197 0.0
H1134 H 0.99658 0.32855 0.20478 0.0
H1135 H 0.96016 0.29357 0.2122 0.0
C1136 C 0.93055 0.26826 0.17049 0.0
C1137 C 0.91607 0.25758 0.14653 0.0
C1138 C 0.95283 0.28662 0.16637 0.0
C1139 C 0.92499 0.26406 0.11837 0.0
C1140 C 0.94744 0.28183 0.11411 0.0
C1141 C 0.98263 0.31365 0.13381 0.0
C1142 C 0.99523 0.32681 0.15777 0.0
C1143 C 0.96124 0.29381 0.13793 0.0
C1144 C 0.9871 0.31888 0.18595 0.0
C1145 C 0.96626 0.29886 0.19023 0.0
H1146 H 0.387 0.32561 0.70673 0.0
H1147 H 0.35773 0.28305 0.63178 0.0
H1148 H 0.33763 0.30377 0.61822 0.0
H1149 H 0.32891 0.33459 0.62741 0.0
H1150 H 0.35881 0.37715 0.70242 0.0
H1151 H 0.37797 0.35578 0.71629 0.0
C1152 C 0.37649 0.32108 0.68722 0.0
C1153 C 0.37403 0.30296 0.67014 0.0
C1154 C 0.36489 0.33294 0.67973 0.0
C1155 C 0.35986 0.29693 0.64529 0.0
C1156 C 0.34836 0.30876 0.63755 0.0
C1157 C 0.33938 0.33896 0.64697 0.0
C1158 C 0.34239 0.3574 0.66386 0.0
C1159 C 0.3507 0.32678 0.65466 0.0
C1160 C 0.35622 0.36304 0.689 0.0
C1161 C 0.36728 0.35089 0.69693 0.0
H1162 H 0.79533 0.12176 0.64549 0.0
H1163 H 0.75807 0.15075 0.68485 0.0
H1164 H 0.72179 0.11581 0.6742 0.0
H1165 H 0.70097 0.07593 0.65637 0.0
H1166 H 0.73915 0.0479 0.61673 0.0
H1167 H 0.77472 0.08353 0.62497 0.0
C1168 C 0.77926 0.12058 0.65154 0.0
C1169 C 0.77944 0.13884 0.6661 0.0
C1170 C 0.75863 0.10047 0.64555 0.0
C1171 C 0.75844 0.13705 0.67348 0.0
C1172 C 0.73771 0.11697 0.66759 0.0
C1173 C 0.71706 0.07763 0.64946 0.0
C1174 C 0.71728 0.05903 0.63615 0.0
C1175 C 0.73763 0.09838 0.6541 0.0
C1176 C 0.73834 0.06176 0.62707 0.0
C1177 C 0.75876 0.08217 0.63179 0.0
H1178 H 0.90714 0.69808 0.63942 0.0
H1179 H 0.93378 0.69457 0.72379 0.0
H1180 H 0.97021 0.7029 0.7018 0.0
H1181 H 0.99625 0.7177 0.65939 0.0
H1182 H 0.97 0.72665 0.57697 0.0
H1183 H 0.93167 0.70996 0.59724 0.0
C1184 C 0.92056 0.69807 0.65281 0.0
C1185 C 0.91764 0.6951 0.68302 0.0
C1186 C 0.94181 0.70475 0.64036 0.0
C1187 C 0.93541 0.69604 0.70038 0.0
C1188 C 0.95638 0.70134 0.68783 0.0
C1189 C 0.98203 0.71574 0.64588 0.0
C1190 C 0.98593 0.72361 0.61681 0.0
C1191 C 0.9601 0.7068 0.65801 0.0
C1192 C 0.96747 0.72106 0.59949 0.0
C1193 C 0.94553 0.71137 0.61101 0.0
H1194 H 0.91508 0.71129 0.16137 0.0
H1195 H 0.87556 0.67859 0.238 0.0
H1196 H 0.90322 0.66674 0.25294 0.0
H1197 H 0.94005 0.66768 0.2458 0.0
H1198 H 0.98065 0.70275 0.17073 0.0
H1199 H 0.95132 0.71159 0.15375 0.0
C1200 C 0.91229 0.70123 0.18109 0.0
C1201 C 0.89309 0.69569 0.1984 0.0
C1202 C 0.92869 0.69509 0.19006 0.0
C1203 C 0.89008 0.68302 0.22418 0.0
C1204 C 0.90597 0.67631 0.23281 0.0
C1205 C 0.9424 0.6771 0.22562 0.0
C1206 C 0.96262 0.68454 0.20962 0.0
C1207 C 0.92557 0.68257 0.21619 0.0
C1208 C 0.96537 0.69689 0.18361 0.0
C1209 C 0.94856 0.70194 0.17382 0.0
H1210 H 0.35478 0.30057 0.25295 0.0
H1211 H 0.28663 0.28261 0.22394 0.0
H1212 H 0.29492 0.32163 0.23189 0.0
H1213 H 0.32172 0.36103 0.24577 0.0
H1214 H 0.38991 0.37934 0.27526 0.0
H1215 H 0.38144 0.34005 0.26828 0.0
C1216 C 0.34179 0.30524 0.24827 0.0
C1217 C 0.32012 0.28866 0.23779 0.0
C1218 C 0.34669 0.32778 0.25289 0.0
C1219 C 0.30334 0.29491 0.2323 0.0
C1220 C 0.30812 0.31728 0.23667 0.0
C1221 C 0.33479 0.35649 0.25069 0.0
C1222 C 0.3565 0.37322 0.26086 0.0
C1223 C 0.32977 0.33388 0.24678 0.0
C1224 C 0.37307 0.36687 0.26739 0.0
C1225 C 0.36825 0.34439 0.26336 0.0
H1226 H 0.79819 0.16665 0.18732 0.0
H1227 H 0.79089 0.18843 0.27194 0.0
H1228 H 0.7516 0.15665 0.27469 0.0
H1229 H 0.71904 0.12307 0.25264 0.0
H1230 H 0.72629 0.10149 0.16784 0.0
H1231 H 0.76562 0.13313 0.16521 0.0
C1232 C 0.78814 0.16421 0.20656 0.0
C1233 C 0.79751 0.17974 0.22952 0.0
C1234 C 0.76534 0.14627 0.20764 0.0
C1235 C 0.7841 0.17658 0.25408 0.0
C1236 C 0.76157 0.15855 0.25556 0.0
C1237 C 0.72909 0.12555 0.23337 0.0
C1238 C 0.71967 0.11007 0.21037 0.0
C1239 C 0.75189 0.14348 0.23228 0.0
C1240 C 0.7331 0.11325 0.18579 0.0
C1241 C 0.75565 0.13124 0.18435 0.0
H1242 H 0.00355 0.48477 0.90121 0.0
H1243 H 0.07687 0.52584 0.89224 0.0
H1244 H 0.07604 0.50057 0.85455 0.0
H1245 H 0.05451 0.46708 0.8235 0.0
H1246 H 0.98125 0.4258 0.8327 0.0
H1247 H 0.98215 0.45062 0.87124 0.0
C1248 C 0.01941 0.4881 0.89133 0.0
C1249 C 0.04024 0.50737 0.89968 0.0
C1250 C 0.01885 0.47338 0.86967 0.0
C1251 C 0.06053 0.51144 0.88611 0.0
C1252 C 0.0601 0.49688 0.86461 0.0
C1253 C 0.03874 0.46341 0.83403 0.0
C1254 C 0.01783 0.44456 0.82514 0.0
C1255 C 0.03935 0.47786 0.8561 0.0
C1256 C 0.99759 0.44015 0.83905 0.0
C1257 C 0.99808 0.45438 0.86109 0.0
H1258 H 0.56217 0.57665 0.9143 0.0
H1259 H 0.51889 0.60444 0.88876 0.0
H1260 H 0.54349 0.6239 0.84745 0.0
H1261 H 0.57776 0.63369 0.81883 0.0
H1262 H 0.62142 0.60642 0.84486 0.0
H1263 H 0.59636 0.58632 0.88568 0.0
C1264 C 0.5582 0.5871 0.89987 0.0
C1265 C 0.53861 0.58897 0.90476 0.0
C1266 C 0.57253 0.59839 0.87613 0.0
C1267 C 0.53362 0.60237 0.88543 0.0
C1268 C 0.54778 0.61365 0.86182 0.0
C1269 C 0.58175 0.62328 0.83337 0.0
C1270 C 0.60147 0.62161 0.82874 0.0
C1271 C 0.5673 0.61181 0.85695 0.0
C1272 C 0.60637 0.60805 0.84786 0.0
C1273 C 0.59206 0.59655 0.87127 0.0
H1274 H 0.4334 0.96627 0.90781 0.0
H1275 H 0.49467 0.03209 0.914 0.0
H1276 H 0.48622 0.04334 0.86687 0.0
H1277 H 0.4592 0.0361 0.82667 0.0
H1278 H 0.39831 0.97007 0.81958 0.0
H1279 H 0.40906 0.95709 0.86397 0.0
C1280 C 0.44518 0.98284 0.89856 0.0
C1281 C 0.46433 0.99851 0.91476 0.0
C1282 C 0.44019 0.98924 0.87137 0.0
C1283 C 0.47946 0.01994 0.90235 0.0
C1284 C 0.47468 0.02638 0.87535 0.0
C1285 C 0.44847 0.01877 0.83464 0.0
C1286 C 0.42786 0.00419 0.82019 0.0
C1287 C 0.4547 0.01146 0.86015 0.0
C1288 C 0.41425 0.98167 0.83045 0.0
C1289 C 0.42033 0.97427 0.85589 0.0
H1290 H 0.42186 0.00296 0.5697 0.0
H1291 H 0.49103 0.0277 0.60086 0.0
H1292 H 0.48042 0.03416 0.64856 0.0
H1293 H 0.45185 0.0337 0.68118 0.0
H1294 H 0.38219 0.00714 0.65119 0.0
H1295 H 0.39263 1.0003 0.60328 0.0
C1296 C 0.43455 0.0094 0.58698 0.0
C1297 C 0.45731 0.01506 0.58144 0.0
C1298 C 0.42829 0.01291 0.61454 0.0
C1299 C 0.47352 0.02361 0.60422 0.0
C1300 C 0.46745 0.02724 0.6316 0.0
C1301 C 0.43897 0.02649 0.66411 0.0
C1302 C 0.41635 0.02117 0.66957 0.0
C1303 C 0.44499 0.02224 0.63688 0.0
C1304 C 0.39975 0.01147 0.64744 0.0
C1305 C 0.4057 0.00754 0.62008 0.0
H1306 H 0.02297 0.50315 0.60638 0.0
H1307 H 0.08479 0.50396 0.58087 0.0
H1308 H 0.07977 0.47717 0.62025 0.0
H1309 H 0.05728 0.45273 0.66155 0.0
H1310 H 0.99472 0.45115 0.68512 0.0
H1311 H 1.00041 0.47863 0.64648 0.0
C1312 C 0.03529 0.49738 0.60899 0.0
C1313 C 0.05422 0.5057 0.59025 0.0
C1314 C 0.0321 0.48165 0.6314 0.0
C1315 C 0.07016 0.49818 0.59488 0.0
C1316 C 0.06722 0.48268 0.61738 0.0
C1317 C 0.04491 0.45841 0.65823 0.0
C1318 C 0.02559 0.44983 0.6763 0.0
C1319 C 0.0482 0.47421 0.63573 0.0
C1320 C 0.00971 0.45738 0.67159 0.0
C1321 C 0.01296 0.47315 0.64948 0.0
H1322 H 0.60694 0.58594 0.58806 0.0
H1323 H 0.55812 0.6095 0.57959 0.0
H1324 H 0.57382 0.63202 0.62406 0.0
H1325 H 0.60041 0.64316 0.66711 0.0
H1326 H 0.64758 0.61735 0.67423 0.0
H1327 H 0.63344 0.59756 0.62855 0.0
C1328 C 0.59962 0.596 0.59574 0.0
C1329 C 0.58119 0.59582 0.58054 0.0
C1330 C 0.60844 0.60846 0.62128 0.0
C1331 C 0.57229 0.60927 0.59083 0.0
C1332 C 0.58123 0.62208 0.61633 0.0
C1333 C 0.60767 0.63334 0.65848 0.0
C1334 C 0.625 0.63168 0.67428 0.0
C1335 C 0.59915 0.62155 0.63202 0.0
C1336 C 0.63416 0.61882 0.66279 0.0
C1337 C 0.6261 0.60748 0.63658 0.0
H1338 H 0.06583 0.62289 0.08065 0.0
H1339 H 0.9973 0.56521 0.08368 0.0
H1340 H 0.98883 0.58107 0.12565 0.0
H1341 H 1.00068 0.61126 0.16167 0.0
H1342 H 0.06873 0.66974 0.15838 0.0
H1343 H 0.07761 0.65367 0.11668 0.0
C1344 C 0.04911 0.61382 0.09062 0.0
C1345 C 0.03221 0.59296 0.07887 0.0
C1346 C 0.04425 0.62316 0.1148 0.0
C1347 C 0.01052 0.58146 0.0919 0.0
C1348 C 0.00569 0.59045 0.11607 0.0
C1349 C 0.01749 0.62048 0.1519 0.0
C1350 C 0.03403 0.64164 0.16325 0.0
C1351 C 0.02238 0.61129 0.12769 0.0
C1352 C 0.05565 0.65342 0.15011 0.0
C1353 C 0.06076 0.64423 0.12625 0.0
H1354 H 0.45249 0.50923 0.09943 0.0
H1355 H 0.5113 0.52318 0.15277 0.0
H1356 H 0.48677 0.50744 0.19518 0.0
H1357 H 0.44826 0.48901 0.21711 0.0
H1358 H 0.39004 0.47615 0.163 0.0
H1359 H 0.4148 0.49255 0.12128 0.0
C1360 C 0.46011 0.5092 0.12032 0.0
C1361 C 0.48381 0.5174 0.12265 0.0
C1362 C 0.44595 0.50028 0.14469 0.0
C1363 C 0.49311 0.51672 0.15006 0.0
C1364 C 0.47909 0.50782 0.17444 0.0
C1365 C 0.44102 0.48992 0.19625 0.0
C1366 C 0.41723 0.48122 0.19338 0.0
C1367 C 0.45542 0.49941 0.17201 0.0
C1368 C 0.40822 0.48259 0.16604 0.0
C1369 C 0.42238 0.49198 0.14203 0.0
H1370 H 0.51901 0.00687 0.1406 0.0
H1371 H 0.53943 0.98193 0.06821 0.0
H1372 H 0.57645 0.99335 0.09192 0.0
H1373 H 0.60317 0.01131 0.13282 0.0
H1374 H 0.58298 0.03782 0.20419 0.0
H1375 H 0.54578 0.02514 0.18117 0.0
C1376 C 0.53142 0.00352 0.13039 0.0
C1377 C 0.52648 0.99321 0.10304 0.0
C1378 C 0.55279 0.01076 0.14373 0.0
C1379 C 0.54291 0.98961 0.08946 0.0
C1380 C 0.56404 0.99626 0.10291 0.0
C1381 C 0.59069 0.01441 0.14329 0.0
C1382 C 0.59594 0.02554 0.17021 0.0
C1383 C 0.56926 0.00708 0.12993 0.0
C1384 C 0.57951 0.02941 0.18342 0.0
C1385 C 0.55814 0.02204 0.17036 0.0
H1386 H 0.56531 0.05899 0.40247 0.0
H1387 H 0.51519 0.99276 0.37065 0.0
H1388 H 0.54102 0.99618 0.33181 0.0
H1389 H 0.57769 0.01785 0.30709 0.0
H1390 H 0.6279 0.08445 0.33802 0.0
H1391 H 0.60218 0.08103 0.37719 0.0
C1392 C 0.56016 0.04523 0.38721 0.0
C1393 C 0.53839 0.02558 0.3895 0.0
C1394 C 0.57506 0.04742 0.36479 0.0
C1395 C 0.53177 0.00809 0.3692 0.0
C1396 C 0.54656 0.01002 0.34707 0.0
C1397 C 0.58306 0.03166 0.32237 0.0
C1398 C 0.60472 0.05137 0.31968 0.0
C1399 C 0.5682 0.02961 0.34465 0.0
C1400 C 0.61131 0.06912 0.33959 0.0
C1401 C 0.59663 0.06714 0.36201 0.0
H1402 H 0.04078 0.58015 0.37519 0.0
H1403 H 0.02393 0.60874 0.44742 0.0
H1404 H 0.01282 0.62996 0.41408 0.0
H1405 H 0.00803 0.64084 0.3646 0.0
H1406 H 0.02616 0.61388 0.29187 0.0
H1407 H 0.03664 0.59177 0.32514 0.0
C1408 C 0.03488 0.59116 0.38366 0.0
C1409 C 0.03303 0.59254 0.41394 0.0
C1410 C 0.02863 0.60362 0.36423 0.0
C1411 C 0.02514 0.60686 0.42435 0.0
C1412 C 0.01886 0.61917 0.40525 0.0
C1413 C 0.01412 0.63002 0.35592 0.0
C1414 C 0.01614 0.62898 0.32567 0.0
C1415 C 0.02043 0.61762 0.37517 0.0
C1416 C 0.02434 0.61501 0.315 0.0
C1417 C 0.0304 0.60238 0.33405 0.0
H1418 H 0.49918 0.49492 0.43587 0.0
H1419 H 0.49749 0.55797 0.43675 0.0
H1420 H 0.46889 0.54392 0.39711 0.0
H1421 H 0.44448 0.51333 0.36192 0.0
H1422 H 0.44689 0.45054 0.3634 0.0
H1423 H 0.47525 0.46505 0.40235 0.0
C1424 C 0.4927 0.50577 0.42749 0.0
C1425 C 0.50064 0.52759 0.43927 0.0
C1426 C 0.47638 0.49759 0.405 0.0
C1427 C 0.49172 0.54113 0.42814 0.0
C1428 C 0.4754 0.53309 0.40543 0.0
C1429 C 0.45129 0.50289 0.37074 0.0
C1430 C 0.44354 0.48084 0.35958 0.0
C1431 C 0.46763 0.51131 0.39359 0.0
C1432 C 0.45245 0.4675 0.37145 0.0
C1433 C 0.46871 0.47579 0.39378 0.0
H1434 H 0.7261 0.85827 0.27543 0.0
H1435 H 0.65455 0.83246 0.29252 0.0
H1436 H 0.64428 0.80806 0.24943 0.0
H1437 H 0.65619 0.79509 0.20542 0.0
H1438 H 0.72846 0.82262 0.19039 0.0
H1439 H 0.7377 0.84525 0.23391 0.0
C1440 C 0.70816 0.84733 0.26996 0.0
C1441 C 0.69116 0.8474 0.28732 0.0
C1442 C 0.70249 0.83363 0.24521 0.0
C1443 C 0.66806 0.83281 0.27971 0.0
C1444 C 0.6622 0.81891 0.25494 0.0
C1445 C 0.67393 0.80599 0.21176 0.0
C1446 C 0.69157 0.80708 0.19427 0.0
C1447 C 0.67932 0.81931 0.23727 0.0
C1448 C 0.71446 0.82136 0.20304 0.0
C1449 C 0.71983 0.83438 0.22808 0.0
H1450 H 0.19525 0.94551 0.27673 0.0
H1451 H 0.21035 0.89038 0.27954 0.0
H1452 H 0.22803 0.90171 0.23201 0.0
H1453 H 0.2411 0.92842 0.19026 0.0
H1454 H 0.22402 0.98208 0.18568 0.0
H1455 H 0.20534 0.97021 0.23284 0.0
C1456 C 0.20221 0.93586 0.26682 0.0
C1457 C 0.20152 0.9172 0.28195 0.0
C1458 C 0.2122 0.94229 0.23906 0.0
C1459 C 0.21053 0.9048 0.26855 0.0
C1460 C 0.22079 0.91132 0.24131 0.0
C1461 C 0.23316 0.93741 0.19954 0.0
C1462 C 0.23412 0.9562 0.18453 0.0
C1463 C 0.22202 0.93022 0.2265 0.0
C1464 C 0.22352 0.96752 0.19671 0.0
C1465 C 0.21287 0.96079 0.22377 0.0
H1466 H 0.14619 0.45154 0.28525 0.0
H1467 H 0.15225 0.39078 0.28592 0.0
H1468 H 0.13226 0.37955 0.23959 0.0
H1469 H 0.11123 0.38571 0.19972 0.0
H1470 H 0.10401 0.44576 0.19923 0.0
H1471 H 0.12596 0.45828 0.24451 0.0
C1472 C 0.14315 0.43586 0.27526 0.0
C1473 C 0.15092 0.4222 0.28925 0.0
C1474 C 0.13122 0.42919 0.2486 0.0
C1475 C 0.14697 0.402 0.2757 0.0
C1476 C 0.13528 0.39536 0.24918 0.0
C1477 C 0.11454 0.40159 0.20944 0.0
C1478 C 0.10587 0.41468 0.19614 0.0
C1479 C 0.1271 0.40868 0.23557 0.0
C1480 C 0.11041 0.43527 0.20902 0.0
C1481 C 0.12296 0.44247 0.23496 0.0
H1482 H 0.13727 0.3758 0.96313 0.0
H1483 H 0.18656 0.44604 0.98084 0.0
H1484 H 0.16244 0.44651 0.01964 0.0
H1485 H 0.12778 0.42667 0.04927 0.0
H1486 H 0.07935 0.35573 0.03347 0.0
H1487 H 0.10255 0.35579 0.99313 0.0
C1488 C 0.14256 0.39123 0.97533 0.0
C1489 C 0.16361 0.41089 0.96911 0.0
C1490 C 0.12879 0.39121 0.99799 0.0
C1491 C 0.1705 0.43068 0.9854 0.0
C1492 C 0.15669 0.43096 0.00751 0.0
C1493 C 0.12223 0.41125 0.0369 0.0
C1494 C 0.10182 0.39125 0.04432 0.0
C1495 C 0.13588 0.41128 0.01413 0.0
C1496 C 0.09501 0.37135 0.02825 0.0
C1497 C 0.10825 0.37137 1.00516 0.0
H1498 H 0.71872 0.86245 0.95048 0.0
H1499 H 0.64693 0.84125 0.94271 0.0
H1500 H 0.63947 0.81862 0.9879 0.0
H1501 H 0.65374 0.8043 0.02948 0.0
H1502 H 0.72582 0.82583 0.03436 0.0
H1503 H 0.73265 0.84887 0.99055 0.0
C1504 C 0.70134 0.85298 0.95851 0.0
C1505 C 0.68342 0.85368 0.943 0.0
C1506 C 0.69724 0.83998 0.98416 0.0
C1507 C 0.66109 0.84111 0.95406 0.0
C1508 C 0.65685 0.82815 0.97994 0.0
C1509 C 0.67094 0.81414 0.021 0.0
C1510 C 0.68925 0.81324 0.0354 0.0
C1511 C 0.67482 0.82737 0.9952 0.0
C1512 C 0.71138 0.82604 0.02389 0.0
C1513 C 0.71534 0.83928 0.99875 0.0
H1514 H 0.19215 0.94341 0.93676 0.0
H1515 H 0.2139 0.89321 0.93455 0.0
H1516 H 0.235 0.90753 0.98008 0.0
H1517 H 0.24724 0.93425 0.02086 0.0
H1518 H 0.22612 0.98498 0.02272 0.0
H1519 H 0.20478 0.97048 0.97734 0.0
C1520 C 0.20141 0.93555 0.94635 0.0
C1521 C 0.20146 0.91729 0.93215 0.0
C1522 C 0.21364 0.94396 0.97258 0.0
C1523 C 0.2138 0.90748 0.94473 0.0
C1524 C 0.22579 0.91558 0.9709 0.0
C1525 C 0.23795 0.94212 0.01136 0.0
C1526 C 0.23827 0.96065 0.02529 0.0
C1527 C 0.22585 0.93382 0.98504 0.0
C1528 C 0.22622 0.97071 0.01252 0.0
C1529 C 0.21397 0.96241 0.98653 0.0
H1530 H 0.71503 0.95209 0.43304 0.0
H1531 H 0.65365 0.88612 0.43504 0.0
H1532 H 0.64229 0.89644 0.48035 0.0
H1533 H 0.65025 0.92474 0.5198 0.0
H1534 H 0.71261 0.99003 0.51591 0.0
H1535 H 0.72305 0.97927 0.47116 0.0
C1536 C 0.69906 0.93981 0.44315 0.0
C1537 C 0.68521 0.9183 0.43032 0.0
C1538 C 0.69284 0.94577 0.46914 0.0
C1539 C 0.66467 0.90281 0.44419 0.0
C1540 C 0.65821 0.90873 0.47019 0.0
C1541 C 0.66615 0.93655 0.50918 0.0
C1542 C 0.6806 0.95827 0.52149 0.0
C1543 C 0.67222 0.93021 0.48298 0.0
C1544 C 0.7011 0.97328 0.50724 0.0
C1545 C 0.70712 0.96715 0.48148 0.0
H1546 H 0.09968 0.82587 0.38702 0.0
H1547 H 0.15543 0.86992 0.44379 0.0
H1548 H 0.13346 0.84789 0.48601 0.0
H1549 H 0.09908 0.81435 0.50676 0.0
H1550 H 0.04342 0.77117 0.44918 0.0
H1551 H 0.06468 0.79445 0.40771 0.0
C1552 C 0.10696 0.8309 0.40863 0.0
C1553 C 0.12926 0.84957 0.41204 0.0
C1554 C 0.0943 0.81805 0.43285 0.0
C1555 C 0.13829 0.85575 0.44036 0.0
C1556 C 0.12577 0.84301 0.46459 0.0
C1557 C 0.0916 0.81009 0.48516 0.0
C1558 C 0.06966 0.79084 0.48128 0.0
C1559 C 0.1039 0.82382 0.46109 0.0
C1560 C 0.06021 0.7858 0.45303 0.0
C1561 C 0.07238 0.79913 0.42916 0.0
H1562 H 0.24214 0.40227 0.4529 0.0
H1563 H 0.23523 0.44793 0.51076 0.0
H1564 H 0.25819 0.44153 0.5476 0.0
H1565 H 0.27953 0.4222 0.56368 0.0
H1566 H 0.28531 0.37592 0.5055 0.0
H1567 H 0.26308 0.38304 0.46872 0.0
C1568 C 0.24534 0.41064 0.47366 0.0
C1569 C 0.2367 0.42541 0.47906 0.0
C1570 C 0.25831 0.40668 0.49478 0.0
C1571 C 0.24173 0.43658 0.50589 0.0
C1572 C 0.25475 0.43281 0.52704 0.0
C1573 C 0.27592 0.41364 0.54298 0.0
C1574 C 0.28411 0.39847 0.5375 0.0
C1575 C 0.26304 0.41779 0.52178 0.0
C1576 C 0.27925 0.38761 0.51046 0.0
C1577 C 0.26653 0.39169 0.48933 0.0
H1578 H 0.2245 0.40295 0.76459 0.0
H1579 H 0.28408 0.45976 0.80257 0.0
H1580 H 0.30709 0.46138 0.76103 0.0
H1581 H 0.31069 0.44476 0.71532 0.0
H1582 H 0.25061 0.38751 0.67836 0.0
H1583 H 0.22746 0.38795 0.71803 0.0
C1584 C 0.24253 0.41566 0.7638 0.0
C1585 C 0.25261 0.43103 0.78677 0.0
C1586 C 0.2556 0.41636 0.74002 0.0
C1587 C 0.27589 0.44777 0.78511 0.0
C1588 C 0.28907 0.44861 0.76144 0.0
C1589 C 0.29249 0.43257 0.7158 0.0
C1590 C 0.28248 0.41603 0.69397 0.0
C1591 C 0.27918 0.43276 0.73894 0.0
C1592 C 0.25884 0.40035 0.69492 0.0
C1593 C 0.24554 0.40054 0.71765 0.0
H1594 H 0.69208 0.90815 0.75371 0.0
H1595 H 0.64256 0.90843 0.81151 0.0
H1596 H 0.63025 0.9258 0.77298 0.0
H1597 H 0.63599 0.94385 0.72406 0.0
H1598 H 0.68536 0.94269 0.66654 0.0
H1599 H 0.69523 0.92268 0.70375 0.0
C1600 C 0.67837 0.91174 0.75783 0.0
C1601 C 0.66836 0.90711 0.78561 0.0
C1602 C 0.67152 0.92178 0.73565 0.0
C1603 C 0.65048 0.91167 0.79038 0.0
C1604 C 0.64359 0.92179 0.76838 0.0
C1605 C 0.64879 0.93906 0.71952 0.0
C1606 C 0.66007 0.94507 0.69244 0.0
C1607 C 0.65436 0.92739 0.74111 0.0
C1608 C 0.6764 0.93842 0.68702 0.0
C1609 C 0.68211 0.92699 0.70838 0.0
H1610 H 0.14746 0.83359 0.73035 0.0
H1611 H 0.11046 0.87057 0.72314 0.0
H1612 H 0.09108 0.84954 0.6796 0.0
H1613 H 0.08338 0.81969 0.64447 0.0
H1614 H 0.11869 0.7812 0.65267 0.0
H1615 H 0.13982 0.80369 0.69499 0.0
C1616 C 0.13505 0.837 0.71951 0.0
C1617 C 0.13056 0.8538 0.73037 0.0
C1618 C 0.1236 0.82453 0.69455 0.0
C1619 C 0.11462 0.85806 0.71538 0.0
C1620 C 0.10336 0.8459 0.69045 0.0
C1621 C 0.09584 0.81631 0.65533 0.0
C1622 C 0.09946 0.79878 0.6453 0.0
C1623 C 0.10762 0.82903 0.67992 0.0
C1624 C 0.11557 0.79458 0.65985 0.0
C1625 C 0.12762 0.80742 0.68411 0.0
H1626 H 0.34691 0.17269 0.63059 0.0
H1627 H 0.3947 0.23862 0.59413 0.0
H1628 H 0.39277 0.22141 0.54765 0.0
H1629 H 0.37999 0.18765 0.51788 0.0
H1630 H 0.33175 0.12128 0.55229 0.0
H1631 H 0.33135 0.13849 0.59858 0.0
C1632 C 0.35651 0.18327 0.61229 0.0
C1633 C 0.37108 0.20695 0.61607 0.0
C1634 C 0.35553 0.17315 0.5852 0.0
C1635 C 0.38352 0.22036 0.59208 0.0
C1636 C 0.3825 0.21053 0.56537 0.0
C1637 C 0.3693 0.17691 0.53544 0.0
C1638 C 0.35613 0.15317 0.53164 0.0
C1639 C 0.36902 0.18692 0.56183 0.0
C1640 C 0.34214 0.13961 0.55459 0.0
C1641 C 0.34192 0.14946 0.58113 0.0
H1642 H 0.92171 0.23712 0.61945 0.0
H1643 H 0.85301 0.21782 0.59147 0.0
H1644 H 0.86794 0.24325 0.54932 0.0
H1645 H 0.90069 0.2722 0.52117 0.0
H1646 H 0.9693 0.29055 0.54863 0.0
H1647 H 0.95425 0.26426 0.5899 0.0
C1648 C 0.90998 0.23816 0.6039 0.0
C1649 C 0.88627 0.2257 0.60887 0.0
C1650 C 0.91869 0.25284 0.57962 0.0
C1651 C 0.87136 0.2275 0.58852 0.0
C1652 C 0.87988 0.24202 0.56432 0.0
C1653 C 0.91231 0.27041 0.53619 0.0
C1654 C 0.93606 0.28343 0.53188 0.0
C1655 C 0.90353 0.25505 0.55986 0.0
C1656 C 0.95091 0.28075 0.5514 0.0
C1657 C 0.94234 0.2657 0.57507 0.0
H1658 H 0.83531 0.67959 0.56487 0.0
H1659 H 0.85092 0.74231 0.60714 0.0
H1660 H 0.84006 0.75537 0.56287 0.0
H1661 H 0.8253 0.74835 0.51277 0.0
H1662 H 0.81044 0.68566 0.47091 0.0
H1663 H 0.82288 0.67354 0.51447 0.0
C1664 C 0.83684 0.69633 0.56441 0.0
C1665 C 0.84405 0.70999 0.58933 0.0
C1666 C 0.8309 0.70377 0.53894 0.0
C1667 C 0.8452 0.73134 0.58839 0.0
C1668 C 0.83916 0.73888 0.56304 0.0
C1669 C 0.82502 0.73214 0.51305 0.0
C1670 C 0.81684 0.71783 0.48875 0.0
C1671 C 0.83189 0.72516 0.53826 0.0
C1672 C 0.81661 0.69692 0.48938 0.0
C1673 C 0.82361 0.68995 0.5143 0.0
H1674 H 0.82657 0.7383 0.24225 0.0
H1675 H 0.88632 0.79899 0.27298 0.0
H1676 H 0.86661 0.79666 0.31822 0.0
H1677 H 0.83361 0.77554 0.35024 0.0
H1678 H 0.77464 0.71379 0.31998 0.0
H1679 H 0.79275 0.71862 0.27287 0.0
C1680 C 0.83513 0.75136 0.25848 0.0
C1681 C 0.85789 0.76888 0.25425 0.0
C1682 C 0.82388 0.7496 0.28453 0.0
C1683 C 0.86886 0.78532 0.27587 0.0
C1684 C 0.8576 0.78396 0.30167 0.0
C1685 C 0.82458 0.76327 0.33323 0.0
C1686 C 0.80286 0.74425 0.33865 0.0
C1687 C 0.8353 0.76588 0.30646 0.0
C1688 C 0.79142 0.7285 0.3164 0.0
C1689 C 0.80177 0.73124 0.28949 0.0
H1690 H 0.3141 0.18447 0.30336 0.0
H1691 H 0.38078 0.20886 0.26617 0.0
H1692 H 0.39169 0.19297 0.30803 0.0
H1693 H 0.38139 0.17067 0.35473 0.0
H1694 H 0.31393 0.14633 0.38977 0.0
H1695 H 0.3043 0.16363 0.34916 0.0
C1696 C 0.33112 0.18646 0.30426 0.0
C1697 C 0.34656 0.19784 0.28144 0.0
C1698 C 0.3371 0.17714 0.32808 0.0
C1699 C 0.36853 0.20025 0.28335 0.0
C1700 C 0.37473 0.19108 0.30728 0.0
C1701 C 0.36463 0.16926 0.3535 0.0
C1702 C 0.34838 0.15707 0.3754 0.0
C1703 C 0.35904 0.17926 0.32971 0.0
C1704 C 0.32676 0.15545 0.37335 0.0
C1705 C 0.32121 0.16538 0.35008 0.0
H1706 H 0.89012 0.31174 0.28959 0.0
H1707 H 0.89537 0.25057 0.28626 0.0
H1708 H 0.91738 0.26085 0.33106 0.0
H1709 H 0.93471 0.28665 0.37222 0.0
H1710 H 0.92796 0.34676 0.37742 0.0
H1711 H 0.90688 0.33728 0.33134 0.0
C1712 C 0.8959 0.30054 0.29866 0.0
C1713 C 0.89106 0.28046 0.28398 0.0
C1714 C 0.90834 0.30632 0.32504 0.0
C1715 C 0.89903 0.26637 0.29632 0.0
C1716 C 0.91158 0.27213 0.32227 0.0
C1717 C 0.92871 0.29773 0.36322 0.0
C1718 C 0.93297 0.3174 0.37826 0.0
C1719 C 0.91632 0.29203 0.33686 0.0
C1720 C 0.92491 0.33148 0.36635 0.0
C1721 C 0.91284 0.32607 0.33995 0.0
H1722 H 0.36573 0.22747 0.81934 0.0
H1723 H 0.34415 0.25651 0.74997 0.0
H1724 H 0.33701 0.27899 0.78507 0.0
H1725 H 0.33967 0.29262 0.83541 0.0
H1726 H 0.35799 0.26111 0.90515 0.0
H1727 H 0.36371 0.2375 0.87021 0.0
C1728 C 0.35898 0.23834 0.812 0.0
C1729 C 0.3554 0.2402 0.78203 0.0
C1730 C 0.3547 0.25109 0.8324 0.0
C1731 C 0.34671 0.25444 0.77287 0.0
C1732 C 0.34289 0.26753 0.79295 0.0
C1733 C 0.34483 0.2805 0.8429 0.0
C1734 C 0.34878 0.27888 0.8728 0.0
C1735 C 0.3473 0.26639 0.82272 0.0
C1736 C 0.35498 0.26277 0.88228 0.0
C1737 C 0.35825 0.24927 0.86228 0.0
H1738 H 0.7713 0.1437 0.77292 0.0
H1739 H 0.82546 0.16549 0.83705 0.0
H1740 H 0.7971 0.14985 0.87569 0.0
H1741 H 0.75683 0.13041 0.89132 0.0
H1742 H 0.703 0.1095 0.82673 0.0
H1743 H 0.73142 0.12497 0.78834 0.0
C1744 C 0.77702 0.14531 0.79532 0.0
C1745 C 0.80061 0.15595 0.80191 0.0
C1746 C 0.76064 0.1366 0.81745 0.0
C1747 C 0.80749 0.15725 0.83117 0.0
C1748 C 0.79125 0.14846 0.85335 0.0
C1749 C 0.75129 0.12937 0.86887 0.0
C1750 C 0.72773 0.11882 0.86203 0.0
C1751 C 0.76777 0.13819 0.84675 0.0
C1752 C 0.72095 0.11753 0.83274 0.0
C1753 C 0.73721 0.12632 0.8107 0.0
H1754 H 0.89858 0.74198 0.80872 0.0
H1755 H 0.93982 0.75457 0.73299 0.0
H1756 H 0.96674 0.74724 0.76115 0.0
H1757 H 0.97524 0.73184 0.80579 0.0
H1758 H 0.9342 0.72007 0.88194 0.0
H1759 H 0.9106 0.73258 0.85542 0.0
C1760 C 0.91402 0.74405 0.79888 0.0
C1761 C 0.91747 0.74908 0.76909 0.0
C1762 C 0.92911 0.73938 0.81512 0.0
C1763 C 0.9372 0.75126 0.75611 0.0
C1764 C 0.95234 0.74666 0.77209 0.0
C1765 C 0.96129 0.73228 0.81661 0.0
C1766 C 0.95621 0.72465 0.8456 0.0
C1767 C 0.94794 0.73982 0.80134 0.0
C1768 C 0.93837 0.72571 0.85957 0.0
C1769 C 0.92484 0.73285 0.84443 0.0
H1770 H 0.94014 0.74618 0.09066 0.0
H1771 H 0.90056 0.76111 0.02863 0.0
H1772 H 0.91579 0.74922 0.98891 0.0
H1773 H 0.93909 0.73295 0.97217 0.0
H1774 H 0.98028 0.71985 0.03386 0.0
H1775 H 0.96561 0.73246 0.07351 0.0
C1776 C 0.93503 0.74693 0.06839 0.0
C1777 C 0.91925 0.75442 0.06249 0.0
C1778 C 0.94396 0.7402 0.04573 0.0
C1779 C 0.91287 0.75561 0.03359 0.0
C1780 C 0.92141 0.74864 0.01095 0.0
C1781 C 0.94481 0.73286 0.99431 0.0
C1782 C 0.96049 0.72525 1.00022 0.0
C1783 C 0.93673 0.74062 0.01682 0.0
C1784 C 0.96814 0.72558 0.02887 0.0
C1785 C 0.95977 0.73278 0.0515 0.0
H1786 H 0.3419 0.2846 0.1409 0.0
H1787 H 0.35262 0.2342 0.09946 0.0
H1788 H 0.3551 0.25255 0.05189 0.0
H1789 H 0.34912 0.28049 0.02153 0.0
H1790 H 0.33757 0.32985 0.06542 0.0
H1791 H 0.3406 0.31453 0.11208 0.0
C1792 C 0.3456 0.27814 0.12154 0.0
C1793 C 0.34751 0.2584 0.12367 0.0
C1794 C 0.34631 0.28835 0.09443 0.0
C1795 C 0.35171 0.24977 0.09841 0.0
C1796 C 0.35274 0.26008 0.07116 0.0
C1797 C 0.34757 0.28803 0.04131 0.0
C1798 C 0.34262 0.30608 0.03961 0.0
C1799 C 0.34927 0.27898 0.06874 0.0
C1800 C 0.34087 0.3157 0.06568 0.0
C1801 C 0.34271 0.30702 0.09261 0.0
H1802 H 0.79938 0.22097 0.06578 0.0
H1803 H 0.78444 0.17111 0.13424 0.0
H1804 H 0.75885 0.14062 0.10198 0.0
H1805 H 0.74096 0.12774 0.054 0.0
H1806 H 0.75432 0.17743 0.98583 0.0
H1807 H 0.78004 0.20818 0.01815 0.0
C1808 C 0.79034 0.20348 0.0737 0.0
C1809 C 0.7942 0.19842 0.10235 0.0
C1810 C 0.77539 0.18588 0.05498 0.0
C1811 C 0.78233 0.17555 0.11216 0.0
C1812 C 0.76754 0.15804 0.09373 0.0
C1813 C 0.74956 0.14529 0.04618 0.0
C1814 C 0.74583 0.15022 0.01747 0.0
C1815 C 0.7641 0.16294 0.06501 0.0
C1816 C 0.75691 0.17311 0.00782 0.0
C1817 C 0.77163 0.19074 0.02631 0.0
loop_
_geom_bond_atom_site_label_1
_geom_bond_atom_site_label_2
_geom_bond_distance
_geom_bond_site_symmetry_2
_ccdc_geom_bond_type
Cu0 N1 1.999 . S
Cu0 O6 1.974 1_554 S
Cu0 N11 1.985 1_554 S
Cu0 O20 1.959 . S
N1 Cu0 1.999 . S
N1 C3 1.263 . S
N1 C5 1.389 . S
N2 C3 1.358 . S
N2 C4 1.400 . S
C3 N1 1.263 . S
C3 N2 1.358 . S
C3 H9 0.930 . S
C4 N2 1.400 . S
C4 C5 1.351 . S
C4 H21 0.930 . S
C5 N1 1.389 . S
C5 C4 1.351 . S
C5 H10 0.930 . S
O6 Cu0 1.974 1_556 S
O6 C16 1.282 . S
C7 O8 1.261 . S
C7 O20 1.251 . S
O8 C7 1.261 . S
H9 C3 0.930 . S
H10 C5 0.930 . S
N11 Cu0 1.985 1_556 S
N11 C13 1.335 . S
N11 C14 1.390 . S
N12 C13 1.345 . S
N12 C15 1.336 . S
C13 N11 1.335 . S
C13 N12 1.345 . S
C13 H18 0.930 . S
C14 N11 1.390 . S
C14 C15 1.346 . S
C14 H19 0.930 . S
C15 N12 1.336 . S
C15 C14 1.346 . S
C15 H22 0.929 . S
C16 O6 1.282 . S
C16 O17 1.216 . S
O17 C16 1.216 . S
H18 C13 0.930 . S
H19 C14 0.930 . S
O20 Cu0 1.959 . S
O20 C7 1.251 . S
H21 C4 0.930 . S
H22 C15 0.929 . S
Cu23 N24 1.999 1_554 S
Cu23 O29 1.974 . S
Cu23 N34 1.985 . S
Cu23 O43 1.959 1_554 S
N24 Cu23 1.999 1_556 S
N24 C26 1.263 . S
N24 C28 1.389 . S
N25 C26 1.358 . S
N25 C27 1.400 . S
C26 N24 1.263 . S
C26 N25 1.358 . S
C26 H32 0.930 . S
C27 N25 1.400 . S
C27 C28 1.351 . S
C27 H44 0.930 . S
C28 N24 1.389 . S
C28 C27 1.351 . S
C28 H33 0.930 . S
O29 Cu23 1.974 . S
O29 C39 1.282 . S
C30 O31 1.258 1_556 S
C30 O43 1.251 . S
O31 C30 1.258 1_554 S
H32 C26 0.930 . S
H33 C28 0.930 . S
N34 Cu23 1.985 . S
N34 C36 1.335 . S
N34 C37 1.390 . S
N35 C36 1.345 . S
N35 C38 1.336 . S
C36 N34 1.335 . S
C36 N35 1.345 . S
C36 H41 0.930 . S
C37 N34 1.390 . S
C37 C38 1.346 . S
C37 H42 0.930 . S
C38 N35 1.336 . S
C38 C37 1.346 . S
C38 H45 0.929 . S
C39 O29 1.282 . S
C39 O40 1.216 . S
O40 C39 1.216 . S
H41 C36 0.930 . S
H42 C37 0.930 . S
O43 Cu23 1.959 1_556 S
O43 C30 1.251 . S
H44 C27 0.930 . S
H45 C38 0.929 . S
Cu46 N47 1.994 1_554 S
Cu46 O52 1.974 1_545 S
Cu46 N57 1.985 . S
Cu46 O66 1.959 . S
N47 Cu46 1.994 1_556 S
N47 C49 1.301 . S
N47 C51 1.358 1_545 S
N48 C49 1.358 . S
N48 C50 1.400 1_545 S
C49 N47 1.301 . S
C49 N48 1.358 . S
C49 H55 0.930 . S
C50 N48 1.400 1_565 S
C50 C51 1.351 . S
C50 H67 0.930 . S
C51 N47 1.358 1_565 S
C51 C50 1.351 . S
C51 H56 0.930 . S
O52 Cu46 1.974 1_565 S
O52 C62 1.282 1_565 S
C53 O54 1.265 . S
C53 O66 1.257 . S
O54 C53 1.265 . S
H55 C49 0.930 . S
H56 C51 0.930 . S
N57 Cu46 1.985 . S
N57 C59 1.335 . S
N57 C60 1.390 . S
N58 C59 1.345 . S
N58 C61 1.336 . S
C59 N57 1.335 . S
C59 N58 1.345 . S
C59 H64 0.930 . S
C60 N57 1.390 . S
C60 C61 1.346 . S
C60 H65 0.930 . S
C61 N58 1.336 . S
C61 C60 1.346 . S
C61 H68 0.929 . S
C62 O52 1.282 1_545 S
C62 O63 1.216 . S
O63 C62 1.216 . S
H64 C59 0.930 . S
H65 C60 0.930 . S
O66 Cu46 1.959 . S
O66 C53 1.257 . S
H67 C50 0.930 . S
H68 C61 0.929 . S
Cu69 N70 1.999 . S
Cu69 O75 1.974 . S
Cu69 N80 1.985 . S
Cu69 O89 1.959 . S
N70 Cu69 1.999 . S
N70 C72 1.263 . S
N70 C74 1.389 . S
N71 C72 1.358 . S
N71 C73 1.400 . S
C72 N70 1.263 . S
C72 N71 1.358 . S
C72 H78 0.930 . S
C73 N71 1.400 . S
C73 C74 1.351 . S
C73 H90 0.930 . S
C74 N70 1.389 . S
C74 C73 1.351 . S
C74 H79 0.930 . S
O75 Cu69 1.974 . S
O75 C85 1.286 . S
C76 O77 1.261 . S
C76 O89 1.251 . S
O77 C76 1.261 . S
H78 C72 0.930 . S
H79 C74 0.930 . S
N80 Cu69 1.985 . S
N80 C82 1.335 . S
N80 C83 1.390 . S
N81 C82 1.345 . S
N81 C84 1.336 . S
C82 N80 1.335 . S
C82 N81 1.345 . S
C82 H87 0.930 . S
C83 N80 1.390 . S
C83 C84 1.346 . S
C83 H88 0.930 1_545 S
C84 N81 1.336 . S
C84 C83 1.346 . S
C84 H91 0.929 1_545 S
C85 O75 1.286 . S
C85 O86 1.214 1_545 S
O86 C85 1.214 1_565 S
H87 C82 0.930 . S
H88 C83 0.930 1_565 S
O89 Cu69 1.959 . S
O89 C76 1.251 . S
H90 C73 0.930 . S
H91 C84 0.929 1_565 S
Cu92 N93 1.999 . S
Cu92 O98 1.974 . S
Cu92 N103 1.985 . S
Cu92 O112 1.959 . S
N93 Cu92 1.999 . S
N93 C95 1.263 . S
N93 C97 1.389 . S
N94 C95 1.358 . S
N94 C96 1.400 . S
C95 N93 1.263 . S
C95 N94 1.358 . S
C95 H101 0.930 . S
C96 N94 1.400 . S
C96 C97 1.351 . S
C96 H113 0.930 . S
C97 N93 1.389 . S
C97 C96 1.351 . S
C97 H102 0.930 . S
O98 Cu92 1.974 . S
O98 C108 1.282 . S
C99 O100 1.261 . S
C99 O112 1.251 . S
O100 C99 1.261 . S
H101 C95 0.930 . S
H102 C97 0.930 . S
N103 Cu92 1.985 . S
N103 C105 1.335 . S
N103 C106 1.390 . S
N104 C105 1.345 . S
N104 C107 1.336 . S
C105 N103 1.335 . S
C105 N104 1.345 . S
C105 H110 0.930 . S
C106 N103 1.390 . S
C106 C107 1.346 . S
C106 H111 0.930 . S
C107 N104 1.336 . S
C107 C106 1.346 . S
C107 H114 0.929 . S
C108 O98 1.282 . S
C108 O109 1.216 . S
O109 C108 1.216 . S
H110 C105 0.930 . S
H111 C106 0.930 . S
O112 Cu92 1.959 . S
O112 C99 1.251 . S
H113 C96 0.930 . S
H114 C107 0.929 . S
Cu115 N116 1.999 . S
Cu115 O121 1.974 . S
Cu115 N126 1.985 . S
Cu115 O135 1.959 . S
N116 Cu115 1.999 . S
N116 C118 1.263 . S
N116 C120 1.389 . S
N117 C118 1.358 . S
N117 C119 1.400 . S
C118 N116 1.263 . S
C118 N117 1.358 . S
C118 H124 0.930 . S
C119 N117 1.400 . S
C119 C120 1.351 . S
C119 H136 0.930 . S
C120 N116 1.389 . S
C120 C119 1.351 . S
C120 H125 0.930 . S
O121 Cu115 1.974 . S
O121 C131 1.282 . S
C122 O123 1.261 . S
C122 O135 1.251 . S
O123 C122 1.261 . S
H124 C118 0.930 . S
H125 C120 0.930 . S
N126 Cu115 1.985 . S
N126 C128 1.335 . S
N126 C129 1.390 . S
N127 C128 1.345 . S
N127 C130 1.336 . S
C128 N126 1.335 . S
C128 N127 1.345 . S
C128 H133 0.930 . S
C129 N126 1.390 . S
C129 C130 1.346 . S
C129 H134 0.930 . S
C130 N127 1.336 . S
C130 C129 1.346 . S
C130 H137 0.929 . S
C131 O121 1.282 . S
C131 O132 1.216 . S
O132 C131 1.216 . S
H133 C128 0.930 . S
H134 C129 0.930 . S
O135 Cu115 1.959 . S
O135 C122 1.251 . S
H136 C119 0.930 . S
H137 C130 0.929 . S
Cu138 N139 1.999 . S
Cu138 O144 1.974 . S
Cu138 N149 1.985 . S
Cu138 O158 1.959 . S
N139 Cu138 1.999 . S
N139 C141 1.263 . S
N139 C143 1.389 . S
N140 C141 1.358 . S
N140 C142 1.400 . S
C141 N139 1.263 . S
C141 N140 1.358 . S
C141 H147 0.930 . S
C142 N140 1.400 . S
C142 C143 1.351 . S
C142 H159 0.930 . S
C143 N139 1.389 . S
C143 C142 1.351 . S
C143 H148 0.930 . S
O144 Cu138 1.974 . S
O144 C154 1.282 . S
C145 O146 1.261 . S
C145 O158 1.251 . S
O146 C145 1.261 . S
H147 C141 0.930 . S
H148 C143 0.930 . S
N149 Cu138 1.985 . S
N149 C151 1.335 . S
N149 C152 1.390 . S
N150 C151 1.345 . S
N150 C153 1.336 . S
C151 N149 1.335 . S
C151 N150 1.345 . S
C151 H156 0.930 . S
C152 N149 1.390 . S
C152 C153 1.346 . S
C152 H157 0.930 . S
C153 N150 1.336 . S
C153 C152 1.346 . S
C153 H160 0.929 . S
C154 O144 1.282 . S
C154 O155 1.216 . S
O155 C154 1.216 . S
H156 C151 0.930 . S
H157 C152 0.930 . S
O158 Cu138 1.959 . S
O158 C145 1.251 . S
H159 C142 0.930 . S
H160 C153 0.929 . S
Cu161 N162 1.999 . S
Cu161 O167 1.974 . S
Cu161 N172 1.985 . S
Cu161 O181 1.959 . S
N162 Cu161 1.999 . S
N162 C164 1.263 . S
N162 C166 1.389 . S
N163 C164 1.358 . S
N163 C165 1.400 . S
C164 N162 1.263 . S
C164 N163 1.358 . S
C164 H170 0.930 . S
C165 N163 1.400 . S
C165 C166 1.351 . S
C165 H182 0.930 . S
C166 N162 1.389 . S
C166 C165 1.351 . S
C166 H171 0.930 . S
O167 Cu161 1.974 . S
O167 C177 1.282 . S
C168 O169 1.261 . S
C168 O181 1.251 . S
O169 C168 1.261 . S
H170 C164 0.930 . S
H171 C166 0.930 . S
N172 Cu161 1.985 . S
N172 C174 1.335 . S
N172 C175 1.390 . S
N173 C174 1.345 . S
N173 C176 1.336 . S
C174 N172 1.335 . S
C174 N173 1.345 . S
C174 H179 0.930 . S
C175 N172 1.390 . S
C175 C176 1.346 . S
C175 H180 0.930 . S
C176 N173 1.336 . S
C176 C175 1.346 . S
C176 H183 0.929 . S
C177 O167 1.282 . S
C177 O178 1.216 . S
O178 C177 1.216 . S
H179 C174 0.930 . S
H180 C175 0.930 . S
O181 Cu161 1.959 . S
O181 C168 1.251 . S
H182 C165 0.930 . S
H183 C176 0.929 . S
Cu184 N185 1.999 . S
Cu184 O190 1.974 . S
Cu184 N195 1.985 . S
Cu184 O204 1.959 . S
N185 Cu184 1.999 . S
N185 C187 1.263 . S
N185 C189 1.389 . S
N186 C187 1.358 . S
N186 C188 1.400 . S
C187 N185 1.263 . S
C187 N186 1.358 . S
C187 H193 0.930 . S
C188 N186 1.400 . S
C188 C189 1.351 . S
C188 H205 0.930 . S
C189 N185 1.389 . S
C189 C188 1.351 . S
C189 H194 0.930 . S
O190 Cu184 1.974 . S
O190 C200 1.282 . S
C191 O192 1.261 . S
C191 O204 1.251 . S
O192 C191 1.261 . S
H193 C187 0.930 . S
H194 C189 0.930 . S
N195 Cu184 1.985 . S
N195 C197 1.335 . S
N195 C198 1.390 . S
N196 C197 1.345 . S
N196 C199 1.336 . S
C197 N195 1.335 . S
C197 N196 1.345 . S
C197 H202 0.930 . S
C198 N195 1.390 . S
C198 C199 1.346 . S
C198 H203 0.930 . S
C199 N196 1.336 . S
C199 C198 1.346 . S
C199 H206 0.929 . S
C200 O190 1.282 . S
C200 O201 1.216 . S
O201 C200 1.216 . S
H202 C197 0.930 . S
H203 C198 0.930 . S
O204 Cu184 1.959 . S
O204 C191 1.251 . S
H205 C188 0.930 . S
H206 C199 0.929 . S
Cu207 N208 1.999 . S
Cu207 O213 1.974 . S
Cu207 N218 1.985 . S
Cu207 O227 1.959 . S
N208 Cu207 1.999 . S
N208 C210 1.263 . S
N208 C212 1.389 . S
N209 C210 1.358 . S
N209 C211 1.400 . S
C210 N208 1.263 . S
C210 N209 1.358 . S
C210 H216 0.930 . S
C211 N209 1.400 . S
C211 C212 1.351 . S
C211 H228 0.930 . S
C212 N208 1.389 . S
C212 C211 1.351 . S
C212 H217 0.930 . S
O213 Cu207 1.974 . S
O213 C223 1.282 . S
C214 O215 1.261 . S
C214 O227 1.251 . S
O215 C214 1.261 . S
H216 C210 0.930 . S
H217 C212 0.930 . S
N218 Cu207 1.985 . S
N218 C220 1.335 . S
N218 C221 1.390 . S
N219 C220 1.345 . S
N219 C222 1.336 . S
C220 N218 1.335 . S
C220 N219 1.345 . S
C220 H225 0.930 . S
C221 N218 1.390 . S
C221 C222 1.346 . S
C221 H226 0.930 . S
C222 N219 1.336 . S
C222 C221 1.346 . S
C222 H229 0.929 . S
C223 O213 1.282 . S
C223 O224 1.216 . S
O224 C223 1.216 . S
H225 C220 0.930 . S
H226 C221 0.930 . S
O227 Cu207 1.959 . S
O227 C214 1.251 . S
H228 C211 0.930 . S
H229 C222 0.929 . S
Cu230 N231 1.999 . S
Cu230 O236 1.974 . S
Cu230 N241 1.985 . S
Cu230 O250 1.959 . S
N231 Cu230 1.999 . S
N231 C233 1.263 . S
N231 C235 1.389 . S
N232 C233 1.358 . S
N232 C234 1.400 . S
C233 N231 1.263 . S
C233 N232 1.358 . S
C233 H239 0.930 . S
C234 N232 1.400 . S
C234 C235 1.351 . S
C234 H251 0.930 . S
C235 N231 1.389 . S
C235 C234 1.351 . S
C235 H240 0.930 . S
O236 Cu230 1.974 . S
O236 C246 1.282 . S
C237 O238 1.261 . S
C237 O250 1.251 . S
O238 C237 1.261 . S
H239 C233 0.930 . S
H240 C235 0.930 . S
N241 Cu230 1.985 . S
N241 C243 1.335 . S
N241 C244 1.390 . S
N242 C243 1.345 . S
N242 C245 1.336 . S
C243 N241 1.335 . S
C243 N242 1.345 . S
C243 H248 0.930 . S
C244 N241 1.390 . S
C244 C245 1.346 . S
C244 H249 0.930 . S
C245 N242 1.336 . S
C245 C244 1.346 . S
C245 H252 0.929 . S
C246 O236 1.282 . S
C246 O247 1.216 . S
O247 C246 1.216 . S
H248 C243 0.930 . S
H249 C244 0.930 . S
O250 Cu230 1.959 . S
O250 C237 1.251 . S
H251 C234 0.930 . S
H252 C245 0.929 . S
Cu253 N254 1.999 . S
Cu253 O259 1.974 . S
Cu253 N264 1.985 . S
Cu253 O273 1.959 . S
N254 Cu253 1.999 . S
N254 C256 1.263 . S
N254 C258 1.389 . S
N255 C256 1.358 . S
N255 C257 1.400 . S
C256 N254 1.263 . S
C256 N255 1.358 . S
C256 H262 0.930 . S
C257 N255 1.400 . S
C257 C258 1.351 . S
C257 H274 0.930 . S
C258 N254 1.389 . S
C258 C257 1.351 . S
C258 H263 0.930 . S
O259 Cu253 1.974 . S
O259 C269 1.282 . S
C260 O261 1.261 . S
C260 O273 1.251 . S
O261 C260 1.261 . S
H262 C256 0.930 . S
H263 C258 0.930 . S
N264 Cu253 1.985 . S
N264 C266 1.335 . S
N264 C267 1.390 . S
N265 C266 1.345 . S
N265 C268 1.336 . S
C266 N264 1.335 . S
C266 N265 1.345 . S
C266 H271 0.930 . S
C267 N264 1.390 . S
C267 C268 1.346 . S
C267 H272 0.930 . S
C268 N265 1.336 . S
C268 C267 1.346 . S
C268 H275 0.929 . S
C269 O259 1.282 . S
C269 O270 1.216 . S
O270 C269 1.216 . S
H271 C266 0.930 . S
H272 C267 0.930 . S
O273 Cu253 1.959 . S
O273 C260 1.251 . S
H274 C257 0.930 . S
H275 C268 0.929 . S
Cu276 N277 1.999 . S
Cu276 O282 1.974 . S
Cu276 N287 1.985 . S
Cu276 O296 1.959 . S
N277 Cu276 1.999 . S
N277 C279 1.263 . S
N277 C281 1.389 . S
N278 C279 1.358 . S
N278 C280 1.400 . S
C279 N277 1.263 . S
C279 N278 1.358 . S
C279 H285 0.930 . S
C280 N278 1.400 . S
C280 C281 1.351 . S
C280 H297 0.930 . S
C281 N277 1.389 . S
C281 C280 1.351 . S
C281 H286 0.930 . S
O282 Cu276 1.974 . S
O282 C292 1.282 . S
C283 O284 1.261 . S
C283 O296 1.251 . S
O284 C283 1.261 . S
H285 C279 0.930 . S
H286 C281 0.930 . S
N287 Cu276 1.985 . S
N287 C289 1.335 . S
N287 C290 1.390 . S
N288 C289 1.345 . S
N288 C291 1.336 . S
C289 N287 1.335 . S
C289 N288 1.345 . S
C289 H294 0.930 . S
C290 N287 1.390 . S
C290 C291 1.346 . S
C290 H295 0.930 . S
C291 N288 1.336 . S
C291 C290 1.346 . S
C291 H298 0.929 . S
C292 O282 1.282 . S
C292 O293 1.216 . S
O293 C292 1.216 . S
H294 C289 0.930 . S
H295 C290 0.930 . S
O296 Cu276 1.959 . S
O296 C283 1.251 . S
H297 C280 0.930 . S
H298 C291 0.929 . S
Cu299 N300 1.999 . S
Cu299 O305 1.974 . S
Cu299 N310 1.985 . S
Cu299 O319 1.959 . S
N300 Cu299 1.999 . S
N300 C302 1.263 . S
N300 C304 1.389 . S
N301 C302 1.358 . S
N301 C303 1.400 . S
C302 N300 1.263 . S
C302 N301 1.358 . S
C302 H308 0.930 . S
C303 N301 1.400 . S
C303 C304 1.351 . S
C303 H320 0.930 . S
C304 N300 1.389 . S
C304 C303 1.351 . S
C304 H309 0.930 . S
O305 Cu299 1.974 . S
O305 C315 1.282 . S
C306 O307 1.261 . S
C306 O319 1.251 . S
O307 C306 1.261 . S
H308 C302 0.930 . S
H309 C304 0.930 . S
N310 Cu299 1.985 . S
N310 C312 1.335 . S
N310 C313 1.390 . S
N311 C312 1.345 . S
N311 C314 1.336 . S
C312 N310 1.335 . S
C312 N311 1.345 . S
C312 H317 0.930 . S
C313 N310 1.390 . S
C313 C314 1.346 . S
C313 H318 0.930 . S
C314 N311 1.336 . S
C314 C313 1.346 . S
C314 H321 0.929 . S
C315 O305 1.282 . S
C315 O316 1.216 . S
O316 C315 1.216 . S
H317 C312 0.930 . S
H318 C313 0.930 . S
O319 Cu299 1.959 . S
O319 C306 1.251 . S
H320 C303 0.930 . S
H321 C314 0.929 . S
Cu322 N323 1.999 . S
Cu322 O328 1.974 . S
Cu322 N333 1.985 . S
Cu322 O342 1.959 . S
N323 Cu322 1.999 . S
N323 C325 1.263 . S
N323 C327 1.389 . S
N324 C325 1.358 . S
N324 C326 1.400 . S
C325 N323 1.263 . S
C325 N324 1.358 . S
C325 H331 0.930 . S
C326 N324 1.400 . S
C326 C327 1.351 . S
C326 H343 0.930 . S
C327 N323 1.389 . S
C327 C326 1.351 . S
C327 H332 0.930 . S
O328 Cu322 1.974 . S
O328 C338 1.282 . S
C329 O330 1.261 . S
C329 O342 1.251 . S
O330 C329 1.261 . S
H331 C325 0.930 . S
H332 C327 0.930 . S
N333 Cu322 1.985 . S
N333 C335 1.335 . S
N333 C336 1.390 . S
N334 C335 1.345 . S
N334 C337 1.336 . S
C335 N333 1.335 . S
C335 N334 1.345 . S
C335 H340 0.930 . S
C336 N333 1.390 . S
C336 C337 1.346 . S
C336 H341 0.930 . S
C337 N334 1.336 . S
C337 C336 1.346 . S
C337 H344 0.929 . S
C338 O328 1.282 . S
C338 O339 1.216 . S
O339 C338 1.216 . S
H340 C335 0.930 . S
H341 C336 0.930 . S
O342 Cu322 1.959 . S
O342 C329 1.251 . S
H343 C326 0.930 . S
H344 C337 0.929 . S
Cu345 N346 1.999 . S
Cu345 O351 1.974 . S
Cu345 N356 1.985 . S
Cu345 O365 1.959 . S
N346 Cu345 1.999 . S
N346 C348 1.263 . S
N346 C350 1.389 . S
N347 C348 1.358 . S
N347 C349 1.400 . S
C348 N346 1.263 . S
C348 N347 1.358 . S
C348 H354 0.930 . S
C349 N347 1.400 . S
C349 C350 1.351 . S
C349 H366 0.930 . S
C350 N346 1.389 . S
C350 C349 1.351 . S
C350 H355 0.930 . S
O351 Cu345 1.974 . S
O351 C361 1.282 . S
C352 O353 1.261 . S
C352 O365 1.251 . S
O353 C352 1.261 . S
H354 C348 0.930 . S
H355 C350 0.930 . S
N356 Cu345 1.985 . S
N356 C358 1.335 . S
N356 C359 1.390 . S
N357 C358 1.345 . S
N357 C360 1.336 . S
C358 N356 1.335 . S
C358 N357 1.345 . S
C358 H363 0.930 . S
C359 N356 1.390 . S
C359 C360 1.346 . S
C359 H364 0.930 . S
C360 N357 1.336 . S
C360 C359 1.346 . S
C360 H367 0.929 . S
C361 O351 1.282 . S
C361 O362 1.216 . S
O362 C361 1.216 . S
H363 C358 0.930 . S
H364 C359 0.930 . S
O365 Cu345 1.959 . S
O365 C352 1.251 . S
H366 C349 0.930 . S
H367 C360 0.929 . S
Cu368 N369 1.999 . S
Cu368 O374 1.974 . S
Cu368 N379 1.985 . S
Cu368 O388 1.959 . S
N369 Cu368 1.999 . S
N369 C371 1.263 . S
N369 C373 1.389 . S
N370 C371 1.358 . S
N370 C372 1.400 . S
C371 N369 1.263 . S
C371 N370 1.358 . S
C371 H377 0.930 . S
C372 N370 1.400 . S
C372 C373 1.351 . S
C372 H389 0.930 . S
C373 N369 1.389 . S
C373 C372 1.351 . S
C373 H378 0.930 . S
O374 Cu368 1.974 . S
O374 C384 1.282 . S
C375 O376 1.261 . S
C375 O388 1.251 . S
O376 C375 1.261 . S
H377 C371 0.930 . S
H378 C373 0.930 . S
N379 Cu368 1.985 . S
N379 C381 1.335 . S
N379 C382 1.390 . S
N380 C381 1.345 . S
N380 C383 1.336 . S
C381 N379 1.335 . S
C381 N380 1.345 . S
C381 H386 0.930 . S
C382 N379 1.390 . S
C382 C383 1.346 . S
C382 H387 0.930 . S
C383 N380 1.336 . S
C383 C382 1.346 . S
C383 H390 0.929 . S
C384 O374 1.282 . S
C384 O385 1.216 . S
O385 C384 1.216 . S
H386 C381 0.930 . S
H387 C382 0.930 . S
O388 Cu368 1.959 . S
O388 C375 1.251 . S
H389 C372 0.930 . S
H390 C383 0.929 . S
Cu391 N392 1.999 . S
Cu391 O397 1.974 . S
Cu391 N402 1.985 . S
Cu391 O411 1.959 . S
N392 Cu391 1.999 . S
N392 C394 1.263 . S
N392 C396 1.389 . S
N393 C394 1.358 . S
N393 C395 1.400 . S
C394 N392 1.263 . S
C394 N393 1.358 . S
C394 H400 0.930 . S
C395 N393 1.400 . S
C395 C396 1.351 . S
C395 H412 0.930 . S
C396 N392 1.389 . S
C396 C395 1.351 . S
C396 H401 0.930 . S
O397 Cu391 1.974 . S
O397 C407 1.282 . S
C398 O399 1.261 . S
C398 O411 1.251 . S
O399 C398 1.261 . S
H400 C394 0.930 . S
H401 C396 0.930 . S
N402 Cu391 1.985 . S
N402 C404 1.335 . S
N402 C405 1.390 . S
N403 C404 1.345 . S
N403 C406 1.336 . S
C404 N402 1.335 . S
C404 N403 1.345 . S
C404 H409 0.930 . S
C405 N402 1.390 . S
C405 C406 1.346 . S
C405 H410 0.930 . S
C406 N403 1.336 . S
C406 C405 1.346 . S
C406 H413 0.929 . S
C407 O397 1.282 . S
C407 O408 1.216 . S
O408 C407 1.216 . S
H409 C404 0.930 . S
H410 C405 0.930 . S
O411 Cu391 1.959 . S
O411 C398 1.251 . S
H412 C395 0.930 . S
H413 C406 0.929 . S
C414 O415 1.322 . S
C414 O417 1.160 . S
O415 C414 1.322 . S
O415 Cd416 2.215 1_455 S
Cd416 O415 2.215 1_655 S
Cd416 O420 2.273 . S
Cd416 O424 2.277 1_655 S
O417 C414 1.160 . S
O417 Cd418 2.203 . S
Cd418 O417 2.203 . S
Cd418 O420 2.411 1_455 S
Cd418 O421 2.333 1_455 S
Cd418 O422 2.352 . S
Cd418 O426 2.277 . S
Cd418 O427 2.356 . S
C419 O424 1.209 . S
C419 O426 1.226 . S
O420 Cd416 2.273 . S
O420 Cd418 2.411 1_655 S
O420 C423 1.320 . S
O421 Cd418 2.333 1_655 S
O421 C423 1.214 . S
O422 Cd418 2.352 . S
O422 C425 1.258 . S
C423 O420 1.320 . S
C423 O421 1.214 . S
O424 Cd416 2.277 1_455 S
O424 C419 1.209 . S
C425 O422 1.258 . S
C425 O427 1.282 . S
O426 Cd418 2.277 . S
O426 C419 1.226 . S
O427 Cd418 2.356 . S
O427 C425 1.282 . S
C428 O429 1.306 . S
C428 O431 1.160 . S
O429 C428 1.306 . S
O429 Cd430 2.228 . S
Cd430 O429 2.228 . S
Cd430 O434 2.273 . S
Cd430 O438 2.277 . S
O431 C428 1.160 . S
O431 Cd432 2.203 . S
Cd432 O431 2.203 . S
Cd432 O434 2.411 . S
Cd432 O435 2.333 . S
Cd432 O436 2.352 . S
Cd432 O440 2.277 . S
Cd432 O441 2.356 . S
C433 O438 1.209 . S
C433 O440 1.226 . S
O434 Cd430 2.273 . S
O434 Cd432 2.411 . S
O434 C437 1.320 . S
O435 Cd432 2.333 . S
O435 C437 1.214 . S
O436 Cd432 2.352 . S
O436 C439 1.258 . S
C437 O434 1.320 . S
C437 O435 1.214 . S
O438 Cd430 2.277 . S
O438 C433 1.209 . S
C439 O436 1.258 . S
C439 O441 1.282 . S
O440 Cd432 2.277 . S
O440 C433 1.226 . S
O441 Cd432 2.356 . S
O441 C439 1.282 . S
C442 O443 1.306 . S
C442 O445 1.160 . S
O443 C442 1.306 . S
O443 Cd444 2.228 . S
Cd444 O443 2.228 . S
Cd444 O448 2.273 . S
Cd444 O452 2.277 . S
O445 C442 1.160 . S
O445 Cd446 2.203 . S
Cd446 O445 2.203 . S
Cd446 O448 2.411 . S
Cd446 O449 2.333 . S
Cd446 O450 2.352 . S
Cd446 O454 2.277 . S
Cd446 O455 2.356 . S
C447 O452 1.209 . S
C447 O454 1.226 . S
O448 Cd444 2.273 . S
O448 Cd446 2.411 . S
O448 C451 1.320 . S
O449 Cd446 2.333 . S
O449 C451 1.214 . S
O450 Cd446 2.352 . S
O450 C453 1.258 . S
C451 O448 1.320 . S
C451 O449 1.214 . S
O452 Cd444 2.277 . S
O452 C447 1.209 . S
C453 O450 1.258 . S
C453 O455 1.282 . S
O454 Cd446 2.277 . S
O454 C447 1.226 . S
O455 Cd446 2.356 . S
O455 C453 1.282 . S
C456 O457 1.306 . S
C456 O459 1.160 . S
O457 C456 1.306 . S
O457 Cd458 2.228 . S
Cd458 O457 2.228 . S
Cd458 O462 2.273 . S
Cd458 O466 2.319 . S
O459 C456 1.160 . S
O459 Cd460 2.203 . S
Cd460 O459 2.203 . S
Cd460 O462 2.411 . S
Cd460 O463 2.333 . S
Cd460 O464 2.352 . S
Cd460 O468 2.277 1_455 S
Cd460 O469 2.356 . S
C461 O466 1.170 1_655 S
C461 O468 1.226 . S
O462 Cd458 2.273 . S
O462 Cd460 2.411 . S
O462 C465 1.320 . S
O463 Cd460 2.333 . S
O463 C465 1.214 . S
O464 Cd460 2.352 . S
O464 C467 1.258 . S
C465 O462 1.320 . S
C465 O463 1.214 . S
O466 Cd458 2.319 . S
O466 C461 1.170 1_455 S
C467 O464 1.258 . S
C467 O469 1.282 . S
O468 Cd460 2.277 1_655 S
O468 C461 1.226 . S
O469 Cd460 2.356 . S
O469 C467 1.282 . S
C470 O471 1.306 . S
C470 O473 1.160 . S
O471 C470 1.306 . S
O471 Cd472 2.228 . S
Cd472 O471 2.228 . S
Cd472 O476 2.273 . S
Cd472 O480 2.277 . S
O473 C470 1.160 . S
O473 Cd474 2.203 . S
Cd474 O473 2.203 . S
Cd474 O476 2.411 . S
Cd474 O477 2.333 . S
Cd474 O478 2.352 . S
Cd474 O482 2.277 . S
Cd474 O483 2.356 . S
C475 O480 1.209 . S
C475 O482 1.226 . S
O476 Cd472 2.273 . S
O476 Cd474 2.411 . S
O476 C479 1.320 . S
O477 Cd474 2.333 . S
O477 C479 1.214 . S
O478 Cd474 2.352 . S
O478 C481 1.258 . S
C479 O476 1.320 . S
C479 O477 1.214 . S
O480 Cd472 2.277 . S
O480 C475 1.209 . S
C481 O478 1.258 . S
C481 O483 1.282 . S
O482 Cd474 2.277 . S
O482 C475 1.226 . S
O483 Cd474 2.356 . S
O483 C481 1.282 . S
C484 O485 1.306 . S
C484 O487 1.160 . S
O485 C484 1.306 . S
O485 Cd486 2.228 . S
Cd486 O485 2.228 . S
Cd486 O490 2.273 . S
Cd486 O494 2.277 . S
O487 C484 1.160 . S
O487 Cd488 2.203 . S
Cd488 O487 2.203 . S
Cd488 O490 2.411 . S
Cd488 O491 2.333 . S
Cd488 O492 2.352 . S
Cd488 O496 2.277 1_545 S
Cd488 O497 2.356 . S
C489 O494 1.209 1_565 S
C489 O496 1.226 . S
O490 Cd486 2.273 . S
O490 Cd488 2.411 . S
O490 C493 1.320 . S
O491 Cd488 2.333 . S
O491 C493 1.214 . S
O492 Cd488 2.352 . S
O492 C495 1.258 . S
C493 O490 1.320 . S
C493 O491 1.214 . S
O494 Cd486 2.277 . S
O494 C489 1.209 1_545 S
C495 O492 1.258 . S
C495 O497 1.282 . S
O496 Cd488 2.277 1_565 S
O496 C489 1.226 . S
O497 Cd488 2.356 . S
O497 C495 1.282 . S
C498 O499 1.306 . S
C498 O501 1.160 . S
O499 C498 1.306 . S
O499 Cd500 2.228 1_565 S
Cd500 O499 2.228 1_545 S
Cd500 O504 2.273 1_545 S
Cd500 O508 2.277 . S
O501 C498 1.160 . S
O501 Cd502 2.203 1_565 S
Cd502 O501 2.203 1_545 S
Cd502 O504 2.411 1_545 S
Cd502 O505 2.333 . S
Cd502 O506 2.352 1_545 S
Cd502 O510 2.277 . S
Cd502 O511 2.356 1_545 S
C503 O508 1.209 . S
C503 O510 1.226 . S
O504 Cd500 2.273 1_565 S
O504 Cd502 2.411 1_565 S
O504 C507 1.320 1_565 S
O505 Cd502 2.333 . S
O505 C507 1.214 . S
O506 Cd502 2.352 1_565 S
O506 C509 1.258 . S
C507 O504 1.320 1_545 S
C507 O505 1.214 . S
O508 Cd500 2.277 . S
O508 C503 1.209 . S
C509 O506 1.258 . S
C509 O511 1.282 . S
O510 Cd502 2.277 . S
O510 C503 1.226 . S
O511 Cd502 2.356 1_565 S
O511 C509 1.282 . S
C512 O513 1.306 . S
C512 O515 1.160 . S
O513 C512 1.306 . S
O513 Cd514 2.228 . S
Cd514 O513 2.228 . S
Cd514 O518 2.273 . S
Cd514 O522 2.277 . S
O515 C512 1.160 . S
O515 Cd516 2.203 . S
Cd516 O515 2.203 . S
Cd516 O518 2.411 . S
Cd516 O519 2.333 . S
Cd516 O520 2.352 . S
Cd516 O524 2.277 . S
Cd516 O525 2.356 . S
C517 O522 1.209 . S
C517 O524 1.226 . S
O518 Cd514 2.273 . S
O518 Cd516 2.411 . S
O518 C521 1.320 . S
O519 Cd516 2.333 . S
O519 C521 1.214 . S
O520 Cd516 2.352 . S
O520 C523 1.258 . S
C521 O518 1.320 . S
C521 O519 1.214 . S
O522 Cd514 2.277 . S
O522 C517 1.209 . S
C523 O520 1.258 . S
C523 O525 1.282 . S
O524 Cd516 2.277 . S
O524 C517 1.226 . S
O525 Cd516 2.356 . S
O525 C523 1.282 . S
C526 O527 1.306 . S
C526 O529 1.160 . S
O527 C526 1.306 . S
O527 Cd528 2.228 . S
Cd528 O527 2.228 . S
Cd528 O532 2.273 . S
Cd528 O536 2.277 . S
O529 C526 1.160 . S
O529 Cd530 2.203 . S
Cd530 O529 2.203 . S
Cd530 O532 2.411 . S
Cd530 O533 2.333 . S
Cd530 O534 2.352 . S
Cd530 O538 2.277 . S
Cd530 O539 2.356 . S
C531 O536 1.209 . S
C531 O538 1.226 . S
O532 Cd528 2.273 . S
O532 Cd530 2.411 . S
O532 C535 1.320 . S
O533 Cd530 2.333 . S
O533 C535 1.214 . S
O534 Cd530 2.352 . S
O534 C537 1.258 . S
C535 O532 1.320 . S
C535 O533 1.214 . S
O536 Cd528 2.277 . S
O536 C531 1.209 . S
C537 O534 1.258 . S
C537 O539 1.282 . S
O538 Cd530 2.277 . S
O538 C531 1.226 . S
O539 Cd530 2.356 . S
O539 C537 1.282 . S
C540 O541 1.306 . S
C540 O543 1.160 . S
O541 C540 1.306 . S
O541 Cd542 2.228 . S
Cd542 O541 2.228 . S
Cd542 O546 2.273 . S
Cd542 O550 2.277 . S
O543 C540 1.160 . S
O543 Cd544 2.203 . S
Cd544 O543 2.203 . S
Cd544 O546 2.411 . S
Cd544 O547 2.333 . S
Cd544 O548 2.352 . S
Cd544 O552 2.277 . S
Cd544 O553 2.356 . S
C545 O550 1.209 . S
C545 O552 1.226 . S
O546 Cd542 2.273 . S
O546 Cd544 2.411 . S
O546 C549 1.320 . S
O547 Cd544 2.333 . S
O547 C549 1.214 . S
O548 Cd544 2.352 . S
O548 C551 1.258 . S
C549 O546 1.320 . S
C549 O547 1.214 . S
O550 Cd542 2.277 . S
O550 C545 1.209 . S
C551 O548 1.258 . S
C551 O553 1.282 . S
O552 Cd544 2.277 . S
O552 C545 1.226 . S
O553 Cd544 2.356 . S
O553 C551 1.282 . S
C554 O555 1.308 . S
C554 O557 1.155 1_565 S
O555 C554 1.308 . S
O555 Cd556 2.227 . S
Cd556 O555 2.227 . S
Cd556 O560 2.273 . S
Cd556 O564 2.279 1_565 S
O557 C554 1.155 1_545 S
O557 Cd558 2.203 1_545 S
Cd558 O557 2.203 1_565 S
Cd558 O560 2.411 . S
Cd558 O561 2.333 . S
Cd558 O562 2.352 . S
Cd558 O566 2.277 1_565 S
Cd558 O567 2.356 . S
C559 O564 1.209 . S
C559 O566 1.226 . S
O560 Cd556 2.273 . S
O560 Cd558 2.411 . S
O560 C563 1.320 . S
O561 Cd558 2.333 . S
O561 C563 1.214 . S
O562 Cd558 2.352 . S
O562 C565 1.258 . S
C563 O560 1.320 . S
C563 O561 1.214 . S
O564 Cd556 2.279 1_545 S
O564 C559 1.209 . S
C565 O562 1.258 . S
C565 O567 1.282 . S
O566 Cd558 2.277 1_545 S
O566 C559 1.226 . S
O567 Cd558 2.356 . S
O567 C565 1.282 . S
C568 O569 1.306 . S
C568 O571 1.160 . S
O569 C568 1.306 . S
O569 Cd570 2.228 . S
Cd570 O569 2.228 . S
Cd570 O574 2.273 . S
Cd570 O578 2.277 . S
O571 C568 1.160 . S
O571 Cd572 2.203 . S
Cd572 O571 2.203 . S
Cd572 O574 2.411 . S
Cd572 O575 2.333 . S
Cd572 O576 2.352 . S
Cd572 O580 2.277 . S
Cd572 O581 2.356 . S
C573 O578 1.209 . S
C573 O580 1.226 . S
O574 Cd570 2.273 . S
O574 Cd572 2.411 . S
O574 C577 1.320 . S
O575 Cd572 2.333 . S
O575 C577 1.214 . S
O576 Cd572 2.352 . S
O576 C579 1.258 . S
C577 O574 1.320 . S
C577 O575 1.214 . S
O578 Cd570 2.277 . S
O578 C573 1.209 . S
C579 O576 1.258 . S
C579 O581 1.282 . S
O580 Cd572 2.277 . S
O580 C573 1.226 . S
O581 Cd572 2.356 . S
O581 C579 1.282 . S
C582 O583 1.306 . S
C582 O585 1.160 . S
O583 C582 1.306 . S
O583 Cd584 2.228 . S
Cd584 O583 2.228 . S
Cd584 O588 2.273 . S
Cd584 O592 2.277 . S
O585 C582 1.160 . S
O585 Cd586 2.203 . S
Cd586 O585 2.203 . S
Cd586 O588 2.411 . S
Cd586 O589 2.333 . S
Cd586 O590 2.352 . S
Cd586 O594 2.277 . S
Cd586 O595 2.356 . S
C587 O592 1.209 . S
C587 O594 1.226 . S
O588 Cd584 2.273 . S
O588 Cd586 2.411 . S
O588 C591 1.320 . S
O589 Cd586 2.333 . S
O589 C591 1.214 . S
O590 Cd586 2.352 . S
O590 C593 1.258 . S
C591 O588 1.320 . S
C591 O589 1.214 . S
O592 Cd584 2.277 . S
O592 C587 1.209 . S
C593 O590 1.258 . S
C593 O595 1.282 . S
O594 Cd586 2.277 . S
O594 C587 1.226 . S
O595 Cd586 2.356 . S
O595 C593 1.282 . S
C596 O597 1.306 . S
C596 O599 1.160 . S
O597 C596 1.306 . S
O597 Cd598 2.228 . S
Cd598 O597 2.228 . S
Cd598 O602 2.273 . S
Cd598 O606 2.277 . S
O599 C596 1.160 . S
O599 Cd600 2.203 . S
Cd600 O599 2.203 . S
Cd600 O602 2.411 . S
Cd600 O603 2.333 . S
Cd600 O604 2.352 . S
Cd600 O608 2.277 . S
Cd600 O609 2.356 . S
C601 O606 1.209 . S
C601 O608 1.226 . S
O602 Cd598 2.273 . S
O602 Cd600 2.411 . S
O602 C605 1.320 . S
O603 Cd600 2.333 . S
O603 C605 1.214 . S
O604 Cd600 2.352 . S
O604 C607 1.258 . S
C605 O602 1.320 . S
C605 O603 1.214 . S
O606 Cd598 2.277 . S
O606 C601 1.209 . S
C607 O604 1.258 . S
C607 O609 1.282 . S
O608 Cd600 2.277 . S
O608 C601 1.226 . S
O609 Cd600 2.356 . S
O609 C607 1.282 . S
C610 O611 1.306 . S
C610 O613 1.160 . S
O611 C610 1.306 . S
O611 Cd612 2.228 . S
Cd612 O611 2.228 . S
Cd612 O616 2.273 . S
Cd612 O620 2.277 1_655 S
O613 C610 1.160 . S
O613 Cd614 2.203 . S
Cd614 O613 2.203 . S
Cd614 O616 2.411 . S
Cd614 O617 2.333 . S
Cd614 O618 2.352 . S
Cd614 O622 2.277 1_655 S
Cd614 O623 2.356 . S
C615 O620 1.209 . S
C615 O622 1.226 . S
O616 Cd612 2.273 . S
O616 Cd614 2.411 . S
O616 C619 1.320 . S
O617 Cd614 2.333 . S
O617 C619 1.214 . S
O618 Cd614 2.352 . S
O618 C621 1.258 . S
C619 O616 1.320 . S
C619 O617 1.214 . S
O620 Cd612 2.277 1_455 S
O620 C615 1.209 . S
C621 O618 1.258 . S
C621 O623 1.282 . S
O622 Cd614 2.277 1_455 S
O622 C615 1.226 . S
O623 Cd614 2.356 . S
O623 C621 1.282 . S
C624 O625 1.306 . S
C624 O627 1.160 . S
O625 C624 1.306 . S
O625 Cd626 2.228 . S
Cd626 O625 2.228 . S
Cd626 O630 2.273 . S
Cd626 O634 2.277 . S
O627 C624 1.160 . S
O627 Cd628 2.203 . S
Cd628 O627 2.203 . S
Cd628 O630 2.411 . S
Cd628 O631 2.333 . S
Cd628 O632 2.352 . S
Cd628 O636 2.277 . S
Cd628 O637 2.356 . S
C629 O634 1.209 . S
C629 O636 1.226 . S
O630 Cd626 2.273 . S
O630 Cd628 2.411 . S
O630 C633 1.320 . S
O631 Cd628 2.333 . S
O631 C633 1.214 . S
O632 Cd628 2.352 . S
O632 C635 1.258 . S
C633 O630 1.320 . S
C633 O631 1.214 . S
O634 Cd626 2.277 . S
O634 C629 1.209 . S
C635 O632 1.258 . S
C635 O637 1.282 . S
O636 Cd628 2.277 . S
O636 C629 1.226 . S
O637 Cd628 2.356 . S
O637 C635 1.282 . S
C638 O639 1.306 . S
C638 O641 1.160 . S
O639 C638 1.306 . S
O639 Cd640 2.256 . S
Cd640 O639 2.256 . S
Cd640 O644 2.236 1_455 S
Cd640 O648 2.244 1_455 S
O641 C638 1.160 . S
O641 Cd642 2.203 1_455 S
Cd642 O641 2.203 1_655 S
Cd642 O644 2.411 . S
Cd642 O645 2.333 . S
Cd642 O646 2.352 . S
Cd642 O650 2.277 . S
Cd642 O651 2.356 . S
C643 O648 1.209 . S
C643 O650 1.226 . S
O644 Cd640 2.236 1_655 S
O644 Cd642 2.411 . S
O644 C647 1.320 . S
O645 Cd642 2.333 . S
O645 C647 1.214 . S
O646 Cd642 2.352 . S
O646 C649 1.258 . S
C647 O644 1.320 . S
C647 O645 1.214 . S
O648 Cd640 2.244 1_655 S
O648 C643 1.209 . S
C649 O646 1.258 . S
C649 O651 1.282 . S
O650 Cd642 2.277 . S
O650 C643 1.226 . S
O651 Cd642 2.356 . S
O651 C649 1.282 . S
C652 O653 1.306 . S
C652 O655 1.160 . S
O653 C652 1.306 . S
O653 Cd654 2.228 . S
Cd654 O653 2.228 . S
Cd654 O658 2.273 . S
Cd654 O662 2.277 . S
O655 C652 1.160 . S
O655 Cd656 2.203 . S
Cd656 O655 2.203 . S
Cd656 O658 2.411 . S
Cd656 O659 2.333 . S
Cd656 O660 2.352 . S
Cd656 O664 2.277 . S
Cd656 O665 2.356 . S
C657 O662 1.209 . S
C657 O664 1.226 . S
O658 Cd654 2.273 . S
O658 Cd656 2.411 . S
O658 C661 1.320 . S
O659 Cd656 2.333 . S
O659 C661 1.214 . S
O660 Cd656 2.352 . S
O660 C663 1.258 . S
C661 O658 1.320 . S
C661 O659 1.214 . S
O662 Cd654 2.277 . S
O662 C657 1.209 . S
C663 O660 1.258 . S
C663 O665 1.282 . S
O664 Cd656 2.277 . S
O664 C657 1.226 . S
O665 Cd656 2.356 . S
O665 C663 1.282 . S
H666 C672 0.930 . S
H667 C675 0.930 . S
H668 C676 0.930 . S
H669 C677 0.930 . S
H670 C680 0.930 . S
H671 C681 0.930 . S
C672 H666 0.930 . S
C672 C673 1.355 . S
C672 C674 1.415 . S
C673 C672 1.355 . S
C673 C675 1.419 . S
C674 C672 1.415 . S
C674 C679 1.425 . S
C674 C681 1.409 . S
C675 H667 0.930 . S
C675 C673 1.419 . S
C675 C676 1.362 . S
C676 H668 0.930 . S
C676 C675 1.362 . S
C676 C679 1.409 . S
C677 H669 0.930 . S
C677 C678 1.355 . S
C677 C679 1.415 . S
C678 C677 1.355 . S
C678 C680 1.419 . S
C679 C674 1.425 . S
C679 C676 1.409 . S
C679 C677 1.415 . S
C680 H670 0.930 . S
C680 C678 1.419 . S
C680 C681 1.362 . S
C681 H671 0.930 . S
C681 C674 1.409 . S
C681 C680 1.362 . S
H682 C688 0.930 . S
H683 C691 0.930 . S
H684 C692 0.930 . S
H685 C693 0.930 . S
H686 C696 0.930 . S
H687 C697 0.930 . S
C688 H682 0.930 . S
C688 C689 1.355 . S
C688 C690 1.415 . S
C689 C688 1.355 . S
C689 C691 1.419 . S
C690 C688 1.415 . S
C690 C695 1.425 . S
C690 C697 1.409 . S
C691 H683 0.930 . S
C691 C689 1.419 . S
C691 C692 1.362 . S
C692 H684 0.930 . S
C692 C691 1.362 . S
C692 C695 1.409 . S
C693 H685 0.930 . S
C693 C694 1.355 . S
C693 C695 1.415 . S
C694 C693 1.355 . S
C694 C696 1.419 . S
C695 C690 1.425 . S
C695 C692 1.409 . S
C695 C693 1.415 . S
C696 H686 0.930 . S
C696 C694 1.419 . S
C696 C697 1.362 . S
C697 H687 0.930 . S
C697 C690 1.409 . S
C697 C696 1.362 . S
H698 C704 0.930 . S
H699 C707 0.930 . S
H700 C708 0.930 . S
H701 C709 0.930 . S
H702 C712 0.930 . S
H703 C713 0.930 . S
C704 H698 0.930 . S
C704 C705 1.355 1_565 S
C704 C706 1.415 . S
C705 C704 1.355 1_545 S
C705 C707 1.419 . S
C706 C704 1.415 . S
C706 C711 1.425 1_565 S
C706 C713 1.409 . S
C707 H699 0.930 . S
C707 C705 1.419 . S
C707 C708 1.362 . S
C708 H700 0.930 . S
C708 C707 1.362 . S
C708 C711 1.409 . S
C709 H701 0.930 . S
C709 C710 1.355 1_545 S
C709 C711 1.415 . S
C710 C709 1.355 1_565 S
C710 C712 1.419 . S
C711 C706 1.425 1_545 S
C711 C708 1.409 . S
C711 C709 1.415 . S
C712 H702 0.930 . S
C712 C710 1.419 . S
C712 C713 1.362 . S
C713 H703 0.930 . S
C713 C706 1.409 . S
C713 C712 1.362 . S
H714 C720 0.930 . S
H715 C723 0.930 . S
H716 C724 0.930 . S
H717 C725 0.930 . S
H718 C728 0.930 . S
H719 C729 0.930 . S
C720 H714 0.930 . S
C720 C721 1.355 . S
C720 C722 1.415 . S
C721 C720 1.355 . S
C721 C723 1.419 . S
C722 C720 1.415 . S
C722 C727 1.425 . S
C722 C729 1.409 . S
C723 H715 0.930 . S
C723 C721 1.419 . S
C723 C724 1.362 . S
C724 H716 0.930 . S
C724 C723 1.362 . S
C724 C727 1.409 . S
C725 H717 0.930 . S
C725 C726 1.355 . S
C725 C727 1.415 . S
C726 C725 1.355 . S
C726 C728 1.419 . S
C727 C722 1.425 . S
C727 C724 1.409 . S
C727 C725 1.415 . S
C728 H718 0.930 . S
C728 C726 1.419 . S
C728 C729 1.362 . S
C729 H719 0.930 . S
C729 C722 1.409 . S
C729 C728 1.362 . S
H730 C736 0.930 . S
H731 C739 0.930 . S
H732 C740 0.930 1_655 S
H733 C741 0.930 . S
H734 C744 0.930 . S
H735 C745 0.930 . S
C736 H730 0.930 . S
C736 C737 1.355 . S
C736 C738 1.415 . S
C737 C736 1.355 . S
C737 C739 1.419 . S
C738 C736 1.415 . S
C738 C743 1.425 . S
C738 C745 1.409 . S
C739 H731 0.930 . S
C739 C737 1.419 . S
C739 C740 1.362 . S
C740 H732 0.930 1_455 S
C740 C739 1.362 . S
C740 C743 1.409 . S
C741 H733 0.930 . S
C741 C742 1.355 1_655 S
C741 C743 1.415 1_655 S
C742 C741 1.355 1_455 S
C742 C744 1.419 . S
C743 C738 1.425 . S
C743 C740 1.409 . S
C743 C741 1.415 1_455 S
C744 H734 0.930 . S
C744 C742 1.419 . S
C744 C745 1.362 . S
C745 H735 0.930 . S
C745 C738 1.409 . S
C745 C744 1.362 . S
H746 C752 0.930 . S
H747 C755 0.930 . S
H748 C756 0.930 . S
H749 C757 0.930 . S
H750 C760 0.930 . S
H751 C761 0.930 . S
C752 H746 0.930 . S
C752 C753 1.355 . S
C752 C754 1.415 . S
C753 C752 1.355 . S
C753 C755 1.419 . S
C754 C752 1.415 . S
C754 C759 1.425 . S
C754 C761 1.409 . S
C755 H747 0.930 . S
C755 C753 1.419 . S
C755 C756 1.362 . S
C756 H748 0.930 . S
C756 C755 1.362 . S
C756 C759 1.409 . S
C757 H749 0.930 . S
C757 C758 1.355 . S
C757 C759 1.415 . S
C758 C757 1.355 . S
C758 C760 1.419 . S
C759 C754 1.425 . S
C759 C756 1.409 . S
C759 C757 1.415 . S
C760 H750 0.930 . S
C760 C758 1.419 . S
C760 C761 1.362 . S
C761 H751 0.930 . S
C761 C754 1.409 . S
C761 C760 1.362 . S
H762 C768 0.930 1_655 S
H763 C771 0.930 1_554 S
H764 C772 0.930 . S
H765 C773 0.930 . S
H766 C776 0.930 . S
H767 C777 0.930 . S
C768 H762 0.930 1_455 S
C768 C769 1.355 . S
C768 C770 1.415 . S
C769 C768 1.355 . S
C769 C771 1.419 . S
C770 C768 1.415 . S
C770 C775 1.425 . S
C770 C777 1.409 1_455 S
C771 H763 0.930 1_556 S
C771 C769 1.419 . S
C771 C772 1.362 . S
C772 H764 0.930 . S
C772 C771 1.362 . S
C772 C775 1.409 . S
C773 H765 0.930 . S
C773 C774 1.355 1_455 S
C773 C775 1.415 . S
C774 C773 1.355 1_655 S
C774 C776 1.419 . S
C775 C770 1.425 . S
C775 C772 1.409 . S
C775 C773 1.415 . S
C776 H766 0.930 . S
C776 C774 1.419 . S
C776 C777 1.362 . S
C777 H767 0.930 . S
C777 C770 1.409 1_655 S
C777 C776 1.362 . S
H778 C784 0.930 . S
H779 C787 0.930 . S
H780 C788 0.930 . S
H781 C789 0.932 1_554 S
H782 C792 0.930 . S
H783 C793 0.930 . S
C784 H778 0.930 . S
C784 C785 1.355 . S
C784 C786 1.415 . S
C785 C784 1.355 . S
C785 C787 1.419 1_556 S
C786 C784 1.415 . S
C786 C791 1.425 . S
C786 C793 1.409 . S
C787 H779 0.930 . S
C787 C785 1.419 1_554 S
C787 C788 1.362 . S
C788 H780 0.930 . S
C788 C787 1.362 . S
C788 C791 1.409 1_554 S
C789 H781 0.932 1_556 S
C789 C790 1.355 . S
C789 C791 1.415 . S
C790 C789 1.355 . S
C790 C792 1.419 . S
C791 C786 1.425 . S
C791 C788 1.409 1_556 S
C791 C789 1.415 . S
C792 H782 0.930 . S
C792 C790 1.419 . S
C792 C793 1.362 . S
C793 H783 0.930 . S
C793 C786 1.409 . S
C793 C792 1.362 . S
H794 C800 0.930 . S
H795 C803 0.930 . S
H796 C804 0.930 . S
H797 C805 0.930 . S
H798 C808 0.930 . S
H799 C809 0.930 . S
C800 H794 0.930 . S
C800 C801 1.355 . S
C800 C802 1.415 . S
C801 C800 1.355 . S
C801 C803 1.419 . S
C802 C800 1.415 . S
C802 C807 1.425 . S
C802 C809 1.409 . S
C803 H795 0.930 . S
C803 C801 1.419 . S
C803 C804 1.362 . S
C804 H796 0.930 . S
C804 C803 1.362 . S
C804 C807 1.409 . S
C805 H797 0.930 . S
C805 C806 1.355 . S
C805 C807 1.415 . S
C806 C805 1.355 . S
C806 C808 1.419 . S
C807 C802 1.425 . S
C807 C804 1.409 . S
C807 C805 1.415 . S
C808 H798 0.930 . S
C808 C806 1.419 . S
C808 C809 1.362 . S
C809 H799 0.930 . S
C809 C802 1.409 . S
C809 C808 1.362 . S
H810 C816 0.930 . S
H811 C819 0.930 . S
H812 C820 0.930 . S
H813 C821 0.930 . S
H814 C824 0.930 . S
H815 C825 0.930 . S
C816 H810 0.930 . S
C816 C817 1.355 1_565 S
C816 C818 1.405 . S
C817 C816 1.355 1_545 S
C817 C819 1.419 . S
C818 C816 1.405 . S
C818 C823 1.429 1_565 S
C818 C825 1.416 . S
C819 H811 0.930 . S
C819 C817 1.419 . S
C819 C820 1.362 . S
C820 H812 0.930 . S
C820 C819 1.362 . S
C820 C823 1.409 . S
C821 H813 0.930 . S
C821 C822 1.355 . S
C821 C823 1.415 . S
C822 C821 1.355 . S
C822 C824 1.419 1_545 S
C823 C818 1.429 1_545 S
C823 C820 1.409 . S
C823 C821 1.415 . S
C824 H814 0.930 . S
C824 C822 1.419 1_565 S
C824 C825 1.362 . S
C825 H815 0.930 . S
C825 C818 1.416 . S
C825 C824 1.362 . S
H826 C832 0.930 . S
H827 C835 0.930 . S
H828 C836 0.930 . S
H829 C837 0.930 . S
H830 C840 0.930 . S
H831 C841 0.930 . S
C832 H826 0.930 . S
C832 C833 1.355 . S
C832 C834 1.415 . S
C833 C832 1.355 . S
C833 C835 1.419 . S
C834 C832 1.415 . S
C834 C839 1.425 . S
C834 C841 1.409 . S
C835 H827 0.930 . S
C835 C833 1.419 . S
C835 C836 1.362 . S
C836 H828 0.930 . S
C836 C835 1.362 . S
C836 C839 1.409 . S
C837 H829 0.930 . S
C837 C838 1.355 . S
C837 C839 1.415 . S
C838 C837 1.355 . S
C838 C840 1.419 . S
C839 C834 1.425 . S
C839 C836 1.409 . S
C839 C837 1.415 . S
C840 H830 0.930 . S
C840 C838 1.419 . S
C840 C841 1.362 . S
C841 H831 0.930 . S
C841 C834 1.409 . S
C841 C840 1.362 . S
H842 C848 0.930 . S
H843 C851 0.930 . S
H844 C852 0.930 . S
H845 C853 0.930 . S
H846 C856 0.930 . S
H847 C857 0.930 . S
C848 H842 0.930 . S
C848 C849 1.355 . S
C848 C850 1.415 . S
C849 C848 1.355 . S
C849 C851 1.419 . S
C850 C848 1.415 . S
C850 C855 1.425 . S
C850 C857 1.409 . S
C851 H843 0.930 . S
C851 C849 1.419 . S
C851 C852 1.362 . S
C852 H844 0.930 . S
C852 C851 1.362 . S
C852 C855 1.409 . S
C853 H845 0.930 . S
C853 C854 1.355 . S
C853 C855 1.415 . S
C854 C853 1.355 . S
C854 C856 1.419 . S
C855 C850 1.425 . S
C855 C852 1.409 . S
C855 C853 1.415 . S
C856 H846 0.930 . S
C856 C854 1.419 . S
C856 C857 1.362 . S
C857 H847 0.930 . S
C857 C850 1.409 . S
C857 C856 1.362 . S
H858 C864 0.930 . S
H859 C867 0.930 . S
H860 C868 0.930 . S
H861 C869 0.930 . S
H862 C872 0.930 . S
H863 C873 0.930 . S
C864 H858 0.930 . S
C864 C865 1.355 . S
C864 C866 1.415 . S
C865 C864 1.355 . S
C865 C867 1.419 . S
C866 C864 1.415 . S
C866 C871 1.425 . S
C866 C873 1.409 . S
C867 H859 0.930 . S
C867 C865 1.419 . S
C867 C868 1.362 . S
C868 H860 0.930 . S
C868 C867 1.362 . S
C868 C871 1.409 . S
C869 H861 0.930 . S
C869 C870 1.355 . S
C869 C871 1.415 . S
C870 C869 1.355 . S
C870 C872 1.419 . S
C871 C866 1.425 . S
C871 C868 1.409 . S
C871 C869 1.415 . S
C872 H862 0.930 . S
C872 C870 1.419 . S
C872 C873 1.362 . S
C873 H863 0.930 . S
C873 C866 1.409 . S
C873 C872 1.362 . S
H874 C880 0.930 . S
H875 C883 0.930 . S
H876 C884 0.930 . S
H877 C885 0.930 . S
H878 C888 0.930 . S
H879 C889 0.930 . S
C880 H874 0.930 . S
C880 C881 1.355 . S
C880 C882 1.415 1_565 S
C881 C880 1.355 . S
C881 C883 1.419 . S
C882 C880 1.415 1_545 S
C882 C887 1.425 . S
C882 C889 1.409 . S
C883 H875 0.930 . S
C883 C881 1.419 . S
C883 C884 1.362 . S
C884 H876 0.930 . S
C884 C883 1.362 . S
C884 C887 1.409 1_565 S
C885 H877 0.930 . S
C885 C886 1.355 . S
C885 C887 1.415 . S
C886 C885 1.355 . S
C886 C888 1.419 . S
C887 C882 1.425 . S
C887 C884 1.409 1_545 S
C887 C885 1.415 . S
C888 H878 0.930 . S
C888 C886 1.419 . S
C888 C889 1.362 . S
C889 H879 0.930 . S
C889 C882 1.409 . S
C889 C888 1.362 . S
H890 C896 0.930 . S
H891 C899 0.930 . S
H892 C900 0.930 . S
H893 C901 0.930 . S
H894 C904 0.930 . S
H895 C905 0.930 . S
C896 H890 0.930 . S
C896 C897 1.355 . S
C896 C898 1.415 . S
C897 C896 1.355 . S
C897 C899 1.419 . S
C898 C896 1.415 . S
C898 C903 1.425 . S
C898 C905 1.409 . S
C899 H891 0.930 . S
C899 C897 1.419 . S
C899 C900 1.362 . S
C900 H892 0.930 . S
C900 C899 1.362 . S
C900 C903 1.409 . S
C901 H893 0.930 . S
C901 C902 1.355 . S
C901 C903 1.415 . S
C902 C901 1.355 . S
C902 C904 1.419 . S
C903 C898 1.425 . S
C903 C900 1.409 . S
C903 C901 1.415 . S
C904 H894 0.930 . S
C904 C902 1.419 . S
C904 C905 1.362 . S
C905 H895 0.930 . S
C905 C898 1.409 . S
C905 C904 1.362 . S
H906 C912 0.930 . S
H907 C915 0.930 . S
H908 C916 0.930 . S
H909 C917 0.930 . S
H910 C920 0.930 . S
H911 C921 0.930 . S
C912 H906 0.930 . S
C912 C913 1.355 . S
C912 C914 1.415 . S
C913 C912 1.355 . S
C913 C915 1.419 . S
C914 C912 1.415 . S
C914 C919 1.425 . S
C914 C921 1.409 . S
C915 H907 0.930 . S
C915 C913 1.419 . S
C915 C916 1.362 . S
C916 H908 0.930 . S
C916 C915 1.362 . S
C916 C919 1.409 . S
C917 H909 0.930 . S
C917 C918 1.355 . S
C917 C919 1.415 . S
C918 C917 1.355 . S
C918 C920 1.419 . S
C919 C914 1.425 . S
C919 C916 1.409 . S
C919 C917 1.415 . S
C920 H910 0.930 . S
C920 C918 1.419 . S
C920 C921 1.362 . S
C921 H911 0.930 . S
C921 C914 1.409 . S
C921 C920 1.362 . S
H922 C928 0.930 . S
H923 C931 0.930 . S
H924 C932 0.930 . S
H925 C933 0.930 . S
H926 C936 0.930 . S
H927 C937 0.930 . S
C928 H922 0.930 . S
C928 C929 1.355 . S
C928 C930 1.415 . S
C929 C928 1.355 . S
C929 C931 1.419 . S
C930 C928 1.415 . S
C930 C935 1.425 . S
C930 C937 1.409 . S
C931 H923 0.930 . S
C931 C929 1.419 . S
C931 C932 1.362 . S
C932 H924 0.930 . S
C932 C931 1.362 . S
C932 C935 1.409 . S
C933 H925 0.930 . S
C933 C934 1.355 . S
C933 C935 1.415 . S
C934 C933 1.355 . S
C934 C936 1.419 . S
C935 C930 1.425 . S
C935 C932 1.409 . S
C935 C933 1.415 . S
C936 H926 0.930 . S
C936 C934 1.419 . S
C936 C937 1.362 . S
C937 H927 0.930 . S
C937 C930 1.409 . S
C937 C936 1.362 . S
H938 C944 0.930 . S
H939 C947 0.930 . S
H940 C948 0.930 . S
H941 C949 0.930 . S
H942 C952 0.915 1_545 S
H943 C953 0.930 1_545 S
C944 H938 0.930 . S
C944 C945 1.355 . S
C944 C946 1.415 . S
C945 C944 1.355 . S
C945 C947 1.419 . S
C946 C944 1.415 . S
C946 C951 1.425 . S
C946 C953 1.409 . S
C947 H939 0.930 . S
C947 C945 1.419 . S
C947 C948 1.362 . S
C948 H940 0.930 . S
C948 C947 1.362 . S
C948 C951 1.409 . S
C949 H941 0.930 . S
C949 C950 1.355 . S
C949 C951 1.415 . S
C950 C949 1.355 . S
C950 C952 1.437 . S
C951 C946 1.425 . S
C951 C948 1.409 . S
C951 C949 1.415 . S
C952 H942 0.915 1_565 S
C952 C950 1.437 . S
C952 C953 1.359 . S
C953 H943 0.930 1_565 S
C953 C946 1.409 . S
C953 C952 1.359 . S
H954 C960 0.930 . S
H955 C963 0.930 . S
H956 C964 0.930 . S
H957 C965 0.935 1_565 S
H958 C968 0.930 . S
H959 C969 0.930 . S
C960 H954 0.930 . S
C960 C961 1.355 . S
C960 C962 1.415 . S
C961 C960 1.355 . S
C961 C963 1.419 . S
C962 C960 1.415 . S
C962 C967 1.425 . S
C962 C969 1.409 1_565 S
C963 H955 0.930 . S
C963 C961 1.419 . S
C963 C964 1.362 . S
C964 H956 0.930 . S
C964 C963 1.362 . S
C964 C967 1.409 . S
C965 H957 0.935 1_545 S
C965 C966 1.398 . S
C965 C967 1.368 1_545 S
C966 C965 1.398 . S
C966 C968 1.419 . S
C967 C962 1.425 . S
C967 C964 1.409 . S
C967 C965 1.368 1_565 S
C968 H958 0.930 . S
C968 C966 1.419 . S
C968 C969 1.362 . S
C969 H959 0.930 . S
C969 C962 1.409 1_545 S
C969 C968 1.362 . S
H970 C976 0.930 . S
H971 C979 0.930 . S
H972 C980 0.930 . S
H973 C981 0.930 . S
H974 C984 0.930 . S
H975 C985 0.930 . S
C976 H970 0.930 . S
C976 C977 1.355 . S
C976 C978 1.415 . S
C977 C976 1.355 . S
C977 C979 1.419 . S
C978 C976 1.415 . S
C978 C983 1.425 . S
C978 C985 1.409 . S
C979 H971 0.930 . S
C979 C977 1.419 . S
C979 C980 1.362 . S
C980 H972 0.930 . S
C980 C979 1.362 . S
C980 C983 1.409 . S
C981 H973 0.930 . S
C981 C982 1.355 . S
C981 C983 1.415 . S
C982 C981 1.355 . S
C982 C984 1.419 . S
C983 C978 1.425 . S
C983 C980 1.409 . S
C983 C981 1.415 . S
C984 H974 0.930 . S
C984 C982 1.419 . S
C984 C985 1.362 . S
C985 H975 0.930 . S
C985 C978 1.409 . S
C985 C984 1.362 . S
H986 C992 0.930 . S
H987 C995 0.930 . S
H988 C996 0.930 . S
H989 C997 0.930 . S
H990 C1000 0.930 . S
H991 C1001 0.930 . S
C992 H986 0.930 . S
C992 C993 1.355 . S
C992 C994 1.415 . S
C993 C992 1.355 . S
C993 C995 1.419 . S
C994 C992 1.415 . S
C994 C999 1.425 . S
C994 C1001 1.409 . S
C995 H987 0.930 . S
C995 C993 1.419 . S
C995 C996 1.362 . S
C996 H988 0.930 . S
C996 C995 1.362 . S
C996 C999 1.409 . S
C997 H989 0.930 . S
C997 C998 1.355 . S
C997 C999 1.415 . S
C998 C997 1.355 . S
C998 C1000 1.419 . S
C999 C994 1.425 . S
C999 C996 1.409 . S
C999 C997 1.415 . S
C1000 H990 0.930 . S
C1000 C998 1.419 . S
C1000 C1001 1.362 . S
C1001 H991 0.930 . S
C1001 C994 1.409 . S
C1001 C1000 1.362 . S
H1002 C1008 0.930 . S
H1003 C1011 0.930 . S
H1004 C1012 0.930 . S
H1005 C1013 0.930 . S
H1006 C1016 0.930 . S
H1007 C1017 0.930 . S
C1008 H1002 0.930 . S
C1008 C1009 1.355 . S
C1008 C1010 1.415 . S
C1009 C1008 1.355 . S
C1009 C1011 1.419 . S
C1010 C1008 1.415 . S
C1010 C1015 1.425 . S
C1010 C1017 1.409 . S
C1011 H1003 0.930 . S
C1011 C1009 1.419 . S
C1011 C1012 1.362 . S
C1012 H1004 0.930 . S
C1012 C1011 1.362 . S
C1012 C1015 1.409 . S
C1013 H1005 0.930 . S
C1013 C1014 1.355 . S
C1013 C1015 1.415 . S
C1014 C1013 1.355 . S
C1014 C1016 1.419 . S
C1015 C1010 1.425 . S
C1015 C1012 1.409 . S
C1015 C1013 1.415 . S
C1016 H1006 0.930 . S
C1016 C1014 1.419 . S
C1016 C1017 1.362 . S
C1017 H1007 0.930 . S
C1017 C1010 1.409 . S
C1017 C1016 1.362 . S
H1018 C1024 0.930 . S
H1019 C1027 0.921 . S
H1020 C1028 0.930 . S
H1021 C1029 0.930 . S
H1022 C1032 0.930 . S
H1023 C1033 0.930 . S
C1024 H1018 0.930 . S
C1024 C1025 1.355 . S
C1024 C1026 1.415 . S
C1025 C1024 1.355 . S
C1025 C1027 1.408 1_565 S
C1026 C1024 1.415 . S
C1026 C1031 1.425 1_565 S
C1026 C1033 1.409 . S
C1027 H1019 0.921 . S
C1027 C1025 1.408 1_545 S
C1027 C1028 1.383 . S
C1028 H1020 0.930 . S
C1028 C1027 1.383 . S
C1028 C1031 1.409 . S
C1029 H1021 0.930 . S
C1029 C1030 1.355 . S
C1029 C1031 1.415 . S
C1030 C1029 1.355 . S
C1030 C1032 1.419 . S
C1031 C1026 1.425 1_545 S
C1031 C1028 1.409 . S
C1031 C1029 1.415 . S
C1032 H1022 0.930 . S
C1032 C1030 1.419 . S
C1032 C1033 1.362 1_545 S
C1033 H1023 0.930 . S
C1033 C1026 1.409 . S
C1033 C1032 1.362 1_565 S
H1034 C1040 0.930 . S
H1035 C1043 0.930 . S
H1036 C1044 0.930 . S
H1037 C1045 0.930 . S
H1038 C1048 0.930 . S
H1039 C1049 0.930 . S
C1040 H1034 0.930 . S
C1040 C1041 1.355 . S
C1040 C1042 1.415 . S
C1041 C1040 1.355 . S
C1041 C1043 1.419 . S
C1042 C1040 1.415 . S
C1042 C1047 1.425 . S
C1042 C1049 1.409 . S
C1043 H1035 0.930 . S
C1043 C1041 1.419 . S
C1043 C1044 1.362 . S
C1044 H1036 0.930 . S
C1044 C1043 1.362 . S
C1044 C1047 1.409 . S
C1045 H1037 0.930 . S
C1045 C1046 1.355 . S
C1045 C1047 1.415 . S
C1046 C1045 1.355 . S
C1046 C1048 1.419 . S
C1047 C1042 1.425 . S
C1047 C1044 1.409 . S
C1047 C1045 1.415 . S
C1048 H1038 0.930 . S
C1048 C1046 1.419 . S
C1048 C1049 1.362 . S
C1049 H1039 0.930 . S
C1049 C1042 1.409 . S
C1049 C1048 1.362 . S
H1050 C1056 0.930 . S
H1051 C1059 0.930 . S
H1052 C1060 0.930 . S
H1053 C1061 0.930 . S
H1054 C1064 0.930 . S
H1055 C1065 0.930 . S
C1056 H1050 0.930 . S
C1056 C1057 1.355 . S
C1056 C1058 1.415 . S
C1057 C1056 1.355 . S
C1057 C1059 1.419 . S
C1058 C1056 1.415 . S
C1058 C1063 1.425 . S
C1058 C1065 1.409 . S
C1059 H1051 0.930 . S
C1059 C1057 1.419 . S
C1059 C1060 1.362 . S
C1060 H1052 0.930 . S
C1060 C1059 1.362 . S
C1060 C1063 1.409 . S
C1061 H1053 0.930 . S
C1061 C1062 1.355 . S
C1061 C1063 1.415 . S
C1062 C1061 1.355 . S
C1062 C1064 1.419 . S
C1063 C1058 1.425 . S
C1063 C1060 1.409 . S
C1063 C1061 1.415 . S
C1064 H1054 0.930 . S
C1064 C1062 1.419 . S
C1064 C1065 1.362 . S
C1065 H1055 0.930 . S
C1065 C1058 1.409 . S
C1065 C1064 1.362 . S
H1066 C1072 0.930 . S
H1067 C1075 0.930 . S
H1068 C1076 0.930 . S
H1069 C1077 0.930 . S
H1070 C1080 0.930 . S
H1071 C1081 0.930 . S
C1072 H1066 0.930 . S
C1072 C1073 1.355 . S
C1072 C1074 1.415 . S
C1073 C1072 1.355 . S
C1073 C1075 1.419 . S
C1074 C1072 1.415 . S
C1074 C1079 1.425 . S
C1074 C1081 1.409 . S
C1075 H1067 0.930 . S
C1075 C1073 1.419 . S
C1075 C1076 1.362 . S
C1076 H1068 0.930 . S
C1076 C1075 1.362 . S
C1076 C1079 1.409 . S
C1077 H1069 0.930 . S
C1077 C1078 1.355 . S
C1077 C1079 1.415 . S
C1078 C1077 1.355 . S
C1078 C1080 1.419 . S
C1079 C1074 1.425 . S
C1079 C1076 1.409 . S
C1079 C1077 1.415 . S
C1080 H1070 0.930 . S
C1080 C1078 1.419 . S
C1080 C1081 1.362 . S
C1081 H1071 0.930 . S
C1081 C1074 1.409 . S
C1081 C1080 1.362 . S
H1082 C1088 0.930 . S
H1083 C1091 0.930 . S
H1084 C1092 0.930 . S
H1085 C1093 0.930 . S
H1086 C1096 0.930 . S
H1087 C1097 0.930 . S
C1088 H1082 0.930 . S
C1088 C1089 1.355 . S
C1088 C1090 1.415 . S
C1089 C1088 1.355 . S
C1089 C1091 1.419 . S
C1090 C1088 1.415 . S
C1090 C1095 1.425 . S
C1090 C1097 1.409 . S
C1091 H1083 0.930 . S
C1091 C1089 1.419 . S
C1091 C1092 1.362 . S
C1092 H1084 0.930 . S
C1092 C1091 1.362 . S
C1092 C1095 1.409 . S
C1093 H1085 0.930 . S
C1093 C1094 1.355 . S
C1093 C1095 1.415 . S
C1094 C1093 1.355 . S
C1094 C1096 1.419 . S
C1095 C1090 1.425 . S
C1095 C1092 1.409 . S
C1095 C1093 1.415 . S
C1096 H1086 0.930 . S
C1096 C1094 1.419 . S
C1096 C1097 1.362 . S
C1097 H1087 0.930 . S
C1097 C1090 1.409 . S
C1097 C1096 1.362 . S
H1098 C1104 0.930 . S
H1099 C1107 0.930 . S
H1100 C1108 0.930 . S
H1101 C1109 0.930 . S
H1102 C1112 0.930 . S
H1103 C1113 0.930 . S
C1104 H1098 0.930 . S
C1104 C1105 1.355 . S
C1104 C1106 1.415 . S
C1105 C1104 1.355 . S
C1105 C1107 1.419 . S
C1106 C1104 1.415 . S
C1106 C1111 1.425 . S
C1106 C1113 1.409 . S
C1107 H1099 0.930 . S
C1107 C1105 1.419 . S
C1107 C1108 1.362 . S
C1108 H1100 0.930 . S
C1108 C1107 1.362 . S
C1108 C1111 1.409 . S
C1109 H1101 0.930 . S
C1109 C1110 1.355 . S
C1109 C1111 1.415 . S
C1110 C1109 1.355 . S
C1110 C1112 1.419 . S
C1111 C1106 1.425 . S
C1111 C1108 1.409 . S
C1111 C1109 1.415 . S
C1112 H1102 0.930 . S
C1112 C1110 1.419 . S
C1112 C1113 1.362 . S
C1113 H1103 0.930 . S
C1113 C1106 1.409 . S
C1113 C1112 1.362 . S
H1114 C1120 0.930 . S
H1115 C1123 0.930 . S
H1116 C1124 0.930 . S
H1117 C1125 0.930 . S
H1118 C1128 0.930 . S
H1119 C1129 0.930 . S
C1120 H1114 0.930 . S
C1120 C1121 1.355 . S
C1120 C1122 1.415 . S
C1121 C1120 1.355 . S
C1121 C1123 1.419 . S
C1122 C1120 1.415 . S
C1122 C1127 1.425 . S
C1122 C1129 1.409 . S
C1123 H1115 0.930 . S
C1123 C1121 1.419 . S
C1123 C1124 1.362 . S
C1124 H1116 0.930 . S
C1124 C1123 1.362 . S
C1124 C1127 1.409 . S
C1125 H1117 0.930 . S
C1125 C1126 1.355 . S
C1125 C1127 1.415 . S
C1126 C1125 1.355 . S
C1126 C1128 1.419 . S
C1127 C1122 1.425 . S
C1127 C1124 1.409 . S
C1127 C1125 1.415 . S
C1128 H1118 0.930 . S
C1128 C1126 1.419 . S
C1128 C1129 1.362 . S
C1129 H1119 0.930 . S
C1129 C1122 1.409 . S
C1129 C1128 1.362 . S
H1130 C1136 0.930 . S
H1131 C1139 0.930 . S
H1132 C1140 0.930 . S
H1133 C1141 0.930 . S
H1134 C1144 0.930 . S
H1135 C1145 0.930 . S
C1136 H1130 0.930 . S
C1136 C1137 1.355 . S
C1136 C1138 1.415 . S
C1137 C1136 1.355 . S
C1137 C1139 1.419 . S
C1138 C1136 1.415 . S
C1138 C1143 1.425 . S
C1138 C1145 1.409 . S
C1139 H1131 0.930 . S
C1139 C1137 1.419 . S
C1139 C1140 1.362 . S
C1140 H1132 0.930 . S
C1140 C1139 1.362 . S
C1140 C1143 1.409 . S
C1141 H1133 0.930 . S
C1141 C1142 1.355 . S
C1141 C1143 1.415 . S
C1142 C1141 1.355 . S
C1142 C1144 1.419 . S
C1143 C1138 1.425 . S
C1143 C1140 1.409 . S
C1143 C1141 1.415 . S
C1144 H1134 0.930 . S
C1144 C1142 1.419 . S
C1144 C1145 1.362 . S
C1145 H1135 0.930 . S
C1145 C1138 1.409 . S
C1145 C1144 1.362 . S
H1146 C1152 0.930 . S
H1147 C1155 0.930 . S
H1148 C1156 0.930 . S
H1149 C1157 0.930 . S
H1150 C1160 0.930 . S
H1151 C1161 0.930 . S
C1152 H1146 0.930 . S
C1152 C1153 1.355 . S
C1152 C1154 1.415 . S
C1153 C1152 1.355 . S
C1153 C1155 1.419 . S
C1154 C1152 1.415 . S
C1154 C1159 1.425 . S
C1154 C1161 1.409 . S
C1155 H1147 0.930 . S
C1155 C1153 1.419 . S
C1155 C1156 1.362 . S
C1156 H1148 0.930 . S
C1156 C1155 1.362 . S
C1156 C1159 1.409 . S
C1157 H1149 0.930 . S
C1157 C1158 1.355 . S
C1157 C1159 1.415 . S
C1158 C1157 1.355 . S
C1158 C1160 1.419 . S
C1159 C1154 1.425 . S
C1159 C1156 1.409 . S
C1159 C1157 1.415 . S
C1160 H1150 0.930 . S
C1160 C1158 1.419 . S
C1160 C1161 1.362 . S
C1161 H1151 0.930 . S
C1161 C1154 1.409 . S
C1161 C1160 1.362 . S
H1162 C1168 0.930 . S
H1163 C1171 0.930 . S
H1164 C1172 0.930 . S
H1165 C1173 0.930 . S
H1166 C1176 0.930 . S
H1167 C1177 0.930 . S
C1168 H1162 0.930 . S
C1168 C1169 1.355 . S
C1168 C1170 1.415 . S
C1169 C1168 1.355 . S
C1169 C1171 1.419 . S
C1170 C1168 1.415 . S
C1170 C1175 1.425 . S
C1170 C1177 1.409 . S
C1171 H1163 0.930 . S
C1171 C1169 1.419 . S
C1171 C1172 1.362 . S
C1172 H1164 0.930 . S
C1172 C1171 1.362 . S
C1172 C1175 1.409 . S
C1173 H1165 0.930 . S
C1173 C1174 1.355 . S
C1173 C1175 1.415 . S
C1174 C1173 1.355 . S
C1174 C1176 1.419 . S
C1175 C1170 1.425 . S
C1175 C1172 1.409 . S
C1175 C1173 1.415 . S
C1176 H1166 0.930 . S
C1176 C1174 1.419 . S
C1176 C1177 1.362 . S
C1177 H1167 0.930 . S
C1177 C1170 1.409 . S
C1177 C1176 1.362 . S
H1178 C1184 0.930 . S
H1179 C1187 0.930 . S
H1180 C1188 0.930 . S
H1181 C1189 0.930 . S
H1182 C1192 0.930 . S
H1183 C1193 0.930 . S
C1184 H1178 0.930 . S
C1184 C1185 1.355 . S
C1184 C1186 1.415 . S
C1185 C1184 1.355 . S
C1185 C1187 1.419 . S
C1186 C1184 1.415 . S
C1186 C1191 1.425 . S
C1186 C1193 1.409 . S
C1187 H1179 0.930 . S
C1187 C1185 1.419 . S
C1187 C1188 1.362 . S
C1188 H1180 0.930 . S
C1188 C1187 1.362 . S
C1188 C1191 1.409 . S
C1189 H1181 0.930 . S
C1189 C1190 1.355 . S
C1189 C1191 1.415 . S
C1190 C1189 1.355 . S
C1190 C1192 1.419 . S
C1191 C1186 1.425 . S
C1191 C1188 1.409 . S
C1191 C1189 1.415 . S
C1192 H1182 0.930 . S
C1192 C1190 1.419 . S
C1192 C1193 1.362 . S
C1193 H1183 0.930 . S
C1193 C1186 1.409 . S
C1193 C1192 1.362 . S
H1194 C1200 0.930 . S
H1195 C1203 0.930 . S
H1196 C1204 0.930 . S
H1197 C1205 0.930 . S
H1198 C1208 0.930 . S
H1199 C1209 0.930 . S
C1200 H1194 0.930 . S
C1200 C1201 1.355 . S
C1200 C1202 1.415 . S
C1201 C1200 1.355 . S
C1201 C1203 1.419 . S
C1202 C1200 1.415 . S
C1202 C1207 1.425 . S
C1202 C1209 1.409 . S
C1203 H1195 0.930 . S
C1203 C1201 1.419 . S
C1203 C1204 1.362 . S
C1204 H1196 0.930 . S
C1204 C1203 1.362 . S
C1204 C1207 1.409 . S
C1205 H1197 0.930 . S
C1205 C1206 1.355 . S
C1205 C1207 1.415 . S
C1206 C1205 1.355 . S
C1206 C1208 1.419 . S
C1207 C1202 1.425 . S
C1207 C1204 1.409 . S
C1207 C1205 1.415 . S
C1208 H1198 0.930 . S
C1208 C1206 1.419 . S
C1208 C1209 1.362 . S
C1209 H1199 0.930 . S
C1209 C1202 1.409 . S
C1209 C1208 1.362 . S
H1210 C1216 0.930 . S
H1211 C1219 0.930 . S
H1212 C1220 0.930 . S
H1213 C1221 0.930 . S
H1214 C1224 0.930 . S
H1215 C1225 0.930 . S
C1216 H1210 0.930 . S
C1216 C1217 1.355 . S
C1216 C1218 1.415 . S
C1217 C1216 1.355 . S
C1217 C1219 1.419 . S
C1218 C1216 1.415 . S
C1218 C1223 1.425 . S
C1218 C1225 1.409 . S
C1219 H1211 0.930 . S
C1219 C1217 1.419 . S
C1219 C1220 1.362 . S
C1220 H1212 0.930 . S
C1220 C1219 1.362 . S
C1220 C1223 1.409 . S
C1221 H1213 0.930 . S
C1221 C1222 1.355 . S
C1221 C1223 1.415 . S
C1222 C1221 1.355 . S
C1222 C1224 1.419 . S
C1223 C1218 1.425 . S
C1223 C1220 1.409 . S
C1223 C1221 1.415 . S
C1224 H1214 0.930 . S
C1224 C1222 1.419 . S
C1224 C1225 1.362 . S
C1225 H1215 0.930 . S
C1225 C1218 1.409 . S
C1225 C1224 1.362 . S
H1226 C1232 0.930 . S
H1227 C1235 0.930 . S
H1228 C1236 0.930 . S
H1229 C1237 0.930 . S
H1230 C1240 0.930 . S
H1231 C1241 0.930 . S
C1232 H1226 0.930 . S
C1232 C1233 1.355 . S
C1232 C1234 1.415 . S
C1233 C1232 1.355 . S
C1233 C1235 1.419 . S
C1234 C1232 1.415 . S
C1234 C1239 1.425 . S
C1234 C1241 1.409 . S
C1235 H1227 0.930 . S
C1235 C1233 1.419 . S
C1235 C1236 1.362 . S
C1236 H1228 0.930 . S
C1236 C1235 1.362 . S
C1236 C1239 1.409 . S
C1237 H1229 0.930 . S
C1237 C1238 1.355 . S
C1237 C1239 1.415 . S
C1238 C1237 1.355 . S
C1238 C1240 1.419 . S
C1239 C1234 1.425 . S
C1239 C1236 1.409 . S
C1239 C1237 1.415 . S
C1240 H1230 0.930 . S
C1240 C1238 1.419 . S
C1240 C1241 1.362 . S
C1241 H1231 0.930 . S
C1241 C1234 1.409 . S
C1241 C1240 1.362 . S
H1242 C1248 0.930 . S
H1243 C1251 0.930 . S
H1244 C1252 0.930 . S
H1245 C1253 0.930 . S
H1246 C1256 0.930 . S
H1247 C1257 0.930 . S
C1248 H1242 0.930 . S
C1248 C1249 1.355 . S
C1248 C1250 1.415 . S
C1249 C1248 1.355 . S
C1249 C1251 1.419 . S
C1250 C1248 1.415 . S
C1250 C1255 1.425 . S
C1250 C1257 1.409 . S
C1251 H1243 0.930 . S
C1251 C1249 1.419 . S
C1251 C1252 1.362 . S
C1252 H1244 0.930 . S
C1252 C1251 1.362 . S
C1252 C1255 1.409 . S
C1253 H1245 0.930 . S
C1253 C1254 1.355 . S
C1253 C1255 1.415 . S
C1254 C1253 1.355 . S
C1254 C1256 1.419 . S
C1255 C1250 1.425 . S
C1255 C1252 1.409 . S
C1255 C1253 1.415 . S
C1256 H1246 0.930 . S
C1256 C1254 1.419 . S
C1256 C1257 1.362 . S
C1257 H1247 0.930 . S
C1257 C1250 1.409 . S
C1257 C1256 1.362 . S
H1258 C1264 0.930 . S
H1259 C1267 0.930 . S
H1260 C1268 0.930 . S
H1261 C1269 0.930 . S
H1262 C1272 0.930 . S
H1263 C1273 0.930 . S
C1264 H1258 0.930 . S
C1264 C1265 1.355 . S
C1264 C1266 1.415 . S
C1265 C1264 1.355 . S
C1265 C1267 1.419 . S
C1266 C1264 1.415 . S
C1266 C1271 1.425 . S
C1266 C1273 1.409 . S
C1267 H1259 0.930 . S
C1267 C1265 1.419 . S
C1267 C1268 1.362 . S
C1268 H1260 0.930 . S
C1268 C1267 1.362 . S
C1268 C1271 1.409 . S
C1269 H1261 0.930 . S
C1269 C1270 1.355 . S
C1269 C1271 1.415 . S
C1270 C1269 1.355 . S
C1270 C1272 1.419 . S
C1271 C1266 1.425 . S
C1271 C1268 1.409 . S
C1271 C1269 1.415 . S
C1272 H1262 0.930 . S
C1272 C1270 1.419 . S
C1272 C1273 1.362 . S
C1273 H1263 0.930 . S
C1273 C1266 1.409 . S
C1273 C1272 1.362 . S
H1274 C1280 0.930 . S
H1275 C1283 0.930 . S
H1276 C1284 0.930 . S
H1277 C1285 0.930 . S
H1278 C1288 0.930 . S
H1279 C1289 0.930 . S
C1280 H1274 0.930 . S
C1280 C1281 1.355 1_565 S
C1280 C1282 1.429 . S
C1281 C1280 1.355 1_545 S
C1281 C1283 1.419 . S
C1282 C1280 1.429 . S
C1282 C1287 1.405 1_565 S
C1282 C1289 1.415 . S
C1283 H1275 0.930 . S
C1283 C1281 1.419 . S
C1283 C1284 1.362 . S
C1284 H1276 0.930 . S
C1284 C1283 1.362 . S
C1284 C1287 1.409 . S
C1285 H1277 0.930 . S
C1285 C1286 1.355 . S
C1285 C1287 1.415 . S
C1286 C1285 1.355 . S
C1286 C1288 1.419 1_545 S
C1287 C1282 1.405 1_545 S
C1287 C1284 1.409 . S
C1287 C1285 1.415 . S
C1288 H1278 0.930 . S
C1288 C1286 1.419 1_565 S
C1288 C1289 1.362 . S
C1289 H1279 0.930 . S
C1289 C1282 1.415 . S
C1289 C1288 1.362 . S
H1290 C1296 0.930 . S
H1291 C1299 0.930 . S
H1292 C1300 0.930 . S
H1293 C1301 0.930 . S
H1294 C1304 0.930 . S
H1295 C1305 0.930 . S
C1296 H1290 0.930 . S
C1296 C1297 1.355 . S
C1296 C1298 1.415 . S
C1297 C1296 1.355 . S
C1297 C1299 1.419 . S
C1298 C1296 1.415 . S
C1298 C1303 1.425 . S
C1298 C1305 1.409 . S
C1299 H1291 0.930 . S
C1299 C1297 1.419 . S
C1299 C1300 1.362 . S
C1300 H1292 0.930 . S
C1300 C1299 1.362 . S
C1300 C1303 1.409 . S
C1301 H1293 0.930 . S
C1301 C1302 1.355 . S
C1301 C1303 1.415 . S
C1302 C1301 1.355 . S
C1302 C1304 1.419 . S
C1303 C1298 1.425 . S
C1303 C1300 1.409 . S
C1303 C1301 1.415 . S
C1304 H1294 0.930 . S
C1304 C1302 1.419 . S
C1304 C1305 1.362 . S
C1305 H1295 0.930 . S
C1305 C1298 1.409 . S
C1305 C1304 1.362 . S
H1306 C1312 0.930 . S
H1307 C1315 0.930 . S
H1308 C1316 0.930 . S
H1309 C1317 0.930 . S
H1310 C1320 0.930 . S
H1311 C1321 0.930 . S
C1312 H1306 0.930 . S
C1312 C1313 1.355 . S
C1312 C1314 1.415 . S
C1313 C1312 1.355 . S
C1313 C1315 1.419 . S
C1314 C1312 1.415 . S
C1314 C1319 1.425 . S
C1314 C1321 1.409 . S
C1315 H1307 0.930 . S
C1315 C1313 1.419 . S
C1315 C1316 1.362 . S
C1316 H1308 0.930 . S
C1316 C1315 1.362 . S
C1316 C1319 1.409 . S
C1317 H1309 0.930 . S
C1317 C1318 1.355 . S
C1317 C1319 1.415 . S
C1318 C1317 1.355 . S
C1318 C1320 1.419 . S
C1319 C1314 1.425 . S
C1319 C1316 1.409 . S
C1319 C1317 1.415 . S
C1320 H1310 0.930 . S
C1320 C1318 1.419 . S
C1320 C1321 1.362 . S
C1321 H1311 0.930 . S
C1321 C1314 1.409 . S
C1321 C1320 1.362 . S
H1322 C1328 0.930 . S
H1323 C1331 0.930 . S
H1324 C1332 0.930 . S
H1325 C1333 0.930 . S
H1326 C1336 0.930 . S
H1327 C1337 0.930 . S
C1328 H1322 0.930 . S
C1328 C1329 1.355 . S
C1328 C1330 1.415 . S
C1329 C1328 1.355 . S
C1329 C1331 1.419 . S
C1330 C1328 1.415 . S
C1330 C1335 1.425 . S
C1330 C1337 1.409 . S
C1331 H1323 0.930 . S
C1331 C1329 1.419 . S
C1331 C1332 1.362 . S
C1332 H1324 0.930 . S
C1332 C1331 1.362 . S
C1332 C1335 1.409 . S
C1333 H1325 0.930 . S
C1333 C1334 1.355 . S
C1333 C1335 1.415 . S
C1334 C1333 1.355 . S
C1334 C1336 1.419 . S
C1335 C1330 1.425 . S
C1335 C1332 1.409 . S
C1335 C1333 1.415 . S
C1336 H1326 0.930 . S
C1336 C1334 1.419 . S
C1336 C1337 1.362 . S
C1337 H1327 0.930 . S
C1337 C1330 1.409 . S
C1337 C1336 1.362 . S
H1338 C1344 0.930 . S
H1339 C1347 0.930 . S
H1340 C1348 0.930 1_655 S
H1341 C1349 0.930 1_655 S
H1342 C1352 0.930 . S
H1343 C1353 0.930 . S
C1344 H1338 0.930 . S
C1344 C1345 1.355 . S
C1344 C1346 1.415 . S
C1345 C1344 1.355 . S
C1345 C1347 1.419 . S
C1346 C1344 1.415 . S
C1346 C1351 1.425 . S
C1346 C1353 1.409 . S
C1347 H1339 0.930 . S
C1347 C1345 1.419 . S
C1347 C1348 1.362 . S
C1348 H1340 0.930 1_455 S
C1348 C1347 1.362 . S
C1348 C1351 1.409 . S
C1349 H1341 0.930 1_455 S
C1349 C1350 1.355 . S
C1349 C1351 1.415 . S
C1350 C1349 1.355 . S
C1350 C1352 1.419 . S
C1351 C1346 1.425 . S
C1351 C1348 1.409 . S
C1351 C1349 1.415 . S
C1352 H1342 0.930 . S
C1352 C1350 1.419 . S
C1352 C1353 1.362 . S
C1353 H1343 0.930 . S
C1353 C1346 1.409 . S
C1353 C1352 1.362 . S
H1354 C1360 0.930 . S
H1355 C1363 0.930 . S
H1356 C1364 0.930 . S
H1357 C1365 0.930 . S
H1358 C1368 0.930 . S
H1359 C1369 0.930 . S
C1360 H1354 0.930 . S
C1360 C1361 1.355 . S
C1360 C1362 1.415 . S
C1361 C1360 1.355 . S
C1361 C1363 1.419 . S
C1362 C1360 1.415 . S
C1362 C1367 1.425 . S
C1362 C1369 1.409 . S
C1363 H1355 0.930 . S
C1363 C1361 1.419 . S
C1363 C1364 1.362 . S
C1364 H1356 0.930 . S
C1364 C1363 1.362 . S
C1364 C1367 1.409 . S
C1365 H1357 0.930 . S
C1365 C1366 1.355 . S
C1365 C1367 1.415 . S
C1366 C1365 1.355 . S
C1366 C1368 1.419 . S
C1367 C1362 1.425 . S
C1367 C1364 1.409 . S
C1367 C1365 1.415 . S
C1368 H1358 0.930 . S
C1368 C1366 1.419 . S
C1368 C1369 1.362 . S
C1369 H1359 0.930 . S
C1369 C1362 1.409 . S
C1369 C1368 1.362 . S
H1370 C1376 0.930 . S
H1371 C1379 0.930 . S
H1372 C1380 0.930 . S
H1373 C1381 0.930 . S
H1374 C1384 0.930 . S
H1375 C1385 0.930 . S
C1376 H1370 0.930 . S
C1376 C1377 1.355 . S
C1376 C1378 1.415 . S
C1377 C1376 1.355 . S
C1377 C1379 1.419 . S
C1378 C1376 1.415 . S
C1378 C1383 1.425 . S
C1378 C1385 1.409 . S
C1379 H1371 0.930 . S
C1379 C1377 1.419 . S
C1379 C1380 1.362 . S
C1380 H1372 0.930 . S
C1380 C1379 1.362 . S
C1380 C1383 1.409 . S
C1381 H1373 0.930 . S
C1381 C1382 1.355 . S
C1381 C1383 1.415 . S
C1382 C1381 1.355 . S
C1382 C1384 1.419 . S
C1383 C1378 1.425 . S
C1383 C1380 1.409 . S
C1383 C1381 1.415 . S
C1384 H1374 0.930 . S
C1384 C1382 1.419 . S
C1384 C1385 1.362 . S
C1385 H1375 0.930 . S
C1385 C1378 1.409 . S
C1385 C1384 1.362 . S
H1386 C1392 0.930 . S
H1387 C1395 0.930 . S
H1388 C1396 0.930 . S
H1389 C1397 0.930 . S
H1390 C1400 0.930 . S
H1391 C1401 0.930 . S
C1392 H1386 0.930 . S
C1392 C1393 1.355 . S
C1392 C1394 1.415 . S
C1393 C1392 1.355 . S
C1393 C1395 1.419 . S
C1394 C1392 1.415 . S
C1394 C1399 1.425 . S
C1394 C1401 1.409 . S
C1395 H1387 0.930 . S
C1395 C1393 1.419 . S
C1395 C1396 1.362 . S
C1396 H1388 0.930 . S
C1396 C1395 1.362 . S
C1396 C1399 1.409 . S
C1397 H1389 0.930 . S
C1397 C1398 1.355 . S
C1397 C1399 1.415 . S
C1398 C1397 1.355 . S
C1398 C1400 1.419 . S
C1399 C1394 1.425 . S
C1399 C1396 1.409 . S
C1399 C1397 1.415 . S
C1400 H1390 0.930 . S
C1400 C1398 1.419 . S
C1400 C1401 1.362 . S
C1401 H1391 0.930 . S
C1401 C1394 1.409 . S
C1401 C1400 1.362 . S
H1402 C1408 0.930 . S
H1403 C1411 0.930 . S
H1404 C1412 0.930 1_655 S
H1405 C1413 0.914 1_655 S
H1406 C1416 0.930 . S
H1407 C1417 0.930 . S
C1408 H1402 0.930 . S
C1408 C1409 1.355 . S
C1408 C1410 1.415 . S
C1409 C1408 1.355 . S
C1409 C1411 1.419 . S
C1410 C1408 1.415 . S
C1410 C1415 1.425 . S
C1410 C1417 1.409 . S
C1411 H1403 0.930 . S
C1411 C1409 1.419 . S
C1411 C1412 1.362 . S
C1412 H1404 0.930 1_455 S
C1412 C1411 1.362 . S
C1412 C1415 1.409 . S
C1413 H1405 0.914 1_455 S
C1413 C1414 1.355 . S
C1413 C1415 1.415 . S
C1414 C1413 1.355 . S
C1414 C1416 1.419 . S
C1415 C1410 1.425 . S
C1415 C1412 1.409 . S
C1415 C1413 1.415 . S
C1416 H1406 0.930 . S
C1416 C1414 1.419 . S
C1416 C1417 1.362 . S
C1417 H1407 0.930 . S
C1417 C1410 1.409 . S
C1417 C1416 1.362 . S
H1418 C1424 0.930 . S
H1419 C1427 0.930 . S
H1420 C1428 0.930 . S
H1421 C1429 0.930 . S
H1422 C1432 0.930 . S
H1423 C1433 0.930 . S
C1424 H1418 0.930 . S
C1424 C1425 1.355 . S
C1424 C1426 1.415 . S
C1425 C1424 1.355 . S
C1425 C1427 1.419 . S
C1426 C1424 1.415 . S
C1426 C1431 1.425 . S
C1426 C1433 1.409 . S
C1427 H1419 0.930 . S
C1427 C1425 1.419 . S
C1427 C1428 1.362 . S
C1428 H1420 0.930 . S
C1428 C1427 1.362 . S
C1428 C1431 1.409 . S
C1429 H1421 0.930 . S
C1429 C1430 1.355 . S
C1429 C1431 1.415 . S
C1430 C1429 1.355 . S
C1430 C1432 1.419 . S
C1431 C1426 1.425 . S
C1431 C1428 1.409 . S
C1431 C1429 1.415 . S
C1432 H1422 0.930 . S
C1432 C1430 1.419 . S
C1432 C1433 1.362 . S
C1433 H1423 0.930 . S
C1433 C1426 1.409 . S
C1433 C1432 1.362 . S
H1434 C1440 0.930 . S
H1435 C1443 0.930 . S
H1436 C1444 0.930 . S
H1437 C1445 0.930 . S
H1438 C1448 0.930 . S
H1439 C1449 0.930 . S
C1440 H1434 0.930 . S
C1440 C1441 1.355 . S
C1440 C1442 1.415 . S
C1441 C1440 1.355 . S
C1441 C1443 1.419 . S
C1442 C1440 1.415 . S
C1442 C1447 1.425 . S
C1442 C1449 1.409 . S
C1443 H1435 0.930 . S
C1443 C1441 1.419 . S
C1443 C1444 1.362 . S
C1444 H1436 0.930 . S
C1444 C1443 1.362 . S
C1444 C1447 1.409 . S
C1445 H1437 0.930 . S
C1445 C1446 1.355 . S
C1445 C1447 1.415 . S
C1446 C1445 1.355 . S
C1446 C1448 1.419 . S
C1447 C1442 1.425 . S
C1447 C1444 1.409 . S
C1447 C1445 1.415 . S
C1448 H1438 0.930 . S
C1448 C1446 1.419 . S
C1448 C1449 1.362 . S
C1449 H1439 0.930 . S
C1449 C1442 1.409 . S
C1449 C1448 1.362 . S
H1450 C1456 0.930 . S
H1451 C1459 0.930 . S
H1452 C1460 0.930 . S
H1453 C1461 0.930 . S
H1454 C1464 0.930 . S
H1455 C1465 0.930 . S
C1456 H1450 0.930 . S
C1456 C1457 1.355 . S
C1456 C1458 1.415 . S
C1457 C1456 1.355 . S
C1457 C1459 1.419 . S
C1458 C1456 1.415 . S
C1458 C1463 1.425 . S
C1458 C1465 1.409 . S
C1459 H1451 0.930 . S
C1459 C1457 1.419 . S
C1459 C1460 1.362 . S
C1460 H1452 0.930 . S
C1460 C1459 1.362 . S
C1460 C1463 1.409 . S
C1461 H1453 0.930 . S
C1461 C1462 1.355 . S
C1461 C1463 1.415 . S
C1462 C1461 1.355 . S
C1462 C1464 1.419 . S
C1463 C1458 1.425 . S
C1463 C1460 1.409 . S
C1463 C1461 1.415 . S
C1464 H1454 0.930 . S
C1464 C1462 1.419 . S
C1464 C1465 1.362 . S
C1465 H1455 0.930 . S
C1465 C1458 1.409 . S
C1465 C1464 1.362 . S
H1466 C1472 0.930 . S
H1467 C1475 0.930 . S
H1468 C1476 0.930 . S
H1469 C1477 0.930 . S
H1470 C1480 0.930 . S
H1471 C1481 0.930 . S
C1472 H1466 0.930 . S
C1472 C1473 1.355 . S
C1472 C1474 1.415 . S
C1473 C1472 1.355 . S
C1473 C1475 1.419 . S
C1474 C1472 1.415 . S
C1474 C1479 1.425 . S
C1474 C1481 1.409 . S
C1475 H1467 0.930 . S
C1475 C1473 1.419 . S
C1475 C1476 1.362 . S
C1476 H1468 0.930 . S
C1476 C1475 1.362 . S
C1476 C1479 1.409 . S
C1477 H1469 0.930 . S
C1477 C1478 1.355 . S
C1477 C1479 1.415 . S
C1478 C1477 1.355 . S
C1478 C1480 1.419 . S
C1479 C1474 1.425 . S
C1479 C1476 1.409 . S
C1479 C1477 1.415 . S
C1480 H1470 0.930 . S
C1480 C1478 1.419 . S
C1480 C1481 1.362 . S
C1481 H1471 0.930 . S
C1481 C1474 1.409 . S
C1481 C1480 1.362 . S
H1482 C1488 0.930 . S
H1483 C1491 0.930 . S
H1484 C1492 0.930 1_554 S
H1485 C1493 0.930 . S
H1486 C1496 0.930 . S
H1487 C1497 0.930 . S
C1488 H1482 0.930 . S
C1488 C1489 1.355 . S
C1488 C1490 1.415 . S
C1489 C1488 1.355 . S
C1489 C1491 1.419 . S
C1490 C1488 1.415 . S
C1490 C1495 1.425 1_556 S
C1490 C1497 1.409 . S
C1491 H1483 0.930 . S
C1491 C1489 1.419 . S
C1491 C1492 1.362 . S
C1492 H1484 0.930 1_556 S
C1492 C1491 1.362 . S
C1492 C1495 1.409 1_556 S
C1493 H1485 0.930 . S
C1493 C1494 1.355 . S
C1493 C1495 1.415 . S
C1494 C1493 1.355 . S
C1494 C1496 1.419 . S
C1495 C1490 1.425 1_554 S
C1495 C1492 1.409 1_554 S
C1495 C1493 1.415 . S
C1496 H1486 0.930 . S
C1496 C1494 1.419 . S
C1496 C1497 1.362 1_554 S
C1497 H1487 0.930 . S
C1497 C1490 1.409 . S
C1497 C1496 1.362 1_556 S
H1498 C1504 0.930 . S
H1499 C1507 0.930 . S
H1500 C1508 0.930 . S
H1501 C1509 0.930 . S
H1502 C1512 0.930 . S
H1503 C1513 0.930 . S
C1504 H1498 0.930 . S
C1504 C1505 1.355 . S
C1504 C1506 1.415 . S
C1505 C1504 1.355 . S
C1505 C1507 1.419 . S
C1506 C1504 1.415 . S
C1506 C1511 1.425 . S
C1506 C1513 1.409 . S
C1507 H1499 0.930 . S
C1507 C1505 1.419 . S
C1507 C1508 1.362 . S
C1508 H1500 0.930 . S
C1508 C1507 1.362 . S
C1508 C1511 1.409 . S
C1509 H1501 0.930 . S
C1509 C1510 1.355 1_556 S
C1509 C1511 1.415 . S
C1510 C1509 1.355 1_554 S
C1510 C1512 1.419 . S
C1511 C1506 1.425 . S
C1511 C1508 1.409 . S
C1511 C1509 1.415 . S
C1512 H1502 0.930 . S
C1512 C1510 1.419 . S
C1512 C1513 1.362 1_554 S
C1513 H1503 0.930 . S
C1513 C1506 1.409 . S
C1513 C1512 1.362 1_556 S
H1514 C1520 0.930 . S
H1515 C1523 0.930 . S
H1516 C1524 0.930 . S
H1517 C1525 0.930 . S
H1518 C1528 0.930 . S
H1519 C1529 0.930 . S
C1520 H1514 0.930 . S
C1520 C1521 1.355 . S
C1520 C1522 1.415 . S
C1521 C1520 1.355 . S
C1521 C1523 1.419 . S
C1522 C1520 1.415 . S
C1522 C1527 1.425 . S
C1522 C1529 1.409 1_556 S
C1523 H1515 0.930 . S
C1523 C1521 1.419 . S
C1523 C1524 1.362 . S
C1524 H1516 0.930 . S
C1524 C1523 1.362 . S
C1524 C1527 1.409 . S
C1525 H1517 0.930 . S
C1525 C1526 1.355 . S
C1525 C1527 1.415 1_554 S
C1526 C1525 1.355 . S
C1526 C1528 1.419 . S
C1527 C1522 1.425 . S
C1527 C1524 1.409 . S
C1527 C1525 1.415 1_556 S
C1528 H1518 0.930 . S
C1528 C1526 1.419 . S
C1528 C1529 1.362 . S
C1529 H1519 0.930 . S
C1529 C1522 1.409 1_554 S
C1529 C1528 1.362 . S
H1530 C1536 0.930 . S
H1531 C1539 0.930 . S
H1532 C1540 0.930 . S
H1533 C1541 0.930 . S
H1534 C1544 0.930 . S
H1535 C1545 0.930 . S
C1536 H1530 0.930 . S
C1536 C1537 1.355 . S
C1536 C1538 1.415 . S
C1537 C1536 1.355 . S
C1537 C1539 1.419 . S
C1538 C1536 1.415 . S
C1538 C1543 1.425 . S
C1538 C1545 1.409 . S
C1539 H1531 0.930 . S
C1539 C1537 1.419 . S
C1539 C1540 1.362 . S
C1540 H1532 0.930 . S
C1540 C1539 1.362 . S
C1540 C1543 1.409 . S
C1541 H1533 0.930 . S
C1541 C1542 1.355 . S
C1541 C1543 1.415 . S
C1542 C1541 1.355 . S
C1542 C1544 1.419 . S
C1543 C1538 1.425 . S
C1543 C1540 1.409 . S
C1543 C1541 1.415 . S
C1544 H1534 0.930 . S
C1544 C1542 1.419 . S
C1544 C1545 1.362 . S
C1545 H1535 0.930 . S
C1545 C1538 1.409 . S
C1545 C1544 1.362 . S
H1546 C1552 0.930 . S
H1547 C1555 0.930 . S
H1548 C1556 0.930 . S
H1549 C1557 0.930 . S
H1550 C1560 0.930 . S
H1551 C1561 0.930 . S
C1552 H1546 0.930 . S
C1552 C1553 1.355 . S
C1552 C1554 1.415 . S
C1553 C1552 1.355 . S
C1553 C1555 1.419 . S
C1554 C1552 1.415 . S
C1554 C1559 1.425 . S
C1554 C1561 1.409 . S
C1555 H1547 0.930 . S
C1555 C1553 1.419 . S
C1555 C1556 1.362 . S
C1556 H1548 0.930 . S
C1556 C1555 1.362 . S
C1556 C1559 1.409 . S
C1557 H1549 0.930 . S
C1557 C1558 1.355 . S
C1557 C1559 1.415 . S
C1558 C1557 1.355 . S
C1558 C1560 1.419 . S
C1559 C1554 1.425 . S
C1559 C1556 1.409 . S
C1559 C1557 1.415 . S
C1560 H1550 0.930 . S
C1560 C1558 1.419 . S
C1560 C1561 1.362 . S
C1561 H1551 0.930 . S
C1561 C1554 1.409 . S
C1561 C1560 1.362 . S
H1562 C1568 0.930 . S
H1563 C1571 0.930 . S
H1564 C1572 0.930 . S
H1565 C1573 0.930 . S
H1566 C1576 0.930 . S
H1567 C1577 0.930 . S
C1568 H1562 0.930 . S
C1568 C1569 1.355 . S
C1568 C1570 1.415 . S
C1569 C1568 1.355 . S
C1569 C1571 1.419 . S
C1570 C1568 1.415 . S
C1570 C1575 1.425 . S
C1570 C1577 1.409 . S
C1571 H1563 0.930 . S
C1571 C1569 1.419 . S
C1571 C1572 1.362 . S
C1572 H1564 0.930 . S
C1572 C1571 1.362 . S
C1572 C1575 1.409 . S
C1573 H1565 0.930 . S
C1573 C1574 1.355 . S
C1573 C1575 1.415 . S
C1574 C1573 1.355 . S
C1574 C1576 1.419 . S
C1575 C1570 1.425 . S
C1575 C1572 1.409 . S
C1575 C1573 1.415 . S
C1576 H1566 0.930 . S
C1576 C1574 1.419 . S
C1576 C1577 1.362 . S
C1577 H1567 0.930 . S
C1577 C1570 1.409 . S
C1577 C1576 1.362 . S
H1578 C1584 0.930 . S
H1579 C1587 0.930 . S
H1580 C1588 0.930 . S
H1581 C1589 0.930 . S
H1582 C1592 0.930 . S
H1583 C1593 0.930 . S
C1584 H1578 0.930 . S
C1584 C1585 1.355 . S
C1584 C1586 1.415 . S
C1585 C1584 1.355 . S
C1585 C1587 1.419 . S
C1586 C1584 1.415 . S
C1586 C1591 1.425 . S
C1586 C1593 1.409 . S
C1587 H1579 0.930 . S
C1587 C1585 1.419 . S
C1587 C1588 1.362 . S
C1588 H1580 0.930 . S
C1588 C1587 1.362 . S
C1588 C1591 1.409 . S
C1589 H1581 0.930 . S
C1589 C1590 1.355 . S
C1589 C1591 1.415 . S
C1590 C1589 1.355 . S
C1590 C1592 1.419 . S
C1591 C1586 1.425 . S
C1591 C1588 1.409 . S
C1591 C1589 1.415 . S
C1592 H1582 0.930 . S
C1592 C1590 1.419 . S
C1592 C1593 1.362 . S
C1593 H1583 0.930 . S
C1593 C1586 1.409 . S
C1593 C1592 1.362 . S
H1594 C1600 0.930 . S
H1595 C1603 0.930 . S
H1596 C1604 0.930 . S
H1597 C1605 0.930 . S
H1598 C1608 0.930 . S
H1599 C1609 0.930 . S
C1600 H1594 0.930 . S
C1600 C1601 1.355 . S
C1600 C1602 1.415 . S
C1601 C1600 1.355 . S
C1601 C1603 1.419 . S
C1602 C1600 1.415 . S
C1602 C1607 1.425 . S
C1602 C1609 1.409 . S
C1603 H1595 0.930 . S
C1603 C1601 1.419 . S
C1603 C1604 1.362 . S
C1604 H1596 0.930 . S
C1604 C1603 1.362 . S
C1604 C1607 1.409 . S
C1605 H1597 0.930 . S
C1605 C1606 1.355 . S
C1605 C1607 1.415 . S
C1606 C1605 1.355 . S
C1606 C1608 1.419 . S
C1607 C1602 1.425 . S
C1607 C1604 1.409 . S
C1607 C1605 1.415 . S
C1608 H1598 0.930 . S
C1608 C1606 1.419 . S
C1608 C1609 1.362 . S
C1609 H1599 0.930 . S
C1609 C1602 1.409 . S
C1609 C1608 1.362 . S
H1610 C1616 0.930 . S
H1611 C1619 0.930 . S
H1612 C1620 0.930 . S
H1613 C1621 0.930 . S
H1614 C1624 0.930 . S
H1615 C1625 0.930 . S
C1616 H1610 0.930 . S
C1616 C1617 1.355 . S
C1616 C1618 1.415 . S
C1617 C1616 1.355 . S
C1617 C1619 1.419 . S
C1618 C1616 1.415 . S
C1618 C1623 1.425 . S
C1618 C1625 1.409 . S
C1619 H1611 0.930 . S
C1619 C1617 1.419 . S
C1619 C1620 1.362 . S
C1620 H1612 0.930 . S
C1620 C1619 1.362 . S
C1620 C1623 1.409 . S
C1621 H1613 0.930 . S
C1621 C1622 1.355 . S
C1621 C1623 1.415 . S
C1622 C1621 1.355 . S
C1622 C1624 1.419 . S
C1623 C1618 1.425 . S
C1623 C1620 1.409 . S
C1623 C1621 1.415 . S
C1624 H1614 0.930 . S
C1624 C1622 1.419 . S
C1624 C1625 1.362 . S
C1625 H1615 0.930 . S
C1625 C1618 1.409 . S
C1625 C1624 1.362 . S
H1626 C1632 0.930 . S
H1627 C1635 0.930 . S
H1628 C1636 0.930 . S
H1629 C1637 0.930 . S
H1630 C1640 0.930 . S
H1631 C1641 0.930 . S
C1632 H1626 0.930 . S
C1632 C1633 1.355 . S
C1632 C1634 1.415 . S
C1633 C1632 1.355 . S
C1633 C1635 1.419 . S
C1634 C1632 1.415 . S
C1634 C1639 1.425 . S
C1634 C1641 1.409 . S
C1635 H1627 0.930 . S
C1635 C1633 1.419 . S
C1635 C1636 1.362 . S
C1636 H1628 0.930 . S
C1636 C1635 1.362 . S
C1636 C1639 1.409 . S
C1637 H1629 0.930 . S
C1637 C1638 1.355 . S
C1637 C1639 1.415 . S
C1638 C1637 1.355 . S
C1638 C1640 1.419 . S
C1639 C1634 1.425 . S
C1639 C1636 1.409 . S
C1639 C1637 1.415 . S
C1640 H1630 0.930 . S
C1640 C1638 1.419 . S
C1640 C1641 1.362 . S
C1641 H1631 0.930 . S
C1641 C1634 1.409 . S
C1641 C1640 1.362 . S
H1642 C1648 0.930 . S
H1643 C1651 0.930 . S
H1644 C1652 0.930 . S
H1645 C1653 0.930 . S
H1646 C1656 0.930 . S
H1647 C1657 0.930 . S
C1648 H1642 0.930 . S
C1648 C1649 1.355 . S
C1648 C1650 1.415 . S
C1649 C1648 1.355 . S
C1649 C1651 1.419 . S
C1650 C1648 1.415 . S
C1650 C1655 1.425 . S
C1650 C1657 1.409 . S
C1651 H1643 0.930 . S
C1651 C1649 1.419 . S
C1651 C1652 1.362 . S
C1652 H1644 0.930 . S
C1652 C1651 1.362 . S
C1652 C1655 1.409 . S
C1653 H1645 0.930 . S
C1653 C1654 1.355 . S
C1653 C1655 1.415 . S
C1654 C1653 1.355 . S
C1654 C1656 1.419 . S
C1655 C1650 1.425 . S
C1655 C1652 1.409 . S
C1655 C1653 1.415 . S
C1656 H1646 0.930 . S
C1656 C1654 1.419 . S
C1656 C1657 1.362 . S
C1657 H1647 0.930 . S
C1657 C1650 1.409 . S
C1657 C1656 1.362 . S
H1658 C1664 0.930 . S
H1659 C1667 0.930 . S
H1660 C1668 0.930 . S
H1661 C1669 0.930 . S
H1662 C1672 0.930 . S
H1663 C1673 0.930 . S
C1664 H1658 0.930 . S
C1664 C1665 1.355 . S
C1664 C1666 1.415 . S
C1665 C1664 1.355 . S
C1665 C1667 1.419 . S
C1666 C1664 1.415 . S
C1666 C1671 1.425 . S
C1666 C1673 1.409 . S
C1667 H1659 0.930 . S
C1667 C1665 1.419 . S
C1667 C1668 1.362 . S
C1668 H1660 0.930 . S
C1668 C1667 1.362 . S
C1668 C1671 1.409 . S
C1669 H1661 0.930 . S
C1669 C1670 1.355 . S
C1669 C1671 1.415 . S
C1670 C1669 1.355 . S
C1670 C1672 1.419 . S
C1671 C1666 1.425 . S
C1671 C1668 1.409 . S
C1671 C1669 1.415 . S
C1672 H1662 0.930 . S
C1672 C1670 1.419 . S
C1672 C1673 1.362 . S
C1673 H1663 0.930 . S
C1673 C1666 1.409 . S
C1673 C1672 1.362 . S
H1674 C1680 0.930 . S
H1675 C1683 0.930 . S
H1676 C1684 0.930 . S
H1677 C1685 0.930 . S
H1678 C1688 0.930 . S
H1679 C1689 0.930 . S
C1680 H1674 0.930 . S
C1680 C1681 1.355 . S
C1680 C1682 1.415 . S
C1681 C1680 1.355 . S
C1681 C1683 1.419 . S
C1682 C1680 1.415 . S
C1682 C1687 1.425 . S
C1682 C1689 1.409 . S
C1683 H1675 0.930 . S
C1683 C1681 1.419 . S
C1683 C1684 1.362 . S
C1684 H1676 0.930 . S
C1684 C1683 1.362 . S
C1684 C1687 1.409 . S
C1685 H1677 0.930 . S
C1685 C1686 1.355 . S
C1685 C1687 1.415 . S
C1686 C1685 1.355 . S
C1686 C1688 1.419 . S
C1687 C1682 1.425 . S
C1687 C1684 1.409 . S
C1687 C1685 1.415 . S
C1688 H1678 0.930 . S
C1688 C1686 1.419 . S
C1688 C1689 1.362 . S
C1689 H1679 0.930 . S
C1689 C1682 1.409 . S
C1689 C1688 1.362 . S
H1690 C1696 0.930 . S
H1691 C1699 0.930 . S
H1692 C1700 0.930 . S
H1693 C1701 0.930 . S
H1694 C1704 0.930 . S
H1695 C1705 0.930 . S
C1696 H1690 0.930 . S
C1696 C1697 1.355 . S
C1696 C1698 1.415 . S
C1697 C1696 1.355 . S
C1697 C1699 1.419 . S
C1698 C1696 1.415 . S
C1698 C1703 1.425 . S
C1698 C1705 1.409 . S
C1699 H1691 0.930 . S
C1699 C1697 1.419 . S
C1699 C1700 1.362 . S
C1700 H1692 0.930 . S
C1700 C1699 1.362 . S
C1700 C1703 1.409 . S
C1701 H1693 0.930 . S
C1701 C1702 1.355 . S
C1701 C1703 1.415 . S
C1702 C1701 1.355 . S
C1702 C1704 1.419 . S
C1703 C1698 1.425 . S
C1703 C1700 1.409 . S
C1703 C1701 1.415 . S
C1704 H1694 0.930 . S
C1704 C1702 1.419 . S
C1704 C1705 1.362 . S
C1705 H1695 0.930 . S
C1705 C1698 1.409 . S
C1705 C1704 1.362 . S
H1706 C1712 0.930 . S
H1707 C1715 0.930 . S
H1708 C1716 0.930 . S
H1709 C1717 0.930 . S
H1710 C1720 0.930 . S
H1711 C1721 0.930 . S
C1712 H1706 0.930 . S
C1712 C1713 1.355 . S
C1712 C1714 1.415 . S
C1713 C1712 1.355 . S
C1713 C1715 1.419 . S
C1714 C1712 1.415 . S
C1714 C1719 1.425 . S
C1714 C1721 1.409 . S
C1715 H1707 0.930 . S
C1715 C1713 1.419 . S
C1715 C1716 1.362 . S
C1716 H1708 0.930 . S
C1716 C1715 1.362 . S
C1716 C1719 1.409 . S
C1717 H1709 0.930 . S
C1717 C1718 1.355 . S
C1717 C1719 1.415 . S
C1718 C1717 1.355 . S
C1718 C1720 1.419 . S
C1719 C1714 1.425 . S
C1719 C1716 1.409 . S
C1719 C1717 1.415 . S
C1720 H1710 0.930 . S
C1720 C1718 1.419 . S
C1720 C1721 1.362 . S
C1721 H1711 0.930 . S
C1721 C1714 1.409 . S
C1721 C1720 1.362 . S
H1722 C1728 0.930 . S
H1723 C1731 0.930 . S
H1724 C1732 0.930 . S
H1725 C1733 0.930 . S
H1726 C1736 0.930 . S
H1727 C1737 0.930 . S
C1728 H1722 0.930 . S
C1728 C1729 1.355 . S
C1728 C1730 1.415 . S
C1729 C1728 1.355 . S
C1729 C1731 1.419 . S
C1730 C1728 1.415 . S
C1730 C1735 1.425 . S
C1730 C1737 1.409 . S
C1731 H1723 0.930 . S
C1731 C1729 1.419 . S
C1731 C1732 1.362 . S
C1732 H1724 0.930 . S
C1732 C1731 1.362 . S
C1732 C1735 1.409 . S
C1733 H1725 0.930 . S
C1733 C1734 1.355 . S
C1733 C1735 1.415 . S
C1734 C1733 1.355 . S
C1734 C1736 1.419 . S
C1735 C1730 1.425 . S
C1735 C1732 1.409 . S
C1735 C1733 1.415 . S
C1736 H1726 0.930 . S
C1736 C1734 1.419 . S
C1736 C1737 1.362 . S
C1737 H1727 0.930 . S
C1737 C1730 1.409 . S
C1737 C1736 1.362 . S
H1738 C1744 0.930 . S
H1739 C1747 0.930 . S
H1740 C1748 0.930 . S
H1741 C1749 0.930 . S
H1742 C1752 0.930 . S
H1743 C1753 0.930 . S
C1744 H1738 0.930 . S
C1744 C1745 1.355 . S
C1744 C1746 1.415 . S
C1745 C1744 1.355 . S
C1745 C1747 1.419 . S
C1746 C1744 1.415 . S
C1746 C1751 1.425 . S
C1746 C1753 1.409 . S
C1747 H1739 0.930 . S
C1747 C1745 1.419 . S
C1747 C1748 1.362 . S
C1748 H1740 0.930 . S
C1748 C1747 1.362 . S
C1748 C1751 1.409 . S
C1749 H1741 0.930 . S
C1749 C1750 1.355 . S
C1749 C1751 1.415 . S
C1750 C1749 1.355 . S
C1750 C1752 1.419 . S
C1751 C1746 1.425 . S
C1751 C1748 1.409 . S
C1751 C1749 1.415 . S
C1752 H1742 0.930 . S
C1752 C1750 1.419 . S
C1752 C1753 1.362 . S
C1753 H1743 0.930 . S
C1753 C1746 1.409 . S
C1753 C1752 1.362 . S
H1754 C1760 0.930 . S
H1755 C1763 0.930 . S
H1756 C1764 0.930 . S
H1757 C1765 0.930 . S
H1758 C1768 0.930 . S
H1759 C1769 0.930 . S
C1760 H1754 0.930 . S
C1760 C1761 1.355 . S
C1760 C1762 1.415 . S
C1761 C1760 1.355 . S
C1761 C1763 1.419 . S
C1762 C1760 1.415 . S
C1762 C1767 1.425 . S
C1762 C1769 1.409 . S
C1763 H1755 0.930 . S
C1763 C1761 1.419 . S
C1763 C1764 1.362 . S
C1764 H1756 0.930 . S
C1764 C1763 1.362 . S
C1764 C1767 1.409 . S
C1765 H1757 0.930 . S
C1765 C1766 1.355 . S
C1765 C1767 1.415 . S
C1766 C1765 1.355 . S
C1766 C1768 1.419 . S
C1767 C1762 1.425 . S
C1767 C1764 1.409 . S
C1767 C1765 1.415 . S
C1768 H1758 0.930 . S
C1768 C1766 1.419 . S
C1768 C1769 1.362 . S
C1769 H1759 0.930 . S
C1769 C1762 1.409 . S
C1769 C1768 1.362 . S
H1770 C1776 0.930 . S
H1771 C1779 0.930 . S
H1772 C1780 0.930 . S
H1773 C1781 0.930 . S
H1774 C1784 0.930 . S
H1775 C1785 0.930 . S
C1776 H1770 0.930 . S
C1776 C1777 1.355 . S
C1776 C1778 1.415 . S
C1777 C1776 1.355 . S
C1777 C1779 1.419 . S
C1778 C1776 1.415 . S
C1778 C1783 1.425 . S
C1778 C1785 1.409 . S
C1779 H1771 0.930 . S
C1779 C1777 1.419 . S
C1779 C1780 1.362 . S
C1780 H1772 0.930 . S
C1780 C1779 1.362 . S
C1780 C1783 1.409 . S
C1781 H1773 0.930 . S
C1781 C1782 1.355 . S
C1781 C1783 1.415 1_556 S
C1782 C1781 1.355 . S
C1782 C1784 1.419 1_556 S
C1783 C1778 1.425 . S
C1783 C1780 1.409 . S
C1783 C1781 1.415 1_554 S
C1784 H1774 0.930 . S
C1784 C1782 1.419 1_554 S
C1784 C1785 1.362 . S
C1785 H1775 0.930 . S
C1785 C1778 1.409 . S
C1785 C1784 1.362 . S
H1786 C1792 0.930 . S
H1787 C1795 0.930 . S
H1788 C1796 0.930 . S
H1789 C1797 0.930 . S
H1790 C1800 0.930 . S
H1791 C1801 0.930 . S
C1792 H1786 0.930 . S
C1792 C1793 1.355 . S
C1792 C1794 1.415 . S
C1793 C1792 1.355 . S
C1793 C1795 1.419 . S
C1794 C1792 1.415 . S
C1794 C1799 1.425 . S
C1794 C1801 1.409 . S
C1795 H1787 0.930 . S
C1795 C1793 1.419 . S
C1795 C1796 1.362 . S
C1796 H1788 0.930 . S
C1796 C1795 1.362 . S
C1796 C1799 1.409 . S
C1797 H1789 0.930 . S
C1797 C1798 1.355 . S
C1797 C1799 1.415 . S
C1798 C1797 1.355 . S
C1798 C1800 1.419 . S
C1799 C1794 1.425 . S
C1799 C1796 1.409 . S
C1799 C1797 1.415 . S
C1800 H1790 0.930 . S
C1800 C1798 1.419 . S
C1800 C1801 1.362 . S
C1801 H1791 0.930 . S
C1801 C1794 1.409 . S
C1801 C1800 1.362 . S
H1802 C1808 0.930 . S
H1803 C1811 0.930 . S
H1804 C1812 0.930 . S
H1805 C1813 0.930 . S
H1806 C1816 0.930 . S
H1807 C1817 0.924 1_556 S
C1808 H1802 0.930 . S
C1808 C1809 1.355 . S
C1808 C1810 1.415 . S
C1809 C1808 1.355 . S
C1809 C1811 1.419 . S
C1810 C1808 1.415 . S
C1810 C1815 1.425 . S
C1810 C1817 1.409 . S
C1811 H1803 0.930 . S
C1811 C1809 1.419 . S
C1811 C1812 1.362 . S
C1812 H1804 0.930 . S
C1812 C1811 1.362 . S
C1812 C1815 1.409 . S
C1813 H1805 0.930 . S
C1813 C1814 1.357 1_554 S
C1813 C1815 1.415 . S
C1814 C1813 1.357 1_556 S
C1814 C1816 1.418 . S
C1815 C1810 1.425 . S
C1815 C1812 1.409 . S
C1815 C1813 1.415 . S
C1816 H1806 0.930 . S
C1816 C1814 1.418 . S
C1816 C1817 1.362 1_556 S
C1817 H1807 0.924 1_554 S
C1817 C1810 1.409 . S
C1817 C1816 1.362 1_554 S
C673 C7 1.425 . S
C678 C568 1.444 . S
C694 C545 1.807 . S
C689 C39 1.803 . S
C710 C554 1.603 . S
C705 C62 1.560 . S
C721 C76 1.823 . S
C726 C624 1.833 . S
C737 C108 1.503 . S
C742 C643 1.510 1_455 S
C753 N117 1.395 . S
C758 C657 1.407 . S
C774 C619 1.426 . S
C769 C16 1.434 . S
C785 C30 1.843 . S
C790 C587 1.837 . S
C806 C605 1.541 . S
C801 C53 1.523 1_556 S
C817 C85 1.812 . S
C822 C507 1.819 . S
C838 C517 1.721 . S
C833 C99 1.718 . S
C849 N127 1.302 . S
C854 C531 1.348 . S
C865 N150 1.187 . S
C870 C652 1.170 . S
C886 C629 1.572 . S
C881 N173 1.567 . S
C902 C638 1.419 . S
C897 C200 1.425 . S
C913 C214 1.668 . S
C918 C456 1.664 . S
C929 N232 1.570 . S
C934 C475 1.565 . S
C945 C260 1.500 . S
C950 C489 1.523 . S
C966 C451 1.293 . S
C961 N140 1.221 . S
C977 N163 1.262 . S
C982 C419 1.342 . S
C998 C437 1.629 . S
C993 C191 1.616 . S
C1014 C591 1.927 . S
C1009 C223 1.929 . S
C1030 C601 1.556 . S
C1025 N242 1.515 . S
C1046 C615 1.504 . S
C1041 C269 1.513 . S
C1057 N288 1.348 . S
C1062 C484 1.328 . S
C1073 C315 1.542 . S
C1078 C461 1.568 . S
C1089 C338 1.657 . S
C1094 C470 1.650 . S
C1105 C352 1.827 . S
C1110 C540 1.833 . S
C1126 C559 1.611 . S
C1121 N370 1.620 . S
C1142 C573 1.609 1_655 S
C1137 C398 1.596 . S
C1158 C535 1.229 . S
C1153 N278 1.130 . S
C1169 C306 1.727 . S
C1174 C503 1.747 . S
C1185 C329 1.633 . S
C1190 C521 1.643 1_655 S
C1206 C423 1.577 . S
C1201 C361 1.577 . S
C1217 N380 1.503 . S
C1222 C433 1.559 . S
C1238 C447 1.492 . S
C1233 C407 1.490 . S
C1254 C467 1.403 . S
C1249 N12 1.391 . S
C1265 N25 1.566 . S
C1270 C479 1.603 . S
C1286 C493 1.329 . S
C1281 N48 1.305 . S
C1302 C495 1.325 . S
C1297 N81 1.299 . S
C1318 C465 1.547 . S
C1313 N94 1.489 . S
C1334 C481 1.573 . S
C1329 C131 1.563 . S
C1350 C425 1.377 . S
C1345 N2 1.404 . S
C1361 N35 1.457 . S
C1366 C428 1.497 . S
C1377 N58 1.326 . S
C1382 C442 1.342 . S
C1398 C453 1.287 . S
C1393 N71 1.284 . S
C1414 C414 1.385 . S
C1409 N104 1.353 . S
C1430 C439 1.565 . S
C1425 C122 1.590 . S
C1441 C145 1.978 . S
C1446 C551 2.002 . S
C1457 C168 1.729 . S
C1462 C563 1.737 . S
C1473 N186 1.428 . S
C1478 C577 1.434 . S
C1494 C579 1.339 . S
C1489 N219 1.329 . S
C1510 C549 1.792 . S
C1505 C246 1.789 . S
C1526 C565 1.460 . S
C1521 N265 1.459 . S
C1542 C509 1.871 . S
C1537 C154 1.898 . S
C1553 C177 1.830 . S
C1558 C512 1.810 . S
C1569 N196 1.262 . S
C1574 C526 1.286 . S
C1585 N209 1.095 . S
C1590 C537 1.190 . S
C1601 C237 1.824 . S
C1606 C498 1.796 . S
C1622 C523 1.414 . S
C1617 N255 1.409 . S
C1633 C283 1.766 . S
C1638 C635 1.761 . S
C1649 N301 1.448 . S
C1654 C647 1.471 . S
C1665 N324 1.293 . S
C1670 C661 1.321 . S
C1686 C663 1.187 . S
C1681 N357 1.192 . S
C1702 C633 1.763 . S
C1697 C384 1.771 . S
C1713 N403 1.318 . S
C1718 C649 1.312 . S
C1729 C292 1.863 . S
C1734 C593 1.849 . S
C1750 C596 1.378 . S
C1745 N311 1.352 . S
C1761 N334 1.405 . S
C1766 C610 1.432 . S
C1777 N347 1.269 . S
C1782 C621 1.323 . S
C1798 C582 1.858 1_554 S
C1793 C375 1.865 . S
C1809 N393 1.353 . S
C1814 C607 1.386 . S
