# Generated by pormake.
# Topology ocu, (6,8)-cn, num edge types: 1
# Building blocks:
#     Node 0, Type 0, BuildingBlock: MIFKUJ_clean_sbu_0, # of connection points: 6
#     Node 1, Type 0, BuildingBlock: MIFKUJ_clean_sbu_0, # of connection points: 6
#     Node 2, Type 0, BuildingBlock: MIFKUJ_clean_sbu_0, # of connection points: 6
#     Node 3, Type 0, BuildingBlock: MIFKUJ_clean_sbu_0, # of connection points: 6
#     Node 4, Type 0, BuildingBlock: MIFKUJ_clean_sbu_0, # of connection points: 6
#     Node 5, Type 0, BuildingBlock: MIFKUJ_clean_sbu_0, # of connection points: 6
#     Node 6, Type 0, BuildingBlock: MIFKUJ_clean_sbu_0, # of connection points: 6
#     Node 7, Type 0, BuildingBlock: MIFKUJ_clean_sbu_0, # of connection points: 6
#     Node 8, Type 1, BuildingBlock: VETTIZ_charged_sbu_0, # of connection points: 8
#     Node 9, Type 1, BuildingBlock: VETTIZ_charged_sbu_0, # of connection points: 8
#     Node 10, Type 1, BuildingBlock: VETTIZ_charged_sbu_0, # of connection points: 8
#     Node 11, Type 1, BuildingBlock: VETTIZ_charged_sbu_0, # of connection points: 8
#     Node 12, Type 1, BuildingBlock: VETTIZ_charged_sbu_0, # of connection points: 8
#     Node 13, Type 1, BuildingBlock: VETTIZ_charged_sbu_0, # of connection points: 8
#     Edge 14, Type (0, 1), BuildingBlock: CIFDUS_clean_linker_0, # of connection points: 2
#     Edge 15, Type (0, 1), BuildingBlock: CIFDUS_clean_linker_0, # of connection points: 2
#     Edge 16, Type (0, 1), BuildingBlock: CIFDUS_clean_linker_0, # of connection points: 2
#     Edge 17, Type (0, 1), BuildingBlock: CIFDUS_clean_linker_0, # of connection points: 2
#     Edge 18, Type (0, 1), BuildingBlock: CIFDUS_clean_linker_0, # of connection points: 2
#     Edge 19, Type (0, 1), BuildingBlock: CIFDUS_clean_linker_0, # of connection points: 2
#     Edge 20, Type (0, 1), BuildingBlock: CIFDUS_clean_linker_0, # of connection points: 2
#     Edge 21, Type (0, 1), BuildingBlock: CIFDUS_clean_linker_0, # of connection points: 2
#     Edge 22, Type (0, 1), BuildingBlock: CIFDUS_clean_linker_0, # of connection points: 2
#     Edge 23, Type (0, 1), BuildingBlock: CIFDUS_clean_linker_0, # of connection points: 2
#     Edge 24, Type (0, 1), BuildingBlock: CIFDUS_clean_linker_0, # of connection points: 2
#     Edge 25, Type (0, 1), BuildingBlock: CIFDUS_clean_linker_0, # of connection points: 2
#     Edge 26, Type (0, 1), BuildingBlock: CIFDUS_clean_linker_0, # of connection points: 2
#     Edge 27, Type (0, 1), BuildingBlock: CIFDUS_clean_linker_0, # of connection points: 2
#     Edge 28, Type (0, 1), BuildingBlock: CIFDUS_clean_linker_0, # of connection points: 2
#     Edge 29, Type (0, 1), BuildingBlock: CIFDUS_clean_linker_0, # of connection points: 2
#     Edge 30, Type (0, 1), BuildingBlock: CIFDUS_clean_linker_0, # of connection points: 2
#     Edge 31, Type (0, 1), BuildingBlock: CIFDUS_clean_linker_0, # of connection points: 2
#     Edge 32, Type (0, 1), BuildingBlock: CIFDUS_clean_linker_0, # of connection points: 2
#     Edge 33, Type (0, 1), BuildingBlock: CIFDUS_clean_linker_0, # of connection points: 2
#     Edge 34, Type (0, 1), BuildingBlock: CIFDUS_clean_linker_0, # of connection points: 2
#     Edge 35, Type (0, 1), BuildingBlock: CIFDUS_clean_linker_0, # of connection points: 2
#     Edge 36, Type (0, 1), BuildingBlock: CIFDUS_clean_linker_0, # of connection points: 2
#     Edge 37, Type (0, 1), BuildingBlock: CIFDUS_clean_linker_0, # of connection points: 2
#     Edge 38, Type (0, 1), BuildingBlock: CIFDUS_clean_linker_0, # of connection points: 2
#     Edge 39, Type (0, 1), BuildingBlock: CIFDUS_clean_linker_0, # of connection points: 2
#     Edge 40, Type (0, 1), BuildingBlock: CIFDUS_clean_linker_0, # of connection points: 2
#     Edge 41, Type (0, 1), BuildingBlock: CIFDUS_clean_linker_0, # of connection points: 2
#     Edge 42, Type (0, 1), BuildingBlock: CIFDUS_clean_linker_0, # of connection points: 2
#     Edge 43, Type (0, 1), BuildingBlock: CIFDUS_clean_linker_0, # of connection points: 2
#     Edge 44, Type (0, 1), BuildingBlock: CIFDUS_clean_linker_0, # of connection points: 2
#     Edge 45, Type (0, 1), BuildingBlock: CIFDUS_clean_linker_0, # of connection points: 2
#     Edge 46, Type (0, 1), BuildingBlock: CIFDUS_clean_linker_0, # of connection points: 2
#     Edge 47, Type (0, 1), BuildingBlock: CIFDUS_clean_linker_0, # of connection points: 2
#     Edge 48, Type (0, 1), BuildingBlock: CIFDUS_clean_linker_0, # of connection points: 2
#     Edge 49, Type (0, 1), BuildingBlock: CIFDUS_clean_linker_0, # of connection points: 2
#     Edge 50, Type (0, 1), BuildingBlock: CIFDUS_clean_linker_0, # of connection points: 2
#     Edge 51, Type (0, 1), BuildingBlock: CIFDUS_clean_linker_0, # of connection points: 2
#     Edge 52, Type (0, 1), BuildingBlock: CIFDUS_clean_linker_0, # of connection points: 2
#     Edge 53, Type (0, 1), BuildingBlock: CIFDUS_clean_linker_0, # of connection points: 2
#     Edge 54, Type (0, 1), BuildingBlock: CIFDUS_clean_linker_0, # of connection points: 2
#     Edge 55, Type (0, 1), BuildingBlock: CIFDUS_clean_linker_0, # of connection points: 2
#     Edge 56, Type (0, 1), BuildingBlock: CIFDUS_clean_linker_0, # of connection points: 2
#     Edge 57, Type (0, 1), BuildingBlock: CIFDUS_clean_linker_0, # of connection points: 2
#     Edge 58, Type (0, 1), BuildingBlock: CIFDUS_clean_linker_0, # of connection points: 2
#     Edge 59, Type (0, 1), BuildingBlock: CIFDUS_clean_linker_0, # of connection points: 2
#     Edge 60, Type (0, 1), BuildingBlock: CIFDUS_clean_linker_0, # of connection points: 2
#     Edge 61, Type (0, 1), BuildingBlock: CIFDUS_clean_linker_0, # of connection points: 2
# Relax obj value: 0.055
# Max RMSD: 0.191
# Mean RMSD: 0.107
data_MOF--net-ocu--node1-MIFKUJ_clean_sbu_0--node2-VETTIZ_charged_sbu_0--edge1-CIFDUS_clean_linker_0
_symmetry_space_group_name_H-M    P1
_symmetry_Int_Tables_number       1
_symmetry_cell_setting            triclinic
loop_
_symmetry_equiv_pos_as_xyz
'x, y, z'
_cell_length_a     34.546479
_cell_length_b     35.503805
_cell_length_c     33.417938
_cell_angle_alpha  91.899494
_cell_angle_beta   93.239061
_cell_angle_gamma 97.940648
loop_
_atom_site_label
_atom_site_type_symbol
_atom_site_fract_x
_atom_site_fract_y
_atom_site_fract_z
_atom_type_partial_charge
Zn0 Zn 0.21104 0.29166 0.26546 0.0
Zn1 Zn 0.27211 0.20664 0.24521 0.0
C2 C 0.20172 0.31602 0.34909 0.0
O3 O 0.19891 0.27945 0.35534 0.0
C4 C 0.3336 0.17941 0.20747 0.0
O5 O 0.35034 0.20944 0.22912 0.0
O6 O 0.16706 0.30337 0.22803 0.0
O7 O 0.25866 0.30932 0.23151 0.0
O8 O 0.28768 0.25874 0.21994 0.0
C9 C 0.16623 0.33862 0.22325 0.0
O10 O 0.19202 0.36352 0.24395 0.0
O11 O 0.20961 0.3276 0.31439 0.0
C12 C 0.29393 0.17024 0.30925 0.0
O13 O 0.27028 0.14533 0.28625 0.0
O14 O 0.30294 0.20379 0.2973 0.0
O15 O 0.21624 0.18468 0.26295 0.0
O16 O 0.19364 0.2368 0.28358 0.0
O17 O 0.29661 0.17002 0.20851 0.0
C18 C 0.28477 0.29367 0.21438 0.0
C19 C 0.19288 0.20072 0.28394 0.0
Zn20 Zn 0.77478 0.29704 0.22236 0.0
Zn21 Zn 0.73772 0.23888 0.30168 0.0
C22 C 0.73383 0.34611 0.18171 0.0
O23 O 0.7531 0.32991 0.15473 0.0
C24 C 0.77257 0.18817 0.3564 0.0
O25 O 0.74699 0.19873 0.38056 0.0
O26 O 0.82108 0.32023 0.1967 0.0
O27 O 0.80211 0.28759 0.27582 0.0
O28 O 0.75961 0.29178 0.3208 0.0
C29 C 0.83661 0.35148 0.21412 0.0
O30 O 0.82019 0.36526 0.24487 0.0
O31 O 0.73795 0.33697 0.21824 0.0
C32 C 0.67653 0.18993 0.31737 0.0
O33 O 0.69551 0.1723 0.29131 0.0
O34 O 0.68915 0.22416 0.32806 0.0
O35 O 0.72325 0.22674 0.24277 0.0
O36 O 0.74676 0.25268 0.18886 0.0
O37 O 0.77496 0.20245 0.3219 0.0
C38 C 0.79351 0.30144 0.30903 0.0
C39 C 0.72333 0.22788 0.20488 0.0
Zn40 Zn 0.77201 0.69765 0.27496 0.0
Zn41 Zn 0.70555 0.78522 0.26145 0.0
C42 C 0.7951 0.65759 0.34776 0.0
O43 O 0.79124 0.68846 0.36907 0.0
C44 C 0.66859 0.8138 0.19514 0.0
O45 O 0.642 0.7866 0.2061 0.0
O46 O 0.80458 0.69202 0.22763 0.0
O47 O 0.71681 0.68263 0.25335 0.0
O48 O 0.68435 0.73129 0.24081 0.0
C49 C 0.79867 0.65951 0.20929 0.0
O50 O 0.77116 0.63357 0.22095 0.0
O51 O 0.78701 0.65625 0.31012 0.0
C52 C 0.67041 0.83054 0.31856 0.0
O53 O 0.70596 0.84951 0.32223 0.0
O54 O 0.66357 0.80099 0.29535 0.0
O55 O 0.75733 0.79843 0.29626 0.0
O56 O 0.7891 0.74859 0.30386 0.0
O57 O 0.70208 0.81899 0.21414 0.0
C58 C 0.68703 0.69594 0.2389 0.0
C59 C 0.7858 0.78329 0.31166 0.0
Zn60 Zn 0.22139 0.78571 0.29559 0.0
Zn61 Zn 0.30593 0.7446 0.23131 0.0
C62 C 0.18191 0.75292 0.35611 0.0
O63 O 0.15524 0.76691 0.33379 0.0
C64 C 0.34552 0.80981 0.19771 0.0
O65 O 0.37255 0.80372 0.22506 0.0
O66 O 0.1923 0.83278 0.29904 0.0
O67 O 0.27548 0.79045 0.27762 0.0
O68 O 0.32845 0.76464 0.28616 0.0
C69 C 0.19131 0.84996 0.33306 0.0
O70 O 0.21076 0.83884 0.36434 0.0
O71 O 0.21738 0.75911 0.34714 0.0
C72 C 0.32804 0.69615 0.17041 0.0
O73 O 0.3047 0.71577 0.14996 0.0
O74 O 0.33345 0.70268 0.20815 0.0
O75 O 0.24725 0.72747 0.23096 0.0
O76 O 0.19398 0.74472 0.25689 0.0
O77 O 0.31324 0.78779 0.19472 0.0
C78 C 0.30485 0.78526 0.30017 0.0
C79 C 0.21045 0.72214 0.23498 0.0
Zn80 Zn 0.27071 0.78331 0.71223 0.0
Zn81 Zn 0.22895 0.71506 0.77719 0.0
C82 C 0.22186 0.82632 0.67211 0.0
O83 O 0.24604 0.81648 0.64597 0.0
C84 C 0.25933 0.6658 0.83822 0.0
O85 O 0.23227 0.67555 0.86099 0.0
O86 O 0.31112 0.82271 0.69582 0.0
O87 O 0.29722 0.77277 0.76616 0.0
O88 O 0.24719 0.76685 0.80351 0.0
C89 C 0.31631 0.85175 0.71983 0.0
O90 O 0.29682 0.85231 0.75236 0.0
O91 O 0.22368 0.81294 0.70721 0.0
C92 C 0.15323 0.6706 0.77328 0.0
O93 O 0.16639 0.65283 0.74291 0.0
O94 O 0.17456 0.69914 0.79059 0.0
O95 O 0.23166 0.70545 0.71799 0.0
O96 O 0.26035 0.73962 0.67161 0.0
O97 O 0.26222 0.67905 0.80338 0.0
C98 C 0.28237 0.7804 0.7987 0.0
C99 C 0.24021 0.70926 0.68178 0.0
Zn100 Zn 0.28525 0.2399 0.72709 0.0
Zn101 Zn 0.22041 0.2661 0.77339 0.0
C102 C 0.33024 0.21313 0.79085 0.0
O103 O 0.3567 0.23809 0.77591 0.0
C104 C 0.17485 0.29192 0.71024 0.0
O105 O 0.15057 0.26373 0.72305 0.0
O106 O 0.32501 0.22543 0.69054 0.0
O107 O 0.23223 0.22098 0.69975 0.0
O108 O 0.20008 0.21117 0.75431 0.0
C109 C 0.31961 0.19104 0.6774 0.0
O110 O 0.28741 0.16903 0.68539 0.0
O111 O 0.29522 0.20897 0.77551 0.0
C112 C 0.19905 0.32148 0.82442 0.0
O113 O 0.22671 0.34013 0.8044 0.0
O114 O 0.18883 0.286 0.8162 0.0
O115 O 0.2753 0.27979 0.79902 0.0
O116 O 0.30017 0.29554 0.74236 0.0
O117 O 0.20942 0.29891 0.72666 0.0
C118 C 0.20402 0.20312 0.7174 0.0
C119 C 0.30028 0.3006 0.78009 0.0
Zn120 Zn 0.70871 0.2859 0.76374 0.0
Zn121 Zn 0.78214 0.25112 0.72858 0.0
C122 C 0.66832 0.22006 0.79323 0.0
O123 O 0.64163 0.23089 0.76825 0.0
C124 C 0.78738 0.29793 0.6602 0.0
O125 O 0.78268 0.26468 0.64074 0.0
O126 O 0.66966 0.31845 0.78692 0.0
O127 O 0.76186 0.31583 0.7794 0.0
O128 O 0.79454 0.26704 0.78621 0.0
C129 C 0.67458 0.32344 0.82502 0.0
O130 O 0.70263 0.30802 0.84364 0.0
O131 O 0.70237 0.23908 0.79608 0.0
C132 C 0.82638 0.18708 0.70497 0.0
O133 O 0.79967 0.16409 0.72205 0.0
O134 O 0.82449 0.22272 0.70602 0.0
O135 O 0.73043 0.22049 0.71611 0.0
O136 O 0.69597 0.26733 0.70497 0.0
O137 O 0.78569 0.29901 0.69809 0.0
C138 C 0.78888 0.30044 0.79704 0.0
C139 C 0.70531 0.23498 0.69464 0.0
Zn140 Zn 0.70576 0.78437 0.76316 0.0
Zn141 Zn 0.79297 0.71752 0.75695 0.0
C142 C 0.6521 0.81617 0.80675 0.0
O143 O 0.63257 0.78478 0.78975 0.0
C144 C 0.83435 0.69048 0.69668 0.0
O145 O 0.85647 0.72156 0.71113 0.0
O146 O 0.67124 0.79107 0.71427 0.0
O147 O 0.7594 0.80042 0.73983 0.0
O148 O 0.81204 0.77231 0.73793 0.0
C149 C 0.68228 0.82511 0.70447 0.0
O150 O 0.70913 0.84683 0.72742 0.0
O151 O 0.68869 0.82354 0.80186 0.0
C152 C 0.82582 0.66457 0.79847 0.0
O153 O 0.79433 0.64603 0.77922 0.0
O154 O 0.83324 0.70051 0.79534 0.0
O155 O 0.74156 0.69994 0.78618 0.0
O156 O 0.6922 0.73326 0.79045 0.0
O157 O 0.80011 0.68251 0.70922 0.0
C158 C 0.79448 0.80067 0.73002 0.0
C159 C 0.70778 0.70364 0.79842 0.0
Fe160 Fe 0.99503 0.08652 0.48803 0.0
O161 O 0.98841 0.03027 0.48681 0.0
Fe162 Fe 0.03977 0.00607 0.50331 0.0
Fe163 Fe 0.94833 0.99849 0.51822 0.0
O164 O 0.99339 0.03091 0.48572 0.0
O165 O 0.99915 0.97306 0.53263 0.0
O166 O 0.99455 0.97255 0.5338 0.0
Fe167 Fe 0.99315 0.91693 0.53062 0.0
C168 C 0.9551 0.07037 0.56791 0.0
O169 O 0.94201 0.07506 0.45597 0.0
O170 O 0.9059 0.03168 0.49464 0.0
O171 O 0.02582 0.91372 0.48107 0.0
O172 O 0.03128 0.97019 0.45302 0.0
O173 O 0.07551 0.04529 0.46691 0.0
O174 O 0.03187 0.08329 0.44138 0.0
O175 O 0.93305 0.96215 0.46856 0.0
O176 O 0.94263 0.90647 0.49311 0.0
C177 C 0.06553 0.07075 0.44178 0.0
O178 O 0.04566 0.92795 0.56372 0.0
O179 O 0.08237 0.97383 0.52855 0.0
O180 O 0.96233 0.09058 0.53768 0.0
O181 O 0.9599 0.03541 0.56781 0.0
C182 C 0.90916 0.05701 0.4668 0.0
C183 C 0.9269 0.92594 0.46704 0.0
C184 C 0.92487 0.93411 0.58051 0.0
O185 O 0.91358 0.95999 0.55661 0.0
O186 O 0.9572 0.9198 0.57744 0.0
C187 C 0.03393 0.93481 0.45175 0.0
O188 O 0.05184 0.04244 0.55362 0.0
O189 O 0.04588 0.09689 0.52449 0.0
C190 C 0.07857 0.9476 0.55544 0.0
C191 C 0.05974 0.07844 0.55257 0.0
Fe192 Fe 0.50058 0.9715 0.98986 0.0
O193 O 0.53395 0.017 0.01604 0.0
Fe194 Fe 0.41064 1.00381 0.97224 0.0
Fe195 Fe 0.59078 0.02638 0.01456 0.0
O196 O 0.46817 0.00983 0.96851 0.0
O197 O 0.46763 0.01372 0.9704 0.0
O198 O 0.53331 0.02068 0.01812 0.0
Fe199 Fe 0.50072 0.0592 0.99755 0.0
C200 C 0.56853 0.94622 0.04391 0.0
O201 O 0.53238 0.97297 0.93934 0.0
O202 O 0.59273 0.98781 0.96802 0.0
O203 O 0.46218 0.09311 0.9697 0.0
O204 O 0.41395 0.04982 0.93597 0.0
O205 O 0.41312 0.96114 0.92988 0.0
O206 O 0.46006 0.92835 0.95892 0.0
O207 O 0.59278 0.06921 0.97393 0.0
O208 O 0.53181 0.06459 0.94724 0.0
C209 C 0.4301 0.93099 0.93394 0.0
O210 O 0.46834 0.05634 0.04828 0.0
O211 O 0.40848 0.04278 0.01827 0.0
O212 O 0.53867 0.93734 0.01792 0.0
O213 O 0.58758 0.98025 0.05069 0.0
C214 C 0.56935 0.9737 0.93896 0.0
C215 C 0.56829 0.07515 0.94571 0.0
C216 C 0.57057 0.098 0.05523 0.0
O217 O 0.58758 0.06774 0.0576 0.0
O218 O 0.54137 0.10202 0.02965 0.0
C219 C 0.4327 0.08399 0.94322 0.0
O220 O 0.40901 0.96162 0.01369 0.0
O221 O 0.47004 0.96781 0.04029 0.0
C222 C 0.43119 0.05473 0.04858 0.0
C223 C 0.43371 0.95714 0.04227 0.0
Fe224 Fe 0.01811 0.59957 0.03599 0.0
O225 O 0.01248 0.5442 0.03185 0.0
Fe226 Fe 0.05851 0.51868 0.0094 0.0
Fe227 Fe 0.96778 0.51107 1.00288 0.0
O228 O 0.01623 0.54424 0.03242 0.0
O229 O 0.014 0.48599 0.97945 0.0
O230 O 0.00992 0.48604 0.9786 0.0
Fe231 Fe 0.00936 0.43042 0.97726 0.0
C232 C 0.93674 0.56902 0.06139 0.0
O233 O 0.97842 0.60364 0.9891 0.0
O234 O 0.96702 0.54702 0.95591 0.0
O235 O 0.0552 0.44144 0.94176 0.0
O236 O 0.09721 0.48634 0.98049 0.0
O237 O 0.06068 0.55415 0.96251 0.0
O238 O 0.06195 0.60886 0.99707 0.0
O239 O 0.92629 0.47153 0.96861 0.0
O240 O 0.96464 0.43368 0.93539 0.0
C241 C 0.06418 0.59025 0.96433 0.0
O242 O 0.05077 0.42748 0.02411 0.0
O243 O 0.05649 0.48376 0.05659 0.0
O244 O 0.97078 0.5888 0.07043 0.0
O245 O 0.92948 0.54181 0.03356 0.0
C246 C 0.967 0.58293 0.95773 0.0
C247 C 0.93156 0.44575 0.94136 0.0
C248 C 0.96349 0.44002 0.0489 0.0
O249 O 0.96745 0.47607 0.05016 0.0
O250 O 0.96678 0.42086 0.01693 0.0
C251 C 0.08971 0.45901 0.95273 0.0
O252 O 0.09972 0.55664 0.04559 0.0
O253 O 0.061 0.59398 0.07883 0.0
C254 C 0.05985 0.44866 0.05569 0.0
C255 C 0.09313 0.57947 0.07513 0.0
Fe256 Fe 0.48679 0.52636 0.91791 0.0
O257 O 0.4945 0.52542 0.9765 0.0
Fe258 Fe 0.44899 0.49424 0.00823 0.0
Fe259 Fe 0.54157 0.50877 1.00449 0.0
O260 O 0.48998 0.52413 0.97669 0.0
O261 O 0.49569 0.47613 0.03531 0.0
O262 O 0.50051 0.47713 0.03486 0.0
Fe263 Fe 0.50251 0.47536 0.09403 0.0
C264 C 0.54222 0.46565 0.92522 0.0
O265 O 0.53256 0.57073 0.92535 0.0
O266 O 0.57787 0.54611 0.96681 0.0
O267 O 0.46061 0.51028 0.10498 0.0
O268 O 0.45243 0.5398 0.04821 0.0
O269 O 0.40583 0.51919 0.97463 0.0
O270 O 0.44139 0.55601 0.92973 0.0
O271 O 0.54506 0.55424 0.04609 0.0
O272 O 0.5447 0.52198 0.10215 0.0
C273 C 0.40964 0.54535 0.94786 0.0
O274 O 0.45613 0.43131 0.0866 0.0
O275 O 0.41216 0.4591 0.04708 0.0
O276 O 0.52889 0.4922 0.90646 0.0
O277 O 0.54158 0.46381 0.96324 0.0
C278 C 0.56809 0.57027 0.94012 0.0
C279 C 0.55243 0.55267 0.08384 0.0
C280 C 0.5806 0.45838 0.06646 0.0
O281 O 0.5845 0.48477 0.03978 0.0
O282 O 0.54825 0.44601 0.0829 0.0
C283 C 0.44979 0.53783 0.08583 0.0
O284 O 0.44289 0.44862 0.9676 0.0
O285 O 0.44485 0.47907 0.91015 0.0
C286 C 0.42058 0.43413 0.07339 0.0
C287 C 0.43558 0.44939 0.92985 0.0
Fe288 Fe 0.01273 0.45062 0.50694 0.0
O289 O 0.02216 0.49184 0.54995 0.0
Fe290 Fe 0.0167 0.50697 0.42051 0.0
Fe291 Fe 0.01276 0.48967 0.60673 0.0
O292 O 0.00839 0.4972 0.4762 0.0
O293 O 0.02267 0.50401 0.47805 0.0
O294 O 0.0081 0.49575 0.54988 0.0
Fe295 Fe 0.01589 0.5434 0.52005 0.0
C296 C 0.94234 0.43908 0.56222 0.0
O297 O 0.02628 0.40892 0.54509 0.0
O298 O 0.04459 0.4443 0.603 0.0
O299 O 0.03123 0.58858 0.48551 0.0
O300 O 0.05172 0.55932 0.43085 0.0
O301 O 0.06513 0.47888 0.42257 0.0
O302 O 0.06975 0.45479 0.48542 0.0
O303 O 0.0639 0.5282 0.61144 0.0
O304 O 0.07274 0.55031 0.54827 0.0
C305 C 0.08284 0.46187 0.45029 0.0
O306 O 0.95916 0.54069 0.49269 0.0
O307 O 0.96751 0.53408 0.42529 0.0
O308 O 0.95542 0.44191 0.5267 0.0
O309 O 0.96195 0.45208 0.59503 0.0
C310 C 0.04425 0.41432 0.58011 0.0
C311 C 0.08451 0.54686 0.58539 0.0
C312 C 0.98138 0.56779 0.59526 0.0
O313 O 0.97992 0.5348 0.61028 0.0
O314 O 0.00121 0.57783 0.56527 0.0
C315 C 0.0505 0.58872 0.454 0.0
O316 O 0.98221 0.45464 0.41004 0.0
O317 O 0.99406 0.41355 0.45878 0.0
C318 C 0.94765 0.54253 0.45527 0.0
C319 C 0.97891 0.42135 0.42453 0.0
Fe320 Fe 0.48786 0.96219 0.5146 0.0
O321 O 0.52282 0.00907 0.5354 0.0
Fe322 Fe 0.4564 0.98486 0.41929 0.0
Fe323 Fe 0.53099 0.02385 0.59268 0.0
O324 O 0.46532 0.99626 0.47668 0.0
O325 O 0.46558 0.99928 0.47631 0.0
O326 O 0.52326 0.01238 0.53488 0.0
Fe327 Fe 0.49913 0.04647 0.49799 0.0
C328 C 0.45074 0.97779 0.5906 0.0
O329 O 0.51552 0.93201 0.55714 0.0
O330 O 0.56087 0.97716 0.59198 0.0
O331 O 0.54023 0.03924 0.45846 0.0
O332 O 0.50202 0.02284 0.40262 0.0
O333 O 0.49284 0.94283 0.41826 0.0
O334 O 0.5293 0.95182 0.476 0.0
O335 O 0.5735 0.06479 0.57398 0.0
O336 O 0.53741 0.09248 0.52578 0.0
C337 C 0.52396 0.93967 0.43965 0.0
O338 O 0.4696 0.07667 0.45682 0.0
O339 O 0.42556 0.03083 0.42119 0.0
O340 O 0.4465 0.97239 0.55283 0.0
O341 O 0.48417 0.98676 0.60895 0.0
C342 C 0.54673 0.94227 0.58056 0.0
C343 C 0.56698 0.09301 0.55191 0.0
C344 C 0.46351 0.06793 0.57247 0.0
O345 O 0.49544 0.06658 0.59304 0.0
O346 O 0.45736 0.05406 0.53692 0.0
C347 C 0.53456 0.0366 0.42056 0.0
O348 O 0.41421 0.94414 0.43846 0.0
O349 O 0.44838 0.9166 0.48818 0.0
C350 C 0.43836 0.06574 0.4336 0.0
C351 C 0.41907 0.91652 0.46191 0.0
H352 H 0.19802 0.1314 0.32087 0.0
H353 H 0.12354 0.21889 0.3083 0.0
H354 H 0.07889 0.18674 0.35424 0.0
H355 H 0.06084 0.13521 0.39952 0.0
H356 H 0.13529 0.04835 0.41667 0.0
H357 H 0.17965 0.07876 0.3683 0.0
C358 C 0.17181 0.14324 0.32778 0.0
C359 C 0.16439 0.17779 0.31015 0.0
C360 C 0.14615 0.12478 0.35564 0.0
C361 C 0.13037 0.19258 0.32065 0.0
C362 C 0.10466 0.17413 0.34724 0.0
C363 C 0.08661 0.12246 0.39282 0.0
C364 C 0.09403 0.0889 0.41225 0.0
C365 C 0.11226 0.14041 0.36518 0.0
C366 C 0.12828 0.07388 0.40275 0.0
C367 C 0.15376 0.09137 0.37479 0.0
H368 H 0.76905 0.14689 0.42414 0.0
H369 H 0.83285 0.16472 0.3173 0.0
H370 H 0.87675 0.12037 0.33963 0.0
H371 H 0.90064 0.08133 0.3918 0.0
H372 H 0.83952 0.06482 0.50021 0.0
H373 H 0.79003 0.10275 0.4743 0.0
C374 C 0.79246 0.14097 0.40563 0.0
C375 C 0.79794 0.15966 0.36928 0.0
C376 C 0.81779 0.11538 0.41876 0.0
C377 C 0.8281 0.15114 0.34549 0.0
C378 C 0.85319 0.12567 0.35821 0.0
C379 C 0.87606 0.08541 0.40952 0.0
C380 C 0.87389 0.07047 0.44802 0.0
C381 C 0.84875 0.10824 0.39507 0.0
C382 C 0.8417 0.07569 0.47039 0.0
C383 C 0.81375 0.09786 0.45578 0.0
H384 H 0.79545 0.86028 0.3319 0.0
H385 H 0.84381 0.75705 0.357 0.0
H386 H 0.89126 0.79174 0.40611 0.0
H387 H 0.91873 0.85083 0.44344 0.0
H388 H 0.8726 0.95496 0.418 0.0
H389 H 0.82519 0.92064 0.36774 0.0
C390 C 0.8164 0.84537 0.34802 0.0
C391 C 0.81557 0.80584 0.34059 0.0
C392 C 0.84424 0.86569 0.37638 0.0
C393 C 0.84335 0.78729 0.36182 0.0
C394 C 0.87067 0.80715 0.39011 0.0
C395 C 0.89836 0.86614 0.42693 0.0
C396 C 0.89926 0.9055 0.43488 0.0
C397 C 0.87128 0.84627 0.39785 0.0
C398 C 0.87278 0.92473 0.41265 0.0
C399 C 0.84549 0.90505 0.3839 0.0
H400 H 0.1145 0.82843 0.33991 0.0
H401 H 0.20338 0.92649 0.34759 0.0
H402 H 0.15844 0.96447 0.37929 0.0
H403 H 0.09796 0.96629 0.41492 0.0
H404 H 0.01299 0.86522 0.41472 0.0
H405 H 0.05165 0.83196 0.36973 0.0
C406 C 0.12338 0.85849 0.34719 0.0
C407 C 0.16172 0.87503 0.34068 0.0
C408 C 0.09815 0.87935 0.36745 0.0
C409 C 0.17361 0.91357 0.35153 0.0
C410 C 0.14807 0.93509 0.37007 0.0
C411 C 0.08741 0.93738 0.40395 0.0
C412 C 0.05264 0.9182 0.41791 0.0
C413 C 0.11081 0.91786 0.37963 0.0
C414 C 0.03965 0.88048 0.40428 0.0
C415 C 0.06184 0.86144 0.37871 0.0
H416 H 0.22667 0.87242 0.60891 0.0
H417 H 0.15512 0.84061 0.7075 0.0
H418 H 0.10691 0.8801 0.68238 0.0
H419 H 0.08243 0.91831 0.62911 0.0
H420 H 0.153 0.94889 0.52953 0.0
H421 H 0.20498 0.91594 0.55904 0.0
C422 C 0.20059 0.8742 0.6251 0.0
C423 C 0.19415 0.85294 0.65975 0.0
C424 C 0.17304 0.89685 0.61038 0.0
C425 C 0.16066 0.85634 0.68071 0.0
C426 C 0.13311 0.8789 0.66628 0.0
C427 C 0.10943 0.91828 0.61404 0.0
C428 C 0.11362 0.93576 0.57681 0.0
C429 C 0.13861 0.89854 0.63069 0.0
C430 C 0.14902 0.9359 0.55816 0.0
C431 C 0.17854 0.91666 0.57485 0.0
H432 H 0.20241 0.18573 0.63776 0.0
H433 H 0.13903 0.1582 0.74296 0.0
H434 H 0.08992 0.11461 0.70196 0.0
H435 H 0.06342 0.08624 0.63483 0.0
H436 H 0.12633 0.11799 0.53052 0.0
H437 H 0.17731 0.15761 0.57252 0.0
C438 C 0.178 0.17015 0.65198 0.0
C439 C 0.17452 0.17541 0.69351 0.0
C440 C 0.14973 0.1457 0.62822 0.0
C441 C 0.14252 0.15483 0.7111 0.0
C442 C 0.11439 0.12987 0.68762 0.0
C443 C 0.08863 0.1015 0.62161 0.0
C444 C 0.09141 0.09911 0.57974 0.0
C445 C 0.1175 0.12527 0.64601 0.0
C446 C 0.12375 0.11944 0.5627 0.0
C447 C 0.15283 0.14214 0.58667 0.0
H448 H 0.84289 0.11367 0.70028 0.0
H449 H 0.87739 0.22543 0.65591 0.0
H450 H 0.92253 0.19971 0.61243 0.0
H451 H 0.9489 0.14505 0.58331 0.0
H452 H 0.91504 0.033 0.62712 0.0
H453 H 0.87369 0.0594 0.67478 0.0
C454 C 0.86051 0.13248 0.68136 0.0
C455 C 0.85634 0.17148 0.6813 0.0
C456 C 0.88664 0.11745 0.65622 0.0
C457 C 0.87975 0.19535 0.65669 0.0
C458 C 0.90561 0.18063 0.63166 0.0
C459 C 0.93288 0.12636 0.60358 0.0
C460 C 0.93502 0.08696 0.60126 0.0
C461 C 0.90883 0.14166 0.63067 0.0
C462 C 0.91418 0.0634 0.62814 0.0
C463 C 0.89023 0.07847 0.65528 0.0
H464 H 0.86994 0.83993 0.73066 0.0
H465 H 0.75828 0.82721 0.66415 0.0
H466 H 0.78577 0.87003 0.61379 0.0
H467 H 0.84405 0.90776 0.58477 0.0
H468 H 0.95424 0.92283 0.65476 0.0
H469 H 0.92514 0.88383 0.70663 0.0
C470 C 0.85145 0.84691 0.70547 0.0
C471 C 0.81176 0.83023 0.7018 0.0
C472 C 0.86745 0.87238 0.67658 0.0
C473 C 0.78862 0.83992 0.66855 0.0
C474 C 0.80452 0.86436 0.63933 0.0
C475 C 0.86138 0.90357 0.61189 0.0
C476 C 0.90172 0.91869 0.61521 0.0
C477 C 0.84418 0.88059 0.64255 0.0
C478 C 0.92334 0.91188 0.65079 0.0
C479 C 0.90672 0.88915 0.68068 0.0
H480 H 0.31376 0.10997 0.16761 0.0
H481 H 0.40917 0.20166 0.19007 0.0
H482 H 0.44985 0.16942 0.1469 0.0
H483 H 0.4572 0.11704 0.09853 0.0
H484 H 0.36156 0.02581 0.07573 0.0
H485 H 0.32286 0.05536 0.12344 0.0
C486 C 0.34347 0.12281 0.16315 0.0
C487 C 0.35807 0.15837 0.18189 0.0
C488 C 0.36701 0.10401 0.13823 0.0
C489 C 0.39691 0.17436 0.17602 0.0
C490 C 0.42037 0.15592 0.15127 0.0
C491 C 0.42829 0.10325 0.10481 0.0
C492 C 0.41229 0.06936 0.08353 0.0
C493 C 0.40566 0.1209 0.13179 0.0
C494 C 0.3745 0.05206 0.0916 0.0
C495 C 0.35221 0.06903 0.11875 0.0
H496 H 0.88855 0.32533 0.16792 0.0
H497 H 0.85687 0.42849 0.22059 0.0
H498 H 0.89992 0.46656 0.17704 0.0
H499 H 0.93592 0.4691 0.1159 0.0
H500 H 0.96432 0.36503 0.06145 0.0
H501 H 0.93339 0.32858 0.11427 0.0
C502 C 0.89172 0.35618 0.17032 0.0
C503 C 0.86901 0.37426 0.19619 0.0
C504 C 0.91536 0.37757 0.14458 0.0
C505 C 0.8739 0.41412 0.20024 0.0
C506 C 0.89823 0.43583 0.17524 0.0
C507 C 0.93589 0.43854 0.11599 0.0
C508 C 0.95091 0.41951 0.08419 0.0
C509 C 0.91742 0.41768 0.14592 0.0
C510 C 0.95164 0.38007 0.08503 0.0
C511 C 0.93417 0.35923 0.11524 0.0
H512 H 0.60063 0.80775 0.14879 0.0
H513 H 0.71186 0.8792 0.17223 0.0
H514 H 0.69098 0.92556 0.12615 0.0
H515 H 0.64006 0.94733 0.08237 0.0
H516 H 0.52853 0.87635 0.05908 0.0
H517 H 0.55082 0.82806 0.10198 0.0
C518 C 0.62048 0.83333 0.14364 0.0
C519 C 0.65772 0.84009 0.16421 0.0
C520 C 0.60816 0.85999 0.11735 0.0
C521 C 0.68308 0.87326 0.15689 0.0
C522 C 0.67109 0.89986 0.13064 0.0
C523 C 0.62052 0.9213 0.08657 0.0
C524 C 0.58247 0.91567 0.06776 0.0
C525 C 0.63348 0.89378 0.11126 0.0
C526 C 0.55792 0.88145 0.07312 0.0
C527 C 0.57062 0.85389 0.09775 0.0
H528 H 0.23019 0.68188 0.17046 0.0
H529 H 0.13754 0.68899 0.25082 0.0
H530 H 0.09626 0.63756 0.2123 0.0
H531 H 0.08364 0.59707 0.15183 0.0
H532 H 0.17242 0.59479 0.06646 0.0
H533 H 0.21916 0.63647 0.1121 0.0
C534 C 0.20109 0.67193 0.17972 0.0
C535 C 0.18656 0.68967 0.21294 0.0
C536 C 0.17717 0.64301 0.15683 0.0
C537 C 0.14899 0.67633 0.22484 0.0
C538 C 0.12553 0.64677 0.20304 0.0
C539 C 0.11349 0.60516 0.1435 0.0
C540 C 0.12452 0.59368 0.10566 0.0
C541 C 0.13892 0.63082 0.16841 0.0
C542 C 0.16336 0.60343 0.09547 0.0
C543 C 0.18978 0.62768 0.12127 0.0
H544 H 0.36191 0.80003 0.80679 0.0
H545 H 0.25513 0.81858 0.86081 0.0
H546 H 0.2923 0.86463 0.90924 0.0
H547 H 0.35425 0.90281 0.93336 0.0
H548 H 0.4618 0.88378 0.88196 0.0
H549 H 0.4254 0.83424 0.83564 0.0
C550 C 0.34683 0.81396 0.82936 0.0
C551 C 0.30566 0.8061 0.8299 0.0
C552 C 0.36853 0.84021 0.85754 0.0
C553 C 0.28667 0.82409 0.85962 0.0
C554 C 0.30791 0.8505 0.88731 0.0
C555 C 0.36975 0.88733 0.91237 0.0
C556 C 0.4105 0.89682 0.9108 0.0
C557 C 0.34869 0.85916 0.88615 0.0
C558 C 0.43045 0.87664 0.8838 0.0
C559 C 0.40957 0.84862 0.85717 0.0
H560 H 0.20978 0.39782 0.84237 0.0
H561 H 0.14574 0.29142 0.87595 0.0
H562 H 0.11138 0.32559 0.92403 0.0
H563 H 0.09499 0.38528 0.95143 0.0
H564 H 0.15435 0.49244 0.91535 0.0
H565 H 0.19639 0.45834 0.87413 0.0
C566 C 0.18851 0.38206 0.86043 0.0
C567 C 0.17995 0.34206 0.85521 0.0
C568 C 0.16839 0.40201 0.88764 0.0
C569 C 0.15254 0.32213 0.87901 0.0
C570 C 0.13299 0.34164 0.9066 0.0
C571 C 0.11766 0.40119 0.93503 0.0
C572 C 0.1216 0.44118 0.936 0.0
C573 C 0.14011 0.3815 0.91045 0.0
C574 C 0.15111 0.46165 0.91514 0.0
C575 C 0.17466 0.4421 0.89126 0.0
H576 H 0.59686 0.17878 0.79812 0.0
H577 H 0.71522 0.19264 0.85089 0.0
H578 H 0.69513 0.14682 0.90132 0.0
H579 H 0.64301 0.10652 0.93322 0.0
H580 H 0.52433 0.09464 0.88115 0.0
H581 H 0.54569 0.13594 0.8276 0.0
C582 C 0.61841 0.17154 0.82039 0.0
C583 C 0.6574 0.18933 0.82092 0.0
C584 C 0.60657 0.14571 0.84961 0.0
C585 C 0.68494 0.17947 0.84991 0.0
C586 C 0.67347 0.15335 0.87882 0.0
C587 C 0.62184 0.11268 0.91 0.0
C588 C 0.58208 0.09767 0.9115 0.0
C589 C 0.63419 0.13688 0.87943 0.0
C590 C 0.55511 0.10588 0.88097 0.0
C591 C 0.56726 0.12956 0.85028 0.0
H592 H 0.89355 0.69242 0.84158 0.0
H593 H 0.8159 0.58843 0.8095 0.0
H594 H 0.85585 0.55282 0.85217 0.0
H595 H 0.90951 0.55198 0.9031 0.0
H596 H 0.98585 0.65614 0.93716 0.0
H597 H 0.95032 0.69064 0.88869 0.0
C598 C 0.88553 0.66196 0.84379 0.0
C599 C 0.85156 0.64328 0.82287 0.0
C600 C 0.90847 0.64158 0.86866 0.0
C601 C 0.84172 0.60368 0.82566 0.0
C602 C 0.86458 0.58317 0.84999 0.0
C603 C 0.91879 0.58205 0.89928 0.0
C604 C 0.94985 0.60162 0.92381 0.0
C605 C 0.89759 0.60193 0.8722 0.0
C606 C 0.9616 0.64062 0.9188 0.0
C607 C 0.94127 0.66039 0.89122 0.0
H608 H 0.15095 0.41044 0.21408 0.0
H609 H 0.12235 0.29633 0.16231 0.0
H610 H 0.085 0.32009 0.10648 0.0
H611 H 0.06457 0.37409 0.07011 0.0
H612 H 0.09403 0.48798 0.12288 0.0
H613 H 0.12679 0.46333 0.1806 0.0
C614 C 0.13632 0.39067 0.19075 0.0
C615 C 0.13977 0.35178 0.19209 0.0
C616 C 0.11526 0.40451 0.15875 0.0
C617 C 0.1202 0.32646 0.16192 0.0
C618 C 0.099 0.34005 0.1299 0.0
C619 C 0.07804 0.39348 0.0943 0.0
C620 C 0.07724 0.43287 0.0918 0.0
C621 C 0.09702 0.37915 0.1276 0.0
C622 C 0.09434 0.45755 0.12376 0.0
C623 C 0.11317 0.44352 0.15686 0.0
H624 H 0.1158 0.7022 0.83119 0.0
H625 H 0.11958 0.59602 0.76581 0.0
H626 H 0.08675 0.56113 0.81898 0.0
H627 H 0.07057 0.56055 0.88947 0.0
H628 H 0.07285 0.66707 0.95669 0.0
H629 H 0.09036 0.70208 0.89749 0.0
C630 C 0.1085 0.67147 0.82811 0.0
C631 C 0.1212 0.65155 0.79551 0.0
C632 C 0.09201 0.65162 0.85971 0.0
C633 C 0.11059 0.61193 0.79105 0.0
C634 C 0.09234 0.59194 0.8217 0.0
C635 C 0.07469 0.59142 0.89114 0.0
C636 C 0.07187 0.61119 0.92776 0.0
C637 C 0.08534 0.61141 0.85719 0.0
C638 C 0.07606 0.65116 0.92914 0.0
C639 C 0.08575 0.67124 0.89525 0.0
H640 H 0.40073 0.21871 0.83293 0.0
H641 H 0.28635 0.15131 0.82003 0.0
H642 H 0.30775 0.10663 0.86766 0.0
H643 H 0.35975 0.08468 0.90962 0.0
H644 H 0.4743 0.15151 0.92309 0.0
H645 H 0.45186 0.19873 0.87871 0.0
C646 C 0.38038 0.19439 0.84073 0.0
C647 C 0.34207 0.18818 0.82262 0.0
C648 C 0.39293 0.16869 0.86808 0.0
C649 C 0.31599 0.15673 0.83339 0.0
C650 C 0.32824 0.13109 0.86055 0.0
C651 C 0.37986 0.10963 0.90296 0.0
C652 C 0.41877 0.11439 0.9193 0.0
C653 C 0.36679 0.13646 0.8775 0.0
C654 C 0.4442 0.14721 0.91095 0.0
C655 C 0.43141 0.17409 0.88544 0.0
H656 H 0.78957 0.37434 0.82345 0.0
H657 H 0.84762 0.27531 0.84159 0.0
H658 H 0.8942 0.31145 0.89049 0.0
H659 H 0.92102 0.37125 0.92457 0.0
H660 H 0.86617 0.47187 0.90688 0.0
H661 H 0.81493 0.43469 0.86169 0.0
C662 C 0.81231 0.36065 0.83826 0.0
C663 C 0.81541 0.32225 0.82842 0.0
C664 C 0.83939 0.38177 0.8663 0.0
C665 C 0.84477 0.30484 0.84818 0.0
C666 C 0.87142 0.32545 0.87623 0.0
C667 C 0.8978 0.38514 0.91087 0.0
C668 C 0.89757 0.42427 0.91827 0.0
C669 C 0.86937 0.36395 0.88488 0.0
C670 C 0.86686 0.44174 0.90136 0.0
C671 C 0.83786 0.42055 0.87543 0.0
H672 H 0.67832 0.88935 0.83373 0.0
H673 H 0.57701 0.80288 0.8288 0.0
H674 H 0.54035 0.84592 0.86427 0.0
H675 H 0.53814 0.90679 0.90077 0.0
H676 H 0.63986 0.99256 0.9078 0.0
H677 H 0.67476 0.9517 0.8668 0.0
C678 C 0.64827 0.87994 0.84049 0.0
C679 C 0.63069 0.84279 0.82894 0.0
C680 C 0.62714 0.90493 0.86093 0.0
C681 C 0.59148 0.83123 0.83751 0.0
C682 C 0.57033 0.85589 0.85772 0.0
C683 C 0.56753 0.91687 0.89234 0.0
C684 C 0.58634 0.95264 0.90704 0.0
C685 C 0.58792 0.8927 0.86989 0.0
C686 C 0.62477 0.9651 0.89666 0.0
C687 C 0.64486 0.94164 0.87352 0.0
H688 H 0.79554 0.59167 0.16757 0.0
H689 H 0.86061 0.70485 0.18105 0.0
H690 H 0.90738 0.68687 0.13451 0.0
H691 H 0.93199 0.63851 0.09364 0.0
H692 H 0.86856 0.52485 0.07981 0.0
H693 H 0.81845 0.54372 0.12268 0.0
C694 C 0.81976 0.61252 0.16008 0.0
C695 C 0.82473 0.64952 0.1781 0.0
C696 C 0.84682 0.60188 0.13346 0.0
C697 C 0.85616 0.67619 0.16784 0.0
C698 C 0.88297 0.66591 0.14127 0.0
C699 C 0.9072 0.61774 0.09993 0.0
C700 C 0.90425 0.58015 0.08407 0.0
C701 C 0.87895 0.62871 0.12456 0.0
C702 C 0.8715 0.55392 0.09174 0.0
C703 C 0.843 0.56469 0.11636 0.0
H704 H 0.41212 0.85933 0.19449 0.0
H705 H 0.29723 0.82735 0.13554 0.0
H706 H 0.31327 0.87285 0.08376 0.0
H707 H 0.36171 0.9179 0.05249 0.0
H708 H 0.47719 0.94808 0.11096 0.0
H709 H 0.45886 0.90724 0.16577 0.0
C710 C 0.39044 0.86251 0.17052 0.0
C711 C 0.35375 0.83974 0.16863 0.0
C712 C 0.39997 0.88828 0.14063 0.0
C713 C 0.32586 0.84441 0.13753 0.0
C714 C 0.33499 0.87037 0.10787 0.0
C715 C 0.38271 0.9159 0.07744 0.0
C716 C 0.42084 0.93568 0.07733 0.0
C717 C 0.37224 0.8919 0.1087 0.0
C718 C 0.44769 0.93287 0.11001 0.0
C719 C 0.43731 0.9095 0.14143 0.0
H720 H 0.68033 0.24008 0.13617 0.0
H721 H 0.70289 0.15364 0.21868 0.0
H722 H 0.65165 0.10851 0.18388 0.0
H723 H 0.60306 0.09238 0.12882 0.0
H724 H 0.58244 0.17503 0.04136 0.0
H725 H 0.62906 0.22343 0.07998 0.0
C726 C 0.67416 0.21121 0.14611 0.0
C727 C 0.69515 0.2002 0.18021 0.0
C728 C 0.64456 0.18508 0.12554 0.0
C729 C 0.68663 0.16296 0.19314 0.0
C730 C 0.65739 0.13711 0.17317 0.0
C731 C 0.60828 0.12117 0.11839 0.0
C732 C 0.58945 0.13008 0.08221 0.0
C733 C 0.63628 0.14785 0.13943 0.0
C734 C 0.59622 0.16756 0.06935 0.0
C735 C 0.62339 0.19499 0.09108 0.0
H736 H 0.65043 0.71191 0.85098 0.0
H737 H 0.71906 0.6286 0.80704 0.0
H738 H 0.68589 0.58105 0.84978 0.0
H739 H 0.63392 0.5615 0.89775 0.0
H740 H 0.56692 0.64614 0.94171 0.0
H741 H 0.60298 0.69413 0.90207 0.0
C742 C 0.65825 0.68336 0.85059 0.0
C743 C 0.68723 0.67419 0.82496 0.0
C744 C 0.6394 0.65609 0.87602 0.0
C745 C 0.69697 0.6369 0.82593 0.0
C746 C 0.67792 0.60951 0.85061 0.0
C747 C 0.62815 0.59073 0.8997 0.0
C748 C 0.59799 0.60007 0.9238 0.0
C749 C 0.64883 0.61857 0.87579 0.0
C750 C 0.59026 0.63802 0.92438 0.0
C751 C 0.61067 0.66555 0.9012 0.0
H752 H 0.26582 0.63516 0.91256 0.0
H753 H 0.31599 0.6392 0.79688 0.0
H754 H 0.36453 0.60044 0.82044 0.0
H755 H 0.39478 0.56803 0.87373 0.0
H756 H 0.34756 0.56311 0.99044 0.0
H757 H 0.29532 0.59905 0.96643 0.0
C758 C 0.28727 0.62738 0.8925 0.0
C759 C 0.28733 0.64047 0.85301 0.0
C760 C 0.31556 0.60494 0.90636 0.0
C761 C 0.31526 0.6299 0.82741 0.0
C762 C 0.3431 0.60764 0.84083 0.0
C763 C 0.37309 0.57477 0.89409 0.0
C764 C 0.37534 0.5634 0.93398 0.0
C765 C 0.34382 0.59549 0.88026 0.0
C766 C 0.34645 0.57157 0.9596 0.0
C767 C 0.31678 0.59229 0.94589 0.0
H768 H 0.31627 0.30852 0.86076 0.0
H769 H 0.35108 0.35639 0.74902 0.0
H770 H 0.39792 0.40505 0.78569 0.0
H771 H 0.42651 0.43573 0.84928 0.0
H772 H 0.39199 0.38807 0.96123 0.0
H773 H 0.34789 0.33712 0.9245 0.0
C774 C 0.33415 0.32955 0.84439 0.0
C775 C 0.32988 0.32905 0.80219 0.0
C776 C 0.36112 0.35736 0.86566 0.0
C777 C 0.35365 0.35621 0.78147 0.0
C778 C 0.38043 0.38405 0.80242 0.0
C779 C 0.40953 0.41411 0.86574 0.0
C780 C 0.41231 0.41599 0.90801 0.0
C781 C 0.38405 0.38515 0.84449 0.0
C782 C 0.39047 0.38737 0.92874 0.0
C783 C 0.36506 0.35834 0.90775 0.0
H784 H 0.61758 0.36536 0.79822 0.0
H785 H 0.67707 0.33329 0.90626 0.0
H786 H 0.6403 0.37222 0.94681 0.0
H787 H 0.59296 0.41768 0.95213 0.0
H788 H 0.53415 0.4509 0.84428 0.0
H789 H 0.56844 0.40937 0.80377 0.0
C790 C 0.62234 0.36674 0.83062 0.0
C791 C 0.65031 0.34641 0.8489 0.0
C792 C 0.60112 0.38956 0.85411 0.0
C793 C 0.65596 0.34866 0.89107 0.0
C794 C 0.63486 0.37096 0.91449 0.0
C795 C 0.58731 0.41554 0.91982 0.0
C796 C 0.56103 0.43764 0.90147 0.0
C797 C 0.60758 0.39184 0.8964 0.0
C798 C 0.55439 0.43453 0.8594 0.0
C799 C 0.57403 0.41072 0.83606 0.0
H800 H 0.7281 0.37726 0.10888 0.0
H801 H 0.67692 0.37304 0.22388 0.0
H802 H 0.62655 0.40975 0.19836 0.0
H803 H 0.59457 0.43863 0.14233 0.0
H804 H 0.64495 0.44305 0.02707 0.0
H805 H 0.69872 0.41075 0.05397 0.0
C806 C 0.7061 0.38457 0.12853 0.0
C807 C 0.70599 0.372 0.16819 0.0
C808 C 0.67715 0.40546 0.11354 0.0
C809 C 0.67761 0.38222 0.19331 0.0
C810 C 0.64875 0.40307 0.17865 0.0
C811 C 0.61737 0.43259 0.12302 0.0
C812 C 0.61551 0.44259 0.08253 0.0
C813 C 0.64782 0.41409 0.13864 0.0
C814 C 0.64572 0.43552 0.05823 0.0
C815 C 0.67628 0.41693 0.07359 0.0
H816 H 0.65208 0.70265 0.16464 0.0
H817 H 0.65411 0.62819 0.26388 0.0
H818 H 0.60994 0.57879 0.2253 0.0
H819 H 0.57559 0.55502 0.16259 0.0
H820 H 0.5767 0.6258 0.05991 0.0
H821 H 0.6148 0.67854 0.10063 0.0
C822 C 0.64209 0.67584 0.1779 0.0
C823 C 0.65591 0.66904 0.21716 0.0
C824 C 0.61784 0.64685 0.15481 0.0
C825 C 0.64362 0.634 0.23385 0.0
C826 C 0.61855 0.60575 0.21174 0.0
C827 C 0.58382 0.58195 0.1488 0.0
C828 C 0.57337 0.58618 0.10795 0.0
C829 C 0.60626 0.61156 0.17198 0.0
C830 C 0.58441 0.62157 0.09114 0.0
C831 C 0.60622 0.65173 0.11446 0.0
H832 H 0.37705 0.64928 0.20267 0.0
H833 H 0.32486 0.67977 0.08998 0.0
H834 H 0.35879 0.63469 0.05399 0.0
H835 H 0.40296 0.58633 0.05416 0.0
H836 H 0.45401 0.55415 0.16661 0.0
H837 H 0.4211 0.60024 0.20283 0.0
C838 C 0.3731 0.64606 0.17026 0.0
C839 C 0.34844 0.66801 0.14917 0.0
C840 C 0.39264 0.61985 0.14958 0.0
C841 C 0.34362 0.66333 0.10711 0.0
C842 C 0.36309 0.63756 0.08639 0.0
C843 C 0.40714 0.58956 0.08658 0.0
C844 C 0.43103 0.56685 0.10759 0.0
C845 C 0.3877 0.61571 0.10729 0.0
C846 C 0.43571 0.57117 0.14966 0.0
C847 C 0.41689 0.59754 0.17043 0.0
H848 H 0.27617 0.35834 0.17067 0.0
H849 H 0.358 0.27984 0.19741 0.0
H850 H 0.40517 0.31436 0.15555 0.0
H851 H 0.42493 0.36771 0.11243 0.0
H852 H 0.34344 0.44541 0.082 0.0
H853 H 0.29494 0.41036 0.12308 0.0
C854 C 0.30435 0.3488 0.16743 0.0
C855 C 0.31319 0.31625 0.18798 0.0
C856 C 0.33164 0.36864 0.14211 0.0
C857 C 0.34989 0.30444 0.18246 0.0
C858 C 0.37713 0.32432 0.15832 0.0
C859 C 0.39643 0.37696 0.11428 0.0
C860 C 0.38834 0.40958 0.09363 0.0
C861 C 0.36851 0.35651 0.13805 0.0
C862 C 0.35086 0.42047 0.09683 0.0
C863 C 0.32307 0.40048 0.1208 0.0
H864 H 0.89842 0.70486 0.65438 0.0
H865 H 0.81277 0.61309 0.68813 0.0
H866 H 0.85135 0.56659 0.66032 0.0
H867 H 0.91181 0.5523 0.63016 0.0
H868 H 0.99636 0.64496 0.59597 0.0
H869 H 0.95608 0.69089 0.62083 0.0
C870 C 0.88788 0.67467 0.65519 0.0
C871 C 0.85284 0.66243 0.67335 0.0
C872 C 0.91042 0.6483 0.63977 0.0
C873 C 0.83945 0.62325 0.67396 0.0
C874 C 0.86175 0.59668 0.65849 0.0
C875 C 0.92149 0.58256 0.62848 0.0
C876 C 0.95733 0.59525 0.61184 0.0
C877 C 0.89774 0.60889 0.64214 0.0
C878 C 0.96906 0.6345 0.60891 0.0
C879 C 0.94599 0.66077 0.62298 0.0
H880 H 0.30329 0.88714 0.65311 0.0
H881 H 0.37937 0.89254 0.76038 0.0
H882 H 0.42604 0.94132 0.7317 0.0
H883 H 0.4501 0.97057 0.67094 0.0
H884 H 0.37454 0.96148 0.56241 0.0
H885 H 0.3217 0.92692 0.59731 0.0
C886 C 0.32976 0.89982 0.67034 0.0
C887 C 0.33914 0.88621 0.70782 0.0
C888 C 0.3563 0.92678 0.65342 0.0
C889 C 0.3725 0.9028 0.73099 0.0
C890 C 0.399 0.93039 0.7146 0.0
C891 C 0.42182 0.96178 0.65517 0.0
C892 C 0.41665 0.96681 0.61384 0.0
C893 C 0.3921 0.94087 0.67497 0.0
C894 C 0.37954 0.95656 0.59399 0.0
C895 C 0.34934 0.93684 0.61384 0.0
H896 H 0.11261 0.27585 0.65628 0.0
H897 H 0.2031 0.36635 0.69999 0.0
H898 H 0.17158 0.41189 0.66086 0.0
H899 H 0.11485 0.42694 0.62007 0.0
H900 H 0.0251 0.33678 0.57448 0.0
H901 H 0.05996 0.28985 0.60831 0.0
C902 C 0.1257 0.30547 0.65677 0.0
C903 C 0.15984 0.31787 0.68138 0.0
C904 C 0.10739 0.33146 0.63421 0.0
C905 C 0.17685 0.35614 0.68131 0.0
C906 C 0.1587 0.38221 0.65916 0.0
C907 C 0.10314 0.39693 0.61727 0.0
C908 C 0.0672 0.38523 0.59551 0.0
C909 C 0.12342 0.37035 0.63647 0.0
C910 C 0.05266 0.34632 0.59127 0.0
C911 C 0.07249 0.31961 0.61072 0.0
H912 H 0.63476 0.23907 0.65357 0.0
H913 H 0.73696 0.18139 0.65372 0.0
H914 H 0.70522 0.13595 0.60222 0.0
H915 H 0.64491 0.10588 0.56641 0.0
H916 H 0.54155 0.16115 0.56602 0.0
H917 H 0.57733 0.21463 0.60713 0.0
C918 C 0.65025 0.21705 0.64162 0.0
C919 C 0.68763 0.21291 0.65832 0.0
C920 C 0.63157 0.19042 0.612 0.0
C921 C 0.70766 0.18454 0.64223 0.0
C922 C 0.68965 0.15855 0.6126 0.0
C923 C 0.63072 0.13033 0.5742 0.0
C924 C 0.59084 0.12966 0.56362 0.0
C925 C 0.65107 0.1602 0.59863 0.0
C926 C 0.57248 0.16133 0.57366 0.0
C927 C 0.59277 0.19162 0.59766 0.0
H928 H 0.86985 0.32185 0.29438 0.0
H929 H 0.78834 0.3246 0.38743 0.0
H930 H 0.84063 0.35749 0.43343 0.0
H931 H 0.90838 0.38972 0.44544 0.0
H932 H 0.98832 0.39044 0.35119 0.0
H933 H 0.93789 0.35148 0.30729 0.0
C934 C 0.86345 0.32949 0.32475 0.0
C935 C 0.82511 0.32095 0.3373 0.0
C936 C 0.89349 0.34873 0.35084 0.0
C937 C 0.81749 0.33102 0.37685 0.0
C938 C 0.8474 0.34973 0.40323 0.0
C939 C 0.91496 0.38008 0.4158 0.0
C940 C 0.95205 0.39172 0.40172 0.0
C941 C 0.88539 0.35907 0.39041 0.0
C942 C 0.96008 0.38088 0.36268 0.0
C943 C 0.93119 0.35901 0.33758 0.0
H944 H 0.67656 0.88137 0.38167 0.0
H945 H 0.5918 0.81304 0.29992 0.0
H946 H 0.53881 0.841 0.3298 0.0
H947 H 0.51672 0.8863 0.37813 0.0
H948 H 0.60165 0.95232 0.46162 0.0
H949 H 0.65432 0.9239 0.43206 0.0
C950 C 0.64647 0.87249 0.3705 0.0
C951 C 0.63815 0.84533 0.33854 0.0
C952 C 0.61617 0.8884 0.38802 0.0
C953 C 0.59899 0.83383 0.32462 0.0
C954 C 0.56867 0.84993 0.34156 0.0
C955 C 0.54678 0.89444 0.38976 0.0
C956 C 0.5553 0.92149 0.42184 0.0
C957 C 0.57695 0.8775 0.37305 0.0
C958 C 0.59431 0.93144 0.43701 0.0
C959 C 0.62448 0.91528 0.42008 0.0
H960 H 0.11812 0.74973 0.39874 0.0
H961 H 0.21617 0.69081 0.37553 0.0
H962 H 0.18443 0.63429 0.40678 0.0
H963 H 0.12452 0.59911 0.4313 0.0
H964 H 0.02716 0.65849 0.4558 0.0
H965 H 0.06281 0.71766 0.4332 0.0
C966 C 0.13288 0.72478 0.4015 0.0
C967 C 0.16895 0.72395 0.38449 0.0
C968 C 0.11424 0.69241 0.41882 0.0
C969 C 0.18831 0.69191 0.38854 0.0
C970 C 0.16998 0.6595 0.40592 0.0
C971 C 0.1114 0.62517 0.43187 0.0
C972 C 0.07317 0.62468 0.44403 0.0
C973 C 0.13224 0.65897 0.4195 0.0
C974 C 0.05651 0.65849 0.44595 0.0
C975 C 0.07683 0.69217 0.43313 0.0
H976 H 0.3684 0.19206 0.33963 0.0
H977 H 0.26209 0.11692 0.35753 0.0
H978 H 0.2977 0.07988 0.40308 0.0
H979 H 0.3604 0.06211 0.427 0.0
H980 H 0.46752 0.13544 0.40836 0.0
H981 H 0.43042 0.18025 0.37405 0.0
C982 C 0.35299 0.1684 0.3547 0.0
C983 C 0.31308 0.1566 0.34495 0.0
C984 C 0.3739 0.14645 0.37981 0.0
C985 C 0.29309 0.12597 0.36437 0.0
C986 C 0.3134 0.10468 0.39016 0.0
C987 C 0.37543 0.08822 0.41588 0.0
C988 C 0.41632 0.09532 0.41903 0.0
C989 C 0.35406 0.11346 0.39625 0.0
C990 C 0.43584 0.12949 0.40566 0.0
C991 C 0.41471 0.15497 0.38605 0.0
H992 H 0.60713 0.80922 0.67314 0.0
H993 H 0.71693 0.88107 0.66106 0.0
H994 H 0.68468 0.92213 0.61747 0.0
H995 H 0.62423 0.94327 0.592 0.0
H996 H 0.51364 0.87314 0.60407 0.0
H997 H 0.54704 0.82568 0.63835 0.0
C998 C 0.62398 0.83319 0.65987 0.0
C999 C 0.66404 0.84254 0.67056 0.0
C1000 C 0.60502 0.85746 0.63569 0.0
C1001 C 0.68585 0.87365 0.65345 0.0
C1002 C 0.66746 0.8973 0.62875 0.0
C1003 C 0.60761 0.91738 0.60185 0.0
C1004 C 0.56679 0.91184 0.59659 0.0
C1005 C 0.62687 0.89048 0.6213 0.0
C1006 C 0.54529 0.87792 0.60834 0.0
C1007 C 0.5643 0.85088 0.62792 0.0
H1008 H 0.63891 0.12052 0.29591 0.0
H1009 H 0.6489 0.20969 0.38865 0.0
H1010 H 0.60762 0.16795 0.43036 0.0
H1011 H 0.57096 0.10591 0.44097 0.0
H1012 H 0.55848 0.0174 0.34767 0.0
H1013 H 0.60005 0.05909 0.30552 0.0
C1014 C 0.63177 0.13087 0.32514 0.0
C1015 C 0.64692 0.16777 0.33951 0.0
C1016 C 0.60864 0.10675 0.34894 0.0
C1017 C 0.63726 0.18128 0.37706 0.0
C1018 C 0.61412 0.15739 0.40103 0.0
C1019 C 0.57803 0.09562 0.41168 0.0
C1020 C 0.56286 0.05879 0.39734 0.0
C1021 C 0.60035 0.11996 0.38748 0.0
C1022 C 0.5707 0.04575 0.35905 0.0
C1023 C 0.594 0.06954 0.33504 0.0
H1024 H 0.82327 0.65317 0.42546 0.0
H1025 H 0.81179 0.59314 0.30988 0.0
H1026 H 0.85411 0.54874 0.335 0.0
H1027 H 0.90116 0.53215 0.38659 0.0
H1028 H 0.91369 0.59182 0.50221 0.0
H1029 H 0.86362 0.63044 0.48054 0.0
C1030 C 0.82947 0.62999 0.40598 0.0
C1031 C 0.81493 0.62706 0.3656 0.0
C1032 C 0.85424 0.60453 0.42053 0.0
C1033 C 0.82293 0.59651 0.34094 0.0
C1034 C 0.84723 0.57104 0.35524 0.0
C1035 C 0.89244 0.55314 0.40732 0.0
C1036 C 0.91157 0.55947 0.44569 0.0
C1037 C 0.86412 0.5756 0.3945 0.0
C1038 C 0.89948 0.58635 0.47244 0.0
C1039 C 0.87106 0.60871 0.45995 0.0
H1040 H 0.35704 0.7717 0.36079 0.0
H1041 H 0.27256 0.84519 0.32642 0.0
H1042 H 0.29236 0.88633 0.38547 0.0
H1043 H 0.34355 0.90949 0.43617 0.0
H1044 H 0.43701 0.84378 0.46292 0.0
H1045 H 0.4036 0.79111 0.41923 0.0
C1046 C 0.34232 0.79614 0.36701 0.0
C1047 C 0.31253 0.8049 0.33989 0.0
C1048 C 0.35601 0.82137 0.39965 0.0
C1049 C 0.29415 0.83692 0.34782 0.0
C1050 C 0.30603 0.86089 0.38125 0.0
C1051 C 0.35587 0.88304 0.43349 0.0
C1052 C 0.39296 0.88073 0.45172 0.0
C1053 C 0.3382 0.85444 0.40606 0.0
C1054 C 0.40847 0.84625 0.44889 0.0
C1055 C 0.3897 0.8164 0.42333 0.0
H1056 H 0.20096 0.39263 0.34538 0.0
H1057 H 0.17154 0.29799 0.42107 0.0
H1058 H 0.13769 0.33761 0.46435 0.0
H1059 H 0.1074 0.39593 0.47426 0.0
H1060 H 0.13519 0.48957 0.39699 0.0
H1061 H 0.17926 0.45398 0.36163 0.0
C1062 C 0.18783 0.38083 0.37178 0.0
C1063 C 0.18825 0.34214 0.37941 0.0
C1064 C 0.16782 0.40364 0.39631 0.0
C1065 C 0.1714 0.32755 0.41408 0.0
C1066 C 0.15187 0.35019 0.4389 0.0
C1067 C 0.12415 0.40904 0.45062 0.0
C1068 C 0.11766 0.44521 0.43803 0.0
C1069 C 0.14861 0.38787 0.42945 0.0
C1070 C 0.13938 0.46164 0.40707 0.0
C1071 C 0.16442 0.44119 0.38661 0.0
H1072 H 0.31201 0.12639 0.63109 0.0
H1073 H 0.39756 0.21854 0.68088 0.0
H1074 H 0.45023 0.18772 0.65409 0.0
H1075 H 0.472 0.13356 0.61773 0.0
H1076 H 0.38582 0.0436 0.56487 0.0
H1077 H 0.33327 0.07429 0.59203 0.0
C1078 C 0.34218 0.13981 0.63587 0.0
C1079 C 0.35096 0.17454 0.65796 0.0
C1080 C 0.37215 0.12213 0.62019 0.0
C1081 C 0.39009 0.19186 0.66369 0.0
C1082 C 0.42022 0.17415 0.64865 0.0
C1083 C 0.44168 0.12074 0.61248 0.0
C1084 C 0.43254 0.08638 0.58983 0.0
C1085 C 0.41162 0.13909 0.62719 0.0
C1086 C 0.39329 0.07013 0.58236 0.0
C1087 C 0.36332 0.08763 0.5978 0.0
H1088 H 0.81219 0.3032 0.58443 0.0
H1089 H 0.80018 0.37074 0.69173 0.0
H1090 H 0.84248 0.42423 0.66641 0.0
H1091 H 0.89225 0.44702 0.62022 0.0
H1092 H 0.90757 0.37821 0.5151 0.0
H1093 H 0.85387 0.33055 0.53247 0.0
C1094 C 0.81799 0.32992 0.60184 0.0
C1095 C 0.80388 0.33264 0.64036 0.0
C1096 C 0.84327 0.36028 0.5876 0.0
C1097 C 0.81126 0.36765 0.66228 0.0
C1098 C 0.83557 0.39825 0.6479 0.0
C1099 C 0.88318 0.42198 0.60064 0.0
C1100 C 0.90408 0.41589 0.56669 0.0
C1101 C 0.85327 0.39416 0.6116 0.0
C1102 C 0.89174 0.38368 0.54121 0.0
C1103 C 0.86135 0.35617 0.55145 0.0
H1104 H 0.22384 0.63423 0.69314 0.0
H1105 H 0.21557 0.71784 0.60364 0.0
H1106 H 0.17019 0.67162 0.56155 0.0
H1107 H 0.12411 0.61143 0.55654 0.0
H1108 H 0.1306 0.53004 0.64906 0.0
H1109 H 0.18536 0.57127 0.68352 0.0
C1110 C 0.21271 0.64206 0.66401 0.0
C1111 C 0.22241 0.67946 0.65176 0.0
C1112 C 0.18575 0.61588 0.64084 0.0
C1113 C 0.20848 0.68915 0.6137 0.0
C1114 C 0.18219 0.66285 0.58986 0.0
C1115 C 0.13821 0.60229 0.58366 0.0
C1116 C 0.12281 0.56798 0.60057 0.0
C1117 C 0.16925 0.62668 0.60401 0.0
C1118 C 0.14142 0.55657 0.63575 0.0
C1119 C 0.17277 0.58013 0.65552 0.0
loop_
_geom_bond_atom_site_label_1
_geom_bond_atom_site_label_2
_geom_bond_distance
_geom_bond_site_symmetry_2
_ccdc_geom_bond_type
Zn0 O6 1.969 . S
Zn0 O7 1.965 . S
Zn0 O11 2.024 . S
Zn0 O16 1.969 . S
Zn1 O8 1.969 . S
Zn1 O14 1.969 . S
Zn1 O15 1.965 . S
Zn1 O17 2.024 . S
C2 O3 1.229 . S
C2 O11 1.058 . S
O3 C2 1.229 . S
C4 O5 1.229 . S
C4 O17 1.058 . S
O5 C4 1.229 . S
O6 Zn0 1.969 . S
O6 C9 1.267 . S
O7 Zn0 1.965 . S
O7 C18 1.260 . S
O8 Zn1 1.969 . S
O8 C18 1.258 . S
C9 O6 1.267 . S
C9 O10 1.228 . S
O10 C9 1.228 . S
O11 Zn0 2.024 . S
O11 C2 1.058 . S
C12 O13 1.228 . S
C12 O14 1.267 . S
O13 C12 1.228 . S
O14 Zn1 1.969 . S
O14 C12 1.267 . S
O15 Zn1 1.965 . S
O15 C19 1.260 . S
O16 Zn0 1.969 . S
O16 C19 1.258 . S
O17 Zn1 2.024 . S
O17 C4 1.058 . S
C18 O7 1.260 . S
C18 O8 1.258 . S
C19 O15 1.260 . S
C19 O16 1.258 . S
Zn20 O26 1.969 . S
Zn20 O27 1.965 . S
Zn20 O31 2.024 . S
Zn20 O36 1.969 . S
Zn21 O28 1.969 . S
Zn21 O34 1.969 . S
Zn21 O35 1.965 . S
Zn21 O37 2.024 . S
C22 O23 1.229 . S
C22 O31 1.058 . S
O23 C22 1.229 . S
C24 O25 1.229 . S
C24 O37 1.058 . S
O25 C24 1.229 . S
O26 Zn20 1.969 . S
O26 C29 1.267 . S
O27 Zn20 1.965 . S
O27 C38 1.260 . S
O28 Zn21 1.969 . S
O28 C38 1.258 . S
C29 O26 1.267 . S
C29 O30 1.228 . S
O30 C29 1.228 . S
O31 Zn20 2.024 . S
O31 C22 1.058 . S
C32 O33 1.228 . S
C32 O34 1.267 . S
O33 C32 1.228 . S
O34 Zn21 1.969 . S
O34 C32 1.267 . S
O35 Zn21 1.965 . S
O35 C39 1.260 . S
O36 Zn20 1.969 . S
O36 C39 1.258 . S
O37 Zn21 2.024 . S
O37 C24 1.058 . S
C38 O27 1.260 . S
C38 O28 1.258 . S
C39 O35 1.260 . S
C39 O36 1.258 . S
Zn40 O46 1.969 . S
Zn40 O47 1.965 . S
Zn40 O51 2.024 . S
Zn40 O56 1.969 . S
Zn41 O48 1.969 . S
Zn41 O54 1.969 . S
Zn41 O55 1.965 . S
Zn41 O57 2.024 . S
C42 O43 1.229 . S
C42 O51 1.058 . S
O43 C42 1.229 . S
C44 O45 1.229 . S
C44 O57 1.058 . S
O45 C44 1.229 . S
O46 Zn40 1.969 . S
O46 C49 1.267 . S
O47 Zn40 1.965 . S
O47 C58 1.260 . S
O48 Zn41 1.969 . S
O48 C58 1.258 . S
C49 O46 1.267 . S
C49 O50 1.228 . S
O50 C49 1.228 . S
O51 Zn40 2.024 . S
O51 C42 1.058 . S
C52 O53 1.228 . S
C52 O54 1.267 . S
O53 C52 1.228 . S
O54 Zn41 1.969 . S
O54 C52 1.267 . S
O55 Zn41 1.965 . S
O55 C59 1.260 . S
O56 Zn40 1.969 . S
O56 C59 1.258 . S
O57 Zn41 2.024 . S
O57 C44 1.058 . S
C58 O47 1.260 . S
C58 O48 1.258 . S
C59 O55 1.260 . S
C59 O56 1.258 . S
Zn60 O66 1.969 . S
Zn60 O67 1.965 . S
Zn60 O71 2.024 . S
Zn60 O76 1.969 . S
Zn61 O68 1.969 . S
Zn61 O74 1.969 . S
Zn61 O75 1.965 . S
Zn61 O77 2.024 . S
C62 O63 1.229 . S
C62 O71 1.058 . S
O63 C62 1.229 . S
C64 O65 1.229 . S
C64 O77 1.058 . S
O65 C64 1.229 . S
O66 Zn60 1.969 . S
O66 C69 1.267 . S
O67 Zn60 1.965 . S
O67 C78 1.260 . S
O68 Zn61 1.969 . S
O68 C78 1.258 . S
C69 O66 1.267 . S
C69 O70 1.228 . S
O70 C69 1.228 . S
O71 Zn60 2.024 . S
O71 C62 1.058 . S
C72 O73 1.228 . S
C72 O74 1.267 . S
O73 C72 1.228 . S
O74 Zn61 1.969 . S
O74 C72 1.267 . S
O75 Zn61 1.965 . S
O75 C79 1.260 . S
O76 Zn60 1.969 . S
O76 C79 1.258 . S
O77 Zn61 2.024 . S
O77 C64 1.058 . S
C78 O67 1.260 . S
C78 O68 1.258 . S
C79 O75 1.260 . S
C79 O76 1.258 . S
Zn80 O86 1.969 . S
Zn80 O87 1.965 . S
Zn80 O91 2.024 . S
Zn80 O96 1.969 . S
Zn81 O88 1.969 . S
Zn81 O94 1.969 . S
Zn81 O95 1.965 . S
Zn81 O97 2.024 . S
C82 O83 1.229 . S
C82 O91 1.058 . S
O83 C82 1.229 . S
C84 O85 1.229 . S
C84 O97 1.058 . S
O85 C84 1.229 . S
O86 Zn80 1.969 . S
O86 C89 1.267 . S
O87 Zn80 1.965 . S
O87 C98 1.260 . S
O88 Zn81 1.969 . S
O88 C98 1.258 . S
C89 O86 1.267 . S
C89 O90 1.228 . S
O90 C89 1.228 . S
O91 Zn80 2.024 . S
O91 C82 1.058 . S
C92 O93 1.228 . S
C92 O94 1.267 . S
O93 C92 1.228 . S
O94 Zn81 1.969 . S
O94 C92 1.267 . S
O95 Zn81 1.965 . S
O95 C99 1.260 . S
O96 Zn80 1.969 . S
O96 C99 1.258 . S
O97 Zn81 2.024 . S
O97 C84 1.058 . S
C98 O87 1.260 . S
C98 O88 1.258 . S
C99 O95 1.260 . S
C99 O96 1.258 . S
Zn100 O106 1.969 . S
Zn100 O107 1.965 . S
Zn100 O111 2.024 . S
Zn100 O116 1.969 . S
Zn101 O108 1.969 . S
Zn101 O114 1.969 . S
Zn101 O115 1.965 . S
Zn101 O117 2.024 . S
C102 O103 1.229 . S
C102 O111 1.058 . S
O103 C102 1.229 . S
C104 O105 1.229 . S
C104 O117 1.058 . S
O105 C104 1.229 . S
O106 Zn100 1.969 . S
O106 C109 1.267 . S
O107 Zn100 1.965 . S
O107 C118 1.260 . S
O108 Zn101 1.969 . S
O108 C118 1.258 . S
C109 O106 1.267 . S
C109 O110 1.228 . S
O110 C109 1.228 . S
O111 Zn100 2.024 . S
O111 C102 1.058 . S
C112 O113 1.228 . S
C112 O114 1.267 . S
O113 C112 1.228 . S
O114 Zn101 1.969 . S
O114 C112 1.267 . S
O115 Zn101 1.965 . S
O115 C119 1.260 . S
O116 Zn100 1.969 . S
O116 C119 1.258 . S
O117 Zn101 2.024 . S
O117 C104 1.058 . S
C118 O107 1.260 . S
C118 O108 1.258 . S
C119 O115 1.260 . S
C119 O116 1.258 . S
Zn120 O126 1.969 . S
Zn120 O127 1.965 . S
Zn120 O131 2.024 . S
Zn120 O136 1.969 . S
Zn121 O128 1.969 . S
Zn121 O134 1.969 . S
Zn121 O135 1.965 . S
Zn121 O137 2.024 . S
C122 O123 1.229 . S
C122 O131 1.058 . S
O123 C122 1.229 . S
C124 O125 1.229 . S
C124 O137 1.058 . S
O125 C124 1.229 . S
O126 Zn120 1.969 . S
O126 C129 1.267 . S
O127 Zn120 1.965 . S
O127 C138 1.260 . S
O128 Zn121 1.969 . S
O128 C138 1.258 . S
C129 O126 1.267 . S
C129 O130 1.228 . S
O130 C129 1.228 . S
O131 Zn120 2.024 . S
O131 C122 1.058 . S
C132 O133 1.228 . S
C132 O134 1.267 . S
O133 C132 1.228 . S
O134 Zn121 1.969 . S
O134 C132 1.267 . S
O135 Zn121 1.965 . S
O135 C139 1.260 . S
O136 Zn120 1.969 . S
O136 C139 1.258 . S
O137 Zn121 2.024 . S
O137 C124 1.058 . S
C138 O127 1.260 . S
C138 O128 1.258 . S
C139 O135 1.260 . S
C139 O136 1.258 . S
Zn140 O146 1.969 . S
Zn140 O147 1.965 . S
Zn140 O151 2.024 . S
Zn140 O156 1.969 . S
Zn141 O148 1.969 . S
Zn141 O154 1.969 . S
Zn141 O155 1.965 . S
Zn141 O157 2.024 . S
C142 O143 1.229 . S
C142 O151 1.058 . S
O143 C142 1.229 . S
C144 O145 1.229 . S
C144 O157 1.058 . S
O145 C144 1.229 . S
O146 Zn140 1.969 . S
O146 C149 1.267 . S
O147 Zn140 1.965 . S
O147 C158 1.260 . S
O148 Zn141 1.969 . S
O148 C158 1.258 . S
C149 O146 1.267 . S
C149 O150 1.228 . S
O150 C149 1.228 . S
O151 Zn140 2.024 . S
O151 C142 1.058 . S
C152 O153 1.228 . S
C152 O154 1.267 . S
O153 C152 1.228 . S
O154 Zn141 1.969 . S
O154 C152 1.267 . S
O155 Zn141 1.965 . S
O155 C159 1.260 . S
O156 Zn140 1.969 . S
O156 C159 1.258 . S
O157 Zn141 2.024 . S
O157 C144 1.058 . S
C158 O147 1.260 . S
C158 O148 1.258 . S
C159 O155 1.260 . S
C159 O156 1.258 . S
Fe160 O161 1.886 1_455 S
Fe160 O164 1.715 . S
Fe160 O169 2.077 1_455 S
Fe160 O174 1.935 . S
Fe160 O180 2.077 1_455 S
Fe160 O189 1.935 . S
O161 Fe160 1.886 1_655 S
O161 Fe163 1.715 1_545 S
Fe162 O164 1.886 . S
Fe162 O165 1.715 1_545 S
Fe162 O172 1.935 1_545 S
Fe162 O173 2.077 . S
Fe162 O179 1.935 1_545 S
Fe162 O188 2.077 . S
Fe163 O161 1.715 1_565 S
Fe163 O166 1.886 . S
Fe163 O170 1.935 1_565 S
Fe163 O175 2.077 . S
Fe163 O181 1.935 1_565 S
Fe163 O185 2.077 . S
O164 Fe160 1.715 . S
O164 Fe162 1.886 . S
O165 Fe162 1.715 1_565 S
O165 Fe167 1.886 1_455 S
O166 Fe163 1.886 . S
O166 Fe167 1.715 . S
Fe167 O165 1.886 1_655 S
Fe167 O166 1.715 . S
Fe167 O171 2.077 1_655 S
Fe167 O176 1.935 . S
Fe167 O178 2.077 1_655 S
Fe167 O186 1.935 . S
C168 O180 1.381 . S
C168 O181 1.421 . S
O169 Fe160 2.077 1_655 S
O169 C182 1.381 . S
O170 Fe163 1.935 1_545 S
O170 C182 1.421 . S
O171 Fe167 2.077 1_455 S
O171 C187 1.381 . S
O172 Fe162 1.935 1_565 S
O172 C187 1.421 . S
O173 Fe162 2.077 . S
O173 C177 1.381 . S
O174 Fe160 1.935 . S
O174 C177 1.421 . S
O175 Fe163 2.077 . S
O175 C183 1.381 . S
O176 Fe167 1.935 . S
O176 C183 1.421 . S
C177 O173 1.381 . S
C177 O174 1.421 . S
O178 Fe167 2.077 1_455 S
O178 C190 1.381 . S
O179 Fe162 1.935 1_565 S
O179 C190 1.421 . S
O180 Fe160 2.077 1_655 S
O180 C168 1.381 . S
O181 Fe163 1.935 1_545 S
O181 C168 1.421 . S
C182 O169 1.381 . S
C182 O170 1.421 . S
C183 O175 1.381 . S
C183 O176 1.421 . S
C184 O185 1.381 . S
C184 O186 1.421 . S
O185 Fe163 2.077 . S
O185 C184 1.381 . S
O186 Fe167 1.935 . S
O186 C184 1.421 . S
C187 O171 1.381 . S
C187 O172 1.421 . S
O188 Fe162 2.077 . S
O188 C191 1.381 . S
O189 Fe160 1.935 . S
O189 C191 1.421 . S
C190 O178 1.381 . S
C190 O179 1.421 . S
C191 O188 1.381 . S
C191 O189 1.421 . S
Fe192 O193 1.887 1_556 S
Fe192 O196 1.715 . S
Fe192 O201 2.077 . S
Fe192 O206 1.935 . S
Fe192 O212 2.077 1_556 S
Fe192 O221 1.935 1_556 S
O193 Fe192 1.887 1_554 S
O193 Fe195 1.714 1_565 S
Fe194 O196 1.886 . S
Fe194 O197 1.714 1_565 S
Fe194 O204 1.935 1_565 S
Fe194 O205 2.077 . S
Fe194 O211 1.935 1_566 S
Fe194 O220 2.077 1_556 S
Fe195 O193 1.714 1_545 S
Fe195 O198 1.886 . S
Fe195 O202 1.935 1_544 S
Fe195 O207 2.077 1_554 S
Fe195 O213 1.935 1_545 S
Fe195 O217 2.077 . S
O196 Fe192 1.715 . S
O196 Fe194 1.886 . S
O197 Fe194 1.714 1_545 S
O197 Fe199 1.886 1_556 S
O198 Fe195 1.886 . S
O198 Fe199 1.715 . S
Fe199 O197 1.886 1_554 S
Fe199 O198 1.715 . S
Fe199 O203 2.077 1_554 S
Fe199 O208 1.935 1_554 S
Fe199 O210 2.077 . S
Fe199 O218 1.935 . S
C200 O212 1.381 . S
C200 O213 1.421 . S
O201 Fe192 2.077 . S
O201 C214 1.381 . S
O202 Fe195 1.935 1_566 S
O202 C214 1.421 . S
O203 Fe199 2.077 1_556 S
O203 C219 1.381 . S
O204 Fe194 1.935 1_545 S
O204 C219 1.421 . S
O205 Fe194 2.077 . S
O205 C209 1.381 . S
O206 Fe192 1.935 . S
O206 C209 1.421 . S
O207 Fe195 2.077 1_556 S
O207 C215 1.381 . S
O208 Fe199 1.935 1_556 S
O208 C215 1.421 . S
C209 O205 1.381 . S
C209 O206 1.421 . S
O210 Fe199 2.077 . S
O210 C222 1.381 . S
O211 Fe194 1.935 1_544 S
O211 C222 1.421 . S
O212 Fe192 2.077 1_554 S
O212 C200 1.381 . S
O213 Fe195 1.935 1_565 S
O213 C200 1.421 . S
C214 O201 1.381 . S
C214 O202 1.421 . S
C215 O207 1.381 . S
C215 O208 1.421 . S
C216 O217 1.381 . S
C216 O218 1.421 . S
O217 Fe195 2.077 . S
O217 C216 1.381 . S
O218 Fe199 1.935 . S
O218 C216 1.421 . S
C219 O203 1.381 . S
C219 O204 1.421 . S
O220 Fe194 2.077 1_554 S
O220 C223 1.381 . S
O221 Fe192 1.935 1_554 S
O221 C223 1.421 . S
C222 O210 1.381 . S
C222 O211 1.421 . S
C223 O220 1.381 . S
C223 O221 1.421 . S
Fe224 O225 1.887 1_454 S
Fe224 O228 1.715 . S
Fe224 O233 2.077 1_454 S
Fe224 O238 1.935 1_554 S
Fe224 O244 2.077 1_455 S
Fe224 O253 1.935 . S
O225 Fe224 1.887 1_656 S
O225 Fe227 1.714 . S
Fe226 O228 1.886 . S
Fe226 O229 1.714 . S
Fe226 O236 1.935 1_554 S
Fe226 O237 2.077 1_554 S
Fe226 O243 1.935 . S
Fe226 O252 2.077 . S
Fe227 O225 1.714 . S
Fe227 O230 1.886 . S
Fe227 O234 1.935 . S
Fe227 O239 2.077 . S
Fe227 O245 1.935 1_556 S
Fe227 O249 2.077 1_556 S
O228 Fe224 1.715 . S
O228 Fe226 1.886 . S
O229 Fe226 1.714 . S
O229 Fe231 1.887 1_454 S
O230 Fe227 1.886 . S
O230 Fe231 1.715 . S
Fe231 O229 1.887 1_656 S
Fe231 O230 1.715 . S
Fe231 O235 2.077 1_655 S
Fe231 O240 1.935 . S
Fe231 O242 2.077 1_656 S
Fe231 O250 1.935 1_556 S
C232 O244 1.381 . S
C232 O245 1.421 . S
O233 Fe224 2.077 1_656 S
O233 C246 1.381 . S
O234 Fe227 1.935 . S
O234 C246 1.421 . S
O235 Fe231 2.077 1_455 S
O235 C251 1.381 . S
O236 Fe226 1.935 1_556 S
O236 C251 1.421 . S
O237 Fe226 2.077 1_556 S
O237 C241 1.381 . S
O238 Fe224 1.935 1_556 S
O238 C241 1.421 . S
O239 Fe227 2.077 . S
O239 C247 1.381 . S
O240 Fe231 1.935 . S
O240 C247 1.421 . S
C241 O237 1.381 . S
C241 O238 1.421 . S
O242 Fe231 2.077 1_454 S
O242 C254 1.381 . S
O243 Fe226 1.935 . S
O243 C254 1.421 . S
O244 Fe224 2.077 1_655 S
O244 C232 1.381 . S
O245 Fe227 1.935 1_554 S
O245 C232 1.421 . S
C246 O233 1.381 . S
C246 O234 1.421 . S
C247 O239 1.381 . S
C247 O240 1.421 . S
C248 O249 1.381 . S
C248 O250 1.421 . S
O249 Fe227 2.077 1_554 S
O249 C248 1.381 . S
O250 Fe231 1.935 1_554 S
O250 C248 1.421 . S
C251 O235 1.381 . S
C251 O236 1.421 . S
O252 Fe226 2.077 . S
O252 C255 1.381 . S
O253 Fe224 1.935 . S
O253 C255 1.421 . S
C254 O242 1.381 . S
C254 O243 1.421 . S
C255 O252 1.381 . S
C255 O253 1.421 . S
Fe256 O257 1.886 . S
Fe256 O260 1.715 . S
Fe256 O265 2.077 . S
Fe256 O270 1.935 . S
Fe256 O276 2.077 . S
Fe256 O285 1.935 . S
O257 Fe256 1.886 . S
O257 Fe259 1.715 1_556 S
Fe258 O260 1.886 . S
Fe258 O261 1.715 1_556 S
Fe258 O268 1.935 1_556 S
Fe258 O269 2.077 . S
Fe258 O275 1.935 1_556 S
Fe258 O284 2.077 . S
Fe259 O257 1.715 1_554 S
Fe259 O262 1.886 . S
Fe259 O266 1.935 1_554 S
Fe259 O271 2.077 . S
Fe259 O277 1.935 1_554 S
Fe259 O281 2.077 . S
O260 Fe256 1.715 . S
O260 Fe258 1.886 . S
O261 Fe258 1.715 1_554 S
O261 Fe263 1.886 . S
O262 Fe259 1.886 . S
O262 Fe263 1.715 . S
Fe263 O261 1.886 . S
Fe263 O262 1.715 . S
Fe263 O267 2.077 . S
Fe263 O272 1.935 . S
Fe263 O274 2.077 . S
Fe263 O282 1.935 . S
C264 O276 1.381 . S
C264 O277 1.421 . S
O265 Fe256 2.077 . S
O265 C278 1.381 . S
O266 Fe259 1.935 1_556 S
O266 C278 1.421 . S
O267 Fe263 2.077 . S
O267 C283 1.381 . S
O268 Fe258 1.935 1_554 S
O268 C283 1.421 . S
O269 Fe258 2.077 . S
O269 C273 1.381 . S
O270 Fe256 1.935 . S
O270 C273 1.421 . S
O271 Fe259 2.077 . S
O271 C279 1.381 . S
O272 Fe263 1.935 . S
O272 C279 1.421 . S
C273 O269 1.381 . S
C273 O270 1.421 . S
O274 Fe263 2.077 . S
O274 C286 1.381 . S
O275 Fe258 1.935 1_554 S
O275 C286 1.421 . S
O276 Fe256 2.077 . S
O276 C264 1.381 . S
O277 Fe259 1.935 1_556 S
O277 C264 1.421 . S
C278 O265 1.381 . S
C278 O266 1.421 . S
C279 O271 1.381 . S
C279 O272 1.421 . S
C280 O281 1.381 . S
C280 O282 1.421 . S
O281 Fe259 2.077 . S
O281 C280 1.381 . S
O282 Fe263 1.935 . S
O282 C280 1.421 . S
C283 O267 1.381 . S
C283 O268 1.421 . S
O284 Fe258 2.077 . S
O284 C287 1.381 . S
O285 Fe256 1.935 . S
O285 C287 1.421 . S
C286 O274 1.381 . S
C286 O275 1.421 . S
C287 O284 1.381 . S
C287 O285 1.421 . S
Fe288 O289 1.884 . S
Fe288 O292 1.715 . S
Fe288 O297 2.077 1_655 S
Fe288 O302 1.935 1_655 S
Fe288 O308 2.077 . S
Fe288 O317 1.935 . S
O289 Fe288 1.884 . S
O289 Fe291 1.717 1_655 S
Fe290 O292 1.886 . S
Fe290 O293 1.717 1_655 S
Fe290 O300 1.935 1_655 S
Fe290 O301 2.077 1_655 S
Fe290 O307 1.935 . S
Fe290 O316 2.077 . S
Fe291 O289 1.717 1_455 S
Fe291 O294 1.886 . S
Fe291 O298 1.935 . S
Fe291 O303 2.077 . S
Fe291 O309 1.935 1_455 S
Fe291 O313 2.077 1_455 S
O292 Fe288 1.715 . S
O292 Fe290 1.886 . S
O293 Fe290 1.717 1_455 S
O293 Fe295 1.884 . S
O294 Fe291 1.886 . S
O294 Fe295 1.715 . S
Fe295 O293 1.884 . S
Fe295 O294 1.715 . S
Fe295 O299 2.077 . S
Fe295 O304 1.935 . S
Fe295 O306 2.077 1_455 S
Fe295 O314 1.935 1_455 S
C296 O308 1.381 . S
C296 O309 1.421 . S
O297 Fe288 2.077 1_455 S
O297 C310 1.381 . S
O298 Fe291 1.935 . S
O298 C310 1.421 . S
O299 Fe295 2.077 . S
O299 C315 1.381 . S
O300 Fe290 1.935 1_455 S
O300 C315 1.421 . S
O301 Fe290 2.077 1_455 S
O301 C305 1.381 . S
O302 Fe288 1.935 1_455 S
O302 C305 1.421 . S
O303 Fe291 2.077 . S
O303 C311 1.381 . S
O304 Fe295 1.935 . S
O304 C311 1.421 . S
C305 O301 1.381 . S
C305 O302 1.421 . S
O306 Fe295 2.077 1_655 S
O306 C318 1.381 . S
O307 Fe290 1.935 . S
O307 C318 1.421 . S
O308 Fe288 2.077 . S
O308 C296 1.381 . S
O309 Fe291 1.935 1_655 S
O309 C296 1.421 . S
C310 O297 1.381 . S
C310 O298 1.421 . S
C311 O303 1.381 . S
C311 O304 1.421 . S
C312 O313 1.381 . S
C312 O314 1.421 . S
O313 Fe291 2.077 1_655 S
O313 C312 1.381 . S
O314 Fe295 1.935 1_655 S
O314 C312 1.421 . S
C315 O299 1.381 . S
C315 O300 1.421 . S
O316 Fe290 2.077 . S
O316 C319 1.381 . S
O317 Fe288 1.935 . S
O317 C319 1.421 . S
C318 O306 1.381 . S
C318 O307 1.421 . S
C319 O316 1.381 . S
C319 O317 1.421 . S
Fe320 O321 1.886 . S
Fe320 O324 1.715 . S
Fe320 O329 2.077 . S
Fe320 O334 1.935 . S
Fe320 O340 2.077 . S
Fe320 O349 1.935 . S
O321 Fe320 1.886 . S
O321 Fe323 1.715 1_565 S
Fe322 O324 1.886 . S
Fe322 O325 1.715 1_565 S
Fe322 O332 1.935 1_565 S
Fe322 O333 2.077 . S
Fe322 O339 1.935 1_565 S
Fe322 O348 2.077 . S
Fe323 O321 1.715 1_545 S
Fe323 O326 1.886 . S
Fe323 O330 1.935 1_545 S
Fe323 O335 2.077 . S
Fe323 O341 1.935 1_545 S
Fe323 O345 2.077 . S
O324 Fe320 1.715 . S
O324 Fe322 1.886 . S
O325 Fe322 1.715 1_545 S
O325 Fe327 1.886 . S
O326 Fe323 1.886 . S
O326 Fe327 1.715 . S
Fe327 O325 1.886 . S
Fe327 O326 1.715 . S
Fe327 O331 2.077 . S
Fe327 O336 1.935 . S
Fe327 O338 2.077 . S
Fe327 O346 1.935 . S
C328 O340 1.381 . S
C328 O341 1.421 . S
O329 Fe320 2.077 . S
O329 C342 1.381 . S
O330 Fe323 1.935 1_565 S
O330 C342 1.421 . S
O331 Fe327 2.077 . S
O331 C347 1.381 . S
O332 Fe322 1.935 1_545 S
O332 C347 1.421 . S
O333 Fe322 2.077 . S
O333 C337 1.381 . S
O334 Fe320 1.935 . S
O334 C337 1.421 . S
O335 Fe323 2.077 . S
O335 C343 1.381 . S
O336 Fe327 1.935 . S
O336 C343 1.421 . S
C337 O333 1.381 . S
C337 O334 1.421 . S
O338 Fe327 2.077 . S
O338 C350 1.381 . S
O339 Fe322 1.935 1_545 S
O339 C350 1.421 . S
O340 Fe320 2.077 . S
O340 C328 1.381 . S
O341 Fe323 1.935 1_565 S
O341 C328 1.421 . S
C342 O329 1.381 . S
C342 O330 1.421 . S
C343 O335 1.381 . S
C343 O336 1.421 . S
C344 O345 1.381 . S
C344 O346 1.421 . S
O345 Fe323 2.077 . S
O345 C344 1.381 . S
O346 Fe327 1.935 . S
O346 C344 1.421 . S
C347 O331 1.381 . S
C347 O332 1.421 . S
O348 Fe322 2.077 . S
O348 C351 1.381 . S
O349 Fe320 1.935 . S
O349 C351 1.421 . S
C350 O338 1.381 . S
C350 O339 1.421 . S
C351 O348 1.381 . S
C351 O349 1.421 . S
H352 C358 0.930 . S
H353 C361 0.930 . S
H354 C362 0.930 . S
H355 C363 0.930 . S
H356 C366 0.930 . S
H357 C367 0.930 . S
C358 H352 0.930 . S
C358 C359 1.355 . S
C358 C360 1.415 . S
C359 C358 1.355 . S
C359 C361 1.419 . S
C360 C358 1.415 . S
C360 C365 1.425 . S
C360 C367 1.409 . S
C361 H353 0.930 . S
C361 C359 1.419 . S
C361 C362 1.362 . S
C362 H354 0.930 . S
C362 C361 1.362 . S
C362 C365 1.409 . S
C363 H355 0.930 . S
C363 C364 1.355 . S
C363 C365 1.415 . S
C364 C363 1.355 . S
C364 C366 1.419 . S
C365 C360 1.425 . S
C365 C362 1.409 . S
C365 C363 1.415 . S
C366 H356 0.930 . S
C366 C364 1.419 . S
C366 C367 1.362 . S
C367 H357 0.930 . S
C367 C360 1.409 . S
C367 C366 1.362 . S
H368 C374 0.930 . S
H369 C377 0.930 . S
H370 C378 0.930 . S
H371 C379 0.930 . S
H372 C382 0.930 . S
H373 C383 0.930 . S
C374 H368 0.930 . S
C374 C375 1.355 . S
C374 C376 1.415 . S
C375 C374 1.355 . S
C375 C377 1.419 . S
C376 C374 1.415 . S
C376 C381 1.425 . S
C376 C383 1.409 . S
C377 H369 0.930 . S
C377 C375 1.419 . S
C377 C378 1.362 . S
C378 H370 0.930 . S
C378 C377 1.362 . S
C378 C381 1.409 . S
C379 H371 0.930 . S
C379 C380 1.355 . S
C379 C381 1.415 . S
C380 C379 1.355 . S
C380 C382 1.419 . S
C381 C376 1.425 . S
C381 C378 1.409 . S
C381 C379 1.415 . S
C382 H372 0.930 . S
C382 C380 1.419 . S
C382 C383 1.362 . S
C383 H373 0.930 . S
C383 C376 1.409 . S
C383 C382 1.362 . S
H384 C390 0.930 . S
H385 C393 0.930 . S
H386 C394 0.930 . S
H387 C395 0.930 . S
H388 C398 0.930 . S
H389 C399 0.930 . S
C390 H384 0.930 . S
C390 C391 1.355 . S
C390 C392 1.415 . S
C391 C390 1.355 . S
C391 C393 1.419 . S
C392 C390 1.415 . S
C392 C397 1.425 . S
C392 C399 1.409 . S
C393 H385 0.930 . S
C393 C391 1.419 . S
C393 C394 1.362 . S
C394 H386 0.930 . S
C394 C393 1.362 . S
C394 C397 1.409 . S
C395 H387 0.930 . S
C395 C396 1.355 . S
C395 C397 1.415 . S
C396 C395 1.355 . S
C396 C398 1.419 . S
C397 C392 1.425 . S
C397 C394 1.409 . S
C397 C395 1.415 . S
C398 H388 0.930 . S
C398 C396 1.419 . S
C398 C399 1.362 . S
C399 H389 0.930 . S
C399 C392 1.409 . S
C399 C398 1.362 . S
H400 C406 0.930 . S
H401 C409 0.930 . S
H402 C410 0.930 . S
H403 C411 0.930 . S
H404 C414 0.930 . S
H405 C415 0.930 . S
C406 H400 0.930 . S
C406 C407 1.355 . S
C406 C408 1.415 . S
C407 C406 1.355 . S
C407 C409 1.419 . S
C408 C406 1.415 . S
C408 C413 1.425 . S
C408 C415 1.409 . S
C409 H401 0.930 . S
C409 C407 1.419 . S
C409 C410 1.362 . S
C410 H402 0.930 . S
C410 C409 1.362 . S
C410 C413 1.409 . S
C411 H403 0.930 . S
C411 C412 1.355 . S
C411 C413 1.415 . S
C412 C411 1.355 . S
C412 C414 1.419 . S
C413 C408 1.425 . S
C413 C410 1.409 . S
C413 C411 1.415 . S
C414 H404 0.930 . S
C414 C412 1.419 . S
C414 C415 1.362 . S
C415 H405 0.930 . S
C415 C408 1.409 . S
C415 C414 1.362 . S
H416 C422 0.930 . S
H417 C425 0.930 . S
H418 C426 0.930 . S
H419 C427 0.930 . S
H420 C430 0.930 . S
H421 C431 0.930 . S
C422 H416 0.930 . S
C422 C423 1.355 . S
C422 C424 1.415 . S
C423 C422 1.355 . S
C423 C425 1.419 . S
C424 C422 1.415 . S
C424 C429 1.425 . S
C424 C431 1.409 . S
C425 H417 0.930 . S
C425 C423 1.419 . S
C425 C426 1.362 . S
C426 H418 0.930 . S
C426 C425 1.362 . S
C426 C429 1.409 . S
C427 H419 0.930 . S
C427 C428 1.355 . S
C427 C429 1.415 . S
C428 C427 1.355 . S
C428 C430 1.419 . S
C429 C424 1.425 . S
C429 C426 1.409 . S
C429 C427 1.415 . S
C430 H420 0.930 . S
C430 C428 1.419 . S
C430 C431 1.362 . S
C431 H421 0.930 . S
C431 C424 1.409 . S
C431 C430 1.362 . S
H432 C438 0.930 . S
H433 C441 0.930 . S
H434 C442 0.930 . S
H435 C443 0.930 . S
H436 C446 0.930 . S
H437 C447 0.930 . S
C438 H432 0.930 . S
C438 C439 1.355 . S
C438 C440 1.415 . S
C439 C438 1.355 . S
C439 C441 1.419 . S
C440 C438 1.415 . S
C440 C445 1.425 . S
C440 C447 1.409 . S
C441 H433 0.930 . S
C441 C439 1.419 . S
C441 C442 1.362 . S
C442 H434 0.930 . S
C442 C441 1.362 . S
C442 C445 1.409 . S
C443 H435 0.930 . S
C443 C444 1.355 . S
C443 C445 1.415 . S
C444 C443 1.355 . S
C444 C446 1.419 . S
C445 C440 1.425 . S
C445 C442 1.409 . S
C445 C443 1.415 . S
C446 H436 0.930 . S
C446 C444 1.419 . S
C446 C447 1.362 . S
C447 H437 0.930 . S
C447 C440 1.409 . S
C447 C446 1.362 . S
H448 C454 0.930 . S
H449 C457 0.930 . S
H450 C458 0.930 . S
H451 C459 0.930 . S
H452 C462 0.930 . S
H453 C463 0.930 . S
C454 H448 0.930 . S
C454 C455 1.355 . S
C454 C456 1.415 . S
C455 C454 1.355 . S
C455 C457 1.419 . S
C456 C454 1.415 . S
C456 C461 1.425 . S
C456 C463 1.409 . S
C457 H449 0.930 . S
C457 C455 1.419 . S
C457 C458 1.362 . S
C458 H450 0.930 . S
C458 C457 1.362 . S
C458 C461 1.409 . S
C459 H451 0.930 . S
C459 C460 1.355 . S
C459 C461 1.415 . S
C460 C459 1.355 . S
C460 C462 1.419 . S
C461 C456 1.425 . S
C461 C458 1.409 . S
C461 C459 1.415 . S
C462 H452 0.930 . S
C462 C460 1.419 . S
C462 C463 1.362 . S
C463 H453 0.930 . S
C463 C456 1.409 . S
C463 C462 1.362 . S
H464 C470 0.930 . S
H465 C473 0.930 . S
H466 C474 0.930 . S
H467 C475 0.930 . S
H468 C478 0.930 . S
H469 C479 0.930 . S
C470 H464 0.930 . S
C470 C471 1.355 . S
C470 C472 1.415 . S
C471 C470 1.355 . S
C471 C473 1.419 . S
C472 C470 1.415 . S
C472 C477 1.425 . S
C472 C479 1.409 . S
C473 H465 0.930 . S
C473 C471 1.419 . S
C473 C474 1.362 . S
C474 H466 0.930 . S
C474 C473 1.362 . S
C474 C477 1.409 . S
C475 H467 0.930 . S
C475 C476 1.355 . S
C475 C477 1.415 . S
C476 C475 1.355 . S
C476 C478 1.419 . S
C477 C472 1.425 . S
C477 C474 1.409 . S
C477 C475 1.415 . S
C478 H468 0.930 . S
C478 C476 1.419 . S
C478 C479 1.362 . S
C479 H469 0.930 . S
C479 C472 1.409 . S
C479 C478 1.362 . S
H480 C486 0.930 . S
H481 C489 0.930 . S
H482 C490 0.930 . S
H483 C491 0.930 . S
H484 C494 0.930 . S
H485 C495 0.930 . S
C486 H480 0.930 . S
C486 C487 1.355 . S
C486 C488 1.415 . S
C487 C486 1.355 . S
C487 C489 1.419 . S
C488 C486 1.415 . S
C488 C493 1.425 . S
C488 C495 1.409 . S
C489 H481 0.930 . S
C489 C487 1.419 . S
C489 C490 1.362 . S
C490 H482 0.930 . S
C490 C489 1.362 . S
C490 C493 1.409 . S
C491 H483 0.930 . S
C491 C492 1.355 . S
C491 C493 1.415 . S
C492 C491 1.355 . S
C492 C494 1.419 . S
C493 C488 1.425 . S
C493 C490 1.409 . S
C493 C491 1.415 . S
C494 H484 0.930 . S
C494 C492 1.419 . S
C494 C495 1.362 . S
C495 H485 0.930 . S
C495 C488 1.409 . S
C495 C494 1.362 . S
H496 C502 0.930 . S
H497 C505 0.930 . S
H498 C506 0.930 . S
H499 C507 0.930 . S
H500 C510 0.930 . S
H501 C511 0.930 . S
C502 H496 0.930 . S
C502 C503 1.355 . S
C502 C504 1.415 . S
C503 C502 1.355 . S
C503 C505 1.419 . S
C504 C502 1.415 . S
C504 C509 1.425 . S
C504 C511 1.409 . S
C505 H497 0.930 . S
C505 C503 1.419 . S
C505 C506 1.362 . S
C506 H498 0.930 . S
C506 C505 1.362 . S
C506 C509 1.409 . S
C507 H499 0.930 . S
C507 C508 1.355 . S
C507 C509 1.415 . S
C508 C507 1.355 . S
C508 C510 1.419 . S
C509 C504 1.425 . S
C509 C506 1.409 . S
C509 C507 1.415 . S
C510 H500 0.930 . S
C510 C508 1.419 . S
C510 C511 1.362 . S
C511 H501 0.930 . S
C511 C504 1.409 . S
C511 C510 1.362 . S
H512 C518 0.930 . S
H513 C521 0.930 . S
H514 C522 0.930 . S
H515 C523 0.930 . S
H516 C526 0.930 . S
H517 C527 0.930 . S
C518 H512 0.930 . S
C518 C519 1.355 . S
C518 C520 1.415 . S
C519 C518 1.355 . S
C519 C521 1.419 . S
C520 C518 1.415 . S
C520 C525 1.425 . S
C520 C527 1.409 . S
C521 H513 0.930 . S
C521 C519 1.419 . S
C521 C522 1.362 . S
C522 H514 0.930 . S
C522 C521 1.362 . S
C522 C525 1.409 . S
C523 H515 0.930 . S
C523 C524 1.355 . S
C523 C525 1.415 . S
C524 C523 1.355 . S
C524 C526 1.419 . S
C525 C520 1.425 . S
C525 C522 1.409 . S
C525 C523 1.415 . S
C526 H516 0.930 . S
C526 C524 1.419 . S
C526 C527 1.362 . S
C527 H517 0.930 . S
C527 C520 1.409 . S
C527 C526 1.362 . S
H528 C534 0.930 . S
H529 C537 0.930 . S
H530 C538 0.930 . S
H531 C539 0.930 . S
H532 C542 0.930 . S
H533 C543 0.930 . S
C534 H528 0.930 . S
C534 C535 1.355 . S
C534 C536 1.415 . S
C535 C534 1.355 . S
C535 C537 1.419 . S
C536 C534 1.415 . S
C536 C541 1.425 . S
C536 C543 1.409 . S
C537 H529 0.930 . S
C537 C535 1.419 . S
C537 C538 1.362 . S
C538 H530 0.930 . S
C538 C537 1.362 . S
C538 C541 1.409 . S
C539 H531 0.930 . S
C539 C540 1.355 . S
C539 C541 1.415 . S
C540 C539 1.355 . S
C540 C542 1.419 . S
C541 C536 1.425 . S
C541 C538 1.409 . S
C541 C539 1.415 . S
C542 H532 0.930 . S
C542 C540 1.419 . S
C542 C543 1.362 . S
C543 H533 0.930 . S
C543 C536 1.409 . S
C543 C542 1.362 . S
H544 C550 0.930 . S
H545 C553 0.930 . S
H546 C554 0.930 . S
H547 C555 0.930 . S
H548 C558 0.930 . S
H549 C559 0.930 . S
C550 H544 0.930 . S
C550 C551 1.355 . S
C550 C552 1.415 . S
C551 C550 1.355 . S
C551 C553 1.419 . S
C552 C550 1.415 . S
C552 C557 1.425 . S
C552 C559 1.409 . S
C553 H545 0.930 . S
C553 C551 1.419 . S
C553 C554 1.362 . S
C554 H546 0.930 . S
C554 C553 1.362 . S
C554 C557 1.409 . S
C555 H547 0.930 . S
C555 C556 1.355 . S
C555 C557 1.415 . S
C556 C555 1.355 . S
C556 C558 1.419 . S
C557 C552 1.425 . S
C557 C554 1.409 . S
C557 C555 1.415 . S
C558 H548 0.930 . S
C558 C556 1.419 . S
C558 C559 1.362 . S
C559 H549 0.930 . S
C559 C552 1.409 . S
C559 C558 1.362 . S
H560 C566 0.930 . S
H561 C569 0.930 . S
H562 C570 0.930 . S
H563 C571 0.930 . S
H564 C574 0.930 . S
H565 C575 0.930 . S
C566 H560 0.930 . S
C566 C567 1.355 . S
C566 C568 1.415 . S
C567 C566 1.355 . S
C567 C569 1.419 . S
C568 C566 1.415 . S
C568 C573 1.425 . S
C568 C575 1.409 . S
C569 H561 0.930 . S
C569 C567 1.419 . S
C569 C570 1.362 . S
C570 H562 0.930 . S
C570 C569 1.362 . S
C570 C573 1.409 . S
C571 H563 0.930 . S
C571 C572 1.355 . S
C571 C573 1.415 . S
C572 C571 1.355 . S
C572 C574 1.419 . S
C573 C568 1.425 . S
C573 C570 1.409 . S
C573 C571 1.415 . S
C574 H564 0.930 . S
C574 C572 1.419 . S
C574 C575 1.362 . S
C575 H565 0.930 . S
C575 C568 1.409 . S
C575 C574 1.362 . S
H576 C582 0.930 . S
H577 C585 0.930 . S
H578 C586 0.930 . S
H579 C587 0.930 . S
H580 C590 0.930 . S
H581 C591 0.930 . S
C582 H576 0.930 . S
C582 C583 1.355 . S
C582 C584 1.415 . S
C583 C582 1.355 . S
C583 C585 1.419 . S
C584 C582 1.415 . S
C584 C589 1.425 . S
C584 C591 1.409 . S
C585 H577 0.930 . S
C585 C583 1.419 . S
C585 C586 1.362 . S
C586 H578 0.930 . S
C586 C585 1.362 . S
C586 C589 1.409 . S
C587 H579 0.930 . S
C587 C588 1.355 . S
C587 C589 1.415 . S
C588 C587 1.355 . S
C588 C590 1.419 . S
C589 C584 1.425 . S
C589 C586 1.409 . S
C589 C587 1.415 . S
C590 H580 0.930 . S
C590 C588 1.419 . S
C590 C591 1.362 . S
C591 H581 0.930 . S
C591 C584 1.409 . S
C591 C590 1.362 . S
H592 C598 0.930 . S
H593 C601 0.930 . S
H594 C602 0.930 . S
H595 C603 0.930 . S
H596 C606 0.930 . S
H597 C607 0.930 . S
C598 H592 0.930 . S
C598 C599 1.355 . S
C598 C600 1.415 . S
C599 C598 1.355 . S
C599 C601 1.419 . S
C600 C598 1.415 . S
C600 C605 1.425 . S
C600 C607 1.409 . S
C601 H593 0.930 . S
C601 C599 1.419 . S
C601 C602 1.362 . S
C602 H594 0.930 . S
C602 C601 1.362 . S
C602 C605 1.409 . S
C603 H595 0.930 . S
C603 C604 1.355 . S
C603 C605 1.415 . S
C604 C603 1.355 . S
C604 C606 1.419 . S
C605 C600 1.425 . S
C605 C602 1.409 . S
C605 C603 1.415 . S
C606 H596 0.930 . S
C606 C604 1.419 . S
C606 C607 1.362 . S
C607 H597 0.930 . S
C607 C600 1.409 . S
C607 C606 1.362 . S
H608 C614 0.930 . S
H609 C617 0.930 . S
H610 C618 0.930 . S
H611 C619 0.930 . S
H612 C622 0.930 . S
H613 C623 0.930 . S
C614 H608 0.930 . S
C614 C615 1.355 . S
C614 C616 1.415 . S
C615 C614 1.355 . S
C615 C617 1.419 . S
C616 C614 1.415 . S
C616 C621 1.425 . S
C616 C623 1.409 . S
C617 H609 0.930 . S
C617 C615 1.419 . S
C617 C618 1.362 . S
C618 H610 0.930 . S
C618 C617 1.362 . S
C618 C621 1.409 . S
C619 H611 0.930 . S
C619 C620 1.355 . S
C619 C621 1.415 . S
C620 C619 1.355 . S
C620 C622 1.419 . S
C621 C616 1.425 . S
C621 C618 1.409 . S
C621 C619 1.415 . S
C622 H612 0.930 . S
C622 C620 1.419 . S
C622 C623 1.362 . S
C623 H613 0.930 . S
C623 C616 1.409 . S
C623 C622 1.362 . S
H624 C630 0.930 . S
H625 C633 0.930 . S
H626 C634 0.930 . S
H627 C635 0.930 . S
H628 C638 0.930 . S
H629 C639 0.930 . S
C630 H624 0.930 . S
C630 C631 1.355 . S
C630 C632 1.415 . S
C631 C630 1.355 . S
C631 C633 1.419 . S
C632 C630 1.415 . S
C632 C637 1.425 . S
C632 C639 1.409 . S
C633 H625 0.930 . S
C633 C631 1.419 . S
C633 C634 1.362 . S
C634 H626 0.930 . S
C634 C633 1.362 . S
C634 C637 1.409 . S
C635 H627 0.930 . S
C635 C636 1.355 . S
C635 C637 1.415 . S
C636 C635 1.355 . S
C636 C638 1.419 . S
C637 C632 1.425 . S
C637 C634 1.409 . S
C637 C635 1.415 . S
C638 H628 0.930 . S
C638 C636 1.419 . S
C638 C639 1.362 . S
C639 H629 0.930 . S
C639 C632 1.409 . S
C639 C638 1.362 . S
H640 C646 0.930 . S
H641 C649 0.930 . S
H642 C650 0.930 . S
H643 C651 0.930 . S
H644 C654 0.930 . S
H645 C655 0.930 . S
C646 H640 0.930 . S
C646 C647 1.355 . S
C646 C648 1.415 . S
C647 C646 1.355 . S
C647 C649 1.419 . S
C648 C646 1.415 . S
C648 C653 1.425 . S
C648 C655 1.409 . S
C649 H641 0.930 . S
C649 C647 1.419 . S
C649 C650 1.362 . S
C650 H642 0.930 . S
C650 C649 1.362 . S
C650 C653 1.409 . S
C651 H643 0.930 . S
C651 C652 1.355 . S
C651 C653 1.415 . S
C652 C651 1.355 . S
C652 C654 1.419 . S
C653 C648 1.425 . S
C653 C650 1.409 . S
C653 C651 1.415 . S
C654 H644 0.930 . S
C654 C652 1.419 . S
C654 C655 1.362 . S
C655 H645 0.930 . S
C655 C648 1.409 . S
C655 C654 1.362 . S
H656 C662 0.930 . S
H657 C665 0.930 . S
H658 C666 0.930 . S
H659 C667 0.930 . S
H660 C670 0.930 . S
H661 C671 0.930 . S
C662 H656 0.930 . S
C662 C663 1.355 . S
C662 C664 1.415 . S
C663 C662 1.355 . S
C663 C665 1.419 . S
C664 C662 1.415 . S
C664 C669 1.425 . S
C664 C671 1.409 . S
C665 H657 0.930 . S
C665 C663 1.419 . S
C665 C666 1.362 . S
C666 H658 0.930 . S
C666 C665 1.362 . S
C666 C669 1.409 . S
C667 H659 0.930 . S
C667 C668 1.355 . S
C667 C669 1.415 . S
C668 C667 1.355 . S
C668 C670 1.419 . S
C669 C664 1.425 . S
C669 C666 1.409 . S
C669 C667 1.415 . S
C670 H660 0.930 . S
C670 C668 1.419 . S
C670 C671 1.362 . S
C671 H661 0.930 . S
C671 C664 1.409 . S
C671 C670 1.362 . S
H672 C678 0.930 . S
H673 C681 0.930 . S
H674 C682 0.930 . S
H675 C683 0.930 . S
H676 C686 0.930 . S
H677 C687 0.930 . S
C678 H672 0.930 . S
C678 C679 1.355 . S
C678 C680 1.415 . S
C679 C678 1.355 . S
C679 C681 1.419 . S
C680 C678 1.415 . S
C680 C685 1.425 . S
C680 C687 1.409 . S
C681 H673 0.930 . S
C681 C679 1.419 . S
C681 C682 1.362 . S
C682 H674 0.930 . S
C682 C681 1.362 . S
C682 C685 1.409 . S
C683 H675 0.930 . S
C683 C684 1.355 . S
C683 C685 1.415 . S
C684 C683 1.355 . S
C684 C686 1.419 . S
C685 C680 1.425 . S
C685 C682 1.409 . S
C685 C683 1.415 . S
C686 H676 0.930 . S
C686 C684 1.419 . S
C686 C687 1.362 . S
C687 H677 0.930 . S
C687 C680 1.409 . S
C687 C686 1.362 . S
H688 C694 0.930 . S
H689 C697 0.930 . S
H690 C698 0.930 . S
H691 C699 0.930 . S
H692 C702 0.930 . S
H693 C703 0.930 . S
C694 H688 0.930 . S
C694 C695 1.355 . S
C694 C696 1.415 . S
C695 C694 1.355 . S
C695 C697 1.419 . S
C696 C694 1.415 . S
C696 C701 1.425 . S
C696 C703 1.409 . S
C697 H689 0.930 . S
C697 C695 1.419 . S
C697 C698 1.362 . S
C698 H690 0.930 . S
C698 C697 1.362 . S
C698 C701 1.409 . S
C699 H691 0.930 . S
C699 C700 1.355 . S
C699 C701 1.415 . S
C700 C699 1.355 . S
C700 C702 1.419 . S
C701 C696 1.425 . S
C701 C698 1.409 . S
C701 C699 1.415 . S
C702 H692 0.930 . S
C702 C700 1.419 . S
C702 C703 1.362 . S
C703 H693 0.930 . S
C703 C696 1.409 . S
C703 C702 1.362 . S
H704 C710 0.930 . S
H705 C713 0.930 . S
H706 C714 0.930 . S
H707 C715 0.930 . S
H708 C718 0.930 . S
H709 C719 0.930 . S
C710 H704 0.930 . S
C710 C711 1.355 . S
C710 C712 1.415 . S
C711 C710 1.355 . S
C711 C713 1.419 . S
C712 C710 1.415 . S
C712 C717 1.425 . S
C712 C719 1.409 . S
C713 H705 0.930 . S
C713 C711 1.419 . S
C713 C714 1.362 . S
C714 H706 0.930 . S
C714 C713 1.362 . S
C714 C717 1.409 . S
C715 H707 0.930 . S
C715 C716 1.355 . S
C715 C717 1.415 . S
C716 C715 1.355 . S
C716 C718 1.419 . S
C717 C712 1.425 . S
C717 C714 1.409 . S
C717 C715 1.415 . S
C718 H708 0.930 . S
C718 C716 1.419 . S
C718 C719 1.362 . S
C719 H709 0.930 . S
C719 C712 1.409 . S
C719 C718 1.362 . S
H720 C726 0.930 . S
H721 C729 0.930 . S
H722 C730 0.930 . S
H723 C731 0.930 . S
H724 C734 0.930 . S
H725 C735 0.930 . S
C726 H720 0.930 . S
C726 C727 1.355 . S
C726 C728 1.415 . S
C727 C726 1.355 . S
C727 C729 1.419 . S
C728 C726 1.415 . S
C728 C733 1.425 . S
C728 C735 1.409 . S
C729 H721 0.930 . S
C729 C727 1.419 . S
C729 C730 1.362 . S
C730 H722 0.930 . S
C730 C729 1.362 . S
C730 C733 1.409 . S
C731 H723 0.930 . S
C731 C732 1.355 . S
C731 C733 1.415 . S
C732 C731 1.355 . S
C732 C734 1.419 . S
C733 C728 1.425 . S
C733 C730 1.409 . S
C733 C731 1.415 . S
C734 H724 0.930 . S
C734 C732 1.419 . S
C734 C735 1.362 . S
C735 H725 0.930 . S
C735 C728 1.409 . S
C735 C734 1.362 . S
H736 C742 0.930 . S
H737 C745 0.930 . S
H738 C746 0.930 . S
H739 C747 0.930 . S
H740 C750 0.930 . S
H741 C751 0.930 . S
C742 H736 0.930 . S
C742 C743 1.355 . S
C742 C744 1.415 . S
C743 C742 1.355 . S
C743 C745 1.419 . S
C744 C742 1.415 . S
C744 C749 1.425 . S
C744 C751 1.409 . S
C745 H737 0.930 . S
C745 C743 1.419 . S
C745 C746 1.362 . S
C746 H738 0.930 . S
C746 C745 1.362 . S
C746 C749 1.409 . S
C747 H739 0.930 . S
C747 C748 1.355 . S
C747 C749 1.415 . S
C748 C747 1.355 . S
C748 C750 1.419 . S
C749 C744 1.425 . S
C749 C746 1.409 . S
C749 C747 1.415 . S
C750 H740 0.930 . S
C750 C748 1.419 . S
C750 C751 1.362 . S
C751 H741 0.930 . S
C751 C744 1.409 . S
C751 C750 1.362 . S
H752 C758 0.930 . S
H753 C761 0.930 . S
H754 C762 0.930 . S
H755 C763 0.930 . S
H756 C766 0.930 . S
H757 C767 0.930 . S
C758 H752 0.930 . S
C758 C759 1.355 . S
C758 C760 1.415 . S
C759 C758 1.355 . S
C759 C761 1.419 . S
C760 C758 1.415 . S
C760 C765 1.425 . S
C760 C767 1.409 . S
C761 H753 0.930 . S
C761 C759 1.419 . S
C761 C762 1.362 . S
C762 H754 0.930 . S
C762 C761 1.362 . S
C762 C765 1.409 . S
C763 H755 0.930 . S
C763 C764 1.355 . S
C763 C765 1.415 . S
C764 C763 1.355 . S
C764 C766 1.419 . S
C765 C760 1.425 . S
C765 C762 1.409 . S
C765 C763 1.415 . S
C766 H756 0.930 . S
C766 C764 1.419 . S
C766 C767 1.362 . S
C767 H757 0.930 . S
C767 C760 1.409 . S
C767 C766 1.362 . S
H768 C774 0.930 . S
H769 C777 0.930 . S
H770 C778 0.930 . S
H771 C779 0.930 . S
H772 C782 0.930 . S
H773 C783 0.930 . S
C774 H768 0.930 . S
C774 C775 1.355 . S
C774 C776 1.415 . S
C775 C774 1.355 . S
C775 C777 1.419 . S
C776 C774 1.415 . S
C776 C781 1.425 . S
C776 C783 1.409 . S
C777 H769 0.930 . S
C777 C775 1.419 . S
C777 C778 1.362 . S
C778 H770 0.930 . S
C778 C777 1.362 . S
C778 C781 1.409 . S
C779 H771 0.930 . S
C779 C780 1.355 . S
C779 C781 1.415 . S
C780 C779 1.355 . S
C780 C782 1.419 . S
C781 C776 1.425 . S
C781 C778 1.409 . S
C781 C779 1.415 . S
C782 H772 0.930 . S
C782 C780 1.419 . S
C782 C783 1.362 . S
C783 H773 0.930 . S
C783 C776 1.409 . S
C783 C782 1.362 . S
H784 C790 0.930 . S
H785 C793 0.930 . S
H786 C794 0.930 . S
H787 C795 0.930 . S
H788 C798 0.930 . S
H789 C799 0.930 . S
C790 H784 0.930 . S
C790 C791 1.355 . S
C790 C792 1.415 . S
C791 C790 1.355 . S
C791 C793 1.419 . S
C792 C790 1.415 . S
C792 C797 1.425 . S
C792 C799 1.409 . S
C793 H785 0.930 . S
C793 C791 1.419 . S
C793 C794 1.362 . S
C794 H786 0.930 . S
C794 C793 1.362 . S
C794 C797 1.409 . S
C795 H787 0.930 . S
C795 C796 1.355 . S
C795 C797 1.415 . S
C796 C795 1.355 . S
C796 C798 1.419 . S
C797 C792 1.425 . S
C797 C794 1.409 . S
C797 C795 1.415 . S
C798 H788 0.930 . S
C798 C796 1.419 . S
C798 C799 1.362 . S
C799 H789 0.930 . S
C799 C792 1.409 . S
C799 C798 1.362 . S
H800 C806 0.930 . S
H801 C809 0.930 . S
H802 C810 0.930 . S
H803 C811 0.930 . S
H804 C814 0.930 . S
H805 C815 0.930 . S
C806 H800 0.930 . S
C806 C807 1.355 . S
C806 C808 1.415 . S
C807 C806 1.355 . S
C807 C809 1.419 . S
C808 C806 1.415 . S
C808 C813 1.425 . S
C808 C815 1.409 . S
C809 H801 0.930 . S
C809 C807 1.419 . S
C809 C810 1.362 . S
C810 H802 0.930 . S
C810 C809 1.362 . S
C810 C813 1.409 . S
C811 H803 0.930 . S
C811 C812 1.355 . S
C811 C813 1.415 . S
C812 C811 1.355 . S
C812 C814 1.419 . S
C813 C808 1.425 . S
C813 C810 1.409 . S
C813 C811 1.415 . S
C814 H804 0.930 . S
C814 C812 1.419 . S
C814 C815 1.362 . S
C815 H805 0.930 . S
C815 C808 1.409 . S
C815 C814 1.362 . S
H816 C822 0.930 . S
H817 C825 0.930 . S
H818 C826 0.930 . S
H819 C827 0.930 . S
H820 C830 0.930 . S
H821 C831 0.930 . S
C822 H816 0.930 . S
C822 C823 1.355 . S
C822 C824 1.415 . S
C823 C822 1.355 . S
C823 C825 1.419 . S
C824 C822 1.415 . S
C824 C829 1.425 . S
C824 C831 1.409 . S
C825 H817 0.930 . S
C825 C823 1.419 . S
C825 C826 1.362 . S
C826 H818 0.930 . S
C826 C825 1.362 . S
C826 C829 1.409 . S
C827 H819 0.930 . S
C827 C828 1.355 . S
C827 C829 1.415 . S
C828 C827 1.355 . S
C828 C830 1.419 . S
C829 C824 1.425 . S
C829 C826 1.409 . S
C829 C827 1.415 . S
C830 H820 0.930 . S
C830 C828 1.419 . S
C830 C831 1.362 . S
C831 H821 0.930 . S
C831 C824 1.409 . S
C831 C830 1.362 . S
H832 C838 0.930 . S
H833 C841 0.930 . S
H834 C842 0.930 . S
H835 C843 0.930 . S
H836 C846 0.930 . S
H837 C847 0.930 . S
C838 H832 0.930 . S
C838 C839 1.355 . S
C838 C840 1.415 . S
C839 C838 1.355 . S
C839 C841 1.419 . S
C840 C838 1.415 . S
C840 C845 1.425 . S
C840 C847 1.409 . S
C841 H833 0.930 . S
C841 C839 1.419 . S
C841 C842 1.362 . S
C842 H834 0.930 . S
C842 C841 1.362 . S
C842 C845 1.409 . S
C843 H835 0.930 . S
C843 C844 1.355 . S
C843 C845 1.415 . S
C844 C843 1.355 . S
C844 C846 1.419 . S
C845 C840 1.425 . S
C845 C842 1.409 . S
C845 C843 1.415 . S
C846 H836 0.930 . S
C846 C844 1.419 . S
C846 C847 1.362 . S
C847 H837 0.930 . S
C847 C840 1.409 . S
C847 C846 1.362 . S
H848 C854 0.930 . S
H849 C857 0.930 . S
H850 C858 0.930 . S
H851 C859 0.930 . S
H852 C862 0.930 . S
H853 C863 0.930 . S
C854 H848 0.930 . S
C854 C855 1.355 . S
C854 C856 1.415 . S
C855 C854 1.355 . S
C855 C857 1.419 . S
C856 C854 1.415 . S
C856 C861 1.425 . S
C856 C863 1.409 . S
C857 H849 0.930 . S
C857 C855 1.419 . S
C857 C858 1.362 . S
C858 H850 0.930 . S
C858 C857 1.362 . S
C858 C861 1.409 . S
C859 H851 0.930 . S
C859 C860 1.355 . S
C859 C861 1.415 . S
C860 C859 1.355 . S
C860 C862 1.419 . S
C861 C856 1.425 . S
C861 C858 1.409 . S
C861 C859 1.415 . S
C862 H852 0.930 . S
C862 C860 1.419 . S
C862 C863 1.362 . S
C863 H853 0.930 . S
C863 C856 1.409 . S
C863 C862 1.362 . S
H864 C870 0.930 . S
H865 C873 0.930 . S
H866 C874 0.930 . S
H867 C875 0.930 . S
H868 C878 0.930 . S
H869 C879 0.930 . S
C870 H864 0.930 . S
C870 C871 1.355 . S
C870 C872 1.415 . S
C871 C870 1.355 . S
C871 C873 1.419 . S
C872 C870 1.415 . S
C872 C877 1.425 . S
C872 C879 1.409 . S
C873 H865 0.930 . S
C873 C871 1.419 . S
C873 C874 1.362 . S
C874 H866 0.930 . S
C874 C873 1.362 . S
C874 C877 1.409 . S
C875 H867 0.930 . S
C875 C876 1.355 . S
C875 C877 1.415 . S
C876 C875 1.355 . S
C876 C878 1.419 . S
C877 C872 1.425 . S
C877 C874 1.409 . S
C877 C875 1.415 . S
C878 H868 0.930 . S
C878 C876 1.419 . S
C878 C879 1.362 . S
C879 H869 0.930 . S
C879 C872 1.409 . S
C879 C878 1.362 . S
H880 C886 0.930 . S
H881 C889 0.930 . S
H882 C890 0.930 . S
H883 C891 0.930 . S
H884 C894 0.930 . S
H885 C895 0.930 . S
C886 H880 0.930 . S
C886 C887 1.355 . S
C886 C888 1.415 . S
C887 C886 1.355 . S
C887 C889 1.419 . S
C888 C886 1.415 . S
C888 C893 1.425 . S
C888 C895 1.409 . S
C889 H881 0.930 . S
C889 C887 1.419 . S
C889 C890 1.362 . S
C890 H882 0.930 . S
C890 C889 1.362 . S
C890 C893 1.409 . S
C891 H883 0.930 . S
C891 C892 1.355 . S
C891 C893 1.415 . S
C892 C891 1.355 . S
C892 C894 1.419 . S
C893 C888 1.425 . S
C893 C890 1.409 . S
C893 C891 1.415 . S
C894 H884 0.930 . S
C894 C892 1.419 . S
C894 C895 1.362 . S
C895 H885 0.930 . S
C895 C888 1.409 . S
C895 C894 1.362 . S
H896 C902 0.930 . S
H897 C905 0.930 . S
H898 C906 0.930 . S
H899 C907 0.930 . S
H900 C910 0.930 . S
H901 C911 0.930 . S
C902 H896 0.930 . S
C902 C903 1.355 . S
C902 C904 1.415 . S
C903 C902 1.355 . S
C903 C905 1.419 . S
C904 C902 1.415 . S
C904 C909 1.425 . S
C904 C911 1.409 . S
C905 H897 0.930 . S
C905 C903 1.419 . S
C905 C906 1.362 . S
C906 H898 0.930 . S
C906 C905 1.362 . S
C906 C909 1.409 . S
C907 H899 0.930 . S
C907 C908 1.355 . S
C907 C909 1.415 . S
C908 C907 1.355 . S
C908 C910 1.419 . S
C909 C904 1.425 . S
C909 C906 1.409 . S
C909 C907 1.415 . S
C910 H900 0.930 . S
C910 C908 1.419 . S
C910 C911 1.362 . S
C911 H901 0.930 . S
C911 C904 1.409 . S
C911 C910 1.362 . S
H912 C918 0.930 . S
H913 C921 0.930 . S
H914 C922 0.930 . S
H915 C923 0.930 . S
H916 C926 0.930 . S
H917 C927 0.930 . S
C918 H912 0.930 . S
C918 C919 1.355 . S
C918 C920 1.415 . S
C919 C918 1.355 . S
C919 C921 1.419 . S
C920 C918 1.415 . S
C920 C925 1.425 . S
C920 C927 1.409 . S
C921 H913 0.930 . S
C921 C919 1.419 . S
C921 C922 1.362 . S
C922 H914 0.930 . S
C922 C921 1.362 . S
C922 C925 1.409 . S
C923 H915 0.930 . S
C923 C924 1.355 . S
C923 C925 1.415 . S
C924 C923 1.355 . S
C924 C926 1.419 . S
C925 C920 1.425 . S
C925 C922 1.409 . S
C925 C923 1.415 . S
C926 H916 0.930 . S
C926 C924 1.419 . S
C926 C927 1.362 . S
C927 H917 0.930 . S
C927 C920 1.409 . S
C927 C926 1.362 . S
H928 C934 0.930 . S
H929 C937 0.930 . S
H930 C938 0.930 . S
H931 C939 0.930 . S
H932 C942 0.930 . S
H933 C943 0.930 . S
C934 H928 0.930 . S
C934 C935 1.355 . S
C934 C936 1.415 . S
C935 C934 1.355 . S
C935 C937 1.419 . S
C936 C934 1.415 . S
C936 C941 1.425 . S
C936 C943 1.409 . S
C937 H929 0.930 . S
C937 C935 1.419 . S
C937 C938 1.362 . S
C938 H930 0.930 . S
C938 C937 1.362 . S
C938 C941 1.409 . S
C939 H931 0.930 . S
C939 C940 1.355 . S
C939 C941 1.415 . S
C940 C939 1.355 . S
C940 C942 1.419 . S
C941 C936 1.425 . S
C941 C938 1.409 . S
C941 C939 1.415 . S
C942 H932 0.930 . S
C942 C940 1.419 . S
C942 C943 1.362 . S
C943 H933 0.930 . S
C943 C936 1.409 . S
C943 C942 1.362 . S
H944 C950 0.930 . S
H945 C953 0.930 . S
H946 C954 0.930 . S
H947 C955 0.930 . S
H948 C958 0.930 . S
H949 C959 0.930 . S
C950 H944 0.930 . S
C950 C951 1.355 . S
C950 C952 1.415 . S
C951 C950 1.355 . S
C951 C953 1.419 . S
C952 C950 1.415 . S
C952 C957 1.425 . S
C952 C959 1.409 . S
C953 H945 0.930 . S
C953 C951 1.419 . S
C953 C954 1.362 . S
C954 H946 0.930 . S
C954 C953 1.362 . S
C954 C957 1.409 . S
C955 H947 0.930 . S
C955 C956 1.355 . S
C955 C957 1.415 . S
C956 C955 1.355 . S
C956 C958 1.419 . S
C957 C952 1.425 . S
C957 C954 1.409 . S
C957 C955 1.415 . S
C958 H948 0.930 . S
C958 C956 1.419 . S
C958 C959 1.362 . S
C959 H949 0.930 . S
C959 C952 1.409 . S
C959 C958 1.362 . S
H960 C966 0.930 . S
H961 C969 0.930 . S
H962 C970 0.930 . S
H963 C971 0.930 . S
H964 C974 0.930 . S
H965 C975 0.930 . S
C966 H960 0.930 . S
C966 C967 1.355 . S
C966 C968 1.415 . S
C967 C966 1.355 . S
C967 C969 1.419 . S
C968 C966 1.415 . S
C968 C973 1.425 . S
C968 C975 1.409 . S
C969 H961 0.930 . S
C969 C967 1.419 . S
C969 C970 1.362 . S
C970 H962 0.930 . S
C970 C969 1.362 . S
C970 C973 1.409 . S
C971 H963 0.930 . S
C971 C972 1.355 . S
C971 C973 1.415 . S
C972 C971 1.355 . S
C972 C974 1.419 . S
C973 C968 1.425 . S
C973 C970 1.409 . S
C973 C971 1.415 . S
C974 H964 0.930 . S
C974 C972 1.419 . S
C974 C975 1.362 . S
C975 H965 0.930 . S
C975 C968 1.409 . S
C975 C974 1.362 . S
H976 C982 0.930 . S
H977 C985 0.930 . S
H978 C986 0.930 . S
H979 C987 0.930 . S
H980 C990 0.930 . S
H981 C991 0.930 . S
C982 H976 0.930 . S
C982 C983 1.355 . S
C982 C984 1.415 . S
C983 C982 1.355 . S
C983 C985 1.419 . S
C984 C982 1.415 . S
C984 C989 1.425 . S
C984 C991 1.409 . S
C985 H977 0.930 . S
C985 C983 1.419 . S
C985 C986 1.362 . S
C986 H978 0.930 . S
C986 C985 1.362 . S
C986 C989 1.409 . S
C987 H979 0.930 . S
C987 C988 1.355 . S
C987 C989 1.415 . S
C988 C987 1.355 . S
C988 C990 1.419 . S
C989 C984 1.425 . S
C989 C986 1.409 . S
C989 C987 1.415 . S
C990 H980 0.930 . S
C990 C988 1.419 . S
C990 C991 1.362 . S
C991 H981 0.930 . S
C991 C984 1.409 . S
C991 C990 1.362 . S
H992 C998 0.930 . S
H993 C1001 0.930 . S
H994 C1002 0.930 . S
H995 C1003 0.930 . S
H996 C1006 0.930 . S
H997 C1007 0.930 . S
C998 H992 0.930 . S
C998 C999 1.355 . S
C998 C1000 1.415 . S
C999 C998 1.355 . S
C999 C1001 1.419 . S
C1000 C998 1.415 . S
C1000 C1005 1.425 . S
C1000 C1007 1.409 . S
C1001 H993 0.930 . S
C1001 C999 1.419 . S
C1001 C1002 1.362 . S
C1002 H994 0.930 . S
C1002 C1001 1.362 . S
C1002 C1005 1.409 . S
C1003 H995 0.930 . S
C1003 C1004 1.355 . S
C1003 C1005 1.415 . S
C1004 C1003 1.355 . S
C1004 C1006 1.419 . S
C1005 C1000 1.425 . S
C1005 C1002 1.409 . S
C1005 C1003 1.415 . S
C1006 H996 0.930 . S
C1006 C1004 1.419 . S
C1006 C1007 1.362 . S
C1007 H997 0.930 . S
C1007 C1000 1.409 . S
C1007 C1006 1.362 . S
H1008 C1014 0.930 . S
H1009 C1017 0.930 . S
H1010 C1018 0.930 . S
H1011 C1019 0.930 . S
H1012 C1022 0.930 . S
H1013 C1023 0.930 . S
C1014 H1008 0.930 . S
C1014 C1015 1.355 . S
C1014 C1016 1.415 . S
C1015 C1014 1.355 . S
C1015 C1017 1.419 . S
C1016 C1014 1.415 . S
C1016 C1021 1.425 . S
C1016 C1023 1.409 . S
C1017 H1009 0.930 . S
C1017 C1015 1.419 . S
C1017 C1018 1.362 . S
C1018 H1010 0.930 . S
C1018 C1017 1.362 . S
C1018 C1021 1.409 . S
C1019 H1011 0.930 . S
C1019 C1020 1.355 . S
C1019 C1021 1.415 . S
C1020 C1019 1.355 . S
C1020 C1022 1.419 . S
C1021 C1016 1.425 . S
C1021 C1018 1.409 . S
C1021 C1019 1.415 . S
C1022 H1012 0.930 . S
C1022 C1020 1.419 . S
C1022 C1023 1.362 . S
C1023 H1013 0.930 . S
C1023 C1016 1.409 . S
C1023 C1022 1.362 . S
H1024 C1030 0.930 . S
H1025 C1033 0.930 . S
H1026 C1034 0.930 . S
H1027 C1035 0.930 . S
H1028 C1038 0.930 . S
H1029 C1039 0.930 . S
C1030 H1024 0.930 . S
C1030 C1031 1.355 . S
C1030 C1032 1.415 . S
C1031 C1030 1.355 . S
C1031 C1033 1.419 . S
C1032 C1030 1.415 . S
C1032 C1037 1.425 . S
C1032 C1039 1.409 . S
C1033 H1025 0.930 . S
C1033 C1031 1.419 . S
C1033 C1034 1.362 . S
C1034 H1026 0.930 . S
C1034 C1033 1.362 . S
C1034 C1037 1.409 . S
C1035 H1027 0.930 . S
C1035 C1036 1.355 . S
C1035 C1037 1.415 . S
C1036 C1035 1.355 . S
C1036 C1038 1.419 . S
C1037 C1032 1.425 . S
C1037 C1034 1.409 . S
C1037 C1035 1.415 . S
C1038 H1028 0.930 . S
C1038 C1036 1.419 . S
C1038 C1039 1.362 . S
C1039 H1029 0.930 . S
C1039 C1032 1.409 . S
C1039 C1038 1.362 . S
H1040 C1046 0.930 . S
H1041 C1049 0.930 . S
H1042 C1050 0.930 . S
H1043 C1051 0.930 . S
H1044 C1054 0.930 . S
H1045 C1055 0.930 . S
C1046 H1040 0.930 . S
C1046 C1047 1.355 . S
C1046 C1048 1.415 . S
C1047 C1046 1.355 . S
C1047 C1049 1.419 . S
C1048 C1046 1.415 . S
C1048 C1053 1.425 . S
C1048 C1055 1.409 . S
C1049 H1041 0.930 . S
C1049 C1047 1.419 . S
C1049 C1050 1.362 . S
C1050 H1042 0.930 . S
C1050 C1049 1.362 . S
C1050 C1053 1.409 . S
C1051 H1043 0.930 . S
C1051 C1052 1.355 . S
C1051 C1053 1.415 . S
C1052 C1051 1.355 . S
C1052 C1054 1.419 . S
C1053 C1048 1.425 . S
C1053 C1050 1.409 . S
C1053 C1051 1.415 . S
C1054 H1044 0.930 . S
C1054 C1052 1.419 . S
C1054 C1055 1.362 . S
C1055 H1045 0.930 . S
C1055 C1048 1.409 . S
C1055 C1054 1.362 . S
H1056 C1062 0.930 . S
H1057 C1065 0.930 . S
H1058 C1066 0.930 . S
H1059 C1067 0.930 . S
H1060 C1070 0.930 . S
H1061 C1071 0.930 . S
C1062 H1056 0.930 . S
C1062 C1063 1.355 . S
C1062 C1064 1.415 . S
C1063 C1062 1.355 . S
C1063 C1065 1.419 . S
C1064 C1062 1.415 . S
C1064 C1069 1.425 . S
C1064 C1071 1.409 . S
C1065 H1057 0.930 . S
C1065 C1063 1.419 . S
C1065 C1066 1.362 . S
C1066 H1058 0.930 . S
C1066 C1065 1.362 . S
C1066 C1069 1.409 . S
C1067 H1059 0.930 . S
C1067 C1068 1.355 . S
C1067 C1069 1.415 . S
C1068 C1067 1.355 . S
C1068 C1070 1.419 . S
C1069 C1064 1.425 . S
C1069 C1066 1.409 . S
C1069 C1067 1.415 . S
C1070 H1060 0.930 . S
C1070 C1068 1.419 . S
C1070 C1071 1.362 . S
C1071 H1061 0.930 . S
C1071 C1064 1.409 . S
C1071 C1070 1.362 . S
H1072 C1078 0.930 . S
H1073 C1081 0.930 . S
H1074 C1082 0.930 . S
H1075 C1083 0.930 . S
H1076 C1086 0.930 . S
H1077 C1087 0.930 . S
C1078 H1072 0.930 . S
C1078 C1079 1.355 . S
C1078 C1080 1.415 . S
C1079 C1078 1.355 . S
C1079 C1081 1.419 . S
C1080 C1078 1.415 . S
C1080 C1085 1.425 . S
C1080 C1087 1.409 . S
C1081 H1073 0.930 . S
C1081 C1079 1.419 . S
C1081 C1082 1.362 . S
C1082 H1074 0.930 . S
C1082 C1081 1.362 . S
C1082 C1085 1.409 . S
C1083 H1075 0.930 . S
C1083 C1084 1.355 . S
C1083 C1085 1.415 . S
C1084 C1083 1.355 . S
C1084 C1086 1.419 . S
C1085 C1080 1.425 . S
C1085 C1082 1.409 . S
C1085 C1083 1.415 . S
C1086 H1076 0.930 . S
C1086 C1084 1.419 . S
C1086 C1087 1.362 . S
C1087 H1077 0.930 . S
C1087 C1080 1.409 . S
C1087 C1086 1.362 . S
H1088 C1094 0.930 . S
H1089 C1097 0.930 . S
H1090 C1098 0.930 . S
H1091 C1099 0.930 . S
H1092 C1102 0.930 . S
H1093 C1103 0.930 . S
C1094 H1088 0.930 . S
C1094 C1095 1.355 . S
C1094 C1096 1.415 . S
C1095 C1094 1.355 . S
C1095 C1097 1.419 . S
C1096 C1094 1.415 . S
C1096 C1101 1.425 . S
C1096 C1103 1.409 . S
C1097 H1089 0.930 . S
C1097 C1095 1.419 . S
C1097 C1098 1.362 . S
C1098 H1090 0.930 . S
C1098 C1097 1.362 . S
C1098 C1101 1.409 . S
C1099 H1091 0.930 . S
C1099 C1100 1.355 . S
C1099 C1101 1.415 . S
C1100 C1099 1.355 . S
C1100 C1102 1.419 . S
C1101 C1096 1.425 . S
C1101 C1098 1.409 . S
C1101 C1099 1.415 . S
C1102 H1092 0.930 . S
C1102 C1100 1.419 . S
C1102 C1103 1.362 . S
C1103 H1093 0.930 . S
C1103 C1096 1.409 . S
C1103 C1102 1.362 . S
H1104 C1110 0.930 . S
H1105 C1113 0.930 . S
H1106 C1114 0.930 . S
H1107 C1115 0.930 . S
H1108 C1118 0.930 . S
H1109 C1119 0.930 . S
C1110 H1104 0.930 . S
C1110 C1111 1.355 . S
C1110 C1112 1.415 . S
C1111 C1110 1.355 . S
C1111 C1113 1.419 . S
C1112 C1110 1.415 . S
C1112 C1117 1.425 . S
C1112 C1119 1.409 . S
C1113 H1105 0.930 . S
C1113 C1111 1.419 . S
C1113 C1114 1.362 . S
C1114 H1106 0.930 . S
C1114 C1113 1.362 . S
C1114 C1117 1.409 . S
C1115 H1107 0.930 . S
C1115 C1116 1.355 . S
C1115 C1117 1.415 . S
C1116 C1115 1.355 . S
C1116 C1118 1.419 . S
C1117 C1112 1.425 . S
C1117 C1114 1.409 . S
C1117 C1115 1.415 . S
C1118 H1108 0.930 . S
C1118 C1116 1.419 . S
C1118 C1119 1.362 . S
C1119 H1109 0.930 . S
C1119 C1112 1.409 . S
C1119 C1118 1.362 . S
C364 C177 2.136 . S
C359 C19 2.096 . S
C380 C182 1.466 . S
C375 C24 1.478 . S
C396 C183 1.383 . S
C391 C59 1.359 . S
C407 C69 1.343 . S
C412 C187 1.313 . S
C423 C82 1.487 . S
C428 C190 1.457 . S
C444 C191 1.391 . S
C439 C118 1.344 . S
C455 C132 1.363 . S
C460 C168 1.290 . S
C471 C158 2.091 . S
C476 C184 2.155 . S
C492 C222 1.591 . S
C487 C4 1.483 . S
C503 C29 0.934 . S
C508 C248 0.887 . S
C524 C200 1.441 . S
C519 C44 1.397 . S
C540 C255 1.337 . S
C535 C79 1.342 . S
C551 C98 1.387 . S
C556 C209 1.365 . S
C572 C251 1.298 . S
C567 C112 1.325 . S
C583 C122 1.238 . S
C588 C215 1.214 . S
C599 C152 1.191 . S
C604 C246 1.207 . S
C615 C9 1.268 . S
C620 C254 1.281 . S
C631 C92 0.905 . S
C636 C241 0.959 . S
C652 C219 1.481 . S
C647 C102 1.451 . S
C668 C247 1.365 . S
C663 C138 1.373 . S
C679 C142 1.516 . S
C684 C214 1.619 . S
C695 C49 1.327 . S
C700 C232 1.339 . S
C716 C223 1.220 . S
C711 C64 1.238 . S
C727 C39 1.347 . S
C732 C216 1.324 . S
C743 C159 2.067 . S
C748 C278 2.085 . S
C759 C84 1.445 . S
C764 C273 1.505 . S
C780 C287 1.359 . S
C775 C119 1.367 . S
C796 C264 1.344 . S
C791 C129 1.293 . S
C807 C22 1.463 . S
C812 C280 1.468 . S
C828 C279 1.369 . S
C823 C58 1.371 . S
C839 C72 1.277 . S
C844 C283 1.329 . S
C855 C18 2.067 . S
C860 C286 2.060 . S
C871 C144 1.577 . S
C876 C312 1.651 . S
C892 C328 0.998 . S
C887 C89 0.974 . S
C903 C104 1.445 . S
C908 C310 1.482 . S
C919 C139 1.381 . S
C924 C343 1.325 . S
C940 C319 1.352 . S
C935 C38 1.346 . S
C951 C52 1.311 . S
C956 C337 1.356 . S
C972 C315 1.201 . S
C967 C62 1.226 . S
C988 C350 1.215 . S
C983 C12 1.180 . S
C1004 C342 1.209 . S
C999 C149 1.188 . S
C1015 C32 0.975 . S
C1020 C347 0.997 . S
C1031 C42 1.398 . S
C1036 C318 1.513 . S
C1052 C351 1.325 . S
C1047 C78 1.379 . S
C1063 C2 1.491 . S
C1068 C305 1.686 . S
C1079 C109 1.347 . S
C1084 C344 1.363 . S
C1100 C296 1.194 . S
C1095 C124 1.234 . S
C1116 C311 1.353 . S
C1111 C99 1.343 . S
