# Generated by pormake.
# Topology rtl, (3,6)-cn, num edge types: 1
# Building blocks:
#     Node 0, Type 0, BuildingBlock: WUSLED_clean_sbu_0, # of connection points: 3
#     Node 1, Type 0, BuildingBlock: WUSLED_clean_sbu_0, # of connection points: 3
#     Node 2, Type 0, BuildingBlock: WUSLED_clean_sbu_0, # of connection points: 3
#     Node 3, Type 0, BuildingBlock: WUSLED_clean_sbu_0, # of connection points: 3
#     Node 4, Type 1, BuildingBlock: KUMBUR_clean_sbu_1, # of connection points: 6
#     Node 5, Type 1, BuildingBlock: KUMBUR_clean_sbu_1, # of connection points: 6
#     Edge 6, Type (0, 1), BuildingBlock: OJICUG_clean_linker_0, # of connection points: 2
#     Edge 7, Type (0, 1), BuildingBlock: OJICUG_clean_linker_0, # of connection points: 2
#     Edge 8, Type (0, 1), BuildingBlock: OJICUG_clean_linker_0, # of connection points: 2
#     Edge 9, Type (0, 1), BuildingBlock: OJICUG_clean_linker_0, # of connection points: 2
#     Edge 10, Type (0, 1), BuildingBlock: OJICUG_clean_linker_0, # of connection points: 2
#     Edge 11, Type (0, 1), BuildingBlock: OJICUG_clean_linker_0, # of connection points: 2
#     Edge 12, Type (0, 1), BuildingBlock: OJICUG_clean_linker_0, # of connection points: 2
#     Edge 13, Type (0, 1), BuildingBlock: OJICUG_clean_linker_0, # of connection points: 2
#     Edge 14, Type (0, 1), BuildingBlock: OJICUG_clean_linker_0, # of connection points: 2
#     Edge 15, Type (0, 1), BuildingBlock: OJICUG_clean_linker_0, # of connection points: 2
#     Edge 16, Type (0, 1), BuildingBlock: OJICUG_clean_linker_0, # of connection points: 2
#     Edge 17, Type (0, 1), BuildingBlock: OJICUG_clean_linker_0, # of connection points: 2
# Relax obj value: 0.017
# Max RMSD: 0.115
# Mean RMSD: 0.066
data_MOF--net-rtl--node1-WUSLED_clean_sbu_0--node2-KUMBUR_clean_sbu_1--edge1-OJICUG_clean_linker_0
_symmetry_space_group_name_H-M    P1
_symmetry_Int_Tables_number       1
_symmetry_cell_setting            triclinic
loop_
_symmetry_equiv_pos_as_xyz
'x, y, z'
_cell_length_a     33.563757
_cell_length_b     34.134155
_cell_length_c     29.442892
_cell_angle_alpha  79.097489
_cell_angle_beta   98.911985
_cell_angle_gamma 90.777536
loop_
_atom_site_label
_atom_site_type_symbol
_atom_site_fract_x
_atom_site_fract_y
_atom_site_fract_z
_atom_type_partial_charge
C0 C 0.20408 0.84903 0.15401 0.0
C1 C 0.17397 0.87833 0.13565 0.0
C2 C 0.16555 0.88545 0.21456 0.0
C3 C 0.15488 0.89635 0.1656 0.0
C4 C 0.1959 0.8561 0.2327 0.0
C5 C 0.21497 0.83808 0.20266 0.0
U6 U 0.21751 0.83816 0.03124 0.0
O7 O 0.22311 0.78454 1.00099 0.0
O8 O 0.27169 0.82835 1.00113 0.0
C9 C 0.25968 0.79341 0.99202 0.0
C10 C 0.22376 0.82949 0.12265 0.0
C11 C 0.28973 0.76033 1.00437 0.0
C12 C 0.35577 0.73215 0.04122 0.0
C13 C 0.32649 0.76251 0.03399 0.0
C14 C 0.31156 0.69657 0.99046 0.0
C15 C 0.34888 0.69907 1.01897 0.0
C16 C 0.28245 0.72691 0.98315 0.0
C17 C 0.15508 0.90563 0.92677 0.0
C18 C 0.14647 0.89366 0.84698 0.0
C19 C 0.12546 0.95702 0.86205 0.0
C20 C 0.13823 0.94391 0.90996 0.0
C21 C 0.12922 0.93199 0.83001 0.0
C22 C 0.15948 0.88065 0.89498 0.0
C23 C 0.16744 0.89223 0.97749 0.0
O24 O 0.19995 0.80781 0.09784 0.0
O25 O 0.24778 0.85219 0.09801 0.0
O26 O 0.20477 0.90004 0.99387 0.0
O27 O 0.15644 0.85608 0.99489 0.0
H28 H 0.16506 0.88706 0.09812 0.0
H29 H 0.13127 0.91838 0.15037 0.0
H30 H 0.20523 0.84732 0.27012 0.0
H31 H 0.23822 0.81555 0.21743 0.0
H32 H 0.38426 0.7352 0.06313 0.0
H33 H 0.33301 0.788 0.05077 0.0
H34 H 0.30485 0.67122 0.97349 0.0
H35 H 0.25438 0.72458 0.96011 0.0
H36 H 0.1501 0.87386 0.82313 0.0
H37 H 0.11181 0.98649 0.85019 0.0
H38 H 0.13459 0.96357 0.93399 0.0
H39 H 0.17273 0.85105 0.90731 0.0
C40 C 0.67828 0.68353 0.7715 0.0
C41 C 0.65578 0.64989 0.76327 0.0
C42 C 0.63629 0.64059 0.84132 0.0
C43 C 0.63507 0.6286 0.79784 0.0
C44 C 0.6589 0.6744 0.8492 0.0
C45 C 0.67964 0.69557 0.81469 0.0
U46 U 0.70579 0.70671 0.64727 0.0
O47 O 0.7644 0.72083 0.6237 0.0
O48 O 0.71433 0.76442 0.60153 0.0
C49 C 0.75239 0.75659 0.60052 0.0
C50 C 0.70055 0.70632 0.73572 0.0
C51 C 0.78122 0.78985 0.60239 0.0
C52 C 0.84457 0.81787 0.63389 0.0
C53 C 0.81528 0.78801 0.63728 0.0
C54 C 0.80575 0.85217 0.56148 0.0
C55 C 0.84059 0.8499 0.59534 0.0
C56 C 0.77654 0.82257 0.56499 0.0
C57 C 0.65493 0.64516 0.55633 0.0
C58 C 0.67593 0.61372 0.49585 0.0
C59 C 0.60643 0.63494 0.48895 0.0
C60 C 0.61561 0.6489 0.53109 0.0
C61 C 0.63631 0.61653 0.47118 0.0
C62 C 0.68516 0.62788 0.53789 0.0
C63 C 0.66267 0.65627 0.60331 0.0
O64 O 0.72831 0.68622 0.7223 0.0
O65 O 0.67856 0.72993 0.7006 0.0
O66 O 0.64887 0.69135 0.60645 0.0
O67 O 0.69848 0.64739 0.62834 0.0
H68 H 0.6542 0.64014 0.7301 0.0
H69 H 0.61764 0.60306 0.79021 0.0
H70 H 0.66108 0.68425 0.88236 0.0
H71 H 0.69691 0.72136 0.82185 0.0
H72 H 0.87108 0.81507 0.66051 0.0
H73 H 0.81987 0.76302 0.6664 0.0
H74 H 0.80125 0.87667 0.53177 0.0
H75 H 0.75071 0.82465 0.5375 0.0
H76 H 0.69979 0.60014 0.48291 0.0
H77 H 0.57552 0.63719 0.47125 0.0
H78 H 0.5916 0.66168 0.54465 0.0
H79 H 0.7158 0.62447 0.55636 0.0
C80 C 0.84104 0.1616 0.22469 0.0
C81 C 0.86106 0.12583 0.22432 0.0
C82 C 0.88801 0.12023 0.30712 0.0
C83 C 0.88422 0.10513 0.26539 0.0
C84 C 0.86729 0.1557 0.3073 0.0
C85 C 0.84402 0.17613 0.26648 0.0
U86 U 0.81511 0.19298 0.09082 0.0
O87 O 0.75684 0.21191 0.04711 0.0
O88 O 0.80683 0.25401 0.04943 0.0
C89 C 0.76822 0.24907 0.03584 0.0
C90 C 0.8185 0.18544 0.18179 0.0
C91 C 0.74098 0.28048 0.04258 0.0
C92 C 0.68656 0.30263 0.07822 0.0
C93 C 0.71274 0.27245 0.07367 0.0
C94 C 0.71735 0.34952 0.02192 0.0
C95 C 0.68823 0.34149 0.05199 0.0
C96 C 0.74325 0.31933 1.01715 0.0
C97 C 0.86951 0.14153 1.01043 0.0
C98 C 0.89582 0.16671 0.93804 0.0
C99 C 0.88342 0.09615 0.95993 0.0
C100 C 0.86969 0.10295 1.00036 0.0
C101 C 0.89762 0.12782 0.92889 0.0
C102 C 0.88181 0.17354 0.9783 0.0
C103 C 0.85995 0.14694 0.05633 0.0
O104 O 0.84013 0.21103 0.15711 0.0
O105 O 0.79255 0.16632 0.15597 0.0
O106 O 0.82345 0.13735 0.06511 0.0
O107 O 0.87304 0.17966 0.07077 0.0
H108 H 0.85931 0.11432 0.19222 0.0
H109 H 0.90008 0.078 0.26421 0.0
H110 H 0.8692 0.16775 0.33906 0.0
H111 H 0.82877 0.2037 0.26737 0.0
H112 H 0.66434 0.29521 0.10138 0.0
H113 H 0.71053 0.24279 0.09406 0.0
H114 H 0.72014 0.3792 1.00186 0.0
H115 H 0.76502 0.32631 0.99331 0.0
H116 H 0.90606 0.19181 0.9145 0.0
H117 H 0.88472 0.06581 0.95416 0.0
H118 H 0.86051 0.07777 0.02467 0.0
H119 H 0.88178 0.20369 0.9849 0.0
C120 C 0.36514 0.3534 0.33471 0.0
C121 C 0.40511 0.36557 0.34584 0.0
C122 C 0.40691 0.39489 0.2636 0.0
C123 C 0.4258 0.38595 0.31065 0.0
C124 C 0.36681 0.38283 0.2528 0.0
C125 C 0.34628 0.36232 0.28788 0.0
U126 U 0.33281 0.33115 0.45757 0.0
O127 O 0.27341 0.31518 0.4779 0.0
O128 O 0.32487 0.27364 0.50418 0.0
C129 C 0.28626 0.28044 0.50327 0.0
C130 C 0.34275 0.33055 0.37067 0.0
C131 C 0.25858 0.24615 0.50334 0.0
C132 C 0.19611 0.21556 0.47382 0.0
C133 C 0.225 0.24563 0.46834 0.0
C134 C 0.23438 0.18573 0.54866 0.0
C135 C 0.19999 0.18577 0.51464 0.0
C136 C 0.26325 0.21548 0.54302 0.0
C137 C 0.37206 0.39393 0.54943 0.0
C138 C 0.36604 0.37501 0.63205 0.0
C139 C 0.38366 0.44262 0.60048 0.0
C140 C 0.38185 0.43267 0.55621 0.0
C141 C 0.37582 0.41394 0.6391 0.0
C142 C 0.36406 0.36516 0.58765 0.0
C143 C 0.37005 0.38426 0.50231 0.0
O144 O 0.36433 0.30832 0.40738 0.0
O145 O 0.31282 0.34962 0.38148 0.0
O146 O 0.33507 0.39128 0.47496 0.0
O147 O 0.38659 0.35001 0.50052 0.0
H148 H 0.42043 0.35927 0.38168 0.0
H149 H 0.45645 0.39513 0.3204 0.0
H150 H 0.35141 0.38866 0.21699 0.0
H151 H 0.3156 0.35311 0.2783 0.0
H152 H 0.16992 0.21657 0.44701 0.0
H153 H 0.22038 0.26908 0.43752 0.0
H154 H 0.23872 0.16295 0.58013 0.0
H155 H 0.28866 0.21533 0.5707 0.0
H156 H 0.36026 0.35198 0.66091 0.0
H157 H 0.39054 0.47304 0.6042 0.0
H158 H 0.38788 0.45538 0.52711 0.0
H159 H 0.35632 0.33505 0.58318 0.0
Tb160 Tb 0.04962 0.97816 0.53233 0.0
C161 C 0.94731 0.12955 0.51859 0.0
N162 N 0.98398 0.12032 0.54524 0.0
C163 C 1.00679 0.18641 0.51882 0.0
C164 C 0.93924 0.16751 0.49004 0.0
C165 C 1.01352 0.14821 0.54622 0.0
C166 C 0.96956 0.19607 0.49043 0.0
C167 C 0.8803 0.10822 0.4907 0.0
C168 C 0.91848 0.10003 0.51854 0.0
C169 C 0.8722 0.14588 0.46177 0.0
C170 C 0.90158 0.17545 0.46147 0.0
Tb171 Tb 0.9922 0.05669 0.58711 0.0
N172 N 0.92781 0.06349 0.54602 0.0
C173 C 0.85117 0.07857 0.49342 0.0
C174 C 0.89805 0.03617 0.55224 0.0
C175 C 0.85982 0.04272 0.52512 0.0
H176 H 0.04204 0.14126 0.56875 0.0
H177 H 0.83676 0.02045 0.52947 0.0
H178 H 0.99436 0.89664 0.53488 0.0
H179 H 0.20117 1.003 0.61552 0.0
H180 H 0.90269 1.00993 0.57918 0.0
H181 H 0.82146 0.08365 0.47266 0.0
H182 H 0.13844 0.02104 0.56112 0.0
H183 H 0.03031 0.20838 0.51964 0.0
H184 H 0.84317 0.15254 0.43981 0.0
H185 H 0.8949 0.20434 0.43898 0.0
H186 H 0.9996 0.82678 0.57712 0.0
H187 H 0.96456 0.22559 0.46897 0.0
H188 H 0.21126 0.93476 0.66258 0.0
N189 N 0.05178 0.91245 0.56742 0.0
C190 C 0.08639 0.89946 0.5967 0.0
C191 C 0.02413 0.84699 0.5832 0.0
C192 C 0.09087 0.85974 0.62129 0.0
C193 C 0.02102 0.88675 0.55977 0.0
C194 C 0.05912 0.83345 0.61427 0.0
N195 N 0.11068 0.96512 0.58 0.0
C196 C 0.14114 0.9919 0.5828 0.0
C197 C 0.15289 0.91465 0.63404 0.0
C198 C 0.1169 0.92665 0.60314 0.0
C199 C 0.18313 0.94277 0.63921 0.0
C200 C 0.17741 0.9814 0.61298 0.0
H201 H 0.06138 0.80267 0.63249 0.0
H202 H 0.13057 0.81733 0.67166 0.0
H203 H 0.18491 0.86537 0.68272 0.0
O204 O 0.08865 0.98931 0.4821 0.0
O205 O 0.04844 0.96711 0.60836 0.0
O206 O 0.0485 0.02937 0.62723 0.0
O207 O 0.04973 0.93897 0.48489 0.0
O208 O 0.06952 0.04089 0.52145 0.0
O209 O 0.0567 0.06733 0.58508 0.0
O210 O 0.96243 0.04487 0.64632 0.0
O211 O 0.99484 0.06828 0.51166 0.0
O212 O 0.99473 1.00714 0.48958 0.0
O213 O 0.9902 0.10104 0.62754 0.0
O214 O 0.9731 0.99355 0.59753 0.0
O215 O 0.9848 0.9697 0.53201 0.0
C216 C 0.0574 0.99111 0.63826 0.0
C217 C 0.06581 0.96838 0.411 0.0
C218 C 0.07934 0.95911 0.33435 0.0
C219 C 0.04791 0.98653 0.313 0.0
C220 C 0.03493 0.99583 0.38886 0.0
C221 C 0.02593 1.00469 0.34014 0.0
C222 C 0.08792 0.95 0.38369 0.0
C223 C 0.07587 0.06755 0.549 0.0
C224 C 0.07585 0.95947 0.46242 0.0
C225 C 0.12659 0.84771 0.65233 0.0
C226 C 0.15752 0.87509 0.65868 0.0
C227 C 0.98494 0.04528 0.48085 0.0
C228 C 0.98934 0.07785 0.70768 0.0
C229 C 0.98295 0.08826 0.7862 0.0
C230 C 0.02422 0.07876 0.80041 0.0
C231 C 0.03053 0.06934 0.72253 0.0
C232 C 0.96546 0.08708 0.7397 0.0
C233 C 0.04774 0.06927 0.76877 0.0
C234 C 0.96584 0.96828 0.56832 0.0
C235 C 0.97172 0.07898 0.65836 0.0
H236 H 0.04004 0.99371 0.27525 0.0
H237 H 0.018 0.01056 0.40921 0.0
H238 H 1.00188 0.02579 0.32335 0.0
H239 H 0.11225 0.92928 0.40087 0.0
H240 H 0.03835 0.0788 0.83607 0.0
H241 H 0.04945 0.0635 0.69805 0.0
H242 H 0.93377 0.09456 0.72809 0.0
H243 H 0.07955 0.06241 0.77996 0.0
Tb244 Tb 0.48078 0.49224 1.00281 0.0
C245 C 0.63996 0.56669 0.06622 0.0
N246 N 0.62331 0.53364 0.08899 0.0
C247 C 0.68671 0.49852 0.10051 0.0
C248 C 0.68002 0.56627 0.05736 0.0
C249 C 0.64708 0.50084 0.10924 0.0
C250 C 0.70298 0.53109 0.07349 0.0
C251 C 0.63476 0.63782 0.03527 0.0
C252 C 0.61783 0.60196 0.05537 0.0
C253 C 0.6738 0.63716 0.02379 0.0
C254 C 0.69638 0.60141 0.03472 0.0
Tb255 Tb 0.55702 0.54046 0.09745 0.0
N256 N 0.57986 0.60122 0.06598 0.0
C257 C 0.61218 0.67326 0.02828 0.0
C258 C 0.55857 0.63588 0.0619 0.0
C259 C 0.57418 0.67235 0.04238 0.0
H260 H 0.63584 0.47652 0.1327 0.0
H261 H 0.5569 0.6997 0.03812 0.0
H262 H 0.39456 0.53582 1.00662 0.0
H263 H 0.52622 0.33607 0.0392 0.0
H264 H 0.52929 0.63518 0.07294 0.0
H265 H 0.62412 0.7015 1.013 0.0
H266 H 0.53054 0.40694 1.00429 0.0
H267 H 0.70491 0.47192 0.11539 0.0
H268 H 0.68719 0.66429 1.00761 0.0
H269 H 0.72694 0.60156 0.02705 0.0
H270 H 0.33042 0.51672 0.03572 0.0
H271 H 0.73388 0.52946 0.06739 0.0
H272 H 0.4684 0.31214 0.07917 0.0
N273 N 0.42041 0.47751 0.02805 0.0
C274 C 0.41463 0.43867 0.04643 0.0
C275 C 0.35398 0.49453 0.03927 0.0
C276 C 0.37872 0.4264 0.06376 0.0
C277 C 0.3904 0.50534 0.0231 0.0
C278 C 0.34826 0.45496 0.06012 0.0
N279 N 0.47881 0.42463 0.0298 0.0
C280 C 0.50657 0.39767 0.02422 0.0
C281 C 0.44055 0.37079 0.06701 0.0
C282 C 0.44525 0.41146 0.04827 0.0
C283 C 0.47082 0.34365 0.06517 0.0
C284 C 0.5036 0.35708 0.04286 0.0
H285 H 0.32016 0.44673 0.07295 0.0
H286 H 0.34729 0.37616 0.09803 0.0
H287 H 0.40137 0.32736 0.10065 0.0
O288 O 0.46634 0.46158 0.94678 0.0
O289 O 0.46761 0.49396 0.07365 0.0
O290 O 0.52848 0.4836 0.12122 0.0
O291 O 0.44912 0.52301 0.93876 0.0
O292 O 0.54446 0.47342 1.01647 0.0
O293 O 0.56745 0.47735 0.09374 0.0
O294 O 0.53447 0.56045 0.15225 0.0
O295 O 0.54675 0.56916 0.02256 0.0
O296 O 0.5372 0.51775 0.98217 0.0
O297 O 0.59742 0.54848 0.15714 0.0
O298 O 0.49499 0.56523 0.07934 0.0
O299 O 0.46928 0.55522 1.00391 0.0
C300 C 0.48941 0.47801 0.11373 0.0
C301 C 0.40985 0.48403 0.8896 0.0
C302 C 0.37586 0.46226 0.81881 0.0
C303 C 0.33849 0.46948 0.83204 0.0
C304 C 0.37221 0.49117 0.90171 0.0
C305 C 0.33679 0.48372 0.87317 0.0
C306 C 0.41151 0.46953 0.84819 0.0
C307 C 0.56931 0.46223 0.05602 0.0
C308 C 0.44789 0.49204 0.91876 0.0
C309 C 0.37448 0.38618 0.08403 0.0
C310 C 0.40535 0.35843 0.0857 0.0
C311 C 0.55169 0.55303 0.98662 0.0
C312 C 0.57121 0.53825 0.22784 0.0
C313 C 0.58723 0.53942 0.31162 0.0
C314 C 0.57714 0.49884 0.32136 0.0
C315 C 0.56184 0.49776 0.23854 0.0
C316 C 0.58376 0.55908 0.26444 0.0
C317 C 0.56448 0.47829 0.28505 0.0
C318 C 0.46976 0.57414 0.03934 0.0
C319 C 0.56944 0.55854 0.17871 0.0
H320 H 0.31044 0.46495 0.81011 0.0
H321 H 0.37005 0.50287 0.9328 0.0
H322 H 0.30783 0.48946 0.8827 0.0
H323 H 0.44066 0.46381 0.83901 0.0
H324 H 0.57881 0.48299 0.35715 0.0
H325 H 0.55285 0.4812 0.2109 0.0
H326 H 0.59169 0.59023 0.25615 0.0
H327 H 0.55693 0.44706 0.293 0.0
C328 C 0.15524 0.1461 0.56716 0.0
C329 C 0.16776 0.15573 0.52294 0.0
H330 H 0.11659 0.11111 0.61 0.0
C331 C 0.14936 0.13636 0.48717 0.0
H332 H 0.16836 0.16077 0.59538 0.0
C333 C 0.11967 0.1077 0.49564 0.0
C334 C 0.10721 0.09814 0.53989 0.0
H335 H 0.1584 0.14286 0.45281 0.0
H336 H 0.1063 0.09318 0.46739 0.0
C337 C 0.1253 0.11781 0.57548 0.0
C338 C 0.40497 0.6541 0.06772 0.0
C339 C 0.38066 0.66771 0.0243 0.0
H340 H 0.45201 0.61398 0.10666 0.0
C341 C 0.3868 0.651 0.98571 0.0
H342 H 0.40087 0.66604 0.09827 0.0
C343 C 0.41593 0.62103 0.99053 0.0
C344 C 0.43983 0.60697 0.03407 0.0
H345 H 0.36925 0.66129 0.9515 0.0
H346 H 0.41957 0.60885 0.96 0.0
C347 C 0.43422 0.6241 0.07255 0.0
C348 C 0.88445 0.89294 0.54462 0.0
C349 C 0.8731 0.88 0.58906 0.0
H350 H 0.92226 0.93067 0.50331 0.0
C351 C 0.89294 0.89619 0.62688 0.0
H352 H 0.87029 0.8808 0.51478 0.0
C353 C 0.92294 0.9249 0.62025 0.0
C354 C 0.93418 0.93772 0.57575 0.0
H355 H 0.88483 0.88713 0.6615 0.0
H356 H 0.93747 0.93692 0.65002 0.0
C357 C 0.91456 0.92133 0.53809 0.0
C358 C 0.64568 0.37656 0.09659 0.0
C359 C 0.65871 0.37314 0.05421 0.0
H360 H 0.60707 0.40736 0.13059 0.0
C361 C 0.64259 0.39985 1.0132 0.0
H362 H 0.65768 0.35672 0.12894 0.0
C363 C 0.61425 0.429 1.01437 0.0
C364 C 0.60096 0.43222 0.05649 0.0
H365 H 0.65119 0.39779 0.97977 0.0
H366 H 0.60244 0.44889 0.98197 0.0
C367 C 0.61704 0.4058 0.0977 0.0
C368 C 0.13495 0.94544 0.23516 0.0
C369 C 0.14485 0.90449 0.24638 0.0
H370 H 0.10734 0.99479 0.25433 0.0
C371 C 0.13419 0.88185 0.28778 0.0
H372 H 0.14338 0.964 0.20411 0.0
C373 C 0.11354 0.89959 0.31673 0.0
C374 C 0.10296 0.94038 0.30493 0.0
H375 H 0.1409 0.85014 0.29728 0.0
H376 H 0.10492 0.8811 0.34771 0.0
C377 C 0.11429 0.96313 0.26401 0.0
C378 C 0.59404 0.63836 0.90578 0.0
C379 C 0.61416 0.61806 0.8783 0.0
H380 H 0.5576 0.63393 0.96021 0.0
C381 C 0.61295 0.57608 0.88657 0.0
H382 H 0.59359 0.67065 0.89997 0.0
C383 C 0.59253 0.55507 0.9215 0.0
C384 C 0.57284 0.57544 0.94917 0.0
H385 H 0.62839 0.55934 0.86656 0.0
H386 H 0.59265 0.52277 0.92729 0.0
C387 C 0.57347 0.61732 0.94051 0.0
C388 C 0.91298 0.05862 0.36596 0.0
C389 C 0.91442 0.10008 0.35017 0.0
H390 H 0.93401 1.00863 0.42022 0.0
C391 C 0.94088 0.1227 0.37633 0.0
H392 H 0.89283 0.04047 0.34649 0.0
C393 C 0.96464 0.10452 0.41791 0.0
C394 C 0.96206 0.06341 0.43479 0.0
H395 H 0.94326 0.15458 0.36459 0.0
H396 H 0.98492 0.1228 0.43704 0.0
C397 C 0.93651 0.04044 0.40806 0.0
C398 C 0.40593 0.45163 0.70196 0.0
C399 C 0.3771 0.42487 0.68618 0.0
H400 H 0.42802 0.48461 0.75548 0.0
C401 C 0.34892 0.40935 0.71538 0.0
H402 H 0.42852 0.46379 0.68087 0.0
C403 C 0.3491 0.42078 0.75864 0.0
C404 C 0.37734 0.44822 0.77395 0.0
H405 H 0.32602 0.38898 0.70441 0.0
H406 H 0.3269 0.40815 0.78005 0.0
C407 C 0.40602 0.46317 0.74518 0.0
C408 C 0.59863 0.61748 0.38964 0.0
C409 C 0.62564 0.59824 0.42871 0.0
H410 H 0.5655 0.61422 0.32197 0.0
C411 C 0.64114 0.56037 0.42784 0.0
H412 H 0.58637 0.64681 0.38896 0.0
C413 C 0.62922 0.54179 0.38955 0.0
C414 C 0.60161 0.56061 0.3509 0.0
H415 H 0.66166 0.54446 0.45742 0.0
H416 H 0.64151 0.51244 0.39035 0.0
C417 C 0.58692 0.59897 0.35107 0.0
C418 C 0.90102 0.09273 0.86126 0.0
C419 C 0.91734 0.11985 0.88948 0.0
H420 H 0.90872 0.0618 0.80595 0.0
C421 C 0.95418 0.13786 0.8816 0.0
H422 H 0.87257 0.07854 0.86631 0.0
C423 C 0.97482 0.12816 0.84741 0.0
C424 C 0.95906 0.10041 0.81993 0.0
H425 H 0.96783 0.15852 0.90298 0.0
H426 H 1.00348 0.1421 0.84281 0.0
C427 C 0.92154 0.08335 0.82655 0.0
C428 C 0.46938 0.40796 0.22478 0.0
C429 C 0.42865 0.41672 0.22583 0.0
H430 H 0.52024 0.41978 0.18823 0.0
C431 C 0.40859 0.44633 0.19003 0.0
H432 H 0.48573 0.38509 0.25143 0.0
C433 C 0.42852 0.46641 0.15421 0.0
C434 C 0.46892 0.4572 0.15272 0.0
H435 H 0.3775 0.45443 0.18996 0.0
H436 H 0.41228 0.48949 0.12781 0.0
C437 C 0.4892 0.42784 0.18856 0.0
C438 C 0.09113 0.92048 0.75317 0.0
C439 C 0.11411 0.94573 0.77933 0.0
H440 H 0.05491 0.91519 0.68793 0.0
C441 C 0.12094 0.98496 0.75728 0.0
H442 H 0.08531 0.89011 0.76914 0.0
C443 C 0.1037 0.99917 0.71086 0.0
C444 C 0.0788 0.97471 0.68567 0.0
H445 H 0.13935 1.00482 0.77609 0.0
H446 H 0.10956 0.02952 0.69483 0.0
C447 C 0.07363 0.93485 0.70674 0.0
loop_
_geom_bond_atom_site_label_1
_geom_bond_atom_site_label_2
_geom_bond_distance
_geom_bond_site_symmetry_2
_ccdc_geom_bond_type
C0 C1 1.264 . S
C0 C5 1.479 . S
C0 C10 1.465 . S
C1 C0 1.264 . S
C1 C3 1.339 . S
C1 H28 0.931 . S
C2 C3 1.395 . S
C2 C4 1.320 . S
C3 C1 1.339 . S
C3 C2 1.395 . S
C3 H29 0.929 . S
C4 C2 1.320 . S
C4 C5 1.405 . S
C4 H30 0.930 . S
C5 C0 1.479 . S
C5 C4 1.405 . S
C5 H31 0.931 . S
U6 O7 2.454 . S
U6 O8 2.458 1_554 S
U6 C9 2.984 . S
U6 C10 2.847 . S
U6 C23 2.882 1_554 S
U6 O24 2.441 . S
U6 O25 2.420 . S
U6 O26 2.455 1_554 S
U6 O27 2.449 1_554 S
O7 U6 2.454 . S
O7 C9 1.353 . S
O8 U6 2.458 1_556 S
O8 C9 1.286 1_556 S
C9 U6 2.984 . S
C9 O7 1.353 . S
C9 O8 1.286 1_554 S
C9 C11 1.363 . S
C10 C0 1.465 . S
C10 U6 2.847 . S
C10 O24 1.249 . S
C10 O25 1.202 . S
C11 C9 1.363 . S
C11 C13 1.408 . S
C11 C16 1.361 . S
C12 C13 1.310 . S
C12 C15 1.461 . S
C12 H32 0.932 . S
C13 C11 1.408 . S
C13 C12 1.310 . S
C13 H33 0.930 . S
C14 C15 1.474 . S
C14 C16 1.282 . S
C14 H34 0.929 1_554 S
C15 C12 1.461 . S
C15 C14 1.474 . S
C16 C11 1.361 . S
C16 C14 1.282 . S
C16 H35 0.915 1_554 S
C17 C20 1.424 . S
C17 C22 1.245 . S
C17 C23 1.428 . S
C18 C21 1.260 . S
C18 C22 1.477 . S
C18 H36 0.932 . S
C19 C20 1.384 . S
C19 C21 1.479 . S
C19 H37 0.929 . S
C20 C17 1.424 . S
C20 C19 1.384 . S
C20 H38 0.928 . S
C21 C18 1.260 . S
C21 C19 1.479 . S
C22 C17 1.245 . S
C22 C18 1.477 . S
C22 H39 0.932 . S
C23 U6 2.882 1_556 S
C23 C17 1.428 . S
C23 O26 1.301 . S
C23 O27 1.282 . S
O24 U6 2.441 . S
O24 C10 1.249 . S
O25 U6 2.420 . S
O25 C10 1.202 . S
O26 U6 2.455 1_556 S
O26 C23 1.301 . S
O27 U6 2.449 1_556 S
O27 C23 1.282 . S
H28 C1 0.931 . S
H29 C3 0.929 . S
H30 C4 0.930 . S
H31 C5 0.931 . S
H32 C12 0.932 . S
H33 C13 0.930 . S
H34 C14 0.929 1_556 S
H35 C16 0.915 1_556 S
H36 C18 0.932 . S
H37 C19 0.929 . S
H38 C20 0.928 . S
H39 C22 0.932 . S
C40 C41 1.264 . S
C40 C45 1.479 . S
C40 C50 1.465 . S
C41 C40 1.264 . S
C41 C43 1.339 . S
C41 H68 0.931 . S
C42 C43 1.395 . S
C42 C44 1.320 . S
C43 C41 1.339 . S
C43 C42 1.395 . S
C43 H69 0.929 . S
C44 C42 1.320 . S
C44 C45 1.405 . S
C44 H70 0.930 . S
C45 C40 1.479 . S
C45 C44 1.405 . S
C45 H71 0.931 . S
U46 O47 2.454 . S
U46 O48 2.458 . S
U46 C49 2.984 . S
U46 C50 2.847 . S
U46 C63 2.882 . S
U46 O64 2.441 . S
U46 O65 2.420 . S
U46 O66 2.455 . S
U46 O67 2.449 . S
O47 U46 2.454 . S
O47 C49 1.353 . S
O48 U46 2.458 . S
O48 C49 1.286 . S
C49 U46 2.984 . S
C49 O47 1.353 . S
C49 O48 1.286 . S
C49 C51 1.363 . S
C50 C40 1.465 . S
C50 U46 2.847 . S
C50 O64 1.249 . S
C50 O65 1.202 . S
C51 C49 1.363 . S
C51 C53 1.408 . S
C51 C56 1.342 . S
C52 C53 1.310 . S
C52 C55 1.461 . S
C52 H72 0.932 . S
C53 C51 1.408 . S
C53 C52 1.310 . S
C53 H73 0.930 . S
C54 C55 1.474 . S
C54 C56 1.285 . S
C54 H74 0.929 . S
C55 C52 1.461 . S
C55 C54 1.474 . S
C56 C51 1.342 . S
C56 C54 1.285 . S
C56 H75 0.930 . S
C57 C60 1.424 . S
C57 C62 1.245 . S
C57 C63 1.428 . S
C58 C61 1.260 . S
C58 C62 1.477 . S
C58 H76 0.932 . S
C59 C60 1.384 . S
C59 C61 1.479 . S
C59 H77 0.929 . S
C60 C57 1.424 . S
C60 C59 1.384 . S
C60 H78 0.928 . S
C61 C58 1.260 . S
C61 C59 1.479 . S
C62 C57 1.245 . S
C62 C58 1.477 . S
C62 H79 0.932 . S
C63 U46 2.882 . S
C63 C57 1.428 . S
C63 O66 1.301 . S
C63 O67 1.282 . S
O64 U46 2.441 . S
O64 C50 1.249 . S
O65 U46 2.420 . S
O65 C50 1.202 . S
O66 U46 2.455 . S
O66 C63 1.301 . S
O67 U46 2.449 . S
O67 C63 1.282 . S
H68 C41 0.931 . S
H69 C43 0.929 . S
H70 C44 0.930 . S
H71 C45 0.931 . S
H72 C52 0.932 . S
H73 C53 0.930 . S
H74 C54 0.929 . S
H75 C56 0.930 . S
H76 C58 0.932 . S
H77 C59 0.929 . S
H78 C60 0.928 . S
H79 C62 0.932 . S
C80 C81 1.264 . S
C80 C85 1.479 . S
C80 C90 1.465 . S
C81 C80 1.264 . S
C81 C83 1.339 . S
C81 H108 0.931 . S
C82 C83 1.395 . S
C82 C84 1.320 . S
C83 C81 1.339 . S
C83 C82 1.395 . S
C83 H109 0.929 . S
C84 C82 1.320 . S
C84 C85 1.405 . S
C84 H110 0.930 . S
C85 C80 1.479 . S
C85 C84 1.405 . S
C85 H111 0.931 . S
U86 O87 2.454 . S
U86 O88 2.458 . S
U86 C89 2.984 . S
U86 C90 2.847 . S
U86 C103 2.882 1_554 S
U86 O104 2.441 . S
U86 O105 2.420 . S
U86 O106 2.455 1_554 S
U86 O107 2.449 . S
O87 U86 2.454 . S
O87 C89 1.353 . S
O88 U86 2.458 . S
O88 C89 1.286 . S
C89 U86 2.984 . S
C89 O87 1.353 . S
C89 O88 1.286 . S
C89 C91 1.363 . S
C90 C80 1.465 . S
C90 U86 2.847 . S
C90 O104 1.249 . S
C90 O105 1.202 . S
C91 C89 1.363 . S
C91 C93 1.408 . S
C91 C96 1.342 1_554 S
C92 C93 1.310 . S
C92 C95 1.461 . S
C92 H112 0.932 . S
C93 C91 1.408 . S
C93 C92 1.310 . S
C93 H113 0.930 . S
C94 C95 1.474 1_556 S
C94 C96 1.285 . S
C94 H114 0.929 . S
C95 C92 1.461 . S
C95 C94 1.474 1_554 S
C96 C91 1.342 1_556 S
C96 C94 1.285 . S
C96 H115 0.930 . S
C97 C100 1.424 . S
C97 C102 1.245 . S
C97 C103 1.428 . S
C98 C101 1.260 . S
C98 C102 1.477 . S
C98 H116 0.932 . S
C99 C100 1.384 . S
C99 C101 1.479 . S
C99 H117 0.929 . S
C100 C97 1.424 . S
C100 C99 1.384 . S
C100 H118 0.928 . S
C101 C98 1.260 . S
C101 C99 1.479 . S
C102 C97 1.245 . S
C102 C98 1.477 . S
C102 H119 0.932 . S
C103 U86 2.882 1_556 S
C103 C97 1.428 . S
C103 O106 1.301 . S
C103 O107 1.282 1_556 S
O104 U86 2.441 . S
O104 C90 1.249 . S
O105 U86 2.420 . S
O105 C90 1.202 . S
O106 U86 2.455 1_556 S
O106 C103 1.301 . S
O107 U86 2.449 . S
O107 C103 1.282 1_554 S
H108 C81 0.931 . S
H109 C83 0.929 . S
H110 C84 0.930 . S
H111 C85 0.931 . S
H112 C92 0.932 . S
H113 C93 0.930 . S
H114 C94 0.929 . S
H115 C96 0.930 . S
H116 C98 0.932 . S
H117 C99 0.929 . S
H118 C100 0.928 . S
H119 C102 0.932 . S
C120 C121 1.264 . S
C120 C125 1.479 . S
C120 C130 1.465 . S
C121 C120 1.264 . S
C121 C123 1.339 . S
C121 H148 0.931 . S
C122 C123 1.395 . S
C122 C124 1.320 . S
C123 C121 1.339 . S
C123 C122 1.395 . S
C123 H149 0.929 . S
C124 C122 1.320 . S
C124 C125 1.405 . S
C124 H150 0.930 . S
C125 C120 1.479 . S
C125 C124 1.405 . S
C125 H151 0.931 . S
U126 O127 2.454 . S
U126 O128 2.458 . S
U126 C129 2.984 . S
U126 C130 2.847 . S
U126 C143 2.882 . S
U126 O144 2.441 . S
U126 O145 2.420 . S
U126 O146 2.455 . S
U126 O147 2.449 . S
O127 U126 2.454 . S
O127 C129 1.353 . S
O128 U126 2.458 . S
O128 C129 1.286 . S
C129 U126 2.984 . S
C129 O127 1.353 . S
C129 O128 1.286 . S
C129 C131 1.363 . S
C130 C120 1.465 . S
C130 U126 2.847 . S
C130 O144 1.249 . S
C130 O145 1.202 . S
C131 C129 1.363 . S
C131 C133 1.408 . S
C131 C136 1.342 . S
C132 C133 1.310 . S
C132 C135 1.461 . S
C132 H152 0.932 . S
C133 C131 1.408 . S
C133 C132 1.310 . S
C133 H153 0.930 . S
C134 C135 1.474 . S
C134 C136 1.285 . S
C134 H154 0.929 . S
C135 C132 1.461 . S
C135 C134 1.474 . S
C136 C131 1.342 . S
C136 C134 1.285 . S
C136 H155 0.930 . S
C137 C140 1.424 . S
C137 C142 1.245 . S
C137 C143 1.428 . S
C138 C141 1.260 . S
C138 C142 1.477 . S
C138 H156 0.932 . S
C139 C140 1.384 . S
C139 C141 1.479 . S
C139 H157 0.929 . S
C140 C137 1.424 . S
C140 C139 1.384 . S
C140 H158 0.928 . S
C141 C138 1.260 . S
C141 C139 1.479 . S
C142 C137 1.245 . S
C142 C138 1.477 . S
C142 H159 0.932 . S
C143 U126 2.882 . S
C143 C137 1.428 . S
C143 O146 1.301 . S
C143 O147 1.282 . S
O144 U126 2.441 . S
O144 C130 1.249 . S
O145 U126 2.420 . S
O145 C130 1.202 . S
O146 U126 2.455 . S
O146 C143 1.301 . S
O147 U126 2.449 . S
O147 C143 1.282 . S
H148 C121 0.931 . S
H149 C123 0.929 . S
H150 C124 0.930 . S
H151 C125 0.931 . S
H152 C132 0.932 . S
H153 C133 0.930 . S
H154 C134 0.929 . S
H155 C136 0.930 . S
H156 C138 0.932 . S
H157 C139 0.929 . S
H158 C140 0.928 . S
H159 C142 0.932 . S
Tb160 N189 2.617 . S
Tb160 N195 2.572 . S
Tb160 O204 2.465 . S
Tb160 O205 2.387 . S
Tb160 O207 2.428 . S
Tb160 O208 2.308 1_565 S
Tb160 O212 2.352 1_455 S
Tb160 O215 2.393 1_455 S
Tb160 C224 2.802 . S
C161 N162 1.379 . S
C161 C164 1.416 . S
C161 C168 1.424 . S
N162 C161 1.379 . S
N162 C165 1.314 1_655 S
N162 Tb171 2.617 . S
C163 C165 1.390 1_655 S
C163 C166 1.339 . S
C163 H183 0.930 1_655 S
C164 C161 1.416 . S
C164 C166 1.416 . S
C164 C170 1.448 . S
C165 N162 1.314 1_455 S
C165 C163 1.390 1_455 S
C165 H176 0.952 . S
C166 C163 1.339 . S
C166 C164 1.416 . S
C166 H187 0.930 . S
C167 C168 1.413 . S
C167 C169 1.427 . S
C167 C173 1.416 . S
C168 C161 1.424 . S
C168 C167 1.413 . S
C168 N172 1.361 . S
C169 C167 1.427 . S
C169 C170 1.328 . S
C169 H184 0.929 . S
C170 C164 1.448 . S
C170 C169 1.328 . S
C170 H185 0.930 . S
Tb171 N162 2.617 . S
Tb171 N172 2.572 . S
Tb171 O206 2.349 1_655 S
Tb171 O209 2.393 1_655 S
Tb171 O210 2.465 . S
Tb171 O211 2.387 . S
Tb171 O213 2.428 . S
Tb171 O214 2.308 1_545 S
Tb171 C235 2.802 . S
N172 C168 1.361 . S
N172 Tb171 2.572 . S
N172 C174 1.340 . S
C173 C167 1.416 . S
C173 C175 1.332 . S
C173 H181 0.931 . S
C174 N172 1.340 . S
C174 C175 1.407 . S
C174 H180 0.930 . S
C175 C173 1.332 . S
C175 C174 1.407 . S
C175 H177 0.929 . S
H176 C165 0.952 . S
H177 C175 0.929 . S
H178 C193 0.930 1_655 S
H179 C200 0.929 . S
H180 C174 0.930 . S
H181 C173 0.931 . S
H182 C196 0.930 . S
H183 C163 0.930 1_455 S
H184 C169 0.929 . S
H185 C170 0.930 . S
H186 C191 0.930 1_655 S
H187 C166 0.930 . S
H188 C199 0.931 . S
N189 Tb160 2.617 . S
N189 C190 1.379 . S
N189 C193 1.334 . S
C190 N189 1.379 . S
C190 C192 1.416 . S
C190 C198 1.424 . S
C191 H186 0.930 1_455 S
C191 C193 1.390 . S
C191 C194 1.339 . S
C192 C190 1.416 . S
C192 C194 1.416 . S
C192 C225 1.448 . S
C193 H178 0.930 1_455 S
C193 N189 1.334 . S
C193 C191 1.390 . S
C194 C191 1.339 . S
C194 C192 1.416 . S
C194 H201 0.930 . S
N195 Tb160 2.572 . S
N195 C196 1.340 . S
N195 C198 1.361 . S
C196 H182 0.930 . S
C196 N195 1.340 . S
C196 C200 1.407 . S
C197 C198 1.413 . S
C197 C199 1.416 . S
C197 C226 1.427 . S
C198 C190 1.424 . S
C198 N195 1.361 . S
C198 C197 1.413 . S
C199 H188 0.931 . S
C199 C197 1.416 . S
C199 C200 1.332 . S
C200 H179 0.929 . S
C200 C196 1.407 . S
C200 C199 1.332 . S
H201 C194 0.930 . S
H202 C225 0.930 . S
H203 C226 0.929 . S
O204 Tb160 2.465 . S
O204 C224 1.264 . S
O205 Tb160 2.387 . S
O205 C216 1.264 . S
O206 Tb171 2.349 1_455 S
O206 C216 1.243 1_545 S
O207 Tb160 2.428 . S
O207 C224 1.256 . S
O208 Tb160 2.308 1_545 S
O208 C223 1.266 . S
O209 Tb171 2.393 1_455 S
O209 C223 1.248 . S
O210 Tb171 2.465 . S
O210 C235 1.264 . S
O211 Tb171 2.387 . S
O211 C227 1.264 . S
O212 Tb160 2.352 1_655 S
O212 C227 1.238 1_565 S
O213 Tb171 2.428 . S
O213 C235 1.256 . S
O214 Tb171 2.308 1_565 S
O214 C234 1.266 . S
O215 Tb160 2.393 1_655 S
O215 C234 1.248 . S
C216 O205 1.264 . S
C216 O206 1.243 1_565 S
C217 C220 1.399 . S
C217 C222 1.383 . S
C217 C224 1.496 . S
C218 C219 1.399 . S
C218 C222 1.389 . S
C219 C218 1.399 . S
C219 C221 1.380 . S
C219 H236 0.929 . S
C220 C217 1.399 . S
C220 C221 1.392 . S
C220 H237 0.929 . S
C221 C219 1.380 . S
C221 C220 1.392 . S
C221 H238 0.929 . S
C222 C217 1.383 . S
C222 C218 1.389 . S
C222 H239 0.931 . S
C223 O208 1.266 . S
C223 O209 1.248 . S
C224 Tb160 2.802 . S
C224 O204 1.264 . S
C224 O207 1.256 . S
C224 C217 1.496 . S
C225 C192 1.448 . S
C225 H202 0.930 . S
C225 C226 1.328 . S
C226 C197 1.427 . S
C226 H203 0.929 . S
C226 C225 1.328 . S
C227 O211 1.264 . S
C227 O212 1.238 1_545 S
C228 C231 1.399 . S
C228 C232 1.383 . S
C228 C235 1.496 . S
C229 C230 1.399 . S
C229 C232 1.389 . S
C230 C229 1.399 . S
C230 C233 1.380 . S
C230 H240 0.929 . S
C231 C228 1.399 . S
C231 C233 1.392 . S
C231 H241 0.929 . S
C232 C228 1.383 . S
C232 C229 1.389 . S
C232 H242 0.931 . S
C233 C230 1.380 . S
C233 C231 1.392 . S
C233 H243 0.929 . S
C234 O214 1.266 . S
C234 O215 1.248 . S
C235 Tb171 2.802 . S
C235 O210 1.264 . S
C235 O213 1.256 . S
C235 C228 1.496 . S
H236 C219 0.929 . S
H237 C220 0.929 . S
H238 C221 0.929 . S
H239 C222 0.931 . S
H240 C230 0.929 . S
H241 C231 0.929 . S
H242 C232 0.931 . S
H243 C233 0.929 . S
Tb244 N273 2.617 . S
Tb244 N279 2.572 1_556 S
Tb244 O288 2.465 . S
Tb244 O289 2.387 1_556 S
Tb244 O291 2.428 . S
Tb244 O292 2.308 1_556 S
Tb244 O296 2.349 . S
Tb244 O299 2.391 1_556 S
Tb244 C308 2.802 . S
C245 N246 1.379 . S
C245 C248 1.416 . S
C245 C252 1.424 . S
N246 C245 1.379 . S
N246 C249 1.334 . S
N246 Tb255 2.617 . S
C247 C249 1.390 . S
C247 C250 1.339 . S
C247 H267 0.930 . S
C248 C245 1.416 . S
C248 C250 1.416 . S
C248 C254 1.448 . S
C249 N246 1.334 . S
C249 C247 1.390 . S
C249 H260 0.930 . S
C250 C247 1.339 . S
C250 C248 1.416 . S
C250 H271 0.930 . S
C251 C252 1.413 . S
C251 C253 1.427 . S
C251 C257 1.416 . S
C252 C245 1.424 . S
C252 C251 1.413 . S
C252 N256 1.361 . S
C253 C251 1.427 . S
C253 C254 1.328 . S
C253 H268 0.929 . S
C254 C248 1.448 . S
C254 C253 1.328 . S
C254 H269 0.930 . S
Tb255 N246 2.617 . S
Tb255 N256 2.572 . S
Tb255 O290 2.349 . S
Tb255 O293 2.393 . S
Tb255 O294 2.465 . S
Tb255 O295 2.404 . S
Tb255 O297 2.428 . S
Tb255 O298 2.308 . S
Tb255 C319 2.802 . S
N256 C252 1.361 . S
N256 Tb255 2.572 . S
N256 C258 1.340 . S
C257 C251 1.416 . S
C257 C259 1.332 . S
C257 H265 0.931 . S
C258 N256 1.340 . S
C258 C259 1.407 . S
C258 H264 0.930 . S
C259 C257 1.332 . S
C259 C258 1.407 . S
C259 H261 0.929 . S
H260 C249 0.930 . S
H261 C259 0.929 . S
H262 C277 0.930 . S
H263 C284 0.929 . S
H264 C258 0.930 . S
H265 C257 0.931 . S
H266 C280 0.930 . S
H267 C247 0.930 . S
H268 C253 0.929 . S
H269 C254 0.930 . S
H270 C275 0.930 . S
H271 C250 0.930 . S
H272 C283 0.931 . S
N273 Tb244 2.617 . S
N273 C274 1.379 1_556 S
N273 C277 1.334 . S
C274 N273 1.379 1_554 S
C274 C276 1.416 . S
C274 C282 1.424 . S
C275 H270 0.930 . S
C275 C277 1.390 . S
C275 C278 1.339 1_556 S
C276 C274 1.416 . S
C276 C278 1.416 . S
C276 C309 1.448 . S
C277 H262 0.930 . S
C277 N273 1.334 . S
C277 C275 1.390 . S
C278 C275 1.339 1_554 S
C278 C276 1.416 . S
C278 H285 0.930 . S
N279 Tb244 2.572 1_554 S
N279 C280 1.340 . S
N279 C282 1.361 . S
C280 H266 0.930 . S
C280 N279 1.340 . S
C280 C284 1.407 . S
C281 C282 1.413 . S
C281 C283 1.416 . S
C281 C310 1.427 . S
C282 C274 1.424 . S
C282 N279 1.361 . S
C282 C281 1.413 . S
C283 H272 0.931 . S
C283 C281 1.416 . S
C283 C284 1.332 . S
C284 H263 0.929 . S
C284 C280 1.407 . S
C284 C283 1.332 . S
H285 C278 0.930 . S
H286 C309 0.930 . S
H287 C310 0.929 . S
O288 Tb244 2.465 . S
O288 C308 1.264 . S
O289 Tb244 2.387 1_554 S
O289 C300 1.264 . S
O290 Tb255 2.349 . S
O290 C300 1.243 . S
O291 Tb244 2.428 . S
O291 C308 1.256 . S
O292 Tb244 2.308 1_554 S
O292 C307 1.266 . S
O293 Tb255 2.393 . S
O293 C307 1.248 . S
O294 Tb255 2.465 . S
O294 C319 1.264 . S
O295 Tb255 2.404 . S
O295 C311 1.250 1_554 S
O296 Tb244 2.349 . S
O296 C311 1.243 . S
O297 Tb255 2.428 . S
O297 C319 1.256 . S
O298 Tb255 2.308 . S
O298 C318 1.266 . S
O299 Tb244 2.391 1_554 S
O299 C318 1.252 . S
C300 O289 1.264 . S
C300 O290 1.243 . S
C301 C304 1.399 . S
C301 C306 1.383 . S
C301 C308 1.496 . S
C302 C303 1.399 . S
C302 C306 1.389 . S
C303 C302 1.399 . S
C303 C305 1.380 . S
C303 H320 0.929 . S
C304 C301 1.399 . S
C304 C305 1.392 . S
C304 H321 0.929 . S
C305 C303 1.380 . S
C305 C304 1.392 . S
C305 H322 0.929 . S
C306 C301 1.383 . S
C306 C302 1.389 . S
C306 H323 0.931 . S
C307 O292 1.266 . S
C307 O293 1.248 . S
C308 Tb244 2.802 . S
C308 O288 1.264 . S
C308 O291 1.256 . S
C308 C301 1.496 . S
C309 C276 1.448 . S
C309 H286 0.930 . S
C309 C310 1.328 . S
C310 C281 1.427 . S
C310 H287 0.929 . S
C310 C309 1.328 . S
C311 O295 1.250 1_556 S
C311 O296 1.243 . S
C312 C315 1.399 . S
C312 C316 1.383 . S
C312 C319 1.496 . S
C313 C314 1.399 . S
C313 C316 1.389 . S
C314 C313 1.399 . S
C314 C317 1.380 . S
C314 H324 0.929 . S
C315 C312 1.399 . S
C315 C317 1.392 . S
C315 H325 0.929 . S
C316 C312 1.383 . S
C316 C313 1.389 . S
C316 H326 0.931 . S
C317 C314 1.380 . S
C317 C315 1.392 . S
C317 H327 0.929 . S
C318 O298 1.266 . S
C318 O299 1.252 . S
C319 Tb255 2.802 . S
C319 O294 1.264 . S
C319 O297 1.256 . S
C319 C312 1.496 . S
H320 C303 0.929 . S
H321 C304 0.929 . S
H322 C305 0.929 . S
H323 C306 0.931 . S
H324 C314 0.929 . S
H325 C315 0.929 . S
H326 C316 0.931 . S
H327 C317 0.929 . S
C328 C329 1.387 . S
C328 H332 0.950 . S
C328 C337 1.390 . S
C329 C328 1.387 . S
C329 C331 1.387 . S
H330 C337 0.950 . S
C331 C329 1.387 . S
C331 C333 1.390 . S
C331 H335 0.950 . S
H332 C328 0.950 . S
C333 C331 1.390 . S
C333 C334 1.387 . S
C333 H336 0.950 . S
C334 C333 1.387 . S
C334 C337 1.387 . S
H335 C331 0.950 . S
H336 C333 0.950 . S
C337 C328 1.390 . S
C337 H330 0.950 . S
C337 C334 1.387 . S
C338 C339 1.387 . S
C338 H342 0.950 . S
C338 C347 1.390 . S
C339 C338 1.387 . S
C339 C341 1.387 . S
H340 C347 0.950 . S
C341 C339 1.387 . S
C341 C343 1.390 . S
C341 H345 0.950 1_554 S
H342 C338 0.950 . S
C343 C341 1.390 . S
C343 C344 1.387 . S
C343 H346 0.950 1_554 S
C344 C343 1.387 . S
C344 C347 1.387 . S
H345 C341 0.950 1_556 S
H346 C343 0.950 1_556 S
C347 C338 1.390 . S
C347 H340 0.950 . S
C347 C344 1.387 . S
C348 C349 1.387 . S
C348 H352 0.950 . S
C348 C357 1.390 . S
C349 C348 1.387 . S
C349 C351 1.387 . S
H350 C357 0.950 . S
C351 C349 1.387 . S
C351 C353 1.390 . S
C351 H355 0.950 . S
H352 C348 0.950 . S
C353 C351 1.390 . S
C353 C354 1.387 . S
C353 H356 0.950 . S
C354 C353 1.387 . S
C354 C357 1.387 . S
H355 C351 0.950 . S
H356 C353 0.950 . S
C357 C348 1.390 . S
C357 H350 0.950 . S
C357 C354 1.387 . S
C358 C359 1.387 . S
C358 H362 0.950 . S
C358 C367 1.390 . S
C359 C358 1.387 . S
C359 C361 1.387 . S
H360 C367 0.950 . S
C361 C359 1.387 . S
C361 C363 1.390 . S
C361 H365 0.950 1_554 S
H362 C358 0.950 . S
C363 C361 1.390 . S
C363 C364 1.387 . S
C363 H366 0.950 . S
C364 C363 1.387 . S
C364 C367 1.387 . S
H365 C361 0.950 1_556 S
H366 C363 0.950 . S
C367 C358 1.390 . S
C367 H360 0.950 . S
C367 C364 1.387 . S
C368 C369 1.387 . S
C368 H372 0.958 . S
C368 C377 1.390 . S
C369 C368 1.387 . S
C369 C371 1.387 . S
H370 C377 0.950 1_545 S
C371 C369 1.387 . S
C371 C373 1.390 . S
C371 H375 0.950 . S
H372 C368 0.958 . S
C373 C371 1.390 . S
C373 C374 1.387 . S
C373 H376 0.950 . S
C374 C373 1.387 . S
C374 C377 1.387 . S
H375 C371 0.950 . S
H376 C373 0.950 . S
C377 C368 1.390 . S
C377 H370 0.950 1_565 S
C377 C374 1.387 . S
C378 C379 1.387 . S
C378 H382 0.950 . S
C378 C387 1.390 . S
C379 C378 1.387 . S
C379 C381 1.387 . S
H380 C387 0.950 . S
C381 C379 1.387 . S
C381 C383 1.390 . S
C381 H385 0.950 . S
H382 C378 0.950 . S
C383 C381 1.390 . S
C383 C384 1.387 . S
C383 H386 0.950 . S
C384 C383 1.387 . S
C384 C387 1.387 . S
H385 C381 0.950 . S
H386 C383 0.950 . S
C387 C378 1.390 . S
C387 H380 0.950 . S
C387 C384 1.387 . S
C388 C389 1.387 . S
C388 H392 0.950 1_545 S
C388 C397 1.390 . S
C389 C388 1.387 . S
C389 C391 1.387 . S
H390 C397 0.950 1_565 S
C391 C389 1.387 . S
C391 C393 1.390 . S
C391 H395 0.950 . S
H392 C388 0.950 1_565 S
C393 C391 1.390 . S
C393 C394 1.387 . S
C393 H396 0.950 . S
C394 C393 1.387 . S
C394 C397 1.387 . S
H395 C391 0.950 . S
H396 C393 0.950 . S
C397 C388 1.390 . S
C397 H390 0.950 1_545 S
C397 C394 1.387 . S
C398 C399 1.387 . S
C398 H402 0.950 . S
C398 C407 1.390 . S
C399 C398 1.387 . S
C399 C401 1.387 . S
H400 C407 0.950 . S
C401 C399 1.387 . S
C401 C403 1.390 . S
C401 H405 0.950 . S
H402 C398 0.950 . S
C403 C401 1.390 . S
C403 C404 1.387 . S
C403 H406 0.950 . S
C404 C403 1.387 . S
C404 C407 1.387 . S
H405 C401 0.950 . S
H406 C403 0.950 . S
C407 C398 1.390 . S
C407 H400 0.950 . S
C407 C404 1.387 . S
C408 C409 1.387 . S
C408 H412 0.950 . S
C408 C417 1.390 . S
C409 C408 1.387 . S
C409 C411 1.387 . S
H410 C417 0.950 . S
C411 C409 1.387 . S
C411 C413 1.390 . S
C411 H415 0.950 . S
H412 C408 0.950 . S
C413 C411 1.390 . S
C413 C414 1.387 . S
C413 H416 0.950 . S
C414 C413 1.387 . S
C414 C417 1.387 . S
H415 C411 0.950 . S
H416 C413 0.950 . S
C417 C408 1.390 . S
C417 H410 0.950 . S
C417 C414 1.387 . S
C418 C419 1.387 . S
C418 H422 0.950 . S
C418 C427 1.390 . S
C419 C418 1.387 . S
C419 C421 1.387 . S
H420 C427 0.950 1_565 S
C421 C419 1.387 . S
C421 C423 1.390 . S
C421 H425 0.950 . S
H422 C418 0.950 . S
C423 C421 1.390 . S
C423 C424 1.387 . S
C423 H426 0.950 . S
C424 C423 1.387 . S
C424 C427 1.387 . S
H425 C421 0.950 . S
H426 C423 0.950 . S
C427 C418 1.390 . S
C427 H420 0.950 1_545 S
C427 C424 1.387 . S
C428 C429 1.387 . S
C428 H432 0.950 . S
C428 C437 1.390 . S
C429 C428 1.387 . S
C429 C431 1.387 . S
H430 C437 0.950 . S
C431 C429 1.387 . S
C431 C433 1.390 . S
C431 H435 0.950 . S
H432 C428 0.950 . S
C433 C431 1.390 . S
C433 C434 1.387 . S
C433 H436 0.950 . S
C434 C433 1.387 . S
C434 C437 1.387 . S
H435 C431 0.950 . S
H436 C433 0.950 . S
C437 C428 1.390 . S
C437 H430 0.950 . S
C437 C434 1.387 . S
C438 C439 1.387 . S
C438 H442 0.950 . S
C438 C447 1.390 . S
C439 C438 1.387 . S
C439 C441 1.387 1_565 S
H440 C447 0.950 . S
C441 C439 1.387 1_545 S
C441 C443 1.390 . S
C441 H445 0.950 . S
H442 C438 0.950 . S
C443 C441 1.390 . S
C443 C444 1.387 1_545 S
C443 H446 0.950 . S
C444 C443 1.387 1_565 S
C444 C447 1.387 . S
H445 C441 0.950 . S
H446 C443 0.950 . S
C447 C438 1.390 . S
C447 H440 0.950 . S
C447 C444 1.387 . S
C334 C223 1.725 . S
C329 C135 1.682 . S
C339 C15 1.681 . S
C344 C318 1.707 . S
C349 C55 1.678 . S
C354 C234 1.711 . S
C359 C95 1.693 . S
C364 C307 1.731 . S
C374 C218 1.449 . S
C369 C2 1.567 . S
C384 C311 1.647 . S
C379 C42 1.647 . S
C389 C82 1.678 . S
C394 C227 1.695 . S
C399 C141 1.515 . S
C404 C302 1.425 . S
C414 C313 1.444 . S
C409 C61 1.564 . S
C424 C229 1.475 . S
C419 C101 1.593 . S
C434 C300 1.672 . S
C429 C122 1.614 . S
C439 C21 1.715 . S
C444 C216 1.718 . S
