# Generated by pormake.
# Topology ocu, (6,8)-cn, num edge types: 1
# Building blocks:
#     Node 0, Type 0, BuildingBlock: HISSIN_clean_sbu_0, # of connection points: 6
#     Node 1, Type 0, BuildingBlock: HISSIN_clean_sbu_0, # of connection points: 6
#     Node 2, Type 0, BuildingBlock: HISSIN_clean_sbu_0, # of connection points: 6
#     Node 3, Type 0, BuildingBlock: HISSIN_clean_sbu_0, # of connection points: 6
#     Node 4, Type 0, BuildingBlock: HISSIN_clean_sbu_0, # of connection points: 6
#     Node 5, Type 0, BuildingBlock: HISSIN_clean_sbu_0, # of connection points: 6
#     Node 6, Type 0, BuildingBlock: HISSIN_clean_sbu_0, # of connection points: 6
#     Node 7, Type 0, BuildingBlock: HISSIN_clean_sbu_0, # of connection points: 6
#     Node 8, Type 1, BuildingBlock: GIZVER_clean_sbu_0, # of connection points: 8
#     Node 9, Type 1, BuildingBlock: GIZVER_clean_sbu_0, # of connection points: 8
#     Node 10, Type 1, BuildingBlock: GIZVER_clean_sbu_0, # of connection points: 8
#     Node 11, Type 1, BuildingBlock: GIZVER_clean_sbu_0, # of connection points: 8
#     Node 12, Type 1, BuildingBlock: GIZVER_clean_sbu_0, # of connection points: 8
#     Node 13, Type 1, BuildingBlock: GIZVER_clean_sbu_0, # of connection points: 8
#     Edge 14, Type (0, 1), BuildingBlock: EZIPEK_clean_linker_0, # of connection points: 2
#     Edge 15, Type (0, 1), BuildingBlock: EZIPEK_clean_linker_0, # of connection points: 2
#     Edge 16, Type (0, 1), BuildingBlock: EZIPEK_clean_linker_0, # of connection points: 2
#     Edge 17, Type (0, 1), BuildingBlock: EZIPEK_clean_linker_0, # of connection points: 2
#     Edge 18, Type (0, 1), BuildingBlock: EZIPEK_clean_linker_0, # of connection points: 2
#     Edge 19, Type (0, 1), BuildingBlock: EZIPEK_clean_linker_0, # of connection points: 2
#     Edge 20, Type (0, 1), BuildingBlock: EZIPEK_clean_linker_0, # of connection points: 2
#     Edge 21, Type (0, 1), BuildingBlock: EZIPEK_clean_linker_0, # of connection points: 2
#     Edge 22, Type (0, 1), BuildingBlock: EZIPEK_clean_linker_0, # of connection points: 2
#     Edge 23, Type (0, 1), BuildingBlock: EZIPEK_clean_linker_0, # of connection points: 2
#     Edge 24, Type (0, 1), BuildingBlock: EZIPEK_clean_linker_0, # of connection points: 2
#     Edge 25, Type (0, 1), BuildingBlock: EZIPEK_clean_linker_0, # of connection points: 2
#     Edge 26, Type (0, 1), BuildingBlock: EZIPEK_clean_linker_0, # of connection points: 2
#     Edge 27, Type (0, 1), BuildingBlock: EZIPEK_clean_linker_0, # of connection points: 2
#     Edge 28, Type (0, 1), BuildingBlock: EZIPEK_clean_linker_0, # of connection points: 2
#     Edge 29, Type (0, 1), BuildingBlock: EZIPEK_clean_linker_0, # of connection points: 2
#     Edge 30, Type (0, 1), BuildingBlock: EZIPEK_clean_linker_0, # of connection points: 2
#     Edge 31, Type (0, 1), BuildingBlock: EZIPEK_clean_linker_0, # of connection points: 2
#     Edge 32, Type (0, 1), BuildingBlock: EZIPEK_clean_linker_0, # of connection points: 2
#     Edge 33, Type (0, 1), BuildingBlock: EZIPEK_clean_linker_0, # of connection points: 2
#     Edge 34, Type (0, 1), BuildingBlock: EZIPEK_clean_linker_0, # of connection points: 2
#     Edge 35, Type (0, 1), BuildingBlock: EZIPEK_clean_linker_0, # of connection points: 2
#     Edge 36, Type (0, 1), BuildingBlock: EZIPEK_clean_linker_0, # of connection points: 2
#     Edge 37, Type (0, 1), BuildingBlock: EZIPEK_clean_linker_0, # of connection points: 2
#     Edge 38, Type (0, 1), BuildingBlock: EZIPEK_clean_linker_0, # of connection points: 2
#     Edge 39, Type (0, 1), BuildingBlock: EZIPEK_clean_linker_0, # of connection points: 2
#     Edge 40, Type (0, 1), BuildingBlock: EZIPEK_clean_linker_0, # of connection points: 2
#     Edge 41, Type (0, 1), BuildingBlock: EZIPEK_clean_linker_0, # of connection points: 2
#     Edge 42, Type (0, 1), BuildingBlock: EZIPEK_clean_linker_0, # of connection points: 2
#     Edge 43, Type (0, 1), BuildingBlock: EZIPEK_clean_linker_0, # of connection points: 2
#     Edge 44, Type (0, 1), BuildingBlock: EZIPEK_clean_linker_0, # of connection points: 2
#     Edge 45, Type (0, 1), BuildingBlock: EZIPEK_clean_linker_0, # of connection points: 2
#     Edge 46, Type (0, 1), BuildingBlock: EZIPEK_clean_linker_0, # of connection points: 2
#     Edge 47, Type (0, 1), BuildingBlock: EZIPEK_clean_linker_0, # of connection points: 2
#     Edge 48, Type (0, 1), BuildingBlock: EZIPEK_clean_linker_0, # of connection points: 2
#     Edge 49, Type (0, 1), BuildingBlock: EZIPEK_clean_linker_0, # of connection points: 2
#     Edge 50, Type (0, 1), BuildingBlock: EZIPEK_clean_linker_0, # of connection points: 2
#     Edge 51, Type (0, 1), BuildingBlock: EZIPEK_clean_linker_0, # of connection points: 2
#     Edge 52, Type (0, 1), BuildingBlock: EZIPEK_clean_linker_0, # of connection points: 2
#     Edge 53, Type (0, 1), BuildingBlock: EZIPEK_clean_linker_0, # of connection points: 2
#     Edge 54, Type (0, 1), BuildingBlock: EZIPEK_clean_linker_0, # of connection points: 2
#     Edge 55, Type (0, 1), BuildingBlock: EZIPEK_clean_linker_0, # of connection points: 2
#     Edge 56, Type (0, 1), BuildingBlock: EZIPEK_clean_linker_0, # of connection points: 2
#     Edge 57, Type (0, 1), BuildingBlock: EZIPEK_clean_linker_0, # of connection points: 2
#     Edge 58, Type (0, 1), BuildingBlock: EZIPEK_clean_linker_0, # of connection points: 2
#     Edge 59, Type (0, 1), BuildingBlock: EZIPEK_clean_linker_0, # of connection points: 2
#     Edge 60, Type (0, 1), BuildingBlock: EZIPEK_clean_linker_0, # of connection points: 2
#     Edge 61, Type (0, 1), BuildingBlock: EZIPEK_clean_linker_0, # of connection points: 2
# Relax obj value: 0.211
# Max RMSD: 0.240
# Mean RMSD: 0.173
data_MOF--net-ocu--node1-HISSIN_clean_sbu_0--node2-GIZVER_clean_sbu_0--edge1-EZIPEK_clean_linker_0
_symmetry_space_group_name_H-M    P1
_symmetry_Int_Tables_number       1
_symmetry_cell_setting            triclinic
loop_
_symmetry_equiv_pos_as_xyz
'x, y, z'
_cell_length_a     34.231815
_cell_length_b     35.234951
_cell_length_c     26.426132
_cell_angle_alpha  104.13764
_cell_angle_beta   77.394852
_cell_angle_gamma 116.67672
loop_
_atom_site_label
_atom_site_type_symbol
_atom_site_fract_x
_atom_site_fract_y
_atom_site_fract_z
_atom_type_partial_charge
Eu0 Eu 0.32339 0.29095 0.29926 0.0
Eu1 Eu 0.26964 0.2539 0.19883 0.0
C2 C 0.2395 0.19597 0.28882 0.0
C3 C 0.38548 0.28306 0.3931 0.0
C4 C 0.37128 0.27004 0.44263 0.0
C5 C 0.42843 0.24047 0.36955 0.0
C6 C 0.38521 0.24211 0.45527 0.0
C7 C 0.41447 0.26821 0.35683 0.0
C8 C 0.41349 0.22686 0.41851 0.0
C9 C 0.36689 0.30862 0.37775 0.0
O10 O 0.24044 0.29971 0.25547 0.0
O11 O 0.28478 0.33236 0.32151 0.0
C12 C 0.25242 0.32873 0.29862 0.0
O13 O 0.35772 0.34608 0.25168 0.0
O14 O 0.206 0.22332 0.16913 0.0
O15 O 0.26606 0.2438 0.11482 0.0
O16 O 0.32986 0.31113 0.17333 0.0
C17 C 0.35692 0.34506 0.20167 0.0
O18 O 0.35669 0.24965 0.24336 0.0
O19 O 0.31149 0.21498 0.17881 0.0
O20 O 0.24434 0.19569 0.23824 0.0
O21 O 0.38501 0.32354 0.3338 0.0
O22 O 0.32401 0.2925 0.38237 0.0
O23 O 0.26071 0.2318 0.32018 0.0
C24 C 0.20648 0.25269 0.09821 0.0
C25 C 0.20664 0.29224 0.12552 0.0
C26 C 0.17557 0.25832 0.02731 0.0
C27 C 0.19095 0.31442 0.10425 0.0
C28 C 0.19115 0.23589 0.04885 0.0
C29 C 0.1751 0.29755 0.05525 0.0
C30 C 0.22328 0.22984 0.1211 0.0
C31 C 0.34546 0.22059 0.20056 0.0
H32 H 0.34873 0.28079 0.47108 0.0
H33 H 0.45054 0.22922 0.34098 0.0
H34 H 0.37371 0.23209 0.49345 0.0
H35 H 0.42573 0.27721 0.3181 0.0
H36 H 0.21888 0.30594 0.16335 0.0
H37 H 0.16373 0.24513 0.98923 0.0
H38 H 0.19105 0.3448 0.12608 0.0
H39 H 0.19129 0.2056 0.02709 0.0
Eu40 Eu 0.84428 0.25375 0.24165 0.0
Eu41 Eu 0.7765 0.30293 0.28151 0.0
C42 C 0.86078 0.33187 0.33858 0.0
C43 C 0.92869 0.21419 0.25723 0.0
C44 C 0.95026 0.24818 0.29644 0.0
C45 C 0.95807 0.17038 0.2817 0.0
C46 C 0.97535 0.24318 0.32802 0.0
C47 C 0.93329 0.17546 0.24999 0.0
C48 C 0.97899 0.20396 0.32144 0.0
C49 C 0.89958 0.21741 0.22537 0.0
O50 O 0.82042 0.33413 0.21153 0.0
O51 O 0.87822 0.31616 0.20752 0.0
C52 C 0.86179 0.34001 0.19588 0.0
O53 O 0.79976 0.22675 0.17603 0.0
O54 O 0.76242 0.35968 0.30627 0.0
O55 O 0.70949 0.29635 0.31035 0.0
O56 O 0.74563 0.25055 0.21653 0.0
C57 C 0.76036 0.22645 0.17904 0.0
O58 O 0.78012 0.20712 0.27862 0.0
O59 O 0.75907 0.25611 0.33684 0.0
O60 O 0.83524 0.34419 0.32326 0.0
O61 O 0.85739 0.19777 0.23895 0.0
O62 O 0.90999 0.25478 0.21322 0.0
O63 O 0.85957 0.29311 0.32225 0.0
C64 C 0.69432 0.34713 0.28572 0.0
C65 C 0.69494 0.33416 0.23102 0.0
C66 C 0.65215 0.3866 0.28509 0.0
C67 C 0.67521 0.34834 0.20326 0.0
C68 C 0.67188 0.37238 0.31285 0.0
C69 C 0.65491 0.37564 0.23013 0.0
C70 C 0.71995 0.33716 0.31367 0.0
C71 C 0.75534 0.2165 0.32035 0.0
H72 H 0.94707 0.27831 0.30334 0.0
H73 H 0.96018 0.13981 0.27593 0.0
H74 H 0.99095 0.26949 0.35854 0.0
H75 H 0.91695 0.1487 0.22031 0.0
H76 H 0.71232 0.31467 0.20965 0.0
H77 H 0.63689 0.40804 0.30605 0.0
H78 H 0.67792 0.34011 0.16075 0.0
H79 H 0.67125 0.38257 0.35505 0.0
Eu80 Eu 0.8175 0.80227 0.20689 0.0
Eu81 Eu 0.78433 0.75059 0.30594 0.0
C82 C 0.72354 0.71839 0.21347 0.0
C83 C 0.79763 0.84069 0.10206 0.0
C84 C 0.75357 0.81028 0.10944 0.0
C85 C 0.77343 0.88206 0.06508 0.0
C86 C 0.7197 0.81615 0.09584 0.0
C87 C 0.80741 0.87619 0.07879 0.0
C88 C 0.72929 0.85247 0.07439 0.0
C89 C 0.8316 0.83826 0.12562 0.0
O90 O 0.81847 0.71433 0.24229 0.0
O91 O 0.86316 0.76747 0.1936 0.0
C92 C 0.85259 0.72971 0.20676 0.0
O93 O 0.85751 0.85068 0.27081 0.0
O94 O 0.76385 0.69262 0.33992 0.0
O95 O 0.77929 0.75435 0.39071 0.0
O96 O 0.85414 0.80008 0.31295 0.0
C97 C 0.87008 0.84026 0.30681 0.0
O98 O 0.7613 0.81951 0.25336 0.0
O99 O 0.75665 0.80186 0.33317 0.0
O100 O 0.72306 0.72007 0.26396 0.0
O101 O 0.83746 0.86004 0.17298 0.0
O102 O 0.82948 0.79979 0.12168 0.0
O103 O 0.7591 0.74064 0.18451 0.0
C104 C 0.80831 0.70933 0.40603 0.0
C105 C 0.85289 0.73783 0.3965 0.0
C106 C 0.83114 0.66636 0.44242 0.0
C107 C 0.88617 0.72988 0.40801 0.0
C108 C 0.79763 0.67385 0.42993 0.0
C109 C 0.87574 0.69397 0.43056 0.0
C110 C 0.77412 0.71472 0.38623 0.0
C111 C 0.74786 0.82225 0.30433 0.0
H112 H 0.74499 0.78296 0.12805 0.0
H113 H 0.78133 0.91079 0.04962 0.0
H114 H 0.68585 0.79343 0.10423 0.0
H115 H 0.84096 0.90035 0.07356 0.0
H116 H 0.8623 0.76557 0.3785 0.0
H117 H 0.82242 0.6381 0.45935 0.0
H118 H 0.92019 0.75108 0.39824 0.0
H119 H 0.76359 0.65129 0.43741 0.0
Eu120 Eu 0.33229 0.76593 0.24225 0.0
Eu121 Eu 0.26673 0.81448 0.27539 0.0
C122 C 0.25073 0.73481 0.18303 0.0
C123 C 0.3959 0.72081 0.14601 0.0
C124 C 0.36422 0.70663 0.1115 0.0
C125 C 0.45318 0.7358 0.07205 0.0
C126 C 0.37676 0.70641 0.0578 0.0
C127 C 0.44052 0.73662 0.12601 0.0
C128 C 0.42122 0.71876 0.0367 0.0
C129 C 0.3826 0.72702 0.203 0.0
O130 O 0.23723 0.7653 0.33135 0.0
O131 O 0.2746 0.72287 0.29222 0.0
C132 C 0.24245 0.72933 0.32508 0.0
O133 O 0.35713 0.81418 0.31477 0.0
O134 O 0.23706 0.84054 0.23685 0.0
O135 O 0.22105 0.8413 0.32167 0.0
O136 O 0.32405 0.8595 0.31929 0.0
C137 C 0.35521 0.85184 0.33008 0.0
O138 O 0.36618 0.81876 0.19412 0.0
O139 O 0.32186 0.85491 0.21992 0.0
O140 O 0.23307 0.75048 0.22654 0.0
O141 O 0.39814 0.76717 0.22604 0.0
O142 O 0.34075 0.70601 0.21834 0.0
O143 O 0.29316 0.74625 0.17446 0.0
C144 C 0.16491 0.82576 0.27187 0.0
C145 C 0.14439 0.78105 0.25512 0.0
C146 C 0.09537 0.82978 0.28219 0.0
C147 C 0.09887 0.76038 0.25522 0.0
C148 C 0.14077 0.85031 0.28205 0.0
C149 C 0.07353 0.78422 0.27356 0.0
C150 C 0.21125 0.84652 0.27923 0.0
C151 C 0.35768 0.85138 0.19406 0.0
H152 H 0.32946 0.69548 0.12579 0.0
H153 H 0.48802 0.74654 0.05837 0.0
H154 H 0.35124 0.69412 0.03253 0.0
H155 H 0.46559 0.74958 0.15215 0.0
H156 H 0.1631 0.76182 0.24497 0.0
H157 H 0.07735 0.84972 0.29529 0.0
H158 H 0.08333 0.72557 0.24619 0.0
H159 H 0.15656 0.88503 0.29313 0.0
Eu160 Eu 0.35381 0.74791 0.72296 0.0
Eu161 Eu 0.28354 0.79397 0.76371 0.0
C162 C 0.37021 0.82196 0.82261 0.0
C163 C 0.43747 0.70585 0.72433 0.0
C164 C 0.43168 0.71388 0.77956 0.0
C165 C 0.4885 0.67575 0.72532 0.0
C166 C 0.45324 0.70173 0.80753 0.0
C167 C 0.46686 0.68786 0.69736 0.0
C168 C 0.48084 0.68157 0.78046 0.0
C169 C 0.41177 0.71485 0.69495 0.0
O170 O 0.3236 0.82114 0.69067 0.0
O171 O 0.38482 0.81161 0.69326 0.0
C172 C 0.36598 0.83174 0.67886 0.0
O173 O 0.31482 0.72768 0.65563 0.0
O174 O 0.26791 0.84989 0.77659 0.0
O175 O 0.21605 0.78782 0.78903 0.0
O176 O 0.25329 0.73394 0.70468 0.0
C177 C 0.27241 0.71714 0.66264 0.0
O178 O 0.29367 0.70176 0.76866 0.0
O179 O 0.2658 0.74875 0.82134 0.0
O180 O 0.34293 0.83441 0.80994 0.0
O181 O 0.36932 0.69182 0.70091 0.0
O182 O 0.42158 0.75538 0.6975 0.0
O183 O 0.36861 0.78331 0.80426 0.0
C184 C 0.1986 0.83178 0.75027 0.0
C185 C 0.17994 0.79932 0.70814 0.0
C186 C 0.16919 0.87589 0.72684 0.0
C187 C 0.15628 0.8052 0.67568 0.0
C188 C 0.19258 0.86991 0.75949 0.0
C189 C 0.1512 0.84382 0.6843 0.0
C190 C 0.22546 0.82691 0.7836 0.0
C191 C 0.26678 0.71058 0.80887 0.0
H192 H 0.40924 0.728 0.80093 0.0
H193 H 0.50927 0.65969 0.70397 0.0
H194 H 0.44655 0.70584 0.85005 0.0
H195 H 0.47183 0.68175 0.65475 0.0
H196 H 0.1842 0.76965 0.69977 0.0
H197 H 0.16587 0.90599 0.73412 0.0
H198 H 0.14297 0.78013 0.64295 0.0
H199 H 0.20662 0.89543 0.79152 0.0
Eu200 Eu 0.34305 0.30891 0.70531 0.0
Eu201 Eu 0.3047 0.25021 0.7993 0.0
C202 C 0.25503 0.21884 0.69577 0.0
C203 C 0.32856 0.35757 0.60518 0.0
C204 C 0.28617 0.32537 0.59611 0.0
C205 C 0.30899 0.4096 0.58385 0.0
C206 C 0.25551 0.33533 0.58116 0.0
C207 C 0.33972 0.39964 0.59848 0.0
C208 C 0.26654 0.37767 0.57569 0.0
C209 C 0.35933 0.34878 0.62712 0.0
O210 O 0.35183 0.22338 0.74732 0.0
O211 O 0.38053 0.26507 0.68191 0.0
C212 C 0.37783 0.23353 0.7035 0.0
O213 O 0.39641 0.34747 0.75833 0.0
O214 O 0.27792 0.19011 0.83053 0.0
O215 O 0.29462 0.2506 0.88395 0.0
O216 O 0.37109 0.3023 0.81927 0.0
C217 C 0.40044 0.33713 0.80081 0.0
O218 O 0.30115 0.33973 0.76414 0.0
O219 O 0.26326 0.28978 0.81926 0.0
O220 O 0.26262 0.20678 0.73457 0.0
O221 O 0.36751 0.36893 0.67467 0.0
O222 O 0.35276 0.30854 0.62076 0.0
O223 O 0.27551 0.25873 0.68743 0.0
C224 C 0.31906 0.20195 0.89766 0.0
C225 C 0.36362 0.21975 0.87627 0.0
C226 C 0.33716 0.16653 0.95134 0.0
C227 C 0.39465 0.21102 0.89202 0.0
C228 C 0.30602 0.17557 0.93572 0.0
C229 C 0.3817 0.18408 0.92934 0.0
C230 C 0.28695 0.21012 0.87786 0.0
C231 C 0.27043 0.32557 0.80351 0.0
H232 H 0.27636 0.29265 0.60146 0.0
H233 H 0.31816 0.4424 0.57931 0.0
H234 H 0.22313 0.31022 0.57433 0.0
H235 H 0.37189 0.42503 0.60574 0.0
H236 H 0.3744 0.23973 0.84638 0.0
H237 H 0.32631 0.14493 0.97947 0.0
H238 H 0.42858 0.22432 0.874 0.0
H239 H 0.27181 0.16132 0.95244 0.0
Eu240 Eu 0.85611 0.23928 0.71914 0.0
Eu241 Eu 0.78674 0.28035 0.76241 0.0
C242 C 0.77732 0.20704 0.65462 0.0
C243 C 0.95882 0.23046 0.71269 0.0
C244 C 0.9772 0.27572 0.72294 0.0
C245 C 1.03123 0.23213 0.69466 0.0
C246 C 1.02264 0.29912 0.71503 0.0
C247 C 0.98583 0.2088 0.70237 0.0
C248 C 1.04952 0.27711 0.69556 0.0
C249 C 0.91249 0.20685 0.70589 0.0
O250 O 0.78346 0.24046 0.81925 0.0
O251 O 0.79263 0.18998 0.75464 0.0
C252 C 0.7746 0.20002 0.80164 0.0
O253 O 0.886 0.29228 0.78531 0.0
O254 O 0.71582 0.25884 0.78339 0.0
O255 O 0.75848 0.32712 0.7949 0.0
O256 O 0.83785 0.32409 0.81531 0.0
C257 C 0.87503 0.32226 0.81563 0.0
O258 O 0.88973 0.30125 0.68467 0.0
O259 O 0.83554 0.32649 0.70819 0.0
O260 O 0.75938 0.22725 0.69421 0.0
O261 O 0.88558 0.20734 0.74916 0.0
O262 O 0.90153 0.21528 0.66683 0.0
O263 O 0.81848 0.21352 0.65031 0.0
C264 C 0.70669 0.29846 0.86516 0.0
C265 C 0.73574 0.30048 0.897 0.0
C266 C 0.65378 0.29896 0.94192 0.0
C267 C 0.72482 0.30376 0.95124 0.0
C268 C 0.66477 0.29539 0.88746 0.0
C269 C 0.68504 0.30626 0.97478 0.0
C270 C 0.72021 0.29693 0.80857 0.0
C271 C 0.87543 0.33058 0.68553 0.0
H272 H 0.95647 0.29284 0.73193 0.0
H273 H 1.05119 0.21411 0.68098 0.0
H274 H 1.03606 0.33375 0.71778 0.0
H275 H 0.97195 0.1739 0.69554 0.0
H276 H 0.76782 0.3015 0.88029 0.0
H277 H 0.62219 0.2997 0.958 0.0
H278 H 0.74914 0.30831 0.97504 0.0
H279 H 0.64131 0.29203 0.86316 0.0
Eu280 Eu 0.85456 0.80314 0.79965 0.0
Eu281 Eu 0.79458 0.76414 0.70473 0.0
C282 C 0.76558 0.71182 0.80323 0.0
C283 C 0.92533 0.80519 0.89314 0.0
C284 C 0.90283 0.78333 0.936 0.0
C285 C 0.98184 0.77926 0.88456 0.0
C286 C 0.9191 0.75876 0.952 0.0
C287 C 0.96562 0.80377 0.86848 0.0
C288 C 0.95824 0.75603 0.92569 0.0
C289 C 0.90576 0.82726 0.87235 0.0
O290 O 0.7653 0.80853 0.76105 0.0
O291 O 0.81181 0.84109 0.82454 0.0
C292 C 0.77742 0.83643 0.80452 0.0
O293 O 0.87835 0.85985 0.75838 0.0
O294 O 0.73095 0.73424 0.675 0.0
O295 O 0.79061 0.75446 0.62065 0.0
O296 O 0.859 0.82065 0.6784 0.0
C297 C 0.88283 0.85711 0.70735 0.0
O298 O 0.88513 0.76239 0.736 0.0
O299 O 0.82666 0.7173 0.69129 0.0
O300 O 0.75842 0.71231 0.75646 0.0
O301 O 0.92022 0.83406 0.82401 0.0
O302 O 0.86306 0.81412 0.88231 0.0
O303 O 0.79879 0.743 0.82639 0.0
C304 C 0.73012 0.76323 0.6049 0.0
C305 C 0.7435 0.80772 0.62093 0.0
C306 C 0.67864 0.76206 0.55337 0.0
C307 C 0.72473 0.82931 0.60348 0.0
C308 C 0.69765 0.74042 0.57088 0.0
C309 C 0.69197 0.80662 0.56995 0.0
C310 C 0.74781 0.7406 0.62703 0.0
C311 C 0.86572 0.72644 0.70319 0.0
H312 H 0.872 0.78416 0.95619 0.0
H313 H 1.01211 0.77734 0.86391 0.0
H314 H 0.90061 0.74094 0.9839 0.0
H315 H 0.98401 0.82055 0.83571 0.0
H316 H 0.76802 0.82552 0.64761 0.0
H317 H 0.65356 0.74419 0.52719 0.0
H318 H 0.73552 0.86372 0.61646 0.0
H319 H 0.68665 0.70595 0.55848 0.0
Co320 Co 1.05393 0.91366 0.48389 0.0
Co321 Co 0.09407 0.97813 0.55637 0.0
Co322 Co 0.06971 1.02261 0.49772 0.0
O323 O 0.09044 0.97577 0.48429 0.0
H324 H 0.11897 0.98262 0.46346 0.0
O325 O 1.0499 0.07143 0.51409 0.0
Co326 Co 0.09484 0.13234 0.52101 0.0
Co327 Co 1.04769 0.079 0.44858 0.0
H328 H 1.02258 0.06607 0.53728 0.0
O329 O 0.13013 0.95876 0.57163 0.0
O330 O 1.05839 0.92132 0.55918 0.0
O331 O 0.06541 1.00542 0.61525 0.0
O332 O 1.02367 0.99741 0.55907 0.0
O333 O 0.11745 0.06056 0.54313 0.0
O334 O 0.13426 0.18612 0.52755 0.0
O335 O 1.06123 0.1608 0.55425 0.0
O336 O 0.13791 0.11212 0.49699 0.0
O337 O 0.11383 0.04589 0.43334 0.0
O338 O 0.07029 0.04933 0.38689 0.0
O339 O 0.08177 0.13736 0.45054 0.0
O340 O 1.00863 0.09676 0.44191 0.0
C341 C 1.02892 0.85804 0.43062 0.0
C342 C 0.99699 0.94501 0.45544 0.0
C343 C 1.02728 0.99599 0.60563 0.0
C344 C 0.09425 0.92345 0.57258 0.0
C345 C 0.10077 0.1927 0.55335 0.0
C346 C 0.14395 0.09851 0.5342 0.0
C347 C 0.108 0.05276 0.39055 0.0
C348 C 1.04375 0.13266 0.43903 0.0
O349 O 1.02058 0.85763 0.48057 0.0
O350 O 1.05054 0.89509 0.41369 0.0
O351 O 1.02281 0.98455 0.45258 0.0
O352 O 1.00143 0.92474 0.48723 0.0
Co353 Co 0.61095 0.95035 0.94363 0.0
Co354 Co 0.5977 0.97071 0.04249 0.0
Co355 Co 0.56423 0.0294 0.00089 0.0
O356 O 0.60761 1.00202 0.99151 0.0
H357 H 0.63718 1.02453 0.99226 0.0
O358 O 0.52171 0.05806 0.01052 0.0
Co359 Co 0.51248 0.10534 0.06675 0.0
Co360 Co 0.54901 0.10462 0.97574 0.0
H361 H 0.49437 0.038 0.99691 0.0
O362 O 0.64287 0.96899 0.06518 0.0
O363 O 0.59953 0.92015 0.00467 0.0
O364 O 0.54336 0.95649 0.08637 0.0
O365 O 0.51944 0.99569 0.05719 0.0
O366 O 0.60037 0.07663 0.05396 0.0
O367 O 0.49906 0.14619 0.11674 0.0
O368 O 0.45214 0.09077 0.0675 0.0
O369 O 0.57447 0.12819 0.07736 0.0
O370 O 0.6078 0.06063 0.94212 0.0
O371 O 0.61069 0.12651 0.95512 0.0
O372 O 0.52631 0.14212 0.01269 0.0
O373 O 0.51788 0.1044 0.92946 0.0
C374 C 0.66179 0.92786 0.90692 0.0
C375 C 0.52114 0.94241 0.93466 0.0
C376 C 0.51376 0.96834 0.08559 0.0
C377 C 0.62632 0.92991 0.03915 0.0
C378 C 0.45918 0.12538 0.10385 0.0
C379 C 0.60438 0.11492 0.07508 0.0
C380 C 0.62767 0.10011 0.93548 0.0
C381 C 0.50854 0.13069 0.96886 0.0
O382 O 0.62065 0.90543 0.89866 0.0
O383 O 0.67132 0.96509 0.9385 0.0
O384 O 0.52869 0.9824 0.94717 0.0
O385 O 0.54822 0.92767 0.93927 0.0
Co386 Co 0.11147 0.45036 0.93298 0.0
Co387 Co 0.08266 0.45454 0.02971 0.0
Co388 Co 1.06144 0.52781 0.00248 0.0
O389 O 0.10437 0.49827 0.99097 0.0
H390 H 0.13298 0.5192 0.00044 0.0
O391 O 1.0191 0.55756 0.01321 0.0
Co392 Co 1.01104 0.60566 0.06958 0.0
Co393 Co 1.04836 0.60442 0.98006 0.0
H394 H 0.99192 0.53836 0.99872 0.0
O395 O 0.11998 0.4463 0.06106 0.0
O396 O 0.09139 0.41064 0.98428 0.0
O397 O 1.02365 0.43617 0.06048 0.0
O398 O 1.01862 0.4978 0.06415 0.0
O399 O 0.10071 0.57643 0.05166 0.0
O400 O 0.99965 0.64742 0.11982 0.0
O401 O 0.95196 0.59534 0.06814 0.0
O402 O 0.0705 0.62437 0.08183 0.0
O403 O 0.10339 0.55717 0.94037 0.0
O404 O 0.10988 0.62436 0.96097 0.0
O405 O 1.03063 0.64532 0.01736 0.0
O406 O 1.02036 0.60879 0.93367 0.0
C407 C 0.16013 0.42435 0.89804 0.0
C408 C 1.02115 0.44386 0.92734 0.0
C409 C 1.00292 0.45962 0.07571 0.0
C410 C 0.11328 0.41461 0.02161 0.0
C411 C 0.96052 0.62979 0.10509 0.0
C412 C 0.10216 0.6132 0.0763 0.0
C413 C 0.12531 0.59752 0.93724 0.0
C414 C 1.01756 0.63927 0.97164 0.0
O415 O 0.12174 0.40875 0.88192 0.0
O416 O 0.16976 0.45907 0.93454 0.0
O417 O 1.02217 0.47996 0.9533 0.0
O418 O 1.05267 0.4326 0.92118 0.0
Co419 Co 0.60324 0.44775 0.00201 0.0
Co420 Co 0.58972 0.50297 0.08726 0.0
Co421 Co 0.56849 0.52424 0.00092 0.0
O422 O 0.61024 0.50558 0.01507 0.0
H423 H 0.64077 0.52384 0.00591 0.0
O424 O 0.52717 0.54248 0.98529 0.0
Co425 Co 0.53217 0.60015 0.00217 0.0
Co426 Co 0.55031 0.55087 0.91517 0.0
H427 H 0.49719 0.52071 0.98741 0.0
O428 O 0.62595 0.51009 0.13109 0.0
O429 O 0.58286 0.44793 0.0813 0.0
O430 O 0.53237 0.49958 0.1214 0.0
O431 O 0.51439 0.47924 0.04134 0.0
O432 O 0.58034 0.56797 0.06634 0.0
O433 O 0.53096 0.6515 0.01562 0.0
O434 O 0.48075 0.58735 0.98265 0.0
O435 O 0.58885 0.62261 0.03071 0.0
O436 O 0.62235 0.56945 0.96155 0.0
O437 O 0.60561 0.54978 0.88141 0.0
O438 O 0.55746 0.60703 0.92553 0.0
O439 O 0.51724 0.54777 0.86995 0.0
C440 C 0.63764 0.41646 0.01238 0.0
C441 C 0.53809 0.44062 0.93849 0.0
C442 C 0.50376 0.47664 0.09075 0.0
C443 C 0.60899 0.46837 0.11852 0.0
C444 C 0.4947 0.62906 0.99431 0.0
C445 C 0.59634 0.60836 0.06642 0.0
C446 C 0.63402 0.57204 0.91242 0.0
C447 C 0.53322 0.58913 0.88624 0.0
O448 O 0.6006 0.39533 0.99274 0.0
O449 O 0.65517 0.45851 0.01998 0.0
O450 O 0.55645 0.4806 0.93595 0.0
O451 O 0.54626 0.42668 0.97387 0.0
Co452 Co 0.14012 0.48922 0.50099 0.0
Co453 Co 0.11991 0.48271 0.41087 0.0
Co454 Co 1.06169 0.52818 0.50248 0.0
O455 O 0.08599 0.48178 0.47824 0.0
H456 H 1.06285 0.45331 0.48072 0.0
O457 O 1.03844 0.57485 0.52582 0.0
Co458 Co 0.99121 0.57405 0.49583 0.0
Co459 Co 1.00167 0.57599 0.58841 0.0
H460 H 1.06289 0.60292 0.52657 0.0
O461 O 0.12044 0.43095 0.36842 0.0
O462 O 0.16836 0.4767 0.42493 0.0
O463 O 0.14127 0.53699 0.38455 0.0
O464 O 0.10453 0.56705 0.44965 0.0
O465 O 1.01904 0.4953 0.45058 0.0
O466 O 0.95228 0.57831 0.46604 0.0
O467 O 1.01367 0.63174 0.4965 0.0
O468 O 0.96243 0.51222 0.48702 0.0
O469 O 1.017 0.48969 0.55632 0.0
O470 O 0.98265 0.52459 0.61865 0.0
O471 O 0.95426 0.58111 0.56849 0.0
O472 O 0.99852 0.62737 0.6279 0.0
C473 C 0.16459 0.45194 0.52129 0.0
C474 C 0.1475 0.57293 0.53856 0.0
C475 C 0.13245 0.56897 0.40786 0.0
C476 C 0.15564 0.44133 0.38927 0.0
C477 C 0.9786 0.61908 0.47373 0.0
C478 C 0.97803 0.48634 0.45722 0.0
C479 C 0.98917 0.49088 0.59821 0.0
C480 C 0.96257 0.61442 0.60719 0.0
O481 O 0.18709 0.49316 0.52379 0.0
O482 O 0.12514 0.43356 0.50645 0.0
O483 O 0.10612 0.56113 0.55305 0.0
O484 O 0.16243 0.54961 0.50217 0.0
Co485 Co 0.62527 0.97244 0.50412 0.0
Co486 Co 0.61756 0.97552 0.41193 0.0
Co487 Co 0.55939 1.02409 0.4993 0.0
O488 O 0.57987 0.97547 0.47502 0.0
H489 H 0.55455 0.94797 0.47319 0.0
O490 O 0.53756 0.072 0.52254 0.0
Co491 Co 0.48425 0.06787 0.50126 0.0
Co492 Co 0.50434 0.07573 0.58835 0.0
H493 H 0.56165 0.09982 0.5192 0.0
O494 O 0.61773 0.9244 0.36801 0.0
O495 O 0.66029 0.96462 0.4321 0.0
O496 O 0.6439 0.03 0.38778 0.0
O497 O 0.60334 0.06108 0.44523 0.0
O498 O 0.51497 0.99134 0.44972 0.0
O499 O 0.43954 0.07159 0.47827 0.0
O500 O 0.50897 0.1202 0.47985 0.0
O501 O 0.49896 0.04111 0.43268 0.0
O502 O 0.51555 0.98741 0.55316 0.0
O503 O 0.47479 1.01934 0.60896 0.0
O504 O 0.46337 0.09275 0.57343 0.0
O505 O 0.50886 0.12814 0.63494 0.0
C506 C 0.63625 0.92476 0.522 0.0
C507 C 0.64451 0.06238 0.54044 0.0
C508 C 0.63422 0.06198 0.40694 0.0
C509 C 0.64977 0.93183 0.39311 0.0
C510 C 0.46932 0.10959 0.47108 0.0
C511 C 0.49544 1.00264 0.42459 0.0
C512 C 0.48384 0.98679 0.59013 0.0
C513 C 0.47689 0.12449 0.61248 0.0
O514 O 0.66335 0.96501 0.53276 0.0
O515 O 0.60087 0.91468 0.50109 0.0
O516 O 0.60414 0.05653 0.54983 0.0
O517 O 0.65663 0.03353 0.51237 0.0
C518 C 0.22101 0.1391 0.34618 0.0
C519 C 0.20819 0.15489 0.31041 0.0
C520 C 0.13764 0.08981 0.3103 0.0
C521 C 0.14652 0.07936 0.35384 0.0
N522 N 0.20455 0.07979 0.39119 0.0
N523 N 0.15097 0.14511 0.26174 0.0
C524 C 0.19058 0.10007 0.36593 0.0
C525 C 0.16593 0.12973 0.29262 0.0
N526 N 0.26226 0.16124 0.36133 0.0
N527 N 0.10323 0.06019 0.28383 0.0
H528 H 0.16819 0.17556 0.25119 0.0
H529 H 0.11882 0.13011 0.25233 0.0
H530 H 0.08468 0.02927 0.29302 0.0
H531 H 0.0972 0.0639 0.24877 0.0
H532 H 0.27185 0.1551 0.39212 0.0
H533 H 0.28691 0.1869 0.34416 0.0
H534 H 0.23711 0.0905 0.39732 0.0
H535 H 0.18455 0.04894 0.3998 0.0
C536 C 0.97989 0.18594 0.40811 0.0
C537 C 1.00214 0.19656 0.35798 0.0
C538 C 0.06303 0.18226 0.37248 0.0
C539 C 1.03777 0.16594 0.41879 0.0
N540 N 0.98148 0.1677 0.49042 0.0
N541 N 0.06568 0.20697 0.29278 0.0
C542 C 0.99913 0.17289 0.43961 0.0
C543 C 1.04441 0.19612 0.34077 0.0
N544 N 0.93884 0.18533 0.42404 0.0
N545 N 0.10521 0.18586 0.35976 0.0
H546 H 1.0541 0.21926 0.27011 0.0
H547 H 0.09375 0.20238 0.27438 0.0
H548 H 0.12002 0.17696 0.38244 0.0
H549 H 0.12721 0.20209 0.33024 0.0
H550 H 0.91836 0.17265 0.45678 0.0
H551 H 0.92375 0.1951 0.40266 0.0
H552 H 0.956 0.17611 0.51048 0.0
H553 H 0.99566 0.15913 0.5144 0.0
C554 C 0.94635 0.89684 0.32502 0.0
C555 C 0.9014 0.87379 0.34354 0.0
C556 C 0.91819 0.89905 0.43525 0.0
C557 C 0.96352 0.92163 0.4172 0.0
N558 N 1.02077 0.94441 0.34435 0.0
N559 N 0.8427 0.86217 0.41528 0.0
C560 C 0.97739 0.92197 0.36197 0.0
C561 C 0.88689 0.87768 0.39842 0.0
N562 N 0.96003 0.89132 0.27215 0.0
N563 N 0.90499 0.89695 0.48753 0.0
H564 H 0.8191 0.8477 0.38932 0.0
H565 H 0.82939 0.86748 0.4543 0.0
H566 H 0.926 0.91414 0.51619 0.0
H567 H 0.87387 0.8761 0.50236 0.0
H568 H 0.99285 0.90212 0.25562 0.0
H569 H 0.93834 0.87351 0.24417 0.0
H570 H 1.03194 0.95176 0.30655 0.0
H571 H 1.04612 0.95655 0.36756 0.0
C572 C 1.02959 0.75369 0.34945 0.0
C573 C 1.02857 0.76389 0.30157 0.0
C574 C 0.99343 0.80998 0.35089 0.0
C575 C 1.01571 0.81641 0.39359 0.0
N576 N 1.04397 0.7819 0.43813 0.0
N577 N 0.98803 0.78467 0.25866 0.0
C578 C 1.02937 0.78402 0.39543 0.0
C579 C 1.00095 0.78409 0.30335 0.0
N580 N 1.03671 0.71877 0.34979 0.0
N581 N 0.96363 0.82648 0.35652 0.0
H582 H 0.99536 0.7677 0.22232 0.0
H583 H 0.99536 0.7677 0.22232 0.0
H584 H 0.95407 0.84082 0.39347 0.0
H585 H 0.945 0.81972 0.32644 0.0
H586 H 1.04006 0.71172 0.38434 0.0
H587 H 1.03627 0.6961 0.3158 0.0
H588 H 1.04563 0.80285 0.47385 0.0
H589 H 1.04563 0.80285 0.47385 0.0
C590 C 0.15448 0.86597 0.59893 0.0
C591 C 0.12983 0.85232 0.64697 0.0
C592 C 0.06958 0.86611 0.62993 0.0
C593 C 0.09764 0.88671 0.5876 0.0
N594 N 0.15635 0.88872 0.51824 0.0
N595 N 1.06234 0.83554 0.70654 0.0
C596 C 0.13675 0.8807 0.56771 0.0
C597 C 0.08644 0.85038 0.66137 0.0
N598 N 0.19611 0.86781 0.58502 0.0
N599 N 1.02656 0.85988 0.63847 0.0
H600 H 0.07292 0.8221 0.72892 0.0
H601 H 1.03287 0.83804 0.72299 0.0
H602 H 1.01341 0.87009 0.6152 0.0
H603 H 1.00289 0.84011 0.66403 0.0
H604 H 0.21782 0.88232 0.55401 0.0
H605 H 0.21022 0.857 0.60639 0.0
H606 H 0.18287 0.88176 0.49879 0.0
H607 H 0.14271 0.89825 0.49458 0.0
C608 C 0.17982 0.16469 0.66944 0.0
C609 C 0.22604 0.18625 0.65593 0.0
C610 C 0.21773 0.15414 0.56257 0.0
C611 C 0.17182 0.13009 0.5761 0.0
N612 N 0.10821 0.11412 0.6424 0.0
N613 N 0.29007 0.19612 0.59128 0.0
C614 C 0.15269 0.13555 0.62971 0.0
C615 C 0.24517 0.17961 0.6029 0.0
N616 N 0.16162 0.17419 0.71966 0.0
N617 N 0.2353 0.15335 0.51087 0.0
H618 H 0.31151 0.21483 0.61929 0.0
H619 H 0.3063 0.18806 0.55503 0.0
H620 H 0.21715 0.13385 0.48021 0.0
H621 H 0.26698 0.17447 0.49796 0.0
H622 H 0.12796 0.16379 0.73167 0.0
H623 H 0.18051 0.19483 0.74945 0.0
H624 H 0.09268 0.11117 0.68064 0.0
H625 H 0.0863 0.09872 0.6144 0.0
C626 C 0.08116 0.29196 0.60833 0.0
C627 C 0.09005 0.29589 0.65953 0.0
C628 C 0.13327 0.25454 0.62582 0.0
C629 C 0.10863 0.23656 0.58203 0.0
N630 N 0.07605 0.24969 0.5202 0.0
N631 N 0.14438 0.30478 0.7093 0.0
C632 C 0.08841 0.25954 0.56907 0.0
C633 C 0.12471 0.28672 0.66453 0.0
N634 N 1.06197 0.31595 0.59973 0.0
N635 N 0.16179 0.23916 0.63195 0.0
H636 H 0.13498 0.32643 0.73807 0.0
H637 H 0.17071 0.3005 0.71646 0.0
H638 H 0.16988 0.21687 0.60333 0.0
H639 H 0.17859 0.24938 0.66454 0.0
H640 H 1.05453 0.31505 0.56322 0.0
H641 H 1.0559 0.33889 0.62962 0.0
H642 H 1.05845 0.26307 0.50871 0.0
H643 H 0.08525 0.22858 0.4905 0.0
C644 C 0.90936 0.91415 0.64721 0.0
C645 C 0.91841 0.8954 0.68299 0.0
C646 C 0.99285 0.95542 0.68376 0.0
C647 C 0.98709 0.96899 0.6406 0.0
N648 N 0.93381 0.97445 0.60041 0.0
N649 N 0.97269 0.89624 0.72903 0.0
C650 C 0.94349 0.95186 0.62734 0.0
C651 C 0.9611 0.91584 0.69988 0.0
N652 N 0.86811 0.89612 0.63246 0.0
N653 N 1.027 0.98195 0.71222 0.0
H654 H 0.9526 0.86533 0.73722 0.0
H655 H 1.00448 0.90795 0.73867 0.0
H656 H 1.04701 1.01358 0.70638 0.0
H657 H 1.03089 0.97533 0.74668 0.0
H658 H 0.85995 0.90447 0.60239 0.0
H659 H 0.84181 0.87145 0.64955 0.0
H660 H 0.90247 0.96625 0.59189 0.0
H661 H 0.95656 1.00463 0.59173 0.0
C662 C 0.39002 0.17916 0.20865 0.0
C663 C 0.37202 0.19315 0.17649 0.0
C664 C 0.39723 0.14836 0.10028 0.0
C665 C 0.42395 0.14296 0.1301 0.0
N666 N 0.44345 0.1538 0.21667 0.0
N667 N 0.36845 0.19633 0.08746 0.0
C668 C 0.41999 0.15909 0.18537 0.0
C669 C 0.37834 0.17908 0.12116 0.0
N670 N 0.37587 0.18154 0.26129 0.0
N671 N 0.38748 0.1228 0.05296 0.0
H672 H 0.35936 0.22199 0.09952 0.0
H673 H 0.37492 0.18882 0.04689 0.0
H674 H 0.39636 0.09722 0.03872 0.0
H675 H 0.3648 0.12284 0.03231 0.0
H676 H 0.38403 0.16773 0.28567 0.0
H677 H 0.35146 0.19209 0.27943 0.0
H678 H 0.44689 0.16987 0.2553 0.0
H679 H 0.46038 0.13422 0.20364 0.0
C680 C 0.89136 0.37453 0.11307 0.0
C681 C 0.8925 0.37695 0.16724 0.0
C682 C 0.96079 0.44411 0.16475 0.0
C683 C 0.96033 0.4408 0.11035 0.0
N684 N 0.91841 0.4116 0.03749 0.0
N685 N 0.92032 0.42151 0.24767 0.0
C686 C 0.92311 0.40888 0.08625 0.0
C687 C 0.92475 0.4142 0.19405 0.0
N688 N 0.86159 0.33842 0.08647 0.0
N689 N 0.99667 0.47479 0.18792 0.0
H690 H 0.89391 0.40081 0.27002 0.0
H691 H 0.94003 0.45003 0.26982 0.0
H692 H 1.02229 0.4983 0.16806 0.0
H693 H 1.00182 0.4758 0.22572 0.0
H694 H 0.86197 0.33263 0.04583 0.0
H695 H 0.83844 0.31268 0.10478 0.0
H696 H 0.89045 0.39156 0.01891 0.0
H697 H 0.94108 0.4369 0.01801 0.0
C698 C 0.66958 0.84418 0.02491 0.0
C699 C 0.69306 0.86315 0.06938 0.0
C700 C 0.65023 0.90576 0.10329 0.0
C701 C 0.6374 0.89709 0.05273 0.0
N702 N 0.62147 0.84657 0.97149 0.0
N703 N 0.7022 0.90865 0.15461 0.0
C704 C 0.64226 0.86218 0.01551 0.0
C705 C 0.68191 0.89257 0.11002 0.0
N706 N 0.67322 0.80894 0.99234 0.0
N707 N 0.63044 0.92505 0.14524 0.0
H708 H 0.72377 0.89796 0.16261 0.0
H709 H 0.69929 0.93417 0.18246 0.0
H710 H 0.60457 0.93188 0.14162 0.0
H711 H 0.63568 0.92919 0.18398 0.0
H712 H 0.65465 0.79115 0.96146 0.0
H713 H 0.69363 0.79594 0.99803 0.0
H714 H 0.62897 0.8263 0.939 0.0
H715 H 0.59517 0.85263 0.96817 0.0
C716 C 0.20161 0.65897 0.15144 0.0
C717 C 0.22068 0.70273 0.14548 0.0
C718 C 0.16533 0.68736 0.08929 0.0
C719 C 0.1429 0.64442 0.10038 0.0
N720 N 0.13581 0.5921 0.15034 0.0
N721 N 0.22048 0.76014 0.11193 0.0
C722 C 0.1603 0.63073 0.13319 0.0
C723 C 0.20273 0.71723 0.1148 0.0
N724 N 0.22279 0.64466 0.17544 0.0
N725 N 0.15168 0.69967 0.05364 0.0
H726 H 0.24962 0.78234 0.1272 0.0
H727 H 0.20537 0.77413 0.09687 0.0
H728 H 0.12281 0.68071 0.03679 0.0
H729 H 0.17037 0.72806 0.03833 0.0
H730 H 0.21288 0.61227 0.17669 0.0
H731 H 0.25285 0.66491 0.1897 0.0
H732 H 0.14471 0.5824 0.17858 0.0
H733 H 0.10418 0.57151 0.1408 0.0
C734 C 0.45231 0.86428 0.8262 0.0
C735 C 0.40835 0.8538 0.85188 0.0
C736 C 0.43818 0.90491 0.9308 0.0
C737 C 0.482 0.91251 0.90639 0.0
N738 N 0.53083 0.89827 0.83094 0.0
N739 N 0.35957 0.85956 0.93101 0.0
C740 C 0.48893 0.89164 0.85429 0.0
C741 C 0.40133 0.87313 0.90477 0.0
N742 N 0.45939 0.85002 0.77366 0.0
N743 N 0.43162 0.92826 0.97874 0.0
H744 H 0.33205 0.83655 0.91315 0.0
H745 H 0.35243 0.86831 0.97133 0.0
H746 H 0.45721 0.95021 0.00015 0.0
H747 H 0.40112 0.92801 0.99594 0.0
H748 H 0.48979 0.86148 0.75061 0.0
H749 H 0.43417 0.82882 0.75185 0.0
H750 H 0.53783 0.87842 0.79747 0.0
H751 H 0.55911 0.92273 0.8458 0.0
C752 C 0.26279 0.39678 0.84658 0.0
C753 C 0.24264 0.35105 0.83045 0.0
C754 C 0.17058 0.35362 0.86872 0.0
C755 C 0.18977 0.39981 0.87733 0.0
N756 N 0.25562 0.46468 0.86532 0.0
N757 N 0.17462 0.28788 0.81758 0.0
C758 C 0.23636 0.42117 0.86398 0.0
C759 C 0.1958 0.3301 0.83934 0.0
N760 N 0.30733 0.41713 0.84744 0.0
N761 N 0.12851 0.33156 0.8907 0.0
H762 H 0.19116 0.2699 0.79397 0.0
H763 H 0.14053 0.27226 0.81785 0.0
H764 H 0.10928 0.34659 0.91466 0.0
H765 H 0.1147 0.29847 0.89054 0.0
H766 H 0.32347 0.44941 0.86381 0.0
H767 H 0.32754 0.40072 0.83713 0.0
H768 H 0.28845 0.4814 0.85077 0.0
H769 H 0.23788 0.48352 0.87597 0.0
C770 C 0.7461 0.16602 0.88309 0.0
C771 C 0.73996 0.16653 0.83187 0.0
C772 C 0.66466 0.10993 0.84405 0.0
C773 C 0.66847 0.11508 0.89783 0.0
N774 N 0.71269 0.14501 0.96884 0.0
N775 N 0.69249 0.14013 0.76373 0.0
C776 C 0.70941 0.14197 0.91727 0.0
C777 C 0.6993 0.1381 0.81189 0.0
N778 N 0.78732 0.18784 0.89838 0.0
N779 N 0.62754 0.07837 0.82401 0.0
H780 H 0.7166 0.16019 0.73889 0.0
H781 H 0.66202 0.12422 0.74966 0.0
H782 H 0.60142 0.0578 0.84693 0.0
H783 H 0.62429 0.06985 0.78406 0.0
H784 H 0.79514 0.18649 0.9336 0.0
H785 H 0.81484 0.20455 0.87345 0.0
H786 H 0.73947 0.16785 0.98791 0.0
H787 H 0.68748 0.12495 0.99313 0.0
C788 C 0.95339 0.68184 0.91723 0.0
C789 C 0.97295 0.72625 0.93847 0.0
C790 C 1.02531 0.71467 0.97589 0.0
C791 C 1.00223 0.66943 0.96053 0.0
N792 N 0.93871 0.60957 0.92459 0.0
N793 N 1.02268 0.78438 0.99493 0.0
C794 C 0.96503 0.65285 0.93274 0.0
C795 C 1.00735 0.74247 0.9701 0.0
N796 N 0.92378 0.66731 0.88198 0.0
N797 N 0.06589 0.73149 0.99239 0.0
H798 H 1.01079 0.80588 0.9908 0.0
H799 H 1.04438 0.79665 0.02304 0.0
H800 H 0.08219 0.71279 0.99301 0.0
H801 H 0.08576 0.76443 0.99934 0.0
H802 H 0.91262 0.63627 0.86028 0.0
H803 H 0.91286 0.68717 0.87129 0.0
H804 H 0.90883 0.59633 0.90941 0.0
H805 H 0.94344 0.58718 0.93911 0.0
C806 C 0.18906 0.3609 0.01684 0.0
C807 C 0.15838 0.32202 0.03421 0.0
C808 C 0.0976 0.33941 0.02963 0.0
C809 C 0.12878 0.38152 0.02138 0.0
N810 N 0.20468 0.4343 0.01387 0.0
N811 N 0.08338 0.27407 0.0597 0.0
C812 C 0.1747 0.39278 0.01643 0.0
C813 C 0.11251 0.31078 0.04042 0.0
N814 N 0.23199 0.36727 0.00088 0.0
N815 N 1.05376 0.32712 0.02858 0.0
H816 H 0.09298 0.25186 0.06691 0.0
H817 H 1.05009 0.26678 0.07158 0.0
H818 H 1.04092 0.34787 0.0246 0.0
H819 H 1.03028 0.29544 0.02821 0.0
H820 H 0.25502 0.3931 0.98267 0.0
H821 H 0.24326 0.34421 0.00083 0.0
H822 H 0.23816 0.44496 0.01559 0.0
H823 H 0.19586 0.45916 0.01475 0.0
C824 C 0.23861 0.677 0.89176 0.0
C825 C 0.23417 0.6754 0.83893 0.0
C826 C 0.16262 0.61194 0.84633 0.0
C827 C 0.16625 0.61481 0.89972 0.0
N828 N 0.21103 0.64264 0.96981 0.0
N829 N 0.19588 0.63693 0.76283 0.0
C830 C 0.2056 0.64499 0.92111 0.0
C831 C 0.19763 0.64109 0.81514 0.0
N832 N 0.27392 0.70977 0.91415 0.0
N833 N 0.12424 0.58323 0.82658 0.0
H834 H 0.21864 0.6595 0.73989 0.0
H835 H 0.17343 0.61011 0.74132 0.0
H836 H 0.09901 0.56031 0.84752 0.0
H837 H 0.11643 0.58293 0.79054 0.0
H838 H 0.27719 0.71591 0.95391 0.0
H839 H 0.29958 0.73232 0.89307 0.0
H840 H 0.2397 0.66143 0.98736 0.0
H841 H 0.18759 0.61883 0.99101 0.0
C842 C 0.40979 0.12835 0.92313 0.0
C843 C 0.41417 0.17117 0.94132 0.0
C844 C 0.4829 0.18951 0.97575 0.0
C845 C 0.47542 0.14538 0.96297 0.0
N846 N 0.42468 0.07131 0.93718 0.0
N847 N 0.45139 0.24148 0.99165 0.0
C848 C 0.43701 0.11439 0.9399 0.0
C849 C 0.44976 0.20152 0.96964 0.0
N850 N 0.38038 0.1011 0.88868 0.0
N851 N 0.52238 0.22024 0.99084 0.0
H852 H 0.42775 0.25134 0.98795 0.0
H853 H 0.47375 0.26329 0.01746 0.0
H854 H 0.5481 0.2131 0.9939 0.0
H855 H 0.53126 0.25318 0.99541 0.0
H856 H 0.37938 0.07105 0.86992 0.0
H857 H 0.36006 0.11006 0.87467 0.0
H858 H 0.39475 0.04769 0.92544 0.0
H859 H 0.44126 0.05934 0.95324 0.0
C860 C 0.93028 0.39805 0.83949 0.0
C861 C 0.9072 0.35537 0.8505 0.0
C862 C 0.95581 0.37235 0.91641 0.0
C863 C 0.98146 0.41365 0.90163 0.0
N864 N 0.99754 0.46375 0.84391 0.0
N865 N 0.8967 0.30106 0.89877 0.0
C866 C 0.9696 0.4262 0.86223 0.0
C867 C 0.91956 0.34238 0.88899 0.0
N868 N 0.915 0.41161 0.80682 0.0
N869 N 0.96543 0.36229 0.95765 0.0
H870 H 0.86759 0.27965 0.88304 0.0
H871 H 0.90698 0.28732 0.92093 0.0
H872 H 0.99207 0.38303 0.97815 0.0
H873 H 0.94543 0.33487 0.97442 0.0
H874 H 0.92747 0.44358 0.80191 0.0
H875 H 0.88751 0.39166 0.78742 0.0
H876 H 0.99362 0.47226 0.81092 0.0
H877 H 1.02717 0.48491 0.85863 0.0
C878 C 0.73214 0.87768 0.80039 0.0
C879 C 0.75125 0.86377 0.83112 0.0
C880 C 0.72345 0.90477 0.90996 0.0
C881 C 0.69643 0.9101 0.88037 0.0
N882 N 0.67562 0.89965 0.79464 0.0
N883 N 0.75803 0.86018 0.91883 0.0
C884 C 0.70063 0.89543 0.82488 0.0
C885 C 0.7453 0.87664 0.88691 0.0
N886 N 0.74684 0.87758 0.74801 0.0
N887 N 0.72855 0.92632 0.96022 0.0
H888 H 0.76846 0.8355 0.90533 0.0
H889 H 0.75334 0.86723 0.95962 0.0
H890 H 0.71302 0.94633 0.97925 0.0
H891 H 0.75163 0.92761 0.98133 0.0
H892 H 0.73699 0.89048 0.72421 0.0
H893 H 0.77362 0.87049 0.73013 0.0
H894 H 0.67288 0.8845 0.75559 0.0
H895 H 0.65621 0.91674 0.80905 0.0
C896 C 0.87971 0.68574 0.12566 0.0
C897 C 0.87894 0.70276 0.18048 0.0
C898 C 0.92225 0.66314 0.18685 0.0
C899 C 0.92763 0.65033 0.13095 0.0
N900 N 0.91038 0.65038 0.04741 0.0
N901 N 0.90067 0.70807 0.26346 0.0
C902 C 0.90566 0.66166 0.10069 0.0
C903 C 0.90035 0.69122 0.21105 0.0
N904 N 0.85361 0.69071 0.09759 0.0
N905 N 0.93664 0.6468 0.2172 0.0
H906 H 0.8862 0.72919 0.28201 0.0
H907 H 0.91811 0.70431 0.28809 0.0
H908 H 0.95003 0.6244 0.20144 0.0
H909 H 0.93184 0.65189 0.25804 0.0
H910 H 0.84787 0.67504 0.05933 0.0
H911 H 0.83441 0.70782 0.11402 0.0
H912 H 0.90132 0.66266 0.0221 0.0
H913 H 0.92502 0.62974 0.02826 0.0
C914 C 0.41317 0.92868 0.18758 0.0
C915 C 0.39073 0.88514 0.16302 0.0
C916 C 0.44617 0.89833 0.08555 0.0
C917 C 0.46861 0.94195 0.10958 0.0
N918 N 0.46848 1.00115 0.17786 0.0
N919 N 0.37815 0.83337 0.08313 0.0
C920 C 0.45017 0.95803 0.15862 0.0
C921 C 0.40479 0.87166 0.11013 0.0
N922 N 0.40122 0.94137 0.23944 0.0
N923 N 0.46521 0.88159 0.04021 0.0
H924 H 0.34716 0.81355 0.0999 0.0
H925 H 0.38455 0.82359 0.04287 0.0
H926 H 0.49498 0.8999 0.02002 0.0
H927 H 0.45306 0.84885 0.02461 0.0
H928 H 0.41975 0.97075 0.26124 0.0
H929 H 0.37429 0.92146 0.262 0.0
H930 H 0.45423 1.01569 0.21095 0.0
H931 H 0.49614 1.02296 0.15801 0.0
C932 C 0.71148 0.2134 0.11217 0.0
C933 C 0.72772 0.19619 0.14199 0.0
C934 C 0.66053 0.12855 0.13354 0.0
C935 C 0.64577 0.14435 0.10012 0.0
N936 N 0.66199 0.20032 0.05071 0.0
N937 N 0.7214 0.13441 0.1725 0.0
C938 C 0.67258 0.18638 0.08752 0.0
C939 C 0.70361 0.15264 0.1493 0.0
N940 N 0.73248 0.25629 0.10892 0.0
N941 N 0.63216 0.09193 0.15354 0.0
H942 H 0.75247 0.15114 0.18511 0.0
H943 H 0.70736 0.10167 0.17444 0.0
H944 H 0.59943 0.07491 0.14616 0.0
H945 H 0.63929 0.08122 0.18232 0.0
H946 H 0.71919 0.27225 0.09428 0.0
H947 H 0.76215 0.27655 0.12397 0.0
H948 H 0.68343 0.2278 0.03457 0.0
H949 H 0.63314 0.18305 0.03334 0.0
C950 C 0.72933 0.63231 0.81251 0.0
C951 C 0.7344 0.6754 0.83245 0.0
C952 C 0.68806 0.65149 0.91413 0.0
C953 C 0.67608 0.6074 0.89087 0.0
N954 N 0.688 0.556 0.81753 0.0
N955 N 0.7118 0.72427 0.89946 0.0
C956 C 0.6977 0.598 0.83986 0.0
C957 C 0.71191 0.68444 0.88251 0.0
N958 N 0.75591 0.62433 0.7685 0.0
N959 N 0.67891 0.66258 0.96695 0.0
H960 H 0.72804 0.74915 0.87739 0.0
H961 H 0.69168 0.73101 0.93277 0.0
H962 H 0.66791 0.64047 0.99209 0.0
H963 H 0.68936 0.69437 0.9864 0.0
H964 H 0.75734 0.59461 0.75477 0.0
H965 H 0.77936 0.64847 0.74789 0.0
H966 H 0.69747 0.54627 0.77816 0.0
H967 H 0.66923 0.53061 0.83845 0.0
C968 C 0.53852 0.67737 0.82112 0.0
C969 C 0.49477 0.65932 0.80894 0.0
C970 C 0.47528 0.59867 0.85303 0.0
C971 C 0.52019 0.61462 0.86139 0.0
N972 N 0.59621 0.66415 0.84238 0.0
N973 N 0.42375 0.59881 0.80353 0.0
C974 C 0.55238 0.65262 0.84236 0.0
C975 C 0.46383 0.61883 0.82207 0.0
N976 N 0.56655 0.71835 0.81319 0.0
N977 N 0.44293 0.56523 0.87619 0.0
H978 H 0.41341 0.61257 0.78137 0.0
H979 H 0.40222 0.56684 0.80593 0.0
H980 H 0.4485 0.54917 0.90009 0.0
H981 H 0.40943 0.5561 0.87644 0.0
H982 H 0.59728 0.735 0.82668 0.0
H983 H 0.55746 0.737 0.79703 0.0
H984 H 0.62114 0.68924 0.82445 0.0
H985 H 0.60791 0.64628 0.85599 0.0
C986 C 0.42534 0.37702 0.88856 0.0
C987 C 0.43685 0.36703 0.83362 0.0
C988 C 0.51544 0.4068 0.84697 0.0
C989 C 0.50351 0.41162 0.9026 0.0
N990 N 0.44569 0.39372 0.97557 0.0
N991 N 0.49366 0.37086 0.76006 0.0
C992 C 0.45809 0.3943 0.92307 0.0
C993 C 0.48217 0.3818 0.81256 0.0
N994 N 0.38316 0.37218 0.9078 0.0
N995 N 0.55872 0.42628 0.82688 0.0
H996 H 0.47082 0.35486 0.73323 0.0
H997 H 0.52563 0.37548 0.74332 0.0
H998 H 0.58429 0.44176 0.85026 0.0
H999 H 0.5692 0.42903 0.78735 0.0
H1000 H 0.37379 0.38318 0.94676 0.0
H1001 H 0.35871 0.36202 0.88365 0.0
H1002 H 0.41334 0.37721 0.99186 0.0
H1003 H 0.46823 0.40579 0.00216 0.0
C1004 C 0.63985 0.32243 0.05466 0.0
C1005 C 0.68232 0.329 0.02999 0.0
C1006 C 0.70121 0.403 0.02752 0.0
C1007 C 0.65511 0.39197 0.03251 0.0
N1008 N 0.58145 0.34637 0.07005 0.0
N1009 N 0.75482 0.38046 0.04368 0.0
C1010 C 0.62456 0.35371 0.05386 0.0
C1011 C 0.71359 0.3718 0.03561 0.0
N1012 N 0.6139 0.28453 0.07241 0.0
N1013 N 0.73242 0.43981 0.01032 0.0
H1014 H 0.77969 0.41158 0.04987 0.0
H1015 H 0.77969 0.41158 0.04987 0.0
H1016 H 0.7255 0.46344 0.00237 0.0
H1017 H 0.76556 0.44555 0.00069 0.0
H1018 H 0.58206 0.27672 0.09179 0.0
H1019 H 0.62633 0.26175 0.06936 0.0
H1020 H 0.56968 0.36948 0.07314 0.0
H1021 H 0.55739 0.31792 0.08193 0.0
C1022 C 0.67677 0.43469 0.17966 0.0
C1023 C 0.643 0.39842 0.20041 0.0
C1024 C 0.58705 0.41218 0.17438 0.0
C1025 C 0.62077 0.44451 0.14701 0.0
N1026 N 0.69861 0.48547 0.12088 0.0
N1027 N 0.56662 0.34854 0.21166 0.0
C1028 C 0.66593 0.4557 0.14912 0.0
C1029 C 0.59827 0.38589 0.19602 0.0
N1030 N 0.71901 0.45003 0.19075 0.0
N1031 N 0.54467 0.40814 0.1822 0.0
H1032 H 0.5738 0.32866 0.22809 0.0
H1033 H 0.53406 0.33554 0.2041 0.0
H1034 H 0.53565 0.4284 0.16923 0.0
H1035 H 0.51967 0.38808 0.20656 0.0
H1036 H 0.74389 0.47943 0.18249 0.0
H1037 H 0.72868 0.43529 0.21237 0.0
H1038 H 0.73156 0.49066 0.11567 0.0
H1039 H 0.69301 0.50285 0.0988 0.0
C1040 C 0.65388 0.70068 0.17631 0.0
C1041 C 0.68518 0.68743 0.18488 0.0
C1042 C 0.66286 0.62783 0.11145 0.0
C1043 C 0.6284 0.63797 0.10542 0.0
N1044 N 0.58689 0.68093 0.13921 0.0
N1045 N 0.71232 0.63284 0.16833 0.0
C1046 C 0.62272 0.67364 0.13987 0.0
C1047 C 0.68682 0.64888 0.15532 0.0
N1048 N 0.65462 0.73959 0.20207 0.0
N1049 N 0.6758 0.60103 0.07246 0.0
H1050 H 0.73066 0.64788 0.20001 0.0
H1051 H 0.71159 0.6026 0.15119 0.0
H1052 H 0.66375 0.59077 0.03656 0.0
H1053 H 0.70283 0.59483 0.07243 0.0
H1054 H 0.63655 0.75367 0.19298 0.0
H1055 H 0.67531 0.75885 0.23077 0.0
H1056 H 0.57862 0.70373 0.16678 0.0
H1057 H 0.56333 0.66178 0.11371 0.0
C1058 C 0.47727 0.71918 0.96108 0.0
C1059 C 0.43231 0.70373 0.97963 0.0
C1060 C 0.42661 0.63305 0.97573 0.0
C1061 C 0.47318 0.65167 0.97759 0.0
N1062 N 0.54418 0.70898 0.95149 0.0
N1063 N 0.36942 0.64305 0.94727 0.0
C1064 C 0.4994 0.69355 0.9625 0.0
C1065 C 0.409 0.65926 0.96536 0.0
N1066 N 0.49812 0.7593 0.94805 0.0
N1067 N 0.39877 0.59342 0.98828 0.0
H1068 H 0.357 0.66361 0.94127 0.0
H1069 H 0.35186 0.61018 0.93457 0.0
H1070 H 0.40842 0.57382 0.00137 0.0
H1071 H 0.36466 0.58174 0.99019 0.0
H1072 H 0.5312 0.77328 0.93296 0.0
H1073 H 0.48036 0.77744 0.95047 0.0
H1074 H 0.56457 0.74024 0.94486 0.0
H1075 H 0.56122 0.68998 0.94678 0.0
C1076 C 0.43073 0.37215 0.1474 0.0
C1077 C 0.39325 0.37928 0.17304 0.0
C1078 C 0.42566 0.44907 0.14092 0.0
C1079 C 0.46223 0.44077 0.11252 0.0
N1080 N 0.49181 0.38755 0.07902 0.0
N1081 N 0.35032 0.41996 0.18489 0.0
C1082 C 0.46235 0.4003 0.11304 0.0
C1083 C 0.3893 0.41646 0.16708 0.0
N1084 N 0.43666 0.3385 0.15631 0.0
N1085 N 0.42587 0.48833 0.14352 0.0
H1086 H 0.32321 0.39631 0.20287 0.0
H1087 H 0.34363 0.44413 0.17782 0.0
H1088 H 0.45068 0.51179 0.12289 0.0
H1089 H 0.40287 0.4984 0.16819 0.0
H1090 H 0.46567 0.33427 0.1435 0.0
H1091 H 0.41406 0.31656 0.18034 0.0
H1092 H 0.4903 0.35656 0.07226 0.0
H1093 H 0.51445 0.40662 0.05298 0.0
C1094 C 0.88537 0.67379 0.62545 0.0
C1095 C 0.88807 0.69519 0.67904 0.0
C1096 C 0.93007 0.65485 0.68751 0.0
C1097 C 0.93067 0.63649 0.63278 0.0
N1098 N 0.88937 0.6136 0.55928 0.0
N1099 N 0.91331 0.7041 0.76148 0.0
C1100 C 0.90244 0.64141 0.60458 0.0
C1101 C 0.91067 0.68518 0.7099 0.0
N1102 N 0.86884 0.68619 0.59291 0.0
N1103 N 0.94297 0.63884 0.71994 0.0
H1104 H 0.89309 0.71893 0.78299 0.0
H1105 H 0.93662 0.70607 0.78272 0.0
H1106 H 0.95074 0.61233 0.70702 0.0
H1107 H 0.9402 0.64732 0.7607 0.0
H1108 H 0.86735 0.67352 0.55314 0.0
H1109 H 0.861 0.71264 0.60385 0.0
H1110 H 0.86601 0.61286 0.53916 0.0
H1111 H 0.89656 0.58695 0.5458 0.0
C1112 C 0.41267 0.91148 0.68828 0.0
C1113 C 0.39468 0.87112 0.65494 0.0
C1114 C 0.434 0.9064 0.57791 0.0
C1115 C 0.45545 0.94596 0.61174 0.0
N1116 N 0.47277 0.98244 0.69929 0.0
N1117 N 0.39301 0.82859 0.56837 0.0
C1118 C 0.44693 0.9474 0.66701 0.0
C1119 C 0.40695 0.86809 0.59983 0.0
N1120 N 0.39617 0.91598 0.7402 0.0
N1121 N 0.43738 0.90564 0.52523 0.0
H1122 H 0.37177 0.8002 0.58291 0.0
H1123 H 0.40492 0.82367 0.52867 0.0
H1124 H 0.45609 0.93269 0.50738 0.0
H1125 H 0.41849 0.87905 0.49983 0.0
H1126 H 0.40512 0.94557 0.76533 0.0
H1127 H 0.36986 0.89096 0.75662 0.0
H1128 H 0.4709 0.98341 0.73944 0.0
H1129 H 0.49941 1.00865 0.68513 0.0
C1130 C 0.19978 0.39481 0.59617 0.0
C1131 C 0.23468 0.38909 0.55951 0.0
C1132 C 0.22345 0.42428 0.49876 0.0
C1133 C 0.18592 0.42681 0.53271 0.0
N1134 N 0.13643 0.41236 0.61288 0.0
N1135 N 0.27108 0.38716 0.47062 0.0
C1136 C 0.173 0.41067 0.58087 0.0
C1137 C 0.24341 0.39992 0.50898 0.0
N1138 N 0.19387 0.38727 0.64623 0.0
N1139 N 0.24253 0.44776 0.45889 0.0
H1140 H 0.28622 0.369 0.47677 0.0
H1141 H 0.27519 0.39076 0.43153 0.0
H1142 H 0.23072 0.46778 0.45065 0.0
H1143 H 0.27291 0.45081 0.43742 0.0
H1144 H 0.17219 0.39483 0.67668 0.0
H1145 H 0.21275 0.37555 0.65842 0.0
H1146 H 0.1238 0.39938 0.64738 0.0
H1147 H 0.11708 0.42498 0.6035 0.0
C1148 C 0.73772 0.12775 0.6237 0.0
C1149 C 0.74744 0.17071 0.61957 0.0
C1150 C 0.68967 0.14296 0.56187 0.0
C1151 C 0.67779 0.10046 0.56988 0.0
N1152 N 0.68239 0.05438 0.62017 0.0
N1153 N 0.73113 0.21998 0.58805 0.0
C1154 C 0.69969 0.0934 0.60389 0.0
C1155 C 0.72288 0.17851 0.58958 0.0
N1156 N 0.76442 0.11931 0.64674 0.0
N1157 N 0.67002 0.14931 0.52693 0.0
H1158 H 0.75738 0.24659 0.60443 0.0
H1159 H 0.71104 0.22821 0.57261 0.0
H1160 H 0.64406 0.12455 0.50832 0.0
H1161 H 0.68091 0.17849 0.51405 0.0
H1162 H 0.76138 0.08826 0.64503 0.0
H1163 H 0.79217 0.14285 0.66327 0.0
H1164 H 0.69399 0.04875 0.64966 0.0
H1165 H 0.65311 0.02903 0.60885 0.0
C1166 C 0.87859 0.37938 0.42493 0.0
C1167 C 0.89335 0.36473 0.37291 0.0
C1168 C 0.96162 0.43071 0.37458 0.0
C1169 C 0.9483 0.44454 0.42811 0.0
N1170 N 0.89876 0.42595 0.50729 0.0
N1171 N 0.95288 0.37084 0.30263 0.0
C1172 C 0.90801 0.41716 0.45416 0.0
C1173 C 0.93646 0.38836 0.34952 0.0
N1174 N 0.8362 0.35739 0.44621 0.0
N1175 N 0.99629 0.45895 0.34634 0.0
H1176 H 0.93488 0.3402 0.28282 0.0
H1177 H 0.98559 0.3849 0.28607 0.0
H1178 H 1.01291 0.49151 0.36126 0.0
H1179 H 1.00531 0.45145 0.3062 0.0
H1180 H 0.82162 0.36947 0.48129 0.0
H1181 H 0.81484 0.3279 0.4272 0.0
H1182 H 0.87189 0.40508 0.52885 0.0
H1183 H 0.92071 0.45185 0.53012 0.0
C1184 C 0.6793 0.83286 0.35547 0.0
C1185 C 0.72333 0.85068 0.32999 0.0
C1186 C 0.72099 0.92274 0.3513 0.0
C1187 C 0.676 0.90435 0.37367 0.0
N1188 N 0.61135 0.84094 0.39389 0.0
N1189 N 0.78615 0.91297 0.30307 0.0
C1190 C 0.65506 0.85914 0.37492 0.0
C1191 C 0.74408 0.89578 0.32793 0.0
N1192 N 0.66047 0.79053 0.36129 0.0
N1193 N 0.74197 0.96636 0.35283 0.0
H1194 H 0.80561 0.89584 0.29017 0.0
H1195 H 0.80167 0.9437 0.29334 0.0
H1196 H 0.72586 0.98666 0.36603 0.0
H1197 H 0.77576 0.98317 0.3436 0.0
H1198 H 0.63121 0.7765 0.38531 0.0
H1199 H 0.67531 0.7695 0.34421 0.0
H1200 H 0.59218 0.80791 0.39034 0.0
H1201 H 0.59314 0.8589 0.41108 0.0
C1202 C 0.22923 0.67707 0.38354 0.0
C1203 C 0.21129 0.69312 0.35457 0.0
C1204 C 0.13927 0.63107 0.36787 0.0
C1205 C 0.15922 0.61192 0.38965 0.0
N1206 N 0.22522 0.61582 0.41401 0.0
N1207 N 0.14936 0.68327 0.31517 0.0
C1208 C 0.20477 0.63474 0.3963 0.0
C1209 C 0.16612 0.66985 0.34626 0.0
N1210 N 0.2695 0.70306 0.40025 0.0
N1211 N 0.09465 0.61207 0.36738 0.0
H1212 H 0.16731 0.71161 0.29958 0.0
H1213 H 0.11862 0.66502 0.30204 0.0
H1214 H 0.07433 0.58268 0.37999 0.0
H1215 H 0.07742 0.62683 0.35789 0.0
H1216 H 0.28265 0.69542 0.42633 0.0
H1217 H 0.2877 0.73446 0.39253 0.0
H1218 H 0.2592 0.62867 0.41385 0.0
H1219 H 0.20889 0.58553 0.425 0.0
C1220 C 0.46187 0.21361 0.46431 0.0
C1221 C 0.42836 0.19714 0.43143 0.0
C1222 C 0.42878 0.1259 0.41631 0.0
C1223 C 0.4576 0.1407 0.45523 0.0
N1224 N 0.49585 0.19843 0.52292 0.0
N1225 N 0.37442 0.13619 0.38265 0.0
C1226 C 0.47289 0.18458 0.48084 0.0
C1227 C 0.41017 0.15283 0.40929 0.0
N1228 N 0.48385 0.25714 0.47909 0.0
N1229 N 0.42089 0.08706 0.38414 0.0
H1230 H 0.35957 0.1549 0.3774 0.0
H1231 H 0.3571 0.10329 0.37017 0.0
H1232 H 0.43613 0.06759 0.38561 0.0
H1233 H 0.40339 0.07657 0.35202 0.0
H1234 H 0.51217 0.27121 0.49774 0.0
H1235 H 0.47627 0.2795 0.46854 0.0
H1236 H 0.5029 0.22855 0.54647 0.0
H1237 H 0.50432 0.1789 0.53786 0.0
C1238 C 0.69783 0.8552 0.51158 0.0
C1239 C 0.67293 0.83064 0.55173 0.0
C1240 C 0.61919 0.86176 0.56555 0.0
C1241 C 0.64761 0.89085 0.53057 0.0
N1242 N 0.71792 0.91912 0.47597 0.0
N1243 N 0.61127 0.81134 0.61967 0.0
C1244 C 0.68796 0.88859 0.50504 0.0
C1245 C 0.63361 0.8337 0.57908 0.0
N1246 N 0.73072 0.84619 0.47913 0.0
N1247 N 0.57898 0.86163 0.58688 0.0
H1248 H 0.62019 0.78963 0.62952 0.0
H1249 H 0.58551 0.81598 0.64553 0.0
H1250 H 0.5686 0.8839 0.58169 0.0
H1251 H 0.55478 0.83796 0.60753 0.0
H1252 H 0.74673 0.85963 0.44526 0.0
H1253 H 0.73888 0.82194 0.48303 0.0
H1254 H 0.74988 0.92191 0.46235 0.0
H1255 H 0.7124 0.94368 0.46812 0.0
C1256 C 0.67858 0.158 0.33439 0.0
C1257 C 0.72216 0.18079 0.34824 0.0
C1258 C 0.70794 0.12604 0.40041 0.0
C1259 C 0.66372 0.10378 0.38813 0.0
N1260 N 0.60481 0.10194 0.35029 0.0
N1261 N 0.7754 0.19198 0.4027 0.0
C1262 C 0.64832 0.12101 0.35748 0.0
C1263 C 0.73586 0.16644 0.38387 0.0
N1264 N 0.6667 0.17075 0.29751 0.0
N1265 N 0.72372 0.10815 0.42697 0.0
H1266 H 0.79663 0.22158 0.39105 0.0
H1267 H 0.7854 0.18596 0.43325 0.0
H1268 H 0.7043 0.07962 0.44167 0.0
H1269 H 0.75682 0.12002 0.4316 0.0
H1270 H 0.63769 0.15262 0.28042 0.0
H1271 H 0.68721 0.19861 0.28164 0.0
H1272 H 0.59034 0.11539 0.33329 0.0
H1273 H 0.58229 0.07381 0.36449 0.0
C1274 C 0.93786 0.70464 0.47766 0.0
C1275 C 0.91143 0.6825 0.43601 0.0
C1276 C 0.9496 0.63506 0.40716 0.0
C1277 C 0.96679 0.6493 0.45588 0.0
N1278 N 0.98305 0.70245 0.53508 0.0
N1279 N 0.89519 0.62931 0.35722 0.0
C1280 C 0.96373 0.68632 0.48984 0.0
C1281 C 0.91867 0.64885 0.39917 0.0
N1282 N 0.93756 0.74258 0.50603 0.0
N1283 N 0.96389 0.60895 0.36818 0.0
H1284 H 0.87444 0.64035 0.34786 0.0
H1285 H 0.89483 0.60105 0.3329 0.0
H1286 H 0.9879 0.59988 0.37278 0.0
H1287 H 0.95586 0.60038 0.32996 0.0
H1288 H 0.95954 0.76279 0.53293 0.0
H1289 H 0.91722 0.75553 0.5001 0.0
H1290 H 0.97717 0.72554 0.56472 0.0
H1291 H 1.00399 0.69181 0.54441 0.0
C1292 C 0.43446 0.9059 0.3264 0.0
C1293 C 0.39187 0.88891 0.35586 0.0
C1294 C 0.41628 0.95006 0.42786 0.0
C1295 C 0.45859 0.96713 0.3981 0.0
N1296 N 0.51017 0.96021 0.32258 0.0
N1297 N 0.34067 0.89573 0.43217 0.0
C1298 C 0.46814 0.94484 0.34816 0.0
C1299 C 0.38238 0.91139 0.40588 0.0
N1300 N 0.44211 0.88601 0.27635 0.0
N1301 N 0.40951 0.96927 0.47865 0.0
H1302 H 0.31625 0.86555 0.41977 0.0
H1303 H 0.32943 0.91303 0.46511 0.0
H1304 H 0.4334 0.99735 0.49652 0.0
H1305 H 0.38155 0.95604 0.50487 0.0
H1306 H 0.4696 0.89976 0.24977 0.0
H1307 H 0.41988 0.85621 0.25981 0.0
H1308 H 0.52152 0.94305 0.2896 0.0
H1309 H 0.53485 0.98991 0.33592 0.0
C1310 C 0.18296 0.34053 0.34553 0.0
C1311 C 0.22805 0.35803 0.32307 0.0
C1312 C 0.22591 0.43033 0.34303 0.0
C1313 C 0.18182 0.41336 0.36874 0.0
N1314 N 0.12114 0.35234 0.4014 0.0
N1315 N 0.29449 0.42219 0.31057 0.0
C1316 C 0.16119 0.36838 0.37161 0.0
C1317 C 0.25003 0.40371 0.32506 0.0
N1318 N 0.16059 0.2969 0.34216 0.0
N1319 N 0.24457 0.47179 0.33398 0.0
H1320 H 0.31316 0.40438 0.29623 0.0
H1321 H 0.31345 0.45534 0.3168 0.0
H1322 H 0.22852 0.49218 0.34659 0.0
H1323 H 0.27436 0.48484 0.31028 0.0
H1324 H 0.12665 0.28129 0.35167 0.0
H1325 H 0.17571 0.27589 0.32683 0.0
H1326 H 0.10625 0.32146 0.41076 0.0
H1327 H 0.10427 0.37118 0.42084 0.0
C1328 C 0.45025 0.22383 0.67871 0.0
C1329 C 0.40402 0.20677 0.67751 0.0
C1330 C 0.40469 0.13497 0.64098 0.0
C1331 C 0.45177 0.15302 0.63572 0.0
N1332 N 0.51936 0.21801 0.6429 0.0
N1333 N 0.33829 0.14629 0.64978 0.0
C1334 C 0.47448 0.1984 0.65297 0.0
C1335 C 0.38174 0.16245 0.65609 0.0
N1336 N 0.47098 0.2639 0.70661 0.0
N1337 N 0.38123 0.09128 0.63564 0.0
H1338 H 0.32007 0.16471 0.66163 0.0
H1339 H 0.32148 0.11585 0.62871 0.0
H1340 H 0.39586 0.06996 0.62958 0.0
H1341 H 0.34705 0.07641 0.64395 0.0
H1342 H 0.50348 0.27661 0.71423 0.0
H1343 H 0.45416 0.28263 0.72663 0.0
H1344 H 0.53727 0.25132 0.64945 0.0
H1345 H 0.53846 0.20161 0.62252 0.0
C1346 C 0.95218 0.3911 0.6642 0.0
C1347 C 0.9057 0.37079 0.66167 0.0
C1348 C 0.91359 0.43427 0.62979 0.0
C1349 C 0.96068 0.45036 0.62215 0.0
N1350 N 1.02442 0.44029 0.62969 0.0
N1351 N 0.84569 0.36964 0.62643 0.0
C1352 C 0.97979 0.42713 0.63774 0.0
C1353 C 0.88746 0.39148 0.6401 0.0
N1354 N 0.96991 0.37893 0.69558 0.0
N1355 N 0.89289 0.45897 0.62721 0.0
H1356 H 0.82737 0.33673 0.62664 0.0
H1357 H 0.83154 0.38272 0.60832 0.0
H1358 H 0.90866 0.48921 0.61618 0.0
H1359 H 0.85922 0.44978 0.63905 0.0
H1360 H 1.00279 0.39516 0.70235 0.0
H1361 H 0.95096 0.3568 0.72072 0.0
H1362 H 1.03939 0.42155 0.63446 0.0
H1363 H 1.04631 0.46866 0.61565 0.0
C1364 C 0.23666 0.6383 0.62743 0.0
C1365 C 0.24387 0.68108 0.62627 0.0
C1366 C 0.189 0.65323 0.56486 0.0
C1367 C 0.17914 0.61057 0.57011 0.0
N1368 N 0.18521 0.56323 0.61705 0.0
N1369 N 0.22463 0.72988 0.59797 0.0
C1370 C 0.20081 0.60327 0.60415 0.0
C1371 C 0.21932 0.68873 0.59614 0.0
N1372 N 0.26362 0.63086 0.65124 0.0
N1373 N 0.17007 0.65981 0.5293 0.0
H1374 H 0.24853 0.75681 0.6177 0.0
H1375 H 0.20399 0.73728 0.58232 0.0
H1376 H 0.14612 0.63474 0.5079 0.0
H1377 H 0.17985 0.68966 0.51871 0.0
H1378 H 0.26282 0.60043 0.64781 0.0
H1379 H 0.28903 0.65527 0.67115 0.0
H1380 H 0.19673 0.55689 0.64601 0.0
H1381 H 0.1573 0.5373 0.60315 0.0
loop_
_geom_bond_atom_site_label_1
_geom_bond_atom_site_label_2
_geom_bond_distance
_geom_bond_site_symmetry_2
_ccdc_geom_bond_type
Eu0 C9 2.828 . S
Eu0 O11 2.392 . S
Eu0 O13 2.418 . S
Eu0 O18 2.373 . S
Eu0 O21 2.488 . S
Eu0 O22 2.471 . S
Eu0 O23 2.349 . S
Eu1 O10 2.373 . S
Eu1 O14 2.488 . S
Eu1 O15 2.471 . S
Eu1 O16 2.349 . S
Eu1 O19 2.392 . S
Eu1 O20 2.418 . S
Eu1 C30 2.828 . S
C2 O20 1.244 . S
C2 O23 1.265 . S
C3 C4 1.379 . S
C3 C7 1.373 . S
C3 C9 1.505 . S
C4 C3 1.379 . S
C4 C6 1.369 . S
C4 H32 0.930 . S
C5 C7 1.383 . S
C5 C8 1.382 . S
C5 H33 0.930 . S
C6 C4 1.369 . S
C6 C8 1.392 . S
C6 H34 0.930 . S
C7 C3 1.373 . S
C7 C5 1.383 . S
C7 H35 0.931 . S
C8 C5 1.382 . S
C8 C6 1.392 . S
C9 Eu0 2.828 . S
C9 C3 1.505 . S
C9 O21 1.249 . S
C9 O22 1.244 . S
O10 Eu1 2.373 . S
O10 C12 1.258 . S
O11 Eu0 2.392 . S
O11 C12 1.242 . S
C12 O10 1.258 . S
C12 O11 1.242 . S
O13 Eu0 2.418 . S
O13 C17 1.244 . S
O14 Eu1 2.488 . S
O14 C30 1.249 . S
O15 Eu1 2.471 . S
O15 C30 1.244 . S
O16 Eu1 2.349 . S
O16 C17 1.265 . S
C17 O13 1.244 . S
C17 O16 1.265 . S
O18 Eu0 2.373 . S
O18 C31 1.258 . S
O19 Eu1 2.392 . S
O19 C31 1.242 . S
O20 Eu1 2.418 . S
O20 C2 1.244 . S
O21 Eu0 2.488 . S
O21 C9 1.249 . S
O22 Eu0 2.471 . S
O22 C9 1.244 . S
O23 Eu0 2.349 . S
O23 C2 1.265 . S
C24 C25 1.379 . S
C24 C28 1.373 . S
C24 C30 1.505 . S
C25 C24 1.379 . S
C25 C27 1.369 . S
C25 H36 0.930 . S
C26 C28 1.383 . S
C26 C29 1.382 . S
C26 H37 0.930 . S
C27 C25 1.369 . S
C27 C29 1.392 . S
C27 H38 0.930 . S
C28 C24 1.373 . S
C28 C26 1.383 . S
C28 H39 0.931 . S
C29 C26 1.382 . S
C29 C27 1.392 . S
C30 Eu1 2.828 . S
C30 O14 1.249 . S
C30 O15 1.244 . S
C30 C24 1.505 . S
C31 O18 1.258 . S
C31 O19 1.242 . S
H32 C4 0.930 . S
H33 C5 0.930 . S
H34 C6 0.930 . S
H35 C7 0.931 . S
H36 C25 0.930 . S
H37 C26 0.930 . S
H38 C27 0.930 . S
H39 C28 0.931 . S
Eu40 C49 2.828 . S
Eu40 O51 2.392 . S
Eu40 O53 2.418 . S
Eu40 O58 2.373 . S
Eu40 O61 2.488 . S
Eu40 O62 2.471 . S
Eu40 O63 2.349 . S
Eu41 O50 2.373 . S
Eu41 O54 2.488 . S
Eu41 O55 2.471 . S
Eu41 O56 2.349 . S
Eu41 O59 2.392 . S
Eu41 O60 2.418 . S
Eu41 C70 2.828 . S
C42 O60 1.244 . S
C42 O63 1.265 . S
C43 C44 1.379 . S
C43 C47 1.373 . S
C43 C49 1.505 . S
C44 C43 1.379 . S
C44 C46 1.369 . S
C44 H72 0.930 . S
C45 C47 1.383 . S
C45 C48 1.382 . S
C45 H73 0.930 . S
C46 C44 1.369 . S
C46 C48 1.392 . S
C46 H74 0.930 . S
C47 C43 1.373 . S
C47 C45 1.383 . S
C47 H75 0.931 . S
C48 C45 1.382 . S
C48 C46 1.392 . S
C49 Eu40 2.828 . S
C49 C43 1.505 . S
C49 O61 1.249 . S
C49 O62 1.244 . S
O50 Eu41 2.373 . S
O50 C52 1.258 . S
O51 Eu40 2.392 . S
O51 C52 1.242 . S
C52 O50 1.258 . S
C52 O51 1.242 . S
O53 Eu40 2.418 . S
O53 C57 1.244 . S
O54 Eu41 2.488 . S
O54 C70 1.249 . S
O55 Eu41 2.471 . S
O55 C70 1.244 . S
O56 Eu41 2.349 . S
O56 C57 1.265 . S
C57 O53 1.244 . S
C57 O56 1.265 . S
O58 Eu40 2.373 . S
O58 C71 1.258 . S
O59 Eu41 2.392 . S
O59 C71 1.242 . S
O60 Eu41 2.418 . S
O60 C42 1.244 . S
O61 Eu40 2.488 . S
O61 C49 1.249 . S
O62 Eu40 2.471 . S
O62 C49 1.244 . S
O63 Eu40 2.349 . S
O63 C42 1.265 . S
C64 C65 1.379 . S
C64 C68 1.373 . S
C64 C70 1.505 . S
C65 C64 1.379 . S
C65 C67 1.369 . S
C65 H76 0.930 . S
C66 C68 1.383 . S
C66 C69 1.382 . S
C66 H77 0.930 . S
C67 C65 1.369 . S
C67 C69 1.392 . S
C67 H78 0.930 . S
C68 C64 1.373 . S
C68 C66 1.383 . S
C68 H79 0.931 . S
C69 C66 1.382 . S
C69 C67 1.392 . S
C70 Eu41 2.828 . S
C70 O54 1.249 . S
C70 O55 1.244 . S
C70 C64 1.505 . S
C71 O58 1.258 . S
C71 O59 1.242 . S
H72 C44 0.930 . S
H73 C45 0.930 . S
H74 C46 0.930 . S
H75 C47 0.931 . S
H76 C65 0.930 . S
H77 C66 0.930 . S
H78 C67 0.930 . S
H79 C68 0.931 . S
Eu80 C89 2.828 . S
Eu80 O91 2.392 . S
Eu80 O93 2.418 . S
Eu80 O98 2.373 . S
Eu80 O101 2.488 . S
Eu80 O102 2.471 . S
Eu80 O103 2.349 . S
Eu81 O90 2.373 . S
Eu81 O94 2.488 . S
Eu81 O95 2.471 . S
Eu81 O96 2.349 . S
Eu81 O99 2.392 . S
Eu81 O100 2.418 . S
Eu81 C110 2.828 . S
C82 O100 1.244 . S
C82 O103 1.265 . S
C83 C84 1.379 . S
C83 C87 1.373 . S
C83 C89 1.505 . S
C84 C83 1.379 . S
C84 C86 1.369 . S
C84 H112 0.930 . S
C85 C87 1.383 . S
C85 C88 1.382 . S
C85 H113 0.930 . S
C86 C84 1.369 . S
C86 C88 1.392 . S
C86 H114 0.930 . S
C87 C83 1.373 . S
C87 C85 1.383 . S
C87 H115 0.931 . S
C88 C85 1.382 . S
C88 C86 1.392 . S
C89 Eu80 2.828 . S
C89 C83 1.505 . S
C89 O101 1.249 . S
C89 O102 1.244 . S
O90 Eu81 2.373 . S
O90 C92 1.258 . S
O91 Eu80 2.392 . S
O91 C92 1.242 . S
C92 O90 1.258 . S
C92 O91 1.242 . S
O93 Eu80 2.418 . S
O93 C97 1.244 . S
O94 Eu81 2.488 . S
O94 C110 1.249 . S
O95 Eu81 2.471 . S
O95 C110 1.244 . S
O96 Eu81 2.349 . S
O96 C97 1.265 . S
C97 O93 1.244 . S
C97 O96 1.265 . S
O98 Eu80 2.373 . S
O98 C111 1.258 . S
O99 Eu81 2.392 . S
O99 C111 1.242 . S
O100 Eu81 2.418 . S
O100 C82 1.244 . S
O101 Eu80 2.488 . S
O101 C89 1.249 . S
O102 Eu80 2.471 . S
O102 C89 1.244 . S
O103 Eu80 2.349 . S
O103 C82 1.265 . S
C104 C105 1.379 . S
C104 C108 1.373 . S
C104 C110 1.505 . S
C105 C104 1.379 . S
C105 C107 1.369 . S
C105 H116 0.930 . S
C106 C108 1.383 . S
C106 C109 1.382 . S
C106 H117 0.930 . S
C107 C105 1.369 . S
C107 C109 1.392 . S
C107 H118 0.930 . S
C108 C104 1.373 . S
C108 C106 1.383 . S
C108 H119 0.931 . S
C109 C106 1.382 . S
C109 C107 1.392 . S
C110 Eu81 2.828 . S
C110 O94 1.249 . S
C110 O95 1.244 . S
C110 C104 1.505 . S
C111 O98 1.258 . S
C111 O99 1.242 . S
H112 C84 0.930 . S
H113 C85 0.930 . S
H114 C86 0.930 . S
H115 C87 0.931 . S
H116 C105 0.930 . S
H117 C106 0.930 . S
H118 C107 0.930 . S
H119 C108 0.931 . S
Eu120 C129 2.828 . S
Eu120 O131 2.392 . S
Eu120 O133 2.418 . S
Eu120 O138 2.373 . S
Eu120 O141 2.488 . S
Eu120 O142 2.471 . S
Eu120 O143 2.349 . S
Eu121 O130 2.373 . S
Eu121 O134 2.488 . S
Eu121 O135 2.471 . S
Eu121 O136 2.349 . S
Eu121 O139 2.392 . S
Eu121 O140 2.418 . S
Eu121 C150 2.828 . S
C122 O140 1.244 . S
C122 O143 1.265 . S
C123 C124 1.379 . S
C123 C127 1.373 . S
C123 C129 1.505 . S
C124 C123 1.379 . S
C124 C126 1.369 . S
C124 H152 0.930 . S
C125 C127 1.383 . S
C125 C128 1.382 . S
C125 H153 0.930 . S
C126 C124 1.369 . S
C126 C128 1.392 . S
C126 H154 0.930 . S
C127 C123 1.373 . S
C127 C125 1.383 . S
C127 H155 0.931 . S
C128 C125 1.382 . S
C128 C126 1.392 . S
C129 Eu120 2.828 . S
C129 C123 1.505 . S
C129 O141 1.249 . S
C129 O142 1.244 . S
O130 Eu121 2.373 . S
O130 C132 1.258 . S
O131 Eu120 2.392 . S
O131 C132 1.242 . S
C132 O130 1.258 . S
C132 O131 1.242 . S
O133 Eu120 2.418 . S
O133 C137 1.244 . S
O134 Eu121 2.488 . S
O134 C150 1.249 . S
O135 Eu121 2.471 . S
O135 C150 1.244 . S
O136 Eu121 2.349 . S
O136 C137 1.265 . S
C137 O133 1.244 . S
C137 O136 1.265 . S
O138 Eu120 2.373 . S
O138 C151 1.258 . S
O139 Eu121 2.392 . S
O139 C151 1.242 . S
O140 Eu121 2.418 . S
O140 C122 1.244 . S
O141 Eu120 2.488 . S
O141 C129 1.249 . S
O142 Eu120 2.471 . S
O142 C129 1.244 . S
O143 Eu120 2.349 . S
O143 C122 1.265 . S
C144 C145 1.379 . S
C144 C148 1.373 . S
C144 C150 1.505 . S
C145 C144 1.379 . S
C145 C147 1.369 . S
C145 H156 0.930 . S
C146 C148 1.383 . S
C146 C149 1.382 . S
C146 H157 0.930 . S
C147 C145 1.369 . S
C147 C149 1.392 . S
C147 H158 0.930 . S
C148 C144 1.373 . S
C148 C146 1.383 . S
C148 H159 0.931 . S
C149 C146 1.382 . S
C149 C147 1.392 . S
C150 Eu121 2.828 . S
C150 O134 1.249 . S
C150 O135 1.244 . S
C150 C144 1.505 . S
C151 O138 1.258 . S
C151 O139 1.242 . S
H152 C124 0.930 . S
H153 C125 0.930 . S
H154 C126 0.930 . S
H155 C127 0.931 . S
H156 C145 0.930 . S
H157 C146 0.930 . S
H158 C147 0.930 . S
H159 C148 0.931 . S
Eu160 C169 2.828 . S
Eu160 O171 2.392 . S
Eu160 O173 2.418 . S
Eu160 O178 2.373 . S
Eu160 O181 2.488 . S
Eu160 O182 2.471 . S
Eu160 O183 2.349 . S
Eu161 O170 2.373 . S
Eu161 O174 2.488 . S
Eu161 O175 2.471 . S
Eu161 O176 2.349 . S
Eu161 O179 2.392 . S
Eu161 O180 2.418 . S
Eu161 C190 2.828 . S
C162 O180 1.244 . S
C162 O183 1.265 . S
C163 C164 1.379 . S
C163 C167 1.373 . S
C163 C169 1.505 . S
C164 C163 1.379 . S
C164 C166 1.369 . S
C164 H192 0.930 . S
C165 C167 1.383 . S
C165 C168 1.382 . S
C165 H193 0.930 . S
C166 C164 1.369 . S
C166 C168 1.392 . S
C166 H194 0.930 . S
C167 C163 1.373 . S
C167 C165 1.383 . S
C167 H195 0.931 . S
C168 C165 1.382 . S
C168 C166 1.392 . S
C169 Eu160 2.828 . S
C169 C163 1.505 . S
C169 O181 1.249 . S
C169 O182 1.244 . S
O170 Eu161 2.373 . S
O170 C172 1.258 . S
O171 Eu160 2.392 . S
O171 C172 1.242 . S
C172 O170 1.258 . S
C172 O171 1.242 . S
O173 Eu160 2.418 . S
O173 C177 1.244 . S
O174 Eu161 2.488 . S
O174 C190 1.249 . S
O175 Eu161 2.471 . S
O175 C190 1.244 . S
O176 Eu161 2.349 . S
O176 C177 1.265 . S
C177 O173 1.244 . S
C177 O176 1.265 . S
O178 Eu160 2.373 . S
O178 C191 1.258 . S
O179 Eu161 2.392 . S
O179 C191 1.242 . S
O180 Eu161 2.418 . S
O180 C162 1.244 . S
O181 Eu160 2.488 . S
O181 C169 1.249 . S
O182 Eu160 2.471 . S
O182 C169 1.244 . S
O183 Eu160 2.349 . S
O183 C162 1.265 . S
C184 C185 1.379 . S
C184 C188 1.373 . S
C184 C190 1.505 . S
C185 C184 1.379 . S
C185 C187 1.369 . S
C185 H196 0.930 . S
C186 C188 1.383 . S
C186 C189 1.382 . S
C186 H197 0.930 . S
C187 C185 1.369 . S
C187 C189 1.392 . S
C187 H198 0.930 . S
C188 C184 1.373 . S
C188 C186 1.383 . S
C188 H199 0.931 . S
C189 C186 1.382 . S
C189 C187 1.392 . S
C190 Eu161 2.828 . S
C190 O174 1.249 . S
C190 O175 1.244 . S
C190 C184 1.505 . S
C191 O178 1.258 . S
C191 O179 1.242 . S
H192 C164 0.930 . S
H193 C165 0.930 . S
H194 C166 0.930 . S
H195 C167 0.931 . S
H196 C185 0.930 . S
H197 C186 0.930 . S
H198 C187 0.930 . S
H199 C188 0.931 . S
Eu200 C209 2.828 . S
Eu200 O211 2.392 . S
Eu200 O213 2.418 . S
Eu200 O218 2.373 . S
Eu200 O221 2.488 . S
Eu200 O222 2.471 . S
Eu200 O223 2.349 . S
Eu201 O210 2.373 . S
Eu201 O214 2.488 . S
Eu201 O215 2.471 . S
Eu201 O216 2.349 . S
Eu201 O219 2.392 . S
Eu201 O220 2.418 . S
Eu201 C230 2.828 . S
C202 O220 1.244 . S
C202 O223 1.265 . S
C203 C204 1.379 . S
C203 C207 1.373 . S
C203 C209 1.505 . S
C204 C203 1.379 . S
C204 C206 1.369 . S
C204 H232 0.930 . S
C205 C207 1.383 . S
C205 C208 1.382 . S
C205 H233 0.930 . S
C206 C204 1.369 . S
C206 C208 1.392 . S
C206 H234 0.930 . S
C207 C203 1.373 . S
C207 C205 1.383 . S
C207 H235 0.931 . S
C208 C205 1.382 . S
C208 C206 1.392 . S
C209 Eu200 2.828 . S
C209 C203 1.505 . S
C209 O221 1.249 . S
C209 O222 1.244 . S
O210 Eu201 2.373 . S
O210 C212 1.258 . S
O211 Eu200 2.392 . S
O211 C212 1.242 . S
C212 O210 1.258 . S
C212 O211 1.242 . S
O213 Eu200 2.418 . S
O213 C217 1.244 . S
O214 Eu201 2.488 . S
O214 C230 1.249 . S
O215 Eu201 2.471 . S
O215 C230 1.244 . S
O216 Eu201 2.349 . S
O216 C217 1.265 . S
C217 O213 1.244 . S
C217 O216 1.265 . S
O218 Eu200 2.373 . S
O218 C231 1.258 . S
O219 Eu201 2.392 . S
O219 C231 1.242 . S
O220 Eu201 2.418 . S
O220 C202 1.244 . S
O221 Eu200 2.488 . S
O221 C209 1.249 . S
O222 Eu200 2.471 . S
O222 C209 1.244 . S
O223 Eu200 2.349 . S
O223 C202 1.265 . S
C224 C225 1.379 . S
C224 C228 1.373 . S
C224 C230 1.505 . S
C225 C224 1.379 . S
C225 C227 1.369 . S
C225 H236 0.930 . S
C226 C228 1.383 . S
C226 C229 1.382 . S
C226 H237 0.930 . S
C227 C225 1.369 . S
C227 C229 1.392 . S
C227 H238 0.930 . S
C228 C224 1.373 . S
C228 C226 1.383 . S
C228 H239 0.931 . S
C229 C226 1.382 . S
C229 C227 1.392 . S
C230 Eu201 2.828 . S
C230 O214 1.249 . S
C230 O215 1.244 . S
C230 C224 1.505 . S
C231 O218 1.258 . S
C231 O219 1.242 . S
H232 C204 0.930 . S
H233 C205 0.930 . S
H234 C206 0.930 . S
H235 C207 0.931 . S
H236 C225 0.930 . S
H237 C226 0.930 . S
H238 C227 0.930 . S
H239 C228 0.931 . S
Eu240 C249 2.828 . S
Eu240 O251 2.392 . S
Eu240 O253 2.418 . S
Eu240 O258 2.373 . S
Eu240 O261 2.488 . S
Eu240 O262 2.471 . S
Eu240 O263 2.349 . S
Eu241 O250 2.373 . S
Eu241 O254 2.488 . S
Eu241 O255 2.471 . S
Eu241 O256 2.349 . S
Eu241 O259 2.392 . S
Eu241 O260 2.418 . S
Eu241 C270 2.828 . S
C242 O260 1.244 . S
C242 O263 1.265 . S
C243 C244 1.379 . S
C243 C247 1.373 . S
C243 C249 1.505 . S
C244 C243 1.379 . S
C244 C246 1.369 . S
C244 H272 0.930 . S
C245 C247 1.383 . S
C245 C248 1.382 . S
C245 H273 0.930 . S
C246 C244 1.369 . S
C246 C248 1.392 . S
C246 H274 0.930 . S
C247 C243 1.373 . S
C247 C245 1.383 . S
C247 H275 0.931 . S
C248 C245 1.382 . S
C248 C246 1.392 . S
C249 Eu240 2.828 . S
C249 C243 1.505 . S
C249 O261 1.249 . S
C249 O262 1.244 . S
O250 Eu241 2.373 . S
O250 C252 1.258 . S
O251 Eu240 2.392 . S
O251 C252 1.242 . S
C252 O250 1.258 . S
C252 O251 1.242 . S
O253 Eu240 2.418 . S
O253 C257 1.244 . S
O254 Eu241 2.488 . S
O254 C270 1.249 . S
O255 Eu241 2.471 . S
O255 C270 1.244 . S
O256 Eu241 2.349 . S
O256 C257 1.265 . S
C257 O253 1.244 . S
C257 O256 1.265 . S
O258 Eu240 2.373 . S
O258 C271 1.258 . S
O259 Eu241 2.392 . S
O259 C271 1.242 . S
O260 Eu241 2.418 . S
O260 C242 1.244 . S
O261 Eu240 2.488 . S
O261 C249 1.249 . S
O262 Eu240 2.471 . S
O262 C249 1.244 . S
O263 Eu240 2.349 . S
O263 C242 1.265 . S
C264 C265 1.379 . S
C264 C268 1.373 . S
C264 C270 1.505 . S
C265 C264 1.379 . S
C265 C267 1.369 . S
C265 H276 0.930 . S
C266 C268 1.383 . S
C266 C269 1.382 . S
C266 H277 0.930 . S
C267 C265 1.369 . S
C267 C269 1.392 . S
C267 H278 0.930 . S
C268 C264 1.373 . S
C268 C266 1.383 . S
C268 H279 0.931 . S
C269 C266 1.382 . S
C269 C267 1.392 . S
C270 Eu241 2.828 . S
C270 O254 1.249 . S
C270 O255 1.244 . S
C270 C264 1.505 . S
C271 O258 1.258 . S
C271 O259 1.242 . S
H272 C244 0.930 . S
H273 C245 0.930 . S
H274 C246 0.930 . S
H275 C247 0.931 . S
H276 C265 0.930 . S
H277 C266 0.930 . S
H278 C267 0.930 . S
H279 C268 0.931 . S
Eu280 C289 2.828 . S
Eu280 O291 2.392 . S
Eu280 O293 2.418 . S
Eu280 O298 2.373 . S
Eu280 O301 2.488 . S
Eu280 O302 2.471 . S
Eu280 O303 2.349 . S
Eu281 O290 2.373 . S
Eu281 O294 2.488 . S
Eu281 O295 2.471 . S
Eu281 O296 2.349 . S
Eu281 O299 2.392 . S
Eu281 O300 2.418 . S
Eu281 C310 2.828 . S
C282 O300 1.244 . S
C282 O303 1.265 . S
C283 C284 1.379 . S
C283 C287 1.373 . S
C283 C289 1.505 . S
C284 C283 1.379 . S
C284 C286 1.369 . S
C284 H312 0.930 . S
C285 C287 1.383 . S
C285 C288 1.382 . S
C285 H313 0.930 . S
C286 C284 1.369 . S
C286 C288 1.392 . S
C286 H314 0.930 . S
C287 C283 1.373 . S
C287 C285 1.383 . S
C287 H315 0.931 . S
C288 C285 1.382 . S
C288 C286 1.392 . S
C289 Eu280 2.828 . S
C289 C283 1.505 . S
C289 O301 1.249 . S
C289 O302 1.244 . S
O290 Eu281 2.373 . S
O290 C292 1.258 . S
O291 Eu280 2.392 . S
O291 C292 1.242 . S
C292 O290 1.258 . S
C292 O291 1.242 . S
O293 Eu280 2.418 . S
O293 C297 1.244 . S
O294 Eu281 2.488 . S
O294 C310 1.249 . S
O295 Eu281 2.471 . S
O295 C310 1.244 . S
O296 Eu281 2.349 . S
O296 C297 1.265 . S
C297 O293 1.244 . S
C297 O296 1.265 . S
O298 Eu280 2.373 . S
O298 C311 1.258 . S
O299 Eu281 2.392 . S
O299 C311 1.242 . S
O300 Eu281 2.418 . S
O300 C282 1.244 . S
O301 Eu280 2.488 . S
O301 C289 1.249 . S
O302 Eu280 2.471 . S
O302 C289 1.244 . S
O303 Eu280 2.349 . S
O303 C282 1.265 . S
C304 C305 1.379 . S
C304 C308 1.373 . S
C304 C310 1.505 . S
C305 C304 1.379 . S
C305 C307 1.369 . S
C305 H316 0.930 . S
C306 C308 1.383 . S
C306 C309 1.382 . S
C306 H317 0.930 . S
C307 C305 1.369 . S
C307 C309 1.392 . S
C307 H318 0.930 . S
C308 C304 1.373 . S
C308 C306 1.383 . S
C308 H319 0.931 . S
C309 C306 1.382 . S
C309 C307 1.392 . S
C310 Eu281 2.828 . S
C310 O294 1.249 . S
C310 O295 1.244 . S
C310 C304 1.505 . S
C311 O298 1.258 . S
C311 O299 1.242 . S
H312 C284 0.930 . S
H313 C285 0.930 . S
H314 C286 0.930 . S
H315 C287 0.931 . S
H316 C305 0.930 . S
H317 C306 0.930 . S
H318 C307 0.930 . S
H319 C308 0.931 . S
Co320 O323 2.042 . S
Co320 O330 2.264 . S
Co320 O349 2.286 . S
Co320 O350 2.069 . S
Co320 O352 2.015 1_455 S
Co321 O323 2.122 . S
Co321 O329 2.073 . S
Co321 O330 2.327 . S
Co321 O331 1.976 1_455 S
Co322 O323 2.082 1_545 S
Co322 O325 2.092 1_455 S
Co322 O332 2.109 1_445 S
Co322 O333 2.147 . S
Co322 O337 2.114 . S
Co322 O351 2.140 1_445 S
O323 Co320 2.042 . S
O323 Co321 2.122 . S
O323 Co322 2.082 1_565 S
O323 H324 0.980 . S
H324 O323 0.980 . S
O325 Co322 2.092 1_655 S
O325 Co326 2.042 . S
O325 Co327 2.122 . S
O325 H328 0.980 . S
Co326 O325 2.042 . S
Co326 O334 2.286 . S
Co326 O335 2.069 . S
Co326 O336 2.015 1_655 S
Co326 O339 2.264 . S
Co327 O325 2.122 . S
Co327 O338 1.976 1_655 S
Co327 O339 2.327 . S
Co327 O340 2.073 . S
H328 O325 0.980 . S
O329 Co321 2.073 . S
O329 C344 1.245 . S
O330 Co320 2.264 . S
O330 Co321 2.327 . S
O330 C344 1.257 . S
O331 Co321 1.976 1_655 S
O331 C343 1.251 . S
O332 Co322 2.109 1_665 S
O332 C343 1.274 . S
O333 Co322 2.147 . S
O333 C346 1.246 . S
O334 Co326 2.286 . S
O334 C345 1.259 . S
O335 Co326 2.069 . S
O335 C345 1.289 . S
O336 Co326 2.015 1_455 S
O336 C346 1.257 . S
O337 Co322 2.114 . S
O337 C347 1.274 . S
O338 Co327 1.976 1_455 S
O338 C347 1.251 . S
O339 Co326 2.264 . S
O339 Co327 2.327 . S
O339 C348 1.257 . S
O340 Co327 2.073 . S
O340 C348 1.245 . S
C341 O349 1.259 . S
C341 O350 1.289 . S
C342 O351 1.246 . S
C342 O352 1.257 . S
C343 O331 1.251 . S
C343 O332 1.274 . S
C344 O329 1.245 . S
C344 O330 1.257 . S
C345 O334 1.259 . S
C345 O335 1.289 . S
C346 O333 1.246 . S
C346 O336 1.257 . S
C347 O337 1.274 . S
C347 O338 1.251 . S
C348 O339 1.257 . S
C348 O340 1.245 . S
O349 Co320 2.286 . S
O349 C341 1.259 . S
O350 Co320 2.069 . S
O350 C341 1.289 . S
O351 Co322 2.140 1_665 S
O351 C342 1.246 . S
O352 Co320 2.015 1_655 S
O352 C342 1.257 . S
Co353 O356 2.042 1_556 S
Co353 O363 2.264 1_556 S
Co353 O382 2.286 . S
Co353 O383 2.069 . S
Co353 O385 2.015 . S
Co354 O356 2.122 . S
Co354 O362 2.073 . S
Co354 O363 2.327 . S
Co354 O364 1.976 . S
Co355 O356 2.080 1_545 S
Co355 O358 2.094 1_554 S
Co355 O365 2.109 1_545 S
Co355 O366 2.147 . S
Co355 O370 2.113 1_554 S
Co355 O384 2.140 1_544 S
O356 Co353 2.042 1_554 S
O356 Co354 2.122 . S
O356 Co355 2.080 1_565 S
O356 H357 0.980 . S
H357 O356 0.980 . S
O358 Co355 2.094 1_556 S
O358 Co359 2.042 1_556 S
O358 Co360 2.122 . S
O358 H361 0.980 . S
Co359 O358 2.042 1_554 S
Co359 O367 2.286 . S
Co359 O368 2.069 . S
Co359 O369 2.015 . S
Co359 O372 2.264 1_554 S
Co360 O358 2.122 . S
Co360 O371 1.976 . S
Co360 O372 2.327 . S
Co360 O373 2.073 . S
H361 O358 0.980 . S
O362 Co354 2.073 . S
O362 C377 1.245 . S
O363 Co353 2.264 1_554 S
O363 Co354 2.327 . S
O363 C377 1.257 . S
O364 Co354 1.976 . S
O364 C376 1.251 . S
O365 Co355 2.109 1_565 S
O365 C376 1.274 . S
O366 Co355 2.147 . S
O366 C379 1.246 . S
O367 Co359 2.286 . S
O367 C378 1.259 . S
O368 Co359 2.069 . S
O368 C378 1.289 . S
O369 Co359 2.015 . S
O369 C379 1.257 . S
O370 Co355 2.113 1_556 S
O370 C380 1.274 . S
O371 Co360 1.976 . S
O371 C380 1.251 . S
O372 Co359 2.264 1_556 S
O372 Co360 2.327 . S
O372 C381 1.257 . S
O373 Co360 2.073 . S
O373 C381 1.245 . S
C374 O382 1.259 . S
C374 O383 1.289 . S
C375 O384 1.246 . S
C375 O385 1.257 . S
C376 O364 1.251 . S
C376 O365 1.274 . S
C377 O362 1.245 . S
C377 O363 1.257 . S
C378 O367 1.259 . S
C378 O368 1.289 . S
C379 O366 1.246 . S
C379 O369 1.257 . S
C380 O370 1.274 . S
C380 O371 1.251 . S
C381 O372 1.257 . S
C381 O373 1.245 . S
O382 Co353 2.286 . S
O382 C374 1.259 . S
O383 Co353 2.069 . S
O383 C374 1.289 . S
O384 Co355 2.140 1_566 S
O384 C375 1.246 . S
O385 Co353 2.015 . S
O385 C375 1.257 . S
Co386 O389 2.042 1_556 S
Co386 O396 2.264 1_556 S
Co386 O415 2.286 . S
Co386 O416 2.069 . S
Co386 O418 2.015 1_455 S
Co387 O389 2.122 . S
Co387 O395 2.073 . S
Co387 O396 2.327 . S
Co387 O397 1.976 1_455 S
Co388 O389 2.089 . S
Co388 O391 2.085 1_454 S
Co388 O398 2.110 1_455 S
Co388 O399 2.144 . S
Co388 O403 2.112 1_554 S
Co388 O417 2.143 1_454 S
O389 Co386 2.042 1_554 S
O389 Co387 2.122 . S
O389 Co388 2.089 . S
O389 H390 0.980 . S
H390 O389 0.980 . S
O391 Co388 2.085 1_656 S
O391 Co392 2.042 1_556 S
O391 Co393 2.122 . S
O391 H394 0.980 . S
Co392 O391 2.042 1_554 S
Co392 O400 2.286 . S
Co392 O401 2.069 . S
Co392 O402 2.015 1_655 S
Co392 O405 2.264 1_554 S
Co393 O391 2.122 . S
Co393 O404 1.976 1_655 S
Co393 O405 2.327 . S
Co393 O406 2.073 . S
H394 O391 0.980 . S
O395 Co387 2.073 . S
O395 C410 1.245 . S
O396 Co386 2.264 1_554 S
O396 Co387 2.327 . S
O396 C410 1.257 . S
O397 Co387 1.976 1_655 S
O397 C409 1.251 . S
O398 Co388 2.110 1_655 S
O398 C409 1.274 . S
O399 Co388 2.144 . S
O399 C412 1.246 . S
O400 Co392 2.286 . S
O400 C411 1.259 . S
O401 Co392 2.069 . S
O401 C411 1.289 . S
O402 Co392 2.015 1_455 S
O402 C412 1.257 . S
O403 Co388 2.112 1_556 S
O403 C413 1.274 . S
O404 Co393 1.976 1_455 S
O404 C413 1.251 . S
O405 Co392 2.264 1_556 S
O405 Co393 2.327 . S
O405 C414 1.257 . S
O406 Co393 2.073 . S
O406 C414 1.245 . S
C407 O415 1.259 . S
C407 O416 1.289 . S
C408 O417 1.246 . S
C408 O418 1.257 . S
C409 O397 1.251 . S
C409 O398 1.274 . S
C410 O395 1.245 . S
C410 O396 1.257 . S
C411 O400 1.259 . S
C411 O401 1.289 . S
C412 O399 1.246 . S
C412 O402 1.257 . S
C413 O403 1.274 . S
C413 O404 1.251 . S
C414 O405 1.257 . S
C414 O406 1.245 . S
O415 Co386 2.286 . S
O415 C407 1.259 . S
O416 Co386 2.069 . S
O416 C407 1.289 . S
O417 Co388 2.143 1_656 S
O417 C408 1.246 . S
O418 Co386 2.015 1_655 S
O418 C408 1.257 . S
Co419 O422 2.042 1_556 S
Co419 O429 2.264 1_556 S
Co419 O448 2.286 . S
Co419 O449 2.069 . S
Co419 O451 2.015 . S
Co420 O422 2.122 . S
Co420 O428 2.073 . S
Co420 O429 2.327 . S
Co420 O430 1.976 . S
Co421 O422 2.087 . S
Co421 O424 2.087 1_554 S
Co421 O431 2.111 . S
Co421 O432 2.143 . S
Co421 O436 2.111 1_554 S
Co421 O450 2.143 1_554 S
O422 Co419 2.042 1_554 S
O422 Co420 2.122 . S
O422 Co421 2.087 . S
O422 H423 0.980 . S
H423 O422 0.980 . S
O424 Co421 2.087 1_556 S
O424 Co425 2.042 1_556 S
O424 Co426 2.122 . S
O424 H427 0.980 . S
Co425 O424 2.042 1_554 S
Co425 O433 2.286 . S
Co425 O434 2.069 . S
Co425 O435 2.015 . S
Co425 O438 2.264 1_554 S
Co426 O424 2.122 . S
Co426 O437 1.976 . S
Co426 O438 2.327 . S
Co426 O439 2.073 . S
H427 O424 0.980 . S
O428 Co420 2.073 . S
O428 C443 1.245 . S
O429 Co419 2.264 1_554 S
O429 Co420 2.327 . S
O429 C443 1.257 . S
O430 Co420 1.976 . S
O430 C442 1.251 . S
O431 Co421 2.111 . S
O431 C442 1.274 . S
O432 Co421 2.143 . S
O432 C445 1.246 . S
O433 Co425 2.286 . S
O433 C444 1.259 . S
O434 Co425 2.069 . S
O434 C444 1.289 . S
O435 Co425 2.015 . S
O435 C445 1.257 . S
O436 Co421 2.111 1_556 S
O436 C446 1.274 . S
O437 Co426 1.976 . S
O437 C446 1.251 . S
O438 Co425 2.264 1_556 S
O438 Co426 2.327 . S
O438 C447 1.257 . S
O439 Co426 2.073 . S
O439 C447 1.245 . S
C440 O448 1.259 . S
C440 O449 1.289 . S
C441 O450 1.246 . S
C441 O451 1.257 . S
C442 O430 1.251 . S
C442 O431 1.274 . S
C443 O428 1.245 . S
C443 O429 1.257 . S
C444 O433 1.259 . S
C444 O434 1.289 . S
C445 O432 1.246 . S
C445 O435 1.257 . S
C446 O436 1.274 . S
C446 O437 1.251 . S
C447 O438 1.257 . S
C447 O439 1.245 . S
O448 Co419 2.286 . S
O448 C440 1.259 . S
O449 Co419 2.069 . S
O449 C440 1.289 . S
O450 Co421 2.143 1_556 S
O450 C441 1.246 . S
O451 Co419 2.015 . S
O451 C441 1.257 . S
Co452 O455 2.042 . S
Co452 O462 2.264 . S
Co452 O481 2.286 . S
Co452 O482 2.069 . S
Co452 O484 2.015 . S
Co453 O455 2.122 . S
Co453 O461 2.073 . S
Co453 O462 2.327 . S
Co453 O463 1.976 . S
Co454 O455 2.089 . S
Co454 O457 2.085 1_455 S
Co454 O464 2.112 . S
Co454 O465 2.143 1_455 S
Co454 O469 2.111 1_455 S
Co454 O483 2.144 . S
O455 Co452 2.042 . S
O455 Co453 2.122 . S
O455 Co454 2.089 . S
O455 H456 0.980 . S
H456 O455 0.980 . S
O457 Co454 2.085 1_655 S
O457 Co458 2.042 . S
O457 Co459 2.122 . S
O457 H460 0.980 . S
Co458 O457 2.042 . S
Co458 O466 2.286 . S
Co458 O467 2.069 . S
Co458 O468 2.015 . S
Co458 O471 2.264 . S
Co459 O457 2.122 . S
Co459 O470 1.976 . S
Co459 O471 2.327 . S
Co459 O472 2.073 . S
H460 O457 0.980 . S
O461 Co453 2.073 . S
O461 C476 1.245 . S
O462 Co452 2.264 . S
O462 Co453 2.327 . S
O462 C476 1.257 . S
O463 Co453 1.976 . S
O463 C475 1.251 . S
O464 Co454 2.112 . S
O464 C475 1.274 . S
O465 Co454 2.143 1_655 S
O465 C478 1.246 . S
O466 Co458 2.286 . S
O466 C477 1.259 . S
O467 Co458 2.069 . S
O467 C477 1.289 . S
O468 Co458 2.015 . S
O468 C478 1.257 . S
O469 Co454 2.111 1_655 S
O469 C479 1.274 . S
O470 Co459 1.976 . S
O470 C479 1.251 . S
O471 Co458 2.264 . S
O471 Co459 2.327 . S
O471 C480 1.257 . S
O472 Co459 2.073 . S
O472 C480 1.245 . S
C473 O481 1.259 . S
C473 O482 1.289 . S
C474 O483 1.246 . S
C474 O484 1.257 . S
C475 O463 1.251 . S
C475 O464 1.274 . S
C476 O461 1.245 . S
C476 O462 1.257 . S
C477 O466 1.259 . S
C477 O467 1.289 . S
C478 O465 1.246 . S
C478 O468 1.257 . S
C479 O469 1.274 . S
C479 O470 1.251 . S
C480 O471 1.257 . S
C480 O472 1.245 . S
O481 Co452 2.286 . S
O481 C473 1.259 . S
O482 Co452 2.069 . S
O482 C473 1.289 . S
O483 Co454 2.144 . S
O483 C474 1.246 . S
O484 Co452 2.015 . S
O484 C474 1.257 . S
Co485 O488 2.042 . S
Co485 O495 2.264 . S
Co485 O514 2.286 . S
Co485 O515 2.069 . S
Co485 O517 2.015 1_565 S
Co486 O488 2.122 . S
Co486 O494 2.073 . S
Co486 O495 2.327 . S
Co486 O496 1.976 1_565 S
Co487 O488 2.080 1_545 S
Co487 O490 2.093 . S
Co487 O497 2.115 . S
Co487 O498 2.142 1_545 S
Co487 O502 2.107 1_545 S
Co487 O516 2.145 . S
O488 Co485 2.042 . S
O488 Co486 2.122 . S
O488 Co487 2.080 1_565 S
O488 H489 0.980 . S
H489 O488 0.980 . S
O490 Co487 2.093 . S
O490 Co491 2.042 . S
O490 Co492 2.122 . S
O490 H493 0.980 . S
Co491 O490 2.042 . S
Co491 O499 2.286 . S
Co491 O500 2.069 . S
Co491 O501 2.015 1_545 S
Co491 O504 2.264 . S
Co492 O490 2.122 . S
Co492 O503 1.976 1_545 S
Co492 O504 2.327 . S
Co492 O505 2.073 . S
H493 O490 0.980 . S
O494 Co486 2.073 . S
O494 C509 1.245 . S
O495 Co485 2.264 . S
O495 Co486 2.327 . S
O495 C509 1.257 . S
O496 Co486 1.976 1_545 S
O496 C508 1.251 . S
O497 Co487 2.115 . S
O497 C508 1.274 . S
O498 Co487 2.142 1_565 S
O498 C511 1.246 . S
O499 Co491 2.286 . S
O499 C510 1.259 . S
O500 Co491 2.069 . S
O500 C510 1.289 . S
O501 Co491 2.015 1_565 S
O501 C511 1.257 . S
O502 Co487 2.107 1_565 S
O502 C512 1.274 . S
O503 Co492 1.976 1_565 S
O503 C512 1.251 . S
O504 Co491 2.264 . S
O504 Co492 2.327 . S
O504 C513 1.257 . S
O505 Co492 2.073 . S
O505 C513 1.245 . S
C506 O514 1.259 . S
C506 O515 1.289 . S
C507 O516 1.246 . S
C507 O517 1.257 . S
C508 O496 1.251 . S
C508 O497 1.274 . S
C509 O494 1.245 . S
C509 O495 1.257 . S
C510 O499 1.259 . S
C510 O500 1.289 . S
C511 O498 1.246 . S
C511 O501 1.257 . S
C512 O502 1.274 . S
C512 O503 1.251 . S
C513 O504 1.257 . S
C513 O505 1.245 . S
O514 Co485 2.286 . S
O514 C506 1.259 . S
O515 Co485 2.069 . S
O515 C506 1.289 . S
O516 Co487 2.145 . S
O516 C507 1.246 . S
O517 Co485 2.015 1_545 S
O517 C507 1.257 . S
C518 C519 1.363 . S
C518 C524 1.379 . S
C518 N526 1.356 . S
C519 C518 1.363 . S
C519 C525 1.363 . S
C520 C521 1.363 . S
C520 C525 1.379 . S
C520 N527 1.356 . S
C521 C520 1.363 . S
C521 C524 1.363 . S
N522 C524 1.356 . S
N522 H534 0.984 . S
N522 H535 0.985 . S
N523 C525 1.356 . S
N523 H528 0.984 . S
N523 H529 0.985 . S
C524 C518 1.379 . S
C524 C521 1.363 . S
C524 N522 1.356 . S
C525 C519 1.363 . S
C525 C520 1.379 . S
C525 N523 1.356 . S
N526 C518 1.356 . S
N526 H532 0.984 . S
N526 H533 0.984 . S
N527 C520 1.356 . S
N527 H530 0.984 . S
N527 H531 0.985 . S
H528 N523 0.984 . S
H529 N523 0.985 . S
H530 N527 0.984 . S
H531 N527 0.985 . S
H532 N526 0.984 . S
H533 N526 0.984 . S
H534 N522 0.984 . S
H535 N522 0.985 . S
C536 C537 1.363 . S
C536 C542 1.379 . S
C536 N544 1.356 . S
C537 C536 1.363 . S
C537 C543 1.363 . S
C538 C539 1.363 . S
C538 C543 1.379 . S
C538 N545 1.356 . S
C539 C538 1.363 . S
C539 C542 1.363 . S
N540 C542 1.356 . S
N540 H552 0.984 . S
N540 H553 0.985 . S
N541 C543 1.356 . S
N541 H546 0.984 . S
N541 H547 0.985 . S
C542 C536 1.379 . S
C542 C539 1.363 . S
C542 N540 1.356 . S
C543 C537 1.363 . S
C543 C538 1.379 . S
C543 N541 1.356 . S
N544 C536 1.356 . S
N544 H550 0.984 . S
N544 H551 0.984 . S
N545 C538 1.356 . S
N545 H548 0.984 . S
N545 H549 0.985 . S
H546 N541 0.984 . S
H547 N541 0.985 . S
H548 N545 0.984 . S
H549 N545 0.985 . S
H550 N544 0.984 . S
H551 N544 0.984 . S
H552 N540 0.984 . S
H553 N540 0.985 . S
C554 C555 1.363 . S
C554 C560 1.379 . S
C554 N562 1.356 . S
C555 C554 1.363 . S
C555 C561 1.363 . S
C556 C557 1.363 . S
C556 C561 1.379 . S
C556 N563 1.356 . S
C557 C556 1.363 . S
C557 C560 1.363 . S
N558 C560 1.356 . S
N558 H570 0.984 . S
N558 H571 0.985 . S
N559 C561 1.356 . S
N559 H564 0.984 . S
N559 H565 0.985 . S
C560 C554 1.379 . S
C560 C557 1.363 . S
C560 N558 1.356 . S
C561 C555 1.363 . S
C561 C556 1.379 . S
C561 N559 1.356 . S
N562 C554 1.356 . S
N562 H568 0.984 . S
N562 H569 0.984 . S
N563 C556 1.356 . S
N563 H566 0.984 . S
N563 H567 0.985 . S
H564 N559 0.984 . S
H565 N559 0.985 . S
H566 N563 0.984 . S
H567 N563 0.985 . S
H568 N562 0.984 . S
H569 N562 0.984 . S
H570 N558 0.984 . S
H571 N558 0.985 . S
C572 C573 1.363 . S
C572 C578 1.379 . S
C572 N580 1.356 . S
C573 C572 1.363 . S
C573 C579 1.363 . S
C574 C575 1.363 . S
C574 C579 1.379 . S
C574 N581 1.356 . S
C575 C574 1.363 . S
C575 C578 1.363 . S
N576 C578 1.356 . S
N576 H588 0.984 . S
N576 H589 0.985 . S
N577 C579 1.356 . S
N577 H582 0.984 . S
N577 H583 0.985 . S
C578 C572 1.379 . S
C578 C575 1.363 . S
C578 N576 1.356 . S
C579 C573 1.363 . S
C579 C574 1.379 . S
C579 N577 1.356 . S
N580 C572 1.356 . S
N580 H586 0.984 . S
N580 H587 0.984 . S
N581 C574 1.356 . S
N581 H584 0.984 . S
N581 H585 0.985 . S
H582 N577 0.984 . S
H583 N577 0.985 . S
H584 N581 0.984 . S
H585 N581 0.985 . S
H586 N580 0.984 . S
H587 N580 0.984 . S
H588 N576 0.984 . S
H589 N576 0.985 . S
C590 C591 1.363 . S
C590 C596 1.379 . S
C590 N598 1.356 . S
C591 C590 1.363 . S
C591 C597 1.363 . S
C592 C593 1.363 . S
C592 C597 1.379 . S
C592 N599 1.356 . S
C593 C592 1.363 . S
C593 C596 1.363 . S
N594 C596 1.356 . S
N594 H606 0.984 . S
N594 H607 0.985 . S
N595 C597 1.356 . S
N595 H600 0.984 . S
N595 H601 0.985 . S
C596 C590 1.379 . S
C596 C593 1.363 . S
C596 N594 1.356 . S
C597 C591 1.363 . S
C597 C592 1.379 . S
C597 N595 1.356 . S
N598 C590 1.356 . S
N598 H604 0.984 . S
N598 H605 0.984 . S
N599 C592 1.356 . S
N599 H602 0.984 . S
N599 H603 0.985 . S
H600 N595 0.984 . S
H601 N595 0.985 . S
H602 N599 0.984 . S
H603 N599 0.985 . S
H604 N598 0.984 . S
H605 N598 0.984 . S
H606 N594 0.984 . S
H607 N594 0.985 . S
C608 C609 1.363 . S
C608 C614 1.379 . S
C608 N616 1.356 . S
C609 C608 1.363 . S
C609 C615 1.363 . S
C610 C611 1.363 . S
C610 C615 1.379 . S
C610 N617 1.356 . S
C611 C610 1.363 . S
C611 C614 1.363 . S
N612 C614 1.356 . S
N612 H624 0.984 . S
N612 H625 0.985 . S
N613 C615 1.356 . S
N613 H618 0.984 . S
N613 H619 0.985 . S
C614 C608 1.379 . S
C614 C611 1.363 . S
C614 N612 1.356 . S
C615 C609 1.363 . S
C615 C610 1.379 . S
C615 N613 1.356 . S
N616 C608 1.356 . S
N616 H622 0.984 . S
N616 H623 0.984 . S
N617 C610 1.356 . S
N617 H620 0.984 . S
N617 H621 0.985 . S
H618 N613 0.984 . S
H619 N613 0.985 . S
H620 N617 0.984 . S
H621 N617 0.985 . S
H622 N616 0.984 . S
H623 N616 0.984 . S
H624 N612 0.984 . S
H625 N612 0.985 . S
C626 C627 1.363 . S
C626 C632 1.379 . S
C626 N634 1.356 . S
C627 C626 1.363 . S
C627 C633 1.363 . S
C628 C629 1.363 . S
C628 C633 1.379 . S
C628 N635 1.356 . S
C629 C628 1.363 . S
C629 C632 1.363 . S
N630 C632 1.356 . S
N630 H642 0.984 . S
N630 H643 0.985 . S
N631 C633 1.356 . S
N631 H636 0.984 . S
N631 H637 0.985 1_655 S
C632 C626 1.379 . S
C632 C629 1.363 . S
C632 N630 1.356 . S
C633 C627 1.363 . S
C633 C628 1.379 . S
C633 N631 1.356 . S
N634 C626 1.356 . S
N634 H640 0.984 . S
N634 H641 0.984 . S
N635 C628 1.356 . S
N635 H638 0.984 . S
N635 H639 0.985 . S
H636 N631 0.984 . S
H637 N631 0.985 1_455 S
H638 N635 0.984 . S
H639 N635 0.985 . S
H640 N634 0.984 . S
H641 N634 0.984 . S
H642 N630 0.984 . S
H643 N630 0.985 . S
C644 C645 1.363 . S
C644 C650 1.379 . S
C644 N652 1.356 . S
C645 C644 1.363 . S
C645 C651 1.363 . S
C646 C647 1.363 . S
C646 C651 1.379 . S
C646 N653 1.356 . S
C647 C646 1.363 . S
C647 C650 1.363 . S
N648 C650 1.356 . S
N648 H660 0.984 . S
N648 H661 0.985 . S
N649 C651 1.356 . S
N649 H654 0.984 . S
N649 H655 0.985 . S
C650 C644 1.379 . S
C650 C647 1.363 . S
C650 N648 1.356 . S
C651 C645 1.363 . S
C651 C646 1.379 . S
C651 N649 1.356 . S
N652 C644 1.356 . S
N652 H658 0.984 . S
N652 H659 0.984 . S
N653 C646 1.356 . S
N653 H656 0.984 . S
N653 H657 0.985 . S
H654 N649 0.984 . S
H655 N649 0.985 . S
H656 N653 0.984 . S
H657 N653 0.985 . S
H658 N652 0.984 . S
H659 N652 0.984 . S
H660 N648 0.984 . S
H661 N648 0.985 . S
C662 C663 1.363 . S
C662 C668 1.379 . S
C662 N670 1.356 . S
C663 C662 1.363 . S
C663 C669 1.363 . S
C664 C665 1.363 . S
C664 C669 1.379 . S
C664 N671 1.356 . S
C665 C664 1.363 . S
C665 C668 1.363 . S
N666 C668 1.356 . S
N666 H678 0.984 . S
N666 H679 0.985 . S
N667 C669 1.356 . S
N667 H672 0.984 . S
N667 H673 0.985 . S
C668 C662 1.379 . S
C668 C665 1.363 . S
C668 N666 1.356 . S
C669 C663 1.363 . S
C669 C664 1.379 . S
C669 N667 1.356 . S
N670 C662 1.356 . S
N670 H676 0.984 . S
N670 H677 0.984 . S
N671 C664 1.356 . S
N671 H674 0.984 . S
N671 H675 0.985 . S
H672 N667 0.984 . S
H673 N667 0.985 . S
H674 N671 0.984 . S
H675 N671 0.985 . S
H676 N670 0.984 . S
H677 N670 0.984 . S
H678 N666 0.984 . S
H679 N666 0.985 . S
C680 C681 1.363 . S
C680 C686 1.379 . S
C680 N688 1.356 . S
C681 C680 1.363 . S
C681 C687 1.363 . S
C682 C683 1.363 . S
C682 C687 1.379 . S
C682 N689 1.356 . S
C683 C682 1.363 . S
C683 C686 1.363 . S
N684 C686 1.356 . S
N684 H696 0.984 1_554 S
N684 H697 0.985 . S
N685 C687 1.356 . S
N685 H690 0.984 . S
N685 H691 0.985 . S
C686 C680 1.379 . S
C686 C683 1.363 . S
C686 N684 1.356 . S
C687 C681 1.363 . S
C687 C682 1.379 . S
C687 N685 1.356 . S
N688 C680 1.356 . S
N688 H694 0.984 . S
N688 H695 0.984 . S
N689 C682 1.356 . S
N689 H692 0.984 . S
N689 H693 0.985 . S
H690 N685 0.984 . S
H691 N685 0.985 . S
H692 N689 0.984 . S
H693 N689 0.985 . S
H694 N688 0.984 . S
H695 N688 0.984 . S
H696 N684 0.984 1_556 S
H697 N684 0.985 . S
C698 C699 1.363 . S
C698 C704 1.379 . S
C698 N706 1.356 . S
C699 C698 1.363 . S
C699 C705 1.363 . S
C700 C701 1.363 . S
C700 C705 1.379 . S
C700 N707 1.356 . S
C701 C700 1.363 . S
C701 C704 1.363 . S
N702 C704 1.356 1_556 S
N702 H714 0.984 . S
N702 H715 0.985 . S
N703 C705 1.356 . S
N703 H708 0.984 . S
N703 H709 0.985 . S
C704 C698 1.379 . S
C704 C701 1.363 . S
C704 N702 1.356 1_554 S
C705 C699 1.363 . S
C705 C700 1.379 . S
C705 N703 1.356 . S
N706 C698 1.356 . S
N706 H712 0.984 1_554 S
N706 H713 0.984 . S
N707 C700 1.356 . S
N707 H710 0.984 . S
N707 H711 0.985 . S
H708 N703 0.984 . S
H709 N703 0.985 . S
H710 N707 0.984 . S
H711 N707 0.985 . S
H712 N706 0.984 1_556 S
H713 N706 0.984 . S
H714 N702 0.984 . S
H715 N702 0.985 . S
C716 C717 1.363 . S
C716 C722 1.379 . S
C716 N724 1.356 . S
C717 C716 1.363 . S
C717 C723 1.363 . S
C718 C719 1.363 . S
C718 C723 1.379 . S
C718 N725 1.356 . S
C719 C718 1.363 . S
C719 C722 1.363 . S
N720 C722 1.356 . S
N720 H732 0.984 . S
N720 H733 0.985 . S
N721 C723 1.356 . S
N721 H726 0.984 . S
N721 H727 0.985 . S
C722 C716 1.379 . S
C722 C719 1.363 . S
C722 N720 1.356 . S
C723 C717 1.363 . S
C723 C718 1.379 . S
C723 N721 1.356 . S
N724 C716 1.356 . S
N724 H730 0.984 . S
N724 H731 0.984 . S
N725 C718 1.356 . S
N725 H728 0.984 . S
N725 H729 0.985 . S
H726 N721 0.984 . S
H727 N721 0.985 . S
H728 N725 0.984 . S
H729 N725 0.985 . S
H730 N724 0.984 . S
H731 N724 0.984 . S
H732 N720 0.984 . S
H733 N720 0.985 . S
C734 C735 1.363 . S
C734 C740 1.379 . S
C734 N742 1.356 . S
C735 C734 1.363 . S
C735 C741 1.363 . S
C736 C737 1.363 . S
C736 C741 1.379 . S
C736 N743 1.356 . S
C737 C736 1.363 . S
C737 C740 1.363 . S
N738 C740 1.356 . S
N738 H750 0.984 . S
N738 H751 0.985 . S
N739 C741 1.356 . S
N739 H744 0.984 . S
N739 H745 0.985 . S
C740 C734 1.379 . S
C740 C737 1.363 . S
C740 N738 1.356 . S
C741 C735 1.363 . S
C741 C736 1.379 . S
C741 N739 1.356 . S
N742 C734 1.356 . S
N742 H748 0.984 . S
N742 H749 0.984 . S
N743 C736 1.356 . S
N743 H746 0.984 . S
N743 H747 0.985 . S
H744 N739 0.984 . S
H745 N739 0.985 . S
H746 N743 0.984 . S
H747 N743 0.985 . S
H748 N742 0.984 . S
H749 N742 0.984 . S
H750 N738 0.984 . S
H751 N738 0.985 . S
C752 C753 1.363 . S
C752 C758 1.379 . S
C752 N760 1.356 . S
C753 C752 1.363 . S
C753 C759 1.363 . S
C754 C755 1.363 . S
C754 C759 1.379 . S
C754 N761 1.356 . S
C755 C754 1.363 . S
C755 C758 1.363 . S
N756 C758 1.356 . S
N756 H768 0.984 . S
N756 H769 0.985 . S
N757 C759 1.356 . S
N757 H762 0.984 . S
N757 H763 0.985 . S
C758 C752 1.379 . S
C758 C755 1.363 . S
C758 N756 1.356 . S
C759 C753 1.363 . S
C759 C754 1.379 . S
C759 N757 1.356 . S
N760 C752 1.356 . S
N760 H766 0.984 . S
N760 H767 0.984 . S
N761 C754 1.356 . S
N761 H764 0.984 . S
N761 H765 0.985 . S
H762 N757 0.984 . S
H763 N757 0.985 . S
H764 N761 0.984 . S
H765 N761 0.985 . S
H766 N760 0.984 . S
H767 N760 0.984 . S
H768 N756 0.984 . S
H769 N756 0.985 . S
C770 C771 1.363 . S
C770 C776 1.379 . S
C770 N778 1.356 . S
C771 C770 1.363 . S
C771 C777 1.363 . S
C772 C773 1.363 . S
C772 C777 1.379 . S
C772 N779 1.356 . S
C773 C772 1.363 . S
C773 C776 1.363 . S
N774 C776 1.356 . S
N774 H786 0.984 1_556 S
N774 H787 0.988 . S
N775 C777 1.356 . S
N775 H780 0.984 . S
N775 H781 0.985 . S
C776 C770 1.379 . S
C776 C773 1.363 . S
C776 N774 1.356 . S
C777 C771 1.363 . S
C777 C772 1.379 . S
C777 N775 1.356 . S
N778 C770 1.356 . S
N778 H784 0.984 . S
N778 H785 0.984 . S
N779 C772 1.356 . S
N779 H782 0.984 . S
N779 H783 0.985 . S
H780 N775 0.984 . S
H781 N775 0.985 . S
H782 N779 0.984 . S
H783 N779 0.985 . S
H784 N778 0.984 . S
H785 N778 0.984 . S
H786 N774 0.984 1_554 S
H787 N774 0.988 . S
C788 C789 1.363 . S
C788 C794 1.379 . S
C788 N796 1.356 . S
C789 C788 1.363 . S
C789 C795 1.363 . S
C790 C791 1.363 . S
C790 C795 1.379 . S
C790 N797 1.356 1_556 S
C791 C790 1.363 . S
C791 C794 1.363 . S
N792 C794 1.356 . S
N792 H804 0.984 . S
N792 H805 0.985 . S
N793 C795 1.356 . S
N793 H798 0.984 . S
N793 H799 0.985 1_556 S
C794 C788 1.379 . S
C794 C791 1.363 . S
C794 N792 1.356 . S
C795 C789 1.363 . S
C795 C790 1.379 . S
C795 N793 1.356 . S
N796 C788 1.356 . S
N796 H802 0.984 . S
N796 H803 0.984 . S
N797 C790 1.356 1_554 S
N797 H800 0.984 . S
N797 H801 0.985 . S
H798 N793 0.984 . S
H799 N793 0.985 1_554 S
H800 N797 0.984 . S
H801 N797 0.985 . S
H802 N796 0.984 . S
H803 N796 0.984 . S
H804 N792 0.984 . S
H805 N792 0.985 . S
C806 C807 1.363 . S
C806 C812 1.379 . S
C806 N814 1.356 . S
C807 C806 1.363 . S
C807 C813 1.363 . S
C808 C809 1.363 . S
C808 C813 1.379 . S
C808 N815 1.356 . S
C809 C808 1.363 . S
C809 C812 1.363 . S
N810 C812 1.356 1_556 S
N810 H822 0.984 . S
N810 H823 0.985 . S
N811 C813 1.356 . S
N811 H816 0.984 . S
N811 H817 0.985 . S
C812 C806 1.379 . S
C812 C809 1.363 . S
C812 N810 1.356 1_554 S
C813 C807 1.363 . S
C813 C808 1.379 . S
C813 N811 1.356 . S
N814 C806 1.356 . S
N814 H820 0.984 1_554 S
N814 H821 0.984 . S
N815 C808 1.356 . S
N815 H818 0.984 . S
N815 H819 0.985 . S
H816 N811 0.984 . S
H817 N811 0.985 . S
H818 N815 0.984 . S
H819 N815 0.985 . S
H820 N814 0.984 1_556 S
H821 N814 0.984 . S
H822 N810 0.984 . S
H823 N810 0.985 . S
C824 C825 1.363 . S
C824 C830 1.379 . S
C824 N832 1.356 . S
C825 C824 1.363 . S
C825 C831 1.363 . S
C826 C827 1.363 . S
C826 C831 1.379 . S
C826 N833 1.356 . S
C827 C826 1.363 . S
C827 C830 1.363 . S
N828 C830 1.356 . S
N828 H840 0.984 1_556 S
N828 H841 0.985 . S
N829 C831 1.356 . S
N829 H834 0.984 . S
N829 H835 0.985 . S
C830 C824 1.379 . S
C830 C827 1.363 . S
C830 N828 1.356 . S
C831 C825 1.363 . S
C831 C826 1.379 . S
C831 N829 1.356 . S
N832 C824 1.356 . S
N832 H838 0.984 . S
N832 H839 0.984 . S
N833 C826 1.356 . S
N833 H836 0.984 . S
N833 H837 0.985 . S
H834 N829 0.984 . S
H835 N829 0.985 . S
H836 N833 0.984 . S
H837 N833 0.985 . S
H838 N832 0.984 . S
H839 N832 0.984 . S
H840 N828 0.984 1_554 S
H841 N828 0.985 . S
C842 C843 1.363 . S
C842 C848 1.379 . S
C842 N850 1.356 . S
C843 C842 1.363 . S
C843 C849 1.363 . S
C844 C845 1.363 . S
C844 C849 1.379 . S
C844 N851 1.356 . S
C845 C844 1.363 . S
C845 C848 1.363 . S
N846 C848 1.356 . S
N846 H858 0.984 . S
N846 H859 0.985 . S
N847 C849 1.356 . S
N847 H852 0.984 . S
N847 H853 0.985 . S
C848 C842 1.379 . S
C848 C845 1.363 . S
C848 N846 1.356 . S
C849 C843 1.363 . S
C849 C844 1.379 . S
C849 N847 1.356 . S
N850 C842 1.356 . S
N850 H856 0.984 . S
N850 H857 0.984 . S
N851 C844 1.356 . S
N851 H854 0.984 . S
N851 H855 0.985 . S
H852 N847 0.984 . S
H853 N847 0.985 . S
H854 N851 0.984 . S
H855 N851 0.985 . S
H856 N850 0.984 . S
H857 N850 0.984 . S
H858 N846 0.984 . S
H859 N846 0.985 . S
C860 C861 1.363 . S
C860 C866 1.379 . S
C860 N868 1.356 . S
C861 C860 1.363 . S
C861 C867 1.363 . S
C862 C863 1.363 . S
C862 C867 1.379 . S
C862 N869 1.356 . S
C863 C862 1.363 . S
C863 C866 1.363 . S
N864 C866 1.356 . S
N864 H876 0.984 . S
N864 H877 0.985 . S
N865 C867 1.356 . S
N865 H870 0.984 . S
N865 H871 0.985 . S
C866 C860 1.379 . S
C866 C863 1.363 . S
C866 N864 1.356 . S
C867 C861 1.363 . S
C867 C862 1.379 . S
C867 N865 1.356 . S
N868 C860 1.356 . S
N868 H874 0.984 . S
N868 H875 0.984 . S
N869 C862 1.356 . S
N869 H872 0.984 . S
N869 H873 0.985 . S
H870 N865 0.984 . S
H871 N865 0.985 . S
H872 N869 0.984 . S
H873 N869 0.985 . S
H874 N868 0.984 . S
H875 N868 0.984 . S
H876 N864 0.984 . S
H877 N864 0.985 . S
C878 C879 1.363 . S
C878 C884 1.379 . S
C878 N886 1.356 . S
C879 C878 1.363 . S
C879 C885 1.363 . S
C880 C881 1.363 . S
C880 C885 1.379 . S
C880 N887 1.356 . S
C881 C880 1.363 . S
C881 C884 1.363 . S
N882 C884 1.356 . S
N882 H894 0.984 . S
N882 H895 0.985 . S
N883 C885 1.356 . S
N883 H888 0.984 . S
N883 H889 0.985 . S
C884 C878 1.379 . S
C884 C881 1.363 . S
C884 N882 1.356 . S
C885 C879 1.363 . S
C885 C880 1.379 . S
C885 N883 1.356 . S
N886 C878 1.356 . S
N886 H892 0.984 . S
N886 H893 0.984 . S
N887 C880 1.356 . S
N887 H890 0.984 . S
N887 H891 0.985 . S
H888 N883 0.984 . S
H889 N883 0.985 . S
H890 N887 0.984 . S
H891 N887 0.985 . S
H892 N886 0.984 . S
H893 N886 0.984 . S
H894 N882 0.984 . S
H895 N882 0.985 . S
C896 C897 1.363 . S
C896 C902 1.379 . S
C896 N904 1.356 . S
C897 C896 1.363 . S
C897 C903 1.363 . S
C898 C899 1.363 . S
C898 C903 1.379 . S
C898 N905 1.356 . S
C899 C898 1.363 . S
C899 C902 1.363 . S
N900 C902 1.356 . S
N900 H912 0.984 . S
N900 H913 0.985 . S
N901 C903 1.356 . S
N901 H906 0.984 . S
N901 H907 0.985 . S
C902 C896 1.379 . S
C902 C899 1.363 . S
C902 N900 1.356 . S
C903 C897 1.363 . S
C903 C898 1.379 . S
C903 N901 1.356 . S
N904 C896 1.356 . S
N904 H910 0.984 . S
N904 H911 0.984 . S
N905 C898 1.356 . S
N905 H908 0.984 . S
N905 H909 0.985 . S
H906 N901 0.984 . S
H907 N901 0.985 . S
H908 N905 0.984 . S
H909 N905 0.985 . S
H910 N904 0.984 . S
H911 N904 0.984 . S
H912 N900 0.984 . S
H913 N900 0.985 . S
C914 C915 1.363 . S
C914 C920 1.379 . S
C914 N922 1.356 . S
C915 C914 1.363 . S
C915 C921 1.363 . S
C916 C917 1.363 . S
C916 C921 1.379 . S
C916 N923 1.356 . S
C917 C916 1.363 . S
C917 C920 1.363 . S
N918 C920 1.356 . S
N918 H930 0.984 . S
N918 H931 0.985 . S
N919 C921 1.356 . S
N919 H924 0.984 . S
N919 H925 0.985 . S
C920 C914 1.379 . S
C920 C917 1.363 . S
C920 N918 1.356 . S
C921 C915 1.363 . S
C921 C916 1.379 . S
C921 N919 1.356 . S
N922 C914 1.356 . S
N922 H928 0.984 . S
N922 H929 0.984 . S
N923 C916 1.356 . S
N923 H926 0.984 . S
N923 H927 0.985 1_554 S
H924 N919 0.984 . S
H925 N919 0.985 . S
H926 N923 0.984 . S
H927 N923 0.985 1_556 S
H928 N922 0.984 . S
H929 N922 0.984 . S
H930 N918 0.984 . S
H931 N918 0.985 . S
C932 C933 1.363 . S
C932 C938 1.379 . S
C932 N940 1.356 . S
C933 C932 1.363 . S
C933 C939 1.363 . S
C934 C935 1.363 . S
C934 C939 1.379 . S
C934 N941 1.356 . S
C935 C934 1.363 . S
C935 C938 1.363 . S
N936 C938 1.356 . S
N936 H948 0.984 . S
N936 H949 0.985 . S
N937 C939 1.356 . S
N937 H942 0.984 . S
N937 H943 0.985 . S
C938 C932 1.379 . S
C938 C935 1.363 . S
C938 N936 1.356 . S
C939 C933 1.363 . S
C939 C934 1.379 . S
C939 N937 1.356 . S
N940 C932 1.356 . S
N940 H946 0.984 . S
N940 H947 0.984 . S
N941 C934 1.356 . S
N941 H944 0.984 . S
N941 H945 0.985 . S
H942 N937 0.984 . S
H943 N937 0.985 . S
H944 N941 0.984 . S
H945 N941 0.985 . S
H946 N940 0.984 . S
H947 N940 0.984 . S
H948 N936 0.984 . S
H949 N936 0.985 . S
C950 C951 1.363 . S
C950 C956 1.379 . S
C950 N958 1.356 . S
C951 C950 1.363 . S
C951 C957 1.363 . S
C952 C953 1.363 . S
C952 C957 1.379 . S
C952 N959 1.356 . S
C953 C952 1.363 . S
C953 C956 1.363 . S
N954 C956 1.356 . S
N954 H966 0.984 . S
N954 H967 0.985 . S
N955 C957 1.356 . S
N955 H960 0.984 . S
N955 H961 0.985 . S
C956 C950 1.379 . S
C956 C953 1.363 . S
C956 N954 1.356 . S
C957 C951 1.363 . S
C957 C952 1.379 . S
C957 N955 1.356 . S
N958 C950 1.356 . S
N958 H964 0.984 . S
N958 H965 0.984 . S
N959 C952 1.356 . S
N959 H962 0.984 . S
N959 H963 0.985 . S
H960 N955 0.984 . S
H961 N955 0.985 . S
H962 N959 0.984 . S
H963 N959 0.985 . S
H964 N958 0.984 . S
H965 N958 0.984 . S
H966 N954 0.984 . S
H967 N954 0.985 . S
C968 C969 1.363 . S
C968 C974 1.379 . S
C968 N976 1.356 . S
C969 C968 1.363 . S
C969 C975 1.363 . S
C970 C971 1.363 . S
C970 C975 1.379 . S
C970 N977 1.356 . S
C971 C970 1.363 . S
C971 C974 1.363 . S
N972 C974 1.356 . S
N972 H984 0.984 . S
N972 H985 0.985 . S
N973 C975 1.356 . S
N973 H978 0.984 . S
N973 H979 0.985 . S
C974 C968 1.379 . S
C974 C971 1.363 . S
C974 N972 1.356 . S
C975 C969 1.363 . S
C975 C970 1.379 . S
C975 N973 1.356 . S
N976 C968 1.356 . S
N976 H982 0.984 . S
N976 H983 0.984 . S
N977 C970 1.356 . S
N977 H980 0.984 . S
N977 H981 0.985 . S
H978 N973 0.984 . S
H979 N973 0.985 . S
H980 N977 0.984 . S
H981 N977 0.985 . S
H982 N976 0.984 . S
H983 N976 0.984 . S
H984 N972 0.984 . S
H985 N972 0.985 . S
C986 C987 1.363 . S
C986 C992 1.379 . S
C986 N994 1.356 . S
C987 C986 1.363 . S
C987 C993 1.363 . S
C988 C989 1.363 . S
C988 C993 1.379 . S
C988 N995 1.356 . S
C989 C988 1.363 . S
C989 C992 1.363 . S
N990 C992 1.356 . S
N990 H1002 0.984 . S
N990 H1003 0.985 . S
N991 C993 1.356 . S
N991 H996 0.984 . S
N991 H997 0.985 . S
C992 C986 1.379 . S
C992 C989 1.363 . S
C992 N990 1.356 . S
C993 C987 1.363 . S
C993 C988 1.379 . S
C993 N991 1.356 . S
N994 C986 1.356 . S
N994 H1000 0.984 . S
N994 H1001 0.984 . S
N995 C988 1.356 . S
N995 H998 0.984 . S
N995 H999 0.985 . S
H996 N991 0.984 . S
H997 N991 0.985 . S
H998 N995 0.984 . S
H999 N995 0.985 . S
H1000 N994 0.984 . S
H1001 N994 0.984 . S
H1002 N990 0.984 . S
H1003 N990 0.985 . S
C1004 C1005 1.363 . S
C1004 C1010 1.379 . S
C1004 N1012 1.356 1_556 S
C1005 C1004 1.363 . S
C1005 C1011 1.363 . S
C1006 C1007 1.363 . S
C1006 C1011 1.379 . S
C1006 N1013 1.356 . S
C1007 C1006 1.363 . S
C1007 C1010 1.363 . S
N1008 C1010 1.356 . S
N1008 H1020 0.984 . S
N1008 H1021 0.985 . S
N1009 C1011 1.356 . S
N1009 H1014 0.984 . S
N1009 H1015 0.985 . S
C1010 C1004 1.379 . S
C1010 C1007 1.363 . S
C1010 N1008 1.356 . S
C1011 C1005 1.363 . S
C1011 C1006 1.379 . S
C1011 N1009 1.356 . S
N1012 C1004 1.356 1_554 S
N1012 H1018 0.984 . S
N1012 H1019 0.984 . S
N1013 C1006 1.356 . S
N1013 H1016 0.984 . S
N1013 H1017 0.985 . S
H1014 N1009 0.984 . S
H1015 N1009 0.985 . S
H1016 N1013 0.984 . S
H1017 N1013 0.985 . S
H1018 N1012 0.984 . S
H1019 N1012 0.984 . S
H1020 N1008 0.984 . S
H1021 N1008 0.985 . S
C1022 C1023 1.363 . S
C1022 C1028 1.379 . S
C1022 N1030 1.356 . S
C1023 C1022 1.363 . S
C1023 C1029 1.363 . S
C1024 C1025 1.363 . S
C1024 C1029 1.379 . S
C1024 N1031 1.356 . S
C1025 C1024 1.363 . S
C1025 C1028 1.363 . S
N1026 C1028 1.356 . S
N1026 H1038 0.984 . S
N1026 H1039 0.985 . S
N1027 C1029 1.356 . S
N1027 H1032 0.984 . S
N1027 H1033 0.985 . S
C1028 C1022 1.379 . S
C1028 C1025 1.363 . S
C1028 N1026 1.356 . S
C1029 C1023 1.363 . S
C1029 C1024 1.379 . S
C1029 N1027 1.356 . S
N1030 C1022 1.356 . S
N1030 H1036 0.984 . S
N1030 H1037 0.984 . S
N1031 C1024 1.356 . S
N1031 H1034 0.984 . S
N1031 H1035 0.985 . S
H1032 N1027 0.984 . S
H1033 N1027 0.985 . S
H1034 N1031 0.984 . S
H1035 N1031 0.985 . S
H1036 N1030 0.984 . S
H1037 N1030 0.984 . S
H1038 N1026 0.984 . S
H1039 N1026 0.985 . S
C1040 C1041 1.363 . S
C1040 C1046 1.379 . S
C1040 N1048 1.356 . S
C1041 C1040 1.363 . S
C1041 C1047 1.363 . S
C1042 C1043 1.363 . S
C1042 C1047 1.379 . S
C1042 N1049 1.356 . S
C1043 C1042 1.363 . S
C1043 C1046 1.363 . S
N1044 C1046 1.356 . S
N1044 H1056 0.984 . S
N1044 H1057 0.985 . S
N1045 C1047 1.356 . S
N1045 H1050 0.984 . S
N1045 H1051 0.985 . S
C1046 C1040 1.379 . S
C1046 C1043 1.363 . S
C1046 N1044 1.356 . S
C1047 C1041 1.363 . S
C1047 C1042 1.379 . S
C1047 N1045 1.356 . S
N1048 C1040 1.356 . S
N1048 H1054 0.984 . S
N1048 H1055 0.984 . S
N1049 C1042 1.356 . S
N1049 H1052 0.984 . S
N1049 H1053 0.985 . S
H1050 N1045 0.984 . S
H1051 N1045 0.985 . S
H1052 N1049 0.984 . S
H1053 N1049 0.985 . S
H1054 N1048 0.984 . S
H1055 N1048 0.984 . S
H1056 N1044 0.984 . S
H1057 N1044 0.985 . S
C1058 C1059 1.363 . S
C1058 C1064 1.379 . S
C1058 N1066 1.356 . S
C1059 C1058 1.363 . S
C1059 C1065 1.363 . S
C1060 C1061 1.363 . S
C1060 C1065 1.379 . S
C1060 N1067 1.356 . S
C1061 C1060 1.363 . S
C1061 C1064 1.363 . S
N1062 C1064 1.356 . S
N1062 H1074 0.984 . S
N1062 H1075 0.985 . S
N1063 C1065 1.356 1_556 S
N1063 H1068 0.984 . S
N1063 H1069 0.985 . S
C1064 C1058 1.379 . S
C1064 C1061 1.363 . S
C1064 N1062 1.356 . S
C1065 C1059 1.363 . S
C1065 C1060 1.379 . S
C1065 N1063 1.356 1_554 S
N1066 C1058 1.356 . S
N1066 H1072 0.984 . S
N1066 H1073 0.984 . S
N1067 C1060 1.356 . S
N1067 H1070 0.984 . S
N1067 H1071 0.985 . S
H1068 N1063 0.984 . S
H1069 N1063 0.985 . S
H1070 N1067 0.984 . S
H1071 N1067 0.985 . S
H1072 N1066 0.984 . S
H1073 N1066 0.984 . S
H1074 N1062 0.984 . S
H1075 N1062 0.985 . S
C1076 C1077 1.363 . S
C1076 C1082 1.379 . S
C1076 N1084 1.356 . S
C1077 C1076 1.363 . S
C1077 C1083 1.363 . S
C1078 C1079 1.363 . S
C1078 C1083 1.379 . S
C1078 N1085 1.356 . S
C1079 C1078 1.363 . S
C1079 C1082 1.363 . S
N1080 C1082 1.356 . S
N1080 H1092 0.984 . S
N1080 H1093 0.985 . S
N1081 C1083 1.356 . S
N1081 H1086 0.984 . S
N1081 H1087 0.985 . S
C1082 C1076 1.379 . S
C1082 C1079 1.363 . S
C1082 N1080 1.356 . S
C1083 C1077 1.363 . S
C1083 C1078 1.379 . S
C1083 N1081 1.356 . S
N1084 C1076 1.356 . S
N1084 H1090 0.984 . S
N1084 H1091 0.984 . S
N1085 C1078 1.356 . S
N1085 H1088 0.984 . S
N1085 H1089 0.985 . S
H1086 N1081 0.984 . S
H1087 N1081 0.985 . S
H1088 N1085 0.984 . S
H1089 N1085 0.985 . S
H1090 N1084 0.984 . S
H1091 N1084 0.984 . S
H1092 N1080 0.984 . S
H1093 N1080 0.985 . S
C1094 C1095 1.363 . S
C1094 C1100 1.379 . S
C1094 N1102 1.356 . S
C1095 C1094 1.363 . S
C1095 C1101 1.363 . S
C1096 C1097 1.363 . S
C1096 C1101 1.379 . S
C1096 N1103 1.356 . S
C1097 C1096 1.363 . S
C1097 C1100 1.363 . S
N1098 C1100 1.356 . S
N1098 H1110 0.984 . S
N1098 H1111 0.985 . S
N1099 C1101 1.356 . S
N1099 H1104 0.984 . S
N1099 H1105 0.985 . S
C1100 C1094 1.379 . S
C1100 C1097 1.363 . S
C1100 N1098 1.356 . S
C1101 C1095 1.363 . S
C1101 C1096 1.379 . S
C1101 N1099 1.356 . S
N1102 C1094 1.356 . S
N1102 H1108 0.984 . S
N1102 H1109 0.984 . S
N1103 C1096 1.356 . S
N1103 H1106 0.984 . S
N1103 H1107 0.985 . S
H1104 N1099 0.984 . S
H1105 N1099 0.985 . S
H1106 N1103 0.984 . S
H1107 N1103 0.985 . S
H1108 N1102 0.984 . S
H1109 N1102 0.984 . S
H1110 N1098 0.984 . S
H1111 N1098 0.985 . S
C1112 C1113 1.363 . S
C1112 C1118 1.379 . S
C1112 N1120 1.356 . S
C1113 C1112 1.363 . S
C1113 C1119 1.363 . S
C1114 C1115 1.363 . S
C1114 C1119 1.379 . S
C1114 N1121 1.356 . S
C1115 C1114 1.363 . S
C1115 C1118 1.363 . S
N1116 C1118 1.356 . S
N1116 H1128 0.984 . S
N1116 H1129 0.985 . S
N1117 C1119 1.356 . S
N1117 H1122 0.984 . S
N1117 H1123 0.985 . S
C1118 C1112 1.379 . S
C1118 C1115 1.363 . S
C1118 N1116 1.356 . S
C1119 C1113 1.363 . S
C1119 C1114 1.379 . S
C1119 N1117 1.356 . S
N1120 C1112 1.356 . S
N1120 H1126 0.984 . S
N1120 H1127 0.984 . S
N1121 C1114 1.356 . S
N1121 H1124 0.984 . S
N1121 H1125 0.985 . S
H1122 N1117 0.984 . S
H1123 N1117 0.985 . S
H1124 N1121 0.984 . S
H1125 N1121 0.985 . S
H1126 N1120 0.984 . S
H1127 N1120 0.984 . S
H1128 N1116 0.984 . S
H1129 N1116 0.985 . S
C1130 C1131 1.363 . S
C1130 C1136 1.379 . S
C1130 N1138 1.356 . S
C1131 C1130 1.363 . S
C1131 C1137 1.363 . S
C1132 C1133 1.363 . S
C1132 C1137 1.379 . S
C1132 N1139 1.356 . S
C1133 C1132 1.363 . S
C1133 C1136 1.363 . S
N1134 C1136 1.356 . S
N1134 H1146 0.984 . S
N1134 H1147 0.985 . S
N1135 C1137 1.356 . S
N1135 H1140 0.984 . S
N1135 H1141 0.985 . S
C1136 C1130 1.379 . S
C1136 C1133 1.363 . S
C1136 N1134 1.356 . S
C1137 C1131 1.363 . S
C1137 C1132 1.379 . S
C1137 N1135 1.356 . S
N1138 C1130 1.356 . S
N1138 H1144 0.984 . S
N1138 H1145 0.984 . S
N1139 C1132 1.356 . S
N1139 H1142 0.984 . S
N1139 H1143 0.985 . S
H1140 N1135 0.984 . S
H1141 N1135 0.985 . S
H1142 N1139 0.984 . S
H1143 N1139 0.985 . S
H1144 N1138 0.984 . S
H1145 N1138 0.984 . S
H1146 N1134 0.984 . S
H1147 N1134 0.985 . S
C1148 C1149 1.363 . S
C1148 C1154 1.379 . S
C1148 N1156 1.356 . S
C1149 C1148 1.363 . S
C1149 C1155 1.363 . S
C1150 C1151 1.363 . S
C1150 C1155 1.379 . S
C1150 N1157 1.356 . S
C1151 C1150 1.363 . S
C1151 C1154 1.363 . S
N1152 C1154 1.356 . S
N1152 H1164 0.984 . S
N1152 H1165 0.985 . S
N1153 C1155 1.356 . S
N1153 H1158 0.984 . S
N1153 H1159 0.985 . S
C1154 C1148 1.379 . S
C1154 C1151 1.363 . S
C1154 N1152 1.356 . S
C1155 C1149 1.363 . S
C1155 C1150 1.379 . S
C1155 N1153 1.356 . S
N1156 C1148 1.356 . S
N1156 H1162 0.984 . S
N1156 H1163 0.984 . S
N1157 C1150 1.356 . S
N1157 H1160 0.984 . S
N1157 H1161 0.985 . S
H1158 N1153 0.984 . S
H1159 N1153 0.985 . S
H1160 N1157 0.984 . S
H1161 N1157 0.985 . S
H1162 N1156 0.984 . S
H1163 N1156 0.984 . S
H1164 N1152 0.984 . S
H1165 N1152 0.985 . S
C1166 C1167 1.363 . S
C1166 C1172 1.379 . S
C1166 N1174 1.356 . S
C1167 C1166 1.363 . S
C1167 C1173 1.363 . S
C1168 C1169 1.363 . S
C1168 C1173 1.379 . S
C1168 N1175 1.356 . S
C1169 C1168 1.363 . S
C1169 C1172 1.363 . S
N1170 C1172 1.356 . S
N1170 H1182 0.984 . S
N1170 H1183 0.985 . S
N1171 C1173 1.356 . S
N1171 H1176 0.984 . S
N1171 H1177 0.985 . S
C1172 C1166 1.379 . S
C1172 C1169 1.363 . S
C1172 N1170 1.356 . S
C1173 C1167 1.363 . S
C1173 C1168 1.379 . S
C1173 N1171 1.356 . S
N1174 C1166 1.356 . S
N1174 H1180 0.984 . S
N1174 H1181 0.984 . S
N1175 C1168 1.356 . S
N1175 H1178 0.984 . S
N1175 H1179 0.985 . S
H1176 N1171 0.984 . S
H1177 N1171 0.985 . S
H1178 N1175 0.984 . S
H1179 N1175 0.985 . S
H1180 N1174 0.984 . S
H1181 N1174 0.984 . S
H1182 N1170 0.984 . S
H1183 N1170 0.985 . S
C1184 C1185 1.363 . S
C1184 C1190 1.379 . S
C1184 N1192 1.356 . S
C1185 C1184 1.363 . S
C1185 C1191 1.363 . S
C1186 C1187 1.363 . S
C1186 C1191 1.379 . S
C1186 N1193 1.356 . S
C1187 C1186 1.363 . S
C1187 C1190 1.363 . S
N1188 C1190 1.356 . S
N1188 H1200 0.984 . S
N1188 H1201 0.985 . S
N1189 C1191 1.356 . S
N1189 H1194 0.984 . S
N1189 H1195 0.985 . S
C1190 C1184 1.379 . S
C1190 C1187 1.363 . S
C1190 N1188 1.356 . S
C1191 C1185 1.363 . S
C1191 C1186 1.379 . S
C1191 N1189 1.356 . S
N1192 C1184 1.356 . S
N1192 H1198 0.984 . S
N1192 H1199 0.984 . S
N1193 C1186 1.356 . S
N1193 H1196 0.984 . S
N1193 H1197 0.985 . S
H1194 N1189 0.984 . S
H1195 N1189 0.985 . S
H1196 N1193 0.984 . S
H1197 N1193 0.985 . S
H1198 N1192 0.984 . S
H1199 N1192 0.984 . S
H1200 N1188 0.984 . S
H1201 N1188 0.985 . S
C1202 C1203 1.363 . S
C1202 C1208 1.379 . S
C1202 N1210 1.356 . S
C1203 C1202 1.363 . S
C1203 C1209 1.363 . S
C1204 C1205 1.363 . S
C1204 C1209 1.379 . S
C1204 N1211 1.356 . S
C1205 C1204 1.363 . S
C1205 C1208 1.363 . S
N1206 C1208 1.356 . S
N1206 H1218 0.984 . S
N1206 H1219 0.985 . S
N1207 C1209 1.356 . S
N1207 H1212 0.984 . S
N1207 H1213 0.985 . S
C1208 C1202 1.379 . S
C1208 C1205 1.363 . S
C1208 N1206 1.356 . S
C1209 C1203 1.363 . S
C1209 C1204 1.379 . S
C1209 N1207 1.356 . S
N1210 C1202 1.356 . S
N1210 H1216 0.984 . S
N1210 H1217 0.984 . S
N1211 C1204 1.356 . S
N1211 H1214 0.984 . S
N1211 H1215 0.985 . S
H1212 N1207 0.984 . S
H1213 N1207 0.985 . S
H1214 N1211 0.984 . S
H1215 N1211 0.985 . S
H1216 N1210 0.984 . S
H1217 N1210 0.984 . S
H1218 N1206 0.984 . S
H1219 N1206 0.985 . S
C1220 C1221 1.363 . S
C1220 C1226 1.379 . S
C1220 N1228 1.356 . S
C1221 C1220 1.363 . S
C1221 C1227 1.363 . S
C1222 C1223 1.363 . S
C1222 C1227 1.379 . S
C1222 N1229 1.356 . S
C1223 C1222 1.363 . S
C1223 C1226 1.363 . S
N1224 C1226 1.356 . S
N1224 H1236 0.984 . S
N1224 H1237 0.985 . S
N1225 C1227 1.356 . S
N1225 H1230 0.984 . S
N1225 H1231 0.985 . S
C1226 C1220 1.379 . S
C1226 C1223 1.363 . S
C1226 N1224 1.356 . S
C1227 C1221 1.363 . S
C1227 C1222 1.379 . S
C1227 N1225 1.356 . S
N1228 C1220 1.356 . S
N1228 H1234 0.984 . S
N1228 H1235 0.984 . S
N1229 C1222 1.356 . S
N1229 H1232 0.984 . S
N1229 H1233 0.985 . S
H1230 N1225 0.984 . S
H1231 N1225 0.985 . S
H1232 N1229 0.984 . S
H1233 N1229 0.985 . S
H1234 N1228 0.984 . S
H1235 N1228 0.984 . S
H1236 N1224 0.984 . S
H1237 N1224 0.985 . S
C1238 C1239 1.363 . S
C1238 C1244 1.379 . S
C1238 N1246 1.356 . S
C1239 C1238 1.363 . S
C1239 C1245 1.363 . S
C1240 C1241 1.363 . S
C1240 C1245 1.379 . S
C1240 N1247 1.356 . S
C1241 C1240 1.363 . S
C1241 C1244 1.363 . S
N1242 C1244 1.356 . S
N1242 H1254 0.984 . S
N1242 H1255 0.985 . S
N1243 C1245 1.356 . S
N1243 H1248 0.984 . S
N1243 H1249 0.985 . S
C1244 C1238 1.379 . S
C1244 C1241 1.363 . S
C1244 N1242 1.356 . S
C1245 C1239 1.363 . S
C1245 C1240 1.379 . S
C1245 N1243 1.356 . S
N1246 C1238 1.356 . S
N1246 H1252 0.984 . S
N1246 H1253 0.984 . S
N1247 C1240 1.356 . S
N1247 H1250 0.984 . S
N1247 H1251 0.985 . S
H1248 N1243 0.984 . S
H1249 N1243 0.985 . S
H1250 N1247 0.984 . S
H1251 N1247 0.985 . S
H1252 N1246 0.984 . S
H1253 N1246 0.984 . S
H1254 N1242 0.984 . S
H1255 N1242 0.985 . S
C1256 C1257 1.363 . S
C1256 C1262 1.379 . S
C1256 N1264 1.356 . S
C1257 C1256 1.363 . S
C1257 C1263 1.363 . S
C1258 C1259 1.363 . S
C1258 C1263 1.379 . S
C1258 N1265 1.356 . S
C1259 C1258 1.363 . S
C1259 C1262 1.363 . S
N1260 C1262 1.356 . S
N1260 H1272 0.984 . S
N1260 H1273 0.985 . S
N1261 C1263 1.356 . S
N1261 H1266 0.984 . S
N1261 H1267 0.985 . S
C1262 C1256 1.379 . S
C1262 C1259 1.363 . S
C1262 N1260 1.356 . S
C1263 C1257 1.363 . S
C1263 C1258 1.379 . S
C1263 N1261 1.356 . S
N1264 C1256 1.356 . S
N1264 H1270 0.984 . S
N1264 H1271 0.984 . S
N1265 C1258 1.356 . S
N1265 H1268 0.984 . S
N1265 H1269 0.985 . S
H1266 N1261 0.984 . S
H1267 N1261 0.985 . S
H1268 N1265 0.984 . S
H1269 N1265 0.985 . S
H1270 N1264 0.984 . S
H1271 N1264 0.984 . S
H1272 N1260 0.984 . S
H1273 N1260 0.985 . S
C1274 C1275 1.363 . S
C1274 C1280 1.379 . S
C1274 N1282 1.356 . S
C1275 C1274 1.363 . S
C1275 C1281 1.363 . S
C1276 C1277 1.363 . S
C1276 C1281 1.379 . S
C1276 N1283 1.356 . S
C1277 C1276 1.363 . S
C1277 C1280 1.363 . S
N1278 C1280 1.356 . S
N1278 H1290 0.984 . S
N1278 H1291 0.985 . S
N1279 C1281 1.356 . S
N1279 H1284 0.984 . S
N1279 H1285 0.985 . S
C1280 C1274 1.379 . S
C1280 C1277 1.363 . S
C1280 N1278 1.356 . S
C1281 C1275 1.363 . S
C1281 C1276 1.379 . S
C1281 N1279 1.356 . S
N1282 C1274 1.356 . S
N1282 H1288 0.984 . S
N1282 H1289 0.984 . S
N1283 C1276 1.356 . S
N1283 H1286 0.984 . S
N1283 H1287 0.985 . S
H1284 N1279 0.984 . S
H1285 N1279 0.985 . S
H1286 N1283 0.984 . S
H1287 N1283 0.985 . S
H1288 N1282 0.984 . S
H1289 N1282 0.984 . S
H1290 N1278 0.984 . S
H1291 N1278 0.985 . S
C1292 C1293 1.363 . S
C1292 C1298 1.379 . S
C1292 N1300 1.356 . S
C1293 C1292 1.363 . S
C1293 C1299 1.363 . S
C1294 C1295 1.363 . S
C1294 C1299 1.379 . S
C1294 N1301 1.356 . S
C1295 C1294 1.363 . S
C1295 C1298 1.363 . S
N1296 C1298 1.356 . S
N1296 H1308 0.984 . S
N1296 H1309 0.985 . S
N1297 C1299 1.356 . S
N1297 H1302 0.984 . S
N1297 H1303 0.985 . S
C1298 C1292 1.379 . S
C1298 C1295 1.363 . S
C1298 N1296 1.356 . S
C1299 C1293 1.363 . S
C1299 C1294 1.379 . S
C1299 N1297 1.356 . S
N1300 C1292 1.356 . S
N1300 H1306 0.984 . S
N1300 H1307 0.984 . S
N1301 C1294 1.356 . S
N1301 H1304 0.984 . S
N1301 H1305 0.985 . S
H1302 N1297 0.984 . S
H1303 N1297 0.985 . S
H1304 N1301 0.984 . S
H1305 N1301 0.985 . S
H1306 N1300 0.984 . S
H1307 N1300 0.984 . S
H1308 N1296 0.984 . S
H1309 N1296 0.985 . S
C1310 C1311 1.363 . S
C1310 C1316 1.379 . S
C1310 N1318 1.356 . S
C1311 C1310 1.363 . S
C1311 C1317 1.363 . S
C1312 C1313 1.363 . S
C1312 C1317 1.379 . S
C1312 N1319 1.356 . S
C1313 C1312 1.363 . S
C1313 C1316 1.363 . S
N1314 C1316 1.356 . S
N1314 H1326 0.984 . S
N1314 H1327 0.985 . S
N1315 C1317 1.356 . S
N1315 H1320 0.984 . S
N1315 H1321 0.985 . S
C1316 C1310 1.379 . S
C1316 C1313 1.363 . S
C1316 N1314 1.356 . S
C1317 C1311 1.363 . S
C1317 C1312 1.379 . S
C1317 N1315 1.356 . S
N1318 C1310 1.356 . S
N1318 H1324 0.984 . S
N1318 H1325 0.984 . S
N1319 C1312 1.356 . S
N1319 H1322 0.984 . S
N1319 H1323 0.985 . S
H1320 N1315 0.984 . S
H1321 N1315 0.985 . S
H1322 N1319 0.984 . S
H1323 N1319 0.985 . S
H1324 N1318 0.984 . S
H1325 N1318 0.984 . S
H1326 N1314 0.984 . S
H1327 N1314 0.985 . S
C1328 C1329 1.363 . S
C1328 C1334 1.379 . S
C1328 N1336 1.356 . S
C1329 C1328 1.363 . S
C1329 C1335 1.363 . S
C1330 C1331 1.363 . S
C1330 C1335 1.379 . S
C1330 N1337 1.356 . S
C1331 C1330 1.363 . S
C1331 C1334 1.363 . S
N1332 C1334 1.356 . S
N1332 H1344 0.984 . S
N1332 H1345 0.985 . S
N1333 C1335 1.356 . S
N1333 H1338 0.984 . S
N1333 H1339 0.985 . S
C1334 C1328 1.379 . S
C1334 C1331 1.363 . S
C1334 N1332 1.356 . S
C1335 C1329 1.363 . S
C1335 C1330 1.379 . S
C1335 N1333 1.356 . S
N1336 C1328 1.356 . S
N1336 H1342 0.984 . S
N1336 H1343 0.984 . S
N1337 C1330 1.356 . S
N1337 H1340 0.984 . S
N1337 H1341 0.985 . S
H1338 N1333 0.984 . S
H1339 N1333 0.985 . S
H1340 N1337 0.984 . S
H1341 N1337 0.985 . S
H1342 N1336 0.984 . S
H1343 N1336 0.984 . S
H1344 N1332 0.984 . S
H1345 N1332 0.985 . S
C1346 C1347 1.363 . S
C1346 C1352 1.379 . S
C1346 N1354 1.356 . S
C1347 C1346 1.363 . S
C1347 C1353 1.363 . S
C1348 C1349 1.363 . S
C1348 C1353 1.379 . S
C1348 N1355 1.356 . S
C1349 C1348 1.363 . S
C1349 C1352 1.363 . S
N1350 C1352 1.356 . S
N1350 H1362 0.984 . S
N1350 H1363 0.985 . S
N1351 C1353 1.356 . S
N1351 H1356 0.984 . S
N1351 H1357 0.985 . S
C1352 C1346 1.379 . S
C1352 C1349 1.363 . S
C1352 N1350 1.356 . S
C1353 C1347 1.363 . S
C1353 C1348 1.379 . S
C1353 N1351 1.356 . S
N1354 C1346 1.356 . S
N1354 H1360 0.984 . S
N1354 H1361 0.984 . S
N1355 C1348 1.356 . S
N1355 H1358 0.984 . S
N1355 H1359 0.985 . S
H1356 N1351 0.984 . S
H1357 N1351 0.985 . S
H1358 N1355 0.984 . S
H1359 N1355 0.985 . S
H1360 N1354 0.984 . S
H1361 N1354 0.984 . S
H1362 N1350 0.984 . S
H1363 N1350 0.985 . S
C1364 C1365 1.363 . S
C1364 C1370 1.379 . S
C1364 N1372 1.356 . S
C1365 C1364 1.363 . S
C1365 C1371 1.363 . S
C1366 C1367 1.363 . S
C1366 C1371 1.379 . S
C1366 N1373 1.356 . S
C1367 C1366 1.363 . S
C1367 C1370 1.363 . S
N1368 C1370 1.356 . S
N1368 H1380 0.984 . S
N1368 H1381 0.985 . S
N1369 C1371 1.356 . S
N1369 H1374 0.984 . S
N1369 H1375 0.985 . S
C1370 C1364 1.379 . S
C1370 C1367 1.363 . S
C1370 N1368 1.356 . S
C1371 C1365 1.363 . S
C1371 C1366 1.379 . S
C1371 N1369 1.356 . S
N1372 C1364 1.356 . S
N1372 H1378 0.984 . S
N1372 H1379 0.984 . S
N1373 C1366 1.356 . S
N1373 H1376 0.984 . S
N1373 H1377 0.985 . S
H1374 N1369 0.984 . S
H1375 N1369 0.985 . S
H1376 N1373 0.984 . S
H1377 N1373 0.985 . S
H1378 N1372 0.984 . S
H1379 N1372 0.984 . S
H1380 N1368 0.984 . S
H1381 N1368 0.985 . S
C521 C347 1.542 . S
C519 C2 1.778 . S
C539 C348 1.549 . S
C537 C48 1.572 . S
C557 C342 1.562 . S
C555 C97 1.605 . S
C573 C149 0.873 . S
C575 C341 0.752 . S
C591 C189 1.573 . S
C593 C344 1.549 . S
C611 C346 1.562 . S
C609 C202 1.605 . S
C627 C248 0.873 . S
C629 C345 0.752 . S
C645 C297 1.778 . S
C647 C343 1.542 . S
C665 C378 2.881 . S
C663 C31 2.854 . S
C681 C52 1.777 . S
C683 C409 1.676 . S
C701 C377 1.294 . S
C699 C88 1.315 . S
C719 C412 1.252 . S
C717 C122 1.220 . S
C735 C162 1.582 . S
C737 C375 1.569 . S
C755 C407 2.858 . S
C753 C231 2.860 . S
C771 C252 1.532 . S
C773 C380 1.441 . S
C789 C288 1.348 . S
C791 C414 1.290 . S
C807 C29 1.348 . S
C809 C410 1.289 . S
C825 C191 1.777 . S
C827 C413 1.677 . S
C845 C381 1.294 . S
C843 C229 1.317 . S
C863 C408 1.252 . S
C861 C257 1.222 . S
C879 C292 2.854 . S
C881 C374 2.882 . S
C897 C92 2.860 . S
C899 C411 2.858 . S
C917 C376 1.441 . S
C915 C151 1.531 . S
C933 C57 1.582 . S
C935 C379 1.567 . S
C951 C282 1.794 . S
C953 C446 1.600 . S
C969 C168 1.396 . S
C971 C447 1.343 . S
C989 C441 1.340 . S
C987 C217 1.378 . S
C1007 C440 0.704 . S
C1005 C269 0.742 . S
C1023 C69 1.396 . S
C1025 C443 1.341 . S
C1043 C445 1.340 . S
C1041 C82 1.376 . S
C1059 C128 0.741 . S
C1061 C444 0.704 . S
C1077 C17 1.794 . S
C1079 C442 1.599 . S
C1095 C311 3.017 . S
C1097 C480 2.947 . S
C1115 C512 1.519 . S
C1113 C172 1.570 . S
C1131 C208 1.147 . S
C1133 C473 1.136 . S
C1149 C242 1.542 . S
C1151 C507 1.517 . S
C1169 C478 1.220 . S
C1167 C42 1.249 . S
C1185 C111 3.033 . S
C1187 C509 2.990 . S
C1205 C475 1.910 . S
C1203 C132 1.912 . S
C1223 C510 1.416 . S
C1221 C8 1.379 . S
C1241 C506 1.416 . S
C1239 C309 1.379 . S
C1257 C71 1.571 . S
C1259 C508 1.519 . S
C1275 C109 1.147 . S
C1277 C477 1.136 . S
C1295 C511 1.517 . S
C1293 C137 1.542 . S
C1311 C12 3.017 . S
C1313 C476 2.947 . S
C1329 C212 3.033 . S
C1331 C513 2.990 . S
C1349 C479 1.910 . S
C1347 C271 1.912 . S
C1367 C474 1.219 . S
C1365 C177 1.249 . S
