# Generated by pormake.
# Topology scu, (8,4)-cn, num edge types: 1
# Building blocks:
#     Node 0, Type 0, BuildingBlock: GIZVER_clean_sbu_0, # of connection points: 8
#     Node 1, Type 1, BuildingBlock: MUDLON_clean_sbu_0, # of connection points: 4
#     Node 2, Type 1, BuildingBlock: MUDLON_clean_sbu_0, # of connection points: 4
#     Edge 3, Type (0, 1), BuildingBlock: FUNLAD_clean_linker_1, # of connection points: 2
#     Edge 4, Type (0, 1), BuildingBlock: FUNLAD_clean_linker_1, # of connection points: 2
#     Edge 5, Type (0, 1), BuildingBlock: FUNLAD_clean_linker_1, # of connection points: 2
#     Edge 6, Type (0, 1), BuildingBlock: FUNLAD_clean_linker_1, # of connection points: 2
#     Edge 7, Type (0, 1), BuildingBlock: FUNLAD_clean_linker_1, # of connection points: 2
#     Edge 8, Type (0, 1), BuildingBlock: FUNLAD_clean_linker_1, # of connection points: 2
#     Edge 9, Type (0, 1), BuildingBlock: FUNLAD_clean_linker_1, # of connection points: 2
#     Edge 10, Type (0, 1), BuildingBlock: FUNLAD_clean_linker_1, # of connection points: 2
# Relax obj value: 0.010
# Max RMSD: 0.074
# Mean RMSD: 0.042
data_MOF--net-scu--node1-GIZVER_clean_sbu_0--node2-MUDLON_clean_sbu_0--edge1-FUNLAD_clean_linker_1
_symmetry_space_group_name_H-M    P1
_symmetry_Int_Tables_number       1
_symmetry_cell_setting            triclinic
loop_
_symmetry_equiv_pos_as_xyz
'x, y, z'
_cell_length_a     24.39567
_cell_length_b     24.686724
_cell_length_c     23.732058
_cell_angle_alpha  99.339346
_cell_angle_beta   81.699578
_cell_angle_gamma 116.32574
loop_
_atom_site_label
_atom_site_type_symbol
_atom_site_fract_x
_atom_site_fract_y
_atom_site_fract_z
_atom_type_partial_charge
Co0 Co 0.04855 0.97793 0.1543 0.0
Co1 Co 0.12986 0.08148 0.13312 0.0
Co2 Co 0.02593 0.04274 0.04498 0.0
O3 O 0.07683 1.01933 0.0861 0.0
H4 H 0.09977 1.0018 0.05903 0.0
O5 O 0.97609 0.06722 1.00397 0.0
Co6 Co 0.99934 0.08468 0.92609 0.0
Co7 Co 0.90736 1.00131 0.97871 0.0
H8 H 0.96384 0.09658 0.02724 0.0
O9 O 0.20539 0.08495 0.13769 0.0
O10 O 0.11846 0.04223 0.19567 0.0
O11 O 0.11345 0.15073 0.15547 0.0
O12 O 0.04941 0.12711 0.08781 0.0
O13 O 0.09717 0.0742 0.98645 0.0
O14 O 0.01849 0.10578 0.85536 0.0
O15 O 0.9673 0.13903 0.92877 0.0
O16 O 0.03938 0.03309 0.91351 0.0
O17 O 1.00041 0.95819 1.00091 0.0
O18 O 0.90295 0.92273 0.98145 0.0
O19 O 0.92131 1.0162 0.90262 0.0
O20 O 0.83932 1.00901 0.96464 0.0
C21 C 0.06295 0.91262 0.18604 0.0
C22 C 0.9573 1.02275 0.15705 0.0
C23 C 0.07837 0.16228 0.12994 0.0
C24 C 0.17699 0.05745 0.18274 0.0
C25 C 0.9922 0.14124 0.87606 0.0
C26 C 0.09155 0.05506 0.93338 0.0
C27 C 0.95071 0.915 0.9829 0.0
C28 C 0.86665 1.01436 0.91325 0.0
O29 O 0.02636 0.93492 0.21445 0.0
O30 O 0.0902 0.93147 0.13675 0.0
O31 O 0.95458 1.01171 0.10291 0.0
O32 O 0.99959 1.02095 0.18153 0.0
Mg33 Mg 1.00153 0.53536 0.54831 0.0
C34 C 0.00387 0.43176 0.46798 0.0
O35 O 0.04502 0.44234 0.50331 0.0
C36 C 0.96428 0.59831 0.64567 0.0
O37 O 0.02397 0.61685 0.64383 0.0
C38 C 1.00035 0.4554 0.62713 0.0
O39 O 0.94656 0.42804 0.60584 0.0
O40 O 0.03923 0.50578 0.60966 0.0
O41 O 0.97285 0.46285 0.47679 0.0
O42 O 0.05564 0.62002 0.50922 0.0
C43 C 0.06961 0.62035 0.4554 0.0
O44 O 0.0612 0.56901 0.42346 0.0
O45 O 0.93515 0.5585 0.60613 0.0
Mg46 Mg 0.52975 0.05193 0.54833 0.0
C47 C 0.44368 0.04064 0.4698 0.0
O48 O 0.47776 0.09942 0.47984 0.0
C49 C 0.59528 0.03086 0.62435 0.0
O50 O 0.62178 0.08916 0.61805 0.0
C51 C 0.45113 0.0723 0.64287 0.0
O52 O 0.42916 1.01318 0.62878 0.0
O53 O 0.49866 0.10666 0.61411 0.0
O54 O 0.45552 1.00442 0.49275 0.0
O55 O 0.61815 0.09788 0.50097 0.0
C56 C 0.62581 0.08924 0.44677 0.0
O57 O 0.57769 0.05907 0.417 0.0
O58 O 0.54834 0.99641 0.59743 0.0
H59 H 0.04685 0.2329 0.12534 0.0
C60 C 0.06475 0.21464 0.15308 0.0
H61 H 0.0833 0.21528 0.23726 0.0
H62 H 0.10708 0.46615 0.35282 0.0
H63 H 0.21514 0.48866 0.33261 0.0
H64 H 0.24745 0.4173 0.26778 0.0
H65 H 0.17196 0.32327 0.22249 0.0
C66 C 0.06637 0.23426 0.20931 0.0
C67 C 0.04734 0.28269 0.23652 0.0
C68 C 0.09194 0.33758 0.2621 0.0
C69 C 0.07336 0.37832 0.29989 0.0
C70 C 0.11887 0.43299 0.3248 0.0
C71 C 0.18096 0.44662 0.31325 0.0
C72 C 0.19914 0.40646 0.27673 0.0
C73 C 0.15537 0.35255 0.25126 0.0
H74 H 0.01784 0.35542 0.41921 0.0
C75 C 1.00055 0.38859 0.4165 0.0
H76 H 0.9762 0.43065 0.35951 0.0
H77 H 0.94927 0.18455 0.18983 0.0
H78 H 0.84269 0.16711 0.2049 0.0
H79 H 0.81163 0.24008 0.26835 0.0
H80 H 0.88757 0.33094 0.31803 0.0
C81 C 0.99067 0.39612 0.36466 0.0
C82 C 0.01011 0.3635 0.313 0.0
C83 C 0.96608 0.3127 0.28208 0.0
C84 C 0.98445 0.2715 0.24426 0.0
C85 C 0.93863 0.21858 0.21734 0.0
C86 C 0.87708 0.20785 0.22583 0.0
C87 C 0.85956 0.24888 0.26168 0.0
C88 C 0.90335 0.30061 0.28997 0.0
H89 H 0.87514 0.04012 0.16854 0.0
C90 C 0.90855 0.03629 0.19149 0.0
H91 H 0.93636 0.03994 0.27286 0.0
H92 H 0.79404 0.19261 0.40047 0.0
H93 H 0.89914 0.25891 0.42067 0.0
H94 H 0.98368 0.23291 0.37698 0.0
H95 H 0.96347 0.14034 0.31282 0.0
C96 C 0.90274 0.04234 0.24913 0.0
C97 C 0.85108 0.05386 0.28171 0.0
C98 C 0.86354 0.10769 0.32 0.0
C99 C 0.81454 0.12205 0.34629 0.0
C100 C 0.82887 0.1778 0.3817 0.0
C101 C 0.8892 0.21669 0.39319 0.0
C102 C 0.93679 0.20207 0.36855 0.0
C103 C 0.92449 0.14866 0.33184 0.0
H104 H 0.72053 0.10106 0.44796 0.0
C105 C 0.68736 0.09824 0.42022 0.0
H106 H 0.66641 0.09082 0.33574 0.0
H107 H 0.81019 0.9398 0.22248 0.0
H108 H 0.70483 0.8698 0.20742 0.0
H109 H 0.61992 0.89523 0.25089 0.0
H110 H 0.63987 0.99033 0.30996 0.0
C111 C 0.70022 0.09444 0.36314 0.0
C112 C 0.75288 0.08143 0.33572 0.0
C113 C 0.74036 0.02592 0.29987 0.0
C114 C 0.78935 1.01176 0.27362 0.0
C115 C 0.77513 0.95439 0.24102 0.0
C116 C 0.71467 0.91327 0.23264 0.0
C117 C 0.6669 0.92754 0.25719 0.0
C118 C 0.67921 0.98277 0.29079 0.0
H119 H 0.10393 0.84817 0.18427 0.0
C120 C 0.07559 0.86803 0.2104 0.0
H121 H 0.02772 0.87384 0.29102 0.0
H122 H 0.03096 0.60699 0.29186 0.0
H123 H 0.96781 0.57295 0.2123 0.0
H124 H 0.9488 0.64546 0.16709 0.0
H125 H 0.99271 0.75252 0.20156 0.0
C126 C 0.05401 0.85235 0.26383 0.0
C127 C 0.06772 0.80841 0.28925 0.0
C128 C 0.04263 0.74581 0.26794 0.0
C129 C 0.05364 0.70389 0.29424 0.0
C130 C 0.02555 0.64132 0.27332 0.0
C131 C 0.98869 0.6209 0.22766 0.0
C132 C 0.97802 0.66171 0.20218 0.0
C133 C 0.0041 0.7233 0.22215 0.0
H134 H 0.06748 0.70845 0.45423 0.0
C135 C 0.08002 0.67447 0.42832 0.0
H136 H 0.10892 0.64466 0.34643 0.0
H137 H 0.11607 0.92312 0.34598 0.0
H138 H 0.18185 0.95811 0.42437 0.0
H139 H 0.21362 0.88893 0.45996 0.0
H140 H 0.17515 0.78273 0.42113 0.0
C141 C 0.09692 0.67913 0.37198 0.0
C142 C 0.0905 0.72461 0.34154 0.0
C143 C 0.11779 0.78768 0.36102 0.0
C144 C 0.10386 0.8289 0.33685 0.0
C145 C 0.12701 0.89036 0.36112 0.0
C146 C 0.16505 0.91115 0.40594 0.0
C147 C 0.18248 0.87203 0.42638 0.0
C148 C 0.15949 0.81104 0.40418 0.0
H149 H 0.26244 0.06365 0.20907 0.0
C150 C 0.21356 0.04821 0.22116 0.0
H151 H 0.14171 1.01049 0.28486 0.0
H152 H 0.38405 0.9653 0.32928 0.0
H153 H 0.355 0.88913 0.24714 0.0
H154 H 0.26785 0.87203 0.19405 0.0
H155 H 0.21023 0.93235 0.22227 0.0
C156 C 0.18996 0.02427 0.27083 0.0
C157 C 0.23147 1.02335 0.31039 0.0
C158 C 0.26334 0.98643 0.29472 0.0
C159 C 0.31174 0.99445 0.32698 0.0
C160 C 0.3453 0.95963 0.308 0.0
C161 C 0.32931 0.91588 0.26059 0.0
C162 C 0.28039 0.90639 0.23057 0.0
C163 C 0.2479 0.94143 0.24701 0.0
H164 H 0.35679 0.97076 0.43576 0.0
C165 C 0.39055 1.01783 0.4353 0.0
H166 H 0.41605 0.10257 0.40612 0.0
H167 H 0.17208 0.0938 0.35714 0.0
H168 H 0.19255 0.16148 0.44574 0.0
H169 H 0.27341 0.17238 0.5042 0.0
H170 H 0.33464 0.11604 0.47414 0.0
C171 C 0.38276 0.0552 0.40522 0.0
C172 C 0.32628 0.03784 0.3762 0.0
C173 C 0.29002 0.07015 0.395 0.0
C174 C 0.24274 0.06312 0.36189 0.0
C175 C 0.20834 0.09715 0.38087 0.0
C176 C 0.21954 0.13611 0.43169 0.0
C177 C 0.26512 0.14231 0.46456 0.0
C178 C 0.30014 0.10993 0.44663 0.0
H179 H 0.99661 0.85612 0.94567 0.0
C180 C 0.95278 0.85873 0.95188 0.0
H181 H 0.86206 0.82007 0.92741 0.0
H182 H 0.93497 0.72927 0.67716 0.0
H183 H 0.90952 0.80934 0.66079 0.0
H184 H 0.88554 0.8738 0.74183 0.0
H185 H 0.88732 0.85879 0.83963 0.0
C186 C 0.90537 0.81657 0.92298 0.0
C187 C 0.91427 0.7734 0.87493 0.0
C188 C 0.91114 0.78154 0.81776 0.0
C189 C 0.92438 0.74392 0.77093 0.0
C190 C 0.92408 0.75537 0.7144 0.0
C191 C 0.90978 0.80149 0.70431 0.0
C192 C 0.89628 0.83778 0.74991 0.0
C193 C 0.89724 0.82842 0.80598 0.0
H194 H 0.88462 0.61219 0.69226 0.0
C195 C 0.93336 0.62508 0.69232 0.0
H196 H 0.01422 0.67753 0.73468 0.0
H197 H 0.91606 0.74058 0.97899 0.0
H198 H 0.93919 0.6587 0.99573 0.0
H199 H 0.9623 0.59353 0.91473 0.0
H200 H 0.96216 0.60963 0.81647 0.0
C201 C 0.96595 0.6664 0.73378 0.0
C202 C 0.93982 0.69757 0.78141 0.0
C203 C 0.93981 0.68756 0.83865 0.0
C204 C 0.92689 0.72536 0.88542 0.0
C205 C 0.92666 0.71387 0.94199 0.0
C206 C 0.93955 0.66685 0.95217 0.0
C207 C 0.95256 0.63016 0.90656 0.0
C208 C 0.95264 0.64008 0.8504 0.0
H209 H 0.13608 0.03653 0.85014 0.0
C210 C 0.14505 0.05974 0.89319 0.0
H211 H 0.21359 0.11635 0.94904 0.0
H212 H 0.40701 0.0307 0.80141 0.0
H213 H 0.40048 0.99689 0.89376 0.0
H214 H 0.32731 1.00828 0.97277 0.0
H215 H 0.26053 0.05387 0.96011 0.0
C216 C 0.20341 0.0932 0.9062 0.0
C217 C 0.25498 0.09647 0.8625 0.0
C218 C 0.29417 0.07055 0.871 0.0
C219 C 0.33569 0.06316 0.82519 0.0
C220 C 0.37394 0.03648 0.83454 0.0
C221 C 0.37083 1.01711 0.88736 0.0
C222 C 0.32968 0.02359 0.93187 0.0
C223 C 0.29159 0.04983 0.92401 0.0
H224 H 0.43983 0.14625 0.7032 0.0
C225 C 0.4208 0.09738 0.69138 0.0
H226 H 0.35224 1.01115 0.70981 0.0
H227 H 0.19856 0.16277 0.83742 0.0
H228 H 0.20567 0.19781 0.74556 0.0
H229 H 0.27167 0.17811 0.66367 0.0
H230 H 0.33193 0.12474 0.67344 0.0
C231 C 0.36995 0.06011 0.72059 0.0
C232 C 0.33767 0.08134 0.77093 0.0
C233 C 0.30191 0.11166 0.7638 0.0
C234 C 0.26162 0.12052 0.81018 0.0
C235 C 0.22794 0.15274 0.80281 0.0
C236 C 0.23192 0.17343 0.75048 0.0
C237 C 0.26923 0.16251 0.70445 0.0
C238 C 0.30381 0.13192 0.71073 0.0
H239 H 1.00343 0.17436 0.79277 0.0
C240 C 0.99098 0.18249 0.83817 0.0
H241 H 0.96677 0.24008 0.9021 0.0
H242 H 0.09439 0.38497 0.66561 0.0
H243 H 0.18786 0.38299 0.68569 0.0
H244 H 0.18948 0.33383 0.76761 0.0
H245 H 0.09689 0.2848 0.82891 0.0
C246 C 0.97967 0.23117 0.857 0.0
C247 C 0.98207 0.27233 0.81587 0.0
C248 C 0.03755 0.30484 0.78296 0.0
C249 C 0.03754 0.33688 0.73807 0.0
C250 C 0.0923 0.36332 0.70241 0.0
C251 C 0.14632 0.36198 0.7131 0.0
C252 C 0.14718 0.33405 0.75904 0.0
C253 C 0.09358 0.30568 0.79363 0.0
H254 H 0.04941 0.4575 0.69998 0.0
C255 C 0.01342 0.42848 0.67203 0.0
H256 H 0.94377 0.34122 0.65108 0.0
H257 H 0.86876 0.21802 0.87282 0.0
H258 H 0.77682 0.22651 0.85809 0.0
H259 H 0.77808 0.28817 0.78559 0.0
H260 H 0.87139 0.34191 0.72729 0.0
C261 C 0.97962 0.36926 0.67954 0.0
C262 C 0.9829 0.34027 0.72892 0.0
C263 C 0.9284 0.311 0.76451 0.0
C264 C 0.92784 0.27646 0.80738 0.0
C265 C 0.87208 0.24564 0.84032 0.0
C266 C 0.81881 0.24992 0.83222 0.0
C267 C 0.81956 0.28468 0.7914 0.0
C268 C 0.8735 0.31504 0.75796 0.0
H269 H 0.86215 0.03288 0.82663 0.0
C270 C 0.83507 1.01657 0.86606 0.0
H271 H 0.74692 0.98219 0.91006 0.0
H272 H 0.63577 0.10293 0.77412 0.0
H273 H 0.6319 0.15253 0.87058 0.0
H274 H 0.67988 0.13646 0.9471 0.0
H275 H 0.73139 0.07034 0.9278 0.0
C276 C 0.77411 0.99841 0.87066 0.0
C277 C 0.7429 1.00531 0.8249 0.0
C278 C 0.71358 0.04474 0.83704 0.0
C279 C 0.68711 0.05502 0.79276 0.0
C280 C 0.65751 0.09419 0.80601 0.0
C281 C 0.65473 0.1228 0.86125 0.0
C282 C 0.68165 0.11367 0.90434 0.0
C283 C 0.71101 0.07541 0.89261 0.0
H284 H 0.59221 0.96093 0.6744 0.0
C285 C 0.61839 1.00747 0.66423 0.0
H286 H 0.69551 0.09125 0.68048 0.0
H287 H 0.78518 0.91806 0.78984 0.0
H288 H 0.78972 0.86917 0.69314 0.0
H289 H 0.75062 0.89299 0.61468 0.0
H290 H 0.70561 0.96489 0.63275 0.0
C291 C 0.67013 0.04426 0.6896 0.0
C292 C 0.69073 0.02652 0.7364 0.0
C293 C 0.71825 0.98556 0.72456 0.0
C294 C 0.74323 0.9739 0.76925 0.0
C295 C 0.76793 0.93064 0.75702 0.0
C296 C 0.77038 0.90186 0.70176 0.0
C297 C 0.74819 0.91513 0.65763 0.0
C298 C 0.72233 0.95641 0.66863 0.0
loop_
_geom_bond_atom_site_label_1
_geom_bond_atom_site_label_2
_geom_bond_distance
_geom_bond_site_symmetry_2
_ccdc_geom_bond_type
Co0 O3 2.041 1_565 S
Co0 O10 2.264 1_565 S
Co0 O29 2.286 1_455 S
Co0 O30 2.069 . S
Co0 O32 2.015 1_455 S
Co1 O3 2.124 . S
Co1 O9 2.073 . S
Co1 O10 2.327 . S
Co1 O11 1.976 . S
Co2 O3 2.089 . S
Co2 O5 2.087 1_454 S
Co2 O12 2.111 . S
Co2 O13 2.143 1_554 S
Co2 O17 2.111 1_444 S
Co2 O31 2.143 1_445 S
O3 Co0 2.041 1_545 S
O3 Co1 2.124 . S
O3 Co2 2.089 . S
O3 H4 0.977 1_545 S
H4 O3 0.977 1_565 S
O5 Co2 2.087 1_656 S
O5 Co6 2.042 1_655 S
O5 Co7 2.122 1_545 S
O5 H8 0.980 . S
Co6 O5 2.042 1_455 S
Co6 O14 2.286 . S
Co6 O15 2.069 1_455 S
Co6 O16 2.015 . S
Co6 O19 2.264 1_455 S
Co7 O5 2.122 1_565 S
Co7 O18 1.976 . S
Co7 O19 2.327 1_565 S
Co7 O20 2.073 . S
H8 O5 0.980 . S
O9 Co1 2.073 . S
O9 C24 1.245 . S
O10 Co0 2.264 1_545 S
O10 Co1 2.327 . S
O10 C24 1.257 . S
O11 Co1 1.976 . S
O11 C23 1.251 . S
O12 Co2 2.111 . S
O12 C23 1.274 . S
O13 Co2 2.143 1_556 S
O13 C26 1.246 . S
O14 Co6 2.286 . S
O14 C25 1.259 . S
O15 Co6 2.069 1_655 S
O15 C25 1.289 1_655 S
O16 Co6 2.015 . S
O16 C26 1.257 . S
O17 Co2 2.111 1_666 S
O17 C27 1.274 . S
O18 Co7 1.976 . S
O18 C27 1.251 . S
O19 Co6 2.264 1_655 S
O19 Co7 2.327 1_545 S
O19 C28 1.257 . S
O20 Co7 2.073 . S
O20 C28 1.245 1_565 S
C21 O29 1.259 1_455 S
C21 O30 1.289 . S
C22 O31 1.246 . S
C22 O32 1.257 . S
C23 O11 1.251 . S
C23 O12 1.274 . S
C24 O9 1.245 . S
C24 O10 1.257 . S
C25 O14 1.259 . S
C25 O15 1.289 1_455 S
C26 O13 1.246 . S
C26 O16 1.257 . S
C27 O17 1.274 . S
C27 O18 1.251 . S
C28 O19 1.257 . S
C28 O20 1.245 1_545 S
O29 Co0 2.286 1_655 S
O29 C21 1.259 1_655 S
O30 Co0 2.069 . S
O30 C21 1.289 . S
O31 Co2 2.143 1_665 S
O31 C22 1.246 . S
O32 Co0 2.015 1_655 S
O32 C22 1.257 . S
Mg33 O40 2.141 . S
Mg33 O41 2.048 . S
Mg33 O42 2.048 . S
Mg33 O45 2.141 . S
C34 O35 1.313 . S
C34 O41 1.195 1_455 S
O35 C34 1.313 . S
C36 O37 1.245 . S
C36 O45 1.289 1_455 S
O37 C36 1.245 . S
C38 O39 1.245 . S
C38 O40 1.289 1_455 S
O39 C38 1.245 . S
O40 Mg33 2.141 . S
O40 C38 1.289 1_655 S
O41 Mg33 2.048 . S
O41 C34 1.195 1_655 S
O42 Mg33 2.048 . S
O42 C43 1.195 1_655 S
C43 O42 1.195 1_455 S
C43 O44 1.313 . S
O44 C43 1.313 . S
O45 Mg33 2.141 . S
O45 C36 1.289 1_655 S
Mg46 O53 2.141 . S
Mg46 O54 2.048 . S
Mg46 O55 2.048 . S
Mg46 O58 2.141 . S
C47 O48 1.313 1_545 S
C47 O54 1.195 . S
O48 C47 1.313 1_565 S
C49 O50 1.245 1_545 S
C49 O58 1.289 . S
O50 C49 1.245 1_565 S
C51 O52 1.245 1_545 S
C51 O53 1.289 . S
O52 C51 1.245 1_565 S
O53 Mg46 2.141 . S
O53 C51 1.289 . S
O54 Mg46 2.048 . S
O54 C47 1.195 . S
O55 Mg46 2.048 . S
O55 C56 1.195 . S
C56 O55 1.195 . S
C56 O57 1.313 1_545 S
O57 C56 1.313 1_565 S
O58 Mg46 2.141 . S
O58 C49 1.289 . S
H59 C60 0.951 1_655 S
C60 H59 0.951 1_455 S
C60 C66 1.265 . S
H61 C66 0.950 . S
H62 C70 0.949 . S
H63 C71 0.950 . S
H64 C72 0.951 . S
H65 C73 0.951 . S
C66 C60 1.265 . S
C66 H61 0.950 . S
C66 C67 1.478 . S
C67 C66 1.478 . S
C67 C68 1.397 . S
C67 C84 1.394 1_455 S
C68 C67 1.397 . S
C68 C69 1.438 . S
C68 C73 1.429 . S
C69 C68 1.438 . S
C69 C70 1.428 . S
C69 C82 1.394 . S
C70 H62 0.949 . S
C70 C69 1.428 . S
C70 C71 1.345 . S
C71 H63 0.950 . S
C71 C70 1.345 . S
C71 C72 1.424 . S
C72 H64 0.951 . S
C72 C71 1.424 . S
C72 C73 1.347 . S
C73 H65 0.951 . S
C73 C68 1.429 . S
C73 C72 1.347 . S
H74 C75 0.951 . S
C75 H74 0.951 . S
C75 C81 1.265 1_455 S
H76 C81 0.950 . S
H77 C85 0.949 . S
H78 C86 0.950 . S
H79 C87 0.951 . S
H80 C88 0.951 . S
C81 C75 1.265 1_655 S
C81 H76 0.950 . S
C81 C82 1.478 1_655 S
C82 C69 1.394 . S
C82 C81 1.478 1_455 S
C82 C83 1.397 1_455 S
C83 C82 1.397 1_655 S
C83 C84 1.438 . S
C83 C88 1.429 . S
C84 C67 1.394 1_655 S
C84 C83 1.438 . S
C84 C85 1.428 . S
C85 H77 0.949 . S
C85 C84 1.428 . S
C85 C86 1.345 . S
C86 H78 0.950 . S
C86 C85 1.345 . S
C86 C87 1.424 . S
C87 H79 0.951 . S
C87 C86 1.424 . S
C87 C88 1.347 . S
C88 H80 0.951 . S
C88 C83 1.429 . S
C88 C87 1.347 . S
H89 C90 0.951 1_565 S
C90 H89 0.951 1_545 S
C90 C96 1.265 . S
H91 C96 0.950 . S
H92 C100 0.949 . S
H93 C101 0.950 . S
H94 C102 0.951 . S
H95 C103 0.951 . S
C96 C90 1.265 . S
C96 H91 0.950 . S
C96 C97 1.478 . S
C97 C96 1.478 . S
C97 C98 1.397 . S
C97 C114 1.394 1_545 S
C98 C97 1.397 . S
C98 C99 1.438 . S
C98 C103 1.429 . S
C99 C98 1.438 . S
C99 C100 1.428 . S
C99 C112 1.394 . S
C100 H92 0.949 . S
C100 C99 1.428 . S
C100 C101 1.345 . S
C101 H93 0.950 . S
C101 C100 1.345 . S
C101 C102 1.424 . S
C102 H94 0.951 . S
C102 C101 1.424 . S
C102 C103 1.347 . S
C103 H95 0.951 . S
C103 C98 1.429 . S
C103 C102 1.347 . S
H104 C105 0.951 . S
C105 H104 0.951 . S
C105 C111 1.265 . S
H106 C111 0.950 1_565 S
H107 C115 0.949 . S
H108 C116 0.950 . S
H109 C117 0.951 . S
H110 C118 0.951 . S
C111 C105 1.265 . S
C111 H106 0.950 1_545 S
C111 C112 1.478 . S
C112 C99 1.394 . S
C112 C111 1.478 . S
C112 C113 1.397 1_545 S
C113 C112 1.397 1_565 S
C113 C114 1.438 . S
C113 C118 1.429 . S
C114 C97 1.394 1_565 S
C114 C113 1.438 . S
C114 C115 1.428 . S
C115 H107 0.949 . S
C115 C114 1.428 . S
C115 C116 1.345 . S
C116 H108 0.950 . S
C116 C115 1.345 . S
C116 C117 1.424 . S
C117 H109 0.951 . S
C117 C116 1.424 . S
C117 C118 1.347 . S
C118 H110 0.951 . S
C118 C113 1.429 . S
C118 C117 1.347 . S
H119 C120 0.951 . S
C120 H119 0.951 . S
C120 C126 1.265 1_455 S
H121 C126 0.950 . S
H122 C130 0.949 . S
H123 C131 0.950 . S
H124 C132 0.951 . S
H125 C133 0.951 . S
C126 C120 1.265 1_655 S
C126 H121 0.950 . S
C126 C127 1.478 1_655 S
C127 C126 1.478 1_455 S
C127 C128 1.397 1_455 S
C127 C144 1.394 . S
C128 C127 1.397 1_655 S
C128 C129 1.438 . S
C128 C133 1.429 . S
C129 C128 1.438 . S
C129 C130 1.428 . S
C129 C142 1.394 1_655 S
C130 H122 0.949 . S
C130 C129 1.428 . S
C130 C131 1.345 . S
C131 H123 0.950 . S
C131 C130 1.345 . S
C131 C132 1.424 . S
C132 H124 0.951 . S
C132 C131 1.424 . S
C132 C133 1.347 . S
C133 H125 0.951 . S
C133 C128 1.429 . S
C133 C132 1.347 . S
H134 C135 0.951 1_655 S
C135 H134 0.951 1_455 S
C135 C141 1.265 . S
H136 C141 0.950 . S
H137 C145 0.949 . S
H138 C146 0.950 . S
H139 C147 0.951 . S
H140 C148 0.951 . S
C141 C135 1.265 . S
C141 H136 0.950 . S
C141 C142 1.478 . S
C142 C129 1.394 1_455 S
C142 C141 1.478 . S
C142 C143 1.397 . S
C143 C142 1.397 . S
C143 C144 1.438 . S
C143 C148 1.429 . S
C144 C127 1.394 . S
C144 C143 1.438 . S
C144 C145 1.428 . S
C145 H137 0.949 . S
C145 C144 1.428 . S
C145 C146 1.345 . S
C146 H138 0.950 . S
C146 C145 1.345 . S
C146 C147 1.424 . S
C147 H139 0.951 . S
C147 C146 1.424 . S
C147 C148 1.347 . S
C148 H140 0.951 . S
C148 C143 1.429 . S
C148 C147 1.347 . S
H149 C150 0.951 . S
C150 H149 0.951 . S
C150 C156 1.264 1_545 S
H151 C156 0.950 . S
H152 C160 0.949 . S
H153 C161 0.950 . S
H154 C162 0.951 . S
H155 C163 0.951 . S
C156 C150 1.264 1_565 S
C156 H151 0.950 . S
C156 C157 1.478 1_565 S
C157 C156 1.478 1_545 S
C157 C158 1.397 1_545 S
C157 C174 1.394 . S
C158 C157 1.397 1_565 S
C158 C159 1.438 . S
C158 C163 1.429 . S
C159 C158 1.438 . S
C159 C160 1.428 . S
C159 C172 1.394 1_565 S
C160 H152 0.949 . S
C160 C159 1.428 . S
C160 C161 1.345 . S
C161 H153 0.950 . S
C161 C160 1.345 . S
C161 C162 1.424 . S
C162 H154 0.951 . S
C162 C161 1.424 . S
C162 C163 1.347 . S
C163 H155 0.951 . S
C163 C158 1.429 . S
C163 C162 1.347 . S
H164 C165 0.951 . S
C165 H164 0.951 . S
C165 C171 1.265 . S
H166 C171 0.950 . S
H167 C175 0.949 . S
H168 C176 0.950 . S
H169 C177 0.951 . S
H170 C178 0.951 . S
C171 C165 1.265 . S
C171 H166 0.950 . S
C171 C172 1.478 . S
C172 C159 1.394 1_545 S
C172 C171 1.478 . S
C172 C173 1.397 . S
C173 C172 1.397 . S
C173 C174 1.438 . S
C173 C178 1.429 . S
C174 C157 1.394 . S
C174 C173 1.438 . S
C174 C175 1.428 . S
C175 H167 0.949 . S
C175 C174 1.428 . S
C175 C176 1.345 . S
C176 H168 0.950 . S
C176 C175 1.345 . S
C176 C177 1.424 . S
C177 H169 0.951 . S
C177 C176 1.424 . S
C177 C178 1.347 . S
C178 H170 0.951 . S
C178 C173 1.429 . S
C178 C177 1.347 . S
H179 C180 0.951 . S
C180 H179 0.951 . S
C180 C186 1.265 1_455 S
H181 C186 0.950 . S
H182 C190 0.949 . S
H183 C191 0.950 . S
H184 C192 0.951 . S
H185 C193 0.951 . S
C186 C180 1.265 1_655 S
C186 H181 0.950 . S
C186 C187 1.478 . S
C187 C186 1.478 . S
C187 C188 1.397 1_655 S
C187 C204 1.394 . S
C188 C187 1.397 1_455 S
C188 C189 1.438 . S
C188 C193 1.429 . S
C189 C188 1.438 . S
C189 C190 1.428 . S
C189 C202 1.394 . S
C190 H182 0.949 . S
C190 C189 1.428 . S
C190 C191 1.345 . S
C191 H183 0.950 . S
C191 C190 1.345 . S
C191 C192 1.424 . S
C192 H184 0.951 . S
C192 C191 1.424 . S
C192 C193 1.347 . S
C193 H185 0.951 . S
C193 C188 1.429 . S
C193 C192 1.347 . S
H194 C195 0.951 1_655 S
C195 H194 0.951 1_455 S
C195 C201 1.265 . S
H196 C201 0.950 . S
H197 C205 0.949 . S
H198 C206 0.950 . S
H199 C207 0.951 . S
H200 C208 0.951 . S
C201 C195 1.265 . S
C201 H196 0.950 . S
C201 C202 1.478 . S
C202 C189 1.394 . S
C202 C201 1.478 . S
C202 C203 1.397 . S
C203 C202 1.397 . S
C203 C204 1.438 1_455 S
C203 C208 1.429 . S
C204 C187 1.394 . S
C204 C203 1.438 1_655 S
C204 C205 1.428 . S
C205 H197 0.949 . S
C205 C204 1.428 . S
C205 C206 1.345 . S
C206 H198 0.950 . S
C206 C205 1.345 . S
C206 C207 1.424 . S
C207 H199 0.951 . S
C207 C206 1.424 . S
C207 C208 1.347 1_655 S
C208 H200 0.951 . S
C208 C203 1.429 . S
C208 C207 1.347 1_455 S
H209 C210 0.951 . S
C210 H209 0.951 . S
C210 C216 1.265 . S
H211 C216 0.950 . S
H212 C220 0.949 . S
H213 C221 0.950 . S
H214 C222 0.951 . S
H215 C223 0.951 . S
C216 C210 1.265 . S
C216 H211 0.950 . S
C216 C217 1.478 . S
C217 C216 1.478 . S
C217 C218 1.397 1_545 S
C217 C234 1.394 . S
C218 C217 1.397 1_565 S
C218 C219 1.438 . S
C218 C223 1.429 . S
C219 C218 1.438 . S
C219 C220 1.428 . S
C219 C232 1.394 1_565 S
C220 H212 0.949 . S
C220 C219 1.428 . S
C220 C221 1.345 . S
C221 H213 0.950 . S
C221 C220 1.345 . S
C221 C222 1.424 . S
C222 H214 0.951 . S
C222 C221 1.424 . S
C222 C223 1.347 . S
C223 H215 0.951 . S
C223 C218 1.429 . S
C223 C222 1.347 . S
H224 C225 0.951 . S
C225 H224 0.951 . S
C225 C231 1.265 . S
H226 C231 0.950 1_565 S
H227 C235 0.949 . S
H228 C236 0.950 . S
H229 C237 0.951 . S
H230 C238 0.951 . S
C231 C225 1.265 . S
C231 H226 0.950 1_545 S
C231 C232 1.478 . S
C232 C219 1.394 1_545 S
C232 C231 1.478 . S
C232 C233 1.397 . S
C233 C232 1.397 . S
C233 C234 1.438 . S
C233 C238 1.429 . S
C234 C217 1.394 . S
C234 C233 1.438 . S
C234 C235 1.428 . S
C235 H227 0.949 . S
C235 C234 1.428 . S
C235 C236 1.345 . S
C236 H228 0.950 . S
C236 C235 1.345 . S
C236 C237 1.424 . S
C237 H229 0.951 . S
C237 C236 1.424 . S
C237 C238 1.347 . S
C238 H230 0.951 . S
C238 C233 1.429 . S
C238 C237 1.347 . S
H239 C240 0.951 1_655 S
C240 H239 0.951 1_455 S
C240 C246 1.265 . S
H241 C246 0.950 . S
H242 C250 0.949 . S
H243 C251 0.950 . S
H244 C252 0.951 . S
H245 C253 0.951 . S
C246 C240 1.265 . S
C246 H241 0.950 . S
C246 C247 1.478 . S
C247 C246 1.478 . S
C247 C248 1.397 . S
C247 C264 1.394 1_455 S
C248 C247 1.397 . S
C248 C249 1.438 . S
C248 C253 1.429 . S
C249 C248 1.438 . S
C249 C250 1.428 . S
C249 C262 1.394 . S
C250 H242 0.949 . S
C250 C249 1.428 . S
C250 C251 1.345 . S
C251 H243 0.950 . S
C251 C250 1.345 . S
C251 C252 1.424 . S
C252 H244 0.951 . S
C252 C251 1.424 . S
C252 C253 1.347 . S
C253 H245 0.951 . S
C253 C248 1.429 . S
C253 C252 1.347 . S
H254 C255 0.951 . S
C255 H254 0.951 . S
C255 C261 1.265 . S
H256 C261 0.950 . S
H257 C265 0.949 . S
H258 C266 0.950 . S
H259 C267 0.951 . S
H260 C268 0.951 . S
C261 C255 1.265 . S
C261 H256 0.950 . S
C261 C262 1.478 . S
C262 C249 1.394 . S
C262 C261 1.478 . S
C262 C263 1.397 1_455 S
C263 C262 1.397 1_655 S
C263 C264 1.438 . S
C263 C268 1.429 . S
C264 C247 1.394 1_655 S
C264 C263 1.438 . S
C264 C265 1.428 . S
C265 H257 0.949 . S
C265 C264 1.428 . S
C265 C266 1.345 . S
C266 H258 0.950 . S
C266 C265 1.345 . S
C266 C267 1.424 . S
C267 H259 0.951 . S
C267 C266 1.424 . S
C267 C268 1.347 . S
C268 H260 0.951 . S
C268 C263 1.429 . S
C268 C267 1.347 . S
H269 C270 0.951 . S
C270 H269 0.951 . S
C270 C276 1.265 . S
H271 C276 0.950 . S
H272 C280 0.949 . S
H273 C281 0.950 . S
H274 C282 0.951 . S
H275 C283 0.951 . S
C276 C270 1.265 . S
C276 H271 0.950 . S
C276 C277 1.478 . S
C277 C276 1.478 . S
C277 C278 1.397 . S
C277 C294 1.394 1_545 S
C278 C277 1.397 . S
C278 C279 1.438 . S
C278 C283 1.429 . S
C279 C278 1.438 . S
C279 C280 1.428 . S
C279 C292 1.394 . S
C280 H272 0.949 . S
C280 C279 1.428 . S
C280 C281 1.345 . S
C281 H273 0.950 . S
C281 C280 1.345 . S
C281 C282 1.424 . S
C282 H274 0.951 . S
C282 C281 1.424 . S
C282 C283 1.347 . S
C283 H275 0.951 . S
C283 C278 1.429 . S
C283 C282 1.347 . S
H284 C285 0.951 . S
C285 H284 0.951 . S
C285 C291 1.265 . S
H286 C291 0.950 . S
H287 C295 0.949 . S
H288 C296 0.950 . S
H289 C297 0.951 . S
H290 C298 0.951 . S
C291 C285 1.265 . S
C291 H286 0.950 . S
C291 C292 1.478 . S
C292 C279 1.394 . S
C292 C291 1.478 . S
C292 C293 1.397 1_545 S
C293 C292 1.397 1_565 S
C293 C294 1.438 . S
C293 C298 1.429 . S
C294 C277 1.394 1_565 S
C294 C293 1.438 . S
C294 C295 1.428 . S
C295 H287 0.949 . S
C295 C294 1.428 . S
C295 C296 1.345 . S
C296 H288 0.950 . S
C296 C295 1.345 . S
C296 C297 1.424 . S
C297 H289 0.951 . S
C297 C296 1.424 . S
C297 C298 1.347 . S
C298 H290 0.951 . S
C298 C293 1.429 . S
C298 C297 1.347 . S
C60 C23 1.360 . S
C75 C34 1.361 . S
C90 C22 1.449 1_545 S
C105 C56 1.462 . S
C120 C21 1.737 . S
C135 C43 1.740 . S
C150 C24 1.457 . S
C165 C47 1.521 . S
C180 C27 1.304 1_455 S
C195 C36 1.326 . S
C210 C26 1.313 . S
C225 C51 1.391 . S
C255 C38 1.661 . S
C240 C25 1.639 . S
C270 C28 1.420 . S
C285 C49 1.455 . S
