# Generated by pormake.
# Topology gar, (4,6)-cn, num edge types: 1
# Building blocks:
#     Node 0, Type 0, BuildingBlock: QUQFOY_clean_sbu_1, # of connection points: 4
#     Node 1, Type 0, BuildingBlock: QUQFOY_clean_sbu_1, # of connection points: 4
#     Node 2, Type 0, BuildingBlock: QUQFOY_clean_sbu_1, # of connection points: 4
#     Node 3, Type 0, BuildingBlock: QUQFOY_clean_sbu_1, # of connection points: 4
#     Node 4, Type 0, BuildingBlock: QUQFOY_clean_sbu_1, # of connection points: 4
#     Node 5, Type 0, BuildingBlock: QUQFOY_clean_sbu_1, # of connection points: 4
#     Node 6, Type 0, BuildingBlock: QUQFOY_clean_sbu_1, # of connection points: 4
#     Node 7, Type 0, BuildingBlock: QUQFOY_clean_sbu_1, # of connection points: 4
#     Node 8, Type 0, BuildingBlock: QUQFOY_clean_sbu_1, # of connection points: 4
#     Node 9, Type 0, BuildingBlock: QUQFOY_clean_sbu_1, # of connection points: 4
#     Node 10, Type 0, BuildingBlock: QUQFOY_clean_sbu_1, # of connection points: 4
#     Node 11, Type 0, BuildingBlock: QUQFOY_clean_sbu_1, # of connection points: 4
#     Node 12, Type 0, BuildingBlock: QUQFOY_clean_sbu_1, # of connection points: 4
#     Node 13, Type 0, BuildingBlock: QUQFOY_clean_sbu_1, # of connection points: 4
#     Node 14, Type 0, BuildingBlock: QUQFOY_clean_sbu_1, # of connection points: 4
#     Node 15, Type 0, BuildingBlock: QUQFOY_clean_sbu_1, # of connection points: 4
#     Node 16, Type 0, BuildingBlock: QUQFOY_clean_sbu_1, # of connection points: 4
#     Node 17, Type 0, BuildingBlock: QUQFOY_clean_sbu_1, # of connection points: 4
#     Node 18, Type 0, BuildingBlock: QUQFOY_clean_sbu_1, # of connection points: 4
#     Node 19, Type 0, BuildingBlock: QUQFOY_clean_sbu_1, # of connection points: 4
#     Node 20, Type 0, BuildingBlock: QUQFOY_clean_sbu_1, # of connection points: 4
#     Node 21, Type 0, BuildingBlock: QUQFOY_clean_sbu_1, # of connection points: 4
#     Node 22, Type 0, BuildingBlock: QUQFOY_clean_sbu_1, # of connection points: 4
#     Node 23, Type 0, BuildingBlock: QUQFOY_clean_sbu_1, # of connection points: 4
#     Node 24, Type 1, BuildingBlock: BETDEL_clean_sbu_0, # of connection points: 6
#     Node 25, Type 1, BuildingBlock: BETDEL_clean_sbu_0, # of connection points: 6
#     Node 26, Type 1, BuildingBlock: BETDEL_clean_sbu_0, # of connection points: 6
#     Node 27, Type 1, BuildingBlock: BETDEL_clean_sbu_0, # of connection points: 6
#     Node 28, Type 1, BuildingBlock: BETDEL_clean_sbu_0, # of connection points: 6
#     Node 29, Type 1, BuildingBlock: BETDEL_clean_sbu_0, # of connection points: 6
#     Node 30, Type 1, BuildingBlock: BETDEL_clean_sbu_0, # of connection points: 6
#     Node 31, Type 1, BuildingBlock: BETDEL_clean_sbu_0, # of connection points: 6
#     Node 32, Type 1, BuildingBlock: BETDEL_clean_sbu_0, # of connection points: 6
#     Node 33, Type 1, BuildingBlock: BETDEL_clean_sbu_0, # of connection points: 6
#     Node 34, Type 1, BuildingBlock: BETDEL_clean_sbu_0, # of connection points: 6
#     Node 35, Type 1, BuildingBlock: BETDEL_clean_sbu_0, # of connection points: 6
#     Node 36, Type 1, BuildingBlock: BETDEL_clean_sbu_0, # of connection points: 6
#     Node 37, Type 1, BuildingBlock: BETDEL_clean_sbu_0, # of connection points: 6
#     Node 38, Type 1, BuildingBlock: BETDEL_clean_sbu_0, # of connection points: 6
#     Node 39, Type 1, BuildingBlock: BETDEL_clean_sbu_0, # of connection points: 6
#     Edge 40, Type (0, 1), None
#     Edge 41, Type (0, 1), None
#     Edge 42, Type (0, 1), None
#     Edge 43, Type (0, 1), None
#     Edge 44, Type (0, 1), None
#     Edge 45, Type (0, 1), None
#     Edge 46, Type (0, 1), None
#     Edge 47, Type (0, 1), None
#     Edge 48, Type (0, 1), None
#     Edge 49, Type (0, 1), None
#     Edge 50, Type (0, 1), None
#     Edge 51, Type (0, 1), None
#     Edge 52, Type (0, 1), None
#     Edge 53, Type (0, 1), None
#     Edge 54, Type (0, 1), None
#     Edge 55, Type (0, 1), None
#     Edge 56, Type (0, 1), None
#     Edge 57, Type (0, 1), None
#     Edge 58, Type (0, 1), None
#     Edge 59, Type (0, 1), None
#     Edge 60, Type (0, 1), None
#     Edge 61, Type (0, 1), None
#     Edge 62, Type (0, 1), None
#     Edge 63, Type (0, 1), None
#     Edge 64, Type (0, 1), None
#     Edge 65, Type (0, 1), None
#     Edge 66, Type (0, 1), None
#     Edge 67, Type (0, 1), None
#     Edge 68, Type (0, 1), None
#     Edge 69, Type (0, 1), None
#     Edge 70, Type (0, 1), None
#     Edge 71, Type (0, 1), None
#     Edge 72, Type (0, 1), None
#     Edge 73, Type (0, 1), None
#     Edge 74, Type (0, 1), None
#     Edge 75, Type (0, 1), None
#     Edge 76, Type (0, 1), None
#     Edge 77, Type (0, 1), None
#     Edge 78, Type (0, 1), None
#     Edge 79, Type (0, 1), None
#     Edge 80, Type (0, 1), None
#     Edge 81, Type (0, 1), None
#     Edge 82, Type (0, 1), None
#     Edge 83, Type (0, 1), None
#     Edge 84, Type (0, 1), None
#     Edge 85, Type (0, 1), None
#     Edge 86, Type (0, 1), None
#     Edge 87, Type (0, 1), None
#     Edge 88, Type (0, 1), None
#     Edge 89, Type (0, 1), None
#     Edge 90, Type (0, 1), None
#     Edge 91, Type (0, 1), None
#     Edge 92, Type (0, 1), None
#     Edge 93, Type (0, 1), None
#     Edge 94, Type (0, 1), None
#     Edge 95, Type (0, 1), None
#     Edge 96, Type (0, 1), None
#     Edge 97, Type (0, 1), None
#     Edge 98, Type (0, 1), None
#     Edge 99, Type (0, 1), None
#     Edge 100, Type (0, 1), None
#     Edge 101, Type (0, 1), None
#     Edge 102, Type (0, 1), None
#     Edge 103, Type (0, 1), None
#     Edge 104, Type (0, 1), None
#     Edge 105, Type (0, 1), None
#     Edge 106, Type (0, 1), None
#     Edge 107, Type (0, 1), None
#     Edge 108, Type (0, 1), None
#     Edge 109, Type (0, 1), None
#     Edge 110, Type (0, 1), None
#     Edge 111, Type (0, 1), None
#     Edge 112, Type (0, 1), None
#     Edge 113, Type (0, 1), None
#     Edge 114, Type (0, 1), None
#     Edge 115, Type (0, 1), None
#     Edge 116, Type (0, 1), None
#     Edge 117, Type (0, 1), None
#     Edge 118, Type (0, 1), None
#     Edge 119, Type (0, 1), None
#     Edge 120, Type (0, 1), None
#     Edge 121, Type (0, 1), None
#     Edge 122, Type (0, 1), None
#     Edge 123, Type (0, 1), None
#     Edge 124, Type (0, 1), None
#     Edge 125, Type (0, 1), None
#     Edge 126, Type (0, 1), None
#     Edge 127, Type (0, 1), None
#     Edge 128, Type (0, 1), None
#     Edge 129, Type (0, 1), None
#     Edge 130, Type (0, 1), None
#     Edge 131, Type (0, 1), None
#     Edge 132, Type (0, 1), None
#     Edge 133, Type (0, 1), None
#     Edge 134, Type (0, 1), None
#     Edge 135, Type (0, 1), None
# Relax obj value: 0.194
# Max RMSD: 0.323
# Mean RMSD: 0.185
data_MOF--net-gar--node1-QUQFOY_clean_sbu_1--node2-BETDEL_clean_sbu_0--edge1-none
_symmetry_space_group_name_H-M    P1
_symmetry_Int_Tables_number       1
_symmetry_cell_setting            triclinic
loop_
_symmetry_equiv_pos_as_xyz
'x, y, z'
_cell_length_a     27.023187
_cell_length_b     24.773808
_cell_length_c     25.958664
_cell_angle_alpha  93.323545
_cell_angle_beta   89.747405
_cell_angle_gamma 98.952175
loop_
_atom_site_label
_atom_site_type_symbol
_atom_site_fract_x
_atom_site_fract_y
_atom_site_fract_z
_atom_type_partial_charge
O0 O 0.06209 0.18685 0.43227 0.0
Cd1 Cd 0.08368 0.25719 0.391 0.0
Cd2 Cd 0.04293 0.29365 0.48029 0.0
O3 O 0.05192 0.22201 0.51088 0.0
O4 O 0.1184 0.22872 0.32958 0.0
O5 O 0.15462 0.29451 0.38471 0.0
C6 C 0.15682 0.26423 0.34282 0.0
C7 C 0.05998 0.37351 0.53012 0.0
C8 C 0.05394 0.18098 0.48023 0.0
C9 C 0.99093 0.30187 0.38036 0.0
O10 O 0.98557 0.29437 0.42817 0.0
O11 O 0.0311 0.29506 0.35774 0.0
O12 O 0.02251 0.33693 0.54016 0.0
O13 O 0.08964 0.36375 0.49277 0.0
O14 O 0.99627 0.6645 0.6054 0.0
Cd15 Cd 1.00569 0.73364 0.65867 0.0
Cd16 Cd 0.05829 0.76656 0.57597 0.0
O17 O 0.02066 0.70324 0.53339 0.0
O18 O 0.95604 0.71749 0.71608 0.0
O19 O 0.95969 0.7924 0.67398 0.0
C20 C 0.93975 0.76301 0.71035 0.0
C21 C 0.05714 0.85288 0.55213 0.0
C22 C 1.00377 0.66111 0.55673 0.0
C23 C 0.11557 0.7418 0.66737 0.0
O24 O 0.11653 0.74962 0.61944 0.0
O25 O 0.07528 0.74061 0.69307 0.0
O26 O 0.08343 0.82163 0.52623 0.0
O27 O 0.0317 0.83485 0.59157 0.0
O28 O 0.65612 0.76818 0.9102 0.0
Cd29 Cd 0.60025 0.77278 0.96861 0.0
Cd30 Cd 0.57306 0.84007 0.89128 0.0
O31 O 0.6362 0.82585 0.85477 0.0
O32 O 0.60793 0.7171 0.01939 0.0
O33 O 0.54316 0.70902 0.96619 0.0
C34 C 0.56595 0.68973 1.00295 0.0
C35 C 0.50022 0.82575 0.84562 0.0
C36 C 0.66354 0.79187 0.86767 0.0
C37 C 0.57783 0.88615 1.00117 0.0
O38 O 0.57292 0.89225 0.95356 0.0
O39 O 0.58947 0.84203 0.01669 0.0
O40 O 0.53285 0.86841 0.83851 0.0
O41 O 0.50972 0.79072 0.87777 0.0
O42 O 0.50571 0.16325 0.096 0.0
Cd43 Cd 0.51154 0.22438 0.15747 0.0
Cd44 Cd 0.57576 0.27683 0.0866 0.0
O45 O 0.55891 0.20823 0.0423 0.0
O46 O 0.45639 0.20351 0.20832 0.0
O47 O 0.46672 0.28381 0.17448 0.0
C48 C 0.4427 0.25092 0.20608 0.0
C49 C 0.56916 0.35935 0.05459 0.0
C50 C 0.53096 0.16508 0.05412 0.0
C51 C 0.62019 0.24599 0.18364 0.0
O52 O 0.62665 0.27077 0.14215 0.0
O53 O 0.5769 0.22543 0.19853 0.0
O54 O 0.60531 0.33401 0.03953 0.0
O55 O 0.5371 0.3375 0.08746 0.0
O56 O 0.07612 0.68719 0.1391 0.0
Cd57 Cd 0.07883 0.75256 0.19259 0.0
Cd58 Cd 0.12419 0.80557 0.11421 0.0
O59 O 0.11738 0.72731 0.07453 0.0
O60 O 0.02805 0.72877 0.24462 0.0
O61 O 0.02468 0.79809 0.19458 0.0
C62 C 1.00565 0.76778 0.23065 0.0
C63 C 0.08675 0.87556 0.07392 0.0
C64 C 0.09451 0.6843 0.09403 0.0
C65 C 0.17912 0.80695 0.22128 0.0
O66 O 0.18067 0.82238 0.17478 0.0
O67 O 0.14057 0.7769 0.23675 0.0
O68 O 0.13172 0.86665 0.0637 0.0
O69 O 0.06276 0.84596 0.108 0.0
O70 O 0.5918 0.73616 0.36983 0.0
Cd71 Cd 0.54616 0.7473 0.43101 0.0
Cd72 Cd 0.4991 0.7958 0.36177 0.0
O73 O 0.56969 0.80352 0.32871 0.0
O74 O 0.58168 0.71233 0.48248 0.0
O75 O 0.50401 0.68017 0.45719 0.0
C76 C 0.54305 0.67506 0.48382 0.0
C77 C 0.43256 0.77296 0.30372 0.0
C78 C 0.59965 0.76993 0.33502 0.0
C79 C 0.52336 0.85958 0.45849 0.0
O80 O 0.49193 0.85163 0.42164 0.0
O81 O 0.55213 0.82497 0.46599 0.0
O82 O 0.46172 0.8192 0.30429 0.0
O83 O 0.44005 0.73857 0.33719 0.0
O84 O 0.56873 0.18709 0.62155 0.0
Cd85 Cd 0.57506 0.24156 0.68433 0.0
Cd86 Cd 0.63462 0.29746 0.6213 0.0
O87 O 0.63231 0.22383 0.57539 0.0
O88 O 0.5203 0.20808 0.72843 0.0
O89 O 0.52399 0.29043 0.69764 0.0
C90 C 0.50101 0.2519 0.72419 0.0
C91 C 0.59655 0.368 0.58432 0.0
C92 C 0.59685 0.18477 0.58254 0.0
C93 C 0.6758 0.28329 0.72886 0.0
O94 O 0.68383 0.31053 0.68836 0.0
O95 O 0.63529 0.25044 0.73255 0.0
O96 O 0.64284 0.36243 0.5767 0.0
O97 O 0.57122 0.33441 0.61434 0.0
O98 O 0.03651 0.18783 0.92883 0.0
Cd99 Cd 0.02795 0.2397 0.86985 0.0
Cd100 Cd 0.96309 0.2669 0.94263 0.0
O101 O 0.97493 0.19989 0.98206 0.0
O102 O 0.07527 0.21549 0.81842 0.0
O103 O 0.08641 0.29844 0.85756 0.0
C104 C 0.10197 0.26299 0.8256 0.0
C105 C 0.99853 0.35354 0.9774 0.0
C106 C 1.01214 0.17636 0.9698 0.0
C107 C 0.92057 0.246 0.83593 0.0
O108 O 0.90993 0.25758 0.88267 0.0
O109 O 0.96464 0.23821 0.82409 0.0
O110 O 0.95461 0.33031 0.99088 0.0
O111 O 0.02261 0.32796 0.9433 0.0
O112 O 0.40551 0.00235 0.22629 0.0
Cd113 Cd 0.36257 0.00934 0.2905 0.0
Cd114 Cd 0.46321 0.01834 0.3182 0.0
O115 O 0.46749 0.06399 0.25591 0.0
O116 O 0.29481 0.01428 0.26466 0.0
O117 O 0.344 0.07869 0.31321 0.0
C118 C 0.30286 0.06248 0.28757 0.0
C119 C 0.52408 0.04191 0.38129 0.0
C120 C 0.44575 0.03447 0.21886 0.0
C121 C 0.38674 0.91911 0.32109 0.0
O122 O 0.42956 0.93724 0.30329 0.0
O123 O 0.36041 0.9521 0.34153 0.0
O124 O 0.53483 0.01974 0.3374 0.0
O125 O 0.47857 0.05009 0.38953 0.0
O126 O 0.28705 0.15885 0.61115 0.0
Cd127 Cd 0.28618 0.10586 0.54809 0.0
Cd128 Cd 0.26457 0.19696 0.49171 0.0
O129 O 0.27578 0.23275 0.57116 0.0
O130 O 0.3273 0.04961 0.56735 0.0
O131 O 0.34881 0.10752 0.50602 0.0
C132 C 0.35934 0.0689 0.5335 0.0
C133 C 0.29537 0.2445 0.41406 0.0
C134 C 0.28202 0.20893 0.61304 0.0
C135 C 0.18643 0.08938 0.4968 0.0
O136 O 0.19909 0.13725 0.4801 0.0
O137 O 0.21629 0.06815 0.52414 0.0
O138 O 0.26012 0.2589 0.44293 0.0
O139 O 0.31542 0.20416 0.42938 0.0
O140 O 0.18492 0.01993 0.71182 0.0
Cd141 Cd 0.2364 0.01098 0.76773 0.0
Cd142 Cd 0.15521 0.05334 0.82832 0.0
O143 O 0.12396 0.0514 0.75669 0.0
O144 O 0.2883 0.97009 0.73297 0.0
O145 O 0.23882 0.93782 0.7958 0.0
C146 C 0.27371 0.93116 0.76293 0.0
C147 C 0.09758 0.02169 0.89458 0.0
C148 C 0.14346 0.03831 0.71413 0.0
C149 C 0.25871 0.12445 0.817 0.0
O150 O 0.21405 0.12003 0.8345 0.0
O151 O 0.27547 0.08418 0.79451 0.0
O152 O 0.10109 0.07026 0.87824 0.0
O153 O 0.12852 0.9911 0.87564 0.0
O154 O 0.26947 0.88337 0.06736 0.0
Cd155 Cd 0.2821 0.94682 0.01963 0.0
Cd156 Cd 0.31753 0.85867 0.95628 0.0
O157 O 0.31744 0.82948 0.02695 0.0
O158 O 0.26092 0.00955 0.06293 0.0
O159 O 0.23234 0.98349 0.9843 0.0
C160 C 0.23319 0.01672 0.02461 0.0
C161 C 0.29067 0.79243 0.89051 0.0
C162 C 0.2938 0.84331 0.06634 0.0
C163 C 0.38701 0.96051 0.97877 0.0
O164 O 0.37696 0.92025 0.94589 0.0
O165 O 0.35493 0.97333 1.01083 0.0
O166 O 0.33396 0.79555 0.91175 0.0
O167 O 0.26279 0.82808 0.90562 0.0
O168 O 0.29082 0.35884 0.13349 0.0
Cd169 Cd 0.30718 0.4202 0.07837 0.0
Cd170 Cd 0.35076 0.34641 0.02405 0.0
O171 O 0.32696 0.29733 0.08869 0.0
O172 O 0.2622 0.47692 0.08599 0.0
O173 O 0.25984 0.42142 0.01664 0.0
C174 C 0.24323 0.46136 0.04151 0.0
C175 C 0.33002 0.31558 0.93633 0.0
C176 C 0.30325 0.31097 0.12922 0.0
C177 C 0.41561 0.45716 0.05743 0.0
O178 O 0.41309 0.41083 0.03243 0.0
O179 O 0.37732 0.46903 0.08125 0.0
O180 O 0.36701 0.30076 0.96022 0.0
O181 O 0.30305 0.3459 0.9624 0.0
O182 O 0.83068 0.1621 0.13235 0.0
Cd183 Cd 0.79897 0.09794 0.07576 0.0
Cd184 Cd 0.74384 0.1869 0.06987 0.0
O185 O 0.78326 0.22684 0.12689 0.0
O186 O 0.83233 0.03164 0.08733 0.0
O187 O 0.843 0.07677 0.01642 0.0
C188 C 0.85208 0.03634 0.04222 0.0
C189 C 0.75709 0.21444 0.98972 0.0
C190 C 0.81951 0.2092 0.14674 0.0
C191 C 0.68172 0.08558 0.07207 0.0
O192 O 0.68261 0.1353 0.08599 0.0
O193 O 0.72208 0.06632 0.06234 0.0
O194 O 0.72847 0.23839 0.02044 0.0
O195 O 0.77798 0.17454 1.00495 0.0
O196 O 0.13915 0.47719 0.13993 0.0
Cd197 Cd 0.20414 0.50719 0.18201 0.0
Cd198 Cd 0.13985 0.52808 0.25402 0.0
O199 O 0.08817 0.508 0.19683 0.0
O200 O 0.2614 0.46604 0.18052 0.0
O201 O 0.21754 0.47936 0.25079 0.0
C202 C 0.25522 0.46122 0.22915 0.0
C203 C 0.10626 0.52188 0.33462 0.0
C204 C 0.09538 0.48556 0.15315 0.0
C205 C 0.22689 0.61297 0.21782 0.0
O206 O 0.19607 0.59359 0.25153 0.0
O207 O 0.23222 0.58642 0.17582 0.0
O208 O 0.09781 0.55954 0.30544 0.0
O209 O 0.13342 0.48624 0.31785 0.0
O210 O 0.78975 0.86273 0.64151 0.0
Cd211 Cd 0.80826 0.92126 0.58381 0.0
Cd212 Cd 0.8498 0.84353 0.53114 0.0
O213 O 0.82428 0.79823 0.59919 0.0
O214 O 0.76541 0.98092 0.58587 0.0
O215 O 0.76362 0.92117 0.51996 0.0
C216 C 0.74839 0.96391 0.54088 0.0
C217 C 0.82821 0.81459 0.44318 0.0
C218 C 0.80109 0.8143 0.63941 0.0
C219 C 0.91739 0.95306 0.55901 0.0
O220 O 0.9137 0.90618 0.53506 0.0
O221 O 0.88029 0.96575 0.58453 0.0
O222 O 0.8636 0.79656 0.46697 0.0
O223 O 0.80233 0.8454 0.46994 0.0
O224 O 0.9489 0.05504 0.16484 0.0
Cd225 Cd 0.88852 0.03435 0.21839 0.0
Cd226 Cd 0.95568 0.95639 0.23496 0.0
O227 O 0.99691 0.99235 0.17773 0.0
O228 O 0.83624 0.08252 0.20861 0.0
O229 O 0.88486 0.09083 0.27761 0.0
C230 C 0.84867 0.10655 0.25304 0.0
C231 C 0.98561 0.96595 0.31615 0.0
C232 C 0.989 0.03451 0.15581 0.0
C233 C 0.85198 0.90867 0.22938 0.0
O234 O 0.8959 0.89764 0.22479 0.0
O235 O 0.84362 0.95781 0.22859 0.0
O236 O 1.00097 0.93071 0.28377 0.0
O237 O 0.95458 -0.00312 0.30148 0.0
O238 O 0.33264 0.66173 0.6218 0.0
Cd239 Cd 0.30182 0.59242 0.57338 0.0
Cd240 Cd 0.25314 0.67939 0.54526 0.0
O241 O 0.29245 0.72779 0.59855 0.0
O242 O 0.33966 0.53241 0.59261 0.0
O243 O 0.34514 0.56575 0.51575 0.0
C244 C 0.3588 0.53221 0.54712 0.0
C245 C 0.25966 0.70351 0.46233 0.0
C246 C 0.32446 0.71124 0.62624 0.0
C247 C 0.18719 0.58331 0.57649 0.0
O248 O 0.19096 0.63371 0.56948 0.0
O249 O 0.22545 0.55901 0.57441 0.0
O250 O 0.23253 0.72739 0.49463 0.0
O251 O 0.28255 0.66493 0.47711 0.0
O252 O 0.45257 0.55142 0.66759 0.0
Cd253 Cd 0.38754 0.53324 0.71531 0.0
Cd254 Cd 0.45264 0.46691 0.74903 0.0
O255 O 0.50144 0.49564 0.6954 0.0
O256 O 0.33787 0.58236 0.69792 0.0
O257 O 0.3804 0.59276 0.77106 0.0
C258 C 0.34781 0.60891 0.74171 0.0
C259 C 0.47985 0.47926 0.83095 0.0
C260 C 0.49444 0.53323 0.66691 0.0
C261 C 0.35377 0.40862 0.72903 0.0
O262 O 0.39885 0.40286 0.73516 0.0
O263 O 0.34211 0.45562 0.72196 0.0
O264 O 0.49489 0.44245 0.8003 0.0
O265 O 0.44892 0.5095 0.81479 0.0
O266 O 0.64621 0.98833 0.6285 0.0
Cd267 Cd 0.70646 0.0187 0.67754 0.0
Cd268 Cd 0.63494 0.02724 0.74587 0.0
O269 O 0.58997 0.01164 0.6835 0.0
O270 O 0.76996 0.98651 0.68226 0.0
O271 O 0.71228 0.98231 0.74307 0.0
C272 C 0.75557 0.97276 0.72752 0.0
C273 C 0.59347 0.01065 0.8193 0.0
C274 C 0.60096 0.99303 0.63954 0.0
C275 C 0.72 0.11905 0.72997 0.0
O276 O 0.6895 0.09327 0.7602 0.0
O277 O 0.72591 0.10017 0.68457 0.0
O278 O 0.5851 0.04998 0.79216 0.0
O279 O 0.62398 0.9782 0.80323 0.0
O280 O 0.7843 0.66701 0.11844 0.0
Cd281 Cd 0.78584 0.61593 0.05556 0.0
Cd282 Cd 0.76471 0.70977 0.99877 0.0
O283 O 0.77669 0.74241 0.07892 0.0
O284 O 0.82316 0.55869 0.07889 0.0
O285 O 0.8498 0.61488 0.01733 0.0
C286 C 0.85728 0.57634 0.04648 0.0
C287 C 0.79735 0.76187 0.92357 0.0
C288 C 0.7808 0.71732 0.12052 0.0
C289 C 0.68776 0.59942 1.0032 0.0
O290 O 0.69971 0.6477 0.98669 0.0
O291 O 0.71771 0.57842 0.03034 0.0
O292 O 0.76126 0.7747 0.95214 0.0
O293 O 0.81651 0.72031 0.93744 0.0
O294 O 0.90478 0.49388 0.73829 0.0
Cd295 Cd 0.85951 0.50399 0.80131 0.0
Cd296 Cd 0.9562 0.5194 0.83445 0.0
O297 O 0.96325 0.55946 0.7685 0.0
O298 O 0.79498 0.52516 0.78102 0.0
O299 O 0.85741 0.57798 0.82539 0.0
C300 C 0.81361 0.57159 0.80384 0.0
C301 C 1.01577 0.54598 0.89762 0.0
C302 C 0.94413 0.52795 0.73143 0.0
C303 C 0.88398 0.41935 0.84528 0.0
O304 O 0.92637 0.43685 0.82626 0.0
O305 O 0.85627 0.4536 0.85962 0.0
O306 O 0.0271 0.52212 0.85482 0.0
O307 O 0.97045 0.55542 0.90436 0.0
O308 O 0.7717 0.37428 0.58557 0.0
Cd309 Cd 0.78796 0.43825 0.53977 0.0
Cd310 Cd 0.82241 0.35179 0.47917 0.0
O311 O 0.82597 0.32483 0.5506 0.0
O312 O 0.7717 0.49912 0.58803 0.0
O313 O 0.74132 0.48192 0.50882 0.0
C314 C 0.74514 0.51214 0.55125 0.0
C315 C 0.79095 0.2865 0.41449 0.0
C316 C 0.79929 0.33747 0.58802 0.0
C317 C 0.89115 0.45351 0.4978 0.0
O318 O 0.88059 0.41346 0.46476 0.0
O319 O 0.86039 0.46437 0.53192 0.0
O320 O 0.83428 0.2871 0.43486 0.0
O321 O 0.76491 0.32346 0.43087 0.0
O322 O 0.67565 0.50615 0.22588 0.0
Cd323 Cd 0.7322 0.50441 0.27922 0.0
Cd324 Cd 0.66037 0.56193 0.33822 0.0
O325 O 0.62268 0.55134 0.27 0.0
O326 O 0.78202 0.45959 0.24529 0.0
O327 O 0.74065 0.43714 0.31622 0.0
C328 C 0.7729 0.42646 0.28174 0.0
C329 C 0.61069 0.53102 0.40917 0.0
C330 C 0.63626 0.52865 0.22849 0.0
C331 C 0.7619 0.62436 0.31062 0.0
O332 O 0.72011 0.62664 0.33325 0.0
O333 O 0.77382 0.57948 0.29256 0.0
O334 O 0.60844 0.57787 0.39078 0.0
O335 O 0.64375 0.5031 0.39008 0.0
Dy336 Dy 0.98998 -0.00375 1.00866 0.0
C337 C 0.19596 0.05354 0.02979 0.0
C338 C 0.89101 0.00336 0.02524 0.0
Dy339 Dy 0.09773 0.05856 0.04418 0.0
O340 O 0.91333 0.00736 0.98068 0.0
O341 O 0.92098 0.98756 0.05819 0.0
O342 O 0.02327 0.96554 0.93341 0.0
O343 O 0.05557 0.03789 0.97387 0.0
C344 C 0.06214 0.00492 0.93681 0.0
C345 C 0.02326 0.05221 0.11348 0.0
O346 O 0.07261 0.1294 1.00864 0.0
O347 O 0.98874 0.08816 1.00352 0.0
O348 O 0.17659 0.06632 0.07431 0.0
O349 O 0.16298 0.05177 0.99352 0.0
O350 O 0.06265 0.0907 0.1178 0.0
O351 O 0.03149 0.0181 0.0782 0.0
O352 O 0.01967 0.92368 0.04153 0.0
O353 O 0.10195 0.96882 0.05237 0.0
C354 C 0.02465 0.13105 0.99884 0.0
C355 C 0.06795 0.92409 0.05374 0.0
Dy356 Dy 0.32099 0.78053 0.20417 0.0
C357 C 0.26635 0.72217 0.41064 0.0
C358 C 0.30172 0.81872 0.11389 0.0
Dy359 Dy 0.28526 0.76292 0.3172 0.0
O360 O 0.3278 0.77894 0.11848 0.0
O361 O 0.28915 0.83918 0.15821 0.0
O362 O 0.40216 0.78232 0.21849 0.0
O363 O 0.34817 0.74335 0.26925 0.0
C364 C 0.3946 0.76045 0.26304 0.0
C365 C 0.2252 0.80933 0.25265 0.0
O366 O 0.34403 0.83194 0.33479 0.0
O367 O 0.3477 0.86044 0.25079 0.0
O368 O 0.24716 0.76273 0.3939 0.0
O369 O 0.29561 0.70366 0.37661 0.0
O370 O 0.2266 0.81837 0.30263 0.0
O371 O 0.25194 0.77327 0.24378 0.0
O372 O 0.28163 0.69389 0.19414 0.0
O373 O 0.2532 0.6836 0.27919 0.0
C374 C 0.36011 0.86732 0.30076 0.0
C375 C 0.25655 0.66553 0.23051 0.0
Dy376 Dy 0.61924 0.02182 0.49788 0.0
C377 C 0.40822 0.05029 0.52944 0.0
C378 C 0.70917 0.98987 0.51779 0.0
Dy379 Dy 0.50243 0.02433 0.52963 0.0
O380 O 0.67838 0.96762 0.48139 0.0
O381 O 0.69267 0.03183 0.53989 0.0
O382 O 0.60822 0.05598 0.42017 0.0
O383 O 0.54793 0.01746 0.46189 0.0
C384 C 0.55918 0.04594 0.42417 0.0
C385 C 0.56459 -0.0063 0.59865 0.0
O386 O 0.49658 0.94382 0.48612 0.0
O387 O 0.58015 0.93354 0.49862 0.0
O388 O 0.42314 0.01486 0.55867 0.0
O389 O 0.44462 0.07138 0.50031 0.0
O390 O 0.51594 0.9825 0.60327 0.0
O391 O 0.57392 0.02669 0.5644 0.0
O392 O 0.62473 0.10864 0.53305 0.0
O393 O 0.53898 0.11124 0.54683 0.0
C394 C 0.53289 0.91348 0.48542 0.0
C395 C 0.58691 0.13437 0.54868 0.0
Dy396 Dy 0.24922 0.28232 0.77571 0.0
C397 C 0.45205 0.25558 0.74545 0.0
C398 C 0.15132 0.27313 0.80232 0.0
Dy399 Dy 0.35556 0.25664 0.77167 0.0
O400 O 0.1835 0.31763 0.80967 0.0
O401 O 0.17214 0.23473 0.77924 0.0
O402 O 0.26842 0.35628 0.72829 0.0
O403 O 0.32244 0.33077 0.77583 0.0
C404 C 0.31569 0.3622 0.74082 0.0
C405 C 0.28848 0.17867 0.81192 0.0
O406 O 0.36085 0.29493 0.85152 0.0
O407 O 0.27504 0.29423 0.86047 0.0
O408 O 0.42298 0.2148 0.76418 0.0
O409 O 0.42898 0.29728 0.7418 0.0
O410 O 0.33579 0.18765 0.824 0.0
O411 O 0.28168 0.20719 0.77428 0.0
O412 O 0.24868 0.24998 0.69167 0.0
O413 O 0.33234 0.23862 0.6881 0.0
C414 C 0.3213 0.30087 0.88031 0.0
C415 C 0.28841 0.23808 0.66528 0.0
Dy416 Dy 0.04561 0.00111 0.46128 0.0
C417 C 0.11722 0.04265 0.66625 0.0
C418 C 1.0044 0.97272 0.36833 0.0
Dy419 Dy 0.0636 0.0357 0.57819 0.0
O420 O 0.04619 0.95834 0.38316 0.0
O421 O 0.98438 0.00026 0.40459 0.0
O422 O 0.11534 0.05714 0.43882 0.0
O423 O 0.1111 0.0232 0.51111 0.0
C424 C 0.13678 0.05755 0.48342 0.0
C425 C 0.96642 0.99001 0.56388 0.0
O426 O 0.0666 0.11785 0.5448 0.0
O427 O 0.02744 0.08563 0.46672 0.0
O428 O 0.07612 0.06346 0.6618 0.0
O429 O 0.13027 0.02169 0.62244 0.0
O430 O 0.98428 0.01294 0.60767 0.0
O431 O 1.0005 -0.00162 0.53036 0.0
O432 O 0.0505 0.91927 0.49047 0.0
O433 O 0.06457 0.94624 0.57773 0.0
C434 C 0.04747 0.12592 0.49934 0.0
C435 C 0.058 0.90887 0.53903 0.0
Dy436 Dy 0.36798 0.7902 0.7638 0.0
C437 C 0.16237 0.73697 0.69307 0.0
C438 C 0.45317 0.81661 0.81778 0.0
Dy439 Dy 0.2521 0.74526 0.74149 0.0
O440 O 0.44441 0.83923 0.77515 0.0
O441 O 0.41528 0.7815 0.83129 0.0
O442 O 0.3898 0.74934 0.68891 0.0
O443 O 0.3193 0.77427 0.69801 0.0
C444 C 0.34565 0.74811 0.66885 0.0
C445 C 0.28168 0.76309 0.84051 0.0
O446 O 0.28581 0.66809 0.73094 0.0
O447 O 0.35745 0.70048 0.77995 0.0
O448 O 0.16777 0.73238 0.74225 0.0
O449 O 0.20546 0.74276 0.67019 0.0
O450 O 0.24131 0.72914 0.82689 0.0
O451 O 0.29809 0.78721 0.80193 0.0
O452 O 0.33714 0.87081 0.76332 0.0
O453 O 0.25267 0.83592 0.74493 0.0
C454 C 0.32789 0.66042 0.75379 0.0
C455 C 0.28959 0.87723 0.7548 0.0
Dy456 Dy 0.5203 0.01046 0.08347 0.0
C457 C 0.5744 0.00912 0.87051 0.0
C458 C 0.47294 0.02604 0.17217 0.0
Dy459 Dy 0.55181 0.02439 0.96941 0.0
O460 O 0.46341 0.98209 0.14178 0.0
O461 O 0.51083 0.05973 0.15645 0.0
O462 O 0.56251 0.93631 0.08564 0.0
O463 O 0.53207 0.95834 0.01818 0.0
C464 C 0.55957 0.92785 0.03562 0.0
C465 C 0.5345 0.11628 0.02077 0.0
O466 O 0.47371 0.98247 0.95601 0.0
O467 O 0.4477 -0.00122 0.04038 0.0
O468 O 0.54212 0.03958 0.88731 0.0
O469 O 0.59552 0.98809 0.90759 0.0
O470 O 0.56591 0.11576 0.98279 0.0
O471 O 0.51197 0.06882 0.02639 0.0
O472 O 0.59591 0.0597 0.09129 0.0
O473 O 0.62532 0.03191 1.01165 0.0
C474 C 0.4384 0.98308 0.99114 0.0
C475 C 0.63296 0.05398 0.05924 0.0
Dy476 Dy 0.31187 0.33054 0.28042 0.0
C477 C 0.27246 0.10318 0.27662 0.0
C478 C 0.27678 0.4189 0.25233 0.0
Dy479 Dy 0.286 0.21033 0.25676 0.0
O480 O 0.3218 0.42189 0.27276 0.0
O481 O 0.25391 0.36929 0.24617 0.0
O482 O 0.31013 0.32884 0.3669 0.0
O483 O 0.32455 0.25932 0.3225 0.0
C484 C 0.31313 0.27681 0.36791 0.0
C485 C 0.29146 0.2714 0.17199 0.0
O486 O 0.21102 0.22393 0.28453 0.0
O487 O 0.23609 0.31261 0.31766 0.0
O488 O 0.27443 0.1217 0.23061 0.0
O489 O 0.27256 0.1435 0.31052 0.0
O490 O 0.3014 0.22154 0.17086 0.0
O491 O 0.274 0.28178 0.21636 0.0
O492 O 0.38265 0.31182 0.23795 0.0
O493 O 0.36873 0.21919 0.25194 0.0
C494 C 0.20288 0.26755 0.31268 0.0
C495 C 0.39709 0.26244 0.23446 0.0
Dy496 Dy 0.54516 0.51242 0.9736 0.0
C497 C 0.60838 0.53211 0.18134 0.0
C498 C 0.5004 0.4884 0.88214 0.0
Dy499 Dy 0.55963 0.53643 0.09147 0.0
O500 O 0.54062 0.47017 0.89584 0.0
O501 O 0.48386 0.51916 0.91843 0.0
O502 O 0.62184 0.55049 0.94502 0.0
O503 O 0.60479 0.55083 0.02312 0.0
C504 C 0.63858 0.56633 0.99109 0.0
C505 C 0.46397 0.49571 0.06168 0.0
O506 O 0.57034 0.62108 0.0633 0.0
O507 O 0.52515 0.59705 0.98754 0.0
O508 O 0.56836 0.55516 0.17727 0.0
O509 O 0.62254 0.51448 0.1367 0.0
O510 O 0.47542 0.53034 0.10128 0.0
O511 O 0.50403 0.48411 0.04223 0.0
O512 O 0.55809 0.42904 0.99628 0.0
O513 O 0.57209 0.45015 0.08414 0.0
C514 C 0.54938 0.63458 0.02075 0.0
C515 C 0.56925 0.41586 0.04325 0.0
Dy516 Dy 0.86702 0.28486 0.28647 0.0
C517 C 0.66461 0.24059 0.21281 0.0
C518 C 0.94722 0.30563 0.34933 0.0
Dy519 Dy 0.75009 0.24023 0.26564 0.0
O520 O 0.94783 0.31998 0.3015 0.0
O521 O 0.90318 0.28197 0.36222 0.0
O522 O 0.88735 0.24346 0.21019 0.0
O523 O 0.81717 0.26804 0.22218 0.0
C524 C 0.84237 0.24197 0.1917 0.0
C525 C 0.78002 0.25791 0.3643 0.0
O526 O 0.78411 0.16373 0.25045 0.0
O527 O 0.8567 0.19428 0.29862 0.0
O528 O 0.66632 0.21686 0.25616 0.0
O529 O 0.70896 0.26066 0.19774 0.0
O530 O 0.7383 0.22591 0.35127 0.0
O531 O 0.79705 0.28106 0.32529 0.0
O532 O 0.83709 0.36591 0.28107 0.0
O533 O 0.75101 0.33072 0.27421 0.0
C534 C 0.82714 0.15549 0.27098 0.0
C535 C 0.78867 0.37211 0.27786 0.0
Dy536 Dy 0.02423 0.51349 0.59648 0.0
C537 C 0.08611 0.52156 0.38609 0.0
C538 C 0.97238 0.52346 0.68444 0.0
Dy539 Dy 0.04997 0.5255 0.48263 0.0
O540 O 0.9638 0.48233 0.65092 0.0
O541 O 1.01128 0.55774 0.67191 0.0
O542 O 0.06354 0.44059 0.60106 0.0
O543 O 0.03175 0.45735 0.5316 0.0
C544 C 0.06011 0.42859 0.55154 0.0
C545 C 1.01103 0.60862 0.53155 0.0
O546 O 0.97694 0.47297 0.47221 0.0
O547 O 0.9524 0.50681 0.55133 0.0
O548 O 0.05915 0.55711 0.4042 0.0
O549 O 0.09398 0.48802 0.42054 0.0
O550 O 1.00583 0.5964 0.48237 0.0
O551 O 0.0419 0.58136 0.54892 0.0
O552 O 0.10403 0.55273 0.60579 0.0
O553 O 0.12557 0.54003 0.5194 0.0
C554 C 0.94187 0.48079 0.50564 0.0
C555 C 0.13757 0.55266 0.56841 0.0
Dy556 Dy 0.74603 0.78679 0.28338 0.0
C557 C 0.95688 0.77322 0.25132 0.0
C558 C 0.64772 0.7752 0.3089 0.0
Dy559 Dy 0.85916 0.76388 0.27547 0.0
O560 O 0.67545 0.82177 0.30096 0.0
O561 O 0.67367 0.73541 0.30302 0.0
O562 O 0.76524 0.8611 0.2362 0.0
O563 O 0.82027 0.83404 0.28109 0.0
C564 C 0.81289 0.8658 0.24662 0.0
C565 C 0.79698 0.67378 0.3004 0.0
O566 O 0.85947 0.7953 0.35818 0.0
O567 O 0.77392 0.80169 0.36692 0.0
O568 O 0.93621 0.74542 0.28878 0.0
O569 O 0.92477 0.79729 0.22814 0.0
O570 O 0.84427 0.67388 0.29121 0.0
O571 O 0.78692 0.72024 0.2917 0.0
O572 O 0.74663 0.74891 0.20175 0.0
O573 O 0.83299 0.75186 0.19252 0.0
C574 C 0.81982 0.80284 0.38671 0.0
C575 C 0.78702 0.74528 0.17279 0.0
Dy576 Dy 0.81899 0.28275 0.7312 0.0
C577 C 0.7651 0.23157 0.93794 0.0
C578 C 0.80644 0.31654 0.6374 0.0
Dy579 Dy 0.77767 0.26009 0.84039 0.0
O580 O 0.83369 0.27891 0.64634 0.0
O581 O 0.78977 0.33775 0.67939 0.0
O582 O 0.89828 0.27558 0.75193 0.0
O583 O 0.83783 0.23558 0.79406 0.0
C584 C 0.88499 0.24982 0.7936 0.0
C585 C 0.71082 0.28748 0.77383 0.0
O586 O 0.83198 0.33565 0.85818 0.0
O587 O 0.85492 0.35875 0.77442 0.0
O588 O 0.74664 0.27179 0.91929 0.0
O589 O 0.79047 0.20727 0.9038 0.0
O590 O 0.69868 0.25949 0.81406 0.0
O591 O 0.75735 0.30574 0.77633 0.0
O592 O 0.77054 0.2032 0.71501 0.0
O593 O 0.7521 0.17975 0.79956 0.0
C594 C 0.85788 0.3673 0.82527 0.0
C595 C 0.7492 0.16967 0.74896 0.0
Dy596 Dy 0.81249 0.84626 0.78816 0.0
C597 C 0.7903 0.61964 0.80029 0.0
C598 C 0.77814 0.93189 0.7522 0.0
Dy599 Dy 0.78554 0.72149 0.77389 0.0
O600 O 0.82387 0.93574 0.77107 0.0
O601 O 0.75353 0.88301 0.75305 0.0
O602 O 0.81302 0.84732 0.87592 0.0
O603 O 0.82563 0.77762 0.83242 0.0
C604 C 0.81607 0.79528 0.87802 0.0
C605 C 0.78847 0.77708 0.68453 0.0
O606 O 0.7172 0.73756 0.81866 0.0
O607 O 0.73663 0.83262 0.82501 0.0
O608 O 0.76505 0.63027 0.7602 0.0
O609 O 0.80973 0.66399 0.82591 0.0
O610 O 0.79616 0.72651 0.68594 0.0
O611 O 0.77378 0.79058 0.72937 0.0
O612 O 0.88124 0.82484 0.74379 0.0
O613 O 0.86735 0.73198 0.75845 0.0
C614 C 0.70779 0.78645 0.83564 0.0
C615 C 0.89502 0.77513 0.73992 0.0
Dy616 Dy 0.50189 0.49315 0.5206 0.0
C617 C 0.71123 0.55162 0.56071 0.0
C618 C 0.40649 0.51142 0.53926 0.0
Dy619 Dy 0.61198 0.55106 0.56508 0.0
O620 O 0.4175 0.47303 0.50594 0.0
O621 O 0.4466 0.53697 0.56169 0.0
O622 O 0.5271 0.48529 0.43629 0.0
O623 O 0.57537 0.51884 0.49506 0.0
C624 C 0.57321 0.50841 0.4472 0.0
C625 C 0.53271 0.54798 0.62767 0.0
O626 O 0.5914 0.62267 0.52987 0.0
O627 O 0.50971 0.58336 0.50423 0.0
O628 O 0.6856 0.55081 0.60348 0.0
O629 O 0.6837 0.5616 0.52263 0.0
O630 O 0.57349 0.58388 0.63554 0.0
O631 O 0.541 0.51326 0.59279 0.0
O632 O 0.53008 0.41914 0.55392 0.0
O633 O 0.61355 0.46131 0.56816 0.0
C634 C 0.54722 0.62517 0.50928 0.0
C635 C 0.57816 0.41777 0.567 0.0
Dy636 Dy 0.10911 0.51638 1.00991 0.0
C637 C 0.90484 0.55549 0.04528 0.0
C638 C 0.20069 0.4858 0.02387 0.0
Dy639 Dy 0.99591 0.52328 0.04739 0.0
O640 O 0.17066 0.46748 0.98554 0.0
O641 O 0.18189 0.52243 0.05195 0.0
O642 O 0.09835 0.5581 0.93699 0.0
O643 O 0.03737 0.51656 0.9765 0.0
C644 C 0.04934 0.54861 0.94127 0.0
C645 C 0.05812 0.48771 0.11329 0.0
O646 O 0.98268 0.44112 1.00754 0.0
O647 O 0.06673 0.42822 1.00062 0.0
O648 O 0.91726 0.52043 0.07652 0.0
O649 O 0.94205 0.57315 0.01575 0.0
O650 O 1.00957 0.47952 0.11985 0.0
O651 O 0.06776 0.52105 0.0792 0.0
O652 O 0.11778 0.60468 0.0441 0.0
O653 O 0.0342 0.60857 0.06731 0.0
C654 C 0.01736 0.40996 0.99686 0.0
C655 C 0.08189 0.63126 0.06396 0.0
loop_
_geom_bond_atom_site_label_1
_geom_bond_atom_site_label_2
_geom_bond_distance
_geom_bond_site_symmetry_2
_ccdc_geom_bond_type
O0 Cd1 2.223 . S
O0 C8 1.315 . S
Cd1 O0 2.223 . S
Cd1 O4 2.297 . S
Cd1 O5 2.439 . S
Cd1 O11 2.240 1_455 S
Cd2 O3 2.240 . S
Cd2 O10 2.223 1_455 S
Cd2 O12 2.297 . S
Cd2 O13 2.439 . S
O3 Cd2 2.240 . S
O3 C8 1.279 . S
O4 Cd1 2.297 . S
O4 C6 1.247 . S
O5 Cd1 2.439 . S
O5 C6 1.208 . S
C6 O4 1.247 . S
C6 O5 1.208 . S
C7 O12 1.247 . S
C7 O13 1.208 . S
C8 O0 1.315 . S
C8 O3 1.279 . S
C9 O10 1.315 . S
C9 O11 1.279 . S
O10 Cd2 2.223 1_655 S
O10 C9 1.315 . S
O11 Cd1 2.240 1_655 S
O11 C9 1.279 . S
O12 Cd2 2.297 . S
O12 C7 1.247 . S
O13 Cd2 2.439 . S
O13 C7 1.208 . S
O14 Cd15 2.223 1_455 S
O14 C22 1.315 1_455 S
Cd15 O14 2.223 1_655 S
Cd15 O18 2.297 . S
Cd15 O19 2.439 . S
Cd15 O25 2.240 1_655 S
Cd16 O17 2.240 1_455 S
Cd16 O24 2.223 . S
Cd16 O26 2.297 . S
Cd16 O27 2.439 . S
O17 Cd16 2.240 1_655 S
O17 C22 1.279 . S
O18 Cd15 2.297 . S
O18 C20 1.247 . S
O19 Cd15 2.439 . S
O19 C20 1.208 . S
C20 O18 1.247 . S
C20 O19 1.208 . S
C21 O26 1.247 . S
C21 O27 1.208 . S
C22 O14 1.315 1_655 S
C22 O17 1.279 . S
C23 O24 1.315 . S
C23 O25 1.279 . S
O24 Cd16 2.223 . S
O24 C23 1.315 . S
O25 Cd15 2.240 1_455 S
O25 C23 1.279 . S
O26 Cd16 2.297 . S
O26 C21 1.247 . S
O27 Cd16 2.439 . S
O27 C21 1.208 . S
O28 Cd29 2.223 . S
O28 C36 1.315 . S
Cd29 O28 2.223 . S
Cd29 O32 2.297 . S
Cd29 O33 2.439 . S
Cd29 O39 2.240 . S
Cd30 O31 2.240 . S
Cd30 O38 2.223 . S
Cd30 O40 2.297 . S
Cd30 O41 2.439 . S
O31 Cd30 2.240 . S
O31 C36 1.279 . S
O32 Cd29 2.297 . S
O32 C34 1.247 . S
O33 Cd29 2.439 . S
O33 C34 1.208 . S
C34 O32 1.247 . S
C34 O33 1.208 . S
C35 O40 1.247 . S
C35 O41 1.208 . S
C36 O28 1.315 . S
C36 O31 1.279 . S
C37 O38 1.315 . S
C37 O39 1.279 . S
O38 Cd30 2.223 . S
O38 C37 1.315 . S
O39 Cd29 2.240 . S
O39 C37 1.279 . S
O40 Cd30 2.297 . S
O40 C35 1.247 . S
O41 Cd30 2.439 . S
O41 C35 1.208 . S
O42 Cd43 2.223 . S
O42 C50 1.315 . S
Cd43 O42 2.223 . S
Cd43 O46 2.297 . S
Cd43 O47 2.439 . S
Cd43 O53 2.240 . S
Cd44 O45 2.240 . S
Cd44 O52 2.223 . S
Cd44 O54 2.297 . S
Cd44 O55 2.439 . S
O45 Cd44 2.240 . S
O45 C50 1.279 . S
O46 Cd43 2.297 . S
O46 C48 1.247 . S
O47 Cd43 2.439 . S
O47 C48 1.208 . S
C48 O46 1.247 . S
C48 O47 1.208 . S
C49 O54 1.247 . S
C49 O55 1.208 . S
C50 O42 1.315 . S
C50 O45 1.279 . S
C51 O52 1.315 . S
C51 O53 1.279 . S
O52 Cd44 2.223 . S
O52 C51 1.315 . S
O53 Cd43 2.240 . S
O53 C51 1.279 . S
O54 Cd44 2.297 . S
O54 C49 1.247 . S
O55 Cd44 2.439 . S
O55 C49 1.208 . S
O56 Cd57 2.223 . S
O56 C64 1.315 . S
Cd57 O56 2.223 . S
Cd57 O60 2.297 1_455 S
Cd57 O61 2.439 1_455 S
Cd57 O67 2.240 . S
Cd58 O59 2.240 . S
Cd58 O66 2.223 . S
Cd58 O68 2.297 . S
Cd58 O69 2.439 . S
O59 Cd58 2.240 . S
O59 C64 1.279 . S
O60 Cd57 2.297 1_655 S
O60 C62 1.247 . S
O61 Cd57 2.439 1_655 S
O61 C62 1.208 . S
C62 O60 1.247 . S
C62 O61 1.208 . S
C63 O68 1.247 . S
C63 O69 1.208 . S
C64 O56 1.315 . S
C64 O59 1.279 . S
C65 O66 1.315 . S
C65 O67 1.279 . S
O66 Cd58 2.223 . S
O66 C65 1.315 . S
O67 Cd57 2.240 . S
O67 C65 1.279 . S
O68 Cd58 2.297 . S
O68 C63 1.247 . S
O69 Cd58 2.439 . S
O69 C63 1.208 . S
O70 Cd71 2.223 . S
O70 C78 1.315 . S
Cd71 O70 2.223 . S
Cd71 O74 2.297 . S
Cd71 O75 2.439 . S
Cd71 O81 2.240 . S
Cd72 O73 2.240 . S
Cd72 O80 2.223 . S
Cd72 O82 2.297 . S
Cd72 O83 2.439 . S
O73 Cd72 2.240 . S
O73 C78 1.279 . S
O74 Cd71 2.297 . S
O74 C76 1.247 . S
O75 Cd71 2.439 . S
O75 C76 1.208 . S
C76 O74 1.247 . S
C76 O75 1.208 . S
C77 O82 1.247 . S
C77 O83 1.208 . S
C78 O70 1.315 . S
C78 O73 1.279 . S
C79 O80 1.315 . S
C79 O81 1.279 . S
O80 Cd72 2.223 . S
O80 C79 1.315 . S
O81 Cd71 2.240 . S
O81 C79 1.279 . S
O82 Cd72 2.297 . S
O82 C77 1.247 . S
O83 Cd72 2.439 . S
O83 C77 1.208 . S
O84 Cd85 2.223 . S
O84 C92 1.315 . S
Cd85 O84 2.223 . S
Cd85 O88 2.297 . S
Cd85 O89 2.439 . S
Cd85 O95 2.240 . S
Cd86 O87 2.240 . S
Cd86 O94 2.223 . S
Cd86 O96 2.297 . S
Cd86 O97 2.439 . S
O87 Cd86 2.240 . S
O87 C92 1.279 . S
O88 Cd85 2.297 . S
O88 C90 1.247 . S
O89 Cd85 2.439 . S
O89 C90 1.208 . S
C90 O88 1.247 . S
C90 O89 1.208 . S
C91 O96 1.247 . S
C91 O97 1.208 . S
C92 O84 1.315 . S
C92 O87 1.279 . S
C93 O94 1.315 . S
C93 O95 1.279 . S
O94 Cd86 2.223 . S
O94 C93 1.315 . S
O95 Cd85 2.240 . S
O95 C93 1.279 . S
O96 Cd86 2.297 . S
O96 C91 1.247 . S
O97 Cd86 2.439 . S
O97 C91 1.208 . S
O98 Cd99 2.223 1_655 S
O98 C106 1.315 . S
Cd99 O98 2.223 1_455 S
Cd99 O102 2.297 . S
Cd99 O103 2.439 . S
Cd99 O109 2.240 1_455 S
Cd100 O101 2.240 1_655 S
Cd100 O108 2.223 . S
Cd100 O110 2.297 . S
Cd100 O111 2.439 1_655 S
O101 Cd100 2.240 1_455 S
O101 C106 1.279 1_455 S
O102 Cd99 2.297 . S
O102 C104 1.247 . S
O103 Cd99 2.439 . S
O103 C104 1.208 . S
C104 O102 1.247 . S
C104 O103 1.208 . S
C105 O110 1.247 1_455 S
C105 O111 1.208 . S
C106 O98 1.315 . S
C106 O101 1.279 1_655 S
C107 O108 1.315 . S
C107 O109 1.279 . S
O108 Cd100 2.223 . S
O108 C107 1.315 . S
O109 Cd99 2.240 1_655 S
O109 C107 1.279 . S
O110 Cd100 2.297 . S
O110 C105 1.247 1_655 S
O111 Cd100 2.439 1_455 S
O111 C105 1.208 . S
O112 Cd113 2.223 1_565 S
O112 C120 1.315 1_565 S
Cd113 O112 2.223 1_545 S
Cd113 O116 2.297 . S
Cd113 O117 2.439 . S
Cd113 O123 2.240 1_545 S
Cd114 O115 2.240 1_565 S
Cd114 O122 2.223 . S
Cd114 O124 2.297 . S
Cd114 O125 2.439 1_565 S
O115 Cd114 2.240 1_545 S
O115 C120 1.279 . S
O116 Cd113 2.297 . S
O116 C118 1.247 . S
O117 Cd113 2.439 . S
O117 C118 1.208 . S
C118 O116 1.247 . S
C118 O117 1.208 . S
C119 O124 1.247 1_545 S
C119 O125 1.208 . S
C120 O112 1.315 1_545 S
C120 O115 1.279 . S
C121 O122 1.315 . S
C121 O123 1.279 . S
O122 Cd114 2.223 . S
O122 C121 1.315 . S
O123 Cd113 2.240 1_565 S
O123 C121 1.279 . S
O124 Cd114 2.297 . S
O124 C119 1.247 1_565 S
O125 Cd114 2.439 1_545 S
O125 C119 1.208 . S
O126 Cd127 2.223 . S
O126 C134 1.315 . S
Cd127 O126 2.223 . S
Cd127 O130 2.297 . S
Cd127 O131 2.439 . S
Cd127 O137 2.240 . S
Cd128 O129 2.240 . S
Cd128 O136 2.223 . S
Cd128 O138 2.297 . S
Cd128 O139 2.439 . S
O129 Cd128 2.240 . S
O129 C134 1.279 . S
O130 Cd127 2.297 . S
O130 C132 1.247 . S
O131 Cd127 2.439 . S
O131 C132 1.208 . S
C132 O130 1.247 . S
C132 O131 1.208 . S
C133 O138 1.247 . S
C133 O139 1.208 . S
C134 O126 1.315 . S
C134 O129 1.279 . S
C135 O136 1.315 . S
C135 O137 1.279 . S
O136 Cd128 2.223 . S
O136 C135 1.315 . S
O137 Cd127 2.240 . S
O137 C135 1.279 . S
O138 Cd128 2.297 . S
O138 C133 1.247 . S
O139 Cd128 2.439 . S
O139 C133 1.208 . S
O140 Cd141 2.223 . S
O140 C148 1.315 . S
Cd141 O140 2.223 . S
Cd141 O144 2.297 1_545 S
Cd141 O145 2.439 1_545 S
Cd141 O151 2.240 . S
Cd142 O143 2.240 1_545 S
Cd142 O150 2.223 . S
Cd142 O152 2.297 . S
Cd142 O153 2.439 1_545 S
O143 Cd142 2.240 1_565 S
O143 C148 1.279 1_565 S
O144 Cd141 2.297 1_565 S
O144 C146 1.247 . S
O145 Cd141 2.439 1_565 S
O145 C146 1.208 . S
C146 O144 1.247 . S
C146 O145 1.208 . S
C147 O152 1.247 . S
C147 O153 1.208 1_545 S
C148 O140 1.315 . S
C148 O143 1.279 1_545 S
C149 O150 1.315 . S
C149 O151 1.279 . S
O150 Cd142 2.223 . S
O150 C149 1.315 . S
O151 Cd141 2.240 . S
O151 C149 1.279 . S
O152 Cd142 2.297 . S
O152 C147 1.247 . S
O153 Cd142 2.439 1_565 S
O153 C147 1.208 1_565 S
O154 Cd155 2.223 . S
O154 C162 1.315 . S
Cd155 O154 2.223 . S
Cd155 O158 2.297 . S
Cd155 O159 2.439 1_554 S
Cd155 O165 2.240 1_554 S
Cd156 O157 2.240 1_556 S
Cd156 O164 2.223 1_556 S
Cd156 O166 2.297 . S
Cd156 O167 2.439 . S
O157 Cd156 2.240 1_554 S
O157 C162 1.279 . S
O158 Cd155 2.297 . S
O158 C160 1.247 . S
O159 Cd155 2.439 1_556 S
O159 C160 1.208 1_556 S
C160 O158 1.247 . S
C160 O159 1.208 1_554 S
C161 O166 1.247 . S
C161 O167 1.208 . S
C162 O154 1.315 . S
C162 O157 1.279 . S
C163 O164 1.315 . S
C163 O165 1.279 1_554 S
O164 Cd156 2.223 1_554 S
O164 C163 1.315 . S
O165 Cd155 2.240 1_556 S
O165 C163 1.279 1_556 S
O166 Cd156 2.297 . S
O166 C161 1.247 . S
O167 Cd156 2.439 . S
O167 C161 1.208 . S
O168 Cd169 2.223 . S
O168 C176 1.315 . S
Cd169 O168 2.223 . S
Cd169 O172 2.297 . S
Cd169 O173 2.439 . S
Cd169 O179 2.240 . S
Cd170 O171 2.255 . S
Cd170 O178 2.228 . S
Cd170 O180 2.280 1_554 S
Cd170 O181 2.424 1_554 S
O171 Cd170 2.255 . S
O171 C176 1.279 . S
O172 Cd169 2.297 . S
O172 C174 1.247 . S
O173 Cd169 2.439 . S
O173 C174 1.208 . S
C174 O172 1.247 . S
C174 O173 1.208 . S
C175 O180 1.247 . S
C175 O181 1.208 . S
C176 O168 1.315 . S
C176 O171 1.279 . S
C177 O178 1.315 . S
C177 O179 1.279 . S
O178 Cd170 2.228 . S
O178 C177 1.315 . S
O179 Cd169 2.240 . S
O179 C177 1.279 . S
O180 Cd170 2.280 1_556 S
O180 C175 1.247 . S
O181 Cd170 2.424 1_556 S
O181 C175 1.208 . S
O182 Cd183 2.223 . S
O182 C190 1.315 . S
Cd183 O182 2.223 . S
Cd183 O186 2.297 . S
Cd183 O187 2.439 . S
Cd183 O193 2.240 . S
Cd184 O185 2.240 . S
Cd184 O192 2.223 . S
Cd184 O194 2.297 1_554 S
Cd184 O195 2.439 1_554 S
O185 Cd184 2.240 . S
O185 C190 1.279 . S
O186 Cd183 2.297 . S
O186 C188 1.247 . S
O187 Cd183 2.439 . S
O187 C188 1.208 . S
C188 O186 1.247 . S
C188 O187 1.208 . S
C189 O194 1.247 . S
C189 O195 1.208 . S
C190 O182 1.315 . S
C190 O185 1.279 . S
C191 O192 1.315 . S
C191 O193 1.279 . S
O192 Cd184 2.223 . S
O192 C191 1.315 . S
O193 Cd183 2.240 . S
O193 C191 1.279 . S
O194 Cd184 2.297 1_556 S
O194 C189 1.247 . S
O195 Cd184 2.439 1_556 S
O195 C189 1.208 . S
O196 Cd197 2.223 . S
O196 C204 1.315 . S
Cd197 O196 2.223 . S
Cd197 O200 2.297 . S
Cd197 O201 2.439 . S
Cd197 O207 2.240 . S
Cd198 O199 2.240 . S
Cd198 O206 2.223 . S
Cd198 O208 2.297 . S
Cd198 O209 2.439 . S
O199 Cd198 2.240 . S
O199 C204 1.279 . S
O200 Cd197 2.297 . S
O200 C202 1.247 . S
O201 Cd197 2.439 . S
O201 C202 1.208 . S
C202 O200 1.247 . S
C202 O201 1.208 . S
C203 O208 1.247 . S
C203 O209 1.208 . S
C204 O196 1.315 . S
C204 O199 1.279 . S
C205 O206 1.315 . S
C205 O207 1.279 . S
O206 Cd198 2.223 . S
O206 C205 1.315 . S
O207 Cd197 2.240 . S
O207 C205 1.279 . S
O208 Cd198 2.297 . S
O208 C203 1.247 . S
O209 Cd198 2.439 . S
O209 C203 1.208 . S
O210 Cd211 2.223 . S
O210 C218 1.315 . S
Cd211 O210 2.223 . S
Cd211 O214 2.297 . S
Cd211 O215 2.439 . S
Cd211 O221 2.240 . S
Cd212 O213 2.240 . S
Cd212 O220 2.223 . S
Cd212 O222 2.297 . S
Cd212 O223 2.439 . S
O213 Cd212 2.240 . S
O213 C218 1.279 . S
O214 Cd211 2.297 . S
O214 C216 1.247 . S
O215 Cd211 2.439 . S
O215 C216 1.208 . S
C216 O214 1.247 . S
C216 O215 1.208 . S
C217 O222 1.247 . S
C217 O223 1.208 . S
C218 O210 1.315 . S
C218 O213 1.279 . S
C219 O220 1.315 . S
C219 O221 1.279 . S
O220 Cd212 2.223 . S
O220 C219 1.315 . S
O221 Cd211 2.240 . S
O221 C219 1.279 . S
O222 Cd212 2.297 . S
O222 C217 1.247 . S
O223 Cd212 2.439 . S
O223 C217 1.208 . S
O224 Cd225 2.223 . S
O224 C232 1.315 . S
Cd225 O224 2.223 . S
Cd225 O228 2.297 . S
Cd225 O229 2.439 . S
Cd225 O235 2.240 1_545 S
Cd226 O227 2.240 . S
Cd226 O234 2.223 1_545 S
Cd226 O236 2.297 1_545 S
Cd226 O237 2.439 . S
O227 Cd226 2.240 . S
O227 C232 1.279 . S
O228 Cd225 2.297 . S
O228 C230 1.247 . S
O229 Cd225 2.439 . S
O229 C230 1.208 . S
C230 O228 1.247 . S
C230 O229 1.208 . S
C231 O236 1.247 1_545 S
C231 O237 1.208 . S
C232 O224 1.315 . S
C232 O227 1.279 . S
C233 O234 1.315 . S
C233 O235 1.279 . S
O234 Cd226 2.223 1_565 S
O234 C233 1.315 . S
O235 Cd225 2.240 1_565 S
O235 C233 1.279 . S
O236 Cd226 2.297 1_565 S
O236 C231 1.247 1_565 S
O237 Cd226 2.439 . S
O237 C231 1.208 . S
O238 Cd239 2.223 . S
O238 C246 1.315 . S
Cd239 O238 2.223 . S
Cd239 O242 2.297 . S
Cd239 O243 2.439 . S
Cd239 O249 2.240 . S
Cd240 O241 2.240 . S
Cd240 O248 2.223 . S
Cd240 O250 2.297 . S
Cd240 O251 2.439 . S
O241 Cd240 2.240 . S
O241 C246 1.279 . S
O242 Cd239 2.297 . S
O242 C244 1.247 . S
O243 Cd239 2.439 . S
O243 C244 1.208 . S
C244 O242 1.247 . S
C244 O243 1.208 . S
C245 O250 1.247 . S
C245 O251 1.208 . S
C246 O238 1.315 . S
C246 O241 1.279 . S
C247 O248 1.315 . S
C247 O249 1.279 . S
O248 Cd240 2.223 . S
O248 C247 1.315 . S
O249 Cd239 2.240 . S
O249 C247 1.279 . S
O250 Cd240 2.297 . S
O250 C245 1.247 . S
O251 Cd240 2.439 . S
O251 C245 1.208 . S
O252 Cd253 2.223 . S
O252 C260 1.315 . S
Cd253 O252 2.223 . S
Cd253 O256 2.297 . S
Cd253 O257 2.439 . S
Cd253 O263 2.240 . S
Cd254 O255 2.240 . S
Cd254 O262 2.223 . S
Cd254 O264 2.297 . S
Cd254 O265 2.439 . S
O255 Cd254 2.240 . S
O255 C260 1.279 . S
O256 Cd253 2.297 . S
O256 C258 1.247 . S
O257 Cd253 2.439 . S
O257 C258 1.208 . S
C258 O256 1.247 . S
C258 O257 1.208 . S
C259 O264 1.247 . S
C259 O265 1.208 . S
C260 O252 1.315 . S
C260 O255 1.279 . S
C261 O262 1.315 . S
C261 O263 1.279 . S
O262 Cd254 2.223 . S
O262 C261 1.315 . S
O263 Cd253 2.240 . S
O263 C261 1.279 . S
O264 Cd254 2.297 . S
O264 C259 1.247 . S
O265 Cd254 2.439 . S
O265 C259 1.208 . S
O266 Cd267 2.223 . S
O266 C274 1.315 . S
Cd267 O266 2.223 . S
Cd267 O270 2.297 1_545 S
Cd267 O271 2.439 1_545 S
Cd267 O277 2.240 . S
Cd268 O269 2.240 . S
Cd268 O276 2.223 . S
Cd268 O278 2.297 . S
Cd268 O279 2.439 . S
O269 Cd268 2.240 . S
O269 C274 1.279 . S
O270 Cd267 2.297 1_565 S
O270 C272 1.247 . S
O271 Cd267 2.439 1_565 S
O271 C272 1.208 . S
C272 O270 1.247 . S
C272 O271 1.208 . S
C273 O278 1.247 . S
C273 O279 1.208 . S
C274 O266 1.315 . S
C274 O269 1.279 . S
C275 O276 1.315 . S
C275 O277 1.279 . S
O276 Cd268 2.223 . S
O276 C275 1.315 . S
O277 Cd267 2.240 . S
O277 C275 1.279 . S
O278 Cd268 2.297 . S
O278 C273 1.247 . S
O279 Cd268 2.439 . S
O279 C273 1.208 . S
O280 Cd281 2.223 . S
O280 C288 1.315 . S
Cd281 O280 2.223 . S
Cd281 O284 2.297 . S
Cd281 O285 2.439 . S
Cd281 O291 2.240 1_554 S
Cd282 O283 2.240 . S
Cd282 O290 2.223 . S
Cd282 O292 2.297 1_554 S
Cd282 O293 2.439 1_554 S
O283 Cd282 2.240 . S
O283 C288 1.279 . S
O284 Cd281 2.297 . S
O284 C286 1.247 . S
O285 Cd281 2.439 . S
O285 C286 1.208 . S
C286 O284 1.247 . S
C286 O285 1.208 . S
C287 O292 1.247 . S
C287 O293 1.208 . S
C288 O280 1.315 . S
C288 O283 1.279 . S
C289 O290 1.315 . S
C289 O291 1.279 1_554 S
O290 Cd282 2.223 . S
O290 C289 1.315 . S
O291 Cd281 2.240 1_556 S
O291 C289 1.279 1_556 S
O292 Cd282 2.297 1_556 S
O292 C287 1.247 . S
O293 Cd282 2.439 1_556 S
O293 C287 1.208 . S
O294 Cd295 2.223 . S
O294 C302 1.315 . S
Cd295 O294 2.223 . S
Cd295 O298 2.297 . S
Cd295 O299 2.439 . S
Cd295 O305 2.240 . S
Cd296 O297 2.240 . S
Cd296 O304 2.223 . S
Cd296 O306 2.297 1_655 S
Cd296 O307 2.439 . S
O297 Cd296 2.240 . S
O297 C302 1.279 . S
O298 Cd295 2.297 . S
O298 C300 1.247 . S
O299 Cd295 2.439 . S
O299 C300 1.208 . S
C300 O298 1.247 . S
C300 O299 1.208 . S
C301 O306 1.247 1_655 S
C301 O307 1.208 . S
C302 O294 1.315 . S
C302 O297 1.279 . S
C303 O304 1.315 . S
C303 O305 1.279 . S
O304 Cd296 2.223 . S
O304 C303 1.315 . S
O305 Cd295 2.240 . S
O305 C303 1.279 . S
O306 Cd296 2.297 1_455 S
O306 C301 1.247 1_455 S
O307 Cd296 2.439 . S
O307 C301 1.208 . S
O308 Cd309 2.223 . S
O308 C316 1.315 . S
Cd309 O308 2.223 . S
Cd309 O312 2.297 . S
Cd309 O313 2.439 . S
Cd309 O319 2.240 . S
Cd310 O311 2.240 . S
Cd310 O318 2.223 . S
Cd310 O320 2.297 . S
Cd310 O321 2.439 . S
O311 Cd310 2.240 . S
O311 C316 1.279 . S
O312 Cd309 2.297 . S
O312 C314 1.247 . S
O313 Cd309 2.439 . S
O313 C314 1.208 . S
C314 O312 1.247 . S
C314 O313 1.208 . S
C315 O320 1.247 . S
C315 O321 1.208 . S
C316 O308 1.315 . S
C316 O311 1.279 . S
C317 O318 1.315 . S
C317 O319 1.279 . S
O318 Cd310 2.223 . S
O318 C317 1.315 . S
O319 Cd309 2.240 . S
O319 C317 1.279 . S
O320 Cd310 2.297 . S
O320 C315 1.247 . S
O321 Cd310 2.439 . S
O321 C315 1.208 . S
O322 Cd323 2.223 . S
O322 C330 1.315 . S
Cd323 O322 2.223 . S
Cd323 O326 2.297 . S
Cd323 O327 2.439 . S
Cd323 O333 2.240 . S
Cd324 O325 2.240 . S
Cd324 O332 2.223 . S
Cd324 O334 2.297 . S
Cd324 O335 2.439 . S
O325 Cd324 2.240 . S
O325 C330 1.279 . S
O326 Cd323 2.297 . S
O326 C328 1.247 . S
O327 Cd323 2.439 . S
O327 C328 1.208 . S
C328 O326 1.247 . S
C328 O327 1.208 . S
C329 O334 1.247 . S
C329 O335 1.208 . S
C330 O322 1.315 . S
C330 O325 1.279 . S
C331 O332 1.315 . S
C331 O333 1.279 . S
O332 Cd324 2.223 . S
O332 C331 1.315 . S
O333 Cd323 2.240 . S
O333 C331 1.279 . S
O334 Cd324 2.297 . S
O334 C329 1.247 . S
O335 Cd324 2.439 . S
O335 C329 1.208 . S
Dy336 O340 2.398 . S
Dy336 O341 2.491 1_556 S
Dy336 O342 2.402 1_545 S
Dy336 O343 2.664 1_655 S
Dy336 O347 2.326 1_655 S
Dy336 O351 2.310 1_656 S
Dy336 O352 2.351 1_546 S
C337 O348 1.185 . S
C337 O349 1.355 . S
C338 O340 1.185 . S
C338 O341 1.355 1_556 S
Dy339 O343 2.310 1_554 S
Dy339 O346 2.351 . S
Dy339 O348 2.398 . S
Dy339 O349 2.491 . S
Dy339 O350 2.403 . S
Dy339 O351 2.664 . S
Dy339 O353 2.326 1_545 S
O340 Dy336 2.398 . S
O340 C338 1.185 . S
O341 Dy336 2.491 1_554 S
O341 C338 1.355 1_554 S
O342 Dy336 2.402 1_565 S
O342 C344 1.256 1_665 S
O343 Dy336 2.664 1_455 S
O343 Dy339 2.310 1_556 S
O343 C344 1.268 . S
C344 O342 1.256 1_445 S
C344 O343 1.268 . S
C345 O350 1.254 . S
C345 O351 1.268 . S
O346 Dy339 2.351 . S
O346 C354 1.249 . S
O347 Dy336 2.326 1_455 S
O347 C354 1.267 1_556 S
O348 C337 1.185 . S
O348 Dy339 2.398 . S
O349 C337 1.355 . S
O349 Dy339 2.491 . S
O350 Dy339 2.403 . S
O350 C345 1.254 . S
O351 Dy336 2.310 1_454 S
O351 Dy339 2.664 . S
O351 C345 1.268 . S
O352 Dy336 2.351 1_564 S
O352 C355 1.249 1_655 S
O353 Dy339 2.326 1_565 S
O353 C355 1.267 . S
C354 O346 1.249 . S
C354 O347 1.267 1_554 S
C355 O352 1.249 1_455 S
C355 O353 1.267 . S
Dy356 O360 2.398 . S
Dy356 O361 2.491 . S
Dy356 O362 2.403 . S
Dy356 O363 2.664 . S
Dy356 O367 2.326 . S
Dy356 O371 2.310 . S
Dy356 O372 2.351 . S
C357 O368 1.185 . S
C357 O369 1.355 . S
C358 O360 1.185 . S
C358 O361 1.355 . S
Dy359 O363 2.310 . S
Dy359 O366 2.351 . S
Dy359 O368 2.398 . S
Dy359 O369 2.491 . S
Dy359 O370 2.403 . S
Dy359 O371 2.664 . S
Dy359 O373 2.326 . S
O360 Dy356 2.398 . S
O360 C358 1.185 . S
O361 Dy356 2.491 . S
O361 C358 1.355 . S
O362 Dy356 2.403 . S
O362 C364 1.254 . S
O363 Dy356 2.664 . S
O363 Dy359 2.310 . S
O363 C364 1.268 . S
C364 O362 1.254 . S
C364 O363 1.268 . S
C365 O370 1.254 . S
C365 O371 1.268 . S
O366 Dy359 2.351 . S
O366 C374 1.249 . S
O367 Dy356 2.326 . S
O367 C374 1.267 . S
O368 C357 1.185 . S
O368 Dy359 2.398 . S
O369 C357 1.355 . S
O369 Dy359 2.491 . S
O370 Dy359 2.403 . S
O370 C365 1.254 . S
O371 Dy356 2.310 . S
O371 Dy359 2.664 . S
O371 C365 1.268 . S
O372 Dy356 2.351 . S
O372 C375 1.249 . S
O373 Dy359 2.326 . S
O373 C375 1.267 . S
C374 O366 1.249 . S
C374 O367 1.267 . S
C375 O372 1.249 . S
C375 O373 1.267 . S
Dy376 O380 2.409 . S
Dy376 O381 2.491 1_545 S
Dy376 O382 2.403 . S
Dy376 O383 2.664 . S
Dy376 O387 2.326 1_545 S
Dy376 O391 2.310 . S
Dy376 O392 2.351 . S
C377 O388 1.185 . S
C377 O389 1.355 . S
C378 O380 1.170 1_565 S
C378 O381 1.355 . S
Dy379 O383 2.310 . S
Dy379 O386 2.351 1_545 S
Dy379 O388 2.398 . S
Dy379 O389 2.491 . S
Dy379 O390 2.403 . S
Dy379 O391 2.664 . S
Dy379 O393 2.326 . S
O380 Dy376 2.409 . S
O380 C378 1.170 1_545 S
O381 Dy376 2.491 1_565 S
O381 C378 1.355 . S
O382 Dy376 2.403 . S
O382 C384 1.254 . S
O383 Dy376 2.664 . S
O383 Dy379 2.310 . S
O383 C384 1.268 . S
C384 O382 1.254 . S
C384 O383 1.268 . S
C385 O390 1.254 . S
C385 O391 1.268 . S
O386 Dy379 2.351 1_565 S
O386 C394 1.249 . S
O387 Dy376 2.326 1_565 S
O387 C394 1.267 . S
O388 C377 1.185 . S
O388 Dy379 2.398 . S
O389 C377 1.355 . S
O389 Dy379 2.491 . S
O390 Dy379 2.403 . S
O390 C385 1.254 . S
O391 Dy376 2.310 . S
O391 Dy379 2.664 . S
O391 C385 1.268 . S
O392 Dy376 2.351 . S
O392 C395 1.249 . S
O393 Dy379 2.326 . S
O393 C395 1.267 . S
C394 O386 1.249 . S
C394 O387 1.267 . S
C395 O392 1.249 . S
C395 O393 1.267 . S
Dy396 O400 2.398 . S
Dy396 O401 2.491 . S
Dy396 O402 2.403 . S
Dy396 O403 2.664 . S
Dy396 O407 2.326 . S
Dy396 O411 2.310 . S
Dy396 O412 2.351 . S
C397 O408 1.185 . S
C397 O409 1.355 . S
C398 O400 1.185 . S
C398 O401 1.355 . S
Dy399 O403 2.310 . S
Dy399 O406 2.351 . S
Dy399 O408 2.398 . S
Dy399 O409 2.491 . S
Dy399 O410 2.403 . S
Dy399 O411 2.664 . S
Dy399 O413 2.326 . S
O400 Dy396 2.398 . S
O400 C398 1.185 . S
O401 Dy396 2.491 . S
O401 C398 1.355 . S
O402 Dy396 2.403 . S
O402 C404 1.254 . S
O403 Dy396 2.664 . S
O403 Dy399 2.310 . S
O403 C404 1.268 . S
C404 O402 1.254 . S
C404 O403 1.268 . S
C405 O410 1.254 . S
C405 O411 1.268 . S
O406 Dy399 2.351 . S
O406 C414 1.249 . S
O407 Dy396 2.326 . S
O407 C414 1.267 . S
O408 C397 1.185 . S
O408 Dy399 2.398 . S
O409 C397 1.355 . S
O409 Dy399 2.491 . S
O410 Dy399 2.403 . S
O410 C405 1.254 . S
O411 Dy396 2.310 . S
O411 Dy399 2.664 . S
O411 C405 1.268 . S
O412 Dy396 2.351 . S
O412 C415 1.249 . S
O413 Dy399 2.326 . S
O413 C415 1.267 . S
C414 O406 1.249 . S
C414 O407 1.267 . S
C415 O412 1.249 . S
C415 O413 1.267 . S
Dy416 O420 2.398 1_565 S
Dy416 O421 2.491 1_465 S
Dy416 O422 2.403 1_565 S
Dy416 O423 2.664 1_565 S
Dy416 O427 2.326 1_565 S
Dy416 O431 2.310 1_465 S
Dy416 O432 2.351 . S
C417 O428 1.185 . S
C417 O429 1.355 . S
C418 O420 1.185 1_655 S
C418 O421 1.355 . S
Dy419 O423 2.310 . S
Dy419 O426 2.351 . S
Dy419 O428 2.398 . S
Dy419 O429 2.491 . S
Dy419 O430 2.403 1_455 S
Dy419 O431 2.664 1_455 S
Dy419 O433 2.326 1_545 S
O420 Dy416 2.398 1_545 S
O420 C418 1.185 1_455 S
O421 Dy416 2.491 1_645 S
O421 C418 1.355 . S
O422 Dy416 2.403 1_545 S
O422 C424 1.254 . S
O423 Dy416 2.664 1_545 S
O423 Dy419 2.310 . S
O423 C424 1.268 . S
C424 O422 1.254 . S
C424 O423 1.268 . S
C425 O430 1.254 . S
C425 O431 1.268 . S
O426 Dy419 2.351 . S
O426 C434 1.249 . S
O427 Dy416 2.326 1_545 S
O427 C434 1.267 . S
O428 C417 1.185 . S
O428 Dy419 2.398 . S
O429 C417 1.355 . S
O429 Dy419 2.491 . S
O430 Dy419 2.403 1_655 S
O430 C425 1.254 . S
O431 Dy416 2.310 1_645 S
O431 Dy419 2.664 1_655 S
O431 C425 1.268 . S
O432 Dy416 2.351 . S
O432 C435 1.249 . S
O433 Dy419 2.326 1_565 S
O433 C435 1.267 . S
C434 O426 1.249 . S
C434 O427 1.267 . S
C435 O432 1.249 . S
C435 O433 1.267 . S
Dy436 O440 2.398 . S
Dy436 O441 2.491 . S
Dy436 O442 2.403 . S
Dy436 O443 2.664 . S
Dy436 O447 2.326 . S
Dy436 O451 2.310 . S
Dy436 O452 2.351 . S
C437 O448 1.185 . S
C437 O449 1.355 . S
C438 O440 1.185 . S
C438 O441 1.355 . S
Dy439 O443 2.310 . S
Dy439 O446 2.351 . S
Dy439 O448 2.398 . S
Dy439 O449 2.491 . S
Dy439 O450 2.403 . S
Dy439 O451 2.664 . S
Dy439 O453 2.326 . S
O440 Dy436 2.398 . S
O440 C438 1.185 . S
O441 Dy436 2.491 . S
O441 C438 1.355 . S
O442 Dy436 2.403 . S
O442 C444 1.254 . S
O443 Dy436 2.664 . S
O443 Dy439 2.310 . S
O443 C444 1.268 . S
C444 O442 1.254 . S
C444 O443 1.268 . S
C445 O450 1.254 . S
C445 O451 1.268 . S
O446 Dy439 2.351 . S
O446 C454 1.249 . S
O447 Dy436 2.326 . S
O447 C454 1.267 . S
O448 C437 1.185 . S
O448 Dy439 2.398 . S
O449 C437 1.355 . S
O449 Dy439 2.491 . S
O450 Dy439 2.403 . S
O450 C445 1.254 . S
O451 Dy436 2.310 . S
O451 Dy439 2.664 . S
O451 C445 1.268 . S
O452 Dy436 2.351 . S
O452 C455 1.249 . S
O453 Dy439 2.326 . S
O453 C455 1.267 . S
C454 O446 1.249 . S
C454 O447 1.267 . S
C455 O452 1.249 . S
C455 O453 1.267 . S
Dy456 O460 2.398 1_545 S
Dy456 O461 2.491 . S
Dy456 O462 2.403 1_545 S
Dy456 O463 2.664 1_544 S
Dy456 O467 2.326 1_545 S
Dy456 O471 2.310 . S
Dy456 O472 2.351 . S
C457 O468 1.185 . S
C457 O469 1.355 . S
C458 O460 1.185 . S
C458 O461 1.355 1_565 S
Dy459 O463 2.310 1_545 S
Dy459 O466 2.351 1_545 S
Dy459 O468 2.398 . S
Dy459 O469 2.491 . S
Dy459 O470 2.403 . S
Dy459 O471 2.664 1_556 S
Dy459 O473 2.326 . S
O460 Dy456 2.398 1_565 S
O460 C458 1.185 . S
O461 Dy456 2.491 . S
O461 C458 1.355 1_545 S
O462 Dy456 2.403 1_565 S
O462 C464 1.254 . S
O463 Dy456 2.664 1_566 S
O463 Dy459 2.310 1_565 S
O463 C464 1.268 1_556 S
C464 O462 1.254 . S
C464 O463 1.268 1_554 S
C465 O470 1.254 1_554 S
C465 O471 1.268 . S
O466 Dy459 2.351 1_565 S
O466 C474 1.249 1_556 S
O467 Dy456 2.326 1_565 S
O467 C474 1.267 . S
O468 C457 1.185 . S
O468 Dy459 2.398 . S
O469 C457 1.355 . S
O469 Dy459 2.491 . S
O470 Dy459 2.403 . S
O470 C465 1.254 1_556 S
O471 Dy456 2.310 . S
O471 Dy459 2.664 1_554 S
O471 C465 1.268 . S
O472 Dy456 2.351 . S
O472 C475 1.249 . S
O473 Dy459 2.326 . S
O473 C475 1.267 1_556 S
C474 O466 1.249 1_554 S
C474 O467 1.267 . S
C475 O472 1.249 . S
C475 O473 1.267 1_554 S
Dy476 O480 2.398 . S
Dy476 O481 2.491 . S
Dy476 O482 2.403 . S
Dy476 O483 2.664 . S
Dy476 O487 2.326 . S
Dy476 O491 2.310 . S
Dy476 O492 2.351 . S
C477 O488 1.185 . S
C477 O489 1.355 . S
C478 O480 1.185 . S
C478 O481 1.355 . S
Dy479 O483 2.310 . S
Dy479 O486 2.351 . S
Dy479 O488 2.398 . S
Dy479 O489 2.491 . S
Dy479 O490 2.403 . S
Dy479 O491 2.664 . S
Dy479 O493 2.326 . S
O480 Dy476 2.398 . S
O480 C478 1.185 . S
O481 Dy476 2.491 . S
O481 C478 1.355 . S
O482 Dy476 2.403 . S
O482 C484 1.254 . S
O483 Dy476 2.664 . S
O483 Dy479 2.310 . S
O483 C484 1.268 . S
C484 O482 1.254 . S
C484 O483 1.268 . S
C485 O490 1.254 . S
C485 O491 1.268 . S
O486 Dy479 2.351 . S
O486 C494 1.249 . S
O487 Dy476 2.326 . S
O487 C494 1.267 . S
O488 C477 1.185 . S
O488 Dy479 2.398 . S
O489 C477 1.355 . S
O489 Dy479 2.491 . S
O490 Dy479 2.403 . S
O490 C485 1.254 . S
O491 Dy476 2.310 . S
O491 Dy479 2.664 . S
O491 C485 1.268 . S
O492 Dy476 2.351 . S
O492 C495 1.249 . S
O493 Dy479 2.326 . S
O493 C495 1.267 . S
C494 O486 1.249 . S
C494 O487 1.267 . S
C495 O492 1.249 . S
C495 O493 1.267 . S
Dy496 O500 2.398 . S
Dy496 O501 2.491 . S
Dy496 O502 2.403 . S
Dy496 O503 2.664 1_556 S
Dy496 O507 2.326 . S
Dy496 O511 2.310 1_556 S
Dy496 O512 2.351 1_556 S
C497 O508 1.185 . S
C497 O509 1.355 . S
C498 O500 1.185 . S
C498 O501 1.355 . S
Dy499 O503 2.310 . S
Dy499 O506 2.351 . S
Dy499 O508 2.398 . S
Dy499 O509 2.491 . S
Dy499 O510 2.403 . S
Dy499 O511 2.664 . S
Dy499 O513 2.326 . S
O500 Dy496 2.398 . S
O500 C498 1.185 . S
O501 Dy496 2.491 . S
O501 C498 1.355 . S
O502 Dy496 2.403 . S
O502 C504 1.254 1_556 S
O503 Dy496 2.664 1_554 S
O503 Dy499 2.310 . S
O503 C504 1.268 . S
C504 O502 1.254 1_554 S
C504 O503 1.268 . S
C505 O510 1.254 . S
C505 O511 1.268 . S
O506 Dy499 2.351 . S
O506 C514 1.249 1_554 S
O507 Dy496 2.326 . S
O507 C514 1.267 . S
O508 C497 1.185 . S
O508 Dy499 2.398 . S
O509 C497 1.355 . S
O509 Dy499 2.491 . S
O510 Dy499 2.403 . S
O510 C505 1.254 . S
O511 Dy496 2.310 1_554 S
O511 Dy499 2.664 . S
O511 C505 1.268 . S
O512 Dy496 2.351 1_554 S
O512 C515 1.249 . S
O513 Dy499 2.326 . S
O513 C515 1.267 . S
C514 O506 1.249 1_556 S
C514 O507 1.267 . S
C515 O512 1.249 . S
C515 O513 1.267 . S
Dy516 O520 2.398 . S
Dy516 O521 2.491 . S
Dy516 O522 2.403 . S
Dy516 O523 2.664 . S
Dy516 O527 2.326 . S
Dy516 O531 2.310 . S
Dy516 O532 2.351 . S
C517 O528 1.185 . S
C517 O529 1.355 . S
C518 O520 1.185 . S
C518 O521 1.355 . S
Dy519 O523 2.310 . S
Dy519 O526 2.351 . S
Dy519 O528 2.398 . S
Dy519 O529 2.491 . S
Dy519 O530 2.403 . S
Dy519 O531 2.664 . S
Dy519 O533 2.326 . S
O520 Dy516 2.398 . S
O520 C518 1.185 . S
O521 Dy516 2.491 . S
O521 C518 1.355 . S
O522 Dy516 2.403 . S
O522 C524 1.254 . S
O523 Dy516 2.664 . S
O523 Dy519 2.310 . S
O523 C524 1.268 . S
C524 O522 1.254 . S
C524 O523 1.268 . S
C525 O530 1.254 . S
C525 O531 1.268 . S
O526 Dy519 2.351 . S
O526 C534 1.249 . S
O527 Dy516 2.326 . S
O527 C534 1.267 . S
O528 C517 1.185 . S
O528 Dy519 2.398 . S
O529 C517 1.355 . S
O529 Dy519 2.491 . S
O530 Dy519 2.403 . S
O530 C525 1.254 . S
O531 Dy516 2.310 . S
O531 Dy519 2.664 . S
O531 C525 1.268 . S
O532 Dy516 2.351 . S
O532 C535 1.249 . S
O533 Dy519 2.326 . S
O533 C535 1.267 . S
C534 O526 1.249 . S
C534 O527 1.267 . S
C535 O532 1.249 . S
C535 O533 1.267 . S
Dy536 O540 2.398 1_455 S
Dy536 O541 2.491 1_455 S
Dy536 O542 2.403 . S
Dy536 O543 2.664 . S
Dy536 O547 2.326 1_455 S
Dy536 O551 2.310 . S
Dy536 O552 2.351 . S
C537 O548 1.185 . S
C537 O549 1.355 . S
C538 O540 1.185 . S
C538 O541 1.355 . S
Dy539 O543 2.310 . S
Dy539 O546 2.351 1_455 S
Dy539 O548 2.398 . S
Dy539 O549 2.491 . S
Dy539 O550 2.403 . S
Dy539 O551 2.664 . S
Dy539 O553 2.326 . S
O540 Dy536 2.398 1_655 S
O540 C538 1.185 . S
O541 Dy536 2.491 1_655 S
O541 C538 1.355 . S
O542 Dy536 2.403 . S
O542 C544 1.254 . S
O543 Dy536 2.664 . S
O543 Dy539 2.310 . S
O543 C544 1.268 . S
C544 O542 1.254 . S
C544 O543 1.268 . S
C545 O550 1.254 . S
C545 O551 1.268 . S
O546 Dy539 2.351 1_655 S
O546 C554 1.249 . S
O547 Dy536 2.326 1_655 S
O547 C554 1.267 . S
O548 C537 1.185 . S
O548 Dy539 2.398 . S
O549 C537 1.355 . S
O549 Dy539 2.491 . S
O550 Dy539 2.403 . S
O550 C545 1.254 . S
O551 Dy536 2.310 . S
O551 Dy539 2.664 . S
O551 C545 1.268 . S
O552 Dy536 2.351 . S
O552 C555 1.249 . S
O553 Dy539 2.326 . S
O553 C555 1.267 . S
C554 O546 1.249 . S
C554 O547 1.267 . S
C555 O552 1.249 . S
C555 O553 1.267 . S
Dy556 O560 2.398 . S
Dy556 O561 2.491 . S
Dy556 O562 2.403 . S
Dy556 O563 2.664 . S
Dy556 O567 2.326 . S
Dy556 O571 2.310 . S
Dy556 O572 2.351 . S
C557 O568 1.185 . S
C557 O569 1.355 . S
C558 O560 1.185 . S
C558 O561 1.355 . S
Dy559 O563 2.310 . S
Dy559 O566 2.351 . S
Dy559 O568 2.398 . S
Dy559 O569 2.491 . S
Dy559 O570 2.403 . S
Dy559 O571 2.664 . S
Dy559 O573 2.326 . S
O560 Dy556 2.398 . S
O560 C558 1.185 . S
O561 Dy556 2.491 . S
O561 C558 1.355 . S
O562 Dy556 2.403 . S
O562 C564 1.254 . S
O563 Dy556 2.664 . S
O563 Dy559 2.310 . S
O563 C564 1.268 . S
C564 O562 1.254 . S
C564 O563 1.268 . S
C565 O570 1.254 . S
C565 O571 1.268 . S
O566 Dy559 2.351 . S
O566 C574 1.249 . S
O567 Dy556 2.326 . S
O567 C574 1.267 . S
O568 C557 1.185 . S
O568 Dy559 2.398 . S
O569 C557 1.355 . S
O569 Dy559 2.491 . S
O570 Dy559 2.403 . S
O570 C565 1.254 . S
O571 Dy556 2.310 . S
O571 Dy559 2.664 . S
O571 C565 1.268 . S
O572 Dy556 2.351 . S
O572 C575 1.249 . S
O573 Dy559 2.326 . S
O573 C575 1.267 . S
C574 O566 1.249 . S
C574 O567 1.267 . S
C575 O572 1.249 . S
C575 O573 1.267 . S
Dy576 O580 2.398 . S
Dy576 O581 2.491 . S
Dy576 O582 2.403 . S
Dy576 O583 2.664 . S
Dy576 O587 2.326 . S
Dy576 O591 2.310 . S
Dy576 O592 2.351 . S
C577 O588 1.185 . S
C577 O589 1.355 . S
C578 O580 1.185 . S
C578 O581 1.355 . S
Dy579 O583 2.310 . S
Dy579 O586 2.351 . S
Dy579 O588 2.398 . S
Dy579 O589 2.491 . S
Dy579 O590 2.403 . S
Dy579 O591 2.664 . S
Dy579 O593 2.326 . S
O580 Dy576 2.398 . S
O580 C578 1.185 . S
O581 Dy576 2.491 . S
O581 C578 1.355 . S
O582 Dy576 2.403 . S
O582 C584 1.254 . S
O583 Dy576 2.664 . S
O583 Dy579 2.310 . S
O583 C584 1.268 . S
C584 O582 1.254 . S
C584 O583 1.268 . S
C585 O590 1.254 . S
C585 O591 1.268 . S
O586 Dy579 2.351 . S
O586 C594 1.249 . S
O587 Dy576 2.326 . S
O587 C594 1.267 . S
O588 C577 1.185 . S
O588 Dy579 2.398 . S
O589 C577 1.355 . S
O589 Dy579 2.491 . S
O590 Dy579 2.403 . S
O590 C585 1.254 . S
O591 Dy576 2.310 . S
O591 Dy579 2.664 . S
O591 C585 1.268 . S
O592 Dy576 2.351 . S
O592 C595 1.249 . S
O593 Dy579 2.326 . S
O593 C595 1.267 . S
C594 O586 1.249 . S
C594 O587 1.267 . S
C595 O592 1.249 . S
C595 O593 1.267 . S
Dy596 O600 2.398 . S
Dy596 O601 2.491 . S
Dy596 O602 2.403 . S
Dy596 O603 2.664 . S
Dy596 O607 2.326 . S
Dy596 O611 2.310 . S
Dy596 O612 2.351 . S
C597 O608 1.185 . S
C597 O609 1.355 . S
C598 O600 1.185 . S
C598 O601 1.355 . S
Dy599 O603 2.310 . S
Dy599 O606 2.351 . S
Dy599 O608 2.398 . S
Dy599 O609 2.491 . S
Dy599 O610 2.403 . S
Dy599 O611 2.664 . S
Dy599 O613 2.326 . S
O600 Dy596 2.398 . S
O600 C598 1.185 . S
O601 Dy596 2.491 . S
O601 C598 1.355 . S
O602 Dy596 2.403 . S
O602 C604 1.254 . S
O603 Dy596 2.664 . S
O603 Dy599 2.310 . S
O603 C604 1.268 . S
C604 O602 1.254 . S
C604 O603 1.268 . S
C605 O610 1.254 . S
C605 O611 1.268 . S
O606 Dy599 2.351 . S
O606 C614 1.249 . S
O607 Dy596 2.326 . S
O607 C614 1.267 . S
O608 C597 1.185 . S
O608 Dy599 2.398 . S
O609 C597 1.355 . S
O609 Dy599 2.491 . S
O610 Dy599 2.403 . S
O610 C605 1.254 . S
O611 Dy596 2.310 . S
O611 Dy599 2.664 . S
O611 C605 1.268 . S
O612 Dy596 2.351 . S
O612 C615 1.249 . S
O613 Dy599 2.326 . S
O613 C615 1.267 . S
C614 O606 1.249 . S
C614 O607 1.267 . S
C615 O612 1.249 . S
C615 O613 1.267 . S
Dy616 O620 2.398 . S
Dy616 O621 2.491 . S
Dy616 O622 2.403 . S
Dy616 O623 2.664 . S
Dy616 O627 2.326 . S
Dy616 O631 2.310 . S
Dy616 O632 2.351 . S
C617 O628 1.185 . S
C617 O629 1.355 . S
C618 O620 1.185 . S
C618 O621 1.355 . S
Dy619 O623 2.310 . S
Dy619 O626 2.351 . S
Dy619 O628 2.398 . S
Dy619 O629 2.491 . S
Dy619 O630 2.403 . S
Dy619 O631 2.664 . S
Dy619 O633 2.326 . S
O620 Dy616 2.398 . S
O620 C618 1.185 . S
O621 Dy616 2.491 . S
O621 C618 1.355 . S
O622 Dy616 2.403 . S
O622 C624 1.254 . S
O623 Dy616 2.664 . S
O623 Dy619 2.310 . S
O623 C624 1.268 . S
C624 O622 1.254 . S
C624 O623 1.268 . S
C625 O630 1.254 . S
C625 O631 1.268 . S
O626 Dy619 2.351 . S
O626 C634 1.249 . S
O627 Dy616 2.326 . S
O627 C634 1.267 . S
O628 C617 1.185 . S
O628 Dy619 2.398 . S
O629 C617 1.355 . S
O629 Dy619 2.491 . S
O630 Dy619 2.403 . S
O630 C625 1.254 . S
O631 Dy616 2.310 . S
O631 Dy619 2.664 . S
O631 C625 1.268 . S
O632 Dy616 2.351 . S
O632 C635 1.249 . S
O633 Dy619 2.326 . S
O633 C635 1.267 . S
C634 O626 1.249 . S
C634 O627 1.267 . S
C635 O632 1.249 . S
C635 O633 1.267 . S
Dy636 O640 2.398 1_554 S
Dy636 O641 2.491 . S
Dy636 O642 2.403 1_554 S
Dy636 O643 2.664 1_554 S
Dy636 O647 2.326 1_554 S
Dy636 O651 2.310 . S
Dy636 O652 2.351 . S
C637 O648 1.185 . S
C637 O649 1.355 . S
C638 O640 1.185 1_554 S
C638 O641 1.355 . S
Dy639 O643 2.310 1_654 S
Dy639 O646 2.351 . S
Dy639 O648 2.398 . S
Dy639 O649 2.491 . S
Dy639 O650 2.412 . S
Dy639 O651 2.664 1_655 S
Dy639 O653 2.326 1_655 S
O640 Dy636 2.398 1_556 S
O640 C638 1.185 1_556 S
O641 Dy636 2.491 . S
O641 C638 1.355 . S
O642 Dy636 2.403 1_556 S
O642 C644 1.254 . S
O643 Dy636 2.664 1_556 S
O643 Dy639 2.310 1_456 S
O643 C644 1.268 . S
C644 O642 1.254 . S
C644 O643 1.268 . S
C645 O650 1.230 1_455 S
C645 O651 1.268 . S
O646 Dy639 2.351 . S
O646 C654 1.249 1_655 S
O647 Dy636 2.326 1_556 S
O647 C654 1.267 1_556 S
O648 C637 1.185 . S
O648 Dy639 2.398 . S
O649 C637 1.355 . S
O649 Dy639 2.491 . S
O650 Dy639 2.412 . S
O650 C645 1.230 1_655 S
O651 Dy636 2.310 . S
O651 Dy639 2.664 1_455 S
O651 C645 1.268 . S
O652 Dy636 2.351 . S
O652 C655 1.249 . S
O653 Dy639 2.326 1_455 S
O653 C655 1.267 . S
C654 O646 1.249 1_455 S
C654 O647 1.267 1_554 S
C655 O652 1.249 . S
C655 O653 1.267 . S
C106 C354 2.973 1_656 S
C65 C365 2.468 . S
C79 C394 2.208 . S
C397 C90 1.047 . S
C21 C435 1.449 . S
C438 C35 1.829 . S
C465 C50 2.133 . S
C6 C494 2.173 . S
C345 C232 3.056 1_455 S
C245 C357 1.262 . S
C385 C274 2.077 . S
C414 C175 1.392 . S
C231 C418 1.112 . S
C444 C246 2.188 . S
C457 C273 0.434 . S
C485 C176 2.671 . S
C337 C160 2.166 1_545 S
C289 C504 2.431 . S
C535 C328 1.981 . S
C554 C317 1.363 . S
C118 C477 2.241 . S
C132 C377 1.836 . S
C331 C565 2.063 . S
C594 C303 1.736 . S
C355 C63 2.234 . S
C584 C107 3.041 . S
C92 C395 1.454 . S
C78 C558 1.974 . S
C434 C8 2.456 . S
C51 C517 1.993 . S
C464 C37 2.744 1_554 S
C615 C20 1.985 . S
C344 C147 1.969 . S
C578 C316 1.710 . S
C119 C384 1.618 . S
C288 C575 1.465 . S
C148 C417 1.963 . S
C525 C315 1.795 . S
C120 C458 1.214 1_545 S
C287 C604 2.054 . S
C188 C338 2.300 1_554 S
C177 C505 2.491 . S
C258 C454 2.254 . S
C247 C555 1.167 . S
C598 C272 2.297 . S
C216 C378 2.167 . S
C404 C261 2.302 . S
C375 C205 1.454 . S
C76 C634 1.985 . S
C585 C93 2.593 . S
C105 C654 1.377 1_556 S
C62 C557 1.101 . S
C49 C515 1.394 . S
C518 C9 2.816 . S
C545 C22 2.026 1_455 S
C614 C36 3.070 . S
C625 C260 2.999 . S
C189 C577 0.903 . S
C645 C204 2.083 . S
C574 C217 1.302 . S
C498 C259 1.464 . S
C190 C524 2.200 . S
C537 C203 0.666 . S
C218 C605 2.733 . S
C617 C314 2.147 . S
C135 C424 2.352 . S
C455 C146 1.969 . S
C474 C163 1.292 . S
C597 C300 2.201 . S
C286 C637 1.877 . S
C405 C149 2.106 . S
C374 C121 1.981 . S
C91 C635 2.311 . S
C364 C77 2.034 . S
C64 C655 1.350 . S
C104 C398 1.531 . S
C34 C514 1.895 . S
C437 C23 1.889 . S
C7 C544 1.730 . S
C48 C495 1.979 . S
C624 C329 1.831 . S
C162 C358 1.539 . S
C644 C301 1.498 1_455 S
C134 C415 1.455 . S
C330 C497 1.846 . S
C445 C161 1.695 . S
C302 C538 1.101 . S
C484 C133 1.946 . S
C618 C244 2.253 . S
C425 C219 2.574 1_545 S
C230 C534 2.199 . S
C475 C191 1.150 . S
C202 C478 2.225 . S
C174 C638 2.127 . S
C564 C233 2.403 . S
C595 C275 1.657 . S
