# Generated by pormake.
# Topology pth, (4,4)-cn, num edge types: 1
# Building blocks:
#     Node 0, Type 0, BuildingBlock: UXUYUI_clean_sbu_0, # of connection points: 4
#     Node 1, Type 0, BuildingBlock: UXUYUI_clean_sbu_0, # of connection points: 4
#     Node 2, Type 0, BuildingBlock: UXUYUI_clean_sbu_0, # of connection points: 4
#     Node 3, Type 1, BuildingBlock: MUDLON_clean_sbu_0, # of connection points: 4
#     Node 4, Type 1, BuildingBlock: MUDLON_clean_sbu_0, # of connection points: 4
#     Node 5, Type 1, BuildingBlock: MUDLON_clean_sbu_0, # of connection points: 4
#     Edge 6, Type (0, 1), BuildingBlock: AJUNOK_clean_linker_0, # of connection points: 2
#     Edge 7, Type (0, 1), BuildingBlock: AJUNOK_clean_linker_0, # of connection points: 2
#     Edge 8, Type (0, 1), BuildingBlock: AJUNOK_clean_linker_0, # of connection points: 2
#     Edge 9, Type (0, 1), BuildingBlock: AJUNOK_clean_linker_0, # of connection points: 2
#     Edge 10, Type (0, 1), BuildingBlock: AJUNOK_clean_linker_0, # of connection points: 2
#     Edge 11, Type (0, 1), BuildingBlock: AJUNOK_clean_linker_0, # of connection points: 2
#     Edge 12, Type (0, 1), BuildingBlock: AJUNOK_clean_linker_0, # of connection points: 2
#     Edge 13, Type (0, 1), BuildingBlock: AJUNOK_clean_linker_0, # of connection points: 2
#     Edge 14, Type (0, 1), BuildingBlock: AJUNOK_clean_linker_0, # of connection points: 2
#     Edge 15, Type (0, 1), BuildingBlock: AJUNOK_clean_linker_0, # of connection points: 2
#     Edge 16, Type (0, 1), BuildingBlock: AJUNOK_clean_linker_0, # of connection points: 2
#     Edge 17, Type (0, 1), BuildingBlock: AJUNOK_clean_linker_0, # of connection points: 2
# Relax obj value: 0.110
# Max RMSD: 0.229
# Mean RMSD: 0.139
data_MOF--net-pth--node1-UXUYUI_clean_sbu_0--node2-MUDLON_clean_sbu_0--edge1-AJUNOK_clean_linker_0
_symmetry_space_group_name_H-M    P1
_symmetry_Int_Tables_number       1
_symmetry_cell_setting            triclinic
loop_
_symmetry_equiv_pos_as_xyz
'x, y, z'
_cell_length_a     21.923157
_cell_length_b     21.906604
_cell_length_c     57.42687
_cell_angle_alpha  90.013226
_cell_angle_beta   89.990098
_cell_angle_gamma 119.83712
loop_
_atom_site_label
_atom_site_type_symbol
_atom_site_fract_x
_atom_site_fract_y
_atom_site_fract_z
_atom_type_partial_charge
Li0 Li 0.07968 0.05879 0.07334 0.0
Li1 Li 0.99659 0.05439 0.10434 0.0
Li2 Li 0.03795 0.96841 0.10168 0.0
Li3 Li 0.95751 0.96276 0.07269 0.0
C4 C 0.15795 0.12892 0.10853 0.0
N5 N 0.28847 0.24917 0.10781 0.0
C6 C 0.16346 0.19507 0.11051 0.0
C7 C 0.21874 0.12382 0.10635 0.0
C8 C 0.22997 0.25527 0.11008 0.0
C9 C 0.28426 0.18527 0.10596 0.0
C10 C 0.95596 0.06808 0.05135 0.0
C11 C 0.84716 0.05026 0.03479 0.0
N12 N 0.87645 0.06243 1.0132 0.0
C13 C 0.98491 0.08017 0.02899 0.0
C14 C 0.88649 0.05287 0.05429 0.0
C15 C 0.94391 0.07723 1.00993 0.0
C16 C 0.19909 0.10369 0.04326 0.0
N17 N 0.15618 0.12292 0.05421 0.0
C18 C 0.21735 0.2371 0.03696 0.0
C19 C 0.16423 0.18805 0.0513 0.0
C20 C 0.2631 0.21922 0.02559 0.0
C21 C 0.25329 0.15136 0.02878 0.0
H22 H 0.19092 0.05124 0.04557 0.0
H23 H 0.12854 0.20145 0.05988 0.0
C24 C 1.00103 0.11808 0.14691 0.0
N25 N 0.97285 0.10747 0.12521 0.0
C26 C 0.98679 0.15615 0.1634 0.0
C27 C 0.91487 0.17228 0.13495 0.0
C28 C 0.93063 0.13383 0.11894 0.0
C29 C 0.94328 0.18398 0.15752 0.0
H30 H 0.03514 0.09731 0.15135 0.0
H31 H 0.90928 0.12524 0.10154 0.0
C32 C 0.06104 0.90652 0.06578 0.0
N33 N 0.09553 0.80142 0.06274 0.0
C34 C 1.01123 0.83937 0.05806 0.0
C35 C 0.12848 0.92031 0.07185 0.0
C36 C 0.0297 0.78694 0.05664 0.0
C37 C 0.14483 0.86642 0.07024 0.0
C38 C 0.91333 0.89747 0.12239 0.0
C39 C 0.87356 0.82729 0.11534 0.0
C40 C 0.92844 0.91334 0.14599 0.0
C41 C 0.85002 0.77399 0.13206 0.0
C42 C 0.90425 0.85852 0.16217 0.0
N43 N 0.86586 0.79058 0.15492 0.0
C44 C 0.10486 0.94714 0.14045 0.0
C45 C 0.03077 0.84212 0.11986 0.0
C46 C 0.11533 0.90898 0.15797 0.0
N47 N 0.06192 0.91327 0.12211 0.0
C48 C 0.04004 0.80199 0.13691 0.0
C49 C 0.08105 0.83526 0.15661 0.0
H50 H 0.12839 1.00357 0.14207 0.0
H51 H 0.99551 0.81587 0.10552 0.0
C52 C 0.89755 0.89868 0.02992 0.0
N53 N 0.88158 0.90535 0.05232 0.0
C54 C 0.84463 0.85466 1.01449 0.0
C55 C 0.75941 0.82698 0.04523 0.0
C56 C 0.81402 0.87191 0.06006 0.0
C57 C 0.77477 0.81689 0.02227 0.0
H58 H 0.95178 0.92636 0.02423 0.0
H59 H 0.80277 0.87915 0.07786 0.0
O60 O 0.09328 0.0695 0.10817 0.0
O61 O 0.9946 0.06874 0.07015 0.0
O62 O 0.04405 0.95862 0.06715 0.0
O63 O 0.93824 0.9503 0.10622 0.0
H64 H 0.11688 0.19995 0.11201 0.0
H65 H 0.21529 0.07298 0.1048 0.0
H66 H 0.23505 0.30685 0.11144 0.0
H67 H 0.33176 0.18217 0.10415 0.0
H68 H 0.7932 0.03808 0.03681 0.0
H69 H 0.03813 0.0908 0.0263 0.0
H70 H 0.86261 0.04155 0.07138 0.0
H71 H 0.96558 0.08631 0.99253 0.0
H72 H 0.22159 0.28805 0.03443 0.0
H73 H 0.28714 0.13543 0.0202 0.0
H74 H 1.01047 0.16464 0.18051 0.0
H75 H 0.88045 0.19211 0.12978 0.0
H76 H 0.95868 0.82757 0.05342 0.0
H77 H 0.16749 0.9718 0.07801 0.0
H78 H 0.99161 0.73467 0.05079 0.0
H79 H 0.19668 0.87624 0.07501 0.0
H80 H 0.86204 0.81403 0.09711 0.0
H81 H 0.95945 0.96731 0.15172 0.0
H82 H 0.81961 0.71943 0.12684 0.0
H83 H 0.91619 0.86999 0.18046 0.0
H84 H 0.14763 0.93655 0.17288 0.0
H85 H 0.0119 0.74517 0.1354 0.0
H86 H 0.85854 0.84787 0.99697 0.0
H87 H 0.70598 0.79925 0.05175 0.0
Li88 Li 0.99561 0.94724 0.40825 0.0
Li89 Li 0.07139 0.0232 0.43822 0.0
Li90 Li 0.94913 0.99075 0.43766 0.0
Li91 Li 0.03349 0.07659 0.4082 0.0
C92 C 0.97745 0.86145 0.4413 0.0
N93 N 0.95592 0.72628 0.43771 0.0
C94 C 0.03404 0.84923 0.44344 0.0
C95 C 0.90993 0.80486 0.43729 0.0
C96 C 0.02203 0.78052 0.44163 0.0
C97 C 0.90015 0.73695 0.43551 0.0
C98 C 0.16365 0.0632 0.40239 0.0
C99 C 0.27563 0.16611 0.39416 0.0
N100 N 0.3083 0.12819 0.39822 0.0
C101 C 0.19843 0.02529 0.4065 0.0
C102 C 0.2026 0.13423 0.39617 0.0
C103 C 0.27154 0.05909 0.4043 0.0
C104 C 0.91333 0.83449 0.37604 0.0
N105 N 0.97546 0.87002 0.38771 0.0
C106 C 0.01552 0.79634 0.37103 0.0
C107 C 0.02633 0.85235 0.38525 0.0
C108 C 0.95157 0.75775 0.35909 0.0
C109 C 0.90026 0.77788 0.36147 0.0
H110 H 0.87394 0.85003 0.378 0.0
H111 H 0.07534 0.88156 0.39445 0.0
C112 C 0.11844 0.99631 0.47958 0.0
N113 N 0.14369 0.03926 0.46071 0.0
C114 C 0.16417 0.99609 0.49636 0.0
C115 C 0.26137 0.08893 0.47528 0.0
C116 C 0.2134 0.08764 0.45889 0.0
C117 C 0.23682 0.04075 0.49379 0.0
H118 H 0.06261 0.96047 0.48127 0.0
H119 H 0.23225 0.12421 0.44453 0.0
C120 C 0.87193 0.98496 0.40251 0.0
N121 N 0.73969 0.97136 0.40315 0.0
C122 C 0.86388 0.04337 0.39823 0.0
C123 C 0.8127 0.91957 0.40702 0.0
C124 C 0.79658 0.03541 0.39863 0.0
C125 C 0.74631 0.91381 0.40731 0.0
C126 C 0.0701 0.12664 0.46034 0.0
C127 C 0.04656 0.10631 0.48315 0.0
C128 C 0.13531 0.18656 0.45633 0.0
C129 C 0.08898 0.14634 0.50166 0.0
C130 C 0.17615 0.2252 0.4753 0.0
N131 N 0.15235 0.20443 0.49738 0.0
C132 C 0.83458 0.91293 0.46933 0.0
C133 C 0.85828 0.02775 0.45949 0.0
C134 C 0.78073 0.90425 0.48445 0.0
N135 N 0.87185 0.97394 0.45721 0.0
C136 C 0.80522 0.02143 0.47438 0.0
C137 C 0.76587 0.95924 0.48724 0.0
H138 H 0.84719 0.87138 0.46752 0.0
H139 H 0.88955 0.07609 0.44993 0.0
C140 C 0.04579 0.14351 0.36539 0.0
N141 N 0.05182 0.15438 0.38879 0.0
C142 C 0.04947 0.19552 0.35041 0.0
C143 C 0.06885 0.27016 0.38382 0.0
C144 C 0.06429 0.21651 0.39817 0.0
C145 C 0.05916 0.2591 0.35966 0.0
H146 H 0.03526 0.09325 0.35847 0.0
H147 H 0.06809 0.22348 0.41685 0.0
O148 O 0.98833 0.92858 0.44247 0.0
O149 O 0.09191 0.03079 0.40394 0.0
O150 O 0.93755 0.99204 0.4028 0.0
O151 O 0.03022 0.08703 0.44203 0.0
H152 H 0.08689 0.89236 0.44606 0.0
H153 H 0.86571 0.81336 0.43518 0.0
H154 H 0.06539 0.77039 0.44316 0.0
H155 H 0.84825 0.69276 0.43228 0.0
H156 H 0.30634 0.22103 0.38938 0.0
H157 H 0.16971 0.97087 0.41185 0.0
H158 H 0.17692 0.16459 0.39295 0.0
H159 H 0.2991 0.03047 0.40758 0.0
H160 H 0.05734 0.78396 0.36915 0.0
H161 H 0.85059 0.74988 0.35233 0.0
H162 H 0.14314 0.95947 0.51077 0.0
H163 H 0.31709 0.12491 0.47296 0.0
H164 H 0.90908 0.09446 0.39484 0.0
H165 H 0.81802 0.874 0.41065 0.0
H166 H 0.7896 0.08022 0.39543 0.0
H167 H 0.70008 0.86364 0.41095 0.0
H168 H 0.99641 0.0597 0.48652 0.0
H169 H 0.15467 0.20238 0.43876 0.0
H170 H 0.07162 0.1311 0.51942 0.0
H171 H 0.22693 0.27146 0.47248 0.0
H172 H 0.75114 0.85518 0.49382 0.0
H173 H 0.7961 0.06546 0.47622 0.0
H174 H 0.04122 0.18469 0.33193 0.0
H175 H 0.07749 0.31886 0.39161 0.0
Li176 Li 0.05977 0.99327 0.73956 0.0
Li177 Li 0.05825 0.07585 0.76985 0.0
Li178 Li 0.9664 0.95084 0.77049 0.0
Li179 Li 0.96979 0.02931 0.74076 0.0
C180 C 0.0751 0.95812 0.79299 0.0
N181 N 0.07435 0.8836 0.8319 0.0
C182 C 0.08164 0.98689 0.8152 0.0
C183 C 0.06829 0.89152 0.79056 0.0
C184 C 0.08119 0.94839 0.83465 0.0
C185 C 0.06796 0.85464 0.81045 0.0
C186 C 0.12964 0.15368 0.73437 0.0
C187 C 0.18417 0.27984 0.73758 0.0
N188 N 0.24816 0.28555 0.73404 0.0
C189 C 0.19585 0.16074 0.73066 0.0
C190 C 0.12358 0.21362 0.73774 0.0
C191 C 0.25518 0.22791 0.73058 0.0
C192 C 0.11236 0.98068 0.69664 0.0
N193 N 0.11538 0.97011 0.71982 0.0
C194 C 0.19529 0.92726 0.71308 0.0
C195 C 0.15621 0.94452 0.7283 0.0
C196 C 0.19185 0.93618 0.68898 0.0
C197 C 0.1502 0.96393 0.68085 0.0
H198 H 0.08091 1.00276 0.69045 0.0
H199 H 0.1587 0.93775 0.74685 0.0
C200 C 0.08681 0.18487 0.80224 0.0
N201 N 0.11674 0.15445 0.78944 0.0
C202 C 0.12723 0.23898 0.81789 0.0
C203 C 0.22885 0.23019 0.80675 0.0
C204 C 0.18639 0.17601 0.79137 0.0
C205 C 0.19917 0.26203 0.8204 0.0
H206 H 0.03113 0.16592 0.80076 0.0
H207 H 0.20856 0.14985 0.7814 0.0
C208 C 0.89772 0.89924 0.72306 0.0
N209 N 0.77977 0.83613 0.69501 0.0
C210 C 0.8311 0.85861 0.73295 0.0
C211 C 0.90437 0.90748 0.69889 0.0
C212 C 0.77212 0.82711 0.71847 0.0
C213 C 0.84408 0.87533 0.68501 0.0
C214 C 0.90148 0.04728 0.77543 0.0
C215 C 0.83424 0.99353 0.78151 0.0
C216 C 0.91204 0.11392 0.76977 0.0
C217 C 0.77849 1.00731 0.78169 0.0
C218 C 0.8549 0.12553 0.7701 0.0
N219 N 0.78987 0.07243 0.776 0.0
C220 C 0.9008 0.89092 0.81296 0.0
C221 C 0.8904 0.80624 0.78516 0.0
C222 C 0.86455 0.8383 0.82945 0.0
N223 N 0.91267 0.87415 0.79129 0.0
C224 C 0.85366 0.75173 0.80116 0.0
C225 C 0.84018 0.76757 0.82363 0.0
H226 H 0.91993 0.94544 0.81744 0.0
H227 H 0.90174 0.79454 0.76793 0.0
C228 C 0.9504 0.10253 0.70345 0.0
N229 N 0.91477 0.05228 0.71983 0.0
C230 C 0.91411 0.11914 0.68692 0.0
C231 C 0.80487 0.03258 0.70445 0.0
C232 C 0.84325 0.01772 0.72065 0.0
C233 C 0.84029 0.08371 0.6872 0.0
H234 H 1.00715 0.12889 0.7029 0.0
H235 H 0.81564 0.97737 0.73353 0.0
O236 O 0.07298 0.99394 0.77379 0.0
O237 O 0.07109 0.08836 0.73501 0.0
O238 O 0.95602 0.93098 0.73697 0.0
O239 O 0.95672 0.0348 0.77515 0.0
H240 H 0.08614 0.03801 0.81742 0.0
H241 H 0.06188 0.86794 0.77352 0.0
H242 H 0.08591 0.96986 0.85195 0.0
H243 H 0.0622 0.80283 0.80884 0.0
H244 H 0.18034 0.32668 0.74032 0.0
H245 H 0.20149 0.11487 0.72811 0.0
H246 H 0.07266 0.20896 0.74065 0.0
H247 H 0.30682 0.2342 0.72784 0.0
H248 H 0.22746 0.90678 0.72003 0.0
H249 H 0.14787 0.97378 0.66248 0.0
H250 H 0.10226 0.26176 0.82824 0.0
H251 H 0.28367 0.24503 0.80861 0.0
H252 H 0.82481 0.8523 0.75162 0.0
H253 H 0.95541 0.93896 0.69095 0.0
H254 H 0.72022 0.79584 0.7259 0.0
H255 H 0.84842 0.88165 0.6663 0.0
H256 H 0.82497 0.94152 0.78579 0.0
H257 H 0.96366 0.15599 0.76491 0.0
H258 H 0.72612 0.96613 0.78625 0.0
H259 H 0.86221 0.1767 0.76561 0.0
H260 H 0.85497 0.85276 0.84654 0.0
H261 H 0.8368 0.69801 0.79612 0.0
H262 H 0.94345 0.15865 0.67384 0.0
H263 H 0.74799 1.00249 0.70494 0.0
Mg264 Mg 0.99142 0.50209 0.2538 0.0
C265 C 1.00347 0.42817 0.29443 0.0
O266 O 0.93894 0.41737 0.29486 0.0
C267 C 0.02843 0.63572 0.23022 0.0
O268 O 0.96818 0.61752 0.24039 0.0
C269 C 0.92671 0.35747 0.23103 0.0
O270 O 0.93567 0.33979 0.25205 0.0
O271 O 0.93786 0.41961 0.22762 0.0
O272 O 0.04357 0.46413 0.27771 0.0
O273 O 0.93217 0.53294 0.27715 0.0
C274 C 0.97155 0.57089 0.29367 0.0
O275 O 0.03683 0.58398 0.29456 0.0
O276 O 0.05591 0.59682 0.23298 0.0
Mg277 Mg 0.51316 1.00436 0.59415 0.0
C278 C 0.42455 1.00029 0.55574 0.0
O279 O 0.4241 0.94012 0.55549 0.0
C280 C 0.66355 0.08328 0.6119 0.0
O281 O 0.67527 0.06343 0.59162 0.0
C282 C 0.3681 0.91741 0.61745 0.0
O283 O 0.34498 0.91166 0.59605 0.0
O284 O 0.434 0.94523 0.62086 0.0
O285 O 0.46276 0.04589 0.57092 0.0
O286 O 0.55259 0.95098 0.57144 0.0
C287 C 0.57883 0.98434 0.55253 0.0
O288 O 0.57758 0.04282 0.54869 0.0
O289 O 0.60269 0.07473 0.61598 0.0
Mg290 Mg 0.52076 0.50974 0.91793 0.0
C291 C 0.37478 0.43537 0.89622 0.0
O292 O 0.359 0.40248 0.91631 0.0
C293 C 0.59408 0.59661 0.95835 0.0
O294 O 0.59931 0.53967 0.96041 0.0
C295 C 0.44614 0.42748 0.95886 0.0
O296 O 0.44046 0.48437 0.95965 0.0
O297 O 0.47894 0.41964 0.94182 0.0
O298 O 0.436 0.48815 0.8934 0.0
O299 O 0.60609 0.53004 0.89384 0.0
C300 C 0.66844 0.58012 0.89732 0.0
O301 O 0.68497 0.60922 0.91803 0.0
O302 O 0.56213 0.60244 0.94068 0.0
C303 C 0.911 0.20039 0.19796 0.0
C304 C 0.92905 0.22556 0.17503 0.0
C305 C 0.90587 0.24186 0.21559 0.0
C306 C 0.91875 0.3105 0.2111 0.0
H307 H 0.90258 0.14874 0.20248 0.0
H308 H 0.89432 0.22072 0.23311 0.0
S309 S 0.96313 0.39943 0.15347 0.0
N310 N 0.95626 0.32206 0.14842 0.0
N311 N 0.94591 0.39992 0.18144 0.0
C312 C 0.93305 0.33491 0.18792 0.0
C313 C 0.93841 0.29252 0.16994 0.0
C314 C 0.66392 0.97625 0.49644 0.0
C315 C 0.71071 0.95356 0.50363 0.0
C316 C 0.61827 0.98168 0.51224 0.0
C317 C 0.6169 0.96394 0.53584 0.0
H318 H 0.66422 0.99225 0.47857 0.0
H319 H 0.5854 1.00234 0.50606 0.0
S320 S 0.72592 0.89813 0.56344 0.0
N321 N 0.7509 0.91051 0.53588 0.0
N322 N 0.66361 0.91938 0.5655 0.0
C323 C 0.66031 0.93727 0.54308 0.0
C324 C 0.70758 0.93238 0.52698 0.0
C325 C 0.82531 0.71954 0.86408 0.0
C326 C 0.80014 0.71146 0.84112 0.0
C327 C 0.78422 0.67335 0.8818 0.0
C328 C 0.716 0.61718 0.87735 0.0
H329 H 0.8764 0.76346 0.86857 0.0
H330 H 0.80504 0.6839 0.89936 0.0
S331 S 0.62807 0.56943 0.81956 0.0
N332 N 0.70477 0.64029 0.81445 0.0
N333 N 0.62754 0.55289 0.84763 0.0
C334 C 0.692 0.60575 0.8541 0.0
C335 C 0.73402 0.65305 0.83603 0.0
C336 C 0.09444 0.73672 0.17364 0.0
C337 C 0.08033 0.79232 0.17675 0.0
C338 C 0.08332 0.68902 0.19176 0.0
C339 C 0.05641 0.69468 0.21339 0.0
H340 H 0.11179 0.72863 0.15684 0.0
H341 H 0.09144 0.64497 0.18829 0.0
S342 S 0.01519 0.83327 0.23082 0.0
N343 N 0.04188 0.85227 0.20356 0.0
N344 N 0.02067 0.7628 0.23741 0.0
C345 C 0.04546 0.752 0.21702 0.0
C346 C 0.05747 0.80078 0.19875 0.0
C347 C 0.33873 0.088 0.52188 0.0
C348 C 0.28614 0.03152 0.5091 0.0
C349 C 0.38358 0.07794 0.537 0.0
C350 C 0.37793 0.0113 0.53953 0.0
H351 H 0.34434 0.13987 0.5205 0.0
H352 H 0.42285 0.12261 0.54674 0.0
S353 S 0.25055 0.84742 0.50861 0.0
N354 N 0.2327 0.90782 0.4991 0.0
N355 N 0.31585 0.88835 0.52724 0.0
C356 C 0.32611 0.95487 0.52637 0.0
C357 C 0.28057 0.96513 0.51122 0.0
C358 C 0.21618 0.30356 0.86171 0.0
C359 C 0.24146 0.31406 0.83871 0.0
C360 C 0.25831 0.34611 0.87997 0.0
C361 C 0.32738 0.40127 0.87599 0.0
H362 H 0.16459 0.2599 0.86585 0.0
H363 H 0.23739 0.33371 0.8975 0.0
S364 S 0.41501 0.45616 0.81831 0.0
N365 N 0.33716 0.38766 0.81251 0.0
N366 N 0.41669 0.46789 0.84676 0.0
C367 C 0.3517 0.41516 0.8528 0.0
C368 C 0.30879 0.37135 0.83421 0.0
C369 C 0.81839 0.09429 0.645 0.0
C370 C 0.80028 0.09532 0.66843 0.0
C371 C 0.7763 0.09545 0.62683 0.0
C372 C 0.71412 0.09755 0.63129 0.0
H373 H 0.86358 0.08894 0.64063 0.0
H374 H 0.7911 0.09118 0.60917 0.0
S375 S 0.64965 0.11238 0.6897 0.0
N376 N 0.72093 0.10729 0.69516 0.0
N377 N 0.64119 0.1088 0.66108 0.0
C378 C 0.69807 0.10354 0.65466 0.0
C379 C 0.7411 0.10232 0.67319 0.0
C380 C 0.71066 0.77798 0.98406 0.0
C381 C 0.72003 0.7622 1.00712 0.0
C382 C 0.66578 0.72463 0.9686 0.0
C383 C 0.63015 0.65373 0.97559 0.0
H384 H 0.73974 0.83167 0.97779 0.0
H385 H 0.66208 0.73854 0.95076 0.0
S386 S 0.6338 0.5853 0.03438 0.0
N387 N 0.68709 0.67107 0.03642 0.0
N388 N 0.6039 0.57111 1.0074 0.0
C389 C 0.63701 0.63779 0.99883 0.0
C390 C 0.68166 0.69195 1.01459 0.0
C391 C 0.92139 0.69756 0.32008 0.0
C392 C 0.94097 0.69899 0.34354 0.0
C393 C 0.92495 0.65082 0.30405 0.0
C394 C 0.9484 0.60449 0.31106 0.0
H395 H 0.90778 0.73584 0.31375 0.0
H396 H 0.91448 0.65469 0.28583 0.0
S397 S 0.99312 0.57865 0.37109 0.0
N398 N 0.97425 0.64258 0.37349 0.0
N399 N 0.98307 0.55676 0.34326 0.0
C400 C 0.96275 0.60175 0.33471 0.0
C401 C 0.95842 0.64845 0.351 0.0
C402 C 0.30651 0.94819 0.67584 0.0
C403 C 0.23393 0.92017 0.67229 0.0
C404 C 0.34907 0.94262 0.65865 0.0
C405 C 0.32062 0.90888 0.63723 0.0
H406 H 0.33129 0.97792 0.69148 0.0
H407 H 0.40523 0.96852 0.6617 0.0
S408 S 0.13134 0.81543 0.62131 0.0
N409 N 0.13392 0.84914 0.64726 0.0
N410 N 0.21356 0.83892 0.6149 0.0
C411 C 0.24723 0.87603 0.63428 0.0
C412 C 0.20402 0.88173 0.65178 0.0
C413 C 0.32621 0.25095 0.98707 0.0
C414 C 0.31869 0.27069 1.0098 0.0
C415 C 0.37148 0.30132 0.97085 0.0
C416 C 0.41009 0.37295 0.97686 0.0
H417 H 0.29429 0.1969 0.9814 0.0
H418 H 0.37301 0.28472 0.9532 0.0
S419 S 0.41851 0.44984 0.03513 0.0
N420 N 0.36142 0.36525 0.03827 0.0
N421 N 0.44427 0.45983 1.0077 0.0
C422 C 0.4064 0.39248 0.9999 0.0
C423 C 0.36126 0.34138 1.0164 0.0
C424 C 0.08698 0.33056 0.3228 0.0
C425 C 0.05184 0.30999 0.34439 0.0
C426 C 0.0743 0.37231 0.30709 0.0
C427 C 0.02517 0.39388 0.3123 0.0
H428 H 0.12342 0.31301 0.31782 0.0
H429 H 0.10072 0.38499 0.29038 0.0
S430 S 0.92199 0.35721 0.36693 0.0
N431 N 0.96788 0.31679 0.37039 0.0
N432 N 0.94449 0.39514 0.34113 0.0
C433 C 0.99175 0.37581 0.33417 0.0
C434 C 1.00496 0.33391 0.35015 0.0
loop_
_geom_bond_atom_site_label_1
_geom_bond_atom_site_label_2
_geom_bond_distance
_geom_bond_site_symmetry_2
_ccdc_geom_bond_type
Li0 N17 1.990 . S
Li0 O60 1.956 . S
Li0 O61 1.970 1_455 S
Li0 O62 1.961 1_545 S
Li1 N25 1.990 . S
Li1 O60 1.970 1_655 S
Li1 O61 1.956 . S
Li1 O63 1.961 1_545 S
Li2 N47 1.990 . S
Li2 O60 1.961 1_565 S
Li2 O62 1.956 . S
Li2 O63 1.970 1_455 S
Li3 N53 1.990 . S
Li3 O61 1.961 1_565 S
Li3 O62 1.970 1_655 S
Li3 O63 1.956 . S
C4 C6 1.348 . S
C4 C7 1.356 . S
C4 O60 1.325 . S
N5 C8 1.314 . S
N5 C9 1.279 . S
C6 C4 1.348 . S
C6 C8 1.353 . S
C6 H64 0.929 . S
C7 C4 1.356 . S
C7 C9 1.358 . S
C7 H65 0.930 . S
C8 N5 1.314 . S
C8 C6 1.353 . S
C8 H66 0.930 . S
C9 N5 1.279 . S
C9 C7 1.358 . S
C9 H67 0.930 . S
C10 C13 1.348 1_655 S
C10 C14 1.356 . S
C10 O61 1.325 . S
C11 N12 1.279 . S
C11 C14 1.358 . S
C11 H68 0.930 . S
N12 C11 1.279 . S
N12 C15 1.314 . S
C13 C10 1.348 1_455 S
C13 C15 1.353 1_455 S
C13 H69 0.929 . S
C14 C10 1.356 . S
C14 C11 1.358 . S
C14 H70 0.930 . S
C15 N12 1.314 . S
C15 C13 1.353 1_655 S
C15 H71 0.930 1_655 S
C16 N17 1.314 . S
C16 C21 1.353 . S
C16 H22 0.930 . S
N17 Li0 1.990 . S
N17 C16 1.314 . S
N17 C19 1.279 . S
C18 C19 1.358 . S
C18 C20 1.356 . S
C18 H72 0.930 . S
C19 N17 1.279 . S
C19 C18 1.358 . S
C19 H23 0.930 . S
C20 C18 1.356 . S
C20 C21 1.348 . S
C21 C16 1.353 . S
C21 C20 1.348 . S
C21 H73 0.929 1_554 S
H22 C16 0.930 . S
H23 C19 0.930 . S
C24 N25 1.314 . S
C24 C26 1.353 . S
C24 H30 0.930 . S
N25 Li1 1.990 . S
N25 C24 1.314 . S
N25 C28 1.279 . S
C26 C24 1.353 . S
C26 C29 1.348 . S
C26 H74 0.929 . S
C27 C28 1.358 . S
C27 C29 1.356 . S
C27 H75 0.930 . S
C28 N25 1.279 . S
C28 C27 1.358 . S
C28 H31 0.930 . S
C29 C26 1.348 . S
C29 C27 1.356 . S
H30 C24 0.930 . S
H31 C28 0.930 . S
C32 C34 1.348 1_455 S
C32 C35 1.356 . S
C32 O62 1.325 . S
N33 C36 1.314 . S
N33 C37 1.279 . S
C34 C32 1.348 1_655 S
C34 C36 1.353 1_655 S
C34 H76 0.929 . S
C35 C32 1.356 . S
C35 C37 1.358 . S
C35 H77 0.930 . S
C36 N33 1.314 . S
C36 C34 1.353 1_455 S
C36 H78 0.930 1_455 S
C37 N33 1.279 . S
C37 C35 1.358 . S
C37 H79 0.930 . S
C38 C39 1.348 . S
C38 C40 1.356 . S
C38 O63 1.325 . S
C39 C38 1.348 . S
C39 C41 1.353 . S
C39 H80 0.929 . S
C40 C38 1.356 . S
C40 C42 1.358 . S
C40 H81 0.930 . S
C41 C39 1.353 . S
C41 N43 1.314 . S
C41 H82 0.930 . S
C42 C40 1.358 . S
C42 N43 1.279 . S
C42 H83 0.930 . S
N43 C41 1.314 . S
N43 C42 1.279 . S
C44 C46 1.353 . S
C44 N47 1.314 . S
C44 H50 0.930 . S
C45 N47 1.279 . S
C45 C48 1.358 . S
C45 H51 0.930 . S
C46 C44 1.353 . S
C46 C49 1.348 . S
C46 H84 0.929 . S
N47 Li2 1.990 . S
N47 C44 1.314 . S
N47 C45 1.279 . S
C48 C45 1.358 . S
C48 C49 1.356 . S
C48 H85 0.930 . S
C49 C46 1.348 . S
C49 C48 1.356 . S
H50 C44 0.930 . S
H51 C45 0.930 . S
C52 N53 1.314 . S
C52 C54 1.353 . S
C52 H58 0.930 . S
N53 Li3 1.990 . S
N53 C52 1.314 . S
N53 C56 1.279 . S
C54 C52 1.353 . S
C54 C57 1.348 . S
C54 H86 0.929 1_554 S
C55 C56 1.358 . S
C55 C57 1.356 . S
C55 H87 0.930 . S
C56 N53 1.279 . S
C56 C55 1.358 . S
C56 H59 0.930 . S
C57 C54 1.348 . S
C57 C55 1.356 . S
H58 C52 0.930 . S
H59 C56 0.930 . S
O60 Li0 1.956 . S
O60 Li1 1.970 1_455 S
O60 Li2 1.961 1_545 S
O60 C4 1.325 . S
O61 Li0 1.970 1_655 S
O61 Li1 1.956 . S
O61 Li3 1.961 1_545 S
O61 C10 1.325 . S
O62 Li0 1.961 1_565 S
O62 Li2 1.956 . S
O62 Li3 1.970 1_455 S
O62 C32 1.325 . S
O63 Li1 1.961 1_565 S
O63 Li2 1.970 1_655 S
O63 Li3 1.956 . S
O63 C38 1.325 . S
H64 C6 0.929 . S
H65 C7 0.930 . S
H66 C8 0.930 . S
H67 C9 0.930 . S
H68 C11 0.930 . S
H69 C13 0.929 . S
H70 C14 0.930 . S
H71 C15 0.930 1_455 S
H72 C18 0.930 . S
H73 C21 0.929 1_556 S
H74 C26 0.929 . S
H75 C27 0.930 . S
H76 C34 0.929 . S
H77 C35 0.930 . S
H78 C36 0.930 1_655 S
H79 C37 0.930 . S
H80 C39 0.929 . S
H81 C40 0.930 . S
H82 C41 0.930 . S
H83 C42 0.930 . S
H84 C46 0.929 . S
H85 C48 0.930 . S
H86 C54 0.929 1_556 S
H87 C55 0.930 . S
Li88 N105 1.990 . S
Li88 O148 1.956 . S
Li88 O149 1.970 1_665 S
Li88 O150 1.961 . S
Li89 N113 1.990 . S
Li89 O148 1.970 1_445 S
Li89 O149 1.956 . S
Li89 O151 1.961 . S
Li90 N135 1.990 . S
Li90 O148 1.961 . S
Li90 O150 1.956 . S
Li90 O151 1.970 1_665 S
Li91 N141 1.990 . S
Li91 O149 1.961 . S
Li91 O150 1.970 1_445 S
Li91 O151 1.956 . S
C92 C94 1.348 1_655 S
C92 C95 1.356 . S
C92 O148 1.325 . S
N93 C96 1.314 . S
N93 C97 1.279 . S
C94 C92 1.348 1_455 S
C94 C96 1.353 1_455 S
C94 H152 0.929 . S
C95 C92 1.356 . S
C95 C97 1.358 . S
C95 H153 0.930 . S
C96 N93 1.314 . S
C96 C94 1.353 1_655 S
C96 H154 0.930 1_655 S
C97 N93 1.279 . S
C97 C95 1.358 . S
C97 H155 0.930 . S
C98 C101 1.348 1_545 S
C98 C102 1.356 . S
C98 O149 1.325 . S
C99 N100 1.279 . S
C99 C102 1.358 . S
C99 H156 0.930 . S
N100 C99 1.279 . S
N100 C103 1.314 . S
C101 C98 1.348 1_565 S
C101 C103 1.353 1_565 S
C101 H157 0.929 . S
C102 C98 1.356 . S
C102 C99 1.358 . S
C102 H158 0.930 . S
C103 N100 1.314 . S
C103 C101 1.353 1_545 S
C103 H159 0.930 1_545 S
C104 N105 1.314 . S
C104 C109 1.353 . S
C104 H110 0.930 . S
N105 Li88 1.990 . S
N105 C104 1.314 . S
N105 C107 1.279 . S
C106 C107 1.358 . S
C106 C108 1.356 . S
C106 H160 0.930 . S
C107 N105 1.279 . S
C107 C106 1.358 . S
C107 H111 0.930 . S
C108 C106 1.356 . S
C108 C109 1.348 . S
C109 C104 1.353 . S
C109 C108 1.348 . S
C109 H161 0.929 . S
H110 C104 0.930 . S
H111 C107 0.930 . S
C112 N113 1.314 . S
C112 C114 1.353 . S
C112 H118 0.930 . S
N113 Li89 1.990 . S
N113 C112 1.314 . S
N113 C116 1.279 . S
C114 C112 1.353 . S
C114 C117 1.348 . S
C114 H162 0.929 . S
C115 C116 1.358 . S
C115 C117 1.356 . S
C115 H163 0.930 . S
C116 N113 1.279 . S
C116 C115 1.358 . S
C116 H119 0.930 . S
C117 C114 1.348 . S
C117 C115 1.356 . S
H118 C112 0.930 . S
H119 C116 0.930 . S
C120 C122 1.348 1_565 S
C120 C123 1.356 . S
C120 O150 1.325 . S
N121 C124 1.314 . S
N121 C125 1.279 . S
C122 C120 1.348 1_545 S
C122 C124 1.353 1_545 S
C122 H164 0.929 . S
C123 C120 1.356 . S
C123 C125 1.358 . S
C123 H165 0.930 . S
C124 N121 1.314 . S
C124 C122 1.353 1_565 S
C124 H166 0.930 1_565 S
C125 N121 1.279 . S
C125 C123 1.358 . S
C125 H167 0.930 . S
C126 C127 1.348 1_455 S
C126 C128 1.356 . S
C126 O151 1.325 . S
C127 C126 1.348 1_655 S
C127 C129 1.353 1_655 S
C127 H168 0.929 . S
C128 C126 1.356 . S
C128 C130 1.358 . S
C128 H169 0.930 . S
C129 C127 1.353 1_455 S
C129 N131 1.314 . S
C129 H170 0.930 1_455 S
C130 C128 1.358 . S
C130 N131 1.279 . S
C130 H171 0.930 . S
N131 C129 1.314 . S
N131 C130 1.279 . S
C132 C134 1.353 . S
C132 N135 1.314 . S
C132 H138 0.930 . S
C133 N135 1.279 . S
C133 C136 1.358 . S
C133 H139 0.930 . S
C134 C132 1.353 . S
C134 C137 1.348 . S
C134 H172 0.929 . S
N135 Li90 1.990 . S
N135 C132 1.314 . S
N135 C133 1.279 . S
C136 C133 1.358 . S
C136 C137 1.356 . S
C136 H173 0.930 . S
C137 C134 1.348 . S
C137 C136 1.356 . S
H138 C132 0.930 . S
H139 C133 0.930 . S
C140 N141 1.314 . S
C140 C142 1.353 . S
C140 H146 0.930 . S
N141 Li91 1.990 . S
N141 C140 1.314 . S
N141 C144 1.279 . S
C142 C140 1.353 . S
C142 C145 1.348 . S
C142 H174 0.929 . S
C143 C144 1.358 . S
C143 C145 1.356 . S
C143 H175 0.930 . S
C144 N141 1.279 . S
C144 C143 1.358 . S
C144 H147 0.930 . S
C145 C142 1.348 . S
C145 C143 1.356 . S
H146 C140 0.930 . S
H147 C144 0.930 . S
O148 Li88 1.956 . S
O148 Li89 1.970 1_665 S
O148 Li90 1.961 . S
O148 C92 1.325 . S
O149 Li88 1.970 1_445 S
O149 Li89 1.956 . S
O149 Li91 1.961 . S
O149 C98 1.325 . S
O150 Li88 1.961 . S
O150 Li90 1.956 . S
O150 Li91 1.970 1_665 S
O150 C120 1.325 . S
O151 Li89 1.961 . S
O151 Li90 1.970 1_445 S
O151 Li91 1.956 . S
O151 C126 1.325 . S
H152 C94 0.929 . S
H153 C95 0.930 . S
H154 C96 0.930 1_455 S
H155 C97 0.930 . S
H156 C99 0.930 . S
H157 C101 0.929 . S
H158 C102 0.930 . S
H159 C103 0.930 1_565 S
H160 C106 0.930 . S
H161 C109 0.929 . S
H162 C114 0.929 . S
H163 C115 0.930 . S
H164 C122 0.929 . S
H165 C123 0.930 . S
H166 C124 0.930 1_545 S
H167 C125 0.930 . S
H168 C127 0.929 . S
H169 C128 0.930 . S
H170 C129 0.930 1_655 S
H171 C130 0.930 . S
H172 C134 0.929 . S
H173 C136 0.930 . S
H174 C142 0.929 . S
H175 C143 0.930 . S
Li176 N193 1.990 . S
Li176 O236 1.956 . S
Li176 O237 1.970 1_565 S
Li176 O238 1.961 1_455 S
Li177 N201 1.990 . S
Li177 O236 1.970 1_545 S
Li177 O237 1.956 . S
Li177 O239 1.961 1_455 S
Li178 N223 1.990 . S
Li178 O236 1.961 1_655 S
Li178 O238 1.956 . S
Li178 O239 1.970 1_565 S
Li179 N229 1.990 . S
Li179 O237 1.961 1_655 S
Li179 O238 1.970 1_545 S
Li179 O239 1.956 . S
C180 C182 1.348 1_565 S
C180 C183 1.356 . S
C180 O236 1.325 . S
N181 C184 1.314 . S
N181 C185 1.279 . S
C182 C180 1.348 1_545 S
C182 C184 1.353 1_545 S
C182 H240 0.929 . S
C183 C180 1.356 . S
C183 C185 1.358 . S
C183 H241 0.930 . S
C184 N181 1.314 . S
C184 C182 1.353 1_565 S
C184 H242 0.930 1_565 S
C185 N181 1.279 . S
C185 C183 1.358 . S
C185 H243 0.930 . S
C186 C189 1.348 . S
C186 C190 1.356 . S
C186 O237 1.325 . S
C187 N188 1.279 . S
C187 C190 1.358 . S
C187 H244 0.930 . S
N188 C187 1.279 . S
N188 C191 1.314 . S
C189 C186 1.348 . S
C189 C191 1.353 . S
C189 H245 0.929 . S
C190 C186 1.356 . S
C190 C187 1.358 . S
C190 H246 0.930 . S
C191 N188 1.314 . S
C191 C189 1.353 . S
C191 H247 0.930 . S
C192 N193 1.314 . S
C192 C197 1.353 . S
C192 H198 0.930 . S
N193 Li176 1.990 . S
N193 C192 1.314 . S
N193 C195 1.279 . S
C194 C195 1.358 . S
C194 C196 1.356 . S
C194 H248 0.930 . S
C195 N193 1.279 . S
C195 C194 1.358 . S
C195 H199 0.930 . S
C196 C194 1.356 . S
C196 C197 1.348 . S
C197 C192 1.353 . S
C197 C196 1.348 . S
C197 H249 0.929 . S
H198 C192 0.930 . S
H199 C195 0.930 . S
C200 N201 1.314 . S
C200 C202 1.353 . S
C200 H206 0.930 . S
N201 Li177 1.990 . S
N201 C200 1.314 . S
N201 C204 1.279 . S
C202 C200 1.353 . S
C202 C205 1.348 . S
C202 H250 0.929 . S
C203 C204 1.358 . S
C203 C205 1.356 . S
C203 H251 0.930 . S
C204 N201 1.279 . S
C204 C203 1.358 . S
C204 H207 0.930 . S
C205 C202 1.348 . S
C205 C203 1.356 . S
H206 C200 0.930 . S
H207 C204 0.930 . S
C208 C210 1.348 . S
C208 C211 1.356 . S
C208 O238 1.325 . S
N209 C212 1.314 . S
N209 C213 1.279 . S
C210 C208 1.348 . S
C210 C212 1.353 . S
C210 H252 0.929 . S
C211 C208 1.356 . S
C211 C213 1.358 . S
C211 H253 0.930 . S
C212 N209 1.314 . S
C212 C210 1.353 . S
C212 H254 0.930 . S
C213 N209 1.279 . S
C213 C211 1.358 . S
C213 H255 0.930 . S
C214 C215 1.348 1_545 S
C214 C216 1.356 . S
C214 O239 1.325 . S
C215 C214 1.348 1_565 S
C215 C217 1.353 1_565 S
C215 H256 0.929 . S
C216 C214 1.356 . S
C216 C218 1.358 . S
C216 H257 0.930 . S
C217 C215 1.353 1_545 S
C217 N219 1.314 . S
C217 H258 0.930 1_545 S
C218 C216 1.358 . S
C218 N219 1.279 . S
C218 H259 0.930 . S
N219 C217 1.314 . S
N219 C218 1.279 . S
C220 C222 1.353 . S
C220 N223 1.314 . S
C220 H226 0.930 . S
C221 N223 1.279 . S
C221 C224 1.358 . S
C221 H227 0.930 . S
C222 C220 1.353 . S
C222 C225 1.348 . S
C222 H260 0.929 . S
N223 Li178 1.990 . S
N223 C220 1.314 . S
N223 C221 1.279 . S
C224 C221 1.358 . S
C224 C225 1.356 . S
C224 H261 0.930 . S
C225 C222 1.348 . S
C225 C224 1.356 . S
H226 C220 0.930 . S
H227 C221 0.930 . S
C228 N229 1.314 . S
C228 C230 1.353 . S
C228 H234 0.930 . S
N229 Li179 1.990 . S
N229 C228 1.314 . S
N229 C232 1.279 . S
C230 C228 1.353 . S
C230 C233 1.348 . S
C230 H262 0.929 . S
C231 C232 1.358 . S
C231 C233 1.356 . S
C231 H263 0.930 . S
C232 N229 1.279 . S
C232 C231 1.358 . S
C232 H235 0.930 . S
C233 C230 1.348 . S
C233 C231 1.356 . S
H234 C228 0.930 . S
H235 C232 0.930 . S
O236 Li176 1.956 . S
O236 Li177 1.970 1_565 S
O236 Li178 1.961 1_455 S
O236 C180 1.325 . S
O237 Li176 1.970 1_545 S
O237 Li177 1.956 . S
O237 Li179 1.961 1_455 S
O237 C186 1.325 . S
O238 Li176 1.961 1_655 S
O238 Li178 1.956 . S
O238 Li179 1.970 1_565 S
O238 C208 1.325 . S
O239 Li177 1.961 1_655 S
O239 Li178 1.970 1_545 S
O239 Li179 1.956 . S
O239 C214 1.325 . S
H240 C182 0.929 . S
H241 C183 0.930 . S
H242 C184 0.930 1_545 S
H243 C185 0.930 . S
H244 C187 0.930 . S
H245 C189 0.929 . S
H246 C190 0.930 . S
H247 C191 0.930 . S
H248 C194 0.930 . S
H249 C197 0.929 . S
H250 C202 0.929 . S
H251 C203 0.930 . S
H252 C210 0.929 . S
H253 C211 0.930 . S
H254 C212 0.930 . S
H255 C213 0.930 . S
H256 C215 0.929 . S
H257 C216 0.930 . S
H258 C217 0.930 1_565 S
H259 C218 0.930 . S
H260 C222 0.929 . S
H261 C224 0.930 . S
H262 C230 0.929 . S
H263 C231 0.930 . S
Mg264 O271 2.141 . S
Mg264 O272 2.048 . S
Mg264 O273 2.048 . S
Mg264 O276 2.141 . S
C265 O266 1.313 . S
C265 O272 1.195 1_655 S
O266 C265 1.313 . S
C267 O268 1.245 . S
C267 O276 1.289 1_655 S
O268 C267 1.245 . S
C269 O270 1.245 . S
C269 O271 1.289 1_655 S
O270 C269 1.245 . S
O271 Mg264 2.141 . S
O271 C269 1.289 1_455 S
O272 Mg264 2.048 . S
O272 C265 1.195 1_455 S
O273 Mg264 2.048 . S
O273 C274 1.195 1_455 S
C274 O273 1.195 1_655 S
C274 O275 1.313 . S
O275 C274 1.313 . S
O276 Mg264 2.141 . S
O276 C267 1.289 1_455 S
Mg277 O284 2.141 . S
Mg277 O285 2.048 . S
Mg277 O286 2.048 . S
Mg277 O289 2.141 . S
C278 O279 1.313 . S
C278 O285 1.195 1_565 S
O279 C278 1.313 . S
C280 O281 1.245 . S
C280 O289 1.289 1_565 S
O281 C280 1.245 . S
C282 O283 1.245 . S
C282 O284 1.289 1_565 S
O283 C282 1.245 . S
O284 Mg277 2.141 . S
O284 C282 1.289 1_545 S
O285 Mg277 2.048 . S
O285 C278 1.195 1_545 S
O286 Mg277 2.048 . S
O286 C287 1.195 1_545 S
C287 O286 1.195 1_565 S
C287 O288 1.313 . S
O288 C287 1.313 . S
O289 Mg277 2.141 . S
O289 C280 1.289 1_545 S
Mg290 O297 2.141 . S
Mg290 O298 2.048 . S
Mg290 O299 2.048 . S
Mg290 O302 2.141 . S
C291 O292 1.313 . S
C291 O298 1.195 . S
O292 C291 1.313 . S
C293 O294 1.245 . S
C293 O302 1.289 . S
O294 C293 1.245 . S
C295 O296 1.245 . S
C295 O297 1.289 . S
O296 C295 1.245 . S
O297 Mg290 2.141 . S
O297 C295 1.289 . S
O298 Mg290 2.048 . S
O298 C291 1.195 . S
O299 Mg290 2.048 . S
O299 C300 1.195 . S
C300 O299 1.195 . S
C300 O301 1.313 . S
O301 C300 1.313 . S
O302 Mg290 2.141 . S
O302 C293 1.289 . S
C303 C304 1.369 . S
C303 C305 1.419 . S
C303 H307 0.930 . S
C304 C303 1.369 . S
C304 C313 1.429 1_655 S
C305 C303 1.419 . S
C305 C306 1.363 . S
C305 H308 0.929 . S
C306 C305 1.363 . S
C306 C312 1.428 1_655 S
H307 C303 0.930 . S
H308 C305 0.929 . S
S309 N310 1.613 . S
S309 N311 1.610 . S
N310 S309 1.613 . S
N310 C313 1.350 . S
N311 S309 1.610 . S
N311 C312 1.351 . S
C312 C306 1.428 1_455 S
C312 N311 1.351 . S
C312 C313 1.434 . S
C313 C304 1.429 1_455 S
C313 N310 1.350 . S
C313 C312 1.434 . S
C314 C315 1.369 . S
C314 C316 1.419 . S
C314 H318 0.930 . S
C315 C314 1.369 . S
C315 C324 1.429 . S
C316 C314 1.419 . S
C316 C317 1.363 . S
C316 H319 0.929 . S
C317 C316 1.363 . S
C317 C323 1.428 . S
H318 C314 0.930 . S
H319 C316 0.929 . S
S320 N321 1.613 . S
S320 N322 1.610 . S
N321 S320 1.613 . S
N321 C324 1.350 . S
N322 S320 1.610 . S
N322 C323 1.351 . S
C323 C317 1.428 . S
C323 N322 1.351 . S
C323 C324 1.434 . S
C324 C315 1.429 . S
C324 N321 1.350 . S
C324 C323 1.434 . S
C325 C326 1.369 . S
C325 C327 1.419 . S
C325 H329 0.930 . S
C326 C325 1.369 . S
C326 C335 1.429 . S
C327 C325 1.419 . S
C327 C328 1.363 . S
C327 H330 0.929 . S
C328 C327 1.363 . S
C328 C334 1.428 . S
H329 C325 0.930 . S
H330 C327 0.929 . S
S331 N332 1.613 . S
S331 N333 1.610 . S
N332 S331 1.613 . S
N332 C335 1.350 . S
N333 S331 1.610 . S
N333 C334 1.351 . S
C334 C328 1.428 . S
C334 N333 1.351 . S
C334 C335 1.434 . S
C335 C326 1.429 . S
C335 N332 1.350 . S
C335 C334 1.434 . S
C336 C337 1.369 . S
C336 C338 1.419 . S
C336 H340 0.930 . S
C337 C336 1.369 . S
C337 C346 1.429 . S
C338 C336 1.419 . S
C338 C339 1.363 . S
C338 H341 0.929 . S
C339 C338 1.363 . S
C339 C345 1.428 . S
H340 C336 0.930 . S
H341 C338 0.929 . S
S342 N343 1.613 . S
S342 N344 1.610 1_455 S
N343 S342 1.613 . S
N343 C346 1.350 . S
N344 S342 1.610 1_655 S
N344 C345 1.351 1_655 S
C345 C339 1.428 . S
C345 N344 1.351 1_455 S
C345 C346 1.434 . S
C346 C337 1.429 . S
C346 N343 1.350 . S
C346 C345 1.434 . S
C347 C348 1.369 . S
C347 C349 1.419 . S
C347 H351 0.930 . S
C348 C347 1.369 . S
C348 C357 1.429 1_545 S
C349 C347 1.419 . S
C349 C350 1.363 . S
C349 H352 0.929 . S
C350 C349 1.363 . S
C350 C356 1.428 1_545 S
H351 C347 0.930 . S
H352 C349 0.929 . S
S353 N354 1.613 . S
S353 N355 1.610 . S
N354 S353 1.613 . S
N354 C357 1.350 . S
N355 S353 1.610 . S
N355 C356 1.351 . S
C356 C350 1.428 1_565 S
C356 N355 1.351 . S
C356 C357 1.434 . S
C357 C348 1.429 1_565 S
C357 N354 1.350 . S
C357 C356 1.434 . S
C358 C359 1.369 . S
C358 C360 1.419 . S
C358 H362 0.930 . S
C359 C358 1.369 . S
C359 C368 1.429 . S
C360 C358 1.419 . S
C360 C361 1.363 . S
C360 H363 0.929 . S
C361 C360 1.363 . S
C361 C367 1.428 . S
H362 C358 0.930 . S
H363 C360 0.929 . S
S364 N365 1.613 . S
S364 N366 1.610 . S
N365 S364 1.613 . S
N365 C368 1.350 . S
N366 S364 1.610 . S
N366 C367 1.351 . S
C367 C361 1.428 . S
C367 N366 1.351 . S
C367 C368 1.434 . S
C368 C359 1.429 . S
C368 N365 1.350 . S
C368 C367 1.434 . S
C369 C370 1.369 . S
C369 C371 1.419 . S
C369 H373 0.930 . S
C370 C369 1.369 . S
C370 C379 1.429 . S
C371 C369 1.419 . S
C371 C372 1.363 . S
C371 H374 0.929 . S
C372 C371 1.363 . S
C372 C378 1.428 . S
H373 C369 0.930 . S
H374 C371 0.929 . S
S375 N376 1.613 . S
S375 N377 1.610 . S
N376 S375 1.613 . S
N376 C379 1.350 . S
N377 S375 1.610 . S
N377 C378 1.351 . S
C378 C372 1.428 . S
C378 N377 1.351 . S
C378 C379 1.434 . S
C379 C370 1.429 . S
C379 N376 1.350 . S
C379 C378 1.434 . S
C380 C381 1.369 . S
C380 C382 1.419 . S
C380 H384 0.930 . S
C381 C380 1.369 . S
C381 C390 1.429 . S
C382 C380 1.419 . S
C382 C383 1.363 . S
C382 H385 0.929 . S
C383 C382 1.363 . S
C383 C389 1.428 . S
H384 C380 0.930 . S
H385 C382 0.929 . S
S386 N387 1.613 . S
S386 N388 1.610 1_554 S
N387 S386 1.613 . S
N387 C390 1.350 1_554 S
N388 S386 1.610 1_556 S
N388 C389 1.351 . S
C389 C383 1.428 . S
C389 N388 1.351 . S
C389 C390 1.434 . S
C390 C381 1.429 . S
C390 N387 1.350 1_556 S
C390 C389 1.434 . S
C391 C392 1.378 . S
C391 C393 1.412 1_655 S
C391 H395 0.929 1_655 S
C392 C391 1.378 . S
C392 C401 1.429 . S
C393 C391 1.412 1_455 S
C393 C394 1.363 1_455 S
C393 H396 0.929 . S
C394 C393 1.363 1_655 S
C394 C400 1.428 . S
H395 C391 0.929 1_455 S
H396 C393 0.929 . S
S397 N398 1.613 . S
S397 N399 1.610 . S
N398 S397 1.613 . S
N398 C401 1.350 . S
N399 S397 1.610 . S
N399 C400 1.351 . S
C400 C394 1.428 . S
C400 N399 1.351 . S
C400 C401 1.434 . S
C401 C392 1.429 . S
C401 N398 1.350 . S
C401 C400 1.434 . S
C402 C403 1.369 1_545 S
C402 C404 1.419 . S
C402 H406 0.930 . S
C403 C402 1.369 1_565 S
C403 C412 1.429 . S
C404 C402 1.419 . S
C404 C405 1.363 1_545 S
C404 H407 0.929 . S
C405 C404 1.363 1_565 S
C405 C411 1.428 . S
H406 C402 0.930 . S
H407 C404 0.929 . S
S408 N409 1.613 . S
S408 N410 1.610 . S
N409 S408 1.613 . S
N409 C412 1.350 . S
N410 S408 1.610 . S
N410 C411 1.351 . S
C411 C405 1.428 . S
C411 N410 1.351 . S
C411 C412 1.434 . S
C412 C403 1.429 . S
C412 N409 1.350 . S
C412 C411 1.434 . S
C413 C414 1.369 . S
C413 C415 1.419 . S
C413 H417 0.930 . S
C414 C413 1.369 . S
C414 C423 1.429 . S
C415 C413 1.419 . S
C415 C416 1.363 . S
C415 H418 0.929 . S
C416 C415 1.363 . S
C416 C422 1.428 . S
H417 C413 0.930 . S
H418 C415 0.929 . S
S419 N420 1.613 . S
S419 N421 1.610 1_554 S
N420 S419 1.613 . S
N420 C423 1.350 1_554 S
N421 S419 1.610 1_556 S
N421 C422 1.351 . S
C422 C416 1.428 . S
C422 N421 1.351 . S
C422 C423 1.434 . S
C423 C414 1.429 . S
C423 N420 1.350 1_556 S
C423 C422 1.434 . S
C424 C425 1.369 . S
C424 C426 1.419 . S
C424 H428 0.930 . S
C425 C424 1.369 . S
C425 C434 1.429 1_455 S
C426 C424 1.419 . S
C426 C427 1.363 . S
C426 H429 0.929 . S
C427 C426 1.363 . S
C427 C433 1.428 1_455 S
H428 C424 0.930 . S
H429 C426 0.929 . S
S430 N431 1.613 . S
S430 N432 1.610 . S
N431 S430 1.613 . S
N431 C434 1.350 . S
N432 S430 1.610 . S
N432 C433 1.351 . S
C433 C427 1.428 1_655 S
C433 N432 1.351 . S
C433 C434 1.434 . S
C434 C425 1.429 1_655 S
C434 N431 1.350 . S
C434 C433 1.434 . S
C306 C269 1.477 . S
C304 C29 1.475 . S
C315 C137 1.539 . S
C317 C287 1.543 . S
C326 C225 1.537 . S
C328 C300 1.550 . S
C337 C49 1.480 . S
C339 C267 1.538 1_455 S
C350 C278 1.590 1_545 S
C348 C117 1.533 . S
C359 C205 1.541 . S
C361 C291 1.589 . S
C372 C280 1.532 1_545 S
C370 C233 1.480 . S
C381 C57 1.479 1_556 S
C383 C293 1.536 . S
C394 C274 1.539 . S
C392 C108 1.543 . S
C405 C282 1.467 . S
C403 C196 1.481 . S
C416 C295 1.473 . S
C414 C20 1.479 1_556 S
C425 C145 1.534 . S
C427 C265 1.588 1_455 S
