# Generated by pormake.
# Topology gar, (4,6)-cn, num edge types: 1
# Building blocks:
#     Node 0, Type 0, BuildingBlock: QUQFOY_clean_sbu_1, # of connection points: 4
#     Node 1, Type 0, BuildingBlock: QUQFOY_clean_sbu_1, # of connection points: 4
#     Node 2, Type 0, BuildingBlock: QUQFOY_clean_sbu_1, # of connection points: 4
#     Node 3, Type 0, BuildingBlock: QUQFOY_clean_sbu_1, # of connection points: 4
#     Node 4, Type 0, BuildingBlock: QUQFOY_clean_sbu_1, # of connection points: 4
#     Node 5, Type 0, BuildingBlock: QUQFOY_clean_sbu_1, # of connection points: 4
#     Node 6, Type 0, BuildingBlock: QUQFOY_clean_sbu_1, # of connection points: 4
#     Node 7, Type 0, BuildingBlock: QUQFOY_clean_sbu_1, # of connection points: 4
#     Node 8, Type 0, BuildingBlock: QUQFOY_clean_sbu_1, # of connection points: 4
#     Node 9, Type 0, BuildingBlock: QUQFOY_clean_sbu_1, # of connection points: 4
#     Node 10, Type 0, BuildingBlock: QUQFOY_clean_sbu_1, # of connection points: 4
#     Node 11, Type 0, BuildingBlock: QUQFOY_clean_sbu_1, # of connection points: 4
#     Node 12, Type 0, BuildingBlock: QUQFOY_clean_sbu_1, # of connection points: 4
#     Node 13, Type 0, BuildingBlock: QUQFOY_clean_sbu_1, # of connection points: 4
#     Node 14, Type 0, BuildingBlock: QUQFOY_clean_sbu_1, # of connection points: 4
#     Node 15, Type 0, BuildingBlock: QUQFOY_clean_sbu_1, # of connection points: 4
#     Node 16, Type 0, BuildingBlock: QUQFOY_clean_sbu_1, # of connection points: 4
#     Node 17, Type 0, BuildingBlock: QUQFOY_clean_sbu_1, # of connection points: 4
#     Node 18, Type 0, BuildingBlock: QUQFOY_clean_sbu_1, # of connection points: 4
#     Node 19, Type 0, BuildingBlock: QUQFOY_clean_sbu_1, # of connection points: 4
#     Node 20, Type 0, BuildingBlock: QUQFOY_clean_sbu_1, # of connection points: 4
#     Node 21, Type 0, BuildingBlock: QUQFOY_clean_sbu_1, # of connection points: 4
#     Node 22, Type 0, BuildingBlock: QUQFOY_clean_sbu_1, # of connection points: 4
#     Node 23, Type 0, BuildingBlock: QUQFOY_clean_sbu_1, # of connection points: 4
#     Node 24, Type 1, BuildingBlock: PAMTUU_clean_sbu_0, # of connection points: 6
#     Node 25, Type 1, BuildingBlock: PAMTUU_clean_sbu_0, # of connection points: 6
#     Node 26, Type 1, BuildingBlock: PAMTUU_clean_sbu_0, # of connection points: 6
#     Node 27, Type 1, BuildingBlock: PAMTUU_clean_sbu_0, # of connection points: 6
#     Node 28, Type 1, BuildingBlock: PAMTUU_clean_sbu_0, # of connection points: 6
#     Node 29, Type 1, BuildingBlock: PAMTUU_clean_sbu_0, # of connection points: 6
#     Node 30, Type 1, BuildingBlock: PAMTUU_clean_sbu_0, # of connection points: 6
#     Node 31, Type 1, BuildingBlock: PAMTUU_clean_sbu_0, # of connection points: 6
#     Node 32, Type 1, BuildingBlock: PAMTUU_clean_sbu_0, # of connection points: 6
#     Node 33, Type 1, BuildingBlock: PAMTUU_clean_sbu_0, # of connection points: 6
#     Node 34, Type 1, BuildingBlock: PAMTUU_clean_sbu_0, # of connection points: 6
#     Node 35, Type 1, BuildingBlock: PAMTUU_clean_sbu_0, # of connection points: 6
#     Node 36, Type 1, BuildingBlock: PAMTUU_clean_sbu_0, # of connection points: 6
#     Node 37, Type 1, BuildingBlock: PAMTUU_clean_sbu_0, # of connection points: 6
#     Node 38, Type 1, BuildingBlock: PAMTUU_clean_sbu_0, # of connection points: 6
#     Node 39, Type 1, BuildingBlock: PAMTUU_clean_sbu_0, # of connection points: 6
#     Edge 40, Type (0, 1), BuildingBlock: UVAHIK_clean_linker_0, # of connection points: 2
#     Edge 41, Type (0, 1), BuildingBlock: UVAHIK_clean_linker_0, # of connection points: 2
#     Edge 42, Type (0, 1), BuildingBlock: UVAHIK_clean_linker_0, # of connection points: 2
#     Edge 43, Type (0, 1), BuildingBlock: UVAHIK_clean_linker_0, # of connection points: 2
#     Edge 44, Type (0, 1), BuildingBlock: UVAHIK_clean_linker_0, # of connection points: 2
#     Edge 45, Type (0, 1), BuildingBlock: UVAHIK_clean_linker_0, # of connection points: 2
#     Edge 46, Type (0, 1), BuildingBlock: UVAHIK_clean_linker_0, # of connection points: 2
#     Edge 47, Type (0, 1), BuildingBlock: UVAHIK_clean_linker_0, # of connection points: 2
#     Edge 48, Type (0, 1), BuildingBlock: UVAHIK_clean_linker_0, # of connection points: 2
#     Edge 49, Type (0, 1), BuildingBlock: UVAHIK_clean_linker_0, # of connection points: 2
#     Edge 50, Type (0, 1), BuildingBlock: UVAHIK_clean_linker_0, # of connection points: 2
#     Edge 51, Type (0, 1), BuildingBlock: UVAHIK_clean_linker_0, # of connection points: 2
#     Edge 52, Type (0, 1), BuildingBlock: UVAHIK_clean_linker_0, # of connection points: 2
#     Edge 53, Type (0, 1), BuildingBlock: UVAHIK_clean_linker_0, # of connection points: 2
#     Edge 54, Type (0, 1), BuildingBlock: UVAHIK_clean_linker_0, # of connection points: 2
#     Edge 55, Type (0, 1), BuildingBlock: UVAHIK_clean_linker_0, # of connection points: 2
#     Edge 56, Type (0, 1), BuildingBlock: UVAHIK_clean_linker_0, # of connection points: 2
#     Edge 57, Type (0, 1), BuildingBlock: UVAHIK_clean_linker_0, # of connection points: 2
#     Edge 58, Type (0, 1), BuildingBlock: UVAHIK_clean_linker_0, # of connection points: 2
#     Edge 59, Type (0, 1), BuildingBlock: UVAHIK_clean_linker_0, # of connection points: 2
#     Edge 60, Type (0, 1), BuildingBlock: UVAHIK_clean_linker_0, # of connection points: 2
#     Edge 61, Type (0, 1), BuildingBlock: UVAHIK_clean_linker_0, # of connection points: 2
#     Edge 62, Type (0, 1), BuildingBlock: UVAHIK_clean_linker_0, # of connection points: 2
#     Edge 63, Type (0, 1), BuildingBlock: UVAHIK_clean_linker_0, # of connection points: 2
#     Edge 64, Type (0, 1), BuildingBlock: UVAHIK_clean_linker_0, # of connection points: 2
#     Edge 65, Type (0, 1), BuildingBlock: UVAHIK_clean_linker_0, # of connection points: 2
#     Edge 66, Type (0, 1), BuildingBlock: UVAHIK_clean_linker_0, # of connection points: 2
#     Edge 67, Type (0, 1), BuildingBlock: UVAHIK_clean_linker_0, # of connection points: 2
#     Edge 68, Type (0, 1), BuildingBlock: UVAHIK_clean_linker_0, # of connection points: 2
#     Edge 69, Type (0, 1), BuildingBlock: UVAHIK_clean_linker_0, # of connection points: 2
#     Edge 70, Type (0, 1), BuildingBlock: UVAHIK_clean_linker_0, # of connection points: 2
#     Edge 71, Type (0, 1), BuildingBlock: UVAHIK_clean_linker_0, # of connection points: 2
#     Edge 72, Type (0, 1), BuildingBlock: UVAHIK_clean_linker_0, # of connection points: 2
#     Edge 73, Type (0, 1), BuildingBlock: UVAHIK_clean_linker_0, # of connection points: 2
#     Edge 74, Type (0, 1), BuildingBlock: UVAHIK_clean_linker_0, # of connection points: 2
#     Edge 75, Type (0, 1), BuildingBlock: UVAHIK_clean_linker_0, # of connection points: 2
#     Edge 76, Type (0, 1), BuildingBlock: UVAHIK_clean_linker_0, # of connection points: 2
#     Edge 77, Type (0, 1), BuildingBlock: UVAHIK_clean_linker_0, # of connection points: 2
#     Edge 78, Type (0, 1), BuildingBlock: UVAHIK_clean_linker_0, # of connection points: 2
#     Edge 79, Type (0, 1), BuildingBlock: UVAHIK_clean_linker_0, # of connection points: 2
#     Edge 80, Type (0, 1), BuildingBlock: UVAHIK_clean_linker_0, # of connection points: 2
#     Edge 81, Type (0, 1), BuildingBlock: UVAHIK_clean_linker_0, # of connection points: 2
#     Edge 82, Type (0, 1), BuildingBlock: UVAHIK_clean_linker_0, # of connection points: 2
#     Edge 83, Type (0, 1), BuildingBlock: UVAHIK_clean_linker_0, # of connection points: 2
#     Edge 84, Type (0, 1), BuildingBlock: UVAHIK_clean_linker_0, # of connection points: 2
#     Edge 85, Type (0, 1), BuildingBlock: UVAHIK_clean_linker_0, # of connection points: 2
#     Edge 86, Type (0, 1), BuildingBlock: UVAHIK_clean_linker_0, # of connection points: 2
#     Edge 87, Type (0, 1), BuildingBlock: UVAHIK_clean_linker_0, # of connection points: 2
#     Edge 88, Type (0, 1), BuildingBlock: UVAHIK_clean_linker_0, # of connection points: 2
#     Edge 89, Type (0, 1), BuildingBlock: UVAHIK_clean_linker_0, # of connection points: 2
#     Edge 90, Type (0, 1), BuildingBlock: UVAHIK_clean_linker_0, # of connection points: 2
#     Edge 91, Type (0, 1), BuildingBlock: UVAHIK_clean_linker_0, # of connection points: 2
#     Edge 92, Type (0, 1), BuildingBlock: UVAHIK_clean_linker_0, # of connection points: 2
#     Edge 93, Type (0, 1), BuildingBlock: UVAHIK_clean_linker_0, # of connection points: 2
#     Edge 94, Type (0, 1), BuildingBlock: UVAHIK_clean_linker_0, # of connection points: 2
#     Edge 95, Type (0, 1), BuildingBlock: UVAHIK_clean_linker_0, # of connection points: 2
#     Edge 96, Type (0, 1), BuildingBlock: UVAHIK_clean_linker_0, # of connection points: 2
#     Edge 97, Type (0, 1), BuildingBlock: UVAHIK_clean_linker_0, # of connection points: 2
#     Edge 98, Type (0, 1), BuildingBlock: UVAHIK_clean_linker_0, # of connection points: 2
#     Edge 99, Type (0, 1), BuildingBlock: UVAHIK_clean_linker_0, # of connection points: 2
#     Edge 100, Type (0, 1), BuildingBlock: UVAHIK_clean_linker_0, # of connection points: 2
#     Edge 101, Type (0, 1), BuildingBlock: UVAHIK_clean_linker_0, # of connection points: 2
#     Edge 102, Type (0, 1), BuildingBlock: UVAHIK_clean_linker_0, # of connection points: 2
#     Edge 103, Type (0, 1), BuildingBlock: UVAHIK_clean_linker_0, # of connection points: 2
#     Edge 104, Type (0, 1), BuildingBlock: UVAHIK_clean_linker_0, # of connection points: 2
#     Edge 105, Type (0, 1), BuildingBlock: UVAHIK_clean_linker_0, # of connection points: 2
#     Edge 106, Type (0, 1), BuildingBlock: UVAHIK_clean_linker_0, # of connection points: 2
#     Edge 107, Type (0, 1), BuildingBlock: UVAHIK_clean_linker_0, # of connection points: 2
#     Edge 108, Type (0, 1), BuildingBlock: UVAHIK_clean_linker_0, # of connection points: 2
#     Edge 109, Type (0, 1), BuildingBlock: UVAHIK_clean_linker_0, # of connection points: 2
#     Edge 110, Type (0, 1), BuildingBlock: UVAHIK_clean_linker_0, # of connection points: 2
#     Edge 111, Type (0, 1), BuildingBlock: UVAHIK_clean_linker_0, # of connection points: 2
#     Edge 112, Type (0, 1), BuildingBlock: UVAHIK_clean_linker_0, # of connection points: 2
#     Edge 113, Type (0, 1), BuildingBlock: UVAHIK_clean_linker_0, # of connection points: 2
#     Edge 114, Type (0, 1), BuildingBlock: UVAHIK_clean_linker_0, # of connection points: 2
#     Edge 115, Type (0, 1), BuildingBlock: UVAHIK_clean_linker_0, # of connection points: 2
#     Edge 116, Type (0, 1), BuildingBlock: UVAHIK_clean_linker_0, # of connection points: 2
#     Edge 117, Type (0, 1), BuildingBlock: UVAHIK_clean_linker_0, # of connection points: 2
#     Edge 118, Type (0, 1), BuildingBlock: UVAHIK_clean_linker_0, # of connection points: 2
#     Edge 119, Type (0, 1), BuildingBlock: UVAHIK_clean_linker_0, # of connection points: 2
#     Edge 120, Type (0, 1), BuildingBlock: UVAHIK_clean_linker_0, # of connection points: 2
#     Edge 121, Type (0, 1), BuildingBlock: UVAHIK_clean_linker_0, # of connection points: 2
#     Edge 122, Type (0, 1), BuildingBlock: UVAHIK_clean_linker_0, # of connection points: 2
#     Edge 123, Type (0, 1), BuildingBlock: UVAHIK_clean_linker_0, # of connection points: 2
#     Edge 124, Type (0, 1), BuildingBlock: UVAHIK_clean_linker_0, # of connection points: 2
#     Edge 125, Type (0, 1), BuildingBlock: UVAHIK_clean_linker_0, # of connection points: 2
#     Edge 126, Type (0, 1), BuildingBlock: UVAHIK_clean_linker_0, # of connection points: 2
#     Edge 127, Type (0, 1), BuildingBlock: UVAHIK_clean_linker_0, # of connection points: 2
#     Edge 128, Type (0, 1), BuildingBlock: UVAHIK_clean_linker_0, # of connection points: 2
#     Edge 129, Type (0, 1), BuildingBlock: UVAHIK_clean_linker_0, # of connection points: 2
#     Edge 130, Type (0, 1), BuildingBlock: UVAHIK_clean_linker_0, # of connection points: 2
#     Edge 131, Type (0, 1), BuildingBlock: UVAHIK_clean_linker_0, # of connection points: 2
#     Edge 132, Type (0, 1), BuildingBlock: UVAHIK_clean_linker_0, # of connection points: 2
#     Edge 133, Type (0, 1), BuildingBlock: UVAHIK_clean_linker_0, # of connection points: 2
#     Edge 134, Type (0, 1), BuildingBlock: UVAHIK_clean_linker_0, # of connection points: 2
#     Edge 135, Type (0, 1), BuildingBlock: UVAHIK_clean_linker_0, # of connection points: 2
# Relax obj value: 0.165
# Max RMSD: 0.316
# Mean RMSD: 0.181
data_MOF--net-gar--node1-QUQFOY_clean_sbu_1--node2-PAMTUU_clean_sbu_0--edge1-UVAHIK_clean_linker_0
_symmetry_space_group_name_H-M    P1
_symmetry_Int_Tables_number       1
_symmetry_cell_setting            triclinic
loop_
_symmetry_equiv_pos_as_xyz
'x, y, z'
_cell_length_a     76.832343
_cell_length_b     72.916029
_cell_length_c     76.240434
_cell_angle_alpha  93.993901
_cell_angle_beta   93.784414
_cell_angle_gamma 108.76451
loop_
_atom_site_label
_atom_site_type_symbol
_atom_site_fract_x
_atom_site_fract_y
_atom_site_fract_z
_atom_type_partial_charge
O0 O 0.04554 0.24029 0.40037 0.0
Cd1 Cd 0.0481 0.25839 0.37868 0.0
Cd2 Cd 0.03138 0.27943 0.41428 0.0
O3 O 0.03594 0.25359 0.42365 0.0
O4 O 0.06235 0.24747 0.35982 0.0
O5 O 0.07558 0.27546 0.3749 0.0
C6 C 0.07724 0.26225 0.36351 0.0
C7 C 0.03493 0.31022 0.43229 0.0
C8 C 0.04099 0.23981 0.41635 0.0
C9 C 1.00935 0.2683 0.37551 0.0
O10 O 1.01197 0.27414 0.39202 0.0
O11 O 0.02176 0.26271 0.36793 0.0
O12 O 0.02152 0.29436 0.43346 0.0
O13 O 0.04701 0.30859 0.42179 0.0
O14 O 0.02184 0.75403 0.66058 0.0
Cd15 Cd 0.02483 0.7763 0.6819 0.0
Cd16 Cd 0.0475 0.79957 0.6514 0.0
O17 O 0.03663 0.77018 0.63914 0.0
O18 O 1.00473 0.76573 0.69991 0.0
O19 O 1.00453 0.79013 0.68527 0.0
C20 C 0.99664 0.77831 0.69648 0.0
C21 C 0.04704 0.82843 0.63566 0.0
C22 C 0.02779 0.75401 0.64515 0.0
C23 C 0.06914 0.79438 0.68697 0.0
O24 O 0.06881 0.80093 0.67171 0.0
O25 O 0.05377 0.78601 0.69363 0.0
O26 O 0.05847 0.81912 0.63278 0.0
O27 O 0.03579 0.82161 0.64733 0.0
O28 O 0.57533 0.77055 0.8906 0.0
Cd29 Cd 0.5586 0.76712 0.9126 0.0
Cd30 Cd 0.53755 0.7858 0.87741 0.0
O31 O 0.56281 0.7812 0.86761 0.0
O32 O 0.57025 0.75349 0.93134 0.0
O33 O 0.54275 0.73894 0.91816 0.0
C34 C 0.55589 0.738 0.9292 0.0
C35 C 0.50709 0.78295 0.8611 0.0
C36 C 0.57603 0.77584 0.87479 0.0
C37 C 0.54876 0.80688 0.91734 0.0
O38 O 0.54273 0.80482 0.90097 0.0
O39 O 0.55468 0.79389 0.92401 0.0
O40 O 0.52215 0.79701 0.85963 0.0
O41 O 0.50929 0.76968 0.87059 0.0
O42 O 0.5291 0.24125 0.15978 0.0
Cd43 Cd 0.53125 0.26246 0.18182 0.0
Cd44 Cd 0.55533 0.288 0.15335 0.0
O45 O 0.54545 0.25894 0.13997 0.0
O46 O 0.51052 0.25118 0.19911 0.0
O47 O 0.51076 0.27606 0.18501 0.0
C48 C 0.50252 0.26385 0.19579 0.0
C49 C 0.555 0.31767 0.13879 0.0
C50 C 0.53615 0.24226 0.14483 0.0
C51 C 0.57559 0.28123 0.18893 0.0
O52 O 0.57596 0.28911 0.17427 0.0
O53 O 0.55986 0.27171 0.1944 0.0
O54 O 0.5666 0.30864 0.13565 0.0
O55 O 0.54347 0.31009 0.15001 0.0
O56 O 0.07008 0.76532 0.1397 0.0
Cd57 Cd 0.07439 0.791 0.15518 0.0
Cd58 Cd 0.09247 0.8056 0.1277 0.0
O59 O 0.08261 0.77714 0.11595 0.0
O60 O 0.05807 0.78264 0.17444 0.0
O61 O 0.05459 0.80372 0.15625 0.0
C62 C 0.04913 0.79386 0.16944 0.0
C63 C 0.08443 0.83097 0.11619 0.0
C64 C 0.07429 0.76265 0.1241 0.0
C65 C 0.11547 0.8105 0.16201 0.0
O66 O 0.11568 0.81247 0.14557 0.0
O67 O 0.10022 0.80326 0.16856 0.0
O68 O 0.09683 0.82479 0.10961 0.0
O69 O 0.07628 0.82236 0.12911 0.0
O70 O 0.54917 0.7708 0.43114 0.0
Cd71 Cd 0.52977 0.76808 0.44923 0.0
Cd72 Cd 0.50923 0.77496 0.41912 0.0
O73 O 0.53149 0.77155 0.40734 0.0
O74 O 0.53834 0.75533 0.46884 0.0
O75 O 0.51293 0.74075 0.45106 0.0
C76 C 0.52449 0.73987 0.46383 0.0
C77 C 0.48106 0.7653 0.40134 0.0
C78 C 0.54671 0.77103 0.41451 0.0
C79 C 0.51941 0.80444 0.4518 0.0
O80 O 0.51326 0.7998 0.43567 0.0
O81 O 0.52571 0.79317 0.46033 0.0
O82 O 0.49475 0.78017 0.39858 0.0
O83 O 0.48338 0.7554 0.41416 0.0
O84 O 0.57192 0.26932 0.63658 0.0
Cd85 Cd 0.57689 0.29311 0.65486 0.0
Cd86 Cd 0.59772 0.31047 0.62962 0.0
O87 O 0.58882 0.28312 0.61576 0.0
O88 O 0.5599 0.28234 0.67304 0.0
O89 O 0.55749 0.30618 0.65779 0.0
C90 C 0.55145 0.29451 0.66966 0.0
C91 C 0.5901 0.33658 0.61935 0.0
C92 C 0.57814 0.26805 0.62165 0.0
C93 C 0.61808 0.31102 0.66447 0.0
O94 O 0.61955 0.31563 0.64873 0.0
O95 O 0.60227 0.30263 0.66954 0.0
O96 O 0.60373 0.33187 0.61369 0.0
O97 O 0.5806 0.32623 0.63071 0.0
O98 O 0.01605 0.22997 0.93527 0.0
Cd99 Cd 0.01554 0.25108 0.91885 0.0
Cd100 Cd 1.0002 0.26267 0.94825 0.0
O101 O 1.00658 0.24019 0.95962 0.0
O102 O 0.0283 0.24391 0.89897 0.0
O103 O 0.03943 0.27205 0.91532 0.0
C104 C 0.04122 0.26039 0.90255 0.0
C105 C 1.0099 0.29452 0.96177 0.0
C106 C 0.01254 0.22807 0.95122 0.0
C107 C 0.97675 0.25235 0.91338 0.0
O108 O 0.97738 0.25613 0.92999 0.0
O109 O 0.99076 0.25058 0.9064 0.0
O110 O 0.99624 0.28108 0.96696 0.0
O111 O 0.01874 0.28962 0.9494 0.0
O112 O 0.44269 0.05434 0.28754 0.0
Cd113 Cd 0.42749 0.0531 0.30881 0.0
Cd114 Cd 0.45605 0.04778 0.3261 0.0
O115 O 0.4674 0.05255 0.30262 0.0
O116 O 0.40665 0.06105 0.29983 0.0
O117 O 0.42778 0.07857 0.32109 0.0
C118 C 0.41311 0.0764 0.31077 0.0
C119 C 0.4736 0.06664 0.35068 0.0
C120 C 0.45928 0.05454 0.28821 0.0
C121 C 0.42082 0.01505 0.32443 0.0
O122 O 0.43801 0.02053 0.3292 0.0
O123 O 0.41391 0.02633 0.31676 0.0
O124 O 0.47761 0.05223 0.34331 0.0
O125 O 0.45922 0.07024 0.34415 0.0
O126 O 0.31124 0.20462 0.56417 0.0
Cd127 Cd 0.30792 0.18377 0.54324 0.0
Cd128 Cd 0.29293 0.21058 0.52707 0.0
O129 O 0.30056 0.22619 0.55226 0.0
O130 O 0.31959 0.16583 0.5541 0.0
O131 O 0.32964 0.18071 0.53079 0.0
C132 C 0.33112 0.16898 0.54228 0.0
C133 C 0.29914 0.22329 0.49948 0.0
C134 C 0.30736 0.22034 0.56568 0.0
C135 C 0.26742 0.16951 0.52996 0.0
O136 O 0.26933 0.18656 0.52571 0.0
O137 O 0.28123 0.16535 0.53639 0.0
O138 O 0.28688 0.2268 0.50871 0.0
O139 O 0.30888 0.21366 0.50643 0.0
O140 O 0.15588 0.03429 0.79778 0.0
Cd141 Cd 0.17045 0.03751 0.82223 0.0
Cd142 Cd 0.13862 0.03759 0.83272 0.0
O143 O 0.12834 0.02957 0.80694 0.0
O144 O 0.17531 0.01413 0.8312 0.0
O145 O 0.19449 0.03536 0.81614 0.0
C146 C 0.19068 0.01971 0.82404 0.0
C147 C 0.12935 0.01691 0.85431 0.0
C148 C 0.13858 0.03037 0.79443 0.0
C149 C 0.16883 0.07425 0.84154 0.0
O150 O 0.15137 0.06686 0.83987 0.0
O151 O 0.17878 0.06422 0.83674 0.0
O152 O 0.11907 0.02644 0.84823 0.0
O153 O 0.14493 0.01899 0.84784 0.0
O154 O 0.27184 0.90064 0.03853 0.0
Cd155 Cd 0.27877 0.91787 0.01806 0.0
Cd156 Cd 0.27919 0.88538 1.0011 0.0
O157 O 0.2691 0.87296 0.02323 0.0
O158 O 0.27444 0.94238 0.02589 0.0
O159 O 0.25936 0.92312 1.00221 0.0
C160 C 0.26236 0.93889 0.01247 0.0
C161 C 0.26309 0.87443 0.97367 0.0
C162 C 0.26802 0.88229 0.03757 0.0
C163 C 0.31506 0.91706 0.00649 0.0
O164 O 0.30729 0.89907 1.00167 0.0
O165 O 0.30579 0.9272 0.01265 0.0
O166 O 0.27182 0.86439 0.98148 0.0
O167 O 0.26313 0.89064 0.98171 0.0
O168 O 0.28756 0.36233 0.07297 0.0
Cd169 Cd 0.29039 0.37957 0.05207 0.0
Cd170 Cd 0.29905 0.34764 0.03693 0.0
O171 O 0.28992 0.33521 0.06017 0.0
O172 O 0.28184 0.4012 0.06147 0.0
O173 O 0.26783 0.38147 0.03785 0.0
C174 C 0.2687 0.39606 0.0489 0.0
C175 C 0.28952 0.33466 0.00734 0.0
C176 C 0.28722 0.34483 0.07378 0.0
C177 C 0.32903 0.38642 0.04146 0.0
O178 O 0.3251 0.36805 0.03918 0.0
O179 O 0.31675 0.39386 0.04539 0.0
O180 O 0.29936 0.32757 0.01751 0.0
O181 O 0.28365 0.34794 0.01443 0.0
O182 O 0.83083 0.1507 0.10141 0.0
Cd183 Cd 0.81724 0.13274 0.07918 0.0
Cd184 Cd 0.81359 0.16504 0.06786 0.0
O185 O 0.83101 0.17776 0.0901 0.0
O186 O 0.82369 0.10855 0.07888 0.0
O187 O 0.83074 0.12919 0.05835 0.0
C188 C 0.83079 0.113 0.06424 0.0
C189 C 0.81965 0.17828 0.0412 0.0
C190 C 0.83559 0.16916 0.10264 0.0
C191 C 0.77884 0.13376 0.07335 0.0
O192 O 0.786 0.15148 0.07059 0.0
O193 O 0.78898 0.12341 0.07637 0.0
O194 O 0.81396 0.18698 0.05376 0.0
O195 O 0.82247 0.16214 0.04397 0.0
O196 O 0.14567 0.48076 0.22174 0.0
Cd197 Cd 0.16496 0.49624 0.24199 0.0
Cd198 Cd 0.13661 0.50212 0.25678 0.0
O199 O 0.12219 0.48503 0.23453 0.0
O200 O 0.18667 0.48729 0.24178 0.0
O201 O 0.16885 0.48395 0.26389 0.0
C202 C 0.18317 0.48172 0.25725 0.0
C203 C 0.12352 0.49508 0.28318 0.0
C204 C 0.12846 0.4779 0.2217 0.0
C205 C 0.16707 0.53758 0.24879 0.0
O206 O 0.15155 0.53098 0.25499 0.0
O207 O 0.17496 0.52599 0.24266 0.0
O208 O 0.11673 0.50348 0.27152 0.0
O209 O 0.13796 0.49053 0.27984 0.0
O210 O 0.78153 0.86356 0.57277 0.0
Cd211 Cd 0.78385 0.88171 0.55278 0.0
Cd212 Cd 0.79619 0.8517 0.53698 0.0
O213 O 0.78805 0.83853 0.56034 0.0
O214 O 0.77262 0.90109 0.56232 0.0
O215 O 0.7616 0.88252 0.53736 0.0
C216 C 0.76058 0.89597 0.54881 0.0
C217 C 0.78893 0.8366 0.50771 0.0
C218 C 0.78339 0.84692 0.57366 0.0
C219 C 0.82302 0.89323 0.54312 0.0
O220 O 0.8204 0.87527 0.53899 0.0
O221 O 0.81001 0.89882 0.54829 0.0
O222 O 0.80069 0.83291 0.5186 0.0
O223 O 0.78003 0.84759 0.51387 0.0
O224 O 0.91263 0.05944 0.19673 0.0
Cd225 Cd 0.8938 0.04353 0.21248 0.0
Cd226 Cd 0.92286 0.03762 0.22997 0.0
O227 O 0.93636 0.05595 0.21233 0.0
O228 O 0.87353 0.05435 0.21553 0.0
O229 O 0.89389 0.0537 0.23738 0.0
C230 C 0.8794 0.05789 0.23211 0.0
C231 C 0.93825 0.04125 0.25808 0.0
C232 C 0.92991 0.06295 0.19963 0.0
C233 C 0.89145 1.00254 0.21248 0.0
O234 O 0.9071 0.00929 0.22139 0.0
O235 O 0.8832 0.01393 0.20713 0.0
O236 O 0.94352 0.03365 0.24454 0.0
O237 O 0.92425 0.0472 0.25566 0.0
O238 O 0.31778 0.64757 0.60268 0.0
Cd239 Cd 0.30462 0.62691 0.58213 0.0
Cd240 Cd 0.30248 0.65726 0.56516 0.0
O241 O 0.31936 0.67227 0.5871 0.0
O242 O 0.31254 0.60391 0.58446 0.0
O243 O 0.31863 0.62224 0.5621 0.0
C244 C 0.31989 0.60738 0.56978 0.0
C245 C 0.30755 0.6717 0.53882 0.0
C246 C 0.32316 0.66576 0.60135 0.0
C247 C 0.26685 0.6272 0.5728 0.0
O248 O 0.27478 0.64366 0.56742 0.0
O249 O 0.27635 0.61732 0.57892 0.0
O250 O 0.30144 0.67924 0.55179 0.0
O251 O 0.31138 0.65595 0.54088 0.0
O252 O 0.42681 0.56887 0.71192 0.0
Cd253 Cd 0.40911 0.55555 0.72987 0.0
Cd254 Cd 0.43924 0.55121 0.74645 0.0
O255 O 0.45173 0.56772 0.7272 0.0
O256 O 0.38742 0.56452 0.72844 0.0
O257 O 0.4071 0.57018 0.75241 0.0
C258 C 0.39221 0.57171 0.74467 0.0
C259 C 0.45507 0.55704 0.77452 0.0
C260 C 0.44421 0.57276 0.71388 0.0
C261 C 0.408 0.51486 0.7325 0.0
O262 O 0.42444 0.52226 0.73961 0.0
O263 O 0.39889 0.52572 0.7278 0.0
O264 O 0.46065 0.54931 0.76128 0.0
O265 O 0.44058 0.56214 0.77176 0.0
O266 O 0.65408 0.9809 0.72105 0.0
Cd267 Cd 0.67052 0.99364 0.74397 0.0
Cd268 Cd 0.64115 1.00174 0.75523 0.0
O269 O 0.63004 0.98721 0.73091 0.0
O270 O 0.68935 0.98131 0.75003 0.0
O271 O 0.66597 0.98037 0.76603 0.0
C272 C 0.68086 0.97619 0.76389 0.0
C273 C 0.62091 0.99514 0.77717 0.0
C274 C 0.63725 0.9799 0.71894 0.0
C275 C 0.6762 0.03541 0.75276 0.0
O276 O 0.65977 0.02971 0.75715 0.0
O277 O 0.68333 0.02318 0.74656 0.0
O278 O 0.6194 0.00614 0.76508 0.0
O279 O 0.63413 0.98784 0.77694 0.0
O280 O 0.81495 0.70535 0.06393 0.0
Cd281 Cd 0.81286 0.68594 0.042 0.0
Cd282 Cd 0.79785 0.71364 0.02712 0.0
O283 O 0.80552 0.72811 0.05271 0.0
O284 O 0.82347 0.66695 0.05248 0.0
O285 O 0.83541 0.68347 0.03063 0.0
C286 C 0.83583 0.67075 0.04147 0.0
C287 C 0.80446 0.72714 0.99993 0.0
C288 C 0.8114 0.72124 0.06597 0.0
C289 C 0.77254 0.67234 0.02764 0.0
O290 O 0.77409 0.68986 0.02527 0.0
O291 O 0.78651 0.66782 0.033 0.0
O292 O 0.79296 0.73146 0.00969 0.0
O293 O 0.81321 0.71617 0.00614 0.0
O294 O 0.96102 0.5654 0.78809 0.0
Cd295 Cd 0.93982 0.55635 0.80394 0.0
Cd296 Cd 0.96599 0.5479 0.82455 0.0
O297 O 0.98113 0.55579 0.80354 0.0
O298 O 0.93156 0.57623 0.81763 0.0
O299 O 0.91969 0.56248 0.79082 0.0
C300 C 0.91969 0.57421 0.80422 0.0
C301 C 0.98108 0.56437 0.85096 0.0
C302 C 0.97683 0.56347 0.79024 0.0
C303 C 0.93144 0.51522 0.8149 0.0
O304 O 0.947 0.52037 0.82394 0.0
O305 O 0.92682 0.52728 0.80602 0.0
O306 O 0.98559 0.55041 0.84339 0.0
O307 O 0.9672 0.56851 0.84394 0.0
O308 O 0.78555 0.40535 0.53603 0.0
Cd309 Cd 0.78151 0.41924 0.51421 0.0
Cd310 Cd 0.77709 0.38424 0.4979 0.0
O311 O 0.77479 0.37554 0.5229 0.0
O312 O 0.78087 0.44463 0.52463 0.0
O313 O 0.75683 0.42272 0.50917 0.0
C314 C 0.7639 0.43946 0.51822 0.0
C315 C 0.75742 0.36558 0.47414 0.0
C316 C 0.78072 0.38708 0.53685 0.0
C317 C 0.81037 0.41658 0.49122 0.0
O318 O 0.8033 0.39828 0.49125 0.0
O319 O 0.8025 0.42774 0.49817 0.0
O320 O 0.76939 0.35956 0.48244 0.0
O321 O 0.75588 0.38201 0.47997 0.0
O322 O 0.64822 0.5108 0.29476 0.0
Cd323 Cd 0.6687 0.52037 0.31552 0.0
Cd324 Cd 0.64153 0.52576 0.33265 0.0
O325 O 0.626 0.51616 0.30892 0.0
O326 O 0.68968 0.51402 0.30607 0.0
O327 O 0.67654 0.50141 0.32938 0.0
C328 C 0.68906 0.50289 0.31856 0.0
C329 C 0.63213 0.50903 0.35681 0.0
C330 C 0.63163 0.51056 0.29491 0.0
C331 C 0.67346 0.56105 0.33158 0.0
O332 O 0.65741 0.55459 0.33669 0.0
O333 O 0.68023 0.54971 0.32316 0.0
O334 O 0.62376 0.52032 0.35068 0.0
O335 O 0.64609 0.50723 0.34916 0.0
Tb336 Tb 0.06635 0.04281 0.04414 0.0
Tb337 Tb 0.02547 0.01541 0.02575 0.0
C338 C 0.0307 0.04185 0.06151 0.0
C339 C 0.1152 0.05631 0.05494 0.0
C340 C 0.14361 0.04399 0.04264 0.0
C341 C 0.14649 0.06392 0.04656 0.0
C342 C 0.13225 0.07006 0.05256 0.0
C343 C 0.11286 0.03639 0.05224 0.0
C344 C 0.12694 0.03029 0.04614 0.0
C345 C 0.09882 0.06226 0.05613 0.0
O346 O 0.05885 0.0159 0.05719 0.0
O347 O 0.03827 0.99516 0.03556 0.0
O348 O 0.04525 0.01683 0.00635 0.0
O349 O 0.0714 0.0224 0.02487 0.0
O350 O 0.99954 0.99439 0.02726 0.0
O351 O 1.00719 0.00652 0.00279 0.0
O352 O 0.02643 0.04519 0.02359 0.0
O353 O 0.05774 0.05875 0.02396 0.0
O354 O 0.04704 0.05285 0.05801 0.0
O355 O 0.02202 0.02483 0.05266 0.0
C356 C 0.04957 0.99819 0.04995 0.0
O357 O 0.09141 0.06413 0.04079 0.0
O358 O 0.08642 0.05246 0.06592 0.0
C359 C 0.06202 0.01615 0.00947 0.0
C360 C 0.97674 1.00078 0.00913 0.0
C361 C 0.94432 0.01064 0.0051 0.0
C362 C 0.94393 0.99154 1.0002 0.0
C363 C 0.96011 0.98667 1.00213 0.0
C364 C 0.97711 0.01977 0.01412 0.0
C365 C 0.96108 0.02468 0.01205 0.0
C366 C 0.99382 0.99599 0.01114 0.0
C367 C 0.04102 0.05953 0.02058 0.0
H368 H 0.15927 0.07471 0.04395 0.0
H369 H 0.13415 0.08548 0.05427 0.0
H370 H 0.0997 0.02552 0.05372 0.0
H371 H 0.12453 0.01483 0.04345 0.0
H372 H 0.93117 0.98045 0.99486 0.0
H373 H 0.95965 0.97193 0.99822 0.0
H374 H 0.9898 0.0308 0.0197 0.0
H375 H 0.96172 0.03939 0.01632 0.0
Tb376 Tb 0.2802 0.77831 0.30452 0.0
Tb377 Tb 0.30191 0.77747 0.26907 0.0
C378 C 0.2665 0.79001 0.26836 0.0
C379 C 0.26554 0.76635 0.34778 0.0
C380 C 0.27033 0.74776 0.37792 0.0
C381 C 0.25899 0.75958 0.37774 0.0
C382 C 0.25665 0.76885 0.36275 0.0
C383 C 0.27647 0.75422 0.34773 0.0
C384 C 0.27887 0.74501 0.36267 0.0
C385 C 0.26441 0.77713 0.33251 0.0
O386 O 0.27619 0.74821 0.29592 0.0
O387 O 0.27703 0.75219 0.26665 0.0
O388 O 0.31371 0.7623 0.28747 0.0
O389 O 0.30698 0.77601 0.31312 0.0
O390 O 0.30318 0.76357 0.24431 0.0
O391 O 0.32448 0.79005 0.25473 0.0
O392 O 0.31729 0.80364 0.28612 0.0
O393 O 0.29333 0.80833 0.2999 0.0
O394 O 0.2618 0.78135 0.28274 0.0
O395 O 0.28299 0.79318 0.2629 0.0
C396 C 0.27175 0.74109 0.27941 0.0
O397 O 0.27977 0.79058 0.33011 0.0
O398 O 0.25666 0.76647 0.31785 0.0
C399 C 0.3164 0.76657 0.30468 0.0
C400 C 0.3145 0.7867 0.2246 0.0
C401 C 0.30507 0.80104 0.19331 0.0
C402 C 0.31268 0.78585 0.19267 0.0
C403 C 0.31731 0.77869 0.20823 0.0
C404 C 0.30735 0.80215 0.2253 0.0
C405 C 0.30265 0.80923 0.20983 0.0
C406 C 0.31732 0.7779 0.2408 0.0
C407 C 0.3101 0.81498 0.2951 0.0
H408 H 0.25206 0.76178 0.38922 0.0
H409 H 0.24818 0.7782 0.36295 0.0
H410 H 0.28351 0.75224 0.33625 0.0
H411 H 0.28789 0.73626 0.36246 0.0
H412 H 0.3149 0.77939 0.18014 0.0
H413 H 0.3227 0.76666 0.20747 0.0
H414 H 0.30496 0.80845 0.23782 0.0
H415 H 0.29655 0.8207 0.21081 0.0
Tb416 Tb 0.52749 0.03074 0.54373 0.0
Tb417 Tb 0.57115 0.04065 0.53446 0.0
C418 C 0.55619 0.01931 0.56767 0.0
C419 C 0.48266 0.03812 0.54931 0.0
C420 C 0.45972 0.06161 0.54769 0.0
C421 C 0.45273 0.04221 0.55183 0.0
C422 C 0.46409 0.03059 0.5526 0.0
C423 C 0.48978 0.05748 0.54528 0.0
C424 C 0.47842 0.06911 0.54445 0.0
C425 C 0.49429 0.02553 0.54945 0.0
O426 O 0.54386 0.05775 0.55937 0.0
O427 O 0.56844 0.06865 0.54273 0.0
O428 O 0.55574 0.04548 0.51128 0.0
O429 O 0.53222 0.05196 0.52465 0.0
O430 O 0.59962 0.05302 0.54195 0.0
O431 O 0.58955 0.03768 0.51614 0.0
O432 O 0.55873 0.00938 0.53041 0.0
O433 O 0.52816 0.00666 0.52529 0.0
O434 O 0.53895 0.01414 0.56086 0.0
O435 O 0.56953 0.03281 0.5614 0.0
C436 C 0.55777 0.07188 0.55453 0.0
O437 O 0.49951 0.02144 0.53416 0.0
O438 O 0.50788 0.03011 0.56189 0.0
C439 C 0.54249 0.05321 0.51146 0.0
C440 C 0.61621 0.03368 0.52978 0.0
C441 C 0.63849 0.00963 0.53251 0.0
C442 C 0.64065 0.02255 0.51931 0.0
C443 C 0.62965 0.0345 0.518 0.0
C444 C 0.61396 0.02077 0.54294 0.0
C445 C 0.62509 0.00897 0.54439 0.0
C446 C 0.60393 0.04543 0.52754 0.0
C447 C 0.54173 0.99939 0.52425 0.0
H448 H 0.43836 0.03587 0.55416 0.0
H449 H 0.45832 0.01564 0.5556 0.0
H450 H 0.50411 0.06355 0.54268 0.0
H451 H 0.48432 0.08403 0.54144 0.0
H452 H 0.65094 0.02349 0.51005 0.0
H453 H 0.63148 0.04424 0.50766 0.0
H454 H 0.60341 0.01962 0.55194 0.0
H455 H 0.62293 0.999 0.55454 0.0
Tb456 Tb 0.3154 0.28413 0.78863 0.0
Tb457 Tb 0.27662 0.29339 0.77961 0.0
C458 C 0.27694 0.25431 0.79443 0.0
C459 C 0.36162 0.27983 0.78366 0.0
C460 C 0.39201 0.2828 0.76374 0.0
C461 C 0.38417 0.26614 0.77255 0.0
C462 C 0.36918 0.26473 0.78245 0.0
C463 C 0.36924 0.29639 0.77474 0.0
C464 C 0.38432 0.2979 0.76497 0.0
C465 C 0.34568 0.27795 0.79401 0.0
O466 O 0.30479 0.27099 0.76171 0.0
O467 O 0.28653 0.28919 0.75396 0.0
O468 O 0.29919 0.32069 0.78064 0.0
O469 O 0.32242 0.30907 0.77355 0.0
O470 O 0.25003 0.28583 0.76643 0.0
O471 O 0.26174 0.31274 0.78322 0.0
O472 O 0.27953 0.29308 0.80818 0.0
O473 O 0.31096 0.30018 0.81247 0.0
O474 O 0.29445 0.26206 0.80019 0.0
O475 O 0.26877 0.26257 0.78324 0.0
C476 C 0.29587 0.27755 0.74961 0.0
O477 O 0.34296 0.29409 0.79948 0.0
O478 O 0.33029 0.26444 0.78784 0.0
C479 C 0.3153 0.32313 0.77461 0.0
C480 C 0.23003 0.29694 0.78326 0.0
C481 C 0.19916 0.29169 0.80271 0.0
C482 C 0.20425 0.30687 0.7917 0.0
C483 C 0.21955 0.30944 0.78203 0.0
C484 C 0.22495 0.28167 0.79413 0.0
C485 C 0.20955 0.27899 0.80369 0.0
C486 C 0.24695 0.30086 0.7742 0.0
C487 C 0.29498 0.29882 0.81861 0.0
H488 H 0.38947 0.25406 0.77165 0.0
H489 H 0.36342 0.25176 0.78909 0.0
H490 H 0.3636 0.30823 0.77536 0.0
H491 H 0.39011 0.31104 0.75859 0.0
H492 H 0.1964 0.31676 0.79056 0.0
H493 H 0.22339 0.32138 0.7738 0.0
H494 H 0.23307 0.27205 0.79546 0.0
H495 H 0.20607 0.26731 0.81222 0.0
Tb496 Tb 0.04226 0.04504 0.54315 0.0
Tb497 Tb 0.04201 0.02157 0.50571 0.0
C498 C 1.0055 0.01916 0.52252 0.0
C499 C 0.05087 0.05999 0.59027 0.0
C500 C 0.06573 0.05409 0.62322 0.0
C501 C 0.05492 0.06639 0.62214 0.0
C502 C 0.04753 0.06932 0.60573 0.0
C503 C 0.06168 0.04777 0.59128 0.0
C504 C 0.06906 0.04486 0.60761 0.0
C505 C 0.0426 0.06222 0.57307 0.0
O506 O 0.04022 0.01529 0.54985 0.0
O507 O 0.04937 1.00297 0.52481 0.0
O508 O 0.07012 0.04066 0.51244 0.0
O509 O 0.07041 0.04481 0.5424 0.0
O510 O 0.02961 0.99761 0.48693 0.0
O511 O 0.05438 0.02009 0.48209 0.0
O512 O 0.03375 0.04704 0.49889 0.0
O513 O 0.04669 0.06723 0.52396 0.0
O514 O 0.01396 0.03627 0.53108 0.0
O515 O 0.01485 0.00952 0.5145 0.0
C516 C 0.04527 1.00157 0.54141 0.0
O517 O 0.05427 0.06933 0.56165 0.0
O518 O 0.02909 0.04698 0.56611 0.0
C519 C 0.07912 0.04598 0.52811 0.0
C520 C 0.03212 0.00731 0.45808 0.0
C521 C 0.01739 0.01547 0.42585 0.0
C522 C 0.03472 0.0127 0.42718 0.0
C523 C 0.04198 0.0086 0.44315 0.0
C524 C 0.01473 0.00985 0.45678 0.0
C525 C 1.00738 0.01374 0.4408 0.0
C526 C 0.04074 1.00502 0.47521 0.0
C527 C 0.04001 0.0648 0.50723 0.0
H528 H 0.05226 0.0738 0.63396 0.0
H529 H 0.03914 0.07873 0.60511 0.0
H530 H 0.06423 0.04031 0.57943 0.0
H531 H 0.07708 0.03507 0.60804 0.0
H532 H 0.04293 0.01422 0.41603 0.0
H533 H 0.05552 0.00695 0.44397 0.0
H534 H 1.00692 0.00914 0.46819 0.0
H535 H 0.99388 0.01546 0.44019 0.0
Tb536 Tb 0.29625 0.80924 0.77053 0.0
Tb537 Tb 0.27671 0.76599 0.78199 0.0
C538 C 0.29788 0.77235 0.74797 0.0
C539 C 0.30171 0.8596 0.76742 0.0
C540 C 0.28727 0.88925 0.77745 0.0
C541 C 0.3017 0.89276 0.7663 0.0
C542 C 0.30891 0.87798 0.76134 0.0
C543 C 0.28735 0.8561 0.77845 0.0
C544 C 0.28035 0.87078 0.78358 0.0
C545 C 0.3087 0.84369 0.76251 0.0
O546 O 0.26607 0.80462 0.76701 0.0
O547 O 0.25522 0.77141 0.76388 0.0
O548 O 0.26755 0.78495 0.79947 0.0
O549 O 0.29117 0.81326 0.79791 0.0
O550 O 0.25955 0.73725 0.77505 0.0
O551 O 0.27124 0.74701 0.802 0.0
O552 O 0.30569 0.77463 0.7946 0.0
O553 O 0.32029 0.80032 0.77915 0.0
O554 O 0.29641 0.78975 0.74776 0.0
O555 O 0.2934 0.76198 0.76132 0.0
C556 C 0.25241 0.78821 0.7621 0.0
O557 O 0.31577 0.83722 0.77577 0.0
O558 O 0.29722 0.82948 0.75199 0.0
C559 C 0.27695 0.80289 0.80549 0.0
C560 C 0.26918 0.7152 0.7913 0.0
C561 C 0.28349 0.68428 0.79321 0.0
C562 C 0.27679 0.69121 0.8081 0.0
C563 C 0.26958 0.70649 0.80711 0.0
C564 C 0.27585 0.70821 0.77641 0.0
C565 C 0.28285 0.69286 0.77735 0.0
C566 C 0.26258 0.73204 0.79069 0.0
C567 C 0.32116 0.78726 0.79014 0.0
H568 H 0.30722 0.90678 0.76124 0.0
H569 H 0.31996 0.88085 0.75274 0.0
H570 H 0.28154 0.84194 0.78315 0.0
H571 H 0.26957 0.86763 0.79248 0.0
H572 H 0.27712 0.6848 0.82046 0.0
H573 H 0.26456 0.7117 0.81875 0.0
H574 H 0.27595 0.71477 0.76408 0.0
H575 H 0.28822 0.68803 0.76576 0.0
Tb576 Tb 0.54716 0.01726 0.04894 0.0
Tb577 Tb 0.54736 0.0359 0.01187 0.0
C578 C 0.58319 0.0417 0.0354 0.0
C579 C 0.54069 0.00966 0.09498 0.0
C580 C 0.53066 0.02308 0.12683 0.0
C581 C 0.54033 0.00965 0.12666 0.0
C582 C 0.54534 1.00299 0.11079 0.0
C583 C 0.53083 0.02284 0.09504 0.0
C584 C 0.52584 0.0295 0.11085 0.0
C585 C 0.54722 1.00412 0.07857 0.0
O586 O 0.54911 0.0478 0.05678 0.0
O587 O 0.54042 0.05701 0.03023 0.0
O588 O 0.52093 0.01348 0.01237 0.0
O589 O 0.51939 0.01718 0.04194 0.0
O590 O 0.56224 0.04893 0.99145 0.0
O591 O 0.53285 0.04358 0.99076 0.0
O592 O 0.55397 0.00879 0.00539 0.0
O593 O 0.54384 0.99232 0.02933 0.0
O594 O 0.57484 0.02483 0.04094 0.0
O595 O 0.5738 0.05077 0.02667 0.0
C596 C 0.54408 0.06036 0.04763 0.0
O597 O 0.53446 0.99617 0.0656 0.0
O598 O 0.56119 0.01764 0.07353 0.0
C599 C 0.51123 0.01147 0.02598 0.0
C600 C 0.54474 0.03745 0.96412 0.0
C601 C 0.54035 0.01744 0.93027 0.0
C602 C 0.53184 0.03166 0.93351 0.0
C603 C 0.53406 0.04162 0.95032 0.0
C604 C 0.55276 0.02287 0.96105 0.0
C605 C 0.5507 0.01309 0.94432 0.0
C606 C 0.54727 0.04796 0.98178 0.0
C607 C 0.54924 0.99244 0.01322 0.0
H608 H 0.54401 1.0043 0.13879 0.0
H609 H 0.55306 0.9929 0.11089 0.0
H610 H 0.52733 0.02827 0.08288 0.0
H611 H 0.5186 0.04002 0.11062 0.0
H612 H 0.5236 0.03521 0.92305 0.0
H613 H 0.52756 0.05264 0.95251 0.0
H614 H 0.56095 0.01924 0.97151 0.0
H615 H 0.55778 1.00256 0.94232 0.0
Tb616 Tb 0.28209 0.24582 0.27454 0.0
Tb617 Tb 0.30163 0.29034 0.28919 0.0
C618 C 0.28626 0.27929 0.24979 0.0
C619 C 0.27535 0.19784 0.25193 0.0
C620 C 0.29515 0.1725 0.2441 0.0
C621 C 0.27605 0.1651 0.24591 0.0
C622 C 0.26631 0.17774 0.2502 0.0
C623 C 0.29337 0.20523 0.24707 0.0
C624 C 0.30329 0.19268 0.24334 0.0
C625 C 0.26798 0.21062 0.26255 0.0
O626 O 0.31205 0.25007 0.27233 0.0
O627 O 0.3238 0.2834 0.27544 0.0
O628 O 0.30993 0.27289 0.30812 0.0
O629 O 0.28327 0.24764 0.30336 0.0
O630 O 0.31798 0.3188 0.28575 0.0
O631 O 0.30798 0.31144 0.31098 0.0
O632 O 0.27302 0.28358 0.29763 0.0
O633 O 0.25797 0.25486 0.28064 0.0
O634 O 0.28785 0.26215 0.25156 0.0
O635 O 0.28692 0.29109 0.26383 0.0
C636 C 0.32583 0.26637 0.27093 0.0
O637 O 0.27685 0.21647 0.27818 0.0
O638 O 0.26494 0.22488 0.25489 0.0
C639 C 0.29775 0.25805 0.31392 0.0
C640 C 0.30946 0.34237 0.30283 0.0
C641 C 0.29536 0.3735 0.30603 0.0
C642 C 0.30317 0.36783 0.32102 0.0
C643 C 0.31027 0.35244 0.3194 0.0
C644 C 0.30173 0.34812 0.28783 0.0
C645 C 0.29483 0.36359 0.28942 0.0
C646 C 0.31597 0.32545 0.30154 0.0
C647 C 0.25746 0.26937 0.29186 0.0
H648 H 0.26905 0.14961 0.24573 0.0
H649 H 0.25226 0.17182 0.25366 0.0
H650 H 0.30042 0.22077 0.24799 0.0
H651 H 0.31784 0.19913 0.24183 0.0
H652 H 0.30378 0.37529 0.33395 0.0
H653 H 0.31614 0.34821 0.33113 0.0
H654 H 0.30073 0.3405 0.27489 0.0
H655 H 0.28861 0.36746 0.27769 0.0
Tb656 Tb 0.55152 0.53849 0.05334 0.0
Tb657 Tb 0.55253 0.51636 0.01555 0.0
C658 C 0.51604 0.51029 0.03257 0.0
C659 C 0.54689 0.54487 0.10027 0.0
C660 C 0.54636 0.52713 0.13188 0.0
C661 C 0.55198 0.54754 0.13218 0.0
C662 C 0.55232 0.55635 0.11644 0.0
C663 C 0.54018 0.52452 0.1 0.0
C664 C 0.53993 0.51571 0.11568 0.0
C665 C 0.55073 0.55382 0.08372 0.0
O666 O 0.55824 0.51224 0.06045 0.0
O667 O 0.55122 0.49358 0.03373 0.0
O668 O 0.58067 0.52653 0.02812 0.0
O669 O 0.57769 0.55299 0.04347 0.0
O670 O 0.54079 0.49267 0.99636 0.0
O671 O 0.56557 0.5158 0.99226 0.0
O672 O 0.55449 0.54625 0.0094 0.0
O673 O 0.54469 0.55768 0.03443 0.0
O674 O 0.52584 0.51477 0.04784 0.0
O675 O 0.524 0.51479 0.01806 0.0
C676 C 0.55513 0.49528 0.05108 0.0
O677 O 0.56575 0.55261 0.07744 0.0
O678 O 0.5369 0.54925 0.0715 0.0
C679 C 0.58804 0.54418 0.03598 0.0
C680 C 0.54359 0.50364 0.96783 0.0
C681 C 0.52896 0.51441 0.93677 0.0
C682 C 0.54759 0.51538 0.93883 0.0
C683 C 0.55479 0.50998 0.95419 0.0
C684 C 0.52484 0.50207 0.96559 0.0
C685 C 0.51759 0.50729 0.95017 0.0
C686 C 0.55204 0.50079 0.98492 0.0
C687 C 0.54926 0.5597 0.01801 0.0
H688 H 0.55721 0.5567 0.14444 0.0
H689 H 0.55771 0.57206 0.11683 0.0
H690 H 0.536 0.51544 0.08758 0.0
H691 H 0.53541 0.49997 0.11508 0.0
H692 H 0.5568 0.521 0.92888 0.0
H693 H 0.56932 0.51146 0.9557 0.0
H694 H 0.51583 0.49732 0.97591 0.0
H695 H 0.50311 0.50599 0.94888 0.0
Tb696 Tb 0.80152 0.29594 0.28002 0.0
Tb697 Tb 0.78143 0.25205 0.28924 0.0
C698 C 0.80379 0.26029 0.25571 0.0
C699 C 0.80769 0.34696 0.28102 0.0
C700 C 0.79297 0.37596 0.29214 0.0
C701 C 0.80953 0.38088 0.28394 0.0
C702 C 0.81685 0.36639 0.27835 0.0
C703 C 0.79138 0.34213 0.28948 0.0
C704 C 0.78408 0.35647 0.29498 0.0
C705 C 0.81488 0.33141 0.27539 0.0
O706 O 0.77152 0.29079 0.27307 0.0
O707 O 0.75997 0.25745 0.27113 0.0
O708 O 0.76958 0.27032 0.30453 0.0
O709 O 0.79477 0.29743 0.30719 0.0
O710 O 0.76652 0.22253 0.2824 0.0
O711 O 0.77436 0.23406 0.30975 0.0
O712 O 0.80999 0.26093 0.30308 0.0
O713 O 0.82518 0.28601 0.28743 0.0
O714 O 0.80375 0.27831 0.25676 0.0
O715 O 0.79764 0.24859 0.26787 0.0
C716 C 0.75774 0.27435 0.26834 0.0
O717 O 0.82074 0.32348 0.2883 0.0
O718 O 0.80417 0.3183 0.26341 0.0
C719 C 0.77888 0.28748 0.31236 0.0
C720 C 0.77574 0.20311 0.30184 0.0
C721 C 0.79183 0.17429 0.30826 0.0
C722 C 0.77536 0.17393 0.31551 0.0
C723 C 0.76737 0.18827 0.31231 0.0
C724 C 0.79229 0.20372 0.29483 0.0
C725 C 0.80019 0.18939 0.2979 0.0
C726 C 0.76771 0.21842 0.29875 0.0
C727 C 0.82571 0.27296 0.29849 0.0
H728 H 0.81659 0.39581 0.28156 0.0
H729 H 0.82951 0.37032 0.27192 0.0
H730 H 0.78425 0.3272 0.29183 0.0
H731 H 0.77149 0.35231 0.30153 0.0
H732 H 0.76866 0.16261 0.32366 0.0
H733 H 0.7547 0.18779 0.31801 0.0
H734 H 0.79905 0.21522 0.28685 0.0
H735 H 0.81263 0.18994 0.29175 0.0
Tb736 Tb 0.03197 0.52457 0.55497 0.0
Tb737 Tb 0.03427 0.54305 0.51768 0.0
C738 C 0.06919 0.5475 0.54209 0.0
C739 C 0.03524 0.52226 0.60276 0.0
C740 C 0.04122 0.54466 0.6354 0.0
C741 C 0.02527 0.52834 0.6314 0.0
C742 C 0.02235 0.51717 0.61523 0.0
C743 C 0.05149 0.53829 0.60694 0.0
C744 C 0.05454 0.54931 0.62326 0.0
C745 C 0.03053 0.51213 0.5849 0.0
O746 O 0.02553 0.55185 0.56065 0.0
O747 O 0.03669 0.56815 0.5369 0.0
O748 O 1.00595 0.53494 0.52424 0.0
O749 O 1.00693 0.50898 0.53837 0.0
O750 O 0.04803 0.56397 0.50128 0.0
O751 O 0.02161 0.54242 0.49233 0.0
O752 O 0.03226 0.5124 0.51026 0.0
O753 O 0.03851 0.5027 0.53738 0.0
O754 O 0.059 0.54614 0.55531 0.0
O755 O 0.0615 0.54215 0.52592 0.0
C756 C 0.03066 0.56813 0.55276 0.0
O757 O 0.01648 0.51474 0.57611 0.0
O758 O 0.04423 0.5135 0.57523 0.0
C759 C 0.99772 0.51754 0.52879 0.0
C760 C 0.04352 0.54969 0.47169 0.0
C761 C 0.05585 0.53362 0.44221 0.0
C762 C 0.0375 0.53355 0.44191 0.0
C763 C 0.03145 0.54161 0.45646 0.0
C764 C 0.06198 0.55022 0.47189 0.0
C765 C 0.0681 0.54236 0.45725 0.0
C766 C 0.03615 0.55556 0.48772 0.0
C767 C 0.03586 0.49942 0.51995 0.0
H768 H 0.01491 0.52443 0.64071 0.0
H769 H 1.00971 0.50496 0.6122 0.0
H770 H 0.06155 0.54267 0.59742 0.0
H771 H 0.06689 0.56187 0.62613 0.0
H772 H 0.02762 0.52674 0.43065 0.0
H773 H 0.01712 0.54091 0.45606 0.0
H774 H 0.07163 0.55628 0.48348 0.0
H775 H 0.08241 0.54302 0.4578 0.0
Tb776 Tb 0.81311 0.78198 0.28839 0.0
Tb777 Tb 0.77256 0.78793 0.27966 0.0
C778 C 0.77616 0.75034 0.29507 0.0
C779 C 0.86025 0.78093 0.28283 0.0
C780 C 0.89076 0.78685 0.26273 0.0
C781 C 0.89266 0.78509 0.28097 0.0
C782 C 0.87752 0.78215 0.29091 0.0
C783 C 0.8582 0.78264 0.26464 0.0
C784 C 0.87333 0.7855 0.25465 0.0
C785 C 0.84462 0.7785 0.29356 0.0
O786 O 0.8025 0.7678 0.2618 0.0
O787 O 0.78249 0.78408 0.25388 0.0
O788 O 0.79342 0.81614 0.27963 0.0
O789 O 0.81791 0.80652 0.2727 0.0
O790 O 0.7452 0.77684 0.26783 0.0
O791 O 0.75582 0.80555 0.28171 0.0
O792 O 0.77659 0.78977 0.30841 0.0
O793 O 0.80815 0.79718 0.31238 0.0
O794 O 0.79362 0.75901 0.30059 0.0
O795 O 0.76722 0.75761 0.28374 0.0
C796 C 0.79285 0.77343 0.24963 0.0
O797 O 0.841 0.79438 0.29804 0.0
O798 O 0.82966 0.76401 0.28816 0.0
C799 C 0.80939 0.81946 0.27314 0.0
C800 C 0.72502 0.78725 0.28482 0.0
C801 C 0.69413 0.77943 0.3047 0.0
C802 C 0.71207 0.78399 0.31312 0.0
C803 C 0.72731 0.78771 0.30328 0.0
C804 C 0.70721 0.7825 0.27629 0.0
C805 C 0.69188 0.77856 0.28613 0.0
C806 C 0.74115 0.79174 0.27451 0.0
C807 C 0.79223 0.7959 0.31861 0.0
H808 H 0.90583 0.7858 0.28753 0.0
H809 H 0.87932 0.7809 0.30495 0.0
H810 H 0.84495 0.7819 0.25822 0.0
H811 H 0.87145 0.78699 0.24068 0.0
H812 H 0.71445 0.78511 0.32737 0.0
H813 H 0.74093 0.7912 0.31013 0.0
H814 H 0.70516 0.78188 0.26204 0.0
H815 H 0.67827 0.77477 0.27915 0.0
Tb816 Tb 0.7871 0.27898 0.80501 0.0
Tb817 Tb 0.80678 0.27625 0.76839 0.0
C818 C 0.77071 0.28745 0.7687 0.0
C819 C 0.77655 0.2686 0.84936 0.0
C820 C 0.7854 0.25147 0.8791 0.0
C821 C 0.77303 0.2621 0.87991 0.0
C822 C 0.7687 0.27071 0.86512 0.0
C823 C 0.78848 0.25757 0.8484 0.0
C824 C 0.79292 0.24914 0.86314 0.0
C825 C 0.77329 0.27854 0.83406 0.0
O826 O 0.78412 0.2486 0.7984 0.0
O827 O 0.78392 0.24951 0.7686 0.0
O828 O 0.82025 0.26317 0.78752 0.0
O829 O 0.81495 0.2793 0.81243 0.0
O830 O 0.80441 0.26471 0.74204 0.0
O831 O 0.83051 0.28375 0.7546 0.0
O832 O 0.82102 0.3048 0.78205 0.0
O833 O 0.79858 0.30886 0.79889 0.0
O834 O 0.76718 0.27944 0.78357 0.0
O835 O 0.78691 0.29101 0.76247 0.0
C836 C 0.77971 0.23981 0.78238 0.0
O837 O 0.78772 0.29246 0.83036 0.0
O838 O 0.76486 0.26713 0.81999 0.0
C839 C 0.82401 0.26922 0.80442 0.0
C840 C 0.82306 0.28674 0.72483 0.0
C841 C 0.82234 0.30681 0.69476 0.0
C842 C 0.82892 0.29087 0.69428 0.0
C843 C 0.82923 0.28088 0.70922 0.0
C844 C 0.81714 0.30305 0.7256 0.0
C845 C 0.81679 0.31302 0.71068 0.0
C846 C 0.82129 0.27493 0.73977 0.0
C847 C 0.81411 0.31593 0.79165 0.0
H848 H 0.76713 0.2642 0.8921 0.0
H849 H 0.75952 0.27925 0.86606 0.0
H850 H 0.79461 0.25573 0.83628 0.0
H851 H 0.80229 0.24082 0.86207 0.0
H852 H 0.8335 0.28591 0.68226 0.0
H853 H 0.83381 0.26828 0.70845 0.0
H854 H 0.81223 0.30768 0.73757 0.0
H855 H 0.81144 0.32507 0.71143 0.0
Tb856 Tb 0.77812 0.75805 0.77926 0.0
Tb857 Tb 0.79566 0.80395 0.79072 0.0
C858 C 0.7792 0.78789 0.75136 0.0
C859 C 0.77364 0.70651 0.77687 0.0
C860 C 0.79329 0.68094 0.78434 0.0
C861 C 0.78585 0.68112 0.76701 0.0
C862 C 0.77606 0.69378 0.76333 0.0
C863 C 0.78048 0.70583 0.79429 0.0
C864 C 0.7901 0.69309 0.79799 0.0
C865 C 0.76564 0.72163 0.7725 0.0
O866 O 0.80624 0.76492 0.7701 0.0
O867 O 0.82021 0.79612 0.78307 0.0
O868 O 0.79135 0.78955 0.81493 0.0
O869 O 0.79478 0.7612 0.8044 0.0
O870 O 0.79751 0.83252 0.78649 0.0
O871 O 0.81426 0.82663 0.8079 0.0
O872 O 0.76587 0.79851 0.7945 0.0
O873 O 0.75521 0.76512 0.79151 0.0
O874 O 0.7696 0.77123 0.7568 0.0
O875 O 0.79181 0.80119 0.762 0.0
C876 C 0.82117 0.7805 0.77362 0.0
O877 O 0.76131 0.73098 0.78577 0.0
O878 O 0.7742 0.73341 0.76141 0.0
C879 C 0.79465 0.77343 0.81779 0.0
C880 C 0.8026 0.85273 0.81259 0.0
C881 C 0.7844 0.87591 0.82953 0.0
C882 C 0.782 0.85696 0.83419 0.0
C883 C 0.7909 0.84538 0.82565 0.0
C884 C 0.80614 0.87203 0.80889 0.0
C885 C 0.79711 0.88351 0.81721 0.0
C886 C 0.80866 0.83976 0.80074 0.0
C887 C 0.75256 0.78187 0.79588 0.0
H888 H 0.78823 0.67208 0.75617 0.0
H889 H 0.771 0.69416 0.7498 0.0
H890 H 0.7789 0.71551 0.80504 0.0
H891 H 0.79536 0.69304 0.81152 0.0
H892 H 0.77259 0.85071 0.8438 0.0
H893 H 0.78788 0.8304 0.82858 0.0
H894 H 0.81496 0.87783 0.79868 0.0
H895 H 0.79915 0.89784 0.81296 0.0
Tb896 Tb 0.56813 0.54679 0.54689 0.0
Tb897 Tb 0.52709 0.51846 0.52973 0.0
C898 C 0.53269 0.54507 0.56521 0.0
C899 C 0.61611 0.55998 0.56273 0.0
C900 C 0.64628 0.5462 0.56627 0.0
C901 C 0.64873 0.56605 0.57052 0.0
C902 C 0.63369 0.5729 0.56874 0.0
C903 C 0.61359 0.54019 0.55883 0.0
C904 C 0.62848 0.53337 0.56053 0.0
C905 C 0.6003 0.56674 0.55953 0.0
O906 O 0.56218 0.52018 0.56021 0.0
O907 O 0.54035 0.4987 0.53987 0.0
O908 O 0.54617 0.51911 0.50981 0.0
O909 O 0.57287 0.52586 0.52788 0.0
O910 O 0.50318 0.49459 0.53082 0.0
O911 O 0.50651 0.51166 0.50848 0.0
O912 O 0.52773 0.54825 0.52761 0.0
O913 O 0.55886 0.56203 0.52651 0.0
O914 O 0.54851 0.55643 0.56083 0.0
O915 O 0.52411 0.52785 0.55674 0.0
C916 C 0.55244 0.50232 0.55374 0.0
O917 O 0.59442 0.56554 0.54291 0.0
O918 O 0.58674 0.55966 0.56919 0.0
C919 C 0.56314 0.51893 0.51271 0.0
C920 C 0.47683 0.50041 0.51805 0.0
C921 C 0.44327 0.50781 0.52034 0.0
C922 C 0.44854 0.50288 0.50384 0.0
C923 C 0.46518 0.49911 0.50273 0.0
C924 C 0.47143 0.50505 0.53457 0.0
C925 C 0.45475 0.5086 0.5357 0.0
C926 C 0.49511 0.49833 0.51657 0.0
C927 C 0.54195 0.56247 0.52361 0.0
H928 H 0.66226 0.57626 0.57504 0.0
H929 H 0.63581 0.58825 0.57177 0.0
H930 H 0.60013 0.53004 0.55402 0.0
H931 H 0.6261 0.51812 0.5567 0.0
H932 H 0.4399 0.50217 0.49183 0.0
H933 H 0.46918 0.49565 0.48987 0.0
H934 H 0.48028 0.50645 0.5466 0.0
H935 H 0.45117 0.5127 0.54856 0.0
Tb936 Tb 0.02737 0.52572 0.04455 0.0
Tb937 Tb 0.07251 0.53548 0.04011 0.0
C938 C 0.05256 0.51086 0.06989 0.0
C939 C 0.98224 0.53375 0.04673 0.0
C940 C 0.95989 0.55783 0.04456 0.0
C941 C 0.95221 0.53806 0.04738 0.0
C942 C 0.96329 0.52616 0.04843 0.0
C943 C 0.99007 0.55349 0.04412 0.0
C944 C 0.97901 0.56543 0.04308 0.0
C945 C 0.99357 0.52084 0.04711 0.0
O946 O 0.04239 0.55156 0.06219 0.0
O947 O 0.06943 0.56319 0.04902 0.0
O948 O 0.06018 0.54236 0.01609 0.0
O949 O 0.03478 0.54794 0.02649 0.0
O950 O 0.10019 0.54618 0.05099 0.0
O951 O 0.09317 0.53473 0.02363 0.0
O952 O 0.05982 0.50455 0.03279 0.0
O953 O 0.02949 0.50243 0.02602 0.0
O954 O 0.03606 0.50717 0.06168 0.0
O955 O 0.06724 0.5244 0.06561 0.0
C956 C 0.05716 0.56587 0.05925 0.0
O957 O 1.00038 0.51797 0.03235 0.0
O958 O 1.00581 0.52407 0.06066 0.0
C959 C 0.04683 0.54991 0.01479 0.0
C960 C 0.11866 0.52894 0.03821 0.0
C961 C 0.14196 0.5058 0.04004 0.0
C962 C 0.14037 0.51538 0.02493 0.0
C963 C 0.12889 0.52686 0.02407 0.0
C964 C 0.1202 0.51939 0.05335 0.0
C965 C 0.13181 0.50801 0.05428 0.0
C966 C 0.10621 0.5407 0.03658 0.0
C967 C 0.04308 0.49513 0.02544 0.0
H968 H 0.93763 0.53177 0.04888 0.0
H969 H 0.95701 0.51096 0.05047 0.0
H970 H 1.0047 0.55959 0.04269 0.0
H971 H 0.98537 0.58051 0.04074 0.0
H972 H 0.14817 0.51419 0.01383 0.0
H973 H 0.12795 0.53408 0.01226 0.0
H974 H 0.11238 0.52061 0.06442 0.0
H975 H 0.1326 0.50068 0.06603 0.0
C976 C 0.02139 0.19789 0.94979 0.0
C977 C 0.01559 0.21148 0.95974 0.0
C978 C 0.02452 0.18227 0.95745 0.0
C979 C 0.01365 0.1523 0.99488 0.0
H980 H 0.05465 0.13638 0.98082 0.0
C981 C 0.02077 0.07811 0.00952 0.0
C982 C 0.03856 0.07732 0.01402 0.0
C983 C 0.01838 0.09507 0.00389 0.0
C984 C 0.04325 0.1407 0.98507 0.0
H985 H 1.00845 0.21914 0.98565 0.0
H986 H 0.01412 0.19181 0.99915 0.0
H987 H 0.05013 0.16522 0.96991 0.0
H988 H 0.06778 0.0939 0.01621 0.0
H989 H 0.0636 0.12351 0.00658 0.0
H990 H 1.00696 0.12789 0.01027 0.0
C991 C 0.01607 0.19324 0.98531 0.0
C992 C 0.04052 0.15715 0.97863 0.0
C993 C 0.01289 0.20895 0.9776 0.0
C994 C 0.05389 0.09392 0.01272 0.0
C995 C 0.05149 0.11091 0.00714 0.0
C996 C 0.01641 0.13583 1.00137 0.0
C997 C 0.02202 0.17977 0.97532 0.0
C998 C 0.02555 0.16302 0.98325 0.0
C999 C 0.0337 0.11172 0.00266 0.0
C1000 C 0.03114 0.1297 0.99639 0.0
H1001 H 0.0235 0.19922 0.93597 0.0
H1002 H 0.0287 0.172 0.94923 0.0
H1003 H 1.00193 0.15632 0.99864 0.0
H1004 H 1.00863 0.06561 0.01033 0.0
H1005 H 1.0045 0.09503 1.00027 0.0
C1006 C 0.15008 0.81996 0.16615 0.0
C1007 C 0.13299 0.81479 0.1734 0.0
C1008 C 0.16626 0.82132 0.17652 0.0
C1009 C 0.18584 0.8234 0.223 0.0
H1010 H 0.21704 0.79734 0.20159 0.0
C1011 C 0.23543 0.7943 0.26385 0.0
C1012 C 0.25277 0.79614 0.25784 0.0
C1013 C 0.22228 0.79949 0.25364 0.0
C1014 C 0.20865 0.80494 0.20772 0.0
H1015 H 0.11972 0.80802 0.19751 0.0
H1016 H 0.14772 0.81017 0.21542 0.0
H1017 H 0.19172 0.80205 0.1836 0.0
H1018 H 0.26991 0.8052 0.23641 0.0
H1019 H 0.24696 0.81423 0.21864 0.0
H1020 H 0.2025 0.82574 0.24725 0.0
C1021 C 0.14874 0.81334 0.20179 0.0
C1022 C 0.19415 0.8077 0.19738 0.0
C1023 C 0.13261 0.81199 0.19145 0.0
C1024 C 0.25671 0.80355 0.24146 0.0
C1025 C 0.24352 0.80865 0.23121 0.0
C1026 C 0.20031 0.82058 0.23335 0.0
C1027 C 0.16571 0.81758 0.19438 0.0
C1028 C 0.18235 0.81666 0.20495 0.0
C1029 C 0.2261 0.80657 0.23714 0.0
C1030 C 0.21169 0.81102 0.22589 0.0
H1031 H 0.15089 0.82229 0.15231 0.0
H1032 H 0.17915 0.82492 0.17047 0.0
H1033 H 0.17724 0.83066 0.2292 0.0
H1034 H 0.23192 0.78866 0.27639 0.0
H1035 H 0.20891 0.79748 0.25848 0.0
C1036 C 0.51589 0.83717 0.44967 0.0
C1037 C 0.51987 0.82364 0.46019 0.0
C1038 C 0.51718 0.85567 0.45701 0.0
C1039 C 0.51674 0.88484 0.49795 0.0
H1040 H 0.54467 0.92814 0.47344 0.0
C1041 C 0.5201 0.96542 0.51477 0.0
C1042 C 0.53799 0.97911 0.51653 0.0
C1043 C 0.51709 0.94607 0.50823 0.0
C1044 C 0.53683 0.91621 0.48043 0.0
H1045 H 0.5278 0.81889 0.48688 0.0
H1046 H 0.52981 0.85139 0.49981 0.0
H1047 H 0.54096 0.89491 0.46191 0.0
H1048 H 0.56669 0.98323 0.51255 0.0
H1049 H 0.56135 0.94977 0.50091 0.0
H1050 H 0.51261 0.90632 0.51647 0.0
C1051 C 0.52577 0.84751 0.48581 0.0
C1052 C 0.53463 0.89719 0.47378 0.0
C1053 C 0.52469 0.82896 0.4784 0.0
C1054 C 0.55272 0.97309 0.51139 0.0
C1055 C 0.54967 0.95392 0.50465 0.0
C1056 C 0.51873 0.90394 0.50449 0.0
C1057 C 0.52229 0.86114 0.47511 0.0
C1058 C 0.52461 0.88129 0.48248 0.0
C1059 C 0.53187 0.94017 0.50305 0.0
C1060 C 0.52891 0.91982 0.49584 0.0
H1061 H 0.51209 0.83363 0.4356 0.0
H1062 H 0.51421 0.86578 0.44847 0.0
H1063 H 0.50886 0.87285 0.50485 0.0
H1064 H 0.50849 0.96957 0.5187 0.0
H1065 H 0.5032 0.93578 0.50703 0.0
C1066 C 0.52356 0.30486 0.67326 0.0
C1067 C 0.53522 0.29465 0.67903 0.0
C1068 C 0.50775 0.30402 0.68181 0.0
C1069 C 0.47627 0.27392 0.71161 0.0
H1070 H 0.46055 0.31911 0.71913 0.0
C1071 C 0.42213 0.27714 0.75943 0.0
C1072 C 0.40817 0.28444 0.75343 0.0
C1073 C 0.43725 0.27856 0.74974 0.0
C1074 C 0.4647 0.30633 0.71697 0.0
H1075 H 0.53982 0.2761 0.69863 0.0
H1076 H 0.51276 0.27508 0.71374 0.0
H1077 H 0.48784 0.32157 0.70344 0.0
H1078 H 0.39925 0.29889 0.73235 0.0
H1079 H 0.4259 0.30172 0.71568 0.0
H1080 H 0.45338 0.25883 0.72547 0.0
C1081 C 0.51538 0.28327 0.70233 0.0
C1082 C 0.4803 0.30771 0.70795 0.0
C1083 C 0.53102 0.28398 0.69372 0.0
C1084 C 0.40985 0.29337 0.73754 0.0
C1085 C 0.42509 0.29496 0.72794 0.0
C1086 C 0.46082 0.27261 0.72075 0.0
C1087 C 0.50339 0.29305 0.69636 0.0
C1088 C 0.48638 0.29155 0.7053 0.0
C1089 C 0.43889 0.28748 0.7339 0.0
C1090 C 0.45495 0.28883 0.72365 0.0
H1091 H 0.52642 0.31317 0.66193 0.0
H1092 H 0.49876 0.31161 0.67676 0.0
H1093 H 0.48024 0.26104 0.70945 0.0
H1094 H 0.42154 0.27054 0.77176 0.0
H1095 H 0.44782 0.27292 0.7548 0.0
C1096 C 0.06041 0.8545 0.6145 0.0
C1097 C 0.04688 0.84619 0.62597 0.0
C1098 C 0.06037 0.87098 0.60556 0.0
C1099 C 0.03801 0.91139 0.60395 0.0
H1100 H 0.06222 0.92096 0.56099 0.0
C1101 C 0.04402 0.98325 0.56929 0.0
C1102 C 0.04603 0.98393 0.55101 0.0
C1103 C 0.04431 0.96685 0.57823 0.0
C1104 C 0.05514 0.91867 0.57285 0.0
H1105 H 0.02247 0.84944 0.63653 0.0
H1106 H 0.02202 0.87741 0.62089 0.0
H1107 H 0.06179 0.89254 0.57595 0.0
H1108 H 0.04987 0.96688 0.5281 0.0
H1109 H 0.04994 0.93848 0.54327 0.0
H1110 H 0.03077 0.93712 0.60051 0.0
C1111 C 0.03311 0.87159 0.61895 0.0
C1112 C 0.05515 0.90217 0.58179 0.0
C1113 C 0.03325 0.85519 0.62799 0.0
C1114 C 0.04838 0.96731 0.54213 0.0
C1115 C 0.04852 0.95082 0.55104 0.0
C1116 C 0.03791 0.92783 0.59496 0.0
C1117 C 0.04669 0.88005 0.60746 0.0
C1118 C 0.04661 0.898 0.59766 0.0
C1119 C 0.04646 0.95004 0.56938 0.0
C1120 C 0.04651 0.93204 0.57913 0.0
H1121 H 0.07127 0.84832 0.61248 0.0
H1122 H 0.0714 0.87673 0.5973 0.0
H1123 H 0.0314 0.90943 0.61609 0.0
H1124 H 0.04229 0.99556 0.57688 0.0
H1125 H 0.04304 0.96762 0.59228 0.0
C1126 C 0.47141 0.76807 0.85601 0.0
C1127 C 0.488 0.78265 0.85304 0.0
C1128 C 0.45372 0.76834 0.84928 0.0
C1129 C 0.42963 0.7924 0.81633 0.0
H1130 H 0.38683 0.76961 0.84135 0.0
C1131 C 0.35694 0.80033 0.79363 0.0
C1132 C 0.34018 0.78662 0.7975 0.0
C1133 C 0.37453 0.79974 0.80025 0.0
C1134 C 0.39841 0.7759 0.83385 0.0
H1135 H 0.49803 0.80912 0.8402 0.0
H1136 H 0.46776 0.80966 0.82862 0.0
H1137 H 0.41694 0.76869 0.85252 0.0
H1138 H 0.32978 0.76124 0.81175 0.0
H1139 H 0.3599 0.75998 0.82292 0.0
H1140 H 0.41115 0.79952 0.7976 0.0
C1141 C 0.46824 0.79769 0.83604 0.0
C1142 C 0.41605 0.77537 0.84041 0.0
C1143 C 0.48591 0.79744 0.84284 0.0
C1144 C 0.34204 0.77224 0.80836 0.0
C1145 C 0.35965 0.77161 0.81496 0.0
C1146 C 0.41198 0.79288 0.80974 0.0
C1147 C 0.45155 0.7832 0.8391 0.0
C1148 C 0.43226 0.78364 0.83188 0.0
C1149 C 0.3765 0.78534 0.81112 0.0
C1150 C 0.39576 0.78469 0.81829 0.0
H1151 H 0.47203 0.75635 0.86375 0.0
H1152 H 0.44168 0.75662 0.85198 0.0
H1153 H 0.44124 0.79873 0.80887 0.0
H1154 H 0.35653 0.81175 0.78544 0.0
H1155 H 0.38664 0.81094 0.79693 0.0
C1156 C 0.54498 0.22381 0.11861 0.0
C1157 C 0.53513 0.22348 0.13369 0.0
C1158 C 0.54545 0.20645 0.10922 0.0
C1159 C 0.53482 0.15165 0.11286 0.0
H1160 H 0.54395 0.15076 0.06355 0.0
C1161 C 0.54694 0.08324 0.07579 0.0
C1162 C 0.54264 0.07893 0.05732 0.0
C1163 C 0.54581 0.10048 0.08481 0.0
C1164 C 0.54119 0.15041 0.07727 0.0
H1165 H 0.51778 0.2036 0.15019 0.0
H1166 H 0.51813 0.17375 0.13383 0.0
H1167 H 0.54172 0.18015 0.07892 0.0
H1168 H 0.53351 0.09023 0.0342 0.0
H1169 H 0.53121 0.11971 0.04968 0.0
H1170 H 0.53376 0.12175 0.11109 0.0
C1171 C 0.52594 0.18748 0.1293 0.0
C1172 C 0.54017 0.1677 0.08634 0.0
C1173 C 0.52553 0.20485 0.13872 0.0
C1174 C 0.53706 0.09273 0.04834 0.0
C1175 C 0.53587 0.10997 0.05737 0.0
C1176 C 0.53579 0.13435 0.10379 0.0
C1177 C 0.53606 0.18775 0.11436 0.0
C1178 C 0.53698 0.16887 0.10442 0.0
C1179 C 0.54024 0.1144 0.07588 0.0
C1180 C 0.53905 0.1332 0.08572 0.0
H1181 H 0.55279 0.23762 0.1142 0.0
H1182 H 0.55369 0.20788 0.09812 0.0
H1183 H 0.53259 0.15146 0.12672 0.0
H1184 H 0.55134 0.07326 0.08342 0.0
H1185 H 0.54965 0.10297 0.0989 0.0
C1186 C 0.1121 0.2794 0.36038 0.0
C1187 C 0.09561 0.26359 0.35555 0.0
C1188 C 0.12918 0.28026 0.35351 0.0
C1189 C 0.15042 0.25645 0.31736 0.0
H1190 H 0.19666 0.28548 0.3445 0.0
C1191 C 0.22212 0.25392 0.29348 0.0
C1192 C 0.23885 0.26929 0.29868 0.0
C1193 C 0.20505 0.25343 0.30015 0.0
C1194 C 0.18404 0.27742 0.3364 0.0
H1195 H 0.08516 0.23616 0.33922 0.0
H1196 H 0.11436 0.23751 0.32747 0.0
H1197 H 0.16756 0.28433 0.35602 0.0
H1198 H 0.24972 0.29637 0.31549 0.0
H1199 H 0.22048 0.29576 0.32676 0.0
H1200 H 0.16686 0.24957 0.29773 0.0
C1201 C 0.11425 0.2496 0.33648 0.0
C1202 C 0.16696 0.27674 0.34318 0.0
C1203 C 0.0972 0.24874 0.34339 0.0
C1204 C 0.23747 0.28418 0.31093 0.0
C1205 C 0.2204 0.28371 0.31761 0.0
C1206 C 0.16749 0.25715 0.31059 0.0
C1207 C 0.13086 0.26537 0.34134 0.0
C1208 C 0.14955 0.26621 0.3339 0.0
C1209 C 0.20359 0.26828 0.31249 0.0
C1210 C 0.18491 0.26763 0.31987 0.0
H1211 H 0.11188 0.29125 0.36965 0.0
H1212 H 0.1411 0.29292 0.35771 0.0
H1213 H 0.13779 0.24837 0.30929 0.0
H1214 H 0.22216 0.24196 0.28425 0.0
H1215 H 0.193 0.24099 0.29574 0.0
C1216 C 0.96172 0.07892 0.19146 0.0
C1217 C 0.94257 0.07278 0.1869 0.0
C1218 C 0.97389 0.08303 0.1784 0.0
C1219 C 0.98928 0.0662 0.14856 0.0
H1220 H 0.9868 0.08888 0.10431 0.0
C1221 C 1.00804 0.0358 0.08414 0.0
C1222 C 0.02175 0.04896 0.07571 0.0
C1223 C 0.99998 0.04251 0.09796 0.0
C1224 C 0.98772 0.08267 0.1167 0.0
H1225 H 0.92121 0.06857 0.16549 0.0
H1226 H 0.94252 0.07547 0.14259 0.0
H1227 H 0.97057 0.09705 0.12888 0.0
H1228 H 0.03729 0.07947 0.07457 0.0
H1229 H 0.02278 0.0912 0.09863 0.0
H1230 H 1.00558 0.05107 0.1362 0.0
C1231 C 0.94812 0.07715 0.15625 0.0
C1232 C 0.97847 0.08731 0.13068 0.0
C1233 C 0.93591 0.07311 0.16936 0.0
C1234 C 0.02688 0.06899 0.081 0.0
C1235 C 0.01854 0.07573 0.09462 0.0
C1236 C 0.99822 0.06136 0.13457 0.0
C1237 C 0.9671 0.08098 0.16058 0.0
C1238 C 0.97897 0.07886 0.14664 0.0
C1239 C 1.00524 0.06249 0.10334 0.0
C1240 C 0.99721 0.06925 0.11846 0.0
H1241 H 0.96727 0.07918 0.20495 0.0
H1242 H 0.98851 0.08633 0.18209 0.0
H1243 H 0.98965 0.05919 0.16058 0.0
H1244 H 1.00382 0.0203 0.08032 0.0
H1245 H 0.98963 0.03208 0.1045 0.0
C1246 C 0.3082 0.69935 0.52135 0.0
C1247 C 0.30853 0.68026 0.52182 0.0
C1248 C 0.3058 0.70661 0.5053 0.0
C1249 C 0.30593 0.6987 0.45696 0.0
H1250 H 0.26967 0.72545 0.45696 0.0
C1251 C 0.27514 0.72016 0.39327 0.0
C1252 C 0.27402 0.73907 0.39418 0.0
C1253 C 0.27965 0.71245 0.40852 0.0
C1254 C 0.27993 0.71817 0.45678 0.0
H1255 H 0.3078 0.65417 0.50589 0.0
H1256 H 0.30332 0.66684 0.47763 0.0
H1257 H 0.27834 0.71346 0.48402 0.0
H1258 H 0.27689 0.76477 0.4118 0.0
H1259 H 0.28453 0.75125 0.4384 0.0
H1260 H 0.30737 0.7034 0.42958 0.0
C1261 C 0.30505 0.67621 0.48973 0.0
C1262 C 0.28495 0.71135 0.47229 0.0
C1263 C 0.30761 0.66896 0.50588 0.0
C1264 C 0.27728 0.75002 0.41069 0.0
C1265 C 0.28172 0.7423 0.42592 0.0
C1266 C 0.30087 0.70553 0.44138 0.0
C1267 C 0.30349 0.69488 0.48934 0.0
C1268 C 0.29815 0.70174 0.47262 0.0
C1269 C 0.28303 0.72348 0.42498 0.0
C1270 C 0.28794 0.71549 0.44121 0.0
H1271 H 0.30914 0.70849 0.53344 0.0
H1272 H 0.30517 0.72125 0.5054 0.0
H1273 H 0.31618 0.6914 0.45684 0.0
H1274 H 0.27248 0.71128 0.38076 0.0
H1275 H 0.28032 0.69781 0.40746 0.0
C1276 C 0.60688 0.96478 0.70134 0.0
C1277 C 0.62621 0.97216 0.70192 0.0
C1278 C 0.59605 0.96158 0.6853 0.0
C1279 C 0.57873 0.97562 0.65495 0.0
H1280 H 0.59514 0.96759 0.60892 0.0
C1281 C 0.57981 0.01128 0.58678 0.0
C1282 C 0.56115 0.00889 0.5821 0.0
C1283 C 0.58472 1.00095 0.59982 0.0
C1284 C 0.59028 0.96965 0.6217 0.0
H1285 H 0.64946 0.98045 0.68617 0.0
H1286 H 0.63066 0.97569 0.65823 0.0
H1287 H 0.60905 0.9577 0.63479 0.0
H1288 H 0.533 0.9938 0.58754 0.0
H1289 H 0.54177 0.97617 0.61096 0.0
H1290 H 0.56032 0.98804 0.64185 0.0
C1291 C 0.62373 0.9719 0.67002 0.0
C1292 C 0.59829 0.96409 0.63651 0.0
C1293 C 0.63457 0.97473 0.68606 0.0
C1294 C 0.54749 0.99598 0.59087 0.0
C1295 C 0.55247 0.98585 0.60419 0.0
C1296 C 0.57057 0.98093 0.64011 0.0
C1297 C 0.60433 0.96614 0.66956 0.0
C1298 C 0.59317 0.96779 0.65343 0.0
C1299 C 0.57114 0.9882 0.60869 0.0
C1300 C 0.57683 0.97873 0.62349 0.0
H1301 H 0.60012 0.96238 0.71341 0.0
H1302 H 0.58117 0.95657 0.68538 0.0
H1303 H 0.57455 0.97898 0.66773 0.0
H1304 H 0.5907 0.0211 0.58035 0.0
H1305 H 0.59924 1.00331 0.6033 0.0
C1306 C 0.28232 0.34147 0.97621 0.0
C1307 C 0.28692 0.32923 0.98787 0.0
C1308 C 0.28244 0.33789 0.95788 0.0
C1309 C 0.27984 0.29998 0.92206 0.0
H1310 H 0.30633 0.34315 0.89666 0.0
C1311 C 0.27712 0.29556 0.84539 0.0
C1312 C 0.29404 0.30271 0.83797 0.0
C1313 C 0.27608 0.2986 0.86361 0.0
C1314 C 0.29892 0.33094 0.90356 0.0
H1315 H 0.29458 0.3032 0.9892 0.0
H1316 H 0.29421 0.29665 0.95724 0.0
H1317 H 0.30401 0.34847 0.92838 0.0
H1318 H 0.32314 0.31888 0.84407 0.0
H1319 H 0.32123 0.32461 0.87586 0.0
H1320 H 0.27459 0.28249 0.89721 0.0
C1321 C 0.29069 0.30913 0.9623 0.0
C1322 C 0.29745 0.33402 0.92171 0.0
C1323 C 0.2909 0.31289 0.98065 0.0
C1324 C 0.30988 0.31317 0.84929 0.0
C1325 C 0.30878 0.31652 0.86751 0.0
C1326 C 0.28102 0.29698 0.90385 0.0
C1327 C 0.28683 0.3218 0.95069 0.0
C1328 C 0.28795 0.31857 0.93123 0.0
C1329 C 0.29188 0.30916 0.87493 0.0
C1330 C 0.29065 0.3124 0.89436 0.0
H1331 H 0.27932 0.35426 0.98128 0.0
H1332 H 0.27922 0.34784 0.94932 0.0
H1333 H 0.27238 0.28778 0.92896 0.0
H1334 H 0.26462 0.28734 0.83715 0.0
H1335 H 0.26283 0.29286 0.86883 0.0
C1336 C 0.96157 0.03379 0.27801 0.0
C1337 C 0.94769 0.04233 0.27581 0.0
C1338 C 0.96996 0.03372 0.29475 0.0
C1339 C 0.96227 0.03723 0.34183 0.0
H1340 H 0.01378 0.04059 0.34795 0.0
C1341 C 1.00017 0.03389 0.40924 0.0
C1342 C 1.00992 0.02052 0.40906 0.0
C1343 C 0.99311 0.0386 0.39346 0.0
C1344 C 0.99937 0.03961 0.3464 0.0
H1345 H 0.932 0.05793 0.28937 0.0
H1346 H 0.94698 0.05816 0.31875 0.0
H1347 H 1.00082 0.04624 0.31958 0.0
H1348 H 0.01974 1.00153 0.39209 0.0
H1349 H 1.00779 0.01014 0.36457 0.0
H1350 H 0.96095 0.03063 0.36877 0.0
C1351 C 0.95113 0.05122 0.3075 0.0
C1352 C 0.99193 0.04278 0.33017 0.0
C1353 C 0.94262 0.05118 0.29069 0.0
C1354 C 0.01258 0.01212 0.39273 0.0
C1355 C 1.00571 0.017 0.37696 0.0
C1356 C 0.9698 0.03426 0.35815 0.0
C1357 C 0.9648 0.04233 0.30972 0.0
C1358 C 0.97318 0.04119 0.32756 0.0
C1359 C 0.99588 0.03024 0.37719 0.0
C1360 C 0.98831 0.03502 0.36044 0.0
H1361 H 0.96574 0.02675 0.26683 0.0
H1362 H 0.98015 0.0264 0.29597 0.0
H1363 H 0.94774 0.03566 0.34023 0.0
H1364 H 0.99817 0.04094 0.42156 0.0
H1365 H 0.98571 0.04898 0.39396 0.0
C1366 C 0.33036 0.67327 0.63403 0.0
C1367 C 0.33147 0.67965 0.61705 0.0
C1368 C 0.33388 0.6867 0.64889 0.0
C1369 C 0.32799 0.73351 0.65914 0.0
H1370 H 0.34402 0.72679 0.70683 0.0
C1371 C 0.31284 0.77591 0.71958 0.0
C1372 C 0.30579 0.76451 0.73325 0.0
C1373 C 0.32078 0.76854 0.70599 0.0
C1374 C 0.33951 0.72885 0.69357 0.0
H1375 H 0.3394 0.70512 0.60243 0.0
H1376 H 0.34577 0.72851 0.62838 0.0
H1377 H 0.35136 0.70862 0.68184 0.0
H1378 H 0.30169 0.73646 0.74341 0.0
H1379 H 0.31508 0.72352 0.71956 0.0
H1380 H 0.31537 0.75295 0.67077 0.0
C1381 C 0.34169 0.71314 0.63018 0.0
C1382 C 0.34377 0.71851 0.67929 0.0
C1383 C 0.33808 0.69973 0.61533 0.0
C1384 C 0.30696 0.74565 0.73309 0.0
C1385 C 0.31485 0.73829 0.71951 0.0
C1386 C 0.32372 0.7438 0.67339 0.0
C1387 C 0.33868 0.70672 0.64701 0.0
C1388 C 0.33756 0.7203 0.66195 0.0
C1389 C 0.32181 0.74962 0.70579 0.0
C1390 C 0.32891 0.7411 0.69076 0.0
H1391 H 0.32542 0.6579 0.63581 0.0
H1392 H 0.33139 0.68126 0.66167 0.0
H1393 H 0.32273 0.735 0.64597 0.0
H1394 H 0.31231 0.79056 0.7194 0.0
H1395 H 0.32613 0.77765 0.69564 0.0
C1396 C 0.60702 0.97677 0.80221 0.0
C1397 C 0.60792 0.99139 0.79093 0.0
C1398 C 0.59489 0.97372 0.81544 0.0
C1399 C 0.55524 0.98756 0.83122 0.0
H1400 H 0.57568 0.98077 0.87721 0.0
C1401 C 0.54156 0.01944 0.89765 0.0
C1402 C 0.53992 0.00828 0.91215 0.0
C1403 C 0.54461 0.01202 0.8812 0.0
C1404 C 0.56959 0.98224 0.86438 0.0
H1405 H 0.59677 0.01416 0.78447 0.0
H1406 H 0.57634 0.00947 0.80781 0.0
H1407 H 0.59187 0.9778 0.85139 0.0
H1408 H 0.53833 0.97983 0.92022 0.0
H1409 H 0.54446 0.96725 0.89158 0.0
H1410 H 0.53372 0.99354 0.84466 0.0
C1411 C 0.58443 0.99985 0.80622 0.0
C1412 C 0.57884 0.98051 0.84954 0.0
C1413 C 0.59634 1.00271 0.79292 0.0
C1414 C 0.54004 0.98902 0.90946 0.0
C1415 C 0.5434 0.98173 0.89307 0.0
C1416 C 0.54616 0.98962 0.84612 0.0
C1417 C 0.58361 0.98542 0.81774 0.0
C1418 C 0.57212 0.9838 0.83286 0.0
C1419 C 0.54627 0.99341 0.87898 0.0
C1420 C 0.55356 0.98752 0.86287 0.0
H1421 H 0.61569 0.9677 0.80086 0.0
H1422 H 0.59446 0.96232 0.82394 0.0
H1423 H 0.5494 0.98967 0.81851 0.0
H1424 H 0.54173 0.03437 0.89923 0.0
H1425 H 0.54697 0.02138 0.87056 0.0
C1426 C 0.286 0.31787 0.09357 0.0
C1427 C 0.28476 0.3364 0.09118 0.0
C1428 C 0.28501 0.31089 0.11037 0.0
C1429 C 0.27125 0.31993 0.15579 0.0
H1430 H 0.30327 0.29082 0.1697 0.0
C1431 C 0.28341 0.3039 0.22878 0.0
C1432 C 0.28473 0.2855 0.23161 0.0
C1433 C 0.28266 0.30969 0.21159 0.0
C1434 C 0.29407 0.29876 0.16601 0.0
H1435 H 0.28119 0.3619 0.10485 0.0
H1436 H 0.27974 0.34998 0.1338 0.0
H1437 H 0.30292 0.30101 0.13994 0.0
H1438 H 0.28607 0.25874 0.21831 0.0
H1439 H 0.28469 0.26875 0.18864 0.0
H1440 H 0.26259 0.31787 0.18198 0.0
C1441 C 0.28119 0.34061 0.12274 0.0
C1442 C 0.29383 0.30458 0.14885 0.0
C1443 C 0.28215 0.34753 0.10603 0.0
C1444 C 0.28511 0.27304 0.21676 0.0
C1445 C 0.28445 0.27885 0.19966 0.0
C1446 C 0.27155 0.31418 0.17299 0.0
C1447 C 0.28275 0.32224 0.12527 0.0
C1448 C 0.28247 0.31533 0.14344 0.0
C1449 C 0.28332 0.2973 0.19676 0.0
C1450 C 0.28298 0.30352 0.17839 0.0
H1451 H 0.28801 0.30885 0.08251 0.0
H1452 H 0.28601 0.29656 0.11164 0.0
H1453 H 0.26205 0.32787 0.15215 0.0
H1454 H 0.28314 0.31393 0.23984 0.0
H1455 H 0.28195 0.32408 0.20995 0.0
C1456 C 0.23719 0.9477 0.99624 0.0
C1457 C 0.25209 0.95247 0.00934 0.0
C1458 C 0.22661 0.95999 0.99445 0.0
C1459 C 0.22511 0.00932 0.00839 0.0
H1460 H 0.17281 0.98223 0.00953 0.0
C1461 C 0.17583 0.04345 0.04064 0.0
C1462 C 0.15727 0.03727 0.0338 0.0
C1463 C 0.18817 0.03541 0.03315 0.0
C1464 C 0.1873 0.99009 0.00881 0.0
H1465 H 0.26824 0.97433 0.03015 0.0
H1466 H 0.24971 0.99552 0.0272 0.0
H1467 H 0.19334 0.96371 0.00382 0.0
H1468 H 0.13729 0.01922 0.01297 0.0
H1469 H 0.15885 1.00536 0.99972 0.0
H1470 H 0.21907 0.03569 0.01413 0.0
C1471 C 0.24625 0.98244 0.01819 0.0
C1472 C 0.19908 0.97944 0.00551 0.0
C1473 C 0.25675 0.97016 0.02002 0.0
C1474 C 0.15148 0.02387 0.01871 0.0
C1475 C 0.16381 0.01597 0.01114 0.0
C1476 C 0.2133 0.02 0.01168 0.0
C1477 C 0.23083 0.97729 0.00567 0.0
C1478 C 0.21817 0.98889 0.00581 0.0
C1479 C 0.18215 0.0212 0.01859 0.0
C1480 C 0.19435 0.01044 0.01244 0.0
H1481 H 0.23337 0.93422 0.98773 0.0
H1482 H 0.21487 0.95575 0.98459 0.0
H1483 H 0.23976 0.01699 0.00845 0.0
H1484 H 0.18058 0.05381 0.05226 0.0
H1485 H 0.20217 0.0396 0.03931 0.0
C1486 C 0.752 0.63741 0.02517 0.0
C1487 C 0.754 0.65733 0.02569 0.0
C1488 C 0.73453 0.62346 0.02527 0.0
C1489 C 0.69103 0.61816 0.04272 0.0
H1490 H 0.66853 0.57387 0.00799 0.0
C1491 C 0.61424 0.57538 0.03993 0.0
C1492 C 0.60782 0.55521 0.03518 0.0
C1493 C 0.6326 0.58632 0.03878 0.0
C1494 C 0.67475 0.58594 0.01799 0.0
H1495 H 0.73916 0.67812 0.02615 0.0
H1496 H 0.7088 0.6538 0.02673 0.0
H1497 H 0.69979 0.59579 0.0052 0.0
H1498 H 0.61575 0.53066 0.02552 0.0
H1499 H 0.64824 0.5498 0.024 0.0
H1500 H 0.6665 0.60838 0.05583 0.0
C1501 C 0.72075 0.64904 0.02614 0.0
C1502 C 0.69258 0.59852 0.0163 0.0
C1503 C 0.73812 0.66293 0.02572 0.0
C1504 C 0.6203 0.54618 0.0293 0.0
C1505 C 0.63887 0.55717 0.02833 0.0
C1506 C 0.67344 0.60548 0.04458 0.0
C1507 C 0.71884 0.62924 0.02621 0.0
C1508 C 0.70064 0.61498 0.02844 0.0
C1509 C 0.64524 0.57741 0.03309 0.0
C1510 C 0.66482 0.58949 0.032 0.0
H1511 H 0.76397 0.63264 0.02507 0.0
H1512 H 0.73336 0.60826 0.02534 0.0
H1513 H 0.69714 0.63056 0.05244 0.0
H1514 H 0.60499 0.58292 0.04428 0.0
H1515 H 0.63678 0.6019 0.04209 0.0
C1516 C 0.70198 0.47997 0.3337 0.0
C1517 C 0.7023 0.49212 0.32014 0.0
C1518 C 0.71417 0.46929 0.33453 0.0
C1519 C 0.75659 0.46469 0.31633 0.0
H1520 H 0.73434 0.41012 0.32288 0.0
C1521 C 0.79513 0.40861 0.30686 0.0
C1522 C 0.78453 0.39082 0.29746 0.0
C1523 C 0.7867 0.42203 0.31264 0.0
C1524 C 0.74076 0.42533 0.32103 0.0
H1525 H 0.71595 0.50305 0.29712 0.0
H1526 H 0.73676 0.48419 0.29832 0.0
H1527 H 0.71698 0.43229 0.32794 0.0
H1528 H 0.75705 0.37342 0.2861 0.0
H1529 H 0.74243 0.39684 0.29588 0.0
H1530 H 0.77995 0.45744 0.30838 0.0
C1531 C 0.72742 0.48312 0.30853 0.0
C1532 C 0.73091 0.4381 0.32417 0.0
C1533 C 0.71532 0.49378 0.30773 0.0
C1534 C 0.76549 0.38687 0.29361 0.0
C1535 C 0.75711 0.40024 0.29931 0.0
C1536 C 0.76642 0.45188 0.31309 0.0
C1537 C 0.72687 0.47057 0.32181 0.0
C1538 C 0.73849 0.45781 0.32134 0.0
C1539 C 0.76755 0.41788 0.30905 0.0
C1540 C 0.75836 0.43196 0.31488 0.0
H1541 H 0.69219 0.47852 0.34353 0.0
H1542 H 0.71354 0.45987 0.34502 0.0
H1543 H 0.76294 0.47988 0.31434 0.0
H1544 H 0.80983 0.41192 0.31009 0.0
H1545 H 0.79509 0.43549 0.32015 0.0
C1546 C 0.83658 0.44536 0.48498 0.0
C1547 C 0.82899 0.42511 0.48544 0.0
C1548 C 0.85542 0.45399 0.48363 0.0
C1549 C 0.89657 0.44535 0.49977 0.0
H1550 H 0.92211 0.49164 0.47772 0.0
C1551 C 0.97323 0.48597 0.51928 0.0
C1552 C 0.97893 0.50638 0.52099 0.0
C1553 C 0.95577 0.47513 0.51129 0.0
C1554 C 0.91514 0.4788 0.48407 0.0
H1555 H 0.83475 0.39784 0.48281 0.0
H1556 H 0.86773 0.413 0.48059 0.0
H1557 H 0.88965 0.47375 0.46813 0.0
H1558 H 0.97103 0.53153 0.51556 0.0
H1559 H 0.94002 0.51256 0.50238 0.0
H1560 H 0.92136 0.45083 0.51647 0.0
C1561 C 0.8591 0.42216 0.48148 0.0
C1562 C 0.89664 0.46849 0.47845 0.0
C1563 C 0.84023 0.4135 0.48271 0.0
C1564 C 0.9669 0.51579 0.51446 0.0
C1565 C 0.94924 0.50491 0.50673 0.0
C1566 C 0.91489 0.45574 0.50552 0.0
C1567 C 0.86697 0.44251 0.48279 0.0
C1568 C 0.88715 0.45183 0.48644 0.0
C1569 C 0.94345 0.48443 0.50513 0.0
C1570 C 0.92435 0.47275 0.49794 0.0
H1571 H 0.82821 0.45467 0.48682 0.0
H1572 H 0.86114 0.46972 0.48471 0.0
H1573 H 0.88947 0.43282 0.50646 0.0
H1574 H 0.98238 0.47832 0.52384 0.0
H1575 H 0.95198 0.45942 0.50991 0.0
C1576 C 0.41388 0.10949 0.3045 0.0
C1577 C 0.40434 0.09141 0.31023 0.0
C1578 C 0.40415 0.12159 0.29889 0.0
C1579 C 0.3751 0.12875 0.27244 0.0
H1580 H 0.33774 0.14212 0.2972 0.0
C1581 C 0.32479 0.16507 0.24103 0.0
C1582 C 0.30717 0.16036 0.24727 0.0
C1583 C 0.33805 0.1577 0.24836 0.0
C1584 C 0.34796 0.13827 0.29002 0.0
H1585 H 0.37777 0.07216 0.31583 0.0
H1586 H 0.36086 0.09372 0.30688 0.0
H1587 H 0.35949 0.12981 0.31322 0.0
H1588 H 0.28925 0.14224 0.26482 0.0
H1589 H 0.31167 0.12847 0.27632 0.0
H1590 H 0.36296 0.1361 0.249 0.0
C1591 C 0.37572 0.09849 0.30653 0.0
C1592 C 0.36054 0.13151 0.29928 0.0
C1593 C 0.38534 0.08621 0.31167 0.0
C1594 C 0.30253 0.14634 0.2595 0.0
C1595 C 0.31561 0.13873 0.26651 0.0
C1596 C 0.36232 0.13526 0.26308 0.0
C1597 C 0.38493 0.11586 0.2994 0.0
C1598 C 0.37395 0.12634 0.29049 0.0
C1599 C 0.33379 0.14516 0.26179 0.0
C1600 C 0.3483 0.13959 0.2717 0.0
H1601 H 0.42852 0.11351 0.30301 0.0
H1602 H 0.41146 0.13493 0.29339 0.0
H1603 H 0.38522 0.12457 0.26536 0.0
H1604 H 0.32875 0.17534 0.23124 0.0
H1605 H 0.35187 0.16273 0.24421 0.0
C1606 C 0.34653 0.14691 0.5552 0.0
C1607 C 0.34542 0.15929 0.54214 0.0
C1608 C 0.35983 0.13761 0.55534 0.0
C1609 C 0.39073 0.12183 0.5272 0.0
H1610 H 0.41444 0.11692 0.57232 0.0
C1611 C 0.44854 0.08646 0.53337 0.0
C1612 C 0.44753 0.07391 0.54676 0.0
C1613 C 0.43692 0.09782 0.53244 0.0
C1614 C 0.40784 0.118 0.55961 0.0
H1615 H 0.35748 0.17154 0.5189 0.0
H1616 H 0.3809 0.1553 0.5192 0.0
H1617 H 0.39293 0.13519 0.57125 0.0
H1618 H 0.43363 0.06374 0.56982 0.0
H1619 H 0.41325 0.08327 0.56807 0.0
H1620 H 0.40561 0.10447 0.5156 0.0
C1621 C 0.37132 0.15272 0.52927 0.0
C1622 C 0.39549 0.1285 0.55899 0.0
C1623 C 0.35796 0.1621 0.52915 0.0
C1624 C 0.43467 0.07309 0.55923 0.0
C1625 C 0.42312 0.08447 0.55834 0.0
C1626 C 0.40312 0.11131 0.52782 0.0
C1627 C 0.37245 0.14041 0.54244 0.0
C1628 C 0.38656 0.13033 0.54282 0.0
C1629 C 0.42408 0.097 0.54494 0.0
C1630 C 0.41164 0.10904 0.54407 0.0
H1631 H 0.33706 0.14431 0.56537 0.0
H1632 H 0.36004 0.12798 0.56548 0.0
H1633 H 0.38399 0.12279 0.51453 0.0
H1634 H 0.45815 0.08733 0.52344 0.0
H1635 H 0.43813 0.10741 0.52202 0.0
C1636 C 0.70324 0.58835 0.33318 0.0
C1637 C 0.68409 0.58198 0.33444 0.0
C1638 C 0.71305 0.60815 0.33358 0.0
C1639 C 0.70607 0.65111 0.31916 0.0
H1640 H 0.75478 0.67821 0.34292 0.0
C1641 C 0.7467 0.72808 0.30368 0.0
C1642 C 0.76573 0.73242 0.30255 0.0
C1643 C 0.73658 0.71123 0.31077 0.0
C1644 C 0.74126 0.67079 0.33607 0.0
H1645 H 0.66036 0.5913 0.33811 0.0
H1646 H 0.67754 0.62603 0.33838 0.0
H1647 H 0.73726 0.64586 0.35067 0.0
H1648 H 0.78925 0.72284 0.30819 0.0
H1649 H 0.77141 0.69277 0.31976 0.0
H1650 H 0.71027 0.67518 0.30376 0.0
C1651 C 0.68489 0.61563 0.33718 0.0
C1652 C 0.7312 0.65238 0.34063 0.0
C1653 C 0.6751 0.59581 0.33706 0.0
C1654 C 0.77456 0.71976 0.30889 0.0
C1655 C 0.76434 0.70265 0.31567 0.0
C1656 C 0.71619 0.66933 0.31441 0.0
C1657 C 0.70386 0.6219 0.33502 0.0
C1658 C 0.71361 0.64231 0.33205 0.0
C1659 C 0.74518 0.6981 0.31656 0.0
C1660 C 0.73401 0.67932 0.32263 0.0
H1661 H 0.71055 0.57801 0.33132 0.0
H1662 H 0.72764 0.61261 0.33175 0.0
H1663 H 0.69267 0.64348 0.31212 0.0
H1664 H 0.73961 0.73784 0.29926 0.0
H1665 H 0.72197 0.70851 0.31167 0.0
C1666 C 0.92314 0.48085 0.82325 0.0
C1667 C 0.91842 0.49515 0.81446 0.0
C1668 C 0.91082 0.46179 0.82211 0.0
C1669 C 0.87261 0.42815 0.79267 0.0
H1670 H 0.8634 0.39685 0.8323 0.0
C1671 C 0.83843 0.34532 0.78369 0.0
C1672 C 0.82456 0.33693 0.79463 0.0
C1673 C 0.84899 0.36493 0.78678 0.0
C1674 C 0.86575 0.40551 0.82116 0.0
H1675 H 0.89675 0.50078 0.79814 0.0
H1676 H 0.87546 0.46775 0.79622 0.0
H1677 H 0.88375 0.4308 0.83704 0.0
H1678 H 0.81083 0.34254 0.81737 0.0
H1679 H 0.82949 0.37702 0.82283 0.0
H1680 H 0.85476 0.40299 0.77676 0.0
C1681 C 0.88874 0.47115 0.80377 0.0
C1682 C 0.87751 0.42482 0.82384 0.0
C1683 C 0.90097 0.49011 0.80492 0.0
C1684 C 0.82138 0.34863 0.80868 0.0
C1685 C 0.83212 0.36829 0.81189 0.0
C1686 C 0.86101 0.40889 0.78998 0.0
C1687 C 0.89362 0.45672 0.81211 0.0
C1688 C 0.88106 0.43631 0.80959 0.0
C1689 C 0.84602 0.37659 0.80095 0.0
C1690 C 0.85755 0.39733 0.80416 0.0
H1691 H 0.93644 0.48429 0.83077 0.0
H1692 H 0.91497 0.4509 0.8286 0.0
H1693 H 0.87523 0.43658 0.7814 0.0
H1694 H 0.8412 0.33671 0.77273 0.0
H1695 H 0.85972 0.37091 0.77824 0.0
C1696 C 0.0677 0.85549 0.11747 0.0
C1697 C 0.0801 0.84777 0.1094 0.0
C1698 C 0.06415 0.87176 0.11138 0.0
C1699 C 0.06702 0.89967 0.0723 0.0
H1700 H 0.06364 0.9407 0.10574 0.0
C1701 C 0.04276 0.96215 0.04996 0.0
C1702 C 0.05245 0.98111 0.0577 0.0
C1703 C 0.0459 0.94601 0.05666 0.0
C1704 C 0.06465 0.92942 0.09623 0.0
H1705 H 0.09843 0.85109 0.08852 0.0
H1706 H 0.09227 0.87938 0.07795 0.0
H1707 H 0.06966 0.91232 0.11653 0.0
H1708 H 0.07295 0.99785 0.07877 0.0
H1709 H 0.07844 0.96961 0.09045 0.0
H1710 H 0.06228 0.91683 0.05201 0.0
C1711 C 0.08515 0.87279 0.0889 0.0
C1712 C 0.0679 0.91305 0.10241 0.0
C1713 C 0.08875 0.8566 0.09502 0.0
C1714 C 0.06519 0.98347 0.0725 0.0
C1715 C 0.06829 0.96727 0.07925 0.0
C1716 C 0.0637 0.91597 0.06613 0.0
C1717 C 0.07285 0.88063 0.09703 0.0
C1718 C 0.06916 0.89798 0.09052 0.0
C1719 C 0.05879 0.94834 0.0713 0.0
C1720 C 0.06246 0.93106 0.078 0.0
H1721 H 0.0608 0.84905 0.12858 0.0
H1722 H 0.05444 0.87727 0.11782 0.0
H1723 H 0.06774 0.88827 0.06276 0.0
H1724 H 0.03279 0.9597 0.03859 0.0
H1725 H 0.03812 0.93164 0.05038 0.0
C1726 C 0.94504 0.2551 0.90901 0.0
C1727 C 0.95986 0.25077 0.90194 0.0
C1728 C 0.92962 0.25475 0.898 0.0
C1729 C 0.9155 0.25848 0.85148 0.0
H1730 H 0.86615 0.24081 0.86673 0.0
C1731 C 0.85102 0.25689 0.80674 0.0
C1732 C 0.83872 0.26464 0.81493 0.0
C1733 C 0.86522 0.25322 0.81685 0.0
C1734 C 0.87987 0.24587 0.86232 0.0
H1735 H 0.96981 0.24209 0.87778 0.0
H1736 H 0.94282 0.24119 0.85867 0.0
H1737 H 0.89196 0.23784 0.88541 0.0
H1738 H 0.83143 0.27416 0.84023 0.0
H1739 H 0.85607 0.26779 0.85772 0.0
H1740 H 0.9034 0.26666 0.82847 0.0
C1741 C 0.94326 0.24522 0.87268 0.0
C1742 C 0.89466 0.24421 0.87304 0.0
C1743 C 0.9587 0.24563 0.88367 0.0
C1744 C 0.84069 0.26826 0.83344 0.0
C1745 C 0.85475 0.26446 0.84352 0.0
C1746 C 0.90069 0.26007 0.84074 0.0
C1747 C 0.92863 0.25 0.87967 0.0
C1748 C 0.9127 0.25071 0.86785 0.0
C1749 C 0.86727 0.25705 0.83535 0.0
C1750 C 0.88275 0.25401 0.84614 0.0
H1751 H 0.94549 0.25917 0.92301 0.0
H1752 H 0.9187 0.25875 0.90381 0.0
H1753 H 0.92923 0.26391 0.84718 0.0
H1754 H 0.84986 0.25389 0.79252 0.0
H1755 H 0.87457 0.24734 0.81019 0.0
C1756 C 0.56047 0.2324 0.61746 0.0
C1757 C 0.57408 0.24851 0.61205 0.0
C1758 C 0.55815 0.21356 0.6102 0.0
C1759 C 0.56974 0.18485 0.5733 0.0
H1760 H 0.56243 0.14607 0.60689 0.0
C1761 C 0.5741 0.10791 0.5556 0.0
C1762 C 0.56052 0.0922 0.56163 0.0
C1763 C 0.57583 0.12711 0.56141 0.0
C1764 C 0.56427 0.15665 0.59729 0.0
H1765 H 0.59541 0.25744 0.59416 0.0
H1766 H 0.5915 0.22445 0.5816 0.0
H1767 H 0.56467 0.17922 0.61691 0.0
H1768 H 0.53817 0.08445 0.5786 0.0
H1769 H 0.54123 0.11784 0.58871 0.0
H1770 H 0.56949 0.16217 0.55372 0.0
C1771 C 0.5825 0.22644 0.59138 0.0
C1772 C 0.56551 0.17569 0.60302 0.0
C1773 C 0.58476 0.24537 0.59859 0.0
C1774 C 0.54888 0.09615 0.57377 0.0
C1775 C 0.55066 0.11533 0.57961 0.0
C1776 C 0.56854 0.16578 0.56757 0.0
C1777 C 0.56946 0.21027 0.59741 0.0
C1778 C 0.56816 0.19002 0.5911 0.0
C1779 C 0.56408 0.13104 0.57343 0.0
C1780 C 0.56572 0.15143 0.5795 0.0
H1781 H 0.55185 0.23428 0.62766 0.0
H1782 H 0.54765 0.20151 0.61485 0.0
H1783 H 0.5716 0.19546 0.56373 0.0
H1784 H 0.58327 0.10543 0.54621 0.0
H1785 H 0.58646 0.13887 0.55656 0.0
C1786 C 0.5607 0.77523 0.38571 0.0
C1787 C 0.56165 0.77071 0.40329 0.0
C1788 C 0.57473 0.77496 0.37504 0.0
C1789 C 0.62351 0.77608 0.37723 0.0
H1790 H 0.6113 0.75954 0.32719 0.0
C1791 C 0.67739 0.76686 0.33097 0.0
C1792 C 0.678 0.77616 0.31533 0.0
C1793 C 0.66284 0.76493 0.34155 0.0
C1794 C 0.6149 0.76426 0.34113 0.0
H1795 H 0.57797 0.7621 0.42339 0.0
H1796 H 0.6022 0.76108 0.40463 0.0
H1797 H 0.58666 0.75831 0.34613 0.0
H1798 H 0.66349 0.79047 0.29854 0.0
H1799 H 0.63788 0.78657 0.31678 0.0
H1800 H 0.65176 0.78173 0.37216 0.0
C1801 C 0.59084 0.76531 0.39919 0.0
C1802 C 0.60081 0.76366 0.35199 0.0
C1803 C 0.5769 0.7658 0.40994 0.0
C1804 C 0.66338 0.78296 0.31031 0.0
C1805 C 0.64872 0.7808 0.32079 0.0
C1806 C 0.63757 0.77645 0.3664 0.0
C1807 C 0.58996 0.76994 0.38159 0.0
C1808 C 0.60493 0.76977 0.37016 0.0
C1809 C 0.64844 0.772 0.33663 0.0
C1810 C 0.63342 0.77073 0.34822 0.0
H1811 H 0.54921 0.77922 0.3802 0.0
H1812 H 0.57372 0.779 0.3617 0.0
H1813 H 0.62727 0.7812 0.39107 0.0
H1814 H 0.68816 0.76106 0.33509 0.0
H1815 H 0.66282 0.75784 0.35358 0.0
C1816 C 0.02978 0.21607 0.44012 0.0
C1817 C 0.04121 0.22228 0.42638 0.0
C1818 C 0.02934 0.19916 0.44863 0.0
C1819 C 0.05686 0.16608 0.45891 0.0
H1820 H 1.01029 0.12814 0.46712 0.0
C1821 C 0.05179 0.10152 0.5039 0.0
C1822 C 0.03981 0.08263 0.49771 0.0
C1823 C 0.05197 0.11815 0.49514 0.0
C1824 C 0.02349 0.1385 0.46498 0.0
H1825 H 0.06145 0.21493 0.41143 0.0
H1826 H 0.06131 0.18633 0.42664 0.0
H1827 H 1.01066 0.15745 0.4528 0.0
H1828 H 0.01833 0.06718 0.47703 0.0
H1829 H 0.0181 0.0961 0.46228 0.0
H1830 H 0.06972 0.14745 0.47154 0.0
C1831 C 0.05238 0.19438 0.43069 0.0
C1832 C 0.02371 0.15554 0.45679 0.0
C1833 C 0.05243 0.21094 0.42185 0.0
C1834 C 0.02782 0.08126 0.48239 0.0
C1835 C 0.02764 0.09801 0.4739 0.0
C1836 C 0.05666 0.14934 0.46754 0.0
C1837 C 0.0407 0.18793 0.44418 0.0
C1838 C 0.04041 0.1697 0.45343 0.0
C1839 C 0.03982 0.11688 0.47998 0.0
C1840 C 0.03997 0.13504 0.4707 0.0
H1841 H 0.02079 0.22409 0.44409 0.0
H1842 H 0.02018 0.195 0.45893 0.0
H1843 H 0.07007 0.17642 0.45677 0.0
H1844 H 0.06133 0.1035 0.51553 0.0
H1845 H 0.06153 0.13219 0.50048 0.0
C1846 C 0.61124 0.29173 0.19234 0.0
C1847 C 0.59411 0.28175 0.19867 0.0
C1848 C 0.62838 0.29109 0.2001 0.0
C1849 C 0.64989 0.26355 0.23187 0.0
H1850 H 0.69494 0.30547 0.22709 0.0
C1851 C 0.72366 0.25806 0.25518 0.0
C1852 C 0.73896 0.27507 0.26033 0.0
C1853 C 0.70629 0.25884 0.24804 0.0
C1854 C 0.68266 0.29355 0.22884 0.0
H1855 H 0.58263 0.26309 0.21881 0.0
H1856 H 0.61214 0.26221 0.23243 0.0
H1857 H 0.66545 0.30722 0.2152 0.0
H1858 H 0.74693 0.30649 0.2617 0.0
H1859 H 0.7172 0.30791 0.24967 0.0
H1860 H 0.66713 0.25009 0.24586 0.0
C1861 C 0.61241 0.27051 0.22117 0.0
C1862 C 0.66537 0.29444 0.22164 0.0
C1863 C 0.59519 0.27118 0.21338 0.0
C1864 C 0.73587 0.29291 0.25793 0.0
C1865 C 0.71852 0.2937 0.2508 0.0
C1866 C 0.66721 0.26265 0.23906 0.0
C1867 C 0.62957 0.28038 0.21471 0.0
C1868 C 0.6484 0.27946 0.22287 0.0
C1869 C 0.70313 0.2767 0.2456 0.0
C1870 C 0.68419 0.27762 0.23778 0.0
H1871 H 0.61146 0.29993 0.181 0.0
H1872 H 0.64075 0.29876 0.19418 0.0
H1873 H 0.63763 0.25143 0.23323 0.0
H1874 H 0.72507 0.24393 0.25665 0.0
H1875 H 0.69536 0.2452 0.2442 0.0
C1876 C 0.5578 0.83118 0.94563 0.0
C1877 C 0.54887 0.82535 0.92837 0.0
C1878 C 0.55824 0.84893 0.95507 0.0
C1879 C 0.54921 0.89702 0.94838 0.0
H1880 H 0.55315 0.90333 0.99944 0.0
C1881 C 0.55637 0.97278 0.98683 0.0
C1882 C 0.54981 0.97348 0.00366 0.0
C1883 C 0.55671 0.95508 0.97803 0.0
C1884 C 0.55184 0.90199 0.98515 0.0
H1885 H 0.533 0.83426 0.90806 0.0
H1886 H 0.53333 0.86416 0.92426 0.0
H1887 H 0.55245 0.87261 0.98412 0.0
H1888 H 0.5383 0.95519 0.02408 0.0
H1889 H 0.53852 0.92475 0.00888 0.0
H1890 H 0.54803 0.9261 0.94932 0.0
C1891 C 0.54056 0.85551 0.93057 0.0
C1892 C 0.55171 0.88416 0.97623 0.0
C1893 C 0.54021 0.83795 0.92118 0.0
C1894 C 0.54359 0.95561 0.01124 0.0
C1895 C 0.54385 0.93792 1.00243 0.0
C1896 C 0.54928 0.91479 0.95728 0.0
C1897 C 0.54972 0.86167 0.94772 0.0
C1898 C 0.5503 0.88112 0.95757 0.0
C1899 C 0.55042 0.93711 0.98556 0.0
C1900 C 0.55055 0.91781 0.97593 0.0
H1901 H 0.56474 0.82218 0.95181 0.0
H1902 H 0.56564 0.8528 0.96808 0.0
H1903 H 0.54846 0.89594 0.93411 0.0
H1904 H 0.56138 0.98599 0.98038 0.0
H1905 H 0.56221 0.95567 0.9653 0.0
C1906 C 0.96991 0.76511 0.71629 0.0
C1907 C 0.9789 0.77888 0.7048 0.0
C1908 C 0.95338 0.76538 0.72372 0.0
C1909 C 0.92202 0.797 0.73119 0.0
H1910 H 0.88777 0.74922 0.74415 0.0
C1911 C 0.85571 0.79702 0.76831 0.0
C1912 C 0.83956 0.78042 0.76634 0.0
C1913 C 0.87242 0.79695 0.76109 0.0
C1914 C 0.89692 0.76285 0.74059 0.0
H1915 H 0.97648 0.80394 0.6925 0.0
H1916 H 0.94815 0.80446 0.70517 0.0
H1917 H 0.91587 0.74886 0.73132 0.0
H1918 H 0.82937 0.75054 0.75466 0.0
H1919 H 0.85786 0.75038 0.7423 0.0
H1920 H 0.90292 0.81094 0.74023 0.0
C1921 C 0.9539 0.79335 0.70873 0.0
C1922 C 0.91353 0.76268 0.73327 0.0
C1923 C 0.97039 0.79301 0.70124 0.0
C1924 C 0.84118 0.76374 0.75677 0.0
C1925 C 0.85788 0.76363 0.74964 0.0
C1926 C 0.90545 0.79719 0.7386 0.0
C1927 C 0.94478 0.77951 0.72019 0.0
C1928 C 0.92665 0.77974 0.72827 0.0
C1929 C 0.87408 0.78025 0.75149 0.0
C1930 C 0.89229 0.78011 0.74353 0.0
H1931 H 0.97566 0.75391 0.7196 0.0
H1932 H 0.9475 0.75448 0.73252 0.0
H1933 H 0.93136 0.81069 0.72793 0.0
H1934 H 0.85548 0.81029 0.77544 0.0
H1935 H 0.88419 0.81016 0.76331 0.0
C1936 C 0.10547 0.99928 0.87317 0.0
C1937 C 0.12392 1.0052 0.86923 0.0
C1938 C 0.1007 0.99143 0.889 0.0
C1939 C 0.12071 0.99959 0.93359 0.0
H1940 H 0.07267 0.96408 0.94133 0.0
C1941 C 0.08845 0.00718 0.99829 0.0
C1942 C 0.07043 0.00796 0.99538 0.0
C1943 C 0.09657 1.00004 0.9847 0.0
C1944 C 0.08621 0.97393 0.93943 0.0
H1945 H 0.15165 0.00612 0.87798 0.0
H1946 H 0.14331 0.99275 0.90602 0.0
H1947 H 0.08456 0.96229 0.91256 0.0
H1948 H 0.04659 1.00117 0.97617 0.0
H1949 H 0.06084 0.98924 0.95246 0.0
H1950 H 0.1218 0.01231 0.95989 0.0
C1951 C 0.13257 0.99412 0.89678 0.0
C1952 C 0.09304 0.97282 0.92302 0.0
C1953 C 0.13732 1.00174 0.88076 0.0
C1954 C 0.06051 1.00087 0.97883 0.0
C1955 C 0.06861 0.99376 0.96528 0.0
C1956 C 0.11385 1.00076 0.94997 0.0
C1957 C 0.11433 0.98956 0.9013 0.0
C1958 C 0.10988 0.98636 0.91966 0.0
C1959 C 0.08682 0.99352 0.96797 0.0
C1960 C 0.09607 0.98867 0.95271 0.0
H1961 H 0.09485 1.00162 0.86442 0.0
H1962 H 0.08655 0.98826 0.89217 0.0
H1963 H 0.1337 0.0103 0.93137 0.0
H1964 H 0.09642 0.01236 0.01097 0.0
H1965 H 0.11058 0.99994 0.98719 0.0
C1966 C 0.77946 0.35913 0.55456 0.0
C1967 C 0.7834 0.37925 0.55382 0.0
C1968 C 0.78373 0.35186 0.57013 0.0
C1969 C 0.79452 0.3637 0.61821 0.0
H1970 H 0.81837 0.32433 0.61371 0.0
C1971 C 0.82407 0.3363 0.67887 0.0
C1972 C 0.82 0.31604 0.67844 0.0
C1973 C 0.8205 0.34473 0.66372 0.0
C1974 C 0.81159 0.3352 0.61517 0.0
H1975 H 0.79427 0.40746 0.56908 0.0
H1976 H 0.80176 0.39471 0.59626 0.0
H1977 H 0.80936 0.33742 0.58736 0.0
H1978 H 0.80901 0.28876 0.6618 0.0
H1979 H 0.80288 0.30344 0.63542 0.0
H1980 H 0.79665 0.36136 0.64605 0.0
C1981 C 0.79531 0.38459 0.58479 0.0
C1982 C 0.8064 0.34267 0.60009 0.0
C1983 C 0.79107 0.39188 0.56919 0.0
C1984 C 0.81263 0.30444 0.66248 0.0
C1985 C 0.80908 0.31286 0.64736 0.0
C1986 C 0.7997 0.3562 0.63332 0.0
C1987 C 0.792 0.36454 0.58531 0.0
C1988 C 0.79767 0.35687 0.60143 0.0
C1989 C 0.81281 0.33306 0.64785 0.0
C1990 C 0.80816 0.34177 0.63194 0.0
H1991 H 0.77347 0.34899 0.54299 0.0
H1992 H 0.7807 0.3363 0.57024 0.0
H1993 H 0.78769 0.37453 0.61963 0.0
H1994 H 0.82995 0.34563 0.69093 0.0
H1995 H 0.82377 0.36038 0.66443 0.0
C1996 C 0.50209 0.07593 0.37127 0.0
C1997 C 0.48483 0.07788 0.36665 0.0
C1998 C 0.51155 0.08369 0.3877 0.0
C1999 C 0.49936 0.09048 0.43175 0.0
H2000 H 0.5521 0.10281 0.44284 0.0
C2001 C 0.52753 0.07548 0.49837 0.0
C2002 C 0.53935 0.06432 0.49682 0.0
C2003 C 0.52373 0.08525 0.4843 0.0
C2004 C 0.53736 0.09953 0.43998 0.0
H2005 H 0.4647 0.09102 0.37484 0.0
H2006 H 0.48124 0.10452 0.40385 0.0
H2007 H 0.54022 0.10739 0.41352 0.0
H2008 H 0.55718 0.05543 0.47964 0.0
H2009 H 0.55011 0.072 0.45485 0.0
H2010 H 0.4963 0.08141 0.45767 0.0
C2011 C 0.48736 0.09685 0.39474 0.0
C2012 C 0.53057 0.10222 0.42325 0.0
C2013 C 0.4779 0.08915 0.37817 0.0
C2014 C 0.54793 0.06381 0.48119 0.0
C2015 C 0.54404 0.07351 0.46706 0.0
C2016 C 0.50613 0.08782 0.44844 0.0
C2017 C 0.50391 0.09349 0.39992 0.0
C2018 C 0.51144 0.09671 0.41868 0.0
C2019 C 0.53159 0.08399 0.46834 0.0
C2020 C 0.52512 0.09137 0.45242 0.0
H2021 H 0.5079 0.06756 0.36253 0.0
H2022 H 0.52415 0.08064 0.39128 0.0
H2023 H 0.48454 0.08593 0.42864 0.0
H2024 H 0.52094 0.07647 0.51037 0.0
H2025 H 0.51427 0.0934 0.48575 0.0
C2026 C 0.82115 0.72418 0.09848 0.0
C2027 C 0.81223 0.73025 0.08439 0.0
C2028 C 0.81971 0.73006 0.11606 0.0
C2029 C 0.80539 0.76518 0.14522 0.0
H2030 H 0.80039 0.72581 0.17796 0.0
C2031 C 0.78548 0.77521 0.21705 0.0
C2032 C 0.7945 0.76841 0.23057 0.0
C2033 C 0.78766 0.77109 0.19919 0.0
C2034 C 0.80197 0.7371 0.1691 0.0
H2035 H 0.79528 0.74799 0.078 0.0
H2036 H 0.79261 0.75816 0.10871 0.0
H2037 H 0.8046 0.7184 0.14727 0.0
H2038 H 0.813 0.75192 0.23561 0.0
H2039 H 0.81676 0.74478 0.20469 0.0
H2040 H 0.80256 0.78379 0.16717 0.0
C2041 C 0.80092 0.74894 0.10613 0.0
C2042 C 0.80444 0.73285 0.15139 0.0
C2043 C 0.80246 0.74312 0.08845 0.0
C2044 C 0.80569 0.7573 0.22566 0.0
C2045 C 0.80781 0.75313 0.20783 0.0
C2046 C 0.80285 0.76941 0.16297 0.0
C2047 C 0.80917 0.74212 0.12023 0.0
C2048 C 0.80633 0.74684 0.13915 0.0
C2049 C 0.79886 0.75998 0.19429 0.0
C2050 C 0.80121 0.75546 0.17522 0.0
H2051 H 0.82893 0.7144 0.09595 0.0
H2052 H 0.82672 0.72489 0.12642 0.0
H2053 H 0.80695 0.77643 0.13633 0.0
H2054 H 0.77679 0.78385 0.22024 0.0
H2055 H 0.78037 0.77645 0.18921 0.0
C2056 C 0.14182 0.02989 0.76198 0.0
C2057 C 0.13055 0.0283 0.77596 0.0
C2058 C 0.13469 0.03023 0.74474 0.0
C2059 C 0.09127 0.02032 0.716 0.0
H2060 H 0.12147 0.06134 0.69051 0.0
C2061 C 0.06235 0.04707 0.65474 0.0
C2062 C 0.07334 0.05059 0.64053 0.0
C2063 C 0.06937 0.04308 0.67086 0.0
C2064 C 0.11297 0.04966 0.69735 0.0
H2065 H 0.10272 0.02483 0.78269 0.0
H2066 H 0.09037 0.02565 0.75266 0.0
H2067 H 0.13359 0.05545 0.71909 0.0
H2068 H 0.10035 0.05306 0.63211 0.0
H2069 H 0.11254 0.0459 0.6602 0.0
H2070 H 0.07052 0.01479 0.69431 0.0
C2071 C 0.10467 0.02648 0.75499 0.0
C2072 C 0.11993 0.04624 0.7137 0.0
C2073 C 0.11179 0.02612 0.77223 0.0
C2074 C 0.09152 0.05023 0.64279 0.0
C2075 C 0.09854 0.04629 0.65891 0.0
C2076 C 0.08429 0.02376 0.69963 0.0
C2077 C 0.11615 0.02899 0.74113 0.0
C2078 C 0.10911 0.03163 0.72326 0.0
C2079 C 0.08752 0.04262 0.67309 0.0
C2080 C 0.09504 0.03856 0.69021 0.0
H2081 H 0.1563 0.03144 0.76439 0.0
H2082 H 0.14378 0.03183 0.73426 0.0
H2083 H 0.0827 0.00881 0.72297 0.0
H2084 H 0.04823 0.04707 0.65331 0.0
H2085 H 0.06063 0.04053 0.68164 0.0
C2086 C 0.74809 0.33618 0.45264 0.0
C2087 C 0.74788 0.35509 0.45716 0.0
C2088 C 0.74384 0.32796 0.4352 0.0
C2089 C 0.7333 0.31188 0.39725 0.0
H2090 H 0.7612 0.34918 0.36714 0.0
C2091 C 0.75261 0.28671 0.33028 0.0
C2092 C 0.77096 0.29587 0.32675 0.0
C2093 C 0.74506 0.29442 0.34396 0.0
C2094 C 0.75335 0.33857 0.37536 0.0
H2095 H 0.74112 0.37943 0.44742 0.0
H2096 H 0.73345 0.36493 0.41681 0.0
H2097 H 0.75428 0.36061 0.3957 0.0
H2098 H 0.79564 0.3206 0.33448 0.0
H2099 H 0.78275 0.33368 0.35877 0.0
H2100 H 0.73368 0.28975 0.37757 0.0
C2101 C 0.73726 0.35662 0.42673 0.0
C2102 C 0.74908 0.34514 0.39164 0.0
C2103 C 0.74148 0.36485 0.44427 0.0
C2104 C 0.78149 0.31315 0.33693 0.0
C2105 C 0.774 0.32076 0.35073 0.0
C2106 C 0.73772 0.3053 0.38106 0.0
C2107 C 0.73927 0.33848 0.42188 0.0
C2108 C 0.73965 0.33182 0.40309 0.0
C2109 C 0.75574 0.31138 0.35453 0.0
C2110 C 0.74842 0.31853 0.37022 0.0
H2111 H 0.75281 0.32824 0.46234 0.0
H2112 H 0.74567 0.31403 0.43202 0.0
H2113 H 0.72575 0.30126 0.40563 0.0
H2114 H 0.74401 0.27353 0.32248 0.0
H2115 H 0.73088 0.28699 0.34631 0.0
C2116 C 0.4596 0.05587 0.25558 0.0
C2117 C 0.46911 0.05669 0.27215 0.0
C2118 C 0.46868 0.05655 0.24028 0.0
C2119 C 0.50763 0.04459 0.22389 0.0
H2120 H 0.49662 0.06878 0.18276 0.0
C2121 C 0.53858 0.036 0.15861 0.0
C2122 C 0.52574 0.03054 0.14363 0.0
C2123 C 0.5338 0.04271 0.17455 0.0
C2124 C 0.4998 0.06197 0.19417 0.0
H2125 H 0.49582 0.06 0.2858 0.0
H2126 H 0.51168 0.0614 0.25908 0.0
H2127 H 0.4845 0.07485 0.21063 0.0
H2128 H 0.49793 0.02797 0.13347 0.0
H2129 H 0.48953 0.03958 0.16135 0.0
H2130 H 0.5225 0.0313 0.2074 0.0
C2131 C 0.49713 0.05983 0.2579 0.0
C2132 C 0.49288 0.06543 0.21007 0.0
C2133 C 0.48804 0.05905 0.27319 0.0
C2134 C 0.50816 0.03227 0.14477 0.0
C2135 C 0.50338 0.03898 0.1607 0.0
C2136 C 0.51457 0.04118 0.20804 0.0
C2137 C 0.48745 0.05816 0.24128 0.0
C2138 C 0.49644 0.05645 0.22499 0.0
C2139 C 0.5161 0.04408 0.17577 0.0
C2140 C 0.51042 0.04952 0.19295 0.0
H2141 H 0.44501 0.05411 0.25436 0.0
H2142 H 0.4608 0.055 0.22763 0.0
H2143 H 0.51036 0.03721 0.23508 0.0
H2144 H 0.55235 0.03515 0.15799 0.0
H2145 H 0.54392 0.04675 0.18594 0.0
C2146 C 0.79886 0.7475 0.97612 0.0
C2147 C 0.80638 0.7334 0.98167 0.0
C2148 C 0.7992 0.75223 0.95857 0.0
C2149 C 0.80123 0.73223 0.91311 0.0
H2150 H 0.81292 0.78578 0.90238 0.0
C2151 C 0.80293 0.75287 0.84037 0.0
C2152 C 0.79737 0.76884 0.83641 0.0
C2153 C 0.80515 0.74866 0.85797 0.0
C2154 C 0.80931 0.77068 0.90502 0.0
H2155 H 0.8203 0.71331 0.97293 0.0
H2156 H 0.82071 0.72142 0.94228 0.0
H2157 H 0.81466 0.77849 0.933 0.0
H2158 H 0.78953 0.79269 0.84806 0.0
H2159 H 0.79277 0.78509 0.87831 0.0
H2160 H 0.79532 0.7243 0.88522 0.0
C2161 C 0.81457 0.72886 0.95156 0.0
C2162 C 0.81042 0.76652 0.92269 0.0
C2163 C 0.81448 0.72433 0.9692 0.0
C2164 C 0.79401 0.78038 0.85052 0.0
C2165 C 0.79603 0.77606 0.86802 0.0
C2166 C 0.79989 0.73636 0.89542 0.0
C2167 C 0.80683 0.7428 0.94596 0.0
C2168 C 0.80631 0.74724 0.92702 0.0
C2169 C 0.80171 0.76018 0.87213 0.0
C2170 C 0.80378 0.75567 0.89104 0.0
H2171 H 0.79245 0.75474 0.9853 0.0
H2172 H 0.79298 0.76292 0.95476 0.0
H2173 H 0.79776 0.71718 0.91592 0.0
H2174 H 0.80566 0.74365 0.82988 0.0
H2175 H 0.80978 0.73645 0.86042 0.0
C2176 C 0.83406 0.08029 0.05855 0.0
C2177 C 0.8384 0.09963 0.05446 0.0
C2178 C 0.84149 0.06759 0.04971 0.0
C2179 C 0.86696 0.06145 0.01103 0.0
H2180 H 0.885 0.02963 0.04134 0.0
C2181 C 0.92744 0.03375 0.99814 0.0
C2182 C 0.92727 0.01591 0.00415 0.0
C2183 C 0.9127 0.04062 1.00047 0.0
C2184 C 0.87969 0.03805 0.03256 0.0
H2185 H 0.85353 0.12078 0.03762 0.0
H2186 H 0.86717 0.0988 0.02261 0.0
H2187 H 0.86704 0.04862 0.05324 0.0
H2188 H 0.91096 0.99054 0.01599 0.0
H2189 H 0.88507 1.00251 0.01997 0.0
H2190 H 0.88059 0.05148 0.99059 0.0
C2191 C 0.85766 0.09328 0.03236 0.0
C2192 C 0.86938 0.049 0.0394 0.0
C2193 C 0.85 0.10594 0.04106 0.0
C2194 C 0.91145 1.00434 0.01123 0.0
C2195 C 0.89671 0.01125 0.01362 0.0
C2196 C 0.87743 0.05057 0.0042 0.0
C2197 C 0.85368 0.07402 0.03676 0.0
C2198 C 0.86315 0.06109 0.02882 0.0
C2199 C 0.89754 0.02979 0.00891 0.0
C2200 C 0.88415 0.03902 0.01501 0.0
H2201 H 0.8249 0.07491 0.06861 0.0
H2202 H 0.83781 0.05275 0.05317 0.0
H2203 H 0.86211 0.07037 1.00245 0.0
H2204 H 0.9394 0.04283 0.99242 0.0
H2205 H 0.91378 0.05499 0.99677 0.0
C2206 C 0.35218 0.41949 0.03965 0.0
C2207 C 0.34799 0.3992 0.03923 0.0
C2208 C 0.37005 0.43148 0.03741 0.0
C2209 C 0.41827 0.43292 0.04261 0.0
H2210 H 0.42736 0.47632 0.01384 0.0
C2211 C 0.48844 0.49311 0.04775 0.0
C2212 C 0.49617 0.49879 0.03196 0.0
C2213 C 0.47015 0.48115 0.0475 0.0
C2214 C 0.42502 0.46417 0.02181 0.0
H2215 H 0.35935 0.37563 0.03596 0.0
H2216 H 0.39049 0.39655 0.03218 0.0
H2217 H 0.39569 0.45472 0.01532 0.0
H2218 H 0.49048 0.49679 0.00352 0.0
H2219 H 0.45821 0.47587 0.00313 0.0
H2220 H 0.44749 0.44235 0.04921 0.0
C2221 C 0.37995 0.40318 0.03432 0.0
C2222 C 0.40691 0.45193 0.02279 0.0
C2223 C 0.36208 0.39119 0.03644 0.0
C2224 C 0.48495 0.49266 0.01591 0.0
C2225 C 0.46648 0.48074 0.01568 0.0
C2226 C 0.4363 0.44522 0.04175 0.0
C2227 C 0.38416 0.42346 0.03483 0.0
C2228 C 0.40335 0.43622 0.03328 0.0
C2229 C 0.45902 0.47461 0.03148 0.0
C2230 C 0.43987 0.46107 0.03148 0.0
H2231 H 0.34165 0.42615 0.04172 0.0
H2232 H 0.37291 0.44707 0.03805 0.0
H2233 H 0.41599 0.42106 0.05091 0.0
H2234 H 0.49659 0.49761 0.06039 0.0
H2235 H 0.4647 0.47696 0.05991 0.0
C2236 C 0.38625 0.59037 0.77124 0.0
C2237 C 0.38056 0.58097 0.7541 0.0
C2238 C 0.37499 0.59905 0.77997 0.0
C2239 C 0.32688 0.59935 0.77918 0.0
H2240 H 0.34894 0.6533 0.79811 0.0
C2241 C 0.28744 0.65354 0.7805 0.0
C2242 C 0.29186 0.66868 0.79415 0.0
C2243 C 0.29704 0.64025 0.78003 0.0
C2244 C 0.34258 0.6381 0.79329 0.0
H2245 H 0.35855 0.57301 0.73279 0.0
H2246 H 0.33909 0.58814 0.74791 0.0
H2247 H 0.36871 0.63479 0.78896 0.0
H2248 H 0.30912 0.68131 0.81847 0.0
H2249 H 0.32597 0.65794 0.81767 0.0
H2250 H 0.30072 0.60288 0.78282 0.0
C2251 C 0.35211 0.58868 0.75471 0.0
C2252 C 0.35392 0.62751 0.78803 0.0
C2253 C 0.36336 0.58018 0.74597 0.0
C2254 C 0.30541 0.66971 0.80783 0.0
C2255 C 0.31513 0.65645 0.8073 0.0
C2256 C 0.31556 0.60991 0.78446 0.0
C2257 C 0.3578 0.59825 0.77177 0.0
C2258 C 0.34613 0.60826 0.78032 0.0
C2259 C 0.31132 0.64186 0.79317 0.0
C2260 C 0.32326 0.6296 0.79096 0.0
H2261 H 0.39942 0.59115 0.77786 0.0
H2262 H 0.3797 0.60633 0.79313 0.0
H2263 H 0.32053 0.58439 0.7736 0.0
H2264 H 0.27692 0.65233 0.76989 0.0
H2265 H 0.2939 0.62933 0.76885 0.0
C2266 C 0.23592 0.6306 0.56543 0.0
C2267 C 0.24648 0.61923 0.57119 0.0
C2268 C 0.21672 0.62277 0.56288 0.0
C2269 C 0.17819 0.59896 0.54739 0.0
H2270 H 0.15007 0.56482 0.57971 0.0
C2271 C 0.10075 0.55612 0.5316 0.0
C2272 C 0.08948 0.55526 0.5455 0.0
C2273 C 0.11994 0.56359 0.53489 0.0
C2274 C 0.15772 0.57444 0.57063 0.0
H2275 H 0.24514 0.59082 0.5791 0.0
H2276 H 0.2116 0.57708 0.57442 0.0
H2277 H 0.18347 0.57914 0.58581 0.0
H2278 H 0.08948 0.56154 0.57377 0.0
H2279 H 0.12291 0.57483 0.57943 0.0
H2280 H 0.15242 0.59466 0.53245 0.0
C2281 C 0.21817 0.59213 0.57209 0.0
C2282 C 0.17687 0.58247 0.57402 0.0
C2283 C 0.2374 0.59998 0.5747 0.0
C2284 C 0.09777 0.56195 0.56276 0.0
C2285 C 0.11695 0.56946 0.56603 0.0
C2286 C 0.15905 0.59097 0.54403 0.0
C2287 C 0.20764 0.60339 0.56597 0.0
C2288 C 0.1873 0.59485 0.56245 0.0
C2289 C 0.12824 0.57038 0.55214 0.0
C2290 C 0.1486 0.57864 0.55562 0.0
H2291 H 0.24248 0.64553 0.56272 0.0
H2292 H 0.20897 0.63193 0.55848 0.0
H2293 H 0.18586 0.60823 0.53809 0.0
H2294 H 0.09477 0.55101 0.51816 0.0
H2295 H 0.12828 0.56387 0.52394 0.0
C2296 C 0.70753 0.96951 0.77904 0.0
C2297 C 0.6885 0.96654 0.77728 0.0
C2298 C 0.71502 0.96063 0.79175 0.0
C2299 C 0.70635 0.91709 0.81121 0.0
H2300 H 0.74816 0.94506 0.84489 0.0
C2301 C 0.75306 0.87667 0.83634 0.0
C2302 C 0.7719 0.88669 0.83521 0.0
C2303 C 0.74038 0.88673 0.83693 0.0
C2304 C 0.73653 0.93697 0.83555 0.0
H2305 H 0.66234 0.95214 0.78743 0.0
H2306 H 0.67548 0.93567 0.8092 0.0
H2307 H 0.73044 0.96282 0.82992 0.0
H2308 H 0.79241 0.91541 0.83651 0.0
H2309 H 0.7704 0.93272 0.83614 0.0
H2310 H 0.7133 0.89162 0.81511 0.0
C2311 C 0.68453 0.9453 0.80098 0.0
C2312 C 0.72631 0.94715 0.82715 0.0
C2313 C 0.67707 0.95461 0.78853 0.0
C2314 C 0.77794 0.90714 0.8367 0.0
C2315 C 0.76522 0.91715 0.83681 0.0
C2316 C 0.71681 0.90697 0.81925 0.0
C2317 C 0.70358 0.94832 0.80267 0.0
C2318 C 0.71156 0.93735 0.81449 0.0
C2319 C 0.74614 0.90698 0.83592 0.0
C2320 C 0.73255 0.91689 0.83098 0.0
H2321 H 0.71667 0.97877 0.77064 0.0
H2322 H 0.72972 0.96291 0.79269 0.0
H2323 H 0.69509 0.90929 0.80136 0.0
H2324 H 0.74778 0.86094 0.83536 0.0
H2325 H 0.72589 0.87843 0.83696 0.0
C2326 C 0.74371 0.91756 0.56072 0.0
C2327 C 0.74635 0.90557 0.5466 0.0
C2328 C 0.73082 0.92727 0.55872 0.0
C2329 C 0.70692 0.94681 0.5255 0.0
H2330 H 0.67483 0.94889 0.56222 0.0
C2331 C 0.65292 0.98651 0.51851 0.0
C2332 C 0.65001 0.99673 0.53375 0.0
C2333 C 0.66371 0.97432 0.51967 0.0
C2334 C 0.68384 0.9487 0.55193 0.0
H2335 H 0.73737 0.89427 0.51928 0.0
H2336 H 0.7149 0.91149 0.5157 0.0
H2337 H 0.69519 0.92939 0.56492 0.0
H2338 H 0.65633 1.00238 0.56211 0.0
H2339 H 0.67551 0.98156 0.56414 0.0
H2340 H 0.69606 0.96654 0.51273 0.0
C2341 C 0.72287 0.91331 0.52834 0.0
C2342 C 0.69545 0.93742 0.55345 0.0
C2343 C 0.73565 0.90338 0.53042 0.0
C2344 C 0.65815 0.99452 0.55016 0.0
C2345 C 0.66908 0.98249 0.55131 0.0
C2346 C 0.69544 0.95825 0.52405 0.0
C2347 C 0.72035 0.92539 0.54248 0.0
C2348 C 0.70723 0.93646 0.54032 0.0
C2349 C 0.67201 0.97219 0.53608 0.0
C2350 C 0.68382 0.95948 0.53731 0.0
H2351 H 0.7517 0.91956 0.57338 0.0
H2352 H 0.72935 0.93662 0.5698 0.0
H2353 H 0.716 0.94656 0.51527 0.0
H2354 H 0.64661 0.9877 0.5057 0.0
H2355 H 0.66533 0.9664 0.50769 0.0
C2356 C 0.37966 0.48551 0.72942 0.0
C2357 C 0.399 0.49358 0.73123 0.0
C2358 C 0.37112 0.46573 0.73092 0.0
C2359 C 0.38097 0.42556 0.75157 0.0
H2360 H 0.33287 0.39515 0.72828 0.0
C2361 C 0.34378 0.34599 0.76433 0.0
C2362 C 0.32534 0.34189 0.76814 0.0
C2363 C 0.35318 0.36356 0.75786 0.0
C2364 C 0.3463 0.40353 0.73488 0.0
H2365 H 0.42457 0.48704 0.73458 0.0
H2366 H 0.40967 0.45241 0.7366 0.0
H2367 H 0.3489 0.42723 0.71909 0.0
H2368 H 0.30221 0.35286 0.76794 0.0
H2369 H 0.31869 0.38357 0.75659 0.0
H2370 H 0.37832 0.40185 0.76737 0.0
C2371 C 0.40108 0.46145 0.73465 0.0
C2372 C 0.35547 0.42188 0.72965 0.0
C2373 C 0.40962 0.48127 0.73339 0.0
C2374 C 0.31644 0.35564 0.76523 0.0
C2375 C 0.3258 0.37313 0.75858 0.0
C2376 C 0.3719 0.40715 0.75665 0.0
C2377 C 0.38175 0.45357 0.73404 0.0
C2378 C 0.37278 0.43325 0.73815 0.0
C2379 C 0.34426 0.37726 0.7549 0.0
C2380 C 0.35436 0.39611 0.74855 0.0
H2381 H 0.37111 0.49464 0.72778 0.0
H2382 H 0.35621 0.46023 0.73055 0.0
H2383 H 0.3941 0.43403 0.75867 0.0
H2384 H 0.35101 0.33567 0.7664 0.0
H2385 H 0.3674 0.36639 0.75505 0.0
C2386 C 0.19476 0.56625 0.24523 0.0
C2387 C 0.17644 0.55883 0.2495 0.0
C2388 C 0.2041 0.58626 0.2471 0.0
C2389 C 0.21842 0.62974 0.2446 0.0
H2390 H 0.21154 0.65926 0.28632 0.0
C2391 C 0.25349 0.71302 0.25769 0.0
C2392 C 0.26043 0.72043 0.27518 0.0
C2393 C 0.24253 0.69355 0.25379 0.0
C2394 C 0.21372 0.6512 0.27467 0.0
H2395 H 0.15333 0.56668 0.25848 0.0
H2396 H 0.16951 0.60164 0.2614 0.0
H2397 H 0.19378 0.62485 0.28062 0.0
H2398 H 0.26149 0.71319 0.30227 0.0
H2399 H 0.24275 0.67919 0.29543 0.0
H2400 H 0.23891 0.65594 0.23904 0.0
C2401 C 0.17679 0.59194 0.25697 0.0
C2402 C 0.20333 0.63152 0.27125 0.0
C2403 C 0.16748 0.57191 0.25519 0.0
C2404 C 0.25628 0.70796 0.28867 0.0
C2405 C 0.24542 0.68849 0.28476 0.0
C2406 C 0.22888 0.64941 0.24806 0.0
C2407 C 0.1953 0.59934 0.25318 0.0
C2408 C 0.20565 0.62051 0.25625 0.0
C2409 C 0.23835 0.68106 0.26729 0.0
C2410 C 0.22676 0.66033 0.26322 0.0
H2411 H 0.2021 0.55658 0.24086 0.0
H2412 H 0.21841 0.59142 0.24429 0.0
H2413 H 0.22039 0.62174 0.23281 0.0
H2414 H 0.25637 0.72228 0.247 0.0
H2415 H 0.23713 0.68835 0.24023 0.0
C2416 C 0.51249 0.70338 0.4624 0.0
C2417 C 0.52303 0.72136 0.47153 0.0
C2418 C 0.51328 0.68591 0.46845 0.0
C2419 C 0.54375 0.66741 0.49725 0.0
H2420 H 0.50243 0.61935 0.4898 0.0
C2421 C 0.52198 0.58315 0.51797 0.0
C2422 C 0.53897 0.57993 0.51681 0.0
C2423 C 0.51943 0.60008 0.5124 0.0
C2424 C 0.51409 0.63265 0.49218 0.0
H2425 H 0.54179 0.73508 0.49473 0.0
H2426 H 0.54257 0.70478 0.50567 0.0
H2427 H 0.49834 0.64944 0.48152 0.0
H2428 H 0.56645 0.59177 0.50839 0.0
H2429 H 0.56185 0.62091 0.49814 0.0
H2430 H 0.55932 0.65086 0.50851 0.0
C2431 C 0.53422 0.70405 0.49348 0.0
C2432 C 0.5118 0.64994 0.48718 0.0
C2433 C 0.53363 0.72147 0.4873 0.0
C2434 C 0.55323 0.59385 0.50961 0.0
C2435 C 0.55061 0.61067 0.50385 0.0
C2436 C 0.54599 0.6502 0.50239 0.0
C2437 C 0.52446 0.68602 0.4839 0.0
C2438 C 0.52662 0.66758 0.48961 0.0
C2439 C 0.53374 0.61416 0.50534 0.0
C2440 C 0.53123 0.63253 0.49986 0.0
H2441 H 0.50429 0.7028 0.45013 0.0
H2442 H 0.50569 0.6724 0.46059 0.0
H2443 H 0.55562 0.68055 0.49908 0.0
H2444 H 0.51072 0.5728 0.52358 0.0
H2445 H 0.50634 0.60231 0.51405 0.0
C2446 C 0.65243 0.31886 0.67021 0.0
C2447 C 0.63485 0.31352 0.6765 0.0
C2448 C 0.66781 0.31845 0.68089 0.0
C2449 C 0.67885 0.29377 0.7185 0.0
H2450 H 0.72815 0.33085 0.71908 0.0
C2451 C 0.73878 0.28962 0.76551 0.0
C2452 C 0.75592 0.29247 0.75869 0.0
C2453 C 0.72457 0.29371 0.75591 0.0
C2454 C 0.71449 0.32028 0.71893 0.0
H2455 H 0.61991 0.30477 0.69936 0.0
H2456 H 0.64671 0.30436 0.718 0.0
H2457 H 0.7024 0.33597 0.70184 0.0
H2458 H 0.77162 0.3022 0.73648 0.0
H2459 H 0.74668 0.3091 0.71963 0.0
H2460 H 0.69082 0.27794 0.73535 0.0
C2461 C 0.64855 0.30841 0.70468 0.0
C2462 C 0.69973 0.32323 0.70907 0.0
C2463 C 0.6332 0.30878 0.69401 0.0
C2464 C 0.7586 0.29983 0.74214 0.0
C2465 C 0.74434 0.3039 0.73251 0.0
C2466 C 0.69354 0.29082 0.7283 0.0
C2467 C 0.66595 0.31271 0.6981 0.0
C2468 C 0.68172 0.31002 0.70879 0.0
C2469 C 0.72708 0.3007 0.73921 0.0
C2470 C 0.71154 0.30404 0.7287 0.0
H2471 H 0.6542 0.32257 0.65678 0.0
H2472 H 0.68099 0.32176 0.67539 0.0
H2473 H 0.66525 0.28305 0.71825 0.0
H2474 H 0.73625 0.28412 0.77826 0.0
H2475 H 0.71158 0.2914 0.76161 0.0
C2476 C 0.03078 0.3294 0.96561 0.0
C2477 C 0.01438 0.31509 0.969 0.0
C2478 C 0.03426 0.34899 0.97157 0.0
C2479 C 1.0106 0.38384 0.98286 0.0
H2480 H 0.057 0.41497 0.00879 0.0
C2481 C 0.02157 0.46132 0.01573 0.0
C2482 C 0.03938 0.47507 0.01716 0.0
C2483 C 0.01855 0.44195 0.00933 0.0
C2484 C 0.04407 0.40666 1.00128 0.0
H2485 H 0.98883 0.31017 0.98138 0.0
H2486 H 0.9948 0.34431 0.99146 0.0
H2487 H 0.05212 0.38109 0.99865 0.0
H2488 H 0.06785 0.47949 0.01227 0.0
H2489 H 0.06252 0.44614 1.00039 0.0
H2490 H 1.00263 0.40937 0.98496 0.0
C2491 C 1.00497 0.34036 0.98427 0.0
C2492 C 0.04127 0.38718 0.99556 0.0
C2493 C 1.00164 0.32079 0.9786 0.0
C2494 C 0.05398 0.4692 0.0115 0.0
C2495 C 0.05093 0.44996 0.00483 0.0
C2496 C 0.0135 0.40341 0.98831 0.0
C2497 C 0.02125 0.35469 0.98074 0.0
C2498 C 0.02446 0.37553 0.98641 0.0
C2499 C 0.03323 0.43593 0.00392 0.0
C2500 C 0.03024 0.41511 0.99771 0.0
H2501 H 0.04085 0.32549 0.95824 0.0
H2502 H 0.0469 0.35975 0.96862 0.0
H2503 H 0.99757 0.37524 0.97563 0.0
H2504 H 1.01006 0.46534 0.02014 0.0
H2505 H 1.00478 0.43162 0.00911 0.0
C2506 C 0.02288 0.80696 0.17311 0.0
C2507 C 0.03308 0.79511 0.17858 0.0
C2508 C 1.00763 0.8078 0.18184 0.0
C2509 C 0.98693 0.79787 0.22413 0.0
H2510 H 0.94157 0.79613 0.19749 0.0
C2511 C 0.9243 0.80305 0.25905 0.0
C2512 C 0.90693 0.79004 0.25224 0.0
C2513 C 0.93971 0.80547 0.24957 0.0
C2514 C 0.95413 0.79655 0.20511 0.0
H2515 H 0.03519 0.7748 0.19746 0.0
H2516 H 1.00866 0.77613 0.21247 0.0
H2517 H 0.96855 0.79672 0.18196 0.0
H2518 H 0.89209 0.76955 0.23002 0.0
H2519 H 0.91903 0.77363 0.21352 0.0
H2520 H 0.97245 0.79705 0.2472 0.0
C2521 C 0.01255 0.78501 0.20164 0.0
C2522 C 0.96964 0.79712 0.19623 0.0
C2523 C 0.02771 0.78416 0.19294 0.0
C2524 C 0.90525 0.77982 0.23555 0.0
C2525 C 0.92069 0.7822 0.22608 0.0
C2526 C 0.97146 0.79731 0.23299 0.0
C2527 C 1.00233 0.79686 0.19624 0.0
C2528 C 0.98616 0.79754 0.20563 0.0
C2529 C 0.93815 0.79489 0.23307 0.0
C2530 C 0.95481 0.79646 0.22359 0.0
H2531 H 0.02668 0.81558 0.16209 0.0
H2532 H 1.00012 0.81717 0.17744 0.0
H2533 H 0.99951 0.79845 0.2318 0.0
H2534 H 0.92598 0.81142 0.27173 0.0
H2535 H 0.95287 0.81564 0.2552 0.0
C2536 C 0.56759 0.34381 0.11745 0.0
C2537 C 0.55502 0.33601 0.12992 0.0
C2538 C 0.56769 0.36077 0.10923 0.0
C2539 C 0.54978 0.40435 0.11239 0.0
H2540 H 0.56596 0.41086 0.06553 0.0
C2541 C 0.55825 0.47776 0.07895 0.0
C2542 C 0.55565 0.47733 0.06034 0.0
C2543 C 0.55824 0.46094 0.08743 0.0
C2544 C 0.56121 0.40947 0.07857 0.0
H2545 H 0.5326 0.34084 0.14318 0.0
H2546 H 0.53263 0.36994 0.12899 0.0
H2547 H 0.56537 0.38173 0.07956 0.0
H2548 H 0.55085 0.45785 0.03642 0.0
H2549 H 0.55073 0.42901 0.0509 0.0
H2550 H 0.54531 0.43197 0.11125 0.0
C2551 C 0.5427 0.36312 0.12558 0.0
C2552 C 0.56111 0.39255 0.08688 0.0
C2553 C 0.54258 0.34611 0.13377 0.0
C2554 C 0.55305 0.4592 0.0507 0.0
C2555 C 0.55309 0.44243 0.05915 0.0
C2556 C 0.54995 0.42132 0.10411 0.0
C2557 C 0.55525 0.37097 0.11303 0.0
C2558 C 0.55537 0.38944 0.10404 0.0
C2559 C 0.55567 0.44275 0.07778 0.0
C2560 C 0.55563 0.42439 0.08692 0.0
H2561 H 0.57751 0.33678 0.114 0.0
H2562 H 0.57786 0.36604 0.1 0.0
H2563 H 0.54542 0.40313 0.12559 0.0
H2564 H 0.56026 0.49118 0.0871 0.0
H2565 H 0.56051 0.46239 0.10169 0.0
C2566 C 0.98577 0.26343 0.34745 0.0
C2567 C 0.99083 0.26802 0.36585 0.0
C2568 C 0.96831 0.26349 0.3395 0.0
C2569 C 0.92006 0.2632 0.3512 0.0
H2570 H 0.91409 0.2774 0.30379 0.0
C2571 C 0.84614 0.25877 0.31828 0.0
C2572 C 0.84456 0.27183 0.30584 0.0
C2573 C 0.8636 0.25784 0.32498 0.0
C2574 C 0.9153 0.27348 0.31713 0.0
H2575 H 0.9803 0.27633 0.38984 0.0
H2576 H 0.95096 0.27643 0.3764 0.0
H2577 H 0.94416 0.27665 0.31589 0.0
H2578 H 0.86126 0.29409 0.29087 0.0
H2579 H 0.89118 0.29255 0.30234 0.0
H2580 H 0.89138 0.2602 0.3526 0.0
C2581 C 0.96017 0.27251 0.36787 0.0
C2582 C 0.9328 0.27283 0.32411 0.0
C2583 C 0.97747 0.2726 0.3757 0.0
C2584 C 0.86145 0.28378 0.30038 0.0
C2585 C 0.87889 0.28277 0.30698 0.0
C2586 C 0.90258 0.26369 0.3442 0.0
C2587 C 0.95493 0.26791 0.34956 0.0
C2588 C 0.93578 0.26784 0.34144 0.0
C2589 C 0.88056 0.26982 0.31955 0.0
C2590 C 0.89962 0.26896 0.32698 0.0
H2591 H 0.99529 0.25979 0.33911 0.0
H2592 H 0.96523 0.25973 0.32539 0.0
H2593 H 0.92112 0.25895 0.36444 0.0
H2594 H 0.83377 0.24913 0.32293 0.0
H2595 H 0.86369 0.24737 0.33434 0.0
C2596 C 0.01881 0.71663 0.64186 0.0
C2597 C 0.02607 0.73465 0.63472 0.0
C2598 C 0.01881 0.69885 0.63296 0.0
C2599 C 0.04018 0.67839 0.59541 0.0
H2600 H 1.00367 0.62951 0.60308 0.0
C2601 C 0.03556 0.60485 0.5543 0.0
C2602 C 0.02974 0.58708 0.56207 0.0
C2603 C 0.03494 0.62248 0.56296 0.0
C2604 C 0.0142 0.6429 0.60082 0.0
H2605 H 0.03886 0.74723 0.61193 0.0
H2606 H 0.03846 0.71666 0.59639 0.0
H2607 H 1.00262 0.65983 0.6178 0.0
H2608 H 0.01866 0.57468 0.58561 0.0
H2609 H 0.01761 0.60504 0.60058 0.0
H2610 H 0.05169 0.66144 0.57837 0.0
C2611 C 0.03302 0.71614 0.60915 0.0
C2612 C 0.01361 0.66059 0.60941 0.0
C2613 C 0.03306 0.73392 0.61807 0.0
C2614 C 0.02322 0.58781 0.57894 0.0
C2615 C 0.02252 0.60544 0.58758 0.0
C2616 C 0.04073 0.66071 0.58678 0.0
C2617 C 0.02607 0.6981 0.61641 0.0
C2618 C 0.02659 0.67886 0.60697 0.0
C2619 C 0.0284 0.62328 0.57985 0.0
C2620 C 0.02777 0.64246 0.58924 0.0
H2621 H 0.01344 0.71625 0.65466 0.0
H2622 H 0.0135 0.68571 0.63944 0.0
H2623 H 0.05079 0.69172 0.59319 0.0
H2624 H 0.04067 0.60522 0.54138 0.0
H2625 H 0.03939 0.63551 0.55616 0.0
C2626 C 0.60647 0.76819 0.87257 0.0
C2627 C 0.59337 0.77618 0.86522 0.0
C2628 C 0.62296 0.76893 0.8647 0.0
C2629 C 0.65538 0.79394 0.83065 0.0
H2630 H 0.67677 0.75339 0.83782 0.0
C2631 C 0.73 0.79895 0.80786 0.0
C2632 C 0.73407 0.78172 0.80305 0.0
C2633 C 0.71304 0.79853 0.81484 0.0
C2634 C 0.67118 0.76492 0.83542 0.0
H2635 H 0.58855 0.79154 0.84309 0.0
H2636 H 0.61705 0.79287 0.82943 0.0
H2637 H 0.64792 0.75194 0.84997 0.0
H2638 H 0.72233 0.75037 0.80231 0.0
H2639 H 0.6934 0.74961 0.81418 0.0
H2640 H 0.67869 0.80683 0.81594 0.0
C2641 C 0.61455 0.78594 0.84154 0.0
C2642 C 0.65437 0.76421 0.84274 0.0
C2643 C 0.59786 0.78503 0.84939 0.0
C2644 C 0.72018 0.7641 0.80568 0.0
C2645 C 0.70334 0.76369 0.81275 0.0
C2646 C 0.67233 0.79475 0.82344 0.0
C2647 C 0.62764 0.77787 0.84895 0.0
C2648 C 0.64588 0.77868 0.84062 0.0
C2649 C 0.69918 0.78086 0.81762 0.0
C2650 C 0.68077 0.78023 0.82555 0.0
H2651 H 0.60407 0.76129 0.88472 0.0
H2652 H 0.63229 0.76272 0.87136 0.0
H2653 H 0.64989 0.80563 0.82856 0.0
H2654 H 0.74003 0.81295 0.80632 0.0
H2655 H 0.71102 0.81228 0.8184 0.0
C2656 C 0.47485 0.58483 0.70191 0.0
C2657 C 0.45559 0.5804 0.69947 0.0
C2658 C 0.48525 0.58697 0.68744 0.0
C2659 C 0.49565 0.56775 0.65541 0.0
H2660 H 0.49199 0.59248 0.61252 0.0
C2661 C 0.51077 0.53862 0.58854 0.0
C2662 C 0.52422 0.55195 0.57997 0.0
C2663 C 0.50333 0.54503 0.603 0.0
C2664 C 0.49318 0.58562 0.6245 0.0
H2665 H 0.43247 0.57711 0.68017 0.0
H2666 H 0.45072 0.58081 0.65483 0.0
H2667 H 0.47823 0.60116 0.63876 0.0
H2668 H 0.53988 0.58251 0.57931 0.0
H2669 H 0.52649 0.59371 0.60451 0.0
H2670 H 0.5099 0.55167 0.64107 0.0
C2671 C 0.45771 0.58253 0.66795 0.0
C2672 C 0.48534 0.59055 0.63942 0.0
C2673 C 0.44726 0.58035 0.68247 0.0
C2674 C 0.52965 0.57189 0.58578 0.0
C2675 C 0.52195 0.57833 0.60008 0.0
C2676 C 0.50318 0.56263 0.64049 0.0
C2677 C 0.4766 0.5848 0.67027 0.0
C2678 C 0.48642 0.58153 0.65496 0.0
C2679 C 0.50896 0.56489 0.60894 0.0
C2680 C 0.50182 0.57133 0.62487 0.0
H2681 H 0.48175 0.58531 0.71488 0.0
H2682 H 0.49987 0.58906 0.68956 0.0
H2683 H 0.49643 0.56034 0.66712 0.0
H2684 H 0.50629 0.52319 0.58433 0.0
H2685 H 0.49321 0.53444 0.60962 0.0
C2686 C 0.82129 0.17396 0.00856 0.0
C2687 C 0.8215 0.18603 0.02381 0.0
C2688 C 0.82028 0.1806 0.99187 0.0
C2689 C 0.8021 0.19393 0.96051 0.0
H2690 H 0.82968 0.24616 0.95024 0.0
C2691 C 0.77758 0.23297 0.9056 0.0
C2692 C 0.79089 0.24322 0.89491 0.0
C2693 C 0.78286 0.2251 0.92043 0.0
C2694 C 0.822 0.23147 0.95285 0.0
H2695 H 0.82196 0.21482 0.0337 0.0
H2696 H 0.82045 0.22645 0.00466 0.0
H2697 H 0.8377 0.23416 0.97774 0.0
H2698 H 0.82013 0.2535 0.89142 0.0
H2699 H 0.82935 0.2398 0.91738 0.0
H2700 H 0.78611 0.19141 0.93581 0.0
C2701 C 0.82098 0.21187 0.00554 0.0
C2702 C 0.82652 0.22466 0.9686 0.0
C2703 C 0.82174 0.20517 0.02216 0.0
C2704 C 0.80957 0.24552 0.89936 0.0
C2705 C 0.81486 0.23781 0.91426 0.0
C2706 C 0.79746 0.20082 0.94483 0.0
C2707 C 0.81976 0.1995 0.99022 0.0
C2708 C 0.81645 0.20592 0.97269 0.0
C2709 C 0.80156 0.22751 0.92492 0.0
C2710 C 0.8072 0.21974 0.94097 0.0
H2711 H 0.82106 0.15912 0.00945 0.0
H2712 H 0.8195 0.17084 0.98024 0.0
H2713 H 0.79399 0.1795 0.96342 0.0
H2714 H 0.76309 0.23089 0.9024 0.0
H2715 H 0.77235 0.21739 0.92854 0.0
C2716 C 0.12279 0.46704 0.18945 0.0
C2717 C 0.11583 0.4683 0.20588 0.0
C2718 C 0.1109 0.46215 0.17395 0.0
C2719 C 0.06729 0.46841 0.15889 0.0
H2720 H 0.07977 0.45089 0.11372 0.0
C2721 C 0.04027 0.48876 0.09322 0.0
C2722 C 0.0551 0.49883 0.08397 0.0
C2723 C 0.04311 0.47788 0.10688 0.0
C2724 C 0.07592 0.45556 0.12626 0.0
H2725 H 0.09083 0.46307 0.2192 0.0
H2726 H 0.07001 0.45398 0.19217 0.0
H2727 H 0.09283 0.4426 0.14093 0.0
H2728 H 0.08423 0.50459 0.08106 0.0
H2729 H 0.08912 0.48565 0.10474 0.0
H2730 H 0.05104 0.48208 0.14423 0.0
C2731 C 0.0847 0.45745 0.19118 0.0
C2732 C 0.08345 0.4509 0.14183 0.0
C2733 C 0.09662 0.46259 0.20667 0.0
C2734 C 0.07259 0.49721 0.08811 0.0
C2735 C 0.07534 0.48612 0.1015 0.0
C2736 C 0.05962 0.47287 0.14333 0.0
C2737 C 0.09178 0.45818 0.17461 0.0
C2738 C 0.08001 0.45819 0.15834 0.0
C2739 C 0.06072 0.47659 0.11119 0.0
C2740 C 0.06464 0.46735 0.12695 0.0
H2741 H 0.13753 0.47126 0.18842 0.0
H2742 H 0.11692 0.46302 0.16147 0.0
H2743 H 0.0644 0.47444 0.17132 0.0
H2744 H 0.02662 0.48969 0.09022 0.0
H2745 H 0.03164 0.4707 0.11423 0.0
C2746 C 0.80012 0.82215 0.48156 0.0
C2747 C 0.78722 0.83005 0.48845 0.0
C2748 C 0.80008 0.81808 0.4633 0.0
C2749 C 0.77152 0.80865 0.42054 0.0
H2750 H 0.81862 0.82674 0.40081 0.0
C2751 C 0.77616 0.80371 0.34456 0.0
C2752 C 0.79175 0.80059 0.33795 0.0
C2753 C 0.77542 0.80744 0.36278 0.0
C2754 C 0.80534 0.82124 0.406 0.0
H2755 H 0.76375 0.83925 0.48133 0.0
H2756 H 0.76339 0.83168 0.44944 0.0
H2757 H 0.81724 0.83197 0.43249 0.0
H2758 H 0.81878 0.79879 0.34558 0.0
H2759 H 0.81732 0.8046 0.37719 0.0
H2760 H 0.7596 0.79743 0.39421 0.0
C2761 C 0.77364 0.82876 0.45824 0.0
C2762 C 0.80456 0.82435 0.42427 0.0
C2763 C 0.77385 0.83311 0.47654 0.0
C2764 C 0.80661 0.80133 0.35011 0.0
C2765 C 0.80578 0.80478 0.36835 0.0
C2766 C 0.77231 0.80527 0.40227 0.0
C2767 C 0.78698 0.82153 0.45135 0.0
C2768 C 0.78766 0.81812 0.43181 0.0
C2769 C 0.79016 0.8079 0.37505 0.0
C2770 C 0.78925 0.81153 0.39464 0.0
H2771 H 0.81069 0.81964 0.49026 0.0
H2772 H 0.81041 0.8123 0.45851 0.0
H2773 H 0.75828 0.80348 0.42589 0.0
H2774 H 0.76449 0.80341 0.33564 0.0
H2775 H 0.76328 0.81014 0.36717 0.0
C2776 C 0.48036 0.55323 0.79452 0.0
C2777 C 0.46443 0.55863 0.79239 0.0
C2778 C 0.48819 0.55237 0.81131 0.0
C2779 C 0.47555 0.54507 0.85644 0.0
H2780 H 0.52824 0.55566 0.86628 0.0
C2781 C 0.5091 0.53186 0.9227 0.0
C2782 C 0.52161 0.52148 0.92102 0.0
C2783 C 0.50246 0.53884 0.90798 0.0
C2784 C 0.5135 0.55262 0.86369 0.0
H2785 H 0.44468 0.56825 0.80622 0.0
H2786 H 0.45858 0.56699 0.83576 0.0
H2787 H 0.51649 0.56518 0.8391 0.0
H2788 H 0.5367 0.51012 0.90243 0.0
H2789 H 0.52535 0.52264 0.87683 0.0
H2790 H 0.47264 0.53236 0.88105 0.0
C2791 C 0.46482 0.56314 0.82435 0.0
C2792 C 0.50676 0.55806 0.84815 0.0
C2793 C 0.45694 0.56399 0.80746 0.0
C2794 C 0.52733 0.51831 0.90427 0.0
C2795 C 0.52083 0.52546 0.8896 0.0
C2796 C 0.48233 0.53979 0.87209 0.0
C2797 C 0.48035 0.55696 0.82644 0.0
C2798 C 0.48767 0.55387 0.84411 0.0
C2799 C 0.50835 0.5358 0.89131 0.0
C2800 C 0.50132 0.54309 0.87563 0.0
H2801 H 0.48651 0.54903 0.78318 0.0
H2802 H 0.49996 0.54727 0.81237 0.0
H2803 H 0.46077 0.54141 0.85366 0.0
H2804 H 0.50467 0.53491 0.93545 0.0
H2805 H 0.49296 0.5469 0.90967 0.0
C2806 C 0.85107 0.20102 0.12039 0.0
C2807 C 0.84374 0.18065 0.11964 0.0
C2808 C 0.85401 0.21235 0.13651 0.0
C2809 C 0.85156 0.21057 0.18514 0.0
H2810 H 0.82586 0.24792 0.17901 0.0
C2811 C 0.81216 0.23392 0.23918 0.0
C2812 C 0.81217 0.25325 0.24088 0.0
C2813 C 0.82053 0.22739 0.22549 0.0
C2814 C 0.83342 0.23789 0.18103 0.0
H2815 H 0.83578 0.15608 0.13533 0.0
H2816 H 0.84047 0.17581 0.16339 0.0
H2817 H 0.8347 0.23277 0.15337 0.0
H2818 H 0.82137 0.28099 0.22971 0.0
H2819 H 0.83602 0.26956 0.20586 0.0
H2820 H 0.84949 0.21522 0.21287 0.0
C2821 C 0.84411 0.18311 0.1516 0.0
C2822 C 0.83858 0.22922 0.16629 0.0
C2823 C 0.84134 0.17176 0.13548 0.0
C2824 C 0.82092 0.26595 0.22868 0.0
C2825 C 0.82933 0.25942 0.21502 0.0
C2826 C 0.84639 0.21928 0.19993 0.0
C2827 C 0.84948 0.20351 0.15214 0.0
C2828 C 0.84727 0.21509 0.16811 0.0
C2829 C 0.82915 0.24004 0.21322 0.0
C2830 C 0.83683 0.23265 0.19796 0.0
H2831 H 0.85337 0.20827 0.10841 0.0
H2832 H 0.85865 0.22805 0.13657 0.0
H2833 H 0.85842 0.1999 0.18698 0.0
H2834 H 0.8056 0.22375 0.24837 0.0
H2835 H 0.81986 0.21228 0.22429 0.0
C2836 C 0.09853 0.49502 0.3023 0.0
C2837 C 0.1152 0.4915 0.30003 0.0
C2838 C 0.09126 0.49347 0.31858 0.0
C2839 C 0.10621 0.49877 0.36547 0.0
H2840 H 0.05346 0.48407 0.36913 0.0
C2841 C 0.07452 0.514 0.42964 0.0
C2842 C 0.06208 0.52435 0.42698 0.0
C2843 C 0.08045 0.50544 0.41526 0.0
C2844 C 0.06822 0.48808 0.36832 0.0
H2845 H 0.13693 0.48273 0.31279 0.0
H2846 H 0.12413 0.48001 0.34146 0.0
H2847 H 0.06479 0.47571 0.34155 0.0
H2848 H 0.04624 0.53384 0.40704 0.0
H2849 H 0.05625 0.51852 0.38207 0.0
H2850 H 0.10956 0.51164 0.39214 0.0
C2851 C 0.1168 0.48411 0.3306 0.0
C2852 C 0.07471 0.48334 0.35257 0.0
C2853 C 0.12409 0.4856 0.3142 0.0
C2854 C 0.05554 0.5257 0.40962 0.0
C2855 C 0.06127 0.51693 0.3953 0.0
C2856 C 0.0997 0.50335 0.38131 0.0
C2857 C 0.10046 0.48835 0.33301 0.0
C2858 C 0.09376 0.48938 0.35072 0.0
C2859 C 0.07383 0.50681 0.39798 0.0
C2860 C 0.08065 0.49873 0.3826 0.0
H2861 H 0.0913 0.49951 0.29163 0.0
H2862 H 0.07883 0.49718 0.32003 0.0
H2863 H 0.12096 0.50375 0.36445 0.0
H2864 H 0.07957 0.51236 0.44284 0.0
H2865 H 0.09011 0.49766 0.41764 0.0
C2866 C 0.7798 0.8188 0.59279 0.0
C2867 C 0.78102 0.83824 0.59096 0.0
C2868 C 0.7778 0.81135 0.60942 0.0
C2869 C 0.76599 0.82329 0.65525 0.0
H2870 H 0.78903 0.78562 0.66869 0.0
C2871 C 0.78151 0.81102 0.728 0.0
C2872 C 0.7766 0.79175 0.73255 0.0
C2873 C 0.7803 0.81496 0.71032 0.0
C2874 C 0.78237 0.79601 0.66507 0.0
H2875 H 0.78156 0.86513 0.60552 0.0
H2876 H 0.77882 0.85262 0.63401 0.0
H2877 H 0.79047 0.79561 0.63867 0.0
H2878 H 0.76667 0.7615 0.72189 0.0
H2879 H 0.765 0.76845 0.69083 0.0
H2880 H 0.75863 0.8243 0.68188 0.0
C2881 C 0.77864 0.8427 0.62271 0.0
C2882 C 0.78312 0.80172 0.64779 0.0
C2883 C 0.78039 0.85 0.6062 0.0
C2884 C 0.7704 0.77649 0.71888 0.0
C2885 C 0.76958 0.78047 0.70108 0.0
C2886 C 0.76553 0.81785 0.67253 0.0
C2887 C 0.77714 0.82321 0.62468 0.0
C2888 C 0.77519 0.81574 0.64266 0.0
C2889 C 0.77452 0.79978 0.69659 0.0
C2890 C 0.7739 0.80433 0.67776 0.0
H2891 H 0.78027 0.8093 0.58139 0.0
H2892 H 0.77656 0.79623 0.61023 0.0
H2893 H 0.75914 0.8336 0.65186 0.0
H2894 H 0.78637 0.82313 0.73816 0.0
H2895 H 0.78432 0.82999 0.70734 0.0
C2896 C 0.76159 0.47227 0.52586 0.0
C2897 C 0.75284 0.45211 0.5221 0.0
C2898 C 0.75157 0.48418 0.53138 0.0
C2899 C 0.71495 0.48478 0.55696 0.0
H2900 H 0.70795 0.52572 0.53042 0.0
C2901 C 0.66007 0.52003 0.57128 0.0
C2902 C 0.66215 0.5388 0.56641 0.0
C2903 C 0.67341 0.51135 0.56806 0.0
C2904 C 0.71013 0.51471 0.53827 0.0
H2905 H 0.72682 0.42857 0.52084 0.0
H2906 H 0.70934 0.44946 0.53109 0.0
H2907 H 0.72633 0.50651 0.51925 0.0
H2908 H 0.68071 0.56387 0.55584 0.0
H2909 H 0.70454 0.54915 0.55117 0.0
H2910 H 0.69934 0.49313 0.57627 0.0
C2911 C 0.7239 0.45595 0.5295 0.0
C2912 C 0.72048 0.50359 0.53172 0.0
C2913 C 0.73383 0.44408 0.52356 0.0
C2914 C 0.67865 0.54938 0.55973 0.0
C2915 C 0.69218 0.54079 0.55677 0.0
C2916 C 0.70496 0.49616 0.56373 0.0
C2917 C 0.73277 0.47601 0.53361 0.0
C2918 C 0.7226 0.48832 0.54085 0.0
C2919 C 0.68937 0.52138 0.56022 0.0
C2920 C 0.70205 0.51099 0.55428 0.0
H2921 H 0.77624 0.47879 0.52479 0.0
H2922 H 0.75861 0.49964 0.5345 0.0
H2923 H 0.71674 0.47322 0.56431 0.0
H2924 H 0.64769 0.51165 0.57685 0.0
H2925 H 0.67061 0.49638 0.57085 0.0
C2926 C 0.24592 0.13644 0.5348 0.0
C2927 C 0.24872 0.15474 0.52847 0.0
C2928 C 0.22811 0.12311 0.5346 0.0
C2929 C 0.1884 0.10363 0.54306 0.0
H2930 H 0.15241 0.09758 0.50313 0.0
C2931 C 0.10945 0.06581 0.54484 0.0
C2932 C 0.09947 0.055 0.52929 0.0
C2933 C 0.1283 0.0763 0.54503 0.0
C2934 C 0.16232 0.09891 0.51433 0.0
H2935 H 0.2349 0.17315 0.51663 0.0
H2936 H 0.20392 0.15002 0.51631 0.0
H2937 H 0.18401 0.11881 0.50219 0.0
H2938 H 0.10171 0.04572 0.5021 0.0
H2939 H 0.13444 0.06364 0.50255 0.0
H2940 H 0.16664 0.08356 0.55513 0.0
C2941 C 0.21551 0.14588 0.52133 0.0
C2942 C 0.1804 0.11128 0.51386 0.0
C2943 C 0.2333 0.15921 0.52156 0.0
C2944 C 0.10891 0.05411 0.51425 0.0
C2945 C 0.12768 0.06448 0.51446 0.0
C2946 C 0.17026 0.09124 0.54354 0.0
C2947 C 0.21267 0.12774 0.52798 0.0
C2948 C 0.19364 0.1139 0.52826 0.0
C2949 C 0.13752 0.07611 0.5297 0.0
C2950 C 0.15699 0.08878 0.52918 0.0
H2951 H 0.2575 0.13248 0.54022 0.0
H2952 H 0.22641 0.10917 0.53961 0.0
H2953 H 0.19822 0.10547 0.55444 0.0
H2954 H 0.10258 0.06683 0.55665 0.0
H2955 H 0.13544 0.08518 0.55697 0.0
C2956 C 0.22162 0.01666 0.82036 0.0
C2957 C 0.2032 0.0081 0.82389 0.0
C2958 C 0.23301 1.00532 0.81811 0.0
C2959 C 0.2359 0.95576 0.82277 0.0
H2960 H 0.2666 0.96766 0.78389 0.0
C2961 C 0.26026 0.89954 0.78462 0.0
C2962 C 0.2793 0.90457 0.78286 0.0
C2963 C 0.25282 0.91341 0.79115 0.0
C2964 C 0.25828 0.96435 0.79492 0.0
H2965 H 0.18237 0.98115 0.82848 0.0
H2966 H 0.20196 0.96115 0.82388 0.0
H2967 H 0.2502 0.98963 0.79342 0.0
H2968 H 0.30532 0.92838 0.78603 0.0
H2969 H 0.29201 0.9529 0.79683 0.0
H2970 H 0.24329 0.92987 0.82348 0.0
C2971 C 0.20785 0.97669 0.82328 0.0
C2972 C 0.24894 0.97695 0.80047 0.0
C2973 C 0.19655 0.98812 0.82584 0.0
C2974 C 0.29059 0.92405 0.78709 0.0
C2975 C 0.28304 0.93804 0.79338 0.0
C2976 C 0.24502 0.94303 0.81702 0.0
C2977 C 0.22611 0.9851 0.81901 0.0
C2978 C 0.2374 0.97266 0.8143 0.0
C2979 C 0.26416 0.9327 0.79576 0.0
C2980 C 0.25604 0.94709 0.80288 0.0
H2981 H 0.22716 0.03211 0.81901 0.0
H2982 H 0.24711 0.01237 0.81529 0.0
H2983 H 0.22748 0.9522 0.83369 0.0
H2984 H 0.25106 0.88482 0.78102 0.0
H2985 H 0.23813 0.90908 0.79251 0.0
C2986 C 0.3428 0.94671 0.00802 0.0
C2987 C 0.33508 0.92634 0.00571 0.0
C2988 C 0.36184 0.95569 0.00888 0.0
C2989 C 0.40563 0.948 0.99952 0.0
H2990 H 0.42616 0.99075 0.03618 0.0
C2991 C 0.48211 0.99645 0.00615 0.0
C2992 C 0.49106 1.00184 0.02331 0.0
C2993 C 0.46309 0.98695 0.00356 0.0
C2994 C 0.42067 0.97874 0.02598 0.0
H2995 H 0.34119 0.89938 1.00179 0.0
H2996 H 0.37464 0.91512 0.00361 0.0
H2997 H 0.39298 0.97439 0.03204 0.0
H2998 H 0.48714 1.00142 0.05122 0.0
H2999 H 0.45397 0.98464 0.0467 0.0
H3000 H 0.43346 0.9521 0.99381 0.0
C3001 C 0.3659 0.92413 0.00457 0.0
C3002 C 0.40164 0.96953 0.02344 0.0
C3003 C 0.34676 0.91512 0.00359 0.0
C3004 C 0.48063 0.99757 0.03784 0.0
C3005 C 0.46161 0.98801 0.03525 0.0
C3006 C 0.42472 0.95722 1.00209 0.0
C3007 C 0.37362 0.9445 0.00758 0.0
C3008 C 0.39389 0.95412 0.01015 0.0
C3009 C 0.45265 0.98261 0.01808 0.0
C3010 C 0.43243 0.9727 0.01535 0.0
H3011 H 0.33415 0.95579 0.00944 0.0
H3012 H 0.36735 0.97143 0.01077 0.0
H3013 H 0.40006 0.93624 0.98911 0.0
H3014 H 0.48977 0.99959 0.99467 0.0
H3015 H 0.45654 0.98323 0.99018 0.0
C3016 C 0.89059 0.57807 0.79169 0.0
C3017 C 0.90621 0.58469 0.80399 0.0
C3018 C 0.87795 0.58808 0.79074 0.0
C3019 C 0.86248 0.62488 0.81489 0.0
H3020 H 0.8423 0.62934 0.76797 0.0
C3021 C 0.82137 0.67674 0.79974 0.0
C3022 C 0.80528 0.66903 0.78803 0.0
C3023 C 0.83319 0.66599 0.80265 0.0
C3024 C 0.84768 0.62803 0.78115 0.0
H3025 H 0.92077 0.60675 0.8252 0.0
H3026 H 0.89886 0.62475 0.82319 0.0
H3027 H 0.86439 0.612 0.77132 0.0
H3028 H 0.78874 0.64379 0.77054 0.0
H3029 H 0.80964 0.62513 0.77542 0.0
H3030 H 0.84598 0.64143 0.8246 0.0
C3031 C 0.89623 0.61157 0.81449 0.0
C3032 C 0.8603 0.61807 0.7831 0.0
C3033 C 0.90882 0.60136 0.81559 0.0
C3034 C 0.80116 0.65024 0.77945 0.0
C3035 C 0.81307 0.63955 0.78226 0.0
C3036 C 0.84995 0.63503 0.81292 0.0
C3037 C 0.88077 0.60513 0.80189 0.0
C3038 C 0.86774 0.61624 0.79999 0.0
C3039 C 0.82925 0.6474 0.79379 0.0
C3040 C 0.84237 0.63656 0.79603 0.0
H3041 H 0.88806 0.56508 0.78275 0.0
H3042 H 0.86595 0.58241 0.78121 0.0
H3043 H 0.8678 0.62354 0.82808 0.0
H3044 H 0.82515 0.69132 0.80629 0.0
H3045 H 0.84571 0.67246 0.81142 0.0
C3046 C 0.84931 0.64663 0.05336 0.0
C3047 C 0.84965 0.66043 0.04127 0.0
C3048 C 0.86175 0.63625 0.05305 0.0
C3049 C 0.90645 0.6363 0.03771 0.0
H3050 H 0.88755 0.58145 0.04463 0.0
C3051 C 0.95394 0.58967 0.05078 0.0
C3052 C 0.94791 0.57032 0.04302 0.0
C3053 C 0.94241 0.60113 0.04968 0.0
C3054 C 0.89306 0.5967 0.04251 0.0
H3055 H 0.8636 0.67433 0.01951 0.0
H3056 H 0.88537 0.65606 0.01892 0.0
H3057 H 0.86672 0.60046 0.04407 0.0
H3058 H 0.92523 0.54821 0.0274 0.0
H3059 H 0.90521 0.5681 0.02554 0.0
H3060 H 0.93281 0.63239 0.03597 0.0
C3061 C 0.87549 0.6534 0.02872 0.0
C3062 C 0.88113 0.60768 0.04241 0.0
C3063 C 0.86297 0.66381 0.02901 0.0
C3064 C 0.9302 0.56288 0.03387 0.0
C3065 C 0.9187 0.57432 0.03278 0.0
C3066 C 0.91843 0.62529 0.03787 0.0
C3067 C 0.8749 0.63934 0.04064 0.0
C3068 C 0.88766 0.62765 0.04012 0.0
C3069 C 0.92457 0.59354 0.04081 0.0
C3070 C 0.91189 0.60534 0.04032 0.0
H3071 H 0.83934 0.6437 0.06307 0.0
H3072 H 0.86109 0.62583 0.06265 0.0
H3073 H 0.91197 0.65166 0.03603 0.0
H3074 H 0.9674 0.59583 0.05808 0.0
H3075 H 0.94731 0.61578 0.0562 0.0
C3076 C 0.19628 0.10217 0.85364 0.0
C3077 C 0.17787 0.09526 0.84625 0.0
C3078 C 0.20678 0.12168 0.85337 0.0
C3079 C 0.20577 0.16985 0.84041 0.0
H3080 H 0.2518 0.17102 0.82165 0.0
C3081 C 0.2464 0.22986 0.79874 0.0
C3082 C 0.26574 0.23676 0.8021 0.0
C3083 C 0.23581 0.214 0.80694 0.0
C3084 C 0.23916 0.17107 0.82713 0.0
H3085 H 0.1554 0.1035 0.83443 0.0
H3086 H 0.17387 0.13747 0.83339 0.0
H3087 H 0.23299 0.1417 0.83309 0.0
H3088 H 0.28909 0.23244 0.81676 0.0
H3089 H 0.27063 0.20479 0.83094 0.0
H3090 H 0.21183 0.19918 0.83367 0.0
C3091 C 0.1802 0.128 0.83966 0.0
C3092 C 0.22838 0.15427 0.83381 0.0
C3093 C 0.16958 0.10851 0.84024 0.0
C3094 C 0.27424 0.22743 0.81377 0.0
C3095 C 0.26367 0.21157 0.82191 0.0
C3096 C 0.21657 0.18671 0.83362 0.0
C3097 C 0.19917 0.13451 0.84533 0.0
C3098 C 0.21145 0.15334 0.84037 0.0
C3099 C 0.24436 0.2047 0.81859 0.0
C3100 C 0.23327 0.18737 0.82673 0.0
H3101 H 0.2029 0.09224 0.85857 0.0
H3102 H 0.22121 0.12639 0.85836 0.0
H3103 H 0.19287 0.16965 0.84547 0.0
H3104 H 0.23939 0.2368 0.78991 0.0
H3105 H 0.22096 0.20884 0.80396 0.0
C3106 C 0.41606 0.98188 0.33455 0.0
C3107 C 0.40893 0.99499 0.32642 0.0
C3108 C 0.40519 0.96237 0.33458 0.0
C3109 C 0.35684 0.92836 0.32521 0.0
H3110 H 0.38105 0.89051 0.31373 0.0
C3111 C 0.31641 0.84613 0.31418 0.0
C3112 C 0.32139 0.8354 0.30053 0.0
C3113 C 0.32733 0.8653 0.31962 0.0
C3114 C 0.37404 0.90089 0.31681 0.0
H3115 H 0.38455 0.99807 0.31256 0.0
H3116 H 0.36593 0.96422 0.31219 0.0
H3117 H 0.39935 0.92471 0.31968 0.0
H3118 H 0.34154 0.83637 0.2817 0.0
H3119 H 0.36023 0.87001 0.29071 0.0
H3120 H 0.33142 0.90472 0.32128 0.0
C3121 C 0.37974 0.96892 0.31886 0.0
C3122 C 0.38459 0.9205 0.32054 0.0
C3123 C 0.39051 0.98838 0.31896 0.0
C3124 C 0.33742 0.84424 0.29234 0.0
C3125 C 0.34822 0.86349 0.29763 0.0
C3126 C 0.34628 0.90879 0.3213 0.0
C3127 C 0.38703 0.95558 0.32638 0.0
C3128 C 0.37608 0.93452 0.32447 0.0
C3129 C 0.34335 0.87425 0.31138 0.0
C3130 C 0.35471 0.89485 0.31676 0.0
H3131 H 0.43016 0.98655 0.34052 0.0
H3132 H 0.41113 0.95254 0.34076 0.0
H3133 H 0.34986 0.93872 0.32847 0.0
H3134 H 0.30421 0.83963 0.32087 0.0
H3135 H 0.3233 0.87303 0.33042 0.0
C3136 C 0.5995 0.36872 0.60665 0.0
C3137 C 0.58576 0.35357 0.61317 0.0
C3138 C 0.59559 0.38498 0.60108 0.0
C3139 C 0.56015 0.4008 0.58111 0.0
H3140 H 0.5869 0.4524 0.60381 0.0
C3141 C 0.54169 0.46764 0.56076 0.0
C3142 C 0.55578 0.48571 0.56181 0.0
C3143 C 0.54494 0.45171 0.56785 0.0
C3144 C 0.57949 0.4382 0.59704 0.0
H3145 H 0.55709 0.34344 0.61873 0.0
H3146 H 0.55007 0.37161 0.60826 0.0
H3147 H 0.59362 0.42425 0.61411 0.0
H3148 H 0.58439 0.50124 0.57096 0.0
H3149 H 0.59045 0.47336 0.58239 0.0
H3150 H 0.54668 0.41447 0.5634 0.0
C3151 C 0.56393 0.37096 0.6078 0.0
C3152 C 0.58327 0.42206 0.6031 0.0
C3153 C 0.56796 0.35491 0.61381 0.0
C3154 C 0.5732 0.48754 0.5701 0.0
C3155 C 0.57661 0.47148 0.57678 0.0
C3156 C 0.55666 0.41695 0.57475 0.0
C3157 C 0.57775 0.38618 0.6015 0.0
C3158 C 0.57358 0.40323 0.59522 0.0
C3159 C 0.56254 0.45326 0.57576 0.0
C3160 C 0.56623 0.43595 0.58264 0.0
H3161 H 0.61337 0.36815 0.60608 0.0
H3162 H 0.60644 0.39652 0.5962 0.0
H3163 H 0.55264 0.38641 0.57471 0.0
H3164 H 0.52806 0.46584 0.5546 0.0
H3165 H 0.53354 0.43821 0.56715 0.0
C3166 C 0.46181 0.77143 0.37626 0.0
C3167 C 0.46322 0.76053 0.39045 0.0
C3168 C 0.4449 0.76815 0.36654 0.0
C3169 C 0.3949 0.74906 0.36982 0.0
H3170 H 0.39312 0.75529 0.31971 0.0
C3171 C 0.34045 0.75008 0.30647 0.0
C3172 C 0.33102 0.76137 0.31477 0.0
C3173 C 0.35508 0.74631 0.31569 0.0
C3174 C 0.39321 0.75317 0.33363 0.0
H3175 H 0.44798 0.73728 0.40534 0.0
H3176 H 0.41826 0.73139 0.38816 0.0
H3177 H 0.42149 0.75456 0.33522 0.0
H3178 H 0.32918 0.77698 0.33951 0.0
H3179 H 0.35494 0.77086 0.3554 0.0
H3180 H 0.36654 0.74759 0.36817 0.0
C3181 C 0.43031 0.74263 0.38471 0.0
C3182 C 0.4096 0.75301 0.34258 0.0
C3183 C 0.44734 0.74592 0.39447 0.0
C3184 C 0.33616 0.76826 0.33268 0.0
C3185 C 0.35087 0.76461 0.34186 0.0
C3186 C 0.37844 0.74914 0.36082 0.0
C3187 C 0.42889 0.75384 0.37071 0.0
C3188 C 0.41079 0.75144 0.36087 0.0
C3189 C 0.36072 0.75384 0.33341 0.0
C3190 C 0.37751 0.75162 0.34268 0.0
H3191 H 0.47374 0.78284 0.3728 0.0
H3192 H 0.4443 0.7773 0.35608 0.0
H3193 H 0.39535 0.74792 0.38392 0.0
H3194 H 0.33672 0.74435 0.29276 0.0
H3195 H 0.36211 0.73765 0.30885 0.0
C3196 C 0.07311 0.73837 0.09839 0.0
C3197 C 0.07076 0.74243 0.11621 0.0
C3198 C 0.07086 0.71929 0.09155 0.0
C3199 C 0.05204 0.66749 0.10202 0.0
H3200 H 0.08387 0.65897 0.06722 0.0
C3201 C 0.04324 0.59028 0.07105 0.0
C3202 C 0.05895 0.58589 0.0664 0.0
C3203 C 0.04441 0.60935 0.07656 0.0
C3204 C 0.07501 0.66103 0.07711 0.0
H3205 H 0.06425 0.72953 0.14079 0.0
H3206 H 0.06101 0.69678 0.12917 0.0
H3207 H 0.08626 0.69203 0.07774 0.0
H3208 H 0.08832 0.59809 0.06416 0.0
H3209 H 0.09062 0.63127 0.07463 0.0
H3210 H 0.04151 0.63664 0.1022 0.0
C3211 C 0.06399 0.70805 0.12021 0.0
C3212 C 0.07616 0.68008 0.08293 0.0
C3213 C 0.06597 0.72697 0.12694 0.0
C3214 C 0.07596 0.60101 0.06765 0.0
C3215 C 0.07721 0.62009 0.07348 0.0
C3216 C 0.05111 0.64851 0.09643 0.0
C3217 C 0.06644 0.70388 0.10242 0.0
C3218 C 0.06473 0.68359 0.09554 0.0
C3219 C 0.06142 0.62458 0.0779 0.0
C3220 C 0.06257 0.64495 0.08389 0.0
H3221 H 0.07677 0.74993 0.08975 0.0
H3222 H 0.07258 0.71666 0.07772 0.0
H3223 H 0.04275 0.66948 0.11148 0.0
H3224 H 0.02984 0.57905 0.06996 0.0
H3225 H 0.03183 0.61216 0.0794 0.0
C3226 C 0.06028 0.25079 0.88076 0.0
C3227 C 0.05775 0.26517 0.89261 0.0
C3228 C 0.0761 0.25467 0.87178 0.0
C3229 C 0.11302 0.29353 0.85588 0.0
H3230 H 0.1383 0.25525 0.85448 0.0
C3231 C 0.18105 0.30558 0.82285 0.0
C3232 C 0.18327 0.28936 0.8134 0.0
C3233 C 0.16625 0.30336 0.83315 0.0
C3234 C 0.1313 0.26598 0.85454 0.0
H3235 H 0.06971 0.29507 0.90408 0.0
H3236 H 0.09745 0.30197 0.88807 0.0
H3237 H 0.11154 0.25031 0.87126 0.0
H3238 H 0.17156 0.25816 0.80703 0.0
H3239 H 0.1455 0.25427 0.82467 0.0
H3240 H 0.13247 0.30898 0.83877 0.0
C3241 C 0.08711 0.28766 0.88587 0.0
C3242 C 0.11602 0.26318 0.86423 0.0
C3243 C 0.07129 0.28369 0.89505 0.0
C3244 C 0.17032 0.27089 0.81436 0.0
C3245 C 0.15543 0.26868 0.82453 0.0
C3246 C 0.12824 0.29626 0.84603 0.0
C3247 C 0.08973 0.27309 0.8743 0.0
C3248 C 0.10661 0.27682 0.86486 0.0
C3249 C 0.15325 0.28487 0.83413 0.0
C3250 C 0.13746 0.28241 0.8451 0.0
H3251 H 0.05012 0.23636 0.87855 0.0
H3252 H 0.07763 0.24326 0.86276 0.0
H3253 H 0.10592 0.30418 0.85602 0.0
H3254 H 0.19097 0.31997 0.82255 0.0
H3255 H 0.16517 0.3161 0.84057 0.0
C3256 C 0.57053 0.71769 0.94797 0.0
C3257 C 0.55479 0.71979 0.93872 0.0
C3258 C 0.56973 0.70067 0.9564 0.0
C3259 C 0.53677 0.65611 0.97406 0.0
H3260 H 0.57809 0.63664 0.97387 0.0
C3261 C 0.54133 0.59154 0.01612 0.0
C3262 C 0.54923 0.57792 0.00898 0.0
C3263 C 0.54164 0.60848 0.00769 0.0
C3264 C 0.5663 0.64167 0.9741 0.0
H3265 H 0.52565 0.70477 0.93163 0.0
H3266 H 0.52415 0.67556 0.94648 0.0
H3267 H 0.57925 0.66582 0.95936 0.0
H3268 H 0.56382 0.57239 0.98691 0.0
H3269 H 0.56461 0.6016 0.97261 0.0
H3270 H 0.52388 0.63199 0.98893 0.0
C3271 C 0.53728 0.68713 0.94721 0.0
C3272 C 0.56704 0.65876 0.9658 0.0
C3273 C 0.53815 0.70405 0.93852 0.0
C3274 C 0.55751 0.5822 0.99304 0.0
C3275 C 0.55808 0.59926 0.98479 0.0
C3276 C 0.53616 0.63919 0.98264 0.0
C3277 C 0.55308 0.68491 0.9563 0.0
C3278 C 0.55227 0.66643 0.96547 0.0
C3279 C 0.55015 0.61289 0.99185 0.0
C3280 C 0.55087 0.63142 0.98281 0.0
H3281 H 0.58368 0.72924 0.94857 0.0
H3282 H 0.58228 0.70003 0.96326 0.0
H3283 H 0.52506 0.66126 0.97443 0.0
H3284 H 0.53482 0.58911 0.0283 0.0
H3285 H 0.53545 0.61837 0.01387 0.0
C3286 C 0.10352 0.79777 0.68614 0.0
C3287 C 0.08796 0.79484 0.69596 0.0
C3288 C 0.12069 0.79689 0.69354 0.0
C3289 C 0.15026 0.80063 0.7364 0.0
H3290 H 0.17736 0.775 0.70811 0.0
C3291 C 0.22812 0.80562 0.75762 0.0
C3292 C 0.23339 0.78879 0.75477 0.0
C3293 C 0.21048 0.80616 0.75106 0.0
C3294 C 0.17011 0.78224 0.71636 0.0
H3295 H 0.07935 0.78882 0.72202 0.0
H3296 H 0.10933 0.78809 0.73509 0.0
H3297 H 0.14748 0.77645 0.69612 0.0
H3298 H 0.22327 0.75931 0.74217 0.0
H3299 H 0.19314 0.76046 0.73034 0.0
H3300 H 0.17316 0.80683 0.75648 0.0
C3301 C 0.10811 0.79089 0.72138 0.0
C3302 C 0.15279 0.7832 0.70934 0.0
C3303 C 0.09071 0.79131 0.71381 0.0
C3304 C 0.2201 0.77261 0.74482 0.0
C3305 C 0.20263 0.77332 0.7379 0.0
C3306 C 0.16782 0.8001 0.74326 0.0
C3307 C 0.12354 0.79343 0.71137 0.0
C3308 C 0.14231 0.79235 0.71917 0.0
C3309 C 0.19726 0.79008 0.7409 0.0
C3310 C 0.17823 0.7908 0.73346 0.0
H3311 H 0.10238 0.80039 0.67237 0.0
H3312 H 0.13191 0.79913 0.68518 0.0
H3313 H 0.14303 0.80795 0.74459 0.0
H3314 H 0.23763 0.81848 0.76515 0.0
H3315 H 0.20734 0.81947 0.75375 0.0
C3316 C 0.02241 0.33101 0.4533 0.0
C3317 C 0.03586 0.32965 0.44197 0.0
C3318 C 0.02274 0.34911 0.46173 0.0
C3319 C 0.04338 0.40403 0.46009 0.0
H3320 H 0.02465 0.40625 0.50583 0.0
C3321 C 0.03423 0.47621 0.49239 0.0
C3322 C 0.03645 0.48022 0.51097 0.0
C3323 C 0.03442 0.45823 0.48411 0.0
C3324 C 0.03011 0.40615 0.49312 0.0
H3325 H 0.06037 0.34709 0.43093 0.0
H3326 H 0.06109 0.37832 0.44556 0.0
H3327 H 0.02491 0.37526 0.49187 0.0
H3328 H 0.04071 0.46763 0.53514 0.0
H3329 H 0.04117 0.43675 0.52093 0.0
H3330 H 0.04884 0.43499 0.46147 0.0
C3331 C 0.05002 0.36539 0.44788 0.0
C3332 C 0.03004 0.38806 0.48488 0.0
C3333 C 0.04972 0.34725 0.43951 0.0
C3334 C 0.03892 0.4654 0.52085 0.0
C3335 C 0.03904 0.4474 0.51259 0.0
C3336 C 0.04337 0.42212 0.4683 0.0
C3337 C 0.0365 0.36682 0.45919 0.0
C3338 C 0.03667 0.38649 0.46814 0.0
C3339 C 0.03676 0.44329 0.49398 0.0
C3340 C 0.03676 0.42368 0.48505 0.0
H3341 H 1.01138 0.31801 0.45558 0.0
H3342 H 1.01184 0.34918 0.46999 0.0
H3343 H 0.04846 0.40385 0.4472 0.0
H3344 H 0.03223 0.48699 0.48412 0.0
H3345 H 0.03238 0.45596 0.46984 0.0
C3346 C 0.47594 0.25098 0.21589 0.0
C3347 C 0.48451 0.26416 0.20376 0.0
C3348 C 0.45924 0.2511 0.22308 0.0
C3349 C 0.42567 0.28107 0.22704 0.0
H3350 H 0.39461 0.23506 0.24577 0.0
C3351 C 0.35909 0.2829 0.26238 0.0
C3352 C 0.34411 0.26572 0.26373 0.0
C3353 C 0.37578 0.28257 0.25535 0.0
C3354 C 0.40281 0.24817 0.24054 0.0
H3355 H 0.48105 0.28787 0.18994 0.0
H3356 H 0.45236 0.28796 0.20194 0.0
H3357 H 0.42279 0.23466 0.23324 0.0
H3358 H 0.33601 0.23445 0.25819 0.0
H3359 H 0.36443 0.23378 0.24587 0.0
H3360 H 0.40547 0.29442 0.23387 0.0
C3361 C 0.45861 0.27754 0.20636 0.0
C3362 C 0.41953 0.24803 0.23339 0.0
C3363 C 0.47534 0.27745 0.19922 0.0
C3364 C 0.34689 0.24814 0.25763 0.0
C3365 C 0.36358 0.24779 0.25052 0.0
C3366 C 0.40895 0.2812 0.23416 0.0
C3367 C 0.44993 0.26437 0.21856 0.0
C3368 C 0.43159 0.26448 0.22638 0.0
C3369 C 0.37863 0.26502 0.24908 0.0
C3370 C 0.39691 0.26477 0.2412 0.0
H3371 H 0.48221 0.24044 0.21997 0.0
H3372 H 0.4538 0.24074 0.23246 0.0
H3373 H 0.43408 0.29434 0.2222 0.0
H3374 H 0.35798 0.29688 0.2668 0.0
H3375 H 0.38658 0.29636 0.25508 0.0
C3376 C 0.63891 0.49567 0.38485 0.0
C3377 C 0.62615 0.49925 0.37265 0.0
C3378 C 0.63366 0.48969 0.40132 0.0
C3379 C 0.59334 0.47216 0.42737 0.0
H3380 H 0.62267 0.51238 0.46338 0.0
C3381 C 0.56143 0.50326 0.48215 0.0
C3382 C 0.57136 0.51035 0.49871 0.0
C3383 C 0.56938 0.4957 0.46873 0.0
C3384 C 0.61453 0.50066 0.45371 0.0
H3385 H 0.59766 0.49773 0.36724 0.0
H3386 H 0.58843 0.48706 0.39571 0.0
H3387 H 0.63483 0.50848 0.43525 0.0
H3388 H 0.59718 0.51432 0.51441 0.0
H3389 H 0.61103 0.50109 0.49089 0.0
H3390 H 0.5726 0.46506 0.44549 0.0
C3391 C 0.60247 0.48892 0.39275 0.0
C3392 C 0.62154 0.4984 0.43758 0.0
C3393 C 0.60778 0.49523 0.37651 0.0
C3394 C 0.58922 0.50916 0.50173 0.0
C3395 C 0.59716 0.50157 0.48828 0.0
C3396 C 0.58637 0.47434 0.44354 0.0
C3397 C 0.61549 0.4868 0.40557 0.0
C3398 C 0.6106 0.48484 0.42394 0.0
C3399 C 0.58741 0.49499 0.47156 0.0
C3400 C 0.59648 0.48933 0.4565 0.0
H3401 H 0.65317 0.49868 0.38213 0.0
H3402 H 0.64394 0.48815 0.41101 0.0
H3403 H 0.58474 0.46142 0.41712 0.0
H3404 H 0.54764 0.50389 0.4794 0.0
H3405 H 0.5616 0.49113 0.45591 0.0
C3406 C 0.26872 0.88259 0.0704 0.0
C3407 C 0.26457 0.87202 0.05367 0.0
C3408 C 0.26892 0.87305 0.08561 0.0
C3409 C 0.27677 0.82873 0.0987 0.0
H3410 H 0.26669 0.84676 0.14477 0.0
C3411 C 0.28967 0.79458 0.16241 0.0
C3412 C 0.29898 0.80791 0.1769 0.0
C3413 C 0.28306 0.80099 0.14732 0.0
C3414 C 0.26959 0.84162 0.13197 0.0
H3415 H 0.25568 0.84305 0.03984 0.0
H3416 H 0.25557 0.82636 0.06644 0.0
H3417 H 0.2575 0.85998 0.11848 0.0
H3418 H 0.30908 0.83849 0.18672 0.0
H3419 H 0.29741 0.84962 0.16044 0.0
H3420 H 0.28907 0.81056 0.11223 0.0
C3421 C 0.25924 0.84206 0.06777 0.0
C3422 C 0.26433 0.84916 0.11694 0.0
C3423 C 0.25919 0.85162 0.05254 0.0
C3424 C 0.3017 0.82781 0.1759 0.0
C3425 C 0.29499 0.83419 0.16088 0.0
C3426 C 0.2819 0.8211 0.11371 0.0
C3427 C 0.2648 0.85274 0.08441 0.0
C3428 C 0.26818 0.84307 0.10016 0.0
C3429 C 0.28554 0.82084 0.14649 0.0
C3430 C 0.27869 0.82774 0.13051 0.0
H3431 H 0.27291 0.89833 0.07172 0.0
H3432 H 0.2734 0.88174 0.0982 0.0
H3433 H 0.28027 0.82396 0.08604 0.0
H3434 H 0.28709 0.77912 0.16287 0.0
H3435 H 0.27572 0.79039 0.13643 0.0
C3436 C 1.01114 0.5799 0.86839 0.0
C3437 C 0.9919 0.57517 0.86715 0.0
C3438 C 0.02152 0.58672 0.88458 0.0
C3439 C 0.01894 0.59958 0.93242 0.0
H3440 H 0.04931 0.56656 0.93782 0.0
C3441 C 0.02908 0.5658 0.99607 0.0
C3442 C 0.04517 0.56098 0.99967 0.0
C3443 C 0.02678 0.57482 0.98097 0.0
C3444 C 0.04136 0.57635 0.9366 0.0
H3445 H 0.96839 0.57527 0.88121 0.0
H3446 H 0.98638 0.58618 0.90992 0.0
H3447 H 0.03754 0.57026 0.9087 0.0
H3448 H 0.0721 0.5633 0.99111 0.0
H3449 H 0.06817 0.57931 0.96484 0.0
H3450 H 0.02207 0.60468 0.96066 0.0
C3451 C 0.9936 0.58519 0.89836 0.0
C3452 C 0.03457 0.5785 0.9198 0.0
C3453 C 0.98325 0.57882 0.88198 0.0
C3454 C 0.05939 0.56646 0.98849 0.0
C3455 C 0.05716 0.57568 0.97347 0.0
C3456 C 0.02579 0.59742 0.94934 0.0
C3457 C 0.01274 0.58829 0.89993 0.0
C3458 C 0.02276 0.58959 0.91752 0.0
C3459 C 0.04057 0.57936 0.96924 0.0
C3460 C 0.03652 0.5852 0.9516 0.0
H3461 H 0.01809 0.57751 0.85696 0.0
H3462 H 0.03628 0.58952 0.88526 0.0
H3463 H 1.01008 0.60843 0.93106 0.0
H3464 H 0.01791 0.5619 0.00452 0.0
H3465 H 0.01373 0.57721 0.97802 0.0
C3466 C 0.29886 0.2428 0.58795 0.0
C3467 C 0.30898 0.2303 0.58383 0.0
C3468 C 0.29807 0.24929 0.60564 0.0
C3469 C 0.30404 0.23499 0.6511 0.0
H3470 H 0.3025 0.28617 0.66646 0.0
C3471 C 0.30778 0.26078 0.72535 0.0
C3472 C 0.29702 0.27227 0.7305 0.0
C3473 C 0.30929 0.25626 0.70743 0.0
C3474 C 0.3027 0.27172 0.66239 0.0
H3475 H 0.32714 0.2159 0.59518 0.0
H3476 H 0.32611 0.22745 0.62562 0.0
H3477 H 0.30551 0.278 0.6354 0.0
H3478 H 0.27938 0.28796 0.72054 0.0
H3479 H 0.28181 0.27989 0.6894 0.0
H3480 H 0.30114 0.22859 0.67794 0.0
C3481 C 0.31831 0.23184 0.61534 0.0
C3482 C 0.30444 0.26704 0.64452 0.0
C3483 C 0.31904 0.22535 0.59778 0.0
C3484 C 0.2878 0.27908 0.71716 0.0
C3485 C 0.28931 0.27456 0.69923 0.0
C3486 C 0.30228 0.23965 0.6689 0.0
C3487 C 0.3074 0.24346 0.61963 0.0
C3488 C 0.30528 0.24863 0.63862 0.0
C3489 C 0.30009 0.26308 0.69406 0.0
C3490 C 0.30168 0.25812 0.67489 0.0
H3491 H 0.29083 0.24682 0.57761 0.0
H3492 H 0.28949 0.25818 0.60836 0.0
H3493 H 0.30417 0.2205 0.64708 0.0
H3494 H 0.31522 0.25536 0.73516 0.0
H3495 H 0.31796 0.24765 0.70408 0.0
C3496 C 0.62371 0.49563 0.2636 0.0
C3497 C 0.61914 0.50502 0.27844 0.0
C3498 C 0.61276 0.49217 0.24755 0.0
C3499 C 0.56799 0.49426 0.22668 0.0
H3500 H 0.59608 0.50649 0.18614 0.0
C3501 C 0.54517 0.52464 0.16447 0.0
C3502 C 0.54936 0.518 0.14805 0.0
C3503 C 0.55061 0.51802 0.17999 0.0
C3504 C 0.58797 0.50268 0.19726 0.0
H3505 H 0.59914 0.51748 0.2883 0.0
H3506 H 0.58054 0.51219 0.26029 0.0
H3507 H 0.61166 0.50405 0.21417 0.0
H3508 H 0.5618 0.49861 0.13493 0.0
H3509 H 0.57131 0.48713 0.16206 0.0
H3510 H 0.54449 0.49414 0.20975 0.0
C3511 C 0.59225 0.50699 0.26102 0.0
C3512 C 0.59689 0.5012 0.21335 0.0
C3513 C 0.60302 0.51018 0.27711 0.0
C3514 C 0.55823 0.50388 0.14738 0.0
C3515 C 0.56381 0.49741 0.16289 0.0
C3516 C 0.5591 0.49601 0.21059 0.0
C3517 C 0.59718 0.49831 0.24594 0.0
C3518 C 0.58711 0.49735 0.22837 0.0
C3519 C 0.56049 0.50481 0.17936 0.0
C3520 C 0.5691 0.50056 0.19582 0.0
H3521 H 0.63592 0.49126 0.26428 0.0
H3522 H 0.61676 0.48506 0.23631 0.0
H3523 H 0.55994 0.4909 0.23787 0.0
H3524 H 0.53823 0.53542 0.16534 0.0
H3525 H 0.54799 0.52405 0.19254 0.0
C3526 C 0.25446 0.88228 0.94369 0.0
C3527 C 0.25497 0.86832 0.95532 0.0
C3528 C 0.25089 0.87695 0.92551 0.0
C3529 C 0.23505 0.83604 0.89069 0.0
H3530 H 0.28007 0.86271 0.8701 0.0
C3531 C 0.2597 0.80028 0.83235 0.0
C3532 C 0.27091 0.81192 0.82081 0.0
C3533 C 0.25407 0.80882 0.84691 0.0
C3534 C 0.26713 0.85537 0.8753 0.0
H3535 H 0.25031 0.83766 0.95747 0.0
H3536 H 0.24365 0.82828 0.92578 0.0
H3537 H 0.27451 0.87503 0.89879 0.0
H3538 H 0.28448 0.8416 0.8151 0.0
H3539 H 0.27391 0.85649 0.83989 0.0
H3540 H 0.2277 0.81622 0.86731 0.0
C3541 C 0.24618 0.84332 0.93063 0.0
C3542 C 0.26397 0.86248 0.89181 0.0
C3543 C 0.25012 0.8487 0.94873 0.0
C3544 C 0.27597 0.83224 0.82384 0.0
C3545 C 0.26997 0.84078 0.83814 0.0
C3546 C 0.23802 0.82912 0.87398 0.0
C3547 C 0.24738 0.85753 0.91883 0.0
C3548 C 0.24824 0.85249 0.8999 0.0
C3549 C 0.25919 0.8292 0.85006 0.0
C3550 C 0.25446 0.83827 0.86637 0.0
H3551 H 0.25819 0.89751 0.94847 0.0
H3552 H 0.25187 0.88812 0.91661 0.0
H3553 H 0.22278 0.82815 0.89669 0.0
H3554 H 0.25563 0.78456 0.83037 0.0
H3555 H 0.24615 0.79938 0.85595 0.0
C3556 C 1.00854 0.57015 0.78043 0.0
C3557 C 0.99032 0.57021 0.77723 0.0
C3558 C 0.02102 0.57555 0.76771 0.0
C3559 C 0.0274 0.59716 0.72468 0.0
H3560 H 0.04969 0.55743 0.7141 0.0
C3561 C 0.02916 0.56438 0.65608 0.0
C3562 C 0.04335 0.5571 0.65198 0.0
C3563 C 0.02966 0.57379 0.67271 0.0
C3564 C 0.04411 0.56905 0.71708 0.0
H3565 H 0.97116 0.57683 0.75854 0.0
H3566 H 0.99268 0.58564 0.73618 0.0
H3567 H 0.037 0.55928 0.74218 0.0
H3568 H 0.06981 0.555 0.6613 0.0
H3569 H 0.07053 0.57122 0.69081 0.0
H3570 H 0.03325 0.60583 0.69886 0.0
C3571 C 0.9975 0.58183 0.74863 0.0
C3572 C 0.03678 0.5701 0.73322 0.0
C3573 C 0.98507 0.57654 0.76137 0.0
C3574 C 0.0587 0.56048 0.6643 0.0
C3575 C 0.0591 0.56973 0.6811 0.0
C3576 C 0.03466 0.59604 0.70849 0.0
C3577 C 0.01551 0.58103 0.75151 0.0
C3578 C 0.02746 0.58348 0.73677 0.0
C3579 C 0.04429 0.57591 0.6856 0.0
C3580 C 0.04216 0.58128 0.7042 0.0
H3581 H 0.0131 0.56561 0.79264 0.0
H3582 H 0.03485 0.57498 0.77038 0.0
H3583 H 0.02071 0.60795 0.72726 0.0
H3584 H 0.0173 0.56207 0.64664 0.0
H3585 H 0.01792 0.57815 0.67583 0.0
C3586 C 0.28608 0.23243 0.47159 0.0
C3587 C 0.30081 0.2288 0.48098 0.0
C3588 C 0.28674 0.2361 0.45379 0.0
C3589 C 0.31332 0.23296 0.41421 0.0
H3590 H 0.28356 0.26192 0.39456 0.0
C3591 C 0.31638 0.26048 0.34315 0.0
C3592 C 0.29925 0.25427 0.33287 0.0
C3593 C 0.31749 0.25744 0.36116 0.0
C3594 C 0.29193 0.25378 0.39986 0.0
H3595 H 0.32809 0.22671 0.47897 0.0
H3596 H 0.32982 0.23427 0.44831 0.0
H3597 H 0.28448 0.25783 0.42596 0.0
H3598 H 0.26983 0.24017 0.33365 0.0
H3599 H 0.27173 0.23556 0.36513 0.0
H3600 H 0.32132 0.22984 0.38792 0.0
C3601 C 0.31732 0.23355 0.45439 0.0
C3602 C 0.29236 0.25121 0.41794 0.0
C3603 C 0.31646 0.2294 0.47215 0.0
C3604 C 0.28327 0.24501 0.34109 0.0
C3605 C 0.28433 0.24246 0.35916 0.0
C3606 C 0.31324 0.23598 0.39618 0.0
C3607 C 0.30237 0.23677 0.44477 0.0
C3608 C 0.30282 0.24046 0.42548 0.0
C3609 C 0.30143 0.24863 0.36943 0.0
C3610 C 0.30233 0.24618 0.38875 0.0
H3611 H 0.27367 0.2318 0.47784 0.0
H3612 H 0.27465 0.23791 0.44705 0.0
H3613 H 0.32135 0.22432 0.41914 0.0
H3614 H 0.32895 0.26767 0.33726 0.0
H3615 H 0.33085 0.26241 0.36875 0.0
C3616 C 0.33931 0.59933 0.54721 0.0
C3617 C 0.3297 0.59474 0.56224 0.0
C3618 C 0.34933 0.58775 0.54078 0.0
C3619 C 0.37255 0.55435 0.55626 0.0
H3620 H 0.37458 0.54095 0.50648 0.0
C3621 C 0.41469 0.50657 0.53474 0.0
C3622 C 0.42655 0.51348 0.52168 0.0
C3623 C 0.40054 0.51413 0.53782 0.0
C3624 C 0.37418 0.54466 0.52042 0.0
H3625 H 0.3224 0.57402 0.58185 0.0
H3626 H 0.33969 0.55384 0.57056 0.0
H3627 H 0.35435 0.55918 0.5155 0.0
H3628 H 0.43241 0.53296 0.50102 0.0
H3629 H 0.40777 0.54639 0.50654 0.0
H3630 H 0.39256 0.54031 0.56129 0.0
C3631 C 0.33978 0.56653 0.56394 0.0
C3632 C 0.36265 0.5551 0.52557 0.0
C3633 C 0.32983 0.57808 0.57036 0.0
C3634 C 0.42336 0.52729 0.51108 0.0
C3635 C 0.40925 0.53495 0.51424 0.0
C3636 C 0.38404 0.54398 0.55114 0.0
C3637 C 0.3499 0.57142 0.54928 0.0
C3638 C 0.36174 0.56005 0.54356 0.0
C3639 C 0.39806 0.52887 0.528 0.0
C3640 C 0.38502 0.53902 0.53318 0.0
H3641 H 0.33941 0.61206 0.54065 0.0
H3642 H 0.35711 0.59194 0.52953 0.0
H3643 H 0.37247 0.5583 0.57021 0.0
H3644 H 0.41671 0.49571 0.5429 0.0
H3645 H 0.39186 0.50883 0.54825 0.0
C3646 C 0.84563 0.9272 0.54867 0.0
C3647 C 0.84124 0.90784 0.54128 0.0
C3648 C 0.8626 0.94109 0.54641 0.0
C3649 C 0.89952 0.95184 0.51673 0.0
H3650 H 0.93047 0.98485 0.55661 0.0
C3651 C 0.97661 0.9914 0.51322 0.0
C3652 C 0.98536 0.00955 0.52294 0.0
C3653 C 0.95813 0.98109 0.51476 0.0
C3654 C 0.92187 0.97605 0.54526 0.0
H3655 H 0.85129 0.88794 0.52574 0.0
H3656 H 0.88076 0.91222 0.52166 0.0
H3657 H 0.89996 0.96261 0.56101 0.0
H3658 H 0.98125 0.03141 0.54146 0.0
H3659 H 0.94869 0.01346 0.54391 0.0
H3660 H 0.92123 0.96518 0.50092 0.0
C3661 C 0.87106 0.91663 0.52919 0.0
C3662 C 0.90442 0.96324 0.54781 0.0
C3663 C 0.85423 0.90269 0.53164 0.0
C3664 C 0.97494 0.01746 0.5338 0.0
C3665 C 0.95632 0.0071 0.53531 0.0
C3666 C 0.91684 0.96476 0.51413 0.0
C3667 C 0.8754 0.93598 0.53648 0.0
C3668 C 0.89326 0.9507 0.53363 0.0
C3669 C 0.94776 0.98864 0.52598 0.0
C3670 C 0.92844 0.97671 0.52843 0.0
H3671 H 0.83595 0.93165 0.55619 0.0
H3672 H 0.86557 0.95592 0.55212 0.0
H3673 H 0.89106 0.94262 0.50549 0.0
H3674 H 0.98416 0.98482 0.50471 0.0
H3675 H 0.95218 0.96682 0.50758 0.0
C3676 C 0.85525 0.07279 0.23847 0.0
C3677 C 0.86948 0.06611 0.24472 0.0
C3678 C 0.84559 0.08031 0.25025 0.0
C3679 C 0.84951 0.10285 0.29559 0.0
H3680 H 0.79854 0.09742 0.28169 0.0
C3681 C 0.81905 0.16258 0.31159 0.0
C3682 C 0.79982 0.15845 0.31034 0.0
C3683 C 0.82657 0.14761 0.3096 0.0
C3684 C 0.8126 0.09879 0.28619 0.0
H3685 H 0.88465 0.0618 0.26823 0.0
H3686 H 0.86752 0.07474 0.28891 0.0
H3687 H 0.81312 0.07727 0.26596 0.0
H3688 H 0.77347 0.13518 0.30819 0.0
H3689 H 0.78663 0.10902 0.30565 0.0
H3690 H 0.84895 0.12433 0.31591 0.0
C3691 C 0.86401 0.07439 0.27487 0.0
C3692 C 0.82108 0.08743 0.27689 0.0
C3693 C 0.87381 0.06698 0.26303 0.0
C3694 C 0.78835 0.13892 0.30908 0.0
C3695 C 0.7959 0.1239 0.30739 0.0
C3696 C 0.84093 0.11402 0.30511 0.0
C3697 C 0.84978 0.08115 0.26859 0.0
C3698 C 0.83989 0.09007 0.28087 0.0
C3699 C 0.81503 0.1281 0.30663 0.0
C3700 C 0.82265 0.11287 0.29993 0.0
H3701 H 0.85165 0.0724 0.22444 0.0
H3702 H 0.83507 0.08586 0.24491 0.0
H3703 H 0.864 0.10516 0.2991 0.0
H3704 H 0.82831 0.17747 0.31312 0.0
H3705 H 0.84135 0.15156 0.30909 0.0
C3706 C 0.74712 0.13617 0.07398 0.0
C3707 C 0.75861 0.12476 0.07198 0.0
C3708 C 0.72794 0.12754 0.07178 0.0
C3709 C 0.69074 0.07912 0.06775 0.0
H3710 H 0.66201 0.10748 0.04528 0.0
C3711 C 0.61366 0.06484 0.02964 0.0
C3712 C 0.60312 0.05108 0.04005 0.0
C3713 C 0.63251 0.07404 0.03435 0.0
C3714 C 0.66983 0.09923 0.05135 0.0
H3715 H 0.75915 0.09543 0.0661 0.0
H3716 H 0.72591 0.08053 0.06143 0.0
H3717 H 0.69504 0.12284 0.05193 0.0
H3718 H 0.60375 0.0364 0.06372 0.0
H3719 H 0.63636 0.05307 0.07245 0.0
H3720 H 0.6658 0.05504 0.06606 0.0
C3721 C 0.7315 0.09601 0.06535 0.0
C3722 C 0.68879 0.10821 0.0555 0.0
C3723 C 0.75062 0.10457 0.06791 0.0
C3724 C 0.61166 0.04677 0.05532 0.0
C3725 C 0.63039 0.05629 0.06027 0.0
C3726 C 0.67187 0.07 0.06327 0.0
C3727 C 0.71988 0.10737 0.06718 0.0
C3728 C 0.69952 0.09823 0.06366 0.0
C3729 C 0.6411 0.07 0.04981 0.0
C3730 C 0.66116 0.07989 0.05493 0.0
H3731 H 0.75295 0.15177 0.07725 0.0
H3732 H 0.71946 0.13672 0.07366 0.0
H3733 H 0.69843 0.07107 0.07434 0.0
H3734 H 0.60738 0.06832 0.01773 0.0
H3735 H 0.64033 0.08417 0.02574 0.0
C3736 C 0.19108 0.46554 0.28319 0.0
C3737 C 0.19558 0.47345 0.26714 0.0
C3738 C 0.203 0.45772 0.29236 0.0
C3739 C 0.2512 0.45756 0.29583 0.0
H3740 H 0.23025 0.40483 0.30841 0.0
C3741 C 0.29045 0.40327 0.2955 0.0
C3742 C 0.28704 0.38915 0.30759 0.0
C3743 C 0.28088 0.41657 0.29545 0.0
C3744 C 0.23632 0.41973 0.3054 0.0
H3745 H 0.21617 0.47968 0.24825 0.0
H3746 H 0.23678 0.46601 0.26412 0.0
H3747 H 0.20983 0.42263 0.29911 0.0
H3748 H 0.27161 0.37838 0.32965 0.0
H3749 H 0.2548 0.40176 0.32958 0.0
H3750 H 0.27768 0.45435 0.30138 0.0
C3751 C 0.22419 0.46601 0.26975 0.0
C3752 C 0.22461 0.42991 0.30005 0.0
C3753 C 0.21227 0.47365 0.26056 0.0
C3754 C 0.27454 0.38918 0.32022 0.0
C3755 C 0.26484 0.40245 0.32011 0.0
C3756 C 0.26289 0.4474 0.3012 0.0
C3757 C 0.21967 0.45789 0.2857 0.0
C3758 C 0.23194 0.44863 0.29457 0.0
C3759 C 0.26763 0.41599 0.30745 0.0
C3760 C 0.25556 0.42812 0.30539 0.0
H3761 H 0.17832 0.46525 0.2886 0.0
H3762 H 0.1992 0.45155 0.30463 0.0
H3763 H 0.25721 0.47214 0.29201 0.0
H3764 H 0.30016 0.40366 0.28574 0.0
H3765 H 0.2832 0.42667 0.2854 0.0
C3766 C 0.24209 0.40292 0.03273 0.0
C3767 C 0.25516 0.40665 0.04747 0.0
C3768 C 0.22957 0.41327 0.03153 0.0
C3769 C 0.22232 0.45859 0.0504 0.0
H3770 H 0.1718 0.43311 0.03039 0.0
C3771 C 0.16599 0.49493 0.05622 0.0
C3772 C 0.15427 0.49366 0.0409 0.0
C3773 C 0.17801 0.48401 0.05681 0.0
C3774 C 0.18591 0.44047 0.03589 0.0
H3775 H 0.26504 0.42395 0.07265 0.0
H3776 H 0.24309 0.44153 0.07078 0.0
H3777 H 0.19327 0.41466 0.03165 0.0
H3778 H 0.14566 0.47948 0.01433 0.0
H3779 H 0.16663 0.46042 0.01535 0.0
H3780 H 0.21487 0.4843 0.05485 0.0
C3781 C 0.24273 0.43101 0.05989 0.0
C3782 C 0.19825 0.42991 0.03657 0.0
C3783 C 0.25528 0.4208 0.06103 0.0
C3784 C 0.15464 0.48095 0.02628 0.0
C3785 C 0.16653 0.46989 0.02691 0.0
C3786 C 0.20995 0.46908 0.04984 0.0
C3787 C 0.22977 0.42753 0.04509 0.0
C3788 C 0.21663 0.4388 0.04391 0.0
C3789 C 0.17847 0.47141 0.04213 0.0
C3790 C 0.19158 0.46015 0.04263 0.0
H3791 H 0.24166 0.39215 0.02204 0.0
H3792 H 0.21994 0.41032 0.01984 0.0
H3793 H 0.23643 0.4661 0.05579 0.0
H3794 H 0.16615 0.50467 0.06767 0.0
H3795 H 0.18689 0.48537 0.0688 0.0
C3796 C 0.86264 0.97375 0.20705 0.0
C3797 C 0.88195 0.98131 0.2105 0.0
C3798 C 0.85327 0.95428 0.2092 0.0
C3799 C 0.85838 0.90657 0.21628 0.0
H3800 H 0.82292 0.90456 0.25063 0.0
C3801 C 0.8353 0.84333 0.26006 0.0
C3802 C 0.81699 0.83744 0.26448 0.0
C3803 C 0.84209 0.8598 0.251 0.0
C3804 C 0.83247 0.90467 0.24078 0.0
H3805 H 0.90669 0.97402 0.21704 0.0
H3806 H 0.89031 0.94006 0.22066 0.0
H3807 H 0.83608 0.93433 0.23684 0.0
H3808 H 0.7913 0.84392 0.26256 0.0
H3809 H 0.80294 0.87225 0.24643 0.0
H3810 H 0.85487 0.8769 0.22034 0.0
C3811 C 0.88243 0.94916 0.21644 0.0
C3812 C 0.83999 0.92176 0.23285 0.0
C3813 C 0.89179 0.96864 0.21447 0.0
C3814 C 0.80557 0.84826 0.2596 0.0
C3815 C 0.81227 0.86454 0.25035 0.0
C3816 C 0.85067 0.88934 0.22407 0.0
C3817 C 0.86305 0.94205 0.2146 0.0
C3818 C 0.85325 0.92299 0.22078 0.0
C3819 C 0.83062 0.87056 0.24597 0.0
C3820 C 0.83788 0.88832 0.23667 0.0
H3821 H 0.85468 0.98312 0.20389 0.0
H3822 H 0.83831 0.94905 0.20751 0.0
H3823 H 0.86855 0.90716 0.20696 0.0
H3824 H 0.84442 0.83526 0.26364 0.0
H3825 H 0.85639 0.86422 0.24814 0.0
C3826 C 0.67906 0.07016 0.76106 0.0
C3827 C 0.68719 0.05634 0.75535 0.0
C3828 C 0.68956 0.08985 0.76407 0.0
C3829 C 0.73296 0.12591 0.7537 0.0
H3830 H 0.72457 0.15655 0.79393 0.0
C3831 C 0.76668 0.20735 0.79409 0.0
C3832 C 0.76989 0.21862 0.77968 0.0
C3833 C 0.75726 0.18734 0.7914 0.0
C3834 C 0.72723 0.14816 0.78275 0.0
H3835 H 0.71273 0.0524 0.74822 0.0
H3836 H 0.7311 0.08672 0.75373 0.0
H3837 H 0.70703 0.12199 0.78876 0.0
H3838 H 0.76569 0.21773 0.75115 0.0
H3839 H 0.74901 0.18302 0.74653 0.0
H3840 H 0.75345 0.152 0.74791 0.0
C3841 C 0.71654 0.08237 0.75564 0.0
C3842 C 0.717 0.1284 0.77965 0.0
C3843 C 0.70602 0.06268 0.75255 0.0
C3844 C 0.76353 0.20947 0.76255 0.0
C3845 C 0.75407 0.18952 0.75987 0.0
C3846 C 0.74324 0.14566 0.75684 0.0
C3847 C 0.70845 0.09617 0.76151 0.0
C3848 C 0.71964 0.11708 0.76502 0.0
C3849 C 0.7508 0.17821 0.77426 0.0
C3850 C 0.7404 0.15705 0.77133 0.0
H3851 H 0.66457 0.06579 0.76325 0.0
H3852 H 0.68282 0.10014 0.76828 0.0
H3853 H 0.73524 0.11765 0.74223 0.0
H3854 H 0.77148 0.21396 0.80746 0.0
H3855 H 0.75518 0.179 0.80275 0.0
loop_
_geom_bond_atom_site_label_1
_geom_bond_atom_site_label_2
_geom_bond_distance
_geom_bond_site_symmetry_2
_ccdc_geom_bond_type
O0 Cd1 2.223 . S
O0 C8 1.315 . S
Cd1 O0 2.223 . S
Cd1 O4 2.297 . S
Cd1 O5 2.439 . S
Cd1 O11 2.240 . S
Cd2 O3 2.240 . S
Cd2 O10 2.223 1_455 S
Cd2 O12 2.297 . S
Cd2 O13 2.439 . S
O3 Cd2 2.240 . S
O3 C8 1.279 . S
O4 Cd1 2.297 . S
O4 C6 1.247 . S
O5 Cd1 2.439 . S
O5 C6 1.208 . S
C6 O4 1.247 . S
C6 O5 1.208 . S
C7 O12 1.247 . S
C7 O13 1.208 . S
C8 O0 1.315 . S
C8 O3 1.279 . S
C9 O10 1.315 . S
C9 O11 1.279 1_655 S
O10 Cd2 2.223 1_655 S
O10 C9 1.315 . S
O11 Cd1 2.240 . S
O11 C9 1.279 1_455 S
O12 Cd2 2.297 . S
O12 C7 1.247 . S
O13 Cd2 2.439 . S
O13 C7 1.208 . S
O14 Cd15 2.223 . S
O14 C22 1.315 . S
Cd15 O14 2.223 . S
Cd15 O18 2.297 1_455 S
Cd15 O19 2.439 . S
Cd15 O25 2.240 . S
Cd16 O17 2.240 . S
Cd16 O24 2.223 . S
Cd16 O26 2.297 . S
Cd16 O27 2.439 . S
O17 Cd16 2.240 . S
O17 C22 1.279 . S
O18 Cd15 2.297 1_655 S
O18 C20 1.247 . S
O19 Cd15 2.439 . S
O19 C20 1.208 1_455 S
C20 O18 1.247 . S
C20 O19 1.208 1_655 S
C21 O26 1.247 . S
C21 O27 1.208 . S
C22 O14 1.315 . S
C22 O17 1.279 . S
C23 O24 1.315 . S
C23 O25 1.279 . S
O24 Cd16 2.223 . S
O24 C23 1.315 . S
O25 Cd15 2.240 . S
O25 C23 1.279 . S
O26 Cd16 2.297 . S
O26 C21 1.247 . S
O27 Cd16 2.439 . S
O27 C21 1.208 . S
O28 Cd29 2.223 . S
O28 C36 1.315 . S
Cd29 O28 2.223 . S
Cd29 O32 2.297 . S
Cd29 O33 2.439 . S
Cd29 O39 2.240 . S
Cd30 O31 2.240 . S
Cd30 O38 2.223 . S
Cd30 O40 2.297 . S
Cd30 O41 2.439 . S
O31 Cd30 2.240 . S
O31 C36 1.279 . S
O32 Cd29 2.297 . S
O32 C34 1.247 . S
O33 Cd29 2.439 . S
O33 C34 1.208 . S
C34 O32 1.247 . S
C34 O33 1.208 . S
C35 O40 1.247 . S
C35 O41 1.208 . S
C36 O28 1.315 . S
C36 O31 1.279 . S
C37 O38 1.315 . S
C37 O39 1.279 . S
O38 Cd30 2.223 . S
O38 C37 1.315 . S
O39 Cd29 2.240 . S
O39 C37 1.279 . S
O40 Cd30 2.297 . S
O40 C35 1.247 . S
O41 Cd30 2.439 . S
O41 C35 1.208 . S
O42 Cd43 2.223 . S
O42 C50 1.315 . S
Cd43 O42 2.223 . S
Cd43 O46 2.297 . S
Cd43 O47 2.439 . S
Cd43 O53 2.240 . S
Cd44 O45 2.240 . S
Cd44 O52 2.223 . S
Cd44 O54 2.297 . S
Cd44 O55 2.439 . S
O45 Cd44 2.240 . S
O45 C50 1.279 . S
O46 Cd43 2.297 . S
O46 C48 1.247 . S
O47 Cd43 2.439 . S
O47 C48 1.208 . S
C48 O46 1.247 . S
C48 O47 1.208 . S
C49 O54 1.247 . S
C49 O55 1.208 . S
C50 O42 1.315 . S
C50 O45 1.279 . S
C51 O52 1.315 . S
C51 O53 1.279 . S
O52 Cd44 2.223 . S
O52 C51 1.315 . S
O53 Cd43 2.240 . S
O53 C51 1.279 . S
O54 Cd44 2.297 . S
O54 C49 1.247 . S
O55 Cd44 2.439 . S
O55 C49 1.208 . S
O56 Cd57 2.223 . S
O56 C64 1.315 . S
Cd57 O56 2.223 . S
Cd57 O60 2.297 . S
Cd57 O61 2.439 . S
Cd57 O67 2.240 . S
Cd58 O59 2.240 . S
Cd58 O66 2.223 . S
Cd58 O68 2.297 . S
Cd58 O69 2.439 . S
O59 Cd58 2.240 . S
O59 C64 1.279 . S
O60 Cd57 2.297 . S
O60 C62 1.247 . S
O61 Cd57 2.439 . S
O61 C62 1.208 . S
C62 O60 1.247 . S
C62 O61 1.208 . S
C63 O68 1.247 . S
C63 O69 1.208 . S
C64 O56 1.315 . S
C64 O59 1.279 . S
C65 O66 1.315 . S
C65 O67 1.279 . S
O66 Cd58 2.223 . S
O66 C65 1.315 . S
O67 Cd57 2.240 . S
O67 C65 1.279 . S
O68 Cd58 2.297 . S
O68 C63 1.247 . S
O69 Cd58 2.439 . S
O69 C63 1.208 . S
O70 Cd71 2.223 . S
O70 C78 1.315 . S
Cd71 O70 2.223 . S
Cd71 O74 2.297 . S
Cd71 O75 2.439 . S
Cd71 O81 2.240 . S
Cd72 O73 2.240 . S
Cd72 O80 2.223 . S
Cd72 O82 2.297 . S
Cd72 O83 2.439 . S
O73 Cd72 2.240 . S
O73 C78 1.279 . S
O74 Cd71 2.297 . S
O74 C76 1.247 . S
O75 Cd71 2.439 . S
O75 C76 1.208 . S
C76 O74 1.247 . S
C76 O75 1.208 . S
C77 O82 1.247 . S
C77 O83 1.208 . S
C78 O70 1.315 . S
C78 O73 1.279 . S
C79 O80 1.315 . S
C79 O81 1.279 . S
O80 Cd72 2.223 . S
O80 C79 1.315 . S
O81 Cd71 2.240 . S
O81 C79 1.279 . S
O82 Cd72 2.297 . S
O82 C77 1.247 . S
O83 Cd72 2.439 . S
O83 C77 1.208 . S
O84 Cd85 2.223 . S
O84 C92 1.315 . S
Cd85 O84 2.223 . S
Cd85 O88 2.297 . S
Cd85 O89 2.439 . S
Cd85 O95 2.240 . S
Cd86 O87 2.240 . S
Cd86 O94 2.223 . S
Cd86 O96 2.297 . S
Cd86 O97 2.439 . S
O87 Cd86 2.240 . S
O87 C92 1.279 . S
O88 Cd85 2.297 . S
O88 C90 1.247 . S
O89 Cd85 2.439 . S
O89 C90 1.208 . S
C90 O88 1.247 . S
C90 O89 1.208 . S
C91 O96 1.247 . S
C91 O97 1.208 . S
C92 O84 1.315 . S
C92 O87 1.279 . S
C93 O94 1.315 . S
C93 O95 1.279 . S
O94 Cd86 2.223 . S
O94 C93 1.315 . S
O95 Cd85 2.240 . S
O95 C93 1.279 . S
O96 Cd86 2.297 . S
O96 C91 1.247 . S
O97 Cd86 2.439 . S
O97 C91 1.208 . S
O98 Cd99 2.223 1_655 S
O98 C106 1.315 . S
Cd99 O98 2.223 1_455 S
Cd99 O102 2.297 . S
Cd99 O103 2.439 . S
Cd99 O109 2.240 1_455 S
Cd100 O101 2.240 1_655 S
Cd100 O108 2.223 . S
Cd100 O110 2.297 . S
Cd100 O111 2.439 1_655 S
O101 Cd100 2.240 1_455 S
O101 C106 1.279 1_455 S
O102 Cd99 2.297 . S
O102 C104 1.247 . S
O103 Cd99 2.439 . S
O103 C104 1.208 . S
C104 O102 1.247 . S
C104 O103 1.208 . S
C105 O110 1.247 1_455 S
C105 O111 1.208 . S
C106 O98 1.315 . S
C106 O101 1.279 1_655 S
C107 O108 1.315 . S
C107 O109 1.279 . S
O108 Cd100 2.223 . S
O108 C107 1.315 . S
O109 Cd99 2.240 1_655 S
O109 C107 1.279 . S
O110 Cd100 2.297 . S
O110 C105 1.247 1_655 S
O111 Cd100 2.439 1_455 S
O111 C105 1.208 . S
O112 Cd113 2.223 . S
O112 C120 1.315 . S
Cd113 O112 2.223 . S
Cd113 O116 2.297 . S
Cd113 O117 2.439 . S
Cd113 O123 2.240 . S
Cd114 O115 2.240 . S
Cd114 O122 2.223 1_545 S
Cd114 O124 2.297 . S
Cd114 O125 2.439 . S
O115 Cd114 2.240 . S
O115 C120 1.279 . S
O116 Cd113 2.297 . S
O116 C118 1.247 . S
O117 Cd113 2.439 . S
O117 C118 1.208 . S
C118 O116 1.247 . S
C118 O117 1.208 . S
C119 O124 1.247 . S
C119 O125 1.208 . S
C120 O112 1.315 . S
C120 O115 1.279 . S
C121 O122 1.315 . S
C121 O123 1.279 1_565 S
O122 Cd114 2.223 1_565 S
O122 C121 1.315 . S
O123 Cd113 2.240 . S
O123 C121 1.279 1_545 S
O124 Cd114 2.297 . S
O124 C119 1.247 . S
O125 Cd114 2.439 . S
O125 C119 1.208 . S
O126 Cd127 2.223 . S
O126 C134 1.315 . S
Cd127 O126 2.223 . S
Cd127 O130 2.297 . S
Cd127 O131 2.439 . S
Cd127 O137 2.240 . S
Cd128 O129 2.240 . S
Cd128 O136 2.223 . S
Cd128 O138 2.297 . S
Cd128 O139 2.439 . S
O129 Cd128 2.240 . S
O129 C134 1.279 . S
O130 Cd127 2.297 . S
O130 C132 1.247 . S
O131 Cd127 2.439 . S
O131 C132 1.208 . S
C132 O130 1.247 . S
C132 O131 1.208 . S
C133 O138 1.247 . S
C133 O139 1.208 . S
C134 O126 1.315 . S
C134 O129 1.279 . S
C135 O136 1.315 . S
C135 O137 1.279 . S
O136 Cd128 2.223 . S
O136 C135 1.315 . S
O137 Cd127 2.240 . S
O137 C135 1.279 . S
O138 Cd128 2.297 . S
O138 C133 1.247 . S
O139 Cd128 2.439 . S
O139 C133 1.208 . S
O140 Cd141 2.223 . S
O140 C148 1.315 . S
Cd141 O140 2.223 . S
Cd141 O144 2.295 . S
Cd141 O145 2.439 1_545 S
Cd141 O151 2.240 . S
Cd142 O143 2.240 . S
Cd142 O150 2.223 . S
Cd142 O152 2.297 . S
Cd142 O153 2.439 . S
O143 Cd142 2.240 . S
O143 C148 1.279 . S
O144 Cd141 2.295 . S
O144 C146 1.249 1_545 S
O145 Cd141 2.439 1_565 S
O145 C146 1.208 . S
C146 O144 1.249 1_565 S
C146 O145 1.208 . S
C147 O152 1.247 . S
C147 O153 1.208 . S
C148 O140 1.315 . S
C148 O143 1.279 . S
C149 O150 1.315 . S
C149 O151 1.279 . S
O150 Cd142 2.223 . S
O150 C149 1.315 . S
O151 Cd141 2.240 . S
O151 C149 1.279 . S
O152 Cd142 2.297 . S
O152 C147 1.247 . S
O153 Cd142 2.439 . S
O153 C147 1.208 . S
O154 Cd155 2.223 . S
O154 C162 1.315 . S
Cd155 O154 2.223 . S
Cd155 O158 2.297 . S
Cd155 O159 2.439 1_554 S
Cd155 O165 2.240 1_554 S
Cd156 O157 2.240 1_556 S
Cd156 O164 2.223 1_556 S
Cd156 O166 2.297 . S
Cd156 O167 2.439 . S
O157 Cd156 2.240 1_554 S
O157 C162 1.279 . S
O158 Cd155 2.297 . S
O158 C160 1.247 . S
O159 Cd155 2.439 1_556 S
O159 C160 1.208 1_556 S
C160 O158 1.247 . S
C160 O159 1.208 1_554 S
C161 O166 1.247 . S
C161 O167 1.208 . S
C162 O154 1.315 . S
C162 O157 1.279 . S
C163 O164 1.315 . S
C163 O165 1.279 1_554 S
O164 Cd156 2.223 1_554 S
O164 C163 1.315 . S
O165 Cd155 2.240 1_556 S
O165 C163 1.279 1_556 S
O166 Cd156 2.297 . S
O166 C161 1.247 . S
O167 Cd156 2.439 . S
O167 C161 1.208 . S
O168 Cd169 2.223 . S
O168 C176 1.315 . S
Cd169 O168 2.223 . S
Cd169 O172 2.297 . S
Cd169 O173 2.439 . S
Cd169 O179 2.240 . S
Cd170 O171 2.240 . S
Cd170 O178 2.223 . S
Cd170 O180 2.297 1_554 S
Cd170 O181 2.439 1_554 S
O171 Cd170 2.240 . S
O171 C176 1.279 . S
O172 Cd169 2.297 . S
O172 C174 1.247 . S
O173 Cd169 2.439 . S
O173 C174 1.208 . S
C174 O172 1.247 . S
C174 O173 1.208 . S
C175 O180 1.247 . S
C175 O181 1.208 . S
C176 O168 1.315 . S
C176 O171 1.279 . S
C177 O178 1.315 . S
C177 O179 1.279 . S
O178 Cd170 2.223 . S
O178 C177 1.315 . S
O179 Cd169 2.240 . S
O179 C177 1.279 . S
O180 Cd170 2.297 1_556 S
O180 C175 1.247 . S
O181 Cd170 2.439 1_556 S
O181 C175 1.208 . S
O182 Cd183 2.223 . S
O182 C190 1.315 . S
Cd183 O182 2.223 . S
Cd183 O186 2.297 . S
Cd183 O187 2.439 . S
Cd183 O193 2.240 . S
Cd184 O185 2.240 . S
Cd184 O192 2.223 . S
Cd184 O194 2.297 . S
Cd184 O195 2.439 . S
O185 Cd184 2.240 . S
O185 C190 1.279 . S
O186 Cd183 2.297 . S
O186 C188 1.247 . S
O187 Cd183 2.439 . S
O187 C188 1.208 . S
C188 O186 1.247 . S
C188 O187 1.208 . S
C189 O194 1.247 . S
C189 O195 1.208 . S
C190 O182 1.315 . S
C190 O185 1.279 . S
C191 O192 1.315 . S
C191 O193 1.279 . S
O192 Cd184 2.223 . S
O192 C191 1.315 . S
O193 Cd183 2.240 . S
O193 C191 1.279 . S
O194 Cd184 2.297 . S
O194 C189 1.247 . S
O195 Cd184 2.439 . S
O195 C189 1.208 . S
O196 Cd197 2.223 . S
O196 C204 1.315 . S
Cd197 O196 2.223 . S
Cd197 O200 2.297 . S
Cd197 O201 2.439 . S
Cd197 O207 2.240 . S
Cd198 O199 2.240 . S
Cd198 O206 2.223 . S
Cd198 O208 2.297 . S
Cd198 O209 2.439 . S
O199 Cd198 2.240 . S
O199 C204 1.279 . S
O200 Cd197 2.297 . S
O200 C202 1.247 . S
O201 Cd197 2.439 . S
O201 C202 1.208 . S
C202 O200 1.247 . S
C202 O201 1.208 . S
C203 O208 1.247 . S
C203 O209 1.208 . S
C204 O196 1.315 . S
C204 O199 1.279 . S
C205 O206 1.315 . S
C205 O207 1.279 . S
O206 Cd198 2.223 . S
O206 C205 1.315 . S
O207 Cd197 2.240 . S
O207 C205 1.279 . S
O208 Cd198 2.297 . S
O208 C203 1.247 . S
O209 Cd198 2.439 . S
O209 C203 1.208 . S
O210 Cd211 2.223 . S
O210 C218 1.315 . S
Cd211 O210 2.223 . S
Cd211 O214 2.297 . S
Cd211 O215 2.439 . S
Cd211 O221 2.240 . S
Cd212 O213 2.240 . S
Cd212 O220 2.223 . S
Cd212 O222 2.297 . S
Cd212 O223 2.439 . S
O213 Cd212 2.240 . S
O213 C218 1.279 . S
O214 Cd211 2.297 . S
O214 C216 1.247 . S
O215 Cd211 2.439 . S
O215 C216 1.208 . S
C216 O214 1.247 . S
C216 O215 1.208 . S
C217 O222 1.247 . S
C217 O223 1.208 . S
C218 O210 1.315 . S
C218 O213 1.279 . S
C219 O220 1.315 . S
C219 O221 1.279 . S
O220 Cd212 2.223 . S
O220 C219 1.315 . S
O221 Cd211 2.240 . S
O221 C219 1.279 . S
O222 Cd212 2.297 . S
O222 C217 1.247 . S
O223 Cd212 2.439 . S
O223 C217 1.208 . S
O224 Cd225 2.223 . S
O224 C232 1.315 . S
Cd225 O224 2.223 . S
Cd225 O228 2.297 . S
Cd225 O229 2.439 . S
Cd225 O235 2.240 1_545 S
Cd226 O227 2.240 . S
Cd226 O234 2.223 1_545 S
Cd226 O236 2.297 1_545 S
Cd226 O237 2.439 . S
O227 Cd226 2.240 . S
O227 C232 1.279 . S
O228 Cd225 2.297 . S
O228 C230 1.247 . S
O229 Cd225 2.439 . S
O229 C230 1.208 . S
C230 O228 1.247 . S
C230 O229 1.208 . S
C231 O236 1.247 1_545 S
C231 O237 1.208 . S
C232 O224 1.315 . S
C232 O227 1.279 . S
C233 O234 1.315 . S
C233 O235 1.279 . S
O234 Cd226 2.223 1_565 S
O234 C233 1.315 . S
O235 Cd225 2.240 1_565 S
O235 C233 1.279 . S
O236 Cd226 2.297 1_565 S
O236 C231 1.247 1_565 S
O237 Cd226 2.439 . S
O237 C231 1.208 . S
O238 Cd239 2.223 . S
O238 C246 1.315 . S
Cd239 O238 2.223 . S
Cd239 O242 2.297 . S
Cd239 O243 2.439 . S
Cd239 O249 2.240 . S
Cd240 O241 2.240 . S
Cd240 O248 2.223 . S
Cd240 O250 2.297 . S
Cd240 O251 2.439 . S
O241 Cd240 2.240 . S
O241 C246 1.279 . S
O242 Cd239 2.297 . S
O242 C244 1.247 . S
O243 Cd239 2.439 . S
O243 C244 1.208 . S
C244 O242 1.247 . S
C244 O243 1.208 . S
C245 O250 1.247 . S
C245 O251 1.208 . S
C246 O238 1.315 . S
C246 O241 1.279 . S
C247 O248 1.315 . S
C247 O249 1.279 . S
O248 Cd240 2.223 . S
O248 C247 1.315 . S
O249 Cd239 2.240 . S
O249 C247 1.279 . S
O250 Cd240 2.297 . S
O250 C245 1.247 . S
O251 Cd240 2.439 . S
O251 C245 1.208 . S
O252 Cd253 2.223 . S
O252 C260 1.315 . S
Cd253 O252 2.223 . S
Cd253 O256 2.297 . S
Cd253 O257 2.439 . S
Cd253 O263 2.240 . S
Cd254 O255 2.240 . S
Cd254 O262 2.223 . S
Cd254 O264 2.297 . S
Cd254 O265 2.439 . S
O255 Cd254 2.240 . S
O255 C260 1.279 . S
O256 Cd253 2.297 . S
O256 C258 1.247 . S
O257 Cd253 2.439 . S
O257 C258 1.208 . S
C258 O256 1.247 . S
C258 O257 1.208 . S
C259 O264 1.247 . S
C259 O265 1.208 . S
C260 O252 1.315 . S
C260 O255 1.279 . S
C261 O262 1.315 . S
C261 O263 1.279 . S
O262 Cd254 2.223 . S
O262 C261 1.315 . S
O263 Cd253 2.240 . S
O263 C261 1.279 . S
O264 Cd254 2.297 . S
O264 C259 1.247 . S
O265 Cd254 2.439 . S
O265 C259 1.208 . S
O266 Cd267 2.223 . S
O266 C274 1.315 . S
Cd267 O266 2.223 . S
Cd267 O270 2.297 1_545 S
Cd267 O271 2.439 1_545 S
Cd267 O277 2.240 . S
Cd268 O269 2.240 . S
Cd268 O276 2.223 . S
Cd268 O278 2.297 . S
Cd268 O279 2.439 . S
O269 Cd268 2.240 . S
O269 C274 1.279 . S
O270 Cd267 2.297 1_565 S
O270 C272 1.247 . S
O271 Cd267 2.439 1_565 S
O271 C272 1.208 . S
C272 O270 1.247 . S
C272 O271 1.208 . S
C273 O278 1.247 . S
C273 O279 1.208 . S
C274 O266 1.315 . S
C274 O269 1.279 . S
C275 O276 1.315 . S
C275 O277 1.279 . S
O276 Cd268 2.223 . S
O276 C275 1.315 . S
O277 Cd267 2.240 . S
O277 C275 1.279 . S
O278 Cd268 2.297 . S
O278 C273 1.247 . S
O279 Cd268 2.439 . S
O279 C273 1.208 . S
O280 Cd281 2.223 . S
O280 C288 1.315 . S
Cd281 O280 2.223 . S
Cd281 O284 2.297 . S
Cd281 O285 2.439 . S
Cd281 O291 2.240 . S
Cd282 O283 2.240 . S
Cd282 O290 2.223 . S
Cd282 O292 2.306 . S
Cd282 O293 2.439 . S
O283 Cd282 2.240 . S
O283 C288 1.279 . S
O284 Cd281 2.297 . S
O284 C286 1.247 . S
O285 Cd281 2.439 . S
O285 C286 1.208 . S
C286 O284 1.247 . S
C286 O285 1.208 . S
C287 O292 1.244 1_556 S
C287 O293 1.208 1_556 S
C288 O280 1.315 . S
C288 O283 1.279 . S
C289 O290 1.315 . S
C289 O291 1.279 . S
O290 Cd282 2.223 . S
O290 C289 1.315 . S
O291 Cd281 2.240 . S
O291 C289 1.279 . S
O292 Cd282 2.306 . S
O292 C287 1.244 1_554 S
O293 Cd282 2.439 . S
O293 C287 1.208 1_554 S
O294 Cd295 2.223 . S
O294 C302 1.315 . S
Cd295 O294 2.223 . S
Cd295 O298 2.297 . S
Cd295 O299 2.439 . S
Cd295 O305 2.240 . S
Cd296 O297 2.240 . S
Cd296 O304 2.223 . S
Cd296 O306 2.297 . S
Cd296 O307 2.439 . S
O297 Cd296 2.240 . S
O297 C302 1.279 . S
O298 Cd295 2.297 . S
O298 C300 1.247 . S
O299 Cd295 2.439 . S
O299 C300 1.208 . S
C300 O298 1.247 . S
C300 O299 1.208 . S
C301 O306 1.247 . S
C301 O307 1.208 . S
C302 O294 1.315 . S
C302 O297 1.279 . S
C303 O304 1.315 . S
C303 O305 1.279 . S
O304 Cd296 2.223 . S
O304 C303 1.315 . S
O305 Cd295 2.240 . S
O305 C303 1.279 . S
O306 Cd296 2.297 . S
O306 C301 1.247 . S
O307 Cd296 2.439 . S
O307 C301 1.208 . S
O308 Cd309 2.223 . S
O308 C316 1.315 . S
Cd309 O308 2.223 . S
Cd309 O312 2.297 . S
Cd309 O313 2.439 . S
Cd309 O319 2.240 . S
Cd310 O311 2.240 . S
Cd310 O318 2.223 . S
Cd310 O320 2.297 . S
Cd310 O321 2.439 . S
O311 Cd310 2.240 . S
O311 C316 1.279 . S
O312 Cd309 2.297 . S
O312 C314 1.247 . S
O313 Cd309 2.439 . S
O313 C314 1.208 . S
C314 O312 1.247 . S
C314 O313 1.208 . S
C315 O320 1.247 . S
C315 O321 1.208 . S
C316 O308 1.315 . S
C316 O311 1.279 . S
C317 O318 1.315 . S
C317 O319 1.279 . S
O318 Cd310 2.223 . S
O318 C317 1.315 . S
O319 Cd309 2.240 . S
O319 C317 1.279 . S
O320 Cd310 2.297 . S
O320 C315 1.247 . S
O321 Cd310 2.439 . S
O321 C315 1.208 . S
O322 Cd323 2.223 . S
O322 C330 1.315 . S
Cd323 O322 2.223 . S
Cd323 O326 2.297 . S
Cd323 O327 2.439 . S
Cd323 O333 2.240 . S
Cd324 O325 2.240 . S
Cd324 O332 2.223 . S
Cd324 O334 2.297 . S
Cd324 O335 2.439 . S
O325 Cd324 2.240 . S
O325 C330 1.279 . S
O326 Cd323 2.297 . S
O326 C328 1.247 . S
O327 Cd323 2.439 . S
O327 C328 1.208 . S
C328 O326 1.247 . S
C328 O327 1.208 . S
C329 O334 1.247 . S
C329 O335 1.208 . S
C330 O322 1.315 . S
C330 O325 1.279 . S
C331 O332 1.315 . S
C331 O333 1.279 . S
O332 Cd324 2.223 . S
O332 C331 1.315 . S
O333 Cd323 2.240 . S
O333 C331 1.279 . S
O334 Cd324 2.297 . S
O334 C329 1.247 . S
O335 Cd324 2.439 . S
O335 C329 1.208 . S
Tb336 C345 2.764 . S
Tb336 O346 2.325 . S
Tb336 O349 2.303 . S
Tb336 O353 2.322 . S
Tb336 O354 2.349 . S
Tb336 O357 2.415 . S
Tb336 O358 2.399 . S
Tb337 O347 2.322 . S
Tb337 O348 2.349 . S
Tb337 O350 2.415 1_455 S
Tb337 O351 2.399 1_455 S
Tb337 O352 2.325 . S
Tb337 O355 2.303 . S
Tb337 C366 2.764 1_455 S
C338 O354 1.261 . S
C338 O355 1.257 . S
C339 C342 1.358 . S
C339 C343 1.332 . S
C339 C345 1.504 . S
C340 C341 1.373 . S
C340 C344 1.308 . S
C341 C340 1.373 . S
C341 C342 1.429 . S
C341 H368 0.932 . S
C342 C339 1.358 . S
C342 C341 1.429 . S
C342 H369 0.930 . S
C343 C339 1.332 . S
C343 C344 1.394 . S
C343 H370 0.932 . S
C344 C340 1.308 . S
C344 C343 1.394 . S
C344 H371 0.929 . S
C345 Tb336 2.764 . S
C345 C339 1.504 . S
C345 O357 1.239 . S
C345 O358 1.263 . S
O346 Tb336 2.325 . S
O346 C356 1.236 . S
O347 Tb337 2.322 . S
O347 C356 1.257 . S
O348 Tb337 2.349 . S
O348 C359 1.261 . S
O349 Tb336 2.303 . S
O349 C359 1.257 . S
O350 Tb337 2.415 1_655 S
O350 C366 1.239 . S
O351 Tb337 2.399 1_655 S
O351 C366 1.263 . S
O352 Tb337 2.325 . S
O352 C367 1.236 . S
O353 Tb336 2.322 . S
O353 C367 1.257 . S
O354 Tb336 2.349 . S
O354 C338 1.261 . S
O355 Tb337 2.303 . S
O355 C338 1.257 . S
C356 O346 1.236 . S
C356 O347 1.257 . S
O357 Tb336 2.415 . S
O357 C345 1.239 . S
O358 Tb336 2.399 . S
O358 C345 1.263 . S
C359 O348 1.261 . S
C359 O349 1.257 . S
C360 C363 1.358 . S
C360 C364 1.332 . S
C360 C366 1.504 . S
C361 C362 1.373 . S
C361 C365 1.308 . S
C362 C361 1.373 . S
C362 C363 1.429 . S
C362 H372 0.932 1_554 S
C363 C360 1.358 . S
C363 C362 1.429 . S
C363 H373 0.930 1_554 S
C364 C360 1.332 . S
C364 C365 1.394 . S
C364 H374 0.932 . S
C365 C361 1.308 . S
C365 C364 1.394 . S
C365 H375 0.929 . S
C366 Tb337 2.764 1_655 S
C366 O350 1.239 . S
C366 O351 1.263 . S
C366 C360 1.504 . S
C367 O352 1.236 . S
C367 O353 1.257 . S
H368 C341 0.932 . S
H369 C342 0.930 . S
H370 C343 0.932 . S
H371 C344 0.929 . S
H372 C362 0.932 1_556 S
H373 C363 0.930 1_556 S
H374 C364 0.932 . S
H375 C365 0.929 . S
Tb376 C385 2.764 . S
Tb376 O386 2.325 . S
Tb376 O389 2.303 . S
Tb376 O393 2.322 . S
Tb376 O394 2.349 . S
Tb376 O397 2.415 . S
Tb376 O398 2.399 . S
Tb377 O387 2.322 . S
Tb377 O388 2.349 . S
Tb377 O390 2.415 . S
Tb377 O391 2.399 . S
Tb377 O392 2.325 . S
Tb377 O395 2.303 . S
Tb377 C406 2.764 . S
C378 O394 1.261 . S
C378 O395 1.257 . S
C379 C382 1.358 . S
C379 C383 1.332 . S
C379 C385 1.504 . S
C380 C381 1.373 . S
C380 C384 1.308 . S
C381 C380 1.373 . S
C381 C382 1.429 . S
C381 H408 0.932 . S
C382 C379 1.358 . S
C382 C381 1.429 . S
C382 H409 0.930 . S
C383 C379 1.332 . S
C383 C384 1.394 . S
C383 H410 0.932 . S
C384 C380 1.308 . S
C384 C383 1.394 . S
C384 H411 0.929 . S
C385 Tb376 2.764 . S
C385 C379 1.504 . S
C385 O397 1.239 . S
C385 O398 1.263 . S
O386 Tb376 2.325 . S
O386 C396 1.236 . S
O387 Tb377 2.322 . S
O387 C396 1.257 . S
O388 Tb377 2.349 . S
O388 C399 1.261 . S
O389 Tb376 2.303 . S
O389 C399 1.257 . S
O390 Tb377 2.415 . S
O390 C406 1.239 . S
O391 Tb377 2.399 . S
O391 C406 1.263 . S
O392 Tb377 2.325 . S
O392 C407 1.236 . S
O393 Tb376 2.322 . S
O393 C407 1.257 . S
O394 Tb376 2.349 . S
O394 C378 1.261 . S
O395 Tb377 2.303 . S
O395 C378 1.257 . S
C396 O386 1.236 . S
C396 O387 1.257 . S
O397 Tb376 2.415 . S
O397 C385 1.239 . S
O398 Tb376 2.399 . S
O398 C385 1.263 . S
C399 O388 1.261 . S
C399 O389 1.257 . S
C400 C403 1.358 . S
C400 C404 1.332 . S
C400 C406 1.504 . S
C401 C402 1.373 . S
C401 C405 1.308 . S
C402 C401 1.373 . S
C402 C403 1.429 . S
C402 H412 0.932 . S
C403 C400 1.358 . S
C403 C402 1.429 . S
C403 H413 0.930 . S
C404 C400 1.332 . S
C404 C405 1.394 . S
C404 H414 0.932 . S
C405 C401 1.308 . S
C405 C404 1.394 . S
C405 H415 0.929 . S
C406 Tb377 2.764 . S
C406 O390 1.239 . S
C406 O391 1.263 . S
C406 C400 1.504 . S
C407 O392 1.236 . S
C407 O393 1.257 . S
H408 C381 0.932 . S
H409 C382 0.930 . S
H410 C383 0.932 . S
H411 C384 0.929 . S
H412 C402 0.932 . S
H413 C403 0.930 . S
H414 C404 0.932 . S
H415 C405 0.929 . S
Tb416 C425 2.764 . S
Tb416 O426 2.325 . S
Tb416 O429 2.303 . S
Tb416 O433 2.322 1_545 S
Tb416 O434 2.349 . S
Tb416 O437 2.415 . S
Tb416 O438 2.399 . S
Tb417 O427 2.322 . S
Tb417 O428 2.349 . S
Tb417 O430 2.415 . S
Tb417 O431 2.399 . S
Tb417 O432 2.325 1_545 S
Tb417 O435 2.303 . S
Tb417 C446 2.764 . S
C418 O434 1.261 . S
C418 O435 1.257 . S
C419 C422 1.358 . S
C419 C423 1.332 . S
C419 C425 1.504 . S
C420 C421 1.373 . S
C420 C424 1.308 . S
C421 C420 1.373 . S
C421 C422 1.429 . S
C421 H448 0.932 . S
C422 C419 1.358 . S
C422 C421 1.429 . S
C422 H449 0.930 . S
C423 C419 1.332 . S
C423 C424 1.394 . S
C423 H450 0.932 . S
C424 C420 1.308 . S
C424 C423 1.394 . S
C424 H451 0.929 . S
C425 Tb416 2.764 . S
C425 C419 1.504 . S
C425 O437 1.239 . S
C425 O438 1.263 . S
O426 Tb416 2.325 . S
O426 C436 1.236 . S
O427 Tb417 2.322 . S
O427 C436 1.257 . S
O428 Tb417 2.349 . S
O428 C439 1.261 . S
O429 Tb416 2.303 . S
O429 C439 1.257 . S
O430 Tb417 2.415 . S
O430 C446 1.239 . S
O431 Tb417 2.399 . S
O431 C446 1.263 . S
O432 Tb417 2.325 1_565 S
O432 C447 1.236 . S
O433 Tb416 2.322 1_565 S
O433 C447 1.257 . S
O434 Tb416 2.349 . S
O434 C418 1.261 . S
O435 Tb417 2.303 . S
O435 C418 1.257 . S
C436 O426 1.236 . S
C436 O427 1.257 . S
O437 Tb416 2.415 . S
O437 C425 1.239 . S
O438 Tb416 2.399 . S
O438 C425 1.263 . S
C439 O428 1.261 . S
C439 O429 1.257 . S
C440 C443 1.358 . S
C440 C444 1.315 1_545 S
C440 C446 1.520 . S
C441 C442 1.373 . S
C441 C445 1.308 . S
C442 C441 1.373 . S
C442 C443 1.429 1_565 S
C442 H452 0.932 . S
C443 C440 1.358 . S
C443 C442 1.429 1_545 S
C443 H453 0.930 . S
C444 C440 1.315 1_565 S
C444 C445 1.394 . S
C444 H454 0.932 . S
C445 C441 1.308 . S
C445 C444 1.394 . S
C445 H455 0.929 . S
C446 Tb417 2.764 . S
C446 O430 1.239 . S
C446 O431 1.263 . S
C446 C440 1.520 . S
C447 O432 1.236 . S
C447 O433 1.257 . S
H448 C421 0.932 . S
H449 C422 0.930 . S
H450 C423 0.932 . S
H451 C424 0.929 . S
H452 C442 0.932 . S
H453 C443 0.930 . S
H454 C444 0.932 . S
H455 C445 0.929 . S
Tb456 C465 2.764 . S
Tb456 O466 2.325 . S
Tb456 O469 2.303 . S
Tb456 O473 2.322 . S
Tb456 O474 2.349 . S
Tb456 O477 2.415 . S
Tb456 O478 2.399 . S
Tb457 O467 2.322 . S
Tb457 O468 2.349 . S
Tb457 O470 2.415 . S
Tb457 O471 2.399 . S
Tb457 O472 2.325 . S
Tb457 O475 2.303 . S
Tb457 C486 2.764 . S
C458 O474 1.261 . S
C458 O475 1.257 . S
C459 C462 1.358 . S
C459 C463 1.332 . S
C459 C465 1.504 . S
C460 C461 1.373 . S
C460 C464 1.308 . S
C461 C460 1.373 . S
C461 C462 1.429 . S
C461 H488 0.932 . S
C462 C459 1.358 . S
C462 C461 1.429 . S
C462 H489 0.930 . S
C463 C459 1.332 . S
C463 C464 1.394 . S
C463 H490 0.932 . S
C464 C460 1.308 . S
C464 C463 1.394 . S
C464 H491 0.929 . S
C465 Tb456 2.764 . S
C465 C459 1.504 . S
C465 O477 1.239 . S
C465 O478 1.263 . S
O466 Tb456 2.325 . S
O466 C476 1.236 . S
O467 Tb457 2.322 . S
O467 C476 1.257 . S
O468 Tb457 2.349 . S
O468 C479 1.261 . S
O469 Tb456 2.303 . S
O469 C479 1.257 . S
O470 Tb457 2.415 . S
O470 C486 1.239 . S
O471 Tb457 2.399 . S
O471 C486 1.263 . S
O472 Tb457 2.325 . S
O472 C487 1.236 . S
O473 Tb456 2.322 . S
O473 C487 1.257 . S
O474 Tb456 2.349 . S
O474 C458 1.261 . S
O475 Tb457 2.303 . S
O475 C458 1.257 . S
C476 O466 1.236 . S
C476 O467 1.257 . S
O477 Tb456 2.415 . S
O477 C465 1.239 . S
O478 Tb456 2.399 . S
O478 C465 1.263 . S
C479 O468 1.261 . S
C479 O469 1.257 . S
C480 C483 1.358 . S
C480 C484 1.332 . S
C480 C486 1.504 . S
C481 C482 1.373 . S
C481 C485 1.308 . S
C482 C481 1.373 . S
C482 C483 1.429 . S
C482 H492 0.932 . S
C483 C480 1.358 . S
C483 C482 1.429 . S
C483 H493 0.930 . S
C484 C480 1.332 . S
C484 C485 1.394 . S
C484 H494 0.932 . S
C485 C481 1.308 . S
C485 C484 1.394 . S
C485 H495 0.929 . S
C486 Tb457 2.764 . S
C486 O470 1.239 . S
C486 O471 1.263 . S
C486 C480 1.504 . S
C487 O472 1.236 . S
C487 O473 1.257 . S
H488 C461 0.932 . S
H489 C462 0.930 . S
H490 C463 0.932 . S
H491 C464 0.929 . S
H492 C482 0.932 . S
H493 C483 0.930 . S
H494 C484 0.932 . S
H495 C485 0.929 . S
Tb496 C505 2.764 . S
Tb496 O506 2.325 . S
Tb496 O509 2.303 . S
Tb496 O513 2.322 . S
Tb496 O514 2.349 . S
Tb496 O517 2.415 . S
Tb496 O518 2.399 . S
Tb497 O507 2.322 1_545 S
Tb497 O508 2.349 . S
Tb497 O510 2.415 . S
Tb497 O511 2.399 . S
Tb497 O512 2.325 . S
Tb497 O515 2.303 . S
Tb497 C526 2.764 . S
C498 O514 1.261 . S
C498 O515 1.257 . S
C499 C502 1.358 . S
C499 C503 1.332 . S
C499 C505 1.504 . S
C500 C501 1.373 . S
C500 C504 1.308 . S
C501 C500 1.373 . S
C501 C502 1.429 . S
C501 H528 0.932 . S
C502 C499 1.358 . S
C502 C501 1.429 . S
C502 H529 0.930 . S
C503 C499 1.332 . S
C503 C504 1.394 . S
C503 H530 0.932 . S
C504 C500 1.308 . S
C504 C503 1.394 . S
C504 H531 0.929 . S
C505 Tb496 2.764 . S
C505 C499 1.504 . S
C505 O517 1.239 . S
C505 O518 1.263 . S
O506 Tb496 2.325 . S
O506 C516 1.236 1_545 S
O507 Tb497 2.322 1_565 S
O507 C516 1.257 . S
O508 Tb497 2.349 . S
O508 C519 1.261 . S
O509 Tb496 2.303 . S
O509 C519 1.257 . S
O510 Tb497 2.415 . S
O510 C526 1.239 . S
O511 Tb497 2.399 . S
O511 C526 1.263 . S
O512 Tb497 2.325 . S
O512 C527 1.236 . S
O513 Tb496 2.322 . S
O513 C527 1.257 . S
O514 Tb496 2.349 . S
O514 C498 1.261 . S
O515 Tb497 2.303 . S
O515 C498 1.257 . S
C516 O506 1.236 1_565 S
C516 O507 1.257 . S
O517 Tb496 2.415 . S
O517 C505 1.239 . S
O518 Tb496 2.399 . S
O518 C505 1.263 . S
C519 O508 1.261 . S
C519 O509 1.257 . S
C520 C523 1.358 . S
C520 C524 1.332 . S
C520 C526 1.504 . S
C521 C522 1.373 . S
C521 C525 1.308 1_455 S
C522 C521 1.373 . S
C522 C523 1.429 . S
C522 H532 0.932 . S
C523 C520 1.358 . S
C523 C522 1.429 . S
C523 H533 0.930 . S
C524 C520 1.332 . S
C524 C525 1.394 1_455 S
C524 H534 0.932 1_455 S
C525 C521 1.308 1_655 S
C525 C524 1.394 1_655 S
C525 H535 0.929 . S
C526 Tb497 2.764 . S
C526 O510 1.239 . S
C526 O511 1.263 . S
C526 C520 1.504 . S
C527 O512 1.236 . S
C527 O513 1.257 . S
H528 C501 0.932 . S
H529 C502 0.930 . S
H530 C503 0.932 . S
H531 C504 0.929 . S
H532 C522 0.932 . S
H533 C523 0.930 . S
H534 C524 0.932 1_655 S
H535 C525 0.929 . S
Tb536 C545 2.764 . S
Tb536 O546 2.325 . S
Tb536 O549 2.303 . S
Tb536 O553 2.322 . S
Tb536 O554 2.349 . S
Tb536 O557 2.415 . S
Tb536 O558 2.399 . S
Tb537 O547 2.322 . S
Tb537 O548 2.349 . S
Tb537 O550 2.415 . S
Tb537 O551 2.399 . S
Tb537 O552 2.325 . S
Tb537 O555 2.303 . S
Tb537 C566 2.764 . S
C538 O554 1.261 . S
C538 O555 1.257 . S
C539 C542 1.358 . S
C539 C543 1.332 . S
C539 C545 1.504 . S
C540 C541 1.373 . S
C540 C544 1.308 . S
C541 C540 1.373 . S
C541 C542 1.429 . S
C541 H568 0.932 . S
C542 C539 1.358 . S
C542 C541 1.429 . S
C542 H569 0.930 . S
C543 C539 1.332 . S
C543 C544 1.394 . S
C543 H570 0.932 . S
C544 C540 1.308 . S
C544 C543 1.394 . S
C544 H571 0.929 . S
C545 Tb536 2.764 . S
C545 C539 1.504 . S
C545 O557 1.239 . S
C545 O558 1.263 . S
O546 Tb536 2.325 . S
O546 C556 1.236 . S
O547 Tb537 2.322 . S
O547 C556 1.257 . S
O548 Tb537 2.349 . S
O548 C559 1.261 . S
O549 Tb536 2.303 . S
O549 C559 1.257 . S
O550 Tb537 2.415 . S
O550 C566 1.239 . S
O551 Tb537 2.399 . S
O551 C566 1.263 . S
O552 Tb537 2.325 . S
O552 C567 1.236 . S
O553 Tb536 2.322 . S
O553 C567 1.257 . S
O554 Tb536 2.349 . S
O554 C538 1.261 . S
O555 Tb537 2.303 . S
O555 C538 1.257 . S
C556 O546 1.236 . S
C556 O547 1.257 . S
O557 Tb536 2.415 . S
O557 C545 1.239 . S
O558 Tb536 2.399 . S
O558 C545 1.263 . S
C559 O548 1.261 . S
C559 O549 1.257 . S
C560 C563 1.358 . S
C560 C564 1.332 . S
C560 C566 1.504 . S
C561 C562 1.373 . S
C561 C565 1.308 . S
C562 C561 1.373 . S
C562 C563 1.429 . S
C562 H572 0.932 . S
C563 C560 1.358 . S
C563 C562 1.429 . S
C563 H573 0.930 . S
C564 C560 1.332 . S
C564 C565 1.394 . S
C564 H574 0.932 . S
C565 C561 1.308 . S
C565 C564 1.394 . S
C565 H575 0.929 . S
C566 Tb537 2.764 . S
C566 O550 1.239 . S
C566 O551 1.263 . S
C566 C560 1.504 . S
C567 O552 1.236 . S
C567 O553 1.257 . S
H568 C541 0.932 . S
H569 C542 0.930 . S
H570 C543 0.932 . S
H571 C544 0.929 . S
H572 C562 0.932 . S
H573 C563 0.930 . S
H574 C564 0.932 . S
H575 C565 0.929 . S
Tb576 C585 2.764 . S
Tb576 O586 2.325 . S
Tb576 O589 2.303 . S
Tb576 O593 2.322 1_545 S
Tb576 O594 2.349 . S
Tb576 O597 2.415 . S
Tb576 O598 2.399 . S
Tb577 O587 2.322 . S
Tb577 O588 2.349 . S
Tb577 O590 2.415 1_554 S
Tb577 O591 2.399 1_554 S
Tb577 O592 2.325 . S
Tb577 O595 2.303 . S
Tb577 C606 2.764 1_554 S
C578 O594 1.261 . S
C578 O595 1.257 . S
C579 C582 1.358 . S
C579 C583 1.332 . S
C579 C585 1.504 . S
C580 C581 1.373 . S
C580 C584 1.308 . S
C581 C580 1.373 . S
C581 C582 1.429 . S
C581 H608 0.932 . S
C582 C579 1.358 . S
C582 C581 1.429 . S
C582 H609 0.930 . S
C583 C579 1.332 . S
C583 C584 1.394 . S
C583 H610 0.932 . S
C584 C580 1.308 . S
C584 C583 1.394 . S
C584 H611 0.929 . S
C585 Tb576 2.764 . S
C585 C579 1.504 . S
C585 O597 1.239 . S
C585 O598 1.263 . S
O586 Tb576 2.325 . S
O586 C596 1.236 . S
O587 Tb577 2.322 . S
O587 C596 1.257 . S
O588 Tb577 2.349 . S
O588 C599 1.261 . S
O589 Tb576 2.303 . S
O589 C599 1.257 . S
O590 Tb577 2.415 1_556 S
O590 C606 1.239 . S
O591 Tb577 2.399 1_556 S
O591 C606 1.263 . S
O592 Tb577 2.325 . S
O592 C607 1.236 1_545 S
O593 Tb576 2.322 1_565 S
O593 C607 1.257 . S
O594 Tb576 2.349 . S
O594 C578 1.261 . S
O595 Tb577 2.303 . S
O595 C578 1.257 . S
C596 O586 1.236 . S
C596 O587 1.257 . S
O597 Tb576 2.415 . S
O597 C585 1.239 . S
O598 Tb576 2.399 . S
O598 C585 1.263 . S
C599 O588 1.261 . S
C599 O589 1.257 . S
C600 C603 1.358 . S
C600 C604 1.332 . S
C600 C606 1.504 . S
C601 C602 1.373 . S
C601 C605 1.308 . S
C602 C601 1.373 . S
C602 C603 1.429 . S
C602 H612 0.932 . S
C603 C600 1.358 . S
C603 C602 1.429 . S
C603 H613 0.930 . S
C604 C600 1.332 . S
C604 C605 1.394 . S
C604 H614 0.932 . S
C605 C601 1.308 . S
C605 C604 1.394 . S
C605 H615 0.929 . S
C606 Tb577 2.764 1_556 S
C606 O590 1.239 . S
C606 O591 1.263 . S
C606 C600 1.504 . S
C607 O592 1.236 1_565 S
C607 O593 1.257 . S
H608 C581 0.932 . S
H609 C582 0.930 . S
H610 C583 0.932 . S
H611 C584 0.929 . S
H612 C602 0.932 . S
H613 C603 0.930 . S
H614 C604 0.932 . S
H615 C605 0.929 . S
Tb616 C625 2.764 . S
Tb616 O626 2.325 . S
Tb616 O629 2.303 . S
Tb616 O633 2.322 . S
Tb616 O634 2.349 . S
Tb616 O637 2.415 . S
Tb616 O638 2.399 . S
Tb617 O627 2.322 . S
Tb617 O628 2.349 . S
Tb617 O630 2.415 . S
Tb617 O631 2.399 . S
Tb617 O632 2.325 . S
Tb617 O635 2.303 . S
Tb617 C646 2.764 . S
C618 O634 1.261 . S
C618 O635 1.257 . S
C619 C622 1.358 . S
C619 C623 1.332 . S
C619 C625 1.504 . S
C620 C621 1.373 . S
C620 C624 1.308 . S
C621 C620 1.373 . S
C621 C622 1.429 . S
C621 H648 0.932 . S
C622 C619 1.358 . S
C622 C621 1.429 . S
C622 H649 0.930 . S
C623 C619 1.332 . S
C623 C624 1.394 . S
C623 H650 0.932 . S
C624 C620 1.308 . S
C624 C623 1.394 . S
C624 H651 0.929 . S
C625 Tb616 2.764 . S
C625 C619 1.504 . S
C625 O637 1.239 . S
C625 O638 1.263 . S
O626 Tb616 2.325 . S
O626 C636 1.236 . S
O627 Tb617 2.322 . S
O627 C636 1.257 . S
O628 Tb617 2.349 . S
O628 C639 1.261 . S
O629 Tb616 2.303 . S
O629 C639 1.257 . S
O630 Tb617 2.415 . S
O630 C646 1.239 . S
O631 Tb617 2.399 . S
O631 C646 1.263 . S
O632 Tb617 2.325 . S
O632 C647 1.236 . S
O633 Tb616 2.322 . S
O633 C647 1.257 . S
O634 Tb616 2.349 . S
O634 C618 1.261 . S
O635 Tb617 2.303 . S
O635 C618 1.257 . S
C636 O626 1.236 . S
C636 O627 1.257 . S
O637 Tb616 2.415 . S
O637 C625 1.239 . S
O638 Tb616 2.399 . S
O638 C625 1.263 . S
C639 O628 1.261 . S
C639 O629 1.257 . S
C640 C643 1.358 . S
C640 C644 1.332 . S
C640 C646 1.504 . S
C641 C642 1.373 . S
C641 C645 1.308 . S
C642 C641 1.373 . S
C642 C643 1.429 . S
C642 H652 0.932 . S
C643 C640 1.358 . S
C643 C642 1.429 . S
C643 H653 0.930 . S
C644 C640 1.332 . S
C644 C645 1.394 . S
C644 H654 0.932 . S
C645 C641 1.308 . S
C645 C644 1.394 . S
C645 H655 0.929 . S
C646 Tb617 2.764 . S
C646 O630 1.239 . S
C646 O631 1.263 . S
C646 C640 1.504 . S
C647 O632 1.236 . S
C647 O633 1.257 . S
H648 C621 0.932 . S
H649 C622 0.930 . S
H650 C623 0.932 . S
H651 C624 0.929 . S
H652 C642 0.932 . S
H653 C643 0.930 . S
H654 C644 0.932 . S
H655 C645 0.929 . S
Tb656 C665 2.764 . S
Tb656 O666 2.325 . S
Tb656 O669 2.303 . S
Tb656 O673 2.322 . S
Tb656 O674 2.349 . S
Tb656 O677 2.415 . S
Tb656 O678 2.399 . S
Tb657 O667 2.322 . S
Tb657 O668 2.349 . S
Tb657 O670 2.415 1_554 S
Tb657 O671 2.399 1_554 S
Tb657 O672 2.325 . S
Tb657 O675 2.303 . S
Tb657 C686 2.764 1_554 S
C658 O674 1.261 . S
C658 O675 1.257 . S
C659 C662 1.358 . S
C659 C663 1.332 . S
C659 C665 1.504 . S
C660 C661 1.373 . S
C660 C664 1.308 . S
C661 C660 1.373 . S
C661 C662 1.429 . S
C661 H688 0.932 . S
C662 C659 1.358 . S
C662 C661 1.429 . S
C662 H689 0.930 . S
C663 C659 1.332 . S
C663 C664 1.394 . S
C663 H690 0.932 . S
C664 C660 1.308 . S
C664 C663 1.394 . S
C664 H691 0.929 . S
C665 Tb656 2.764 . S
C665 C659 1.504 . S
C665 O677 1.239 . S
C665 O678 1.263 . S
O666 Tb656 2.325 . S
O666 C676 1.236 . S
O667 Tb657 2.322 . S
O667 C676 1.257 . S
O668 Tb657 2.349 . S
O668 C679 1.261 . S
O669 Tb656 2.303 . S
O669 C679 1.257 . S
O670 Tb657 2.415 1_556 S
O670 C686 1.239 . S
O671 Tb657 2.399 1_556 S
O671 C686 1.263 . S
O672 Tb657 2.325 . S
O672 C687 1.236 . S
O673 Tb656 2.322 . S
O673 C687 1.257 . S
O674 Tb656 2.349 . S
O674 C658 1.261 . S
O675 Tb657 2.303 . S
O675 C658 1.257 . S
C676 O666 1.236 . S
C676 O667 1.257 . S
O677 Tb656 2.415 . S
O677 C665 1.239 . S
O678 Tb656 2.399 . S
O678 C665 1.263 . S
C679 O668 1.261 . S
C679 O669 1.257 . S
C680 C683 1.358 . S
C680 C684 1.332 . S
C680 C686 1.504 . S
C681 C682 1.373 . S
C681 C685 1.308 . S
C682 C681 1.373 . S
C682 C683 1.429 . S
C682 H692 0.932 . S
C683 C680 1.358 . S
C683 C682 1.429 . S
C683 H693 0.930 . S
C684 C680 1.332 . S
C684 C685 1.394 . S
C684 H694 0.932 . S
C685 C681 1.308 . S
C685 C684 1.394 . S
C685 H695 0.929 . S
C686 Tb657 2.764 1_556 S
C686 O670 1.239 . S
C686 O671 1.263 . S
C686 C680 1.504 . S
C687 O672 1.236 . S
C687 O673 1.257 . S
H688 C661 0.932 . S
H689 C662 0.930 . S
H690 C663 0.932 . S
H691 C664 0.929 . S
H692 C682 0.932 . S
H693 C683 0.930 . S
H694 C684 0.932 . S
H695 C685 0.929 . S
Tb696 C705 2.764 . S
Tb696 O706 2.325 . S
Tb696 O709 2.303 . S
Tb696 O713 2.322 . S
Tb696 O714 2.349 . S
Tb696 O717 2.415 . S
Tb696 O718 2.399 . S
Tb697 O707 2.322 . S
Tb697 O708 2.349 . S
Tb697 O710 2.415 . S
Tb697 O711 2.399 . S
Tb697 O712 2.325 . S
Tb697 O715 2.303 . S
Tb697 C726 2.764 . S
C698 O714 1.261 . S
C698 O715 1.257 . S
C699 C702 1.358 . S
C699 C703 1.332 . S
C699 C705 1.504 . S
C700 C701 1.373 . S
C700 C704 1.308 . S
C701 C700 1.373 . S
C701 C702 1.429 . S
C701 H728 0.932 . S
C702 C699 1.358 . S
C702 C701 1.429 . S
C702 H729 0.930 . S
C703 C699 1.332 . S
C703 C704 1.394 . S
C703 H730 0.932 . S
C704 C700 1.308 . S
C704 C703 1.394 . S
C704 H731 0.929 . S
C705 Tb696 2.764 . S
C705 C699 1.504 . S
C705 O717 1.239 . S
C705 O718 1.263 . S
O706 Tb696 2.325 . S
O706 C716 1.236 . S
O707 Tb697 2.322 . S
O707 C716 1.257 . S
O708 Tb697 2.349 . S
O708 C719 1.261 . S
O709 Tb696 2.303 . S
O709 C719 1.257 . S
O710 Tb697 2.415 . S
O710 C726 1.239 . S
O711 Tb697 2.399 . S
O711 C726 1.263 . S
O712 Tb697 2.325 . S
O712 C727 1.236 . S
O713 Tb696 2.322 . S
O713 C727 1.257 . S
O714 Tb696 2.349 . S
O714 C698 1.261 . S
O715 Tb697 2.303 . S
O715 C698 1.257 . S
C716 O706 1.236 . S
C716 O707 1.257 . S
O717 Tb696 2.415 . S
O717 C705 1.239 . S
O718 Tb696 2.399 . S
O718 C705 1.263 . S
C719 O708 1.261 . S
C719 O709 1.257 . S
C720 C723 1.358 . S
C720 C724 1.332 . S
C720 C726 1.504 . S
C721 C722 1.373 . S
C721 C725 1.308 . S
C722 C721 1.373 . S
C722 C723 1.429 . S
C722 H732 0.932 . S
C723 C720 1.358 . S
C723 C722 1.429 . S
C723 H733 0.930 . S
C724 C720 1.332 . S
C724 C725 1.394 . S
C724 H734 0.932 . S
C725 C721 1.308 . S
C725 C724 1.394 . S
C725 H735 0.929 . S
C726 Tb697 2.764 . S
C726 O710 1.239 . S
C726 O711 1.263 . S
C726 C720 1.504 . S
C727 O712 1.236 . S
C727 O713 1.257 . S
H728 C701 0.932 . S
H729 C702 0.930 . S
H730 C703 0.932 . S
H731 C704 0.929 . S
H732 C722 0.932 . S
H733 C723 0.930 . S
H734 C724 0.932 . S
H735 C725 0.929 . S
Tb736 C745 2.764 . S
Tb736 O746 2.325 . S
Tb736 O749 2.303 . S
Tb736 O753 2.322 . S
Tb736 O754 2.349 . S
Tb736 O757 2.415 . S
Tb736 O758 2.399 . S
Tb737 O747 2.322 . S
Tb737 O748 2.349 1_455 S
Tb737 O750 2.415 . S
Tb737 O751 2.399 . S
Tb737 O752 2.325 . S
Tb737 O755 2.303 . S
Tb737 C766 2.764 . S
C738 O754 1.261 . S
C738 O755 1.257 . S
C739 C742 1.358 . S
C739 C743 1.332 1_455 S
C739 C745 1.504 . S
C740 C741 1.373 . S
C740 C744 1.308 1_455 S
C741 C740 1.373 . S
C741 C742 1.429 . S
C741 H768 0.932 . S
C742 C739 1.358 . S
C742 C741 1.429 . S
C742 H769 0.930 . S
C743 C739 1.332 1_655 S
C743 C744 1.394 . S
C743 H770 0.932 . S
C744 C740 1.308 1_655 S
C744 C743 1.394 . S
C744 H771 0.929 . S
C745 Tb736 2.764 . S
C745 C739 1.504 . S
C745 O757 1.239 . S
C745 O758 1.263 . S
O746 Tb736 2.325 . S
O746 C756 1.236 . S
O747 Tb737 2.322 . S
O747 C756 1.257 . S
O748 Tb737 2.349 1_655 S
O748 C759 1.261 . S
O749 Tb736 2.303 . S
O749 C759 1.257 1_455 S
O750 Tb737 2.415 . S
O750 C766 1.239 . S
O751 Tb737 2.399 . S
O751 C766 1.263 . S
O752 Tb737 2.325 . S
O752 C767 1.236 . S
O753 Tb736 2.322 . S
O753 C767 1.257 . S
O754 Tb736 2.349 . S
O754 C738 1.261 . S
O755 Tb737 2.303 . S
O755 C738 1.257 . S
C756 O746 1.236 . S
C756 O747 1.257 . S
O757 Tb736 2.415 . S
O757 C745 1.239 . S
O758 Tb736 2.399 . S
O758 C745 1.263 . S
C759 O748 1.261 . S
C759 O749 1.257 1_655 S
C760 C763 1.358 . S
C760 C764 1.332 . S
C760 C766 1.504 . S
C761 C762 1.373 . S
C761 C765 1.308 . S
C762 C761 1.373 . S
C762 C763 1.429 . S
C762 H772 0.932 . S
C763 C760 1.358 . S
C763 C762 1.429 . S
C763 H773 0.930 . S
C764 C760 1.332 . S
C764 C765 1.394 . S
C764 H774 0.932 . S
C765 C761 1.308 . S
C765 C764 1.394 . S
C765 H775 0.929 . S
C766 Tb737 2.764 . S
C766 O750 1.239 . S
C766 O751 1.263 . S
C766 C760 1.504 . S
C767 O752 1.236 . S
C767 O753 1.257 . S
H768 C741 0.932 . S
H769 C742 0.930 . S
H770 C743 0.932 . S
H771 C744 0.929 . S
H772 C762 0.932 . S
H773 C763 0.930 . S
H774 C764 0.932 . S
H775 C765 0.929 . S
Tb776 C785 2.764 . S
Tb776 O786 2.325 . S
Tb776 O789 2.303 . S
Tb776 O793 2.322 . S
Tb776 O794 2.349 . S
Tb776 O797 2.415 . S
Tb776 O798 2.399 . S
Tb777 O787 2.322 . S
Tb777 O788 2.349 . S
Tb777 O790 2.415 . S
Tb777 O791 2.399 . S
Tb777 O792 2.325 . S
Tb777 O795 2.303 . S
Tb777 C806 2.764 . S
C778 O794 1.261 . S
C778 O795 1.257 . S
C779 C782 1.358 . S
C779 C783 1.332 . S
C779 C785 1.504 . S
C780 C781 1.373 . S
C780 C784 1.308 . S
C781 C780 1.373 . S
C781 C782 1.429 . S
C781 H808 0.932 . S
C782 C779 1.358 . S
C782 C781 1.429 . S
C782 H809 0.930 . S
C783 C779 1.332 . S
C783 C784 1.394 . S
C783 H810 0.932 . S
C784 C780 1.308 . S
C784 C783 1.394 . S
C784 H811 0.929 . S
C785 Tb776 2.764 . S
C785 C779 1.504 . S
C785 O797 1.239 . S
C785 O798 1.263 . S
O786 Tb776 2.325 . S
O786 C796 1.236 . S
O787 Tb777 2.322 . S
O787 C796 1.257 . S
O788 Tb777 2.349 . S
O788 C799 1.261 . S
O789 Tb776 2.303 . S
O789 C799 1.257 . S
O790 Tb777 2.415 . S
O790 C806 1.239 . S
O791 Tb777 2.399 . S
O791 C806 1.263 . S
O792 Tb777 2.325 . S
O792 C807 1.236 . S
O793 Tb776 2.322 . S
O793 C807 1.257 . S
O794 Tb776 2.349 . S
O794 C778 1.261 . S
O795 Tb777 2.303 . S
O795 C778 1.257 . S
C796 O786 1.236 . S
C796 O787 1.257 . S
O797 Tb776 2.415 . S
O797 C785 1.239 . S
O798 Tb776 2.399 . S
O798 C785 1.263 . S
C799 O788 1.261 . S
C799 O789 1.257 . S
C800 C803 1.358 . S
C800 C804 1.332 . S
C800 C806 1.504 . S
C801 C802 1.373 . S
C801 C805 1.308 . S
C802 C801 1.373 . S
C802 C803 1.429 . S
C802 H812 0.932 . S
C803 C800 1.358 . S
C803 C802 1.429 . S
C803 H813 0.930 . S
C804 C800 1.332 . S
C804 C805 1.394 . S
C804 H814 0.932 . S
C805 C801 1.308 . S
C805 C804 1.394 . S
C805 H815 0.929 . S
C806 Tb777 2.764 . S
C806 O790 1.239 . S
C806 O791 1.263 . S
C806 C800 1.504 . S
C807 O792 1.236 . S
C807 O793 1.257 . S
H808 C781 0.932 . S
H809 C782 0.930 . S
H810 C783 0.932 . S
H811 C784 0.929 . S
H812 C802 0.932 . S
H813 C803 0.930 . S
H814 C804 0.932 . S
H815 C805 0.929 . S
Tb816 C825 2.764 . S
Tb816 O826 2.325 . S
Tb816 O829 2.303 . S
Tb816 O833 2.322 . S
Tb816 O834 2.349 . S
Tb816 O837 2.415 . S
Tb816 O838 2.399 . S
Tb817 O827 2.322 . S
Tb817 O828 2.349 . S
Tb817 O830 2.415 . S
Tb817 O831 2.399 . S
Tb817 O832 2.325 . S
Tb817 O835 2.303 . S
Tb817 C846 2.764 . S
C818 O834 1.261 . S
C818 O835 1.257 . S
C819 C822 1.358 . S
C819 C823 1.332 . S
C819 C825 1.504 . S
C820 C821 1.373 . S
C820 C824 1.308 . S
C821 C820 1.373 . S
C821 C822 1.429 . S
C821 H848 0.932 . S
C822 C819 1.358 . S
C822 C821 1.429 . S
C822 H849 0.930 . S
C823 C819 1.332 . S
C823 C824 1.394 . S
C823 H850 0.932 . S
C824 C820 1.308 . S
C824 C823 1.394 . S
C824 H851 0.929 . S
C825 Tb816 2.764 . S
C825 C819 1.504 . S
C825 O837 1.239 . S
C825 O838 1.263 . S
O826 Tb816 2.325 . S
O826 C836 1.236 . S
O827 Tb817 2.322 . S
O827 C836 1.257 . S
O828 Tb817 2.349 . S
O828 C839 1.261 . S
O829 Tb816 2.303 . S
O829 C839 1.257 . S
O830 Tb817 2.415 . S
O830 C846 1.239 . S
O831 Tb817 2.399 . S
O831 C846 1.263 . S
O832 Tb817 2.325 . S
O832 C847 1.236 . S
O833 Tb816 2.322 . S
O833 C847 1.257 . S
O834 Tb816 2.349 . S
O834 C818 1.261 . S
O835 Tb817 2.303 . S
O835 C818 1.257 . S
C836 O826 1.236 . S
C836 O827 1.257 . S
O837 Tb816 2.415 . S
O837 C825 1.239 . S
O838 Tb816 2.399 . S
O838 C825 1.263 . S
C839 O828 1.261 . S
C839 O829 1.257 . S
C840 C843 1.358 . S
C840 C844 1.332 . S
C840 C846 1.504 . S
C841 C842 1.373 . S
C841 C845 1.308 . S
C842 C841 1.373 . S
C842 C843 1.429 . S
C842 H852 0.932 . S
C843 C840 1.358 . S
C843 C842 1.429 . S
C843 H853 0.930 . S
C844 C840 1.332 . S
C844 C845 1.394 . S
C844 H854 0.932 . S
C845 C841 1.308 . S
C845 C844 1.394 . S
C845 H855 0.929 . S
C846 Tb817 2.764 . S
C846 O830 1.239 . S
C846 O831 1.263 . S
C846 C840 1.504 . S
C847 O832 1.236 . S
C847 O833 1.257 . S
H848 C821 0.932 . S
H849 C822 0.930 . S
H850 C823 0.932 . S
H851 C824 0.929 . S
H852 C842 0.932 . S
H853 C843 0.930 . S
H854 C844 0.932 . S
H855 C845 0.929 . S
Tb856 C865 2.764 . S
Tb856 O866 2.325 . S
Tb856 O869 2.303 . S
Tb856 O873 2.322 . S
Tb856 O874 2.349 . S
Tb856 O877 2.415 . S
Tb856 O878 2.399 . S
Tb857 O867 2.322 . S
Tb857 O868 2.349 . S
Tb857 O870 2.415 . S
Tb857 O871 2.399 . S
Tb857 O872 2.325 . S
Tb857 O875 2.303 . S
Tb857 C886 2.764 . S
C858 O874 1.261 . S
C858 O875 1.257 . S
C859 C862 1.358 . S
C859 C863 1.332 . S
C859 C865 1.504 . S
C860 C861 1.373 . S
C860 C864 1.308 . S
C861 C860 1.373 . S
C861 C862 1.429 . S
C861 H888 0.932 . S
C862 C859 1.358 . S
C862 C861 1.429 . S
C862 H889 0.930 . S
C863 C859 1.332 . S
C863 C864 1.394 . S
C863 H890 0.932 . S
C864 C860 1.308 . S
C864 C863 1.394 . S
C864 H891 0.929 . S
C865 Tb856 2.764 . S
C865 C859 1.504 . S
C865 O877 1.239 . S
C865 O878 1.263 . S
O866 Tb856 2.325 . S
O866 C876 1.236 . S
O867 Tb857 2.322 . S
O867 C876 1.257 . S
O868 Tb857 2.349 . S
O868 C879 1.261 . S
O869 Tb856 2.303 . S
O869 C879 1.257 . S
O870 Tb857 2.415 . S
O870 C886 1.239 . S
O871 Tb857 2.399 . S
O871 C886 1.263 . S
O872 Tb857 2.325 . S
O872 C887 1.236 . S
O873 Tb856 2.322 . S
O873 C887 1.257 . S
O874 Tb856 2.349 . S
O874 C858 1.261 . S
O875 Tb857 2.303 . S
O875 C858 1.257 . S
C876 O866 1.236 . S
C876 O867 1.257 . S
O877 Tb856 2.415 . S
O877 C865 1.239 . S
O878 Tb856 2.399 . S
O878 C865 1.263 . S
C879 O868 1.261 . S
C879 O869 1.257 . S
C880 C883 1.358 . S
C880 C884 1.332 . S
C880 C886 1.504 . S
C881 C882 1.373 . S
C881 C885 1.308 . S
C882 C881 1.373 . S
C882 C883 1.429 . S
C882 H892 0.932 . S
C883 C880 1.358 . S
C883 C882 1.429 . S
C883 H893 0.930 . S
C884 C880 1.332 . S
C884 C885 1.394 . S
C884 H894 0.932 . S
C885 C881 1.308 . S
C885 C884 1.394 . S
C885 H895 0.929 . S
C886 Tb857 2.764 . S
C886 O870 1.239 . S
C886 O871 1.263 . S
C886 C880 1.504 . S
C887 O872 1.236 . S
C887 O873 1.257 . S
H888 C861 0.932 . S
H889 C862 0.930 . S
H890 C863 0.932 . S
H891 C864 0.929 . S
H892 C882 0.932 . S
H893 C883 0.930 . S
H894 C884 0.932 . S
H895 C885 0.929 . S
Tb896 C905 2.764 . S
Tb896 O906 2.325 . S
Tb896 O909 2.303 . S
Tb896 O913 2.322 . S
Tb896 O914 2.349 . S
Tb896 O917 2.415 . S
Tb896 O918 2.399 . S
Tb897 O907 2.322 . S
Tb897 O908 2.349 . S
Tb897 O910 2.415 . S
Tb897 O911 2.399 . S
Tb897 O912 2.325 . S
Tb897 O915 2.303 . S
Tb897 C926 2.764 . S
C898 O914 1.261 . S
C898 O915 1.257 . S
C899 C902 1.358 . S
C899 C903 1.332 . S
C899 C905 1.504 . S
C900 C901 1.373 . S
C900 C904 1.308 . S
C901 C900 1.373 . S
C901 C902 1.429 . S
C901 H928 0.932 . S
C902 C899 1.358 . S
C902 C901 1.429 . S
C902 H929 0.930 . S
C903 C899 1.332 . S
C903 C904 1.394 . S
C903 H930 0.932 . S
C904 C900 1.308 . S
C904 C903 1.394 . S
C904 H931 0.929 . S
C905 Tb896 2.764 . S
C905 C899 1.504 . S
C905 O917 1.239 . S
C905 O918 1.263 . S
O906 Tb896 2.325 . S
O906 C916 1.236 . S
O907 Tb897 2.322 . S
O907 C916 1.257 . S
O908 Tb897 2.349 . S
O908 C919 1.261 . S
O909 Tb896 2.303 . S
O909 C919 1.257 . S
O910 Tb897 2.415 . S
O910 C926 1.239 . S
O911 Tb897 2.399 . S
O911 C926 1.263 . S
O912 Tb897 2.325 . S
O912 C927 1.236 . S
O913 Tb896 2.322 . S
O913 C927 1.257 . S
O914 Tb896 2.349 . S
O914 C898 1.261 . S
O915 Tb897 2.303 . S
O915 C898 1.257 . S
C916 O906 1.236 . S
C916 O907 1.257 . S
O917 Tb896 2.415 . S
O917 C905 1.239 . S
O918 Tb896 2.399 . S
O918 C905 1.263 . S
C919 O908 1.261 . S
C919 O909 1.257 . S
C920 C923 1.358 . S
C920 C924 1.332 . S
C920 C926 1.504 . S
C921 C922 1.373 . S
C921 C925 1.308 . S
C922 C921 1.373 . S
C922 C923 1.429 . S
C922 H932 0.932 . S
C923 C920 1.358 . S
C923 C922 1.429 . S
C923 H933 0.930 . S
C924 C920 1.332 . S
C924 C925 1.394 . S
C924 H934 0.932 . S
C925 C921 1.308 . S
C925 C924 1.394 . S
C925 H935 0.929 . S
C926 Tb897 2.764 . S
C926 O910 1.239 . S
C926 O911 1.263 . S
C926 C920 1.504 . S
C927 O912 1.236 . S
C927 O913 1.257 . S
H928 C901 0.932 . S
H929 C902 0.930 . S
H930 C903 0.932 . S
H931 C904 0.929 . S
H932 C922 0.932 . S
H933 C923 0.930 . S
H934 C924 0.932 . S
H935 C925 0.929 . S
Tb936 C945 2.764 1_455 S
Tb936 O946 2.325 . S
Tb936 O949 2.303 . S
Tb936 O953 2.322 . S
Tb936 O954 2.349 . S
Tb936 O957 2.415 1_455 S
Tb936 O958 2.399 1_455 S
Tb937 O947 2.322 . S
Tb937 O948 2.349 . S
Tb937 O950 2.415 . S
Tb937 O951 2.399 . S
Tb937 O952 2.325 . S
Tb937 O955 2.303 . S
Tb937 C966 2.764 . S
C938 O954 1.261 . S
C938 O955 1.257 . S
C939 C942 1.358 . S
C939 C943 1.332 . S
C939 C945 1.504 . S
C940 C941 1.373 . S
C940 C944 1.308 . S
C941 C940 1.373 . S
C941 C942 1.429 . S
C941 H968 0.932 . S
C942 C939 1.358 . S
C942 C941 1.429 . S
C942 H969 0.930 . S
C943 C939 1.332 . S
C943 C944 1.394 . S
C943 H970 0.932 . S
C944 C940 1.308 . S
C944 C943 1.394 . S
C944 H971 0.929 . S
C945 Tb936 2.764 1_655 S
C945 C939 1.504 . S
C945 O957 1.239 . S
C945 O958 1.263 . S
O946 Tb936 2.325 . S
O946 C956 1.236 . S
O947 Tb937 2.322 . S
O947 C956 1.257 . S
O948 Tb937 2.349 . S
O948 C959 1.261 . S
O949 Tb936 2.303 . S
O949 C959 1.257 . S
O950 Tb937 2.415 . S
O950 C966 1.239 . S
O951 Tb937 2.399 . S
O951 C966 1.263 . S
O952 Tb937 2.325 . S
O952 C967 1.236 . S
O953 Tb936 2.322 . S
O953 C967 1.257 . S
O954 Tb936 2.349 . S
O954 C938 1.261 . S
O955 Tb937 2.303 . S
O955 C938 1.257 . S
C956 O946 1.236 . S
C956 O947 1.257 . S
O957 Tb936 2.415 1_655 S
O957 C945 1.239 . S
O958 Tb936 2.399 1_655 S
O958 C945 1.263 . S
C959 O948 1.261 . S
C959 O949 1.257 . S
C960 C963 1.358 . S
C960 C964 1.332 . S
C960 C966 1.504 . S
C961 C962 1.373 . S
C961 C965 1.308 . S
C962 C961 1.373 . S
C962 C963 1.429 . S
C962 H972 0.932 . S
C963 C960 1.358 . S
C963 C962 1.429 . S
C963 H973 0.930 . S
C964 C960 1.332 . S
C964 C965 1.394 . S
C964 H974 0.932 . S
C965 C961 1.308 . S
C965 C964 1.394 . S
C965 H975 0.929 . S
C966 Tb937 2.764 . S
C966 O950 1.239 . S
C966 O951 1.263 . S
C966 C960 1.504 . S
C967 O952 1.236 . S
C967 O953 1.257 . S
H968 C941 0.932 . S
H969 C942 0.930 . S
H970 C943 0.932 . S
H971 C944 0.929 . S
H972 C962 0.932 . S
H973 C963 0.930 . S
H974 C964 0.932 . S
H975 C965 0.929 . S
C976 C977 1.349 1_455 S
C976 C978 1.327 . S
C976 H1001 0.950 . S
C977 C976 1.349 1_655 S
C977 C993 1.349 . S
C978 C976 1.327 . S
C978 C997 1.429 . S
C978 H1002 0.950 . S
C979 C996 1.574 1_656 S
C979 C998 1.368 1_655 S
C979 H1003 0.949 . S
H980 C984 0.949 . S
C981 C982 1.349 . S
C981 C983 1.327 . S
C981 H1004 0.950 . S
C982 C981 1.349 . S
C982 C994 1.349 . S
C983 C981 1.327 . S
C983 C999 1.429 . S
C983 H1005 0.950 . S
C984 H980 0.949 . S
C984 C992 1.574 . S
C984 C1000 1.368 . S
H985 C993 0.950 . S
H986 C991 0.950 . S
H987 C992 0.949 . S
H988 C994 0.950 . S
H989 C995 0.950 1_556 S
H990 C996 0.949 1_655 S
C991 H986 0.950 . S
C991 C993 1.327 . S
C991 C997 1.429 1_655 S
C992 C984 1.574 . S
C992 H987 0.949 . S
C992 C998 1.368 . S
C993 C977 1.349 . S
C993 H985 0.950 . S
C993 C991 1.327 . S
C994 C982 1.349 . S
C994 H988 0.950 . S
C994 C995 1.327 . S
C995 H989 0.950 1_554 S
C995 C994 1.327 . S
C995 C999 1.429 . S
C996 C979 1.574 1_454 S
C996 H990 0.949 1_455 S
C996 C1000 1.368 1_554 S
C997 C978 1.429 . S
C997 C991 1.429 1_455 S
C997 C998 1.523 . S
C998 C979 1.368 1_455 S
C998 C992 1.368 . S
C998 C997 1.523 . S
C999 C983 1.429 . S
C999 C995 1.429 . S
C999 C1000 1.523 1_554 S
C1000 C984 1.368 . S
C1000 C996 1.368 1_556 S
C1000 C999 1.523 1_556 S
H1001 C976 0.950 . S
H1002 C978 0.950 . S
H1003 C979 0.949 . S
H1004 C981 0.950 . S
H1005 C983 0.950 . S
C1006 C1007 1.349 . S
C1006 C1008 1.327 . S
C1006 H1031 0.950 . S
C1007 C1006 1.349 . S
C1007 C1023 1.349 . S
C1008 C1006 1.327 . S
C1008 C1027 1.429 . S
C1008 H1032 0.950 . S
C1009 C1026 1.574 . S
C1009 C1028 1.368 . S
C1009 H1033 0.949 . S
H1010 C1014 0.949 . S
C1011 C1012 1.349 . S
C1011 C1013 1.327 . S
C1011 H1034 0.950 . S
C1012 C1011 1.349 . S
C1012 C1024 1.349 . S
C1013 C1011 1.327 . S
C1013 C1029 1.429 . S
C1013 H1035 0.950 . S
C1014 H1010 0.949 . S
C1014 C1022 1.574 . S
C1014 C1030 1.368 . S
H1015 C1023 0.950 . S
H1016 C1021 0.950 . S
H1017 C1022 0.949 . S
H1018 C1024 0.950 . S
H1019 C1025 0.950 . S
H1020 C1026 0.949 . S
C1021 H1016 0.950 . S
C1021 C1023 1.327 . S
C1021 C1027 1.429 . S
C1022 C1014 1.574 . S
C1022 H1017 0.949 . S
C1022 C1028 1.368 . S
C1023 C1007 1.349 . S
C1023 H1015 0.950 . S
C1023 C1021 1.327 . S
C1024 C1012 1.349 . S
C1024 H1018 0.950 . S
C1024 C1025 1.327 . S
C1025 H1019 0.950 . S
C1025 C1024 1.327 . S
C1025 C1029 1.429 . S
C1026 C1009 1.574 . S
C1026 H1020 0.949 . S
C1026 C1030 1.368 . S
C1027 C1008 1.429 . S
C1027 C1021 1.429 . S
C1027 C1028 1.523 . S
C1028 C1009 1.368 . S
C1028 C1022 1.368 . S
C1028 C1027 1.523 . S
C1029 C1013 1.429 . S
C1029 C1025 1.429 . S
C1029 C1030 1.523 . S
C1030 C1014 1.368 . S
C1030 C1026 1.368 . S
C1030 C1029 1.523 . S
H1031 C1006 0.950 . S
H1032 C1008 0.950 . S
H1033 C1009 0.949 . S
H1034 C1011 0.950 . S
H1035 C1013 0.950 . S
C1036 C1037 1.349 . S
C1036 C1038 1.327 . S
C1036 H1061 0.950 . S
C1037 C1036 1.349 . S
C1037 C1053 1.349 . S
C1038 C1036 1.327 . S
C1038 C1057 1.429 . S
C1038 H1062 0.950 . S
C1039 C1056 1.574 . S
C1039 C1058 1.368 . S
C1039 H1063 0.949 . S
H1040 C1044 0.949 . S
C1041 C1042 1.349 . S
C1041 C1043 1.327 . S
C1041 H1064 0.950 . S
C1042 C1041 1.349 . S
C1042 C1054 1.349 . S
C1043 C1041 1.327 . S
C1043 C1059 1.429 . S
C1043 H1065 0.950 . S
C1044 H1040 0.949 . S
C1044 C1052 1.574 . S
C1044 C1060 1.368 . S
H1045 C1053 0.950 . S
H1046 C1051 0.950 . S
H1047 C1052 0.949 . S
H1048 C1054 0.950 . S
H1049 C1055 0.950 . S
H1050 C1056 0.949 . S
C1051 H1046 0.950 . S
C1051 C1053 1.327 . S
C1051 C1057 1.429 . S
C1052 C1044 1.574 . S
C1052 H1047 0.949 . S
C1052 C1058 1.368 . S
C1053 C1037 1.349 . S
C1053 H1045 0.950 . S
C1053 C1051 1.327 . S
C1054 C1042 1.349 . S
C1054 H1048 0.950 . S
C1054 C1055 1.327 . S
C1055 H1049 0.950 . S
C1055 C1054 1.327 . S
C1055 C1059 1.429 . S
C1056 C1039 1.574 . S
C1056 H1050 0.949 . S
C1056 C1060 1.368 . S
C1057 C1038 1.429 . S
C1057 C1051 1.429 . S
C1057 C1058 1.523 . S
C1058 C1039 1.368 . S
C1058 C1052 1.368 . S
C1058 C1057 1.523 . S
C1059 C1043 1.429 . S
C1059 C1055 1.429 . S
C1059 C1060 1.523 . S
C1060 C1044 1.368 . S
C1060 C1056 1.368 . S
C1060 C1059 1.523 . S
H1061 C1036 0.950 . S
H1062 C1038 0.950 . S
H1063 C1039 0.949 . S
H1064 C1041 0.950 . S
H1065 C1043 0.950 . S
C1066 C1067 1.349 . S
C1066 C1068 1.327 . S
C1066 H1091 0.950 . S
C1067 C1066 1.349 . S
C1067 C1083 1.349 . S
C1068 C1066 1.327 . S
C1068 C1087 1.429 . S
C1068 H1092 0.950 . S
C1069 C1086 1.574 . S
C1069 C1088 1.368 . S
C1069 H1093 0.949 . S
H1070 C1074 0.949 . S
C1071 C1072 1.349 . S
C1071 C1073 1.327 . S
C1071 H1094 0.950 . S
C1072 C1071 1.349 . S
C1072 C1084 1.349 . S
C1073 C1071 1.327 . S
C1073 C1089 1.429 . S
C1073 H1095 0.950 . S
C1074 H1070 0.949 . S
C1074 C1082 1.574 . S
C1074 C1090 1.368 . S
H1075 C1083 0.950 . S
H1076 C1081 0.950 . S
H1077 C1082 0.949 . S
H1078 C1084 0.950 . S
H1079 C1085 0.950 . S
H1080 C1086 0.949 . S
C1081 H1076 0.950 . S
C1081 C1083 1.327 . S
C1081 C1087 1.429 . S
C1082 C1074 1.574 . S
C1082 H1077 0.949 . S
C1082 C1088 1.368 . S
C1083 C1067 1.349 . S
C1083 H1075 0.950 . S
C1083 C1081 1.327 . S
C1084 C1072 1.349 . S
C1084 H1078 0.950 . S
C1084 C1085 1.327 . S
C1085 H1079 0.950 . S
C1085 C1084 1.327 . S
C1085 C1089 1.429 . S
C1086 C1069 1.574 . S
C1086 H1080 0.949 . S
C1086 C1090 1.368 . S
C1087 C1068 1.429 . S
C1087 C1081 1.429 . S
C1087 C1088 1.523 . S
C1088 C1069 1.368 . S
C1088 C1082 1.368 . S
C1088 C1087 1.523 . S
C1089 C1073 1.429 . S
C1089 C1085 1.429 . S
C1089 C1090 1.523 . S
C1090 C1074 1.368 . S
C1090 C1086 1.368 . S
C1090 C1089 1.523 . S
H1091 C1066 0.950 . S
H1092 C1068 0.950 . S
H1093 C1069 0.949 . S
H1094 C1071 0.950 . S
H1095 C1073 0.950 . S
C1096 C1097 1.349 . S
C1096 C1098 1.327 . S
C1096 H1121 0.950 . S
C1097 C1096 1.349 . S
C1097 C1113 1.349 . S
C1098 C1096 1.327 . S
C1098 C1117 1.429 . S
C1098 H1122 0.950 . S
C1099 C1116 1.574 . S
C1099 C1118 1.368 . S
C1099 H1123 0.949 . S
H1100 C1104 0.949 . S
C1101 C1102 1.349 . S
C1101 C1103 1.327 . S
C1101 H1124 0.950 . S
C1102 C1101 1.349 . S
C1102 C1114 1.349 . S
C1103 C1101 1.327 . S
C1103 C1119 1.429 . S
C1103 H1125 0.950 . S
C1104 H1100 0.949 . S
C1104 C1112 1.574 . S
C1104 C1120 1.368 . S
H1105 C1113 0.950 . S
H1106 C1111 0.950 . S
H1107 C1112 0.949 . S
H1108 C1114 0.950 . S
H1109 C1115 0.950 . S
H1110 C1116 0.949 . S
C1111 H1106 0.950 . S
C1111 C1113 1.327 . S
C1111 C1117 1.429 . S
C1112 C1104 1.574 . S
C1112 H1107 0.949 . S
C1112 C1118 1.368 . S
C1113 C1097 1.349 . S
C1113 H1105 0.950 . S
C1113 C1111 1.327 . S
C1114 C1102 1.349 . S
C1114 H1108 0.950 . S
C1114 C1115 1.327 . S
C1115 H1109 0.950 . S
C1115 C1114 1.327 . S
C1115 C1119 1.429 . S
C1116 C1099 1.574 . S
C1116 H1110 0.949 . S
C1116 C1120 1.368 . S
C1117 C1098 1.429 . S
C1117 C1111 1.429 . S
C1117 C1118 1.523 . S
C1118 C1099 1.368 . S
C1118 C1112 1.368 . S
C1118 C1117 1.523 . S
C1119 C1103 1.429 . S
C1119 C1115 1.429 . S
C1119 C1120 1.523 . S
C1120 C1104 1.368 . S
C1120 C1116 1.368 . S
C1120 C1119 1.523 . S
H1121 C1096 0.950 . S
H1122 C1098 0.950 . S
H1123 C1099 0.949 . S
H1124 C1101 0.950 . S
H1125 C1103 0.950 . S
C1126 C1127 1.349 . S
C1126 C1128 1.327 . S
C1126 H1151 0.950 . S
C1127 C1126 1.349 . S
C1127 C1143 1.349 . S
C1128 C1126 1.327 . S
C1128 C1147 1.429 . S
C1128 H1152 0.950 . S
C1129 C1146 1.574 . S
C1129 C1148 1.368 . S
C1129 H1153 0.949 . S
H1130 C1134 0.949 . S
C1131 C1132 1.349 . S
C1131 C1133 1.327 . S
C1131 H1154 0.950 . S
C1132 C1131 1.349 . S
C1132 C1144 1.349 . S
C1133 C1131 1.327 . S
C1133 C1149 1.429 . S
C1133 H1155 0.950 . S
C1134 H1130 0.949 . S
C1134 C1142 1.574 . S
C1134 C1150 1.368 . S
H1135 C1143 0.950 . S
H1136 C1141 0.950 . S
H1137 C1142 0.949 . S
H1138 C1144 0.950 . S
H1139 C1145 0.950 . S
H1140 C1146 0.949 . S
C1141 H1136 0.950 . S
C1141 C1143 1.327 . S
C1141 C1147 1.429 . S
C1142 C1134 1.574 . S
C1142 H1137 0.949 . S
C1142 C1148 1.368 . S
C1143 C1127 1.349 . S
C1143 H1135 0.950 . S
C1143 C1141 1.327 . S
C1144 C1132 1.349 . S
C1144 H1138 0.950 . S
C1144 C1145 1.327 . S
C1145 H1139 0.950 . S
C1145 C1144 1.327 . S
C1145 C1149 1.429 . S
C1146 C1129 1.574 . S
C1146 H1140 0.949 . S
C1146 C1150 1.368 . S
C1147 C1128 1.429 . S
C1147 C1141 1.429 . S
C1147 C1148 1.523 . S
C1148 C1129 1.368 . S
C1148 C1142 1.368 . S
C1148 C1147 1.523 . S
C1149 C1133 1.429 . S
C1149 C1145 1.429 . S
C1149 C1150 1.523 . S
C1150 C1134 1.368 . S
C1150 C1146 1.368 . S
C1150 C1149 1.523 . S
H1151 C1126 0.950 . S
H1152 C1128 0.950 . S
H1153 C1129 0.949 . S
H1154 C1131 0.950 . S
H1155 C1133 0.950 . S
C1156 C1157 1.349 . S
C1156 C1158 1.327 . S
C1156 H1181 0.950 . S
C1157 C1156 1.349 . S
C1157 C1173 1.349 . S
C1158 C1156 1.327 . S
C1158 C1177 1.429 . S
C1158 H1182 0.950 . S
C1159 C1176 1.574 . S
C1159 C1178 1.368 . S
C1159 H1183 0.949 . S
H1160 C1164 0.949 . S
C1161 C1162 1.349 . S
C1161 C1163 1.327 . S
C1161 H1184 0.950 . S
C1162 C1161 1.349 . S
C1162 C1174 1.349 . S
C1163 C1161 1.327 . S
C1163 C1179 1.429 . S
C1163 H1185 0.950 . S
C1164 H1160 0.949 . S
C1164 C1172 1.574 . S
C1164 C1180 1.368 . S
H1165 C1173 0.950 . S
H1166 C1171 0.950 . S
H1167 C1172 0.949 . S
H1168 C1174 0.950 . S
H1169 C1175 0.950 . S
H1170 C1176 0.949 . S
C1171 H1166 0.950 . S
C1171 C1173 1.327 . S
C1171 C1177 1.429 . S
C1172 C1164 1.574 . S
C1172 H1167 0.949 . S
C1172 C1178 1.368 . S
C1173 C1157 1.349 . S
C1173 H1165 0.950 . S
C1173 C1171 1.327 . S
C1174 C1162 1.349 . S
C1174 H1168 0.950 . S
C1174 C1175 1.327 . S
C1175 H1169 0.950 . S
C1175 C1174 1.327 . S
C1175 C1179 1.429 . S
C1176 C1159 1.574 . S
C1176 H1170 0.949 . S
C1176 C1180 1.368 . S
C1177 C1158 1.429 . S
C1177 C1171 1.429 . S
C1177 C1178 1.523 . S
C1178 C1159 1.368 . S
C1178 C1172 1.368 . S
C1178 C1177 1.523 . S
C1179 C1163 1.429 . S
C1179 C1175 1.429 . S
C1179 C1180 1.523 . S
C1180 C1164 1.368 . S
C1180 C1176 1.368 . S
C1180 C1179 1.523 . S
H1181 C1156 0.950 . S
H1182 C1158 0.950 . S
H1183 C1159 0.949 . S
H1184 C1161 0.950 . S
H1185 C1163 0.950 . S
C1186 C1187 1.349 . S
C1186 C1188 1.327 . S
C1186 H1211 0.950 . S
C1187 C1186 1.349 . S
C1187 C1203 1.349 . S
C1188 C1186 1.327 . S
C1188 C1207 1.429 . S
C1188 H1212 0.950 . S
C1189 C1206 1.574 . S
C1189 C1208 1.368 . S
C1189 H1213 0.949 . S
H1190 C1194 0.949 . S
C1191 C1192 1.349 . S
C1191 C1193 1.327 . S
C1191 H1214 0.950 . S
C1192 C1191 1.349 . S
C1192 C1204 1.349 . S
C1193 C1191 1.327 . S
C1193 C1209 1.429 . S
C1193 H1215 0.950 . S
C1194 H1190 0.949 . S
C1194 C1202 1.574 . S
C1194 C1210 1.368 . S
H1195 C1203 0.950 . S
H1196 C1201 0.950 . S
H1197 C1202 0.949 . S
H1198 C1204 0.950 . S
H1199 C1205 0.950 . S
H1200 C1206 0.949 . S
C1201 H1196 0.950 . S
C1201 C1203 1.327 . S
C1201 C1207 1.429 . S
C1202 C1194 1.574 . S
C1202 H1197 0.949 . S
C1202 C1208 1.368 . S
C1203 C1187 1.349 . S
C1203 H1195 0.950 . S
C1203 C1201 1.327 . S
C1204 C1192 1.349 . S
C1204 H1198 0.950 . S
C1204 C1205 1.327 . S
C1205 H1199 0.950 . S
C1205 C1204 1.327 . S
C1205 C1209 1.429 . S
C1206 C1189 1.574 . S
C1206 H1200 0.949 . S
C1206 C1210 1.368 . S
C1207 C1188 1.429 . S
C1207 C1201 1.429 . S
C1207 C1208 1.523 . S
C1208 C1189 1.368 . S
C1208 C1202 1.368 . S
C1208 C1207 1.523 . S
C1209 C1193 1.429 . S
C1209 C1205 1.429 . S
C1209 C1210 1.523 . S
C1210 C1194 1.368 . S
C1210 C1206 1.368 . S
C1210 C1209 1.523 . S
H1211 C1186 0.950 . S
H1212 C1188 0.950 . S
H1213 C1189 0.949 . S
H1214 C1191 0.950 . S
H1215 C1193 0.950 . S
C1216 C1217 1.349 . S
C1216 C1218 1.327 . S
C1216 H1241 0.950 . S
C1217 C1216 1.349 . S
C1217 C1233 1.349 1_545 S
C1218 C1216 1.327 . S
C1218 C1237 1.429 . S
C1218 H1242 0.950 . S
C1219 C1236 1.574 . S
C1219 C1238 1.368 . S
C1219 H1243 0.923 1_545 S
H1220 C1224 0.949 1_455 S
C1221 C1222 1.349 . S
C1221 C1223 1.327 1_455 S
C1221 H1244 0.950 . S
C1222 C1221 1.349 . S
C1222 C1234 1.349 . S
C1223 C1221 1.327 1_655 S
C1223 C1239 1.429 . S
C1223 H1245 0.950 . S
C1224 H1220 0.949 1_655 S
C1224 C1232 1.574 . S
C1224 C1240 1.368 . S
H1225 C1233 0.950 . S
H1226 C1231 0.950 1_565 S
H1227 C1232 0.949 . S
H1228 C1234 0.950 . S
H1229 C1235 0.950 . S
H1230 C1236 0.949 . S
C1231 H1226 0.950 1_545 S
C1231 C1233 1.327 1_545 S
C1231 C1237 1.429 . S
C1232 C1224 1.574 . S
C1232 H1227 0.949 . S
C1232 C1238 1.368 . S
C1233 C1217 1.349 1_565 S
C1233 H1225 0.950 . S
C1233 C1231 1.327 1_565 S
C1234 C1222 1.349 . S
C1234 H1228 0.950 . S
C1234 C1235 1.327 . S
C1235 H1229 0.950 . S
C1235 C1234 1.327 . S
C1235 C1239 1.429 1_455 S
C1236 C1219 1.574 . S
C1236 H1230 0.949 . S
C1236 C1240 1.368 . S
C1237 C1218 1.429 . S
C1237 C1231 1.429 . S
C1237 C1238 1.523 . S
C1238 C1219 1.368 . S
C1238 C1232 1.368 . S
C1238 C1237 1.523 . S
C1239 C1223 1.429 . S
C1239 C1235 1.429 1_655 S
C1239 C1240 1.523 . S
C1240 C1224 1.368 . S
C1240 C1236 1.368 . S
C1240 C1239 1.523 . S
H1241 C1216 0.950 . S
H1242 C1218 0.950 . S
H1243 C1219 0.923 1_565 S
H1244 C1221 0.950 . S
H1245 C1223 0.950 . S
C1246 C1247 1.349 . S
C1246 C1248 1.327 . S
C1246 H1271 0.950 . S
C1247 C1246 1.349 . S
C1247 C1263 1.349 . S
C1248 C1246 1.327 . S
C1248 C1267 1.429 . S
C1248 H1272 0.950 . S
C1249 C1266 1.574 . S
C1249 C1268 1.368 . S
C1249 H1273 0.949 . S
H1250 C1254 0.949 . S
C1251 C1252 1.349 . S
C1251 C1253 1.327 . S
C1251 H1274 0.950 . S
C1252 C1251 1.349 . S
C1252 C1264 1.349 . S
C1253 C1251 1.327 . S
C1253 C1269 1.429 . S
C1253 H1275 0.950 . S
C1254 H1250 0.949 . S
C1254 C1262 1.574 . S
C1254 C1270 1.368 . S
H1255 C1263 0.950 . S
H1256 C1261 0.950 . S
H1257 C1262 0.949 . S
H1258 C1264 0.950 . S
H1259 C1265 0.950 . S
H1260 C1266 0.949 . S
C1261 H1256 0.950 . S
C1261 C1263 1.327 . S
C1261 C1267 1.429 . S
C1262 C1254 1.574 . S
C1262 H1257 0.949 . S
C1262 C1268 1.368 . S
C1263 C1247 1.349 . S
C1263 H1255 0.950 . S
C1263 C1261 1.327 . S
C1264 C1252 1.349 . S
C1264 H1258 0.950 . S
C1264 C1265 1.327 . S
C1265 H1259 0.950 . S
C1265 C1264 1.327 . S
C1265 C1269 1.429 . S
C1266 C1249 1.574 . S
C1266 H1260 0.949 . S
C1266 C1270 1.368 . S
C1267 C1248 1.429 . S
C1267 C1261 1.429 . S
C1267 C1268 1.523 . S
C1268 C1249 1.368 . S
C1268 C1262 1.368 . S
C1268 C1267 1.523 . S
C1269 C1253 1.429 . S
C1269 C1265 1.429 . S
C1269 C1270 1.523 . S
C1270 C1254 1.368 . S
C1270 C1266 1.368 . S
C1270 C1269 1.523 . S
H1271 C1246 0.950 . S
H1272 C1248 0.950 . S
H1273 C1249 0.949 . S
H1274 C1251 0.950 . S
H1275 C1253 0.950 . S
C1276 C1277 1.349 . S
C1276 C1278 1.327 . S
C1276 H1301 0.950 1_545 S
C1277 C1276 1.349 . S
C1277 C1293 1.349 . S
C1278 C1276 1.327 . S
C1278 C1297 1.429 . S
C1278 H1302 0.950 1_545 S
C1279 C1296 1.574 . S
C1279 C1298 1.368 . S
C1279 H1303 0.949 . S
H1280 C1284 0.968 . S
C1281 C1282 1.349 . S
C1281 C1283 1.327 . S
C1281 H1304 0.950 . S
C1282 C1281 1.349 . S
C1282 C1294 1.316 1_545 S
C1283 C1281 1.327 . S
C1283 C1299 1.429 . S
C1283 H1305 0.950 . S
C1284 H1280 0.968 . S
C1284 C1292 1.579 1_565 S
C1284 C1300 1.342 1_565 S
H1285 C1293 0.950 . S
H1286 C1291 0.950 . S
H1287 C1292 0.955 1_565 S
H1288 C1294 0.975 . S
H1289 C1295 0.981 . S
H1290 C1296 0.949 . S
C1291 H1286 0.950 . S
C1291 C1293 1.327 . S
C1291 C1297 1.429 . S
C1292 C1284 1.579 1_545 S
C1292 H1287 0.955 1_545 S
C1292 C1298 1.364 . S
C1293 C1277 1.349 . S
C1293 H1285 0.950 . S
C1293 C1291 1.327 . S
C1294 C1282 1.316 1_565 S
C1294 H1288 0.975 . S
C1294 C1295 1.328 . S
C1295 H1289 0.981 . S
C1295 C1294 1.328 . S
C1295 C1299 1.407 1_565 S
C1296 C1279 1.574 . S
C1296 H1290 0.949 . S
C1296 C1300 1.368 . S
C1297 C1278 1.429 . S
C1297 C1291 1.429 . S
C1297 C1298 1.523 . S
C1298 C1279 1.368 . S
C1298 C1292 1.364 . S
C1298 C1297 1.523 . S
C1299 C1283 1.429 . S
C1299 C1295 1.407 1_545 S
C1299 C1300 1.523 . S
C1300 C1284 1.342 1_545 S
C1300 C1296 1.368 . S
C1300 C1299 1.523 . S
H1301 C1276 0.950 1_565 S
H1302 C1278 0.950 1_565 S
H1303 C1279 0.949 . S
H1304 C1281 0.950 . S
H1305 C1283 0.950 . S
C1306 C1307 1.349 . S
C1306 C1308 1.327 . S
C1306 H1331 0.950 . S
C1307 C1306 1.349 . S
C1307 C1323 1.349 . S
C1308 C1306 1.327 . S
C1308 C1327 1.429 . S
C1308 H1332 0.950 . S
C1309 C1326 1.574 . S
C1309 C1328 1.368 . S
C1309 H1333 0.949 . S
H1310 C1314 0.949 . S
C1311 C1312 1.349 . S
C1311 C1313 1.327 . S
C1311 H1334 0.950 . S
C1312 C1311 1.349 . S
C1312 C1324 1.349 . S
C1313 C1311 1.327 . S
C1313 C1329 1.429 . S
C1313 H1335 0.950 . S
C1314 H1310 0.949 . S
C1314 C1322 1.574 . S
C1314 C1330 1.368 . S
H1315 C1323 0.950 . S
H1316 C1321 0.950 . S
H1317 C1322 0.949 . S
H1318 C1324 0.950 . S
H1319 C1325 0.950 . S
H1320 C1326 0.949 . S
C1321 H1316 0.950 . S
C1321 C1323 1.327 . S
C1321 C1327 1.429 . S
C1322 C1314 1.574 . S
C1322 H1317 0.949 . S
C1322 C1328 1.368 . S
C1323 C1307 1.349 . S
C1323 H1315 0.950 . S
C1323 C1321 1.327 . S
C1324 C1312 1.349 . S
C1324 H1318 0.950 . S
C1324 C1325 1.327 . S
C1325 H1319 0.950 . S
C1325 C1324 1.327 . S
C1325 C1329 1.429 . S
C1326 C1309 1.574 . S
C1326 H1320 0.949 . S
C1326 C1330 1.368 . S
C1327 C1308 1.429 . S
C1327 C1321 1.429 . S
C1327 C1328 1.523 . S
C1328 C1309 1.368 . S
C1328 C1322 1.368 . S
C1328 C1327 1.523 . S
C1329 C1313 1.429 . S
C1329 C1325 1.429 . S
C1329 C1330 1.523 . S
C1330 C1314 1.368 . S
C1330 C1326 1.368 . S
C1330 C1329 1.523 . S
H1331 C1306 0.950 . S
H1332 C1308 0.950 . S
H1333 C1309 0.949 . S
H1334 C1311 0.950 . S
H1335 C1313 0.950 . S
C1336 C1337 1.349 1_565 S
C1336 C1338 1.327 . S
C1336 H1361 0.950 . S
C1337 C1336 1.349 1_545 S
C1337 C1353 1.349 . S
C1338 C1336 1.327 . S
C1338 C1357 1.429 1_565 S
C1338 H1362 0.950 . S
C1339 C1356 1.574 . S
C1339 C1358 1.368 . S
C1339 H1363 0.949 . S
H1340 C1344 0.949 . S
C1341 C1342 1.349 1_655 S
C1341 C1343 1.327 . S
C1341 H1364 0.950 1_655 S
C1342 C1341 1.349 1_455 S
C1342 C1354 1.349 1_545 S
C1343 C1341 1.327 . S
C1343 C1359 1.429 . S
C1343 H1365 0.950 . S
C1344 H1340 0.949 . S
C1344 C1352 1.574 . S
C1344 C1360 1.368 1_565 S
H1345 C1353 0.950 . S
H1346 C1351 0.950 . S
H1347 C1352 0.949 . S
H1348 C1354 0.950 . S
H1349 C1355 0.950 . S
H1350 C1356 0.949 . S
C1351 H1346 0.950 . S
C1351 C1353 1.327 . S
C1351 C1357 1.429 . S
C1352 C1344 1.574 . S
C1352 H1347 0.949 . S
C1352 C1358 1.368 1_565 S
C1353 C1337 1.349 . S
C1353 H1345 0.950 . S
C1353 C1351 1.327 . S
C1354 C1342 1.349 1_565 S
C1354 H1348 0.950 . S
C1354 C1355 1.327 1_455 S
C1355 H1349 0.950 . S
C1355 C1354 1.327 1_655 S
C1355 C1359 1.429 1_565 S
C1356 C1339 1.574 . S
C1356 H1350 0.949 . S
C1356 C1360 1.368 . S
C1357 C1338 1.429 1_545 S
C1357 C1351 1.429 . S
C1357 C1358 1.523 . S
C1358 C1339 1.368 . S
C1358 C1352 1.368 1_545 S
C1358 C1357 1.523 . S
C1359 C1343 1.429 . S
C1359 C1355 1.429 1_545 S
C1359 C1360 1.523 . S
C1360 C1344 1.368 1_545 S
C1360 C1356 1.368 . S
C1360 C1359 1.523 . S
H1361 C1336 0.950 . S
H1362 C1338 0.950 . S
H1363 C1339 0.949 . S
H1364 C1341 0.950 1_455 S
H1365 C1343 0.950 . S
C1366 C1367 1.349 . S
C1366 C1368 1.327 . S
C1366 H1391 0.950 . S
C1367 C1366 1.349 . S
C1367 C1383 1.349 . S
C1368 C1366 1.327 . S
C1368 C1387 1.429 . S
C1368 H1392 0.950 . S
C1369 C1386 1.574 . S
C1369 C1388 1.368 . S
C1369 H1393 0.949 . S
H1370 C1374 0.949 . S
C1371 C1372 1.349 . S
C1371 C1373 1.327 . S
C1371 H1394 0.950 . S
C1372 C1371 1.349 . S
C1372 C1384 1.349 . S
C1373 C1371 1.327 . S
C1373 C1389 1.429 . S
C1373 H1395 0.950 . S
C1374 H1370 0.949 . S
C1374 C1382 1.574 . S
C1374 C1390 1.368 . S
H1375 C1383 0.950 . S
H1376 C1381 0.950 . S
H1377 C1382 0.949 . S
H1378 C1384 0.950 . S
H1379 C1385 0.950 . S
H1380 C1386 0.949 . S
C1381 H1376 0.950 . S
C1381 C1383 1.327 . S
C1381 C1387 1.429 . S
C1382 C1374 1.574 . S
C1382 H1377 0.949 . S
C1382 C1388 1.368 . S
C1383 C1367 1.349 . S
C1383 H1375 0.950 . S
C1383 C1381 1.327 . S
C1384 C1372 1.349 . S
C1384 H1378 0.950 . S
C1384 C1385 1.327 . S
C1385 H1379 0.950 . S
C1385 C1384 1.327 . S
C1385 C1389 1.429 . S
C1386 C1369 1.574 . S
C1386 H1380 0.949 . S
C1386 C1390 1.368 . S
C1387 C1368 1.429 . S
C1387 C1381 1.429 . S
C1387 C1388 1.523 . S
C1388 C1369 1.368 . S
C1388 C1382 1.368 . S
C1388 C1387 1.523 . S
C1389 C1373 1.429 . S
C1389 C1385 1.429 . S
C1389 C1390 1.523 . S
C1390 C1374 1.368 . S
C1390 C1386 1.368 . S
C1390 C1389 1.523 . S
H1391 C1366 0.950 . S
H1392 C1368 0.950 . S
H1393 C1369 0.949 . S
H1394 C1371 0.950 . S
H1395 C1373 0.950 . S
C1396 C1397 1.349 . S
C1396 C1398 1.327 . S
C1396 H1421 0.950 . S
C1397 C1396 1.349 . S
C1397 C1413 1.349 . S
C1398 C1396 1.327 . S
C1398 C1417 1.429 . S
C1398 H1422 0.950 . S
C1399 C1416 1.574 . S
C1399 C1418 1.368 . S
C1399 H1423 0.949 . S
H1400 C1404 0.949 . S
C1401 C1402 1.349 . S
C1401 C1403 1.327 . S
C1401 H1424 0.950 . S
C1402 C1401 1.349 . S
C1402 C1414 1.349 . S
C1403 C1401 1.327 . S
C1403 C1419 1.429 . S
C1403 H1425 0.950 . S
C1404 H1400 0.949 . S
C1404 C1412 1.574 . S
C1404 C1420 1.368 . S
H1405 C1413 0.950 . S
H1406 C1411 0.950 . S
H1407 C1412 0.949 . S
H1408 C1414 0.950 . S
H1409 C1415 0.950 . S
H1410 C1416 0.949 . S
C1411 H1406 0.950 . S
C1411 C1413 1.327 . S
C1411 C1417 1.429 . S
C1412 C1404 1.574 . S
C1412 H1407 0.949 . S
C1412 C1418 1.368 . S
C1413 C1397 1.349 . S
C1413 H1405 0.950 . S
C1413 C1411 1.327 . S
C1414 C1402 1.349 . S
C1414 H1408 0.950 . S
C1414 C1415 1.327 . S
C1415 H1409 0.950 . S
C1415 C1414 1.327 . S
C1415 C1419 1.429 . S
C1416 C1399 1.574 . S
C1416 H1410 0.949 . S
C1416 C1420 1.368 . S
C1417 C1398 1.429 . S
C1417 C1411 1.429 . S
C1417 C1418 1.523 . S
C1418 C1399 1.368 . S
C1418 C1412 1.368 . S
C1418 C1417 1.523 . S
C1419 C1403 1.429 . S
C1419 C1415 1.429 . S
C1419 C1420 1.523 . S
C1420 C1404 1.368 . S
C1420 C1416 1.368 . S
C1420 C1419 1.523 . S
H1421 C1396 0.950 . S
H1422 C1398 0.950 . S
H1423 C1399 0.949 . S
H1424 C1401 0.950 . S
H1425 C1403 0.950 . S
C1426 C1427 1.349 . S
C1426 C1428 1.327 . S
C1426 H1451 0.950 . S
C1427 C1426 1.349 . S
C1427 C1443 1.349 . S
C1428 C1426 1.327 . S
C1428 C1447 1.429 . S
C1428 H1452 0.950 . S
C1429 C1446 1.574 . S
C1429 C1448 1.368 . S
C1429 H1453 0.949 . S
H1430 C1434 0.949 . S
C1431 C1432 1.349 . S
C1431 C1433 1.327 . S
C1431 H1454 0.950 . S
C1432 C1431 1.349 . S
C1432 C1444 1.349 . S
C1433 C1431 1.327 . S
C1433 C1449 1.429 . S
C1433 H1455 0.950 . S
C1434 H1430 0.949 . S
C1434 C1442 1.574 . S
C1434 C1450 1.368 . S
H1435 C1443 0.950 . S
H1436 C1441 0.950 . S
H1437 C1442 0.949 . S
H1438 C1444 0.950 . S
H1439 C1445 0.950 . S
H1440 C1446 0.949 . S
C1441 H1436 0.950 . S
C1441 C1443 1.327 . S
C1441 C1447 1.429 . S
C1442 C1434 1.574 . S
C1442 H1437 0.949 . S
C1442 C1448 1.368 . S
C1443 C1427 1.349 . S
C1443 H1435 0.950 . S
C1443 C1441 1.327 . S
C1444 C1432 1.349 . S
C1444 H1438 0.950 . S
C1444 C1445 1.327 . S
C1445 H1439 0.950 . S
C1445 C1444 1.327 . S
C1445 C1449 1.429 . S
C1446 C1429 1.574 . S
C1446 H1440 0.949 . S
C1446 C1450 1.368 . S
C1447 C1428 1.429 . S
C1447 C1441 1.429 . S
C1447 C1448 1.523 . S
C1448 C1429 1.368 . S
C1448 C1442 1.368 . S
C1448 C1447 1.523 . S
C1449 C1433 1.429 . S
C1449 C1445 1.429 . S
C1449 C1450 1.523 . S
C1450 C1434 1.368 . S
C1450 C1446 1.368 . S
C1450 C1449 1.523 . S
H1451 C1426 0.950 . S
H1452 C1428 0.950 . S
H1453 C1429 0.949 . S
H1454 C1431 0.950 . S
H1455 C1433 0.950 . S
C1456 C1457 1.381 . S
C1456 C1458 1.349 . S
C1456 H1481 0.896 1_554 S
C1457 C1456 1.381 . S
C1457 C1473 1.349 . S
C1458 C1456 1.349 . S
C1458 C1477 1.429 . S
C1458 H1482 0.927 1_554 S
C1459 C1476 1.574 . S
C1459 C1478 1.368 . S
C1459 H1483 0.949 . S
H1460 C1464 0.949 . S
C1461 C1462 1.349 . S
C1461 C1463 1.327 . S
C1461 H1484 0.950 . S
C1462 C1461 1.349 . S
C1462 C1474 1.349 . S
C1463 C1461 1.327 . S
C1463 C1479 1.429 1_545 S
C1463 H1485 0.950 . S
C1464 H1460 0.949 . S
C1464 C1472 1.574 . S
C1464 C1480 1.368 . S
H1465 C1473 0.950 . S
H1466 C1471 0.950 . S
H1467 C1472 0.949 . S
H1468 C1474 0.950 . S
H1469 C1475 0.950 . S
H1470 C1476 0.949 . S
C1471 H1466 0.950 . S
C1471 C1473 1.327 . S
C1471 C1477 1.429 . S
C1472 C1464 1.574 . S
C1472 H1467 0.949 . S
C1472 C1478 1.368 . S
C1473 C1457 1.349 . S
C1473 H1465 0.950 . S
C1473 C1471 1.327 . S
C1474 C1462 1.349 . S
C1474 H1468 0.950 . S
C1474 C1475 1.327 1_545 S
C1475 H1469 0.950 . S
C1475 C1474 1.327 1_565 S
C1475 C1479 1.429 . S
C1476 C1459 1.574 . S
C1476 H1470 0.949 . S
C1476 C1480 1.368 . S
C1477 C1458 1.429 . S
C1477 C1471 1.429 . S
C1477 C1478 1.523 . S
C1478 C1459 1.368 . S
C1478 C1472 1.368 . S
C1478 C1477 1.523 . S
C1479 C1463 1.429 1_565 S
C1479 C1475 1.429 . S
C1479 C1480 1.523 . S
C1480 C1464 1.368 . S
C1480 C1476 1.368 . S
C1480 C1479 1.523 . S
H1481 C1456 0.896 1_556 S
H1482 C1458 0.927 1_556 S
H1483 C1459 0.949 . S
H1484 C1461 0.950 . S
H1485 C1463 0.950 . S
C1486 C1487 1.349 . S
C1486 C1488 1.327 . S
C1486 H1511 0.950 . S
C1487 C1486 1.349 . S
C1487 C1503 1.349 . S
C1488 C1486 1.327 . S
C1488 C1507 1.429 . S
C1488 H1512 0.950 . S
C1489 C1506 1.574 . S
C1489 C1508 1.368 . S
C1489 H1513 0.949 . S
H1490 C1494 0.949 . S
C1491 C1492 1.349 . S
C1491 C1493 1.327 . S
C1491 H1514 0.950 . S
C1492 C1491 1.349 . S
C1492 C1504 1.349 . S
C1493 C1491 1.327 . S
C1493 C1509 1.429 . S
C1493 H1515 0.950 . S
C1494 H1490 0.949 . S
C1494 C1502 1.574 . S
C1494 C1510 1.368 . S
H1495 C1503 0.950 . S
H1496 C1501 0.950 . S
H1497 C1502 0.949 . S
H1498 C1504 0.950 . S
H1499 C1505 0.950 . S
H1500 C1506 0.949 . S
C1501 H1496 0.950 . S
C1501 C1503 1.327 . S
C1501 C1507 1.429 . S
C1502 C1494 1.574 . S
C1502 H1497 0.949 . S
C1502 C1508 1.368 . S
C1503 C1487 1.349 . S
C1503 H1495 0.950 . S
C1503 C1501 1.327 . S
C1504 C1492 1.349 . S
C1504 H1498 0.950 . S
C1504 C1505 1.327 . S
C1505 H1499 0.950 . S
C1505 C1504 1.327 . S
C1505 C1509 1.429 . S
C1506 C1489 1.574 . S
C1506 H1500 0.949 . S
C1506 C1510 1.368 . S
C1507 C1488 1.429 . S
C1507 C1501 1.429 . S
C1507 C1508 1.523 . S
C1508 C1489 1.368 . S
C1508 C1502 1.368 . S
C1508 C1507 1.523 . S
C1509 C1493 1.429 . S
C1509 C1505 1.429 . S
C1509 C1510 1.523 . S
C1510 C1494 1.368 . S
C1510 C1506 1.368 . S
C1510 C1509 1.523 . S
H1511 C1486 0.950 . S
H1512 C1488 0.950 . S
H1513 C1489 0.949 . S
H1514 C1491 0.950 . S
H1515 C1493 0.950 . S
C1516 C1517 1.349 . S
C1516 C1518 1.327 . S
C1516 H1541 0.950 . S
C1517 C1516 1.349 . S
C1517 C1533 1.349 . S
C1518 C1516 1.327 . S
C1518 C1537 1.429 . S
C1518 H1542 0.950 . S
C1519 C1536 1.574 . S
C1519 C1538 1.368 . S
C1519 H1543 0.949 . S
H1520 C1524 0.949 . S
C1521 C1522 1.349 . S
C1521 C1523 1.327 . S
C1521 H1544 0.950 . S
C1522 C1521 1.349 . S
C1522 C1534 1.349 . S
C1523 C1521 1.327 . S
C1523 C1539 1.429 . S
C1523 H1545 0.950 . S
C1524 H1520 0.949 . S
C1524 C1532 1.574 . S
C1524 C1540 1.368 . S
H1525 C1533 0.950 . S
H1526 C1531 0.950 . S
H1527 C1532 0.949 . S
H1528 C1534 0.950 . S
H1529 C1535 0.950 . S
H1530 C1536 0.949 . S
C1531 H1526 0.950 . S
C1531 C1533 1.327 . S
C1531 C1537 1.429 . S
C1532 C1524 1.574 . S
C1532 H1527 0.949 . S
C1532 C1538 1.368 . S
C1533 C1517 1.349 . S
C1533 H1525 0.950 . S
C1533 C1531 1.327 . S
C1534 C1522 1.349 . S
C1534 H1528 0.950 . S
C1534 C1535 1.327 . S
C1535 H1529 0.950 . S
C1535 C1534 1.327 . S
C1535 C1539 1.429 . S
C1536 C1519 1.574 . S
C1536 H1530 0.949 . S
C1536 C1540 1.368 . S
C1537 C1518 1.429 . S
C1537 C1531 1.429 . S
C1537 C1538 1.523 . S
C1538 C1519 1.368 . S
C1538 C1532 1.368 . S
C1538 C1537 1.523 . S
C1539 C1523 1.429 . S
C1539 C1535 1.429 . S
C1539 C1540 1.523 . S
C1540 C1524 1.368 . S
C1540 C1536 1.368 . S
C1540 C1539 1.523 . S
H1541 C1516 0.950 . S
H1542 C1518 0.950 . S
H1543 C1519 0.949 . S
H1544 C1521 0.950 . S
H1545 C1523 0.950 . S
C1546 C1547 1.349 . S
C1546 C1548 1.327 . S
C1546 H1571 0.950 . S
C1547 C1546 1.349 . S
C1547 C1563 1.349 . S
C1548 C1546 1.327 . S
C1548 C1567 1.429 . S
C1548 H1572 0.950 . S
C1549 C1566 1.574 . S
C1549 C1568 1.368 . S
C1549 H1573 0.949 . S
H1550 C1554 0.949 . S
C1551 C1552 1.349 . S
C1551 C1553 1.327 . S
C1551 H1574 0.950 . S
C1552 C1551 1.349 . S
C1552 C1564 1.349 . S
C1553 C1551 1.327 . S
C1553 C1569 1.429 . S
C1553 H1575 0.950 . S
C1554 H1550 0.949 . S
C1554 C1562 1.574 . S
C1554 C1570 1.368 . S
H1555 C1563 0.950 . S
H1556 C1561 0.950 . S
H1557 C1562 0.949 . S
H1558 C1564 0.950 . S
H1559 C1565 0.950 . S
H1560 C1566 0.949 . S
C1561 H1556 0.950 . S
C1561 C1563 1.327 . S
C1561 C1567 1.429 . S
C1562 C1554 1.574 . S
C1562 H1557 0.949 . S
C1562 C1568 1.368 . S
C1563 C1547 1.349 . S
C1563 H1555 0.950 . S
C1563 C1561 1.327 . S
C1564 C1552 1.349 . S
C1564 H1558 0.950 . S
C1564 C1565 1.327 . S
C1565 H1559 0.950 . S
C1565 C1564 1.327 . S
C1565 C1569 1.429 . S
C1566 C1549 1.574 . S
C1566 H1560 0.949 . S
C1566 C1570 1.368 . S
C1567 C1548 1.429 . S
C1567 C1561 1.429 . S
C1567 C1568 1.523 . S
C1568 C1549 1.368 . S
C1568 C1562 1.368 . S
C1568 C1567 1.523 . S
C1569 C1553 1.429 . S
C1569 C1565 1.429 . S
C1569 C1570 1.523 . S
C1570 C1554 1.368 . S
C1570 C1566 1.368 . S
C1570 C1569 1.523 . S
H1571 C1546 0.950 . S
H1572 C1548 0.950 . S
H1573 C1549 0.949 . S
H1574 C1551 0.950 . S
H1575 C1553 0.950 . S
C1576 C1577 1.349 . S
C1576 C1578 1.327 . S
C1576 H1601 0.950 . S
C1577 C1576 1.349 . S
C1577 C1593 1.349 . S
C1578 C1576 1.327 . S
C1578 C1597 1.429 . S
C1578 H1602 0.950 . S
C1579 C1596 1.574 . S
C1579 C1598 1.368 . S
C1579 H1603 0.949 . S
H1580 C1584 0.949 . S
C1581 C1582 1.349 . S
C1581 C1583 1.327 . S
C1581 H1604 0.950 . S
C1582 C1581 1.349 . S
C1582 C1594 1.349 . S
C1583 C1581 1.327 . S
C1583 C1599 1.429 . S
C1583 H1605 0.950 . S
C1584 H1580 0.949 . S
C1584 C1592 1.574 . S
C1584 C1600 1.368 . S
H1585 C1593 0.950 . S
H1586 C1591 0.950 . S
H1587 C1592 0.949 . S
H1588 C1594 0.950 . S
H1589 C1595 0.950 . S
H1590 C1596 0.949 . S
C1591 H1586 0.950 . S
C1591 C1593 1.327 . S
C1591 C1597 1.429 . S
C1592 C1584 1.574 . S
C1592 H1587 0.949 . S
C1592 C1598 1.368 . S
C1593 C1577 1.349 . S
C1593 H1585 0.950 . S
C1593 C1591 1.327 . S
C1594 C1582 1.349 . S
C1594 H1588 0.950 . S
C1594 C1595 1.327 . S
C1595 H1589 0.950 . S
C1595 C1594 1.327 . S
C1595 C1599 1.429 . S
C1596 C1579 1.574 . S
C1596 H1590 0.949 . S
C1596 C1600 1.368 . S
C1597 C1578 1.429 . S
C1597 C1591 1.429 . S
C1597 C1598 1.523 . S
C1598 C1579 1.368 . S
C1598 C1592 1.368 . S
C1598 C1597 1.523 . S
C1599 C1583 1.429 . S
C1599 C1595 1.429 . S
C1599 C1600 1.523 . S
C1600 C1584 1.368 . S
C1600 C1596 1.368 . S
C1600 C1599 1.523 . S
H1601 C1576 0.950 . S
H1602 C1578 0.950 . S
H1603 C1579 0.949 . S
H1604 C1581 0.950 . S
H1605 C1583 0.950 . S
C1606 C1607 1.349 . S
C1606 C1608 1.327 . S
C1606 H1631 0.950 . S
C1607 C1606 1.349 . S
C1607 C1623 1.349 . S
C1608 C1606 1.327 . S
C1608 C1627 1.429 . S
C1608 H1632 0.950 . S
C1609 C1626 1.574 . S
C1609 C1628 1.368 . S
C1609 H1633 0.949 . S
H1610 C1614 0.949 . S
C1611 C1612 1.349 . S
C1611 C1613 1.327 . S
C1611 H1634 0.950 . S
C1612 C1611 1.349 . S
C1612 C1624 1.349 . S
C1613 C1611 1.327 . S
C1613 C1629 1.429 . S
C1613 H1635 0.950 . S
C1614 H1610 0.949 . S
C1614 C1622 1.574 . S
C1614 C1630 1.368 . S
H1615 C1623 0.950 . S
H1616 C1621 0.950 . S
H1617 C1622 0.949 . S
H1618 C1624 0.950 . S
H1619 C1625 0.950 . S
H1620 C1626 0.949 . S
C1621 H1616 0.950 . S
C1621 C1623 1.327 . S
C1621 C1627 1.429 . S
C1622 C1614 1.574 . S
C1622 H1617 0.949 . S
C1622 C1628 1.368 . S
C1623 C1607 1.349 . S
C1623 H1615 0.950 . S
C1623 C1621 1.327 . S
C1624 C1612 1.349 . S
C1624 H1618 0.950 . S
C1624 C1625 1.327 . S
C1625 H1619 0.950 . S
C1625 C1624 1.327 . S
C1625 C1629 1.429 . S
C1626 C1609 1.574 . S
C1626 H1620 0.949 . S
C1626 C1630 1.368 . S
C1627 C1608 1.429 . S
C1627 C1621 1.429 . S
C1627 C1628 1.523 . S
C1628 C1609 1.368 . S
C1628 C1622 1.368 . S
C1628 C1627 1.523 . S
C1629 C1613 1.429 . S
C1629 C1625 1.429 . S
C1629 C1630 1.523 . S
C1630 C1614 1.368 . S
C1630 C1626 1.368 . S
C1630 C1629 1.523 . S
H1631 C1606 0.950 . S
H1632 C1608 0.950 . S
H1633 C1609 0.949 . S
H1634 C1611 0.950 . S
H1635 C1613 0.950 . S
C1636 C1637 1.349 . S
C1636 C1638 1.327 . S
C1636 H1661 0.950 . S
C1637 C1636 1.349 . S
C1637 C1653 1.349 . S
C1638 C1636 1.327 . S
C1638 C1657 1.429 . S
C1638 H1662 0.950 . S
C1639 C1656 1.574 . S
C1639 C1658 1.368 . S
C1639 H1663 0.949 . S
H1640 C1644 0.949 . S
C1641 C1642 1.349 . S
C1641 C1643 1.327 . S
C1641 H1664 0.950 . S
C1642 C1641 1.349 . S
C1642 C1654 1.349 . S
C1643 C1641 1.327 . S
C1643 C1659 1.429 . S
C1643 H1665 0.950 . S
C1644 H1640 0.949 . S
C1644 C1652 1.574 . S
C1644 C1660 1.368 . S
H1645 C1653 0.950 . S
H1646 C1651 0.950 . S
H1647 C1652 0.949 . S
H1648 C1654 0.950 . S
H1649 C1655 0.950 . S
H1650 C1656 0.949 . S
C1651 H1646 0.950 . S
C1651 C1653 1.327 . S
C1651 C1657 1.429 . S
C1652 C1644 1.574 . S
C1652 H1647 0.949 . S
C1652 C1658 1.368 . S
C1653 C1637 1.349 . S
C1653 H1645 0.950 . S
C1653 C1651 1.327 . S
C1654 C1642 1.349 . S
C1654 H1648 0.950 . S
C1654 C1655 1.327 . S
C1655 H1649 0.950 . S
C1655 C1654 1.327 . S
C1655 C1659 1.429 . S
C1656 C1639 1.574 . S
C1656 H1650 0.949 . S
C1656 C1660 1.368 . S
C1657 C1638 1.429 . S
C1657 C1651 1.429 . S
C1657 C1658 1.523 . S
C1658 C1639 1.368 . S
C1658 C1652 1.368 . S
C1658 C1657 1.523 . S
C1659 C1643 1.429 . S
C1659 C1655 1.429 . S
C1659 C1660 1.523 . S
C1660 C1644 1.368 . S
C1660 C1656 1.368 . S
C1660 C1659 1.523 . S
H1661 C1636 0.950 . S
H1662 C1638 0.950 . S
H1663 C1639 0.949 . S
H1664 C1641 0.950 . S
H1665 C1643 0.950 . S
C1666 C1667 1.349 . S
C1666 C1668 1.327 . S
C1666 H1691 0.950 . S
C1667 C1666 1.349 . S
C1667 C1683 1.349 . S
C1668 C1666 1.327 . S
C1668 C1687 1.429 . S
C1668 H1692 0.950 . S
C1669 C1686 1.574 . S
C1669 C1688 1.368 . S
C1669 H1693 0.949 . S
H1670 C1674 0.949 . S
C1671 C1672 1.349 . S
C1671 C1673 1.327 . S
C1671 H1694 0.950 . S
C1672 C1671 1.349 . S
C1672 C1684 1.349 . S
C1673 C1671 1.327 . S
C1673 C1689 1.429 . S
C1673 H1695 0.950 . S
C1674 H1670 0.949 . S
C1674 C1682 1.574 . S
C1674 C1690 1.368 . S
H1675 C1683 0.950 . S
H1676 C1681 0.950 . S
H1677 C1682 0.949 . S
H1678 C1684 0.950 . S
H1679 C1685 0.950 . S
H1680 C1686 0.949 . S
C1681 H1676 0.950 . S
C1681 C1683 1.327 . S
C1681 C1687 1.429 . S
C1682 C1674 1.574 . S
C1682 H1677 0.949 . S
C1682 C1688 1.368 . S
C1683 C1667 1.349 . S
C1683 H1675 0.950 . S
C1683 C1681 1.327 . S
C1684 C1672 1.349 . S
C1684 H1678 0.950 . S
C1684 C1685 1.327 . S
C1685 H1679 0.950 . S
C1685 C1684 1.327 . S
C1685 C1689 1.429 . S
C1686 C1669 1.574 . S
C1686 H1680 0.949 . S
C1686 C1690 1.368 . S
C1687 C1668 1.429 . S
C1687 C1681 1.429 . S
C1687 C1688 1.523 . S
C1688 C1669 1.368 . S
C1688 C1682 1.368 . S
C1688 C1687 1.523 . S
C1689 C1673 1.429 . S
C1689 C1685 1.429 . S
C1689 C1690 1.523 . S
C1690 C1674 1.368 . S
C1690 C1686 1.368 . S
C1690 C1689 1.523 . S
H1691 C1666 0.950 . S
H1692 C1668 0.950 . S
H1693 C1669 0.949 . S
H1694 C1671 0.950 . S
H1695 C1673 0.950 . S
C1696 C1697 1.349 . S
C1696 C1698 1.327 . S
C1696 H1721 0.950 . S
C1697 C1696 1.349 . S
C1697 C1713 1.349 . S
C1698 C1696 1.327 . S
C1698 C1717 1.429 . S
C1698 H1722 0.950 . S
C1699 C1716 1.574 . S
C1699 C1718 1.368 . S
C1699 H1723 0.949 . S
H1700 C1704 0.949 . S
C1701 C1702 1.349 . S
C1701 C1703 1.327 . S
C1701 H1724 0.950 . S
C1702 C1701 1.349 . S
C1702 C1714 1.349 . S
C1703 C1701 1.327 . S
C1703 C1719 1.429 . S
C1703 H1725 0.950 . S
C1704 H1700 0.949 . S
C1704 C1712 1.574 . S
C1704 C1720 1.368 . S
H1705 C1713 0.950 . S
H1706 C1711 0.950 . S
H1707 C1712 0.949 . S
H1708 C1714 0.950 . S
H1709 C1715 0.950 . S
H1710 C1716 0.949 . S
C1711 H1706 0.950 . S
C1711 C1713 1.327 . S
C1711 C1717 1.429 . S
C1712 C1704 1.574 . S
C1712 H1707 0.949 . S
C1712 C1718 1.368 . S
C1713 C1697 1.349 . S
C1713 H1705 0.950 . S
C1713 C1711 1.327 . S
C1714 C1702 1.349 . S
C1714 H1708 0.950 . S
C1714 C1715 1.327 . S
C1715 H1709 0.950 . S
C1715 C1714 1.327 . S
C1715 C1719 1.429 . S
C1716 C1699 1.574 . S
C1716 H1710 0.949 . S
C1716 C1720 1.368 . S
C1717 C1698 1.429 . S
C1717 C1711 1.429 . S
C1717 C1718 1.523 . S
C1718 C1699 1.368 . S
C1718 C1712 1.368 . S
C1718 C1717 1.523 . S
C1719 C1703 1.429 . S
C1719 C1715 1.429 . S
C1719 C1720 1.523 . S
C1720 C1704 1.368 . S
C1720 C1716 1.368 . S
C1720 C1719 1.523 . S
H1721 C1696 0.950 . S
H1722 C1698 0.950 . S
H1723 C1699 0.949 . S
H1724 C1701 0.950 . S
H1725 C1703 0.950 . S
C1726 C1727 1.349 . S
C1726 C1728 1.327 . S
C1726 H1751 0.950 . S
C1727 C1726 1.349 . S
C1727 C1743 1.349 . S
C1728 C1726 1.327 . S
C1728 C1747 1.429 . S
C1728 H1752 0.950 . S
C1729 C1746 1.574 . S
C1729 C1748 1.368 . S
C1729 H1753 0.949 . S
H1730 C1734 0.949 . S
C1731 C1732 1.349 . S
C1731 C1733 1.327 . S
C1731 H1754 0.950 . S
C1732 C1731 1.349 . S
C1732 C1744 1.349 . S
C1733 C1731 1.327 . S
C1733 C1749 1.429 . S
C1733 H1755 0.950 . S
C1734 H1730 0.949 . S
C1734 C1742 1.574 . S
C1734 C1750 1.368 . S
H1735 C1743 0.950 . S
H1736 C1741 0.950 . S
H1737 C1742 0.949 . S
H1738 C1744 0.950 . S
H1739 C1745 0.950 . S
H1740 C1746 0.949 . S
C1741 H1736 0.950 . S
C1741 C1743 1.327 . S
C1741 C1747 1.429 . S
C1742 C1734 1.574 . S
C1742 H1737 0.949 . S
C1742 C1748 1.368 . S
C1743 C1727 1.349 . S
C1743 H1735 0.950 . S
C1743 C1741 1.327 . S
C1744 C1732 1.349 . S
C1744 H1738 0.950 . S
C1744 C1745 1.327 . S
C1745 H1739 0.950 . S
C1745 C1744 1.327 . S
C1745 C1749 1.429 . S
C1746 C1729 1.574 . S
C1746 H1740 0.949 . S
C1746 C1750 1.368 . S
C1747 C1728 1.429 . S
C1747 C1741 1.429 . S
C1747 C1748 1.523 . S
C1748 C1729 1.368 . S
C1748 C1742 1.368 . S
C1748 C1747 1.523 . S
C1749 C1733 1.429 . S
C1749 C1745 1.429 . S
C1749 C1750 1.523 . S
C1750 C1734 1.368 . S
C1750 C1746 1.368 . S
C1750 C1749 1.523 . S
H1751 C1726 0.950 . S
H1752 C1728 0.950 . S
H1753 C1729 0.949 . S
H1754 C1731 0.950 . S
H1755 C1733 0.950 . S
C1756 C1757 1.349 . S
C1756 C1758 1.327 . S
C1756 H1781 0.950 . S
C1757 C1756 1.349 . S
C1757 C1773 1.349 . S
C1758 C1756 1.327 . S
C1758 C1777 1.429 . S
C1758 H1782 0.950 . S
C1759 C1776 1.574 . S
C1759 C1778 1.368 . S
C1759 H1783 0.949 . S
H1760 C1764 0.949 . S
C1761 C1762 1.349 . S
C1761 C1763 1.327 . S
C1761 H1784 0.950 . S
C1762 C1761 1.349 . S
C1762 C1774 1.349 . S
C1763 C1761 1.327 . S
C1763 C1779 1.429 . S
C1763 H1785 0.950 . S
C1764 H1760 0.949 . S
C1764 C1772 1.574 . S
C1764 C1780 1.368 . S
H1765 C1773 0.950 . S
H1766 C1771 0.950 . S
H1767 C1772 0.949 . S
H1768 C1774 0.950 . S
H1769 C1775 0.950 . S
H1770 C1776 0.949 . S
C1771 H1766 0.950 . S
C1771 C1773 1.327 . S
C1771 C1777 1.429 . S
C1772 C1764 1.574 . S
C1772 H1767 0.949 . S
C1772 C1778 1.368 . S
C1773 C1757 1.349 . S
C1773 H1765 0.950 . S
C1773 C1771 1.327 . S
C1774 C1762 1.349 . S
C1774 H1768 0.950 . S
C1774 C1775 1.327 . S
C1775 H1769 0.950 . S
C1775 C1774 1.327 . S
C1775 C1779 1.429 . S
C1776 C1759 1.574 . S
C1776 H1770 0.949 . S
C1776 C1780 1.368 . S
C1777 C1758 1.429 . S
C1777 C1771 1.429 . S
C1777 C1778 1.523 . S
C1778 C1759 1.368 . S
C1778 C1772 1.368 . S
C1778 C1777 1.523 . S
C1779 C1763 1.429 . S
C1779 C1775 1.429 . S
C1779 C1780 1.523 . S
C1780 C1764 1.368 . S
C1780 C1776 1.368 . S
C1780 C1779 1.523 . S
H1781 C1756 0.950 . S
H1782 C1758 0.950 . S
H1783 C1759 0.949 . S
H1784 C1761 0.950 . S
H1785 C1763 0.950 . S
C1786 C1787 1.349 . S
C1786 C1788 1.327 . S
C1786 H1811 0.950 . S
C1787 C1786 1.349 . S
C1787 C1803 1.349 . S
C1788 C1786 1.327 . S
C1788 C1807 1.429 . S
C1788 H1812 0.950 . S
C1789 C1806 1.574 . S
C1789 C1808 1.368 . S
C1789 H1813 0.949 . S
H1790 C1794 0.949 . S
C1791 C1792 1.349 . S
C1791 C1793 1.327 . S
C1791 H1814 0.950 . S
C1792 C1791 1.349 . S
C1792 C1804 1.349 . S
C1793 C1791 1.327 . S
C1793 C1809 1.429 . S
C1793 H1815 0.950 . S
C1794 H1790 0.949 . S
C1794 C1802 1.574 . S
C1794 C1810 1.368 . S
H1795 C1803 0.950 . S
H1796 C1801 0.950 . S
H1797 C1802 0.949 . S
H1798 C1804 0.950 . S
H1799 C1805 0.950 . S
H1800 C1806 0.949 . S
C1801 H1796 0.950 . S
C1801 C1803 1.327 . S
C1801 C1807 1.429 . S
C1802 C1794 1.574 . S
C1802 H1797 0.949 . S
C1802 C1808 1.368 . S
C1803 C1787 1.349 . S
C1803 H1795 0.950 . S
C1803 C1801 1.327 . S
C1804 C1792 1.349 . S
C1804 H1798 0.950 . S
C1804 C1805 1.327 . S
C1805 H1799 0.950 . S
C1805 C1804 1.327 . S
C1805 C1809 1.429 . S
C1806 C1789 1.574 . S
C1806 H1800 0.949 . S
C1806 C1810 1.368 . S
C1807 C1788 1.429 . S
C1807 C1801 1.429 . S
C1807 C1808 1.523 . S
C1808 C1789 1.368 . S
C1808 C1802 1.368 . S
C1808 C1807 1.523 . S
C1809 C1793 1.429 . S
C1809 C1805 1.429 . S
C1809 C1810 1.523 . S
C1810 C1794 1.368 . S
C1810 C1806 1.368 . S
C1810 C1809 1.523 . S
H1811 C1786 0.950 . S
H1812 C1788 0.950 . S
H1813 C1789 0.949 . S
H1814 C1791 0.950 . S
H1815 C1793 0.950 . S
C1816 C1817 1.349 . S
C1816 C1818 1.327 . S
C1816 H1841 0.950 1_455 S
C1817 C1816 1.349 . S
C1817 C1833 1.349 . S
C1818 C1816 1.327 . S
C1818 C1837 1.429 . S
C1818 H1842 0.950 1_455 S
C1819 C1836 1.574 . S
C1819 C1838 1.368 . S
C1819 H1843 0.949 . S
H1820 C1824 0.949 1_655 S
C1821 C1822 1.349 . S
C1821 C1823 1.327 . S
C1821 H1844 0.950 . S
C1822 C1821 1.349 . S
C1822 C1834 1.349 . S
C1823 C1821 1.327 . S
C1823 C1839 1.429 . S
C1823 H1845 0.950 . S
C1824 H1820 0.949 1_455 S
C1824 C1832 1.574 . S
C1824 C1840 1.368 . S
H1825 C1833 0.950 . S
H1826 C1831 0.950 . S
H1827 C1832 0.949 1_655 S
H1828 C1834 0.952 1_655 S
H1829 C1835 0.950 1_655 S
H1830 C1836 0.949 . S
C1831 H1826 0.950 . S
C1831 C1833 1.327 . S
C1831 C1837 1.429 . S
C1832 C1824 1.574 . S
C1832 H1827 0.949 1_455 S
C1832 C1838 1.368 . S
C1833 C1817 1.349 . S
C1833 H1825 0.950 . S
C1833 C1831 1.327 . S
C1834 C1822 1.349 . S
C1834 H1828 0.952 1_455 S
C1834 C1835 1.327 . S
C1835 H1829 0.950 1_455 S
C1835 C1834 1.327 . S
C1835 C1839 1.429 . S
C1836 C1819 1.574 . S
C1836 H1830 0.949 . S
C1836 C1840 1.368 . S
C1837 C1818 1.429 . S
C1837 C1831 1.429 . S
C1837 C1838 1.523 . S
C1838 C1819 1.368 . S
C1838 C1832 1.368 . S
C1838 C1837 1.523 . S
C1839 C1823 1.429 . S
C1839 C1835 1.429 . S
C1839 C1840 1.523 . S
C1840 C1824 1.368 . S
C1840 C1836 1.368 . S
C1840 C1839 1.523 . S
H1841 C1816 0.950 1_655 S
H1842 C1818 0.950 1_655 S
H1843 C1819 0.949 . S
H1844 C1821 0.950 . S
H1845 C1823 0.950 . S
C1846 C1847 1.349 . S
C1846 C1848 1.327 . S
C1846 H1871 0.950 . S
C1847 C1846 1.349 . S
C1847 C1863 1.349 . S
C1848 C1846 1.327 . S
C1848 C1867 1.429 . S
C1848 H1872 0.950 . S
C1849 C1866 1.574 . S
C1849 C1868 1.368 . S
C1849 H1873 0.949 . S
H1850 C1854 0.949 . S
C1851 C1852 1.349 . S
C1851 C1853 1.327 . S
C1851 H1874 0.950 . S
C1852 C1851 1.349 . S
C1852 C1864 1.349 . S
C1853 C1851 1.327 . S
C1853 C1869 1.429 . S
C1853 H1875 0.950 . S
C1854 H1850 0.949 . S
C1854 C1862 1.574 . S
C1854 C1870 1.368 . S
H1855 C1863 0.950 . S
H1856 C1861 0.950 . S
H1857 C1862 0.949 . S
H1858 C1864 0.950 . S
H1859 C1865 0.950 . S
H1860 C1866 0.949 . S
C1861 H1856 0.950 . S
C1861 C1863 1.327 . S
C1861 C1867 1.429 . S
C1862 C1854 1.574 . S
C1862 H1857 0.949 . S
C1862 C1868 1.368 . S
C1863 C1847 1.349 . S
C1863 H1855 0.950 . S
C1863 C1861 1.327 . S
C1864 C1852 1.349 . S
C1864 H1858 0.950 . S
C1864 C1865 1.327 . S
C1865 H1859 0.950 . S
C1865 C1864 1.327 . S
C1865 C1869 1.429 . S
C1866 C1849 1.574 . S
C1866 H1860 0.949 . S
C1866 C1870 1.368 . S
C1867 C1848 1.429 . S
C1867 C1861 1.429 . S
C1867 C1868 1.523 . S
C1868 C1849 1.368 . S
C1868 C1862 1.368 . S
C1868 C1867 1.523 . S
C1869 C1853 1.429 . S
C1869 C1865 1.429 . S
C1869 C1870 1.523 . S
C1870 C1854 1.368 . S
C1870 C1866 1.368 . S
C1870 C1869 1.523 . S
H1871 C1846 0.950 . S
H1872 C1848 0.950 . S
H1873 C1849 0.949 . S
H1874 C1851 0.950 . S
H1875 C1853 0.950 . S
C1876 C1877 1.349 . S
C1876 C1878 1.327 . S
C1876 H1901 0.950 . S
C1877 C1876 1.349 . S
C1877 C1893 1.349 . S
C1878 C1876 1.327 . S
C1878 C1897 1.429 . S
C1878 H1902 0.950 . S
C1879 C1896 1.574 . S
C1879 C1898 1.368 . S
C1879 H1903 0.949 . S
H1880 C1884 0.949 . S
C1881 C1882 1.349 1_556 S
C1881 C1883 1.327 . S
C1881 H1904 0.950 . S
C1882 C1881 1.349 1_554 S
C1882 C1894 1.349 . S
C1883 C1881 1.327 . S
C1883 C1899 1.429 . S
C1883 H1905 0.950 . S
C1884 H1880 0.949 . S
C1884 C1892 1.574 . S
C1884 C1900 1.368 . S
H1885 C1893 0.950 . S
H1886 C1891 0.950 . S
H1887 C1892 0.949 . S
H1888 C1894 0.950 . S
H1889 C1895 0.926 1_554 S
H1890 C1896 0.949 . S
C1891 H1886 0.950 . S
C1891 C1893 1.327 . S
C1891 C1897 1.429 . S
C1892 C1884 1.574 . S
C1892 H1887 0.949 . S
C1892 C1898 1.368 . S
C1893 C1877 1.349 . S
C1893 H1885 0.950 . S
C1893 C1891 1.327 . S
C1894 C1882 1.349 . S
C1894 H1888 0.950 . S
C1894 C1895 1.303 1_554 S
C1895 H1889 0.926 1_556 S
C1895 C1894 1.303 1_556 S
C1895 C1899 1.477 . S
C1896 C1879 1.574 . S
C1896 H1890 0.949 . S
C1896 C1900 1.368 . S
C1897 C1878 1.429 . S
C1897 C1891 1.429 . S
C1897 C1898 1.523 . S
C1898 C1879 1.368 . S
C1898 C1892 1.368 . S
C1898 C1897 1.523 . S
C1899 C1883 1.429 . S
C1899 C1895 1.477 . S
C1899 C1900 1.523 . S
C1900 C1884 1.368 . S
C1900 C1896 1.368 . S
C1900 C1899 1.523 . S
H1901 C1876 0.950 . S
H1902 C1878 0.950 . S
H1903 C1879 0.949 . S
H1904 C1881 0.950 . S
H1905 C1883 0.950 . S
C1906 C1907 1.349 . S
C1906 C1908 1.327 . S
C1906 H1931 0.950 . S
C1907 C1906 1.349 . S
C1907 C1923 1.349 . S
C1908 C1906 1.327 . S
C1908 C1927 1.429 . S
C1908 H1932 0.950 . S
C1909 C1926 1.574 . S
C1909 C1928 1.368 . S
C1909 H1933 0.949 . S
H1910 C1914 0.949 . S
C1911 C1912 1.349 . S
C1911 C1913 1.327 . S
C1911 H1934 0.950 . S
C1912 C1911 1.349 . S
C1912 C1924 1.349 . S
C1913 C1911 1.327 . S
C1913 C1929 1.429 . S
C1913 H1935 0.950 . S
C1914 H1910 0.949 . S
C1914 C1922 1.574 . S
C1914 C1930 1.368 . S
H1915 C1923 0.950 . S
H1916 C1921 0.950 . S
H1917 C1922 0.949 . S
H1918 C1924 0.950 . S
H1919 C1925 0.950 . S
H1920 C1926 0.949 . S
C1921 H1916 0.950 . S
C1921 C1923 1.327 . S
C1921 C1927 1.429 . S
C1922 C1914 1.574 . S
C1922 H1917 0.949 . S
C1922 C1928 1.368 . S
C1923 C1907 1.349 . S
C1923 H1915 0.950 . S
C1923 C1921 1.327 . S
C1924 C1912 1.349 . S
C1924 H1918 0.950 . S
C1924 C1925 1.327 . S
C1925 H1919 0.950 . S
C1925 C1924 1.327 . S
C1925 C1929 1.429 . S
C1926 C1909 1.574 . S
C1926 H1920 0.949 . S
C1926 C1930 1.368 . S
C1927 C1908 1.429 . S
C1927 C1921 1.429 . S
C1927 C1928 1.523 . S
C1928 C1909 1.368 . S
C1928 C1922 1.368 . S
C1928 C1927 1.523 . S
C1929 C1913 1.429 . S
C1929 C1925 1.429 . S
C1929 C1930 1.523 . S
C1930 C1914 1.368 . S
C1930 C1926 1.368 . S
C1930 C1929 1.523 . S
H1931 C1906 0.950 . S
H1932 C1908 0.950 . S
H1933 C1909 0.949 . S
H1934 C1911 0.950 . S
H1935 C1913 0.950 . S
C1936 C1937 1.349 . S
C1936 C1938 1.327 . S
C1936 H1961 0.950 . S
C1937 C1936 1.349 . S
C1937 C1953 1.349 . S
C1938 C1936 1.327 . S
C1938 C1957 1.429 . S
C1938 H1962 0.950 . S
C1939 C1956 1.574 . S
C1939 C1958 1.368 . S
C1939 H1963 0.949 . S
H1940 C1944 0.949 . S
C1941 C1942 1.349 . S
C1941 C1943 1.327 . S
C1941 H1964 0.950 1_556 S
C1942 C1941 1.349 . S
C1942 C1954 1.349 . S
C1943 C1941 1.327 . S
C1943 C1959 1.429 . S
C1943 H1965 0.950 . S
C1944 H1940 0.949 . S
C1944 C1952 1.574 . S
C1944 C1960 1.368 . S
H1945 C1953 0.950 . S
H1946 C1951 0.950 . S
H1947 C1952 0.949 . S
H1948 C1954 0.950 . S
H1949 C1955 0.950 . S
H1950 C1956 0.949 . S
C1951 H1946 0.950 . S
C1951 C1953 1.327 . S
C1951 C1957 1.429 . S
C1952 C1944 1.574 . S
C1952 H1947 0.949 . S
C1952 C1958 1.368 . S
C1953 C1937 1.349 . S
C1953 H1945 0.950 . S
C1953 C1951 1.327 . S
C1954 C1942 1.349 . S
C1954 H1948 0.950 . S
C1954 C1955 1.327 . S
C1955 H1949 0.950 . S
C1955 C1954 1.327 . S
C1955 C1959 1.429 . S
C1956 C1939 1.574 . S
C1956 H1950 0.949 . S
C1956 C1960 1.368 . S
C1957 C1938 1.429 . S
C1957 C1951 1.429 . S
C1957 C1958 1.523 . S
C1958 C1939 1.368 . S
C1958 C1952 1.368 . S
C1958 C1957 1.523 . S
C1959 C1943 1.429 . S
C1959 C1955 1.429 . S
C1959 C1960 1.523 . S
C1960 C1944 1.368 . S
C1960 C1956 1.368 . S
C1960 C1959 1.523 . S
H1961 C1936 0.950 . S
H1962 C1938 0.950 . S
H1963 C1939 0.949 . S
H1964 C1941 0.950 1_554 S
H1965 C1943 0.950 . S
C1966 C1967 1.349 . S
C1966 C1968 1.327 . S
C1966 H1991 0.950 . S
C1967 C1966 1.349 . S
C1967 C1983 1.349 . S
C1968 C1966 1.327 . S
C1968 C1987 1.429 . S
C1968 H1992 0.950 . S
C1969 C1986 1.574 . S
C1969 C1988 1.368 . S
C1969 H1993 0.949 . S
H1970 C1974 0.949 . S
C1971 C1972 1.349 . S
C1971 C1973 1.327 . S
C1971 H1994 0.950 . S
C1972 C1971 1.349 . S
C1972 C1984 1.349 . S
C1973 C1971 1.327 . S
C1973 C1989 1.429 . S
C1973 H1995 0.950 . S
C1974 H1970 0.949 . S
C1974 C1982 1.574 . S
C1974 C1990 1.368 . S
H1975 C1983 0.950 . S
H1976 C1981 0.950 . S
H1977 C1982 0.949 . S
H1978 C1984 0.950 . S
H1979 C1985 0.950 . S
H1980 C1986 0.949 . S
C1981 H1976 0.950 . S
C1981 C1983 1.327 . S
C1981 C1987 1.429 . S
C1982 C1974 1.574 . S
C1982 H1977 0.949 . S
C1982 C1988 1.368 . S
C1983 C1967 1.349 . S
C1983 H1975 0.950 . S
C1983 C1981 1.327 . S
C1984 C1972 1.349 . S
C1984 H1978 0.950 . S
C1984 C1985 1.327 . S
C1985 H1979 0.950 . S
C1985 C1984 1.327 . S
C1985 C1989 1.429 . S
C1986 C1969 1.574 . S
C1986 H1980 0.949 . S
C1986 C1990 1.368 . S
C1987 C1968 1.429 . S
C1987 C1981 1.429 . S
C1987 C1988 1.523 . S
C1988 C1969 1.368 . S
C1988 C1982 1.368 . S
C1988 C1987 1.523 . S
C1989 C1973 1.429 . S
C1989 C1985 1.429 . S
C1989 C1990 1.523 . S
C1990 C1974 1.368 . S
C1990 C1986 1.368 . S
C1990 C1989 1.523 . S
H1991 C1966 0.950 . S
H1992 C1968 0.950 . S
H1993 C1969 0.949 . S
H1994 C1971 0.950 . S
H1995 C1973 0.950 . S
C1996 C1997 1.349 . S
C1996 C1998 1.327 . S
C1996 H2021 0.950 . S
C1997 C1996 1.349 . S
C1997 C2013 1.349 . S
C1998 C1996 1.327 . S
C1998 C2017 1.429 . S
C1998 H2022 0.950 . S
C1999 C2016 1.574 . S
C1999 C2018 1.368 . S
C1999 H2023 0.949 . S
H2000 C2004 0.949 . S
C2001 C2002 1.349 . S
C2001 C2003 1.327 . S
C2001 H2024 0.950 . S
C2002 C2001 1.349 . S
C2002 C2014 1.349 . S
C2003 C2001 1.327 . S
C2003 C2019 1.429 . S
C2003 H2025 0.950 . S
C2004 H2000 0.949 . S
C2004 C2012 1.574 . S
C2004 C2020 1.368 . S
H2005 C2013 0.950 . S
H2006 C2011 0.950 . S
H2007 C2012 0.949 . S
H2008 C2014 0.950 . S
H2009 C2015 0.950 . S
H2010 C2016 0.949 . S
C2011 H2006 0.950 . S
C2011 C2013 1.327 . S
C2011 C2017 1.429 . S
C2012 C2004 1.574 . S
C2012 H2007 0.949 . S
C2012 C2018 1.368 . S
C2013 C1997 1.349 . S
C2013 H2005 0.950 . S
C2013 C2011 1.327 . S
C2014 C2002 1.349 . S
C2014 H2008 0.950 . S
C2014 C2015 1.327 . S
C2015 H2009 0.950 . S
C2015 C2014 1.327 . S
C2015 C2019 1.429 . S
C2016 C1999 1.574 . S
C2016 H2010 0.949 . S
C2016 C2020 1.368 . S
C2017 C1998 1.429 . S
C2017 C2011 1.429 . S
C2017 C2018 1.523 . S
C2018 C1999 1.368 . S
C2018 C2012 1.368 . S
C2018 C2017 1.523 . S
C2019 C2003 1.429 . S
C2019 C2015 1.429 . S
C2019 C2020 1.523 . S
C2020 C2004 1.368 . S
C2020 C2016 1.368 . S
C2020 C2019 1.523 . S
H2021 C1996 0.950 . S
H2022 C1998 0.950 . S
H2023 C1999 0.949 . S
H2024 C2001 0.950 . S
H2025 C2003 0.950 . S
C2026 C2027 1.349 . S
C2026 C2028 1.327 . S
C2026 H2051 0.950 . S
C2027 C2026 1.349 . S
C2027 C2043 1.349 . S
C2028 C2026 1.327 . S
C2028 C2047 1.429 . S
C2028 H2052 0.950 . S
C2029 C2046 1.574 . S
C2029 C2048 1.368 . S
C2029 H2053 0.949 . S
H2030 C2034 0.949 . S
C2031 C2032 1.349 . S
C2031 C2033 1.327 . S
C2031 H2054 0.950 . S
C2032 C2031 1.349 . S
C2032 C2044 1.349 . S
C2033 C2031 1.327 . S
C2033 C2049 1.429 . S
C2033 H2055 0.950 . S
C2034 H2030 0.949 . S
C2034 C2042 1.574 . S
C2034 C2050 1.368 . S
H2035 C2043 0.950 . S
H2036 C2041 0.950 . S
H2037 C2042 0.949 . S
H2038 C2044 0.950 . S
H2039 C2045 0.950 . S
H2040 C2046 0.949 . S
C2041 H2036 0.950 . S
C2041 C2043 1.327 . S
C2041 C2047 1.429 . S
C2042 C2034 1.574 . S
C2042 H2037 0.949 . S
C2042 C2048 1.368 . S
C2043 C2027 1.349 . S
C2043 H2035 0.950 . S
C2043 C2041 1.327 . S
C2044 C2032 1.349 . S
C2044 H2038 0.950 . S
C2044 C2045 1.327 . S
C2045 H2039 0.950 . S
C2045 C2044 1.327 . S
C2045 C2049 1.429 . S
C2046 C2029 1.574 . S
C2046 H2040 0.949 . S
C2046 C2050 1.368 . S
C2047 C2028 1.429 . S
C2047 C2041 1.429 . S
C2047 C2048 1.523 . S
C2048 C2029 1.368 . S
C2048 C2042 1.368 . S
C2048 C2047 1.523 . S
C2049 C2033 1.429 . S
C2049 C2045 1.429 . S
C2049 C2050 1.523 . S
C2050 C2034 1.368 . S
C2050 C2046 1.368 . S
C2050 C2049 1.523 . S
H2051 C2026 0.950 . S
H2052 C2028 0.950 . S
H2053 C2029 0.949 . S
H2054 C2031 0.950 . S
H2055 C2033 0.950 . S
C2056 C2057 1.349 . S
C2056 C2058 1.327 . S
C2056 H2081 0.950 . S
C2057 C2056 1.349 . S
C2057 C2073 1.349 . S
C2058 C2056 1.327 . S
C2058 C2077 1.429 . S
C2058 H2082 0.950 . S
C2059 C2076 1.574 . S
C2059 C2078 1.368 . S
C2059 H2083 0.949 . S
H2060 C2064 0.949 . S
C2061 C2062 1.349 . S
C2061 C2063 1.327 . S
C2061 H2084 0.950 . S
C2062 C2061 1.349 . S
C2062 C2074 1.349 . S
C2063 C2061 1.327 . S
C2063 C2079 1.429 . S
C2063 H2085 0.950 . S
C2064 H2060 0.949 . S
C2064 C2072 1.574 . S
C2064 C2080 1.368 . S
H2065 C2073 0.950 . S
H2066 C2071 0.950 . S
H2067 C2072 0.949 . S
H2068 C2074 0.950 . S
H2069 C2075 0.950 . S
H2070 C2076 0.949 . S
C2071 H2066 0.950 . S
C2071 C2073 1.327 . S
C2071 C2077 1.429 . S
C2072 C2064 1.574 . S
C2072 H2067 0.949 . S
C2072 C2078 1.368 . S
C2073 C2057 1.349 . S
C2073 H2065 0.950 . S
C2073 C2071 1.327 . S
C2074 C2062 1.349 . S
C2074 H2068 0.950 . S
C2074 C2075 1.327 . S
C2075 H2069 0.950 . S
C2075 C2074 1.327 . S
C2075 C2079 1.429 . S
C2076 C2059 1.574 . S
C2076 H2070 0.949 . S
C2076 C2080 1.368 . S
C2077 C2058 1.429 . S
C2077 C2071 1.429 . S
C2077 C2078 1.523 . S
C2078 C2059 1.368 . S
C2078 C2072 1.368 . S
C2078 C2077 1.523 . S
C2079 C2063 1.429 . S
C2079 C2075 1.429 . S
C2079 C2080 1.523 . S
C2080 C2064 1.368 . S
C2080 C2076 1.368 . S
C2080 C2079 1.523 . S
H2081 C2056 0.950 . S
H2082 C2058 0.950 . S
H2083 C2059 0.949 . S
H2084 C2061 0.950 . S
H2085 C2063 0.950 . S
C2086 C2087 1.349 . S
C2086 C2088 1.327 . S
C2086 H2111 0.950 . S
C2087 C2086 1.349 . S
C2087 C2103 1.349 . S
C2088 C2086 1.327 . S
C2088 C2107 1.429 . S
C2088 H2112 0.950 . S
C2089 C2106 1.574 . S
C2089 C2108 1.368 . S
C2089 H2113 0.949 . S
H2090 C2094 0.949 . S
C2091 C2092 1.349 . S
C2091 C2093 1.327 . S
C2091 H2114 0.950 . S
C2092 C2091 1.349 . S
C2092 C2104 1.349 . S
C2093 C2091 1.327 . S
C2093 C2109 1.429 . S
C2093 H2115 0.950 . S
C2094 H2090 0.949 . S
C2094 C2102 1.574 . S
C2094 C2110 1.368 . S
H2095 C2103 0.950 . S
H2096 C2101 0.950 . S
H2097 C2102 0.949 . S
H2098 C2104 0.950 . S
H2099 C2105 0.950 . S
H2100 C2106 0.949 . S
C2101 H2096 0.950 . S
C2101 C2103 1.327 . S
C2101 C2107 1.429 . S
C2102 C2094 1.574 . S
C2102 H2097 0.949 . S
C2102 C2108 1.368 . S
C2103 C2087 1.349 . S
C2103 H2095 0.950 . S
C2103 C2101 1.327 . S
C2104 C2092 1.349 . S
C2104 H2098 0.950 . S
C2104 C2105 1.327 . S
C2105 H2099 0.950 . S
C2105 C2104 1.327 . S
C2105 C2109 1.429 . S
C2106 C2089 1.574 . S
C2106 H2100 0.949 . S
C2106 C2110 1.368 . S
C2107 C2088 1.429 . S
C2107 C2101 1.429 . S
C2107 C2108 1.523 . S
C2108 C2089 1.368 . S
C2108 C2102 1.368 . S
C2108 C2107 1.523 . S
C2109 C2093 1.429 . S
C2109 C2105 1.429 . S
C2109 C2110 1.523 . S
C2110 C2094 1.368 . S
C2110 C2106 1.368 . S
C2110 C2109 1.523 . S
H2111 C2086 0.950 . S
H2112 C2088 0.950 . S
H2113 C2089 0.949 . S
H2114 C2091 0.950 . S
H2115 C2093 0.950 . S
C2116 C2117 1.349 . S
C2116 C2118 1.327 . S
C2116 H2141 0.950 . S
C2117 C2116 1.349 . S
C2117 C2133 1.349 . S
C2118 C2116 1.327 . S
C2118 C2137 1.429 . S
C2118 H2142 0.950 . S
C2119 C2136 1.574 . S
C2119 C2138 1.368 . S
C2119 H2143 0.949 . S
H2120 C2124 0.945 1_565 S
C2121 C2122 1.349 . S
C2121 C2123 1.327 . S
C2121 H2144 0.950 . S
C2122 C2121 1.349 . S
C2122 C2134 1.349 . S
C2123 C2121 1.327 . S
C2123 C2139 1.429 . S
C2123 H2145 0.950 . S
C2124 H2120 0.945 1_545 S
C2124 C2132 1.574 . S
C2124 C2140 1.368 . S
H2125 C2133 0.950 . S
H2126 C2131 0.950 . S
H2127 C2132 0.949 . S
H2128 C2134 0.950 1_565 S
H2129 C2135 0.950 1_565 S
H2130 C2136 0.949 . S
C2131 H2126 0.950 . S
C2131 C2133 1.327 . S
C2131 C2137 1.429 . S
C2132 C2124 1.574 . S
C2132 H2127 0.949 . S
C2132 C2138 1.368 . S
C2133 C2117 1.349 . S
C2133 H2125 0.950 . S
C2133 C2131 1.327 . S
C2134 C2122 1.349 . S
C2134 H2128 0.950 1_545 S
C2134 C2135 1.327 . S
C2135 H2129 0.950 1_545 S
C2135 C2134 1.327 . S
C2135 C2139 1.429 . S
C2136 C2119 1.574 . S
C2136 H2130 0.949 . S
C2136 C2140 1.368 . S
C2137 C2118 1.429 . S
C2137 C2131 1.429 . S
C2137 C2138 1.523 . S
C2138 C2119 1.368 . S
C2138 C2132 1.368 . S
C2138 C2137 1.523 . S
C2139 C2123 1.429 . S
C2139 C2135 1.429 . S
C2139 C2140 1.523 . S
C2140 C2124 1.368 . S
C2140 C2136 1.368 . S
C2140 C2139 1.523 . S
H2141 C2116 0.950 . S
H2142 C2118 0.950 . S
H2143 C2119 0.949 . S
H2144 C2121 0.950 . S
H2145 C2123 0.950 . S
C2146 C2147 1.349 . S
C2146 C2148 1.327 . S
C2146 H2171 0.950 . S
C2147 C2146 1.349 . S
C2147 C2163 1.349 . S
C2148 C2146 1.327 . S
C2148 C2167 1.429 . S
C2148 H2172 0.950 . S
C2149 C2166 1.574 . S
C2149 C2168 1.368 . S
C2149 H2173 0.949 . S
H2150 C2154 0.949 . S
C2151 C2152 1.349 . S
C2151 C2153 1.327 . S
C2151 H2174 0.950 . S
C2152 C2151 1.349 . S
C2152 C2164 1.349 . S
C2153 C2151 1.327 . S
C2153 C2169 1.429 . S
C2153 H2175 0.950 . S
C2154 H2150 0.949 . S
C2154 C2162 1.574 . S
C2154 C2170 1.368 . S
H2155 C2163 0.950 . S
H2156 C2161 0.950 . S
H2157 C2162 0.949 . S
H2158 C2164 0.950 . S
H2159 C2165 0.950 . S
H2160 C2166 0.949 . S
C2161 H2156 0.950 . S
C2161 C2163 1.327 . S
C2161 C2167 1.429 . S
C2162 C2154 1.574 . S
C2162 H2157 0.949 . S
C2162 C2168 1.368 . S
C2163 C2147 1.349 . S
C2163 H2155 0.950 . S
C2163 C2161 1.327 . S
C2164 C2152 1.349 . S
C2164 H2158 0.950 . S
C2164 C2165 1.327 . S
C2165 H2159 0.950 . S
C2165 C2164 1.327 . S
C2165 C2169 1.429 . S
C2166 C2149 1.574 . S
C2166 H2160 0.949 . S
C2166 C2170 1.368 . S
C2167 C2148 1.429 . S
C2167 C2161 1.429 . S
C2167 C2168 1.523 . S
C2168 C2149 1.368 . S
C2168 C2162 1.368 . S
C2168 C2167 1.523 . S
C2169 C2153 1.429 . S
C2169 C2165 1.429 . S
C2169 C2170 1.523 . S
C2170 C2154 1.368 . S
C2170 C2166 1.368 . S
C2170 C2169 1.523 . S
H2171 C2146 0.950 . S
H2172 C2148 0.950 . S
H2173 C2149 0.949 . S
H2174 C2151 0.950 . S
H2175 C2153 0.950 . S
C2176 C2177 1.349 . S
C2176 C2178 1.327 . S
C2176 H2201 0.950 . S
C2177 C2176 1.349 . S
C2177 C2193 1.349 . S
C2178 C2176 1.327 . S
C2178 C2197 1.429 . S
C2178 H2202 0.950 . S
C2179 C2196 1.574 . S
C2179 C2198 1.368 . S
C2179 H2203 0.949 . S
H2180 C2184 0.949 . S
C2181 C2182 1.349 . S
C2181 C2183 1.327 . S
C2181 H2204 0.950 1_554 S
C2182 C2181 1.349 . S
C2182 C2194 1.349 . S
C2183 C2181 1.327 . S
C2183 C2199 1.429 . S
C2183 H2205 0.950 . S
C2184 H2180 0.949 . S
C2184 C2192 1.574 . S
C2184 C2200 1.368 . S
H2185 C2193 0.950 . S
H2186 C2191 0.950 . S
H2187 C2192 0.949 . S
H2188 C2194 0.950 . S
H2189 C2195 0.950 . S
H2190 C2196 0.949 . S
C2191 H2186 0.950 . S
C2191 C2193 1.327 . S
C2191 C2197 1.429 . S
C2192 C2184 1.574 . S
C2192 H2187 0.949 . S
C2192 C2198 1.368 . S
C2193 C2177 1.349 . S
C2193 H2185 0.950 . S
C2193 C2191 1.327 . S
C2194 C2182 1.349 . S
C2194 H2188 0.950 . S
C2194 C2195 1.327 . S
C2195 H2189 0.950 . S
C2195 C2194 1.327 . S
C2195 C2199 1.429 . S
C2196 C2179 1.574 . S
C2196 H2190 0.949 . S
C2196 C2200 1.368 . S
C2197 C2178 1.429 . S
C2197 C2191 1.429 . S
C2197 C2198 1.523 . S
C2198 C2179 1.368 . S
C2198 C2192 1.368 . S
C2198 C2197 1.523 . S
C2199 C2183 1.429 . S
C2199 C2195 1.429 . S
C2199 C2200 1.523 . S
C2200 C2184 1.368 . S
C2200 C2196 1.368 . S
C2200 C2199 1.523 . S
H2201 C2176 0.950 . S
H2202 C2178 0.950 . S
H2203 C2179 0.949 . S
H2204 C2181 0.950 1_556 S
H2205 C2183 0.950 . S
C2206 C2207 1.349 . S
C2206 C2208 1.327 . S
C2206 H2231 0.950 . S
C2207 C2206 1.349 . S
C2207 C2223 1.349 . S
C2208 C2206 1.327 . S
C2208 C2227 1.429 . S
C2208 H2232 0.950 . S
C2209 C2226 1.574 . S
C2209 C2228 1.368 . S
C2209 H2233 0.949 . S
H2210 C2214 0.949 . S
C2211 C2212 1.349 . S
C2211 C2213 1.327 . S
C2211 H2234 0.950 . S
C2212 C2211 1.349 . S
C2212 C2224 1.349 . S
C2213 C2211 1.327 . S
C2213 C2229 1.429 . S
C2213 H2235 0.950 . S
C2214 H2210 0.949 . S
C2214 C2222 1.574 . S
C2214 C2230 1.368 . S
H2215 C2223 0.950 . S
H2216 C2221 0.950 . S
H2217 C2222 0.949 . S
H2218 C2224 0.950 . S
H2219 C2225 0.950 . S
H2220 C2226 0.949 . S
C2221 H2216 0.950 . S
C2221 C2223 1.327 . S
C2221 C2227 1.429 . S
C2222 C2214 1.574 . S
C2222 H2217 0.949 . S
C2222 C2228 1.368 . S
C2223 C2207 1.349 . S
C2223 H2215 0.950 . S
C2223 C2221 1.327 . S
C2224 C2212 1.349 . S
C2224 H2218 0.950 . S
C2224 C2225 1.327 . S
C2225 H2219 0.950 . S
C2225 C2224 1.327 . S
C2225 C2229 1.429 . S
C2226 C2209 1.574 . S
C2226 H2220 0.949 . S
C2226 C2230 1.368 . S
C2227 C2208 1.429 . S
C2227 C2221 1.429 . S
C2227 C2228 1.523 . S
C2228 C2209 1.368 . S
C2228 C2222 1.368 . S
C2228 C2227 1.523 . S
C2229 C2213 1.429 . S
C2229 C2225 1.429 . S
C2229 C2230 1.523 . S
C2230 C2214 1.368 . S
C2230 C2226 1.368 . S
C2230 C2229 1.523 . S
H2231 C2206 0.950 . S
H2232 C2208 0.950 . S
H2233 C2209 0.949 . S
H2234 C2211 0.950 . S
H2235 C2213 0.950 . S
C2236 C2237 1.349 . S
C2236 C2238 1.327 . S
C2236 H2261 0.950 . S
C2237 C2236 1.349 . S
C2237 C2253 1.349 . S
C2238 C2236 1.327 . S
C2238 C2257 1.429 . S
C2238 H2262 0.950 . S
C2239 C2256 1.574 . S
C2239 C2258 1.368 . S
C2239 H2263 0.949 . S
H2240 C2244 0.949 . S
C2241 C2242 1.349 . S
C2241 C2243 1.327 . S
C2241 H2264 0.950 . S
C2242 C2241 1.349 . S
C2242 C2254 1.349 . S
C2243 C2241 1.327 . S
C2243 C2259 1.429 . S
C2243 H2265 0.950 . S
C2244 H2240 0.949 . S
C2244 C2252 1.574 . S
C2244 C2260 1.368 . S
H2245 C2253 0.950 . S
H2246 C2251 0.950 . S
H2247 C2252 0.949 . S
H2248 C2254 0.950 . S
H2249 C2255 0.950 . S
H2250 C2256 0.949 . S
C2251 H2246 0.950 . S
C2251 C2253 1.327 . S
C2251 C2257 1.429 . S
C2252 C2244 1.574 . S
C2252 H2247 0.949 . S
C2252 C2258 1.368 . S
C2253 C2237 1.349 . S
C2253 H2245 0.950 . S
C2253 C2251 1.327 . S
C2254 C2242 1.349 . S
C2254 H2248 0.950 . S
C2254 C2255 1.327 . S
C2255 H2249 0.950 . S
C2255 C2254 1.327 . S
C2255 C2259 1.429 . S
C2256 C2239 1.574 . S
C2256 H2250 0.949 . S
C2256 C2260 1.368 . S
C2257 C2238 1.429 . S
C2257 C2251 1.429 . S
C2257 C2258 1.523 . S
C2258 C2239 1.368 . S
C2258 C2252 1.368 . S
C2258 C2257 1.523 . S
C2259 C2243 1.429 . S
C2259 C2255 1.429 . S
C2259 C2260 1.523 . S
C2260 C2244 1.368 . S
C2260 C2256 1.368 . S
C2260 C2259 1.523 . S
H2261 C2236 0.950 . S
H2262 C2238 0.950 . S
H2263 C2239 0.949 . S
H2264 C2241 0.950 . S
H2265 C2243 0.950 . S
C2266 C2267 1.349 . S
C2266 C2268 1.327 . S
C2266 H2291 0.950 . S
C2267 C2266 1.349 . S
C2267 C2283 1.349 . S
C2268 C2266 1.327 . S
C2268 C2287 1.429 . S
C2268 H2292 0.950 . S
C2269 C2286 1.574 . S
C2269 C2288 1.368 . S
C2269 H2293 0.949 . S
H2270 C2274 0.949 . S
C2271 C2272 1.349 . S
C2271 C2273 1.327 . S
C2271 H2294 0.950 . S
C2272 C2271 1.349 . S
C2272 C2284 1.349 . S
C2273 C2271 1.327 . S
C2273 C2289 1.429 . S
C2273 H2295 0.950 . S
C2274 H2270 0.949 . S
C2274 C2282 1.574 . S
C2274 C2290 1.368 . S
H2275 C2283 0.950 . S
H2276 C2281 0.950 . S
H2277 C2282 0.949 . S
H2278 C2284 0.950 . S
H2279 C2285 0.950 . S
H2280 C2286 0.949 . S
C2281 H2276 0.950 . S
C2281 C2283 1.327 . S
C2281 C2287 1.429 . S
C2282 C2274 1.574 . S
C2282 H2277 0.949 . S
C2282 C2288 1.368 . S
C2283 C2267 1.349 . S
C2283 H2275 0.950 . S
C2283 C2281 1.327 . S
C2284 C2272 1.349 . S
C2284 H2278 0.950 . S
C2284 C2285 1.327 . S
C2285 H2279 0.950 . S
C2285 C2284 1.327 . S
C2285 C2289 1.429 . S
C2286 C2269 1.574 . S
C2286 H2280 0.949 . S
C2286 C2290 1.368 . S
C2287 C2268 1.429 . S
C2287 C2281 1.429 . S
C2287 C2288 1.523 . S
C2288 C2269 1.368 . S
C2288 C2282 1.368 . S
C2288 C2287 1.523 . S
C2289 C2273 1.429 . S
C2289 C2285 1.429 . S
C2289 C2290 1.523 . S
C2290 C2274 1.368 . S
C2290 C2286 1.368 . S
C2290 C2289 1.523 . S
H2291 C2266 0.950 . S
H2292 C2268 0.950 . S
H2293 C2269 0.949 . S
H2294 C2271 0.950 . S
H2295 C2273 0.950 . S
C2296 C2297 1.349 . S
C2296 C2298 1.327 . S
C2296 H2321 0.950 . S
C2297 C2296 1.349 . S
C2297 C2313 1.349 . S
C2298 C2296 1.327 . S
C2298 C2317 1.429 . S
C2298 H2322 0.950 . S
C2299 C2316 1.574 . S
C2299 C2318 1.368 . S
C2299 H2323 0.949 . S
H2300 C2304 0.949 . S
C2301 C2302 1.349 . S
C2301 C2303 1.327 . S
C2301 H2324 0.950 . S
C2302 C2301 1.349 . S
C2302 C2314 1.349 . S
C2303 C2301 1.327 . S
C2303 C2319 1.429 . S
C2303 H2325 0.950 . S
C2304 H2300 0.949 . S
C2304 C2312 1.574 . S
C2304 C2320 1.368 . S
H2305 C2313 0.950 . S
H2306 C2311 0.950 . S
H2307 C2312 0.949 . S
H2308 C2314 0.950 . S
H2309 C2315 0.950 . S
H2310 C2316 0.949 . S
C2311 H2306 0.950 . S
C2311 C2313 1.327 . S
C2311 C2317 1.429 . S
C2312 C2304 1.574 . S
C2312 H2307 0.949 . S
C2312 C2318 1.368 . S
C2313 C2297 1.349 . S
C2313 H2305 0.950 . S
C2313 C2311 1.327 . S
C2314 C2302 1.349 . S
C2314 H2308 0.950 . S
C2314 C2315 1.327 . S
C2315 H2309 0.950 . S
C2315 C2314 1.327 . S
C2315 C2319 1.429 . S
C2316 C2299 1.574 . S
C2316 H2310 0.949 . S
C2316 C2320 1.368 . S
C2317 C2298 1.429 . S
C2317 C2311 1.429 . S
C2317 C2318 1.523 . S
C2318 C2299 1.368 . S
C2318 C2312 1.368 . S
C2318 C2317 1.523 . S
C2319 C2303 1.429 . S
C2319 C2315 1.429 . S
C2319 C2320 1.523 . S
C2320 C2304 1.368 . S
C2320 C2316 1.368 . S
C2320 C2319 1.523 . S
H2321 C2296 0.950 . S
H2322 C2298 0.950 . S
H2323 C2299 0.949 . S
H2324 C2301 0.950 . S
H2325 C2303 0.950 . S
C2326 C2327 1.349 . S
C2326 C2328 1.327 . S
C2326 H2351 0.950 . S
C2327 C2326 1.349 . S
C2327 C2343 1.349 . S
C2328 C2326 1.327 . S
C2328 C2347 1.429 . S
C2328 H2352 0.950 . S
C2329 C2346 1.574 . S
C2329 C2348 1.368 . S
C2329 H2353 0.949 . S
H2330 C2334 0.949 . S
C2331 C2332 1.349 . S
C2331 C2333 1.327 . S
C2331 H2354 0.950 . S
C2332 C2331 1.349 . S
C2332 C2344 1.349 . S
C2333 C2331 1.327 . S
C2333 C2349 1.429 . S
C2333 H2355 0.950 . S
C2334 H2330 0.949 . S
C2334 C2342 1.574 . S
C2334 C2350 1.368 . S
H2335 C2343 0.950 . S
H2336 C2341 0.950 . S
H2337 C2342 0.949 . S
H2338 C2344 0.950 . S
H2339 C2345 0.950 . S
H2340 C2346 0.949 . S
C2341 H2336 0.950 . S
C2341 C2343 1.327 . S
C2341 C2347 1.429 . S
C2342 C2334 1.574 . S
C2342 H2337 0.949 . S
C2342 C2348 1.368 . S
C2343 C2327 1.349 . S
C2343 H2335 0.950 . S
C2343 C2341 1.327 . S
C2344 C2332 1.349 . S
C2344 H2338 0.950 . S
C2344 C2345 1.327 . S
C2345 H2339 0.950 . S
C2345 C2344 1.327 . S
C2345 C2349 1.429 . S
C2346 C2329 1.574 . S
C2346 H2340 0.949 . S
C2346 C2350 1.368 . S
C2347 C2328 1.429 . S
C2347 C2341 1.429 . S
C2347 C2348 1.523 . S
C2348 C2329 1.368 . S
C2348 C2342 1.368 . S
C2348 C2347 1.523 . S
C2349 C2333 1.429 . S
C2349 C2345 1.429 . S
C2349 C2350 1.523 . S
C2350 C2334 1.368 . S
C2350 C2346 1.368 . S
C2350 C2349 1.523 . S
H2351 C2326 0.950 . S
H2352 C2328 0.950 . S
H2353 C2329 0.949 . S
H2354 C2331 0.950 . S
H2355 C2333 0.950 . S
C2356 C2357 1.349 . S
C2356 C2358 1.327 . S
C2356 H2381 0.950 . S
C2357 C2356 1.349 . S
C2357 C2373 1.349 . S
C2358 C2356 1.327 . S
C2358 C2377 1.429 . S
C2358 H2382 0.950 . S
C2359 C2376 1.574 . S
C2359 C2378 1.368 . S
C2359 H2383 0.949 . S
H2360 C2364 0.949 . S
C2361 C2362 1.349 . S
C2361 C2363 1.327 . S
C2361 H2384 0.950 . S
C2362 C2361 1.349 . S
C2362 C2374 1.349 . S
C2363 C2361 1.327 . S
C2363 C2379 1.429 . S
C2363 H2385 0.950 . S
C2364 H2360 0.949 . S
C2364 C2372 1.574 . S
C2364 C2380 1.368 . S
H2365 C2373 0.950 . S
H2366 C2371 0.950 . S
H2367 C2372 0.949 . S
H2368 C2374 0.950 . S
H2369 C2375 0.950 . S
H2370 C2376 0.949 . S
C2371 H2366 0.950 . S
C2371 C2373 1.327 . S
C2371 C2377 1.429 . S
C2372 C2364 1.574 . S
C2372 H2367 0.949 . S
C2372 C2378 1.368 . S
C2373 C2357 1.349 . S
C2373 H2365 0.950 . S
C2373 C2371 1.327 . S
C2374 C2362 1.349 . S
C2374 H2368 0.950 . S
C2374 C2375 1.327 . S
C2375 H2369 0.950 . S
C2375 C2374 1.327 . S
C2375 C2379 1.429 . S
C2376 C2359 1.574 . S
C2376 H2370 0.949 . S
C2376 C2380 1.368 . S
C2377 C2358 1.429 . S
C2377 C2371 1.429 . S
C2377 C2378 1.523 . S
C2378 C2359 1.368 . S
C2378 C2372 1.368 . S
C2378 C2377 1.523 . S
C2379 C2363 1.429 . S
C2379 C2375 1.429 . S
C2379 C2380 1.523 . S
C2380 C2364 1.368 . S
C2380 C2376 1.368 . S
C2380 C2379 1.523 . S
H2381 C2356 0.950 . S
H2382 C2358 0.950 . S
H2383 C2359 0.949 . S
H2384 C2361 0.950 . S
H2385 C2363 0.950 . S
C2386 C2387 1.349 . S
C2386 C2388 1.327 . S
C2386 H2411 0.950 . S
C2387 C2386 1.349 . S
C2387 C2403 1.349 . S
C2388 C2386 1.327 . S
C2388 C2407 1.429 . S
C2388 H2412 0.950 . S
C2389 C2406 1.574 . S
C2389 C2408 1.368 . S
C2389 H2413 0.949 . S
H2390 C2394 0.949 . S
C2391 C2392 1.349 . S
C2391 C2393 1.327 . S
C2391 H2414 0.950 . S
C2392 C2391 1.349 . S
C2392 C2404 1.349 . S
C2393 C2391 1.327 . S
C2393 C2409 1.429 . S
C2393 H2415 0.950 . S
C2394 H2390 0.949 . S
C2394 C2402 1.574 . S
C2394 C2410 1.368 . S
H2395 C2403 0.950 . S
H2396 C2401 0.950 . S
H2397 C2402 0.949 . S
H2398 C2404 0.950 . S
H2399 C2405 0.950 . S
H2400 C2406 0.949 . S
C2401 H2396 0.950 . S
C2401 C2403 1.327 . S
C2401 C2407 1.429 . S
C2402 C2394 1.574 . S
C2402 H2397 0.949 . S
C2402 C2408 1.368 . S
C2403 C2387 1.349 . S
C2403 H2395 0.950 . S
C2403 C2401 1.327 . S
C2404 C2392 1.349 . S
C2404 H2398 0.950 . S
C2404 C2405 1.327 . S
C2405 H2399 0.950 . S
C2405 C2404 1.327 . S
C2405 C2409 1.429 . S
C2406 C2389 1.574 . S
C2406 H2400 0.949 . S
C2406 C2410 1.368 . S
C2407 C2388 1.429 . S
C2407 C2401 1.429 . S
C2407 C2408 1.523 . S
C2408 C2389 1.368 . S
C2408 C2402 1.368 . S
C2408 C2407 1.523 . S
C2409 C2393 1.429 . S
C2409 C2405 1.429 . S
C2409 C2410 1.523 . S
C2410 C2394 1.368 . S
C2410 C2406 1.368 . S
C2410 C2409 1.523 . S
H2411 C2386 0.950 . S
H2412 C2388 0.950 . S
H2413 C2389 0.949 . S
H2414 C2391 0.950 . S
H2415 C2393 0.950 . S
C2416 C2417 1.349 . S
C2416 C2418 1.327 . S
C2416 H2441 0.950 . S
C2417 C2416 1.349 . S
C2417 C2433 1.349 . S
C2418 C2416 1.327 . S
C2418 C2437 1.429 . S
C2418 H2442 0.950 . S
C2419 C2436 1.574 . S
C2419 C2438 1.368 . S
C2419 H2443 0.949 . S
H2420 C2424 0.949 . S
C2421 C2422 1.349 . S
C2421 C2423 1.327 . S
C2421 H2444 0.950 . S
C2422 C2421 1.349 . S
C2422 C2434 1.349 . S
C2423 C2421 1.327 . S
C2423 C2439 1.429 . S
C2423 H2445 0.950 . S
C2424 H2420 0.949 . S
C2424 C2432 1.574 . S
C2424 C2440 1.368 . S
H2425 C2433 0.950 . S
H2426 C2431 0.950 . S
H2427 C2432 0.949 . S
H2428 C2434 0.950 . S
H2429 C2435 0.950 . S
H2430 C2436 0.949 . S
C2431 H2426 0.950 . S
C2431 C2433 1.327 . S
C2431 C2437 1.429 . S
C2432 C2424 1.574 . S
C2432 H2427 0.949 . S
C2432 C2438 1.368 . S
C2433 C2417 1.349 . S
C2433 H2425 0.950 . S
C2433 C2431 1.327 . S
C2434 C2422 1.349 . S
C2434 H2428 0.950 . S
C2434 C2435 1.327 . S
C2435 H2429 0.950 . S
C2435 C2434 1.327 . S
C2435 C2439 1.429 . S
C2436 C2419 1.574 . S
C2436 H2430 0.949 . S
C2436 C2440 1.368 . S
C2437 C2418 1.429 . S
C2437 C2431 1.429 . S
C2437 C2438 1.523 . S
C2438 C2419 1.368 . S
C2438 C2432 1.368 . S
C2438 C2437 1.523 . S
C2439 C2423 1.429 . S
C2439 C2435 1.429 . S
C2439 C2440 1.523 . S
C2440 C2424 1.368 . S
C2440 C2436 1.368 . S
C2440 C2439 1.523 . S
H2441 C2416 0.950 . S
H2442 C2418 0.950 . S
H2443 C2419 0.949 . S
H2444 C2421 0.950 . S
H2445 C2423 0.950 . S
C2446 C2447 1.349 . S
C2446 C2448 1.327 . S
C2446 H2471 0.950 . S
C2447 C2446 1.349 . S
C2447 C2463 1.349 . S
C2448 C2446 1.327 . S
C2448 C2467 1.429 . S
C2448 H2472 0.950 . S
C2449 C2466 1.574 . S
C2449 C2468 1.368 . S
C2449 H2473 0.949 . S
H2450 C2454 0.949 . S
C2451 C2452 1.349 . S
C2451 C2453 1.327 . S
C2451 H2474 0.950 . S
C2452 C2451 1.349 . S
C2452 C2464 1.349 . S
C2453 C2451 1.327 . S
C2453 C2469 1.429 . S
C2453 H2475 0.950 . S
C2454 H2450 0.949 . S
C2454 C2462 1.574 . S
C2454 C2470 1.368 . S
H2455 C2463 0.950 . S
H2456 C2461 0.950 . S
H2457 C2462 0.949 . S
H2458 C2464 0.950 . S
H2459 C2465 0.950 . S
H2460 C2466 0.949 . S
C2461 H2456 0.950 . S
C2461 C2463 1.327 . S
C2461 C2467 1.429 . S
C2462 C2454 1.574 . S
C2462 H2457 0.949 . S
C2462 C2468 1.368 . S
C2463 C2447 1.349 . S
C2463 H2455 0.950 . S
C2463 C2461 1.327 . S
C2464 C2452 1.349 . S
C2464 H2458 0.950 . S
C2464 C2465 1.327 . S
C2465 H2459 0.950 . S
C2465 C2464 1.327 . S
C2465 C2469 1.429 . S
C2466 C2449 1.574 . S
C2466 H2460 0.949 . S
C2466 C2470 1.368 . S
C2467 C2448 1.429 . S
C2467 C2461 1.429 . S
C2467 C2468 1.523 . S
C2468 C2449 1.368 . S
C2468 C2462 1.368 . S
C2468 C2467 1.523 . S
C2469 C2453 1.429 . S
C2469 C2465 1.429 . S
C2469 C2470 1.523 . S
C2470 C2454 1.368 . S
C2470 C2466 1.368 . S
C2470 C2469 1.523 . S
H2471 C2446 0.950 . S
H2472 C2448 0.950 . S
H2473 C2449 0.949 . S
H2474 C2451 0.950 . S
H2475 C2453 0.950 . S
C2476 C2477 1.349 . S
C2476 C2478 1.327 . S
C2476 H2501 0.950 . S
C2477 C2476 1.349 . S
C2477 C2493 1.349 1_455 S
C2478 C2476 1.327 . S
C2478 C2497 1.429 . S
C2478 H2502 0.950 . S
C2479 C2496 1.574 . S
C2479 C2498 1.368 . S
C2479 H2503 0.949 1_455 S
H2480 C2484 0.949 . S
C2481 C2482 1.349 . S
C2481 C2483 1.327 . S
C2481 H2504 0.950 . S
C2482 C2481 1.349 . S
C2482 C2494 1.349 . S
C2483 C2481 1.327 . S
C2483 C2499 1.429 . S
C2483 H2505 0.918 1_554 S
C2484 H2480 0.949 . S
C2484 C2492 1.604 . S
C2484 C2500 1.368 . S
H2485 C2493 0.950 . S
H2486 C2491 0.997 . S
H2487 C2492 0.969 . S
H2488 C2494 0.950 . S
H2489 C2495 0.950 . S
H2490 C2496 0.950 1_655 S
C2491 H2486 0.997 . S
C2491 C2493 1.313 . S
C2491 C2497 1.401 1_655 S
C2492 C2484 1.604 . S
C2492 H2487 0.969 . S
C2492 C2498 1.320 1_554 S
C2493 C2477 1.349 1_655 S
C2493 H2485 0.950 . S
C2493 C2491 1.313 . S
C2494 C2482 1.349 . S
C2494 H2488 0.950 . S
C2494 C2495 1.327 . S
C2495 H2489 0.950 . S
C2495 C2494 1.327 . S
C2495 C2499 1.429 . S
C2496 C2479 1.574 . S
C2496 H2490 0.950 1_455 S
C2496 C2500 1.368 1_556 S
C2497 C2478 1.429 . S
C2497 C2491 1.401 1_455 S
C2497 C2498 1.523 . S
C2498 C2479 1.368 . S
C2498 C2492 1.320 1_556 S
C2498 C2497 1.523 . S
C2499 C2483 1.429 . S
C2499 C2495 1.429 . S
C2499 C2500 1.523 . S
C2500 C2484 1.368 . S
C2500 C2496 1.368 1_554 S
C2500 C2499 1.523 . S
H2501 C2476 0.950 . S
H2502 C2478 0.950 . S
H2503 C2479 0.949 1_655 S
H2504 C2481 0.950 . S
H2505 C2483 0.918 1_556 S
C2506 C2507 1.356 . S
C2506 C2508 1.319 1_455 S
C2506 H2531 0.950 . S
C2507 C2506 1.356 . S
C2507 C2523 1.349 . S
C2508 C2506 1.319 1_655 S
C2508 C2527 1.429 . S
C2508 H2532 0.950 . S
C2509 C2526 1.574 . S
C2509 C2528 1.368 . S
C2509 H2533 0.949 . S
H2510 C2514 0.949 . S
C2511 C2512 1.349 . S
C2511 C2513 1.327 . S
C2511 H2534 0.950 . S
C2512 C2511 1.349 . S
C2512 C2524 1.349 . S
C2513 C2511 1.327 . S
C2513 C2529 1.429 . S
C2513 H2535 0.950 . S
C2514 H2510 0.949 . S
C2514 C2522 1.574 . S
C2514 C2530 1.368 . S
H2515 C2523 0.950 . S
H2516 C2521 0.950 . S
H2517 C2522 0.949 . S
H2518 C2524 0.950 . S
H2519 C2525 0.950 . S
H2520 C2526 0.949 . S
C2521 H2516 0.950 . S
C2521 C2523 1.327 1_655 S
C2521 C2527 1.429 . S
C2522 C2514 1.574 . S
C2522 H2517 0.949 . S
C2522 C2528 1.368 . S
C2523 C2507 1.349 . S
C2523 H2515 0.950 . S
C2523 C2521 1.327 1_455 S
C2524 C2512 1.349 . S
C2524 H2518 0.950 . S
C2524 C2525 1.327 . S
C2525 H2519 0.950 . S
C2525 C2524 1.327 . S
C2525 C2529 1.429 . S
C2526 C2509 1.574 . S
C2526 H2520 0.949 . S
C2526 C2530 1.368 . S
C2527 C2508 1.429 . S
C2527 C2521 1.429 . S
C2527 C2528 1.523 . S
C2528 C2509 1.368 . S
C2528 C2522 1.368 . S
C2528 C2527 1.523 . S
C2529 C2513 1.429 . S
C2529 C2525 1.429 . S
C2529 C2530 1.523 . S
C2530 C2514 1.368 . S
C2530 C2526 1.368 . S
C2530 C2529 1.523 . S
H2531 C2506 0.950 . S
H2532 C2508 0.950 . S
H2533 C2509 0.949 . S
H2534 C2511 0.950 . S
H2535 C2513 0.950 . S
C2536 C2537 1.349 . S
C2536 C2538 1.327 . S
C2536 H2561 0.950 . S
C2537 C2536 1.349 . S
C2537 C2553 1.349 . S
C2538 C2536 1.327 . S
C2538 C2557 1.429 . S
C2538 H2562 0.950 . S
C2539 C2556 1.574 . S
C2539 C2558 1.368 . S
C2539 H2563 0.949 . S
H2540 C2544 0.949 . S
C2541 C2542 1.349 . S
C2541 C2543 1.327 . S
C2541 H2564 0.950 . S
C2542 C2541 1.349 . S
C2542 C2554 1.349 . S
C2543 C2541 1.327 . S
C2543 C2559 1.429 . S
C2543 H2565 0.950 . S
C2544 H2540 0.949 . S
C2544 C2552 1.574 . S
C2544 C2560 1.368 . S
H2545 C2553 0.950 . S
H2546 C2551 0.950 . S
H2547 C2552 0.949 . S
H2548 C2554 0.950 . S
H2549 C2555 0.950 . S
H2550 C2556 0.949 . S
C2551 H2546 0.950 . S
C2551 C2553 1.327 . S
C2551 C2557 1.429 . S
C2552 C2544 1.574 . S
C2552 H2547 0.949 . S
C2552 C2558 1.368 . S
C2553 C2537 1.349 . S
C2553 H2545 0.950 . S
C2553 C2551 1.327 . S
C2554 C2542 1.349 . S
C2554 H2548 0.950 . S
C2554 C2555 1.327 . S
C2555 H2549 0.950 . S
C2555 C2554 1.327 . S
C2555 C2559 1.429 . S
C2556 C2539 1.574 . S
C2556 H2550 0.949 . S
C2556 C2560 1.368 . S
C2557 C2538 1.429 . S
C2557 C2551 1.429 . S
C2557 C2558 1.523 . S
C2558 C2539 1.368 . S
C2558 C2552 1.368 . S
C2558 C2557 1.523 . S
C2559 C2543 1.429 . S
C2559 C2555 1.429 . S
C2559 C2560 1.523 . S
C2560 C2544 1.368 . S
C2560 C2556 1.368 . S
C2560 C2559 1.523 . S
H2561 C2536 0.950 . S
H2562 C2538 0.950 . S
H2563 C2539 0.949 . S
H2564 C2541 0.950 . S
H2565 C2543 0.950 . S
C2566 C2567 1.349 . S
C2566 C2568 1.327 . S
C2566 H2591 0.950 . S
C2567 C2566 1.349 . S
C2567 C2583 1.349 . S
C2568 C2566 1.327 . S
C2568 C2587 1.429 . S
C2568 H2592 0.950 . S
C2569 C2586 1.574 . S
C2569 C2588 1.368 . S
C2569 H2593 0.949 . S
H2570 C2574 0.949 . S
C2571 C2572 1.349 . S
C2571 C2573 1.327 . S
C2571 H2594 0.950 . S
C2572 C2571 1.349 . S
C2572 C2584 1.349 . S
C2573 C2571 1.327 . S
C2573 C2589 1.429 . S
C2573 H2595 0.950 . S
C2574 H2570 0.949 . S
C2574 C2582 1.574 . S
C2574 C2590 1.368 . S
H2575 C2583 0.950 . S
H2576 C2581 0.950 . S
H2577 C2582 0.949 . S
H2578 C2584 0.950 . S
H2579 C2585 0.950 . S
H2580 C2586 0.949 . S
C2581 H2576 0.950 . S
C2581 C2583 1.327 . S
C2581 C2587 1.429 . S
C2582 C2574 1.574 . S
C2582 H2577 0.949 . S
C2582 C2588 1.368 . S
C2583 C2567 1.349 . S
C2583 H2575 0.950 . S
C2583 C2581 1.327 . S
C2584 C2572 1.349 . S
C2584 H2578 0.950 . S
C2584 C2585 1.327 . S
C2585 H2579 0.950 . S
C2585 C2584 1.327 . S
C2585 C2589 1.429 . S
C2586 C2569 1.574 . S
C2586 H2580 0.949 . S
C2586 C2590 1.368 . S
C2587 C2568 1.429 . S
C2587 C2581 1.429 . S
C2587 C2588 1.523 . S
C2588 C2569 1.368 . S
C2588 C2582 1.368 . S
C2588 C2587 1.523 . S
C2589 C2573 1.429 . S
C2589 C2585 1.429 . S
C2589 C2590 1.523 . S
C2590 C2574 1.368 . S
C2590 C2586 1.368 . S
C2590 C2589 1.523 . S
H2591 C2566 0.950 . S
H2592 C2568 0.950 . S
H2593 C2569 0.949 . S
H2594 C2571 0.950 . S
H2595 C2573 0.950 . S
C2596 C2597 1.349 . S
C2596 C2598 1.327 . S
C2596 H2621 0.950 . S
C2597 C2596 1.349 . S
C2597 C2613 1.349 . S
C2598 C2596 1.327 . S
C2598 C2617 1.429 . S
C2598 H2622 0.950 . S
C2599 C2616 1.574 . S
C2599 C2618 1.368 . S
C2599 H2623 0.949 . S
H2600 C2604 0.971 . S
C2601 C2602 1.349 . S
C2601 C2603 1.327 . S
C2601 H2624 0.950 . S
C2602 C2601 1.349 . S
C2602 C2614 1.349 . S
C2603 C2601 1.327 . S
C2603 C2619 1.429 . S
C2603 H2625 0.950 . S
C2604 H2600 0.971 . S
C2604 C2612 1.574 . S
C2604 C2620 1.368 . S
H2605 C2613 0.950 . S
H2606 C2611 0.950 . S
H2607 C2612 0.949 . S
H2608 C2614 0.929 1_655 S
H2609 C2615 0.950 1_655 S
H2610 C2616 0.949 . S
C2611 H2606 0.950 . S
C2611 C2613 1.327 . S
C2611 C2617 1.429 . S
C2612 C2604 1.574 . S
C2612 H2607 0.949 . S
C2612 C2618 1.368 . S
C2613 C2597 1.349 . S
C2613 H2605 0.950 . S
C2613 C2611 1.327 . S
C2614 C2602 1.349 . S
C2614 H2608 0.929 1_455 S
C2614 C2615 1.327 . S
C2615 H2609 0.950 1_455 S
C2615 C2614 1.327 . S
C2615 C2619 1.429 . S
C2616 C2599 1.574 . S
C2616 H2610 0.949 . S
C2616 C2620 1.368 . S
C2617 C2598 1.429 . S
C2617 C2611 1.429 . S
C2617 C2618 1.523 . S
C2618 C2599 1.368 . S
C2618 C2612 1.368 . S
C2618 C2617 1.523 . S
C2619 C2603 1.429 . S
C2619 C2615 1.429 . S
C2619 C2620 1.523 . S
C2620 C2604 1.368 . S
C2620 C2616 1.368 . S
C2620 C2619 1.523 . S
H2621 C2596 0.950 . S
H2622 C2598 0.950 . S
H2623 C2599 0.949 . S
H2624 C2601 0.950 . S
H2625 C2603 0.950 . S
C2626 C2627 1.349 . S
C2626 C2628 1.327 . S
C2626 H2651 0.950 . S
C2627 C2626 1.349 . S
C2627 C2643 1.349 . S
C2628 C2626 1.327 . S
C2628 C2647 1.429 . S
C2628 H2652 0.950 . S
C2629 C2646 1.574 . S
C2629 C2648 1.368 . S
C2629 H2653 0.949 . S
H2630 C2634 0.949 . S
C2631 C2632 1.349 . S
C2631 C2633 1.327 . S
C2631 H2654 0.950 . S
C2632 C2631 1.349 . S
C2632 C2644 1.349 . S
C2633 C2631 1.327 . S
C2633 C2649 1.429 . S
C2633 H2655 0.950 . S
C2634 H2630 0.949 . S
C2634 C2642 1.574 . S
C2634 C2650 1.368 . S
H2635 C2643 0.950 . S
H2636 C2641 0.950 . S
H2637 C2642 0.949 . S
H2638 C2644 0.950 . S
H2639 C2645 0.950 . S
H2640 C2646 0.949 . S
C2641 H2636 0.950 . S
C2641 C2643 1.327 . S
C2641 C2647 1.429 . S
C2642 C2634 1.574 . S
C2642 H2637 0.949 . S
C2642 C2648 1.368 . S
C2643 C2627 1.349 . S
C2643 H2635 0.950 . S
C2643 C2641 1.327 . S
C2644 C2632 1.349 . S
C2644 H2638 0.950 . S
C2644 C2645 1.327 . S
C2645 H2639 0.950 . S
C2645 C2644 1.327 . S
C2645 C2649 1.429 . S
C2646 C2629 1.574 . S
C2646 H2640 0.949 . S
C2646 C2650 1.368 . S
C2647 C2628 1.429 . S
C2647 C2641 1.429 . S
C2647 C2648 1.523 . S
C2648 C2629 1.368 . S
C2648 C2642 1.368 . S
C2648 C2647 1.523 . S
C2649 C2633 1.429 . S
C2649 C2645 1.429 . S
C2649 C2650 1.523 . S
C2650 C2634 1.368 . S
C2650 C2646 1.368 . S
C2650 C2649 1.523 . S
H2651 C2626 0.950 . S
H2652 C2628 0.950 . S
H2653 C2629 0.949 . S
H2654 C2631 0.950 . S
H2655 C2633 0.950 . S
C2656 C2657 1.349 . S
C2656 C2658 1.327 . S
C2656 H2681 0.950 . S
C2657 C2656 1.349 . S
C2657 C2673 1.349 . S
C2658 C2656 1.327 . S
C2658 C2677 1.429 . S
C2658 H2682 0.950 . S
C2659 C2676 1.574 . S
C2659 C2678 1.368 . S
C2659 H2683 0.949 . S
H2660 C2664 0.949 . S
C2661 C2662 1.349 . S
C2661 C2663 1.327 . S
C2661 H2684 0.950 . S
C2662 C2661 1.349 . S
C2662 C2674 1.349 . S
C2663 C2661 1.327 . S
C2663 C2679 1.429 . S
C2663 H2685 0.950 . S
C2664 H2660 0.949 . S
C2664 C2672 1.574 . S
C2664 C2680 1.368 . S
H2665 C2673 0.950 . S
H2666 C2671 0.950 . S
H2667 C2672 0.949 . S
H2668 C2674 0.950 . S
H2669 C2675 0.950 . S
H2670 C2676 0.949 . S
C2671 H2666 0.950 . S
C2671 C2673 1.327 . S
C2671 C2677 1.429 . S
C2672 C2664 1.574 . S
C2672 H2667 0.949 . S
C2672 C2678 1.368 . S
C2673 C2657 1.349 . S
C2673 H2665 0.950 . S
C2673 C2671 1.327 . S
C2674 C2662 1.349 . S
C2674 H2668 0.950 . S
C2674 C2675 1.327 . S
C2675 H2669 0.950 . S
C2675 C2674 1.327 . S
C2675 C2679 1.429 . S
C2676 C2659 1.574 . S
C2676 H2670 0.949 . S
C2676 C2680 1.368 . S
C2677 C2658 1.429 . S
C2677 C2671 1.429 . S
C2677 C2678 1.523 . S
C2678 C2659 1.368 . S
C2678 C2672 1.368 . S
C2678 C2677 1.523 . S
C2679 C2663 1.429 . S
C2679 C2675 1.429 . S
C2679 C2680 1.523 . S
C2680 C2664 1.368 . S
C2680 C2676 1.368 . S
C2680 C2679 1.523 . S
H2681 C2656 0.950 . S
H2682 C2658 0.950 . S
H2683 C2659 0.949 . S
H2684 C2661 0.950 . S
H2685 C2663 0.950 . S
C2686 C2687 1.349 . S
C2686 C2688 1.327 1_554 S
C2686 H2711 0.950 . S
C2687 C2686 1.349 . S
C2687 C2703 1.349 1_554 S
C2688 C2686 1.327 1_556 S
C2688 C2707 1.429 . S
C2688 H2712 0.950 . S
C2689 C2706 1.574 . S
C2689 C2708 1.368 . S
C2689 H2713 0.949 . S
H2690 C2694 0.949 . S
C2691 C2692 1.349 . S
C2691 C2693 1.327 . S
C2691 H2714 0.950 . S
C2692 C2691 1.349 . S
C2692 C2704 1.349 . S
C2693 C2691 1.327 . S
C2693 C2709 1.429 . S
C2693 H2715 0.950 . S
C2694 H2690 0.949 . S
C2694 C2702 1.574 . S
C2694 C2710 1.368 . S
H2695 C2703 0.950 . S
H2696 C2701 0.950 . S
H2697 C2702 0.949 . S
H2698 C2704 0.950 . S
H2699 C2705 0.950 . S
H2700 C2706 0.949 . S
C2701 H2696 0.950 . S
C2701 C2703 1.327 . S
C2701 C2707 1.429 . S
C2702 C2694 1.574 . S
C2702 H2697 0.949 . S
C2702 C2708 1.368 . S
C2703 C2687 1.349 1_556 S
C2703 H2695 0.950 . S
C2703 C2701 1.327 . S
C2704 C2692 1.349 . S
C2704 H2698 0.950 . S
C2704 C2705 1.327 . S
C2705 H2699 0.950 . S
C2705 C2704 1.327 . S
C2705 C2709 1.429 . S
C2706 C2689 1.574 . S
C2706 H2700 0.949 . S
C2706 C2710 1.368 . S
C2707 C2688 1.429 . S
C2707 C2701 1.429 . S
C2707 C2708 1.523 . S
C2708 C2689 1.368 . S
C2708 C2702 1.368 . S
C2708 C2707 1.523 . S
C2709 C2693 1.429 . S
C2709 C2705 1.429 . S
C2709 C2710 1.523 . S
C2710 C2694 1.368 . S
C2710 C2706 1.368 . S
C2710 C2709 1.523 . S
H2711 C2686 0.950 . S
H2712 C2688 0.950 . S
H2713 C2689 0.949 . S
H2714 C2691 0.950 . S
H2715 C2693 0.950 . S
C2716 C2717 1.349 . S
C2716 C2718 1.327 . S
C2716 H2741 0.950 . S
C2717 C2716 1.349 . S
C2717 C2733 1.349 . S
C2718 C2716 1.327 . S
C2718 C2737 1.429 . S
C2718 H2742 0.950 . S
C2719 C2736 1.574 . S
C2719 C2738 1.368 . S
C2719 H2743 0.949 . S
H2720 C2724 0.949 . S
C2721 C2722 1.349 . S
C2721 C2723 1.327 . S
C2721 H2744 0.950 . S
C2722 C2721 1.349 . S
C2722 C2734 1.349 . S
C2723 C2721 1.327 . S
C2723 C2739 1.429 . S
C2723 H2745 0.950 . S
C2724 H2720 0.949 . S
C2724 C2732 1.574 . S
C2724 C2740 1.368 . S
H2725 C2733 0.950 . S
H2726 C2731 0.950 . S
H2727 C2732 0.949 . S
H2728 C2734 0.950 . S
H2729 C2735 0.950 . S
H2730 C2736 0.949 . S
C2731 H2726 0.950 . S
C2731 C2733 1.327 . S
C2731 C2737 1.429 . S
C2732 C2724 1.574 . S
C2732 H2727 0.949 . S
C2732 C2738 1.368 . S
C2733 C2717 1.349 . S
C2733 H2725 0.950 . S
C2733 C2731 1.327 . S
C2734 C2722 1.349 . S
C2734 H2728 0.950 . S
C2734 C2735 1.327 . S
C2735 H2729 0.950 . S
C2735 C2734 1.327 . S
C2735 C2739 1.429 . S
C2736 C2719 1.574 . S
C2736 H2730 0.949 . S
C2736 C2740 1.368 . S
C2737 C2718 1.429 . S
C2737 C2731 1.429 . S
C2737 C2738 1.523 . S
C2738 C2719 1.368 . S
C2738 C2732 1.368 . S
C2738 C2737 1.523 . S
C2739 C2723 1.429 . S
C2739 C2735 1.429 . S
C2739 C2740 1.523 . S
C2740 C2724 1.368 . S
C2740 C2736 1.368 . S
C2740 C2739 1.523 . S
H2741 C2716 0.950 . S
H2742 C2718 0.950 . S
H2743 C2719 0.949 . S
H2744 C2721 0.950 . S
H2745 C2723 0.950 . S
C2746 C2747 1.349 . S
C2746 C2748 1.327 . S
C2746 H2771 0.950 . S
C2747 C2746 1.349 . S
C2747 C2763 1.349 . S
C2748 C2746 1.327 . S
C2748 C2767 1.429 . S
C2748 H2772 0.950 . S
C2749 C2766 1.574 . S
C2749 C2768 1.368 . S
C2749 H2773 0.949 . S
H2750 C2754 0.949 . S
C2751 C2752 1.349 . S
C2751 C2753 1.327 . S
C2751 H2774 0.950 . S
C2752 C2751 1.349 . S
C2752 C2764 1.349 . S
C2753 C2751 1.327 . S
C2753 C2769 1.429 . S
C2753 H2775 0.950 . S
C2754 H2750 0.949 . S
C2754 C2762 1.574 . S
C2754 C2770 1.368 . S
H2755 C2763 0.950 . S
H2756 C2761 0.950 . S
H2757 C2762 0.949 . S
H2758 C2764 0.950 . S
H2759 C2765 0.950 . S
H2760 C2766 0.949 . S
C2761 H2756 0.950 . S
C2761 C2763 1.327 . S
C2761 C2767 1.429 . S
C2762 C2754 1.574 . S
C2762 H2757 0.949 . S
C2762 C2768 1.368 . S
C2763 C2747 1.349 . S
C2763 H2755 0.950 . S
C2763 C2761 1.327 . S
C2764 C2752 1.349 . S
C2764 H2758 0.950 . S
C2764 C2765 1.327 . S
C2765 H2759 0.950 . S
C2765 C2764 1.327 . S
C2765 C2769 1.429 . S
C2766 C2749 1.574 . S
C2766 H2760 0.949 . S
C2766 C2770 1.368 . S
C2767 C2748 1.429 . S
C2767 C2761 1.429 . S
C2767 C2768 1.523 . S
C2768 C2749 1.368 . S
C2768 C2762 1.368 . S
C2768 C2767 1.523 . S
C2769 C2753 1.429 . S
C2769 C2765 1.429 . S
C2769 C2770 1.523 . S
C2770 C2754 1.368 . S
C2770 C2766 1.368 . S
C2770 C2769 1.523 . S
H2771 C2746 0.950 . S
H2772 C2748 0.950 . S
H2773 C2749 0.949 . S
H2774 C2751 0.950 . S
H2775 C2753 0.950 . S
C2776 C2777 1.349 . S
C2776 C2778 1.327 . S
C2776 H2801 0.950 . S
C2777 C2776 1.349 . S
C2777 C2793 1.349 . S
C2778 C2776 1.327 . S
C2778 C2797 1.429 . S
C2778 H2802 0.950 . S
C2779 C2796 1.574 . S
C2779 C2798 1.368 . S
C2779 H2803 0.949 . S
H2780 C2784 0.949 . S
C2781 C2782 1.349 . S
C2781 C2783 1.327 . S
C2781 H2804 0.950 . S
C2782 C2781 1.349 . S
C2782 C2794 1.349 . S
C2783 C2781 1.327 . S
C2783 C2799 1.429 . S
C2783 H2805 0.950 . S
C2784 H2780 0.949 . S
C2784 C2792 1.574 . S
C2784 C2800 1.368 . S
H2785 C2793 0.950 . S
H2786 C2791 0.950 . S
H2787 C2792 0.949 . S
H2788 C2794 0.950 . S
H2789 C2795 0.950 . S
H2790 C2796 0.949 . S
C2791 H2786 0.950 . S
C2791 C2793 1.327 . S
C2791 C2797 1.429 . S
C2792 C2784 1.574 . S
C2792 H2787 0.949 . S
C2792 C2798 1.368 . S
C2793 C2777 1.349 . S
C2793 H2785 0.950 . S
C2793 C2791 1.327 . S
C2794 C2782 1.349 . S
C2794 H2788 0.950 . S
C2794 C2795 1.327 . S
C2795 H2789 0.950 . S
C2795 C2794 1.327 . S
C2795 C2799 1.429 . S
C2796 C2779 1.574 . S
C2796 H2790 0.949 . S
C2796 C2800 1.368 . S
C2797 C2778 1.429 . S
C2797 C2791 1.429 . S
C2797 C2798 1.523 . S
C2798 C2779 1.368 . S
C2798 C2792 1.368 . S
C2798 C2797 1.523 . S
C2799 C2783 1.429 . S
C2799 C2795 1.429 . S
C2799 C2800 1.523 . S
C2800 C2784 1.368 . S
C2800 C2796 1.368 . S
C2800 C2799 1.523 . S
H2801 C2776 0.950 . S
H2802 C2778 0.950 . S
H2803 C2779 0.949 . S
H2804 C2781 0.950 . S
H2805 C2783 0.950 . S
C2806 C2807 1.349 . S
C2806 C2808 1.327 . S
C2806 H2831 0.950 . S
C2807 C2806 1.349 . S
C2807 C2823 1.349 . S
C2808 C2806 1.327 . S
C2808 C2827 1.429 . S
C2808 H2832 0.950 . S
C2809 C2826 1.574 . S
C2809 C2828 1.368 . S
C2809 H2833 0.949 . S
H2810 C2814 0.949 . S
C2811 C2812 1.349 . S
C2811 C2813 1.327 . S
C2811 H2834 0.950 . S
C2812 C2811 1.349 . S
C2812 C2824 1.349 . S
C2813 C2811 1.327 . S
C2813 C2829 1.429 . S
C2813 H2835 0.950 . S
C2814 H2810 0.949 . S
C2814 C2822 1.574 . S
C2814 C2830 1.368 . S
H2815 C2823 0.950 . S
H2816 C2821 0.950 . S
H2817 C2822 0.949 . S
H2818 C2824 0.950 . S
H2819 C2825 0.950 . S
H2820 C2826 0.949 . S
C2821 H2816 0.950 . S
C2821 C2823 1.327 . S
C2821 C2827 1.429 . S
C2822 C2814 1.574 . S
C2822 H2817 0.949 . S
C2822 C2828 1.368 . S
C2823 C2807 1.349 . S
C2823 H2815 0.950 . S
C2823 C2821 1.327 . S
C2824 C2812 1.349 . S
C2824 H2818 0.950 . S
C2824 C2825 1.327 . S
C2825 H2819 0.950 . S
C2825 C2824 1.327 . S
C2825 C2829 1.429 . S
C2826 C2809 1.574 . S
C2826 H2820 0.949 . S
C2826 C2830 1.368 . S
C2827 C2808 1.429 . S
C2827 C2821 1.429 . S
C2827 C2828 1.523 . S
C2828 C2809 1.368 . S
C2828 C2822 1.368 . S
C2828 C2827 1.523 . S
C2829 C2813 1.429 . S
C2829 C2825 1.429 . S
C2829 C2830 1.523 . S
C2830 C2814 1.368 . S
C2830 C2826 1.368 . S
C2830 C2829 1.523 . S
H2831 C2806 0.950 . S
H2832 C2808 0.950 . S
H2833 C2809 0.949 . S
H2834 C2811 0.950 . S
H2835 C2813 0.950 . S
C2836 C2837 1.349 . S
C2836 C2838 1.327 . S
C2836 H2861 0.950 . S
C2837 C2836 1.349 . S
C2837 C2853 1.349 . S
C2838 C2836 1.327 . S
C2838 C2857 1.429 . S
C2838 H2862 0.950 . S
C2839 C2856 1.574 . S
C2839 C2858 1.368 . S
C2839 H2863 0.949 . S
H2840 C2844 0.949 . S
C2841 C2842 1.349 . S
C2841 C2843 1.327 . S
C2841 H2864 0.950 . S
C2842 C2841 1.349 . S
C2842 C2854 1.349 . S
C2843 C2841 1.327 . S
C2843 C2859 1.429 . S
C2843 H2865 0.950 . S
C2844 H2840 0.949 . S
C2844 C2852 1.574 . S
C2844 C2860 1.368 . S
H2845 C2853 0.950 . S
H2846 C2851 0.950 . S
H2847 C2852 0.949 . S
H2848 C2854 0.950 . S
H2849 C2855 0.950 . S
H2850 C2856 0.949 . S
C2851 H2846 0.950 . S
C2851 C2853 1.327 . S
C2851 C2857 1.429 . S
C2852 C2844 1.574 . S
C2852 H2847 0.949 . S
C2852 C2858 1.368 . S
C2853 C2837 1.349 . S
C2853 H2845 0.950 . S
C2853 C2851 1.327 . S
C2854 C2842 1.349 . S
C2854 H2848 0.950 . S
C2854 C2855 1.327 . S
C2855 H2849 0.950 . S
C2855 C2854 1.327 . S
C2855 C2859 1.429 . S
C2856 C2839 1.574 . S
C2856 H2850 0.949 . S
C2856 C2860 1.368 . S
C2857 C2838 1.429 . S
C2857 C2851 1.429 . S
C2857 C2858 1.523 . S
C2858 C2839 1.368 . S
C2858 C2852 1.368 . S
C2858 C2857 1.523 . S
C2859 C2843 1.429 . S
C2859 C2855 1.429 . S
C2859 C2860 1.523 . S
C2860 C2844 1.368 . S
C2860 C2856 1.368 . S
C2860 C2859 1.523 . S
H2861 C2836 0.950 . S
H2862 C2838 0.950 . S
H2863 C2839 0.949 . S
H2864 C2841 0.950 . S
H2865 C2843 0.950 . S
C2866 C2867 1.349 . S
C2866 C2868 1.327 . S
C2866 H2891 0.950 . S
C2867 C2866 1.349 . S
C2867 C2883 1.349 . S
C2868 C2866 1.327 . S
C2868 C2887 1.429 . S
C2868 H2892 0.950 . S
C2869 C2886 1.574 . S
C2869 C2888 1.368 . S
C2869 H2893 0.949 . S
H2870 C2874 0.949 . S
C2871 C2872 1.349 . S
C2871 C2873 1.327 . S
C2871 H2894 0.950 . S
C2872 C2871 1.349 . S
C2872 C2884 1.349 . S
C2873 C2871 1.327 . S
C2873 C2889 1.429 . S
C2873 H2895 0.950 . S
C2874 H2870 0.949 . S
C2874 C2882 1.574 . S
C2874 C2890 1.368 . S
H2875 C2883 0.950 . S
H2876 C2881 0.950 . S
H2877 C2882 0.949 . S
H2878 C2884 0.950 . S
H2879 C2885 0.950 . S
H2880 C2886 0.949 . S
C2881 H2876 0.950 . S
C2881 C2883 1.327 . S
C2881 C2887 1.429 . S
C2882 C2874 1.574 . S
C2882 H2877 0.949 . S
C2882 C2888 1.368 . S
C2883 C2867 1.349 . S
C2883 H2875 0.950 . S
C2883 C2881 1.327 . S
C2884 C2872 1.349 . S
C2884 H2878 0.950 . S
C2884 C2885 1.327 . S
C2885 H2879 0.950 . S
C2885 C2884 1.327 . S
C2885 C2889 1.429 . S
C2886 C2869 1.574 . S
C2886 H2880 0.949 . S
C2886 C2890 1.368 . S
C2887 C2868 1.429 . S
C2887 C2881 1.429 . S
C2887 C2888 1.523 . S
C2888 C2869 1.368 . S
C2888 C2882 1.368 . S
C2888 C2887 1.523 . S
C2889 C2873 1.429 . S
C2889 C2885 1.429 . S
C2889 C2890 1.523 . S
C2890 C2874 1.368 . S
C2890 C2886 1.368 . S
C2890 C2889 1.523 . S
H2891 C2866 0.950 . S
H2892 C2868 0.950 . S
H2893 C2869 0.949 . S
H2894 C2871 0.950 . S
H2895 C2873 0.950 . S
C2896 C2897 1.349 . S
C2896 C2898 1.327 . S
C2896 H2921 0.950 . S
C2897 C2896 1.349 . S
C2897 C2913 1.349 . S
C2898 C2896 1.327 . S
C2898 C2917 1.429 . S
C2898 H2922 0.950 . S
C2899 C2916 1.574 . S
C2899 C2918 1.368 . S
C2899 H2923 0.949 . S
H2900 C2904 0.949 . S
C2901 C2902 1.349 . S
C2901 C2903 1.327 . S
C2901 H2924 0.950 . S
C2902 C2901 1.349 . S
C2902 C2914 1.349 . S
C2903 C2901 1.327 . S
C2903 C2919 1.429 . S
C2903 H2925 0.950 . S
C2904 H2900 0.949 . S
C2904 C2912 1.574 . S
C2904 C2920 1.368 . S
H2905 C2913 0.950 . S
H2906 C2911 0.950 . S
H2907 C2912 0.949 . S
H2908 C2914 0.950 . S
H2909 C2915 0.950 . S
H2910 C2916 0.949 . S
C2911 H2906 0.950 . S
C2911 C2913 1.327 . S
C2911 C2917 1.429 . S
C2912 C2904 1.574 . S
C2912 H2907 0.949 . S
C2912 C2918 1.368 . S
C2913 C2897 1.349 . S
C2913 H2905 0.950 . S
C2913 C2911 1.327 . S
C2914 C2902 1.349 . S
C2914 H2908 0.950 . S
C2914 C2915 1.327 . S
C2915 H2909 0.950 . S
C2915 C2914 1.327 . S
C2915 C2919 1.429 . S
C2916 C2899 1.574 . S
C2916 H2910 0.949 . S
C2916 C2920 1.368 . S
C2917 C2898 1.429 . S
C2917 C2911 1.429 . S
C2917 C2918 1.523 . S
C2918 C2899 1.368 . S
C2918 C2912 1.368 . S
C2918 C2917 1.523 . S
C2919 C2903 1.429 . S
C2919 C2915 1.429 . S
C2919 C2920 1.523 . S
C2920 C2904 1.368 . S
C2920 C2916 1.368 . S
C2920 C2919 1.523 . S
H2921 C2896 0.950 . S
H2922 C2898 0.950 . S
H2923 C2899 0.949 . S
H2924 C2901 0.950 . S
H2925 C2903 0.950 . S
C2926 C2927 1.349 . S
C2926 C2928 1.327 . S
C2926 H2951 0.950 . S
C2927 C2926 1.349 . S
C2927 C2943 1.349 . S
C2928 C2926 1.327 . S
C2928 C2947 1.429 . S
C2928 H2952 0.950 . S
C2929 C2946 1.574 . S
C2929 C2948 1.368 . S
C2929 H2953 0.949 . S
H2930 C2934 0.949 . S
C2931 C2932 1.349 . S
C2931 C2933 1.327 . S
C2931 H2954 0.950 . S
C2932 C2931 1.349 . S
C2932 C2944 1.349 . S
C2933 C2931 1.327 . S
C2933 C2949 1.429 . S
C2933 H2955 0.950 . S
C2934 H2930 0.949 . S
C2934 C2942 1.574 . S
C2934 C2950 1.368 . S
H2935 C2943 0.950 . S
H2936 C2941 0.950 . S
H2937 C2942 0.949 . S
H2938 C2944 0.950 . S
H2939 C2945 0.950 . S
H2940 C2946 0.949 . S
C2941 H2936 0.950 . S
C2941 C2943 1.327 . S
C2941 C2947 1.429 . S
C2942 C2934 1.574 . S
C2942 H2937 0.949 . S
C2942 C2948 1.368 . S
C2943 C2927 1.349 . S
C2943 H2935 0.950 . S
C2943 C2941 1.327 . S
C2944 C2932 1.349 . S
C2944 H2938 0.950 . S
C2944 C2945 1.327 . S
C2945 H2939 0.950 . S
C2945 C2944 1.327 . S
C2945 C2949 1.429 . S
C2946 C2929 1.574 . S
C2946 H2940 0.949 . S
C2946 C2950 1.368 . S
C2947 C2928 1.429 . S
C2947 C2941 1.429 . S
C2947 C2948 1.523 . S
C2948 C2929 1.368 . S
C2948 C2942 1.368 . S
C2948 C2947 1.523 . S
C2949 C2933 1.429 . S
C2949 C2945 1.429 . S
C2949 C2950 1.523 . S
C2950 C2934 1.368 . S
C2950 C2946 1.368 . S
C2950 C2949 1.523 . S
H2951 C2926 0.950 . S
H2952 C2928 0.950 . S
H2953 C2929 0.949 . S
H2954 C2931 0.950 . S
H2955 C2933 0.950 . S
C2956 C2957 1.349 . S
C2956 C2958 1.327 . S
C2956 H2981 0.950 . S
C2957 C2956 1.349 . S
C2957 C2973 1.349 . S
C2958 C2956 1.327 . S
C2958 C2977 1.429 . S
C2958 H2982 0.950 . S
C2959 C2976 1.574 . S
C2959 C2978 1.368 . S
C2959 H2983 0.949 . S
H2960 C2964 0.949 . S
C2961 C2962 1.349 . S
C2961 C2963 1.327 . S
C2961 H2984 0.950 . S
C2962 C2961 1.349 . S
C2962 C2974 1.349 . S
C2963 C2961 1.327 . S
C2963 C2979 1.429 . S
C2963 H2985 0.950 . S
C2964 H2960 0.949 . S
C2964 C2972 1.574 . S
C2964 C2980 1.368 . S
H2965 C2973 0.950 . S
H2966 C2971 0.950 . S
H2967 C2972 0.949 . S
H2968 C2974 0.950 . S
H2969 C2975 0.950 . S
H2970 C2976 0.949 . S
C2971 H2966 0.950 . S
C2971 C2973 1.327 . S
C2971 C2977 1.429 . S
C2972 C2964 1.574 . S
C2972 H2967 0.949 . S
C2972 C2978 1.368 . S
C2973 C2957 1.349 . S
C2973 H2965 0.950 . S
C2973 C2971 1.327 . S
C2974 C2962 1.349 . S
C2974 H2968 0.950 . S
C2974 C2975 1.327 . S
C2975 H2969 0.950 . S
C2975 C2974 1.327 . S
C2975 C2979 1.429 . S
C2976 C2959 1.574 . S
C2976 H2970 0.949 . S
C2976 C2980 1.368 . S
C2977 C2958 1.429 . S
C2977 C2971 1.429 . S
C2977 C2978 1.523 . S
C2978 C2959 1.368 . S
C2978 C2972 1.368 . S
C2978 C2977 1.523 . S
C2979 C2963 1.429 . S
C2979 C2975 1.429 . S
C2979 C2980 1.523 . S
C2980 C2964 1.368 . S
C2980 C2976 1.368 . S
C2980 C2979 1.523 . S
H2981 C2956 0.950 . S
H2982 C2958 0.950 . S
H2983 C2959 0.949 . S
H2984 C2961 0.950 . S
H2985 C2963 0.950 . S
C2986 C2987 1.349 . S
C2986 C2988 1.327 . S
C2986 H3011 0.950 1_554 S
C2987 C2986 1.349 . S
C2987 C3003 1.349 . S
C2988 C2986 1.327 . S
C2988 C3007 1.429 . S
C2988 H3012 0.950 . S
C2989 C3006 1.574 . S
C2989 C3008 1.368 . S
C2989 H3013 0.949 . S
H2990 C2994 0.949 1_545 S
C2991 C2992 1.349 1_565 S
C2991 C2993 1.327 . S
C2991 H3014 0.950 . S
C2992 C2991 1.349 1_545 S
C2992 C3004 1.349 . S
C2993 C2991 1.327 . S
C2993 C3009 1.429 . S
C2993 H3015 0.950 . S
C2994 H2990 0.949 1_565 S
C2994 C3002 1.574 . S
C2994 C3010 1.368 . S
H2995 C3003 0.950 . S
H2996 C3001 0.950 . S
H2997 C3002 0.949 . S
H2998 C3004 0.950 . S
H2999 C3005 0.950 . S
H3000 C3006 0.949 . S
C3001 H2996 0.950 . S
C3001 C3003 1.327 . S
C3001 C3007 1.429 . S
C3002 C2994 1.574 . S
C3002 H2997 0.949 . S
C3002 C3008 1.368 . S
C3003 C2987 1.349 . S
C3003 H2995 0.950 . S
C3003 C3001 1.327 . S
C3004 C2992 1.349 . S
C3004 H2998 0.950 . S
C3004 C3005 1.327 . S
C3005 H2999 0.950 . S
C3005 C3004 1.327 . S
C3005 C3009 1.429 1_545 S
C3006 C2989 1.574 . S
C3006 H3000 0.949 . S
C3006 C3010 1.368 . S
C3007 C2988 1.429 . S
C3007 C3001 1.429 . S
C3007 C3008 1.523 . S
C3008 C2989 1.368 . S
C3008 C3002 1.368 . S
C3008 C3007 1.523 . S
C3009 C2993 1.429 . S
C3009 C3005 1.429 1_565 S
C3009 C3010 1.523 . S
C3010 C2994 1.368 . S
C3010 C3006 1.368 . S
C3010 C3009 1.523 . S
H3011 C2986 0.950 1_556 S
H3012 C2988 0.950 . S
H3013 C2989 0.949 . S
H3014 C2991 0.950 . S
H3015 C2993 0.950 . S
C3016 C3017 1.349 . S
C3016 C3018 1.327 . S
C3016 H3041 0.950 . S
C3017 C3016 1.349 . S
C3017 C3033 1.349 . S
C3018 C3016 1.327 . S
C3018 C3037 1.429 . S
C3018 H3042 0.950 . S
C3019 C3036 1.574 . S
C3019 C3038 1.368 . S
C3019 H3043 0.949 . S
H3020 C3024 0.949 . S
C3021 C3022 1.349 . S
C3021 C3023 1.327 . S
C3021 H3044 0.950 . S
C3022 C3021 1.349 . S
C3022 C3034 1.349 . S
C3023 C3021 1.327 . S
C3023 C3039 1.429 . S
C3023 H3045 0.950 . S
C3024 H3020 0.949 . S
C3024 C3032 1.574 . S
C3024 C3040 1.368 . S
H3025 C3033 0.950 . S
H3026 C3031 0.950 . S
H3027 C3032 0.949 . S
H3028 C3034 0.950 . S
H3029 C3035 0.950 . S
H3030 C3036 0.949 . S
C3031 H3026 0.950 . S
C3031 C3033 1.327 . S
C3031 C3037 1.429 . S
C3032 C3024 1.574 . S
C3032 H3027 0.949 . S
C3032 C3038 1.368 . S
C3033 C3017 1.349 . S
C3033 H3025 0.950 . S
C3033 C3031 1.327 . S
C3034 C3022 1.349 . S
C3034 H3028 0.950 . S
C3034 C3035 1.327 . S
C3035 H3029 0.950 . S
C3035 C3034 1.327 . S
C3035 C3039 1.429 . S
C3036 C3019 1.574 . S
C3036 H3030 0.949 . S
C3036 C3040 1.368 . S
C3037 C3018 1.429 . S
C3037 C3031 1.429 . S
C3037 C3038 1.523 . S
C3038 C3019 1.368 . S
C3038 C3032 1.368 . S
C3038 C3037 1.523 . S
C3039 C3023 1.429 . S
C3039 C3035 1.429 . S
C3039 C3040 1.523 . S
C3040 C3024 1.368 . S
C3040 C3036 1.368 . S
C3040 C3039 1.523 . S
H3041 C3016 0.950 . S
H3042 C3018 0.950 . S
H3043 C3019 0.949 . S
H3044 C3021 0.950 . S
H3045 C3023 0.950 . S
C3046 C3047 1.349 . S
C3046 C3048 1.327 . S
C3046 H3071 0.950 . S
C3047 C3046 1.349 . S
C3047 C3063 1.349 . S
C3048 C3046 1.327 . S
C3048 C3067 1.429 . S
C3048 H3072 0.950 . S
C3049 C3066 1.574 . S
C3049 C3068 1.368 . S
C3049 H3073 0.949 . S
H3050 C3054 0.949 . S
C3051 C3052 1.349 . S
C3051 C3053 1.327 . S
C3051 H3074 0.950 . S
C3052 C3051 1.349 . S
C3052 C3064 1.349 . S
C3053 C3051 1.327 . S
C3053 C3069 1.429 . S
C3053 H3075 0.950 . S
C3054 H3050 0.949 . S
C3054 C3062 1.574 . S
C3054 C3070 1.368 . S
H3055 C3063 0.950 . S
H3056 C3061 0.950 . S
H3057 C3062 0.949 . S
H3058 C3064 0.950 . S
H3059 C3065 0.950 . S
H3060 C3066 0.949 . S
C3061 H3056 0.950 . S
C3061 C3063 1.327 . S
C3061 C3067 1.429 . S
C3062 C3054 1.574 . S
C3062 H3057 0.949 . S
C3062 C3068 1.368 . S
C3063 C3047 1.349 . S
C3063 H3055 0.950 . S
C3063 C3061 1.327 . S
C3064 C3052 1.349 . S
C3064 H3058 0.950 . S
C3064 C3065 1.327 . S
C3065 H3059 0.950 . S
C3065 C3064 1.327 . S
C3065 C3069 1.429 . S
C3066 C3049 1.574 . S
C3066 H3060 0.949 . S
C3066 C3070 1.368 . S
C3067 C3048 1.429 . S
C3067 C3061 1.429 . S
C3067 C3068 1.523 . S
C3068 C3049 1.368 . S
C3068 C3062 1.368 . S
C3068 C3067 1.523 . S
C3069 C3053 1.429 . S
C3069 C3065 1.429 . S
C3069 C3070 1.523 . S
C3070 C3054 1.368 . S
C3070 C3066 1.368 . S
C3070 C3069 1.523 . S
H3071 C3046 0.950 . S
H3072 C3048 0.950 . S
H3073 C3049 0.949 . S
H3074 C3051 0.950 . S
H3075 C3053 0.950 . S
C3076 C3077 1.349 . S
C3076 C3078 1.327 . S
C3076 H3101 0.950 . S
C3077 C3076 1.349 . S
C3077 C3093 1.349 . S
C3078 C3076 1.327 . S
C3078 C3097 1.429 . S
C3078 H3102 0.950 . S
C3079 C3096 1.574 . S
C3079 C3098 1.368 . S
C3079 H3103 0.949 . S
H3080 C3084 0.949 . S
C3081 C3082 1.349 . S
C3081 C3083 1.327 . S
C3081 H3104 0.950 . S
C3082 C3081 1.349 . S
C3082 C3094 1.349 . S
C3083 C3081 1.327 . S
C3083 C3099 1.429 . S
C3083 H3105 0.950 . S
C3084 H3080 0.949 . S
C3084 C3092 1.574 . S
C3084 C3100 1.368 . S
H3085 C3093 0.950 . S
H3086 C3091 0.950 . S
H3087 C3092 0.949 . S
H3088 C3094 0.950 . S
H3089 C3095 0.950 . S
H3090 C3096 0.949 . S
C3091 H3086 0.950 . S
C3091 C3093 1.327 . S
C3091 C3097 1.429 . S
C3092 C3084 1.574 . S
C3092 H3087 0.949 . S
C3092 C3098 1.368 . S
C3093 C3077 1.349 . S
C3093 H3085 0.950 . S
C3093 C3091 1.327 . S
C3094 C3082 1.349 . S
C3094 H3088 0.950 . S
C3094 C3095 1.327 . S
C3095 H3089 0.950 . S
C3095 C3094 1.327 . S
C3095 C3099 1.429 . S
C3096 C3079 1.574 . S
C3096 H3090 0.949 . S
C3096 C3100 1.368 . S
C3097 C3078 1.429 . S
C3097 C3091 1.429 . S
C3097 C3098 1.523 . S
C3098 C3079 1.368 . S
C3098 C3092 1.368 . S
C3098 C3097 1.523 . S
C3099 C3083 1.429 . S
C3099 C3095 1.429 . S
C3099 C3100 1.523 . S
C3100 C3084 1.368 . S
C3100 C3096 1.368 . S
C3100 C3099 1.523 . S
H3101 C3076 0.950 . S
H3102 C3078 0.950 . S
H3103 C3079 0.949 . S
H3104 C3081 0.950 . S
H3105 C3083 0.950 . S
C3106 C3107 1.349 . S
C3106 C3108 1.327 . S
C3106 H3131 0.950 . S
C3107 C3106 1.349 . S
C3107 C3123 1.349 . S
C3108 C3106 1.327 . S
C3108 C3127 1.429 . S
C3108 H3132 0.950 . S
C3109 C3126 1.574 . S
C3109 C3128 1.368 . S
C3109 H3133 0.949 . S
H3110 C3114 0.949 . S
C3111 C3112 1.349 . S
C3111 C3113 1.327 . S
C3111 H3134 0.950 . S
C3112 C3111 1.349 . S
C3112 C3124 1.349 . S
C3113 C3111 1.327 . S
C3113 C3129 1.429 . S
C3113 H3135 0.950 . S
C3114 H3110 0.949 . S
C3114 C3122 1.574 . S
C3114 C3130 1.368 . S
H3115 C3123 0.950 . S
H3116 C3121 0.950 . S
H3117 C3122 0.949 . S
H3118 C3124 0.950 . S
H3119 C3125 0.950 . S
H3120 C3126 0.949 . S
C3121 H3116 0.950 . S
C3121 C3123 1.327 . S
C3121 C3127 1.429 . S
C3122 C3114 1.574 . S
C3122 H3117 0.949 . S
C3122 C3128 1.368 . S
C3123 C3107 1.349 . S
C3123 H3115 0.950 . S
C3123 C3121 1.327 . S
C3124 C3112 1.349 . S
C3124 H3118 0.950 . S
C3124 C3125 1.327 . S
C3125 H3119 0.950 . S
C3125 C3124 1.327 . S
C3125 C3129 1.429 . S
C3126 C3109 1.574 . S
C3126 H3120 0.949 . S
C3126 C3130 1.368 . S
C3127 C3108 1.429 . S
C3127 C3121 1.429 . S
C3127 C3128 1.523 . S
C3128 C3109 1.368 . S
C3128 C3122 1.368 . S
C3128 C3127 1.523 . S
C3129 C3113 1.429 . S
C3129 C3125 1.429 . S
C3129 C3130 1.523 . S
C3130 C3114 1.368 . S
C3130 C3126 1.368 . S
C3130 C3129 1.523 . S
H3131 C3106 0.950 . S
H3132 C3108 0.950 . S
H3133 C3109 0.949 . S
H3134 C3111 0.950 . S
H3135 C3113 0.950 . S
C3136 C3137 1.349 . S
C3136 C3138 1.327 . S
C3136 H3161 0.950 . S
C3137 C3136 1.349 . S
C3137 C3153 1.349 . S
C3138 C3136 1.327 . S
C3138 C3157 1.429 . S
C3138 H3162 0.950 . S
C3139 C3156 1.574 . S
C3139 C3158 1.368 . S
C3139 H3163 0.949 . S
H3140 C3144 0.949 . S
C3141 C3142 1.349 . S
C3141 C3143 1.327 . S
C3141 H3164 0.950 . S
C3142 C3141 1.349 . S
C3142 C3154 1.349 . S
C3143 C3141 1.327 . S
C3143 C3159 1.429 . S
C3143 H3165 0.950 . S
C3144 H3140 0.949 . S
C3144 C3152 1.574 . S
C3144 C3160 1.368 . S
H3145 C3153 0.950 . S
H3146 C3151 0.950 . S
H3147 C3152 0.949 . S
H3148 C3154 0.950 . S
H3149 C3155 0.950 . S
H3150 C3156 0.949 . S
C3151 H3146 0.950 . S
C3151 C3153 1.327 . S
C3151 C3157 1.429 . S
C3152 C3144 1.574 . S
C3152 H3147 0.949 . S
C3152 C3158 1.368 . S
C3153 C3137 1.349 . S
C3153 H3145 0.950 . S
C3153 C3151 1.327 . S
C3154 C3142 1.349 . S
C3154 H3148 0.950 . S
C3154 C3155 1.327 . S
C3155 H3149 0.950 . S
C3155 C3154 1.327 . S
C3155 C3159 1.429 . S
C3156 C3139 1.574 . S
C3156 H3150 0.949 . S
C3156 C3160 1.368 . S
C3157 C3138 1.429 . S
C3157 C3151 1.429 . S
C3157 C3158 1.523 . S
C3158 C3139 1.368 . S
C3158 C3152 1.368 . S
C3158 C3157 1.523 . S
C3159 C3143 1.429 . S
C3159 C3155 1.429 . S
C3159 C3160 1.523 . S
C3160 C3144 1.368 . S
C3160 C3156 1.368 . S
C3160 C3159 1.523 . S
H3161 C3136 0.950 . S
H3162 C3138 0.950 . S
H3163 C3139 0.949 . S
H3164 C3141 0.950 . S
H3165 C3143 0.950 . S
C3166 C3167 1.349 . S
C3166 C3168 1.327 . S
C3166 H3191 0.950 . S
C3167 C3166 1.349 . S
C3167 C3183 1.349 . S
C3168 C3166 1.327 . S
C3168 C3187 1.429 . S
C3168 H3192 0.950 . S
C3169 C3186 1.574 . S
C3169 C3188 1.368 . S
C3169 H3193 0.949 . S
H3170 C3174 0.949 . S
C3171 C3172 1.349 . S
C3171 C3173 1.327 . S
C3171 H3194 0.950 . S
C3172 C3171 1.349 . S
C3172 C3184 1.349 . S
C3173 C3171 1.327 . S
C3173 C3189 1.429 . S
C3173 H3195 0.950 . S
C3174 H3170 0.949 . S
C3174 C3182 1.574 . S
C3174 C3190 1.368 . S
H3175 C3183 0.950 . S
H3176 C3181 0.950 . S
H3177 C3182 0.949 . S
H3178 C3184 0.950 . S
H3179 C3185 0.950 . S
H3180 C3186 0.949 . S
C3181 H3176 0.950 . S
C3181 C3183 1.327 . S
C3181 C3187 1.429 . S
C3182 C3174 1.574 . S
C3182 H3177 0.949 . S
C3182 C3188 1.368 . S
C3183 C3167 1.349 . S
C3183 H3175 0.950 . S
C3183 C3181 1.327 . S
C3184 C3172 1.349 . S
C3184 H3178 0.950 . S
C3184 C3185 1.327 . S
C3185 H3179 0.950 . S
C3185 C3184 1.327 . S
C3185 C3189 1.429 . S
C3186 C3169 1.574 . S
C3186 H3180 0.949 . S
C3186 C3190 1.368 . S
C3187 C3168 1.429 . S
C3187 C3181 1.429 . S
C3187 C3188 1.523 . S
C3188 C3169 1.368 . S
C3188 C3182 1.368 . S
C3188 C3187 1.523 . S
C3189 C3173 1.429 . S
C3189 C3185 1.429 . S
C3189 C3190 1.523 . S
C3190 C3174 1.368 . S
C3190 C3186 1.368 . S
C3190 C3189 1.523 . S
H3191 C3166 0.950 . S
H3192 C3168 0.950 . S
H3193 C3169 0.949 . S
H3194 C3171 0.950 . S
H3195 C3173 0.950 . S
C3196 C3197 1.349 . S
C3196 C3198 1.327 . S
C3196 H3221 0.950 . S
C3197 C3196 1.349 . S
C3197 C3213 1.349 . S
C3198 C3196 1.327 . S
C3198 C3217 1.429 . S
C3198 H3222 0.950 . S
C3199 C3216 1.574 . S
C3199 C3218 1.368 . S
C3199 H3223 0.949 . S
H3200 C3204 0.949 . S
C3201 C3202 1.349 . S
C3201 C3203 1.327 . S
C3201 H3224 0.950 . S
C3202 C3201 1.349 . S
C3202 C3214 1.349 . S
C3203 C3201 1.327 . S
C3203 C3219 1.429 . S
C3203 H3225 0.950 . S
C3204 H3200 0.949 . S
C3204 C3212 1.574 . S
C3204 C3220 1.368 . S
H3205 C3213 0.950 . S
H3206 C3211 0.950 . S
H3207 C3212 0.949 . S
H3208 C3214 0.950 . S
H3209 C3215 0.950 . S
H3210 C3216 0.949 . S
C3211 H3206 0.950 . S
C3211 C3213 1.327 . S
C3211 C3217 1.429 . S
C3212 C3204 1.574 . S
C3212 H3207 0.949 . S
C3212 C3218 1.368 . S
C3213 C3197 1.349 . S
C3213 H3205 0.950 . S
C3213 C3211 1.327 . S
C3214 C3202 1.349 . S
C3214 H3208 0.950 . S
C3214 C3215 1.327 . S
C3215 H3209 0.950 . S
C3215 C3214 1.327 . S
C3215 C3219 1.429 . S
C3216 C3199 1.574 . S
C3216 H3210 0.949 . S
C3216 C3220 1.368 . S
C3217 C3198 1.429 . S
C3217 C3211 1.429 . S
C3217 C3218 1.523 . S
C3218 C3199 1.368 . S
C3218 C3212 1.368 . S
C3218 C3217 1.523 . S
C3219 C3203 1.429 . S
C3219 C3215 1.429 . S
C3219 C3220 1.523 . S
C3220 C3204 1.368 . S
C3220 C3216 1.368 . S
C3220 C3219 1.523 . S
H3221 C3196 0.950 . S
H3222 C3198 0.950 . S
H3223 C3199 0.949 . S
H3224 C3201 0.950 . S
H3225 C3203 0.950 . S
C3226 C3227 1.349 . S
C3226 C3228 1.327 . S
C3226 H3251 0.950 . S
C3227 C3226 1.349 . S
C3227 C3243 1.349 . S
C3228 C3226 1.327 . S
C3228 C3247 1.429 . S
C3228 H3252 0.950 . S
C3229 C3246 1.574 . S
C3229 C3248 1.368 . S
C3229 H3253 0.949 . S
H3230 C3234 0.949 . S
C3231 C3232 1.349 . S
C3231 C3233 1.327 . S
C3231 H3254 0.950 . S
C3232 C3231 1.349 . S
C3232 C3244 1.349 . S
C3233 C3231 1.327 . S
C3233 C3249 1.429 . S
C3233 H3255 0.950 . S
C3234 H3230 0.949 . S
C3234 C3242 1.574 . S
C3234 C3250 1.368 . S
H3235 C3243 0.950 . S
H3236 C3241 0.950 . S
H3237 C3242 0.949 . S
H3238 C3244 0.950 . S
H3239 C3245 0.950 . S
H3240 C3246 0.949 . S
C3241 H3236 0.950 . S
C3241 C3243 1.327 . S
C3241 C3247 1.429 . S
C3242 C3234 1.574 . S
C3242 H3237 0.949 . S
C3242 C3248 1.368 . S
C3243 C3227 1.349 . S
C3243 H3235 0.950 . S
C3243 C3241 1.327 . S
C3244 C3232 1.349 . S
C3244 H3238 0.950 . S
C3244 C3245 1.327 . S
C3245 H3239 0.950 . S
C3245 C3244 1.327 . S
C3245 C3249 1.429 . S
C3246 C3229 1.574 . S
C3246 H3240 0.949 . S
C3246 C3250 1.368 . S
C3247 C3228 1.429 . S
C3247 C3241 1.429 . S
C3247 C3248 1.523 . S
C3248 C3229 1.368 . S
C3248 C3242 1.368 . S
C3248 C3247 1.523 . S
C3249 C3233 1.429 . S
C3249 C3245 1.429 . S
C3249 C3250 1.523 . S
C3250 C3234 1.368 . S
C3250 C3246 1.368 . S
C3250 C3249 1.523 . S
H3251 C3226 0.950 . S
H3252 C3228 0.950 . S
H3253 C3229 0.949 . S
H3254 C3231 0.950 . S
H3255 C3233 0.950 . S
C3256 C3257 1.349 . S
C3256 C3258 1.327 . S
C3256 H3281 0.950 . S
C3257 C3256 1.349 . S
C3257 C3273 1.349 . S
C3258 C3256 1.327 . S
C3258 C3277 1.429 . S
C3258 H3282 0.950 . S
C3259 C3276 1.574 . S
C3259 C3278 1.368 . S
C3259 H3283 0.949 . S
H3260 C3264 0.949 . S
C3261 C3262 1.349 . S
C3261 C3263 1.327 1_554 S
C3261 H3284 0.950 . S
C3262 C3261 1.349 . S
C3262 C3274 1.349 1_554 S
C3263 C3261 1.327 1_556 S
C3263 C3279 1.429 . S
C3263 H3285 0.941 1_556 S
C3264 H3260 0.949 . S
C3264 C3272 1.574 . S
C3264 C3280 1.368 . S
H3265 C3273 0.950 . S
H3266 C3271 0.950 . S
H3267 C3272 0.949 . S
H3268 C3274 0.950 . S
H3269 C3275 0.950 . S
H3270 C3276 0.949 . S
C3271 H3266 0.950 . S
C3271 C3273 1.327 . S
C3271 C3277 1.429 . S
C3272 C3264 1.574 . S
C3272 H3267 0.949 . S
C3272 C3278 1.368 . S
C3273 C3257 1.349 . S
C3273 H3265 0.950 . S
C3273 C3271 1.327 . S
C3274 C3262 1.349 1_556 S
C3274 H3268 0.950 . S
C3274 C3275 1.327 . S
C3275 H3269 0.950 . S
C3275 C3274 1.327 . S
C3275 C3279 1.429 . S
C3276 C3259 1.574 . S
C3276 H3270 0.949 . S
C3276 C3280 1.368 . S
C3277 C3258 1.429 . S
C3277 C3271 1.429 . S
C3277 C3278 1.523 . S
C3278 C3259 1.368 . S
C3278 C3272 1.368 . S
C3278 C3277 1.523 . S
C3279 C3263 1.429 . S
C3279 C3275 1.429 . S
C3279 C3280 1.523 . S
C3280 C3264 1.368 . S
C3280 C3276 1.368 . S
C3280 C3279 1.523 . S
H3281 C3256 0.950 . S
H3282 C3258 0.950 . S
H3283 C3259 0.949 . S
H3284 C3261 0.950 . S
H3285 C3263 0.941 1_554 S
C3286 C3287 1.349 . S
C3286 C3288 1.327 . S
C3286 H3311 0.950 . S
C3287 C3286 1.349 . S
C3287 C3303 1.349 . S
C3288 C3286 1.327 . S
C3288 C3307 1.429 . S
C3288 H3312 0.950 . S
C3289 C3306 1.574 . S
C3289 C3308 1.368 . S
C3289 H3313 0.949 . S
H3290 C3294 0.949 . S
C3291 C3292 1.349 . S
C3291 C3293 1.327 . S
C3291 H3314 0.950 . S
C3292 C3291 1.349 . S
C3292 C3304 1.349 . S
C3293 C3291 1.327 . S
C3293 C3309 1.429 . S
C3293 H3315 0.950 . S
C3294 H3290 0.949 . S
C3294 C3302 1.574 . S
C3294 C3310 1.368 . S
H3295 C3303 0.950 . S
H3296 C3301 0.950 . S
H3297 C3302 0.949 . S
H3298 C3304 0.950 . S
H3299 C3305 0.950 . S
H3300 C3306 0.949 . S
C3301 H3296 0.950 . S
C3301 C3303 1.327 . S
C3301 C3307 1.429 . S
C3302 C3294 1.574 . S
C3302 H3297 0.949 . S
C3302 C3308 1.368 . S
C3303 C3287 1.349 . S
C3303 H3295 0.950 . S
C3303 C3301 1.327 . S
C3304 C3292 1.349 . S
C3304 H3298 0.950 . S
C3304 C3305 1.327 . S
C3305 H3299 0.950 . S
C3305 C3304 1.327 . S
C3305 C3309 1.429 . S
C3306 C3289 1.574 . S
C3306 H3300 0.949 . S
C3306 C3310 1.368 . S
C3307 C3288 1.429 . S
C3307 C3301 1.429 . S
C3307 C3308 1.523 . S
C3308 C3289 1.368 . S
C3308 C3302 1.368 . S
C3308 C3307 1.523 . S
C3309 C3293 1.429 . S
C3309 C3305 1.429 . S
C3309 C3310 1.523 . S
C3310 C3294 1.368 . S
C3310 C3306 1.368 . S
C3310 C3309 1.523 . S
H3311 C3286 0.950 . S
H3312 C3288 0.950 . S
H3313 C3289 0.949 . S
H3314 C3291 0.950 . S
H3315 C3293 0.950 . S
C3316 C3317 1.349 . S
C3316 C3318 1.327 . S
C3316 H3341 0.950 . S
C3317 C3316 1.349 . S
C3317 C3333 1.349 . S
C3318 C3316 1.327 . S
C3318 C3337 1.429 . S
C3318 H3342 0.950 . S
C3319 C3336 1.574 . S
C3319 C3338 1.368 . S
C3319 H3343 0.949 . S
H3320 C3324 0.949 . S
C3321 C3322 1.349 . S
C3321 C3323 1.327 . S
C3321 H3344 0.950 . S
C3322 C3321 1.349 . S
C3322 C3334 1.349 . S
C3323 C3321 1.327 . S
C3323 C3339 1.429 . S
C3323 H3345 0.950 . S
C3324 H3320 0.949 . S
C3324 C3332 1.574 . S
C3324 C3340 1.368 . S
H3325 C3333 0.950 . S
H3326 C3331 0.950 . S
H3327 C3332 0.949 . S
H3328 C3334 0.950 . S
H3329 C3335 0.950 . S
H3330 C3336 0.949 . S
C3331 H3326 0.950 . S
C3331 C3333 1.327 . S
C3331 C3337 1.429 . S
C3332 C3324 1.574 . S
C3332 H3327 0.949 . S
C3332 C3338 1.368 . S
C3333 C3317 1.349 . S
C3333 H3325 0.950 . S
C3333 C3331 1.327 . S
C3334 C3322 1.349 . S
C3334 H3328 0.950 . S
C3334 C3335 1.327 . S
C3335 H3329 0.950 . S
C3335 C3334 1.327 . S
C3335 C3339 1.429 . S
C3336 C3319 1.574 . S
C3336 H3330 0.949 . S
C3336 C3340 1.368 . S
C3337 C3318 1.429 . S
C3337 C3331 1.429 . S
C3337 C3338 1.523 . S
C3338 C3319 1.368 . S
C3338 C3332 1.368 . S
C3338 C3337 1.523 . S
C3339 C3323 1.429 . S
C3339 C3335 1.429 . S
C3339 C3340 1.523 . S
C3340 C3324 1.368 . S
C3340 C3336 1.368 . S
C3340 C3339 1.523 . S
H3341 C3316 0.950 . S
H3342 C3318 0.950 . S
H3343 C3319 0.949 . S
H3344 C3321 0.950 . S
H3345 C3323 0.950 . S
C3346 C3347 1.349 . S
C3346 C3348 1.327 . S
C3346 H3371 0.950 . S
C3347 C3346 1.349 . S
C3347 C3363 1.349 . S
C3348 C3346 1.327 . S
C3348 C3367 1.429 . S
C3348 H3372 0.950 . S
C3349 C3366 1.574 . S
C3349 C3368 1.368 . S
C3349 H3373 0.949 . S
H3350 C3354 0.949 . S
C3351 C3352 1.349 . S
C3351 C3353 1.327 . S
C3351 H3374 0.950 . S
C3352 C3351 1.349 . S
C3352 C3364 1.349 . S
C3353 C3351 1.327 . S
C3353 C3369 1.429 . S
C3353 H3375 0.950 . S
C3354 H3350 0.949 . S
C3354 C3362 1.574 . S
C3354 C3370 1.368 . S
H3355 C3363 0.950 . S
H3356 C3361 0.950 . S
H3357 C3362 0.949 . S
H3358 C3364 0.950 . S
H3359 C3365 0.950 . S
H3360 C3366 0.949 . S
C3361 H3356 0.950 . S
C3361 C3363 1.327 . S
C3361 C3367 1.429 . S
C3362 C3354 1.574 . S
C3362 H3357 0.949 . S
C3362 C3368 1.368 . S
C3363 C3347 1.349 . S
C3363 H3355 0.950 . S
C3363 C3361 1.327 . S
C3364 C3352 1.349 . S
C3364 H3358 0.950 . S
C3364 C3365 1.327 . S
C3365 H3359 0.950 . S
C3365 C3364 1.327 . S
C3365 C3369 1.429 . S
C3366 C3349 1.574 . S
C3366 H3360 0.949 . S
C3366 C3370 1.368 . S
C3367 C3348 1.429 . S
C3367 C3361 1.429 . S
C3367 C3368 1.523 . S
C3368 C3349 1.368 . S
C3368 C3362 1.368 . S
C3368 C3367 1.523 . S
C3369 C3353 1.429 . S
C3369 C3365 1.429 . S
C3369 C3370 1.523 . S
C3370 C3354 1.368 . S
C3370 C3366 1.368 . S
C3370 C3369 1.523 . S
H3371 C3346 0.950 . S
H3372 C3348 0.950 . S
H3373 C3349 0.949 . S
H3374 C3351 0.950 . S
H3375 C3353 0.950 . S
C3376 C3377 1.349 . S
C3376 C3378 1.327 . S
C3376 H3401 0.950 . S
C3377 C3376 1.349 . S
C3377 C3393 1.349 . S
C3378 C3376 1.327 . S
C3378 C3397 1.429 . S
C3378 H3402 0.950 . S
C3379 C3396 1.574 . S
C3379 C3398 1.368 . S
C3379 H3403 0.949 . S
H3380 C3384 0.949 . S
C3381 C3382 1.349 . S
C3381 C3383 1.327 . S
C3381 H3404 0.950 . S
C3382 C3381 1.349 . S
C3382 C3394 1.349 . S
C3383 C3381 1.327 . S
C3383 C3399 1.429 . S
C3383 H3405 0.950 . S
C3384 H3380 0.949 . S
C3384 C3392 1.574 . S
C3384 C3400 1.368 . S
H3385 C3393 0.950 . S
H3386 C3391 0.950 . S
H3387 C3392 0.949 . S
H3388 C3394 0.950 . S
H3389 C3395 0.950 . S
H3390 C3396 0.949 . S
C3391 H3386 0.950 . S
C3391 C3393 1.327 . S
C3391 C3397 1.429 . S
C3392 C3384 1.574 . S
C3392 H3387 0.949 . S
C3392 C3398 1.368 . S
C3393 C3377 1.349 . S
C3393 H3385 0.950 . S
C3393 C3391 1.327 . S
C3394 C3382 1.349 . S
C3394 H3388 0.950 . S
C3394 C3395 1.327 . S
C3395 H3389 0.950 . S
C3395 C3394 1.327 . S
C3395 C3399 1.429 . S
C3396 C3379 1.574 . S
C3396 H3390 0.949 . S
C3396 C3400 1.368 . S
C3397 C3378 1.429 . S
C3397 C3391 1.429 . S
C3397 C3398 1.523 . S
C3398 C3379 1.368 . S
C3398 C3392 1.368 . S
C3398 C3397 1.523 . S
C3399 C3383 1.429 . S
C3399 C3395 1.429 . S
C3399 C3400 1.523 . S
C3400 C3384 1.368 . S
C3400 C3396 1.368 . S
C3400 C3399 1.523 . S
H3401 C3376 0.950 . S
H3402 C3378 0.950 . S
H3403 C3379 0.949 . S
H3404 C3381 0.950 . S
H3405 C3383 0.950 . S
C3406 C3407 1.349 . S
C3406 C3408 1.327 . S
C3406 H3431 0.950 . S
C3407 C3406 1.349 . S
C3407 C3423 1.349 . S
C3408 C3406 1.327 . S
C3408 C3427 1.429 . S
C3408 H3432 0.950 . S
C3409 C3426 1.574 . S
C3409 C3428 1.368 . S
C3409 H3433 0.949 . S
H3410 C3414 0.949 . S
C3411 C3412 1.349 . S
C3411 C3413 1.327 . S
C3411 H3434 0.950 . S
C3412 C3411 1.349 . S
C3412 C3424 1.349 . S
C3413 C3411 1.327 . S
C3413 C3429 1.429 . S
C3413 H3435 0.950 . S
C3414 H3410 0.949 . S
C3414 C3422 1.574 . S
C3414 C3430 1.368 . S
H3415 C3423 0.950 . S
H3416 C3421 0.950 . S
H3417 C3422 0.949 . S
H3418 C3424 0.950 . S
H3419 C3425 0.950 . S
H3420 C3426 0.949 . S
C3421 H3416 0.950 . S
C3421 C3423 1.327 . S
C3421 C3427 1.429 . S
C3422 C3414 1.574 . S
C3422 H3417 0.949 . S
C3422 C3428 1.368 . S
C3423 C3407 1.349 . S
C3423 H3415 0.950 . S
C3423 C3421 1.327 . S
C3424 C3412 1.349 . S
C3424 H3418 0.950 . S
C3424 C3425 1.327 . S
C3425 H3419 0.950 . S
C3425 C3424 1.327 . S
C3425 C3429 1.429 . S
C3426 C3409 1.574 . S
C3426 H3420 0.949 . S
C3426 C3430 1.368 . S
C3427 C3408 1.429 . S
C3427 C3421 1.429 . S
C3427 C3428 1.523 . S
C3428 C3409 1.368 . S
C3428 C3422 1.368 . S
C3428 C3427 1.523 . S
C3429 C3413 1.429 . S
C3429 C3425 1.429 . S
C3429 C3430 1.523 . S
C3430 C3414 1.368 . S
C3430 C3426 1.368 . S
C3430 C3429 1.523 . S
H3431 C3406 0.950 . S
H3432 C3408 0.950 . S
H3433 C3409 0.949 . S
H3434 C3411 0.950 . S
H3435 C3413 0.950 . S
C3436 C3437 1.349 . S
C3436 C3438 1.327 . S
C3436 H3461 0.950 . S
C3437 C3436 1.349 . S
C3437 C3453 1.349 . S
C3438 C3436 1.327 . S
C3438 C3457 1.429 . S
C3438 H3462 0.950 . S
C3439 C3456 1.574 . S
C3439 C3458 1.368 . S
C3439 H3463 0.949 . S
H3440 C3444 0.890 1_455 S
C3441 C3442 1.349 . S
C3441 C3443 1.327 1_454 S
C3441 H3464 0.982 . S
C3442 C3441 1.349 . S
C3442 C3454 1.349 1_554 S
C3443 C3441 1.327 1_656 S
C3443 C3459 1.429 1_655 S
C3443 H3465 0.950 . S
C3444 H3440 0.890 1_655 S
C3444 C3452 1.602 . S
C3444 C3460 1.407 . S
H3445 C3453 0.950 . S
H3446 C3451 0.950 . S
H3447 C3452 0.949 . S
H3448 C3454 0.950 . S
H3449 C3455 0.950 . S
H3450 C3456 0.949 . S
C3451 H3446 0.950 . S
C3451 C3453 1.327 . S
C3451 C3457 1.429 . S
C3452 C3444 1.602 . S
C3452 H3447 0.949 . S
C3452 C3458 1.368 . S
C3453 C3437 1.349 . S
C3453 H3445 0.950 . S
C3453 C3451 1.327 . S
C3454 C3442 1.349 1_556 S
C3454 H3448 0.950 . S
C3454 C3455 1.327 . S
C3455 H3449 0.950 . S
C3455 C3454 1.327 . S
C3455 C3459 1.429 . S
C3456 C3439 1.574 . S
C3456 H3450 0.949 . S
C3456 C3460 1.368 . S
C3457 C3438 1.429 . S
C3457 C3451 1.429 . S
C3457 C3458 1.523 . S
C3458 C3439 1.368 . S
C3458 C3452 1.368 . S
C3458 C3457 1.523 . S
C3459 C3443 1.429 1_455 S
C3459 C3455 1.429 . S
C3459 C3460 1.523 1_455 S
C3460 C3444 1.407 . S
C3460 C3456 1.368 . S
C3460 C3459 1.523 1_655 S
H3461 C3436 0.950 . S
H3462 C3438 0.950 . S
H3463 C3439 0.949 . S
H3464 C3441 0.982 . S
H3465 C3443 0.950 . S
C3466 C3467 1.349 . S
C3466 C3468 1.327 . S
C3466 H3491 0.950 . S
C3467 C3466 1.349 . S
C3467 C3483 1.349 . S
C3468 C3466 1.327 . S
C3468 C3487 1.429 . S
C3468 H3492 0.950 . S
C3469 C3486 1.574 . S
C3469 C3488 1.368 . S
C3469 H3493 0.949 . S
H3470 C3474 0.949 . S
C3471 C3472 1.349 . S
C3471 C3473 1.327 . S
C3471 H3494 0.950 . S
C3472 C3471 1.349 . S
C3472 C3484 1.349 . S
C3473 C3471 1.327 . S
C3473 C3489 1.429 . S
C3473 H3495 0.950 . S
C3474 H3470 0.949 . S
C3474 C3482 1.574 . S
C3474 C3490 1.368 . S
H3475 C3483 0.950 . S
H3476 C3481 0.950 . S
H3477 C3482 0.949 . S
H3478 C3484 0.950 . S
H3479 C3485 0.950 . S
H3480 C3486 0.949 . S
C3481 H3476 0.950 . S
C3481 C3483 1.327 . S
C3481 C3487 1.429 . S
C3482 C3474 1.574 . S
C3482 H3477 0.949 . S
C3482 C3488 1.368 . S
C3483 C3467 1.349 . S
C3483 H3475 0.950 . S
C3483 C3481 1.327 . S
C3484 C3472 1.349 . S
C3484 H3478 0.950 . S
C3484 C3485 1.327 . S
C3485 H3479 0.950 . S
C3485 C3484 1.327 . S
C3485 C3489 1.429 . S
C3486 C3469 1.574 . S
C3486 H3480 0.949 . S
C3486 C3490 1.368 . S
C3487 C3468 1.429 . S
C3487 C3481 1.429 . S
C3487 C3488 1.523 . S
C3488 C3469 1.368 . S
C3488 C3482 1.368 . S
C3488 C3487 1.523 . S
C3489 C3473 1.429 . S
C3489 C3485 1.429 . S
C3489 C3490 1.523 . S
C3490 C3474 1.368 . S
C3490 C3486 1.368 . S
C3490 C3489 1.523 . S
H3491 C3466 0.950 . S
H3492 C3468 0.950 . S
H3493 C3469 0.949 . S
H3494 C3471 0.950 . S
H3495 C3473 0.950 . S
C3496 C3497 1.349 . S
C3496 C3498 1.327 . S
C3496 H3521 0.950 . S
C3497 C3496 1.349 . S
C3497 C3513 1.349 . S
C3498 C3496 1.327 . S
C3498 C3517 1.429 . S
C3498 H3522 0.950 . S
C3499 C3516 1.574 . S
C3499 C3518 1.368 . S
C3499 H3523 0.949 . S
H3500 C3504 0.949 . S
C3501 C3502 1.349 . S
C3501 C3503 1.327 . S
C3501 H3524 0.950 . S
C3502 C3501 1.349 . S
C3502 C3514 1.349 . S
C3503 C3501 1.327 . S
C3503 C3519 1.429 . S
C3503 H3525 0.950 . S
C3504 H3500 0.949 . S
C3504 C3512 1.574 . S
C3504 C3520 1.368 . S
H3505 C3513 0.950 . S
H3506 C3511 0.950 . S
H3507 C3512 0.949 . S
H3508 C3514 0.950 . S
H3509 C3515 0.950 . S
H3510 C3516 0.949 . S
C3511 H3506 0.950 . S
C3511 C3513 1.327 . S
C3511 C3517 1.429 . S
C3512 C3504 1.574 . S
C3512 H3507 0.949 . S
C3512 C3518 1.368 . S
C3513 C3497 1.349 . S
C3513 H3505 0.950 . S
C3513 C3511 1.327 . S
C3514 C3502 1.349 . S
C3514 H3508 0.950 . S
C3514 C3515 1.327 . S
C3515 H3509 0.950 . S
C3515 C3514 1.327 . S
C3515 C3519 1.429 . S
C3516 C3499 1.574 . S
C3516 H3510 0.949 . S
C3516 C3520 1.368 . S
C3517 C3498 1.429 . S
C3517 C3511 1.429 . S
C3517 C3518 1.523 . S
C3518 C3499 1.368 . S
C3518 C3512 1.368 . S
C3518 C3517 1.523 . S
C3519 C3503 1.429 . S
C3519 C3515 1.429 . S
C3519 C3520 1.523 . S
C3520 C3504 1.368 . S
C3520 C3516 1.368 . S
C3520 C3519 1.523 . S
H3521 C3496 0.950 . S
H3522 C3498 0.950 . S
H3523 C3499 0.949 . S
H3524 C3501 0.950 . S
H3525 C3503 0.950 . S
C3526 C3527 1.349 . S
C3526 C3528 1.327 . S
C3526 H3551 0.950 . S
C3527 C3526 1.349 . S
C3527 C3543 1.349 . S
C3528 C3526 1.327 . S
C3528 C3547 1.429 . S
C3528 H3552 0.950 . S
C3529 C3546 1.574 . S
C3529 C3548 1.368 . S
C3529 H3553 0.949 . S
H3530 C3534 0.949 . S
C3531 C3532 1.349 . S
C3531 C3533 1.327 . S
C3531 H3554 0.950 . S
C3532 C3531 1.349 . S
C3532 C3544 1.349 . S
C3533 C3531 1.327 . S
C3533 C3549 1.429 . S
C3533 H3555 0.950 . S
C3534 H3530 0.949 . S
C3534 C3542 1.574 . S
C3534 C3550 1.368 . S
H3535 C3543 0.950 . S
H3536 C3541 0.950 . S
H3537 C3542 0.949 . S
H3538 C3544 0.950 . S
H3539 C3545 0.950 . S
H3540 C3546 0.949 . S
C3541 H3536 0.950 . S
C3541 C3543 1.327 . S
C3541 C3547 1.429 . S
C3542 C3534 1.574 . S
C3542 H3537 0.949 . S
C3542 C3548 1.368 . S
C3543 C3527 1.349 . S
C3543 H3535 0.950 . S
C3543 C3541 1.327 . S
C3544 C3532 1.349 . S
C3544 H3538 0.950 . S
C3544 C3545 1.327 . S
C3545 H3539 0.950 . S
C3545 C3544 1.327 . S
C3545 C3549 1.429 . S
C3546 C3529 1.574 . S
C3546 H3540 0.949 . S
C3546 C3550 1.368 . S
C3547 C3528 1.429 . S
C3547 C3541 1.429 . S
C3547 C3548 1.523 . S
C3548 C3529 1.368 . S
C3548 C3542 1.368 . S
C3548 C3547 1.523 . S
C3549 C3533 1.429 . S
C3549 C3545 1.429 . S
C3549 C3550 1.523 . S
C3550 C3534 1.368 . S
C3550 C3546 1.368 . S
C3550 C3549 1.523 . S
H3551 C3526 0.950 . S
H3552 C3528 0.950 . S
H3553 C3529 0.949 . S
H3554 C3531 0.950 . S
H3555 C3533 0.950 . S
C3556 C3557 1.349 . S
C3556 C3558 1.327 . S
C3556 H3581 0.950 . S
C3557 C3556 1.349 . S
C3557 C3573 1.349 . S
C3558 C3556 1.327 . S
C3558 C3577 1.429 . S
C3558 H3582 0.950 . S
C3559 C3576 1.574 . S
C3559 C3578 1.368 . S
C3559 H3583 0.949 . S
H3560 C3564 0.949 . S
C3561 C3562 1.349 1_655 S
C3561 C3563 1.327 . S
C3561 H3584 0.950 . S
C3562 C3561 1.349 1_455 S
C3562 C3574 1.349 . S
C3563 C3561 1.327 . S
C3563 C3579 1.429 . S
C3563 H3585 0.950 . S
C3564 H3560 0.949 . S
C3564 C3572 1.574 . S
C3564 C3580 1.368 . S
H3565 C3573 0.950 . S
H3566 C3571 0.950 . S
H3567 C3572 0.949 . S
H3568 C3574 0.950 . S
H3569 C3575 0.950 1_455 S
H3570 C3576 0.949 . S
C3571 H3566 0.950 . S
C3571 C3573 1.327 . S
C3571 C3577 1.429 . S
C3572 C3564 1.574 . S
C3572 H3567 0.949 . S
C3572 C3578 1.368 . S
C3573 C3557 1.349 . S
C3573 H3565 0.950 . S
C3573 C3571 1.327 . S
C3574 C3562 1.349 . S
C3574 H3568 0.950 . S
C3574 C3575 1.328 1_455 S
C3575 H3569 0.950 1_655 S
C3575 C3574 1.328 1_655 S
C3575 C3579 1.427 . S
C3576 C3559 1.574 . S
C3576 H3570 0.949 . S
C3576 C3580 1.368 . S
C3577 C3558 1.429 . S
C3577 C3571 1.429 . S
C3577 C3578 1.523 . S
C3578 C3559 1.368 . S
C3578 C3572 1.368 . S
C3578 C3577 1.523 . S
C3579 C3563 1.429 . S
C3579 C3575 1.427 . S
C3579 C3580 1.523 . S
C3580 C3564 1.368 . S
C3580 C3576 1.368 . S
C3580 C3579 1.523 . S
H3581 C3556 0.950 . S
H3582 C3558 0.950 . S
H3583 C3559 0.949 . S
H3584 C3561 0.950 . S
H3585 C3563 0.950 . S
C3586 C3587 1.349 . S
C3586 C3588 1.327 . S
C3586 H3611 0.950 . S
C3587 C3586 1.349 . S
C3587 C3603 1.349 . S
C3588 C3586 1.327 . S
C3588 C3607 1.429 . S
C3588 H3612 0.950 . S
C3589 C3606 1.574 . S
C3589 C3608 1.368 . S
C3589 H3613 0.949 . S
H3590 C3594 0.949 . S
C3591 C3592 1.349 . S
C3591 C3593 1.327 . S
C3591 H3614 0.950 . S
C3592 C3591 1.349 . S
C3592 C3604 1.349 . S
C3593 C3591 1.327 . S
C3593 C3609 1.429 . S
C3593 H3615 0.950 . S
C3594 H3590 0.949 . S
C3594 C3602 1.574 . S
C3594 C3610 1.368 . S
H3595 C3603 0.950 . S
H3596 C3601 0.950 . S
H3597 C3602 0.949 . S
H3598 C3604 0.950 . S
H3599 C3605 0.950 . S
H3600 C3606 0.949 . S
C3601 H3596 0.950 . S
C3601 C3603 1.327 . S
C3601 C3607 1.429 . S
C3602 C3594 1.574 . S
C3602 H3597 0.949 . S
C3602 C3608 1.368 . S
C3603 C3587 1.349 . S
C3603 H3595 0.950 . S
C3603 C3601 1.327 . S
C3604 C3592 1.349 . S
C3604 H3598 0.950 . S
C3604 C3605 1.327 . S
C3605 H3599 0.950 . S
C3605 C3604 1.327 . S
C3605 C3609 1.429 . S
C3606 C3589 1.574 . S
C3606 H3600 0.949 . S
C3606 C3610 1.368 . S
C3607 C3588 1.429 . S
C3607 C3601 1.429 . S
C3607 C3608 1.523 . S
C3608 C3589 1.368 . S
C3608 C3602 1.368 . S
C3608 C3607 1.523 . S
C3609 C3593 1.429 . S
C3609 C3605 1.429 . S
C3609 C3610 1.523 . S
C3610 C3594 1.368 . S
C3610 C3606 1.368 . S
C3610 C3609 1.523 . S
H3611 C3586 0.950 . S
H3612 C3588 0.950 . S
H3613 C3589 0.949 . S
H3614 C3591 0.950 . S
H3615 C3593 0.950 . S
C3616 C3617 1.349 . S
C3616 C3618 1.327 . S
C3616 H3641 0.950 . S
C3617 C3616 1.349 . S
C3617 C3633 1.349 . S
C3618 C3616 1.327 . S
C3618 C3637 1.429 . S
C3618 H3642 0.950 . S
C3619 C3636 1.574 . S
C3619 C3638 1.368 . S
C3619 H3643 0.949 . S
H3620 C3624 0.949 . S
C3621 C3622 1.349 . S
C3621 C3623 1.327 . S
C3621 H3644 0.950 . S
C3622 C3621 1.349 . S
C3622 C3634 1.349 . S
C3623 C3621 1.327 . S
C3623 C3639 1.429 . S
C3623 H3645 0.950 . S
C3624 H3620 0.949 . S
C3624 C3632 1.574 . S
C3624 C3640 1.368 . S
H3625 C3633 0.950 . S
H3626 C3631 0.950 . S
H3627 C3632 0.949 . S
H3628 C3634 0.950 . S
H3629 C3635 0.950 . S
H3630 C3636 0.949 . S
C3631 H3626 0.950 . S
C3631 C3633 1.327 . S
C3631 C3637 1.429 . S
C3632 C3624 1.574 . S
C3632 H3627 0.949 . S
C3632 C3638 1.368 . S
C3633 C3617 1.349 . S
C3633 H3625 0.950 . S
C3633 C3631 1.327 . S
C3634 C3622 1.349 . S
C3634 H3628 0.950 . S
C3634 C3635 1.327 . S
C3635 H3629 0.950 . S
C3635 C3634 1.327 . S
C3635 C3639 1.429 . S
C3636 C3619 1.574 . S
C3636 H3630 0.949 . S
C3636 C3640 1.368 . S
C3637 C3618 1.429 . S
C3637 C3631 1.429 . S
C3637 C3638 1.523 . S
C3638 C3619 1.368 . S
C3638 C3632 1.368 . S
C3638 C3637 1.523 . S
C3639 C3623 1.429 . S
C3639 C3635 1.429 . S
C3639 C3640 1.523 . S
C3640 C3624 1.368 . S
C3640 C3636 1.368 . S
C3640 C3639 1.523 . S
H3641 C3616 0.950 . S
H3642 C3618 0.950 . S
H3643 C3619 0.949 . S
H3644 C3621 0.950 . S
H3645 C3623 0.950 . S
C3646 C3647 1.349 . S
C3646 C3648 1.327 . S
C3646 H3671 0.950 . S
C3647 C3646 1.349 . S
C3647 C3663 1.349 . S
C3648 C3646 1.327 . S
C3648 C3667 1.429 . S
C3648 H3672 0.950 . S
C3649 C3666 1.574 . S
C3649 C3668 1.368 . S
C3649 H3673 0.949 . S
H3650 C3654 0.949 . S
C3651 C3652 1.349 . S
C3651 C3653 1.327 . S
C3651 H3674 0.950 . S
C3652 C3651 1.349 . S
C3652 C3664 1.349 . S
C3653 C3651 1.327 . S
C3653 C3669 1.429 . S
C3653 H3675 0.950 . S
C3654 H3650 0.949 . S
C3654 C3662 1.574 . S
C3654 C3670 1.368 . S
H3655 C3663 0.950 . S
H3656 C3661 0.950 . S
H3657 C3662 0.949 . S
H3658 C3664 0.963 . S
H3659 C3665 0.950 . S
H3660 C3666 0.949 . S
C3661 H3656 0.950 . S
C3661 C3663 1.327 . S
C3661 C3667 1.429 . S
C3662 C3654 1.574 . S
C3662 H3657 0.949 . S
C3662 C3668 1.368 . S
C3663 C3647 1.349 . S
C3663 H3655 0.950 . S
C3663 C3661 1.327 . S
C3664 C3652 1.349 . S
C3664 H3658 0.963 . S
C3664 C3665 1.327 . S
C3665 H3659 0.950 . S
C3665 C3664 1.327 . S
C3665 C3669 1.429 . S
C3666 C3649 1.574 . S
C3666 H3660 0.949 . S
C3666 C3670 1.368 . S
C3667 C3648 1.429 . S
C3667 C3661 1.429 . S
C3667 C3668 1.523 . S
C3668 C3649 1.368 . S
C3668 C3662 1.368 . S
C3668 C3667 1.523 . S
C3669 C3653 1.429 . S
C3669 C3665 1.429 . S
C3669 C3670 1.523 . S
C3670 C3654 1.368 . S
C3670 C3666 1.368 . S
C3670 C3669 1.523 . S
H3671 C3646 0.950 . S
H3672 C3648 0.950 . S
H3673 C3649 0.949 . S
H3674 C3651 0.950 . S
H3675 C3653 0.950 . S
C3676 C3677 1.349 . S
C3676 C3678 1.327 . S
C3676 H3701 0.950 . S
C3677 C3676 1.349 . S
C3677 C3693 1.349 . S
C3678 C3676 1.327 . S
C3678 C3697 1.429 . S
C3678 H3702 0.950 . S
C3679 C3696 1.574 . S
C3679 C3698 1.368 . S
C3679 H3703 0.949 . S
H3680 C3684 0.949 . S
C3681 C3682 1.349 . S
C3681 C3683 1.327 . S
C3681 H3704 0.950 . S
C3682 C3681 1.349 . S
C3682 C3694 1.349 . S
C3683 C3681 1.327 . S
C3683 C3699 1.429 . S
C3683 H3705 0.950 . S
C3684 H3680 0.949 . S
C3684 C3692 1.574 . S
C3684 C3700 1.368 . S
H3685 C3693 0.950 . S
H3686 C3691 0.950 . S
H3687 C3692 0.949 . S
H3688 C3694 0.950 . S
H3689 C3695 0.950 . S
H3690 C3696 0.949 . S
C3691 H3686 0.950 . S
C3691 C3693 1.327 . S
C3691 C3697 1.429 . S
C3692 C3684 1.574 . S
C3692 H3687 0.949 . S
C3692 C3698 1.368 . S
C3693 C3677 1.349 . S
C3693 H3685 0.950 . S
C3693 C3691 1.327 . S
C3694 C3682 1.349 . S
C3694 H3688 0.950 . S
C3694 C3695 1.327 . S
C3695 H3689 0.950 . S
C3695 C3694 1.327 . S
C3695 C3699 1.429 . S
C3696 C3679 1.574 . S
C3696 H3690 0.949 . S
C3696 C3700 1.368 . S
C3697 C3678 1.429 . S
C3697 C3691 1.429 . S
C3697 C3698 1.523 . S
C3698 C3679 1.368 . S
C3698 C3692 1.368 . S
C3698 C3697 1.523 . S
C3699 C3683 1.429 . S
C3699 C3695 1.429 . S
C3699 C3700 1.523 . S
C3700 C3684 1.368 . S
C3700 C3696 1.368 . S
C3700 C3699 1.523 . S
H3701 C3676 0.950 . S
H3702 C3678 0.950 . S
H3703 C3679 0.949 . S
H3704 C3681 0.950 . S
H3705 C3683 0.950 . S
C3706 C3707 1.349 . S
C3706 C3708 1.327 . S
C3706 H3731 0.950 . S
C3707 C3706 1.349 . S
C3707 C3723 1.349 . S
C3708 C3706 1.327 . S
C3708 C3727 1.429 . S
C3708 H3732 0.950 . S
C3709 C3726 1.574 . S
C3709 C3728 1.368 . S
C3709 H3733 0.949 . S
H3710 C3714 0.949 . S
C3711 C3712 1.349 . S
C3711 C3713 1.327 . S
C3711 H3734 0.950 . S
C3712 C3711 1.349 . S
C3712 C3724 1.349 . S
C3713 C3711 1.327 . S
C3713 C3729 1.429 . S
C3713 H3735 0.950 . S
C3714 H3710 0.949 . S
C3714 C3722 1.574 . S
C3714 C3730 1.368 . S
H3715 C3723 0.950 . S
H3716 C3721 0.950 . S
H3717 C3722 0.949 . S
H3718 C3724 0.950 . S
H3719 C3725 0.950 . S
H3720 C3726 0.949 . S
C3721 H3716 0.950 . S
C3721 C3723 1.327 . S
C3721 C3727 1.429 . S
C3722 C3714 1.574 . S
C3722 H3717 0.949 . S
C3722 C3728 1.368 . S
C3723 C3707 1.349 . S
C3723 H3715 0.950 . S
C3723 C3721 1.327 . S
C3724 C3712 1.349 . S
C3724 H3718 0.950 . S
C3724 C3725 1.327 . S
C3725 H3719 0.950 . S
C3725 C3724 1.327 . S
C3725 C3729 1.429 . S
C3726 C3709 1.574 . S
C3726 H3720 0.949 . S
C3726 C3730 1.368 . S
C3727 C3708 1.429 . S
C3727 C3721 1.429 . S
C3727 C3728 1.523 . S
C3728 C3709 1.368 . S
C3728 C3722 1.368 . S
C3728 C3727 1.523 . S
C3729 C3713 1.429 . S
C3729 C3725 1.429 . S
C3729 C3730 1.523 . S
C3730 C3714 1.368 . S
C3730 C3726 1.368 . S
C3730 C3729 1.523 . S
H3731 C3706 0.950 . S
H3732 C3708 0.950 . S
H3733 C3709 0.949 . S
H3734 C3711 0.950 . S
H3735 C3713 0.950 . S
C3736 C3737 1.349 . S
C3736 C3738 1.327 . S
C3736 H3761 0.950 . S
C3737 C3736 1.349 . S
C3737 C3753 1.349 . S
C3738 C3736 1.327 . S
C3738 C3757 1.429 . S
C3738 H3762 0.950 . S
C3739 C3756 1.574 . S
C3739 C3758 1.368 . S
C3739 H3763 0.949 . S
H3740 C3744 0.949 . S
C3741 C3742 1.349 . S
C3741 C3743 1.327 . S
C3741 H3764 0.950 . S
C3742 C3741 1.349 . S
C3742 C3754 1.349 . S
C3743 C3741 1.327 . S
C3743 C3759 1.429 . S
C3743 H3765 0.950 . S
C3744 H3740 0.949 . S
C3744 C3752 1.574 . S
C3744 C3760 1.368 . S
H3745 C3753 0.950 . S
H3746 C3751 0.950 . S
H3747 C3752 0.949 . S
H3748 C3754 0.950 . S
H3749 C3755 0.950 . S
H3750 C3756 0.949 . S
C3751 H3746 0.950 . S
C3751 C3753 1.327 . S
C3751 C3757 1.429 . S
C3752 C3744 1.574 . S
C3752 H3747 0.949 . S
C3752 C3758 1.368 . S
C3753 C3737 1.349 . S
C3753 H3745 0.950 . S
C3753 C3751 1.327 . S
C3754 C3742 1.349 . S
C3754 H3748 0.950 . S
C3754 C3755 1.327 . S
C3755 H3749 0.950 . S
C3755 C3754 1.327 . S
C3755 C3759 1.429 . S
C3756 C3739 1.574 . S
C3756 H3750 0.949 . S
C3756 C3760 1.368 . S
C3757 C3738 1.429 . S
C3757 C3751 1.429 . S
C3757 C3758 1.523 . S
C3758 C3739 1.368 . S
C3758 C3752 1.368 . S
C3758 C3757 1.523 . S
C3759 C3743 1.429 . S
C3759 C3755 1.429 . S
C3759 C3760 1.523 . S
C3760 C3744 1.368 . S
C3760 C3756 1.368 . S
C3760 C3759 1.523 . S
H3761 C3736 0.950 . S
H3762 C3738 0.950 . S
H3763 C3739 0.949 . S
H3764 C3741 0.950 . S
H3765 C3743 0.950 . S
C3766 C3767 1.349 . S
C3766 C3768 1.327 . S
C3766 H3791 0.950 . S
C3767 C3766 1.349 . S
C3767 C3783 1.349 . S
C3768 C3766 1.327 . S
C3768 C3787 1.429 . S
C3768 H3792 0.950 . S
C3769 C3786 1.574 . S
C3769 C3788 1.368 . S
C3769 H3793 0.949 . S
H3770 C3774 0.949 . S
C3771 C3772 1.349 . S
C3771 C3773 1.327 . S
C3771 H3794 0.950 . S
C3772 C3771 1.349 . S
C3772 C3784 1.349 . S
C3773 C3771 1.327 . S
C3773 C3789 1.429 . S
C3773 H3795 0.950 . S
C3774 H3770 0.949 . S
C3774 C3782 1.574 . S
C3774 C3790 1.368 . S
H3775 C3783 0.950 . S
H3776 C3781 0.950 . S
H3777 C3782 0.949 . S
H3778 C3784 0.950 . S
H3779 C3785 0.950 . S
H3780 C3786 0.949 . S
C3781 H3776 0.950 . S
C3781 C3783 1.327 . S
C3781 C3787 1.429 . S
C3782 C3774 1.574 . S
C3782 H3777 0.949 . S
C3782 C3788 1.368 . S
C3783 C3767 1.349 . S
C3783 H3775 0.950 . S
C3783 C3781 1.327 . S
C3784 C3772 1.349 . S
C3784 H3778 0.950 . S
C3784 C3785 1.327 . S
C3785 H3779 0.950 . S
C3785 C3784 1.327 . S
C3785 C3789 1.429 . S
C3786 C3769 1.574 . S
C3786 H3780 0.949 . S
C3786 C3790 1.368 . S
C3787 C3768 1.429 . S
C3787 C3781 1.429 . S
C3787 C3788 1.523 . S
C3788 C3769 1.368 . S
C3788 C3782 1.368 . S
C3788 C3787 1.523 . S
C3789 C3773 1.429 . S
C3789 C3785 1.429 . S
C3789 C3790 1.523 . S
C3790 C3774 1.368 . S
C3790 C3786 1.368 . S
C3790 C3789 1.523 . S
H3791 C3766 0.950 . S
H3792 C3768 0.950 . S
H3793 C3769 0.949 . S
H3794 C3771 0.950 . S
H3795 C3773 0.950 . S
C3796 C3797 1.349 . S
C3796 C3798 1.327 . S
C3796 H3821 0.950 . S
C3797 C3796 1.349 . S
C3797 C3813 1.349 . S
C3798 C3796 1.327 . S
C3798 C3817 1.429 . S
C3798 H3822 0.950 . S
C3799 C3816 1.574 . S
C3799 C3818 1.368 . S
C3799 H3823 0.949 . S
H3800 C3804 0.949 . S
C3801 C3802 1.349 . S
C3801 C3803 1.327 . S
C3801 H3824 0.950 . S
C3802 C3801 1.349 . S
C3802 C3814 1.349 . S
C3803 C3801 1.327 . S
C3803 C3819 1.429 . S
C3803 H3825 0.950 . S
C3804 H3800 0.949 . S
C3804 C3812 1.574 . S
C3804 C3820 1.368 . S
H3805 C3813 0.950 . S
H3806 C3811 0.950 . S
H3807 C3812 0.949 . S
H3808 C3814 0.950 . S
H3809 C3815 0.950 . S
H3810 C3816 0.949 . S
C3811 H3806 0.950 . S
C3811 C3813 1.327 . S
C3811 C3817 1.429 . S
C3812 C3804 1.574 . S
C3812 H3807 0.949 . S
C3812 C3818 1.368 . S
C3813 C3797 1.349 . S
C3813 H3805 0.950 . S
C3813 C3811 1.327 . S
C3814 C3802 1.349 . S
C3814 H3808 0.950 . S
C3814 C3815 1.327 . S
C3815 H3809 0.950 . S
C3815 C3814 1.327 . S
C3815 C3819 1.429 . S
C3816 C3799 1.574 . S
C3816 H3810 0.949 . S
C3816 C3820 1.368 . S
C3817 C3798 1.429 . S
C3817 C3811 1.429 . S
C3817 C3818 1.523 . S
C3818 C3799 1.368 . S
C3818 C3812 1.368 . S
C3818 C3817 1.523 . S
C3819 C3803 1.429 . S
C3819 C3815 1.429 . S
C3819 C3820 1.523 . S
C3820 C3804 1.368 . S
C3820 C3816 1.368 . S
C3820 C3819 1.523 . S
H3821 C3796 0.950 . S
H3822 C3798 0.950 . S
H3823 C3799 0.949 . S
H3824 C3801 0.950 . S
H3825 C3803 0.950 . S
C3826 C3827 1.349 . S
C3826 C3828 1.327 . S
C3826 H3851 0.950 . S
C3827 C3826 1.349 . S
C3827 C3843 1.349 . S
C3828 C3826 1.327 . S
C3828 C3847 1.429 . S
C3828 H3852 0.950 . S
C3829 C3846 1.574 . S
C3829 C3848 1.368 . S
C3829 H3853 0.949 . S
H3830 C3834 0.949 . S
C3831 C3832 1.349 . S
C3831 C3833 1.327 . S
C3831 H3854 0.950 . S
C3832 C3831 1.349 . S
C3832 C3844 1.349 . S
C3833 C3831 1.327 . S
C3833 C3849 1.429 . S
C3833 H3855 0.950 . S
C3834 H3830 0.949 . S
C3834 C3842 1.574 . S
C3834 C3850 1.368 . S
H3835 C3843 0.950 . S
H3836 C3841 0.950 . S
H3837 C3842 0.949 . S
H3838 C3844 0.950 . S
H3839 C3845 0.950 . S
H3840 C3846 0.949 . S
C3841 H3836 0.950 . S
C3841 C3843 1.327 . S
C3841 C3847 1.429 . S
C3842 C3834 1.574 . S
C3842 H3837 0.949 . S
C3842 C3848 1.368 . S
C3843 C3827 1.349 . S
C3843 H3835 0.950 . S
C3843 C3841 1.327 . S
C3844 C3832 1.349 . S
C3844 H3838 0.950 . S
C3844 C3845 1.327 . S
C3845 H3839 0.950 . S
C3845 C3844 1.327 . S
C3845 C3849 1.429 . S
C3846 C3829 1.574 . S
C3846 H3840 0.949 . S
C3846 C3850 1.368 . S
C3847 C3828 1.429 . S
C3847 C3841 1.429 . S
C3847 C3848 1.523 . S
C3848 C3829 1.368 . S
C3848 C3842 1.368 . S
C3848 C3847 1.523 . S
C3849 C3833 1.429 . S
C3849 C3845 1.429 . S
C3849 C3850 1.523 . S
C3850 C3834 1.368 . S
C3850 C3846 1.368 . S
C3850 C3849 1.523 . S
H3851 C3826 0.950 . S
H3852 C3828 0.950 . S
H3853 C3829 0.949 . S
H3854 C3831 0.950 . S
H3855 C3833 0.950 . S
C977 C106 2.390 . S
C982 C367 2.386 . S
C1007 C65 1.684 . S
C1012 C378 1.676 . S
C1037 C79 1.956 . S
C1042 C447 1.925 . S
C1072 C460 0.996 . S
C1067 C90 0.987 . S
C1097 C21 2.226 . S
C1102 C516 2.263 . S
C1132 C567 1.951 . S
C1127 C35 1.941 . S
C1162 C596 2.446 . S
C1157 C50 2.468 . S
C1187 C6 2.316 . S
C1192 C647 2.308 . S
C1222 C338 1.397 . S
C1217 C232 1.401 . S
C1247 C245 0.768 . S
C1252 C380 0.769 . S
C1282 C418 1.062 . S
C1277 C274 1.069 . S
C1312 C487 1.560 . S
C1307 C175 1.543 . S
C1337 C231 0.430 . S
C1342 C521 0.384 . S
C1372 C538 1.331 . S
C1367 C246 1.335 . S
C1402 C601 0.242 . S
C1397 C273 0.333 . S
C1432 C618 2.168 . S
C1427 C176 2.177 . S
C1462 C340 1.552 . S
C1457 C160 1.572 . S
C1487 C289 1.583 . S
C1492 C679 1.538 . S
C1522 C700 1.334 . S
C1517 C328 1.318 . S
C1552 C759 0.420 . S
C1547 C317 0.351 . S
C1577 C118 0.951 . S
C1582 C620 0.975 . S
C1607 C132 1.335 . S
C1612 C420 1.364 . S
C1637 C331 0.937 . S
C1642 C778 0.935 . S
C1672 C847 1.195 . S
C1667 C303 1.226 . S
C1702 C356 1.946 1_565 S
C1697 C63 1.945 . S
C1732 C839 2.186 . S
C1727 C107 2.147 . S
C1757 C92 1.736 . S
C1762 C436 1.728 . S
C1787 C78 1.532 . S
C1792 C801 1.533 . S
C1822 C527 2.963 . S
C1817 C8 2.963 . S
C1847 C51 2.125 . S
C1852 C716 2.104 . S
C1882 C607 2.807 . S
C1877 C37 2.787 . S
C1912 C876 2.269 . S
C1907 C20 2.292 . S
C1942 C359 1.132 1_556 S
C1937 C147 1.106 . S
C1972 C841 1.018 . S
C1967 C316 1.037 . S
C1997 C119 1.069 . S
C2002 C439 1.087 . S
C2027 C288 1.715 . S
C2032 C796 1.734 . S
C2057 C148 0.684 . S
C2062 C500 0.685 . S
C2092 C719 1.425 . S
C2087 C315 1.382 . S
C2117 C120 0.442 . S
C2122 C580 0.456 . S
C2147 C287 2.099 . S
C2152 C879 2.092 . S
C2177 C188 1.312 . S
C2182 C361 1.285 . S
C2207 C177 1.891 . S
C2212 C658 1.867 . S
C2237 C258 1.263 . S
C2242 C561 1.260 . S
C2267 C247 0.507 . S
C2272 C738 0.500 . S
C2302 C881 0.758 . S
C2297 C272 0.757 . S
C2327 C216 1.164 . S
C2332 C441 1.183 . S
C2362 C479 1.246 . S
C2357 C261 1.218 . S
C2392 C396 1.167 . S
C2387 C205 1.177 . S
C2417 C76 1.952 . S
C2422 C927 1.986 . S
C2452 C818 1.752 . S
C2447 C93 1.761 . S
C2477 C105 1.483 . S
C2482 C967 1.486 . S
C2507 C62 1.018 . S
C2512 C780 1.028 . S
C2537 C49 2.175 . S
C2542 C676 2.211 . S
C2572 C727 2.368 . S
C2567 C9 2.375 . S
C2602 C756 2.376 . S
C2597 C22 2.398 . S
C2632 C887 2.707 . S
C2627 C36 2.743 . S
C2662 C898 1.296 . S
C2657 C260 1.300 . S
C2687 C189 0.642 . S
C2692 C820 0.639 . S
C2722 C938 0.978 . S
C2717 C204 0.982 . S
C2752 C807 1.353 . S
C2747 C217 1.342 . S
C2782 C681 0.496 . S
C2777 C259 0.524 . S
C2807 C190 1.435 . S
C2812 C698 1.430 . S
C2842 C761 0.326 . S
C2837 C203 0.397 . S
C2867 C218 2.238 . S
C2872 C858 2.228 . S
C2902 C900 1.531 . S
C2897 C314 1.552 . S
C2927 C135 1.641 . S
C2932 C519 1.599 . S
C2962 C540 1.319 . S
C2957 C146 1.302 . S
C2992 C599 0.489 . S
C2987 C163 0.457 . S
C3022 C860 0.970 . S
C3017 C300 0.948 . S
C3047 C286 1.307 . S
C3052 C940 1.338 . S
C3082 C458 0.824 . S
C3077 C149 0.825 . S
C3112 C407 1.157 . S
C3107 C121 1.192 . S
C3137 C91 1.934 . S
C3142 C916 1.941 . S
C3172 C399 1.761 . S
C3167 C77 1.662 . S
C3197 C64 1.710 . S
C3202 C956 1.711 . S
C3227 C104 1.163 . S
C3232 C481 1.180 . S
C3257 C34 2.486 . S
C3262 C687 2.547 . S
C3292 C556 2.081 . S
C3287 C23 2.091 . S
C3317 C7 2.337 . S
C3322 C767 2.400 . S
C3347 C48 2.262 . S
C3352 C636 2.245 . S
C3382 C919 1.120 . S
C3377 C329 1.098 . S
C3407 C162 1.031 . S
C3412 C401 1.015 . S
C3442 C959 1.103 . S
C3437 C301 1.089 . S
C3467 C134 1.715 . S
C3472 C476 1.737 . S
C3497 C330 0.702 . S
C3502 C660 0.702 . S
C3532 C559 1.408 . S
C3527 C161 1.370 . S
C3557 C302 0.476 . S
C3562 C740 0.485 . S
C3592 C639 2.076 . S
C3587 C133 2.088 . S
C3622 C921 1.454 . S
C3617 C244 1.482 . S
C3652 C498 1.841 1_665 S
C3647 C219 1.872 . S
C3677 C230 1.098 . S
C3682 C721 1.093 . S
C3712 C578 0.447 . S
C3707 C191 0.448 . S
C3737 C202 0.914 . S
C3742 C641 0.923 . S
C3767 C174 1.385 . S
C3772 C961 1.412 . S
C3802 C799 1.179 . S
C3797 C233 1.147 . S
C3832 C836 1.167 . S
C3827 C275 1.183 . S
