# Generated by pormake.
# Topology scu, (8,4)-cn, num edge types: 1
# Building blocks:
#     Node 0, Type 0, BuildingBlock: VETTIZ_charged_sbu_0, # of connection points: 8
#     Node 1, Type 1, BuildingBlock: KOZSID_clean_sbu_0, # of connection points: 4
#     Node 2, Type 1, BuildingBlock: KOZSID_clean_sbu_0, # of connection points: 4
#     Edge 3, Type (0, 1), BuildingBlock: TEMPAE_clean_linker_10, # of connection points: 2
#     Edge 4, Type (0, 1), BuildingBlock: TEMPAE_clean_linker_10, # of connection points: 2
#     Edge 5, Type (0, 1), BuildingBlock: TEMPAE_clean_linker_10, # of connection points: 2
#     Edge 6, Type (0, 1), BuildingBlock: TEMPAE_clean_linker_10, # of connection points: 2
#     Edge 7, Type (0, 1), BuildingBlock: TEMPAE_clean_linker_10, # of connection points: 2
#     Edge 8, Type (0, 1), BuildingBlock: TEMPAE_clean_linker_10, # of connection points: 2
#     Edge 9, Type (0, 1), BuildingBlock: TEMPAE_clean_linker_10, # of connection points: 2
#     Edge 10, Type (0, 1), BuildingBlock: TEMPAE_clean_linker_10, # of connection points: 2
# Relax obj value: 0.002
# Max RMSD: 0.028
# Mean RMSD: 0.015
data_MOF--net-scu--node1-VETTIZ_charged_sbu_0--node2-KOZSID_clean_sbu_0--edge1-TEMPAE_clean_linker_10
_symmetry_space_group_name_H-M    P1
_symmetry_Int_Tables_number       1
_symmetry_cell_setting            triclinic
loop_
_symmetry_equiv_pos_as_xyz
'x, y, z'
_cell_length_a     29.148354
_cell_length_b     28.474629
_cell_length_c     20.94471
_cell_angle_alpha  85.618988
_cell_angle_beta   85.16802
_cell_angle_gamma 90.901489
loop_
_atom_site_label
_atom_site_type_symbol
_atom_site_fract_x
_atom_site_fract_y
_atom_site_fract_z
_atom_type_partial_charge
Fe0 Fe 0.99921 0.01431 0.08186 0.0
O1 O 0.95464 0.01876 0.0142 0.0
Fe2 Fe 0.09595 0.96913 1.00095 0.0
Fe3 Fe 0.90519 0.06487 0.01438 0.0
O4 O 0.04603 0.01442 0.00628 0.0
O5 O 0.04621 0.01482 0.99936 0.0
O6 O 0.95486 0.01929 0.00723 0.0
Fe7 Fe 0.00174 0.01919 0.93152 0.0
C8 C 0.89815 1.01053 0.14489 0.0
O9 O 0.00569 0.08693 0.08022 0.0
O10 O 0.93155 0.10422 0.08236 0.0
O11 O 0.05859 0.0185 0.86137 0.0
O12 O 0.12153 1.01167 0.92149 0.0
O13 O 0.11895 1.00818 0.0713 0.0
O14 O 0.05383 1.01085 0.14214 0.0
O15 O 0.93527 0.11201 0.94233 0.0
O16 O 0.00855 0.09191 0.92399 0.0
C17 C 0.09819 0.01523 0.12705 0.0
O18 O 0.99503 0.94692 0.93331 0.0
O19 O 0.06846 0.92691 0.93661 0.0
O20 O 0.9422 0.01397 0.15193 0.0
O21 O 0.87925 0.02043 0.09164 0.0
C22 C 0.97252 0.11378 0.09466 0.0
C23 C 0.97641 0.12147 0.91866 0.0
C24 C 0.90262 0.02231 0.88529 0.0
O25 O 0.88218 0.02887 0.94136 0.0
O26 O 0.94716 0.02311 0.87108 0.0
C27 C 0.10272 0.02093 0.86809 0.0
O28 O 0.06696 0.92373 0.07565 0.0
O29 O 0.99289 0.9415 0.08915 0.0
C30 C 0.02748 0.91832 0.92293 0.0
C31 C 0.02562 0.91301 0.09701 0.0
C32 C 0.04296 0.5905 0.40206 0.0
C33 C 0.0847 0.60679 0.37079 0.0
C34 C 0.11817 0.58109 0.39793 0.0
C35 C 0.09509 0.55046 0.44376 0.0
N36 N 0.04885 0.55477 0.44724 0.0
Co37 Co 0.00248 0.5167 0.50696 0.0
N38 N 0.052 0.48336 0.55281 0.0
C39 C 0.09793 0.49145 0.54158 0.0
C40 C 0.1236 0.46285 0.57959 0.0
C41 C 0.09227 0.43452 0.61715 0.0
C42 C 0.04904 0.44753 0.59986 0.0
N43 N 0.95611 0.47715 0.56479 0.0
C44 C 0.96211 0.44082 0.60908 0.0
C45 C 0.92025 0.42162 0.63638 0.0
C46 C 0.88668 0.44587 0.6074 0.0
C47 C 0.90979 0.47845 0.56436 0.0
N48 N 0.95296 0.55165 0.46316 0.0
C49 C 0.907 0.54595 0.47737 0.0
C50 C 0.88139 0.57686 0.44258 0.0
C51 C 0.91286 0.60462 0.40448 0.0
C52 C 0.95604 0.58874 0.418 0.0
N53 N 0.00284 0.46714 0.44426 0.0
C54 C 0.00249 0.39309 0.36149 0.0
C55 C 0.96236 0.41733 0.37746 0.0
C56 C 0.96317 0.4536 0.41904 0.0
C57 C 0.04295 0.40711 0.38653 0.0
C58 C 0.04252 0.44428 0.42665 0.0
N59 N 0.00218 0.56621 0.56951 0.0
C60 C 0.96116 0.61482 0.64465 0.0
C61 C 0.00124 0.64104 0.65126 0.0
C62 C 0.04196 0.62823 0.6175 0.0
C63 C 0.04174 0.59092 0.57773 0.0
C64 C 0.96235 0.57799 0.60375 0.0
H65 H 0.07404 0.58303 0.55365 0.0
H66 H 0.93047 0.55996 0.59999 0.0
H67 H 0.9311 0.46971 0.43067 0.0
H68 H 0.07477 0.45352 0.44315 0.0
C69 C 0.11591 0.52166 0.48945 0.0
C70 C 0.99889 0.61117 0.38847 0.0
C71 C 0.0065 0.42282 0.62641 0.0
C72 C 0.88902 0.51118 0.52364 0.0
H73 H 0.09041 0.63509 0.33326 0.0
H74 H 0.15504 0.58547 0.38725 0.0
H75 H 0.16075 0.46129 0.57811 0.0
H76 H 0.10052 0.4064 0.65172 0.0
H77 H 0.91456 0.39282 0.67317 0.0
H78 H 0.84982 0.44024 0.61637 0.0
H79 H 0.84427 0.57938 0.44532 0.0
H80 H 0.90487 0.63375 0.37129 0.0
H81 H 0.93012 0.40749 0.35931 0.0
H82 H 0.07498 0.38965 0.3748 0.0
H83 H 0.92869 0.62337 0.6697 0.0
H84 H 0.07413 0.64677 0.62197 0.0
C85 C 0.42679 0.96354 0.60965 0.0
C86 C 0.40712 0.92071 0.63502 0.0
C87 C 0.43176 0.88644 0.60655 0.0
C88 C 0.46478 0.91012 0.56529 0.0
N89 N 0.46369 0.95749 0.56724 0.0
Co90 Co 0.50087 1.00581 0.50893 0.0
N91 N 0.53072 0.95603 0.45799 0.0
C92 C 0.52282 0.90894 0.46688 0.0
C93 C 0.55156 0.88353 0.42804 0.0
C94 C 0.58051 0.91622 0.39378 0.0
C95 C 0.56772 0.95976 0.41398 0.0
N96 N 0.53753 0.05425 0.45024 0.0
C97 C 0.57355 0.04843 0.40637 0.0
C98 C 0.59225 0.0914 0.37981 0.0
C99 C 0.56787 0.12552 0.40901 0.0
C100 C 0.53592 0.10163 0.45175 0.0
N101 N 0.4714 0.05556 0.56027 0.0
C102 C 0.48026 0.10251 0.55263 0.0
C103 C 0.45206 0.12792 0.59221 0.0
C104 C 0.42248 0.09541 0.62562 0.0
C105 C 0.43433 0.05198 0.60411 0.0
N106 N 0.55264 1.00152 0.56507 0.0
C107 C 0.63704 0.99446 0.62138 0.0
C108 C 0.61927 0.03835 0.60348 0.0
C109 C 0.57714 0.04106 0.57638 0.0
C110 C 0.61033 0.9543 0.6146 0.0
C111 C 0.56845 0.95862 0.58691 0.0
N112 N 0.4493 1.00996 0.45259 0.0
C113 C 0.39097 0.05602 0.40284 0.0
C114 C 0.36733 0.01518 0.38997 0.0
C115 C 0.38666 0.97178 0.4064 0.0
C116 C 0.42747 0.97003 0.43682 0.0
C117 C 0.43167 0.05263 0.43357 0.0
H118 H 0.43998 0.93586 0.44864 0.0
H119 H 0.44772 0.08501 0.44265 0.0
H120 H 0.56574 0.07551 0.56337 0.0
H121 H 0.55022 0.92665 0.58191 0.0
C122 C 0.49239 0.88951 0.5176 0.0
C123 C 0.40682 1.00907 0.62195 0.0
C124 C 0.594 1.00316 0.39411 0.0
C125 C 0.50962 0.12209 0.50085 0.0
H126 H 0.37666 0.91469 0.66802 0.0
H127 H 0.4244 0.84889 0.61193 0.0
H128 H 0.55308 0.84561 0.42749 0.0
H129 H 0.60918 0.90879 0.36001 0.0
H130 H 0.62201 0.09765 0.34559 0.0
H131 H 0.57484 0.16312 0.40314 0.0
H132 H 0.451 0.16583 0.59335 0.0
H133 H 0.39385 0.10298 0.65936 0.0
H134 H 0.63788 0.0706 0.61014 0.0
H135 H 0.62228 0.91952 0.62875 0.0
H136 H 0.37818 0.09056 0.38935 0.0
H137 H 0.36982 0.93904 0.39744 0.0
C138 C 0.94458 0.16882 0.17595 0.0
C139 C 0.98017 0.15485 0.13252 0.0
C140 C 0.95042 0.20717 0.21305 0.0
C141 C 0.99249 0.23336 0.20544 0.0
C142 C 0.02857 0.21963 0.16136 0.0
C143 C 0.02223 0.18008 0.12612 0.0
C144 C 0.91147 0.2195 0.26067 0.0
C145 C 0.07357 0.24717 0.15074 0.0
C146 C 0.98399 0.35797 0.26001 0.0
C147 C 0.00196 0.35285 0.3201 0.0
C148 C 0.9825 0.3199 0.22106 0.0
C149 C 0.99818 0.27521 0.24347 0.0
C150 C 0.01658 0.26999 0.30409 0.0
C151 C 0.01877 0.30899 0.34126 0.0
C152 C 0.96357 0.32735 0.15624 0.0
C153 C 0.03253 0.22283 0.33069 0.0
H154 H 0.91216 0.14914 0.18181 0.0
H155 H 0.04978 0.16953 0.09252 0.0
H156 H 0.92382 0.2202 0.30929 0.0
H157 H 0.89907 0.2552 0.24708 0.0
H158 H 0.88192 0.19409 0.26327 0.0
H159 H 0.098 0.2323 0.11436 0.0
H160 H 0.06709 0.28432 0.13455 0.0
H161 H 0.09007 0.24755 0.19651 0.0
H162 H 0.97135 0.39195 0.2433 0.0
H163 H 0.03237 0.30486 0.38793 0.0
H164 H 0.93114 0.30646 0.15612 0.0
H165 H 0.98831 0.31479 0.11837 0.0
H166 H 0.95638 0.36496 0.14355 0.0
H167 H 0.0031 0.19722 0.33711 0.0
H168 H 0.04723 0.22491 0.37767 0.0
H169 H 0.05893 0.20875 0.29639 0.0
C170 C 0.83732 0.95993 0.20654 0.0
C171 C 0.86537 1.0006 0.20178 0.0
C172 C 0.79642 0.95639 0.24739 0.0
C173 C 0.78265 0.99514 0.28255 0.0
C174 C 0.81272 0.03491 0.28131 0.0
C175 C 0.85397 0.037 0.24112 0.0
C176 C 0.76609 0.91285 0.24845 0.0
C177 C 0.79933 0.07721 0.31738 0.0
C178 C 0.65375 0.01557 0.30097 0.0
C179 C 0.64237 1.00093 0.36566 0.0
C180 C 0.69937 0.01432 0.27381 0.0
C181 C 0.73432 0.99706 0.31205 0.0
C182 C 0.72273 0.98154 0.37741 0.0
C183 C 0.67679 0.98376 0.4035 0.0
C184 C 0.71016 0.03165 0.20411 0.0
C185 C 0.7587 0.96236 0.41956 0.0
H186 H 0.84594 0.93211 0.17531 0.0
H187 H 0.87527 0.06886 0.23625 0.0
H188 H 0.75197 0.90165 0.29823 0.0
H189 H 0.73652 0.92077 0.21962 0.0
H190 H 0.78502 0.88309 0.22809 0.0
H191 H 0.82883 0.10222 0.31868 0.0
H192 H 0.77159 0.09605 0.29353 0.0
H193 H 0.78564 0.06621 0.36738 0.0
H194 H 0.62686 0.02832 0.27178 0.0
H195 H 0.66766 0.97221 0.45358 0.0
H196 H 0.72405 1.00255 0.17646 0.0
H197 H 0.73701 0.06005 0.19987 0.0
H198 H 0.67936 0.04544 0.1817 0.0
H199 H 0.77407 0.93064 0.39954 0.0
H200 H 0.74424 0.95277 0.46975 0.0
H201 H 0.787 0.98875 0.42036 0.0
C202 C 0.05231 0.83439 0.14002 0.0
C203 C 0.01687 0.86715 0.13611 0.0
C204 C 0.04667 0.7925 0.18014 0.0
C205 C 0.00445 0.78263 0.21768 0.0
C206 C 0.96802 0.81486 0.21292 0.0
C207 C 0.97462 0.85668 0.1722 0.0
C208 C 0.08642 0.75923 0.18336 0.0
C209 C 0.92242 0.80565 0.25195 0.0
C210 C 0.98376 0.65454 0.28342 0.0
C211 C 0.99791 0.65549 0.3456 0.0
C212 C 0.98426 0.6959 0.24191 0.0
C213 C 0.9994 0.73921 0.2631 0.0
C214 C 0.01295 0.74027 0.32648 0.0
C215 C 0.01214 0.69838 0.36687 0.0
C216 C 0.96972 0.69302 0.17483 0.0
C217 C 0.0294 0.78549 0.35114 0.0
H218 H 0.08505 0.84172 0.11223 0.0
H219 H 0.94699 0.88163 0.16979 0.0
H220 H 0.09752 0.75594 0.23286 0.0
H221 H 0.07547 0.72357 0.17189 0.0
H222 H 0.1165 0.77126 0.14965 0.0
H223 H 0.89689 0.83301 0.24082 0.0
H224 H 0.90799 0.77075 0.24283 0.0
H225 H 0.92753 0.80469 0.30393 0.0
H226 H 0.97289 0.62123 0.26709 0.0
H227 H 0.02305 0.69895 0.41504 0.0
H228 H 0.99958 0.7017 0.1392 0.0
H229 H 0.94289 0.71923 0.16523 0.0
H230 H 0.95607 0.65744 0.1671 0.0
H231 H 0.06166 0.79828 0.3228 0.0
H232 H 0.03607 0.78098 0.40268 0.0
H233 H 0.00347 0.81321 0.345 0.0
C234 C 0.16781 0.05447 0.1605 0.0
C235 C 0.1287 0.02548 0.17717 0.0
C236 C 0.20279 0.05709 0.20209 0.0
C237 C 0.19895 0.02927 0.26134 0.0
C238 C 0.15802 1.00243 0.28039 0.0
C239 C 0.12306 1.00112 0.23808 0.0
C240 C 0.24537 0.08691 0.18037 0.0
C241 C 0.15268 0.97216 0.34302 0.0
C242 C 0.31394 0.98694 0.31251 0.0
C243 C 0.3231 0.01775 0.35925 0.0
C244 C 0.27284 0.98929 0.28224 0.0
C245 C 0.24014 0.02364 0.29847 0.0
C246 C 0.24867 0.05431 0.34644 0.0
C247 C 0.29001 0.05093 0.37638 0.0
C248 C 0.26503 0.95574 0.2315 0.0
C249 C 0.21471 0.09144 0.36494 0.0
H250 H 0.17196 0.0736 0.11349 0.0
H251 H 0.09296 0.9784 0.25076 0.0
H252 H 0.25519 0.10821 0.21948 0.0
H253 H 0.27456 0.06369 0.16832 0.0
H254 H 0.24043 0.11101 0.13734 0.0
H255 H 0.11657 0.95938 0.35529 0.0
H256 H 0.17502 0.94113 0.33923 0.0
H257 H 0.1638 0.99187 0.38292 0.0
H258 H 0.33944 0.96158 0.29836 0.0
H259 H 0.29641 0.0743 0.41331 0.0
H260 H 0.26438 0.97576 0.18402 0.0
H261 H 0.23119 0.93721 0.24241 0.0
H262 H 0.29227 0.92899 0.22773 0.0
H263 H 0.21267 0.11802 0.32374 0.0
H264 H 0.22454 0.10975 0.40691 0.0
H265 H 0.17977 0.07544 0.3765 0.0
C266 C 0.05005 0.83858 0.8892 0.0
C267 C 0.01858 0.8754 0.88896 0.0
C268 C 0.04445 0.79959 0.85302 0.0
C269 C 0.00674 0.7974 0.81476 0.0
C270 C 0.97417 0.83387 0.8155 0.0
C271 C 0.98031 0.87223 0.85285 0.0
C272 C 0.07966 0.76126 0.85449 0.0
C273 C 0.93373 0.83334 0.775 0.0
C274 C 0.02463 0.72382 0.67042 0.0
C275 C 1.00081 0.68167 0.69245 0.0
C276 C 0.02579 0.76204 0.70905 0.0
C277 C 0.00293 0.75809 0.77174 0.0
C278 C 0.97825 0.71588 0.79399 0.0
C279 C 0.97728 0.67832 0.75401 0.0
C280 C 0.05204 0.80652 0.683 0.0
C281 C 0.95373 0.71002 0.8606 0.0
H282 H 0.07954 0.84045 0.91725 0.0
H283 H 0.95591 0.90055 0.85198 0.0
H284 H 0.06232 0.72638 0.8667 0.0
H285 H 0.09831 0.76029 0.80621 0.0
H286 H 0.10524 0.76661 0.88984 0.0
H287 H 0.90918 0.86174 0.78562 0.0
H288 H 0.94634 0.83804 0.72339 0.0
H289 H 0.91499 0.7989 0.78289 0.0
H290 H 0.04228 0.72703 0.62257 0.0
H291 H 0.95906 0.6458 0.77162 0.0
H292 H 0.08102 0.81276 0.71264 0.0
H293 H 0.02926 0.83727 0.68586 0.0
H294 H 0.06615 0.80483 0.63229 0.0
H295 H 0.97908 0.71232 0.89697 0.0
H296 H 0.93466 0.67576 0.86991 0.0
H297 H 0.9291 0.73888 0.86746 0.0
C298 C 0.1672 0.06674 0.80691 0.0
C299 C 0.13573 0.02876 0.81092 0.0
C300 C 0.20819 0.06703 0.76642 0.0
C301 C 0.21853 0.02764 0.73071 0.0
C302 C 0.18513 0.99083 0.73105 0.0
C303 C 0.1439 0.99201 0.77097 0.0
C304 C 0.24217 0.10757 0.7664 0.0
C305 C 0.19476 0.948 0.69429 0.0
C306 C 0.32522 0.03273 0.61112 0.0
C307 C 0.35817 1.0124 0.64909 0.0
C308 C 0.27944 0.03767 0.63655 0.0
C309 C 0.26646 0.02177 0.70142 0.0
C310 C 0.29982 1.00099 0.73967 0.0
C311 C 0.34536 0.99701 0.71318 0.0
C312 C 0.24526 0.06053 0.59438 0.0
C313 C 0.28754 0.98325 0.80891 0.0
H314 H 0.16111 0.09481 0.83861 0.0
H315 H 0.12002 0.9621 0.7753 0.0
H316 H 0.27095 0.0964 0.79512 0.0
H317 H 0.25705 0.1183 0.71684 0.0
H318 H 0.22602 0.13862 0.78742 0.0
H319 H 0.16318 0.92606 0.69188 0.0
H320 H 0.20971 0.95841 0.64468 0.0
H321 H 0.22039 0.9261 0.71838 0.0
H322 H 0.33546 0.04499 0.56158 0.0
H323 H 0.37114 0.98202 0.74264 0.0
H324 H 0.23298 0.09348 0.61449 0.0
H325 H 0.21471 0.03696 0.59346 0.0
H326 H 0.26032 0.06914 0.54425 0.0
H327 H 0.27628 0.01296 0.83733 0.0
H328 H 0.31695 0.96616 0.83117 0.0
H329 H 0.25836 0.95743 0.81217 0.0
C330 C 0.02839 0.17761 0.84465 0.0
C331 C 0.98572 0.16739 0.87983 0.0
C332 C 0.03571 0.2194 0.80405 0.0
C333 C 0.99957 0.25184 0.79831 0.0
C334 C 0.9569 0.24224 0.83487 0.0
C335 C 0.95056 0.20041 0.87504 0.0
C336 C 0.0818 0.22834 0.7662 0.0
C337 C 0.91738 0.27569 0.8304 0.0
C338 C 0.02099 0.37975 0.73209 0.0
C339 C 0.00802 0.37851 0.66931 0.0
C340 C 0.02007 0.33851 0.77391 0.0
C341 C 0.00537 0.29508 0.75261 0.0
C342 C 0.99304 0.29369 0.68868 0.0
C343 C 0.99458 0.33539 0.64785 0.0
C344 C 0.03364 0.34166 0.84143 0.0
C345 C 0.97688 0.24839 0.66394 0.0
H346 H 0.05584 0.15251 0.84773 0.0
H347 H 0.91748 0.19326 0.90198 0.0
H348 H 0.07747 0.22905 0.71402 0.0
H349 H 0.0961 0.26329 0.77541 0.0
H350 H 0.10709 0.20098 0.77834 0.0
H351 H 0.88682 0.26383 0.86332 0.0
H352 H 0.92824 0.31132 0.84212 0.0
H353 H 0.90705 0.27899 0.78049 0.0
H354 H 0.03116 0.4132 0.7487 0.0
H355 H 0.9845 0.33456 0.59927 0.0
H356 H 0.05997 0.31515 0.85223 0.0
H357 H 0.00323 0.33361 0.87631 0.0
H358 H 0.04756 0.37716 0.84906 0.0
H359 H 0.00259 0.22058 0.67112 0.0
H360 H 0.97099 0.25267 0.61212 0.0
H361 H 0.94423 0.23586 0.6915 0.0
C362 C 0.83136 0.04382 0.83511 0.0
C363 C 0.87147 0.01728 0.83401 0.0
C364 C 0.79793 0.03719 0.79244 0.0
C365 C 0.80443 1.00279 0.74742 0.0
C366 C 0.84581 0.97712 0.74401 0.0
C367 C 0.87915 0.98486 0.78738 0.0
C368 C 0.75479 0.06597 0.7973 0.0
C369 C 0.85401 0.94011 0.69676 0.0
C370 C 0.68845 0.96096 0.70282 0.0
C371 C 0.68266 0.99105 0.64805 0.0
C372 C 0.7298 0.96144 0.73269 0.0
C373 C 0.76618 0.99278 0.70721 0.0
C374 C 0.76174 0.0206 0.64919 0.0
C375 C 0.71998 0.01951 0.6204 0.0
C376 C 0.73319 0.93097 0.79426 0.0
C377 C 0.7999 0.05393 0.61987 0.0
H378 H 0.82572 0.06953 0.87045 0.0
H379 H 0.91014 0.96428 0.78655 0.0
H380 H 0.74944 0.08425 0.7499 0.0
H381 H 0.72438 0.04241 0.81158 0.0
H382 H 0.75615 0.0928 0.83297 0.0
H383 H 0.89075 0.93012 0.69148 0.0
H384 H 0.83298 0.90809 0.71389 0.0
H385 H 0.8433 0.95255 0.64887 0.0
H386 H 0.65982 0.9388 0.72438 0.0
H387 H 0.7161 0.04192 0.57704 0.0
H388 H 0.73142 0.95346 0.83538 0.0
H389 H 0.76666 0.91293 0.79331 0.0
H390 H 0.70493 0.90401 0.80282 0.0
H391 H 0.80159 0.08476 0.64901 0.0
H392 H 0.79435 0.06687 0.56977 0.0
H393 H 0.8337 0.03655 0.61997 0.0
loop_
_geom_bond_atom_site_label_1
_geom_bond_atom_site_label_2
_geom_bond_distance
_geom_bond_site_symmetry_2
_ccdc_geom_bond_type
Fe0 O1 1.886 1_565 S
Fe0 O4 1.715 1_655 S
Fe0 O9 2.077 1_565 S
Fe0 O14 1.935 1_665 S
Fe0 O20 2.077 . S
Fe0 O29 1.935 . S
O1 Fe0 1.886 1_545 S
O1 Fe3 1.715 1_554 S
Fe2 O4 1.886 . S
Fe2 O5 1.715 1_554 S
Fe2 O12 1.935 1_554 S
Fe2 O13 2.077 . S
Fe2 O19 1.935 1_554 S
Fe2 O28 2.077 . S
Fe3 O1 1.715 1_556 S
Fe3 O6 1.886 . S
Fe3 O10 1.935 1_556 S
Fe3 O15 2.077 . S
Fe3 O21 1.935 1_556 S
Fe3 O25 2.077 . S
O4 Fe0 1.715 1_455 S
O4 Fe2 1.886 . S
O5 Fe2 1.715 1_556 S
O5 Fe7 1.886 1_565 S
O6 Fe3 1.886 . S
O6 Fe7 1.715 1_655 S
Fe7 O5 1.886 1_545 S
Fe7 O6 1.715 1_455 S
Fe7 O11 2.077 . S
Fe7 O16 1.935 . S
Fe7 O18 2.077 1_545 S
Fe7 O26 1.935 1_445 S
C8 O20 1.381 1_545 S
C8 O21 1.421 . S
O9 Fe0 2.077 1_545 S
O9 C22 1.381 . S
O10 Fe3 1.935 1_554 S
O10 C22 1.421 . S
O11 Fe7 2.077 . S
O11 C27 1.381 1_545 S
O12 Fe2 1.935 1_556 S
O12 C27 1.421 . S
O13 Fe2 2.077 . S
O13 C17 1.381 . S
O14 Fe0 1.935 1_445 S
O14 C17 1.421 1_545 S
O15 Fe3 2.077 . S
O15 C23 1.381 . S
O16 Fe7 1.935 . S
O16 C23 1.421 1_455 S
C17 O13 1.381 . S
C17 O14 1.421 1_565 S
O18 Fe7 2.077 1_565 S
O18 C30 1.381 . S
O19 Fe2 1.935 1_556 S
O19 C30 1.421 . S
O20 Fe0 2.077 . S
O20 C8 1.381 1_565 S
O21 Fe3 1.935 1_554 S
O21 C8 1.421 . S
C22 O9 1.381 . S
C22 O10 1.421 . S
C23 O15 1.381 . S
C23 O16 1.421 1_655 S
C24 O25 1.381 . S
C24 O26 1.421 1_545 S
O25 Fe3 2.077 . S
O25 C24 1.381 . S
O26 Fe7 1.935 1_665 S
O26 C24 1.421 1_565 S
C27 O11 1.381 1_565 S
C27 O12 1.421 . S
O28 Fe2 2.077 . S
O28 C31 1.381 . S
O29 Fe0 1.935 . S
O29 C31 1.421 1_655 S
C30 O18 1.381 . S
C30 O19 1.421 . S
C31 O28 1.381 . S
C31 O29 1.421 1_455 S
C32 C33 1.443 . S
C32 N36 1.376 . S
C32 C70 1.404 . S
C33 C32 1.443 . S
C33 C34 1.340 . S
C33 H73 0.951 . S
C34 C33 1.340 . S
C34 C35 1.439 . S
C34 H74 0.950 . S
C35 C34 1.439 . S
C35 N36 1.374 . S
C35 C69 1.395 . S
N36 C32 1.376 . S
N36 C35 1.374 . S
N36 Co37 2.008 . S
Co37 N36 2.008 . S
Co37 N38 1.995 . S
Co37 N43 2.008 1_455 S
Co37 N48 1.995 1_455 S
Co37 N53 2.282 . S
Co37 N59 2.282 1_455 S
N38 Co37 1.995 . S
N38 C39 1.376 . S
N38 C42 1.383 . S
C39 N38 1.376 . S
C39 C40 1.446 . S
C39 C69 1.391 . S
C40 C39 1.446 . S
C40 C41 1.339 . S
C40 H75 0.949 . S
C41 C40 1.339 . S
C41 C42 1.439 . S
C41 H76 0.950 . S
C42 N38 1.383 . S
C42 C41 1.439 . S
C42 C71 1.383 1_455 S
N43 Co37 2.008 1_655 S
N43 C44 1.376 . S
N43 C47 1.374 . S
C44 N43 1.376 . S
C44 C45 1.443 . S
C44 C71 1.398 . S
C45 C44 1.443 . S
C45 C46 1.340 . S
C45 H77 0.951 . S
C46 C45 1.340 . S
C46 C47 1.439 . S
C46 H78 0.950 . S
C47 N43 1.374 . S
C47 C46 1.439 . S
C47 C72 1.395 . S
N48 Co37 1.995 1_655 S
N48 C49 1.376 . S
N48 C52 1.383 . S
C49 N48 1.376 . S
C49 C50 1.446 . S
C49 C72 1.391 . S
C50 C49 1.446 . S
C50 C51 1.339 . S
C50 H79 0.949 . S
C51 C50 1.339 . S
C51 C52 1.439 . S
C51 H80 0.950 . S
C52 N48 1.383 . S
C52 C51 1.439 . S
C52 C70 1.378 1_655 S
N53 Co37 2.282 . S
N53 C56 1.332 1_455 S
N53 C58 1.332 . S
C54 C55 1.375 1_455 S
C54 C57 1.400 . S
C55 C54 1.375 1_655 S
C55 C56 1.382 . S
C55 H81 0.950 . S
C56 N53 1.332 1_655 S
C56 C55 1.382 . S
C56 H67 0.952 . S
C57 C54 1.400 . S
C57 C58 1.382 . S
C57 H82 0.950 . S
C58 N53 1.332 . S
C58 C57 1.382 . S
C58 H68 0.948 . S
N59 Co37 2.282 1_655 S
N59 C63 1.332 1_655 S
N59 C64 1.332 . S
C60 C61 1.395 . S
C60 C64 1.382 . S
C60 H83 0.950 . S
C61 C60 1.395 . S
C61 C62 1.379 1_655 S
C62 C61 1.379 1_455 S
C62 C63 1.382 . S
C62 H84 0.950 . S
C63 N59 1.332 1_455 S
C63 C62 1.382 . S
C63 H65 0.952 . S
C64 N59 1.332 . S
C64 C60 1.382 . S
C64 H66 0.948 . S
H65 C63 0.952 . S
H66 C64 0.948 . S
H67 C56 0.952 . S
H68 C58 0.948 . S
C69 C35 1.395 . S
C69 C39 1.391 . S
C70 C32 1.404 . S
C70 C52 1.378 1_455 S
C71 C42 1.383 1_655 S
C71 C44 1.398 . S
C72 C47 1.395 . S
C72 C49 1.391 . S
H73 C33 0.951 . S
H74 C34 0.950 . S
H75 C40 0.949 . S
H76 C41 0.950 . S
H77 C45 0.951 . S
H78 C46 0.950 . S
H79 C50 0.949 . S
H80 C51 0.950 . S
H81 C55 0.950 . S
H82 C57 0.950 . S
H83 C60 0.950 . S
H84 C62 0.950 . S
C85 C86 1.443 . S
C85 N89 1.376 . S
C85 C123 1.396 . S
C86 C85 1.443 . S
C86 C87 1.340 . S
C86 H126 0.951 . S
C87 C86 1.340 . S
C87 C88 1.439 . S
C87 H127 0.950 . S
C88 C87 1.439 . S
C88 N89 1.374 . S
C88 C122 1.395 . S
N89 C85 1.376 . S
N89 C88 1.374 . S
N89 Co90 2.006 1_565 S
Co90 N89 2.006 1_545 S
Co90 N91 1.992 1_545 S
Co90 N96 2.010 . S
Co90 N101 1.997 . S
Co90 N106 2.282 1_545 S
Co90 N112 2.282 . S
N91 Co90 1.992 1_565 S
N91 C92 1.376 . S
N91 C95 1.383 . S
C92 N91 1.376 . S
C92 C93 1.446 . S
C92 C122 1.391 . S
C93 C92 1.446 . S
C93 C94 1.339 . S
C93 H128 0.949 . S
C94 C93 1.339 . S
C94 C95 1.439 . S
C94 H129 0.950 . S
C95 N91 1.383 . S
C95 C94 1.439 . S
C95 C124 1.375 1_565 S
N96 Co90 2.010 . S
N96 C97 1.376 . S
N96 C100 1.374 . S
C97 N96 1.376 . S
C97 C98 1.443 . S
C97 C124 1.407 . S
C98 C97 1.443 . S
C98 C99 1.340 . S
C98 H130 0.951 . S
C99 C98 1.340 . S
C99 C100 1.439 . S
C99 H131 0.950 . S
C100 N96 1.374 . S
C100 C99 1.439 . S
C100 C125 1.395 . S
N101 Co90 1.997 . S
N101 C102 1.376 . S
N101 C105 1.383 . S
C102 N101 1.376 . S
C102 C103 1.446 . S
C102 C125 1.391 . S
C103 C102 1.446 . S
C103 C104 1.339 . S
C103 H132 0.949 . S
C104 C103 1.339 . S
C104 C105 1.439 . S
C104 H133 0.950 . S
C105 N101 1.383 . S
C105 C104 1.439 . S
C105 C123 1.386 1_545 S
N106 Co90 2.282 1_565 S
N106 C109 1.332 1_565 S
N106 C111 1.332 . S
C107 C108 1.382 1_565 S
C107 C110 1.392 . S
C108 C107 1.382 1_545 S
C108 C109 1.382 . S
C108 H134 0.950 . S
C109 N106 1.332 1_545 S
C109 C108 1.382 . S
C109 H120 0.952 . S
C110 C107 1.392 . S
C110 C111 1.382 . S
C110 H135 0.950 . S
C111 N106 1.332 . S
C111 C110 1.382 . S
C111 H121 0.948 . S
N112 Co90 2.282 . S
N112 C116 1.332 1_545 S
N112 C117 1.332 . S
C113 C114 1.403 . S
C113 C117 1.382 . S
C113 H136 0.950 . S
C114 C113 1.403 . S
C114 C115 1.372 1_545 S
C115 C114 1.372 1_565 S
C115 C116 1.382 . S
C115 H137 0.950 . S
C116 N112 1.332 1_565 S
C116 C115 1.382 . S
C116 H118 0.952 . S
C117 N112 1.332 . S
C117 C113 1.382 . S
C117 H119 0.948 . S
H118 C116 0.952 . S
H119 C117 0.948 . S
H120 C109 0.952 . S
H121 C111 0.948 . S
C122 C88 1.395 . S
C122 C92 1.391 . S
C123 C85 1.396 . S
C123 C105 1.386 1_565 S
C124 C95 1.375 1_545 S
C124 C97 1.407 . S
C125 C100 1.395 . S
C125 C102 1.391 . S
H126 C86 0.951 . S
H127 C87 0.950 . S
H128 C93 0.949 . S
H129 C94 0.950 . S
H130 C98 0.951 . S
H131 C99 0.950 . S
H132 C103 0.949 . S
H133 C104 0.950 . S
H134 C108 0.950 . S
H135 C110 0.950 . S
H136 C113 0.950 . S
H137 C115 0.950 . S
C138 C139 1.397 . S
C138 C140 1.394 . S
C138 H154 0.931 . S
C139 C138 1.397 . S
C139 C143 1.369 1_655 S
C140 C138 1.394 . S
C140 C141 1.369 1_655 S
C140 C144 1.531 . S
C141 C140 1.369 1_455 S
C141 C142 1.410 . S
C141 C149 1.503 . S
C142 C141 1.410 . S
C142 C143 1.392 . S
C142 C145 1.511 . S
C143 C139 1.369 1_455 S
C143 C142 1.392 . S
C143 H155 0.929 . S
C144 C140 1.531 . S
C144 H156 0.960 . S
C144 H157 0.962 . S
C144 H158 0.960 . S
C145 C142 1.511 . S
C145 H159 0.961 . S
C145 H160 0.961 . S
C145 H161 0.961 . S
C146 C147 1.370 1_655 S
C146 C148 1.363 . S
C146 H162 0.931 . S
C147 C146 1.370 1_455 S
C147 C151 1.408 . S
C148 C146 1.363 . S
C148 C149 1.370 1_655 S
C148 C152 1.524 . S
C149 C141 1.503 . S
C149 C148 1.370 1_455 S
C149 C150 1.403 . S
C150 C149 1.403 . S
C150 C151 1.404 . S
C150 C153 1.539 . S
C151 C147 1.408 . S
C151 C150 1.404 . S
C151 H163 0.930 . S
C152 C148 1.524 . S
C152 H164 0.956 . S
C152 H165 0.961 . S
C152 H166 0.961 . S
C153 C150 1.539 . S
C153 H167 0.958 . S
C153 H168 0.961 . S
C153 H169 0.960 . S
H154 C138 0.931 . S
H155 C143 0.929 . S
H156 C144 0.960 . S
H157 C144 0.962 . S
H158 C144 0.960 . S
H159 C145 0.961 . S
H160 C145 0.961 . S
H161 C145 0.961 . S
H162 C146 0.931 . S
H163 C151 0.930 . S
H164 C152 0.956 . S
H165 C152 0.961 . S
H166 C152 0.961 . S
H167 C153 0.958 . S
H168 C153 0.961 . S
H169 C153 0.960 . S
C170 C171 1.391 . S
C170 C172 1.394 . S
C170 H186 0.931 . S
C171 C170 1.391 . S
C171 C175 1.376 1_565 S
C172 C170 1.394 . S
C172 C173 1.369 . S
C172 C176 1.531 . S
C173 C172 1.369 . S
C173 C174 1.410 1_565 S
C173 C181 1.503 . S
C174 C173 1.410 1_545 S
C174 C175 1.392 . S
C174 C177 1.511 . S
C175 C171 1.376 1_545 S
C175 C174 1.392 . S
C175 H187 0.929 . S
C176 C172 1.531 . S
C176 H188 0.960 . S
C176 H189 0.962 . S
C176 H190 0.960 . S
C177 C174 1.511 . S
C177 H191 0.961 . S
C177 H192 0.961 . S
C177 H193 0.961 . S
C178 C179 1.370 1_545 S
C178 C180 1.363 . S
C178 H194 0.931 . S
C179 C178 1.370 1_565 S
C179 C183 1.408 . S
C180 C178 1.363 . S
C180 C181 1.370 1_545 S
C180 C184 1.524 . S
C181 C173 1.503 . S
C181 C180 1.370 1_565 S
C181 C182 1.403 . S
C182 C181 1.403 . S
C182 C183 1.404 . S
C182 C185 1.539 . S
C183 C179 1.408 . S
C183 C182 1.404 . S
C183 H195 0.930 . S
C184 C180 1.524 . S
C184 H196 0.956 . S
C184 H197 0.961 . S
C184 H198 0.961 . S
C185 C182 1.539 . S
C185 H199 0.958 . S
C185 H200 0.961 . S
C185 H201 0.960 . S
H186 C170 0.931 . S
H187 C175 0.929 . S
H188 C176 0.960 . S
H189 C176 0.962 . S
H190 C176 0.960 . S
H191 C177 0.961 . S
H192 C177 0.961 . S
H193 C177 0.961 . S
H194 C178 0.931 . S
H195 C183 0.930 . S
H196 C184 0.956 . S
H197 C184 0.961 . S
H198 C184 0.961 . S
H199 C185 0.958 . S
H200 C185 0.961 . S
H201 C185 0.960 . S
C202 C203 1.391 1_455 S
C202 C204 1.394 . S
C202 H218 0.931 . S
C203 C202 1.391 1_655 S
C203 C207 1.376 . S
C204 C202 1.394 . S
C204 C205 1.369 1_455 S
C204 C208 1.531 . S
C205 C204 1.369 1_655 S
C205 C206 1.410 . S
C205 C213 1.503 . S
C206 C205 1.410 . S
C206 C207 1.392 . S
C206 C209 1.511 . S
C207 C203 1.376 . S
C207 C206 1.392 . S
C207 H219 0.929 . S
C208 C204 1.531 . S
C208 H220 0.960 . S
C208 H221 0.962 . S
C208 H222 0.960 . S
C209 C206 1.511 . S
C209 H223 0.961 . S
C209 H224 0.961 . S
C209 H225 0.961 . S
C210 C211 1.370 1_455 S
C210 C212 1.363 . S
C210 H226 0.931 . S
C211 C210 1.370 1_655 S
C211 C215 1.408 . S
C212 C210 1.363 . S
C212 C213 1.370 1_455 S
C212 C216 1.524 . S
C213 C205 1.503 . S
C213 C212 1.370 1_655 S
C213 C214 1.403 . S
C214 C213 1.403 . S
C214 C215 1.404 . S
C214 C217 1.539 . S
C215 C211 1.408 . S
C215 C214 1.404 . S
C215 H227 0.930 . S
C216 C212 1.524 . S
C216 H228 0.956 . S
C216 H229 0.961 . S
C216 H230 0.961 . S
C217 C214 1.539 . S
C217 H231 0.958 . S
C217 H232 0.961 . S
C217 H233 0.960 . S
H218 C202 0.931 . S
H219 C207 0.929 . S
H220 C208 0.960 . S
H221 C208 0.962 . S
H222 C208 0.960 . S
H223 C209 0.961 . S
H224 C209 0.961 . S
H225 C209 0.961 . S
H226 C210 0.931 . S
H227 C215 0.930 . S
H228 C216 0.956 . S
H229 C216 0.961 . S
H230 C216 0.961 . S
H231 C217 0.958 . S
H232 C217 0.961 . S
H233 C217 0.960 . S
C234 C235 1.398 . S
C234 C236 1.394 . S
C234 H250 0.931 . S
C235 C234 1.398 . S
C235 C239 1.371 1_545 S
C236 C234 1.394 . S
C236 C237 1.369 . S
C236 C240 1.531 . S
C237 C236 1.369 . S
C237 C238 1.410 1_545 S
C237 C245 1.503 . S
C238 C237 1.410 1_565 S
C238 C239 1.392 . S
C238 C241 1.511 . S
C239 C235 1.371 1_565 S
C239 C238 1.392 . S
C239 H251 0.929 . S
C240 C236 1.531 . S
C240 H252 0.960 . S
C240 H253 0.962 . S
C240 H254 0.960 . S
C241 C238 1.511 . S
C241 H255 0.961 . S
C241 H256 0.961 . S
C241 H257 0.961 . S
C242 C243 1.370 1_565 S
C242 C244 1.363 . S
C242 H258 0.931 . S
C243 C242 1.370 1_545 S
C243 C247 1.408 . S
C244 C242 1.363 . S
C244 C245 1.370 1_565 S
C244 C248 1.524 . S
C245 C237 1.503 . S
C245 C244 1.370 1_545 S
C245 C246 1.403 . S
C246 C245 1.403 . S
C246 C247 1.404 . S
C246 C249 1.539 . S
C247 C243 1.408 . S
C247 C246 1.404 . S
C247 H259 0.930 . S
C248 C244 1.524 . S
C248 H260 0.956 . S
C248 H261 0.961 . S
C248 H262 0.961 . S
C249 C246 1.539 . S
C249 H263 0.958 . S
C249 H264 0.961 . S
C249 H265 0.960 . S
H250 C234 0.931 . S
H251 C239 0.929 . S
H252 C240 0.960 . S
H253 C240 0.962 . S
H254 C240 0.960 . S
H255 C241 0.961 . S
H256 C241 0.961 . S
H257 C241 0.961 . S
H258 C242 0.931 . S
H259 C247 0.930 . S
H260 C248 0.956 . S
H261 C248 0.961 . S
H262 C248 0.961 . S
H263 C249 0.958 . S
H264 C249 0.961 . S
H265 C249 0.960 . S
C266 C267 1.397 . S
C266 C268 1.394 . S
C266 H282 0.931 . S
C267 C266 1.397 . S
C267 C271 1.369 1_455 S
C268 C266 1.394 . S
C268 C269 1.369 1_455 S
C268 C272 1.531 . S
C269 C268 1.369 1_655 S
C269 C270 1.410 . S
C269 C277 1.503 . S
C270 C269 1.410 . S
C270 C271 1.392 . S
C270 C273 1.511 . S
C271 C267 1.369 1_655 S
C271 C270 1.392 . S
C271 H283 0.929 . S
C272 C268 1.531 . S
C272 H284 0.960 . S
C272 H285 0.962 . S
C272 H286 0.960 . S
C273 C270 1.511 . S
C273 H287 0.961 . S
C273 H288 0.961 . S
C273 H289 0.961 . S
C274 C275 1.356 1_455 S
C274 C276 1.363 . S
C274 H290 0.931 . S
C275 C274 1.356 1_655 S
C275 C279 1.422 . S
C276 C274 1.363 . S
C276 C277 1.370 1_455 S
C276 C280 1.524 . S
C277 C269 1.503 . S
C277 C276 1.370 1_655 S
C277 C278 1.403 . S
C278 C277 1.403 . S
C278 C279 1.404 . S
C278 C281 1.539 . S
C279 C275 1.422 . S
C279 C278 1.404 . S
C279 H291 0.930 . S
C280 C276 1.524 . S
C280 H292 0.956 . S
C280 H293 0.961 . S
C280 H294 0.961 . S
C281 C278 1.539 . S
C281 H295 0.958 . S
C281 H296 0.961 . S
C281 H297 0.960 . S
H282 C266 0.931 . S
H283 C271 0.929 . S
H284 C272 0.960 . S
H285 C272 0.962 . S
H286 C272 0.960 . S
H287 C273 0.961 . S
H288 C273 0.961 . S
H289 C273 0.961 . S
H290 C274 0.931 . S
H291 C279 0.930 . S
H292 C280 0.956 . S
H293 C280 0.961 . S
H294 C280 0.961 . S
H295 C281 0.958 . S
H296 C281 0.961 . S
H297 C281 0.960 . S
C298 C299 1.391 . S
C298 C300 1.394 . S
C298 H314 0.931 . S
C299 C298 1.391 . S
C299 C303 1.376 1_545 S
C300 C298 1.394 . S
C300 C301 1.369 . S
C300 C304 1.531 . S
C301 C300 1.369 . S
C301 C302 1.410 1_545 S
C301 C309 1.503 . S
C302 C301 1.410 1_565 S
C302 C303 1.392 . S
C302 C305 1.511 . S
C303 C299 1.376 1_565 S
C303 C302 1.392 . S
C303 H315 0.929 . S
C304 C300 1.531 . S
C304 H316 0.960 . S
C304 H317 0.962 . S
C304 H318 0.960 . S
C305 C302 1.511 . S
C305 H319 0.961 . S
C305 H320 0.961 . S
C305 H321 0.961 . S
C306 C307 1.370 1_565 S
C306 C308 1.363 . S
C306 H322 0.931 . S
C307 C306 1.370 1_545 S
C307 C311 1.408 . S
C308 C306 1.363 . S
C308 C309 1.370 1_565 S
C308 C312 1.524 . S
C309 C301 1.503 . S
C309 C308 1.370 1_545 S
C309 C310 1.403 . S
C310 C309 1.403 . S
C310 C311 1.404 . S
C310 C313 1.539 . S
C311 C307 1.408 . S
C311 C310 1.404 . S
C311 H323 0.930 . S
C312 C308 1.524 . S
C312 H324 0.956 . S
C312 H325 0.961 . S
C312 H326 0.961 . S
C313 C310 1.539 . S
C313 H327 0.958 . S
C313 H328 0.961 . S
C313 H329 0.960 . S
H314 C298 0.931 . S
H315 C303 0.929 . S
H316 C304 0.960 . S
H317 C304 0.962 . S
H318 C304 0.960 . S
H319 C305 0.961 . S
H320 C305 0.961 . S
H321 C305 0.961 . S
H322 C306 0.931 . S
H323 C311 0.930 . S
H324 C312 0.956 . S
H325 C312 0.961 . S
H326 C312 0.961 . S
H327 C313 0.958 . S
H328 C313 0.961 . S
H329 C313 0.960 . S
C330 C331 1.391 . S
C330 C332 1.394 . S
C330 H346 0.931 . S
C331 C330 1.391 . S
C331 C335 1.376 1_455 S
C332 C330 1.394 . S
C332 C333 1.369 . S
C332 C336 1.531 . S
C333 C332 1.369 . S
C333 C334 1.410 1_455 S
C333 C341 1.503 . S
C334 C333 1.410 1_655 S
C334 C335 1.392 . S
C334 C337 1.511 . S
C335 C331 1.376 1_655 S
C335 C334 1.392 . S
C335 H347 0.929 . S
C336 C332 1.531 . S
C336 H348 0.960 . S
C336 H349 0.962 . S
C336 H350 0.960 . S
C337 C334 1.511 . S
C337 H351 0.961 . S
C337 H352 0.961 . S
C337 H353 0.961 . S
C338 C339 1.370 . S
C338 C340 1.363 . S
C338 H354 0.931 . S
C339 C338 1.370 . S
C339 C343 1.408 . S
C340 C338 1.363 . S
C340 C341 1.370 . S
C340 C344 1.524 . S
C341 C333 1.503 . S
C341 C340 1.370 . S
C341 C342 1.403 . S
C342 C341 1.403 . S
C342 C343 1.404 . S
C342 C345 1.539 . S
C343 C339 1.408 . S
C343 C342 1.404 . S
C343 H355 0.932 . S
C344 C340 1.524 . S
C344 H356 0.956 . S
C344 H357 0.961 1_455 S
C344 H358 0.961 1_455 S
C345 C342 1.539 . S
C345 H359 0.959 . S
C345 H360 0.960 1_455 S
C345 H361 0.959 1_455 S
H346 C330 0.931 . S
H347 C335 0.929 . S
H348 C336 0.960 . S
H349 C336 0.962 . S
H350 C336 0.960 . S
H351 C337 0.961 . S
H352 C337 0.961 . S
H353 C337 0.961 . S
H354 C338 0.931 . S
H355 C343 0.932 . S
H356 C344 0.956 . S
H357 C344 0.961 1_655 S
H358 C344 0.961 1_655 S
H359 C345 0.959 . S
H360 C345 0.960 1_655 S
H361 C345 0.959 1_655 S
C362 C363 1.391 . S
C362 C364 1.394 . S
C362 H378 0.931 . S
C363 C362 1.391 . S
C363 C367 1.376 1_545 S
C364 C362 1.394 . S
C364 C365 1.369 . S
C364 C368 1.531 . S
C365 C364 1.369 . S
C365 C366 1.410 1_545 S
C365 C373 1.503 . S
C366 C365 1.410 1_565 S
C366 C367 1.392 . S
C366 C369 1.511 . S
C367 C363 1.376 1_565 S
C367 C366 1.392 . S
C367 H379 0.929 . S
C368 C364 1.531 . S
C368 H380 0.960 . S
C368 H381 0.962 . S
C368 H382 0.960 . S
C369 C366 1.511 . S
C369 H383 0.961 . S
C369 H384 0.961 . S
C369 H385 0.965 . S
C370 C371 1.370 1_565 S
C370 C372 1.363 . S
C370 H386 0.931 . S
C371 C370 1.370 1_545 S
C371 C375 1.408 . S
C372 C370 1.363 . S
C372 C373 1.370 1_565 S
C372 C376 1.524 . S
C373 C365 1.503 . S
C373 C372 1.370 1_545 S
C373 C374 1.403 . S
C374 C373 1.403 . S
C374 C375 1.404 . S
C374 C377 1.539 . S
C375 C371 1.408 . S
C375 C374 1.404 . S
C375 H387 0.930 . S
C376 C372 1.524 . S
C376 H388 0.956 . S
C376 H389 0.961 . S
C376 H390 0.961 . S
C377 C374 1.539 . S
C377 H391 0.958 . S
C377 H392 0.961 . S
C377 H393 0.960 . S
H378 C362 0.931 . S
H379 C367 0.929 . S
H380 C368 0.960 . S
H381 C368 0.962 . S
H382 C368 0.960 . S
H383 C369 0.961 . S
H384 C369 0.961 . S
H385 C369 0.965 . S
H386 C370 0.931 . S
H387 C375 0.930 . S
H388 C376 0.956 . S
H389 C376 0.961 . S
H390 C376 0.961 . S
H391 C377 0.958 . S
H392 C377 0.961 . S
H393 C377 0.960 . S
C139 C22 1.391 . S
C147 C54 1.424 . S
C171 C8 1.523 1_565 S
C179 C124 1.564 1_565 S
C203 C31 1.500 1_655 S
C211 C70 1.563 1_655 S
C235 C17 1.381 1_545 S
C243 C114 1.422 . S
C267 C30 1.408 . S
C275 C61 1.425 . S
C299 C27 1.533 1_545 S
C307 C123 1.562 1_545 S
C339 C71 1.564 1_455 S
C331 C23 1.487 1_455 S
C363 C24 1.345 . S
C371 C107 1.427 1_545 S
