# Generated by pormake.
# Topology gar, (4,6)-cn, num edge types: 1
# Building blocks:
#     Node 0, Type 0, BuildingBlock: UXUYUI_clean_sbu_0, # of connection points: 4
#     Node 1, Type 0, BuildingBlock: UXUYUI_clean_sbu_0, # of connection points: 4
#     Node 2, Type 0, BuildingBlock: UXUYUI_clean_sbu_0, # of connection points: 4
#     Node 3, Type 0, BuildingBlock: UXUYUI_clean_sbu_0, # of connection points: 4
#     Node 4, Type 0, BuildingBlock: UXUYUI_clean_sbu_0, # of connection points: 4
#     Node 5, Type 0, BuildingBlock: UXUYUI_clean_sbu_0, # of connection points: 4
#     Node 6, Type 0, BuildingBlock: UXUYUI_clean_sbu_0, # of connection points: 4
#     Node 7, Type 0, BuildingBlock: UXUYUI_clean_sbu_0, # of connection points: 4
#     Node 8, Type 0, BuildingBlock: UXUYUI_clean_sbu_0, # of connection points: 4
#     Node 9, Type 0, BuildingBlock: UXUYUI_clean_sbu_0, # of connection points: 4
#     Node 10, Type 0, BuildingBlock: UXUYUI_clean_sbu_0, # of connection points: 4
#     Node 11, Type 0, BuildingBlock: UXUYUI_clean_sbu_0, # of connection points: 4
#     Node 12, Type 0, BuildingBlock: UXUYUI_clean_sbu_0, # of connection points: 4
#     Node 13, Type 0, BuildingBlock: UXUYUI_clean_sbu_0, # of connection points: 4
#     Node 14, Type 0, BuildingBlock: UXUYUI_clean_sbu_0, # of connection points: 4
#     Node 15, Type 0, BuildingBlock: UXUYUI_clean_sbu_0, # of connection points: 4
#     Node 16, Type 0, BuildingBlock: UXUYUI_clean_sbu_0, # of connection points: 4
#     Node 17, Type 0, BuildingBlock: UXUYUI_clean_sbu_0, # of connection points: 4
#     Node 18, Type 0, BuildingBlock: UXUYUI_clean_sbu_0, # of connection points: 4
#     Node 19, Type 0, BuildingBlock: UXUYUI_clean_sbu_0, # of connection points: 4
#     Node 20, Type 0, BuildingBlock: UXUYUI_clean_sbu_0, # of connection points: 4
#     Node 21, Type 0, BuildingBlock: UXUYUI_clean_sbu_0, # of connection points: 4
#     Node 22, Type 0, BuildingBlock: UXUYUI_clean_sbu_0, # of connection points: 4
#     Node 23, Type 0, BuildingBlock: UXUYUI_clean_sbu_0, # of connection points: 4
#     Node 24, Type 1, BuildingBlock: HISSIN_clean_sbu_0, # of connection points: 6
#     Node 25, Type 1, BuildingBlock: HISSIN_clean_sbu_0, # of connection points: 6
#     Node 26, Type 1, BuildingBlock: HISSIN_clean_sbu_0, # of connection points: 6
#     Node 27, Type 1, BuildingBlock: HISSIN_clean_sbu_0, # of connection points: 6
#     Node 28, Type 1, BuildingBlock: HISSIN_clean_sbu_0, # of connection points: 6
#     Node 29, Type 1, BuildingBlock: HISSIN_clean_sbu_0, # of connection points: 6
#     Node 30, Type 1, BuildingBlock: HISSIN_clean_sbu_0, # of connection points: 6
#     Node 31, Type 1, BuildingBlock: HISSIN_clean_sbu_0, # of connection points: 6
#     Node 32, Type 1, BuildingBlock: HISSIN_clean_sbu_0, # of connection points: 6
#     Node 33, Type 1, BuildingBlock: HISSIN_clean_sbu_0, # of connection points: 6
#     Node 34, Type 1, BuildingBlock: HISSIN_clean_sbu_0, # of connection points: 6
#     Node 35, Type 1, BuildingBlock: HISSIN_clean_sbu_0, # of connection points: 6
#     Node 36, Type 1, BuildingBlock: HISSIN_clean_sbu_0, # of connection points: 6
#     Node 37, Type 1, BuildingBlock: HISSIN_clean_sbu_0, # of connection points: 6
#     Node 38, Type 1, BuildingBlock: HISSIN_clean_sbu_0, # of connection points: 6
#     Node 39, Type 1, BuildingBlock: HISSIN_clean_sbu_0, # of connection points: 6
#     Edge 40, Type (0, 1), BuildingBlock: XUDNAN_clean_linker_2, # of connection points: 2
#     Edge 41, Type (0, 1), BuildingBlock: XUDNAN_clean_linker_2, # of connection points: 2
#     Edge 42, Type (0, 1), BuildingBlock: XUDNAN_clean_linker_2, # of connection points: 2
#     Edge 43, Type (0, 1), BuildingBlock: XUDNAN_clean_linker_2, # of connection points: 2
#     Edge 44, Type (0, 1), BuildingBlock: XUDNAN_clean_linker_2, # of connection points: 2
#     Edge 45, Type (0, 1), BuildingBlock: XUDNAN_clean_linker_2, # of connection points: 2
#     Edge 46, Type (0, 1), BuildingBlock: XUDNAN_clean_linker_2, # of connection points: 2
#     Edge 47, Type (0, 1), BuildingBlock: XUDNAN_clean_linker_2, # of connection points: 2
#     Edge 48, Type (0, 1), BuildingBlock: XUDNAN_clean_linker_2, # of connection points: 2
#     Edge 49, Type (0, 1), BuildingBlock: XUDNAN_clean_linker_2, # of connection points: 2
#     Edge 50, Type (0, 1), BuildingBlock: XUDNAN_clean_linker_2, # of connection points: 2
#     Edge 51, Type (0, 1), BuildingBlock: XUDNAN_clean_linker_2, # of connection points: 2
#     Edge 52, Type (0, 1), BuildingBlock: XUDNAN_clean_linker_2, # of connection points: 2
#     Edge 53, Type (0, 1), BuildingBlock: XUDNAN_clean_linker_2, # of connection points: 2
#     Edge 54, Type (0, 1), BuildingBlock: XUDNAN_clean_linker_2, # of connection points: 2
#     Edge 55, Type (0, 1), BuildingBlock: XUDNAN_clean_linker_2, # of connection points: 2
#     Edge 56, Type (0, 1), BuildingBlock: XUDNAN_clean_linker_2, # of connection points: 2
#     Edge 57, Type (0, 1), BuildingBlock: XUDNAN_clean_linker_2, # of connection points: 2
#     Edge 58, Type (0, 1), BuildingBlock: XUDNAN_clean_linker_2, # of connection points: 2
#     Edge 59, Type (0, 1), BuildingBlock: XUDNAN_clean_linker_2, # of connection points: 2
#     Edge 60, Type (0, 1), BuildingBlock: XUDNAN_clean_linker_2, # of connection points: 2
#     Edge 61, Type (0, 1), BuildingBlock: XUDNAN_clean_linker_2, # of connection points: 2
#     Edge 62, Type (0, 1), BuildingBlock: XUDNAN_clean_linker_2, # of connection points: 2
#     Edge 63, Type (0, 1), BuildingBlock: XUDNAN_clean_linker_2, # of connection points: 2
#     Edge 64, Type (0, 1), BuildingBlock: XUDNAN_clean_linker_2, # of connection points: 2
#     Edge 65, Type (0, 1), BuildingBlock: XUDNAN_clean_linker_2, # of connection points: 2
#     Edge 66, Type (0, 1), BuildingBlock: XUDNAN_clean_linker_2, # of connection points: 2
#     Edge 67, Type (0, 1), BuildingBlock: XUDNAN_clean_linker_2, # of connection points: 2
#     Edge 68, Type (0, 1), BuildingBlock: XUDNAN_clean_linker_2, # of connection points: 2
#     Edge 69, Type (0, 1), BuildingBlock: XUDNAN_clean_linker_2, # of connection points: 2
#     Edge 70, Type (0, 1), BuildingBlock: XUDNAN_clean_linker_2, # of connection points: 2
#     Edge 71, Type (0, 1), BuildingBlock: XUDNAN_clean_linker_2, # of connection points: 2
#     Edge 72, Type (0, 1), BuildingBlock: XUDNAN_clean_linker_2, # of connection points: 2
#     Edge 73, Type (0, 1), BuildingBlock: XUDNAN_clean_linker_2, # of connection points: 2
#     Edge 74, Type (0, 1), BuildingBlock: XUDNAN_clean_linker_2, # of connection points: 2
#     Edge 75, Type (0, 1), BuildingBlock: XUDNAN_clean_linker_2, # of connection points: 2
#     Edge 76, Type (0, 1), BuildingBlock: XUDNAN_clean_linker_2, # of connection points: 2
#     Edge 77, Type (0, 1), BuildingBlock: XUDNAN_clean_linker_2, # of connection points: 2
#     Edge 78, Type (0, 1), BuildingBlock: XUDNAN_clean_linker_2, # of connection points: 2
#     Edge 79, Type (0, 1), BuildingBlock: XUDNAN_clean_linker_2, # of connection points: 2
#     Edge 80, Type (0, 1), BuildingBlock: XUDNAN_clean_linker_2, # of connection points: 2
#     Edge 81, Type (0, 1), BuildingBlock: XUDNAN_clean_linker_2, # of connection points: 2
#     Edge 82, Type (0, 1), BuildingBlock: XUDNAN_clean_linker_2, # of connection points: 2
#     Edge 83, Type (0, 1), BuildingBlock: XUDNAN_clean_linker_2, # of connection points: 2
#     Edge 84, Type (0, 1), BuildingBlock: XUDNAN_clean_linker_2, # of connection points: 2
#     Edge 85, Type (0, 1), BuildingBlock: XUDNAN_clean_linker_2, # of connection points: 2
#     Edge 86, Type (0, 1), BuildingBlock: XUDNAN_clean_linker_2, # of connection points: 2
#     Edge 87, Type (0, 1), BuildingBlock: XUDNAN_clean_linker_2, # of connection points: 2
#     Edge 88, Type (0, 1), BuildingBlock: XUDNAN_clean_linker_2, # of connection points: 2
#     Edge 89, Type (0, 1), BuildingBlock: XUDNAN_clean_linker_2, # of connection points: 2
#     Edge 90, Type (0, 1), BuildingBlock: XUDNAN_clean_linker_2, # of connection points: 2
#     Edge 91, Type (0, 1), BuildingBlock: XUDNAN_clean_linker_2, # of connection points: 2
#     Edge 92, Type (0, 1), BuildingBlock: XUDNAN_clean_linker_2, # of connection points: 2
#     Edge 93, Type (0, 1), BuildingBlock: XUDNAN_clean_linker_2, # of connection points: 2
#     Edge 94, Type (0, 1), BuildingBlock: XUDNAN_clean_linker_2, # of connection points: 2
#     Edge 95, Type (0, 1), BuildingBlock: XUDNAN_clean_linker_2, # of connection points: 2
#     Edge 96, Type (0, 1), BuildingBlock: XUDNAN_clean_linker_2, # of connection points: 2
#     Edge 97, Type (0, 1), BuildingBlock: XUDNAN_clean_linker_2, # of connection points: 2
#     Edge 98, Type (0, 1), BuildingBlock: XUDNAN_clean_linker_2, # of connection points: 2
#     Edge 99, Type (0, 1), BuildingBlock: XUDNAN_clean_linker_2, # of connection points: 2
#     Edge 100, Type (0, 1), BuildingBlock: XUDNAN_clean_linker_2, # of connection points: 2
#     Edge 101, Type (0, 1), BuildingBlock: XUDNAN_clean_linker_2, # of connection points: 2
#     Edge 102, Type (0, 1), BuildingBlock: XUDNAN_clean_linker_2, # of connection points: 2
#     Edge 103, Type (0, 1), BuildingBlock: XUDNAN_clean_linker_2, # of connection points: 2
#     Edge 104, Type (0, 1), BuildingBlock: XUDNAN_clean_linker_2, # of connection points: 2
#     Edge 105, Type (0, 1), BuildingBlock: XUDNAN_clean_linker_2, # of connection points: 2
#     Edge 106, Type (0, 1), BuildingBlock: XUDNAN_clean_linker_2, # of connection points: 2
#     Edge 107, Type (0, 1), BuildingBlock: XUDNAN_clean_linker_2, # of connection points: 2
#     Edge 108, Type (0, 1), BuildingBlock: XUDNAN_clean_linker_2, # of connection points: 2
#     Edge 109, Type (0, 1), BuildingBlock: XUDNAN_clean_linker_2, # of connection points: 2
#     Edge 110, Type (0, 1), BuildingBlock: XUDNAN_clean_linker_2, # of connection points: 2
#     Edge 111, Type (0, 1), BuildingBlock: XUDNAN_clean_linker_2, # of connection points: 2
#     Edge 112, Type (0, 1), BuildingBlock: XUDNAN_clean_linker_2, # of connection points: 2
#     Edge 113, Type (0, 1), BuildingBlock: XUDNAN_clean_linker_2, # of connection points: 2
#     Edge 114, Type (0, 1), BuildingBlock: XUDNAN_clean_linker_2, # of connection points: 2
#     Edge 115, Type (0, 1), BuildingBlock: XUDNAN_clean_linker_2, # of connection points: 2
#     Edge 116, Type (0, 1), BuildingBlock: XUDNAN_clean_linker_2, # of connection points: 2
#     Edge 117, Type (0, 1), BuildingBlock: XUDNAN_clean_linker_2, # of connection points: 2
#     Edge 118, Type (0, 1), BuildingBlock: XUDNAN_clean_linker_2, # of connection points: 2
#     Edge 119, Type (0, 1), BuildingBlock: XUDNAN_clean_linker_2, # of connection points: 2
#     Edge 120, Type (0, 1), BuildingBlock: XUDNAN_clean_linker_2, # of connection points: 2
#     Edge 121, Type (0, 1), BuildingBlock: XUDNAN_clean_linker_2, # of connection points: 2
#     Edge 122, Type (0, 1), BuildingBlock: XUDNAN_clean_linker_2, # of connection points: 2
#     Edge 123, Type (0, 1), BuildingBlock: XUDNAN_clean_linker_2, # of connection points: 2
#     Edge 124, Type (0, 1), BuildingBlock: XUDNAN_clean_linker_2, # of connection points: 2
#     Edge 125, Type (0, 1), BuildingBlock: XUDNAN_clean_linker_2, # of connection points: 2
#     Edge 126, Type (0, 1), BuildingBlock: XUDNAN_clean_linker_2, # of connection points: 2
#     Edge 127, Type (0, 1), BuildingBlock: XUDNAN_clean_linker_2, # of connection points: 2
#     Edge 128, Type (0, 1), BuildingBlock: XUDNAN_clean_linker_2, # of connection points: 2
#     Edge 129, Type (0, 1), BuildingBlock: XUDNAN_clean_linker_2, # of connection points: 2
#     Edge 130, Type (0, 1), BuildingBlock: XUDNAN_clean_linker_2, # of connection points: 2
#     Edge 131, Type (0, 1), BuildingBlock: XUDNAN_clean_linker_2, # of connection points: 2
#     Edge 132, Type (0, 1), BuildingBlock: XUDNAN_clean_linker_2, # of connection points: 2
#     Edge 133, Type (0, 1), BuildingBlock: XUDNAN_clean_linker_2, # of connection points: 2
#     Edge 134, Type (0, 1), BuildingBlock: XUDNAN_clean_linker_2, # of connection points: 2
#     Edge 135, Type (0, 1), BuildingBlock: XUDNAN_clean_linker_2, # of connection points: 2
# Relax obj value: 0.182
# Max RMSD: 0.266
# Mean RMSD: 0.183
data_MOF--net-gar--node1-UXUYUI_clean_sbu_0--node2-HISSIN_clean_sbu_0--edge1-XUDNAN_clean_linker_2
_symmetry_space_group_name_H-M    P1
_symmetry_Int_Tables_number       1
_symmetry_cell_setting            triclinic
loop_
_symmetry_equiv_pos_as_xyz
'x, y, z'
_cell_length_a     72.499957
_cell_length_b     72.496914
_cell_length_c     71.37578
_cell_angle_alpha  99.585955
_cell_angle_beta   93.216212
_cell_angle_gamma 100.34572
loop_
_atom_site_label
_atom_site_type_symbol
_atom_site_fract_x
_atom_site_fract_y
_atom_site_fract_z
_atom_type_partial_charge
Li0 Li 0.0658 0.29937 0.37001 0.0
Li1 Li 0.07794 0.31717 0.40078 0.0
Li2 Li 0.0986 0.30161 0.3797 0.0
Li3 Li 0.07236 0.28245 0.39527 0.0
C4 C 0.08029 0.33889 0.37234 0.0
N5 N 0.06937 0.37206 0.36579 0.0
C6 C 0.06137 0.34052 0.37241 0.0
C7 C 0.09364 0.35413 0.36886 0.0
C8 C 0.05613 0.3574 0.36909 0.0
C9 C 0.08785 0.37079 0.36561 0.0
C10 C 0.04263 0.29818 0.40899 0.0
C11 C 0.04002 0.29998 0.44276 0.0
N12 N 0.02094 0.29627 0.43949 0.0
C13 C 0.023 0.29447 0.40597 0.0
C14 C 0.0512 0.30102 0.42752 0.0
C15 C 0.01228 0.29352 0.42157 0.0
C16 C 0.03088 0.29032 0.34791 0.0
N17 N 0.0493 0.29839 0.34806 0.0
C18 C 0.04355 0.30806 0.31823 0.0
C19 C 0.0559 0.30679 0.33346 0.0
C20 C 0.02425 0.30062 0.31808 0.0
C21 C 0.01803 0.29127 0.33298 0.0
H22 H 0.02611 0.28366 0.35969 0.0
H23 H 0.07068 0.313 0.33395 0.0
C24 C 0.0916 0.35015 0.43021 0.0
N25 N 0.07648 0.33981 0.41854 0.0
C26 C 0.09004 0.36693 0.44236 0.0
C27 C 0.0576 0.36253 0.4298 0.0
C28 C 0.05964 0.34565 0.41827 0.0
C29 C 0.07291 0.3733 0.44201 0.0
H30 H 0.10495 0.34563 0.42995 0.0
H31 H 0.04779 0.33732 0.40889 0.0
C32 C 0.07237 0.26777 0.35132 0.0
N33 N 0.05633 0.24803 0.316 0.0
C34 C 0.05633 0.25351 0.34994 0.0
C35 C 0.08031 0.27195 0.33475 0.0
C36 C 0.04841 0.2437 0.33194 0.0
C37 C 0.07198 0.26181 0.31702 0.0
C38 C 0.10804 0.30677 0.42328 0.0
C39 C 0.1254 0.31849 0.42239 0.0
C40 C 0.1037 0.30087 0.44048 0.0
C41 C 0.13791 0.32453 0.43879 0.0
C42 C 0.11658 0.30721 0.45656 0.0
N43 N 0.13327 0.31883 0.4554 0.0
C44 C 0.13332 0.32069 0.37064 0.0
C45 C 0.12718 0.28723 0.36013 0.0
C46 C 0.14948 0.32269 0.36086 0.0
N47 N 0.12248 0.30319 0.36994 0.0
C48 C 0.14305 0.2886 0.34985 0.0
C49 C 0.1543 0.30657 0.34983 0.0
H50 H 0.12911 0.33316 0.37838 0.0
H51 H 0.11808 0.27353 0.35953 0.0
C52 C 0.04634 0.2519 0.40371 0.0
N53 N 0.06481 0.26041 0.40629 0.0
C54 C 0.03993 0.23609 0.41202 0.0
C55 C 0.07173 0.23794 0.42538 0.0
C56 C 0.07754 0.25372 0.41675 0.0
C57 C 0.05268 0.22891 0.42305 0.0
H58 H 0.03653 0.25745 0.39524 0.0
H59 H 0.09219 0.26064 0.4184 0.0
O60 O 0.08581 0.32251 0.3756 0.0
O61 O 0.0533 0.29896 0.3938 0.0
O62 O 0.08002 0.27788 0.36877 0.0
O63 O 0.09577 0.30043 0.40723 0.0
H64 H 0.05081 0.32894 0.37511 0.0
H65 H 0.10834 0.35314 0.36867 0.0
H66 H 0.04154 0.35884 0.36917 0.0
H67 H 0.09805 0.38269 0.36292 0.0
H68 H 0.04651 0.30218 0.45718 0.0
H69 H 0.0161 0.2923 0.39173 0.0
H70 H 0.06631 0.30422 0.4301 0.0
H71 H 0.99707 0.29061 0.41944 0.0
H72 H 0.04896 0.31519 0.30693 0.0
H73 H 1.00326 0.28554 0.3336 0.0
H74 H 0.10216 0.37506 0.4516 0.0
H75 H 0.04416 0.36706 0.42929 0.0
H76 H 0.04998 0.25018 0.36262 0.0
H77 H 0.09259 0.28311 0.33556 0.0
H78 H 0.03594 0.23269 0.33065 0.0
H79 H 0.07789 0.26497 0.30407 0.0
H80 H 0.1291 0.32311 0.40926 0.0
H81 H 0.0906 0.29138 0.44144 0.0
H82 H 0.15131 0.33375 0.4383 0.0
H83 H 0.11334 0.30282 0.46996 0.0
H84 H 0.15787 0.33679 0.36165 0.0
H85 H 0.14593 0.27577 0.34135 0.0
H86 H 0.0251 0.22971 0.40999 0.0
H87 H 0.08208 0.2327 0.43354 0.0
Li88 Li 1.00413 0.77913 0.62203 0.0
Li89 Li 0.01907 0.77119 0.65155 0.0
Li90 Li 1.00268 0.74636 0.62617 0.0
Li91 Li 0.98565 0.76485 0.64676 0.0
C92 C 0.03743 0.75614 0.61588 0.0
N93 N 0.06081 0.73421 0.59759 0.0
C94 C 0.04907 0.74742 0.6264 0.0
C95 C 0.03777 0.75382 0.59608 0.0
C96 C 0.06076 0.73636 0.61688 0.0
C97 C 0.04968 0.74266 0.58709 0.0
C98 C 0.01382 0.80576 0.66088 0.0
C99 C 0.02715 0.82286 0.69203 0.0
N100 N 0.03757 0.83631 0.68373 0.0
C101 C 0.02462 0.81979 0.65268 0.0
C102 C 0.01503 0.80734 0.68073 0.0
C103 C 0.03655 0.83511 0.66447 0.0
C104 C 0.99031 0.80298 0.59959 0.0
N105 N 1.00576 0.79608 0.60454 0.0
C106 C 0.02397 0.8133 0.58397 0.0
C107 C 0.02242 0.80103 0.59716 0.0
C108 C 0.00822 0.82058 0.57841 0.0
C109 C 0.99122 0.8153 0.58643 0.0
H110 H 0.97729 0.79883 0.60583 0.0
H111 H 0.03452 0.79547 0.60155 0.0
C112 C 0.04026 0.77235 0.68636 0.0
N113 N 0.04067 0.77859 0.66944 0.0
C114 C 0.05615 0.77702 0.69938 0.0
C115 C 0.07278 0.79419 0.67718 0.0
C116 C 0.05642 0.78946 0.6647 0.0
C117 C 0.07273 0.78784 0.69472 0.0
H118 H 0.02775 0.76339 0.68961 0.0
H119 H 0.05635 0.79411 0.65106 0.0
C120 C 0.97149 0.74553 0.60354 0.0
N121 N 0.95129 0.71951 0.57338 0.0
C122 C 0.96191 0.72788 0.60652 0.0
C123 C 0.97073 0.74998 0.58522 0.0
C124 C 0.95181 0.7149 0.59109 0.0
C125 C 0.96044 0.73663 0.57017 0.0
C126 C 0.99078 0.73806 0.66544 0.0
C127 C 0.98077 0.71954 0.65872 0.0
C128 C 0.98883 0.7471 0.68394 0.0
C129 C 0.96904 0.71037 0.67061 0.0
C130 C 0.97691 0.73746 0.69537 0.0
N131 N 0.96736 0.71945 0.68853 0.0
C132 C 0.01308 0.71093 0.62283 0.0
C133 C 1.00303 0.71767 0.59296 0.0
C134 C 0.01915 0.69479 0.61386 0.0
N135 N 1.00539 0.72211 0.61235 0.0
C136 C 0.00875 0.70152 0.58338 0.0
C137 C 0.01738 0.69018 0.59388 0.0
H138 H 0.01551 0.71515 0.63816 0.0
H139 H 0.99789 0.72726 0.58482 0.0
C140 C 0.96381 0.78124 0.67347 0.0
N141 N 0.96365 0.76552 0.66007 0.0
C142 C 0.94996 0.78138 0.68621 0.0
C143 C 0.93524 0.7496 0.67032 0.0
C144 C 0.94943 0.75008 0.65787 0.0
C145 C 0.93573 0.7652 0.68505 0.0
H146 H 0.97507 0.79345 0.67471 0.0
H147 H 0.94961 0.73775 0.64714 0.0
O148 O 0.02542 0.7665 0.62488 0.0
O149 O 1.00242 0.79039 0.64953 0.0
O150 O 0.98138 0.75849 0.61845 0.0
O151 O 1.00225 0.74735 0.65392 0.0
H152 H 0.04883 0.7489 0.64172 0.0
H153 H 0.02867 0.76027 0.5877 0.0
H154 H 0.06972 0.72939 0.62482 0.0
H155 H 0.04998 0.74061 0.57176 0.0
H156 H 0.02835 0.82416 0.70739 0.0
H157 H 0.02392 0.81882 0.63738 0.0
H158 H 1.007 0.7965 0.68735 0.0
H159 H 0.04503 0.84603 0.6583 0.0
H160 H 0.0373 0.81687 0.57803 0.0
H161 H 0.97882 0.82081 0.58277 0.0
H162 H 0.05572 0.77153 0.71261 0.0
H163 H 0.08538 0.8025 0.67309 0.0
H164 H 0.96254 0.72409 0.62051 0.0
H165 H 0.97808 0.76355 0.58262 0.0
H166 H 0.94445 0.70114 0.59318 0.0
H167 H 0.95977 0.73987 0.55591 0.0
H168 H 0.98185 0.71235 0.64441 0.0
H169 H 0.99596 0.76161 0.68924 0.0
H170 H 0.96118 0.69606 0.66556 0.0
H171 H 0.97513 0.74438 0.70961 0.0
H172 H 0.02574 0.68636 0.62244 0.0
H173 H 1.00749 0.69859 0.56793 0.0
H174 H 0.95056 0.79389 0.69707 0.0
H175 H 0.92451 0.73684 0.66896 0.0
Li176 Li 0.57259 0.80361 0.88408 0.0
Li177 Li 0.58842 0.82477 0.91162 0.0
Li178 Li 0.60593 0.80528 0.89131 0.0
Li179 Li 0.58128 0.79092 0.91184 0.0
C180 C 0.59524 0.8341 0.86943 0.0
N181 N 0.59951 0.85197 0.83816 0.0
C182 C 0.58921 0.85136 0.86929 0.0
C183 C 0.60357 0.82602 0.85366 0.0
C184 C 0.59144 0.86013 0.85334 0.0
C185 C 0.60558 0.83525 0.838 0.0
C186 C 0.54978 0.81898 0.91112 0.0
C187 C 0.52341 0.82895 0.92629 0.0
N188 N 0.52276 0.84154 0.91422 0.0
C189 C 0.54885 0.83203 0.89889 0.0
C190 C 0.53696 0.81742 0.92496 0.0
C191 C 0.53509 0.84329 0.90067 0.0
C192 C 0.53591 0.78873 0.86839 0.0
N193 N 0.55245 0.79865 0.86418 0.0
C194 C 0.53875 0.80003 0.8333 0.0
C195 C 0.55417 0.80414 0.84694 0.0
C196 C 0.52145 0.79003 0.8374 0.0
C197 C 0.52017 0.78422 0.85516 0.0
H198 H 0.53495 0.78435 0.88212 0.0
H199 H 0.56741 0.81164 0.84362 0.0
C200 C 0.60129 0.86404 0.92003 0.0
N201 N 0.59038 0.84948 0.92636 0.0
C202 C 0.60051 0.88284 0.92762 0.0
C203 C 0.57862 0.87133 0.94934 0.0
C204 C 0.57976 0.85269 0.94124 0.0
C205 C 0.58849 0.8866 0.94193 0.0
H206 H 0.60984 0.86101 0.90839 0.0
H207 H 0.57142 0.8408 0.94615 0.0
C208 C 0.57596 0.76878 0.87009 0.0
N209 N 0.55494 0.74318 0.84014 0.0
C210 C 0.5611 0.75498 0.87363 0.0
C211 C 0.58025 0.76944 0.85133 0.0
C212 C 0.55061 0.74219 0.85829 0.0
C213 C 0.56942 0.75641 0.83639 0.0
C214 C 0.61272 0.81982 0.93711 0.0
C215 C 0.62866 0.8342 0.93846 0.0
C216 C 0.60323 0.8174 0.95329 0.0
C217 C 0.63478 0.84605 0.95604 0.0
C218 C 0.60981 0.82954 0.97062 0.0
N219 N 0.6253 0.8435 0.97162 0.0
C220 C 0.64153 0.8212 0.88233 0.0
C221 C 0.63156 0.78836 0.8693 0.0
C222 C 0.6571 0.82226 0.87165 0.0
N223 N 0.62903 0.80453 0.88067 0.0
C224 C 0.64685 0.7888 0.85824 0.0
C225 C 0.65964 0.80604 0.85899 0.0
H226 H 0.63888 0.8339 0.89121 0.0
H227 H 0.62119 0.77539 0.86807 0.0
C228 C 0.55491 0.76806 0.92877 0.0
N229 N 0.57347 0.77148 0.92587 0.0
C230 C 0.54754 0.75313 0.93782 0.0
C231 C 0.57859 0.74553 0.9409 0.0
C232 C 0.5854 0.76074 0.93182 0.0
C233 C 0.55934 0.74143 0.94377 0.0
H234 H 0.54573 0.77668 0.92362 0.0
H235 H 0.60008 0.76373 0.92913 0.0
O236 O 0.59356 0.82557 0.88517 0.0
O237 O 0.56339 0.80804 0.90991 0.0
O238 O 0.58602 0.78179 0.88489 0.0
O239 O 0.60615 0.80844 0.91993 0.0
H240 H 0.58292 0.85799 0.88139 0.0
H241 H 0.60817 0.81263 0.85331 0.0
H242 H 0.58679 0.87346 0.85306 0.0
H243 H 0.61191 0.82909 0.82569 0.0
H244 H 0.51343 0.82793 0.93697 0.0
H245 H 0.55861 0.83343 0.88813 0.0
H246 H 0.5376 0.80757 0.93471 0.0
H247 H 0.53424 0.85344 0.89128 0.0
H248 H 0.54036 0.80458 0.81969 0.0
H249 H 0.50703 0.77669 0.859 0.0
H250 H 0.60853 0.89429 0.92174 0.0
H251 H 0.56916 0.87367 0.96033 0.0
H252 H 0.55756 0.75429 0.88804 0.0
H253 H 0.59166 0.78005 0.84832 0.0
H254 H 0.53899 0.73152 0.86081 0.0
H255 H 0.5725 0.75685 0.82179 0.0
H256 H 0.6361 0.83629 0.92603 0.0
H257 H 0.59079 0.8064 0.95242 0.0
H258 H 0.64703 0.85732 0.95729 0.0
H259 H 0.60255 0.82791 0.98325 0.0
H260 H 0.66673 0.83577 0.87292 0.0
H261 H 0.64806 0.776 0.84851 0.0
H262 H 0.53269 0.75069 0.93997 0.0
H263 H 0.58815 0.73675 0.94506 0.0
Li264 Li 0.50626 0.28802 0.13445 0.0
Li265 Li 0.52646 0.28178 0.16031 0.0
Li266 Li 0.51088 0.25605 0.13456 0.0
Li267 Li 0.49319 0.27082 0.15895 0.0
C268 C 0.53958 0.28988 0.12174 0.0
N269 N 0.55719 0.31443 0.0996 0.0
C270 C 0.55294 0.30593 0.13023 0.0
C271 C 0.53521 0.2863 0.10198 0.0
C272 C 0.5617 0.31815 0.11879 0.0
C273 C 0.54424 0.2989 0.09104 0.0
C274 C 0.49525 0.30718 0.17243 0.0
C275 C 0.48171 0.31616 0.20193 0.0
N276 N 0.46981 0.32482 0.19263 0.0
C277 C 0.48287 0.31617 0.16317 0.0
C278 C 0.49469 0.3072 0.19199 0.0
C279 C 0.47014 0.32503 0.17363 0.0
C280 C 0.49291 0.30058 0.10144 0.0
N281 N 0.50347 0.30616 0.11845 0.0
C282 C 0.51405 0.33717 0.11133 0.0
C283 C 0.51361 0.32416 0.12376 0.0
C284 C 0.50393 0.33158 0.09327 0.0
C285 C 0.49297 0.31311 0.08854 0.0
H286 H 0.48492 0.28623 0.09761 0.0
H287 H 0.52182 0.32821 0.13743 0.0
C288 C 0.56438 0.28374 0.17082 0.0
N289 N 0.54888 0.29019 0.17682 0.0
C290 C 0.58015 0.28566 0.18357 0.0
C291 C 0.56405 0.3017 0.20822 0.0
C292 C 0.54865 0.29969 0.19489 0.0
C293 C 0.57981 0.29401 0.20277 0.0
H294 H 0.56408 0.27615 0.15638 0.0
H295 H 0.5361 0.30457 0.19928 0.0
C296 C 0.47617 0.24927 0.11915 0.0
N297 N 0.45612 0.21691 0.09554 0.0
C298 C 0.46261 0.2367 0.12636 0.0
C299 C 0.4795 0.2454 0.0999 0.0
C300 C 0.45261 0.22043 0.11419 0.0
C301 C 0.46925 0.22895 0.08822 0.0
C302 C 0.52592 0.24969 0.17302 0.0
C303 C 0.53793 0.23856 0.16412 0.0
C304 C 0.52815 0.25534 0.19287 0.0
C305 C 0.55191 0.23326 0.1752 0.0
C306 C 0.54233 0.24978 0.20344 0.0
N307 N 0.55382 0.23895 0.19446 0.0
C308 C 0.52548 0.23331 0.10534 0.0
C309 C 0.5029 0.21585 0.12175 0.0
C310 C 0.5272 0.21668 0.09318 0.0
N311 N 0.51322 0.23266 0.11902 0.0
C312 C 0.50423 0.1988 0.10992 0.0
C313 C 0.51633 0.19916 0.09524 0.0
H314 H 0.53393 0.24675 0.10385 0.0
H315 H 0.49349 0.21574 0.13298 0.0
C316 C 0.45645 0.27274 0.1693 0.0
N317 N 0.47259 0.26693 0.17415 0.0
C318 C 0.44202 0.27222 0.18147 0.0
C319 C 0.46089 0.25921 0.20307 0.0
C320 C 0.47485 0.25979 0.19039 0.0
C321 C 0.44436 0.26574 0.19877 0.0
H322 H 0.45506 0.27835 0.15628 0.0
H323 H 0.48766 0.25498 0.19373 0.0
O324 O 0.53048 0.278 0.13277 0.0
O325 O 0.50755 0.29808 0.16235 0.0
O326 O 0.4863 0.26514 0.1309 0.0
O327 O 0.51247 0.25552 0.16234 0.0
H328 H 0.55632 0.30911 0.14551 0.0
H329 H 0.52462 0.27418 0.09518 0.0
H330 H 0.572 0.33067 0.12518 0.0
H331 H 0.54085 0.2964 0.07577 0.0
H332 H 0.48099 0.31609 0.21702 0.0
H333 H 0.4829 0.31614 0.14802 0.0
H334 H 0.50381 0.29993 0.19934 0.0
H335 H 0.46044 0.33198 0.16662 0.0
H336 H 0.52241 0.35137 0.11574 0.0
H337 H 0.48506 0.30812 0.07475 0.0
H338 H 0.59218 0.27997 0.17859 0.0
H339 H 0.56311 0.30815 0.22286 0.0
H340 H 0.45993 0.23936 0.14122 0.0
H341 H 0.4902 0.25475 0.09415 0.0
H342 H 0.44211 0.21055 0.1196 0.0
H343 H 0.4718 0.2257 0.07335 0.0
H344 H 0.53671 0.23426 0.14881 0.0
H345 H 0.51944 0.26443 0.20003 0.0
H346 H 0.56133 0.22472 0.16847 0.0
H347 H 0.54433 0.25425 0.21877 0.0
H348 H 0.53703 0.21753 0.08233 0.0
H349 H 0.4956 0.18558 0.11196 0.0
H350 H 0.42949 0.27748 0.17772 0.0
H351 H 0.46306 0.25387 0.21615 0.0
Li352 Li 0.06928 0.79364 0.11728 0.0
Li353 Li 0.08177 0.77812 0.14113 0.0
Li354 Li 0.07297 0.76139 0.10842 0.0
Li355 Li 0.04917 0.7687 0.12943 0.0
C356 C 0.10446 0.79855 0.11204 0.0
N357 N 0.12628 0.82976 0.10135 0.0
C358 C 0.11368 0.81388 0.12591 0.0
C359 C 0.10639 0.79905 0.09276 0.0
C360 C 0.12464 0.82954 0.12021 0.0
C361 C 0.11747 0.81497 0.08764 0.0
C362 C 0.04835 0.79905 0.15422 0.0
C363 C 0.02801 0.79484 0.17945 0.0
N364 N 0.01849 0.80793 0.17408 0.0
C365 C 0.0383 0.81242 0.14893 0.0
C366 C 0.04314 0.79019 0.16961 0.0
C367 C 0.02329 0.81674 0.15918 0.0
C368 C 0.06181 0.81731 0.09172 0.0
N369 N 0.06944 0.8173 0.10951 0.0
C370 C 0.0712 0.85086 0.11823 0.0
C371 C 0.07468 0.83366 0.12257 0.0
C372 C 0.06246 0.8511 0.10025 0.0
C373 C 0.05829 0.83417 0.0867 0.0
H374 H 0.05749 0.80409 0.08177 0.0
H375 H 0.08049 0.83311 0.13672 0.0
C376 C 0.1177 0.77958 0.15728 0.0
N377 N 0.1 0.78074 0.16193 0.0
C378 C 0.13187 0.78001 0.1714 0.0
C379 C 0.10929 0.7826 0.19492 0.0
C380 C 0.09561 0.78248 0.18032 0.0
C381 C 0.12771 0.78122 0.19052 0.0
H382 H 0.12076 0.77807 0.14251 0.0
H383 H 0.0814 0.78323 0.18362 0.0
C384 C 0.04338 0.76223 0.0853 0.0
N385 N 0.02958 0.74065 0.04998 0.0
C386 C 0.02639 0.74911 0.08329 0.0
C387 C 0.05328 0.76443 0.0693 0.0
C388 C 0.01967 0.73833 0.06532 0.0
C389 C 0.0461 0.75336 0.05159 0.0
C390 C 0.07655 0.74203 0.14285 0.0
C391 C 0.09195 0.73486 0.1358 0.0
C392 C 0.07165 0.73984 0.16114 0.0
C393 C 0.10215 0.72554 0.14714 0.0
C394 C 0.08221 0.73045 0.17204 0.0
N395 N 0.09711 0.72356 0.16488 0.0
C396 C 0.0932 0.7409 0.08077 0.0
C397 C 0.06327 0.72573 0.08786 0.0
C398 C 0.09548 0.7241 0.06902 0.0
N399 N 0.07732 0.74123 0.08996 0.0
C400 C 0.06474 0.70894 0.07603 0.0
C401 C 0.08122 0.70773 0.06685 0.0
H402 H 0.10433 0.75338 0.08309 0.0
H403 H 0.05103 0.72635 0.09575 0.0
C404 C 0.01084 0.7694 0.12992 0.0
N405 N 0.02437 0.75999 0.13505 0.0
C406 C 0.99261 0.76452 0.13509 0.0
C407 C 1.0024 0.73969 0.14983 0.0
C408 C 0.02044 0.74505 0.14433 0.0
C409 C 0.98833 0.74975 0.14554 0.0
H410 H 0.01436 0.78098 0.12216 0.0
H411 H 0.03141 0.73759 0.14785 0.0
O412 O 0.09336 0.78328 0.11732 0.0
O413 O 0.06287 0.79433 0.14413 0.0
O414 O 0.05034 0.77274 0.10284 0.0
O415 O 0.06676 0.75175 0.13221 0.0
H416 H 0.11219 0.81378 0.1409 0.0
H417 H 0.09935 0.7873 0.08186 0.0
H418 H 0.13179 0.84154 0.13077 0.0
H419 H 0.11904 0.81558 0.07276 0.0
H420 H 0.02373 0.78794 0.19125 0.0
H421 H 0.0418 0.81917 0.13687 0.0
H422 H 0.05032 0.77939 0.17357 0.0
H423 H 0.01538 0.82701 0.15519 0.0
H424 H 0.07467 0.86367 0.12901 0.0
H425 H 0.05129 0.83371 0.07278 0.0
H426 H 0.14593 0.7794 0.1673 0.0
H427 H 0.10536 0.78335 0.2094 0.0
H428 H 0.01857 0.74709 0.09547 0.0
H429 H 0.06654 0.77433 0.0706 0.0
H430 H 1.00659 0.72807 0.06359 0.0
H431 H 0.05369 0.75483 0.03914 0.0
H432 H 0.09619 0.73669 0.12186 0.0
H433 H 0.06007 0.74569 0.16704 0.0
H434 H 0.11414 0.71999 0.14189 0.0
H435 H 0.07864 0.72877 0.18625 0.0
H436 H 0.10848 0.72374 0.06234 0.0
H437 H 0.05315 0.6969 0.07444 0.0
H438 H 0.98208 0.77243 0.13126 0.0
H439 H 0.99972 0.72831 0.15799 0.0
Li440 Li 0.51867 0.82063 0.41853 0.0
Li441 Li 0.49519 0.80288 0.39241 0.0
Li442 Li 0.50784 0.78765 0.41696 0.0
Li443 Li 0.52782 0.79779 0.39291 0.0
C444 C 0.48058 0.80046 0.43228 0.0
N445 N 0.457 0.7838 0.4564 0.0
C446 C 0.46307 0.7893 0.42505 0.0
C447 C 0.48607 0.80326 0.45179 0.0
C448 C 0.45135 0.78097 0.43747 0.0
C449 C 0.47395 0.79468 0.46375 0.0
C450 C 0.51752 0.83155 0.37674 0.0
C451 C 0.51192 0.83292 0.34341 0.0
N452 N 0.51388 0.85219 0.34796 0.0
C453 C 0.5195 0.85137 0.38108 0.0
C454 C 0.51372 0.82224 0.35776 0.0
C455 C 0.51761 0.86155 0.36633 0.0
C456 C 0.54239 0.8564 0.431 0.0
N457 N 0.52569 0.84532 0.43309 0.0
C458 C 0.51514 0.87194 0.45042 0.0
C459 C 0.51231 0.85255 0.4429 0.0
C460 C 0.53192 0.88396 0.44777 0.0
C461 C 0.54593 0.87585 0.43849 0.0
H462 H 0.55251 0.85037 0.42258 0.0
H463 H 0.49895 0.84348 0.44385 0.0
C464 C 0.46094 0.78867 0.36951 0.0
N465 N 0.47381 0.80461 0.37697 0.0
C466 C 0.4448 0.79001 0.3586 0.0
C467 C 0.456 0.82401 0.36261 0.0
C468 C 0.47138 0.8221 0.37415 0.0
C469 C 0.44216 0.80789 0.3548 0.0
H470 H 0.46305 0.77497 0.37239 0.0
H471 H 0.48139 0.83465 0.38088 0.0
C472 C 0.54942 0.8115 0.43247 0.0
N473 N 0.57978 0.83341 0.45602 0.0
C474 C 0.56679 0.8163 0.42519 0.0
C475 C 0.54753 0.81772 0.45176 0.0
C476 C 0.58197 0.82741 0.43733 0.0
C477 C 0.56303 0.82883 0.46342 0.0
C478 C 0.50594 0.76366 0.37556 0.0
C479 C 0.51262 0.74823 0.38098 0.0
C480 C 0.50139 0.76361 0.35627 0.0
C481 C 0.51499 0.73314 0.36694 0.0
C482 C 0.50395 0.74826 0.34265 0.0
N483 N 0.51066 0.73348 0.34823 0.0
C484 C 0.48849 0.75235 0.42305 0.0
C485 C 0.51456 0.76692 0.44546 0.0
C486 C 0.48723 0.73529 0.42993 0.0
N487 N 0.50242 0.76742 0.43046 0.0
C488 C 0.51378 0.75021 0.45284 0.0
C489 C 0.50049 0.7339 0.4445 0.0
H490 H 0.47921 0.75316 0.41092 0.0
H491 H 0.52567 0.77904 0.45081 0.0
C492 C 0.55466 0.80444 0.36641 0.0
N493 N 0.54745 0.79216 0.37777 0.0
C494 C 0.56945 0.80082 0.35562 0.0
C495 C 0.56951 0.77216 0.36875 0.0
C496 C 0.55472 0.7764 0.37935 0.0
C497 C 0.57708 0.78452 0.35675 0.0
H498 H 0.54926 0.81728 0.36598 0.0
H499 H 0.54931 0.76734 0.38916 0.0
O500 O 0.49245 0.80832 0.42028 0.0
O501 O 0.51897 0.82133 0.39107 0.0
O502 O 0.53436 0.80068 0.42082 0.0
O503 O 0.50356 0.77858 0.38909 0.0
H504 H 0.45864 0.78695 0.40998 0.0
H505 H 0.4996 0.81184 0.4576 0.0
H506 H 0.43779 0.77222 0.43206 0.0
H507 H 0.47805 0.79663 0.47886 0.0
H508 H 0.50896 0.82589 0.32867 0.0
H509 H 0.52228 0.85881 0.3957 0.0
H510 H 0.51218 0.80693 0.35417 0.0
H511 H 0.51905 0.87689 0.36948 0.0
H512 H 0.50381 0.87757 0.45716 0.0
H513 H 0.55915 0.88453 0.43633 0.0
H514 H 0.43446 0.77714 0.35359 0.0
H515 H 0.45516 0.8381 0.35995 0.0
H516 H 0.56855 0.8116 0.41033 0.0
H517 H 0.53417 0.81419 0.45762 0.0
H518 H 0.59548 0.83129 0.43187 0.0
H519 H 0.56173 0.83385 0.47835 0.0
H520 H 0.51622 0.74803 0.39585 0.0
H521 H 0.49585 0.77525 0.35185 0.0
H522 H 0.52031 0.72119 0.37092 0.0
H523 H 0.50055 0.74807 0.32766 0.0
H524 H 0.47673 0.72304 0.42322 0.0
H525 H 0.52443 0.74967 0.46389 0.0
H526 H 0.57489 0.81072 0.34654 0.0
H527 H 0.5753 0.75968 0.37034 0.0
Li528 Li 0.5767 0.29607 0.61591 0.0
Li529 Li 0.594 0.2949 0.64601 0.0
Li530 Li 0.58293 0.26589 0.62217 0.0
Li531 Li 0.56106 0.28185 0.64113 0.0
C532 C 0.61236 0.29609 0.60715 0.0
N533 N 0.63379 0.31237 0.58119 0.0
C534 C 0.62604 0.31257 0.61331 0.0
C535 C 0.6097 0.2878 0.58783 0.0
C536 C 0.63671 0.3206 0.59995 0.0
C537 C 0.62063 0.29628 0.57492 0.0
C538 C 0.56049 0.31853 0.64964 0.0
C539 C 0.5434 0.32888 0.67621 0.0
N540 N 0.53281 0.33675 0.66456 0.0
C541 C 0.5495 0.32679 0.63795 0.0
C542 C 0.55751 0.31965 0.66895 0.0
C543 C 0.53556 0.33593 0.64577 0.0
C544 C 0.5603 0.30307 0.5818 0.0
N545 N 0.57424 0.31015 0.59608 0.0
C546 C 0.58526 0.33668 0.58114 0.0
C547 C 0.58641 0.3268 0.59622 0.0
C548 C 0.5711 0.32959 0.56614 0.0
C549 C 0.5584 0.31268 0.56664 0.0
H550 H 0.55059 0.29001 0.58223 0.0
H551 H 0.59701 0.33239 0.60803 0.0
C552 C 0.63068 0.29999 0.66117 0.0
N553 N 0.61451 0.30656 0.66417 0.0
C554 C 0.64584 0.30523 0.67501 0.0
C555 C 0.62772 0.32452 0.6946 0.0
C556 C 0.61284 0.31893 0.68026 0.0
C557 C 0.64437 0.31738 0.69215 0.0
H558 H 0.63143 0.28992 0.64835 0.0
H559 H 0.59974 0.32379 0.68231 0.0
C560 C 0.54915 0.25609 0.6013 0.0
N561 N 0.53075 0.2233 0.57718 0.0
C562 C 0.53392 0.24435 0.60721 0.0
C563 C 0.5549 0.25124 0.58306 0.0
C564 C 0.52483 0.22782 0.59481 0.0
C565 C 0.54546 0.23457 0.5711 0.0
C566 C 0.5921 0.26661 0.66488 0.0
C567 C 0.60598 0.25563 0.66155 0.0
C568 C 0.59026 0.27541 0.68348 0.0
C569 C 0.61792 0.25378 0.6769 0.0
C570 C 0.60251 0.27325 0.69843 0.0
N571 N 0.61597 0.26258 0.69486 0.0
C572 C 0.60559 0.24163 0.60422 0.0
C573 C 0.57602 0.22592 0.61153 0.0
C574 C 0.61009 0.22425 0.59624 0.0
N575 N 0.58867 0.24214 0.61138 0.0
C576 C 0.57971 0.20831 0.60327 0.0
C577 C 0.59696 0.20724 0.59543 0.0
H578 H 0.61565 0.25471 0.60486 0.0
H579 H 0.56296 0.22668 0.61792 0.0
C580 C 0.52262 0.28297 0.64706 0.0
N581 N 0.53831 0.27696 0.65301 0.0
C582 C 0.506 0.27891 0.65586 0.0
C583 C 0.52188 0.26207 0.67626 0.0
C584 C 0.53818 0.26658 0.6672 0.0
C585 C 0.50551 0.26826 0.67062 0.0
H586 H 0.523 0.29081 0.63541 0.0
H587 H 0.5507 0.26161 0.67137 0.0
O588 O 0.60163 0.28814 0.61998 0.0
O589 O 0.57408 0.30938 0.64222 0.0
O590 O 0.55829 0.27229 0.61327 0.0
O591 O 0.58065 0.2691 0.64996 0.0
H592 H 0.62823 0.31922 0.6282 0.0
H593 H 0.59924 0.275 0.58285 0.0
H594 H 0.64727 0.33341 0.60449 0.0
H595 H 0.61864 0.29007 0.5599 0.0
H596 H 0.54083 0.32971 0.69108 0.0
H597 H 0.55163 0.32606 0.62298 0.0
H598 H 0.56578 0.31318 0.67815 0.0
H599 H 0.52689 0.34233 0.63688 0.0
H600 H 0.59504 0.34994 0.5814 0.0
H601 H 0.54719 0.30692 0.55537 0.0
H602 H 0.65822 0.29903 0.67267 0.0
H603 H 0.62607 0.33394 0.7076 0.0
H604 H 0.52926 0.24787 0.62126 0.0
H605 H 0.56659 0.2602 0.57823 0.0
H606 H 0.51308 0.21856 0.59922 0.0
H607 H 0.54984 0.23059 0.55699 0.0
H608 H 0.60767 0.24879 0.64727 0.0
H609 H 0.57972 0.28413 0.68628 0.0
H610 H 0.62879 0.24542 0.67452 0.0
H611 H 0.60137 0.28014 0.71286 0.0
H612 H 0.62375 0.2242 0.59086 0.0
H613 H 0.56893 0.19576 0.60278 0.0
H614 H 0.49358 0.28373 0.65094 0.0
H615 H 0.52214 0.25395 0.68768 0.0
Li616 Li 1.0069 0.29781 0.89794 0.0
Li617 Li 0.98811 0.27299 0.87558 0.0
Li618 Li 1.00199 0.2669 0.90517 0.0
Li619 Li 0.02269 0.2745 0.87953 0.0
C620 C 0.97299 0.29565 0.9097 0.0
N621 N 0.95388 0.32331 0.92558 0.0
C622 C 0.9583 0.30027 0.89896 0.0
C623 C 0.97794 0.30511 0.92853 0.0
C624 C 0.94881 0.31428 0.90726 0.0
C625 C 0.96813 0.31906 0.93629 0.0
C626 C 0.00932 0.30977 0.86474 0.0
C627 C 0.0274 0.34011 0.86109 0.0
N628 N 0.01125 0.3456 0.85561 0.0
C629 C 0.9929 0.3157 0.85904 0.0
C630 C 0.02672 0.32203 0.86571 0.0
C631 C 0.99418 0.33387 0.85447 0.0
C632 C 0.02815 0.33088 0.91982 0.0
N633 N 0.01166 0.32446 0.90873 0.0
C634 C 1.0052 0.35605 0.91254 0.0
C635 C 1.00013 0.33658 0.90508 0.0
C636 C 0.02235 0.36306 0.92375 0.0
C637 C 0.03371 0.35013 0.92762 0.0
H638 H 0.03722 0.32111 0.92236 0.0
H639 H 0.98714 0.33125 0.89612 0.0
C640 C 0.9507 0.25647 0.86267 0.0
N641 N 0.96718 0.26523 0.85723 0.0
C642 C 0.93481 0.25083 0.84967 0.0
C643 C 0.9533 0.26296 0.82562 0.0
C644 C 0.96889 0.26824 0.83906 0.0
C645 C 0.93595 0.25432 0.83096 0.0
H646 H 0.94988 0.25416 0.87721 0.0
H647 H 0.98232 0.27493 0.83511 0.0
C648 C 0.03596 0.27979 0.92168 0.0
N649 N 0.05378 0.26759 0.95125 0.0
C650 C 0.04752 0.26638 0.9178 0.0
C651 C 0.03358 0.28711 0.94059 0.0
C652 C 0.05639 0.26038 0.93295 0.0
C653 C 0.04266 0.28071 0.95534 0.0
C654 C 0.9904 0.23673 0.86858 0.0
C655 C 0.9769 0.2255 0.87725 0.0
C656 C 0.99103 0.23272 0.8488 0.0
C657 C 0.96428 0.21036 0.86597 0.0
C658 C 0.97813 0.21748 0.83802 0.0
N659 N 0.96514 0.20671 0.84675 0.0
C660 C 0.99232 0.25854 0.9413 0.0
C661 C 1.00682 0.23599 0.92248 0.0
C662 C 0.99317 0.24907 0.95673 0.0
N663 N 0.99951 0.25213 0.9248 0.0
C664 C 1.00767 0.22591 0.93742 0.0
C665 C 1.00115 0.2327 0.95492 0.0
H666 H 0.98659 0.27139 0.94275 0.0
H667 H 0.01262 0.23137 0.90926 0.0
C668 C 0.05995 0.28523 0.87159 0.0
N669 N 0.0447 0.27083 0.86755 0.0
C670 C 0.07633 0.28381 0.86253 0.0
C671 C 0.06118 0.25248 0.84578 0.0
C672 C 0.04509 0.25452 0.85518 0.0
C673 C 0.07702 0.26735 0.84926 0.0
H674 H 0.05934 0.29786 0.88182 0.0
H675 H 0.03288 0.24316 0.85249 0.0
O676 O 0.9823 0.28181 0.90188 0.0
O677 O 0.00835 0.2921 0.86943 0.0
O678 O 0.02661 0.28534 0.90704 0.0
O679 O 1.00255 0.25193 0.87933 0.0
H680 H 0.95435 0.29326 0.88434 0.0
H681 H 0.98953 0.30207 0.93693 0.0
H682 H 0.93745 0.31802 0.89909 0.0
H683 H 0.97192 0.32659 0.95078 0.0
H684 H 0.04076 0.34979 0.86189 0.0
H685 H 0.97928 0.30654 0.85848 0.0
H686 H 0.03954 0.31771 0.87015 0.0
H687 H 0.98158 0.33868 0.85014 0.0
H688 H 0.99611 0.36556 0.90908 0.0
H689 H 0.0469 0.35484 0.93646 0.0
H690 H 0.92163 0.24443 0.85442 0.0
H691 H 0.95474 0.26574 0.81127 0.0
H692 H 0.04939 0.26044 0.90325 0.0
H693 H 0.02454 0.29739 0.94383 0.0
H694 H 0.06528 0.24991 0.93016 0.0
H695 H 0.0408 0.28611 0.97004 0.0
H696 H 0.976 0.22857 0.89249 0.0
H697 H 1.00107 0.24154 0.84178 0.0
H698 H 0.95372 0.20158 0.87248 0.0
H699 H 0.97837 0.21431 0.82269 0.0
H700 H 0.98798 0.25466 0.97003 0.0
H701 H 0.01416 0.21346 0.93559 0.0
H702 H 0.08834 0.29545 0.86595 0.0
H703 H 0.06107 0.23958 0.83561 0.0
Li704 Li 0.41929 0.03043 0.31145 0.0
Li705 Li 0.39075 0.00722 0.29822 0.0
Li706 Li 0.4124 0.01943 0.27803 0.0
Li707 Li 0.39238 0.03979 0.29352 0.0
C708 C 0.42904 0.99302 0.28931 0.0
N709 N 0.45288 0.97088 0.2721 0.0
C710 C 0.42238 0.97891 0.27329 0.0
C711 C 0.44786 0.99584 0.29654 0.0
C712 C 0.43464 0.96789 0.26479 0.0
C713 C 0.45967 0.98449 0.28765 0.0
C714 C 0.39132 0.02641 0.33627 0.0
C715 C 0.38389 0.03458 0.36878 0.0
N716 N 0.3892 0.01849 0.37275 0.0
C717 C 0.39669 0.00994 0.34069 0.0
C718 C 0.38485 0.03883 0.35042 0.0
C719 C 0.39552 1.00619 0.3592 0.0
C720 C 0.44594 0.05783 0.33643 0.0
N721 N 0.43805 0.039 0.33214 0.0
C722 C 0.45717 0.03237 0.35757 0.0
C723 C 0.44332 0.02628 0.34234 0.0
C724 C 0.46571 0.05174 0.36232 0.0
C725 C 0.45994 0.06454 0.35149 0.0
H726 H 0.44141 0.06761 0.32806 0.0
H727 H 0.43677 0.01139 0.33864 0.0
C728 C 0.37553 0.9681 0.29517 0.0
N729 N 0.3728 0.9859 0.30214 0.0
C730 C 0.36168 0.9523 0.29589 0.0
C731 C 0.34285 0.97332 0.31202 0.0
C732 C 0.35699 0.9888 0.31068 0.0
C733 C 0.34504 0.95488 0.30419 0.0
H734 H 0.38826 0.96617 0.28867 0.0
H735 H 0.35515 1.00316 0.316 0.0
C736 C 0.43303 0.05407 0.28075 0.0
N737 N 0.4594 0.06837 0.25775 0.0
C738 C 0.4273 0.06064 0.26446 0.0
C739 C 0.45218 0.05492 0.28544 0.0
C740 C 0.44085 0.06776 0.25297 0.0
C741 C 0.4653 0.06219 0.27362 0.0
C742 C 0.36804 1.00514 0.26793 0.0
C743 C 0.3671 0.98758 0.25597 0.0
C744 C 0.35148 0.0107 0.27379 0.0
C745 C 0.34956 0.97575 0.25024 0.0
C746 C 0.33421 0.99848 0.26771 0.0
N747 N 0.33362 0.9814 0.25619 0.0
C748 C 0.44219 0.01456 0.25403 0.0
C749 C 0.41213 0.01256 0.23812 0.0
C750 C 0.45011 0.01197 0.23668 0.0
N751 N 0.42349 0.0147 0.25445 0.0
C752 C 0.41949 0.01009 0.22044 0.0
C753 C 0.43875 0.00982 0.21956 0.0
H754 H 0.45105 0.01671 0.26717 0.0
H755 H 0.3974 0.01319 0.23884 0.0
C756 C 0.3718 0.06879 0.30571 0.0
N757 N 0.37808 0.05852 0.29053 0.0
C758 C 0.35984 0.08137 0.30282 0.0
C759 C 0.36141 0.0727 0.2688 0.0
C760 C 0.3732 0.06023 0.27234 0.0
C761 C 0.35446 0.08335 0.28415 0.0
H762 H 0.37582 0.06698 0.32 0.0
H763 H 0.37811 0.05152 0.26056 0.0
O764 O 0.41722 1.00389 0.29795 0.0
O765 O 0.39237 0.03045 0.31825 0.0
O766 O 0.41995 0.04667 0.29194 0.0
O767 O 0.38512 0.01663 0.27422 0.0
H768 H 0.40802 0.9768 0.26718 0.0
H769 H 0.4534 1.0068 0.30874 0.0
H770 H 0.42968 0.95704 0.25232 0.0
H771 H 0.47427 0.98657 0.29308 0.0
H772 H 0.37892 0.04409 0.37986 0.0
H773 H 0.40176 1.00014 0.32999 0.0
H774 H 0.38065 0.05165 0.34729 0.0
H775 H 0.39965 0.99351 0.3628 0.0
H776 H 0.46087 0.02204 0.36574 0.0
H777 H 0.46623 0.07956 0.35456 0.0
H778 H 0.3639 0.93819 0.28996 0.0
H779 H 0.33015 0.97575 0.31853 0.0
H780 H 0.41254 0.06004 0.26059 0.0
H781 H 0.45685 0.04971 0.29789 0.0
H782 H 0.43661 0.07275 0.24024 0.0
H783 H 0.48015 0.0628 0.277 0.0
H784 H 0.37978 0.98306 0.2513 0.0
H785 H 0.35195 0.02415 0.28319 0.0
H786 H 0.34863 0.96206 0.2411 0.0
H787 H 0.32129 1.00254 0.27225 0.0
H788 H 0.465 0.01169 0.23671 0.0
H789 H 0.41028 0.0089 0.20764 0.0
H790 H 0.35488 0.08946 0.31503 0.0
H791 H 0.35737 0.0736 0.25419 0.0
Li792 Li 0.27938 0.20621 0.52037 0.0
Li793 Li 0.29341 0.18068 0.50176 0.0
Li794 Li 0.27872 0.20522 0.48489 0.0
Li795 Li 0.25889 0.18029 0.50008 0.0
C796 C 0.31306 0.22401 0.51563 0.0
N797 N 0.33552 0.25391 0.54049 0.0
C798 C 0.32693 0.22051 0.52825 0.0
C799 C 0.31071 0.24269 0.51551 0.0
C800 C 0.33812 0.23583 0.54074 0.0
C801 C 0.32218 0.25763 0.52822 0.0
C802 C 0.26678 0.16886 0.53385 0.0
C803 C 0.26007 0.14049 0.54767 0.0
N804 N 0.24698 0.14801 0.55779 0.0
C805 C 0.25336 0.17636 0.54444 0.0
C806 C 0.27028 0.15084 0.53552 0.0
C807 C 0.24346 0.16557 0.55645 0.0
C808 C 0.27729 0.2369 0.5542 0.0
N809 N 0.2837 0.22085 0.54683 0.0
C810 C 0.29794 0.21991 0.57782 0.0
C811 C 0.29389 0.21244 0.55835 0.0
C812 C 0.29144 0.23632 0.58594 0.0
C813 C 0.28088 0.24479 0.57381 0.0
H814 H 0.26943 0.24368 0.54502 0.0
H815 H 0.29893 0.19975 0.55239 0.0
C816 C 0.31896 0.1587 0.48459 0.0
N817 N 0.31303 0.16602 0.50149 0.0
C818 C 0.33321 0.14794 0.48418 0.0
C819 C 0.33517 0.1526 0.51859 0.0
C820 C 0.32083 0.16321 0.51833 0.0
C821 C 0.34154 0.1447 0.50134 0.0
H822 H 0.31261 0.16123 0.4714 0.0
H823 H 0.31585 0.16919 0.53158 0.0
C824 C 0.25011 0.22274 0.5097 0.0
N825 N 0.23442 0.25311 0.52551 0.0
C826 C 0.23605 0.22011 0.52215 0.0
C827 C 0.25608 0.24076 0.50514 0.0
C828 C 0.22833 0.23566 0.53004 0.0
C829 C 0.248 0.25594 0.51332 0.0
C830 C 0.2641 0.16288 0.46536 0.0
C831 C 0.24995 0.16783 0.4542 0.0
C832 C 0.26621 0.14388 0.46326 0.0
C833 C 0.238 0.15359 0.44114 0.0
C834 C 0.25398 0.13007 0.45005 0.0
N835 N 0.24024 0.13517 0.43937 0.0
C836 C 0.29714 0.21349 0.45259 0.0
C837 C 0.26835 0.22446 0.45322 0.0
C838 C 0.29974 0.21826 0.43453 0.0
N839 N 0.28153 0.21637 0.46153 0.0
C840 C 0.2705 0.22963 0.43513 0.0
C841 C 0.28619 0.22614 0.42527 0.0
H842 H 0.30735 0.20685 0.45925 0.0
H843 H 0.25581 0.22632 0.46028 0.0
C844 C 0.23574 0.14378 0.49775 0.0
N845 N 0.23502 0.16235 0.49748 0.0
C846 C 0.21921 0.13011 0.49629 0.0
C847 C 0.20121 0.15476 0.49427 0.0
C848 C 0.21818 0.16802 0.49575 0.0
C849 C 0.20155 0.13544 0.49443 0.0
H850 H 0.24923 0.13953 0.49909 0.0
H851 H 0.21788 0.18282 0.49542 0.0
O852 O 0.3015 0.20917 0.50381 0.0
O853 O 0.27647 0.17908 0.52184 0.0
O854 O 0.25761 0.20765 0.50156 0.0
O855 O 0.27559 0.17653 0.47855 0.0
H856 H 0.32887 0.2061 0.52854 0.0
H857 H 0.30006 0.24561 0.50579 0.0
H858 H 0.34882 0.23333 0.55069 0.0
H859 H 0.32046 0.27216 0.52837 0.0
H860 H 0.26254 0.12648 0.54905 0.0
H861 H 0.25062 0.19034 0.5434 0.0
H862 H 0.28064 0.14486 0.52739 0.0
H863 H 0.23298 0.17117 0.5647 0.0
H864 H 0.30597 0.2127 0.5865 0.0
H865 H 0.27574 0.25758 0.57934 0.0
H866 H 0.3378 0.1424 0.47056 0.0
H867 H 0.34097 0.15033 0.53215 0.0
H868 H 0.23112 0.20622 0.52565 0.0
H869 H 0.2668 0.24297 0.49537 0.0
H870 H 0.21748 0.23386 0.53974 0.0
H871 H 0.25252 0.26998 0.50997 0.0
H872 H 0.2481 0.18248 0.45576 0.0
H873 H 0.27704 0.13984 0.47191 0.0
H874 H 0.22692 0.15719 0.43247 0.0
H875 H 0.25536 0.11528 0.44833 0.0
H876 H 0.31218 0.21546 0.42772 0.0
H877 H 0.25958 0.23549 0.42858 0.0
H878 H 0.2203 0.1155 0.49679 0.0
H879 H 0.18799 0.15954 0.49266 0.0
Li880 Li 0.18319 0.04131 0.76931 0.0
Li881 Li 0.15559 0.01959 0.78653 0.0
Li882 Li 0.18089 0.9995 0.76615 0.0
Li883 Li 0.15622 0.01714 0.74786 0.0
C884 C 0.19001 0.02576 0.80872 0.0
N885 N 0.19851 0.0312 0.84768 0.0
C886 C 0.19346 0.04414 0.81956 0.0
C887 C 0.19086 0.01014 0.81764 0.0
C888 C 0.19774 0.0466 0.83926 0.0
C889 C 0.1952 0.0132 0.83737 0.0
C890 C 0.14118 0.04868 0.76424 0.0
C891 C 0.10858 0.05169 0.76273 0.0
N892 N 0.11289 0.06675 0.75361 0.0
C893 C 0.14532 0.06423 0.75494 0.0
C894 C 0.12271 0.04237 0.76825 0.0
C895 C 0.1308 0.07316 0.74965 0.0
C896 C 0.21397 0.07549 0.76154 0.0
N897 N 0.19846 0.07013 0.77104 0.0
C898 C 0.19856 0.10405 0.78169 0.0
C899 C 0.19106 0.08439 0.78122 0.0
C900 C 0.21425 0.11017 0.77169 0.0
C901 C 0.22205 0.09515 0.76179 0.0
H902 H 0.22001 0.06455 0.75322 0.0
H903 H 0.17881 0.08059 0.78878 0.0
C904 C 0.1284 1.00559 0.8165 0.0
N905 N 0.14067 0.02112 0.81296 0.0
C906 C 0.11853 1.00601 0.83341 0.0
C907 C 0.13366 0.03832 0.84398 0.0
C908 C 0.14327 0.03735 0.82676 0.0
C909 C 0.12064 0.02257 0.8479 0.0
H910 H 0.12609 0.9925 0.80614 0.0
H911 H 0.15287 0.04991 0.82457 0.0
C912 C 0.18651 0.01693 0.7278 0.0
N913 N 0.18826 0.01229 0.6888 0.0
C914 C 0.18415 0.99865 0.71689 0.0
C915 C 0.1898 0.03285 0.71894 0.0
C916 C 0.18508 0.9966 0.69717 0.0
C917 C 0.19064 0.03021 0.69919 0.0
C918 C 0.13756 0.98136 0.75573 0.0
C919 C 0.14174 0.96578 0.74351 0.0
C920 C 0.11883 0.98246 0.75845 0.0
C921 C 0.12701 0.9515 0.73413 0.0
C922 C 0.1045 0.96789 0.7488 0.0
N923 N 0.10886 0.95285 0.73694 0.0
C924 C 0.18981 0.95881 0.77412 0.0
C925 C 0.21133 0.97313 0.75533 0.0
C926 C 0.19931 0.94272 0.77337 0.0
N927 N 0.19573 0.97416 0.76528 0.0
C928 C 0.22117 0.95741 0.75428 0.0
C929 C 0.2157 0.94141 0.76346 0.0
H930 H 0.17751 0.9588 0.78204 0.0
H931 H 0.21644 0.98463 0.7479 0.0
C932 C 0.14312 0.03271 0.71169 0.0
N933 N 0.14079 0.01676 0.72011 0.0
C934 C 0.134 0.03294 0.69332 0.0
C935 C 0.11976 1.0004 0.69169 0.0
C936 C 0.12905 1.00078 0.71007 0.0
C937 C 0.12204 0.01656 0.68245 0.0
H938 H 0.15248 0.04552 0.71898 0.0
H939 H 0.12683 0.98794 0.71612 0.0
O940 O 0.18524 0.02302 0.78954 0.0
O941 O 0.15513 0.03961 0.76939 0.0
O942 O 0.185 0.01916 0.747 0.0
O943 O 0.15177 0.99554 0.76485 0.0
H944 H 0.19269 0.05634 0.81284 0.0
H945 H 0.18809 0.99582 0.80941 0.0
H946 H 0.20039 0.06073 0.84786 0.0
H947 H 0.19588 1.00125 0.84449 0.0
H948 H 0.0942 0.04695 0.7657 0.0
H949 H 0.15955 0.06922 0.75167 0.0
H950 H 0.11933 0.0304 0.77553 0.0
H951 H 0.13376 0.08515 0.74235 0.0
H952 H 0.19183 0.11447 0.78992 0.0
H953 H 0.23399 0.09849 0.75366 0.0
H954 H 0.10934 0.99299 0.83505 0.0
H955 H 0.13628 0.05165 0.85402 0.0
H956 H 0.18147 0.98619 0.72357 0.0
H957 H 0.19145 0.04708 0.7272 0.0
H958 H 0.18321 0.98255 0.68851 0.0
H959 H 0.19307 0.04239 0.6921 0.0
H960 H 0.1562 0.96478 0.74126 0.0
H961 H 0.11541 0.99444 0.76788 0.0
H962 H 0.13001 0.93936 0.7246 0.0
H963 H 0.08993 0.96855 0.75072 0.0
H964 H 0.19384 0.93142 0.7809 0.0
H965 H 0.23311 0.95793 0.74586 0.0
H966 H 0.1368 0.04592 0.68749 0.0
H967 H 0.11065 0.98723 0.68484 0.0
Li968 Li 0.26074 0.96144 0.99998 0.0
Li969 Li 0.27649 0.94001 0.01487 0.0
Li970 Li 0.29698 0.96429 1.00078 0.0
Li971 Li 0.2758 0.93491 0.97946 0.0
C972 C 0.27619 0.98423 0.0324 0.0
N973 N 0.26659 0.01671 0.0523 0.0
C974 C 0.26137 0.98275 0.04412 0.0
C975 C 0.28615 1.00221 0.03083 0.0
C976 C 0.25672 0.99935 0.05405 0.0
C977 C 0.28108 0.01846 0.04102 0.0
C978 C 0.24338 0.91883 1.00352 0.0
C979 C 0.23144 0.88564 1.00392 0.0
N980 N 0.22267 0.89074 0.0198 0.0
C981 C 0.23421 0.92375 0.01981 0.0
C982 C 0.24199 0.89963 0.99549 0.0
C983 C 0.22383 0.90934 0.02784 0.0
C984 C 0.23895 0.99312 0.00511 0.0
N985 N 0.23764 0.97382 1.00142 0.0
C986 C 0.20378 0.96983 1.00246 0.0
C987 C 0.22029 0.96226 0.99967 0.0
C988 C 0.20476 0.98967 0.00712 0.0
C989 C 0.22281 1.00127 0.00804 0.0
H990 H 0.25259 1.00233 0.00622 0.0
H991 H 0.21916 0.94699 0.99644 0.0
C992 C 0.27797 0.93776 0.05436 0.0
N993 N 0.2763 0.92681 0.03669 0.0
C994 C 0.27743 0.92941 0.0707 0.0
C995 C 0.27402 0.89856 0.05058 0.0
C996 C 0.27459 0.90753 0.03459 0.0
C997 C 0.27524 0.9095 0.069 0.0
H998 H 0.27972 0.95305 0.05583 0.0
H999 H 0.27348 0.89902 0.02049 0.0
C1000 C 0.28641 0.97645 0.9684 0.0
N1001 N 0.30455 1.00349 0.94918 0.0
C1002 C 0.29454 0.9708 0.95161 0.0
C1003 C 0.28738 0.99582 0.97536 0.0
C1004 C 0.30367 0.9847 0.94212 0.0
C1005 C 0.29665 0.00928 0.96545 0.0
C1006 C 0.30723 0.92544 0.00625 0.0
C1007 C 0.31937 0.93317 0.02268 0.0
C1008 C 0.3051 0.90609 0.9985 0.0
C1009 C 0.32913 0.92132 0.03119 0.0
C1010 C 0.31514 0.89472 0.00742 0.0
N1011 N 0.32683 0.90251 0.02345 0.0
C1012 C 0.33193 0.98707 0.02069 0.0
C1013 C 0.33428 0.977 0.98786 0.0
C1014 C 0.3515 0.99388 0.02369 0.0
N1015 N 0.3236 0.97856 1.00302 0.0
C1016 C 0.35395 0.98377 0.99023 0.0
C1017 C 0.36303 0.99192 0.00847 0.0
H1018 H 0.32352 0.98774 0.03274 0.0
H1019 H 0.32775 0.9696 0.97403 0.0
C1020 C 0.25864 0.90621 0.94673 0.0
N1021 N 0.27516 0.91677 0.95571 0.0
C1022 C 0.25855 0.89229 0.93046 0.0
C1023 C 0.2924 0.90073 0.93242 0.0
C1024 C 0.29186 0.91438 0.94875 0.0
C1025 C 0.27561 0.88921 0.92312 0.0
H1026 H 0.24549 0.90837 0.95237 0.0
H1027 H 0.30485 0.92287 0.95611 0.0
O1028 O 0.28083 0.96814 0.02244 0.0
O1029 O 0.25384 0.93273 0.99563 0.0
O1030 O 0.27766 0.96308 0.97804 0.0
O1031 O 0.29728 0.93672 0.99793 0.0
H1032 H 0.25346 0.96895 0.04542 0.0
H1033 H 0.29755 1.00362 0.02171 0.0
H1034 H 0.24523 0.99842 0.0631 0.0
H1035 H 0.28862 0.03248 0.03989 0.0
H1036 H 0.2303 0.87072 0.99791 0.0
H1037 H 0.23527 0.93853 0.02629 0.0
H1038 H 0.24919 0.89555 0.98304 0.0
H1039 H 0.21675 0.91294 0.04051 0.0
H1040 H 0.19044 0.96009 1.00157 0.0
H1041 H 0.22459 0.01664 0.01109 0.0
H1042 H 0.27885 0.93852 0.08455 0.0
H1043 H 0.27223 0.88319 0.04849 0.0
H1044 H 0.29388 0.95585 0.94605 0.0
H1045 H 0.2811 1.00039 0.98829 0.0
H1046 H 0.3101 0.98055 0.92915 0.0
H1047 H 0.29757 0.02433 0.9707 0.0
H1048 H 0.32104 0.9481 0.02892 0.0
H1049 H 0.29565 0.89988 0.98585 0.0
H1050 H 0.3385 0.92708 0.04398 0.0
H1051 H 0.31357 0.8797 1.00164 0.0
H1052 H 0.35761 1.00017 0.03802 0.0
H1053 H 0.36207 0.98162 0.97805 0.0
H1054 H 0.2452 0.88399 0.9237 0.0
H1055 H 0.30591 0.89884 0.92749 0.0
Li1056 Li 0.30026 0.38776 0.03271 0.0
Li1057 Li 0.31243 0.36465 0.0487 0.0
Li1058 Li 0.33458 0.38887 0.03387 0.0
Li1059 Li 0.31105 0.36216 0.01279 0.0
C1060 C 0.3112 0.39886 0.07222 0.0
N1061 N 0.29621 0.40952 0.10619 0.0
C1062 C 0.29247 0.39143 0.07457 0.0
C1063 C 0.3223 0.41172 0.08712 0.0
C1064 C 0.28516 0.39699 0.09186 0.0
C1065 C 0.31445 0.41694 0.10419 0.0
C1066 C 0.28054 0.34151 0.02762 0.0
C1067 C 0.28129 0.30829 0.02694 0.0
N1068 N 0.26222 0.30403 0.02358 0.0
C1069 C 0.26095 0.33683 0.02423 0.0
C1070 C 0.29081 0.32716 0.02904 0.0
C1071 C 0.25195 0.31778 0.0222 0.0
C1072 C 0.26476 0.39663 0.02242 0.0
N1073 N 0.28154 0.40374 0.03293 0.0
C1074 C 0.27182 0.43344 0.04308 0.0
C1075 C 0.28531 0.42182 0.04308 0.0
C1076 C 0.25431 0.42648 0.0324 0.0
C1077 C 0.25093 0.40782 0.02188 0.0
H1078 H 0.26215 0.38225 0.01436 0.0
H1079 H 0.29883 0.42726 0.05112 0.0
C1080 C 0.32689 0.35534 0.08344 0.0
N1081 N 0.31073 0.35281 0.07186 0.0
C1082 C 0.32657 0.35011 0.10152 0.0
C1083 C 0.29307 0.33896 0.09548 0.0
C1084 C 0.294 0.34457 0.0775 0.0
C1085 C 0.30946 0.34213 0.10804 0.0
H1086 H 0.34001 0.36214 0.07892 0.0
H1087 H 0.28116 0.34306 0.06845 0.0
C1088 C 0.31042 0.40237 1.00288 0.0
N1089 N 0.29536 0.42847 0.98578 0.0
C1090 C 0.29594 0.39611 0.9882 0.0
C1091 C 0.31731 0.42188 0.00882 0.0
C1092 C 0.28849 0.40954 0.97974 0.0
C1093 C 0.30949 0.43486 1.0 0.0
C1094 C 0.34493 0.35023 0.02243 0.0
C1095 C 0.35589 0.35759 0.00891 0.0
C1096 C 0.34649 0.33244 0.02677 0.0
C1097 C 0.36809 0.3469 0.99976 0.0
C1098 C 0.35886 0.32219 0.01731 0.0
N1099 N 0.3693 0.32957 1.0041 0.0
C1100 C 0.36977 0.41029 0.05287 0.0
C1101 C 0.36576 0.41145 0.01998 0.0
C1102 C 0.38729 0.42266 0.05466 0.0
N1103 N 0.35932 0.40503 0.03574 0.0
C1104 C 0.38326 0.42374 0.0211 0.0
C1105 C 0.39425 0.42973 0.03867 0.0
H1106 H 0.3644 0.40504 0.06521 0.0
H1107 H 0.35717 0.40722 0.00652 0.0
C1108 C 0.29265 0.33289 0.98011 0.0
N1109 N 0.30752 0.34744 0.98648 0.0
C1110 C 0.28904 0.32501 0.96061 0.0
C1111 C 0.31629 0.34671 0.95432 0.0
C1112 C 0.31933 0.35425 0.97394 0.0
C1113 C 0.30071 0.33213 0.94727 0.0
H1114 H 0.28306 0.32777 0.98994 0.0
H1115 H 0.33069 0.36622 0.97902 0.0
O1116 O 0.31877 0.39339 0.05554 0.0
O1117 O 0.28948 0.36012 0.02981 0.0
O1118 O 0.31746 0.38948 0.01175 0.0
O1119 O 0.33287 0.36045 0.03151 0.0
H1120 H 0.2837 0.38141 0.06321 0.0
H1121 H 0.33683 0.41755 0.08552 0.0
H1122 H 0.27071 0.39132 0.09389 0.0
H1123 H 0.32288 0.42686 0.11586 0.0
H1124 H 0.28907 0.29703 0.02799 0.0
H1125 H 0.25279 0.3478 0.0232 0.0
H1126 H 0.30593 0.33053 0.03178 0.0
H1127 H 0.23679 0.31394 0.01955 0.0
H1128 H 0.27518 0.44781 0.05119 0.0
H1129 H 0.23762 0.40179 0.01357 0.0
H1130 H 0.33964 0.35272 0.11053 0.0
H1131 H 0.27952 0.33311 0.09986 0.0
H1132 H 0.29036 0.38104 0.98356 0.0
H1133 H 0.32842 0.42693 0.02028 0.0
H1134 H 0.27721 0.40492 0.96844 0.0
H1135 H 0.3146 0.45001 0.00451 0.0
H1136 H 0.35491 0.37135 0.00546 0.0
H1137 H 0.33828 0.32663 0.03738 0.0
H1138 H 0.37658 0.3524 0.98919 0.0
H1139 H 0.36019 0.30839 0.0205 0.0
H1140 H 0.39529 0.42668 0.06847 0.0
H1141 H 0.38786 0.42895 0.00844 0.0
H1142 H 0.27694 0.31368 0.95598 0.0
H1143 H 0.32555 0.35293 0.94469 0.0
Li1144 Li 0.80945 0.13829 0.05475 0.0
Li1145 Li 0.82505 0.11373 0.03192 0.0
Li1146 Li 0.80823 0.13633 0.01968 0.0
Li1147 Li 0.78855 0.1101 0.03135 0.0
C1148 C 0.84262 0.15538 0.03031 0.0
N1149 N 0.86573 0.18138 0.01356 0.0
C1150 C 0.85054 0.14928 0.01352 0.0
C1151 C 0.84648 0.17468 0.03862 0.0
C1152 C 0.86218 0.16265 0.00526 0.0
C1153 C 0.8582 0.18761 0.02992 0.0
C1154 C 0.80105 0.09409 0.06115 0.0
C1155 C 0.79653 0.06027 0.06082 0.0
N1156 N 0.78657 0.06249 0.07636 0.0
C1157 C 0.7909 0.09608 0.07719 0.0
C1158 C 0.80402 0.0761 0.05294 0.0
C1159 C 0.78364 0.07991 0.08465 0.0
C1160 C 0.79422 0.15638 0.08777 0.0
N1161 N 0.81049 0.15517 0.07937 0.0
C1162 C 0.82741 0.18066 0.10348 0.0
C1163 C 0.82699 0.16675 0.08714 0.0
C1164 C 0.81071 0.18273 0.11212 0.0
C1165 C 0.79402 0.17002 0.10422 0.0
H1166 H 0.78121 0.14716 0.0813 0.0
H1167 H 0.8398 0.16552 0.08038 0.0
C1168 C 0.85076 0.08539 0.02022 0.0
N1169 N 0.84925 0.10306 0.02959 0.0
C1170 C 0.86863 0.08038 0.0176 0.0
C1171 C 0.8832 0.11141 0.03479 0.0
C1172 C 0.86522 0.11574 0.03721 0.0
C1173 C 0.88534 0.09365 0.02452 0.0
H1174 H 0.83818 0.0752 0.01431 0.0
H1175 H 0.86409 0.12961 0.04488 0.0
C1176 C 0.77753 0.14984 0.03091 0.0
N1177 N 0.75789 0.17514 0.01776 0.0
C1178 C 0.76534 0.14403 0.01425 0.0
C1179 C 0.77966 0.16849 0.04094 0.0
C1180 C 0.75557 0.15705 0.00781 0.0
C1181 C 0.7696 0.18106 0.03406 0.0
C1182 C 0.80788 0.09268 0.99806 0.0
C1183 C 0.82035 0.09413 0.98391 0.0
C1184 C 0.79839 0.07475 1.00036 0.0
C1185 C 0.82319 0.07754 0.9723 0.0
C1186 C 0.8016 0.0585 0.98845 0.0
N1187 N 0.81384 0.06022 0.97479 0.0
C1188 C 0.80896 0.17119 0.00564 0.0
C1189 C 0.80247 0.14348 0.98169 0.0
C1190 C 0.80557 0.18251 0.99227 0.0
N1191 N 0.80706 0.15199 1.00026 0.0
C1192 C 0.79903 0.15432 0.96778 0.0
C1193 C 0.80013 0.17408 0.9731 0.0
H1194 H 0.81233 0.17766 0.02048 0.0
H1195 H 0.80076 0.12817 0.97777 0.0
C1196 C 0.75098 0.09355 0.0421 0.0
N1197 N 0.76199 0.0955 0.02738 0.0
C1198 C 0.73139 0.08641 0.03867 0.0
C1199 C 0.73454 0.08365 0.00503 0.0
C1200 C 0.75402 0.09054 0.00907 0.0
C1201 C 0.72264 0.08147 0.01986 0.0
H1202 H 0.75719 0.09817 0.05662 0.0
H1203 H 0.76268 0.09282 0.99749 0.0
O1204 O 0.83102 0.14248 0.03842 0.0
O1205 O 0.80811 0.1097 0.05354 0.0
O1206 O 0.78761 0.13747 0.03716 0.0
O1207 O 0.80496 0.10876 0.00955 0.0
H1208 H 0.84762 0.1344 0.00687 0.0
H1209 H 0.8403 0.17968 0.05149 0.0
H1210 H 0.86836 0.15815 0.99223 0.0
H1211 H 0.86124 0.20261 0.03614 0.0
H1212 H 0.79865 0.04624 0.05458 0.0
H1213 H 0.78856 0.10996 0.08372 0.0
H1214 H 0.81203 0.07438 0.04063 0.0
H1215 H 0.77567 0.08121 0.097 0.0
H1216 H 0.84069 0.18986 0.10916 0.0
H1217 H 0.78078 0.17109 0.1102 0.0
H1218 H 0.86932 0.0665 0.00959 0.0
H1219 H 0.89544 0.12212 0.0408 0.0
H1220 H 0.76372 0.12975 0.00618 0.0
H1221 H 0.78917 0.17328 0.05376 0.0
H1222 H 0.74622 0.1528 0.99485 0.0
H1223 H 0.77118 0.19556 0.04162 0.0
H1224 H 0.82778 0.10792 0.98194 0.0
H1225 H 0.7887 0.07338 0.01126 0.0
H1226 H 0.83284 0.07843 0.96132 0.0
H1227 H 0.79439 0.04452 0.99009 0.0
H1228 H 0.80679 0.19771 0.99701 0.0
H1229 H 0.79471 0.14718 0.95322 0.0
H1230 H 0.72322 0.085 0.05076 0.0
H1231 H 0.72889 0.08077 0.99027 0.0
Li1232 Li 0.19837 0.55786 0.22508 0.0
Li1233 Li 0.17675 0.54141 0.2425 0.0
Li1234 Li 0.19863 0.52461 0.22514 0.0
Li1235 Li 0.17078 0.53538 0.20836 0.0
C1236 C 0.22067 0.55639 0.25584 0.0
N1237 N 0.25413 0.57828 0.27383 0.0
C1238 C 0.22052 0.57224 0.26994 0.0
C1239 C 0.23784 0.55152 0.25109 0.0
C1240 C 0.23759 0.58317 0.2788 0.0
C1241 C 0.2546 0.5628 0.2603 0.0
C1242 C 0.16053 0.56976 0.23681 0.0
C1243 C 0.13017 0.57724 0.2435 0.0
N1244 N 0.13834 0.58989 0.2593 0.0
C1245 C 0.16861 0.58292 0.25307 0.0
C1246 C 0.14114 0.56693 0.23195 0.0
C1247 C 0.15716 0.59292 0.26428 0.0
C1248 C 0.20779 0.59746 0.22585 0.0
N1249 N 0.21494 0.58125 0.22395 0.0
C1250 C 0.24574 0.59876 0.22167 0.0
C1251 C 0.23345 0.58155 0.22151 0.0
C1252 C 0.23889 0.61585 0.22439 0.0
C1253 C 0.21957 0.615 0.22628 0.0
H1254 H 0.19296 0.59685 0.22728 0.0
H1255 H 0.23876 0.56843 0.21958 0.0
C1256 C 0.17602 0.5413 0.28166 0.0
N1257 N 0.16486 0.54148 0.26576 0.0
C1258 C 0.16819 0.53949 0.29881 0.0
C1259 C 0.13751 0.53834 0.28303 0.0
C1260 C 0.14592 0.53999 0.26614 0.0
C1261 C 0.14868 0.53787 0.29957 0.0
H1262 H 0.19097 0.54202 0.28091 0.0
H1263 H 0.13721 0.53937 0.25321 0.0
C1264 C 0.20735 0.54617 0.18958 0.0
N1265 N 0.22687 0.56521 0.16415 0.0
C1266 C 0.19935 0.55902 0.18073 0.0
C1267 C 0.22522 0.54288 0.18541 0.0
C1268 C 0.20947 0.56854 0.16795 0.0
C1269 C 0.23487 0.55268 0.17253 0.0
C1270 C 0.15689 0.50593 0.23347 0.0
C1271 C 0.16157 0.49687 0.24839 0.0
C1272 C 0.13798 0.50484 0.22747 0.0
C1273 C 0.14719 0.48708 0.25728 0.0
C1274 C 0.12402 0.49484 0.23668 0.0
N1275 N 0.12887 0.48627 0.25129 0.0
C1276 C 0.21662 0.50304 0.24473 0.0
C1277 C 0.22103 0.49676 0.21176 0.0
C1278 C 0.22829 0.49064 0.24857 0.0
N1279 N 0.21331 0.50592 0.22664 0.0
C1280 C 0.23286 0.4841 0.21496 0.0
C1281 C 0.23661 0.48096 0.23361 0.0
H1282 H 0.2105 0.51081 0.25628 0.0
H1283 H 0.21818 0.49944 0.19752 0.0
C1284 C 0.14487 0.54426 0.1826 0.0
N1285 N 0.15275 0.52973 0.18708 0.0
C1286 C 0.13109 0.54094 0.16739 0.0
C1287 C 0.13442 0.50791 0.16105 0.0
C1288 C 0.1479 0.51179 0.1767 0.0
C1289 C 0.1258 0.52261 0.15648 0.0
H1290 H 0.14938 0.55847 0.19081 0.0
H1291 H 0.15454 0.50056 0.18056 0.0
O1292 O 0.20408 0.54556 0.24695 0.0
O1293 O 0.17156 0.55982 0.22569 0.0
O1294 O 0.1978 0.53696 0.20238 0.0
O1295 O 0.17073 0.51595 0.22485 0.0
H1296 H 0.20739 0.57601 0.2741 0.0
H1297 H 0.23829 0.5394 0.24014 0.0
H1298 H 0.23767 0.59552 0.28968 0.0
H1299 H 0.26799 0.55929 0.25663 0.0
H1300 H 0.11514 0.57508 0.23998 0.0
H1301 H 0.18356 0.58537 0.257 0.0
H1302 H 0.13451 0.55659 0.21965 0.0
H1303 H 0.16325 0.60308 0.27692 0.0
H1304 H 0.26044 0.59867 0.2198 0.0
H1305 H 0.21363 0.62779 0.22864 0.0
H1306 H 0.17726 0.53922 0.31131 0.0
H1307 H 0.12236 0.53676 0.28297 0.0
H1308 H 0.18558 0.56179 0.18391 0.0
H1309 H 0.23163 0.53305 0.19223 0.0
H1310 H 0.2035 0.57863 0.16108 0.0
H1311 H 0.24876 0.55037 0.16923 0.0
H1312 H 0.17613 0.49761 0.25322 0.0
H1313 H 0.13412 0.51185 0.216 0.0
H1314 H 0.1506 0.48014 0.26896 0.0
H1315 H 0.10932 0.49398 0.23228 0.0
H1316 H 0.2311 0.489 0.2632 0.0
H1317 H 0.2389 0.47681 0.20302 0.0
H1318 H 0.1249 0.55262 0.16393 0.0
H1319 H 0.13071 0.49365 0.15269 0.0
Li1320 Li 0.79466 0.89094 0.53431 0.0
Li1321 Li 0.80736 0.86827 0.5511 0.0
Li1322 Li 0.82834 0.89305 0.53584 0.0
Li1323 Li 0.8075 0.86605 0.51361 0.0
C1324 C 0.80605 0.91101 0.56875 0.0
N1325 N 0.79192 0.93977 0.59033 0.0
C1326 C 0.7967 0.90762 0.58481 0.0
C1327 C 0.80819 0.92903 0.56368 0.0
C1328 C 0.78968 0.92235 0.59555 0.0
C1329 C 0.80094 0.94338 0.57475 0.0
C1330 C 0.76708 0.86064 0.5321 0.0
C1331 C 0.74056 0.85797 0.5511 0.0
N1332 N 0.72898 0.85823 0.53552 0.0
C1333 C 0.7549 0.86082 0.51627 0.0
C1334 C 0.75987 0.8592 0.54966 0.0
C1335 C 0.73569 0.85962 0.5183 0.0
C1336 C 0.77127 0.91348 0.5183 0.0
N1337 N 0.77415 0.90519 0.53371 0.0
C1338 C 0.74789 0.91635 0.54757 0.0
C1339 C 0.76261 0.90629 0.54809 0.0
C1340 C 0.74477 0.92538 0.53201 0.0
C1341 C 0.75664 0.92367 0.51715 0.0
H1342 H 0.78032 0.91216 0.50681 0.0
H1343 H 0.7647 0.89924 0.56 0.0
C1344 C 0.81378 0.864 0.59094 0.0
N1345 N 0.80549 0.8547 0.57345 0.0
C1346 C 0.8109 0.85584 0.60742 0.0
C1347 C 0.79197 0.82802 0.58767 0.0
C1348 C 0.79503 0.83679 0.57162 0.0
C1349 C 0.79949 0.83766 0.60615 0.0
H1350 H 0.82221 0.87815 0.59228 0.0
H1351 H 0.78859 0.82942 0.55772 0.0
C1352 C 0.82238 0.90541 0.50406 0.0
N1353 N 0.84671 0.92939 0.48626 0.0
C1354 C 0.83427 0.89797 0.4913 0.0
C1355 C 0.8228 0.92503 0.50769 0.0
C1356 C 0.84648 0.91033 0.48247 0.0
C1357 C 0.83521 0.93693 0.49856 0.0
C1358 C 0.83224 0.84711 0.53286 0.0
C1359 C 0.85049 0.84476 0.53773 0.0
C1360 C 0.8178 0.83113 0.52767 0.0
C1361 C 0.85403 0.82637 0.53729 0.0
C1362 C 0.8219 0.81299 0.52741 0.0
N1363 N 0.83977 0.81101 0.53219 0.0
C1364 C 0.85814 0.92742 0.54591 0.0
C1365 C 0.86656 0.90008 0.52816 0.0
C1366 C 0.87642 0.93796 0.54581 0.0
N1367 N 0.85355 0.90878 0.5372 0.0
C1368 C 0.88493 0.91002 0.52776 0.0
C1369 C 0.89022 0.92922 0.5368 0.0
H1370 H 0.84769 0.93418 0.553 0.0
H1371 H 0.86261 0.88536 0.52108 0.0
C1372 C 0.7915 0.85242 0.47453 0.0
N1373 N 0.80572 0.85116 0.48733 0.0
C1374 C 0.79078 0.84399 0.45518 0.0
C1375 C 0.81961 0.83341 0.46214 0.0
C1376 C 0.81969 0.84189 0.48138 0.0
C1377 C 0.805 0.83429 0.44855 0.0
H1378 H 0.78088 0.86042 0.4792 0.0
H1379 H 0.83133 0.84161 0.49141 0.0
O1380 O 0.81294 0.89675 0.55798 0.0
O1381 O 0.78599 0.86211 0.5305 0.0
O1382 O 0.81079 0.8936 0.51334 0.0
O1383 O 0.82854 0.86502 0.53334 0.0
H1384 H 0.79455 0.8937 0.58879 0.0
H1385 H 0.81509 0.93182 0.55115 0.0
H1386 H 0.78235 0.9199 0.60796 0.0
H1387 H 0.8024 0.95735 0.5709 0.0
H1388 H 0.73481 0.85695 0.56463 0.0
H1389 H 0.76023 0.8621 0.50263 0.0
H1390 H 0.76909 0.85938 0.56215 0.0
H1391 H 0.72613 0.85986 0.50619 0.0
H1392 H 0.73891 0.91687 0.55918 0.0
H1393 H 0.75488 0.93041 0.5049 0.0
H1394 H 0.81705 0.86407 0.62111 0.0
H1395 H 0.78354 0.8138 0.5855 0.0
H1396 H 0.83431 0.88286 0.4885 0.0
H1397 H 0.81369 0.93104 0.51749 0.0
H1398 H 0.85585 0.90478 0.47267 0.0
H1399 H 0.83573 0.95215 0.50129 0.0
H1400 H 0.86181 0.85701 0.54183 0.0
H1401 H 0.80359 0.83269 0.52383 0.0
H1402 H 0.86809 0.82432 0.54102 0.0
H1403 H 0.81087 0.80049 0.52341 0.0
H1404 H 0.8798 0.95265 0.55307 0.0
H1405 H 0.89488 0.90269 0.52031 0.0
H1406 H 0.77913 0.84512 0.44555 0.0
H1407 H 0.83127 0.82668 0.45796 0.0
Li1408 Li 0.93412 0.05523 0.28275 0.0
Li1409 Li 0.90703 0.03373 0.26032 0.0
Li1410 Li 0.93301 0.0527 0.24154 0.0
Li1411 Li 0.90741 0.07279 0.26353 0.0
C1412 C 0.93726 0.01537 0.25652 0.0
N1413 N 0.94027 0.97742 0.2494 0.0
C1414 C 0.94565 0.00745 0.27057 0.0
C1415 C 0.93045 1.00401 0.23884 0.0
C1416 C 0.94704 0.98823 0.26669 0.0
C1417 C 0.93208 0.98485 0.23552 0.0
C1418 C 0.89152 0.04569 0.29282 0.0
C1419 C 0.8585 0.03774 0.2973 0.0
N1420 N 0.86254 0.02668 0.31003 0.0
C1421 C 0.89534 0.03426 0.30594 0.0
C1422 C 0.87297 0.04745 0.28844 0.0
C1423 C 0.8805 0.02476 0.31449 0.0
C1424 C 0.96751 0.05024 0.30992 0.0
N1425 N 0.95022 0.05539 0.30981 0.0
C1426 C 0.95258 0.05691 0.34474 0.0
C1427 C 0.94301 0.05901 0.32721 0.0
C1428 C 0.97013 0.05085 0.34519 0.0
C1429 C 0.97745 0.04795 0.32704 0.0
H1430 H 0.97368 0.04739 0.29654 0.0
H1431 H 0.92942 0.06316 0.32769 0.0
C1432 C 0.87666 0.99472 0.24776 0.0
N1433 N 0.89156 1.00492 0.26026 0.0
C1434 C 0.86862 0.97518 0.24834 0.0
C1435 C 0.89087 0.97636 0.27462 0.0
C1436 C 0.89824 0.99576 0.27376 0.0
C1437 C 0.87585 0.96523 0.26173 0.0
H1438 H 0.87099 1.00148 0.23695 0.0
H1439 H 0.90978 1.00338 0.28394 0.0
C1440 C 0.95206 0.09091 0.27123 0.0
N1441 N 0.98231 0.11996 0.28505 0.0
C1442 C 0.94928 0.10751 0.28286 0.0
C1443 C 0.97021 0.08898 0.26675 0.0
C1444 C 0.96476 0.12207 0.28967 0.0
C1445 C 0.98533 0.10385 0.27384 0.0
C1446 C 0.88828 0.04139 0.22763 0.0
C1447 C 0.88993 0.02786 0.21173 0.0
C1448 C 0.87059 0.04532 0.23159 0.0
C1449 C 0.87375 0.01835 0.20007 0.0
C1450 C 0.85474 0.03549 0.2196 0.0
N1451 N 0.85664 0.02231 0.20422 0.0
C1452 C 0.94582 0.03675 0.20059 0.0
C1453 C 0.96055 0.06826 0.21236 0.0
C1454 C 0.95525 0.03684 0.18329 0.0
N1455 N 0.94827 0.05238 0.21512 0.0
C1456 C 0.97027 0.06888 0.1954 0.0
C1457 C 0.96782 0.05315 0.17989 0.0
H1458 H 0.93633 0.02388 0.20208 0.0
H1459 H 0.96297 0.08086 0.22336 0.0
C1460 C 0.87628 0.10059 0.27041 0.0
N1461 N 0.89396 0.09914 0.26467 0.0
C1462 C 0.86848 0.11778 0.27106 0.0
C1463 C 0.89655 0.13256 0.25982 0.0
C1464 C 0.90378 0.11522 0.2593 0.0
C1465 C 0.87849 0.13475 0.26593 0.0
H1466 H 0.86785 0.0884 0.27472 0.0
H1467 H 0.91761 0.11485 0.25447 0.0
O1468 O 0.93534 0.03402 0.26015 0.0
O1469 O 0.90579 0.05472 0.28394 0.0
O1470 O 0.93713 0.07644 0.26456 0.0
O1471 O 0.90389 0.05072 0.23935 0.0
H1472 H 0.95079 0.01596 0.2844 0.0
H1473 H 0.92367 0.00985 0.22796 0.0
H1474 H 0.95341 0.98189 0.27746 0.0
H1475 H 0.92674 0.97587 0.22194 0.0
H1476 H 0.84407 0.03895 0.29401 0.0
H1477 H 0.90959 0.0325 0.30928 0.0
H1478 H 0.86976 0.05612 0.27822 0.0
H1479 H 0.88325 0.01579 0.3246 0.0
H1480 H 0.94582 0.05948 0.35781 0.0
H1481 H 0.991 0.04381 0.32582 0.0
H1482 H 0.85718 0.96775 0.23788 0.0
H1483 H 0.89713 0.97009 0.28554 0.0
H1484 H 0.93532 0.1091 0.28663 0.0
H1485 H 0.97258 0.0761 0.25792 0.0
H1486 H 0.96283 0.13503 0.29866 0.0
H1487 H 0.99946 0.10259 0.27046 0.0
H1488 H 0.90353 0.02473 0.20843 0.0
H1489 H 0.86912 0.05586 0.24378 0.0
H1490 H 0.8748 0.0078 0.18773 0.0
H1491 H 0.84094 0.03834 0.22251 0.0
H1492 H 0.95231 0.02408 0.17247 0.0
H1493 H 0.97988 0.08195 0.19478 0.0
H1494 H 0.85462 0.11773 0.27596 0.0
H1495 H 0.90538 0.14426 0.25509 0.0
Li1496 Li 0.31573 0.63574 0.55585 0.0
Li1497 Li 0.32875 0.60971 0.53382 0.0
Li1498 Li 0.31366 0.63425 0.51984 0.0
Li1499 Li 0.29389 0.60991 0.53387 0.0
C1500 C 0.35503 0.64088 0.53463 0.0
N1501 N 0.39223 0.64309 0.5269 0.0
C1502 C 0.35978 0.63874 0.51577 0.0
C1503 C 0.3692 0.64393 0.54954 0.0
C1504 C 0.37867 0.63999 0.51216 0.0
C1505 C 0.38792 0.64507 0.54534 0.0
C1506 C 0.30302 0.5938 0.56446 0.0
C1507 C 0.29692 0.56141 0.56991 0.0
N1508 N 0.28413 0.56595 0.58228 0.0
C1509 C 0.28991 0.59818 0.57729 0.0
C1510 C 0.30665 0.57531 0.56078 0.0
C1511 C 0.28047 0.58389 0.58613 0.0
C1512 C 0.30145 0.65563 0.58846 0.0
N1513 N 0.31761 0.65382 0.58005 0.0
C1514 C 0.33483 0.68003 0.60324 0.0
C1515 C 0.33415 0.66567 0.58721 0.0
C1516 C 0.3183 0.68252 0.61206 0.0
C1517 C 0.30148 0.66982 0.6045 0.0
H1518 H 0.28832 0.64649 0.5823 0.0
H1519 H 0.34678 0.66439 0.58018 0.0
C1520 C 0.35616 0.59262 0.51212 0.0
N1521 N 0.35132 0.59687 0.53031 0.0
C1522 C 0.37341 0.58699 0.50843 0.0
C1523 C 0.38037 0.58886 0.54208 0.0
C1524 C 0.36301 0.59476 0.5452 0.0
C1525 C 0.38613 0.58534 0.52348 0.0
H1526 H 0.34699 0.59452 0.50039 0.0
H1527 H 0.3593 0.59844 0.55963 0.0
C1528 C 0.2909 0.65567 0.54078 0.0
N1529 N 0.28417 0.69243 0.54675 0.0
C1530 C 0.27248 0.65885 0.54155 0.0
C1531 C 0.3059 0.6712 0.54316 0.0
C1532 C 0.26937 0.67754 0.54454 0.0
C1533 C 0.3022 0.68967 0.54613 0.0
C1534 C 0.29951 0.58883 0.50206 0.0
C1535 C 0.28445 0.58809 0.48867 0.0
C1536 C 0.30378 0.57192 0.50647 0.0
C1537 C 0.27378 0.57039 0.48002 0.0
C1538 C 0.2928 0.5545 0.49749 0.0
N1539 N 0.27814 0.5541 0.48458 0.0
C1540 C 0.32806 0.66527 0.50113 0.0
C1541 C 0.29893 0.64661 0.48695 0.0
C1542 C 0.32786 0.67746 0.48788 0.0
N1543 N 0.31379 0.6501 0.50042 0.0
C1544 C 0.29807 0.65856 0.47348 0.0
C1545 C 0.31262 0.67439 0.47388 0.0
H1546 H 0.33952 0.66815 0.51221 0.0
H1547 H 0.28747 0.6348 0.48695 0.0
C1548 C 0.25844 0.58059 0.53661 0.0
N1549 N 0.26676 0.59653 0.53016 0.0
C1550 C 0.23872 0.57387 0.53344 0.0
C1551 C 0.23647 0.59968 0.51673 0.0
C1552 C 0.25601 0.60592 0.5203 0.0
C1553 C 0.22735 0.5834 0.52324 0.0
H1554 H 0.26697 0.57296 0.54419 0.0
H1555 H 0.26267 0.61843 0.51509 0.0
O1556 O 0.33653 0.63896 0.53838 0.0
O1557 O 0.31254 0.60762 0.55582 0.0
O1558 O 0.29419 0.63744 0.53802 0.0
O1559 O 0.3097 0.60601 0.51124 0.0
H1560 H 0.34897 0.63571 0.50401 0.0
H1561 H 0.36577 0.64506 0.56418 0.0
H1562 H 0.38252 0.63828 0.49764 0.0
H1563 H 0.39901 0.64737 0.55674 0.0
H1564 H 0.29955 0.54702 0.56719 0.0
H1565 H 0.28698 0.61243 0.5803 0.0
H1566 H 0.31694 0.57176 0.55108 0.0
H1567 H 0.27022 0.58705 0.59603 0.0
H1568 H 0.34822 0.68921 0.60855 0.0
H1569 H 0.28829 0.67125 0.61043 0.0
H1570 H 0.37695 0.58435 0.49381 0.0
H1571 H 0.38962 0.588 0.55423 0.0
H1572 H 0.26071 0.64701 0.53994 0.0
H1573 H 0.32026 0.66905 0.54283 0.0
H1574 H 0.25519 0.68021 0.54515 0.0
H1575 H 0.31368 0.70181 0.54799 0.0
H1576 H 0.28089 0.60103 0.48516 0.0
H1577 H 0.31539 0.57226 0.51679 0.0
H1578 H 0.26201 0.56961 0.46972 0.0
H1579 H 0.29591 0.5413 0.50083 0.0
H1580 H 0.33956 0.68928 0.48873 0.0
H1581 H 0.28584 0.65573 0.46327 0.0
H1582 H 0.23252 0.56113 0.53857 0.0
H1583 H 0.22853 0.60775 0.50897 0.0
Li1584 Li 0.40789 0.53383 0.7631 0.0
Li1585 Li 0.43667 0.55738 0.7865 0.0
Li1586 Li 0.4098 0.57486 0.76607 0.0
Li1587 Li 0.43409 0.55508 0.74703 0.0
C1588 C 0.39507 0.54969 0.79854 0.0
N1589 N 0.36931 0.53629 0.82252 0.0
C1590 C 0.39885 0.53617 0.80931 0.0
C1591 C 0.3782 0.55638 0.79989 0.0
C1592 C 0.38565 0.52957 0.82137 0.0
C1593 C 0.36536 0.54943 0.81213 0.0
C1594 C 0.44847 0.5251 0.75588 0.0
C1595 C 0.48016 0.52292 0.74862 0.0
N1596 N 0.47359 0.50558 0.73746 0.0
C1597 C 0.44199 0.50735 0.74421 0.0
C1598 C 0.46767 0.53304 0.75802 0.0
C1599 C 0.45494 0.49766 0.73508 0.0
C1600 C 0.37594 0.4961 0.75288 0.0
N1601 N 0.39272 0.50522 0.76302 0.0
C1602 C 0.39412 0.47553 0.77466 0.0
C1603 C 0.40153 0.49495 0.77392 0.0
C1604 C 0.37711 0.46543 0.76406 0.0
C1605 C 0.36797 0.47651 0.75326 0.0
H1606 H 0.36865 0.50381 0.7441 0.0
H1607 H 0.41474 0.50176 0.78206 0.0
C1608 C 0.44471 0.56069 0.83138 0.0
N1609 N 0.45202 0.55696 0.81403 0.0
C1610 C 0.45414 0.55865 0.84904 0.0
C1611 C 0.479 0.54934 0.83159 0.0
C1612 C 0.46917 0.5515 0.81435 0.0
C1613 C 0.47168 0.55253 0.84973 0.0
H1614 H 0.43117 0.56497 0.83173 0.0
H1615 H 0.47542 0.54844 0.80107 0.0
C1616 C 0.39968 0.54985 0.72427 0.0
N1617 N 0.38939 0.5463 0.68582 0.0
C1618 C 0.40196 0.56597 0.71567 0.0
C1619 C 0.39208 0.53193 0.7134 0.0
C1620 C 0.39671 0.56387 0.69618 0.0
C1621 C 0.38697 0.53044 0.69395 0.0
C1622 C 0.45415 0.59153 0.76495 0.0
C1623 C 0.45144 0.60241 0.75096 0.0
C1624 C 0.47208 0.59333 0.77413 0.0
C1625 C 0.46677 0.61504 0.74645 0.0
C1626 C 0.48706 0.60612 0.76921 0.0
N1627 N 0.48412 0.61662 0.75559 0.0
C1628 C 0.3766 0.60057 0.76605 0.0
C1629 C 0.40696 0.61854 0.76869 0.0
C1630 C 0.3686 0.61767 0.76667 0.0
N1631 N 0.39576 0.60082 0.76713 0.0
C1632 C 0.39957 0.63579 0.76921 0.0
C1633 C 0.37989 0.63626 0.76844 0.0
H1634 H 0.36707 0.58701 0.76471 0.0
H1635 H 0.42206 0.61964 0.76952 0.0
C1636 C 0.44262 0.54178 0.70384 0.0
N1637 N 0.44977 0.55367 0.72083 0.0
C1638 C 0.45243 0.54112 0.68675 0.0
C1639 C 0.47752 0.56439 0.70416 0.0
C1640 C 0.46732 0.56463 0.72085 0.0
C1641 C 0.47034 0.55273 0.68619 0.0
H1642 H 0.42908 0.53252 0.70322 0.0
H1643 H 0.47379 0.57376 0.73395 0.0
O1644 O 0.40769 0.55609 0.78645 0.0
O1645 O 0.436 0.53509 0.76444 0.0
O1646 O 0.40488 0.5516 0.74327 0.0
O1647 O 0.43939 0.57895 0.76943 0.0
H1648 H 0.41183 0.5308 0.80832 0.0
H1649 H 0.37507 0.5668 0.79156 0.0
H1650 H 0.38837 0.51909 0.82979 0.0
H1651 H 0.35223 0.55448 0.81334 0.0
H1652 H 0.49507 0.5289 0.75011 0.0
H1653 H 0.42712 0.50117 0.74216 0.0
H1654 H 0.47283 0.54699 0.76661 0.0
H1655 H 0.45014 0.48388 0.72605 0.0
H1656 H 0.40194 0.46851 0.78371 0.0
H1657 H 0.35494 0.46998 0.74466 0.0
H1658 H 0.44733 0.56141 0.86205 0.0
H1659 H 0.49252 0.54512 0.83046 0.0
H1660 H 0.40779 0.57994 0.72395 0.0
H1661 H 0.39029 0.51933 0.71988 0.0
H1662 H 0.39846 0.57621 0.68929 0.0
H1663 H 0.38112 0.51666 0.68532 0.0
H1664 H 0.43766 0.60099 0.74359 0.0
H1665 H 0.47439 0.5849 0.78491 0.0
H1666 H 0.4649 0.62354 0.73563 0.0
H1667 H 0.50103 0.60768 0.77619 0.0
H1668 H 0.35345 0.61615 0.76595 0.0
H1669 H 0.40977 0.64878 0.77002 0.0
H1670 H 0.44568 0.53164 0.67391 0.0
H1671 H 0.49131 0.5734 0.70566 0.0
Li1672 Li 0.67454 0.02939 0.74527 0.0
Li1673 Li 0.69603 0.0486 0.72909 0.0
Li1674 Li 0.67049 0.02445 0.71075 0.0
Li1675 Li 0.69828 0.01567 0.7287 0.0
C1676 C 0.65534 0.05802 0.72996 0.0
N1677 N 0.62785 0.08004 0.73157 0.0
C1678 C 0.65988 0.0774 0.73796 0.0
C1679 C 0.63683 0.04989 0.72262 0.0
C1680 C 0.64578 0.08828 0.73869 0.0
C1681 C 0.62314 0.06125 0.72362 0.0
C1682 C 0.70757 0.04945 0.76743 0.0
C1683 C 0.72877 0.06236 0.79569 0.0
N1684 N 0.7183 0.07593 0.80058 0.0
C1685 C 0.69698 0.06347 0.77276 0.0
C1686 C 0.72356 0.04882 0.779 0.0
C1687 C 0.70265 0.07675 0.78956 0.0
C1688 C 0.66881 0.02143 0.78191 0.0
N1689 N 0.66112 0.02844 0.76744 0.0
C1690 C 0.63395 0.03182 0.78412 0.0
C1691 C 0.64406 0.03367 0.76829 0.0
C1692 C 0.64142 0.0244 0.79917 0.0
C1693 C 0.65912 0.01921 0.79799 0.0
H1694 H 0.68234 0.01722 0.78077 0.0
H1695 H 0.63803 0.03882 0.75654 0.0
C1696 C 0.70214 0.0825 0.71531 0.0
N1697 N 0.70948 0.07332 0.72819 0.0
C1698 C 0.71081 0.10088 0.71372 0.0
C1699 C 0.73448 0.09999 0.73867 0.0
C1700 C 0.72553 0.08148 0.73954 0.0
C1701 C 0.72701 0.10989 0.72571 0.0
H1702 H 0.68942 0.07554 0.70638 0.0
H1703 H 0.73135 0.07369 0.74931 0.0
C1704 C 0.65802 0.99375 0.73604 0.0
N1705 N 0.63245 0.97317 0.75572 0.0
C1706 C 0.6641 0.98234 0.74816 0.0
C1707 C 0.63892 0.99453 0.73376 0.0
C1708 C 0.65095 0.97208 0.75802 0.0
C1709 C 0.62622 0.98406 0.74388 0.0
C1710 C 0.71194 0.03849 0.69784 0.0
C1711 C 0.70783 0.04577 0.68149 0.0
C1712 C 0.73054 0.04161 0.7058 0.0
C1713 C 0.72243 0.05623 0.67343 0.0
C1714 C 0.74474 0.05214 0.69731 0.0
N1715 N 0.74042 0.05918 0.68145 0.0
C1716 C 0.65168 0.0337 0.67987 0.0
C1717 C 0.64267 1.00133 0.68306 0.0
C1718 C 0.63858 0.03102 0.66416 0.0
N1719 N 0.65339 0.01898 0.68894 0.0
C1720 C 0.62936 0.99798 0.66736 0.0
C1721 C 0.62716 0.01298 0.65776 0.0
H1722 H 0.6604 0.04759 0.68501 0.0
H1723 H 0.64435 0.98994 0.69066 0.0
C1724 C 0.71935 0.99285 0.745 0.0
N1725 N 0.71479 0.99841 0.72838 0.0
C1726 C 0.73154 0.98006 0.74546 0.0
C1727 C 0.73447 0.97939 0.71177 0.0
C1728 C 0.72204 0.99204 0.71193 0.0
C1729 C 0.73931 0.97314 0.72868 0.0
H1730 H 0.71338 0.99827 0.75786 0.0
H1731 H 0.71821 0.99685 0.69895 0.0
O1732 O 0.66907 0.04723 0.72875 0.0
O1733 O 0.7024 0.0363 0.75103 0.0
O1734 O 0.67075 1.00442 0.72677 0.0
O1735 O 0.6978 0.02871 0.70629 0.0
H1736 H 0.67415 0.08404 0.74351 0.0
H1737 H 0.63302 0.03493 0.71639 0.0
H1738 H 0.6491 0.10328 0.74487 0.0
H1739 H 0.60876 0.05511 0.71807 0.0
H1740 H 0.74115 0.06207 0.80477 0.0
H1741 H 0.68448 0.06404 0.76411 0.0
H1742 H 0.73188 0.03801 0.77508 0.0
H1743 H 0.69458 0.08769 0.79385 0.0
H1744 H 0.62021 0.03571 0.78435 0.0
H1745 H 0.66542 0.01355 0.80937 0.0
H1746 H 0.70461 0.10818 0.70366 0.0
H1747 H 0.74707 0.10653 0.74801 0.0
H1748 H 0.67883 0.9816 0.75009 0.0
H1749 H 0.634 1.00336 0.7245 0.0
H1750 H 0.65548 0.96331 0.76757 0.0
H1751 H 0.61142 0.98467 0.74238 0.0
H1752 H 0.69349 0.04349 0.67519 0.0
H1753 H 0.73392 0.03618 0.71855 0.0
H1754 H 0.71945 0.06204 0.66083 0.0
H1755 H 0.75919 0.05478 0.70338 0.0
H1756 H 0.6376 0.04287 0.65697 0.0
H1757 H 0.62076 0.9839 0.66292 0.0
H1758 H 0.73456 0.97541 0.75876 0.0
H1759 H 0.7403 0.97466 0.69857 0.0
Li1760 Li 0.78573 0.70056 0.02082 0.0
Li1761 Li 0.80062 0.6754 1.00253 0.0
Li1762 Li 0.7857 0.6996 0.98484 0.0
Li1763 Li 0.76612 0.67452 1.00022 0.0
C1764 C 0.81815 0.7207 0.01499 0.0
N1765 N 0.83783 0.75429 0.03674 0.0
C1766 C 0.82981 0.72028 0.03112 0.0
C1767 C 0.81655 0.73815 0.00984 0.0
C1768 C 0.83962 0.73744 0.04196 0.0
C1769 C 0.82661 0.75499 0.02104 0.0
C1770 C 0.77389 0.65845 0.02967 0.0
C1771 C 0.7694 0.62553 0.03334 0.0
N1772 N 0.75449 0.62796 0.04361 0.0
C1773 C 0.75862 0.66069 0.04037 0.0
C1774 C 0.77941 0.64078 0.02617 0.0
C1775 C 0.74895 0.64507 0.04724 0.0
C1776 C 0.78867 0.73535 0.05092 0.0
N1777 N 0.78834 0.71622 0.04713 0.0
C1778 C 0.7904 0.7157 0.08092 0.0
C1779 C 0.78957 0.70652 0.06183 0.0
C1780 C 0.79003 0.73526 0.08529 0.0
C1781 C 0.78941 0.7451 0.06983 0.0
H1782 H 0.78816 0.74311 0.03929 0.0
H1783 H 0.7897 0.69145 0.05882 0.0
C1784 C 0.82782 0.65299 0.98743 0.0
N1785 N 0.82167 0.66225 1.00338 0.0
C1786 C 0.84386 0.64471 0.98873 0.0
C1787 C 0.84682 0.65548 0.02281 0.0
C1788 C 0.83071 0.66339 0.02088 0.0
C1789 C 0.85382 0.64617 0.00659 0.0
H1790 H 0.8205 0.65233 0.97363 0.0
H1791 H 0.82553 0.67073 0.03337 0.0
C1792 C 0.75811 0.71719 0.0107 0.0
N1793 N 0.74523 0.74821 0.02955 0.0
C1794 C 0.747 0.71524 0.0259 0.0
C1795 C 0.76263 0.73488 0.00504 0.0
C1796 C 0.74064 0.73111 0.03527 0.0
C1797 C 0.75598 0.7504 0.01476 0.0
C1798 C 0.77201 0.65647 0.96612 0.0
C1799 C 0.75783 0.6605 0.95427 0.0
C1800 C 0.77455 0.63769 0.96512 0.0
C1801 C 0.74626 0.64558 0.94163 0.0
C1802 C 0.76271 0.62316 0.95226 0.0
N1803 N 0.74892 0.62737 0.9409 0.0
C1804 C 0.80451 0.71047 0.95289 0.0
C1805 C 0.77411 0.7179 0.95276 0.0
C1806 C 0.80687 0.71594 0.93503 0.0
N1807 N 0.78824 0.71123 0.96138 0.0
C1808 C 0.77597 0.72372 0.93489 0.0
C1809 C 0.79239 0.72239 0.92547 0.0
H1810 H 0.81555 0.705 0.95973 0.0
H1811 H 0.76108 0.71812 0.9594 0.0
C1812 C 0.72599 0.66597 0.99762 0.0
N1813 N 0.74123 0.65742 0.99724 0.0
C1814 C 0.70774 0.65521 0.99644 0.0
C1815 C 0.72084 0.62673 0.99429 0.0
C1816 C 0.73891 0.63809 0.99551 0.0
C1817 C 0.70484 0.63524 0.99469 0.0
H1818 H 0.72796 0.68127 0.99893 0.0
H1819 H 0.75108 0.6314 0.99516 0.0
O1820 O 0.808 0.70413 0.00451 0.0
O1821 O 0.78343 0.67352 0.02268 0.0
O1822 O 0.76448 0.70183 1.00137 0.0
O1823 O 0.78319 0.67083 0.97884 0.0
H1824 H 0.83108 0.70687 0.03533 0.0
H1825 H 0.80753 0.73867 0.9974 0.0
H1826 H 0.84861 0.73737 0.05455 0.0
H1827 H 0.82547 0.76862 0.01728 0.0
H1828 H 0.77344 0.61173 0.03067 0.0
H1829 H 0.7542 0.67429 0.0432 0.0
H1830 H 0.79117 0.63881 0.01787 0.0
H1831 H 0.73703 0.64655 0.05544 0.0
H1832 H 0.79077 0.70733 0.09211 0.0
H1833 H 0.7895 0.76026 0.07229 0.0
H1834 H 0.84877 0.63781 0.97582 0.0
H1835 H 0.85379 0.65674 0.03691 0.0
H1836 H 0.74344 0.70165 0.0305 0.0
H1837 H 0.77128 0.73664 0.99336 0.0
H1838 H 0.73211 0.72984 0.04711 0.0
H1839 H 0.75941 0.7642 0.01058 0.0
H1840 H 0.75567 0.67499 0.95497 0.0
H1841 H 0.7854 0.63435 0.97431 0.0
H1842 H 0.73516 0.64846 0.93243 0.0
H1843 H 0.76443 0.60853 0.95138 0.0
H1844 H 0.81988 0.71478 0.9286 0.0
H1845 H 0.76432 0.72838 0.92812 0.0
H1846 H 0.696 0.66259 0.99713 0.0
H1847 H 0.71942 0.61142 0.99276 0.0
Li1848 Li 0.9001 0.51057 0.79933 0.0
Li1849 Li 0.92536 0.53658 0.80771 0.0
Li1850 Li 0.89672 0.53926 0.78955 0.0
Li1851 Li 0.9189 0.52012 0.77396 0.0
C1852 C 0.88822 0.529 0.82922 0.0
N1853 N 0.86471 0.5157 0.85525 0.0
C1854 C 0.89485 0.51946 0.84291 0.0
C1855 C 0.86962 0.53178 0.82881 0.0
C1856 C 0.88275 0.51282 0.85591 0.0
C1857 C 0.85797 0.52497 0.84209 0.0
C1858 C 0.94384 0.50799 0.80382 0.0
C1859 C 0.97711 0.50934 0.80139 0.0
N1860 N 0.979 0.50591 0.81949 0.0
C1861 C 0.94611 0.50431 0.82236 0.0
C1862 C 0.95946 0.51044 0.79321 0.0
C1863 C 0.964 0.50339 0.83005 0.0
C1864 C 0.89659 0.4744 0.80967 0.0
N1865 N 0.88672 0.48807 0.80669 0.0
C1866 C 0.85784 0.46793 0.81068 0.0
C1867 C 0.86774 0.48531 0.80752 0.0
C1868 C 0.86766 0.45346 0.81333 0.0
C1869 C 0.8873 0.45693 0.81323 0.0
H1870 H 0.91159 0.47679 0.80862 0.0
H1871 H 0.86017 0.49633 0.80505 0.0
C1872 C 0.94383 0.5499 0.84466 0.0
N1873 N 0.94593 0.54875 0.82576 0.0
C1874 C 0.95962 0.55448 0.85782 0.0
C1875 C 0.97929 0.55827 0.83192 0.0
C1876 C 0.96309 0.55361 0.81926 0.0
C1877 C 0.97769 0.55803 0.85141 0.0
H1878 H 0.93002 0.54621 0.84944 0.0
H1879 H 0.96426 0.55265 0.8041 0.0
C1880 C 0.87624 0.49952 0.76739 0.0
N1881 N 0.84601 0.46971 0.75626 0.0
C1882 C 0.87925 0.48109 0.76102 0.0
C1883 C 0.85784 0.50282 0.76794 0.0
C1884 C 0.86378 0.46619 0.75553 0.0
C1885 C 0.84275 0.48756 0.76226 0.0
C1886 C 0.92344 0.56659 0.7835 0.0
C1887 C 0.91858 0.57172 0.76611 0.0
C1888 C 0.92691 0.58042 0.80011 0.0
C1889 C 0.91734 0.59065 0.76562 0.0
C1890 C 0.92555 0.5992 0.79902 0.0
N1891 N 0.92083 0.60388 0.78195 0.0
C1892 C 0.87628 0.56856 0.79921 0.0
C1893 C 0.87214 0.55373 0.76662 0.0
C1894 C 0.86313 0.57981 0.79603 0.0
N1895 N 0.88016 0.55557 0.78467 0.0
C1896 C 0.85911 0.56489 0.76273 0.0
C1897 C 0.85426 0.57787 0.77763 0.0
H1898 H 0.88319 0.56992 0.81334 0.0
H1899 H 0.8757 0.54338 0.75533 0.0
C1900 C 0.93103 0.49321 0.74691 0.0
N1901 N 0.92969 0.51186 0.75138 0.0
C1902 C 0.93964 0.48674 0.73075 0.0
C1903 C 0.94543 0.51887 0.72422 0.0
C1904 C 0.93668 0.52469 0.74049 0.0
C1905 C 0.94704 0.49966 0.71919 0.0
H1906 H 0.92574 0.48343 0.75613 0.0
H1907 H 0.93581 0.5395 0.74464 0.0
O1908 O 0.89986 0.53559 0.81632 0.0
O1909 O 0.92651 0.50951 0.79626 0.0
O1910 O 0.8912 0.51425 0.77312 0.0
O1911 O 0.92404 0.548 0.7844 0.0
H1912 H 0.90907 0.51687 0.84328 0.0
H1913 H 0.86408 0.53882 0.81817 0.0
H1914 H 0.88767 0.5053 0.86648 0.0
H1915 H 0.84353 0.52695 0.84187 0.0
H1916 H 0.98932 0.51135 0.79339 0.0
H1917 H 0.93423 0.50243 0.83081 0.0
H1918 H 0.95807 0.5135 0.77895 0.0
H1919 H 0.96598 0.50075 0.84443 0.0
H1920 H 0.84265 0.46566 0.81064 0.0
H1921 H 0.89526 0.44594 0.81494 0.0
H1922 H 0.95768 0.55397 0.87267 0.0
H1923 H 0.99293 0.56119 0.82643 0.0
H1924 H 0.89336 0.47825 0.76065 0.0
H1925 H 0.85522 0.51695 0.77299 0.0
H1926 H 0.86591 0.45182 0.75076 0.0
H1927 H 0.82844 0.48989 0.76272 0.0
H1928 H 0.91542 0.56114 0.75318 0.0
H1929 H 0.93038 0.57667 0.81374 0.0
H1930 H 0.91348 0.59479 0.75229 0.0
H1931 H 0.92816 0.61004 0.81177 0.0
H1932 H 0.85993 0.58992 0.80778 0.0
H1933 H 0.85254 0.56304 0.74836 0.0
H1934 H 0.94055 0.47182 0.72738 0.0
H1935 H 0.95132 0.52941 0.71598 0.0
Li1936 Li 0.78057 0.43843 0.51748 0.0
Li1937 Li 0.7639 0.46024 0.50167 0.0
Li1938 Li 0.77984 0.43592 0.48316 0.0
Li1939 Li 0.80106 0.46278 0.50367 0.0
C1940 C 0.74671 0.4172 0.48722 0.0
N1941 N 0.72513 0.387 0.46199 0.0
C1942 C 0.73625 0.42053 0.4715 0.0
C1943 C 0.74618 0.39854 0.49016 0.0
C1944 C 0.72543 0.40506 0.45889 0.0
C1945 C 0.73518 0.38346 0.47723 0.0
C1946 C 0.78123 0.46896 0.5434 0.0
C1947 C 0.79402 0.47452 0.57621 0.0
N1948 N 0.77626 0.47093 0.58172 0.0
C1949 C 0.76311 0.46543 0.54939 0.0
C1950 C 0.79682 0.47362 0.55689 0.0
C1951 C 0.76089 0.46647 0.56883 0.0
C1952 C 0.79585 0.42472 0.54898 0.0
N1953 N 0.7796 0.42514 0.53871 0.0
C1954 C 0.76151 0.40778 0.55941 0.0
C1955 C 0.76262 0.41688 0.54358 0.0
C1956 C 0.77803 0.40723 0.57048 0.0
C1957 C 0.79539 0.41583 0.56498 0.0
H1958 H 0.80917 0.43157 0.54491 0.0
H1959 H 0.74989 0.4175 0.53523 0.0
C1960 C 0.74144 0.49151 0.50602 0.0
N1961 N 0.74063 0.47232 0.50399 0.0
C1962 C 0.72522 0.49947 0.50922 0.0
C1963 C 0.70718 0.46803 0.508 0.0
C1964 C 0.72376 0.46065 0.50485 0.0
C1965 C 0.70762 0.48781 0.51056 0.0
H1966 H 0.75477 0.50082 0.50555 0.0
H1967 H 0.72313 0.44549 0.50361 0.0
C1968 C 0.81653 0.4312 0.49256 0.0
N1969 N 0.84786 0.42341 0.47479 0.0
C1970 C 0.82085 0.43806 0.47583 0.0
C1971 C 0.82812 0.42039 0.50025 0.0
C1972 C 0.83675 0.43397 0.46706 0.0
C1973 C 0.8439 0.4166 0.49105 0.0
C1974 C 0.78357 0.48168 0.47755 0.0
C1975 C 0.77765 0.48482 0.45958 0.0
C1976 C 0.7906 0.49722 0.49212 0.0
C1977 C 0.77886 0.50351 0.45647 0.0
C1978 C 0.79163 0.51569 0.48843 0.0
N1979 N 0.78577 0.51842 0.47084 0.0
C1980 C 0.77613 0.42093 0.44174 0.0
C1981 C 0.78212 0.39963 0.46204 0.0
C1982 C 0.77644 0.40698 0.42551 0.0
N1983 N 0.77889 0.41704 0.45961 0.0
C1984 C 0.78246 0.38532 0.4463 0.0
C1985 C 0.77955 0.38876 0.42762 0.0
H1986 H 0.77376 0.4349 0.44005 0.0
H1987 H 0.7846 0.39687 0.47631 0.0
C1988 C 0.83963 0.4754 0.52129 0.0
N1989 N 0.82782 0.47714 0.50636 0.0
C1990 C 0.85912 0.48294 0.52254 0.0
C1991 C 0.85431 0.49366 0.49286 0.0
C1992 C 0.83495 0.48601 0.49221 0.0
C1993 C 0.86693 0.4923 0.5082 0.0
H1994 H 0.83406 0.46762 0.53204 0.0
H1995 H 0.82574 0.4866 0.47996 0.0
O1996 O 0.75783 0.43212 0.49936 0.0
O1997 O 0.78366 0.46731 0.52438 0.0
O1998 O 0.80116 0.43519 0.50153 0.0
O1999 O 0.78242 0.46343 0.48073 0.0
H2000 H 0.73667 0.43491 0.46896 0.0
H2001 H 0.75436 0.39574 0.50216 0.0
H2002 H 0.71733 0.4074 0.44661 0.0
H2003 H 0.7347 0.36893 0.47926 0.0
H2004 H 0.80596 0.47802 0.58681 0.0
H2005 H 0.7509 0.46163 0.53911 0.0
H2006 H 0.81093 0.47641 0.55251 0.0
H2007 H 0.74695 0.46363 0.57366 0.0
H2008 H 0.74782 0.40115 0.56284 0.0
H2009 H 0.80849 0.41605 0.57316 0.0
H2010 H 0.72657 0.51477 0.51074 0.0
H2011 H 0.69427 0.45827 0.5091 0.0
H2012 H 0.81207 0.44653 0.46972 0.0
H2013 H 0.82498 0.41502 0.51322 0.0
H2014 H 0.84028 0.43921 0.45413 0.0
H2015 H 0.85302 0.40826 0.49685 0.0
H2016 H 0.77215 0.47293 0.44816 0.0
H2017 H 0.79526 0.4951 0.50613 0.0
H2018 H 0.77432 0.50616 0.44263 0.0
H2019 H 0.79705 0.52784 0.49956 0.0
H2020 H 0.77401 0.41035 0.41147 0.0
H2021 H 0.78528 0.37173 0.44882 0.0
H2022 H 0.86794 0.4814 0.53471 0.0
H2023 H 0.85936 0.50011 0.48103 0.0
Li2024 Li 0.65653 0.5198 0.29098 0.0
Li2025 Li 0.68409 0.54176 0.27374 0.0
Li2026 Li 0.65725 0.51778 0.25231 0.0
Li2027 Li 0.68181 0.49993 0.27051 0.0
C2028 C 0.64224 0.54909 0.26848 0.0
N2029 N 0.6142 0.567 0.25687 0.0
C2030 C 0.64661 0.56445 0.25896 0.0
C2031 C 0.62365 0.54289 0.27221 0.0
C2032 C 0.63222 0.5733 0.25317 0.0
C2033 C 0.60966 0.55213 0.2662 0.0
C2034 C 0.69037 0.5259 0.31325 0.0
C2035 C 0.69523 0.51304 0.34178 0.0
N2036 N 0.69737 0.53084 0.35236 0.0
C2037 C 0.69259 0.54406 0.32438 0.0
C2038 C 0.69166 0.51023 0.32196 0.0
C2039 C 0.69614 0.54627 0.34415 0.0
C2040 C 0.63248 0.50404 0.32241 0.0
N2041 N 0.64168 0.52059 0.31752 0.0
C2042 C 0.63204 0.53749 0.34744 0.0
C2043 C 0.64149 0.53718 0.33012 0.0
C2044 C 0.62212 0.52062 0.35274 0.0
C2045 C 0.62292 0.50376 0.33948 0.0
H2046 H 0.63249 0.49067 0.31305 0.0
H2047 H 0.64872 0.55053 0.3269 0.0
C2048 C 0.71392 0.57601 0.26462 0.0
N2049 N 0.6992 0.57063 0.27513 0.0
C2050 C 0.72176 0.59568 0.26458 0.0
C2051 C 0.69975 0.60456 0.28636 0.0
C2052 C 0.69241 0.58488 0.28607 0.0
C2053 C 0.71458 0.61071 0.27529 0.0
H2054 H 0.71949 0.56509 0.25571 0.0
H2055 H 0.68077 0.58107 0.29441 0.0
C2056 C 0.63822 0.48204 0.26027 0.0
N2057 N 0.60891 0.45387 0.24209 0.0
C2058 C 0.64189 0.46667 0.24737 0.0
C2059 C 0.61969 0.4831 0.26398 0.0
C2060 C 0.62686 0.45256 0.23832 0.0
C2061 C 0.60505 0.46871 0.25463 0.0
C2062 C 0.68771 0.51692 0.23225 0.0
C2063 C 0.68546 0.49846 0.22177 0.0
C2064 C 0.69125 0.53255 0.22297 0.0
C2065 C 0.68671 0.49592 0.20208 0.0
C2066 C 0.6924 0.52942 0.20326 0.0
N2067 N 0.69011 0.51133 0.19331 0.0
C2068 C 0.64532 0.53352 0.21593 0.0
C2069 C 0.62925 0.50235 0.215 0.0
C2070 C 0.63634 0.534 0.19758 0.0
N2071 N 0.64198 0.5178 0.22466 0.0
C2072 C 0.62 0.50226 0.19668 0.0
C2073 C 0.62339 0.51813 0.18707 0.0
H2074 H 0.65536 0.54595 0.223 0.0
H2075 H 0.62614 0.48974 0.22136 0.0
C2076 C 0.68609 0.45807 0.27553 0.0
N2077 N 0.69578 0.47408 0.26993 0.0
C2078 C 0.6935 0.44087 0.2753 0.0
C2079 C 0.72142 0.45565 0.26377 0.0
C2080 C 0.71345 0.47271 0.26415 0.0
C2081 C 0.71158 0.43875 0.2692 0.0
H2082 H 0.67223 0.45839 0.2803 0.0
H2083 H 0.72169 0.48487 0.25958 0.0
O2084 O 0.65605 0.54006 0.27405 0.0
O2085 O 0.6862 0.52336 0.29399 0.0
O2086 O 0.65271 0.49606 0.26911 0.0
O2087 O 0.68598 0.51962 0.25142 0.0
H2088 H 0.66094 0.56935 0.2559 0.0
H2089 H 0.62008 0.53105 0.27964 0.0
H2090 H 0.63538 0.58515 0.24569 0.0
H2091 H 0.59519 0.54747 0.26895 0.0
H2092 H 0.69625 0.50105 0.34874 0.0
H2093 H 0.69143 0.55628 0.31782 0.0
H2094 H 0.68978 0.49606 0.31351 0.0
H2095 H 0.69784 0.56023 0.35297 0.0
H2096 H 0.63234 0.55111 0.35647 0.0
H2097 H 0.61633 0.48999 0.34222 0.0
H2098 H 0.73302 0.599 0.25564 0.0
H2099 H 0.69358 0.61493 0.29535 0.0
H2100 H 0.65619 0.4657 0.24434 0.0
H2101 H 0.61667 0.49492 0.27397 0.0
H2102 H 0.62947 0.44059 0.22827 0.0
H2103 H 0.59062 0.46933 0.25732 0.0
H2104 H 0.68265 0.48623 0.22878 0.0
H2105 H 0.69282 0.54692 0.23088 0.0
H2106 H 0.68493 0.48171 0.19376 0.0
H2107 H 0.69502 0.54137 0.19586 0.0
H2108 H 0.63999 0.54674 0.1915 0.0
H2109 H 0.61004 0.48953 0.19019 0.0
H2110 H 0.68479 0.42922 0.28021 0.0
H2111 H 0.73527 0.45572 0.25882 0.0
Eu2112 Eu 0.05539 0.06311 0.0181 0.0
Eu2113 Eu 0.03472 0.02027 0.00976 0.0
C2114 C 0.05759 0.03739 0.97535 0.0
C2115 C 0.06177 0.11631 0.02935 0.0
C2116 C 0.07266 0.13443 0.02988 0.0
C2117 C 0.03349 0.12981 0.03021 0.0
C2118 C 0.06393 0.15016 0.03009 0.0
C2119 C 0.04223 0.11417 0.03023 0.0
C2120 C 0.04422 0.14782 0.02951 0.0
C2121 C 0.07026 0.09937 0.02531 0.0
O2122 O 0.06618 0.01873 0.01233 0.0
O2123 O 0.07841 0.04875 0.02813 0.0
C2124 C 0.08062 0.0314 0.02127 0.0
O2125 O 0.03812 0.0601 0.04452 0.0
O2126 O 0.03686 0.99053 0.00676 0.0
O2127 O 0.00974 0.99765 1.00087 0.0
O2128 O 0.03156 0.02788 0.04253 0.0
C2129 C 0.03118 0.04511 0.05225 0.0
O2130 O 0.02615 0.06479 0.00602 0.0
O2131 O 0.0101 0.03628 0.01093 0.0
O2132 O 0.04234 0.02614 0.97962 0.0
O2133 O 0.06933 0.08856 0.03825 0.0
O2134 O 0.06569 0.08952 0.00814 0.0
O2135 O 0.06633 0.05154 0.98895 0.0
C2136 C 0.01132 0.97069 0.01524 0.0
C2137 C 0.01217 0.97681 0.03504 0.0
C2138 C 1.00716 0.93797 0.01995 0.0
C2139 C 0.01174 0.96364 0.04729 0.0
C2140 C 1.00778 0.95118 0.00773 0.0
C2141 C 0.01039 0.94419 0.03982 0.0
C2142 C 0.01887 0.98415 1.00316 0.0
C2143 C 0.01013 0.05369 0.00791 0.0
H2144 H 0.08774 0.13626 0.02911 0.0
H2145 H 0.01828 0.12767 0.0298 0.0
H2146 H 0.07248 0.16385 0.02932 0.0
H2147 H 0.03364 0.10023 0.02987 0.0
H2148 H 0.01498 0.99187 0.04107 0.0
H2149 H 1.00563 0.92301 0.01382 0.0
H2150 H 0.01427 0.96892 0.0625 0.0
H2151 H 1.00714 0.94623 0.99248 0.0
Eu2152 Eu 0.28906 0.79274 0.24796 0.0
Eu2153 Eu 0.28016 0.78167 0.29133 0.0
C2154 C 0.24694 0.78304 0.26068 0.0
C2155 C 0.29182 0.81397 0.20102 0.0
C2156 C 0.27406 0.81902 0.19943 0.0
C2157 C 0.30143 0.83173 0.17591 0.0
C2158 C 0.27002 0.83032 0.18612 0.0
C2159 C 0.30543 0.82044 0.18917 0.0
C2160 C 0.28367 0.83686 0.17416 0.0
C2161 C 0.29661 0.80192 0.2147 0.0
O2162 O 0.27618 0.75438 0.27003 0.0
O2163 O 0.29619 0.76378 0.24794 0.0
C2164 C 0.28652 0.75053 0.25589 0.0
O2165 O 0.31516 0.80294 0.26836 0.0
O2166 O 0.26541 0.76331 0.30943 0.0
O2167 O 0.28561 0.78871 0.32237 0.0
O2168 O 0.31037 0.78023 0.28729 0.0
C2169 C 0.32153 0.79335 0.2805 0.0
O2170 O 0.27839 0.81747 0.26383 0.0
O2171 O 0.28684 0.81372 0.29434 0.0
O2172 O 0.25324 0.78761 0.27878 0.0
O2173 O 0.30589 0.81065 0.23084 0.0
O2174 O 0.28385 0.78744 0.21685 0.0
O2175 O 0.25813 0.78035 0.24701 0.0
C2176 C 0.2798 0.76408 0.34072 0.0
C2177 C 0.28716 0.74727 0.33733 0.0
C2178 C 0.28299 0.76381 0.37477 0.0
C2179 C 0.29247 0.73882 0.35268 0.0
C2180 C 0.27769 0.77214 0.35954 0.0
C2181 C 0.29062 0.74714 0.37164 0.0
C2182 C 0.27401 0.7737 0.32527 0.0
C2183 C 0.28254 0.82433 0.2821 0.0
H2184 H 0.26332 0.81419 0.20841 0.0
H2185 H 0.31242 0.83671 0.16726 0.0
H2186 H 0.25612 0.83376 0.18508 0.0
H2187 H 0.31925 0.81677 0.1902 0.0
H2188 H 0.28892 0.74077 0.3229 0.0
H2189 H 0.281 0.77043 0.38909 0.0
H2190 H 0.29837 0.72605 0.34976 0.0
H2191 H 0.27191 0.78501 0.36249 0.0
Eu2192 Eu 0.57285 0.03811 0.50072 0.0
Eu2193 Eu 0.5303 0.05238 0.52252 0.0
C2194 C 0.56096 0.03096 0.54339 0.0
C2195 C 0.61039 0.00764 0.49203 0.0
C2196 C 0.6102 1.00216 0.51 0.0
C2197 C 0.63952 0.99577 0.48739 0.0
C2198 C 0.62456 0.99362 0.51663 0.0
C2199 C 0.6251 1.00428 0.48076 0.0
C2200 C 0.63955 0.99045 0.5055 0.0
C2201 C 0.59565 0.01725 0.48512 0.0
O2202 O 0.55811 0.07272 0.53385 0.0
O2203 O 0.58418 0.06735 0.51675 0.0
C2204 C 0.57586 0.07737 0.52975 0.0
O2205 O 0.55785 0.0494 0.47783 0.0
O2206 O 0.5187 0.07789 0.53125 0.0
O2207 O 0.50454 0.05093 0.53738 0.0
O2208 O 0.5323 0.05979 0.49281 0.0
C2209 C 0.54286 0.05757 0.47828 0.0
O2210 O 0.54355 0.03036 0.50346 0.0
O2211 O 0.51513 0.02249 0.50727 0.0
O2212 O 0.54547 0.03835 0.54341 0.0
O2213 O 0.57825 0.01033 0.48803 0.0
O2214 O 0.59952 0.03596 0.48853 0.0
O2215 O 0.57259 0.03025 0.52977 0.0
C2216 C 0.48569 0.07346 0.53166 0.0
C2217 C 0.47972 0.07156 0.51227 0.0
C2218 C 0.45778 0.08623 0.53996 0.0
C2219 C 0.46293 0.07703 0.50676 0.0
C2220 C 0.47456 0.08075 0.54544 0.0
C2221 C 0.45175 0.08455 0.52054 0.0
C2222 C 0.5039 0.06887 0.53775 0.0
C2223 C 0.52907 0.017 0.49911 0.0
H2224 H 0.599 1.0046 0.51898 0.0
H2225 H 0.65088 0.99382 0.4785 0.0
H2226 H 0.62387 0.98948 0.5305 0.0
H2227 H 0.62557 0.00845 0.46688 0.0
H2228 H 0.48819 0.06609 0.5014 0.0
H2229 H 0.44946 0.09167 0.55097 0.0
H2230 H 0.45891 0.07574 0.49169 0.0
H2231 H 0.47895 0.08237 0.56048 0.0
Eu2232 Eu 0.27576 0.29393 0.76172 0.0
Eu2233 Eu 0.31557 0.28072 0.77075 0.0
C2234 C 0.2755 0.24877 0.76796 0.0
C2235 C 0.22524 0.29656 0.76554 0.0
C2236 C 0.22528 0.28452 0.77901 0.0
C2237 C 0.19205 0.29626 0.76872 0.0
C2238 C 0.20884 0.27836 0.78728 0.0
C2239 C 0.20857 0.30242 0.76042 0.0
C2240 C 0.19201 0.28411 0.78221 0.0
C2241 C 0.24265 0.30271 0.75688 0.0
O2242 O 0.31237 0.27623 0.73856 0.0
O2243 O 0.28483 0.28637 0.73192 0.0
C2244 C 0.29953 0.27934 0.72633 0.0
O2245 O 0.29695 0.32235 0.76262 0.0
O2246 O 0.33241 0.25854 0.76864 0.0
O2247 O 0.3448 0.28708 0.783 0.0
O2248 O 0.32483 0.3121 0.76675 0.0
C2249 C 0.31562 0.32599 0.76448 0.0
O2250 O 0.27785 0.29509 0.79374 0.0
O2251 O 0.308 0.29095 0.80047 0.0
O2252 O 0.29403 0.253 0.77182 0.0
O2253 O 0.25634 0.31333 0.76864 0.0
O2254 O 0.24838 0.28927 0.74553 0.0
O2255 O 0.2664 0.26206 0.76365 0.0
C2256 C 0.3644 0.26902 0.76592 0.0
C2257 C 0.36622 0.27652 0.74908 0.0
C2258 C 0.39321 0.25697 0.76137 0.0
C2259 C 0.38145 0.27415 0.73836 0.0
C2260 C 0.37802 0.2594 0.77209 0.0
C2261 C 0.39498 0.26414 0.74428 0.0
C2262 C 0.34776 0.27008 0.77648 0.0
C2263 C 0.29198 0.29489 0.80604 0.0
H2264 H 0.23807 0.27989 0.78316 0.0
H2265 H 0.17927 0.30079 0.76441 0.0
H2266 H 0.20939 0.26929 0.79784 0.0
H2267 H 0.20833 0.31167 0.74999 0.0
H2268 H 0.35568 0.28386 0.74406 0.0
H2269 H 0.40355 0.24944 0.76643 0.0
H2270 H 0.38235 0.27968 0.72517 0.0
H2271 H 0.37674 0.25349 0.78505 0.0
Eu2272 Eu 0.03979 0.04996 0.52171 0.0
Eu2273 Eu 0.052 0.01059 0.50289 0.0
C2274 C 0.08038 0.05035 0.50298 0.0
C2275 C 0.0309 0.0983 0.52092 0.0
C2276 C 0.03439 0.09441 0.50166 0.0
C2277 C 0.02709 0.13014 0.51705 0.0
C2278 C 0.0338 0.108 0.49009 0.0
C2279 C 0.02738 0.1163 0.52864 0.0
C2280 C 0.03004 0.12595 0.4976 0.0
C2281 C 0.03102 0.08327 0.53245 0.0
O2282 O 0.06011 0.01282 0.5352 0.0
O2283 O 0.05541 0.04249 0.54849 0.0
C2284 C 0.06154 0.02655 0.55038 0.0
O2285 O 0.01713 0.02763 0.53037 0.0
O2286 O 0.06954 0.98897 0.50296 0.0
O2287 O 0.04697 0.98518 0.48075 0.0
O2288 O 0.02271 1.00115 0.51068 0.0
C2289 C 0.01252 0.00941 0.52281 0.0
O2290 O 0.02644 0.04463 0.49004 0.0
O2291 O 0.04213 0.02196 0.47637 0.0
O2292 O 0.07803 0.03177 0.50086 0.0
O2293 O 0.01856 0.06773 0.5264 0.0
O2294 O 0.04756 0.07955 0.53654 0.0
O2295 O 0.06723 0.05964 0.50904 0.0
C2296 C 0.0515 0.95811 0.49331 0.0
C2297 C 0.03253 0.95317 0.49683 0.0
C2298 C 0.05685 0.92794 0.50085 0.0
C2299 C 0.02579 0.93581 0.50234 0.0
C2300 C 0.06358 0.94532 0.4952 0.0
C2301 C 0.03791 0.9231 0.5046 0.0
C2302 C 0.05897 0.97711 0.48913 0.0
C2303 C 0.03074 0.03406 0.47444 0.0
H2304 H 0.03755 0.08078 0.49551 0.0
H2305 H 0.02421 0.14393 0.52316 0.0
H2306 H 0.03645 0.10451 0.47524 0.0
H2307 H 0.02479 0.11959 0.54351 0.0
H2308 H 0.02296 0.96289 0.49574 0.0
H2309 H 0.06647 0.91836 0.50241 0.0
H2310 H 0.01123 0.93262 0.50546 0.0
H2311 H 0.07828 0.94894 0.49269 0.0
Eu2312 Eu 0.31798 0.80257 0.76762 0.0
Eu2313 Eu 0.27806 0.77557 0.76521 0.0
C2314 C 0.29351 0.80352 0.80442 0.0
C2315 C 0.37076 0.81705 0.77077 0.0
C2316 C 0.3865 0.82888 0.78149 0.0
C2317 C 0.38944 0.7928 0.76209 0.0
C2318 C 0.40351 0.82255 0.78294 0.0
C2319 C 0.37239 0.79912 0.76074 0.0
C2320 C 0.40506 0.80423 0.77366 0.0
C2321 C 0.35225 0.82225 0.77253 0.0
O2322 O 0.27021 0.80598 0.76338 0.0
O2323 O 0.29913 0.8242 0.76202 0.0
C2324 C 0.28061 0.82295 0.76226 0.0
O2325 O 0.31391 0.78947 0.73627 0.0
O2326 O 0.25461 0.759 0.7769 0.0
O2327 O 0.25256 0.762 0.74716 0.0
O2328 O 0.28961 0.76497 0.73745 0.0
C2329 C 0.30311 0.77316 0.72841 0.0
O2330 O 0.32562 0.77315 0.77145 0.0
O2331 O 0.29719 0.75275 0.7679 0.0
O2332 O 0.2846 0.78624 0.7969 0.0
O2333 O 0.34136 0.82001 0.75678 0.0
O2334 O 0.34328 0.81588 0.78619 0.0
O2335 O 0.30507 0.81327 0.79457 0.0
C2336 C 0.22493 0.76066 0.76228 0.0
C2337 C 0.20955 0.74771 0.75212 0.0
C2338 C 0.20525 0.78446 0.76832 0.0
C2339 C 0.19228 0.75326 0.74953 0.0
C2340 C 0.22263 0.77894 0.77077 0.0
C2341 C 0.19015 0.77184 0.75713 0.0
C2342 C 0.24371 0.75602 0.76106 0.0
C2343 C 0.31594 0.7554 0.77007 0.0
H2344 H 0.38538 0.84263 0.78955 0.0
H2345 H 0.3902 0.77872 0.75459 0.0
H2346 H 0.41509 0.83162 0.79226 0.0
H2347 H 0.36026 0.7897 0.75256 0.0
H2348 H 0.21117 0.73364 0.74532 0.0
H2349 H 0.20394 0.7989 0.77419 0.0
H2350 H 0.18076 0.74326 0.74097 0.0
H2351 H 0.23449 0.78921 0.77843 0.0
Eu2352 Eu 0.5468 0.03608 0.03319 0.0
Eu2353 Eu 0.53829 0.04441 0.99042 0.0
C2354 C 0.53618 0.07596 0.02684 0.0
C2355 C 0.53841 0.02586 0.08215 0.0
C2356 C 0.51941 0.02672 0.07844 0.0
C2357 C 0.53197 0.01838 0.11326 0.0
C2358 C 0.50668 0.02308 0.09191 0.0
C2359 C 0.54469 0.02182 0.09965 0.0
C2360 C 0.51281 0.01874 0.10939 0.0
C2361 C 0.55133 0.02824 0.06733 0.0
O2362 O 0.56984 0.04426 0.99416 0.0
O2363 O 0.57507 0.05199 0.02667 0.0
C2364 C 0.58155 0.05028 0.00973 0.0
O2365 O 0.55711 0.01329 0.01309 0.0
O2366 O 0.54479 0.06206 0.96886 0.0
O2367 O 0.52361 0.03627 0.96187 0.0
O2368 O 0.53676 0.01303 0.98754 0.0
C2369 C 0.54885 1.00519 0.99617 0.0
O2370 O 0.51581 0.02323 0.02449 0.0
O2371 O 0.50912 0.04013 1.00137 0.0
O2372 O 0.54137 0.07268 0.00954 0.0
O2373 O 0.54719 0.01531 0.05189 0.0
O2374 O 0.55565 0.04543 0.06357 0.0
O2375 O 0.53429 0.06275 0.03751 0.0
C2376 C 0.544 0.04341 0.93871 0.0
C2377 C 0.55849 0.03327 0.94087 0.0
C2378 C 0.54904 0.04191 0.90526 0.0
C2379 C 0.56828 0.02755 0.92536 0.0
C2380 C 0.53922 0.04762 0.92084 0.0
C2381 C 0.56376 0.03191 0.90741 0.0
C2382 C 0.53426 0.04978 0.95529 0.0
C2383 C 0.50346 0.02897 0.01358 0.0
H2384 H 0.51442 0.02997 0.065 0.0
H2385 H 0.53702 0.01497 0.12661 0.0
H2386 H 0.49204 0.02371 0.08869 0.0
H2387 H 0.55932 0.02106 0.10266 0.0
H2388 H 0.5624 0.02999 0.95464 0.0
H2389 H 0.54511 0.0453 0.89155 0.0
H2390 H 0.57971 0.02014 0.92757 0.0
H2391 H 0.52801 0.05541 0.91898 0.0
Eu2392 Eu 0.30528 0.30572 0.28033 0.0
Eu2393 Eu 0.28551 0.26472 0.25441 0.0
C2394 C 0.29624 0.30111 0.23418 0.0
C2395 C 0.31299 0.35796 0.29531 0.0
C2396 C 0.29406 0.35808 0.29005 0.0
C2397 C 0.32166 0.38999 0.28851 0.0
C2398 C 0.28901 0.37384 0.28386 0.0
C2399 C 0.32674 0.37411 0.29474 0.0
C2400 C 0.30275 0.38988 0.28275 0.0
C2401 C 0.31847 0.34013 0.2987 0.0
O2402 O 0.31638 0.26849 0.25063 0.0
O2403 O 0.32859 0.28891 0.27835 0.0
C2404 C 0.33066 0.27685 0.26308 0.0
O2405 O 0.29591 0.28667 0.30162 0.0
O2406 O 0.28287 0.24275 0.22894 0.0
O2407 O 0.26452 0.23847 0.25129 0.0
O2408 O 0.29666 0.2582 0.28257 0.0
C2409 C 0.29598 0.26833 0.2996 0.0
O2410 O 0.27547 0.30776 0.27188 0.0
O2411 O 0.26313 0.27643 0.27039 0.0
O2412 O 0.28344 0.28567 0.23414 0.0
O2413 O 0.30563 0.32814 0.30493 0.0
O2414 O 0.32684 0.3317 0.28499 0.0
O2415 O 0.30784 0.30879 0.24946 0.0
C2416 C 0.27681 0.21231 0.23736 0.0
C2417 C 0.29584 0.21191 0.24171 0.0
C2418 C 0.26849 0.17916 0.24083 0.0
C2419 C 0.30115 0.19533 0.24571 0.0
C2420 C 0.26319 0.19578 0.23669 0.0
C2421 C 0.28751 0.17888 0.24565 0.0
C2422 C 0.27107 0.2305 0.23601 0.0
C2423 C 0.26135 0.29428 0.27351 0.0
H2424 H 0.28318 0.34569 0.28999 0.0
H2425 H 0.33253 0.4022 0.28793 0.0
H2426 H 0.27437 0.37308 0.27918 0.0
H2427 H 0.34144 0.37419 0.2985 0.0
H2428 H 0.30659 0.22461 0.24272 0.0
H2429 H 0.25771 0.16664 0.24059 0.0
H2430 H 0.31586 0.19568 0.24969 0.0
H2431 H 0.24841 0.19591 0.2336 0.0
Eu2432 Eu 0.54308 0.55366 0.02679 0.0
Eu2433 Eu 0.55459 0.51487 0.00829 0.0
C2434 C 0.5819 0.55451 0.00663 0.0
C2435 C 0.53188 0.60237 0.02977 0.0
C2436 C 0.52603 0.59889 0.0102 0.0
C2437 C 0.53627 0.6364 0.02994 0.0
C2438 C 0.52526 0.614 1.0006 0.0
C2439 C 0.53692 0.62121 0.03961 0.0
C2440 C 0.5305 0.63293 0.01031 0.0
C2441 C 0.53408 0.58642 0.03946 0.0
O2442 O 0.55939 0.51552 0.04076 0.0
O2443 O 0.56139 0.54711 0.05233 0.0
C2444 C 0.56417 0.53009 0.05517 0.0
O2445 O 0.52247 0.53118 0.03717 0.0
O2446 O 0.57167 0.49298 0.0094 0.0
O2447 O 0.55001 0.48923 0.98637 0.0
O2448 O 0.52373 0.50685 0.013 0.0
C2449 C 0.51527 0.51425 0.02733 0.0
O2450 O 0.52828 0.54775 0.99553 0.0
O2451 O 0.54549 0.5266 0.98166 0.0
O2452 O 0.58146 0.53671 0.00844 0.0
O2453 O 0.52171 0.57069 0.03385 0.0
O2454 O 0.5512 0.58329 0.04134 0.0
O2455 O 0.56708 0.56231 0.00935 0.0
C2456 C 0.5526 0.4626 1.00053 0.0
C2457 C 0.53407 0.45988 0.00582 0.0
C2458 C 0.55545 0.43182 0.00842 0.0
C2459 C 0.52635 0.44343 0.01249 0.0
C2460 C 0.5632 0.44839 1.00174 0.0
C2461 C 0.53697 0.42925 0.01404 0.0
C2462 C 0.56122 0.48098 0.9956 0.0
C2463 C 0.53317 0.53785 0.97976 0.0
H2464 H 0.52236 0.58447 1.00223 0.0
H2465 H 0.5403 0.65085 0.03779 0.0
H2466 H 0.52109 0.61086 0.98541 0.0
H2467 H 0.54165 0.62416 0.05466 0.0
H2468 H 0.52565 0.47071 0.00529 0.0
H2469 H 0.56395 0.4211 0.00935 0.0
H2470 H 0.51227 0.44215 0.01708 0.0
H2471 H 0.57758 0.4503 0.99791 0.0
Eu2472 Eu 0.81442 0.30154 0.26815 0.0
Eu2473 Eu 0.77637 0.2728 0.26984 0.0
C2474 C 0.79367 0.30308 0.30726 0.0
C2475 C 0.86707 0.31819 0.26597 0.0
C2476 C 0.87443 0.3053 0.27551 0.0
C2477 C 0.89711 0.3261 0.25287 0.0
C2478 C 0.89311 0.30334 0.27431 0.0
C2479 C 0.87843 0.32827 0.25432 0.0
C2480 C 0.90486 0.31398 0.26326 0.0
C2481 C 0.84804 0.32196 0.26894 0.0
O2482 O 0.76691 0.3019 0.26649 0.0
O2483 O 0.7942 0.32297 0.26542 0.0
C2484 C 0.77559 0.31968 0.26567 0.0
O2485 O 0.80617 0.2886 0.23706 0.0
O2486 O 0.75553 0.25638 0.28473 0.0
O2487 O 0.7495 0.25786 0.25501 0.0
O2488 O 0.78626 0.26178 0.24131 0.0
C2489 C 0.797 0.27117 0.23049 0.0
O2490 O 0.82395 0.27244 0.27136 0.0
O2491 O 0.79655 0.25114 0.27138 0.0
O2492 O 0.78548 0.2853 0.30089 0.0
O2493 O 0.83586 0.3182 0.25398 0.0
O2494 O 0.84067 0.31672 0.28395 0.0
O2495 O 0.80359 0.31283 0.29615 0.0
C2496 C 0.72453 0.25786 0.2741 0.0
C2497 C 0.72311 0.27712 0.27814 0.0
C2498 C 0.69051 0.24897 0.27085 0.0
C2499 C 0.70552 0.28234 0.27753 0.0
C2500 C 0.70818 0.24379 0.27112 0.0
C2501 C 0.68899 0.26832 0.27313 0.0
C2502 C 0.74276 0.25268 0.2703 0.0
C2503 C 0.8152 0.25451 0.27149 0.0
H2504 H 0.86595 0.29718 0.28448 0.0
H2505 H 0.90559 0.33424 0.24393 0.0
H2506 H 0.89851 0.29411 0.28281 0.0
H2507 H 0.87297 0.33816 0.2467 0.0
H2508 H 0.73565 0.28816 0.28063 0.0
H2509 H 0.67808 0.2378 0.26792 0.0
H2510 H 0.70502 0.29736 0.27922 0.0
H2511 H 0.70905 0.22884 0.26808 0.0
Eu2512 Eu 0.05024 0.53112 0.53616 0.0
Eu2513 Eu 0.04422 0.53854 0.49244 0.0
C2514 C 0.04805 0.57194 0.52766 0.0
C2515 C 0.04288 0.51518 0.58386 0.0
C2516 C 0.02347 0.50864 0.57932 0.0
C2517 C 0.04047 0.50418 0.61403 0.0
C2518 C 0.01253 0.50032 0.59232 0.0
C2519 C 0.05138 0.51258 0.60107 0.0
C2520 C 0.02088 0.49834 0.60996 0.0
C2521 C 0.05421 0.52557 0.57122 0.0
O2522 O 0.07561 0.54854 0.50033 0.0
O2523 O 0.08032 0.53541 0.527 0.0
C2524 C 0.08699 0.54413 0.51325 0.0
O2525 O 0.04222 0.50234 0.51768 0.0
O2526 O 0.04801 0.55749 0.47168 0.0
O2527 O 0.03334 0.52822 0.46273 0.0
O2528 O 0.05424 0.51063 0.49076 0.0
C2529 C 0.04912 0.4978 0.50138 0.0
O2530 O 0.01828 0.52965 0.53137 0.0
O2531 O 0.0146 0.52707 0.49872 0.0
O2532 O 0.03726 0.56364 0.51213 0.0
O2533 O 0.06008 0.51521 0.55686 0.0
O2534 O 0.04791 0.54005 0.56641 0.0
O2535 O 0.05854 0.56241 0.53623 0.0
C2536 C 0.05305 0.5415 0.44162 0.0
C2537 C 0.0712 0.53799 0.44519 0.0
C2538 C 0.05784 0.53947 0.40807 0.0
C2539 C 0.08268 0.53539 0.43032 0.0
C2540 C 0.04639 0.54221 0.42302 0.0
C2541 C 0.07612 0.53604 0.41156 0.0
C2542 C 0.04101 0.54393 0.45728 0.0
C2543 C 1.00744 0.52659 0.51519 0.0
H2544 H 0.01673 0.51045 0.56599 0.0
H2545 H 0.04726 0.50307 0.6276 0.0
H2546 H 0.99749 0.49581 0.58876 0.0
H2547 H 0.06636 0.51756 0.60473 0.0
H2548 H 0.07646 0.53726 0.4595 0.0
H2549 H 0.05226 0.53979 0.39375 0.0
H2550 H 0.09676 0.53307 0.43358 0.0
H2551 H 0.03233 0.54474 0.42005 0.0
Eu2552 Eu 0.77638 0.79533 0.26597 0.0
Eu2553 Eu 0.81495 0.77913 0.26678 0.0
C2554 C 0.77526 0.74894 0.26901 0.0
C2555 C 0.72571 0.8001 0.27349 0.0
C2556 C 0.72446 0.80652 0.29299 0.0
C2557 C 0.69317 0.78341 0.27068 0.0
C2558 C 0.70771 0.80144 0.30123 0.0
C2559 C 0.70987 0.78861 0.2624 0.0
C2560 C 0.69193 0.78981 0.29016 0.0
C2561 C 0.74339 0.80497 0.26458 0.0
O2562 O 0.80661 0.77368 0.23499 0.0
O2563 O 0.78264 0.7904 0.23483 0.0
C2564 C 0.79396 0.78045 0.22571 0.0
O2565 O 0.7971 0.823 0.26401 0.0
O2566 O 0.83059 0.75598 0.26385 0.0
O2567 O 0.84556 0.78499 0.27254 0.0
O2568 O 0.8245 0.81146 0.26531 0.0
C2569 C 0.81565 0.82594 0.26431 0.0
O2570 O 0.78516 0.80069 0.29787 0.0
O2571 O 0.80964 0.78456 0.29798 0.0
O2572 O 0.79359 0.75147 0.26756 0.0
O2573 O 0.75794 0.815 0.27561 0.0
O2574 O 0.74787 0.79128 0.25246 0.0
O2575 O 0.76666 0.76371 0.26942 0.0
C2576 C 0.86013 0.76346 0.25288 0.0
C2577 C 0.86042 0.77196 0.23659 0.0
C2578 C 0.883 0.7451 0.24053 0.0
C2579 C 0.87208 0.76716 0.2224 0.0
C2580 C 0.87145 0.75003 0.25479 0.0
C2581 C 0.88339 0.75361 0.22422 0.0
C2582 C 0.84694 0.76726 0.26713 0.0
C2583 C 0.79807 0.79413 0.30709 0.0
H2584 H 0.7364 0.81538 0.30195 0.0
H2585 H 0.68113 0.77465 0.26178 0.0
H2586 H 0.70716 0.80646 0.31632 0.0
H2587 H 0.71043 0.78358 0.24731 0.0
H2588 H 0.85146 0.78211 0.23475 0.0
H2589 H 0.89177 0.73479 0.24235 0.0
H2590 H 0.87205 0.77379 0.20988 0.0
H2591 H 0.87118 0.7432 0.26719 0.0
Eu2592 Eu 0.79402 0.28985 0.74653 0.0
Eu2593 Eu 0.78007 0.28015 0.7887 0.0
C2594 C 0.7547 0.29835 0.76112 0.0
C2595 C 0.79987 0.31163 0.70099 0.0
C2596 C 0.79214 0.32773 0.7074 0.0
C2597 C 0.79898 0.31918 0.66903 0.0
C2598 C 0.78794 0.33953 0.6947 0.0
C2599 C 0.80324 0.30747 0.68174 0.0
C2600 C 0.79127 0.33541 0.67529 0.0
C2601 C 0.80404 0.29871 0.71392 0.0
O2602 O 0.76643 0.25477 0.76662 0.0
O2603 O 0.78575 0.25792 0.74225 0.0
C2604 C 0.77293 0.24779 0.75066 0.0
O2605 O 0.81883 0.28274 0.76255 0.0
O2606 O 0.75957 0.26794 0.80703 0.0
O2607 O 0.78708 0.28368 0.81929 0.0
O2608 O 0.80288 0.26369 0.78151 0.0
C2609 C 0.81804 0.26956 0.77328 0.0
O2610 O 0.79546 0.31772 0.76629 0.0
O2611 O 0.80197 0.3071 0.7938 0.0
O2612 O 0.76032 0.29814 0.77891 0.0
O2613 O 0.81332 0.30649 0.73038 0.0
O2614 O 0.79034 0.28482 0.71539 0.0
O2615 O 0.76359 0.2918 0.7467 0.0
C2616 C 0.77202 0.26006 0.83588 0.0
C2617 C 0.78889 0.25441 0.84111 0.0
C2618 C 0.75705 0.24444 0.86029 0.0
C2619 C 0.78992 0.24428 0.85615 0.0
C2620 C 0.75604 0.25455 0.84531 0.0
C2621 C 0.77414 0.23967 0.86631 0.0
C2622 C 0.77122 0.27344 0.82239 0.0
C2623 C 0.80242 0.321 0.78413 0.0
H2624 H 0.78933 0.33114 0.7222 0.0
H2625 H 0.80141 0.31527 0.65419 0.0
H2626 H 0.78222 0.35197 0.70015 0.0
H2627 H 0.80903 0.29501 0.67648 0.0
H2628 H 0.80147 0.25844 0.83409 0.0
H2629 H 0.74451 0.2408 0.8675 0.0
H2630 H 0.80332 0.2409 0.86042 0.0
H2631 H 0.74288 0.25871 0.84156 0.0
Eu2632 Eu 0.80347 0.79841 0.77485 0.0
Eu2633 Eu 0.78094 0.7567 0.75399 0.0
C2634 C 0.78789 0.79063 0.73012 0.0
C2635 C 0.81991 0.85088 0.78104 0.0
C2636 C 0.8254 0.85284 0.76276 0.0
C2637 C 0.80678 0.87959 0.78243 0.0
C2638 C 0.8211 0.86768 0.75419 0.0
C2639 C 0.8112 0.86481 0.79106 0.0
C2640 C 0.8111 0.8808 0.76364 0.0
C2641 C 0.82069 0.83318 0.78849 0.0
O2642 O 0.81067 0.75936 0.74584 0.0
O2643 O 0.82503 0.77965 0.77259 0.0
C2644 C 0.82587 0.76738 0.75712 0.0
O2645 O 0.7968 0.78206 0.79928 0.0
O2646 O 0.77467 0.73397 0.72902 0.0
O2647 O 0.76054 0.73071 0.75447 0.0
O2648 O 0.79478 0.75214 0.78181 0.0
C2649 C 0.79618 0.76362 0.79846 0.0
O2650 O 0.77311 0.80094 0.77072 0.0
O2651 O 0.7608 0.77006 0.77196 0.0
O2652 O 0.77515 0.7767 0.73399 0.0
O2653 O 0.80512 0.82523 0.79464 0.0
O2654 O 0.82862 0.82067 0.77824 0.0
O2655 O 0.80216 0.79883 0.74279 0.0
C2656 C 0.76984 0.70375 0.73798 0.0
C2657 C 0.78897 0.70258 0.73934 0.0
C2658 C 0.76164 0.67066 0.74161 0.0
C2659 C 0.7944 0.68565 0.74198 0.0
C2660 C 0.75619 0.68762 0.73882 0.0
C2661 C 0.78082 0.66963 0.74353 0.0
C2662 C 0.7643 0.72224 0.73796 0.0
C2663 C 0.75943 0.78804 0.77452 0.0
H2664 H 0.83221 0.8424 0.75461 0.0
H2665 H 0.79893 0.88935 0.79008 0.0
H2666 H 0.82495 0.86842 0.73985 0.0
H2667 H 0.8068 0.86361 0.80514 0.0
H2668 H 0.79977 0.71497 0.73908 0.0
H2669 H 0.7509 0.65849 0.74267 0.0
H2670 H 0.80929 0.68539 0.74375 0.0
H2671 H 0.74138 0.68835 0.73798 0.0
Eu2672 Eu 0.55643 0.55815 0.523 0.0
Eu2673 Eu 0.53697 0.51456 0.5163 0.0
C2674 C 0.55934 0.53167 0.4806 0.0
C2675 C 0.56284 0.60782 0.51508 0.0
C2676 C 0.55024 0.60025 0.49887 0.0
C2677 C 0.5608 0.63971 0.51021 0.0
C2678 C 0.54266 0.61225 0.48862 0.0
C2679 C 0.56821 0.6276 0.52067 0.0
C2680 C 0.54776 0.63214 0.49417 0.0
C2681 C 0.569 0.59477 0.52661 0.0
O2682 O 0.56859 0.51416 0.51962 0.0
O2683 O 0.58009 0.54498 0.53397 0.0
C2684 C 0.58281 0.52761 0.52778 0.0
O2685 O 0.54419 0.55547 0.5523 0.0
O2686 O 0.51978 0.4893 0.49806 0.0
O2687 O 0.53148 0.48773 0.52637 0.0
O2688 O 0.52994 0.52409 0.54766 0.0
C2689 C 0.53369 0.54119 0.55872 0.0
O2690 O 0.52737 0.55676 0.50814 0.0
O2691 O 0.51203 0.52985 0.5169 0.0
O2692 O 0.54654 0.51842 0.48607 0.0
O2693 O 0.55624 0.58736 0.53671 0.0
O2694 O 0.57737 0.58194 0.51761 0.0
O2695 O 0.56568 0.54777 0.49281 0.0
C2696 C 0.52911 0.46058 0.5029 0.0
C2697 C 0.54837 0.46002 0.50429 0.0
C2698 C 0.52186 0.42613 0.49428 0.0
C2699 C 0.55428 0.44256 0.50181 0.0
C2700 C 0.51594 0.44363 0.49706 0.0
C2701 C 0.54101 0.42535 0.49768 0.0
C2702 C 0.52266 0.47825 0.51021 0.0
C2703 C 0.51161 0.54628 0.51167 0.0
H2704 H 0.54593 0.58499 0.49435 0.0
H2705 H 0.56523 0.65497 0.51472 0.0
H2706 H 0.53241 0.60586 0.47662 0.0
H2707 H 0.57789 0.63363 0.53321 0.0
H2708 H 0.55878 0.47301 0.50866 0.0
H2709 H 0.51131 0.41319 0.4906 0.0
H2710 H 0.56912 0.44264 0.50467 0.0
H2711 H 0.50102 0.44384 0.49575 0.0
Eu2712 Eu 0.07977 0.53398 0.99377 0.0
Eu2713 Eu 0.03465 0.53612 1.00232 0.0
C2714 C 0.06377 0.52819 0.03414 0.0
C2715 C 0.12771 0.51853 0.99466 0.0
C2716 C 0.12563 0.51128 0.01163 0.0
C2717 C 0.15632 0.50561 0.99081 0.0
C2718 C 0.13892 0.50149 0.01828 0.0
C2719 C 0.14307 0.51549 0.98424 0.0
C2720 C 0.15453 0.49861 0.00801 0.0
C2721 C 0.11413 0.52938 0.98773 0.0
O2722 O 0.0529 0.56463 0.01513 0.0
O2723 O 0.07818 0.56488 0.99685 0.0
C2724 C 0.06792 0.57368 0.00857 0.0
O2725 O 0.06379 0.53412 0.96568 0.0
O2726 O 0.01329 0.54355 0.02113 0.0
O2727 O 1.00494 0.53115 0.99149 0.0
O2728 O 0.04127 0.55041 0.97733 0.0
C2729 C 0.05083 0.54431 0.96327 0.0
O2730 O 0.06443 0.50521 0.99655 0.0
O2731 O 0.03515 0.50711 0.98464 0.0
O2732 O 0.04628 0.5238 0.0264 0.0
O2733 O 0.09917 0.5194 0.97727 0.0
O2734 O 0.11016 0.54324 1.00007 0.0
O2735 O 0.07783 0.53588 0.02532 0.0
C2736 C 0.98631 0.55208 0.00679 0.0
C2737 C 0.99277 0.57159 0.00709 0.0
C2738 C 0.95408 0.55762 0.00626 0.0
C2739 C 0.97998 0.58405 0.00721 0.0
C2740 C 0.96687 0.5452 0.00618 0.0
C2741 C 0.96043 0.57728 0.00702 0.0
C2742 C 0.99951 0.53873 0.00762 0.0
C2743 C 0.0484 0.49722 0.98679 0.0
H2744 H 0.11377 0.51329 0.01978 0.0
H2745 H 0.16822 0.50385 0.98263 0.0
H2746 H 0.13693 0.49608 0.03143 0.0
H2747 H 0.14492 0.52094 0.97109 0.0
H2748 H 1.0077 0.57722 0.00743 0.0
H2749 H 0.93923 0.55185 0.00632 0.0
H2750 H 0.98543 0.59902 0.0075 0.0
H2751 H 0.96157 0.5302 0.00595 0.0
H2752 H 0.99232 0.1948 0.9563 0.0
H2753 H 0.01741 0.24976 0.9904 0.0
H2754 H 0.027 0.23381 0.01638 0.0
H2755 H 0.97663 0.17076 0.99748 0.0
H2756 H 0.98218 0.14856 0.98604 0.0
H2757 H 0.97422 0.16445 0.97182 0.0
H2758 H 1.0041 0.16478 0.95344 0.0
H2759 H 0.01212 0.14898 0.96756 0.0
H2760 H 0.02698 0.17152 0.96658 0.0
H2761 H 0.03918 0.2118 0.0355 0.0
H2762 H 0.05135 0.18544 0.04694 0.0
H2763 H 0.01711 0.14501 1.00101 0.0
C2764 C 0.99934 0.20345 0.96949 0.0
C2765 C 1.00405 0.22344 0.97149 0.0
C2766 C 0.01343 0.2344 0.98879 0.0
C2767 C 0.01893 0.22547 1.00358 0.0
C2768 C 0.0146 0.20563 1.00094 0.0
C2769 C 1.00471 0.19477 0.98444 0.0
C2770 C 1.00338 0.1737 0.9843 0.0
C2771 C 0.98288 0.16379 0.98496 0.0
C2772 C 0.01218 0.16421 0.96696 0.0
C2773 C 0.01499 0.17441 1.00277 0.0
C2774 C 0.02116 0.19292 0.01232 0.0
C2775 C 0.03397 0.19721 0.02849 0.0
C2776 C 0.04086 0.18222 0.03484 0.0
C2777 C 0.03483 0.16324 0.02506 0.0
C2778 C 0.02141 0.15933 0.00914 0.0
H2779 H 0.1564 0.76113 0.18776 0.0
H2780 H 0.13302 0.80116 0.22742 0.0
H2781 H 0.15918 0.80248 0.25153 0.0
H2782 H 0.17699 0.73683 0.22272 0.0
H2783 H 0.19764 0.73542 0.21002 0.0
H2784 H 0.1754 0.73498 0.19716 0.0
H2785 H 0.19063 0.76378 0.18237 0.0
H2786 H 0.21285 0.76428 0.19514 0.0
H2787 H 0.20259 0.78535 0.19788 0.0
H2788 H 0.18945 0.80178 0.27021 0.0
H2789 H 0.22218 0.80073 0.28104 0.0
H2790 H 0.22657 0.76326 0.22801 0.0
C2791 C 0.15665 0.77015 0.20152 0.0
C2792 C 0.14258 0.78103 0.20564 0.0
C2793 C 0.14341 0.79241 0.22398 0.0
C2794 C 0.15826 0.7933 0.23777 0.0
C2795 C 0.17215 0.78276 0.23299 0.0
C2796 C 0.17148 0.77145 0.21527 0.0
C2797 C 0.18907 0.76315 0.21288 0.0
C2798 C 0.18449 0.7413 0.21056 0.0
C2799 C 0.19939 0.76953 0.19608 0.0
C2800 C 0.20005 0.77208 0.2318 0.0
C2801 C 0.1899 0.78297 0.24341 0.0
C2802 C 0.19746 0.79316 0.26132 0.0
C2803 C 0.21603 0.79245 0.26735 0.0
C2804 C 0.22684 0.78196 0.25531 0.0
C2805 C 0.21861 0.77143 0.23748 0.0
H2806 H 0.51998 0.9046 0.47921 0.0
H2807 H 0.54777 0.91082 0.4276 0.0
H2808 H 0.54915 0.94545 0.43479 0.0
H2809 H 0.49074 0.93889 0.47493 0.0
H2810 H 0.4923 0.94782 0.50021 0.0
H2811 H 0.49429 0.9235 0.49166 0.0
H2812 H 0.52656 0.92897 0.5114 0.0
H2813 H 0.52455 0.95323 0.52019 0.0
H2814 H 0.54493 0.94833 0.50839 0.0
H2815 H 0.54755 0.97923 0.44736 0.0
H2816 H 0.54376 0.01039 0.4653 0.0
H2817 H 0.51516 0.98215 0.50745 0.0
C2818 C 0.52634 0.91322 0.46939 0.0
C2819 C 0.53392 0.90495 0.45292 0.0
C2820 C 0.54227 0.91681 0.44055 0.0
C2821 C 0.54293 0.93649 0.44438 0.0
C2822 C 0.53504 0.94408 0.46053 0.0
C2823 C 0.52694 0.93286 0.47287 0.0
C2824 C 0.51933 0.94462 0.48915 0.0
C2825 C 0.49789 0.93833 0.48897 0.0
C2826 C 0.52945 0.94373 0.50842 0.0
C2827 C 0.52442 0.9642 0.48401 0.0
C2828 C 0.53353 0.96356 0.46746 0.0
C2829 C 0.54033 0.97992 0.46025 0.0
C2830 C 0.53811 0.99749 0.47046 0.0
C2831 C 0.52908 0.99841 0.48752 0.0
C2832 C 0.52181 0.98161 0.4942 0.0
H2833 H 0.48135 0.29186 0.68307 0.0
H2834 H 0.4905 0.23391 0.67982 0.0
H2835 H 0.46257 0.22631 0.6974 0.0
H2836 H 0.46727 0.29754 0.72997 0.0
H2837 H 0.44964 0.31128 0.72543 0.0
H2838 H 0.46969 0.31192 0.71161 0.0
H2839 H 0.44751 0.30144 0.68041 0.0
H2840 H 0.42737 0.30084 0.69414 0.0
H2841 H 0.42983 0.27999 0.67751 0.0
H2842 H 0.43467 0.22537 0.71645 0.0
H2843 H 0.40818 0.23101 0.73548 0.0
H2844 H 0.41714 0.2896 0.72647 0.0
C2845 C 0.47727 0.27749 0.68578 0.0
C2846 C 0.48808 0.26347 0.68012 0.0
C2847 C 0.48251 0.24492 0.68422 0.0
C2848 C 0.46663 0.24044 0.69409 0.0
C2849 C 0.45644 0.25466 0.69972 0.0
C2850 C 0.46147 0.27279 0.69567 0.0
C2851 C 0.44848 0.28562 0.70394 0.0
C2852 C 0.45943 0.30259 0.71861 0.0
C2853 C 0.43766 0.29237 0.68805 0.0
C2854 C 0.43551 0.27191 0.71344 0.0
C2855 C 0.44032 0.25412 0.71076 0.0
C2856 C 0.43072 0.23922 0.7186 0.0
C2857 C 0.41579 0.2426 0.72949 0.0
C2858 C 0.41065 0.26075 0.73249 0.0
C2859 C 0.42062 0.27552 0.72424 0.0
H2860 H 0.03725 0.84994 0.5763 0.0
H2861 H 0.98226 0.821 0.54906 0.0
H2862 H 0.98441 0.84329 0.52623 0.0
H2863 H 0.03186 0.89682 0.57256 0.0
H2864 H 0.05591 0.9046 0.56783 0.0
H2865 H 0.05022 0.886 0.58159 0.0
H2866 H 0.06595 0.86364 0.55806 0.0
H2867 H 0.07166 0.88218 0.54419 0.0
H2868 H 0.05833 0.85916 0.53296 0.0
H2869 H 0.99217 0.86939 0.50707 0.0
H2870 H 1.00488 0.89761 0.4932 0.0
H2871 H 0.05498 0.90891 0.5327 0.0
C2872 C 0.02577 0.84809 0.56537 0.0
C2873 C 0.00959 0.83371 0.56445 0.0
C2874 C 0.9947 0.83205 0.55017 0.0
C2875 C 0.99585 0.84454 0.53705 0.0
C2876 C 0.012 0.85855 0.53839 0.0
C2877 C 0.0267 0.86038 0.55217 0.0
C2878 C 0.04228 0.87696 0.55089 0.0
C2879 C 0.04523 0.89198 0.56931 0.0
C2880 C 0.06064 0.87007 0.54624 0.0
C2881 C 0.03399 0.88429 0.53432 0.0
C2882 C 0.01654 0.87346 0.52727 0.0
C2883 C 1.00587 0.8779 0.51239 0.0
C2884 C 0.01316 0.89397 0.50466 0.0
C2885 C 0.03094 0.90534 0.51181 0.0
C2886 C 0.04151 0.90026 0.5267 0.0
H2887 H 0.50972 0.81519 0.81707 0.0
H2888 H 0.49467 0.75735 0.8275 0.0
H2889 H 0.46458 0.75308 0.80776 0.0
H2890 H 0.46653 0.82673 0.82181 0.0
H2891 H 0.4672 0.84104 0.8034 0.0
H2892 H 0.48878 0.83847 0.81543 0.0
H2893 H 0.50062 0.82594 0.78302 0.0
H2894 H 0.47905 0.82858 0.77081 0.0
H2895 H 0.48639 0.80587 0.76711 0.0
H2896 H 0.43461 0.75671 0.79104 0.0
H2897 H 0.40691 0.76804 0.77919 0.0
H2898 H 0.4419 0.82317 0.77841 0.0
C2899 C 0.50039 0.8014 0.81464 0.0
C2900 C 0.50454 0.78656 0.82371 0.0
C2901 C 0.4917 0.76893 0.82073 0.0
C2902 C 0.47467 0.76632 0.80941 0.0
C2903 C 0.4708 0.78143 0.80106 0.0
C2904 C 0.48336 0.79859 0.80342 0.0
C2905 C 0.47504 0.81321 0.79464 0.0
C2906 C 0.47434 0.83089 0.80972 0.0
C2907 C 0.48592 0.81872 0.7779 0.0
C2908 C 0.45553 0.80189 0.78774 0.0
C2909 C 0.45346 0.78348 0.79127 0.0
C2910 C 0.43618 0.77093 0.78776 0.0
C2911 C 0.42051 0.77749 0.78092 0.0
C2912 C 0.42221 0.79649 0.77772 0.0
C2913 C 0.44011 0.80858 0.78069 0.0
H2914 H 0.51857 0.1638 0.10357 0.0
H2915 H 0.5168 0.19478 0.05663 0.0
H2916 H 0.5206 0.16623 0.0342 0.0
H2917 H 0.55356 0.13814 0.08732 0.0
H2918 H 0.54321 0.11631 0.09477 0.0
H2919 H 0.53927 0.1388 0.10721 0.0
H2920 H 0.50322 0.12672 0.10104 0.0
H2921 H 0.50706 0.10414 0.08865 0.0
H2922 H 0.49288 0.11765 0.07696 0.0
H2923 H 0.52615 0.13547 0.0172 0.0
H2924 H 0.53256 0.10355 0.00604 0.0
H2925 H 0.53036 0.09157 0.06364 0.0
C2926 C 0.51869 0.16444 0.08853 0.0
C2927 C 0.5175 0.18153 0.08183 0.0
C2928 C 0.51796 0.18192 0.06209 0.0
C2929 C 0.51999 0.16576 0.04924 0.0
C2930 C 0.52144 0.14927 0.05632 0.0
C2931 C 0.52073 0.14839 0.07545 0.0
C2932 C 0.52324 0.12896 0.07927 0.0
C2933 C 0.54087 0.13066 0.09295 0.0
C2934 C 0.50554 0.11876 0.08693 0.0
C2935 C 0.52574 0.11922 0.05932 0.0
C2936 C 0.52457 0.13124 0.04635 0.0
C2937 C 0.52697 0.12585 0.02717 0.0
C2938 C 0.5307 0.10767 0.021 0.0
C2939 C 0.53199 0.095 0.03396 0.0
C2940 C 0.52936 0.10087 0.05338 0.0
H2941 H 0.17857 0.28176 0.34116 0.0
H2942 H 0.16624 0.33577 0.33048 0.0
H2943 H 0.19223 0.33868 0.30972 0.0
H2944 H 0.22882 0.29351 0.34107 0.0
H2945 H 0.2307 0.27016 0.32889 0.0
H2946 H 0.21179 0.27293 0.34378 0.0
H2947 H 0.18752 0.25583 0.31534 0.0
H2948 H 0.20637 0.25311 0.30034 0.0
H2949 H 0.18788 0.26484 0.29327 0.0
H2950 H 0.2202 0.3359 0.29036 0.0
H2951 H 0.247 0.32685 0.27326 0.0
H2952 H 0.23858 0.27349 0.29444 0.0
C2953 C 0.18117 0.29417 0.3344 0.0
C2954 C 0.17034 0.30859 0.33768 0.0
C2955 C 0.17454 0.3247 0.32864 0.0
C2956 C 0.18919 0.32642 0.31665 0.0
C2957 C 0.19942 0.31184 0.31362 0.0
C2958 C 0.19553 0.29599 0.32218 0.0
C2959 C 0.20826 0.28207 0.31623 0.0
C2960 C 0.22062 0.27953 0.33352 0.0
C2961 C 0.19682 0.26283 0.30567 0.0
C2962 C 0.21985 0.29253 0.30292 0.0
C2963 C 0.21474 0.30978 0.30174 0.0
C2964 C 0.22417 0.32231 0.29099 0.0
C2965 C 0.23932 0.31706 0.28131 0.0
C2966 C 0.24457 0.29933 0.28223 0.0
C2967 C 0.23457 0.28692 0.29306 0.0
H2968 H 0.97605 0.02388 0.14947 0.0
H2969 H 0.98255 0.0854 0.16481 0.0
H2970 H 0.99881 0.08902 0.13622 0.0
H2971 H 0.02143 0.02358 0.12854 0.0
H2972 H 0.0125 1.00425 0.10901 0.0
H2973 H 1.00135 1.00576 0.13103 0.0
H2974 H 0.96951 1.00494 0.11258 0.0
H2975 H 0.98059 1.0034 0.09051 0.0
H2976 H 0.96771 0.02217 0.09736 0.0
H2977 H 0.01521 0.08696 0.1049 0.0
H2978 H 0.02898 0.07932 0.07456 0.0
H2979 H 0.0127 0.019 0.07593 0.0
C2980 C 0.98082 0.03821 0.14698 0.0
C2981 C 0.97782 0.05435 0.16075 0.0
C2982 C 0.98464 0.07254 0.15584 0.0
C2983 C 0.99397 0.07484 0.1391 0.0
C2984 C 0.99681 0.05892 0.1263 0.0
C2985 C 0.99035 0.04085 0.12991 0.0
C2986 C 0.99526 0.02622 0.1133 0.0
C2987 C 0.00841 0.01423 0.12092 0.0
C2988 C 0.97719 0.01341 0.10282 0.0
C2989 C 1.00546 0.03885 0.09996 0.0
C2990 C 1.0061 0.05771 0.10797 0.0
C2991 C 0.01466 0.07218 0.0987 0.0
C2992 C 0.02263 0.06759 0.08113 0.0
C2993 C 0.02244 0.04848 0.072 0.0
C2994 C 0.0135 0.03387 0.08198 0.0
H2995 H 0.29823 0.66689 0.43581 0.0
H2996 H 0.32423 0.71326 0.48153 0.0
H2997 H 0.32293 0.73612 0.45987 0.0
H2998 H 0.32074 0.68596 0.39712 0.0
H2999 H 0.30011 0.67824 0.38041 0.0
H3000 H 0.30375 0.66509 0.39917 0.0
H3001 H 0.27119 0.669 0.41066 0.0
H3002 H 0.26741 0.68207 0.39188 0.0
H3003 H 0.26585 0.69254 0.41634 0.0
H3004 H 0.31849 0.75424 0.43376 0.0
H3005 H 0.30998 0.7667 0.40508 0.0
H3006 H 0.28555 0.70923 0.37606 0.0
C3007 C 0.30361 0.68185 0.44132 0.0
C3008 C 0.3116 0.68811 0.46045 0.0
C3009 C 0.3185 0.70789 0.4669 0.0
C3010 C 0.31771 0.72107 0.45471 0.0
C3011 C 0.30988 0.71441 0.43601 0.0
C3012 C 0.30285 0.6953 0.42932 0.0
C3013 C 0.29466 0.6921 0.40868 0.0
C3014 C 0.30546 0.67961 0.39557 0.0
C3015 C 0.27352 0.68341 0.40679 0.0
C3016 C 0.29805 0.71242 0.40493 0.0
C3017 C 0.30696 0.725 0.42091 0.0
C3018 C 0.31144 0.74454 0.42118 0.0
C3019 C 0.30645 0.75149 0.40481 0.0
C3020 C 0.29692 0.73902 0.3883 0.0
C3021 C 0.29293 0.71915 0.38835 0.0
H3022 H 0.60389 0.03664 0.64847 0.0
H3023 H 0.6202 0.98251 0.62834 0.0
H3024 H 0.60034 0.97898 0.59829 0.0
H3025 H 0.55485 0.02405 0.62432 0.0
H3026 H 0.55612 0.04762 0.61888 0.0
H3027 H 0.56887 0.04433 0.64012 0.0
H3028 H 0.59985 0.06175 0.62941 0.0
H3029 H 0.58724 0.06507 0.6082 0.0
H3030 H 0.60708 0.05324 0.6063 0.0
H3031 H 0.58373 0.98387 0.56885 0.0
H3032 H 0.57041 0.99646 0.54211 0.0
H3033 H 0.564 0.04706 0.5811 0.0
C3034 C 0.603 0.02388 0.63786 0.0
C3035 C 0.61354 0.00981 0.64074 0.0
C3036 C 0.61202 0.99331 0.62657 0.0
C3037 C 0.60079 0.9912 0.60944 0.0
C3038 C 0.59101 1.00558 0.60684 0.0
C3039 C 0.59183 0.02153 0.62072 0.0
C3040 C 0.58144 0.03576 0.61365 0.0
C3041 C 0.5643 0.03807 0.62491 0.0
C3042 C 0.5947 0.05508 0.61443 0.0
C3043 C 0.57544 0.02573 0.5933 0.0
C3044 C 0.58091 0.00823 0.58977 0.0
C3045 C 0.5789 0.99728 0.57154 0.0
C3046 C 0.57142 1.00454 0.55647 0.0
C3047 C 0.56595 0.02249 0.55977 0.0
C3048 C 0.56755 0.03302 0.57844 0.0
H3049 H 0.3246 0.32518 0.91872 0.0
H3050 H 0.26573 0.32415 0.92774 0.0
H3051 H 0.25726 0.31401 0.89316 0.0
H3052 H 0.32398 0.3435 0.87488 0.0
H3053 H 0.33969 0.32911 0.86394 0.0
H3054 H 0.34124 0.3359 0.88951 0.0
H3055 H 0.33689 0.30041 0.89289 0.0
H3056 H 0.33533 0.29351 0.86731 0.0
H3057 H 0.31668 0.28371 0.88055 0.0
H3058 H 0.25507 0.30511 0.8573 0.0
H3059 H 0.25925 0.29708 0.82304 0.0
H3060 H 0.31942 0.30315 0.83663 0.0
C3061 C 0.30992 0.32283 0.91344 0.0
C3062 C 0.29584 0.32538 0.92618 0.0
C3063 C 0.2768 0.322 0.9185 0.0
C3064 C 0.27183 0.31634 0.89879 0.0
C3065 C 0.286 0.31397 0.88669 0.0
C3066 C 0.30466 0.317 0.8937 0.0
C3067 C 0.3171 0.31338 0.87751 0.0
C3068 C 0.33134 0.33156 0.8764 0.0
C3069 C 0.32709 0.29676 0.8797 0.0
C3070 C 0.30255 0.30805 0.86032 0.0
C3071 C 0.2847 0.30853 0.86598 0.0
C3072 C 0.26899 0.30459 0.85273 0.0
C3073 C 0.27152 0.30006 0.83323 0.0
C3074 C 0.28965 0.29936 0.82695 0.0
C3075 C 0.30534 0.30337 0.84084 0.0
H3076 H 0.97044 0.06651 0.38566 0.0
H3077 H 0.9934 0.0247 0.34779 0.0
H3078 H 0.01041 0.01719 0.37531 0.0
H3079 H 0.01288 0.08283 0.41982 0.0
H3080 H 1.00023 0.08539 0.44083 0.0
H3081 H 0.98956 0.08818 0.41829 0.0
H3082 H 0.96095 0.06225 0.42119 0.0
H3083 H 0.97151 0.05944 0.44378 0.0
H3084 H 0.96461 0.0391 0.42482 0.0
H3085 H 0.02565 0.01329 0.40738 0.0
H3086 H 0.03725 0.01338 0.44038 0.0
H3087 H 1.00567 0.05716 0.4605 0.0
C3088 C 0.97901 0.05574 0.38302 0.0
C3089 C 0.98038 0.0466 0.36361 0.0
C3090 C 0.99202 0.03259 0.36173 0.0
C3091 C 1.00182 0.02799 0.3776 0.0
C3092 C 1.00032 0.03727 0.39614 0.0
C3093 C 0.98919 0.05091 0.39904 0.0
C3094 C 0.99027 0.0586 0.4208 0.0
C3095 C 0.99873 0.08003 0.42519 0.0
C3096 C 0.97067 0.05462 0.42808 0.0
C3097 C 1.00356 0.04712 0.42954 0.0
C3098 C 0.00911 0.03493 0.41483 0.0
C3099 C 0.02128 0.02284 0.41887 0.0
C3100 C 0.02791 0.02302 0.43802 0.0
C3101 C 0.02274 0.03518 0.45388 0.0
C3102 C 0.0102 0.04751 0.4492 0.0
H3103 H 0.2976 0.68322 0.64383 0.0
H3104 H 0.33916 0.71897 0.61728 0.0
H3105 H 0.33953 0.74579 0.6436 0.0
H3106 H 0.27133 0.71975 0.66044 0.0
H3107 H 0.26665 0.71155 0.6825 0.0
H3108 H 0.26982 0.69491 0.66174 0.0
H3109 H 0.29646 0.68455 0.6808 0.0
H3110 H 0.29332 0.70111 0.70163 0.0
H3111 H 0.31615 0.70232 0.6926 0.0
H3112 H 0.33552 0.7691 0.67314 0.0
H3113 H 0.32759 0.78661 0.70346 0.0
H3114 H 0.28798 0.73624 0.71053 0.0
C3115 C 0.30671 0.6967 0.64343 0.0
C3116 C 0.31847 0.69874 0.62834 0.0
C3117 C 0.33028 0.71671 0.62871 0.0
C3118 C 0.33049 0.73217 0.64358 0.0
C3119 C 0.31877 0.72965 0.65815 0.0
C3120 C 0.3071 0.71235 0.65822 0.0
C3121 C 0.29592 0.71343 0.67565 0.0
C3122 C 0.27467 0.70969 0.66972 0.0
C3123 C 0.30075 0.69953 0.68842 0.0
C3124 C 0.30306 0.73403 0.6853 0.0
C3125 C 0.31627 0.74313 0.675 0.0
C3126 C 0.32512 0.76211 0.68127 0.0
C3127 C 0.32049 0.77198 0.69854 0.0
C3128 C 0.30701 0.76298 0.70944 0.0
C3129 C 0.29816 0.74372 0.70252 0.0
H3130 H 0.62233 0.04956 0.81877 0.0
H3131 H 0.63602 0.99347 0.81703 0.0
H3132 H 0.61713 0.98894 0.84429 0.0
H3133 H 0.62418 0.06213 0.86975 0.0
H3134 H 0.60483 0.07461 0.86926 0.0
H3135 H 0.61947 0.07331 0.84971 0.0
H3136 H 0.58993 0.05869 0.82615 0.0
H3137 H 0.57521 0.05984 0.84565 0.0
H3138 H 0.57455 0.03744 0.83001 0.0
H3139 H 0.59636 0.99046 0.8714 0.0
H3140 H 0.57625 0.99839 0.89723 0.0
H3141 H 0.57659 0.05364 0.88118 0.0
C3142 C 0.62127 0.03629 0.82406 0.0
C3143 C 0.63059 0.02185 0.81582 0.0
C3144 C 0.62912 1.00479 0.8233 0.0
C3145 C 0.61834 1.00204 0.83867 0.0
C3146 C 0.60921 0.01652 0.84637 0.0
C3147 C 0.61065 0.03335 0.83939 0.0
C3148 C 0.59967 0.04678 0.85034 0.0
C3149 C 0.61282 0.0653 0.86036 0.0
C3150 C 0.58391 0.05092 0.83725 0.0
C3151 C 0.59176 0.03486 0.86455 0.0
C3152 C 0.59738 0.01744 0.86202 0.0
C3153 C 0.59192 1.00408 0.87357 0.0
C3154 C 0.58057 0.00874 0.88823 0.0
C3155 C 0.57485 0.02663 0.89122 0.0
C3156 C 0.58047 0.03974 0.87909 0.0
H3157 H 0.28955 0.3112 0.12221 0.0
H3158 H 0.32746 0.36575 0.14014 0.0
H3159 H 0.32706 0.36128 0.17354 0.0
H3160 H 0.26158 0.31448 0.16331 0.0
H3161 H 0.25915 0.28964 0.16498 0.0
H3162 H 0.26185 0.29699 0.14222 0.0
H3163 H 0.29066 0.28067 0.13797 0.0
H3164 H 0.28801 0.27323 0.1607 0.0
H3165 H 0.3101 0.28694 0.15619 0.0
H3166 H 0.32305 0.35137 0.20496 0.0
H3167 H 0.31668 0.33612 0.23271 0.0
H3168 H 0.28143 0.28715 0.19603 0.0
C3169 C 0.29768 0.32224 0.13319 0.0
C3170 C 0.3087 0.33883 0.12833 0.0
C3171 C 0.31919 0.3528 0.14325 0.0
C3172 C 0.31894 0.35045 0.16238 0.0
C3173 C 0.30815 0.33399 0.16665 0.0
C3174 C 0.29775 0.32003 0.15256 0.0
C3175 C 0.2878 0.30349 0.16131 0.0
C3176 C 0.26632 0.30101 0.15774 0.0
C3177 C 0.29455 0.28498 0.15358 0.0
C3178 C 0.29428 0.31038 0.18246 0.0
C3179 C 0.30595 0.32808 0.18507 0.0
C3180 C 0.31395 0.3375 0.20308 0.0
C3181 C 0.31021 0.32861 0.21884 0.0
C3182 C 0.29854 0.3103 0.2168 0.0
C3183 C 0.29032 0.30117 0.19823 0.0
H3184 H 0.16684 0.97723 0.992 0.0
H3185 H 0.20287 0.02156 0.03348 0.0
H3186 H 0.17552 0.03601 0.04164 0.0
H3187 H 0.1365 0.00729 0.97601 0.0
H3188 H 0.11527 0.98948 0.97353 0.0
H3189 H 0.13766 0.98235 0.97071 0.0
H3190 H 0.13149 0.9617 0.99682 0.0
H3191 H 0.1091 0.96883 0.99974 0.0
H3192 H 0.12618 0.97252 0.02001 0.0
H3193 H 0.1442 0.04632 0.04545 0.0
H3194 H 0.1116 0.05176 0.04426 0.0
H3195 H 0.09449 1.00079 1.00105 0.0
C3196 C 0.16904 0.98992 1.00289 0.0
C3197 C 0.18747 0.99822 0.01186 0.0
C3198 C 0.18931 0.01496 0.02594 0.0
C3199 C 0.1737 0.02327 0.03086 0.0
C3200 C 0.15593 0.01483 0.02173 0.0
C3201 C 0.15346 0.99851 0.00802 0.0
C3202 C 0.13272 0.99251 1.00033 0.0
C3203 C 0.13041 0.99293 0.97887 0.0
C3204 C 0.12438 0.97271 0.00447 0.0
C3205 C 0.12398 0.00797 0.01185 0.0
C3206 C 0.13772 0.02068 0.0241 0.0
C3207 C 0.13336 0.03639 0.03594 0.0
C3208 C 0.11466 0.03936 0.03516 0.0
C3209 C 0.10014 0.02672 0.0227 0.0
C3210 C 0.10502 0.01067 0.01097 0.0
H3211 H 0.69159 0.60285 0.01004 0.0
H3212 H 0.67339 0.64105 0.97512 0.0
H3213 H 0.64078 0.6236 0.97336 0.0
H3214 H 0.65905 0.55954 0.98504 0.0
H3215 H 0.65478 0.5501 0.00655 0.0
H3216 H 0.67704 0.56513 0.0047 0.0
H3217 H 0.67259 0.58785 0.03545 0.0
H3218 H 0.65034 0.5729 0.03739 0.0
H3219 H 0.65156 0.59786 0.03682 0.0
H3220 H 0.60987 0.60367 0.9769 0.0
H3221 H 0.58251 0.58172 0.98474 0.0
H3222 H 0.61977 0.55463 0.016 0.0
C3223 C 0.6808 0.60738 1.00178 0.0
C3224 C 0.68523 0.62359 0.9929 0.0
C3225 C 0.6705 0.62904 0.98243 0.0
C3226 C 0.65187 0.61908 0.98119 0.0
C3227 C 0.64798 0.60345 0.99032 0.0
C3228 C 0.66199 0.59748 1.00031 0.0
C3229 C 0.65372 0.58039 0.00912 0.0
C3230 C 0.66162 0.56274 1.00086 0.0
C3231 C 0.65727 0.58503 0.031 0.0
C3232 C 0.63288 0.57791 1.00273 0.0
C3233 C 0.62999 0.59144 0.9919 0.0
C3234 C 0.61199 0.59287 0.98517 0.0
C3235 C 0.5965 0.58033 0.98973 0.0
C3236 C 0.59894 0.56629 1.0008 0.0
C3237 C 0.61746 0.56493 0.00718 0.0
H3238 H 0.74971 0.42952 0.26998 0.0
H3239 H 0.69104 0.4015 0.26524 0.0
H3240 H 0.70072 0.3707 0.26415 0.0
H3241 H 0.76579 0.391 0.23785 0.0
H3242 H 0.78796 0.39307 0.25154 0.0
H3243 H 0.77691 0.41354 0.25225 0.0
H3244 H 0.77791 0.41765 0.2889 0.0
H3245 H 0.78898 0.3972 0.28828 0.0
H3246 H 0.76752 0.39794 0.2997 0.0
H3247 H 0.71675 0.34079 0.26347 0.0
H3248 H 0.7368 0.31669 0.26317 0.0
H3249 H 0.78641 0.36118 0.26789 0.0
C3250 C 0.73873 0.417 0.26868 0.0
C3251 C 0.71911 0.41916 0.26809 0.0
C3252 C 0.70597 0.40154 0.26633 0.0
C3253 C 0.71144 0.38345 0.2655 0.0
C3254 C 0.73052 0.38197 0.26633 0.0
C3255 C 0.74407 0.39836 0.26787 0.0
C3256 C 0.76369 0.39242 0.2685 0.0
C3257 C 0.77422 0.39784 0.25153 0.0
C3258 C 0.77522 0.40188 0.28747 0.0
C3259 C 0.75909 0.37035 0.26697 0.0
C3260 C 0.73973 0.36477 0.26577 0.0
C3261 C 0.73188 0.34532 0.26439 0.0
C3262 C 0.74364 0.33142 0.26423 0.0
C3263 C 0.76371 0.33611 0.26541 0.0
C3264 C 0.77132 0.35634 0.26681 0.0
H3265 H 0.89824 0.47995 0.52386 0.0
H3266 H 0.88369 0.52427 0.4949 0.0
H3267 H 0.91724 0.53763 0.49469 0.0
H3268 H 0.93858 0.51085 0.5542 0.0
H3269 H 0.95258 0.49256 0.55293 0.0
H3270 H 0.92725 0.48615 0.55107 0.0
H3271 H 0.92773 0.46391 0.51883 0.0
H3272 H 0.95304 0.47024 0.5206 0.0
H3273 H 0.9394 0.47339 0.49986 0.0
H3274 H 0.95239 0.54567 0.4959 0.0
H3275 H 0.98686 0.54846 0.49951 0.0
H3276 H 0.98038 0.50079 0.52964 0.0
C3277 C 0.90201 0.4926 0.51766 0.0
C3278 C 0.88783 0.50073 0.5091 0.0
C3279 C 0.89385 0.51724 0.50108 0.0
C3280 C 0.91305 0.52514 0.50105 0.0
C3281 C 0.92649 0.51669 0.50931 0.0
C3282 C 0.92131 0.50087 0.51764 0.0
C3283 C 0.93887 0.49465 0.52544 0.0
C3284 C 0.93934 0.49614 0.54721 0.0
C3285 C 0.93981 0.47434 0.51559 0.0
C3286 C 0.95466 0.50931 0.52001 0.0
C3287 C 0.94704 0.52182 0.51066 0.0
C3288 C 0.95847 0.53608 0.50339 0.0
C3289 C 0.9781 0.53756 0.50552 0.0
C3290 C 0.98648 0.52509 0.51507 0.0
C3291 C 0.9745 0.51083 0.52261 0.0
H3292 H 0.35757 0.10843 0.25929 0.0
H3293 H 0.32193 0.08713 0.30088 0.0
H3294 H 0.2998 0.10804 0.29425 0.0
H3295 H 0.35168 0.15664 0.27041 0.0
H3296 H 0.35169 0.1603 0.24604 0.0
H3297 H 0.36427 0.14323 0.25373 0.0
H3298 H 0.34556 0.11689 0.22686 0.0
H3299 H 0.33283 0.13387 0.21915 0.0
H3300 H 0.32019 0.11222 0.22525 0.0
H3301 H 0.28178 0.13151 0.28318 0.0
H3302 H 0.27037 0.15736 0.27015 0.0
H3303 H 0.31779 0.16284 0.23564 0.0
C3304 C 0.34502 0.10804 0.26688 0.0
C3305 C 0.3414 0.09615 0.28056 0.0
C3306 C 0.32502 0.09628 0.29046 0.0
C3307 C 0.31232 0.10797 0.28668 0.0
C3308 C 0.31626 0.11944 0.273 0.0
C3309 C 0.33227 0.11964 0.26335 0.0
C3310 C 0.33362 0.13374 0.24984 0.0
C3311 C 0.35136 0.1494 0.25534 0.0
C3312 C 0.333 0.12357 0.22904 0.0
C3313 C 0.31592 0.14155 0.25348 0.0
C3314 C 0.30599 0.13301 0.26675 0.0
C3315 C 0.28937 0.13822 0.27269 0.0
C3316 C 0.28293 0.1528 0.26512 0.0
C3317 C 0.29317 0.16205 0.25185 0.0
C3318 C 0.30971 0.15608 0.24581 0.0
H3319 H 0.3738 0.15078 0.5259 0.0
H3320 H 0.34327 0.1119 0.47651 0.0
H3321 H 0.36799 0.09248 0.47599 0.0
H3322 H 0.42027 0.14899 0.51146 0.0
H3323 H 0.43058 0.14989 0.53524 0.0
H3324 H 0.41049 0.16077 0.53175 0.0
H3325 H 0.39235 0.14056 0.55399 0.0
H3326 H 0.41239 0.12962 0.55755 0.0
H3327 H 0.38972 0.11498 0.54891 0.0
H3328 H 0.39603 0.07707 0.48092 0.0
H3329 H 0.42526 0.06697 0.49086 0.0
H3330 H 0.43774 0.11591 0.53695 0.0
C3331 C 0.37221 0.1381 0.51506 0.0
C3332 C 0.35653 0.13296 0.5012 0.0
C3333 C 0.35522 0.11636 0.48711 0.0
C3334 C 0.36915 0.10514 0.48677 0.0
C3335 C 0.3844 0.11065 0.50059 0.0
C3336 C 0.38603 0.12674 0.51447 0.0
C3337 C 0.4039 0.12957 0.5276 0.0
C3338 C 0.41709 0.14842 0.52643 0.0
C3339 C 0.39931 0.12862 0.54823 0.0
C3340 C 0.41204 0.11252 0.51898 0.0
C3341 C 0.40057 0.1018 0.5034 0.0
C3342 C 0.40515 0.08541 0.49307 0.0
C3343 C 0.42188 0.07985 0.49877 0.0
C3344 C 0.43394 0.09062 0.51468 0.0
C3345 C 0.4288 0.10718 0.52487 0.0
H3346 H 0.75092 0.63229 0.26956 0.0
H3347 H 0.69371 0.63943 0.27858 0.0
H3348 H 0.70293 0.67361 0.27821 0.0
H3349 H 0.77422 0.67802 0.29885 0.0
H3350 H 0.79255 0.68281 0.28329 0.0
H3351 H 0.78183 0.65855 0.28415 0.0
H3352 H 0.77337 0.65213 0.24774 0.0
H3353 H 0.78407 0.67637 0.24678 0.0
H3354 H 0.75995 0.6672 0.23743 0.0
H3355 H 0.7181 0.70832 0.27673 0.0
H3356 H 0.73761 0.73931 0.27453 0.0
H3357 H 0.78601 0.71224 0.26648 0.0
C3358 C 0.74023 0.64094 0.27141 0.0
C3359 C 0.72133 0.63231 0.27444 0.0
C3360 C 0.70826 0.64491 0.27675 0.0
C3361 C 0.71339 0.66468 0.27639 0.0
C3362 C 0.73191 0.6726 0.27367 0.0
C3363 C 0.74521 0.66112 0.2712 0.0
C3364 C 0.76423 0.67362 0.26862 0.0
C3365 C 0.77909 0.67322 0.28468 0.0
C3366 C 0.7708 0.66693 0.24897 0.0
C3367 C 0.75953 0.69376 0.26999 0.0
C3368 C 0.7407 0.69268 0.27286 0.0
C3369 C 0.73285 0.70914 0.2745 0.0
C3370 C 0.74421 0.72695 0.27321 0.0
C3371 C 0.7637 0.72896 0.27033 0.0
C3372 C 0.7713 0.71174 0.26873 0.0
H3373 H 0.83952 0.43171 0.7882 0.0
H3374 H 0.87351 0.43177 0.84014 0.0
H3375 H 0.85825 0.39825 0.83985 0.0
H3376 H 0.79651 0.4 0.79784 0.0
H3377 H 0.79193 0.38823 0.77326 0.0
H3378 H 0.8037 0.41283 0.77907 0.0
H3379 H 0.83143 0.40458 0.76001 0.0
H3380 H 0.81984 0.37998 0.75426 0.0
H3381 H 0.84338 0.38627 0.76594 0.0
H3382 H 0.84094 0.36433 0.83258 0.0
H3383 H 0.82385 0.332 0.81833 0.0
H3384 H 0.80217 0.35402 0.77034 0.0
C3385 C 0.84333 0.42479 0.79978 0.0
C3386 C 0.85739 0.43424 0.81438 0.0
C3387 C 0.8626 0.42466 0.82896 0.0
C3388 C 0.85399 0.40573 0.82892 0.0
C3389 C 0.84035 0.39666 0.81412 0.0
C3390 C 0.83507 0.40586 0.7998 0.0
C3391 C 0.82137 0.39246 0.78461 0.0
C3392 C 0.80224 0.39876 0.78365 0.0
C3393 C 0.8295 0.39072 0.76505 0.0
C3394 C 0.82004 0.37418 0.79242 0.0
C3395 C 0.83085 0.37695 0.80959 0.0
C3396 C 0.8323 0.362 0.81922 0.0
C3397 C 0.82255 0.3437 0.811 0.0
C3398 C 0.8117 0.3405 0.79321 0.0
C3399 C 0.81034 0.35601 0.78395 0.0
H3400 H 0.06559 0.8661 0.06768 0.0
H3401 H 0.04363 0.8741 0.12314 0.0
H3402 H 0.02812 0.89947 0.11414 0.0
H3403 H 0.07327 0.91656 0.06222 0.0
H3404 H 0.06637 0.91038 0.03697 0.0
H3405 H 0.07727 0.89448 0.04881 0.0
H3406 H 0.04882 0.8672 0.03597 0.0
H3407 H 0.03764 0.8831 0.02445 0.0
H3408 H 0.02543 0.8704 0.04118 0.0
H3409 H 0.01258 0.92189 0.09774 0.0
H3410 H 1.00059 0.94143 0.07621 0.0
H3411 H 0.03299 0.91823 0.03185 0.0
C3412 C 0.05778 0.87343 0.07804 0.0
C3413 C 0.05583 0.86823 0.0961 0.0
C3414 C 0.04552 0.87811 0.10931 0.0
C3415 C 0.03654 0.89241 0.10428 0.0
C3416 C 0.03818 0.8967 0.08606 0.0
C3417 C 0.0488 0.8877 0.07327 0.0
C3418 C 0.04784 0.89438 0.05437 0.0
C3419 C 0.06734 0.90456 0.05037 0.0
C3420 C 0.03943 0.87778 0.03804 0.0
C3421 C 0.03462 0.90818 0.05833 0.0
C3422 C 0.02923 0.90943 0.07668 0.0
C3423 C 0.01683 0.92114 0.08338 0.0
C3424 C 0.01005 0.93212 0.07106 0.0
C3425 C 0.01565 0.93119 0.05228 0.0
C3426 C 0.02803 0.91895 0.04594 0.0
H3427 H 0.92445 0.27781 0.80854 0.0
H3428 H 0.90829 0.22229 0.82431 0.0
H3429 H 0.87724 0.21808 0.80637 0.0
H3430 H 0.88332 0.29226 0.81554 0.0
H3431 H 0.88279 0.30489 0.79585 0.0
H3432 H 0.90493 0.30197 0.80637 0.0
H3433 H 0.91314 0.28605 0.77342 0.0
H3434 H 0.89102 0.28909 0.7627 0.0
H3435 H 0.897 0.26576 0.75986 0.0
H3436 H 0.8467 0.22238 0.79216 0.0
H3437 H 0.81885 0.23445 0.7817 0.0
H3438 H 0.85488 0.28687 0.77424 0.0
C3439 C 0.91466 0.26444 0.80754 0.0
C3440 C 0.91875 0.25031 0.81768 0.0
C3441 C 0.90536 0.23329 0.81664 0.0
C3442 C 0.88778 0.23072 0.80638 0.0
C3443 C 0.88391 0.24524 0.79711 0.0
C3444 C 0.89705 0.26169 0.79738 0.0
C3445 C 0.88866 0.27605 0.78821 0.0
C3446 C 0.89 0.29489 0.80234 0.0
C3447 C 0.89801 0.27943 0.76996 0.0
C3448 C 0.8685 0.26551 0.78362 0.0
C3449 C 0.86614 0.24765 0.78861 0.0
C3450 C 0.84843 0.23612 0.78774 0.0
C3451 C 0.83271 0.24314 0.78191 0.0
C3452 C 0.83482 0.26149 0.77702 0.0
C3453 C 0.85297 0.2726 0.77744 0.0
H3454 H 0.585 0.17181 0.60452 0.0
H3455 H 0.61712 0.20013 0.56427 0.0
H3456 H 0.62053 0.16896 0.54661 0.0
H3457 H 0.60771 0.12923 0.6017 0.0
H3458 H 0.58547 0.11365 0.60235 0.0
H3459 H 0.58947 0.13806 0.61461 0.0
H3460 H 0.55966 0.14328 0.59596 0.0
H3461 H 0.55556 0.11897 0.58377 0.0
H3462 H 0.55757 0.13803 0.57024 0.0
H3463 H 0.61671 0.13491 0.53067 0.0
H3464 H 0.60355 0.10133 0.51641 0.0
H3465 H 0.57156 0.09556 0.56537 0.0
C3466 C 0.59295 0.17158 0.59213 0.0
C3467 C 0.60085 0.18859 0.58594 0.0
C3468 C 0.61128 0.18745 0.56969 0.0
C3469 C 0.61328 0.16974 0.55948 0.0
C3470 C 0.60473 0.15328 0.56563 0.0
C3471 C 0.5947 0.15407 0.58155 0.0
C3472 C 0.58446 0.13449 0.58357 0.0
C3473 C 0.59225 0.12851 0.60163 0.0
C3474 C 0.56305 0.13365 0.58335 0.0
C3475 C 0.58953 0.12269 0.56577 0.0
C3476 C 0.60174 0.13366 0.55594 0.0
C3477 C 0.60739 0.12611 0.53839 0.0
C3478 C 0.59988 0.10703 0.53042 0.0
C3479 C 0.58655 0.09594 0.53981 0.0
C3480 C 0.58178 0.10374 0.55793 0.0
H3481 H 0.60828 0.81042 0.35283 0.0
H3482 H 0.58253 0.75057 0.33649 0.0
H3483 H 0.60952 0.74504 0.31796 0.0
H3484 H 0.62607 0.81613 0.30811 0.0
H3485 H 0.64739 0.83222 0.31869 0.0
H3486 H 0.62632 0.83115 0.33099 0.0
H3487 H 0.64422 0.82398 0.36061 0.0
H3488 H 0.66536 0.825 0.3484 0.0
H3489 H 0.65618 0.80406 0.35798 0.0
H3490 H 0.63893 0.74654 0.30031 0.0
H3491 H 0.6689 0.75471 0.28584 0.0
H3492 H 0.67475 0.81359 0.31392 0.0
C3493 C 0.60824 0.79616 0.34527 0.0
C3494 C 0.5933 0.78093 0.34598 0.0
C3495 C 0.59394 0.7624 0.3362 0.0
C3496 C 0.60914 0.75916 0.3256 0.0
C3497 C 0.62356 0.77458 0.32506 0.0
C3498 C 0.62325 0.79268 0.33471 0.0
C3499 C 0.64036 0.80688 0.33182 0.0
C3500 C 0.63469 0.82251 0.3218 0.0
C3501 C 0.65223 0.81548 0.35083 0.0
C3502 C 0.65036 0.79396 0.31894 0.0
C3503 C 0.64047 0.77539 0.31514 0.0
C3504 C 0.64682 0.76102 0.30324 0.0
C3505 C 0.66377 0.76579 0.29503 0.0
C3506 C 0.67412 0.78474 0.29886 0.0
C3507 C 0.66727 0.79893 0.31098 0.0
H3508 H 0.06283 0.22291 0.45901 0.0
H3509 H 0.02783 0.19639 0.40674 0.0
H3510 H 0.01679 0.1681 0.42101 0.0
H3511 H 0.07725 0.18057 0.46873 0.0
H3512 H 0.07681 0.18671 0.49421 0.0
H3513 H 0.08136 0.20524 0.48018 0.0
H3514 H 0.05362 0.21958 0.4939 0.0
H3515 H 0.04891 0.201 0.50788 0.0
H3516 H 0.03052 0.20476 0.49169 0.0
H3517 H 0.01066 0.14216 0.44015 0.0
H3518 H 0.00997 0.12006 0.46306 0.0
H3519 H 0.04867 0.16322 0.50314 0.0
C3520 C 0.05287 0.21113 0.45056 0.0
C3521 C 0.04612 0.21192 0.43177 0.0
C3522 C 0.03298 0.19625 0.42125 0.0
C3523 C 0.02667 0.18009 0.4292 0.0
C3524 C 0.03356 0.1798 0.44774 0.0
C3525 C 0.04636 0.19489 0.45831 0.0
C3526 C 0.05184 0.19073 0.47778 0.0
C3527 C 0.07307 0.19082 0.48037 0.0
C3528 C 0.04586 0.20486 0.49375 0.0
C3529 C 0.04032 0.17084 0.47638 0.0
C3530 C 0.02985 0.16486 0.45893 0.0
C3531 C 0.01868 0.14673 0.45392 0.0
C3532 C 0.0184 0.13428 0.46698 0.0
C3533 C 0.02918 0.14 0.48486 0.0
C3534 C 0.04006 0.15862 0.4897 0.0
H3535 H 0.59864 0.26477 0.20418 0.0
H3536 H 0.59544 0.32123 0.23411 0.0
H3537 H 0.62077 0.31922 0.25797 0.0
H3538 H 0.60957 0.24422 0.24537 0.0
H3539 H 0.62572 0.23111 0.23339 0.0
H3540 H 0.60611 0.23627 0.21989 0.0
H3541 H 0.62891 0.25262 0.19818 0.0
H3542 H 0.6485 0.24725 0.21142 0.0
H3543 H 0.64813 0.27152 0.2089 0.0
H3544 H 0.64774 0.31146 0.2776 0.0
H3545 H 0.67534 0.29988 0.28969 0.0
H3546 H 0.66158 0.2497 0.24503 0.0
C3547 C 0.6033 0.27683 0.21564 0.0
C3548 C 0.59509 0.29321 0.21719 0.0
C3549 C 0.60138 0.30844 0.23271 0.0
C3550 C 0.61576 0.30743 0.24633 0.0
C3551 C 0.62362 0.29109 0.24422 0.0
C3552 C 0.61766 0.27614 0.22917 0.0
C3553 C 0.62917 0.26073 0.22923 0.0
C3554 C 0.61691 0.24198 0.23215 0.0
C3555 C 0.63928 0.25788 0.21085 0.0
C3556 C 0.64289 0.26952 0.24645 0.0
C3557 C 0.6393 0.28686 0.25515 0.0
C3558 C 0.65064 0.29787 0.27092 0.0
C3559 C 0.66635 0.29121 0.27762 0.0
C3560 C 0.67073 0.27384 0.26836 0.0
C3561 C 0.6585 0.26277 0.25282 0.0
H3562 H 0.58666 0.90696 0.97787 0.0
H3563 H 0.58015 0.90945 0.91756 0.0
H3564 H 0.57028 0.9404 0.92527 0.0
H3565 H 0.54712 0.92678 0.9911 0.0
H3566 H 0.5581 0.94064 0.01358 0.0
H3567 H 0.56581 0.9191 1.00366 0.0
H3568 H 0.6 0.93785 0.00522 0.0
H3569 H 0.59242 0.95944 0.0153 0.0
H3570 H 0.60466 0.95851 0.99397 0.0
H3571 H 0.55837 0.96897 0.93877 0.0
H3572 H 0.54774 0.99594 0.95775 0.0
H3573 H 0.56339 0.9768 0.00988 0.0
C3574 C 0.58337 0.9142 0.96636 0.0
C3575 C 0.58432 0.90594 0.94713 0.0
C3576 C 0.57985 0.91571 0.9324 0.0
C3577 C 0.57411 0.93322 0.93661 0.0
C3578 C 0.57311 0.94087 0.95565 0.0
C3579 C 0.57785 0.9319 0.97035 0.0
C3580 C 0.57529 0.94333 0.98955 0.0
C3581 C 0.56071 0.93177 1.00009 0.0
C3582 C 0.59422 0.95019 1.00173 0.0
C3583 C 0.56797 0.95985 0.98325 0.0
C3584 C 0.56676 0.95799 0.9636 0.0
C3585 C 0.55948 0.97076 0.95418 0.0
C3586 C 0.55338 0.98597 0.96511 0.0
C3587 C 0.55482 0.98848 0.98529 0.0
C3588 C 0.5623 0.97529 0.99449 0.0
H3589 H 0.89764 0.75173 0.67917 0.0
H3590 H 0.94265 0.77712 0.72362 0.0
H3591 H 0.91951 0.77731 0.7477 0.0
H3592 H 0.86469 0.7782 0.69696 0.0
H3593 H 0.84461 0.75904 0.69051 0.0
H3594 H 0.8649 0.75928 0.67711 0.0
H3595 H 0.86737 0.72561 0.68359 0.0
H3596 H 0.84708 0.72531 0.69711 0.0
H3597 H 0.86889 0.72154 0.70782 0.0
H3598 H 0.89135 0.77742 0.76641 0.0
H3599 H 0.86004 0.77791 0.77826 0.0
H3600 H 0.83362 0.75144 0.72175 0.0
C3601 C 0.90266 0.75697 0.69402 0.0
C3602 C 0.9219 0.76446 0.69954 0.0
C3603 C 0.92791 0.77154 0.71906 0.0
C3604 C 0.91491 0.77154 0.73286 0.0
C3605 C 0.89601 0.76425 0.72692 0.0
C3606 C 0.88989 0.75704 0.70798 0.0
C3607 C 0.86868 0.75121 0.70517 0.0
C3608 C 0.86023 0.76262 0.69165 0.0
C3609 C 0.86266 0.72963 0.698 0.0
C3610 C 0.86381 0.75674 0.72542 0.0
C3611 C 0.87976 0.76407 0.73779 0.0
C3612 C 0.87874 0.77143 0.75694 0.0
C3613 C 0.86092 0.77167 0.76353 0.0
C3614 C 0.84441 0.7646 0.75097 0.0
C3615 C 0.84595 0.75664 0.7318 0.0
H3616 H 0.12764 0.04601 0.88614 0.0
H3617 H 0.08571 1.00078 0.85203 0.0
H3618 H 0.06677 0.99993 0.87934 0.0
H3619 H 0.12281 0.02821 0.93154 0.0
H3620 H 0.12535 0.05142 0.94627 0.0
H3621 H 0.13625 0.04877 0.92413 0.0
H3622 H 0.11903 0.07373 0.9129 0.0
H3623 H 0.10807 0.07643 0.93501 0.0
H3624 H 0.09376 0.07031 0.91258 0.0
H3625 H 0.05106 1.00344 0.91137 0.0
H3626 H 0.04087 0.0111 0.94365 0.0
H3627 H 0.09127 0.05465 0.95944 0.0
C3628 C 0.11447 0.03588 0.88422 0.0
C3629 C 0.10892 0.02316 0.86603 0.0
C3630 C 0.09127 0.01042 0.86517 0.0
C3631 C 0.08003 0.00991 0.8809 0.0
C3632 C 0.08597 0.02229 0.89833 0.0
C3633 C 0.10283 0.03513 0.90014 0.0
C3634 C 0.10571 0.04684 0.92074 0.0
C3635 C 0.1236 0.04363 0.93129 0.0
C3636 C 0.10671 0.0681 0.92028 0.0
C3637 C 0.08794 0.03867 0.9301 0.0
C3638 C 0.07681 0.02446 0.91674 0.0
C3639 C 0.05982 0.01461 0.92175 0.0
C3640 C 0.05403 0.01915 0.94046 0.0
C3641 C 0.06481 0.03366 0.95491 0.0
C3642 C 0.08224 0.04354 0.94922 0.0
H3643 H 0.80237 0.38591 0.58362 0.0
H3644 H 0.75163 0.40764 0.59669 0.0
H3645 H 0.74958 0.39191 0.62479 0.0
H3646 H 0.78851 0.34063 0.59739 0.0
H3647 H 0.8116 0.33995 0.60768 0.0
H3648 H 0.80916 0.35296 0.58857 0.0
H3649 H 0.82893 0.38352 0.60951 0.0
H3650 H 0.83149 0.37058 0.62867 0.0
H3651 H 0.82186 0.39202 0.6327 0.0
H3652 H 0.75271 0.37324 0.65132 0.0
H3653 H 0.76092 0.35339 0.67424 0.0
H3654 H 0.81052 0.34518 0.64489 0.0
C3655 C 0.79092 0.38756 0.59247 0.0
C3656 C 0.77709 0.39798 0.58774 0.0
C3657 C 0.76223 0.39949 0.59969 0.0
C3658 C 0.76101 0.3907 0.61581 0.0
C3659 C 0.7748 0.3805 0.61996 0.0
C3660 C 0.78952 0.37895 0.60868 0.0
C3661 C 0.80248 0.3671 0.61627 0.0
C3662 C 0.80295 0.34909 0.6016 0.0
C3663 C 0.82237 0.37902 0.62214 0.0
C3664 C 0.7927 0.36215 0.63352 0.0
C3665 C 0.77676 0.37002 0.6354 0.0
C3666 C 0.76526 0.36715 0.65007 0.0
C3667 C 0.77014 0.35593 0.66314 0.0
C3668 C 0.78645 0.3477 0.66156 0.0
C3669 C 0.79785 0.35102 0.6465 0.0
H3670 H 0.49383 0.03408 0.37375 0.0
H3671 H 0.46946 0.08448 0.38884 0.0
H3672 H 0.49112 0.09429 0.41809 0.0
H3673 H 0.4963 0.02328 0.41886 0.0
H3674 H 0.51817 0.01481 0.41736 0.0
H3675 H 0.50326 0.01351 0.39601 0.0
H3676 H 0.53094 0.03281 0.38172 0.0
H3677 H 0.54595 0.03422 0.40312 0.0
H3678 H 0.5429 0.0557 0.39475 0.0
H3679 H 0.5112 0.09593 0.44777 0.0
H3680 H 0.5285 0.08925 0.47588 0.0
H3681 H 0.5404 0.03812 0.44182 0.0
C3682 C 0.49325 0.04734 0.38305 0.0
C3683 C 0.48 0.05856 0.37892 0.0
C3684 C 0.47971 0.07582 0.39148 0.0
C3685 C 0.49194 0.0815 0.40817 0.0
C3686 C 0.50451 0.06988 0.41202 0.0
C3687 C 0.50535 0.05321 0.39978 0.0
C3688 C 0.51876 0.04232 0.40817 0.0
C3689 C 0.50851 0.02231 0.41023 0.0
C3690 C 0.53564 0.0412 0.39623 0.0
C3691 C 0.52468 0.05504 0.42742 0.0
C3692 C 0.5165 0.07102 0.42922 0.0
C3693 C 0.5181 0.08378 0.44639 0.0
C3694 C 0.52791 0.07987 0.46227 0.0
C3695 C 0.53604 0.06341 0.46081 0.0
C3696 C 0.53486 0.05115 0.44306 0.0
H3697 H 0.80811 0.72952 0.11896 0.0
H3698 H 0.7702 0.76314 0.09816 0.0
H3699 H 0.76802 0.77867 0.13118 0.0
H3700 H 0.78483 0.72163 0.16094 0.0
H3701 H 0.80623 0.72355 0.17587 0.0
H3702 H 0.80548 0.71544 0.15052 0.0
H3703 H 0.83393 0.74212 0.14865 0.0
H3704 H 0.83476 0.75032 0.174 0.0
H3705 H 0.83277 0.76657 0.15776 0.0
H3706 H 0.76876 0.78986 0.16675 0.0
H3707 H 0.77294 0.79632 0.20188 0.0
H3708 H 0.81055 0.75586 0.2005 0.0
C3709 C 0.79933 0.74013 0.12129 0.0
C3710 C 0.78942 0.74508 0.10562 0.0
C3711 C 0.77824 0.75922 0.10961 0.0
C3712 C 0.77679 0.76808 0.12844 0.0
C3713 C 0.78664 0.76283 0.14343 0.0
C3714 C 0.79778 0.74924 0.1401 0.0
C3715 C 0.80676 0.74616 0.1589 0.0
C3716 C 0.80044 0.72547 0.16172 0.0
C3717 C 0.82834 0.75162 0.15988 0.0
C3718 C 0.79878 0.75997 0.17329 0.0
C3719 C 0.7872 0.76942 0.164 0.0
C3720 C 0.77788 0.78258 0.17413 0.0
C3721 C 0.78034 0.78615 0.1942 0.0
C3722 C 0.79213 0.77671 0.20423 0.0
C3723 C 0.80154 0.76348 0.19344 0.0
H3724 H 0.1102 0.04561 0.66325 0.0
H3725 H 0.1127 0.98541 0.65281 0.0
H3726 H 0.09796 0.98224 0.62039 0.0
H3727 H 0.06461 0.04065 0.63522 0.0
H3728 H 0.07105 0.06209 0.62551 0.0
H3729 H 0.08188 0.06025 0.64832 0.0
H3730 H 0.11473 0.06798 0.63618 0.0
H3731 H 0.104 0.06986 0.61333 0.0
H3732 H 0.12004 0.05371 0.6147 0.0
H3733 H 0.08282 0.98485 0.5877 0.0
H3734 H 0.06886 0.99284 0.55871 0.0
H3735 H 0.07454 0.05157 0.58727 0.0
C3736 C 0.10773 0.03169 0.65423 0.0
C3737 C 0.11279 0.01567 0.66169 0.0
C3738 C 0.10891 0.99799 0.6486 0.0
C3739 C 0.10052 0.99602 0.6297 0.0
C3740 C 0.09563 0.01179 0.62306 0.0
C3741 C 0.09906 0.02938 0.63493 0.0
C3742 C 0.09219 0.04392 0.62381 0.0
C3743 C 0.07651 0.05223 0.63382 0.0
C3744 C 0.10872 0.05982 0.6219 0.0
C3745 C 0.08445 0.03181 0.60398 0.0
C3746 C 0.08674 0.0133 0.60407 0.0
C3747 C 0.08104 0.99935 0.58769 0.0
C3748 C 0.07298 1.00416 0.57098 0.0
C3749 C 0.07016 0.02293 0.56984 0.0
C3750 C 0.07612 0.03698 0.58705 0.0
H3751 H 0.79437 0.3915 0.39273 0.0
H3752 H 0.76459 0.35064 0.42396 0.0
H3753 H 0.76555 0.32465 0.3972 0.0
H3754 H 0.77115 0.36864 0.34578 0.0
H3755 H 0.79205 0.37389 0.33359 0.0
H3756 H 0.7889 0.38946 0.35515 0.0
H3757 H 0.82089 0.38534 0.37026 0.0
H3758 H 0.82407 0.36967 0.3488 0.0
H3759 H 0.82495 0.36171 0.37139 0.0
H3760 H 0.76974 0.30271 0.36698 0.0
H3761 H 0.77642 0.28676 0.33543 0.0
H3762 H 0.80353 0.34142 0.32333 0.0
C3763 C 0.78788 0.37712 0.39389 0.0
C3764 C 0.77953 0.37325 0.41071 0.0
C3765 C 0.77139 0.3541 0.41153 0.0
C3766 C 0.77176 0.33917 0.3963 0.0
C3767 C 0.78031 0.34343 0.38012 0.0
C3768 C 0.78816 0.36195 0.37875 0.0
C3769 C 0.79655 0.36254 0.35972 0.0
C3770 C 0.78656 0.37433 0.34786 0.0
C3771 C 0.81788 0.37027 0.36273 0.0
C3772 C 0.79224 0.3415 0.35069 0.0
C3773 C 0.78281 0.33075 0.36271 0.0
C3774 C 0.77715 0.31101 0.35748 0.0
C3775 C 0.78105 0.30204 0.33949 0.0
C3776 C 0.79064 0.3127 0.3268 0.0
C3777 C 0.79635 0.33274 0.33267 0.0
H3778 H 0.47299 0.02836 0.21147 0.0
H3779 H 0.42331 0.98713 0.18556 0.0
H3780 H 0.43688 0.98486 0.15448 0.0
H3781 H 0.48061 0.05253 0.17247 0.0
H3782 H 0.5059 0.05585 0.17565 0.0
H3783 H 0.49228 0.05419 0.19584 0.0
H3784 H 0.50762 0.02627 0.20333 0.0
H3785 H 0.52134 0.02788 0.18319 0.0
H3786 H 0.50652 1.00558 0.18505 0.0
H3787 H 0.45557 0.98774 0.12612 0.0
H3788 H 0.47854 0.99477 0.10271 0.0
H3789 H 0.51636 0.03306 0.14762 0.0
C3790 C 0.46505 0.01861 0.19936 0.0
C3791 C 0.44706 0.00793 0.20097 0.0
C3792 C 0.437 0.99567 0.18463 0.0
C3793 C 0.44464 0.99418 0.16695 0.0
C3794 C 0.46238 1.00496 0.16589 0.0
C3795 C 0.4725 0.01684 0.18169 0.0
C3796 C 0.49125 0.02692 0.17677 0.0
C3797 C 0.49257 0.04866 0.1804 0.0
C3798 C 0.50765 0.02132 0.18773 0.0
C3799 C 0.49007 0.01891 0.15569 0.0
C3800 C 0.47328 1.00632 0.14967 0.0
C3801 C 0.4688 0.99749 0.13068 0.0
C3802 C 0.48186 1.00163 0.1175 0.0
C3803 C 0.49919 0.0144 0.12343 0.0
C3804 C 0.50331 0.02307 0.14278 0.0
H3805 H 0.78258 0.75221 0.90869 0.0
H3806 H 0.80586 0.70084 0.89615 0.0
H3807 H 0.80938 0.70609 0.86323 0.0
H3808 H 0.75667 0.74706 0.86202 0.0
H3809 H 0.76172 0.77216 0.86118 0.0
H3810 H 0.76051 0.76435 0.88384 0.0
H3811 H 0.79404 0.78382 0.89479 0.0
H3812 H 0.79534 0.79159 0.87212 0.0
H3813 H 0.81317 0.77976 0.88053 0.0
H3814 H 0.80985 0.71611 0.83123 0.0
H3815 H 0.80845 0.731 0.80269 0.0
H3816 H 0.78627 0.77708 0.83495 0.0
C3817 C 0.78834 0.74203 0.89899 0.0
C3818 C 0.79406 0.7261 0.90531 0.0
C3819 C 0.80163 0.71327 0.892 0.0
C3820 C 0.80359 0.71608 0.87312 0.0
C3821 C 0.79805 0.73191 0.86744 0.0
C3822 C 0.79064 0.74476 0.87995 0.0
C3823 C 0.7862 0.7608 0.87002 0.0
C3824 C 0.76502 0.7611 0.86922 0.0
C3825 C 0.79788 0.78014 0.87996 0.0
C3826 C 0.79228 0.75491 0.85009 0.0
C3827 C 0.7989 0.73807 0.84896 0.0
C3828 C 0.80481 0.72937 0.83201 0.0
C3829 C 0.80394 0.73797 0.81579 0.0
C3830 C 0.79744 0.75537 0.81641 0.0
C3831 C 0.7916 0.76396 0.83396 0.0
H3832 H 0.90082 0.06054 0.02507 0.0
H3833 H 0.91452 0.11831 0.01404 0.0
H3834 H 0.94663 0.11385 0.00786 0.0
H3835 H 0.94627 0.06081 0.04933 0.0
H3836 H 0.94698 0.03641 0.03946 0.0
H3837 H 0.92466 0.04365 0.04253 0.0
H3838 H 0.9143 0.03089 0.00675 0.0
H3839 H 0.9366 0.02364 1.00358 0.0
H3840 H 0.92878 0.03932 0.98904 0.0
H3841 H 0.97782 0.10369 1.00316 0.0
H3842 H 1.00577 0.08884 1.00104 0.0
H3843 H 0.97353 0.03731 0.0153 0.0
C3844 C 0.91053 0.07221 0.02121 0.0
C3845 C 0.90484 0.08992 0.02024 0.0
C3846 C 0.91829 0.10473 0.01525 0.0
C3847 C 0.93667 0.10229 0.01157 0.0
C3848 C 0.94186 0.08489 0.01287 0.0
C3849 C 0.92923 0.07006 0.01762 0.0
C3850 C 0.93883 0.053 0.01847 0.0
C3851 C 0.93921 0.04818 0.03865 0.0
C3852 C 0.92904 0.03568 1.00358 0.0
C3853 C 0.95873 0.06058 0.01348 0.0
C3854 C 0.96003 0.07902 0.01024 0.0
C3855 C 0.97688 0.08923 0.00562 0.0
C3856 C 0.9928 0.08057 0.00441 0.0
C3857 C 0.99217 0.06172 0.00783 0.0
C3858 C 0.97467 0.05162 0.01237 0.0
H3859 H 0.42244 0.43174 0.01387 0.0
H3860 H 0.40707 0.46009 0.06759 0.0
H3861 H 0.4364 0.48405 0.07072 0.0
H3862 H 0.47302 0.43977 0.02758 0.0
H3863 H 0.47926 0.44358 1.00424 0.0
H3864 H 0.45736 0.42834 0.00674 0.0
H3865 H 0.43959 0.44886 0.98834 0.0
H3866 H 0.46154 0.46424 0.98623 0.0
H3867 H 0.44274 0.47414 0.99699 0.0
H3868 H 0.46682 0.50576 0.06761 0.0
H3869 H 0.49663 0.52315 0.05892 0.0
H3870 H 0.49297 0.48084 0.00736 0.0
C3871 C 0.42524 0.44299 0.0263 0.0
C3872 C 0.41237 0.44389 0.04055 0.0
C3873 C 0.41673 0.45882 0.05662 0.0
C3874 C 0.43335 0.4726 0.05849 0.0
C3875 C 0.44567 0.47131 0.04422 0.0
C3876 C 0.4419 0.45684 0.02847 0.0
C3877 C 0.45753 0.45886 0.01516 0.0
C3878 C 0.46737 0.44161 0.01334 0.0
C3879 C 0.44989 0.4617 0.99552 0.0
C3880 C 0.47054 0.47683 0.02581 0.0
C3881 C 0.46338 0.48376 0.04252 0.0
C3882 C 0.4726 0.5004 0.0546 0.0
C3883 C 0.48956 0.51022 0.0495 0.0
C3884 C 0.49729 0.50343 0.03247 0.0
C3885 C 0.48758 0.48641 0.02054 0.0
H3886 H 0.34226 0.64493 0.75935 0.0
H3887 H 0.39888 0.67402 0.7817 0.0
H3888 H 0.38895 0.7046 0.78366 0.0
H3889 H 0.33192 0.68151 0.73163 0.0
H3890 H 0.3078 0.67996 0.73716 0.0
H3891 H 0.31891 0.65955 0.73675 0.0
H3892 H 0.31074 0.65764 0.77114 0.0
H3893 H 0.29959 0.67803 0.77163 0.0
H3894 H 0.3181 0.67829 0.78968 0.0
H3895 H 0.37323 0.73426 0.78316 0.0
H3896 H 0.35354 0.75831 0.78135 0.0
H3897 H 0.30518 0.71326 0.7609 0.0
C3898 C 0.35275 0.65762 0.76469 0.0
C3899 C 0.37203 0.65577 0.76986 0.0
C3900 C 0.38443 0.67365 0.77685 0.0
C3901 C 0.37875 0.69168 0.77827 0.0
C3902 C 0.36013 0.69286 0.77292 0.0
C3903 C 0.34717 0.67624 0.76634 0.0
C3904 C 0.32787 0.68199 0.76185 0.0
C3905 C 0.32122 0.67535 0.74058 0.0
C3906 C 0.31319 0.67347 0.77431 0.0
C3907 C 0.332 0.7042 0.76697 0.0
C3908 C 0.35089 0.70999 0.77321 0.0
C3909 C 0.35844 0.72958 0.77838 0.0
C3910 C 0.34687 0.74345 0.77729 0.0
C3911 C 0.32722 0.73862 0.77119 0.0
C3912 C 0.31988 0.71821 0.76593 0.0
H3913 H 0.19969 0.56883 0.54601 0.0
H3914 H 0.20708 0.58177 0.48935 0.0
H3915 H 0.17291 0.57267 0.48114 0.0
H3916 H 0.16087 0.5274 0.53097 0.0
H3917 H 0.14829 0.53275 0.55165 0.0
H3918 H 0.17357 0.53972 0.5533 0.0
H3919 H 0.17094 0.57465 0.56587 0.0
H3920 H 0.14567 0.5678 0.56421 0.0
H3921 H 0.15653 0.5863 0.5521 0.0
H3922 H 0.13796 0.56366 0.47896 0.0
H3923 H 0.1043 0.55435 0.48257 0.0
H3924 H 0.11755 0.54592 0.54028 0.0
C3925 C 0.19413 0.56953 0.53181 0.0
C3926 C 0.20637 0.57632 0.51843 0.0
C3927 C 0.19826 0.57705 0.50005 0.0
C3928 C 0.17875 0.57178 0.49517 0.0
C3929 C 0.16714 0.56559 0.50869 0.0
C3930 C 0.17443 0.56428 0.52662 0.0
C3931 C 0.15845 0.55739 0.53843 0.0
C3932 C 0.16042 0.53817 0.54392 0.0
C3933 C 0.15787 0.57243 0.55621 0.0
C3934 C 0.14114 0.55519 0.52436 0.0
C3935 C 0.14665 0.56004 0.50732 0.0
C3936 C 0.13351 0.55973 0.49221 0.0
C3937 C 0.11426 0.5544 0.49446 0.0
C3938 C 0.10792 0.54925 0.51169 0.0
C3939 C 0.12174 0.54958 0.52684 0.0
H3940 H 0.76606 0.97166 0.75701 0.0
H3941 H 0.74075 0.94244 0.70086 0.0
H3942 H 0.76001 0.91785 0.70206 0.0
H3943 H 0.81325 0.95959 0.75256 0.0
H3944 H 0.81549 0.95612 0.77695 0.0
H3945 H 0.80194 0.97303 0.77049 0.0
H3946 H 0.77301 0.95592 0.78486 0.0
H3947 H 0.78644 0.93901 0.79135 0.0
H3948 H 0.7645 0.93075 0.77666 0.0
H3949 H 0.77908 0.89462 0.71075 0.0
H3950 H 0.79567 0.87392 0.72668 0.0
H3951 H 0.80831 0.91789 0.77746 0.0
C3952 C 0.76465 0.9602 0.74487 0.0
C3953 C 0.75193 0.9591 0.72879 0.0
C3954 C 0.75064 0.94387 0.71318 0.0
C3955 C 0.7615 0.92977 0.71375 0.0
C3956 C 0.7736 0.93111 0.72998 0.0
C3957 C 0.77526 0.94595 0.74525 0.0
C3958 C 0.78797 0.94317 0.7617 0.0
C3959 C 0.80572 0.95892 0.76565 0.0
C3960 C 0.77734 0.94215 0.77969 0.0
C3961 C 0.79266 0.9241 0.75354 0.0
C3962 C 0.78451 0.91756 0.7351 0.0
C3963 C 0.78583 0.89973 0.72505 0.0
C3964 C 0.7954 0.88812 0.73421 0.0
C3965 C 0.80344 0.89432 0.75331 0.0
C3966 C 0.80234 0.91274 0.76287 0.0
H3967 H 0.72055 0.9274 0.50124 0.0
H3968 H 0.73432 0.94927 0.56179 0.0
H3969 H 0.70895 0.96779 0.56156 0.0
H3970 H 0.71 0.97096 0.48871 0.0
H3971 H 0.69082 0.95896 0.47128 0.0
H3972 H 0.71 0.94723 0.47614 0.0
H3973 H 0.6864 0.91874 0.48382 0.0
H3974 H 0.66715 0.93039 0.47901 0.0
H3975 H 0.67027 0.92298 0.50167 0.0
H3976 H 0.68225 0.98425 0.55487 0.0
H3977 H 0.65617 0.9975 0.54218 0.0
H3978 H 0.65919 0.96492 0.48594 0.0
C3979 C 0.71834 0.93619 0.51443 0.0
C3980 C 0.72947 0.93673 0.53158 0.0
C3981 C 0.72587 0.9483 0.54853 0.0
C3982 C 0.71153 0.959 0.54854 0.0
C3983 C 0.70081 0.95806 0.53146 0.0
C3984 C 0.70401 0.94696 0.51471 0.0
C3985 C 0.69035 0.94847 0.49834 0.0
C3986 C 0.70093 0.95691 0.4827 0.0
C3987 C 0.6778 0.92898 0.49023 0.0
C3988 C 0.67904 0.9622 0.5085 0.0
C3989 C 0.68532 0.96752 0.52761 0.0
C3990 C 0.67716 0.9801 0.53994 0.0
C3991 C 0.6622 0.98745 0.53259 0.0
C3992 C 0.6554 0.98223 0.51304 0.0
C3993 C 0.66406 0.96939 0.5009 0.0
H3994 H 0.33958 0.44206 0.75974 0.0
H3995 H 0.39843 0.43787 0.7674 0.0
H3996 H 0.38911 0.40386 0.76836 0.0
H3997 H 0.32219 0.40823 0.7907 0.0
H3998 H 0.30078 0.39744 0.77584 0.0
H3999 H 0.31161 0.42181 0.7756 0.0
H4000 H 0.31272 0.41375 0.73913 0.0
H4001 H 0.30188 0.38936 0.73926 0.0
H4002 H 0.32405 0.39462 0.72916 0.0
H4003 H 0.37381 0.36917 0.76865 0.0
H4004 H 0.35413 0.33772 0.76828 0.0
H4005 H 0.30397 0.36142 0.76029 0.0
C4006 C 0.35059 0.43406 0.76156 0.0
C4007 C 0.37008 0.44365 0.76384 0.0
C4008 C 0.38354 0.43187 0.76614 0.0
C4009 C 0.37833 0.41213 0.76655 0.0
C4010 C 0.3593 0.40338 0.76457 0.0
C4011 C 0.34555 0.41392 0.76208 0.0
C4012 C 0.32607 0.40059 0.76038 0.0
C4013 C 0.31447 0.40743 0.77659 0.0
C4014 C 0.31555 0.39952 0.74082 0.0
C4015 C 0.33105 0.38107 0.76234 0.0
C4016 C 0.35041 0.3832 0.7647 0.0
C4017 C 0.35865 0.36752 0.7668 0.0
C4018 C 0.34715 0.34942 0.76656 0.0
C4019 C 0.32712 0.3463 0.76425 0.0
C4020 C 0.3191 0.36275 0.76209 0.0
H4021 H 0.23214 0.64775 0.2113 0.0
H4022 H 0.27464 0.62652 0.24235 0.0
H4023 H 0.29443 0.65866 0.24894 0.0
H4024 H 0.26463 0.68544 0.1927 0.0
H4025 H 0.24854 0.70172 0.19642 0.0
H4026 H 0.23962 0.67639 0.19056 0.0
H4027 H 0.22144 0.67822 0.22087 0.0
H4028 H 0.23027 0.70345 0.22678 0.0
H4029 H 0.23411 0.68842 0.24379 0.0
H4030 H 0.30721 0.69373 0.25662 0.0
H4031 H 0.31133 0.72891 0.26524 0.0
H4032 H 0.25999 0.72732 0.23052 0.0
C4033 C 0.24575 0.64975 0.21922 0.0
C4034 C 0.25184 0.63454 0.22622 0.0
C4035 C 0.26979 0.63781 0.23648 0.0
C4036 C 0.28113 0.65607 0.24034 0.0
C4037 C 0.27439 0.67087 0.23378 0.0
C4038 C 0.25712 0.66788 0.22336 0.0
C4039 C 0.252 0.68646 0.21999 0.0
C4040 C 0.25116 0.68756 0.19864 0.0
C4041 C 0.23336 0.6893 0.22837 0.0
C4042 C 0.26862 0.70044 0.23095 0.0
C4043 C 0.28164 0.69118 0.23842 0.0
C4044 C 0.29737 0.70114 0.25047 0.0
C4045 C 0.29963 0.72103 0.25528 0.0
C4046 C 0.28614 0.73052 0.24814 0.0
C4047 C 0.27068 0.72021 0.23564 0.0
H4048 H 0.50752 0.72467 0.47966 0.0
H4049 H 0.49929 0.70112 0.4191 0.0
H4050 H 0.50859 0.67159 0.42556 0.0
H4051 H 0.54822 0.70833 0.48897 0.0
H4052 H 0.54317 0.70265 0.51202 0.0
H4053 H 0.53308 0.72087 0.50329 0.0
H4054 H 0.49953 0.70331 0.50744 0.0
H4055 H 0.50953 0.6852 0.51657 0.0
H4056 H 0.49196 0.67861 0.49651 0.0
H4057 H 0.52332 0.64704 0.43777 0.0
H4058 H 0.53919 0.62711 0.45549 0.0
H4059 H 0.53686 0.66584 0.50841 0.0
C4060 C 0.50722 0.71309 0.46784 0.0
C4061 C 0.50253 0.71511 0.44891 0.0
C4062 C 0.50244 0.69973 0.43376 0.0
C4063 C 0.50785 0.68296 0.43726 0.0
C4064 C 0.51311 0.68173 0.45599 0.0
C4065 C 0.5125 0.6962 0.47109 0.0
C4066 C 0.51991 0.69168 0.48972 0.0
C4067 C 0.53712 0.70678 0.49904 0.0
C4068 C 0.5043 0.68957 0.50337 0.0
C4069 C 0.5254 0.67274 0.48261 0.0
C4070 C 0.52131 0.66725 0.46313 0.0
C4071 C 0.52616 0.65091 0.45311 0.0
C4072 C 0.53515 0.63966 0.46333 0.0
C4073 C 0.53908 0.64472 0.48342 0.0
C4074 C 0.53415 0.66157 0.49309 0.0
H4075 H 0.68223 0.32496 0.68916 0.0
H4076 H 0.64088 0.31694 0.73013 0.0
H4077 H 0.66619 0.31663 0.75467 0.0
H4078 H 0.70625 0.29213 0.70048 0.0
H4079 H 0.72939 0.3045 0.69715 0.0
H4080 H 0.70907 0.30899 0.68443 0.0
H4081 H 0.71871 0.34509 0.69831 0.0
H4082 H 0.73925 0.34068 0.71095 0.0
H4083 H 0.72293 0.35291 0.72377 0.0
H4084 H 0.69513 0.31145 0.77289 0.0
H4085 H 0.72485 0.30189 0.78278 0.0
H4086 H 0.74649 0.31204 0.72921 0.0
C4087 C 0.67857 0.3237 0.70346 0.0
C4088 C 0.65964 0.32107 0.70778 0.0
C4089 C 0.65535 0.31934 0.7266 0.0
C4090 C 0.66964 0.31908 0.74062 0.0
C4091 C 0.6881 0.32075 0.73561 0.0
C4092 C 0.6926 0.32325 0.71749 0.0
C4093 C 0.71291 0.3221 0.71479 0.0
C4094 C 0.71448 0.30597 0.69825 0.0
C4095 C 0.72411 0.34135 0.71179 0.0
C4096 C 0.71889 0.31759 0.73385 0.0
C4097 C 0.7046 0.3173 0.74589 0.0
C4098 C 0.70654 0.31199 0.76372 0.0
C4099 C 0.72341 0.30655 0.76922 0.0
C4100 C 0.73786 0.30614 0.75671 0.0
C4101 C 0.73565 0.31217 0.73906 0.0
H4102 H 1.00169 0.3896 0.93897 0.0
H4103 H 0.05789 0.38332 0.92435 0.0
H4104 H 0.06986 0.41704 0.93808 0.0
H4105 H 1.00533 0.43829 0.9285 0.0
H4106 H 0.99206 0.44585 0.948 0.0
H4107 H 0.98746 0.42125 0.9363 0.0
H4108 H 0.99322 0.4109 0.96881 0.0
H4109 H 0.99797 0.43545 0.9806 0.0
H4110 H 0.01515 0.42069 0.98316 0.0
H4111 H 0.07645 0.44984 0.95528 0.0
H4112 H 0.07729 0.48184 0.97338 0.0
H4113 H 0.01667 0.46882 0.97571 0.0
C4114 C 0.01644 0.39543 0.9384 0.0
C4115 C 0.02892 0.38374 0.93084 0.0
C4116 C 0.04815 0.39186 0.93047 0.0
C4117 C 0.05507 0.41103 0.93809 0.0
C4118 C 0.04254 0.42202 0.94579 0.0
C4119 C 0.02361 0.4147 0.94584 0.0
C4120 C 0.0134 0.42979 0.95541 0.0
C4121 C 0.99869 0.43405 0.9412 0.0
C4122 C 1.00441 0.42385 0.97304 0.0
C4123 C 0.0297 0.44657 0.96103 0.0
C4124 C 0.04632 0.44159 0.95532 0.0
C4125 C 0.06353 0.45404 0.95963 0.0
C4126 C 0.06384 0.47216 0.97005 0.0
C4127 C 0.04703 0.4778 0.97593 0.0
C4128 C 0.02967 0.4649 0.97121 0.0
H4129 H 0.96869 0.77593 0.16193 0.0
H4130 H 0.96662 0.715 0.14736 0.0
H4131 H 0.93752 0.70911 0.16372 0.0
H4132 H 0.95529 0.77648 0.20744 0.0
H4133 H 0.94134 0.79467 0.20712 0.0
H4134 H 0.96055 0.79398 0.19231 0.0
H4135 H 0.93794 0.79233 0.16236 0.0
H4136 H 0.91863 0.79317 0.17712 0.0
H4137 H 0.91709 0.77393 0.15718 0.0
H4138 H 0.91084 0.71016 0.18459 0.0
H4139 H 0.88802 0.71805 0.20773 0.0
H4140 H 0.90749 0.77824 0.20785 0.0
C4141 C 0.96179 0.76132 0.16162 0.0
C4142 C 0.96981 0.74591 0.15328 0.0
C4143 C 0.96072 0.72701 0.15375 0.0
C4144 C 0.94415 0.72353 0.16289 0.0
C4145 C 0.93684 0.73911 0.17131 0.0
C4146 C 0.94529 0.75762 0.1706 0.0
C4147 C 0.93549 0.77192 0.18193 0.0
C4148 C 0.94897 0.78502 0.19816 0.0
C4149 C 0.92677 0.78352 0.16886 0.0
C4150 C 0.92049 0.75858 0.18958 0.0
C4151 C 0.9214 0.7397 0.1832 0.0
C4152 C 0.90979 0.72486 0.18944 0.0
C4153 C 0.897 0.72947 0.20265 0.0
C4154 C 0.89598 0.74873 0.2094 0.0
C4155 C 0.90773 0.76339 0.20258 0.0
H4156 H 0.53527 0.35606 0.08618 0.0
H4157 H 0.47562 0.33685 0.06861 0.0
H4158 H 0.47805 0.3583 0.045 0.0
H4159 H 0.53658 0.40509 0.08338 0.0
H4160 H 0.55964 0.4085 0.07479 0.0
H4161 H 0.55328 0.39098 0.08963 0.0
H4162 H 0.56163 0.36496 0.0637 0.0
H4163 H 0.56786 0.38239 0.0487 0.0
H4164 H 0.55048 0.36116 0.03979 0.0
H4165 H 0.48681 0.38245 0.02389 0.0
H4166 H 0.50099 0.40832 0.0076 0.0
H4167 H 0.55466 0.41245 0.03978 0.0
C4168 C 0.52266 0.35644 0.07749 0.0
C4169 C 0.50524 0.34472 0.07926 0.0
C4170 C 0.48917 0.34549 0.06736 0.0
C4171 C 0.49039 0.35767 0.05395 0.0
C4172 C 0.50778 0.369 0.05259 0.0
C4173 C 0.52361 0.36854 0.06409 0.0
C4174 C 0.54049 0.38254 0.06017 0.0
C4175 C 0.54793 0.39767 0.07805 0.0
C4176 C 0.55603 0.37214 0.05264 0.0
C4177 C 0.53165 0.3911 0.04479 0.0
C4178 C 0.5128 0.383 0.04053 0.0
C4179 C 0.50156 0.38888 0.02709 0.0
C4180 C 0.50973 0.40363 0.01797 0.0
C4181 C 0.52895 0.41242 0.02239 0.0
C4182 C 0.54003 0.40583 0.03583 0.0
H4183 H 0.9925 0.27606 0.30015 0.0
H4184 H 0.02425 0.33353 0.30414 0.0
H4185 H 0.99876 0.34129 0.28442 0.0
H4186 H 0.96815 0.27177 0.25063 0.0
H4187 H 0.94667 0.25882 0.25739 0.0
H4188 H 0.9691 0.25639 0.26793 0.0
H4189 H 0.95845 0.26615 0.30162 0.0
H4190 H 0.93612 0.26871 0.29123 0.0
H4191 H 0.9505 0.28843 0.30746 0.0
H4192 H 0.96778 0.3449 0.27056 0.0
H4193 H 0.93409 0.34391 0.26317 0.0
H4194 H 0.92228 0.2837 0.26658 0.0
C4195 C 0.99429 0.29011 0.29643 0.0
C4196 C 0.01043 0.30413 0.30359 0.0
C4197 C 0.01222 0.32241 0.29851 0.0
C4198 C 0.99777 0.32698 0.28733 0.0
C4199 C 0.98172 0.31305 0.28112 0.0
C4200 C 0.98 0.29488 0.28526 0.0
C4201 C 0.96047 0.28328 0.2789 0.0
C4202 C 0.96114 0.26657 0.26275 0.0
C4203 C 0.95083 0.27624 0.29581 0.0
C4204 C 0.95113 0.29814 0.27169 0.0
C4205 C 0.96372 0.31509 0.27273 0.0
C4206 C 0.95789 0.33154 0.26909 0.0
C4207 C 0.93864 0.33079 0.26479 0.0
C4208 C 0.92538 0.3137 0.26419 0.0
C4209 C 0.93195 0.29704 0.26698 0.0
H4210 H 1.00151 0.66146 0.56411 0.0
H4211 H 0.05258 0.68387 0.60173 0.0
H4212 H 0.06695 0.65747 0.58649 0.0
H4213 H 1.00126 0.613 0.56507 0.0
H4214 H 0.9926 0.60449 0.54041 0.0
H4215 H 0.98686 0.62606 0.55304 0.0
H4216 H 1.00075 0.64443 0.52726 0.0
H4217 H 1.00659 0.62288 0.51456 0.0
H4218 H 0.02462 0.64395 0.52168 0.0
H4219 H 0.07492 0.62789 0.56927 0.0
H4220 H 0.07592 0.59603 0.55136 0.0
H4221 H 0.01994 0.59241 0.52427 0.0
C4222 C 0.01581 0.6609 0.56889 0.0
C4223 C 0.02594 0.67459 0.58413 0.0
C4224 C 0.04453 0.67335 0.59024 0.0
C4225 C 0.05285 0.65853 0.58156 0.0
C4226 C 0.04244 0.64512 0.56675 0.0
C4227 C 0.02434 0.64611 0.56042 0.0
C4228 C 0.01587 0.62913 0.54504 0.0
C4229 C 0.9981 0.61748 0.55127 0.0
C4230 C 0.01172 0.63548 0.52601 0.0
C4231 C 0.03191 0.61825 0.54408 0.0
C4232 C 0.04714 0.62789 0.55661 0.0
C4233 C 0.0632 0.62029 0.55923 0.0
C4234 C 0.0636 0.60217 0.54904 0.0
C4235 C 0.04805 0.59184 0.53638 0.0
C4236 C 0.03216 0.60016 0.53359 0.0
H4237 H 0.68113 0.7793 0.84751 0.0
H4238 H 0.67225 0.83549 0.84034 0.0
H4239 H 0.69657 0.83704 0.81754 0.0
H4240 H 0.73112 0.78773 0.84409 0.0
H4241 H 0.73082 0.76418 0.83094 0.0
H4242 H 0.71331 0.76799 0.84733 0.0
H4243 H 0.68692 0.75302 0.82017 0.0
H4244 H 0.70437 0.74931 0.80367 0.0
H4245 H 0.68661 0.76268 0.79848 0.0
H4246 H 0.72222 0.83247 0.79554 0.0
H4247 H 0.74695 0.82185 0.77613 0.0
H4248 H 0.73696 0.76795 0.79631 0.0
C4249 C 0.6842 0.79192 0.84111 0.0
C4250 C 0.67482 0.80731 0.84586 0.0
C4251 C 0.67949 0.82365 0.83727 0.0
C4252 C 0.69317 0.82461 0.82416 0.0
C4253 C 0.70196 0.80908 0.81966 0.0
C4254 C 0.69765 0.79305 0.82789 0.0
C4255 C 0.7089 0.77817 0.82047 0.0
C4256 C 0.7218 0.7743 0.83667 0.0
C4257 C 0.69592 0.75971 0.81008 0.0
C4258 C 0.72015 0.7883 0.80672 0.0
C4259 C 0.7161 0.80617 0.80652 0.0
C4260 C 0.7254 0.81843 0.79545 0.0
C4261 C 0.73936 0.81229 0.78446 0.0
C4262 C 0.74364 0.794 0.78451 0.0
C4263 C 0.73373 0.78186 0.79564 0.0
H4264 H 0.46909 0.52506 0.65091 0.0
H4265 H 0.49694 0.58233 0.67751 0.0
H4266 H 0.5151 0.5847 0.64982 0.0
H4267 H 0.51007 0.5111 0.62812 0.0
H4268 H 0.49692 0.498 0.60631 0.0
H4269 H 0.48569 0.50021 0.62827 0.0
H4270 H 0.45986 0.51438 0.61258 0.0
H4271 H 0.47101 0.51217 0.59057 0.0
H4272 H 0.46649 0.53497 0.60158 0.0
H4273 H 0.53119 0.5817 0.61803 0.0
H4274 H 0.5429 0.57355 0.58657 0.0
H4275 H 0.50605 0.5181 0.57783 0.0
C4276 C 0.47896 0.5382 0.65107 0.0
C4277 C 0.48127 0.55339 0.66759 0.0
C4278 C 0.49465 0.57006 0.66615 0.0
C4279 C 0.50518 0.57168 0.65003 0.0
C4280 C 0.50272 0.5566 0.63444 0.0
C4281 C 0.48986 0.54011 0.63475 0.0
C4282 C 0.49012 0.5261 0.61579 0.0
C4283 C 0.49604 0.50775 0.61986 0.0
C4284 C 0.47071 0.52163 0.60446 0.0
C4285 C 0.50508 0.53721 0.60493 0.0
C4286 C 0.51203 0.55485 0.61611 0.0
C4287 C 0.52573 0.56785 0.60937 0.0
C4288 C 0.53243 0.56298 0.59114 0.0
C4289 C 0.52592 0.54503 0.57891 0.0
C4290 C 0.51183 0.53196 0.58634 0.0
H4291 H 0.80859 0.17303 0.93556 0.0
H4292 H 0.77836 0.20119 0.97901 0.0
H4293 H 0.76849 0.22058 0.95643 0.0
H4294 H 0.82518 0.21451 0.91493 0.0
H4295 H 0.82237 0.20163 0.89074 0.0
H4296 H 0.82708 0.18973 0.91022 0.0
H4297 H 0.79713 0.16396 0.89875 0.0
H4298 H 0.79234 0.17579 0.87923 0.0
H4299 H 0.77475 0.17111 0.8956 0.0
H4300 H 0.76171 0.23686 0.92946 0.0
H4301 H 0.75897 0.24969 0.89981 0.0
H4302 H 0.79329 0.21118 0.87315 0.0
C4303 C 0.79983 0.18322 0.94028 0.0
C4304 C 0.79439 0.18568 0.95916 0.0
C4305 C 0.78301 0.19927 0.96478 0.0
C4306 C 0.77721 0.21027 0.952 0.0
C4307 C 0.78288 0.20759 0.93358 0.0
C4308 C 0.79396 0.19446 0.92768 0.0
C4309 C 0.7982 0.19465 0.90709 0.0
C4310 C 0.81947 0.20048 0.90567 0.0
C4311 C 0.79012 0.17522 0.89442 0.0
C4312 C 0.78775 0.20992 0.90238 0.0
C4313 C 0.77897 0.2171 0.9179 0.0
C4314 C 0.76845 0.23129 0.91718 0.0
C4315 C 0.76686 0.23839 0.90018 0.0
C4316 C 0.77573 0.23135 0.884 0.0
C4317 C 0.78637 0.21692 0.88523 0.0
H4318 H 0.1328 0.51598 0.11935 0.0
H4319 H 0.08839 0.5233 0.15638 0.0
H4320 H 0.06613 0.52183 0.12823 0.0
H4321 H 0.12187 0.54661 0.09003 0.0
H4322 H 0.12766 0.53324 0.06825 0.0
H4323 H 0.13898 0.53145 0.09076 0.0
H4324 H 0.12782 0.49478 0.08344 0.0
H4325 H 0.11642 0.49647 0.06086 0.0
H4326 H 0.10313 0.48483 0.07763 0.0
H4327 H 0.0496 0.52218 0.09619 0.0
H4328 H 0.04076 0.5264 0.06332 0.0
H4329 H 0.09688 0.52103 0.04808 0.0
C4330 C 0.11822 0.51665 0.12136 0.0
C4331 C 0.11203 0.51931 0.13978 0.0
C4332 C 0.09313 0.52092 0.14221 0.0
C4333 C 0.08046 0.52007 0.12635 0.0
C4334 C 0.08706 0.5178 0.10828 0.0
C4335 C 0.10553 0.51616 0.10574 0.0
C4336 C 0.10971 0.51604 0.08521 0.0
C4337 C 0.12548 0.53284 0.08348 0.0
C4338 C 0.11455 0.49688 0.07626 0.0
C4339 C 0.0909 0.51843 0.07672 0.0
C4340 C 0.07786 0.51898 0.09009 0.0
C4341 C 0.05965 0.52162 0.08556 0.0
C4342 C 0.05475 0.524 0.0669 0.0
C4343 C 0.06818 0.52413 0.05326 0.0
C4344 C 0.08635 0.52108 0.05825 0.0
H4345 H 0.79098 0.84558 0.41561 0.0
H4346 H 0.81814 0.80193 0.4338 0.0
H4347 H 0.81908 0.78751 0.40029 0.0
H4348 H 0.76146 0.81368 0.37564 0.0
H4349 H 0.76331 0.83132 0.36044 0.0
H4350 H 0.76484 0.83862 0.38597 0.0
H4351 H 0.79704 0.86052 0.38501 0.0
H4352 H 0.79563 0.85326 0.35949 0.0
H4353 H 0.81573 0.85055 0.37408 0.0
H4354 H 0.81822 0.77809 0.36472 0.0
H4355 H 0.81431 0.77351 0.32967 0.0
H4356 H 0.78589 0.82167 0.33335 0.0
C4357 C 0.79695 0.83286 0.41267 0.0
C4358 C 0.80474 0.8252 0.42778 0.0
C4359 C 0.81252 0.80858 0.42285 0.0
C4360 C 0.81298 0.8001 0.40371 0.0
C4361 C 0.8054 0.8081 0.38932 0.0
C4362 C 0.79736 0.82401 0.39351 0.0
C4363 C 0.7901 0.8296 0.37516 0.0
C4364 C 0.76865 0.82822 0.37425 0.0
C4365 C 0.80023 0.84967 0.37333 0.0
C4366 C 0.79545 0.81443 0.36005 0.0
C4367 C 0.80434 0.80226 0.36864 0.0
C4368 C 0.81116 0.78747 0.35787 0.0
C4369 C 0.8089 0.78502 0.33787 0.0
C4370 C 0.79972 0.79713 0.32852 0.0
C4371 C 0.7928 0.812 0.33992 0.0
H4372 H 0.47132 0.56804 0.89028 0.0
H4373 H 0.49575 0.52711 0.85283 0.0
H4374 H 0.51302 0.52029 0.8805 0.0
H4375 H 0.51326 0.58562 0.92484 0.0
H4376 H 0.50036 0.58768 0.94572 0.0
H4377 H 0.4896 0.59006 0.92306 0.0
H4378 H 0.46173 0.56327 0.92579 0.0
H4379 H 0.4724 0.56085 0.94847 0.0
H4380 H 0.46623 0.54043 0.92951 0.0
H4381 H 0.52862 0.5171 0.9127 0.0
H4382 H 0.54034 0.51764 0.94574 0.0
H4383 H 0.50691 0.55984 0.96557 0.0
C4384 C 0.48026 0.5576 0.88774 0.0
C4385 C 0.48197 0.54857 0.86835 0.0
C4386 C 0.49408 0.53497 0.86669 0.0
C4387 C 0.50405 0.53075 0.88267 0.0
C4388 C 0.50224 0.53995 0.90117 0.0
C4389 C 0.49059 0.55311 0.90391 0.0
C4390 C 0.49137 0.56074 0.92567 0.0
C4391 C 0.4991 0.58231 0.93009 0.0
C4392 C 0.47176 0.55605 0.93279 0.0
C4393 C 0.50515 0.54982 0.9346 0.0
C4394 C 0.51116 0.53793 0.91996 0.0
C4395 C 0.52386 0.52641 0.92413 0.0
C4396 C 0.53057 0.52685 0.94332 0.0
C4397 C 0.52494 0.53869 0.95915 0.0
C4398 C 0.51182 0.55044 0.95433 0.0
H4399 H 0.79142 0.18209 0.14473 0.0
H4400 H 0.8296 0.21974 0.1167 0.0
H4401 H 0.8295 0.24633 0.14318 0.0
H4402 H 0.76366 0.21666 0.16349 0.0
H4403 H 0.761 0.20823 0.18575 0.0
H4404 H 0.76389 0.19203 0.16454 0.0
H4405 H 0.79259 0.18328 0.18188 0.0
H4406 H 0.78973 0.1994 0.20315 0.0
H4407 H 0.81195 0.20195 0.19278 0.0
H4408 H 0.8253 0.26915 0.17283 0.0
H4409 H 0.81831 0.28594 0.20387 0.0
H4410 H 0.78288 0.23379 0.21306 0.0
C4411 C 0.79969 0.19595 0.1441 0.0
C4412 C 0.8106 0.19868 0.12852 0.0
C4413 C 0.82135 0.21708 0.12849 0.0
C4414 C 0.82128 0.23237 0.14345 0.0
C4415 C 0.81042 0.22919 0.15853 0.0
C4416 C 0.79989 0.21141 0.15904 0.0
C4417 C 0.78977 0.21179 0.17717 0.0
C4418 C 0.7683 0.20689 0.17245 0.0
C4419 C 0.79641 0.19831 0.18947 0.0
C4420 C 0.7962 0.23255 0.1867 0.0
C4421 C 0.80806 0.24233 0.17567 0.0
C4422 C 0.81599 0.26161 0.18156 0.0
C4423 C 0.81188 0.27107 0.19925 0.0
C4424 C 0.79994 0.26134 0.21102 0.0
C4425 C 0.79193 0.24179 0.20444 0.0
H4426 H 0.12208 0.556 0.31609 0.0
H4427 H 0.15548 0.51317 0.32297 0.0
H4428 H 0.14037 0.50781 0.35231 0.0
H4429 H 0.12376 0.57585 0.36601 0.0
H4430 H 0.09999 0.58 0.36451 0.0
H4431 H 0.11342 0.58035 0.34406 0.0
H4432 H 0.08711 0.55455 0.32391 0.0
H4433 H 0.07363 0.55406 0.34432 0.0
H4434 H 0.07954 0.53238 0.33203 0.0
H4435 H 0.12112 0.50664 0.38035 0.0
H4436 H 0.09999 0.51061 0.40602 0.0
H4437 H 0.07996 0.55502 0.38132 0.0
C4438 C 0.12614 0.54545 0.32376 0.0
C4439 C 0.13992 0.53499 0.31733 0.0
C4440 C 0.14507 0.52146 0.32781 0.0
C4441 C 0.13651 0.51825 0.34439 0.0
C4442 C 0.12292 0.52877 0.35031 0.0
C4443 C 0.11784 0.54218 0.34039 0.0
C4444 C 0.10306 0.55177 0.34996 0.0
C4445 C 0.11051 0.57326 0.35652 0.0
C4446 C 0.08475 0.54795 0.33677 0.0
C4447 C 0.10054 0.54158 0.36675 0.0
C4448 C 0.11207 0.52833 0.36666 0.0
C4449 C 0.11213 0.51707 0.38067 0.0
C4450 C 0.10015 0.51952 0.39525 0.0
C4451 C 0.08838 0.53321 0.39577 0.0
C4452 C 0.08861 0.54429 0.38124 0.0
H4453 H 0.82089 0.84218 0.64149 0.0
H4454 H 0.76667 0.81402 0.61161 0.0
H4455 H 0.75832 0.79962 0.63949 0.0
H4456 H 0.82839 0.80442 0.66636 0.0
H4457 H 0.83855 0.81999 0.68828 0.0
H4458 H 0.8407 0.82825 0.6659 0.0
H4459 H 0.82555 0.857 0.67892 0.0
H4460 H 0.82335 0.8488 0.70134 0.0
H4461 H 0.80289 0.85284 0.68829 0.0
H4462 H 0.75549 0.78756 0.6705 0.0
H4463 H 0.75841 0.77915 0.70243 0.0
H4464 H 0.81372 0.81566 0.71387 0.0
C4465 C 0.80719 0.8331 0.64076 0.0
C4466 C 0.79466 0.82915 0.62379 0.0
C4467 C 0.77693 0.81702 0.62386 0.0
C4468 C 0.77189 0.80884 0.63984 0.0
C4469 C 0.78454 0.81291 0.6561 0.0
C4470 C 0.80181 0.82483 0.65678 0.0
C4471 C 0.81268 0.82683 0.67623 0.0
C4472 C 0.83118 0.81943 0.67406 0.0
C4473 C 0.81633 0.8476 0.68682 0.0
C4474 C 0.7989 0.81402 0.68621 0.0
C4475 C 0.78275 0.80618 0.67426 0.0
C4476 C 0.76807 0.79369 0.67998 0.0
C4477 C 0.76988 0.78897 0.69826 0.0
C4478 C 0.78625 0.79667 0.71095 0.0
C4479 C 0.80093 0.80952 0.70471 0.0
H4480 H 0.66909 0.47336 0.49876 0.0
H4481 H 0.70637 0.52173 0.53415 0.0
H4482 H 0.67906 0.53616 0.54263 0.0
H4483 H 0.63624 0.50022 0.48125 0.0
H4484 H 0.61563 0.48229 0.48176 0.0
H4485 H 0.63807 0.47545 0.47832 0.0
H4486 H 0.63481 0.45821 0.50727 0.0
H4487 H 0.61239 0.46508 0.5108 0.0
H4488 H 0.63084 0.4712 0.53003 0.0
H4489 H 0.64753 0.54598 0.54743 0.0
H4490 H 0.61463 0.55051 0.54753 0.0
H4491 H 0.59656 0.49596 0.5097 0.0
C4492 C 0.67158 0.48694 0.50839 0.0
C4493 C 0.69033 0.49634 0.51553 0.0
C4494 C 0.69253 0.51422 0.528 0.0
C4495 C 0.67695 0.52254 0.5331 0.0
C4496 C 0.65886 0.51299 0.52578 0.0
C4497 C 0.65604 0.49557 0.51366 0.0
C4498 C 0.635 0.48853 0.50766 0.0
C4499 C 0.63101 0.4865 0.48596 0.0
C4500 C 0.62784 0.46963 0.51434 0.0
C4501 C 0.62649 0.50467 0.5183 0.0
C4502 C 0.64059 0.51861 0.52867 0.0
C4503 C 0.63643 0.53508 0.53939 0.0
C4504 C 0.61755 0.53752 0.53938 0.0
C4505 C 0.60266 0.52362 0.5288 0.0
C4506 C 0.60738 0.50685 0.51821 0.0
H4507 H 0.16762 0.1382 0.51005 0.0
H4508 H 0.19514 0.09919 0.47373 0.0
H4509 H 0.16693 0.07403 0.47129 0.0
H4510 H 0.144 0.10433 0.53574 0.0
H4511 H 0.12266 0.1138 0.53685 0.0
H4512 H 0.14472 0.12924 0.53528 0.0
H4513 H 0.13068 0.13914 0.50516 0.0
H4514 H 0.10854 0.12375 0.50666 0.0
H4515 H 0.12028 0.12102 0.48505 0.0
H4516 H 0.13669 0.0525 0.47394 0.0
H4517 H 0.10578 0.036 0.48087 0.0
H4518 H 0.09653 0.08866 0.5146 0.0
C4519 C 0.16762 0.12445 0.50136 0.0
C4520 C 0.18381 0.12072 0.49224 0.0
C4521 C 0.18317 0.1024 0.48118 0.0
C4522 C 0.16712 0.08801 0.47957 0.0
C4523 C 0.15159 0.09206 0.48895 0.0
C4524 C 0.15159 0.10984 0.49954 0.0
C4525 C 0.13305 0.11015 0.5085 0.0
C4526 C 0.13631 0.11464 0.53039 0.0
C4527 C 0.12252 0.12436 0.50088 0.0
C4528 C 0.1228 0.0897 0.50148 0.0
C4529 C 0.13382 0.07959 0.49021 0.0
C4530 C 0.12787 0.0603 0.48262 0.0
C4531 C 0.11026 0.05103 0.48671 0.0
C4532 C 0.0986 0.06098 0.49824 0.0
C4533 C 0.10497 0.08068 0.50556 0.0
H4534 H 0.20581 0.90116 0.7686 0.0
H4535 H 0.25364 0.94217 0.75767 0.0
H4536 H 0.27299 0.91766 0.75577 0.0
H4537 H 0.23358 0.87614 0.79807 0.0
H4538 H 0.22013 0.85259 0.78897 0.0
H4539 H 0.20919 0.87311 0.78941 0.0
H4540 H 0.1995 0.86306 0.75335 0.0
H4541 H 0.21044 0.84254 0.75283 0.0
H4542 H 0.21723 0.85921 0.73718 0.0
H4543 H 0.28886 0.8881 0.75504 0.0
H4544 H 0.29899 0.85768 0.75574 0.0
H4545 H 0.24275 0.83257 0.76727 0.0
C4546 C 0.22035 0.90518 0.7658 0.0
C4547 C 0.22742 0.92459 0.76295 0.0
C4548 C 0.24687 0.9281 0.75943 0.0
C4549 C 0.25836 0.91395 0.75847 0.0
C4550 C 0.25099 0.89536 0.76106 0.0
C4551 C 0.23235 0.89084 0.76471 0.0
C4552 C 0.2283 0.86945 0.76698 0.0
C4553 C 0.22244 0.86772 0.78705 0.0
C4554 C 0.21294 0.85787 0.75168 0.0
C4555 C 0.24741 0.86276 0.76404 0.0
C4556 C 0.2602 0.87821 0.76068 0.0
C4557 C 0.27875 0.87609 0.75766 0.0
C4558 C 0.28448 0.85832 0.75808 0.0
C4559 C 0.27216 0.84169 0.76145 0.0
C4560 C 0.25302 0.84437 0.76446 0.0
H4561 H 0.39003 0.0091 0.9866 0.0
H4562 H 0.38468 0.9853 0.03841 0.0
H4563 H 0.41912 0.99239 0.04499 0.0
H4564 H 0.43242 0.99185 0.97341 0.0
H4565 H 0.44286 0.01297 0.96477 0.0
H4566 H 0.41762 1.00619 0.96386 0.0
H4567 H 0.41593 0.03931 0.98308 0.0
H4568 H 0.44117 0.0462 0.98404 0.0
H4569 H 0.42957 0.04767 0.00578 0.0
H4570 H 0.4543 1.00108 0.04592 0.0
H4571 H 0.48769 0.01184 0.04176 0.0
H4572 H 0.47188 0.03132 0.98989 0.0
C4573 C 0.3961 1.00536 0.99933 0.0
C4574 C 0.3843 0.99674 0.01207 0.0
C4575 C 0.39307 0.99221 0.02856 0.0
C4576 C 0.41277 0.99607 0.03238 0.0
C4577 C 0.42389 1.00462 0.01969 0.0
C4578 C 0.41594 0.00932 1.00352 0.0
C4579 C 0.43137 0.01863 0.99242 0.0
C4580 C 0.43104 1.0067 0.97243 0.0
C4581 C 0.42939 0.03917 0.99126 0.0
C4582 C 0.44915 0.01829 0.00483 0.0
C4583 C 0.44439 0.01003 0.02043 0.0
C4584 C 0.45815 0.00766 0.0338 0.0
C4585 C 0.47722 0.01387 0.03127 0.0
C4586 C 0.48275 0.02261 0.01555 0.0
C4587 C 0.46832 0.02485 1.00216 0.0
H4588 H 0.85216 0.59903 0.74957 0.0
H4589 H 0.82403 0.58227 0.79785 0.0
H4590 H 0.80009 0.6016 0.79227 0.0
H4591 H 0.84644 0.64681 0.75882 0.0
H4592 H 0.84286 0.64879 0.73409 0.0
H4593 H 0.85664 0.63223 0.7408 0.0
H4594 H 0.8349 0.60468 0.71743 0.0
H4595 H 0.82099 0.62118 0.71069 0.0
H4596 H 0.80988 0.60039 0.71949 0.0
H4597 H 0.78024 0.62386 0.7824 0.0
H4598 H 0.76728 0.64945 0.77056 0.0
H4599 H 0.8086 0.65193 0.7289 0.0
C4600 C 0.84077 0.59922 0.75875 0.0
C4601 C 0.83979 0.58914 0.77405 0.0
C4602 C 0.82499 0.59 0.78608 0.0
C4603 C 0.81128 0.60079 0.78293 0.0
C4604 C 0.81267 0.61065 0.76774 0.0
C4605 C 0.8271 0.61006 0.75592 0.0
C4606 C 0.8262 0.62309 0.74153 0.0
C4607 C 0.84409 0.63865 0.74397 0.0
C4608 C 0.82278 0.61164 0.72107 0.0
C4609 C 0.8092 0.63135 0.74732 0.0
C4610 C 0.80142 0.62377 0.76227 0.0
C4611 C 0.78607 0.62976 0.77057 0.0
C4612 C 0.77873 0.64421 0.76367 0.0
C4613 C 0.78689 0.65258 0.74877 0.0
C4614 C 0.80209 0.64577 0.7403 0.0
H4615 H 0.86236 0.61207 0.98855 0.0
H4616 H 0.88622 0.66387 0.02872 0.0
H4617 H 0.91586 0.6522 0.03258 0.0
H4618 H 0.88351 0.58038 0.01281 0.0
H4619 H 0.88782 0.56544 0.99131 0.0
H4620 H 0.86851 0.57798 0.99118 0.0
H4621 H 0.88148 0.59367 0.96335 0.0
H4622 H 0.90082 0.58115 0.96336 0.0
H4623 H 0.90538 0.60675 0.9659 0.0
H4624 H 0.94297 0.63495 0.03246 0.0
H4625 H 0.96534 0.61297 0.02898 0.0
H4626 H 0.92447 0.5721 0.98876 0.0
C4627 C 0.87388 0.62102 0.99803 0.0
C4628 C 0.87182 0.63891 0.00841 0.0
C4629 C 0.88724 0.65003 0.02082 0.0
C4630 C 0.90423 0.64358 0.02303 0.0
C4631 C 0.90574 0.62588 0.01275 0.0
C4632 C 0.89099 0.61471 1.00052 0.0
C4633 C 0.89626 0.59604 0.99152 0.0
C4634 C 0.88325 0.57895 0.99704 0.0
C4635 C 0.89597 0.59431 0.96974 0.0
C4636 C 0.91622 0.59846 1.00066 0.0
C4637 C 0.92141 0.61584 0.01277 0.0
C4638 C 0.93909 0.62134 0.02293 0.0
C4639 C 0.95179 0.60876 0.02074 0.0
C4640 C 0.94686 0.59075 0.00851 0.0
C4641 C 0.92874 0.58565 0.99833 0.0
H4642 H 0.25146 0.13234 0.77019 0.0
H4643 H 0.19294 0.13809 0.77098 0.0
H4644 H 0.2022 0.17226 0.77038 0.0
H4645 H 0.27091 0.17872 0.80065 0.0
H4646 H 0.29138 0.18382 0.7878 0.0
H4647 H 0.28054 0.15946 0.78805 0.0
H4648 H 0.27694 0.15247 0.75124 0.0
H4649 H 0.28778 0.17681 0.75088 0.0
H4650 H 0.26485 0.16696 0.73854 0.0
H4651 H 0.21747 0.20686 0.76921 0.0
H4652 H 0.23718 0.23807 0.76838 0.0
H4653 H 0.28703 0.21276 0.76912 0.0
C4654 C 0.24051 0.1407 0.77018 0.0
C4655 C 0.22116 0.13172 0.77088 0.0
C4656 C 0.20776 0.1439 0.77088 0.0
C4657 C 0.21293 0.16363 0.7704 0.0
C4658 C 0.23186 0.17192 0.76995 0.0
C4659 C 0.24554 0.16086 0.76989 0.0
C4660 C 0.26495 0.17377 0.76962 0.0
C4661 C 0.27771 0.17395 0.7876 0.0
C4662 C 0.27418 0.1671 0.75149 0.0
C4663 C 0.26003 0.19364 0.76948 0.0
C4664 C 0.24075 0.19205 0.76957 0.0
C4665 C 0.23257 0.2081 0.76919 0.0
C4666 C 0.24406 0.22604 0.76869 0.0
C4667 C 0.26401 0.22863 0.76871 0.0
C4668 C 0.27197 0.21182 0.76919 0.0
H4669 H 0.32855 0.92848 0.27367 0.0
H4670 H 0.32865 0.94356 0.33499 0.0
H4671 H 0.30739 0.9128 0.33544 0.0
H4672 H 0.27843 0.9007 0.26454 0.0
H4673 H 0.28499 0.88367 0.24594 0.0
H4674 H 0.29709 0.90818 0.25019 0.0
H4675 H 0.32899 0.89726 0.25434 0.0
H4676 H 0.31702 0.87283 0.25019 0.0
H4677 H 0.3322 0.88248 0.27178 0.0
H4678 H 0.29188 0.87829 0.32982 0.0
H4679 H 0.28189 0.84359 0.31842 0.0
H4680 H 0.29048 0.8518 0.26051 0.0
C4681 C 0.3236 0.92547 0.28709 0.0
C4682 C 0.33009 0.93821 0.3043 0.0
C4683 C 0.32359 0.93394 0.32167 0.0
C4684 C 0.31153 0.91656 0.32203 0.0
C4685 C 0.30586 0.90393 0.30483 0.0
C4686 C 0.31142 0.90836 0.28763 0.0
C4687 C 0.30497 0.89173 0.2714 0.0
C4688 C 0.2905 0.89635 0.25718 0.0
C4689 C 0.3218 0.88573 0.26136 0.0
C4690 C 0.29588 0.87686 0.28229 0.0
C4691 C 0.2963 0.88419 0.30152 0.0
C4692 C 0.29092 0.87251 0.31473 0.0
C4693 C 0.28535 0.85283 0.30815 0.0
C4694 C 0.28515 0.8451 0.28857 0.0
C4695 C 0.28994 0.85738 0.27548 0.0
H4696 H 0.53951 0.3411 0.55431 0.0
H4697 H 0.59807 0.34318 0.54392 0.0
H4698 H 0.59488 0.36384 0.52 0.0
H4699 H 0.52111 0.34384 0.50494 0.0
H4700 H 0.5054 0.35918 0.514 0.0
H4701 H 0.51129 0.34165 0.5273 0.0
H4702 H 0.52272 0.36813 0.55696 0.0
H4703 H 0.51673 0.3856 0.54382 0.0
H4704 H 0.54032 0.38847 0.55478 0.0
H4705 H 0.58619 0.38704 0.50009 0.0
H4706 H 0.57392 0.41313 0.48852 0.0
H4707 H 0.52166 0.39694 0.51377 0.0
C4708 C 0.55146 0.34542 0.54651 0.0
C4709 C 0.56893 0.3404 0.55063 0.0
C4710 C 0.58453 0.34684 0.54076 0.0
C4711 C 0.58279 0.35841 0.52709 0.0
C4712 C 0.56539 0.36341 0.52355 0.0
C4713 C 0.55002 0.35717 0.53307 0.0
C4714 C 0.53371 0.36664 0.5288 0.0
C4715 C 0.51688 0.35195 0.51812 0.0
C4716 C 0.52806 0.37788 0.54717 0.0
C4717 C 0.54251 0.37975 0.51598 0.0
C4718 C 0.5606 0.37733 0.51267 0.0
C4719 C 0.57196 0.38891 0.50242 0.0
C4720 C 0.56491 0.40378 0.496 0.0
C4721 C 0.5468 0.40718 0.50022 0.0
C4722 C 0.53533 0.39452 0.50979 0.0
H4723 H 0.41919 0.78065 0.3271 0.0
H4724 H 0.42523 0.83944 0.35642 0.0
H4725 H 0.39759 0.84283 0.33707 0.0
H4726 H 0.39929 0.7854 0.28094 0.0
H4727 H 0.38247 0.76334 0.27811 0.0
H4728 H 0.40471 0.7661 0.2919 0.0
H4729 H 0.38732 0.75748 0.32095 0.0
H4730 H 0.36508 0.75452 0.30722 0.0
H4731 H 0.36986 0.77078 0.32972 0.0
H4732 H 0.36893 0.84002 0.31508 0.0
H4733 H 0.33812 0.82947 0.29602 0.0
H4734 H 0.34768 0.77145 0.28537 0.0
C4735 C 0.41484 0.79428 0.3297 0.0
C4736 C 0.42506 0.80988 0.34317 0.0
C4737 C 0.41848 0.82739 0.34572 0.0
C4738 C 0.40258 0.82949 0.33486 0.0
C4739 C 0.39298 0.81384 0.32182 0.0
C4740 C 0.39858 0.79645 0.31953 0.0
C4741 C 0.38445 0.78126 0.30632 0.0
C4742 C 0.39326 0.77358 0.28825 0.0
C4743 C 0.37619 0.76506 0.31668 0.0
C4744 C 0.3699 0.79282 0.30182 0.0
C4745 C 0.37542 0.81173 0.31042 0.0
C4746 C 0.36442 0.82526 0.30828 0.0
C4747 C 0.34705 0.81919 0.29742 0.0
C4748 C 0.34077 0.79974 0.28938 0.0
C4749 C 0.35235 0.78642 0.29144 0.0
H4750 H 0.06971 0.67255 0.07579 0.0
H4751 H 0.09788 0.70073 0.03319 0.0
H4752 H 0.09954 0.66923 0.01435 0.0
H4753 H 0.0934 0.63246 0.07223 0.0
H4754 H 0.07232 0.61605 0.07499 0.0
H4755 H 0.07542 0.64078 0.08594 0.0
H4756 H 0.04371 0.64302 0.06857 0.0
H4757 H 0.04054 0.61834 0.05753 0.0
H4758 H 0.04009 0.63634 0.04296 0.0
H4759 H 0.09657 0.63425 0.99957 0.0
H4760 H 0.08832 0.59917 0.98965 0.0
H4761 H 0.05984 0.59499 0.04108 0.0
C4762 C 0.07619 0.67222 0.06247 0.0
C4763 C 0.08354 0.68915 0.0559 0.0
C4764 C 0.0923 0.68796 0.0386 0.0
C4765 C 0.09323 0.67014 0.02778 0.0
C4766 C 0.0853 0.65375 0.03448 0.0
C4767 C 0.07692 0.6547 0.05142 0.0
C4768 C 0.06831 0.63518 0.05502 0.0
C4769 C 0.07794 0.63087 0.07312 0.0
C4770 C 0.0469 0.63311 0.05607 0.0
C4771 C 0.07291 0.623 0.0373 0.0
C4772 C 0.08296 0.63388 0.02573 0.0
C4773 C 0.08873 0.62561 0.00854 0.0
C4774 C 0.08401 0.60572 1.00305 0.0
C4775 C 0.07337 0.59447 0.01458 0.0
C4776 C 0.06784 0.60327 0.03191 0.0
H4777 H 0.09902 0.29523 0.83428 0.0
H4778 H 0.09356 0.23608 0.8409 0.0
H4779 H 0.12178 0.23362 0.8235 0.0
H4780 H 0.11486 0.28962 0.78719 0.0
H4781 H 0.13114 0.31212 0.79178 0.0
H4782 H 0.11027 0.30912 0.80437 0.0
H4783 H 0.13073 0.31936 0.83668 0.0
H4784 H 0.15165 0.32249 0.82419 0.0
H4785 H 0.1494 0.30694 0.84152 0.0
H4786 H 0.15086 0.23778 0.80584 0.0
H4787 H 0.17895 0.24835 0.78952 0.0
H4788 H 0.1658 0.30503 0.79528 0.0
C4789 C 0.10382 0.28178 0.83221 0.0
C4790 C 0.09406 0.26583 0.83894 0.0
C4791 C 0.10066 0.24842 0.83566 0.0
C4792 C 0.11672 0.24691 0.82587 0.0
C4793 C 0.12599 0.26292 0.81944 0.0
C4794 C 0.1198 0.28003 0.82249 0.0
C4795 C 0.13242 0.29516 0.81433 0.0
C4796 C 0.12152 0.3019 0.79848 0.0
C4797 C 0.1416 0.31197 0.83012 0.0
C4798 C 0.14677 0.28392 0.80631 0.0
C4799 C 0.14277 0.26534 0.80935 0.0
C4800 C 0.15415 0.25231 0.80341 0.0
C4801 C 0.17012 0.25848 0.79424 0.0
C4802 C 0.1746 0.27753 0.79116 0.0
C4803 C 0.16263 0.29032 0.79719 0.0
H4804 H 0.57494 0.72802 0.97368 0.0
H4805 H 0.52586 0.71666 0.93272 0.0
H4806 H 0.51239 0.68885 0.94659 0.0
H4807 H 0.57838 0.67919 0.97226 0.0
H4808 H 0.58579 0.68233 0.9973 0.0
H4809 H 0.59118 0.70196 0.98477 0.0
H4810 H 0.57475 0.72254 0.00933 0.0
H4811 H 0.56921 0.70292 0.02188 0.0
H4812 H 0.55069 0.71391 0.01349 0.0
H4813 H 0.50462 0.66176 0.96405 0.0
H4814 H 0.50345 0.63659 0.98363 0.0
H4815 H 0.55785 0.66497 0.01274 0.0
C4816 C 0.56138 0.71967 0.9676 0.0
C4817 C 0.55138 0.72467 0.95222 0.0
C4818 C 0.53362 0.71338 0.94475 0.0
C4819 C 0.52588 0.69748 0.95246 0.0
C4820 C 0.53606 0.69301 0.96763 0.0
C4821 C 0.55344 0.70371 0.9751 0.0
C4822 C 0.5617 0.69543 0.99105 0.0
C4823 C 0.58036 0.68937 0.98604 0.0
C4824 C 0.56423 0.70955 0.01006 0.0
C4825 C 0.54631 0.67833 0.99124 0.0
C4826 C 0.53162 0.67726 0.97767 0.0
C4827 C 0.51601 0.66245 0.97477 0.0
C4828 C 0.51551 0.6482 0.98589 0.0
C4829 C 0.53054 0.64885 0.99971 0.0
C4830 C 0.54602 0.66426 1.00251 0.0
H4831 H 0.10639 0.77991 0.68468 0.0
H4832 H 0.07808 0.80129 0.73323 0.0
H4833 H 0.10648 0.80238 0.75471 0.0
H4834 H 0.12688 0.74871 0.70672 0.0
H4835 H 0.14851 0.75195 0.69535 0.0
H4836 H 0.12724 0.75569 0.68363 0.0
H4837 H 0.14354 0.78992 0.68093 0.0
H4838 H 0.16498 0.78622 0.69249 0.0
H4839 H 0.15464 0.80621 0.70209 0.0
H4840 H 0.13736 0.79878 0.771 0.0
H4841 H 0.16733 0.78944 0.78067 0.0
H4842 H 0.17416 0.76911 0.72131 0.0
C4843 C 0.10642 0.78539 0.69976 0.0
C4844 C 0.09026 0.79081 0.70734 0.0
C4845 C 0.09046 0.79724 0.72721 0.0
C4846 C 0.10651 0.79795 0.73946 0.0
C4847 C 0.12213 0.79208 0.73157 0.0
C4848 C 0.12217 0.78593 0.71215 0.0
C4849 C 0.13989 0.77862 0.70738 0.0
C4850 C 0.13535 0.75749 0.69771 0.0
C4851 C 0.15145 0.79098 0.69499 0.0
C4852 C 0.14965 0.78119 0.72715 0.0
C4853 C 0.13941 0.78928 0.74094 0.0
C4854 C 0.14554 0.79254 0.76031 0.0
C4855 C 0.1625 0.78721 0.76568 0.0
C4856 C 0.17281 0.77843 0.75172 0.0
C4857 C 0.16638 0.77563 0.73226 0.0
H4858 H 0.06504 0.40535 0.43072 0.0
H4859 H 0.07614 0.38111 0.48078 0.0
H4860 H 0.07081 0.41036 0.50151 0.0
H4861 H 0.08875 0.45377 0.45133 0.0
H4862 H 0.07215 0.46461 0.43933 0.0
H4863 H 0.07673 0.44177 0.42859 0.0
H4864 H 0.0411 0.42738 0.42641 0.0
H4865 H 0.03643 0.45015 0.43726 0.0
H4866 H 0.02881 0.42938 0.44771 0.0
H4867 H 0.06236 0.44118 0.51642 0.0
H4868 H 0.05486 0.47322 0.52508 0.0
H4869 H 0.05151 0.47849 0.46535 0.0
C4870 C 0.06641 0.40633 0.44607 0.0
C4871 C 0.07089 0.39113 0.45431 0.0
C4872 C 0.07274 0.39275 0.47436 0.0
C4873 C 0.06968 0.40922 0.48617 0.0
C4874 C 0.06509 0.42394 0.47762 0.0
C4875 C 0.06378 0.42281 0.45805 0.0
C4876 C 0.05915 0.44086 0.45253 0.0
C4877 C 0.07515 0.45084 0.44235 0.0
C4878 C 0.04025 0.43669 0.44025 0.0
C4879 C 0.05783 0.45224 0.47205 0.0
C4880 C 0.0611 0.44212 0.48629 0.0
C4881 C 0.05996 0.44933 0.50543 0.0
C4882 C 0.05558 0.46748 0.51018 0.0
C4883 C 0.05267 0.47832 0.49587 0.0
C4884 C 0.05382 0.47057 0.47657 0.0
H4885 H 0.40632 0.25367 0.19141 0.0
H4886 H 0.44983 0.27978 0.23707 0.0
H4887 H 0.42546 0.28304 0.25969 0.0
H4888 H 0.37419 0.28304 0.20461 0.0
H4889 H 0.35356 0.2645 0.19826 0.0
H4890 H 0.37451 0.26275 0.18628 0.0
H4891 H 0.37465 0.22975 0.19577 0.0
H4892 H 0.35368 0.23143 0.20784 0.0
H4893 H 0.37441 0.2275 0.22054 0.0
H4894 H 0.39601 0.2864 0.27643 0.0
H4895 H 0.36404 0.28863 0.28595 0.0
H4896 H 0.34035 0.25919 0.22936 0.0
C4897 C 0.4107 0.25989 0.20622 0.0
C4898 C 0.42989 0.26644 0.21256 0.0
C4899 C 0.43516 0.27447 0.23203 0.0
C4900 C 0.42144 0.27641 0.24494 0.0
C4901 C 0.40257 0.27001 0.23818 0.0
C4902 C 0.39723 0.26174 0.2193 0.0
C4903 C 0.37607 0.25673 0.2154 0.0
C4904 C 0.36919 0.2674 0.20025 0.0
C4905 C 0.36931 0.23506 0.20954 0.0
C4906 C 0.37031 0.26398 0.23488 0.0
C4907 C 0.38574 0.27152 0.24789 0.0
C4908 C 0.3838 0.28025 0.26645 0.0
C4909 C 0.36561 0.28147 0.27172 0.0
C4910 C 0.34968 0.27396 0.25848 0.0
C4911 C 0.35217 0.26483 0.23996 0.0
H4912 H 0.62517 0.54702 0.38919 0.0
H4913 H 0.59174 0.49336 0.35918 0.0
H4914 H 0.57374 0.49082 0.38694 0.0
H4915 H 0.62604 0.53391 0.43698 0.0
H4916 H 0.62372 0.55698 0.44954 0.0
H4917 H 0.6346 0.555 0.42737 0.0
H4918 H 0.61086 0.57284 0.41347 0.0
H4919 H 0.59992 0.57485 0.4356 0.0
H4920 H 0.58598 0.564 0.41351 0.0
H4921 H 0.55818 0.49336 0.41916 0.0
H4922 H 0.54726 0.501 0.45113 0.0
H4923 H 0.58887 0.55346 0.4626 0.0
C4924 C 0.61407 0.53467 0.38826 0.0
C4925 C 0.61072 0.52019 0.37108 0.0
C4926 C 0.59567 0.50457 0.37151 0.0
C4927 C 0.58496 0.50302 0.38752 0.0
C4928 C 0.58876 0.5172 0.40395 0.0
C4929 C 0.60298 0.53284 0.40447 0.0
C4930 C 0.60392 0.54604 0.42416 0.0
C4931 C 0.62322 0.54812 0.43516 0.0
C4932 C 0.59994 0.5656 0.42153 0.0
C4933 C 0.58812 0.53547 0.4345 0.0
C4934 C 0.57963 0.51879 0.42241 0.0
C4935 C 0.56486 0.50646 0.42853 0.0
C4936 C 0.55862 0.51101 0.44705 0.0
C4937 C 0.56672 0.52798 0.46021 0.0
C4938 C 0.5819 0.54036 0.4534 0.0
H4939 H 0.29062 0.87895 0.07682 0.0
H4940 H 0.25667 0.91921 0.10053 0.0
H4941 H 0.25484 0.90488 0.12953 0.0
H4942 H 0.26594 0.83847 0.09536 0.0
H4943 H 0.28702 0.82951 0.1002 0.0
H4944 H 0.28552 0.84279 0.08115 0.0
H4945 H 0.31592 0.86645 0.0961 0.0
H4946 H 0.31748 0.85328 0.11523 0.0
H4947 H 0.3171 0.8784 0.12053 0.0
H4948 H 0.25702 0.88649 0.15634 0.0
H4949 H 0.26325 0.86558 0.17894 0.0
H4950 H 0.29505 0.83653 0.13768 0.0
C4951 C 0.28264 0.88464 0.08802 0.0
C4952 C 0.27388 0.90035 0.08633 0.0
C4953 C 0.26378 0.90744 0.10151 0.0
C4954 C 0.26254 0.8993 0.11803 0.0
C4955 C 0.27143 0.88397 0.11928 0.0
C4956 C 0.28127 0.87668 0.10467 0.0
C4957 C 0.28974 0.86026 0.10977 0.0
C4958 C 0.28156 0.84165 0.09579 0.0
C4959 C 0.31134 0.86488 0.11045 0.0
C4960 C 0.2832 0.85954 0.12953 0.0
C4961 C 0.27261 0.87331 0.13471 0.0
C4962 C 0.26519 0.87557 0.15237 0.0
C4963 C 0.26872 0.86349 0.1651 0.0
C4964 C 0.27959 0.84925 0.1602 0.0
C4965 C 0.28684 0.84733 0.14206 0.0
H4966 H 0.98452 0.5762 0.8887 0.0
H4967 H 0.00834 0.54155 0.84437 0.0
H4968 H 0.03334 0.53855 0.86789 0.0
H4969 H 0.02992 0.59931 0.91839 0.0
H4970 H 0.01877 0.59787 0.94018 0.0
H4971 H 1.00544 0.6009 0.91919 0.0
H4972 H 0.98082 0.57086 0.92161 0.0
H4973 H 0.9941 0.56766 0.94244 0.0
H4974 H 0.98848 0.5486 0.92209 0.0
H4975 H 0.05227 0.53462 0.897 0.0
H4976 H 0.06356 0.53051 0.92911 0.0
H4977 H 0.02676 0.56704 0.95428 0.0
C4978 C 0.99529 0.5684 0.88384 0.0
C4979 C 0.99455 0.55925 0.86467 0.0
C4980 C 0.00883 0.54907 0.85889 0.0
C4981 C 0.02307 0.5472 0.87218 0.0
C4982 C 0.02291 0.55573 0.89114 0.0
C4983 C 0.00948 0.56631 0.89692 0.0
C4984 C 0.01095 0.57208 0.91839 0.0
C4985 C 0.01661 0.59384 0.92439 0.0
C4986 C 0.9925 0.56433 0.9266 0.0
C4987 C 0.02667 0.56231 0.92383 0.0
C4988 C 0.03367 0.55326 0.90796 0.0
C4989 C 0.04718 0.54198 0.90954 0.0
C4990 C 0.05348 0.53968 0.92783 0.0
C4991 C 0.04606 0.54846 0.94421 0.0
C4992 C 0.03282 0.56023 0.94208 0.0
H4993 H 0.26848 0.25003 0.61297 0.0
H4994 H 0.32551 0.24106 0.60629 0.0
H4995 H 0.3337 0.25209 0.64079 0.0
H4996 H 0.28111 0.29304 0.65036 0.0
H4997 H 0.26096 0.28659 0.66326 0.0
H4998 H 0.2596 0.27889 0.63779 0.0
H4999 H 0.24946 0.24385 0.64207 0.0
H5000 H 0.25084 0.25144 0.66754 0.0
H5001 H 0.26409 0.23399 0.65749 0.0
H5002 H 0.33561 0.26247 0.67613 0.0
H5003 H 0.33132 0.27205 0.71007 0.0
H5004 H 0.27317 0.27507 0.69507 0.0
C5005 C 0.28276 0.25068 0.61874 0.0
C5006 C 0.29632 0.24453 0.60677 0.0
C5007 C 0.31478 0.24541 0.61505 0.0
C5008 C 0.31961 0.25177 0.63469 0.0
C5009 C 0.3059 0.25734 0.6461 0.0
C5010 C 0.28785 0.25698 0.63849 0.0
C5011 C 0.27573 0.26324 0.65423 0.0
C5012 C 0.26895 0.28153 0.65123 0.0
C5013 C 0.25904 0.24717 0.6554 0.0
C5014 C 0.28974 0.26699 0.67182 0.0
C5015 C 0.30705 0.26351 0.66669 0.0
C5016 C 0.32214 0.26535 0.68029 0.0
C5017 C 0.31952 0.27079 0.69963 0.0
C5018 C 0.30192 0.27443 0.70545 0.0
C5019 C 0.28687 0.27261 0.6912 0.0
H5020 H 0.61486 0.54805 0.1671 0.0
H5021 H 0.6107 0.48666 0.15826 0.0
H5022 H 0.59568 0.48395 0.12608 0.0
H5023 H 0.56988 0.5474 0.13988 0.0
H5024 H 0.57848 0.56786 0.12932 0.0
H5025 H 0.58898 0.56562 0.15214 0.0
H5026 H 0.62164 0.56899 0.13907 0.0
H5027 H 0.61123 0.57125 0.11622 0.0
H5028 H 0.62499 0.5531 0.1178 0.0
H5029 H 0.58073 0.48704 0.09353 0.0
H5030 H 0.56768 0.49558 0.06443 0.0
H5031 H 0.5803 0.55529 0.09112 0.0
C5032 C 0.61086 0.53396 0.1585 0.0
C5033 C 0.61411 0.5175 0.16638 0.0
C5034 C 0.60832 0.49963 0.15378 0.0
C5035 C 0.59975 0.49789 0.135 0.0
C5036 C 0.59665 0.51411 0.12796 0.0
C5037 C 0.60205 0.53189 0.1393 0.0
C5038 C 0.59692 0.54694 0.12779 0.0
C5039 C 0.58273 0.5576 0.13789 0.0
C5040 C 0.61476 0.56091 0.12506 0.0
C5041 C 0.58788 0.53486 0.10835 0.0
C5042 C 0.588 0.51592 0.10899 0.0
C5043 C 0.58065 0.50188 0.09309 0.0
C5044 C 0.57313 0.507 0.0763 0.0
C5045 C 0.57254 0.52623 0.07461 0.0
C5046 C 0.58019 0.54038 0.09133 0.0
H5047 H 0.29772 0.88987 0.89257 0.0
H5048 H 0.25425 0.85303 0.91574 0.0
H5049 H 0.25466 0.82711 0.88864 0.0
H5050 H 0.28049 0.87329 0.8431 0.0
H5051 H 0.3036 0.87483 0.83471 0.0
H5052 H 0.30005 0.89045 0.85605 0.0
H5053 H 0.32593 0.87876 0.87487 0.0
H5054 H 0.32951 0.86305 0.85359 0.0
H5055 H 0.32402 0.85362 0.87487 0.0
H5056 H 0.2599 0.80483 0.85883 0.0
H5057 H 0.26855 0.78867 0.82822 0.0
H5058 H 0.30854 0.83984 0.82411 0.0
C5059 C 0.28836 0.87632 0.89203 0.0
C5060 C 0.2759 0.87363 0.90641 0.0
C5061 C 0.26374 0.85566 0.90488 0.0
C5062 C 0.26397 0.84075 0.88956 0.0
C5063 C 0.2764 0.84388 0.87569 0.0
C5064 C 0.28831 0.86127 0.87672 0.0
C5065 C 0.30001 0.86102 0.85968 0.0
C5066 C 0.29578 0.87577 0.84768 0.0
C5067 C 0.32112 0.86431 0.86614 0.0
C5068 C 0.29288 0.84079 0.84896 0.0
C5069 C 0.2793 0.83112 0.85848 0.0
C5070 C 0.27054 0.81229 0.85129 0.0
C5071 C 0.2756 0.80318 0.83386 0.0
C5072 C 0.28931 0.81284 0.82364 0.0
C5073 C 0.29809 0.83191 0.83151 0.0
H5074 H 0.94534 0.51059 0.6843 0.0
H5075 H 0.9719 0.47514 0.71647 0.0
H5076 H 0.99086 0.46724 0.68966 0.0
H5077 H 0.94555 0.48171 0.6362 0.0
H5078 H 0.95089 0.50264 0.62546 0.0
H5079 H 0.93732 0.50306 0.64588 0.0
H5080 H 0.96122 0.5325 0.66393 0.0
H5081 H 0.97479 0.53219 0.64361 0.0
H5082 H 0.98582 0.53123 0.6666 0.0
H5083 H 0.0098 0.46664 0.6613 0.0
H5084 H 0.02718 0.47345 0.6336 0.0
H5085 H 0.98856 0.50974 0.62045 0.0
C5086 C 0.95496 0.50096 0.68561 0.0
C5087 C 0.95708 0.49343 0.70245 0.0
C5088 C 0.96979 0.48083 0.70359 0.0
C5089 C 0.98066 0.47629 0.68845 0.0
C5090 C 0.97852 0.48433 0.67223 0.0
C5091 C 0.9659 0.49632 0.67069 0.0
C5092 C 0.96745 0.50446 0.65254 0.0
C5093 C 0.94921 0.49755 0.63923 0.0
C5094 C 0.97264 0.52639 0.65694 0.0
C5095 C 0.98342 0.49578 0.64446 0.0
C5096 C 0.98945 0.48399 0.65587 0.0
C5097 C 1.005 0.47557 0.65208 0.0
C5098 C 0.01483 0.47959 0.63641 0.0
C5099 C 0.00909 0.49197 0.62482 0.0
C5100 C 0.99296 0.49981 0.62874 0.0
H5101 H 0.27966 0.25708 0.40877 0.0
H5102 H 0.29676 0.20233 0.39566 0.0
H5103 H 0.30073 0.20704 0.36262 0.0
H5104 H 0.25382 0.25434 0.36247 0.0
H5105 H 0.26139 0.27927 0.36177 0.0
H5106 H 0.25924 0.27147 0.38438 0.0
H5107 H 0.29392 0.28763 0.39509 0.0
H5108 H 0.29617 0.29542 0.3725 0.0
H5109 H 0.31223 0.28148 0.38056 0.0
H5110 H 0.30278 0.21739 0.33063 0.0
H5111 H 0.30379 0.2332 0.30252 0.0
H5112 H 0.28643 0.28191 0.33582 0.0
C5113 C 0.28411 0.24603 0.39891 0.0
C5114 C 0.28801 0.22933 0.40505 0.0
C5115 C 0.29395 0.21535 0.39158 0.0
C5116 C 0.29614 0.21785 0.37266 0.0
C5117 C 0.29242 0.23447 0.36715 0.0
C5118 C 0.28656 0.24838 0.37986 0.0
C5119 C 0.284 0.26513 0.37022 0.0
C5120 C 0.26339 0.2677 0.36968 0.0
C5121 C 0.29738 0.2835 0.38019 0.0
C5122 C 0.28944 0.25849 0.35024 0.0
C5123 C 0.29406 0.24067 0.34876 0.0
C5124 C 0.29925 0.23139 0.33168 0.0
C5125 C 0.29978 0.24051 0.31572 0.0
C5126 C 0.29535 0.25891 0.31682 0.0
C5127 C 0.29011 0.26794 0.33444 0.0
H5128 H 0.40664 0.56058 0.53824 0.0
H5129 H 0.41027 0.6015 0.5 0.0
H5130 H 0.44185 0.59579 0.49279 0.0
H5131 H 0.45614 0.57193 0.55667 0.0
H5132 H 0.45787 0.54757 0.5574 0.0
H5133 H 0.43563 0.55507 0.56004 0.0
H5134 H 0.42017 0.52851 0.53186 0.0
H5135 H 0.44239 0.52098 0.52911 0.0
H5136 H 0.43005 0.52722 0.50916 0.0
H5137 H 0.47394 0.58646 0.49022 0.0
H5138 H 0.50298 0.57313 0.49141 0.0
H5139 H 0.47889 0.53663 0.52972 0.0
C5140 C 0.41411 0.5684 0.5284 0.0
C5141 C 0.40564 0.58151 0.51964 0.0
C5142 C 0.41608 0.59124 0.50676 0.0
C5143 C 0.43419 0.58815 0.50262 0.0
C5144 C 0.442 0.57508 0.51128 0.0
C5145 C 0.43228 0.56524 0.52384 0.0
C5146 C 0.44389 0.55165 0.53079 0.0
C5147 C 0.44866 0.55687 0.55252 0.0
C5148 C 0.43351 0.53085 0.52488 0.0
C5149 C 0.46159 0.55541 0.52023 0.0
C5150 C 0.46023 0.56914 0.5092 0.0
C5151 C 0.47501 0.57556 0.49868 0.0
C5152 C 0.49154 0.56785 0.49942 0.0
C5153 C 0.49335 0.55353 0.51037 0.0
C5154 C 0.47797 0.54724 0.52086 0.0
H5155 H 0.90355 0.9668 0.53264 0.0
H5156 H 0.92233 0.91524 0.54218 0.0
H5157 H 0.95521 0.93109 0.54163 0.0
H5158 H 0.93739 0.97979 0.50041 0.0
H5159 H 0.94113 1.00508 0.50927 0.0
H5160 H 0.91889 0.99015 0.5113 0.0
H5161 H 0.92225 1.00242 0.54775 0.0
H5162 H 0.94453 0.01738 0.54583 0.0
H5163 H 0.94301 1.00046 0.56182 0.0
H5164 H 0.98577 0.95125 0.53807 0.0
H5165 H 0.0126 0.97494 0.53202 0.0
H5166 H 0.97548 0.01469 0.52588 0.0
C5167 C 0.9146 0.95894 0.53488 0.0
C5168 C 0.91018 0.9396 0.5373 0.0
C5169 C 0.92516 0.92986 0.53995 0.0
C5170 C 0.94397 0.93881 0.53982 0.0
C5171 C 0.9478 0.95768 0.53716 0.0
C5172 C 0.93361 0.96773 0.53481 0.0
C5173 C 0.94181 0.98773 0.53158 0.0
C5174 C 0.93436 0.99086 0.51198 0.0
C5175 C 0.93765 1.0029 0.54771 0.0
C5176 C 0.96275 0.98721 0.53224 0.0
C5177 C 0.96576 0.96967 0.53553 0.0
C5178 C 0.98362 0.96512 0.53575 0.0
C5179 C 0.99879 0.97868 0.53228 0.0
C5180 C 0.99622 0.99676 0.52875 0.0
C5181 C 0.97795 1.00118 0.52901 0.0
H5182 H 0.84048 0.14427 0.26549 0.0
H5183 H 0.89924 0.17197 0.2702 0.0
H5184 H 0.88976 0.20291 0.27177 0.0
H5185 H 0.82279 0.17639 0.23636 0.0
H5186 H 0.80139 0.17711 0.24791 0.0
H5187 H 0.81233 0.15654 0.24694 0.0
H5188 H 0.81347 0.16023 0.28357 0.0
H5189 H 0.80255 0.18081 0.28462 0.0
H5190 H 0.82474 0.18261 0.29817 0.0
H5191 H 0.8739 0.23303 0.27297 0.0
H5192 H 0.85399 0.25731 0.27367 0.0
H5193 H 0.80421 0.21297 0.26873 0.0
C5194 C 0.85152 0.15674 0.26688 0.0
C5195 C 0.8711 0.15445 0.26732 0.0
C5196 C 0.88432 0.17203 0.26922 0.0
C5197 C 0.87897 0.19021 0.27032 0.0
C5198 C 0.85993 0.19181 0.26964 0.0
C5199 C 0.8463 0.17547 0.26797 0.0
C5200 C 0.82673 0.18153 0.26755 0.0
C5201 C 0.81511 0.17234 0.24856 0.0
C5202 C 0.81624 0.17595 0.28448 0.0
C5203 C 0.83145 0.20363 0.26934 0.0
C5204 C 0.85082 0.20912 0.27049 0.0
C5205 C 0.85876 0.22858 0.27209 0.0
C5206 C 0.84708 0.24258 0.2725 0.0
C5207 C 0.82701 0.23799 0.27141 0.0
C5208 C 0.81931 0.21774 0.26977 0.0
H5209 H 0.69291 0.08884 0.04218 0.0
H5210 H 0.70349 0.05736 0.98772 0.0
H5211 H 0.66949 0.04732 0.97936 0.0
H5212 H 0.653 0.05287 0.04988 0.0
H5213 H 0.64014 0.07016 0.06109 0.0
H5214 H 0.6655 0.07558 0.06285 0.0
H5215 H 0.66442 0.10607 0.04879 0.0
H5216 H 0.63907 0.10069 0.04688 0.0
H5217 H 0.65133 0.10424 0.02611 0.0
H5218 H 0.63391 0.04132 0.97592 0.0
H5219 H 0.59979 0.03754 0.97903 0.0
H5220 H 0.61111 0.07026 0.03656 0.0
C5221 C 0.68823 0.07966 0.02855 0.0
C5222 C 0.70146 0.07441 0.01554 0.0
C5223 C 0.69416 0.06237 0.99787 0.0
C5224 C 0.67466 0.05634 0.99297 0.0
C5225 C 0.66219 0.06205 0.00591 0.0
C5226 C 0.66865 0.0732 0.02348 0.0
C5227 C 0.65206 0.07681 0.03494 0.0
C5228 C 0.65272 0.06835 0.05328 0.0
C5229 C 0.65171 0.09823 0.03944 0.0
C5230 C 0.63533 0.06605 0.02102 0.0
C5231 C 0.64157 0.05781 1.00428 0.0
C5232 C 0.62891 0.04761 0.98904 0.0
C5233 C 0.60945 0.0456 0.99093 0.0
C5234 C 0.6025 0.05351 0.00805 0.0
C5235 C 0.6158 0.0639 0.0233 0.0
H5236 H 0.23174 0.45569 0.25817 0.0
H5237 H 0.27016 0.47689 0.21871 0.0
H5238 H 0.29207 0.45659 0.22763 0.0
H5239 H 0.26694 0.45505 0.29503 0.0
H5240 H 0.25441 0.43365 0.30172 0.0
H5241 H 0.2416 0.44931 0.29165 0.0
H5242 H 0.22523 0.42127 0.26512 0.0
H5243 H 0.23787 0.40549 0.27519 0.0
H5244 H 0.23941 0.40771 0.25052 0.0
H5245 H 0.30988 0.43402 0.24147 0.0
H5246 H 0.32114 0.40991 0.25759 0.0
H5247 H 0.27151 0.40548 0.28908 0.0
C5248 C 0.2448 0.45617 0.25144 0.0
C5249 C 0.24928 0.46793 0.23779 0.0
C5250 C 0.26635 0.46783 0.22906 0.0
C5251 C 0.27894 0.45649 0.23416 0.0
C5252 C 0.27422 0.44539 0.248 0.0
C5253 C 0.2575 0.44511 0.25643 0.0
C5254 C 0.25562 0.43203 0.2709 0.0
C5255 C 0.25459 0.44318 0.29101 0.0
C5256 C 0.23852 0.41565 0.26508 0.0
C5257 C 0.2739 0.42491 0.26932 0.0
C5258 C 0.28449 0.43276 0.25608 0.0
C5259 C 0.30174 0.42787 0.25193 0.0
C5260 C 0.3081 0.4143 0.26128 0.0
C5261 C 0.29721 0.40582 0.2746 0.0
C5262 C 0.28009 0.41156 0.27886 0.0
H5263 H 0.23097 0.43064 1.00205 0.0
H5264 H 0.24427 0.44957 0.06305 0.0
H5265 H 0.22005 0.46959 0.06351 0.0
H5266 H 0.22309 0.47548 0.99155 0.0
H5267 H 0.20392 0.46503 0.97357 0.0
H5268 H 0.22208 0.45191 0.97806 0.0
H5269 H 0.19687 0.42391 0.98424 0.0
H5270 H 0.17863 0.43694 0.97975 0.0
H5271 H 0.18063 0.42833 1.00192 0.0
H5272 H 0.19419 0.48752 0.0574 0.0
H5273 H 0.16951 0.50288 0.04499 0.0
H5274 H 0.17285 0.47238 0.98792 0.0
C5275 C 0.22869 0.43888 0.01553 0.0
C5276 C 0.23959 0.43851 0.03253 0.0
C5277 C 0.2363 0.44975 0.04981 0.0
C5278 C 0.22247 0.46109 0.05024 0.0
C5279 C 0.21202 0.46114 0.03325 0.0
C5280 C 0.215 0.45038 0.0162 0.0
C5281 C 0.20206 0.45329 0.99991 0.0
C5282 C 0.21348 0.46194 0.98489 0.0
C5283 C 0.18876 0.4345 0.99093 0.0
C5284 C 0.19138 0.46738 0.01046 0.0
C5285 C 0.19727 0.47163 0.0297 0.0
C5286 C 0.18945 0.48425 0.04236 0.0
C5287 C 0.17533 0.49283 0.03518 0.0
C5288 C 0.16914 0.48887 0.01547 0.0
C5289 C 0.17735 0.47589 1.00302 0.0
H5290 H 0.83876 0.94104 0.2559 0.0
H5291 H 0.89757 0.93891 0.26795 0.0
H5292 H 0.88877 0.90486 0.26953 0.0
H5293 H 0.82057 0.9083 0.28767 0.0
H5294 H 0.79978 0.89671 0.27218 0.0
H5295 H 0.81036 0.92103 0.27141 0.0
H5296 H 0.81302 0.91185 0.23528 0.0
H5297 H 0.80244 0.8875 0.23595 0.0
H5298 H 0.82505 0.89281 0.22671 0.0
H5299 H 0.87378 0.86972 0.26964 0.0
H5300 H 0.85424 0.8381 0.26939 0.0
H5301 H 0.80404 0.86075 0.2584 0.0
C5302 C 0.84986 0.93345 0.25877 0.0
C5303 C 0.86917 0.94351 0.26191 0.0
C5304 C 0.88279 0.93237 0.26575 0.0
C5305 C 0.87787 0.91267 0.26658 0.0
C5306 C 0.85898 0.9034 0.26369 0.0
C5307 C 0.84509 0.91344 0.25993 0.0
C5308 C 0.82577 0.89981 0.25783 0.0
C5309 C 0.81338 0.90689 0.27318 0.0
C5310 C 0.81599 0.89788 0.23775 0.0
C5311 C 0.83095 0.88068 0.26092 0.0
C5312 C 0.85029 0.8832 0.26415 0.0
C5313 C 0.85863 0.86779 0.26716 0.0
C5314 C 0.84725 0.8496 0.26697 0.0
C5315 C 0.82725 0.84618 0.26393 0.0
C5316 C 0.81915 0.86234 0.26085 0.0
H5317 H 0.73492 0.13911 0.75593 0.0
H5318 H 0.73736 0.1257 0.69474 0.0
H5319 H 0.75 0.15974 0.69429 0.0
H5320 H 0.71904 0.18264 0.75621 0.0
H5321 H 0.73238 0.19454 0.77833 0.0
H5322 H 0.72481 0.16904 0.77393 0.0
H5323 H 0.75933 0.16488 0.77991 0.0
H5324 H 0.76697 0.19039 0.78447 0.0
H5325 H 0.77716 0.17584 0.76644 0.0
H5326 H 0.76248 0.19535 0.70085 0.0
H5327 H 0.77239 0.22989 0.7136 0.0
H5328 H 0.75978 0.21963 0.77012 0.0
C5329 C 0.73841 0.14334 0.7425 0.0
C5330 C 0.73543 0.12991 0.7254 0.0
C5331 C 0.73966 0.1359 0.70798 0.0
C5332 C 0.74685 0.15513 0.70761 0.0
C5333 C 0.74947 0.16809 0.72476 0.0
C5334 C 0.74529 0.16245 0.74186 0.0
C5335 C 0.74851 0.17923 0.75814 0.0
C5336 C 0.73009 0.18149 0.76718 0.0
C5337 C 0.76391 0.17748 0.77312 0.0
C5338 C 0.7551 0.19524 0.74755 0.0
C5339 C 0.75579 0.18856 0.72835 0.0
C5340 C 0.76191 0.20076 0.71583 0.0
C5341 C 0.7675 0.2203 0.72318 0.0
C5342 C 0.76662 0.22738 0.74277 0.0
C5343 C 0.76029 0.21465 0.75502 0.0
loop_
_geom_bond_atom_site_label_1
_geom_bond_atom_site_label_2
_geom_bond_distance
_geom_bond_site_symmetry_2
_ccdc_geom_bond_type
Li0 N17 1.990 . S
Li0 O60 1.956 . S
Li0 O61 1.970 . S
Li0 O62 1.961 . S
Li1 N25 1.990 . S
Li1 O60 1.970 . S
Li1 O61 1.956 . S
Li1 O63 1.961 . S
Li2 N47 1.990 . S
Li2 O60 1.961 . S
Li2 O62 1.956 . S
Li2 O63 1.970 . S
Li3 N53 1.990 . S
Li3 O61 1.961 . S
Li3 O62 1.970 . S
Li3 O63 1.956 . S
C4 C6 1.348 . S
C4 C7 1.356 . S
C4 O60 1.325 . S
N5 C8 1.314 . S
N5 C9 1.279 . S
C6 C4 1.348 . S
C6 C8 1.353 . S
C6 H64 0.929 . S
C7 C4 1.356 . S
C7 C9 1.358 . S
C7 H65 0.930 . S
C8 N5 1.314 . S
C8 C6 1.353 . S
C8 H66 0.930 . S
C9 N5 1.279 . S
C9 C7 1.358 . S
C9 H67 0.930 . S
C10 C13 1.348 . S
C10 C14 1.356 . S
C10 O61 1.325 . S
C11 N12 1.279 . S
C11 C14 1.358 . S
C11 H68 0.930 . S
N12 C11 1.279 . S
N12 C15 1.314 . S
C13 C10 1.348 . S
C13 C15 1.353 . S
C13 H69 0.929 . S
C14 C10 1.356 . S
C14 C11 1.358 . S
C14 H70 0.930 . S
C15 N12 1.314 . S
C15 C13 1.353 . S
C15 H71 0.930 1_455 S
C16 N17 1.314 . S
C16 C21 1.353 . S
C16 H22 0.930 . S
N17 Li0 1.990 . S
N17 C16 1.314 . S
N17 C19 1.279 . S
C18 C19 1.358 . S
C18 C20 1.356 1_455 S
C18 H72 0.930 . S
C19 N17 1.279 . S
C19 C18 1.358 . S
C19 H23 0.930 . S
C20 C18 1.356 1_655 S
C20 C21 1.348 1_655 S
C21 C16 1.353 . S
C21 C20 1.348 1_455 S
C21 H73 0.929 1_455 S
H22 C16 0.930 . S
H23 C19 0.930 . S
C24 N25 1.314 . S
C24 C26 1.353 . S
C24 H30 0.930 . S
N25 Li1 1.990 . S
N25 C24 1.314 . S
N25 C28 1.279 . S
C26 C24 1.353 . S
C26 C29 1.348 . S
C26 H74 0.929 . S
C27 C28 1.358 . S
C27 C29 1.356 . S
C27 H75 0.930 . S
C28 N25 1.279 . S
C28 C27 1.358 . S
C28 H31 0.930 . S
C29 C26 1.348 . S
C29 C27 1.356 . S
H30 C24 0.930 . S
H31 C28 0.930 . S
C32 C34 1.348 . S
C32 C35 1.356 . S
C32 O62 1.325 . S
N33 C36 1.314 . S
N33 C37 1.279 . S
C34 C32 1.348 . S
C34 C36 1.353 . S
C34 H76 0.929 . S
C35 C32 1.356 . S
C35 C37 1.358 . S
C35 H77 0.930 . S
C36 N33 1.314 . S
C36 C34 1.353 . S
C36 H78 0.930 . S
C37 N33 1.279 . S
C37 C35 1.358 . S
C37 H79 0.930 . S
C38 C39 1.348 . S
C38 C40 1.356 . S
C38 O63 1.325 . S
C39 C38 1.348 . S
C39 C41 1.353 . S
C39 H80 0.929 . S
C40 C38 1.356 . S
C40 C42 1.358 . S
C40 H81 0.930 . S
C41 C39 1.353 . S
C41 N43 1.314 . S
C41 H82 0.930 . S
C42 C40 1.358 . S
C42 N43 1.279 . S
C42 H83 0.930 . S
N43 C41 1.314 . S
N43 C42 1.279 . S
C44 C46 1.353 . S
C44 N47 1.314 . S
C44 H50 0.930 . S
C45 N47 1.279 . S
C45 C48 1.358 . S
C45 H51 0.930 . S
C46 C44 1.353 . S
C46 C49 1.348 . S
C46 H84 0.929 . S
N47 Li2 1.990 . S
N47 C44 1.314 . S
N47 C45 1.279 . S
C48 C45 1.358 . S
C48 C49 1.356 . S
C48 H85 0.930 . S
C49 C46 1.348 . S
C49 C48 1.356 . S
H50 C44 0.930 . S
H51 C45 0.930 . S
C52 N53 1.314 . S
C52 C54 1.353 . S
C52 H58 0.930 . S
N53 Li3 1.990 . S
N53 C52 1.314 . S
N53 C56 1.279 . S
C54 C52 1.353 . S
C54 C57 1.348 . S
C54 H86 0.929 . S
C55 C56 1.358 . S
C55 C57 1.356 . S
C55 H87 0.930 . S
C56 N53 1.279 . S
C56 C55 1.358 . S
C56 H59 0.930 . S
C57 C54 1.348 . S
C57 C55 1.356 . S
H58 C52 0.930 . S
H59 C56 0.930 . S
O60 Li0 1.956 . S
O60 Li1 1.970 . S
O60 Li2 1.961 . S
O60 C4 1.325 . S
O61 Li0 1.970 . S
O61 Li1 1.956 . S
O61 Li3 1.961 . S
O61 C10 1.325 . S
O62 Li0 1.961 . S
O62 Li2 1.956 . S
O62 Li3 1.970 . S
O62 C32 1.325 . S
O63 Li1 1.961 . S
O63 Li2 1.970 . S
O63 Li3 1.956 . S
O63 C38 1.325 . S
H64 C6 0.929 . S
H65 C7 0.930 . S
H66 C8 0.930 . S
H67 C9 0.930 . S
H68 C11 0.930 . S
H69 C13 0.929 . S
H70 C14 0.930 . S
H71 C15 0.930 1_655 S
H72 C18 0.930 . S
H73 C21 0.929 1_655 S
H74 C26 0.929 . S
H75 C27 0.930 . S
H76 C34 0.929 . S
H77 C35 0.930 . S
H78 C36 0.930 . S
H79 C37 0.930 . S
H80 C39 0.929 . S
H81 C40 0.930 . S
H82 C41 0.930 . S
H83 C42 0.930 . S
H84 C46 0.929 . S
H85 C48 0.930 . S
H86 C54 0.929 . S
H87 C55 0.930 . S
Li88 N105 1.990 . S
Li88 O148 1.956 . S
Li88 O149 1.970 . S
Li88 O150 1.961 1_455 S
Li89 N113 1.990 . S
Li89 O148 1.970 . S
Li89 O149 1.956 . S
Li89 O151 1.938 1_455 S
Li90 N135 1.990 . S
Li90 O148 1.961 1_655 S
Li90 O150 1.956 . S
Li90 O151 1.971 . S
Li91 N141 1.990 . S
Li91 O149 1.961 1_655 S
Li91 O150 1.970 . S
Li91 O151 1.987 . S
C92 C94 1.348 . S
C92 C95 1.356 . S
C92 O148 1.325 . S
N93 C96 1.314 . S
N93 C97 1.279 . S
C94 C92 1.348 . S
C94 C96 1.353 . S
C94 H152 0.929 . S
C95 C92 1.356 . S
C95 C97 1.358 . S
C95 H153 0.930 . S
C96 N93 1.314 . S
C96 C94 1.353 . S
C96 H154 0.930 . S
C97 N93 1.279 . S
C97 C95 1.358 . S
C97 H155 0.930 . S
C98 C101 1.348 . S
C98 C102 1.356 . S
C98 O149 1.325 . S
C99 N100 1.279 . S
C99 C102 1.358 . S
C99 H156 0.930 . S
N100 C99 1.279 . S
N100 C103 1.314 . S
C101 C98 1.348 . S
C101 C103 1.353 . S
C101 H157 0.929 . S
C102 C98 1.356 . S
C102 C99 1.358 . S
C102 H158 0.924 1_455 S
C103 N100 1.314 . S
C103 C101 1.353 . S
C103 H159 0.930 . S
C104 N105 1.314 1_655 S
C104 C109 1.353 . S
C104 H110 0.930 . S
N105 Li88 1.990 . S
N105 C104 1.314 1_455 S
N105 C107 1.279 . S
C106 C107 1.358 . S
C106 C108 1.356 . S
C106 H160 0.930 . S
C107 N105 1.279 . S
C107 C106 1.358 . S
C107 H111 0.930 . S
C108 C106 1.356 . S
C108 C109 1.348 1_455 S
C109 C104 1.353 . S
C109 C108 1.348 1_655 S
C109 H161 0.929 . S
H110 C104 0.930 . S
H111 C107 0.930 . S
C112 N113 1.314 . S
C112 C114 1.353 . S
C112 H118 0.930 . S
N113 Li89 1.990 . S
N113 C112 1.314 . S
N113 C116 1.279 . S
C114 C112 1.353 . S
C114 C117 1.348 . S
C114 H162 0.929 . S
C115 C116 1.358 . S
C115 C117 1.356 . S
C115 H163 0.930 . S
C116 N113 1.279 . S
C116 C115 1.358 . S
C116 H119 0.930 . S
C117 C114 1.348 . S
C117 C115 1.356 . S
H118 C112 0.930 . S
H119 C116 0.930 . S
C120 C122 1.348 . S
C120 C123 1.356 . S
C120 O150 1.325 . S
N121 C124 1.314 . S
N121 C125 1.279 . S
C122 C120 1.348 . S
C122 C124 1.353 . S
C122 H164 0.929 . S
C123 C120 1.356 . S
C123 C125 1.358 . S
C123 H165 0.930 . S
C124 N121 1.314 . S
C124 C122 1.353 . S
C124 H166 0.930 . S
C125 N121 1.279 . S
C125 C123 1.358 . S
C125 H167 0.930 . S
C126 C127 1.348 . S
C126 C128 1.356 1_655 S
C126 O151 1.324 . S
C127 C126 1.348 . S
C127 C129 1.353 . S
C127 H168 0.929 . S
C128 C126 1.356 1_455 S
C128 C130 1.358 . S
C128 H169 0.930 . S
C129 C127 1.353 . S
C129 N131 1.314 . S
C129 H170 0.930 . S
C130 C128 1.358 . S
C130 N131 1.272 1_455 S
C130 H171 0.945 . S
N131 C129 1.314 . S
N131 C130 1.272 1_655 S
C132 C134 1.353 . S
C132 N135 1.314 1_455 S
C132 H138 0.930 . S
C133 N135 1.279 . S
C133 C136 1.358 . S
C133 H139 0.930 . S
C134 C132 1.353 . S
C134 C137 1.348 1_455 S
C134 H172 0.929 . S
N135 Li90 1.990 . S
N135 C132 1.314 1_655 S
N135 C133 1.279 . S
C136 C133 1.358 . S
C136 C137 1.356 . S
C136 H173 0.930 . S
C137 C134 1.348 1_655 S
C137 C136 1.356 . S
H138 C132 0.930 . S
H139 C133 0.930 . S
C140 N141 1.314 . S
C140 C142 1.353 . S
C140 H146 0.930 . S
N141 Li91 1.990 . S
N141 C140 1.314 . S
N141 C144 1.279 . S
C142 C140 1.353 . S
C142 C145 1.348 . S
C142 H174 0.929 . S
C143 C144 1.358 . S
C143 C145 1.356 . S
C143 H175 0.930 . S
C144 N141 1.279 . S
C144 C143 1.358 . S
C144 H147 0.930 . S
C145 C142 1.348 . S
C145 C143 1.356 . S
H146 C140 0.930 . S
H147 C144 0.930 . S
O148 Li88 1.956 . S
O148 Li89 1.970 . S
O148 Li90 1.961 1_455 S
O148 C92 1.325 . S
O149 Li88 1.970 . S
O149 Li89 1.956 . S
O149 Li91 1.961 1_455 S
O149 C98 1.325 . S
O150 Li88 1.961 1_655 S
O150 Li90 1.956 . S
O150 Li91 1.970 . S
O150 C120 1.325 . S
O151 Li89 1.938 1_655 S
O151 Li90 1.971 . S
O151 Li91 1.987 . S
O151 C126 1.324 . S
H152 C94 0.929 . S
H153 C95 0.930 . S
H154 C96 0.930 . S
H155 C97 0.930 . S
H156 C99 0.930 . S
H157 C101 0.929 . S
H158 C102 0.924 1_655 S
H159 C103 0.930 . S
H160 C106 0.930 . S
H161 C109 0.929 . S
H162 C114 0.929 . S
H163 C115 0.930 . S
H164 C122 0.929 . S
H165 C123 0.930 . S
H166 C124 0.930 . S
H167 C125 0.930 . S
H168 C127 0.929 . S
H169 C128 0.930 . S
H170 C129 0.930 . S
H171 C130 0.945 . S
H172 C134 0.929 . S
H173 C136 0.930 . S
H174 C142 0.929 . S
H175 C143 0.930 . S
Li176 N193 1.990 . S
Li176 O236 1.956 . S
Li176 O237 1.970 . S
Li176 O238 1.961 . S
Li177 N201 1.990 . S
Li177 O236 1.970 . S
Li177 O237 1.956 . S
Li177 O239 1.961 . S
Li178 N223 1.990 . S
Li178 O236 1.961 . S
Li178 O238 1.956 . S
Li178 O239 1.970 . S
Li179 N229 1.990 . S
Li179 O237 1.961 . S
Li179 O238 1.970 . S
Li179 O239 1.956 . S
C180 C182 1.348 . S
C180 C183 1.356 . S
C180 O236 1.325 . S
N181 C184 1.314 . S
N181 C185 1.279 . S
C182 C180 1.348 . S
C182 C184 1.353 . S
C182 H240 0.929 . S
C183 C180 1.356 . S
C183 C185 1.358 . S
C183 H241 0.930 . S
C184 N181 1.314 . S
C184 C182 1.353 . S
C184 H242 0.930 . S
C185 N181 1.279 . S
C185 C183 1.358 . S
C185 H243 0.930 . S
C186 C189 1.348 . S
C186 C190 1.356 . S
C186 O237 1.325 . S
C187 N188 1.279 . S
C187 C190 1.358 . S
C187 H244 0.930 . S
N188 C187 1.279 . S
N188 C191 1.314 . S
C189 C186 1.348 . S
C189 C191 1.353 . S
C189 H245 0.929 . S
C190 C186 1.356 . S
C190 C187 1.358 . S
C190 H246 0.930 . S
C191 N188 1.314 . S
C191 C189 1.353 . S
C191 H247 0.930 . S
C192 N193 1.314 . S
C192 C197 1.353 . S
C192 H198 0.930 . S
N193 Li176 1.990 . S
N193 C192 1.314 . S
N193 C195 1.279 . S
C194 C195 1.358 . S
C194 C196 1.356 . S
C194 H248 0.930 . S
C195 N193 1.279 . S
C195 C194 1.358 . S
C195 H199 0.930 . S
C196 C194 1.356 . S
C196 C197 1.348 . S
C197 C192 1.353 . S
C197 C196 1.348 . S
C197 H249 0.929 . S
H198 C192 0.930 . S
H199 C195 0.930 . S
C200 N201 1.314 . S
C200 C202 1.353 . S
C200 H206 0.930 . S
N201 Li177 1.990 . S
N201 C200 1.314 . S
N201 C204 1.279 . S
C202 C200 1.353 . S
C202 C205 1.348 . S
C202 H250 0.929 . S
C203 C204 1.358 . S
C203 C205 1.356 . S
C203 H251 0.930 . S
C204 N201 1.279 . S
C204 C203 1.358 . S
C204 H207 0.930 . S
C205 C202 1.348 . S
C205 C203 1.356 . S
H206 C200 0.930 . S
H207 C204 0.930 . S
C208 C210 1.348 . S
C208 C211 1.356 . S
C208 O238 1.325 . S
N209 C212 1.314 . S
N209 C213 1.279 . S
C210 C208 1.348 . S
C210 C212 1.353 . S
C210 H252 0.929 . S
C211 C208 1.356 . S
C211 C213 1.358 . S
C211 H253 0.930 . S
C212 N209 1.314 . S
C212 C210 1.353 . S
C212 H254 0.930 . S
C213 N209 1.279 . S
C213 C211 1.358 . S
C213 H255 0.930 . S
C214 C215 1.348 . S
C214 C216 1.356 . S
C214 O239 1.325 . S
C215 C214 1.348 . S
C215 C217 1.353 . S
C215 H256 0.929 . S
C216 C214 1.356 . S
C216 C218 1.358 . S
C216 H257 0.930 . S
C217 C215 1.353 . S
C217 N219 1.314 . S
C217 H258 0.930 . S
C218 C216 1.358 . S
C218 N219 1.279 . S
C218 H259 0.930 . S
N219 C217 1.314 . S
N219 C218 1.279 . S
C220 C222 1.353 . S
C220 N223 1.314 . S
C220 H226 0.930 . S
C221 N223 1.279 . S
C221 C224 1.358 . S
C221 H227 0.930 . S
C222 C220 1.353 . S
C222 C225 1.348 . S
C222 H260 0.929 . S
N223 Li178 1.990 . S
N223 C220 1.314 . S
N223 C221 1.279 . S
C224 C221 1.358 . S
C224 C225 1.356 . S
C224 H261 0.930 . S
C225 C222 1.348 . S
C225 C224 1.356 . S
H226 C220 0.930 . S
H227 C221 0.930 . S
C228 N229 1.314 . S
C228 C230 1.353 . S
C228 H234 0.930 . S
N229 Li179 1.990 . S
N229 C228 1.314 . S
N229 C232 1.279 . S
C230 C228 1.353 . S
C230 C233 1.348 . S
C230 H262 0.929 . S
C231 C232 1.358 . S
C231 C233 1.356 . S
C231 H263 0.930 . S
C232 N229 1.279 . S
C232 C231 1.358 . S
C232 H235 0.930 . S
C233 C230 1.348 . S
C233 C231 1.356 . S
H234 C228 0.930 . S
H235 C232 0.930 . S
O236 Li176 1.956 . S
O236 Li177 1.970 . S
O236 Li178 1.961 . S
O236 C180 1.325 . S
O237 Li176 1.970 . S
O237 Li177 1.956 . S
O237 Li179 1.961 . S
O237 C186 1.325 . S
O238 Li176 1.961 . S
O238 Li178 1.956 . S
O238 Li179 1.970 . S
O238 C208 1.325 . S
O239 Li177 1.961 . S
O239 Li178 1.970 . S
O239 Li179 1.956 . S
O239 C214 1.325 . S
H240 C182 0.929 . S
H241 C183 0.930 . S
H242 C184 0.930 . S
H243 C185 0.930 . S
H244 C187 0.930 . S
H245 C189 0.929 . S
H246 C190 0.930 . S
H247 C191 0.930 . S
H248 C194 0.930 . S
H249 C197 0.929 . S
H250 C202 0.929 . S
H251 C203 0.930 . S
H252 C210 0.929 . S
H253 C211 0.930 . S
H254 C212 0.930 . S
H255 C213 0.930 . S
H256 C215 0.929 . S
H257 C216 0.930 . S
H258 C217 0.930 . S
H259 C218 0.930 . S
H260 C222 0.929 . S
H261 C224 0.930 . S
H262 C230 0.929 . S
H263 C231 0.930 . S
Li264 N281 1.990 . S
Li264 O324 1.956 . S
Li264 O325 1.970 . S
Li264 O326 1.961 . S
Li265 N289 1.990 . S
Li265 O324 1.970 . S
Li265 O325 1.956 . S
Li265 O327 1.961 . S
Li266 N311 1.990 . S
Li266 O324 1.961 . S
Li266 O326 1.956 . S
Li266 O327 1.970 . S
Li267 N317 1.990 . S
Li267 O325 1.961 . S
Li267 O326 1.970 . S
Li267 O327 1.956 . S
C268 C270 1.348 . S
C268 C271 1.356 . S
C268 O324 1.325 . S
N269 C272 1.314 . S
N269 C273 1.279 . S
C270 C268 1.348 . S
C270 C272 1.353 . S
C270 H328 0.929 . S
C271 C268 1.356 . S
C271 C273 1.358 . S
C271 H329 0.930 . S
C272 N269 1.314 . S
C272 C270 1.353 . S
C272 H330 0.930 . S
C273 N269 1.279 . S
C273 C271 1.358 . S
C273 H331 0.930 . S
C274 C277 1.348 . S
C274 C278 1.356 . S
C274 O325 1.325 . S
C275 N276 1.279 . S
C275 C278 1.358 . S
C275 H332 0.930 . S
N276 C275 1.279 . S
N276 C279 1.314 . S
C277 C274 1.348 . S
C277 C279 1.353 . S
C277 H333 0.929 . S
C278 C274 1.356 . S
C278 C275 1.358 . S
C278 H334 0.930 . S
C279 N276 1.314 . S
C279 C277 1.353 . S
C279 H335 0.930 . S
C280 N281 1.314 . S
C280 C285 1.353 . S
C280 H286 0.930 . S
N281 Li264 1.990 . S
N281 C280 1.314 . S
N281 C283 1.279 . S
C282 C283 1.358 . S
C282 C284 1.356 . S
C282 H336 0.930 . S
C283 N281 1.279 . S
C283 C282 1.358 . S
C283 H287 0.930 . S
C284 C282 1.356 . S
C284 C285 1.348 . S
C285 C280 1.353 . S
C285 C284 1.348 . S
C285 H337 0.929 . S
H286 C280 0.930 . S
H287 C283 0.930 . S
C288 N289 1.314 . S
C288 C290 1.353 . S
C288 H294 0.930 . S
N289 Li265 1.990 . S
N289 C288 1.314 . S
N289 C292 1.279 . S
C290 C288 1.353 . S
C290 C293 1.348 . S
C290 H338 0.929 . S
C291 C292 1.358 . S
C291 C293 1.356 . S
C291 H339 0.930 . S
C292 N289 1.279 . S
C292 C291 1.358 . S
C292 H295 0.930 . S
C293 C290 1.348 . S
C293 C291 1.356 . S
H294 C288 0.930 . S
H295 C292 0.930 . S
C296 C298 1.348 . S
C296 C299 1.356 . S
C296 O326 1.325 . S
N297 C300 1.314 . S
N297 C301 1.279 . S
C298 C296 1.348 . S
C298 C300 1.353 . S
C298 H340 0.929 . S
C299 C296 1.356 . S
C299 C301 1.358 . S
C299 H341 0.930 . S
C300 N297 1.314 . S
C300 C298 1.353 . S
C300 H342 0.930 . S
C301 N297 1.279 . S
C301 C299 1.358 . S
C301 H343 0.930 . S
C302 C303 1.348 . S
C302 C304 1.356 . S
C302 O327 1.325 . S
C303 C302 1.348 . S
C303 C305 1.353 . S
C303 H344 0.929 . S
C304 C302 1.356 . S
C304 C306 1.358 . S
C304 H345 0.930 . S
C305 C303 1.353 . S
C305 N307 1.314 . S
C305 H346 0.930 . S
C306 C304 1.358 . S
C306 N307 1.279 . S
C306 H347 0.930 . S
N307 C305 1.314 . S
N307 C306 1.279 . S
C308 C310 1.353 . S
C308 N311 1.314 . S
C308 H314 0.930 . S
C309 N311 1.279 . S
C309 C312 1.358 . S
C309 H315 0.930 . S
C310 C308 1.353 . S
C310 C313 1.348 . S
C310 H348 0.929 . S
N311 Li266 1.990 . S
N311 C308 1.314 . S
N311 C309 1.279 . S
C312 C309 1.358 . S
C312 C313 1.356 . S
C312 H349 0.930 . S
C313 C310 1.348 . S
C313 C312 1.356 . S
H314 C308 0.930 . S
H315 C309 0.930 . S
C316 N317 1.314 . S
C316 C318 1.353 . S
C316 H322 0.930 . S
N317 Li267 1.990 . S
N317 C316 1.314 . S
N317 C320 1.279 . S
C318 C316 1.353 . S
C318 C321 1.348 . S
C318 H350 0.929 . S
C319 C320 1.358 . S
C319 C321 1.356 . S
C319 H351 0.930 . S
C320 N317 1.279 . S
C320 C319 1.358 . S
C320 H323 0.930 . S
C321 C318 1.348 . S
C321 C319 1.356 . S
H322 C316 0.930 . S
H323 C320 0.930 . S
O324 Li264 1.956 . S
O324 Li265 1.970 . S
O324 Li266 1.961 . S
O324 C268 1.325 . S
O325 Li264 1.970 . S
O325 Li265 1.956 . S
O325 Li267 1.961 . S
O325 C274 1.325 . S
O326 Li264 1.961 . S
O326 Li266 1.956 . S
O326 Li267 1.970 . S
O326 C296 1.325 . S
O327 Li265 1.961 . S
O327 Li266 1.970 . S
O327 Li267 1.956 . S
O327 C302 1.325 . S
H328 C270 0.929 . S
H329 C271 0.930 . S
H330 C272 0.930 . S
H331 C273 0.930 . S
H332 C275 0.930 . S
H333 C277 0.929 . S
H334 C278 0.930 . S
H335 C279 0.930 . S
H336 C282 0.930 . S
H337 C285 0.929 . S
H338 C290 0.929 . S
H339 C291 0.930 . S
H340 C298 0.929 . S
H341 C299 0.930 . S
H342 C300 0.930 . S
H343 C301 0.930 . S
H344 C303 0.929 . S
H345 C304 0.930 . S
H346 C305 0.930 . S
H347 C306 0.930 . S
H348 C310 0.929 . S
H349 C312 0.930 . S
H350 C318 0.929 . S
H351 C319 0.930 . S
Li352 N369 1.990 . S
Li352 O412 1.956 . S
Li352 O413 1.970 . S
Li352 O414 1.961 . S
Li353 N377 1.990 . S
Li353 O412 1.970 . S
Li353 O413 1.956 . S
Li353 O415 1.961 . S
Li354 N399 1.990 . S
Li354 O412 1.961 . S
Li354 O414 1.956 . S
Li354 O415 1.970 . S
Li355 N405 1.990 . S
Li355 O413 1.961 . S
Li355 O414 1.970 . S
Li355 O415 1.956 . S
C356 C358 1.348 . S
C356 C359 1.356 . S
C356 O412 1.325 . S
N357 C360 1.314 . S
N357 C361 1.279 . S
C358 C356 1.348 . S
C358 C360 1.353 . S
C358 H416 0.929 . S
C359 C356 1.356 . S
C359 C361 1.358 . S
C359 H417 0.930 . S
C360 N357 1.314 . S
C360 C358 1.353 . S
C360 H418 0.930 . S
C361 N357 1.279 . S
C361 C359 1.358 . S
C361 H419 0.930 . S
C362 C365 1.348 . S
C362 C366 1.356 . S
C362 O413 1.325 . S
C363 N364 1.279 . S
C363 C366 1.358 . S
C363 H420 0.930 . S
N364 C363 1.279 . S
N364 C367 1.314 . S
C365 C362 1.348 . S
C365 C367 1.353 . S
C365 H421 0.929 . S
C366 C362 1.356 . S
C366 C363 1.358 . S
C366 H422 0.930 . S
C367 N364 1.314 . S
C367 C365 1.353 . S
C367 H423 0.930 . S
C368 N369 1.314 . S
C368 C373 1.353 . S
C368 H374 0.930 . S
N369 Li352 1.990 . S
N369 C368 1.314 . S
N369 C371 1.279 . S
C370 C371 1.358 . S
C370 C372 1.356 . S
C370 H424 0.930 . S
C371 N369 1.279 . S
C371 C370 1.358 . S
C371 H375 0.930 . S
C372 C370 1.356 . S
C372 C373 1.348 . S
C373 C368 1.353 . S
C373 C372 1.348 . S
C373 H425 0.929 . S
H374 C368 0.930 . S
H375 C371 0.930 . S
C376 N377 1.314 . S
C376 C378 1.353 . S
C376 H382 0.930 . S
N377 Li353 1.990 . S
N377 C376 1.314 . S
N377 C380 1.279 . S
C378 C376 1.353 . S
C378 C381 1.348 . S
C378 H426 0.929 . S
C379 C380 1.358 . S
C379 C381 1.356 . S
C379 H427 0.930 . S
C380 N377 1.279 . S
C380 C379 1.358 . S
C380 H383 0.930 . S
C381 C378 1.348 . S
C381 C379 1.356 . S
H382 C376 0.930 . S
H383 C380 0.930 . S
C384 C386 1.348 . S
C384 C387 1.356 . S
C384 O414 1.325 . S
N385 C388 1.314 . S
N385 C389 1.279 1_655 S
C386 C384 1.348 . S
C386 C388 1.353 1_455 S
C386 H428 0.929 . S
C387 C384 1.356 . S
C387 C389 1.358 . S
C387 H429 0.930 . S
C388 N385 1.314 . S
C388 C386 1.353 1_655 S
C388 H430 0.930 . S
C389 N385 1.279 1_455 S
C389 C387 1.358 . S
C389 H431 0.930 . S
C390 C391 1.348 . S
C390 C392 1.356 . S
C390 O415 1.325 . S
C391 C390 1.348 . S
C391 C393 1.353 . S
C391 H432 0.929 . S
C392 C390 1.356 . S
C392 C394 1.358 . S
C392 H433 0.930 . S
C393 C391 1.353 . S
C393 N395 1.314 . S
C393 H434 0.930 . S
C394 C392 1.358 . S
C394 N395 1.279 . S
C394 H435 0.930 . S
N395 C393 1.314 . S
N395 C394 1.279 . S
C396 C398 1.353 . S
C396 N399 1.314 . S
C396 H402 0.930 . S
C397 N399 1.279 . S
C397 C400 1.358 . S
C397 H403 0.930 . S
C398 C396 1.353 . S
C398 C401 1.348 . S
C398 H436 0.929 . S
N399 Li354 1.990 . S
N399 C396 1.314 . S
N399 C397 1.279 . S
C400 C397 1.358 . S
C400 C401 1.356 . S
C400 H437 0.930 . S
C401 C398 1.348 . S
C401 C400 1.356 . S
H402 C396 0.930 . S
H403 C397 0.930 . S
C404 N405 1.314 . S
C404 C406 1.407 . S
C404 H410 0.930 . S
N405 Li355 1.990 . S
N405 C404 1.314 . S
N405 C408 1.279 . S
C406 C404 1.407 . S
C406 C409 1.330 1_455 S
C406 H438 0.897 1_455 S
C407 C408 1.358 . S
C407 C409 1.356 1_455 S
C407 H439 0.930 1_455 S
C408 N405 1.279 . S
C408 C407 1.358 . S
C408 H411 0.930 . S
C409 C406 1.330 1_655 S
C409 C407 1.356 1_655 S
H410 C404 0.930 . S
H411 C408 0.930 . S
O412 Li352 1.956 . S
O412 Li353 1.970 . S
O412 Li354 1.961 . S
O412 C356 1.325 . S
O413 Li352 1.970 . S
O413 Li353 1.956 . S
O413 Li355 1.961 . S
O413 C362 1.325 . S
O414 Li352 1.961 . S
O414 Li354 1.956 . S
O414 Li355 1.970 . S
O414 C384 1.325 . S
O415 Li353 1.961 . S
O415 Li354 1.970 . S
O415 Li355 1.956 . S
O415 C390 1.325 . S
H416 C358 0.929 . S
H417 C359 0.930 . S
H418 C360 0.930 . S
H419 C361 0.930 . S
H420 C363 0.930 . S
H421 C365 0.929 . S
H422 C366 0.930 . S
H423 C367 0.930 . S
H424 C370 0.930 . S
H425 C373 0.929 . S
H426 C378 0.929 . S
H427 C379 0.930 . S
H428 C386 0.929 . S
H429 C387 0.930 . S
H430 C388 0.930 . S
H431 C389 0.930 . S
H432 C391 0.929 . S
H433 C392 0.930 . S
H434 C393 0.930 . S
H435 C394 0.930 . S
H436 C398 0.929 . S
H437 C400 0.930 . S
H438 C406 0.897 1_655 S
H439 C407 0.930 1_655 S
Li440 N457 1.990 . S
Li440 O500 1.956 . S
Li440 O501 1.970 . S
Li440 O502 1.961 . S
Li441 N465 1.990 . S
Li441 O500 1.970 . S
Li441 O501 1.956 . S
Li441 O503 1.961 . S
Li442 N487 1.990 . S
Li442 O500 1.961 . S
Li442 O502 1.956 . S
Li442 O503 1.970 . S
Li443 N493 1.990 . S
Li443 O501 1.961 . S
Li443 O502 1.970 . S
Li443 O503 1.956 . S
C444 C446 1.348 . S
C444 C447 1.356 . S
C444 O500 1.325 . S
N445 C448 1.314 . S
N445 C449 1.279 . S
C446 C444 1.348 . S
C446 C448 1.353 . S
C446 H504 0.929 . S
C447 C444 1.356 . S
C447 C449 1.358 . S
C447 H505 0.930 . S
C448 N445 1.314 . S
C448 C446 1.353 . S
C448 H506 0.930 . S
C449 N445 1.279 . S
C449 C447 1.358 . S
C449 H507 0.930 . S
C450 C453 1.348 . S
C450 C454 1.356 . S
C450 O501 1.325 . S
C451 N452 1.279 . S
C451 C454 1.358 . S
C451 H508 0.930 . S
N452 C451 1.279 . S
N452 C455 1.314 . S
C453 C450 1.348 . S
C453 C455 1.353 . S
C453 H509 0.929 . S
C454 C450 1.356 . S
C454 C451 1.358 . S
C454 H510 0.930 . S
C455 N452 1.314 . S
C455 C453 1.353 . S
C455 H511 0.930 . S
C456 N457 1.314 . S
C456 C461 1.353 . S
C456 H462 0.930 . S
N457 Li440 1.990 . S
N457 C456 1.314 . S
N457 C459 1.279 . S
C458 C459 1.358 . S
C458 C460 1.356 . S
C458 H512 0.930 . S
C459 N457 1.279 . S
C459 C458 1.358 . S
C459 H463 0.930 . S
C460 C458 1.356 . S
C460 C461 1.348 . S
C461 C456 1.353 . S
C461 C460 1.348 . S
C461 H513 0.929 . S
H462 C456 0.930 . S
H463 C459 0.930 . S
C464 N465 1.314 . S
C464 C466 1.353 . S
C464 H470 0.930 . S
N465 Li441 1.990 . S
N465 C464 1.314 . S
N465 C468 1.279 . S
C466 C464 1.353 . S
C466 C469 1.348 . S
C466 H514 0.929 . S
C467 C468 1.358 . S
C467 C469 1.356 . S
C467 H515 0.930 . S
C468 N465 1.279 . S
C468 C467 1.358 . S
C468 H471 0.930 . S
C469 C466 1.348 . S
C469 C467 1.356 . S
H470 C464 0.930 . S
H471 C468 0.930 . S
C472 C474 1.348 . S
C472 C475 1.356 . S
C472 O502 1.325 . S
N473 C476 1.314 . S
N473 C477 1.279 . S
C474 C472 1.348 . S
C474 C476 1.353 . S
C474 H516 0.929 . S
C475 C472 1.356 . S
C475 C477 1.358 . S
C475 H517 0.930 . S
C476 N473 1.314 . S
C476 C474 1.353 . S
C476 H518 0.930 . S
C477 N473 1.279 . S
C477 C475 1.358 . S
C477 H519 0.930 . S
C478 C479 1.348 . S
C478 C480 1.356 . S
C478 O503 1.325 . S
C479 C478 1.348 . S
C479 C481 1.353 . S
C479 H520 0.929 . S
C480 C478 1.356 . S
C480 C482 1.358 . S
C480 H521 0.930 . S
C481 C479 1.353 . S
C481 N483 1.314 . S
C481 H522 0.930 . S
C482 C480 1.358 . S
C482 N483 1.279 . S
C482 H523 0.930 . S
N483 C481 1.314 . S
N483 C482 1.279 . S
C484 C486 1.353 . S
C484 N487 1.314 . S
C484 H490 0.930 . S
C485 N487 1.279 . S
C485 C488 1.358 . S
C485 H491 0.930 . S
C486 C484 1.353 . S
C486 C489 1.348 . S
C486 H524 0.929 . S
N487 Li442 1.990 . S
N487 C484 1.314 . S
N487 C485 1.279 . S
C488 C485 1.358 . S
C488 C489 1.356 . S
C488 H525 0.930 . S
C489 C486 1.348 . S
C489 C488 1.356 . S
H490 C484 0.930 . S
H491 C485 0.930 . S
C492 N493 1.314 . S
C492 C494 1.353 . S
C492 H498 0.930 . S
N493 Li443 1.990 . S
N493 C492 1.314 . S
N493 C496 1.279 . S
C494 C492 1.353 . S
C494 C497 1.348 . S
C494 H526 0.929 . S
C495 C496 1.358 . S
C495 C497 1.356 . S
C495 H527 0.930 . S
C496 N493 1.279 . S
C496 C495 1.358 . S
C496 H499 0.930 . S
C497 C494 1.348 . S
C497 C495 1.356 . S
H498 C492 0.930 . S
H499 C496 0.930 . S
O500 Li440 1.956 . S
O500 Li441 1.970 . S
O500 Li442 1.961 . S
O500 C444 1.325 . S
O501 Li440 1.970 . S
O501 Li441 1.956 . S
O501 Li443 1.961 . S
O501 C450 1.325 . S
O502 Li440 1.961 . S
O502 Li442 1.956 . S
O502 Li443 1.970 . S
O502 C472 1.325 . S
O503 Li441 1.961 . S
O503 Li442 1.970 . S
O503 Li443 1.956 . S
O503 C478 1.325 . S
H504 C446 0.929 . S
H505 C447 0.930 . S
H506 C448 0.930 . S
H507 C449 0.930 . S
H508 C451 0.930 . S
H509 C453 0.929 . S
H510 C454 0.930 . S
H511 C455 0.930 . S
H512 C458 0.930 . S
H513 C461 0.929 . S
H514 C466 0.929 . S
H515 C467 0.930 . S
H516 C474 0.929 . S
H517 C475 0.930 . S
H518 C476 0.930 . S
H519 C477 0.930 . S
H520 C479 0.929 . S
H521 C480 0.930 . S
H522 C481 0.930 . S
H523 C482 0.930 . S
H524 C486 0.929 . S
H525 C488 0.930 . S
H526 C494 0.929 . S
H527 C495 0.930 . S
Li528 N545 1.990 . S
Li528 O588 1.956 . S
Li528 O589 1.970 . S
Li528 O590 1.961 . S
Li529 N553 1.990 . S
Li529 O588 1.970 . S
Li529 O589 1.956 . S
Li529 O591 1.961 . S
Li530 N575 1.990 . S
Li530 O588 1.961 . S
Li530 O590 1.956 . S
Li530 O591 1.970 . S
Li531 N581 1.990 . S
Li531 O589 1.961 . S
Li531 O590 1.970 . S
Li531 O591 1.956 . S
C532 C534 1.348 . S
C532 C535 1.356 . S
C532 O588 1.325 . S
N533 C536 1.314 . S
N533 C537 1.279 . S
C534 C532 1.348 . S
C534 C536 1.353 . S
C534 H592 0.929 . S
C535 C532 1.356 . S
C535 C537 1.358 . S
C535 H593 0.930 . S
C536 N533 1.314 . S
C536 C534 1.353 . S
C536 H594 0.930 . S
C537 N533 1.279 . S
C537 C535 1.358 . S
C537 H595 0.930 . S
C538 C541 1.348 . S
C538 C542 1.356 . S
C538 O589 1.325 . S
C539 N540 1.279 . S
C539 C542 1.358 . S
C539 H596 0.930 . S
N540 C539 1.279 . S
N540 C543 1.314 . S
C541 C538 1.348 . S
C541 C543 1.353 . S
C541 H597 0.929 . S
C542 C538 1.356 . S
C542 C539 1.358 . S
C542 H598 0.930 . S
C543 N540 1.314 . S
C543 C541 1.353 . S
C543 H599 0.930 . S
C544 N545 1.314 . S
C544 C549 1.353 . S
C544 H550 0.930 . S
N545 Li528 1.990 . S
N545 C544 1.314 . S
N545 C547 1.279 . S
C546 C547 1.358 . S
C546 C548 1.356 . S
C546 H600 0.930 . S
C547 N545 1.279 . S
C547 C546 1.358 . S
C547 H551 0.930 . S
C548 C546 1.356 . S
C548 C549 1.348 . S
C549 C544 1.353 . S
C549 C548 1.348 . S
C549 H601 0.929 . S
H550 C544 0.930 . S
H551 C547 0.930 . S
C552 N553 1.314 . S
C552 C554 1.353 . S
C552 H558 0.930 . S
N553 Li529 1.990 . S
N553 C552 1.314 . S
N553 C556 1.279 . S
C554 C552 1.353 . S
C554 C557 1.348 . S
C554 H602 0.929 . S
C555 C556 1.358 . S
C555 C557 1.356 . S
C555 H603 0.930 . S
C556 N553 1.279 . S
C556 C555 1.358 . S
C556 H559 0.930 . S
C557 C554 1.348 . S
C557 C555 1.356 . S
H558 C552 0.930 . S
H559 C556 0.930 . S
C560 C562 1.348 . S
C560 C563 1.356 . S
C560 O590 1.325 . S
N561 C564 1.314 . S
N561 C565 1.279 . S
C562 C560 1.348 . S
C562 C564 1.353 . S
C562 H604 0.929 . S
C563 C560 1.356 . S
C563 C565 1.358 . S
C563 H605 0.930 . S
C564 N561 1.314 . S
C564 C562 1.353 . S
C564 H606 0.930 . S
C565 N561 1.279 . S
C565 C563 1.358 . S
C565 H607 0.930 . S
C566 C567 1.348 . S
C566 C568 1.356 . S
C566 O591 1.325 . S
C567 C566 1.348 . S
C567 C569 1.353 . S
C567 H608 0.929 . S
C568 C566 1.356 . S
C568 C570 1.358 . S
C568 H609 0.930 . S
C569 C567 1.353 . S
C569 N571 1.314 . S
C569 H610 0.930 . S
C570 C568 1.358 . S
C570 N571 1.279 . S
C570 H611 0.930 . S
N571 C569 1.314 . S
N571 C570 1.279 . S
C572 C574 1.353 . S
C572 N575 1.314 . S
C572 H578 0.930 . S
C573 N575 1.279 . S
C573 C576 1.358 . S
C573 H579 0.930 . S
C574 C572 1.353 . S
C574 C577 1.348 . S
C574 H612 0.929 . S
N575 Li530 1.990 . S
N575 C572 1.314 . S
N575 C573 1.279 . S
C576 C573 1.358 . S
C576 C577 1.356 . S
C576 H613 0.930 . S
C577 C574 1.348 . S
C577 C576 1.356 . S
H578 C572 0.930 . S
H579 C573 0.930 . S
C580 N581 1.314 . S
C580 C582 1.353 . S
C580 H586 0.930 . S
N581 Li531 1.990 . S
N581 C580 1.314 . S
N581 C584 1.279 . S
C582 C580 1.353 . S
C582 C585 1.348 . S
C582 H614 0.929 . S
C583 C584 1.358 . S
C583 C585 1.356 . S
C583 H615 0.930 . S
C584 N581 1.279 . S
C584 C583 1.358 . S
C584 H587 0.930 . S
C585 C582 1.348 . S
C585 C583 1.356 . S
H586 C580 0.930 . S
H587 C584 0.930 . S
O588 Li528 1.956 . S
O588 Li529 1.970 . S
O588 Li530 1.961 . S
O588 C532 1.325 . S
O589 Li528 1.970 . S
O589 Li529 1.956 . S
O589 Li531 1.961 . S
O589 C538 1.325 . S
O590 Li528 1.961 . S
O590 Li530 1.956 . S
O590 Li531 1.970 . S
O590 C560 1.325 . S
O591 Li529 1.961 . S
O591 Li530 1.970 . S
O591 Li531 1.956 . S
O591 C566 1.325 . S
H592 C534 0.929 . S
H593 C535 0.930 . S
H594 C536 0.930 . S
H595 C537 0.930 . S
H596 C539 0.930 . S
H597 C541 0.929 . S
H598 C542 0.930 . S
H599 C543 0.930 . S
H600 C546 0.930 . S
H601 C549 0.929 . S
H602 C554 0.929 . S
H603 C555 0.930 . S
H604 C562 0.929 . S
H605 C563 0.930 . S
H606 C564 0.930 . S
H607 C565 0.930 . S
H608 C567 0.929 . S
H609 C568 0.930 . S
H610 C569 0.930 . S
H611 C570 0.930 . S
H612 C574 0.929 . S
H613 C576 0.930 . S
H614 C582 0.929 . S
H615 C583 0.930 . S
Li616 N633 1.990 . S
Li616 O676 1.956 1_455 S
Li616 O677 1.970 . S
Li616 O678 1.961 . S
Li617 N641 1.990 . S
Li617 O676 1.970 . S
Li617 O677 1.956 1_655 S
Li617 O679 1.961 1_655 S
Li618 N663 1.990 . S
Li618 O676 1.961 1_455 S
Li618 O678 1.956 . S
Li618 O679 1.970 . S
Li619 N669 1.990 . S
Li619 O677 1.961 . S
Li619 O678 1.970 . S
Li619 O679 1.956 . S
C620 C622 1.348 . S
C620 C623 1.356 . S
C620 O676 1.325 . S
N621 C624 1.314 . S
N621 C625 1.279 . S
C622 C620 1.348 . S
C622 C624 1.353 . S
C622 H680 0.929 . S
C623 C620 1.356 . S
C623 C625 1.358 . S
C623 H681 0.930 . S
C624 N621 1.314 . S
C624 C622 1.353 . S
C624 H682 0.930 . S
C625 N621 1.279 . S
C625 C623 1.358 . S
C625 H683 0.930 . S
C626 C629 1.348 . S
C626 C630 1.356 . S
C626 O677 1.325 . S
C627 N628 1.279 . S
C627 C630 1.358 . S
C627 H684 0.930 . S
N628 C627 1.279 . S
N628 C631 1.314 . S
C629 C626 1.348 . S
C629 C631 1.353 . S
C629 H685 0.929 . S
C630 C626 1.356 . S
C630 C627 1.358 . S
C630 H686 0.930 . S
C631 N628 1.314 . S
C631 C629 1.353 . S
C631 H687 0.930 . S
C632 N633 1.314 . S
C632 C637 1.353 . S
C632 H638 0.930 . S
N633 Li616 1.990 . S
N633 C632 1.314 . S
N633 C635 1.279 . S
C634 C635 1.358 . S
C634 C636 1.356 . S
C634 H688 0.930 1_455 S
C635 N633 1.279 . S
C635 C634 1.358 . S
C635 H639 0.930 1_455 S
C636 C634 1.356 . S
C636 C637 1.348 . S
C637 C632 1.353 . S
C637 C636 1.348 . S
C637 H689 0.929 . S
H638 C632 0.930 . S
H639 C635 0.930 1_655 S
C640 N641 1.314 . S
C640 C642 1.353 . S
C640 H646 0.930 . S
N641 Li617 1.990 . S
N641 C640 1.314 . S
N641 C644 1.279 . S
C642 C640 1.353 . S
C642 C645 1.348 . S
C642 H690 0.929 . S
C643 C644 1.358 . S
C643 C645 1.356 . S
C643 H691 0.930 . S
C644 N641 1.279 . S
C644 C643 1.358 . S
C644 H647 0.930 . S
C645 C642 1.348 . S
C645 C643 1.356 . S
H646 C640 0.930 . S
H647 C644 0.930 . S
C648 C650 1.348 . S
C648 C651 1.356 . S
C648 O678 1.325 . S
N649 C652 1.314 . S
N649 C653 1.279 . S
C650 C648 1.348 . S
C650 C652 1.353 . S
C650 H692 0.929 . S
C651 C648 1.356 . S
C651 C653 1.358 . S
C651 H693 0.930 . S
C652 N649 1.314 . S
C652 C650 1.353 . S
C652 H694 0.930 . S
C653 N649 1.279 . S
C653 C651 1.358 . S
C653 H695 0.930 . S
C654 C655 1.348 . S
C654 C656 1.360 . S
C654 O679 1.325 . S
C655 C654 1.348 . S
C655 C657 1.353 . S
C655 H696 0.929 . S
C656 C654 1.360 . S
C656 C658 1.362 1_455 S
C656 H697 0.923 1_455 S
C657 C655 1.353 . S
C657 N659 1.314 . S
C657 H698 0.930 . S
C658 C656 1.362 1_655 S
C658 N659 1.279 1_655 S
C658 H699 0.930 . S
N659 C657 1.314 . S
N659 C658 1.279 1_455 S
C660 C662 1.353 . S
C660 N663 1.314 1_655 S
C660 H666 0.930 . S
C661 N663 1.279 . S
C661 C664 1.358 . S
C661 H667 0.930 . S
C662 C660 1.353 . S
C662 C665 1.348 1_655 S
C662 H700 0.929 . S
N663 Li618 1.990 . S
N663 C660 1.314 1_455 S
N663 C661 1.279 . S
C664 C661 1.358 . S
C664 C665 1.356 . S
C664 H701 0.930 . S
C665 C662 1.348 1_455 S
C665 C664 1.356 . S
H666 C660 0.930 . S
H667 C661 0.930 . S
C668 N669 1.314 . S
C668 C670 1.353 . S
C668 H674 0.930 . S
N669 Li619 1.990 . S
N669 C668 1.314 . S
N669 C672 1.279 . S
C670 C668 1.353 . S
C670 C673 1.348 . S
C670 H702 0.929 . S
C671 C672 1.358 . S
C671 C673 1.356 . S
C671 H703 0.930 . S
C672 N669 1.279 . S
C672 C671 1.358 . S
C672 H675 0.930 . S
C673 C670 1.348 . S
C673 C671 1.356 . S
H674 C668 0.930 . S
H675 C672 0.930 . S
O676 Li616 1.956 1_655 S
O676 Li617 1.970 . S
O676 Li618 1.961 1_655 S
O676 C620 1.325 . S
O677 Li616 1.970 . S
O677 Li617 1.956 1_455 S
O677 Li619 1.961 . S
O677 C626 1.325 . S
O678 Li616 1.961 . S
O678 Li618 1.956 . S
O678 Li619 1.970 . S
O678 C648 1.325 . S
O679 Li617 1.961 1_455 S
O679 Li618 1.970 . S
O679 Li619 1.956 . S
O679 C654 1.325 . S
H680 C622 0.929 . S
H681 C623 0.930 . S
H682 C624 0.930 . S
H683 C625 0.930 . S
H684 C627 0.930 . S
H685 C629 0.929 . S
H686 C630 0.930 . S
H687 C631 0.930 . S
H688 C634 0.930 1_655 S
H689 C637 0.929 . S
H690 C642 0.929 . S
H691 C643 0.930 . S
H692 C650 0.929 . S
H693 C651 0.930 . S
H694 C652 0.930 . S
H695 C653 0.930 . S
H696 C655 0.929 . S
H697 C656 0.923 1_655 S
H698 C657 0.930 . S
H699 C658 0.930 . S
H700 C662 0.929 . S
H701 C664 0.930 . S
H702 C670 0.929 . S
H703 C671 0.930 . S
Li704 N721 1.990 . S
Li704 O764 1.956 1_545 S
Li704 O765 1.970 . S
Li704 O766 1.961 . S
Li705 N729 1.990 . S
Li705 O764 1.970 . S
Li705 O765 1.956 1_565 S
Li705 O767 1.957 . S
Li706 N751 1.990 . S
Li706 O764 1.961 1_545 S
Li706 O766 1.956 . S
Li706 O767 1.970 1_545 S
Li707 N757 1.990 . S
Li707 O765 1.961 . S
Li707 O766 1.970 . S
Li707 O767 1.959 1_545 S
C708 C710 1.348 . S
C708 C711 1.356 . S
C708 O764 1.325 . S
N709 C712 1.314 . S
N709 C713 1.279 . S
C710 C708 1.348 . S
C710 C712 1.353 . S
C710 H768 0.929 . S
C711 C708 1.356 . S
C711 C713 1.358 . S
C711 H769 0.930 . S
C712 N709 1.314 . S
C712 C710 1.353 . S
C712 H770 0.930 . S
C713 N709 1.279 . S
C713 C711 1.358 . S
C713 H771 0.930 . S
C714 C717 1.348 . S
C714 C718 1.356 . S
C714 O765 1.325 . S
C715 N716 1.279 . S
C715 C718 1.358 . S
C715 H772 0.930 . S
N716 C715 1.279 . S
N716 C719 1.314 . S
C717 C714 1.348 . S
C717 C719 1.353 . S
C717 H773 0.915 1_545 S
C718 C714 1.356 . S
C718 C715 1.358 . S
C718 H774 0.930 . S
C719 N716 1.314 . S
C719 C717 1.353 . S
C719 H775 0.923 1_545 S
C720 N721 1.314 . S
C720 C725 1.353 . S
C720 H726 0.930 . S
N721 Li704 1.990 . S
N721 C720 1.314 . S
N721 C723 1.279 1_545 S
C722 C723 1.358 1_545 S
C722 C724 1.356 . S
C722 H776 0.930 1_545 S
C723 N721 1.279 1_565 S
C723 C722 1.358 1_565 S
C723 H727 0.930 . S
C724 C722 1.356 . S
C724 C725 1.348 . S
C725 C720 1.353 . S
C725 C724 1.348 . S
C725 H777 0.929 . S
H726 C720 0.930 . S
H727 C723 0.930 . S
C728 N729 1.314 . S
C728 C730 1.353 . S
C728 H734 0.930 . S
N729 Li705 1.990 . S
N729 C728 1.314 . S
N729 C732 1.279 . S
C730 C728 1.353 . S
C730 C733 1.348 . S
C730 H778 0.929 . S
C731 C732 1.358 . S
C731 C733 1.356 . S
C731 H779 0.930 . S
C732 N729 1.279 . S
C732 C731 1.358 . S
C732 H735 0.930 . S
C733 C730 1.348 . S
C733 C731 1.356 . S
H734 C728 0.930 . S
H735 C732 0.930 . S
C736 C738 1.348 . S
C736 C739 1.356 . S
C736 O766 1.325 . S
N737 C740 1.314 . S
N737 C741 1.279 . S
C738 C736 1.348 . S
C738 C740 1.353 . S
C738 H780 0.929 . S
C739 C736 1.356 . S
C739 C741 1.358 . S
C739 H781 0.930 . S
C740 N737 1.314 . S
C740 C738 1.353 . S
C740 H782 0.930 . S
C741 N737 1.279 . S
C741 C739 1.358 . S
C741 H783 0.930 . S
C742 C743 1.348 1_565 S
C742 C744 1.356 . S
C742 O767 1.326 . S
C743 C742 1.348 1_545 S
C743 C745 1.359 1_545 S
C743 H784 0.929 . S
C744 C742 1.356 . S
C744 C746 1.358 . S
C744 H785 0.930 . S
C745 C743 1.359 1_565 S
C745 N747 1.322 . S
C745 H786 0.917 1_565 S
C746 C744 1.358 . S
C746 N747 1.279 . S
C746 H787 0.930 . S
N747 C745 1.322 . S
N747 C746 1.279 . S
C748 C750 1.353 . S
C748 N751 1.314 1_565 S
C748 H754 0.930 . S
C749 N751 1.279 . S
C749 C752 1.358 . S
C749 H755 0.930 . S
C750 C748 1.353 . S
C750 C753 1.348 1_565 S
C750 H788 0.929 . S
N751 Li706 1.990 . S
N751 C748 1.314 1_545 S
N751 C749 1.279 . S
C752 C749 1.358 . S
C752 C753 1.356 . S
C752 H789 0.930 . S
C753 C750 1.348 1_545 S
C753 C752 1.356 . S
H754 C748 0.930 . S
H755 C749 0.930 . S
C756 N757 1.314 . S
C756 C758 1.353 . S
C756 H762 0.930 . S
N757 Li707 1.990 . S
N757 C756 1.314 . S
N757 C760 1.279 . S
C758 C756 1.353 . S
C758 C761 1.348 . S
C758 H790 0.929 . S
C759 C760 1.358 . S
C759 C761 1.356 . S
C759 H791 0.930 . S
C760 N757 1.279 . S
C760 C759 1.358 . S
C760 H763 0.930 . S
C761 C758 1.348 . S
C761 C759 1.356 . S
H762 C756 0.930 . S
H763 C760 0.930 . S
O764 Li704 1.956 1_565 S
O764 Li705 1.970 . S
O764 Li706 1.961 1_565 S
O764 C708 1.325 . S
O765 Li704 1.970 . S
O765 Li705 1.956 1_545 S
O765 Li707 1.961 . S
O765 C714 1.325 . S
O766 Li704 1.961 . S
O766 Li706 1.956 . S
O766 Li707 1.970 . S
O766 C736 1.325 . S
O767 Li705 1.957 . S
O767 Li706 1.970 1_565 S
O767 Li707 1.959 1_565 S
O767 C742 1.326 . S
H768 C710 0.929 . S
H769 C711 0.930 . S
H770 C712 0.930 . S
H771 C713 0.930 . S
H772 C715 0.930 . S
H773 C717 0.915 1_565 S
H774 C718 0.930 . S
H775 C719 0.923 1_565 S
H776 C722 0.930 1_565 S
H777 C725 0.929 . S
H778 C730 0.929 . S
H779 C731 0.930 . S
H780 C738 0.929 . S
H781 C739 0.930 . S
H782 C740 0.930 . S
H783 C741 0.930 . S
H784 C743 0.929 . S
H785 C744 0.930 . S
H786 C745 0.917 1_545 S
H787 C746 0.930 . S
H788 C750 0.929 . S
H789 C752 0.930 . S
H790 C758 0.929 . S
H791 C759 0.930 . S
Li792 N809 1.990 . S
Li792 O852 1.956 . S
Li792 O853 1.970 . S
Li792 O854 1.961 . S
Li793 N817 1.990 . S
Li793 O852 1.970 . S
Li793 O853 1.956 . S
Li793 O855 1.961 . S
Li794 N839 1.990 . S
Li794 O852 1.961 . S
Li794 O854 1.956 . S
Li794 O855 1.970 . S
Li795 N845 1.990 . S
Li795 O853 1.961 . S
Li795 O854 1.970 . S
Li795 O855 1.956 . S
C796 C798 1.348 . S
C796 C799 1.356 . S
C796 O852 1.325 . S
N797 C800 1.314 . S
N797 C801 1.279 . S
C798 C796 1.348 . S
C798 C800 1.353 . S
C798 H856 0.929 . S
C799 C796 1.356 . S
C799 C801 1.358 . S
C799 H857 0.930 . S
C800 N797 1.314 . S
C800 C798 1.353 . S
C800 H858 0.930 . S
C801 N797 1.279 . S
C801 C799 1.358 . S
C801 H859 0.930 . S
C802 C805 1.348 . S
C802 C806 1.356 . S
C802 O853 1.325 . S
C803 N804 1.279 . S
C803 C806 1.358 . S
C803 H860 0.930 . S
N804 C803 1.279 . S
N804 C807 1.314 . S
C805 C802 1.348 . S
C805 C807 1.353 . S
C805 H861 0.929 . S
C806 C802 1.356 . S
C806 C803 1.358 . S
C806 H862 0.930 . S
C807 N804 1.314 . S
C807 C805 1.353 . S
C807 H863 0.930 . S
C808 N809 1.314 . S
C808 C813 1.353 . S
C808 H814 0.930 . S
N809 Li792 1.990 . S
N809 C808 1.314 . S
N809 C811 1.279 . S
C810 C811 1.358 . S
C810 C812 1.356 . S
C810 H864 0.930 . S
C811 N809 1.279 . S
C811 C810 1.358 . S
C811 H815 0.930 . S
C812 C810 1.356 . S
C812 C813 1.348 . S
C813 C808 1.353 . S
C813 C812 1.348 . S
C813 H865 0.929 . S
H814 C808 0.930 . S
H815 C811 0.930 . S
C816 N817 1.314 . S
C816 C818 1.353 . S
C816 H822 0.930 . S
N817 Li793 1.990 . S
N817 C816 1.314 . S
N817 C820 1.279 . S
C818 C816 1.353 . S
C818 C821 1.348 . S
C818 H866 0.929 . S
C819 C820 1.358 . S
C819 C821 1.356 . S
C819 H867 0.930 . S
C820 N817 1.279 . S
C820 C819 1.358 . S
C820 H823 0.930 . S
C821 C818 1.348 . S
C821 C819 1.356 . S
H822 C816 0.930 . S
H823 C820 0.930 . S
C824 C826 1.348 . S
C824 C827 1.356 . S
C824 O854 1.325 . S
N825 C828 1.314 . S
N825 C829 1.279 . S
C826 C824 1.348 . S
C826 C828 1.353 . S
C826 H868 0.929 . S
C827 C824 1.356 . S
C827 C829 1.358 . S
C827 H869 0.930 . S
C828 N825 1.314 . S
C828 C826 1.353 . S
C828 H870 0.930 . S
C829 N825 1.279 . S
C829 C827 1.358 . S
C829 H871 0.930 . S
C830 C831 1.348 . S
C830 C832 1.356 . S
C830 O855 1.325 . S
C831 C830 1.348 . S
C831 C833 1.353 . S
C831 H872 0.929 . S
C832 C830 1.356 . S
C832 C834 1.358 . S
C832 H873 0.930 . S
C833 C831 1.353 . S
C833 N835 1.314 . S
C833 H874 0.930 . S
C834 C832 1.358 . S
C834 N835 1.279 . S
C834 H875 0.930 . S
N835 C833 1.314 . S
N835 C834 1.279 . S
C836 C838 1.353 . S
C836 N839 1.314 . S
C836 H842 0.930 . S
C837 N839 1.279 . S
C837 C840 1.358 . S
C837 H843 0.930 . S
C838 C836 1.353 . S
C838 C841 1.348 . S
C838 H876 0.929 . S
N839 Li794 1.990 . S
N839 C836 1.314 . S
N839 C837 1.279 . S
C840 C837 1.358 . S
C840 C841 1.356 . S
C840 H877 0.930 . S
C841 C838 1.348 . S
C841 C840 1.356 . S
H842 C836 0.930 . S
H843 C837 0.930 . S
C844 N845 1.314 . S
C844 C846 1.353 . S
C844 H850 0.930 . S
N845 Li795 1.990 . S
N845 C844 1.314 . S
N845 C848 1.279 . S
C846 C844 1.353 . S
C846 C849 1.348 . S
C846 H878 0.929 . S
C847 C848 1.358 . S
C847 C849 1.356 . S
C847 H879 0.930 . S
C848 N845 1.279 . S
C848 C847 1.358 . S
C848 H851 0.930 . S
C849 C846 1.348 . S
C849 C847 1.356 . S
H850 C844 0.930 . S
H851 C848 0.930 . S
O852 Li792 1.956 . S
O852 Li793 1.970 . S
O852 Li794 1.961 . S
O852 C796 1.325 . S
O853 Li792 1.970 . S
O853 Li793 1.956 . S
O853 Li795 1.961 . S
O853 C802 1.325 . S
O854 Li792 1.961 . S
O854 Li794 1.956 . S
O854 Li795 1.970 . S
O854 C824 1.325 . S
O855 Li793 1.961 . S
O855 Li794 1.970 . S
O855 Li795 1.956 . S
O855 C830 1.325 . S
H856 C798 0.929 . S
H857 C799 0.930 . S
H858 C800 0.930 . S
H859 C801 0.930 . S
H860 C803 0.930 . S
H861 C805 0.929 . S
H862 C806 0.930 . S
H863 C807 0.930 . S
H864 C810 0.930 . S
H865 C813 0.929 . S
H866 C818 0.929 . S
H867 C819 0.930 . S
H868 C826 0.929 . S
H869 C827 0.930 . S
H870 C828 0.930 . S
H871 C829 0.930 . S
H872 C831 0.929 . S
H873 C832 0.930 . S
H874 C833 0.930 . S
H875 C834 0.930 . S
H876 C838 0.929 . S
H877 C840 0.930 . S
H878 C846 0.929 . S
H879 C847 0.930 . S
Li880 N897 1.990 . S
Li880 O940 1.956 . S
Li880 O941 1.970 . S
Li880 O942 1.961 . S
Li881 N905 1.990 . S
Li881 O940 1.970 . S
Li881 O941 1.956 . S
Li881 O943 1.961 1_545 S
Li882 N927 1.990 . S
Li882 O940 1.961 1_565 S
Li882 O942 1.956 1_565 S
Li882 O943 1.970 . S
Li883 N933 1.994 1_545 S
Li883 O941 1.986 . S
Li883 O942 1.970 . S
Li883 O943 1.929 1_545 S
C884 C886 1.348 . S
C884 C887 1.356 . S
C884 O940 1.325 . S
N885 C888 1.314 . S
N885 C889 1.279 . S
C886 C884 1.348 . S
C886 C888 1.353 . S
C886 H944 0.929 . S
C887 C884 1.356 . S
C887 C889 1.358 . S
C887 H945 0.930 . S
C888 N885 1.314 . S
C888 C886 1.353 . S
C888 H946 0.930 . S
C889 N885 1.279 . S
C889 C887 1.358 . S
C889 H947 0.930 . S
C890 C893 1.348 . S
C890 C894 1.356 . S
C890 O941 1.325 . S
C891 N892 1.279 . S
C891 C894 1.358 . S
C891 H948 0.930 . S
N892 C891 1.279 . S
N892 C895 1.314 . S
C893 C890 1.348 . S
C893 C895 1.353 . S
C893 H949 0.929 . S
C894 C890 1.356 . S
C894 C891 1.358 . S
C894 H950 0.930 . S
C895 N892 1.314 . S
C895 C893 1.353 . S
C895 H951 0.930 . S
C896 N897 1.314 . S
C896 C901 1.353 . S
C896 H902 0.930 . S
N897 Li880 1.990 . S
N897 C896 1.314 . S
N897 C899 1.279 . S
C898 C899 1.358 . S
C898 C900 1.356 . S
C898 H952 0.930 . S
C899 N897 1.279 . S
C899 C898 1.358 . S
C899 H903 0.930 . S
C900 C898 1.356 . S
C900 C901 1.348 . S
C901 C896 1.353 . S
C901 C900 1.348 . S
C901 H953 0.929 . S
H902 C896 0.930 . S
H903 C899 0.930 . S
C904 N905 1.314 1_565 S
C904 C906 1.353 . S
C904 H910 0.930 . S
N905 Li881 1.990 . S
N905 C904 1.314 1_545 S
N905 C908 1.279 . S
C906 C904 1.353 . S
C906 C909 1.348 1_565 S
C906 H954 0.929 . S
C907 C908 1.358 . S
C907 C909 1.356 . S
C907 H955 0.930 . S
C908 N905 1.279 . S
C908 C907 1.358 . S
C908 H911 0.930 . S
C909 C906 1.348 1_545 S
C909 C907 1.356 . S
H910 C904 0.930 . S
H911 C908 0.930 . S
C912 C914 1.348 1_545 S
C912 C915 1.356 . S
C912 O942 1.325 . S
N913 C916 1.314 1_545 S
N913 C917 1.279 . S
C914 C912 1.348 1_565 S
C914 C916 1.353 . S
C914 H956 0.929 . S
C915 C912 1.356 . S
C915 C917 1.358 . S
C915 H957 0.930 . S
C916 N913 1.314 1_565 S
C916 C914 1.353 . S
C916 H958 0.930 . S
C917 N913 1.279 . S
C917 C915 1.358 . S
C917 H959 0.930 . S
C918 C919 1.348 . S
C918 C920 1.356 . S
C918 O943 1.325 . S
C919 C918 1.348 . S
C919 C921 1.353 . S
C919 H960 0.929 . S
C920 C918 1.356 . S
C920 C922 1.358 . S
C920 H961 0.930 . S
C921 C919 1.353 . S
C921 N923 1.314 . S
C921 H962 0.930 . S
C922 C920 1.358 . S
C922 N923 1.279 . S
C922 H963 0.930 . S
N923 C921 1.314 . S
N923 C922 1.279 . S
C924 C926 1.353 . S
C924 N927 1.314 . S
C924 H930 0.930 . S
C925 N927 1.279 . S
C925 C928 1.358 . S
C925 H931 0.930 . S
C926 C924 1.353 . S
C926 C929 1.348 . S
C926 H964 0.929 . S
N927 Li882 1.990 . S
N927 C924 1.314 . S
N927 C925 1.279 . S
C928 C925 1.358 . S
C928 C929 1.356 . S
C928 H965 0.930 . S
C929 C926 1.348 . S
C929 C928 1.356 . S
H930 C924 0.930 . S
H931 C925 0.930 . S
C932 N933 1.314 1_545 S
C932 C934 1.353 . S
C932 H938 0.930 . S
N933 Li883 1.994 1_565 S
N933 C932 1.314 1_565 S
N933 C936 1.279 . S
C934 C932 1.353 . S
C934 C937 1.348 1_545 S
C934 H966 0.929 . S
C935 C936 1.358 . S
C935 C937 1.356 . S
C935 H967 0.930 . S
C936 N933 1.279 . S
C936 C935 1.358 . S
C936 H939 0.930 . S
C937 C934 1.348 1_565 S
C937 C935 1.356 . S
H938 C932 0.930 . S
H939 C936 0.930 . S
O940 Li880 1.956 . S
O940 Li881 1.970 . S
O940 Li882 1.961 1_545 S
O940 C884 1.325 . S
O941 Li880 1.970 . S
O941 Li881 1.956 . S
O941 Li883 1.986 . S
O941 C890 1.325 . S
O942 Li880 1.961 . S
O942 Li882 1.956 1_545 S
O942 Li883 1.970 . S
O942 C912 1.325 . S
O943 Li881 1.961 1_565 S
O943 Li882 1.970 . S
O943 Li883 1.929 1_565 S
O943 C918 1.325 . S
H944 C886 0.929 . S
H945 C887 0.930 . S
H946 C888 0.930 . S
H947 C889 0.930 . S
H948 C891 0.930 . S
H949 C893 0.929 . S
H950 C894 0.930 . S
H951 C895 0.930 . S
H952 C898 0.930 . S
H953 C901 0.929 . S
H954 C906 0.929 . S
H955 C907 0.930 . S
H956 C914 0.929 . S
H957 C915 0.930 . S
H958 C916 0.930 . S
H959 C917 0.930 . S
H960 C919 0.929 . S
H961 C920 0.930 . S
H962 C921 0.930 . S
H963 C922 0.930 . S
H964 C926 0.929 . S
H965 C928 0.930 . S
H966 C934 0.929 . S
H967 C935 0.930 . S
Li968 N985 1.990 . S
Li968 O1028 1.956 . S
Li968 O1029 1.970 . S
Li968 O1030 1.961 1_554 S
Li969 N993 1.990 . S
Li969 O1028 1.970 . S
Li969 O1029 1.956 . S
Li969 O1031 1.961 . S
Li970 N1015 1.990 . S
Li970 O1028 1.961 . S
Li970 O1030 1.956 1_554 S
Li970 O1031 1.970 . S
Li971 N1021 1.990 . S
Li971 O1029 1.961 1_556 S
Li971 O1030 1.970 . S
Li971 O1031 1.956 1_556 S
C972 C974 1.348 . S
C972 C975 1.356 . S
C972 O1028 1.325 . S
N973 C976 1.314 . S
N973 C977 1.279 . S
C974 C972 1.348 . S
C974 C976 1.353 . S
C974 H1032 0.929 . S
C975 C972 1.356 . S
C975 C977 1.358 . S
C975 H1033 0.930 . S
C976 N973 1.314 . S
C976 C974 1.353 . S
C976 H1034 0.930 . S
C977 N973 1.279 . S
C977 C975 1.358 . S
C977 H1035 0.906 1_565 S
C978 C981 1.348 . S
C978 C982 1.356 1_554 S
C978 O1029 1.325 . S
C979 N980 1.279 1_556 S
C979 C982 1.358 . S
C979 H1036 0.930 . S
N980 C979 1.279 1_554 S
N980 C983 1.314 . S
C981 C978 1.348 . S
C981 C983 1.353 . S
C981 H1037 0.929 . S
C982 C978 1.356 1_556 S
C982 C979 1.358 . S
C982 H1038 0.930 . S
C983 N980 1.314 . S
C983 C981 1.353 . S
C983 H1039 0.930 . S
C984 N985 1.314 1_556 S
C984 C989 1.353 . S
C984 H990 0.930 . S
N985 Li968 1.990 . S
N985 C984 1.314 1_554 S
N985 C987 1.279 . S
C986 C987 1.358 . S
C986 C988 1.356 . S
C986 H1040 0.930 . S
C987 N985 1.279 . S
C987 C986 1.358 . S
C987 H991 0.930 . S
C988 C986 1.356 . S
C988 C989 1.348 1_554 S
C989 C984 1.353 . S
C989 C988 1.348 1_556 S
C989 H1041 0.929 . S
H990 C984 0.930 . S
H991 C987 0.930 . S
C992 N993 1.314 . S
C992 C994 1.353 . S
C992 H998 0.930 . S
N993 Li969 1.990 . S
N993 C992 1.314 . S
N993 C996 1.279 . S
C994 C992 1.353 . S
C994 C997 1.348 . S
C994 H1042 0.929 . S
C995 C996 1.358 . S
C995 C997 1.356 . S
C995 H1043 0.930 . S
C996 N993 1.279 . S
C996 C995 1.358 . S
C996 H999 0.930 . S
C997 C994 1.348 . S
C997 C995 1.356 . S
H998 C992 0.930 . S
H999 C996 0.930 . S
C1000 C1002 1.348 . S
C1000 C1003 1.356 . S
C1000 O1030 1.325 . S
N1001 C1004 1.314 . S
N1001 C1005 1.279 . S
C1002 C1000 1.348 . S
C1002 C1004 1.353 . S
C1002 H1044 0.929 . S
C1003 C1000 1.356 . S
C1003 C1005 1.358 . S
C1003 H1045 0.930 . S
C1004 N1001 1.314 . S
C1004 C1002 1.353 . S
C1004 H1046 0.930 . S
C1005 N1001 1.279 . S
C1005 C1003 1.358 . S
C1005 H1047 0.930 . S
C1006 C1007 1.348 . S
C1006 C1008 1.356 . S
C1006 O1031 1.325 . S
C1007 C1006 1.348 . S
C1007 C1009 1.353 . S
C1007 H1048 0.929 . S
C1008 C1006 1.356 . S
C1008 C1010 1.358 . S
C1008 H1049 0.930 . S
C1009 C1007 1.353 . S
C1009 N1011 1.314 . S
C1009 H1050 0.938 . S
C1010 C1008 1.358 . S
C1010 N1011 1.279 . S
C1010 H1051 0.930 . S
N1011 C1009 1.314 . S
N1011 C1010 1.279 . S
C1012 C1014 1.353 . S
C1012 N1015 1.314 . S
C1012 H1018 0.930 . S
C1013 N1015 1.310 . S
C1013 C1016 1.356 . S
C1013 H1019 0.900 1_554 S
C1014 C1012 1.353 . S
C1014 C1017 1.348 . S
C1014 H1052 0.929 . S
N1015 Li970 1.990 . S
N1015 C1012 1.314 . S
N1015 C1013 1.310 . S
C1016 C1013 1.356 . S
C1016 C1017 1.356 . S
C1016 H1053 0.930 1_554 S
C1017 C1014 1.348 . S
C1017 C1016 1.356 . S
H1018 C1012 0.930 . S
H1019 C1013 0.900 1_556 S
C1020 N1021 1.314 . S
C1020 C1022 1.353 . S
C1020 H1026 0.930 . S
N1021 Li971 1.990 . S
N1021 C1020 1.314 . S
N1021 C1024 1.279 . S
C1022 C1020 1.353 . S
C1022 C1025 1.348 . S
C1022 H1054 0.929 . S
C1023 C1024 1.358 . S
C1023 C1025 1.356 . S
C1023 H1055 0.930 . S
C1024 N1021 1.279 . S
C1024 C1023 1.358 . S
C1024 H1027 0.930 . S
C1025 C1022 1.348 . S
C1025 C1023 1.356 . S
H1026 C1020 0.930 . S
H1027 C1024 0.930 . S
O1028 Li968 1.956 . S
O1028 Li969 1.970 . S
O1028 Li970 1.961 . S
O1028 C972 1.325 . S
O1029 Li968 1.970 . S
O1029 Li969 1.956 . S
O1029 Li971 1.961 1_554 S
O1029 C978 1.325 . S
O1030 Li968 1.961 1_556 S
O1030 Li970 1.956 1_556 S
O1030 Li971 1.970 . S
O1030 C1000 1.325 . S
O1031 Li969 1.961 . S
O1031 Li970 1.970 . S
O1031 Li971 1.956 1_554 S
O1031 C1006 1.325 . S
H1032 C974 0.929 . S
H1033 C975 0.930 . S
H1034 C976 0.930 . S
H1035 C977 0.906 1_545 S
H1036 C979 0.930 . S
H1037 C981 0.929 . S
H1038 C982 0.930 . S
H1039 C983 0.930 . S
H1040 C986 0.930 . S
H1041 C989 0.929 . S
H1042 C994 0.929 . S
H1043 C995 0.930 . S
H1044 C1002 0.929 . S
H1045 C1003 0.930 . S
H1046 C1004 0.930 . S
H1047 C1005 0.930 . S
H1048 C1007 0.929 . S
H1049 C1008 0.930 . S
H1050 C1009 0.938 . S
H1051 C1010 0.930 . S
H1052 C1014 0.929 . S
H1053 C1016 0.930 1_556 S
H1054 C1022 0.929 . S
H1055 C1023 0.930 . S
Li1056 N1073 1.990 . S
Li1056 O1116 1.956 . S
Li1056 O1117 1.970 . S
Li1056 O1118 1.961 1_554 S
Li1057 N1081 1.990 . S
Li1057 O1116 1.970 . S
Li1057 O1117 1.956 . S
Li1057 O1119 1.961 . S
Li1058 N1103 1.990 . S
Li1058 O1116 1.961 . S
Li1058 O1118 1.956 1_554 S
Li1058 O1119 1.970 . S
Li1059 N1109 1.990 . S
Li1059 O1117 1.961 1_556 S
Li1059 O1118 1.970 . S
Li1059 O1119 1.956 1_556 S
C1060 C1062 1.348 . S
C1060 C1063 1.356 . S
C1060 O1116 1.325 . S
N1061 C1064 1.314 . S
N1061 C1065 1.279 . S
C1062 C1060 1.348 . S
C1062 C1064 1.353 . S
C1062 H1120 0.929 . S
C1063 C1060 1.356 . S
C1063 C1065 1.358 . S
C1063 H1121 0.930 . S
C1064 N1061 1.314 . S
C1064 C1062 1.353 . S
C1064 H1122 0.930 . S
C1065 N1061 1.279 . S
C1065 C1063 1.358 . S
C1065 H1123 0.930 . S
C1066 C1069 1.348 . S
C1066 C1070 1.356 . S
C1066 O1117 1.325 . S
C1067 N1068 1.279 . S
C1067 C1070 1.358 . S
C1067 H1124 0.930 1_554 S
N1068 C1067 1.279 . S
N1068 C1071 1.314 . S
C1069 C1066 1.348 . S
C1069 C1071 1.353 . S
C1069 H1125 0.929 . S
C1070 C1066 1.356 . S
C1070 C1067 1.358 . S
C1070 H1126 0.930 . S
C1071 N1068 1.314 . S
C1071 C1069 1.353 . S
C1071 H1127 0.930 . S
C1072 N1073 1.314 . S
C1072 C1077 1.353 . S
C1072 H1078 0.930 1_554 S
N1073 Li1056 1.990 . S
N1073 C1072 1.314 . S
N1073 C1075 1.279 . S
C1074 C1075 1.358 . S
C1074 C1076 1.356 . S
C1074 H1128 0.930 . S
C1075 N1073 1.279 . S
C1075 C1074 1.358 . S
C1075 H1079 0.930 . S
C1076 C1074 1.356 . S
C1076 C1077 1.348 . S
C1077 C1072 1.353 . S
C1077 C1076 1.348 . S
C1077 H1129 0.929 1_554 S
H1078 C1072 0.930 1_556 S
H1079 C1075 0.930 . S
C1080 N1081 1.314 . S
C1080 C1082 1.353 . S
C1080 H1086 0.930 . S
N1081 Li1057 1.990 . S
N1081 C1080 1.314 . S
N1081 C1084 1.279 . S
C1082 C1080 1.353 . S
C1082 C1085 1.348 . S
C1082 H1130 0.929 . S
C1083 C1084 1.358 . S
C1083 C1085 1.356 . S
C1083 H1131 0.930 . S
C1084 N1081 1.279 . S
C1084 C1083 1.358 . S
C1084 H1087 0.930 . S
C1085 C1082 1.348 . S
C1085 C1083 1.356 . S
H1086 C1080 0.930 . S
H1087 C1084 0.930 . S
C1088 C1090 1.348 . S
C1088 C1091 1.356 . S
C1088 O1118 1.325 . S
N1089 C1092 1.314 . S
N1089 C1093 1.279 . S
C1090 C1088 1.348 . S
C1090 C1092 1.353 . S
C1090 H1132 0.929 . S
C1091 C1088 1.356 . S
C1091 C1093 1.358 . S
C1091 H1133 0.930 . S
C1092 N1089 1.314 . S
C1092 C1090 1.353 . S
C1092 H1134 0.930 . S
C1093 N1089 1.279 . S
C1093 C1091 1.358 . S
C1093 H1135 0.930 . S
C1094 C1095 1.348 . S
C1094 C1096 1.356 . S
C1094 O1119 1.325 . S
C1095 C1094 1.348 . S
C1095 C1097 1.353 . S
C1095 H1136 0.929 . S
C1096 C1094 1.356 . S
C1096 C1098 1.358 . S
C1096 H1137 0.930 . S
C1097 C1095 1.353 . S
C1097 N1099 1.314 . S
C1097 H1138 0.930 . S
C1098 C1096 1.358 . S
C1098 N1099 1.279 . S
C1098 H1139 0.930 . S
N1099 C1097 1.314 . S
N1099 C1098 1.279 . S
C1100 C1102 1.353 . S
C1100 N1103 1.314 . S
C1100 H1106 0.930 . S
C1101 N1103 1.279 . S
C1101 C1104 1.358 . S
C1101 H1107 0.930 1_554 S
C1102 C1100 1.353 . S
C1102 C1105 1.348 . S
C1102 H1140 0.929 . S
N1103 Li1058 1.990 . S
N1103 C1100 1.314 . S
N1103 C1101 1.279 . S
C1104 C1101 1.358 . S
C1104 C1105 1.356 . S
C1104 H1141 0.930 1_554 S
C1105 C1102 1.348 . S
C1105 C1104 1.356 . S
H1106 C1100 0.930 . S
H1107 C1101 0.930 1_556 S
C1108 N1109 1.314 . S
C1108 C1110 1.353 . S
C1108 H1114 0.930 . S
N1109 Li1059 1.990 . S
N1109 C1108 1.314 . S
N1109 C1112 1.279 . S
C1110 C1108 1.353 . S
C1110 C1113 1.348 . S
C1110 H1142 0.929 . S
C1111 C1112 1.358 . S
C1111 C1113 1.356 . S
C1111 H1143 0.930 . S
C1112 N1109 1.279 . S
C1112 C1111 1.358 . S
C1112 H1115 0.930 . S
C1113 C1110 1.348 . S
C1113 C1111 1.356 . S
H1114 C1108 0.930 . S
H1115 C1112 0.930 . S
O1116 Li1056 1.956 . S
O1116 Li1057 1.970 . S
O1116 Li1058 1.961 . S
O1116 C1060 1.325 . S
O1117 Li1056 1.970 . S
O1117 Li1057 1.956 . S
O1117 Li1059 1.961 1_554 S
O1117 C1066 1.325 . S
O1118 Li1056 1.961 1_556 S
O1118 Li1058 1.956 1_556 S
O1118 Li1059 1.970 . S
O1118 C1088 1.325 . S
O1119 Li1057 1.961 . S
O1119 Li1058 1.970 . S
O1119 Li1059 1.956 1_554 S
O1119 C1094 1.325 . S
H1120 C1062 0.929 . S
H1121 C1063 0.930 . S
H1122 C1064 0.930 . S
H1123 C1065 0.930 . S
H1124 C1067 0.930 1_556 S
H1125 C1069 0.929 . S
H1126 C1070 0.930 . S
H1127 C1071 0.930 . S
H1128 C1074 0.930 . S
H1129 C1077 0.929 1_556 S
H1130 C1082 0.929 . S
H1131 C1083 0.930 . S
H1132 C1090 0.929 . S
H1133 C1091 0.930 . S
H1134 C1092 0.930 . S
H1135 C1093 0.930 . S
H1136 C1095 0.929 . S
H1137 C1096 0.930 . S
H1138 C1097 0.930 . S
H1139 C1098 0.930 . S
H1140 C1102 0.929 . S
H1141 C1104 0.930 1_556 S
H1142 C1110 0.929 . S
H1143 C1111 0.930 . S
Li1144 N1161 1.990 . S
Li1144 O1204 1.956 . S
Li1144 O1205 1.970 . S
Li1144 O1206 1.961 . S
Li1145 N1169 1.990 . S
Li1145 O1204 1.970 . S
Li1145 O1205 1.956 . S
Li1145 O1207 1.961 1_554 S
Li1146 N1191 1.990 . S
Li1146 O1204 1.961 1_556 S
Li1146 O1206 1.956 1_556 S
Li1146 O1207 1.970 . S
Li1147 N1197 1.990 . S
Li1147 O1205 1.961 . S
Li1147 O1206 1.970 . S
Li1147 O1207 1.956 1_554 S
C1148 C1150 1.348 . S
C1148 C1151 1.356 . S
C1148 O1204 1.325 . S
N1149 C1152 1.314 . S
N1149 C1153 1.279 . S
C1150 C1148 1.348 . S
C1150 C1152 1.353 . S
C1150 H1208 0.929 . S
C1151 C1148 1.356 . S
C1151 C1153 1.358 . S
C1151 H1209 0.930 . S
C1152 N1149 1.314 . S
C1152 C1150 1.353 . S
C1152 H1210 0.930 . S
C1153 N1149 1.279 . S
C1153 C1151 1.358 . S
C1153 H1211 0.930 . S
C1154 C1157 1.348 . S
C1154 C1158 1.356 . S
C1154 O1205 1.325 . S
C1155 N1156 1.279 . S
C1155 C1158 1.358 . S
C1155 H1212 0.930 . S
N1156 C1155 1.279 . S
N1156 C1159 1.314 . S
C1157 C1154 1.348 . S
C1157 C1159 1.353 . S
C1157 H1213 0.929 . S
C1158 C1154 1.356 . S
C1158 C1155 1.358 . S
C1158 H1214 0.930 . S
C1159 N1156 1.314 . S
C1159 C1157 1.353 . S
C1159 H1215 0.930 . S
C1160 N1161 1.314 . S
C1160 C1165 1.353 . S
C1160 H1166 0.930 . S
N1161 Li1144 1.990 . S
N1161 C1160 1.314 . S
N1161 C1163 1.279 . S
C1162 C1163 1.358 . S
C1162 C1164 1.356 . S
C1162 H1216 0.930 . S
C1163 N1161 1.279 . S
C1163 C1162 1.358 . S
C1163 H1167 0.930 . S
C1164 C1162 1.356 . S
C1164 C1165 1.348 . S
C1165 C1160 1.353 . S
C1165 C1164 1.348 . S
C1165 H1217 0.929 . S
H1166 C1160 0.930 . S
H1167 C1163 0.930 . S
C1168 N1169 1.314 1_556 S
C1168 C1170 1.353 . S
C1168 H1174 0.930 . S
N1169 Li1145 1.990 . S
N1169 C1168 1.314 1_554 S
N1169 C1172 1.279 . S
C1170 C1168 1.353 . S
C1170 C1173 1.348 1_556 S
C1170 H1218 0.929 . S
C1171 C1172 1.358 . S
C1171 C1173 1.356 . S
C1171 H1219 0.930 . S
C1172 N1169 1.279 . S
C1172 C1171 1.358 . S
C1172 H1175 0.930 . S
C1173 C1170 1.348 1_554 S
C1173 C1171 1.356 . S
H1174 C1168 0.930 . S
H1175 C1172 0.930 . S
C1176 C1178 1.348 . S
C1176 C1179 1.356 . S
C1176 O1206 1.325 . S
N1177 C1180 1.314 . S
N1177 C1181 1.279 . S
C1178 C1176 1.348 . S
C1178 C1180 1.353 . S
C1178 H1220 0.941 . S
C1179 C1176 1.356 . S
C1179 C1181 1.358 . S
C1179 H1221 0.930 . S
C1180 N1177 1.314 . S
C1180 C1178 1.353 . S
C1180 H1222 0.930 . S
C1181 N1177 1.279 . S
C1181 C1179 1.358 . S
C1181 H1223 0.930 . S
C1182 C1183 1.348 . S
C1182 C1184 1.356 . S
C1182 O1207 1.325 . S
C1183 C1182 1.348 . S
C1183 C1185 1.353 . S
C1183 H1224 0.929 . S
C1184 C1182 1.356 . S
C1184 C1186 1.358 . S
C1184 H1225 0.930 . S
C1185 C1183 1.353 . S
C1185 N1187 1.314 . S
C1185 H1226 0.930 . S
C1186 C1184 1.358 . S
C1186 N1187 1.279 . S
C1186 H1227 0.930 . S
N1187 C1185 1.314 . S
N1187 C1186 1.279 . S
C1188 C1190 1.353 . S
C1188 N1191 1.314 . S
C1188 H1194 0.930 . S
C1189 N1191 1.279 . S
C1189 C1192 1.358 . S
C1189 H1195 0.930 . S
C1190 C1188 1.353 . S
C1190 C1193 1.348 . S
C1190 H1228 0.929 . S
N1191 Li1146 1.990 . S
N1191 C1188 1.314 . S
N1191 C1189 1.279 . S
C1192 C1189 1.358 . S
C1192 C1193 1.356 . S
C1192 H1229 0.930 . S
C1193 C1190 1.348 . S
C1193 C1192 1.356 . S
H1194 C1188 0.930 . S
H1195 C1189 0.930 . S
C1196 N1197 1.314 . S
C1196 C1198 1.353 . S
C1196 H1202 0.930 . S
N1197 Li1147 1.990 . S
N1197 C1196 1.314 . S
N1197 C1200 1.279 1_554 S
C1198 C1196 1.353 . S
C1198 C1201 1.348 . S
C1198 H1230 0.929 . S
C1199 C1200 1.358 . S
C1199 C1201 1.356 1_556 S
C1199 H1231 0.930 . S
C1200 N1197 1.279 1_556 S
C1200 C1199 1.358 . S
C1200 H1203 0.930 . S
C1201 C1198 1.348 . S
C1201 C1199 1.356 1_554 S
H1202 C1196 0.930 . S
H1203 C1200 0.930 . S
O1204 Li1144 1.956 . S
O1204 Li1145 1.970 . S
O1204 Li1146 1.961 1_554 S
O1204 C1148 1.325 . S
O1205 Li1144 1.970 . S
O1205 Li1145 1.956 . S
O1205 Li1147 1.961 . S
O1205 C1154 1.325 . S
O1206 Li1144 1.961 . S
O1206 Li1146 1.956 1_554 S
O1206 Li1147 1.970 . S
O1206 C1176 1.325 . S
O1207 Li1145 1.961 1_556 S
O1207 Li1146 1.970 . S
O1207 Li1147 1.956 1_556 S
O1207 C1182 1.325 . S
H1208 C1150 0.929 . S
H1209 C1151 0.930 . S
H1210 C1152 0.930 . S
H1211 C1153 0.930 . S
H1212 C1155 0.930 . S
H1213 C1157 0.929 . S
H1214 C1158 0.930 . S
H1215 C1159 0.930 . S
H1216 C1162 0.930 . S
H1217 C1165 0.929 . S
H1218 C1170 0.929 . S
H1219 C1171 0.930 . S
H1220 C1178 0.941 . S
H1221 C1179 0.930 . S
H1222 C1180 0.930 . S
H1223 C1181 0.930 . S
H1224 C1183 0.929 . S
H1225 C1184 0.930 . S
H1226 C1185 0.930 . S
H1227 C1186 0.930 . S
H1228 C1190 0.929 . S
H1229 C1192 0.930 . S
H1230 C1198 0.929 . S
H1231 C1199 0.930 . S
Li1232 N1249 1.990 . S
Li1232 O1292 1.956 . S
Li1232 O1293 1.970 . S
Li1232 O1294 1.961 . S
Li1233 N1257 1.990 . S
Li1233 O1292 1.970 . S
Li1233 O1293 1.956 . S
Li1233 O1295 1.961 . S
Li1234 N1279 1.990 . S
Li1234 O1292 1.961 . S
Li1234 O1294 1.956 . S
Li1234 O1295 1.970 . S
Li1235 N1285 1.990 . S
Li1235 O1293 1.961 . S
Li1235 O1294 1.970 . S
Li1235 O1295 1.956 . S
C1236 C1238 1.348 . S
C1236 C1239 1.356 . S
C1236 O1292 1.325 . S
N1237 C1240 1.314 . S
N1237 C1241 1.279 . S
C1238 C1236 1.348 . S
C1238 C1240 1.353 . S
C1238 H1296 0.929 . S
C1239 C1236 1.356 . S
C1239 C1241 1.358 . S
C1239 H1297 0.930 . S
C1240 N1237 1.314 . S
C1240 C1238 1.353 . S
C1240 H1298 0.930 . S
C1241 N1237 1.279 . S
C1241 C1239 1.358 . S
C1241 H1299 0.930 . S
C1242 C1245 1.348 . S
C1242 C1246 1.356 . S
C1242 O1293 1.325 . S
C1243 N1244 1.279 . S
C1243 C1246 1.358 . S
C1243 H1300 0.930 . S
N1244 C1243 1.279 . S
N1244 C1247 1.314 . S
C1245 C1242 1.348 . S
C1245 C1247 1.353 . S
C1245 H1301 0.929 . S
C1246 C1242 1.356 . S
C1246 C1243 1.358 . S
C1246 H1302 0.930 . S
C1247 N1244 1.314 . S
C1247 C1245 1.353 . S
C1247 H1303 0.930 . S
C1248 N1249 1.314 . S
C1248 C1253 1.353 . S
C1248 H1254 0.930 . S
N1249 Li1232 1.990 . S
N1249 C1248 1.314 . S
N1249 C1251 1.279 . S
C1250 C1251 1.358 . S
C1250 C1252 1.356 . S
C1250 H1304 0.930 . S
C1251 N1249 1.279 . S
C1251 C1250 1.358 . S
C1251 H1255 0.930 . S
C1252 C1250 1.356 . S
C1252 C1253 1.348 . S
C1253 C1248 1.353 . S
C1253 C1252 1.348 . S
C1253 H1305 0.929 . S
H1254 C1248 0.930 . S
H1255 C1251 0.930 . S
C1256 N1257 1.314 . S
C1256 C1258 1.353 . S
C1256 H1262 0.930 . S
N1257 Li1233 1.990 . S
N1257 C1256 1.314 . S
N1257 C1260 1.279 . S
C1258 C1256 1.353 . S
C1258 C1261 1.348 . S
C1258 H1306 0.929 . S
C1259 C1260 1.358 . S
C1259 C1261 1.356 . S
C1259 H1307 0.930 . S
C1260 N1257 1.279 . S
C1260 C1259 1.358 . S
C1260 H1263 0.930 . S
C1261 C1258 1.348 . S
C1261 C1259 1.356 . S
H1262 C1256 0.930 . S
H1263 C1260 0.930 . S
C1264 C1266 1.348 . S
C1264 C1267 1.356 . S
C1264 O1294 1.325 . S
N1265 C1268 1.314 . S
N1265 C1269 1.279 . S
C1266 C1264 1.348 . S
C1266 C1268 1.353 . S
C1266 H1308 0.929 . S
C1267 C1264 1.356 . S
C1267 C1269 1.358 . S
C1267 H1309 0.930 . S
C1268 N1265 1.314 . S
C1268 C1266 1.353 . S
C1268 H1310 0.930 . S
C1269 N1265 1.279 . S
C1269 C1267 1.358 . S
C1269 H1311 0.930 . S
C1270 C1271 1.348 . S
C1270 C1272 1.356 . S
C1270 O1295 1.325 . S
C1271 C1270 1.348 . S
C1271 C1273 1.353 . S
C1271 H1312 0.929 . S
C1272 C1270 1.356 . S
C1272 C1274 1.358 . S
C1272 H1313 0.930 . S
C1273 C1271 1.353 . S
C1273 N1275 1.314 . S
C1273 H1314 0.930 . S
C1274 C1272 1.358 . S
C1274 N1275 1.279 . S
C1274 H1315 0.930 . S
N1275 C1273 1.314 . S
N1275 C1274 1.279 . S
C1276 C1278 1.353 . S
C1276 N1279 1.314 . S
C1276 H1282 0.930 . S
C1277 N1279 1.279 . S
C1277 C1280 1.358 . S
C1277 H1283 0.930 . S
C1278 C1276 1.353 . S
C1278 C1281 1.348 . S
C1278 H1316 0.929 . S
N1279 Li1234 1.990 . S
N1279 C1276 1.314 . S
N1279 C1277 1.279 . S
C1280 C1277 1.358 . S
C1280 C1281 1.356 . S
C1280 H1317 0.930 . S
C1281 C1278 1.348 . S
C1281 C1280 1.356 . S
H1282 C1276 0.930 . S
H1283 C1277 0.930 . S
C1284 N1285 1.314 . S
C1284 C1286 1.353 . S
C1284 H1290 0.930 . S
N1285 Li1235 1.990 . S
N1285 C1284 1.314 . S
N1285 C1288 1.279 . S
C1286 C1284 1.353 . S
C1286 C1289 1.348 . S
C1286 H1318 0.929 . S
C1287 C1288 1.358 . S
C1287 C1289 1.356 . S
C1287 H1319 0.930 . S
C1288 N1285 1.279 . S
C1288 C1287 1.358 . S
C1288 H1291 0.930 . S
C1289 C1286 1.348 . S
C1289 C1287 1.356 . S
H1290 C1284 0.930 . S
H1291 C1288 0.930 . S
O1292 Li1232 1.956 . S
O1292 Li1233 1.970 . S
O1292 Li1234 1.961 . S
O1292 C1236 1.325 . S
O1293 Li1232 1.970 . S
O1293 Li1233 1.956 . S
O1293 Li1235 1.961 . S
O1293 C1242 1.325 . S
O1294 Li1232 1.961 . S
O1294 Li1234 1.956 . S
O1294 Li1235 1.970 . S
O1294 C1264 1.325 . S
O1295 Li1233 1.961 . S
O1295 Li1234 1.970 . S
O1295 Li1235 1.956 . S
O1295 C1270 1.325 . S
H1296 C1238 0.929 . S
H1297 C1239 0.930 . S
H1298 C1240 0.930 . S
H1299 C1241 0.930 . S
H1300 C1243 0.930 . S
H1301 C1245 0.929 . S
H1302 C1246 0.930 . S
H1303 C1247 0.930 . S
H1304 C1250 0.930 . S
H1305 C1253 0.929 . S
H1306 C1258 0.929 . S
H1307 C1259 0.930 . S
H1308 C1266 0.929 . S
H1309 C1267 0.930 . S
H1310 C1268 0.930 . S
H1311 C1269 0.930 . S
H1312 C1271 0.929 . S
H1313 C1272 0.930 . S
H1314 C1273 0.930 . S
H1315 C1274 0.930 . S
H1316 C1278 0.929 . S
H1317 C1280 0.930 . S
H1318 C1286 0.929 . S
H1319 C1287 0.930 . S
Li1320 N1337 1.990 . S
Li1320 O1380 1.956 . S
Li1320 O1381 1.970 . S
Li1320 O1382 1.961 . S
Li1321 N1345 1.990 . S
Li1321 O1380 1.970 . S
Li1321 O1381 1.956 . S
Li1321 O1383 1.961 . S
Li1322 N1367 1.990 . S
Li1322 O1380 1.961 . S
Li1322 O1382 1.956 . S
Li1322 O1383 1.970 . S
Li1323 N1373 1.990 . S
Li1323 O1381 1.961 . S
Li1323 O1382 1.970 . S
Li1323 O1383 1.956 . S
C1324 C1326 1.348 . S
C1324 C1327 1.356 . S
C1324 O1380 1.325 . S
N1325 C1328 1.314 . S
N1325 C1329 1.279 . S
C1326 C1324 1.348 . S
C1326 C1328 1.353 . S
C1326 H1384 0.929 . S
C1327 C1324 1.356 . S
C1327 C1329 1.358 . S
C1327 H1385 0.930 . S
C1328 N1325 1.314 . S
C1328 C1326 1.353 . S
C1328 H1386 0.930 . S
C1329 N1325 1.279 . S
C1329 C1327 1.358 . S
C1329 H1387 0.930 . S
C1330 C1333 1.348 . S
C1330 C1334 1.356 . S
C1330 O1381 1.325 . S
C1331 N1332 1.279 . S
C1331 C1334 1.358 . S
C1331 H1388 0.930 . S
N1332 C1331 1.279 . S
N1332 C1335 1.314 . S
C1333 C1330 1.348 . S
C1333 C1335 1.353 . S
C1333 H1389 0.929 . S
C1334 C1330 1.356 . S
C1334 C1331 1.358 . S
C1334 H1390 0.930 . S
C1335 N1332 1.314 . S
C1335 C1333 1.353 . S
C1335 H1391 0.930 . S
C1336 N1337 1.314 . S
C1336 C1341 1.353 . S
C1336 H1342 0.930 . S
N1337 Li1320 1.990 . S
N1337 C1336 1.314 . S
N1337 C1339 1.279 . S
C1338 C1339 1.358 . S
C1338 C1340 1.356 . S
C1338 H1392 0.930 . S
C1339 N1337 1.279 . S
C1339 C1338 1.358 . S
C1339 H1343 0.930 . S
C1340 C1338 1.356 . S
C1340 C1341 1.348 . S
C1341 C1336 1.353 . S
C1341 C1340 1.348 . S
C1341 H1393 0.929 . S
H1342 C1336 0.930 . S
H1343 C1339 0.930 . S
C1344 N1345 1.314 . S
C1344 C1346 1.353 . S
C1344 H1350 0.930 . S
N1345 Li1321 1.990 . S
N1345 C1344 1.314 . S
N1345 C1348 1.279 . S
C1346 C1344 1.353 . S
C1346 C1349 1.348 . S
C1346 H1394 0.929 . S
C1347 C1348 1.358 . S
C1347 C1349 1.356 . S
C1347 H1395 0.930 . S
C1348 N1345 1.279 . S
C1348 C1347 1.358 . S
C1348 H1351 0.930 . S
C1349 C1346 1.348 . S
C1349 C1347 1.356 . S
H1350 C1344 0.930 . S
H1351 C1348 0.930 . S
C1352 C1354 1.348 . S
C1352 C1355 1.356 . S
C1352 O1382 1.325 . S
N1353 C1356 1.314 . S
N1353 C1357 1.279 . S
C1354 C1352 1.348 . S
C1354 C1356 1.353 . S
C1354 H1396 0.929 . S
C1355 C1352 1.356 . S
C1355 C1357 1.358 . S
C1355 H1397 0.930 . S
C1356 N1353 1.314 . S
C1356 C1354 1.353 . S
C1356 H1398 0.930 . S
C1357 N1353 1.279 . S
C1357 C1355 1.358 . S
C1357 H1399 0.930 . S
C1358 C1359 1.348 . S
C1358 C1360 1.356 . S
C1358 O1383 1.325 . S
C1359 C1358 1.348 . S
C1359 C1361 1.353 . S
C1359 H1400 0.929 . S
C1360 C1358 1.356 . S
C1360 C1362 1.358 . S
C1360 H1401 0.930 . S
C1361 C1359 1.353 . S
C1361 N1363 1.314 . S
C1361 H1402 0.930 . S
C1362 C1360 1.358 . S
C1362 N1363 1.279 . S
C1362 H1403 0.930 . S
N1363 C1361 1.314 . S
N1363 C1362 1.279 . S
C1364 C1366 1.353 . S
C1364 N1367 1.314 . S
C1364 H1370 0.930 . S
C1365 N1367 1.279 . S
C1365 C1368 1.358 . S
C1365 H1371 0.930 . S
C1366 C1364 1.353 . S
C1366 C1369 1.348 . S
C1366 H1404 0.929 . S
N1367 Li1322 1.990 . S
N1367 C1364 1.314 . S
N1367 C1365 1.279 . S
C1368 C1365 1.358 . S
C1368 C1369 1.356 . S
C1368 H1405 0.930 . S
C1369 C1366 1.348 . S
C1369 C1368 1.356 . S
H1370 C1364 0.930 . S
H1371 C1365 0.930 . S
C1372 N1373 1.314 . S
C1372 C1374 1.353 . S
C1372 H1378 0.930 . S
N1373 Li1323 1.990 . S
N1373 C1372 1.314 . S
N1373 C1376 1.279 . S
C1374 C1372 1.353 . S
C1374 C1377 1.348 . S
C1374 H1406 0.929 . S
C1375 C1376 1.358 . S
C1375 C1377 1.356 . S
C1375 H1407 0.930 . S
C1376 N1373 1.279 . S
C1376 C1375 1.358 . S
C1376 H1379 0.930 . S
C1377 C1374 1.348 . S
C1377 C1375 1.356 . S
H1378 C1372 0.930 . S
H1379 C1376 0.930 . S
O1380 Li1320 1.956 . S
O1380 Li1321 1.970 . S
O1380 Li1322 1.961 . S
O1380 C1324 1.325 . S
O1381 Li1320 1.970 . S
O1381 Li1321 1.956 . S
O1381 Li1323 1.961 . S
O1381 C1330 1.325 . S
O1382 Li1320 1.961 . S
O1382 Li1322 1.956 . S
O1382 Li1323 1.970 . S
O1382 C1352 1.325 . S
O1383 Li1321 1.961 . S
O1383 Li1322 1.970 . S
O1383 Li1323 1.956 . S
O1383 C1358 1.325 . S
H1384 C1326 0.929 . S
H1385 C1327 0.930 . S
H1386 C1328 0.930 . S
H1387 C1329 0.930 . S
H1388 C1331 0.930 . S
H1389 C1333 0.929 . S
H1390 C1334 0.930 . S
H1391 C1335 0.930 . S
H1392 C1338 0.930 . S
H1393 C1341 0.929 . S
H1394 C1346 0.929 . S
H1395 C1347 0.930 . S
H1396 C1354 0.929 . S
H1397 C1355 0.930 . S
H1398 C1356 0.930 . S
H1399 C1357 0.930 . S
H1400 C1359 0.929 . S
H1401 C1360 0.930 . S
H1402 C1361 0.930 . S
H1403 C1362 0.930 . S
H1404 C1366 0.929 . S
H1405 C1368 0.930 . S
H1406 C1374 0.929 . S
H1407 C1375 0.930 . S
Li1408 N1425 1.990 . S
Li1408 O1468 1.956 . S
Li1408 O1469 1.970 . S
Li1408 O1470 1.961 . S
Li1409 N1433 1.990 . S
Li1409 O1468 1.970 . S
Li1409 O1469 1.956 . S
Li1409 O1471 1.961 . S
Li1410 N1455 1.990 . S
Li1410 O1468 1.961 . S
Li1410 O1470 1.956 . S
Li1410 O1471 1.970 . S
Li1411 N1461 1.990 . S
Li1411 O1469 1.961 . S
Li1411 O1470 1.970 . S
Li1411 O1471 1.956 . S
C1412 C1414 1.348 . S
C1412 C1415 1.356 . S
C1412 O1468 1.325 . S
N1413 C1416 1.314 . S
N1413 C1417 1.279 1_565 S
C1414 C1412 1.348 . S
C1414 C1416 1.353 1_545 S
C1414 H1472 0.926 1_545 S
C1415 C1412 1.356 . S
C1415 C1417 1.358 . S
C1415 H1473 0.930 . S
C1416 N1413 1.314 . S
C1416 C1414 1.353 1_565 S
C1416 H1474 0.930 . S
C1417 N1413 1.279 1_545 S
C1417 C1415 1.358 . S
C1417 H1475 0.930 . S
C1418 C1421 1.348 . S
C1418 C1422 1.356 . S
C1418 O1469 1.325 . S
C1419 N1420 1.279 . S
C1419 C1422 1.358 . S
C1419 H1476 0.930 . S
N1420 C1419 1.279 . S
N1420 C1423 1.314 . S
C1421 C1418 1.348 . S
C1421 C1423 1.353 . S
C1421 H1477 0.929 . S
C1422 C1418 1.356 . S
C1422 C1419 1.358 . S
C1422 H1478 0.930 . S
C1423 N1420 1.314 . S
C1423 C1421 1.353 . S
C1423 H1479 0.930 . S
C1424 N1425 1.314 . S
C1424 C1429 1.353 . S
C1424 H1430 0.930 . S
N1425 Li1408 1.990 . S
N1425 C1424 1.314 . S
N1425 C1427 1.279 . S
C1426 C1427 1.358 . S
C1426 C1428 1.356 . S
C1426 H1480 0.930 . S
C1427 N1425 1.279 . S
C1427 C1426 1.358 . S
C1427 H1431 0.930 . S
C1428 C1426 1.356 . S
C1428 C1429 1.348 . S
C1429 C1424 1.353 . S
C1429 C1428 1.348 . S
C1429 H1481 0.929 . S
H1430 C1424 0.930 . S
H1431 C1427 0.930 . S
C1432 N1433 1.314 1_565 S
C1432 C1434 1.353 . S
C1432 H1438 0.930 . S
N1433 Li1409 1.990 . S
N1433 C1432 1.314 1_545 S
N1433 C1436 1.303 . S
C1434 C1432 1.353 . S
C1434 C1437 1.348 . S
C1434 H1482 0.929 . S
C1435 C1436 1.315 1_565 S
C1435 C1437 1.356 . S
C1435 H1483 0.930 . S
C1436 N1433 1.303 . S
C1436 C1435 1.315 1_545 S
C1436 H1439 0.955 . S
C1437 C1434 1.348 . S
C1437 C1435 1.356 . S
H1438 C1432 0.930 . S
H1439 C1436 0.955 . S
C1440 C1442 1.348 . S
C1440 C1443 1.356 . S
C1440 O1470 1.325 . S
N1441 C1444 1.314 . S
N1441 C1445 1.279 . S
C1442 C1440 1.348 . S
C1442 C1444 1.353 . S
C1442 H1484 0.929 . S
C1443 C1440 1.356 . S
C1443 C1445 1.358 . S
C1443 H1485 0.930 . S
C1444 N1441 1.314 . S
C1444 C1442 1.353 . S
C1444 H1486 0.930 . S
C1445 N1441 1.279 . S
C1445 C1443 1.358 . S
C1445 H1487 0.930 . S
C1446 C1447 1.348 . S
C1446 C1448 1.356 . S
C1446 O1471 1.325 . S
C1447 C1446 1.348 . S
C1447 C1449 1.353 . S
C1447 H1488 0.929 . S
C1448 C1446 1.356 . S
C1448 C1450 1.358 . S
C1448 H1489 0.930 . S
C1449 C1447 1.353 . S
C1449 N1451 1.314 . S
C1449 H1490 0.930 . S
C1450 C1448 1.358 . S
C1450 N1451 1.279 . S
C1450 H1491 0.930 . S
N1451 C1449 1.314 . S
N1451 C1450 1.279 . S
C1452 C1454 1.353 . S
C1452 N1455 1.314 . S
C1452 H1458 0.930 . S
C1453 N1455 1.279 . S
C1453 C1456 1.358 . S
C1453 H1459 0.930 . S
C1454 C1452 1.353 . S
C1454 C1457 1.348 . S
C1454 H1492 0.929 . S
N1455 Li1410 1.990 . S
N1455 C1452 1.314 . S
N1455 C1453 1.279 . S
C1456 C1453 1.358 . S
C1456 C1457 1.356 . S
C1456 H1493 0.930 . S
C1457 C1454 1.348 . S
C1457 C1456 1.356 . S
H1458 C1452 0.930 . S
H1459 C1453 0.930 . S
C1460 N1461 1.314 . S
C1460 C1462 1.353 . S
C1460 H1466 0.930 . S
N1461 Li1411 1.990 . S
N1461 C1460 1.314 . S
N1461 C1464 1.279 . S
C1462 C1460 1.353 . S
C1462 C1465 1.348 . S
C1462 H1494 0.929 . S
C1463 C1464 1.358 . S
C1463 C1465 1.356 . S
C1463 H1495 0.930 . S
C1464 N1461 1.279 . S
C1464 C1463 1.358 . S
C1464 H1467 0.930 . S
C1465 C1462 1.348 . S
C1465 C1463 1.356 . S
H1466 C1460 0.930 . S
H1467 C1464 0.930 . S
O1468 Li1408 1.956 . S
O1468 Li1409 1.970 . S
O1468 Li1410 1.961 . S
O1468 C1412 1.325 . S
O1469 Li1408 1.970 . S
O1469 Li1409 1.956 . S
O1469 Li1411 1.961 . S
O1469 C1418 1.325 . S
O1470 Li1408 1.961 . S
O1470 Li1410 1.956 . S
O1470 Li1411 1.970 . S
O1470 C1440 1.325 . S
O1471 Li1409 1.961 . S
O1471 Li1410 1.970 . S
O1471 Li1411 1.956 . S
O1471 C1446 1.325 . S
H1472 C1414 0.926 1_565 S
H1473 C1415 0.930 . S
H1474 C1416 0.930 . S
H1475 C1417 0.930 . S
H1476 C1419 0.930 . S
H1477 C1421 0.929 . S
H1478 C1422 0.930 . S
H1479 C1423 0.930 . S
H1480 C1426 0.930 . S
H1481 C1429 0.929 . S
H1482 C1434 0.929 . S
H1483 C1435 0.930 . S
H1484 C1442 0.929 . S
H1485 C1443 0.930 . S
H1486 C1444 0.930 . S
H1487 C1445 0.930 . S
H1488 C1447 0.929 . S
H1489 C1448 0.930 . S
H1490 C1449 0.930 . S
H1491 C1450 0.930 . S
H1492 C1454 0.929 . S
H1493 C1456 0.930 . S
H1494 C1462 0.929 . S
H1495 C1463 0.930 . S
Li1496 N1513 1.990 . S
Li1496 O1556 1.956 . S
Li1496 O1557 1.970 . S
Li1496 O1558 1.961 . S
Li1497 N1521 1.990 . S
Li1497 O1556 1.970 . S
Li1497 O1557 1.956 . S
Li1497 O1559 1.961 . S
Li1498 N1543 1.990 . S
Li1498 O1556 1.961 . S
Li1498 O1558 1.956 . S
Li1498 O1559 1.970 . S
Li1499 N1549 1.990 . S
Li1499 O1557 1.961 . S
Li1499 O1558 1.970 . S
Li1499 O1559 1.956 . S
C1500 C1502 1.348 . S
C1500 C1503 1.356 . S
C1500 O1556 1.325 . S
N1501 C1504 1.314 . S
N1501 C1505 1.279 . S
C1502 C1500 1.348 . S
C1502 C1504 1.353 . S
C1502 H1560 0.929 . S
C1503 C1500 1.356 . S
C1503 C1505 1.358 . S
C1503 H1561 0.930 . S
C1504 N1501 1.314 . S
C1504 C1502 1.353 . S
C1504 H1562 0.930 . S
C1505 N1501 1.279 . S
C1505 C1503 1.358 . S
C1505 H1563 0.930 . S
C1506 C1509 1.348 . S
C1506 C1510 1.356 . S
C1506 O1557 1.325 . S
C1507 N1508 1.279 . S
C1507 C1510 1.358 . S
C1507 H1564 0.930 . S
N1508 C1507 1.279 . S
N1508 C1511 1.314 . S
C1509 C1506 1.348 . S
C1509 C1511 1.353 . S
C1509 H1565 0.929 . S
C1510 C1506 1.356 . S
C1510 C1507 1.358 . S
C1510 H1566 0.930 . S
C1511 N1508 1.314 . S
C1511 C1509 1.353 . S
C1511 H1567 0.930 . S
C1512 N1513 1.314 . S
C1512 C1517 1.353 . S
C1512 H1518 0.930 . S
N1513 Li1496 1.990 . S
N1513 C1512 1.314 . S
N1513 C1515 1.279 . S
C1514 C1515 1.358 . S
C1514 C1516 1.356 . S
C1514 H1568 0.930 . S
C1515 N1513 1.279 . S
C1515 C1514 1.358 . S
C1515 H1519 0.930 . S
C1516 C1514 1.356 . S
C1516 C1517 1.348 . S
C1517 C1512 1.353 . S
C1517 C1516 1.348 . S
C1517 H1569 0.929 . S
H1518 C1512 0.930 . S
H1519 C1515 0.930 . S
C1520 N1521 1.314 . S
C1520 C1522 1.353 . S
C1520 H1526 0.930 . S
N1521 Li1497 1.990 . S
N1521 C1520 1.314 . S
N1521 C1524 1.279 . S
C1522 C1520 1.353 . S
C1522 C1525 1.348 . S
C1522 H1570 0.929 . S
C1523 C1524 1.358 . S
C1523 C1525 1.356 . S
C1523 H1571 0.930 . S
C1524 N1521 1.279 . S
C1524 C1523 1.358 . S
C1524 H1527 0.930 . S
C1525 C1522 1.348 . S
C1525 C1523 1.356 . S
H1526 C1520 0.930 . S
H1527 C1524 0.930 . S
C1528 C1530 1.348 . S
C1528 C1531 1.356 . S
C1528 O1558 1.325 . S
N1529 C1532 1.314 . S
N1529 C1533 1.279 . S
C1530 C1528 1.348 . S
C1530 C1532 1.353 . S
C1530 H1572 0.929 . S
C1531 C1528 1.356 . S
C1531 C1533 1.358 . S
C1531 H1573 0.930 . S
C1532 N1529 1.314 . S
C1532 C1530 1.353 . S
C1532 H1574 0.930 . S
C1533 N1529 1.279 . S
C1533 C1531 1.358 . S
C1533 H1575 0.930 . S
C1534 C1535 1.348 . S
C1534 C1536 1.356 . S
C1534 O1559 1.325 . S
C1535 C1534 1.348 . S
C1535 C1537 1.353 . S
C1535 H1576 0.929 . S
C1536 C1534 1.356 . S
C1536 C1538 1.358 . S
C1536 H1577 0.930 . S
C1537 C1535 1.353 . S
C1537 N1539 1.314 . S
C1537 H1578 0.930 . S
C1538 C1536 1.358 . S
C1538 N1539 1.279 . S
C1538 H1579 0.930 . S
N1539 C1537 1.314 . S
N1539 C1538 1.279 . S
C1540 C1542 1.353 . S
C1540 N1543 1.314 . S
C1540 H1546 0.930 . S
C1541 N1543 1.279 . S
C1541 C1544 1.358 . S
C1541 H1547 0.930 . S
C1542 C1540 1.353 . S
C1542 C1545 1.348 . S
C1542 H1580 0.929 . S
N1543 Li1498 1.990 . S
N1543 C1540 1.314 . S
N1543 C1541 1.279 . S
C1544 C1541 1.358 . S
C1544 C1545 1.356 . S
C1544 H1581 0.930 . S
C1545 C1542 1.348 . S
C1545 C1544 1.356 . S
H1546 C1540 0.930 . S
H1547 C1541 0.930 . S
C1548 N1549 1.314 . S
C1548 C1550 1.353 . S
C1548 H1554 0.930 . S
N1549 Li1499 1.990 . S
N1549 C1548 1.314 . S
N1549 C1552 1.279 . S
C1550 C1548 1.353 . S
C1550 C1553 1.348 . S
C1550 H1582 0.929 . S
C1551 C1552 1.358 . S
C1551 C1553 1.356 . S
C1551 H1583 0.930 . S
C1552 N1549 1.279 . S
C1552 C1551 1.358 . S
C1552 H1555 0.930 . S
C1553 C1550 1.348 . S
C1553 C1551 1.356 . S
H1554 C1548 0.930 . S
H1555 C1552 0.930 . S
O1556 Li1496 1.956 . S
O1556 Li1497 1.970 . S
O1556 Li1498 1.961 . S
O1556 C1500 1.325 . S
O1557 Li1496 1.970 . S
O1557 Li1497 1.956 . S
O1557 Li1499 1.961 . S
O1557 C1506 1.325 . S
O1558 Li1496 1.961 . S
O1558 Li1498 1.956 . S
O1558 Li1499 1.970 . S
O1558 C1528 1.325 . S
O1559 Li1497 1.961 . S
O1559 Li1498 1.970 . S
O1559 Li1499 1.956 . S
O1559 C1534 1.325 . S
H1560 C1502 0.929 . S
H1561 C1503 0.930 . S
H1562 C1504 0.930 . S
H1563 C1505 0.930 . S
H1564 C1507 0.930 . S
H1565 C1509 0.929 . S
H1566 C1510 0.930 . S
H1567 C1511 0.930 . S
H1568 C1514 0.930 . S
H1569 C1517 0.929 . S
H1570 C1522 0.929 . S
H1571 C1523 0.930 . S
H1572 C1530 0.929 . S
H1573 C1531 0.930 . S
H1574 C1532 0.930 . S
H1575 C1533 0.930 . S
H1576 C1535 0.929 . S
H1577 C1536 0.930 . S
H1578 C1537 0.930 . S
H1579 C1538 0.930 . S
H1580 C1542 0.929 . S
H1581 C1544 0.930 . S
H1582 C1550 0.929 . S
H1583 C1551 0.930 . S
Li1584 N1601 1.990 . S
Li1584 O1644 1.956 . S
Li1584 O1645 1.970 . S
Li1584 O1646 1.961 . S
Li1585 N1609 1.990 . S
Li1585 O1644 1.970 . S
Li1585 O1645 1.956 . S
Li1585 O1647 1.961 . S
Li1586 N1631 1.990 . S
Li1586 O1644 1.961 . S
Li1586 O1646 1.956 . S
Li1586 O1647 1.970 . S
Li1587 N1637 1.990 . S
Li1587 O1645 1.961 . S
Li1587 O1646 1.970 . S
Li1587 O1647 1.956 . S
C1588 C1590 1.348 . S
C1588 C1591 1.356 . S
C1588 O1644 1.325 . S
N1589 C1592 1.314 . S
N1589 C1593 1.279 . S
C1590 C1588 1.348 . S
C1590 C1592 1.353 . S
C1590 H1648 0.929 . S
C1591 C1588 1.356 . S
C1591 C1593 1.358 . S
C1591 H1649 0.930 . S
C1592 N1589 1.314 . S
C1592 C1590 1.353 . S
C1592 H1650 0.930 . S
C1593 N1589 1.279 . S
C1593 C1591 1.358 . S
C1593 H1651 0.930 . S
C1594 C1597 1.348 . S
C1594 C1598 1.356 . S
C1594 O1645 1.325 . S
C1595 N1596 1.279 . S
C1595 C1598 1.358 . S
C1595 H1652 0.930 . S
N1596 C1595 1.279 . S
N1596 C1599 1.314 . S
C1597 C1594 1.348 . S
C1597 C1599 1.353 . S
C1597 H1653 0.929 . S
C1598 C1594 1.356 . S
C1598 C1595 1.358 . S
C1598 H1654 0.930 . S
C1599 N1596 1.314 . S
C1599 C1597 1.353 . S
C1599 H1655 0.930 . S
C1600 N1601 1.314 . S
C1600 C1605 1.353 . S
C1600 H1606 0.930 . S
N1601 Li1584 1.990 . S
N1601 C1600 1.314 . S
N1601 C1603 1.279 . S
C1602 C1603 1.358 . S
C1602 C1604 1.356 . S
C1602 H1656 0.930 . S
C1603 N1601 1.279 . S
C1603 C1602 1.358 . S
C1603 H1607 0.930 . S
C1604 C1602 1.356 . S
C1604 C1605 1.348 . S
C1605 C1600 1.353 . S
C1605 C1604 1.348 . S
C1605 H1657 0.929 . S
H1606 C1600 0.930 . S
H1607 C1603 0.930 . S
C1608 N1609 1.314 . S
C1608 C1610 1.353 . S
C1608 H1614 0.930 . S
N1609 Li1585 1.990 . S
N1609 C1608 1.314 . S
N1609 C1612 1.279 . S
C1610 C1608 1.353 . S
C1610 C1613 1.348 . S
C1610 H1658 0.929 . S
C1611 C1612 1.358 . S
C1611 C1613 1.356 . S
C1611 H1659 0.930 . S
C1612 N1609 1.279 . S
C1612 C1611 1.358 . S
C1612 H1615 0.930 . S
C1613 C1610 1.348 . S
C1613 C1611 1.356 . S
H1614 C1608 0.930 . S
H1615 C1612 0.930 . S
C1616 C1618 1.348 . S
C1616 C1619 1.356 . S
C1616 O1646 1.325 . S
N1617 C1620 1.314 . S
N1617 C1621 1.279 . S
C1618 C1616 1.348 . S
C1618 C1620 1.353 . S
C1618 H1660 0.929 . S
C1619 C1616 1.356 . S
C1619 C1621 1.358 . S
C1619 H1661 0.930 . S
C1620 N1617 1.314 . S
C1620 C1618 1.353 . S
C1620 H1662 0.930 . S
C1621 N1617 1.279 . S
C1621 C1619 1.358 . S
C1621 H1663 0.930 . S
C1622 C1623 1.348 . S
C1622 C1624 1.356 . S
C1622 O1647 1.325 . S
C1623 C1622 1.348 . S
C1623 C1625 1.353 . S
C1623 H1664 0.929 . S
C1624 C1622 1.356 . S
C1624 C1626 1.358 . S
C1624 H1665 0.930 . S
C1625 C1623 1.353 . S
C1625 N1627 1.314 . S
C1625 H1666 0.930 . S
C1626 C1624 1.358 . S
C1626 N1627 1.279 . S
C1626 H1667 0.930 . S
N1627 C1625 1.314 . S
N1627 C1626 1.279 . S
C1628 C1630 1.353 . S
C1628 N1631 1.314 . S
C1628 H1634 0.930 . S
C1629 N1631 1.279 . S
C1629 C1632 1.358 . S
C1629 H1635 0.930 . S
C1630 C1628 1.353 . S
C1630 C1633 1.348 . S
C1630 H1668 0.929 . S
N1631 Li1586 1.990 . S
N1631 C1628 1.314 . S
N1631 C1629 1.279 . S
C1632 C1629 1.358 . S
C1632 C1633 1.356 . S
C1632 H1669 0.930 . S
C1633 C1630 1.348 . S
C1633 C1632 1.356 . S
H1634 C1628 0.930 . S
H1635 C1629 0.930 . S
C1636 N1637 1.314 . S
C1636 C1638 1.353 . S
C1636 H1642 0.930 . S
N1637 Li1587 1.990 . S
N1637 C1636 1.314 . S
N1637 C1640 1.279 . S
C1638 C1636 1.353 . S
C1638 C1641 1.348 . S
C1638 H1670 0.929 . S
C1639 C1640 1.358 . S
C1639 C1641 1.356 . S
C1639 H1671 0.930 . S
C1640 N1637 1.279 . S
C1640 C1639 1.358 . S
C1640 H1643 0.930 . S
C1641 C1638 1.348 . S
C1641 C1639 1.356 . S
H1642 C1636 0.930 . S
H1643 C1640 0.930 . S
O1644 Li1584 1.956 . S
O1644 Li1585 1.970 . S
O1644 Li1586 1.961 . S
O1644 C1588 1.325 . S
O1645 Li1584 1.970 . S
O1645 Li1585 1.956 . S
O1645 Li1587 1.961 . S
O1645 C1594 1.325 . S
O1646 Li1584 1.961 . S
O1646 Li1586 1.956 . S
O1646 Li1587 1.970 . S
O1646 C1616 1.325 . S
O1647 Li1585 1.961 . S
O1647 Li1586 1.970 . S
O1647 Li1587 1.956 . S
O1647 C1622 1.325 . S
H1648 C1590 0.929 . S
H1649 C1591 0.930 . S
H1650 C1592 0.930 . S
H1651 C1593 0.930 . S
H1652 C1595 0.930 . S
H1653 C1597 0.929 . S
H1654 C1598 0.930 . S
H1655 C1599 0.930 . S
H1656 C1602 0.930 . S
H1657 C1605 0.929 . S
H1658 C1610 0.929 . S
H1659 C1611 0.930 . S
H1660 C1618 0.929 . S
H1661 C1619 0.930 . S
H1662 C1620 0.930 . S
H1663 C1621 0.930 . S
H1664 C1623 0.929 . S
H1665 C1624 0.930 . S
H1666 C1625 0.930 . S
H1667 C1626 0.930 . S
H1668 C1630 0.929 . S
H1669 C1632 0.930 . S
H1670 C1638 0.929 . S
H1671 C1639 0.930 . S
Li1672 N1689 1.990 . S
Li1672 O1732 1.956 . S
Li1672 O1733 1.970 . S
Li1672 O1734 1.961 . S
Li1673 N1697 1.990 . S
Li1673 O1732 1.970 . S
Li1673 O1733 1.956 . S
Li1673 O1735 1.961 . S
Li1674 N1719 1.990 . S
Li1674 O1732 1.961 . S
Li1674 O1734 1.956 . S
Li1674 O1735 1.970 . S
Li1675 N1725 1.990 . S
Li1675 O1733 1.961 . S
Li1675 O1734 1.970 . S
Li1675 O1735 1.956 . S
C1676 C1678 1.348 . S
C1676 C1679 1.356 . S
C1676 O1732 1.325 . S
N1677 C1680 1.314 . S
N1677 C1681 1.279 . S
C1678 C1676 1.348 . S
C1678 C1680 1.353 . S
C1678 H1736 0.929 . S
C1679 C1676 1.356 . S
C1679 C1681 1.358 . S
C1679 H1737 0.930 . S
C1680 N1677 1.314 . S
C1680 C1678 1.353 . S
C1680 H1738 0.930 . S
C1681 N1677 1.279 . S
C1681 C1679 1.358 . S
C1681 H1739 0.930 . S
C1682 C1685 1.348 . S
C1682 C1686 1.356 . S
C1682 O1733 1.325 . S
C1683 N1684 1.279 . S
C1683 C1686 1.358 . S
C1683 H1740 0.930 . S
N1684 C1683 1.279 . S
N1684 C1687 1.314 . S
C1685 C1682 1.348 . S
C1685 C1687 1.353 . S
C1685 H1741 0.929 . S
C1686 C1682 1.356 . S
C1686 C1683 1.358 . S
C1686 H1742 0.930 . S
C1687 N1684 1.314 . S
C1687 C1685 1.353 . S
C1687 H1743 0.930 . S
C1688 N1689 1.314 . S
C1688 C1693 1.353 . S
C1688 H1694 0.930 . S
N1689 Li1672 1.990 . S
N1689 C1688 1.314 . S
N1689 C1691 1.279 . S
C1690 C1691 1.358 . S
C1690 C1692 1.356 . S
C1690 H1744 0.930 . S
C1691 N1689 1.279 . S
C1691 C1690 1.358 . S
C1691 H1695 0.930 . S
C1692 C1690 1.356 . S
C1692 C1693 1.348 . S
C1693 C1688 1.353 . S
C1693 C1692 1.348 . S
C1693 H1745 0.929 . S
H1694 C1688 0.930 . S
H1695 C1691 0.930 . S
C1696 N1697 1.314 . S
C1696 C1698 1.353 . S
C1696 H1702 0.930 . S
N1697 Li1673 1.990 . S
N1697 C1696 1.314 . S
N1697 C1700 1.279 . S
C1698 C1696 1.353 . S
C1698 C1701 1.348 . S
C1698 H1746 0.929 . S
C1699 C1700 1.358 . S
C1699 C1701 1.356 . S
C1699 H1747 0.930 . S
C1700 N1697 1.279 . S
C1700 C1699 1.358 . S
C1700 H1703 0.930 . S
C1701 C1698 1.348 . S
C1701 C1699 1.356 . S
H1702 C1696 0.930 . S
H1703 C1700 0.930 . S
C1704 C1706 1.348 1_545 S
C1704 C1707 1.356 . S
C1704 O1734 1.325 . S
N1705 C1708 1.314 . S
N1705 C1709 1.279 . S
C1706 C1704 1.348 1_565 S
C1706 C1708 1.353 . S
C1706 H1748 0.929 . S
C1707 C1704 1.356 . S
C1707 C1709 1.358 1_545 S
C1707 H1749 0.930 . S
C1708 N1705 1.314 . S
C1708 C1706 1.353 . S
C1708 H1750 0.930 . S
C1709 N1705 1.279 . S
C1709 C1707 1.358 1_565 S
C1709 H1751 0.930 . S
C1710 C1711 1.348 . S
C1710 C1712 1.356 . S
C1710 O1735 1.325 . S
C1711 C1710 1.348 . S
C1711 C1713 1.353 . S
C1711 H1752 0.929 . S
C1712 C1710 1.356 . S
C1712 C1714 1.358 . S
C1712 H1753 0.930 . S
C1713 C1711 1.353 . S
C1713 N1715 1.314 . S
C1713 H1754 0.930 . S
C1714 C1712 1.358 . S
C1714 N1715 1.279 . S
C1714 H1755 0.930 . S
N1715 C1713 1.314 . S
N1715 C1714 1.279 . S
C1716 C1718 1.353 . S
C1716 N1719 1.314 . S
C1716 H1722 0.930 . S
C1717 N1719 1.279 . S
C1717 C1720 1.358 . S
C1717 H1723 0.930 . S
C1718 C1716 1.353 . S
C1718 C1721 1.348 . S
C1718 H1756 0.929 . S
N1719 Li1674 1.990 . S
N1719 C1716 1.314 . S
N1719 C1717 1.279 . S
C1720 C1717 1.358 . S
C1720 C1721 1.356 . S
C1720 H1757 0.930 . S
C1721 C1718 1.348 . S
C1721 C1720 1.356 . S
H1722 C1716 0.930 . S
H1723 C1717 0.930 . S
C1724 N1725 1.314 . S
C1724 C1726 1.353 1_545 S
C1724 H1730 0.930 . S
N1725 Li1675 1.990 . S
N1725 C1724 1.314 . S
N1725 C1728 1.279 . S
C1726 C1724 1.353 1_565 S
C1726 C1729 1.348 . S
C1726 H1758 0.929 . S
C1727 C1728 1.358 1_565 S
C1727 C1729 1.356 . S
C1727 H1759 0.930 . S
C1728 N1725 1.279 . S
C1728 C1727 1.358 1_545 S
C1728 H1731 0.930 . S
C1729 C1726 1.348 . S
C1729 C1727 1.356 . S
H1730 C1724 0.930 . S
H1731 C1728 0.930 . S
O1732 Li1672 1.956 . S
O1732 Li1673 1.970 . S
O1732 Li1674 1.961 . S
O1732 C1676 1.325 . S
O1733 Li1672 1.970 . S
O1733 Li1673 1.956 . S
O1733 Li1675 1.961 . S
O1733 C1682 1.325 . S
O1734 Li1672 1.961 . S
O1734 Li1674 1.956 . S
O1734 Li1675 1.970 . S
O1734 C1704 1.325 . S
O1735 Li1673 1.961 . S
O1735 Li1674 1.970 . S
O1735 Li1675 1.956 . S
O1735 C1710 1.325 . S
H1736 C1678 0.929 . S
H1737 C1679 0.930 . S
H1738 C1680 0.930 . S
H1739 C1681 0.930 . S
H1740 C1683 0.930 . S
H1741 C1685 0.929 . S
H1742 C1686 0.930 . S
H1743 C1687 0.930 . S
H1744 C1690 0.930 . S
H1745 C1693 0.929 . S
H1746 C1698 0.929 . S
H1747 C1699 0.930 . S
H1748 C1706 0.929 . S
H1749 C1707 0.930 . S
H1750 C1708 0.930 . S
H1751 C1709 0.930 . S
H1752 C1711 0.929 . S
H1753 C1712 0.930 . S
H1754 C1713 0.930 . S
H1755 C1714 0.930 . S
H1756 C1718 0.929 . S
H1757 C1720 0.930 . S
H1758 C1726 0.929 . S
H1759 C1727 0.930 . S
Li1760 N1777 1.990 . S
Li1760 O1820 1.956 . S
Li1760 O1821 1.970 . S
Li1760 O1822 1.961 . S
Li1761 N1785 1.990 . S
Li1761 O1820 1.970 . S
Li1761 O1821 1.956 . S
Li1761 O1823 1.961 1_554 S
Li1762 N1807 1.990 . S
Li1762 O1820 1.961 1_556 S
Li1762 O1822 1.956 1_556 S
Li1762 O1823 1.970 . S
Li1763 N1813 1.992 1_554 S
Li1763 O1821 1.961 . S
Li1763 O1822 1.970 . S
Li1763 O1823 1.956 1_554 S
C1764 C1766 1.348 . S
C1764 C1767 1.356 . S
C1764 O1820 1.325 . S
N1765 C1768 1.314 . S
N1765 C1769 1.279 . S
C1766 C1764 1.348 . S
C1766 C1768 1.353 . S
C1766 H1824 0.929 . S
C1767 C1764 1.356 . S
C1767 C1769 1.358 . S
C1767 H1825 0.930 . S
C1768 N1765 1.314 . S
C1768 C1766 1.353 . S
C1768 H1826 0.930 . S
C1769 N1765 1.279 . S
C1769 C1767 1.358 . S
C1769 H1827 0.930 . S
C1770 C1773 1.348 . S
C1770 C1774 1.356 . S
C1770 O1821 1.325 . S
C1771 N1772 1.279 . S
C1771 C1774 1.358 . S
C1771 H1828 0.930 . S
N1772 C1771 1.279 . S
N1772 C1775 1.314 . S
C1773 C1770 1.348 . S
C1773 C1775 1.353 . S
C1773 H1829 0.929 . S
C1774 C1770 1.356 . S
C1774 C1771 1.358 . S
C1774 H1830 0.930 . S
C1775 N1772 1.314 . S
C1775 C1773 1.353 . S
C1775 H1831 0.930 . S
C1776 N1777 1.314 . S
C1776 C1781 1.353 . S
C1776 H1782 0.930 . S
N1777 Li1760 1.990 . S
N1777 C1776 1.314 . S
N1777 C1779 1.279 . S
C1778 C1779 1.358 . S
C1778 C1780 1.356 . S
C1778 H1832 0.930 . S
C1779 N1777 1.279 . S
C1779 C1778 1.358 . S
C1779 H1783 0.930 . S
C1780 C1778 1.356 . S
C1780 C1781 1.348 . S
C1781 C1776 1.353 . S
C1781 C1780 1.348 . S
C1781 H1833 0.929 . S
H1782 C1776 0.930 . S
H1783 C1779 0.930 . S
C1784 N1785 1.314 1_556 S
C1784 C1786 1.353 . S
C1784 H1790 0.930 . S
N1785 Li1761 1.990 . S
N1785 C1784 1.314 1_554 S
N1785 C1788 1.279 . S
C1786 C1784 1.353 . S
C1786 C1789 1.348 1_556 S
C1786 H1834 0.929 . S
C1787 C1788 1.358 . S
C1787 C1789 1.356 . S
C1787 H1835 0.930 . S
C1788 N1785 1.279 . S
C1788 C1787 1.358 . S
C1788 H1791 0.930 . S
C1789 C1786 1.348 1_554 S
C1789 C1787 1.356 . S
H1790 C1784 0.930 . S
H1791 C1788 0.930 . S
C1792 C1794 1.354 . S
C1792 C1795 1.356 . S
C1792 O1822 1.325 . S
N1793 C1796 1.314 . S
N1793 C1797 1.279 . S
C1794 C1792 1.354 . S
C1794 C1796 1.353 . S
C1794 H1836 0.924 1_554 S
C1795 C1792 1.356 . S
C1795 C1797 1.358 . S
C1795 H1837 0.930 . S
C1796 N1793 1.314 . S
C1796 C1794 1.353 . S
C1796 H1838 0.930 1_554 S
C1797 N1793 1.279 . S
C1797 C1795 1.358 . S
C1797 H1839 0.930 . S
C1798 C1799 1.348 . S
C1798 C1800 1.356 . S
C1798 O1823 1.325 . S
C1799 C1798 1.348 . S
C1799 C1801 1.353 . S
C1799 H1840 0.929 . S
C1800 C1798 1.356 . S
C1800 C1802 1.358 . S
C1800 H1841 0.930 . S
C1801 C1799 1.353 . S
C1801 N1803 1.314 . S
C1801 H1842 0.930 . S
C1802 C1800 1.358 . S
C1802 N1803 1.279 . S
C1802 H1843 0.930 . S
N1803 C1801 1.314 . S
N1803 C1802 1.279 . S
C1804 C1806 1.353 . S
C1804 N1807 1.314 . S
C1804 H1810 0.930 . S
C1805 N1807 1.279 . S
C1805 C1808 1.358 . S
C1805 H1811 0.930 . S
C1806 C1804 1.353 . S
C1806 C1809 1.348 . S
C1806 H1844 0.929 . S
N1807 Li1762 1.990 . S
N1807 C1804 1.314 . S
N1807 C1805 1.279 . S
C1808 C1805 1.358 . S
C1808 C1809 1.356 . S
C1808 H1845 0.930 . S
C1809 C1806 1.348 . S
C1809 C1808 1.356 . S
H1810 C1804 0.930 . S
H1811 C1805 0.930 . S
C1812 N1813 1.294 1_554 S
C1812 C1814 1.353 . S
C1812 H1818 0.930 . S
N1813 Li1763 1.992 1_556 S
N1813 C1812 1.294 1_556 S
N1813 C1816 1.297 . S
C1814 C1812 1.353 . S
C1814 C1817 1.348 1_554 S
C1814 H1846 0.929 . S
C1815 C1816 1.358 . S
C1815 C1817 1.356 . S
C1815 H1847 0.930 . S
C1816 N1813 1.297 . S
C1816 C1815 1.358 . S
C1816 H1819 0.930 . S
C1817 C1814 1.348 1_556 S
C1817 C1815 1.356 . S
H1818 C1812 0.930 . S
H1819 C1816 0.930 . S
O1820 Li1760 1.956 . S
O1820 Li1761 1.970 . S
O1820 Li1762 1.961 1_554 S
O1820 C1764 1.325 . S
O1821 Li1760 1.970 . S
O1821 Li1761 1.956 . S
O1821 Li1763 1.961 . S
O1821 C1770 1.325 . S
O1822 Li1760 1.961 . S
O1822 Li1762 1.956 1_554 S
O1822 Li1763 1.970 . S
O1822 C1792 1.325 . S
O1823 Li1761 1.961 1_556 S
O1823 Li1762 1.970 . S
O1823 Li1763 1.956 1_556 S
O1823 C1798 1.325 . S
H1824 C1766 0.929 . S
H1825 C1767 0.930 . S
H1826 C1768 0.930 . S
H1827 C1769 0.930 . S
H1828 C1771 0.930 . S
H1829 C1773 0.929 . S
H1830 C1774 0.930 . S
H1831 C1775 0.930 . S
H1832 C1778 0.930 . S
H1833 C1781 0.929 . S
H1834 C1786 0.929 . S
H1835 C1787 0.930 . S
H1836 C1794 0.924 1_556 S
H1837 C1795 0.930 . S
H1838 C1796 0.930 1_556 S
H1839 C1797 0.930 . S
H1840 C1799 0.929 . S
H1841 C1800 0.930 . S
H1842 C1801 0.930 . S
H1843 C1802 0.930 . S
H1844 C1806 0.929 . S
H1845 C1808 0.930 . S
H1846 C1814 0.929 . S
H1847 C1815 0.930 . S
Li1848 N1865 1.990 . S
Li1848 O1908 1.956 . S
Li1848 O1909 1.970 . S
Li1848 O1910 1.961 . S
Li1849 N1873 1.990 . S
Li1849 O1908 1.970 . S
Li1849 O1909 1.956 . S
Li1849 O1911 1.961 . S
Li1850 N1895 1.990 . S
Li1850 O1908 1.961 . S
Li1850 O1910 1.956 . S
Li1850 O1911 1.970 . S
Li1851 N1901 1.990 . S
Li1851 O1909 1.961 . S
Li1851 O1910 1.970 . S
Li1851 O1911 1.956 . S
C1852 C1854 1.348 . S
C1852 C1855 1.356 . S
C1852 O1908 1.325 . S
N1853 C1856 1.314 . S
N1853 C1857 1.279 . S
C1854 C1852 1.348 . S
C1854 C1856 1.353 . S
C1854 H1912 0.929 . S
C1855 C1852 1.356 . S
C1855 C1857 1.358 . S
C1855 H1913 0.930 . S
C1856 N1853 1.314 . S
C1856 C1854 1.353 . S
C1856 H1914 0.930 . S
C1857 N1853 1.279 . S
C1857 C1855 1.358 . S
C1857 H1915 0.930 . S
C1858 C1861 1.348 . S
C1858 C1862 1.356 . S
C1858 O1909 1.325 . S
C1859 N1860 1.279 . S
C1859 C1862 1.358 . S
C1859 H1916 0.930 . S
N1860 C1859 1.279 . S
N1860 C1863 1.314 . S
C1861 C1858 1.348 . S
C1861 C1863 1.353 . S
C1861 H1917 0.929 . S
C1862 C1858 1.356 . S
C1862 C1859 1.358 . S
C1862 H1918 0.930 . S
C1863 N1860 1.314 . S
C1863 C1861 1.353 . S
C1863 H1919 0.930 . S
C1864 N1865 1.314 . S
C1864 C1869 1.353 . S
C1864 H1870 0.930 . S
N1865 Li1848 1.990 . S
N1865 C1864 1.314 . S
N1865 C1867 1.279 . S
C1866 C1867 1.358 . S
C1866 C1868 1.356 . S
C1866 H1920 0.930 . S
C1867 N1865 1.279 . S
C1867 C1866 1.358 . S
C1867 H1871 0.930 . S
C1868 C1866 1.356 . S
C1868 C1869 1.348 . S
C1869 C1864 1.353 . S
C1869 C1868 1.348 . S
C1869 H1921 0.929 . S
H1870 C1864 0.930 . S
H1871 C1867 0.930 . S
C1872 N1873 1.314 . S
C1872 C1874 1.353 . S
C1872 H1878 0.930 . S
N1873 Li1849 1.990 . S
N1873 C1872 1.314 . S
N1873 C1876 1.279 . S
C1874 C1872 1.353 . S
C1874 C1877 1.348 . S
C1874 H1922 0.929 . S
C1875 C1876 1.358 . S
C1875 C1877 1.356 . S
C1875 H1923 0.930 . S
C1876 N1873 1.279 . S
C1876 C1875 1.358 . S
C1876 H1879 0.930 . S
C1877 C1874 1.348 . S
C1877 C1875 1.356 . S
H1878 C1872 0.930 . S
H1879 C1876 0.930 . S
C1880 C1882 1.348 . S
C1880 C1883 1.356 . S
C1880 O1910 1.325 . S
N1881 C1884 1.314 . S
N1881 C1885 1.279 . S
C1882 C1880 1.348 . S
C1882 C1884 1.353 . S
C1882 H1924 0.929 . S
C1883 C1880 1.356 . S
C1883 C1885 1.358 . S
C1883 H1925 0.930 . S
C1884 N1881 1.314 . S
C1884 C1882 1.353 . S
C1884 H1926 0.930 . S
C1885 N1881 1.279 . S
C1885 C1883 1.358 . S
C1885 H1927 0.930 . S
C1886 C1887 1.348 . S
C1886 C1888 1.356 . S
C1886 O1911 1.325 . S
C1887 C1886 1.348 . S
C1887 C1889 1.353 . S
C1887 H1928 0.929 . S
C1888 C1886 1.356 . S
C1888 C1890 1.358 . S
C1888 H1929 0.930 . S
C1889 C1887 1.353 . S
C1889 N1891 1.314 . S
C1889 H1930 0.930 . S
C1890 C1888 1.358 . S
C1890 N1891 1.279 . S
C1890 H1931 0.930 . S
N1891 C1889 1.314 . S
N1891 C1890 1.279 . S
C1892 C1894 1.353 . S
C1892 N1895 1.314 . S
C1892 H1898 0.930 . S
C1893 N1895 1.279 . S
C1893 C1896 1.358 . S
C1893 H1899 0.930 . S
C1894 C1892 1.353 . S
C1894 C1897 1.348 . S
C1894 H1932 0.929 . S
N1895 Li1850 1.990 . S
N1895 C1892 1.314 . S
N1895 C1893 1.279 . S
C1896 C1893 1.358 . S
C1896 C1897 1.356 . S
C1896 H1933 0.930 . S
C1897 C1894 1.348 . S
C1897 C1896 1.356 . S
H1898 C1892 0.930 . S
H1899 C1893 0.930 . S
C1900 N1901 1.314 . S
C1900 C1902 1.353 . S
C1900 H1906 0.930 . S
N1901 Li1851 1.990 . S
N1901 C1900 1.314 . S
N1901 C1904 1.279 . S
C1902 C1900 1.353 . S
C1902 C1905 1.348 . S
C1902 H1934 0.929 . S
C1903 C1904 1.358 . S
C1903 C1905 1.356 . S
C1903 H1935 0.930 . S
C1904 N1901 1.279 . S
C1904 C1903 1.358 . S
C1904 H1907 0.930 . S
C1905 C1902 1.348 . S
C1905 C1903 1.356 . S
H1906 C1900 0.930 . S
H1907 C1904 0.930 . S
O1908 Li1848 1.956 . S
O1908 Li1849 1.970 . S
O1908 Li1850 1.961 . S
O1908 C1852 1.325 . S
O1909 Li1848 1.970 . S
O1909 Li1849 1.956 . S
O1909 Li1851 1.961 . S
O1909 C1858 1.325 . S
O1910 Li1848 1.961 . S
O1910 Li1850 1.956 . S
O1910 Li1851 1.970 . S
O1910 C1880 1.325 . S
O1911 Li1849 1.961 . S
O1911 Li1850 1.970 . S
O1911 Li1851 1.956 . S
O1911 C1886 1.325 . S
H1912 C1854 0.929 . S
H1913 C1855 0.930 . S
H1914 C1856 0.930 . S
H1915 C1857 0.930 . S
H1916 C1859 0.930 . S
H1917 C1861 0.929 . S
H1918 C1862 0.930 . S
H1919 C1863 0.930 . S
H1920 C1866 0.930 . S
H1921 C1869 0.929 . S
H1922 C1874 0.929 . S
H1923 C1875 0.930 . S
H1924 C1882 0.929 . S
H1925 C1883 0.930 . S
H1926 C1884 0.930 . S
H1927 C1885 0.930 . S
H1928 C1887 0.929 . S
H1929 C1888 0.930 . S
H1930 C1889 0.930 . S
H1931 C1890 0.930 . S
H1932 C1894 0.929 . S
H1933 C1896 0.930 . S
H1934 C1902 0.929 . S
H1935 C1903 0.930 . S
Li1936 N1953 1.990 . S
Li1936 O1996 1.956 . S
Li1936 O1997 1.970 . S
Li1936 O1998 1.961 . S
Li1937 N1961 1.990 . S
Li1937 O1996 1.970 . S
Li1937 O1997 1.956 . S
Li1937 O1999 1.961 . S
Li1938 N1983 1.990 . S
Li1938 O1996 1.961 . S
Li1938 O1998 1.956 . S
Li1938 O1999 1.970 . S
Li1939 N1989 1.990 . S
Li1939 O1997 1.961 . S
Li1939 O1998 1.970 . S
Li1939 O1999 1.956 . S
C1940 C1942 1.348 . S
C1940 C1943 1.356 . S
C1940 O1996 1.325 . S
N1941 C1944 1.314 . S
N1941 C1945 1.279 . S
C1942 C1940 1.348 . S
C1942 C1944 1.353 . S
C1942 H2000 0.929 . S
C1943 C1940 1.356 . S
C1943 C1945 1.358 . S
C1943 H2001 0.930 . S
C1944 N1941 1.314 . S
C1944 C1942 1.353 . S
C1944 H2002 0.930 . S
C1945 N1941 1.279 . S
C1945 C1943 1.358 . S
C1945 H2003 0.930 . S
C1946 C1949 1.348 . S
C1946 C1950 1.356 . S
C1946 O1997 1.325 . S
C1947 N1948 1.279 . S
C1947 C1950 1.358 . S
C1947 H2004 0.930 . S
N1948 C1947 1.279 . S
N1948 C1951 1.314 . S
C1949 C1946 1.348 . S
C1949 C1951 1.353 . S
C1949 H2005 0.929 . S
C1950 C1946 1.356 . S
C1950 C1947 1.358 . S
C1950 H2006 0.930 . S
C1951 N1948 1.314 . S
C1951 C1949 1.353 . S
C1951 H2007 0.930 . S
C1952 N1953 1.314 . S
C1952 C1957 1.353 . S
C1952 H1958 0.930 . S
N1953 Li1936 1.990 . S
N1953 C1952 1.314 . S
N1953 C1955 1.279 . S
C1954 C1955 1.358 . S
C1954 C1956 1.356 . S
C1954 H2008 0.930 . S
C1955 N1953 1.279 . S
C1955 C1954 1.358 . S
C1955 H1959 0.930 . S
C1956 C1954 1.356 . S
C1956 C1957 1.348 . S
C1957 C1952 1.353 . S
C1957 C1956 1.348 . S
C1957 H2009 0.929 . S
H1958 C1952 0.930 . S
H1959 C1955 0.930 . S
C1960 N1961 1.314 . S
C1960 C1962 1.353 . S
C1960 H1966 0.930 . S
N1961 Li1937 1.990 . S
N1961 C1960 1.314 . S
N1961 C1964 1.279 . S
C1962 C1960 1.353 . S
C1962 C1965 1.348 . S
C1962 H2010 0.929 . S
C1963 C1964 1.358 . S
C1963 C1965 1.356 . S
C1963 H2011 0.930 . S
C1964 N1961 1.279 . S
C1964 C1963 1.358 . S
C1964 H1967 0.930 . S
C1965 C1962 1.348 . S
C1965 C1963 1.356 . S
H1966 C1960 0.930 . S
H1967 C1964 0.930 . S
C1968 C1970 1.348 . S
C1968 C1971 1.356 . S
C1968 O1998 1.325 . S
N1969 C1972 1.314 . S
N1969 C1973 1.279 . S
C1970 C1968 1.348 . S
C1970 C1972 1.353 . S
C1970 H2012 0.929 . S
C1971 C1968 1.356 . S
C1971 C1973 1.358 . S
C1971 H2013 0.930 . S
C1972 N1969 1.314 . S
C1972 C1970 1.353 . S
C1972 H2014 0.930 . S
C1973 N1969 1.279 . S
C1973 C1971 1.358 . S
C1973 H2015 0.930 . S
C1974 C1975 1.348 . S
C1974 C1976 1.356 . S
C1974 O1999 1.325 . S
C1975 C1974 1.348 . S
C1975 C1977 1.353 . S
C1975 H2016 0.929 . S
C1976 C1974 1.356 . S
C1976 C1978 1.358 . S
C1976 H2017 0.930 . S
C1977 C1975 1.353 . S
C1977 N1979 1.314 . S
C1977 H2018 0.930 . S
C1978 C1976 1.358 . S
C1978 N1979 1.279 . S
C1978 H2019 0.930 . S
N1979 C1977 1.314 . S
N1979 C1978 1.279 . S
C1980 C1982 1.353 . S
C1980 N1983 1.314 . S
C1980 H1986 0.930 . S
C1981 N1983 1.279 . S
C1981 C1984 1.358 . S
C1981 H1987 0.930 . S
C1982 C1980 1.353 . S
C1982 C1985 1.348 . S
C1982 H2020 0.929 . S
N1983 Li1938 1.990 . S
N1983 C1980 1.314 . S
N1983 C1981 1.279 . S
C1984 C1981 1.358 . S
C1984 C1985 1.356 . S
C1984 H2021 0.930 . S
C1985 C1982 1.348 . S
C1985 C1984 1.356 . S
H1986 C1980 0.930 . S
H1987 C1981 0.930 . S
C1988 N1989 1.314 . S
C1988 C1990 1.353 . S
C1988 H1994 0.930 . S
N1989 Li1939 1.990 . S
N1989 C1988 1.314 . S
N1989 C1992 1.279 . S
C1990 C1988 1.353 . S
C1990 C1993 1.348 . S
C1990 H2022 0.929 . S
C1991 C1992 1.358 . S
C1991 C1993 1.356 . S
C1991 H2023 0.930 . S
C1992 N1989 1.279 . S
C1992 C1991 1.358 . S
C1992 H1995 0.930 . S
C1993 C1990 1.348 . S
C1993 C1991 1.356 . S
H1994 C1988 0.930 . S
H1995 C1992 0.930 . S
O1996 Li1936 1.956 . S
O1996 Li1937 1.970 . S
O1996 Li1938 1.961 . S
O1996 C1940 1.325 . S
O1997 Li1936 1.970 . S
O1997 Li1937 1.956 . S
O1997 Li1939 1.961 . S
O1997 C1946 1.325 . S
O1998 Li1936 1.961 . S
O1998 Li1938 1.956 . S
O1998 Li1939 1.970 . S
O1998 C1968 1.325 . S
O1999 Li1937 1.961 . S
O1999 Li1938 1.970 . S
O1999 Li1939 1.956 . S
O1999 C1974 1.325 . S
H2000 C1942 0.929 . S
H2001 C1943 0.930 . S
H2002 C1944 0.930 . S
H2003 C1945 0.930 . S
H2004 C1947 0.930 . S
H2005 C1949 0.929 . S
H2006 C1950 0.930 . S
H2007 C1951 0.930 . S
H2008 C1954 0.930 . S
H2009 C1957 0.929 . S
H2010 C1962 0.929 . S
H2011 C1963 0.930 . S
H2012 C1970 0.929 . S
H2013 C1971 0.930 . S
H2014 C1972 0.930 . S
H2015 C1973 0.930 . S
H2016 C1975 0.929 . S
H2017 C1976 0.930 . S
H2018 C1977 0.930 . S
H2019 C1978 0.930 . S
H2020 C1982 0.929 . S
H2021 C1984 0.930 . S
H2022 C1990 0.929 . S
H2023 C1991 0.930 . S
Li2024 N2041 1.990 . S
Li2024 O2084 1.956 . S
Li2024 O2085 1.970 . S
Li2024 O2086 1.961 . S
Li2025 N2049 1.990 . S
Li2025 O2084 1.970 . S
Li2025 O2085 1.956 . S
Li2025 O2087 1.961 . S
Li2026 N2071 1.990 . S
Li2026 O2084 1.961 . S
Li2026 O2086 1.956 . S
Li2026 O2087 1.970 . S
Li2027 N2077 1.990 . S
Li2027 O2085 1.961 . S
Li2027 O2086 1.970 . S
Li2027 O2087 1.956 . S
C2028 C2030 1.348 . S
C2028 C2031 1.356 . S
C2028 O2084 1.325 . S
N2029 C2032 1.314 . S
N2029 C2033 1.279 . S
C2030 C2028 1.348 . S
C2030 C2032 1.353 . S
C2030 H2088 0.929 . S
C2031 C2028 1.356 . S
C2031 C2033 1.358 . S
C2031 H2089 0.930 . S
C2032 N2029 1.314 . S
C2032 C2030 1.353 . S
C2032 H2090 0.930 . S
C2033 N2029 1.279 . S
C2033 C2031 1.358 . S
C2033 H2091 0.930 . S
C2034 C2037 1.348 . S
C2034 C2038 1.356 . S
C2034 O2085 1.325 . S
C2035 N2036 1.279 . S
C2035 C2038 1.358 . S
C2035 H2092 0.930 . S
N2036 C2035 1.279 . S
N2036 C2039 1.314 . S
C2037 C2034 1.348 . S
C2037 C2039 1.353 . S
C2037 H2093 0.929 . S
C2038 C2034 1.356 . S
C2038 C2035 1.358 . S
C2038 H2094 0.930 . S
C2039 N2036 1.314 . S
C2039 C2037 1.353 . S
C2039 H2095 0.930 . S
C2040 N2041 1.314 . S
C2040 C2045 1.353 . S
C2040 H2046 0.930 . S
N2041 Li2024 1.990 . S
N2041 C2040 1.314 . S
N2041 C2043 1.279 . S
C2042 C2043 1.358 . S
C2042 C2044 1.356 . S
C2042 H2096 0.930 . S
C2043 N2041 1.279 . S
C2043 C2042 1.358 . S
C2043 H2047 0.930 . S
C2044 C2042 1.356 . S
C2044 C2045 1.348 . S
C2045 C2040 1.353 . S
C2045 C2044 1.348 . S
C2045 H2097 0.929 . S
H2046 C2040 0.930 . S
H2047 C2043 0.930 . S
C2048 N2049 1.314 . S
C2048 C2050 1.353 . S
C2048 H2054 0.930 . S
N2049 Li2025 1.990 . S
N2049 C2048 1.314 . S
N2049 C2052 1.279 . S
C2050 C2048 1.353 . S
C2050 C2053 1.348 . S
C2050 H2098 0.929 . S
C2051 C2052 1.358 . S
C2051 C2053 1.356 . S
C2051 H2099 0.930 . S
C2052 N2049 1.279 . S
C2052 C2051 1.358 . S
C2052 H2055 0.930 . S
C2053 C2050 1.348 . S
C2053 C2051 1.356 . S
H2054 C2048 0.930 . S
H2055 C2052 0.930 . S
C2056 C2058 1.348 . S
C2056 C2059 1.356 . S
C2056 O2086 1.325 . S
N2057 C2060 1.314 . S
N2057 C2061 1.279 . S
C2058 C2056 1.348 . S
C2058 C2060 1.353 . S
C2058 H2100 0.929 . S
C2059 C2056 1.356 . S
C2059 C2061 1.358 . S
C2059 H2101 0.930 . S
C2060 N2057 1.314 . S
C2060 C2058 1.353 . S
C2060 H2102 0.930 . S
C2061 N2057 1.279 . S
C2061 C2059 1.358 . S
C2061 H2103 0.930 . S
C2062 C2063 1.348 . S
C2062 C2064 1.356 . S
C2062 O2087 1.325 . S
C2063 C2062 1.348 . S
C2063 C2065 1.353 . S
C2063 H2104 0.929 . S
C2064 C2062 1.356 . S
C2064 C2066 1.358 . S
C2064 H2105 0.930 . S
C2065 C2063 1.353 . S
C2065 N2067 1.314 . S
C2065 H2106 0.930 . S
C2066 C2064 1.358 . S
C2066 N2067 1.279 . S
C2066 H2107 0.930 . S
N2067 C2065 1.314 . S
N2067 C2066 1.279 . S
C2068 C2070 1.353 . S
C2068 N2071 1.314 . S
C2068 H2074 0.930 . S
C2069 N2071 1.279 . S
C2069 C2072 1.358 . S
C2069 H2075 0.930 . S
C2070 C2068 1.353 . S
C2070 C2073 1.348 . S
C2070 H2108 0.929 . S
N2071 Li2026 1.990 . S
N2071 C2068 1.314 . S
N2071 C2069 1.279 . S
C2072 C2069 1.358 . S
C2072 C2073 1.356 . S
C2072 H2109 0.930 . S
C2073 C2070 1.348 . S
C2073 C2072 1.356 . S
H2074 C2068 0.930 . S
H2075 C2069 0.930 . S
C2076 N2077 1.314 . S
C2076 C2078 1.353 . S
C2076 H2082 0.930 . S
N2077 Li2027 1.990 . S
N2077 C2076 1.314 . S
N2077 C2080 1.279 . S
C2078 C2076 1.353 . S
C2078 C2081 1.348 . S
C2078 H2110 0.929 . S
C2079 C2080 1.358 . S
C2079 C2081 1.356 . S
C2079 H2111 0.930 . S
C2080 N2077 1.279 . S
C2080 C2079 1.358 . S
C2080 H2083 0.930 . S
C2081 C2078 1.348 . S
C2081 C2079 1.356 . S
H2082 C2076 0.930 . S
H2083 C2080 0.930 . S
O2084 Li2024 1.956 . S
O2084 Li2025 1.970 . S
O2084 Li2026 1.961 . S
O2084 C2028 1.325 . S
O2085 Li2024 1.970 . S
O2085 Li2025 1.956 . S
O2085 Li2027 1.961 . S
O2085 C2034 1.325 . S
O2086 Li2024 1.961 . S
O2086 Li2026 1.956 . S
O2086 Li2027 1.970 . S
O2086 C2056 1.325 . S
O2087 Li2025 1.961 . S
O2087 Li2026 1.970 . S
O2087 Li2027 1.956 . S
O2087 C2062 1.325 . S
H2088 C2030 0.929 . S
H2089 C2031 0.930 . S
H2090 C2032 0.930 . S
H2091 C2033 0.930 . S
H2092 C2035 0.930 . S
H2093 C2037 0.929 . S
H2094 C2038 0.930 . S
H2095 C2039 0.930 . S
H2096 C2042 0.930 . S
H2097 C2045 0.929 . S
H2098 C2050 0.929 . S
H2099 C2051 0.930 . S
H2100 C2058 0.929 . S
H2101 C2059 0.930 . S
H2102 C2060 0.930 . S
H2103 C2061 0.930 . S
H2104 C2063 0.929 . S
H2105 C2064 0.930 . S
H2106 C2065 0.930 . S
H2107 C2066 0.930 . S
H2108 C2070 0.929 . S
H2109 C2072 0.930 . S
H2110 C2078 0.929 . S
H2111 C2079 0.930 . S
Eu2112 C2121 2.828 . S
Eu2112 O2123 2.392 . S
Eu2112 O2125 2.418 . S
Eu2112 O2130 2.373 . S
Eu2112 O2133 2.488 . S
Eu2112 O2134 2.471 1_554 S
Eu2112 O2135 2.349 1_554 S
Eu2113 O2122 2.370 . S
Eu2113 O2126 2.460 1_544 S
Eu2113 O2127 2.449 1_545 S
Eu2113 O2128 2.366 . S
Eu2113 O2131 2.416 1_554 S
Eu2113 O2132 2.415 1_554 S
Eu2113 C2142 2.800 1_545 S
C2114 O2132 1.297 . S
C2114 O2135 1.265 . S
C2115 C2116 1.412 . S
C2115 C2119 1.355 1_556 S
C2115 C2121 1.491 1_556 S
C2116 C2115 1.412 . S
C2116 C2118 1.369 . S
C2116 H2144 0.930 . S
C2117 C2119 1.383 . S
C2117 C2120 1.382 1_554 S
C2117 H2145 0.930 . S
C2118 C2116 1.369 . S
C2118 C2120 1.392 . S
C2118 H2146 0.930 . S
C2119 C2115 1.355 1_554 S
C2119 C2117 1.383 . S
C2119 H2147 0.931 . S
C2120 C2117 1.382 1_556 S
C2120 C2118 1.392 . S
C2121 Eu2112 2.828 . S
C2121 C2115 1.491 1_554 S
C2121 O2133 1.249 . S
C2121 O2134 1.244 1_554 S
O2122 Eu2113 2.370 . S
O2122 C2124 1.258 . S
O2123 Eu2112 2.392 . S
O2123 C2124 1.242 . S
C2124 O2122 1.258 . S
C2124 O2123 1.242 . S
O2125 Eu2112 2.418 . S
O2125 C2129 1.244 . S
O2126 Eu2113 2.460 1_566 S
O2126 C2142 1.249 1_556 S
O2127 Eu2113 2.449 1_565 S
O2127 C2142 1.244 . S
O2128 Eu2113 2.366 . S
O2128 C2129 1.265 . S
C2129 O2125 1.244 . S
C2129 O2128 1.265 . S
O2130 Eu2112 2.373 . S
O2130 C2143 1.268 . S
O2131 Eu2113 2.416 1_556 S
O2131 C2143 1.241 1_556 S
O2132 Eu2113 2.415 1_556 S
O2132 C2114 1.297 . S
O2133 Eu2112 2.488 . S
O2133 C2121 1.249 . S
O2134 Eu2112 2.471 1_556 S
O2134 C2121 1.244 1_556 S
O2135 Eu2112 2.349 1_556 S
O2135 C2114 1.265 . S
C2136 C2137 1.379 . S
C2136 C2140 1.373 . S
C2136 C2142 1.505 . S
C2137 C2136 1.379 . S
C2137 C2139 1.369 . S
C2137 H2148 0.930 . S
C2138 C2140 1.383 . S
C2138 C2141 1.382 . S
C2138 H2149 0.930 . S
C2139 C2137 1.369 . S
C2139 C2141 1.392 . S
C2139 H2150 0.930 . S
C2140 C2136 1.373 . S
C2140 C2138 1.383 . S
C2140 H2151 0.931 1_554 S
C2141 C2138 1.382 . S
C2141 C2139 1.392 . S
C2142 Eu2113 2.800 1_565 S
C2142 O2126 1.249 1_554 S
C2142 O2127 1.244 . S
C2142 C2136 1.505 . S
C2143 O2130 1.268 . S
C2143 O2131 1.241 1_554 S
H2144 C2116 0.930 . S
H2145 C2117 0.930 . S
H2146 C2118 0.930 . S
H2147 C2119 0.931 . S
H2148 C2137 0.930 . S
H2149 C2138 0.930 . S
H2150 C2139 0.930 . S
H2151 C2140 0.931 1_556 S
Eu2152 C2161 2.828 . S
Eu2152 O2163 2.392 . S
Eu2152 O2165 2.418 . S
Eu2152 O2170 2.373 . S
Eu2152 O2173 2.488 . S
Eu2152 O2174 2.471 . S
Eu2152 O2175 2.349 . S
Eu2153 O2162 2.373 . S
Eu2153 O2166 2.488 . S
Eu2153 O2167 2.471 . S
Eu2153 O2168 2.349 . S
Eu2153 O2171 2.392 . S
Eu2153 O2172 2.418 . S
Eu2153 C2182 2.828 . S
C2154 O2172 1.244 . S
C2154 O2175 1.265 . S
C2155 C2156 1.379 . S
C2155 C2159 1.373 . S
C2155 C2161 1.505 . S
C2156 C2155 1.379 . S
C2156 C2158 1.369 . S
C2156 H2184 0.930 . S
C2157 C2159 1.383 . S
C2157 C2160 1.382 . S
C2157 H2185 0.930 . S
C2158 C2156 1.369 . S
C2158 C2160 1.392 . S
C2158 H2186 0.930 . S
C2159 C2155 1.373 . S
C2159 C2157 1.383 . S
C2159 H2187 0.931 . S
C2160 C2157 1.382 . S
C2160 C2158 1.392 . S
C2161 Eu2152 2.828 . S
C2161 C2155 1.505 . S
C2161 O2173 1.249 . S
C2161 O2174 1.244 . S
O2162 Eu2153 2.373 . S
O2162 C2164 1.258 . S
O2163 Eu2152 2.392 . S
O2163 C2164 1.242 . S
C2164 O2162 1.258 . S
C2164 O2163 1.242 . S
O2165 Eu2152 2.418 . S
O2165 C2169 1.244 . S
O2166 Eu2153 2.488 . S
O2166 C2182 1.249 . S
O2167 Eu2153 2.471 . S
O2167 C2182 1.244 . S
O2168 Eu2153 2.349 . S
O2168 C2169 1.265 . S
C2169 O2165 1.244 . S
C2169 O2168 1.265 . S
O2170 Eu2152 2.373 . S
O2170 C2183 1.258 . S
O2171 Eu2153 2.392 . S
O2171 C2183 1.242 . S
O2172 Eu2153 2.418 . S
O2172 C2154 1.244 . S
O2173 Eu2152 2.488 . S
O2173 C2161 1.249 . S
O2174 Eu2152 2.471 . S
O2174 C2161 1.244 . S
O2175 Eu2152 2.349 . S
O2175 C2154 1.265 . S
C2176 C2177 1.379 . S
C2176 C2180 1.373 . S
C2176 C2182 1.505 . S
C2177 C2176 1.379 . S
C2177 C2179 1.369 . S
C2177 H2188 0.930 . S
C2178 C2180 1.383 . S
C2178 C2181 1.382 . S
C2178 H2189 0.930 . S
C2179 C2177 1.369 . S
C2179 C2181 1.392 . S
C2179 H2190 0.930 . S
C2180 C2176 1.373 . S
C2180 C2178 1.383 . S
C2180 H2191 0.931 . S
C2181 C2178 1.382 . S
C2181 C2179 1.392 . S
C2182 Eu2153 2.828 . S
C2182 O2166 1.249 . S
C2182 O2167 1.244 . S
C2182 C2176 1.505 . S
C2183 O2170 1.258 . S
C2183 O2171 1.242 . S
H2184 C2156 0.930 . S
H2185 C2157 0.930 . S
H2186 C2158 0.930 . S
H2187 C2159 0.931 . S
H2188 C2177 0.930 . S
H2189 C2178 0.930 . S
H2190 C2179 0.930 . S
H2191 C2180 0.931 . S
Eu2192 C2201 2.828 . S
Eu2192 O2203 2.392 . S
Eu2192 O2205 2.418 . S
Eu2192 O2210 2.372 . S
Eu2192 O2213 2.488 . S
Eu2192 O2214 2.471 . S
Eu2192 O2215 2.349 . S
Eu2193 O2202 2.373 . S
Eu2193 O2206 2.488 . S
Eu2193 O2207 2.471 . S
Eu2193 O2208 2.349 . S
Eu2193 O2211 2.392 1_545 S
Eu2193 O2212 2.418 . S
Eu2193 C2222 2.828 . S
C2194 O2212 1.244 . S
C2194 O2215 1.265 . S
C2195 C2196 1.379 . S
C2195 C2199 1.373 . S
C2195 C2201 1.505 1_565 S
C2196 C2195 1.379 . S
C2196 C2198 1.369 . S
C2196 H2224 0.930 . S
C2197 C2199 1.383 . S
C2197 C2200 1.382 . S
C2197 H2225 0.930 . S
C2198 C2196 1.369 . S
C2198 C2200 1.392 . S
C2198 H2226 0.930 . S
C2199 C2195 1.373 . S
C2199 C2197 1.383 . S
C2199 H2227 0.931 1_565 S
C2200 C2197 1.382 . S
C2200 C2198 1.392 . S
C2201 Eu2192 2.828 . S
C2201 C2195 1.505 1_545 S
C2201 O2213 1.249 . S
C2201 O2214 1.244 . S
O2202 Eu2193 2.373 . S
O2202 C2204 1.258 . S
O2203 Eu2192 2.392 . S
O2203 C2204 1.242 . S
C2204 O2202 1.258 . S
C2204 O2203 1.242 . S
O2205 Eu2192 2.418 . S
O2205 C2209 1.244 . S
O2206 Eu2193 2.488 . S
O2206 C2222 1.249 . S
O2207 Eu2193 2.471 . S
O2207 C2222 1.244 . S
O2208 Eu2193 2.349 . S
O2208 C2209 1.265 . S
C2209 O2205 1.244 . S
C2209 O2208 1.265 . S
O2210 Eu2192 2.372 . S
O2210 C2223 1.258 1_545 S
O2211 Eu2193 2.392 1_565 S
O2211 C2223 1.242 . S
O2212 Eu2193 2.418 . S
O2212 C2194 1.244 . S
O2213 Eu2192 2.488 . S
O2213 C2201 1.249 . S
O2214 Eu2192 2.471 . S
O2214 C2201 1.244 . S
O2215 Eu2192 2.349 . S
O2215 C2194 1.265 . S
C2216 C2217 1.379 . S
C2216 C2220 1.373 . S
C2216 C2222 1.505 . S
C2217 C2216 1.379 . S
C2217 C2219 1.369 . S
C2217 H2228 0.930 . S
C2218 C2220 1.383 . S
C2218 C2221 1.382 . S
C2218 H2229 0.930 . S
C2219 C2217 1.369 . S
C2219 C2221 1.392 . S
C2219 H2230 0.930 . S
C2220 C2216 1.373 . S
C2220 C2218 1.383 . S
C2220 H2231 0.931 . S
C2221 C2218 1.382 . S
C2221 C2219 1.392 . S
C2222 Eu2193 2.828 . S
C2222 O2206 1.249 . S
C2222 O2207 1.244 . S
C2222 C2216 1.505 . S
C2223 O2210 1.258 1_565 S
C2223 O2211 1.242 . S
H2224 C2196 0.930 . S
H2225 C2197 0.930 . S
H2226 C2198 0.930 . S
H2227 C2199 0.931 1_545 S
H2228 C2217 0.930 . S
H2229 C2218 0.930 . S
H2230 C2219 0.930 . S
H2231 C2220 0.931 . S
Eu2232 C2241 2.828 . S
Eu2232 O2243 2.392 . S
Eu2232 O2245 2.418 . S
Eu2232 O2250 2.373 . S
Eu2232 O2253 2.488 . S
Eu2232 O2254 2.471 . S
Eu2232 O2255 2.349 . S
Eu2233 O2242 2.373 . S
Eu2233 O2246 2.488 . S
Eu2233 O2247 2.471 . S
Eu2233 O2248 2.349 . S
Eu2233 O2251 2.392 . S
Eu2233 O2252 2.418 . S
Eu2233 C2262 2.828 . S
C2234 O2252 1.244 . S
C2234 O2255 1.265 . S
C2235 C2236 1.379 . S
C2235 C2239 1.373 . S
C2235 C2241 1.505 . S
C2236 C2235 1.379 . S
C2236 C2238 1.369 . S
C2236 H2264 0.930 . S
C2237 C2239 1.383 . S
C2237 C2240 1.382 . S
C2237 H2265 0.930 . S
C2238 C2236 1.369 . S
C2238 C2240 1.392 . S
C2238 H2266 0.930 . S
C2239 C2235 1.373 . S
C2239 C2237 1.383 . S
C2239 H2267 0.931 . S
C2240 C2237 1.382 . S
C2240 C2238 1.392 . S
C2241 Eu2232 2.828 . S
C2241 C2235 1.505 . S
C2241 O2253 1.249 . S
C2241 O2254 1.244 . S
O2242 Eu2233 2.373 . S
O2242 C2244 1.258 . S
O2243 Eu2232 2.392 . S
O2243 C2244 1.242 . S
C2244 O2242 1.258 . S
C2244 O2243 1.242 . S
O2245 Eu2232 2.418 . S
O2245 C2249 1.244 . S
O2246 Eu2233 2.488 . S
O2246 C2262 1.249 . S
O2247 Eu2233 2.471 . S
O2247 C2262 1.244 . S
O2248 Eu2233 2.349 . S
O2248 C2249 1.265 . S
C2249 O2245 1.244 . S
C2249 O2248 1.265 . S
O2250 Eu2232 2.373 . S
O2250 C2263 1.258 . S
O2251 Eu2233 2.392 . S
O2251 C2263 1.242 . S
O2252 Eu2233 2.418 . S
O2252 C2234 1.244 . S
O2253 Eu2232 2.488 . S
O2253 C2241 1.249 . S
O2254 Eu2232 2.471 . S
O2254 C2241 1.244 . S
O2255 Eu2232 2.349 . S
O2255 C2234 1.265 . S
C2256 C2257 1.379 . S
C2256 C2260 1.373 . S
C2256 C2262 1.505 . S
C2257 C2256 1.379 . S
C2257 C2259 1.369 . S
C2257 H2268 0.930 . S
C2258 C2260 1.383 . S
C2258 C2261 1.382 . S
C2258 H2269 0.930 . S
C2259 C2257 1.369 . S
C2259 C2261 1.392 . S
C2259 H2270 0.930 . S
C2260 C2256 1.373 . S
C2260 C2258 1.383 . S
C2260 H2271 0.931 . S
C2261 C2258 1.382 . S
C2261 C2259 1.392 . S
C2262 Eu2233 2.828 . S
C2262 O2246 1.249 . S
C2262 O2247 1.244 . S
C2262 C2256 1.505 . S
C2263 O2250 1.258 . S
C2263 O2251 1.242 . S
H2264 C2236 0.930 . S
H2265 C2237 0.930 . S
H2266 C2238 0.930 . S
H2267 C2239 0.931 . S
H2268 C2257 0.930 . S
H2269 C2258 0.930 . S
H2270 C2259 0.930 . S
H2271 C2260 0.931 . S
Eu2272 C2281 2.828 . S
Eu2272 O2283 2.392 . S
Eu2272 O2285 2.418 1_455 S
Eu2272 O2290 2.373 . S
Eu2272 O2293 2.488 . S
Eu2272 O2294 2.471 . S
Eu2272 O2295 2.349 . S
Eu2273 O2282 2.373 . S
Eu2273 O2286 2.488 1_545 S
Eu2273 O2287 2.471 1_545 S
Eu2273 O2288 2.349 . S
Eu2273 O2291 2.392 . S
Eu2273 O2292 2.418 . S
Eu2273 C2302 2.828 1_545 S
C2274 O2292 1.244 . S
C2274 O2295 1.265 . S
C2275 C2276 1.379 . S
C2275 C2279 1.373 . S
C2275 C2281 1.505 . S
C2276 C2275 1.379 . S
C2276 C2278 1.369 . S
C2276 H2304 0.930 . S
C2277 C2279 1.383 . S
C2277 C2280 1.382 . S
C2277 H2305 0.930 1_455 S
C2278 C2276 1.369 . S
C2278 C2280 1.392 . S
C2278 H2306 0.930 . S
C2279 C2275 1.373 . S
C2279 C2277 1.383 . S
C2279 H2307 0.931 1_455 S
C2280 C2277 1.382 . S
C2280 C2278 1.392 . S
C2281 Eu2272 2.828 . S
C2281 C2275 1.505 . S
C2281 O2293 1.249 . S
C2281 O2294 1.244 . S
O2282 Eu2273 2.373 . S
O2282 C2284 1.258 . S
O2283 Eu2272 2.392 . S
O2283 C2284 1.242 . S
C2284 O2282 1.258 . S
C2284 O2283 1.242 . S
O2285 Eu2272 2.418 1_655 S
O2285 C2289 1.229 1_655 S
O2286 Eu2273 2.488 1_565 S
O2286 C2302 1.249 . S
O2287 Eu2273 2.471 1_565 S
O2287 C2302 1.244 . S
O2288 Eu2273 2.349 . S
O2288 C2289 1.309 . S
C2289 O2285 1.229 1_455 S
C2289 O2288 1.309 . S
O2290 Eu2272 2.373 . S
O2290 C2303 1.258 . S
O2291 Eu2273 2.392 . S
O2291 C2303 1.242 . S
O2292 Eu2273 2.418 . S
O2292 C2274 1.244 . S
O2293 Eu2272 2.488 . S
O2293 C2281 1.249 . S
O2294 Eu2272 2.471 . S
O2294 C2281 1.244 . S
O2295 Eu2272 2.349 . S
O2295 C2274 1.265 . S
C2296 C2297 1.379 . S
C2296 C2300 1.373 . S
C2296 C2302 1.505 . S
C2297 C2296 1.379 . S
C2297 C2299 1.369 . S
C2297 H2308 0.930 . S
C2298 C2300 1.383 . S
C2298 C2301 1.382 . S
C2298 H2309 0.930 . S
C2299 C2297 1.369 . S
C2299 C2301 1.392 . S
C2299 H2310 0.930 . S
C2300 C2296 1.373 . S
C2300 C2298 1.383 . S
C2300 H2311 0.931 . S
C2301 C2298 1.382 . S
C2301 C2299 1.392 . S
C2302 Eu2273 2.828 1_565 S
C2302 O2286 1.249 . S
C2302 O2287 1.244 . S
C2302 C2296 1.505 . S
C2303 O2290 1.258 . S
C2303 O2291 1.242 . S
H2304 C2276 0.930 . S
H2305 C2277 0.930 1_655 S
H2306 C2278 0.930 . S
H2307 C2279 0.931 1_655 S
H2308 C2297 0.930 . S
H2309 C2298 0.930 . S
H2310 C2299 0.930 . S
H2311 C2300 0.931 . S
Eu2312 C2321 2.828 . S
Eu2312 O2323 2.392 . S
Eu2312 O2325 2.418 . S
Eu2312 O2330 2.373 . S
Eu2312 O2333 2.488 . S
Eu2312 O2334 2.471 . S
Eu2312 O2335 2.349 . S
Eu2313 O2322 2.373 . S
Eu2313 O2326 2.488 . S
Eu2313 O2327 2.471 . S
Eu2313 O2328 2.349 . S
Eu2313 O2331 2.392 . S
Eu2313 O2332 2.418 . S
Eu2313 C2342 2.828 . S
C2314 O2332 1.244 . S
C2314 O2335 1.265 . S
C2315 C2316 1.379 . S
C2315 C2319 1.373 . S
C2315 C2321 1.505 . S
C2316 C2315 1.379 . S
C2316 C2318 1.369 . S
C2316 H2344 0.930 . S
C2317 C2319 1.383 . S
C2317 C2320 1.382 . S
C2317 H2345 0.930 . S
C2318 C2316 1.369 . S
C2318 C2320 1.392 . S
C2318 H2346 0.930 . S
C2319 C2315 1.373 . S
C2319 C2317 1.383 . S
C2319 H2347 0.931 . S
C2320 C2317 1.382 . S
C2320 C2318 1.392 . S
C2321 Eu2312 2.828 . S
C2321 C2315 1.505 . S
C2321 O2333 1.249 . S
C2321 O2334 1.244 . S
O2322 Eu2313 2.373 . S
O2322 C2324 1.258 . S
O2323 Eu2312 2.392 . S
O2323 C2324 1.242 . S
C2324 O2322 1.258 . S
C2324 O2323 1.242 . S
O2325 Eu2312 2.418 . S
O2325 C2329 1.244 . S
O2326 Eu2313 2.488 . S
O2326 C2342 1.249 . S
O2327 Eu2313 2.471 . S
O2327 C2342 1.244 . S
O2328 Eu2313 2.349 . S
O2328 C2329 1.265 . S
C2329 O2325 1.244 . S
C2329 O2328 1.265 . S
O2330 Eu2312 2.373 . S
O2330 C2343 1.258 . S
O2331 Eu2313 2.392 . S
O2331 C2343 1.242 . S
O2332 Eu2313 2.418 . S
O2332 C2314 1.244 . S
O2333 Eu2312 2.488 . S
O2333 C2321 1.249 . S
O2334 Eu2312 2.471 . S
O2334 C2321 1.244 . S
O2335 Eu2312 2.349 . S
O2335 C2314 1.265 . S
C2336 C2337 1.379 . S
C2336 C2340 1.373 . S
C2336 C2342 1.505 . S
C2337 C2336 1.379 . S
C2337 C2339 1.369 . S
C2337 H2348 0.930 . S
C2338 C2340 1.383 . S
C2338 C2341 1.382 . S
C2338 H2349 0.930 . S
C2339 C2337 1.369 . S
C2339 C2341 1.392 . S
C2339 H2350 0.930 . S
C2340 C2336 1.373 . S
C2340 C2338 1.383 . S
C2340 H2351 0.931 . S
C2341 C2338 1.382 . S
C2341 C2339 1.392 . S
C2342 Eu2313 2.828 . S
C2342 O2326 1.249 . S
C2342 O2327 1.244 . S
C2342 C2336 1.505 . S
C2343 O2330 1.258 . S
C2343 O2331 1.242 . S
H2344 C2316 0.930 . S
H2345 C2317 0.930 . S
H2346 C2318 0.930 . S
H2347 C2319 0.931 . S
H2348 C2337 0.930 . S
H2349 C2338 0.930 . S
H2350 C2339 0.930 . S
H2351 C2340 0.931 . S
Eu2352 C2361 2.828 . S
Eu2352 O2363 2.392 . S
Eu2352 O2365 2.418 1_545 S
Eu2352 O2370 2.373 . S
Eu2352 O2373 2.504 . S
Eu2352 O2374 2.471 . S
Eu2352 O2375 2.349 . S
Eu2353 O2362 2.373 . S
Eu2353 O2366 2.488 . S
Eu2353 O2367 2.471 . S
Eu2353 O2368 2.349 . S
Eu2353 O2371 2.392 . S
Eu2353 O2372 2.418 1_556 S
Eu2353 C2382 2.828 . S
C2354 O2372 1.244 . S
C2354 O2375 1.265 . S
C2355 C2356 1.379 . S
C2355 C2359 1.373 1_545 S
C2355 C2361 1.505 . S
C2356 C2355 1.379 . S
C2356 C2358 1.369 . S
C2356 H2384 0.930 . S
C2357 C2359 1.383 . S
C2357 C2360 1.382 1_565 S
C2357 H2385 0.930 . S
C2358 C2356 1.369 . S
C2358 C2360 1.392 . S
C2358 H2386 0.930 . S
C2359 C2355 1.373 1_565 S
C2359 C2357 1.383 . S
C2359 H2387 0.931 . S
C2360 C2357 1.382 1_545 S
C2360 C2358 1.392 . S
C2361 Eu2352 2.828 . S
C2361 C2355 1.505 . S
C2361 O2373 1.268 . S
C2361 O2374 1.244 . S
O2362 Eu2353 2.373 . S
O2362 C2364 1.258 1_556 S
O2363 Eu2352 2.392 . S
O2363 C2364 1.242 . S
C2364 O2362 1.258 1_554 S
C2364 O2363 1.242 . S
O2365 Eu2352 2.418 1_565 S
O2365 C2369 1.224 1_554 S
O2366 Eu2353 2.488 . S
O2366 C2382 1.249 . S
O2367 Eu2353 2.471 . S
O2367 C2382 1.244 . S
O2368 Eu2353 2.349 . S
O2368 C2369 1.272 1_545 S
C2369 O2365 1.224 1_556 S
C2369 O2368 1.272 1_565 S
O2370 Eu2352 2.373 . S
O2370 C2383 1.258 . S
O2371 Eu2353 2.392 . S
O2371 C2383 1.242 1_556 S
O2372 Eu2353 2.418 1_554 S
O2372 C2354 1.244 . S
O2373 Eu2352 2.504 . S
O2373 C2361 1.268 . S
O2374 Eu2352 2.471 . S
O2374 C2361 1.244 . S
O2375 Eu2352 2.349 . S
O2375 C2354 1.265 . S
C2376 C2377 1.379 . S
C2376 C2380 1.373 . S
C2376 C2382 1.505 . S
C2377 C2376 1.379 . S
C2377 C2379 1.369 . S
C2377 H2388 0.930 . S
C2378 C2380 1.383 . S
C2378 C2381 1.382 . S
C2378 H2389 0.930 . S
C2379 C2377 1.369 . S
C2379 C2381 1.392 . S
C2379 H2390 0.930 . S
C2380 C2376 1.373 . S
C2380 C2378 1.383 . S
C2380 H2391 0.931 . S
C2381 C2378 1.382 . S
C2381 C2379 1.392 . S
C2382 Eu2353 2.828 . S
C2382 O2366 1.249 . S
C2382 O2367 1.244 . S
C2382 C2376 1.505 . S
C2383 O2370 1.258 . S
C2383 O2371 1.242 1_554 S
H2384 C2356 0.930 . S
H2385 C2357 0.930 . S
H2386 C2358 0.930 . S
H2387 C2359 0.931 . S
H2388 C2377 0.930 . S
H2389 C2378 0.930 . S
H2390 C2379 0.930 . S
H2391 C2380 0.931 . S
Eu2392 C2401 2.828 . S
Eu2392 O2403 2.392 . S
Eu2392 O2405 2.418 . S
Eu2392 O2410 2.373 . S
Eu2392 O2413 2.488 . S
Eu2392 O2414 2.471 . S
Eu2392 O2415 2.349 . S
Eu2393 O2402 2.373 . S
Eu2393 O2406 2.488 . S
Eu2393 O2407 2.471 . S
Eu2393 O2408 2.349 . S
Eu2393 O2411 2.392 . S
Eu2393 O2412 2.418 . S
Eu2393 C2422 2.828 . S
C2394 O2412 1.244 . S
C2394 O2415 1.265 . S
C2395 C2396 1.379 . S
C2395 C2399 1.373 . S
C2395 C2401 1.505 . S
C2396 C2395 1.379 . S
C2396 C2398 1.369 . S
C2396 H2424 0.930 . S
C2397 C2399 1.383 . S
C2397 C2400 1.382 . S
C2397 H2425 0.930 . S
C2398 C2396 1.369 . S
C2398 C2400 1.392 . S
C2398 H2426 0.930 . S
C2399 C2395 1.373 . S
C2399 C2397 1.383 . S
C2399 H2427 0.931 . S
C2400 C2397 1.382 . S
C2400 C2398 1.392 . S
C2401 Eu2392 2.828 . S
C2401 C2395 1.505 . S
C2401 O2413 1.249 . S
C2401 O2414 1.244 . S
O2402 Eu2393 2.373 . S
O2402 C2404 1.258 . S
O2403 Eu2392 2.392 . S
O2403 C2404 1.242 . S
C2404 O2402 1.258 . S
C2404 O2403 1.242 . S
O2405 Eu2392 2.418 . S
O2405 C2409 1.244 . S
O2406 Eu2393 2.488 . S
O2406 C2422 1.249 . S
O2407 Eu2393 2.471 . S
O2407 C2422 1.244 . S
O2408 Eu2393 2.349 . S
O2408 C2409 1.265 . S
C2409 O2405 1.244 . S
C2409 O2408 1.265 . S
O2410 Eu2392 2.373 . S
O2410 C2423 1.258 . S
O2411 Eu2393 2.392 . S
O2411 C2423 1.242 . S
O2412 Eu2393 2.418 . S
O2412 C2394 1.244 . S
O2413 Eu2392 2.488 . S
O2413 C2401 1.249 . S
O2414 Eu2392 2.471 . S
O2414 C2401 1.244 . S
O2415 Eu2392 2.349 . S
O2415 C2394 1.265 . S
C2416 C2417 1.379 . S
C2416 C2420 1.373 . S
C2416 C2422 1.505 . S
C2417 C2416 1.379 . S
C2417 C2419 1.369 . S
C2417 H2428 0.930 . S
C2418 C2420 1.383 . S
C2418 C2421 1.382 . S
C2418 H2429 0.930 . S
C2419 C2417 1.369 . S
C2419 C2421 1.392 . S
C2419 H2430 0.930 . S
C2420 C2416 1.373 . S
C2420 C2418 1.383 . S
C2420 H2431 0.931 . S
C2421 C2418 1.382 . S
C2421 C2419 1.392 . S
C2422 Eu2393 2.828 . S
C2422 O2406 1.249 . S
C2422 O2407 1.244 . S
C2422 C2416 1.505 . S
C2423 O2410 1.258 . S
C2423 O2411 1.242 . S
H2424 C2396 0.930 . S
H2425 C2397 0.930 . S
H2426 C2398 0.930 . S
H2427 C2399 0.931 . S
H2428 C2417 0.930 . S
H2429 C2418 0.930 . S
H2430 C2419 0.930 . S
H2431 C2420 0.931 . S
Eu2432 C2441 2.828 . S
Eu2432 O2443 2.392 . S
Eu2432 O2445 2.418 . S
Eu2432 O2450 2.373 1_554 S
Eu2432 O2453 2.488 . S
Eu2432 O2454 2.471 . S
Eu2432 O2455 2.349 . S
Eu2433 O2442 2.427 . S
Eu2433 O2446 2.510 . S
Eu2433 O2447 2.507 . S
Eu2433 O2448 2.368 . S
Eu2433 O2451 2.344 1_554 S
Eu2433 O2452 2.413 . S
Eu2433 C2462 2.860 . S
C2434 O2452 1.244 . S
C2434 O2455 1.265 . S
C2435 C2436 1.379 . S
C2435 C2439 1.373 . S
C2435 C2441 1.505 1_556 S
C2436 C2435 1.379 . S
C2436 C2438 1.369 . S
C2436 H2464 0.930 . S
C2437 C2439 1.383 . S
C2437 C2440 1.382 . S
C2437 H2465 0.930 . S
C2438 C2436 1.369 . S
C2438 C2440 1.392 . S
C2438 H2466 0.930 . S
C2439 C2435 1.373 . S
C2439 C2437 1.383 . S
C2439 H2467 0.931 1_556 S
C2440 C2437 1.382 . S
C2440 C2438 1.392 . S
C2441 Eu2432 2.828 . S
C2441 C2435 1.505 1_554 S
C2441 O2453 1.249 . S
C2441 O2454 1.244 . S
O2442 Eu2433 2.427 . S
O2442 C2444 1.258 . S
O2443 Eu2432 2.392 . S
O2443 C2444 1.242 . S
C2444 O2442 1.258 . S
C2444 O2443 1.242 . S
O2445 Eu2432 2.418 . S
O2445 C2449 1.244 . S
O2446 Eu2433 2.510 . S
O2446 C2462 1.249 . S
O2447 Eu2433 2.507 . S
O2447 C2462 1.244 . S
O2448 Eu2433 2.368 . S
O2448 C2449 1.265 . S
C2449 O2445 1.244 . S
C2449 O2448 1.265 . S
O2450 Eu2432 2.373 1_556 S
O2450 C2463 1.258 . S
O2451 Eu2433 2.344 1_556 S
O2451 C2463 1.242 . S
O2452 Eu2433 2.413 . S
O2452 C2434 1.244 . S
O2453 Eu2432 2.488 . S
O2453 C2441 1.249 . S
O2454 Eu2432 2.471 . S
O2454 C2441 1.244 . S
O2455 Eu2432 2.349 . S
O2455 C2434 1.265 . S
C2456 C2457 1.379 . S
C2456 C2460 1.373 . S
C2456 C2462 1.505 . S
C2457 C2456 1.379 . S
C2457 C2459 1.369 . S
C2457 H2468 0.930 . S
C2458 C2460 1.383 . S
C2458 C2461 1.382 . S
C2458 H2469 0.930 . S
C2459 C2457 1.369 . S
C2459 C2461 1.392 . S
C2459 H2470 0.930 . S
C2460 C2456 1.373 . S
C2460 C2458 1.383 . S
C2460 H2471 0.931 . S
C2461 C2458 1.382 . S
C2461 C2459 1.392 . S
C2462 Eu2433 2.860 . S
C2462 O2446 1.249 . S
C2462 O2447 1.244 . S
C2462 C2456 1.505 . S
C2463 O2450 1.258 . S
C2463 O2451 1.242 . S
H2464 C2436 0.930 . S
H2465 C2437 0.930 . S
H2466 C2438 0.930 . S
H2467 C2439 0.931 1_554 S
H2468 C2457 0.930 . S
H2469 C2458 0.930 . S
H2470 C2459 0.930 . S
H2471 C2460 0.931 . S
Eu2472 C2481 2.828 . S
Eu2472 O2483 2.392 . S
Eu2472 O2485 2.418 . S
Eu2472 O2490 2.373 . S
Eu2472 O2493 2.488 . S
Eu2472 O2494 2.471 . S
Eu2472 O2495 2.349 . S
Eu2473 O2482 2.373 . S
Eu2473 O2486 2.488 . S
Eu2473 O2487 2.471 . S
Eu2473 O2488 2.349 . S
Eu2473 O2491 2.392 . S
Eu2473 O2492 2.418 . S
Eu2473 C2502 2.828 . S
C2474 O2492 1.244 . S
C2474 O2495 1.265 . S
C2475 C2476 1.379 . S
C2475 C2479 1.373 . S
C2475 C2481 1.505 . S
C2476 C2475 1.379 . S
C2476 C2478 1.369 . S
C2476 H2504 0.930 . S
C2477 C2479 1.383 . S
C2477 C2480 1.382 . S
C2477 H2505 0.930 . S
C2478 C2476 1.369 . S
C2478 C2480 1.392 . S
C2478 H2506 0.930 . S
C2479 C2475 1.373 . S
C2479 C2477 1.383 . S
C2479 H2507 0.931 . S
C2480 C2477 1.382 . S
C2480 C2478 1.392 . S
C2481 Eu2472 2.828 . S
C2481 C2475 1.505 . S
C2481 O2493 1.249 . S
C2481 O2494 1.244 . S
O2482 Eu2473 2.373 . S
O2482 C2484 1.258 . S
O2483 Eu2472 2.392 . S
O2483 C2484 1.242 . S
C2484 O2482 1.258 . S
C2484 O2483 1.242 . S
O2485 Eu2472 2.418 . S
O2485 C2489 1.244 . S
O2486 Eu2473 2.488 . S
O2486 C2502 1.249 . S
O2487 Eu2473 2.471 . S
O2487 C2502 1.244 . S
O2488 Eu2473 2.349 . S
O2488 C2489 1.265 . S
C2489 O2485 1.244 . S
C2489 O2488 1.265 . S
O2490 Eu2472 2.373 . S
O2490 C2503 1.258 . S
O2491 Eu2473 2.392 . S
O2491 C2503 1.242 . S
O2492 Eu2473 2.418 . S
O2492 C2474 1.244 . S
O2493 Eu2472 2.488 . S
O2493 C2481 1.249 . S
O2494 Eu2472 2.471 . S
O2494 C2481 1.244 . S
O2495 Eu2472 2.349 . S
O2495 C2474 1.265 . S
C2496 C2497 1.379 . S
C2496 C2500 1.373 . S
C2496 C2502 1.505 . S
C2497 C2496 1.379 . S
C2497 C2499 1.369 . S
C2497 H2508 0.930 . S
C2498 C2500 1.383 . S
C2498 C2501 1.382 . S
C2498 H2509 0.930 . S
C2499 C2497 1.369 . S
C2499 C2501 1.392 . S
C2499 H2510 0.930 . S
C2500 C2496 1.373 . S
C2500 C2498 1.383 . S
C2500 H2511 0.931 . S
C2501 C2498 1.382 . S
C2501 C2499 1.392 . S
C2502 Eu2473 2.828 . S
C2502 O2486 1.249 . S
C2502 O2487 1.244 . S
C2502 C2496 1.505 . S
C2503 O2490 1.258 . S
C2503 O2491 1.242 . S
H2504 C2476 0.930 . S
H2505 C2477 0.930 . S
H2506 C2478 0.930 . S
H2507 C2479 0.931 . S
H2508 C2497 0.930 . S
H2509 C2498 0.930 . S
H2510 C2499 0.930 . S
H2511 C2500 0.931 . S
Eu2512 C2521 2.828 . S
Eu2512 O2523 2.392 . S
Eu2512 O2525 2.418 . S
Eu2512 O2530 2.373 . S
Eu2512 O2533 2.488 . S
Eu2512 O2534 2.471 . S
Eu2512 O2535 2.349 . S
Eu2513 O2522 2.373 . S
Eu2513 O2526 2.488 . S
Eu2513 O2527 2.471 . S
Eu2513 O2528 2.349 . S
Eu2513 O2531 2.392 . S
Eu2513 O2532 2.418 . S
Eu2513 C2542 2.828 . S
C2514 O2532 1.244 . S
C2514 O2535 1.265 . S
C2515 C2516 1.379 1_455 S
C2515 C2519 1.373 . S
C2515 C2521 1.505 . S
C2516 C2515 1.379 1_655 S
C2516 C2518 1.369 . S
C2516 H2544 0.930 . S
C2517 C2519 1.383 1_655 S
C2517 C2520 1.382 . S
C2517 H2545 0.930 . S
C2518 C2516 1.369 . S
C2518 C2520 1.392 . S
C2518 H2546 0.930 . S
C2519 C2515 1.373 . S
C2519 C2517 1.383 1_455 S
C2519 H2547 0.931 . S
C2520 C2517 1.382 . S
C2520 C2518 1.392 . S
C2521 Eu2512 2.828 . S
C2521 C2515 1.505 . S
C2521 O2533 1.249 . S
C2521 O2534 1.244 . S
O2522 Eu2513 2.373 . S
O2522 C2524 1.258 . S
O2523 Eu2512 2.392 . S
O2523 C2524 1.242 . S
C2524 O2522 1.258 . S
C2524 O2523 1.242 . S
O2525 Eu2512 2.418 . S
O2525 C2529 1.244 . S
O2526 Eu2513 2.488 . S
O2526 C2542 1.249 . S
O2527 Eu2513 2.471 . S
O2527 C2542 1.244 . S
O2528 Eu2513 2.349 . S
O2528 C2529 1.265 . S
C2529 O2525 1.244 . S
C2529 O2528 1.265 . S
O2530 Eu2512 2.373 . S
O2530 C2543 1.258 1_455 S
O2531 Eu2513 2.392 . S
O2531 C2543 1.242 1_455 S
O2532 Eu2513 2.418 . S
O2532 C2514 1.244 . S
O2533 Eu2512 2.488 . S
O2533 C2521 1.249 . S
O2534 Eu2512 2.471 . S
O2534 C2521 1.244 . S
O2535 Eu2512 2.349 . S
O2535 C2514 1.265 . S
C2536 C2537 1.379 . S
C2536 C2540 1.373 . S
C2536 C2542 1.505 . S
C2537 C2536 1.379 . S
C2537 C2539 1.369 . S
C2537 H2548 0.930 . S
C2538 C2540 1.383 . S
C2538 C2541 1.382 . S
C2538 H2549 0.930 . S
C2539 C2537 1.369 . S
C2539 C2541 1.392 . S
C2539 H2550 0.930 . S
C2540 C2536 1.373 . S
C2540 C2538 1.383 . S
C2540 H2551 0.931 . S
C2541 C2538 1.382 . S
C2541 C2539 1.392 . S
C2542 Eu2513 2.828 . S
C2542 O2526 1.249 . S
C2542 O2527 1.244 . S
C2542 C2536 1.505 . S
C2543 O2530 1.258 1_655 S
C2543 O2531 1.242 1_655 S
H2544 C2516 0.930 . S
H2545 C2517 0.930 . S
H2546 C2518 0.930 . S
H2547 C2519 0.931 . S
H2548 C2537 0.930 . S
H2549 C2538 0.930 . S
H2550 C2539 0.930 . S
H2551 C2540 0.931 . S
Eu2552 C2561 2.828 . S
Eu2552 O2563 2.392 . S
Eu2552 O2565 2.418 . S
Eu2552 O2570 2.373 . S
Eu2552 O2573 2.488 . S
Eu2552 O2574 2.471 . S
Eu2552 O2575 2.349 . S
Eu2553 O2562 2.373 . S
Eu2553 O2566 2.488 . S
Eu2553 O2567 2.471 . S
Eu2553 O2568 2.349 . S
Eu2553 O2571 2.392 . S
Eu2553 O2572 2.418 . S
Eu2553 C2582 2.828 . S
C2554 O2572 1.244 . S
C2554 O2575 1.265 . S
C2555 C2556 1.379 . S
C2555 C2559 1.373 . S
C2555 C2561 1.505 . S
C2556 C2555 1.379 . S
C2556 C2558 1.369 . S
C2556 H2584 0.930 . S
C2557 C2559 1.383 . S
C2557 C2560 1.382 . S
C2557 H2585 0.930 . S
C2558 C2556 1.369 . S
C2558 C2560 1.392 . S
C2558 H2586 0.930 . S
C2559 C2555 1.373 . S
C2559 C2557 1.383 . S
C2559 H2587 0.931 . S
C2560 C2557 1.382 . S
C2560 C2558 1.392 . S
C2561 Eu2552 2.828 . S
C2561 C2555 1.505 . S
C2561 O2573 1.249 . S
C2561 O2574 1.244 . S
O2562 Eu2553 2.373 . S
O2562 C2564 1.258 . S
O2563 Eu2552 2.392 . S
O2563 C2564 1.242 . S
C2564 O2562 1.258 . S
C2564 O2563 1.242 . S
O2565 Eu2552 2.418 . S
O2565 C2569 1.244 . S
O2566 Eu2553 2.488 . S
O2566 C2582 1.249 . S
O2567 Eu2553 2.471 . S
O2567 C2582 1.244 . S
O2568 Eu2553 2.349 . S
O2568 C2569 1.265 . S
C2569 O2565 1.244 . S
C2569 O2568 1.265 . S
O2570 Eu2552 2.373 . S
O2570 C2583 1.258 . S
O2571 Eu2553 2.392 . S
O2571 C2583 1.242 . S
O2572 Eu2553 2.418 . S
O2572 C2554 1.244 . S
O2573 Eu2552 2.488 . S
O2573 C2561 1.249 . S
O2574 Eu2552 2.471 . S
O2574 C2561 1.244 . S
O2575 Eu2552 2.349 . S
O2575 C2554 1.265 . S
C2576 C2577 1.379 . S
C2576 C2580 1.373 . S
C2576 C2582 1.505 . S
C2577 C2576 1.379 . S
C2577 C2579 1.369 . S
C2577 H2588 0.930 . S
C2578 C2580 1.383 . S
C2578 C2581 1.382 . S
C2578 H2589 0.930 . S
C2579 C2577 1.369 . S
C2579 C2581 1.392 . S
C2579 H2590 0.930 . S
C2580 C2576 1.373 . S
C2580 C2578 1.383 . S
C2580 H2591 0.931 . S
C2581 C2578 1.382 . S
C2581 C2579 1.392 . S
C2582 Eu2553 2.828 . S
C2582 O2566 1.249 . S
C2582 O2567 1.244 . S
C2582 C2576 1.505 . S
C2583 O2570 1.258 . S
C2583 O2571 1.242 . S
H2584 C2556 0.930 . S
H2585 C2557 0.930 . S
H2586 C2558 0.930 . S
H2587 C2559 0.931 . S
H2588 C2577 0.930 . S
H2589 C2578 0.930 . S
H2590 C2579 0.930 . S
H2591 C2580 0.931 . S
Eu2592 C2601 2.828 . S
Eu2592 O2603 2.392 . S
Eu2592 O2605 2.418 . S
Eu2592 O2610 2.373 . S
Eu2592 O2613 2.488 . S
Eu2592 O2614 2.471 . S
Eu2592 O2615 2.349 . S
Eu2593 O2602 2.373 . S
Eu2593 O2606 2.488 . S
Eu2593 O2607 2.471 . S
Eu2593 O2608 2.349 . S
Eu2593 O2611 2.392 . S
Eu2593 O2612 2.418 . S
Eu2593 C2622 2.828 . S
C2594 O2612 1.244 . S
C2594 O2615 1.265 . S
C2595 C2596 1.379 . S
C2595 C2599 1.373 . S
C2595 C2601 1.505 . S
C2596 C2595 1.379 . S
C2596 C2598 1.369 . S
C2596 H2624 0.930 . S
C2597 C2599 1.383 . S
C2597 C2600 1.382 . S
C2597 H2625 0.930 . S
C2598 C2596 1.369 . S
C2598 C2600 1.392 . S
C2598 H2626 0.930 . S
C2599 C2595 1.373 . S
C2599 C2597 1.383 . S
C2599 H2627 0.931 . S
C2600 C2597 1.382 . S
C2600 C2598 1.392 . S
C2601 Eu2592 2.828 . S
C2601 C2595 1.505 . S
C2601 O2613 1.249 . S
C2601 O2614 1.244 . S
O2602 Eu2593 2.373 . S
O2602 C2604 1.258 . S
O2603 Eu2592 2.392 . S
O2603 C2604 1.242 . S
C2604 O2602 1.258 . S
C2604 O2603 1.242 . S
O2605 Eu2592 2.418 . S
O2605 C2609 1.244 . S
O2606 Eu2593 2.488 . S
O2606 C2622 1.249 . S
O2607 Eu2593 2.471 . S
O2607 C2622 1.244 . S
O2608 Eu2593 2.349 . S
O2608 C2609 1.265 . S
C2609 O2605 1.244 . S
C2609 O2608 1.265 . S
O2610 Eu2592 2.373 . S
O2610 C2623 1.258 . S
O2611 Eu2593 2.392 . S
O2611 C2623 1.242 . S
O2612 Eu2593 2.418 . S
O2612 C2594 1.244 . S
O2613 Eu2592 2.488 . S
O2613 C2601 1.249 . S
O2614 Eu2592 2.471 . S
O2614 C2601 1.244 . S
O2615 Eu2592 2.349 . S
O2615 C2594 1.265 . S
C2616 C2617 1.379 . S
C2616 C2620 1.373 . S
C2616 C2622 1.505 . S
C2617 C2616 1.379 . S
C2617 C2619 1.369 . S
C2617 H2628 0.930 . S
C2618 C2620 1.383 . S
C2618 C2621 1.382 . S
C2618 H2629 0.930 . S
C2619 C2617 1.369 . S
C2619 C2621 1.392 . S
C2619 H2630 0.930 . S
C2620 C2616 1.373 . S
C2620 C2618 1.383 . S
C2620 H2631 0.931 . S
C2621 C2618 1.382 . S
C2621 C2619 1.392 . S
C2622 Eu2593 2.828 . S
C2622 O2606 1.249 . S
C2622 O2607 1.244 . S
C2622 C2616 1.505 . S
C2623 O2610 1.258 . S
C2623 O2611 1.242 . S
H2624 C2596 0.930 . S
H2625 C2597 0.930 . S
H2626 C2598 0.930 . S
H2627 C2599 0.931 . S
H2628 C2617 0.930 . S
H2629 C2618 0.930 . S
H2630 C2619 0.930 . S
H2631 C2620 0.931 . S
Eu2632 C2641 2.828 . S
Eu2632 O2643 2.392 . S
Eu2632 O2645 2.418 . S
Eu2632 O2650 2.373 . S
Eu2632 O2653 2.488 . S
Eu2632 O2654 2.471 . S
Eu2632 O2655 2.349 . S
Eu2633 O2642 2.373 . S
Eu2633 O2646 2.488 . S
Eu2633 O2647 2.471 . S
Eu2633 O2648 2.349 . S
Eu2633 O2651 2.392 . S
Eu2633 O2652 2.418 . S
Eu2633 C2662 2.828 . S
C2634 O2652 1.244 . S
C2634 O2655 1.265 . S
C2635 C2636 1.379 . S
C2635 C2639 1.373 . S
C2635 C2641 1.505 . S
C2636 C2635 1.379 . S
C2636 C2638 1.369 . S
C2636 H2664 0.930 . S
C2637 C2639 1.383 . S
C2637 C2640 1.382 . S
C2637 H2665 0.930 . S
C2638 C2636 1.369 . S
C2638 C2640 1.392 . S
C2638 H2666 0.930 . S
C2639 C2635 1.373 . S
C2639 C2637 1.383 . S
C2639 H2667 0.931 . S
C2640 C2637 1.382 . S
C2640 C2638 1.392 . S
C2641 Eu2632 2.828 . S
C2641 C2635 1.505 . S
C2641 O2653 1.249 . S
C2641 O2654 1.244 . S
O2642 Eu2633 2.373 . S
O2642 C2644 1.258 . S
O2643 Eu2632 2.392 . S
O2643 C2644 1.242 . S
C2644 O2642 1.258 . S
C2644 O2643 1.242 . S
O2645 Eu2632 2.418 . S
O2645 C2649 1.244 . S
O2646 Eu2633 2.488 . S
O2646 C2662 1.249 . S
O2647 Eu2633 2.471 . S
O2647 C2662 1.244 . S
O2648 Eu2633 2.349 . S
O2648 C2649 1.265 . S
C2649 O2645 1.244 . S
C2649 O2648 1.265 . S
O2650 Eu2632 2.373 . S
O2650 C2663 1.258 . S
O2651 Eu2633 2.392 . S
O2651 C2663 1.242 . S
O2652 Eu2633 2.418 . S
O2652 C2634 1.244 . S
O2653 Eu2632 2.488 . S
O2653 C2641 1.249 . S
O2654 Eu2632 2.471 . S
O2654 C2641 1.244 . S
O2655 Eu2632 2.349 . S
O2655 C2634 1.265 . S
C2656 C2657 1.379 . S
C2656 C2660 1.373 . S
C2656 C2662 1.505 . S
C2657 C2656 1.379 . S
C2657 C2659 1.369 . S
C2657 H2668 0.930 . S
C2658 C2660 1.383 . S
C2658 C2661 1.382 . S
C2658 H2669 0.930 . S
C2659 C2657 1.369 . S
C2659 C2661 1.392 . S
C2659 H2670 0.930 . S
C2660 C2656 1.373 . S
C2660 C2658 1.383 . S
C2660 H2671 0.931 . S
C2661 C2658 1.382 . S
C2661 C2659 1.392 . S
C2662 Eu2633 2.828 . S
C2662 O2646 1.249 . S
C2662 O2647 1.244 . S
C2662 C2656 1.505 . S
C2663 O2650 1.258 . S
C2663 O2651 1.242 . S
H2664 C2636 0.930 . S
H2665 C2637 0.930 . S
H2666 C2638 0.930 . S
H2667 C2639 0.931 . S
H2668 C2657 0.930 . S
H2669 C2658 0.930 . S
H2670 C2659 0.930 . S
H2671 C2660 0.931 . S
Eu2672 C2681 2.828 . S
Eu2672 O2683 2.392 . S
Eu2672 O2685 2.418 . S
Eu2672 O2690 2.373 . S
Eu2672 O2693 2.488 . S
Eu2672 O2694 2.471 . S
Eu2672 O2695 2.349 . S
Eu2673 O2682 2.373 . S
Eu2673 O2686 2.488 . S
Eu2673 O2687 2.471 . S
Eu2673 O2688 2.349 . S
Eu2673 O2691 2.392 . S
Eu2673 O2692 2.418 . S
Eu2673 C2702 2.828 . S
C2674 O2692 1.244 . S
C2674 O2695 1.265 . S
C2675 C2676 1.379 . S
C2675 C2679 1.373 . S
C2675 C2681 1.505 . S
C2676 C2675 1.379 . S
C2676 C2678 1.369 . S
C2676 H2704 0.930 . S
C2677 C2679 1.383 . S
C2677 C2680 1.382 . S
C2677 H2705 0.930 . S
C2678 C2676 1.369 . S
C2678 C2680 1.392 . S
C2678 H2706 0.930 . S
C2679 C2675 1.373 . S
C2679 C2677 1.383 . S
C2679 H2707 0.931 . S
C2680 C2677 1.382 . S
C2680 C2678 1.392 . S
C2681 Eu2672 2.828 . S
C2681 C2675 1.505 . S
C2681 O2693 1.249 . S
C2681 O2694 1.244 . S
O2682 Eu2673 2.373 . S
O2682 C2684 1.258 . S
O2683 Eu2672 2.392 . S
O2683 C2684 1.242 . S
C2684 O2682 1.258 . S
C2684 O2683 1.242 . S
O2685 Eu2672 2.418 . S
O2685 C2689 1.244 . S
O2686 Eu2673 2.488 . S
O2686 C2702 1.249 . S
O2687 Eu2673 2.471 . S
O2687 C2702 1.244 . S
O2688 Eu2673 2.349 . S
O2688 C2689 1.265 . S
C2689 O2685 1.244 . S
C2689 O2688 1.265 . S
O2690 Eu2672 2.373 . S
O2690 C2703 1.258 . S
O2691 Eu2673 2.392 . S
O2691 C2703 1.242 . S
O2692 Eu2673 2.418 . S
O2692 C2674 1.244 . S
O2693 Eu2672 2.488 . S
O2693 C2681 1.249 . S
O2694 Eu2672 2.471 . S
O2694 C2681 1.244 . S
O2695 Eu2672 2.349 . S
O2695 C2674 1.265 . S
C2696 C2697 1.379 . S
C2696 C2700 1.373 . S
C2696 C2702 1.505 . S
C2697 C2696 1.379 . S
C2697 C2699 1.369 . S
C2697 H2708 0.930 . S
C2698 C2700 1.383 . S
C2698 C2701 1.382 . S
C2698 H2709 0.930 . S
C2699 C2697 1.369 . S
C2699 C2701 1.392 . S
C2699 H2710 0.930 . S
C2700 C2696 1.373 . S
C2700 C2698 1.383 . S
C2700 H2711 0.931 . S
C2701 C2698 1.382 . S
C2701 C2699 1.392 . S
C2702 Eu2673 2.828 . S
C2702 O2686 1.249 . S
C2702 O2687 1.244 . S
C2702 C2696 1.505 . S
C2703 O2690 1.258 . S
C2703 O2691 1.242 . S
H2704 C2676 0.930 . S
H2705 C2677 0.930 . S
H2706 C2678 0.930 . S
H2707 C2679 0.931 . S
H2708 C2697 0.930 . S
H2709 C2698 0.930 . S
H2710 C2699 0.930 . S
H2711 C2700 0.931 . S
Eu2712 C2721 2.828 1_554 S
Eu2712 O2723 2.392 . S
Eu2712 O2725 2.418 1_554 S
Eu2712 O2730 2.373 1_554 S
Eu2712 O2733 2.488 1_554 S
Eu2712 O2734 2.471 . S
Eu2712 O2735 2.349 . S
Eu2713 O2722 2.373 . S
Eu2713 O2726 2.488 1_455 S
Eu2713 O2727 2.471 1_455 S
Eu2713 O2728 2.349 1_554 S
Eu2713 O2731 2.392 . S
Eu2713 O2732 2.418 . S
Eu2713 C2742 2.828 1_455 S
C2714 O2732 1.244 . S
C2714 O2735 1.265 . S
C2715 C2716 1.379 1_556 S
C2715 C2719 1.373 . S
C2715 C2721 1.505 . S
C2716 C2715 1.379 1_554 S
C2716 C2718 1.369 . S
C2716 H2744 0.930 . S
C2717 C2719 1.383 . S
C2717 C2720 1.382 . S
C2717 H2745 0.930 . S
C2718 C2716 1.369 . S
C2718 C2720 1.392 1_554 S
C2718 H2746 0.930 . S
C2719 C2715 1.373 . S
C2719 C2717 1.383 . S
C2719 H2747 0.931 . S
C2720 C2717 1.382 . S
C2720 C2718 1.392 1_556 S
C2721 Eu2712 2.828 1_556 S
C2721 C2715 1.505 . S
C2721 O2733 1.249 . S
C2721 O2734 1.244 1_556 S
O2722 Eu2713 2.373 . S
O2722 C2724 1.258 . S
O2723 Eu2712 2.392 . S
O2723 C2724 1.242 . S
C2724 O2722 1.258 . S
C2724 O2723 1.242 . S
O2725 Eu2712 2.418 1_556 S
O2725 C2729 1.244 . S
O2726 Eu2713 2.488 1_655 S
O2726 C2742 1.249 . S
O2727 Eu2713 2.471 1_655 S
O2727 C2742 1.244 . S
O2728 Eu2713 2.349 1_556 S
O2728 C2729 1.265 . S
C2729 O2725 1.244 . S
C2729 O2728 1.265 . S
O2730 Eu2712 2.373 1_556 S
O2730 C2743 1.270 . S
O2731 Eu2713 2.392 . S
O2731 C2743 1.228 1_554 S
O2732 Eu2713 2.418 . S
O2732 C2714 1.244 . S
O2733 Eu2712 2.488 1_556 S
O2733 C2721 1.249 . S
O2734 Eu2712 2.471 . S
O2734 C2721 1.244 1_554 S
O2735 Eu2712 2.349 . S
O2735 C2714 1.265 . S
C2736 C2737 1.379 . S
C2736 C2740 1.373 . S
C2736 C2742 1.505 . S
C2737 C2736 1.379 . S
C2737 C2739 1.369 . S
C2737 H2748 0.930 . S
C2738 C2740 1.383 . S
C2738 C2741 1.382 . S
C2738 H2749 0.930 . S
C2739 C2737 1.369 . S
C2739 C2741 1.392 . S
C2739 H2750 0.930 . S
C2740 C2736 1.373 . S
C2740 C2738 1.383 . S
C2740 H2751 0.931 . S
C2741 C2738 1.382 . S
C2741 C2739 1.392 . S
C2742 Eu2713 2.828 1_655 S
C2742 O2726 1.249 . S
C2742 O2727 1.244 . S
C2742 C2736 1.505 . S
C2743 O2730 1.270 . S
C2743 O2731 1.228 1_556 S
H2744 C2716 0.930 . S
H2745 C2717 0.930 . S
H2746 C2718 0.930 . S
H2747 C2719 0.931 . S
H2748 C2737 0.930 . S
H2749 C2738 0.930 . S
H2750 C2739 0.930 . S
H2751 C2740 0.931 . S
H2752 C2764 0.930 1_655 S
H2753 C2766 0.930 . S
H2754 C2767 0.930 . S
H2755 C2771 0.959 . S
H2756 C2771 0.959 . S
H2757 C2771 0.961 . S
H2758 C2772 0.960 . S
H2759 C2772 0.961 . S
H2760 C2772 0.959 . S
H2761 C2775 0.929 1_554 S
H2762 C2776 0.917 1_554 S
H2763 C2778 0.930 . S
C2764 H2752 0.930 1_455 S
C2764 C2765 1.399 . S
C2764 C2769 1.399 . S
C2765 C2764 1.399 . S
C2765 C2766 1.376 . S
C2766 H2753 0.930 . S
C2766 C2765 1.376 . S
C2766 C2767 1.388 . S
C2767 H2754 0.930 . S
C2767 C2766 1.388 . S
C2767 C2768 1.390 . S
C2768 C2767 1.390 . S
C2768 C2769 1.394 . S
C2768 C2774 1.465 . S
C2769 C2764 1.399 . S
C2769 C2768 1.394 . S
C2769 C2770 1.516 . S
C2770 C2769 1.516 . S
C2770 C2771 1.502 1_455 S
C2770 C2772 1.561 . S
C2770 C2773 1.526 . S
C2771 H2755 0.959 . S
C2771 H2756 0.959 . S
C2771 H2757 0.961 . S
C2771 C2770 1.502 1_655 S
C2772 H2758 0.960 . S
C2772 H2759 0.961 . S
C2772 H2760 0.959 . S
C2772 C2770 1.561 . S
C2773 C2770 1.526 . S
C2773 C2774 1.396 . S
C2773 C2778 1.390 . S
C2774 C2768 1.465 . S
C2774 C2773 1.396 . S
C2774 C2775 1.399 . S
C2775 H2761 0.929 1_556 S
C2775 C2774 1.399 . S
C2775 C2776 1.390 . S
C2776 H2762 0.917 1_556 S
C2776 C2775 1.390 . S
C2776 C2777 1.398 . S
C2777 C2776 1.398 . S
C2777 C2778 1.387 . S
C2778 H2763 0.930 . S
C2778 C2773 1.390 . S
C2778 C2777 1.387 . S
H2779 C2791 0.930 . S
H2780 C2793 0.930 . S
H2781 C2794 0.930 . S
H2782 C2798 0.959 . S
H2783 C2798 0.959 . S
H2784 C2798 0.961 . S
H2785 C2799 0.960 . S
H2786 C2799 0.961 . S
H2787 C2799 0.959 . S
H2788 C2802 0.929 . S
H2789 C2803 0.931 . S
H2790 C2805 0.930 . S
C2791 H2779 0.930 . S
C2791 C2792 1.399 . S
C2791 C2796 1.399 . S
C2792 C2791 1.399 . S
C2792 C2793 1.376 . S
C2793 H2780 0.930 . S
C2793 C2792 1.376 . S
C2793 C2794 1.388 . S
C2794 H2781 0.930 . S
C2794 C2793 1.388 . S
C2794 C2795 1.390 . S
C2795 C2794 1.390 . S
C2795 C2796 1.394 . S
C2795 C2801 1.465 . S
C2796 C2791 1.399 . S
C2796 C2795 1.394 . S
C2796 C2797 1.516 . S
C2797 C2796 1.516 . S
C2797 C2798 1.502 . S
C2797 C2799 1.561 . S
C2797 C2800 1.526 . S
C2798 H2782 0.959 . S
C2798 H2783 0.959 . S
C2798 H2784 0.961 . S
C2798 C2797 1.502 . S
C2799 H2785 0.960 . S
C2799 H2786 0.961 . S
C2799 H2787 0.959 . S
C2799 C2797 1.561 . S
C2800 C2797 1.526 . S
C2800 C2801 1.396 . S
C2800 C2805 1.390 . S
C2801 C2795 1.465 . S
C2801 C2800 1.396 . S
C2801 C2802 1.399 . S
C2802 H2788 0.929 . S
C2802 C2801 1.399 . S
C2802 C2803 1.385 . S
C2803 H2789 0.931 . S
C2803 C2802 1.385 . S
C2803 C2804 1.389 . S
C2804 C2803 1.389 . S
C2804 C2805 1.387 . S
C2805 H2790 0.930 . S
C2805 C2800 1.390 . S
C2805 C2804 1.387 . S
H2806 C2818 0.930 . S
H2807 C2820 0.930 . S
H2808 C2821 0.930 . S
H2809 C2825 0.959 . S
H2810 C2825 0.959 . S
H2811 C2825 0.961 . S
H2812 C2826 0.960 . S
H2813 C2826 0.961 . S
H2814 C2826 0.959 . S
H2815 C2829 0.929 . S
H2816 C2830 0.931 . S
H2817 C2832 0.930 . S
C2818 H2806 0.930 . S
C2818 C2819 1.399 . S
C2818 C2823 1.399 . S
C2819 C2818 1.399 . S
C2819 C2820 1.376 . S
C2820 H2807 0.930 . S
C2820 C2819 1.376 . S
C2820 C2821 1.388 . S
C2821 H2808 0.930 . S
C2821 C2820 1.388 . S
C2821 C2822 1.390 . S
C2822 C2821 1.390 . S
C2822 C2823 1.394 . S
C2822 C2828 1.465 . S
C2823 C2818 1.399 . S
C2823 C2822 1.394 . S
C2823 C2824 1.516 . S
C2824 C2823 1.516 . S
C2824 C2825 1.502 . S
C2824 C2826 1.561 . S
C2824 C2827 1.526 . S
C2825 H2809 0.959 . S
C2825 H2810 0.959 . S
C2825 H2811 0.961 . S
C2825 C2824 1.502 . S
C2826 H2812 0.960 . S
C2826 H2813 0.961 . S
C2826 H2814 0.959 . S
C2826 C2824 1.561 . S
C2827 C2824 1.526 . S
C2827 C2828 1.396 . S
C2827 C2832 1.390 . S
C2828 C2822 1.465 . S
C2828 C2827 1.396 . S
C2828 C2829 1.399 . S
C2829 H2815 0.929 . S
C2829 C2828 1.399 . S
C2829 C2830 1.385 . S
C2830 H2816 0.931 . S
C2830 C2829 1.385 . S
C2830 C2831 1.389 . S
C2831 C2830 1.389 . S
C2831 C2832 1.387 . S
C2832 H2817 0.930 . S
C2832 C2827 1.390 . S
C2832 C2831 1.387 . S
H2833 C2845 0.930 . S
H2834 C2847 0.930 . S
H2835 C2848 0.930 . S
H2836 C2852 0.959 . S
H2837 C2852 0.959 . S
H2838 C2852 0.961 . S
H2839 C2853 0.960 . S
H2840 C2853 0.961 . S
H2841 C2853 0.959 . S
H2842 C2856 0.929 . S
H2843 C2857 0.931 . S
H2844 C2859 0.930 . S
C2845 H2833 0.930 . S
C2845 C2846 1.399 . S
C2845 C2850 1.399 . S
C2846 C2845 1.399 . S
C2846 C2847 1.376 . S
C2847 H2834 0.930 . S
C2847 C2846 1.376 . S
C2847 C2848 1.388 . S
C2848 H2835 0.930 . S
C2848 C2847 1.388 . S
C2848 C2849 1.390 . S
C2849 C2848 1.390 . S
C2849 C2850 1.394 . S
C2849 C2855 1.465 . S
C2850 C2845 1.399 . S
C2850 C2849 1.394 . S
C2850 C2851 1.516 . S
C2851 C2850 1.516 . S
C2851 C2852 1.502 . S
C2851 C2853 1.561 . S
C2851 C2854 1.526 . S
C2852 H2836 0.959 . S
C2852 H2837 0.959 . S
C2852 H2838 0.961 . S
C2852 C2851 1.502 . S
C2853 H2839 0.960 . S
C2853 H2840 0.961 . S
C2853 H2841 0.959 . S
C2853 C2851 1.561 . S
C2854 C2851 1.526 . S
C2854 C2855 1.396 . S
C2854 C2859 1.390 . S
C2855 C2849 1.465 . S
C2855 C2854 1.396 . S
C2855 C2856 1.399 . S
C2856 H2842 0.929 . S
C2856 C2855 1.399 . S
C2856 C2857 1.385 . S
C2857 H2843 0.931 . S
C2857 C2856 1.385 . S
C2857 C2858 1.389 . S
C2858 C2857 1.389 . S
C2858 C2859 1.387 . S
C2859 H2844 0.930 . S
C2859 C2854 1.390 . S
C2859 C2858 1.387 . S
H2860 C2872 0.930 . S
H2861 C2874 0.930 . S
H2862 C2875 0.930 1_655 S
H2863 C2879 0.959 . S
H2864 C2879 0.959 . S
H2865 C2879 0.961 . S
H2866 C2880 0.960 . S
H2867 C2880 0.961 . S
H2868 C2880 0.959 . S
H2869 C2883 0.929 . S
H2870 C2884 0.931 . S
H2871 C2886 0.930 . S
C2872 H2860 0.930 . S
C2872 C2873 1.399 . S
C2872 C2877 1.399 . S
C2873 C2872 1.399 . S
C2873 C2874 1.376 1_455 S
C2874 H2861 0.930 . S
C2874 C2873 1.376 1_655 S
C2874 C2875 1.388 1_655 S
C2875 H2862 0.930 1_455 S
C2875 C2874 1.388 1_455 S
C2875 C2876 1.390 . S
C2876 C2875 1.390 . S
C2876 C2877 1.394 . S
C2876 C2882 1.465 . S
C2877 C2872 1.399 . S
C2877 C2876 1.394 . S
C2877 C2878 1.516 . S
C2878 C2877 1.516 . S
C2878 C2879 1.502 . S
C2878 C2880 1.561 . S
C2878 C2881 1.526 . S
C2879 H2863 0.959 . S
C2879 H2864 0.959 . S
C2879 H2865 0.961 . S
C2879 C2878 1.502 . S
C2880 H2866 0.960 . S
C2880 H2867 0.961 . S
C2880 H2868 0.959 . S
C2880 C2878 1.561 . S
C2881 C2878 1.526 . S
C2881 C2882 1.396 . S
C2881 C2886 1.390 . S
C2882 C2876 1.465 . S
C2882 C2881 1.396 . S
C2882 C2883 1.399 . S
C2883 H2869 0.929 . S
C2883 C2882 1.399 . S
C2883 C2884 1.385 . S
C2884 H2870 0.931 . S
C2884 C2883 1.385 . S
C2884 C2885 1.389 . S
C2885 C2884 1.389 . S
C2885 C2886 1.387 . S
C2886 H2871 0.930 . S
C2886 C2881 1.390 . S
C2886 C2885 1.387 . S
H2887 C2899 0.930 . S
H2888 C2901 0.930 . S
H2889 C2902 0.930 . S
H2890 C2906 0.959 . S
H2891 C2906 0.959 . S
H2892 C2906 0.961 . S
H2893 C2907 0.960 . S
H2894 C2907 0.961 . S
H2895 C2907 0.959 . S
H2896 C2910 0.929 . S
H2897 C2911 0.931 . S
H2898 C2913 0.930 . S
C2899 H2887 0.930 . S
C2899 C2900 1.399 . S
C2899 C2904 1.399 . S
C2900 C2899 1.399 . S
C2900 C2901 1.376 . S
C2901 H2888 0.930 . S
C2901 C2900 1.376 . S
C2901 C2902 1.388 . S
C2902 H2889 0.930 . S
C2902 C2901 1.388 . S
C2902 C2903 1.390 . S
C2903 C2902 1.390 . S
C2903 C2904 1.394 . S
C2903 C2909 1.465 . S
C2904 C2899 1.399 . S
C2904 C2903 1.394 . S
C2904 C2905 1.516 . S
C2905 C2904 1.516 . S
C2905 C2906 1.502 . S
C2905 C2907 1.561 . S
C2905 C2908 1.526 . S
C2906 H2890 0.959 . S
C2906 H2891 0.959 . S
C2906 H2892 0.961 . S
C2906 C2905 1.502 . S
C2907 H2893 0.960 . S
C2907 H2894 0.961 . S
C2907 H2895 0.959 . S
C2907 C2905 1.561 . S
C2908 C2905 1.526 . S
C2908 C2909 1.396 . S
C2908 C2913 1.390 . S
C2909 C2903 1.465 . S
C2909 C2908 1.396 . S
C2909 C2910 1.399 . S
C2910 H2896 0.929 . S
C2910 C2909 1.399 . S
C2910 C2911 1.385 . S
C2911 H2897 0.931 . S
C2911 C2910 1.385 . S
C2911 C2912 1.389 . S
C2912 C2911 1.389 . S
C2912 C2913 1.387 . S
C2913 H2898 0.930 . S
C2913 C2908 1.390 . S
C2913 C2912 1.387 . S
H2914 C2926 0.930 . S
H2915 C2928 0.930 . S
H2916 C2929 0.930 . S
H2917 C2933 0.959 . S
H2918 C2933 0.959 . S
H2919 C2933 0.961 . S
H2920 C2934 0.960 . S
H2921 C2934 0.961 . S
H2922 C2934 0.959 . S
H2923 C2937 0.929 . S
H2924 C2938 0.931 . S
H2925 C2940 0.930 . S
C2926 H2914 0.930 . S
C2926 C2927 1.399 . S
C2926 C2931 1.399 . S
C2927 C2926 1.399 . S
C2927 C2928 1.376 . S
C2928 H2915 0.930 . S
C2928 C2927 1.376 . S
C2928 C2929 1.388 . S
C2929 H2916 0.930 . S
C2929 C2928 1.388 . S
C2929 C2930 1.390 . S
C2930 C2929 1.390 . S
C2930 C2931 1.394 . S
C2930 C2936 1.465 . S
C2931 C2926 1.399 . S
C2931 C2930 1.394 . S
C2931 C2932 1.516 . S
C2932 C2931 1.516 . S
C2932 C2933 1.502 . S
C2932 C2934 1.561 . S
C2932 C2935 1.526 . S
C2933 H2917 0.959 . S
C2933 H2918 0.959 . S
C2933 H2919 0.961 . S
C2933 C2932 1.502 . S
C2934 H2920 0.960 . S
C2934 H2921 0.961 . S
C2934 H2922 0.959 . S
C2934 C2932 1.561 . S
C2935 C2932 1.526 . S
C2935 C2936 1.396 . S
C2935 C2940 1.390 . S
C2936 C2930 1.465 . S
C2936 C2935 1.396 . S
C2936 C2937 1.399 . S
C2937 H2923 0.929 . S
C2937 C2936 1.399 . S
C2937 C2938 1.385 . S
C2938 H2924 0.931 . S
C2938 C2937 1.385 . S
C2938 C2939 1.389 . S
C2939 C2938 1.389 . S
C2939 C2940 1.387 . S
C2940 H2925 0.930 . S
C2940 C2935 1.390 . S
C2940 C2939 1.387 . S
H2941 C2953 0.930 . S
H2942 C2955 0.930 . S
H2943 C2956 0.930 . S
H2944 C2960 0.959 . S
H2945 C2960 0.959 . S
H2946 C2960 0.961 . S
H2947 C2961 0.960 . S
H2948 C2961 0.961 . S
H2949 C2961 0.959 . S
H2950 C2964 0.929 . S
H2951 C2965 0.931 . S
H2952 C2967 0.930 . S
C2953 H2941 0.930 . S
C2953 C2954 1.399 . S
C2953 C2958 1.399 . S
C2954 C2953 1.399 . S
C2954 C2955 1.376 . S
C2955 H2942 0.930 . S
C2955 C2954 1.376 . S
C2955 C2956 1.388 . S
C2956 H2943 0.930 . S
C2956 C2955 1.388 . S
C2956 C2957 1.390 . S
C2957 C2956 1.390 . S
C2957 C2958 1.394 . S
C2957 C2963 1.465 . S
C2958 C2953 1.399 . S
C2958 C2957 1.394 . S
C2958 C2959 1.516 . S
C2959 C2958 1.516 . S
C2959 C2960 1.502 . S
C2959 C2961 1.561 . S
C2959 C2962 1.526 . S
C2960 H2944 0.959 . S
C2960 H2945 0.959 . S
C2960 H2946 0.961 . S
C2960 C2959 1.502 . S
C2961 H2947 0.960 . S
C2961 H2948 0.961 . S
C2961 H2949 0.959 . S
C2961 C2959 1.561 . S
C2962 C2959 1.526 . S
C2962 C2963 1.396 . S
C2962 C2967 1.390 . S
C2963 C2957 1.465 . S
C2963 C2962 1.396 . S
C2963 C2964 1.399 . S
C2964 H2950 0.929 . S
C2964 C2963 1.399 . S
C2964 C2965 1.385 . S
C2965 H2951 0.931 . S
C2965 C2964 1.385 . S
C2965 C2966 1.389 . S
C2966 C2965 1.389 . S
C2966 C2967 1.387 . S
C2967 H2952 0.930 . S
C2967 C2962 1.390 . S
C2967 C2966 1.387 . S
H2968 C2980 0.930 . S
H2969 C2982 0.930 . S
H2970 C2983 0.930 . S
H2971 C2987 0.959 . S
H2972 C2987 0.959 . S
H2973 C2987 0.961 . S
H2974 C2988 0.960 1_565 S
H2975 C2988 0.961 1_565 S
H2976 C2988 0.959 . S
H2977 C2991 0.929 1_655 S
H2978 C2992 0.931 . S
H2979 C2994 0.930 . S
C2980 H2968 0.930 . S
C2980 C2981 1.399 . S
C2980 C2985 1.408 . S
C2981 C2980 1.399 . S
C2981 C2982 1.376 . S
C2982 H2969 0.930 . S
C2982 C2981 1.376 . S
C2982 C2983 1.388 . S
C2983 H2970 0.930 . S
C2983 C2982 1.388 . S
C2983 C2984 1.390 . S
C2984 C2983 1.390 . S
C2984 C2985 1.404 . S
C2984 C2990 1.465 1_655 S
C2985 C2980 1.408 . S
C2985 C2984 1.404 . S
C2985 C2986 1.498 1_655 S
C2986 C2985 1.498 1_455 S
C2986 C2987 1.502 . S
C2986 C2988 1.561 1_455 S
C2986 C2989 1.526 . S
C2987 H2971 0.959 . S
C2987 H2972 0.959 . S
C2987 H2973 0.961 . S
C2987 C2986 1.502 . S
C2988 H2974 0.960 1_545 S
C2988 H2975 0.961 1_545 S
C2988 H2976 0.959 . S
C2988 C2986 1.561 1_655 S
C2989 C2986 1.526 . S
C2989 C2990 1.396 . S
C2989 C2994 1.390 . S
C2990 C2984 1.465 1_455 S
C2990 C2989 1.396 . S
C2990 C2991 1.399 . S
C2991 H2977 0.929 1_455 S
C2991 C2990 1.399 . S
C2991 C2992 1.385 . S
C2992 H2978 0.931 . S
C2992 C2991 1.385 . S
C2992 C2993 1.389 . S
C2993 C2992 1.389 . S
C2993 C2994 1.387 . S
C2994 H2979 0.930 . S
C2994 C2989 1.390 . S
C2994 C2993 1.387 . S
H2995 C3007 0.930 . S
H2996 C3009 0.930 . S
H2997 C3010 0.930 . S
H2998 C3014 0.959 . S
H2999 C3014 0.959 . S
H3000 C3014 0.961 . S
H3001 C3015 0.960 . S
H3002 C3015 0.961 . S
H3003 C3015 0.959 . S
H3004 C3018 0.929 . S
H3005 C3019 0.931 . S
H3006 C3021 0.930 . S
C3007 H2995 0.930 . S
C3007 C3008 1.399 . S
C3007 C3012 1.399 . S
C3008 C3007 1.399 . S
C3008 C3009 1.376 . S
C3009 H2996 0.930 . S
C3009 C3008 1.376 . S
C3009 C3010 1.388 . S
C3010 H2997 0.930 . S
C3010 C3009 1.388 . S
C3010 C3011 1.390 . S
C3011 C3010 1.390 . S
C3011 C3012 1.394 . S
C3011 C3017 1.465 . S
C3012 C3007 1.399 . S
C3012 C3011 1.394 . S
C3012 C3013 1.516 . S
C3013 C3012 1.516 . S
C3013 C3014 1.502 . S
C3013 C3015 1.561 . S
C3013 C3016 1.526 . S
C3014 H2998 0.959 . S
C3014 H2999 0.959 . S
C3014 H3000 0.961 . S
C3014 C3013 1.502 . S
C3015 H3001 0.960 . S
C3015 H3002 0.961 . S
C3015 H3003 0.959 . S
C3015 C3013 1.561 . S
C3016 C3013 1.526 . S
C3016 C3017 1.396 . S
C3016 C3021 1.390 . S
C3017 C3011 1.465 . S
C3017 C3016 1.396 . S
C3017 C3018 1.399 . S
C3018 H3004 0.929 . S
C3018 C3017 1.399 . S
C3018 C3019 1.385 . S
C3019 H3005 0.931 . S
C3019 C3018 1.385 . S
C3019 C3020 1.389 . S
C3020 C3019 1.389 . S
C3020 C3021 1.387 . S
C3021 H3006 0.930 . S
C3021 C3016 1.390 . S
C3021 C3020 1.387 . S
H3022 C3034 0.930 . S
H3023 C3036 0.930 . S
H3024 C3037 0.930 . S
H3025 C3041 0.959 . S
H3026 C3041 0.959 . S
H3027 C3041 0.961 . S
H3028 C3042 0.960 . S
H3029 C3042 0.961 . S
H3030 C3042 0.959 . S
H3031 C3045 0.929 . S
H3032 C3046 0.931 . S
H3033 C3048 0.930 . S
C3034 H3022 0.930 . S
C3034 C3035 1.399 . S
C3034 C3039 1.399 . S
C3035 C3034 1.399 . S
C3035 C3036 1.376 . S
C3036 H3023 0.930 . S
C3036 C3035 1.376 . S
C3036 C3037 1.388 . S
C3037 H3024 0.930 . S
C3037 C3036 1.388 . S
C3037 C3038 1.390 . S
C3038 C3037 1.390 . S
C3038 C3039 1.394 . S
C3038 C3044 1.465 . S
C3039 C3034 1.399 . S
C3039 C3038 1.394 . S
C3039 C3040 1.516 . S
C3040 C3039 1.516 . S
C3040 C3041 1.502 . S
C3040 C3042 1.561 . S
C3040 C3043 1.526 . S
C3041 H3025 0.959 . S
C3041 H3026 0.959 . S
C3041 H3027 0.961 . S
C3041 C3040 1.502 . S
C3042 H3028 0.960 . S
C3042 H3029 0.961 . S
C3042 H3030 0.959 . S
C3042 C3040 1.561 . S
C3043 C3040 1.526 . S
C3043 C3044 1.396 . S
C3043 C3048 1.390 . S
C3044 C3038 1.465 . S
C3044 C3043 1.396 . S
C3044 C3045 1.399 . S
C3045 H3031 0.929 . S
C3045 C3044 1.399 . S
C3045 C3046 1.385 . S
C3046 H3032 0.931 . S
C3046 C3045 1.385 . S
C3046 C3047 1.389 . S
C3047 C3046 1.389 . S
C3047 C3048 1.387 . S
C3048 H3033 0.930 . S
C3048 C3043 1.390 . S
C3048 C3047 1.387 . S
H3049 C3061 0.930 . S
H3050 C3063 0.930 . S
H3051 C3064 0.930 . S
H3052 C3068 0.959 . S
H3053 C3068 0.959 . S
H3054 C3068 0.961 . S
H3055 C3069 0.960 . S
H3056 C3069 0.961 . S
H3057 C3069 0.959 . S
H3058 C3072 0.929 . S
H3059 C3073 0.931 . S
H3060 C3075 0.930 . S
C3061 H3049 0.930 . S
C3061 C3062 1.399 . S
C3061 C3066 1.399 . S
C3062 C3061 1.399 . S
C3062 C3063 1.376 . S
C3063 H3050 0.930 . S
C3063 C3062 1.376 . S
C3063 C3064 1.388 . S
C3064 H3051 0.930 . S
C3064 C3063 1.388 . S
C3064 C3065 1.390 . S
C3065 C3064 1.390 . S
C3065 C3066 1.394 . S
C3065 C3071 1.465 . S
C3066 C3061 1.399 . S
C3066 C3065 1.394 . S
C3066 C3067 1.516 . S
C3067 C3066 1.516 . S
C3067 C3068 1.502 . S
C3067 C3069 1.561 . S
C3067 C3070 1.526 . S
C3068 H3052 0.959 . S
C3068 H3053 0.959 . S
C3068 H3054 0.961 . S
C3068 C3067 1.502 . S
C3069 H3055 0.960 . S
C3069 H3056 0.961 . S
C3069 H3057 0.959 . S
C3069 C3067 1.561 . S
C3070 C3067 1.526 . S
C3070 C3071 1.396 . S
C3070 C3075 1.390 . S
C3071 C3065 1.465 . S
C3071 C3070 1.396 . S
C3071 C3072 1.399 . S
C3072 H3058 0.929 . S
C3072 C3071 1.399 . S
C3072 C3073 1.385 . S
C3073 H3059 0.931 . S
C3073 C3072 1.385 . S
C3073 C3074 1.389 . S
C3074 C3073 1.389 . S
C3074 C3075 1.387 . S
C3075 H3060 0.930 . S
C3075 C3070 1.390 . S
C3075 C3074 1.387 . S
H3076 C3088 0.930 . S
H3077 C3090 0.930 . S
H3078 C3091 0.930 . S
H3079 C3095 0.959 . S
H3080 C3095 0.959 . S
H3081 C3095 0.961 . S
H3082 C3096 0.960 . S
H3083 C3096 0.961 . S
H3084 C3096 0.959 . S
H3085 C3099 0.929 . S
H3086 C3100 0.931 . S
H3087 C3102 0.930 1_655 S
C3088 H3076 0.930 . S
C3088 C3089 1.399 . S
C3088 C3093 1.399 . S
C3089 C3088 1.399 . S
C3089 C3090 1.376 1_655 S
C3090 H3077 0.930 . S
C3090 C3089 1.376 1_455 S
C3090 C3091 1.388 . S
C3091 H3078 0.930 . S
C3091 C3090 1.388 . S
C3091 C3092 1.390 . S
C3092 C3091 1.390 . S
C3092 C3093 1.394 1_455 S
C3092 C3098 1.465 . S
C3093 C3088 1.399 . S
C3093 C3092 1.394 1_655 S
C3093 C3094 1.516 . S
C3094 C3093 1.516 . S
C3094 C3095 1.502 . S
C3094 C3096 1.561 . S
C3094 C3097 1.482 1_655 S
C3095 H3079 0.959 . S
C3095 H3080 0.959 . S
C3095 H3081 0.961 . S
C3095 C3094 1.502 . S
C3096 H3082 0.960 . S
C3096 H3083 0.961 . S
C3096 H3084 0.959 . S
C3096 C3094 1.561 . S
C3097 C3094 1.482 1_455 S
C3097 C3098 1.440 . S
C3097 C3102 1.396 . S
C3098 C3092 1.465 . S
C3098 C3097 1.440 . S
C3098 C3099 1.399 . S
C3099 H3085 0.929 . S
C3099 C3098 1.399 . S
C3099 C3100 1.385 . S
C3100 H3086 0.931 . S
C3100 C3099 1.385 . S
C3100 C3101 1.389 . S
C3101 C3100 1.389 . S
C3101 C3102 1.387 . S
C3102 H3087 0.930 1_455 S
C3102 C3097 1.396 . S
C3102 C3101 1.387 . S
H3103 C3115 0.930 . S
H3104 C3117 0.930 . S
H3105 C3118 0.930 . S
H3106 C3122 0.959 . S
H3107 C3122 0.959 . S
H3108 C3122 0.961 . S
H3109 C3123 0.960 . S
H3110 C3123 0.961 . S
H3111 C3123 0.959 . S
H3112 C3126 0.929 . S
H3113 C3127 0.931 . S
H3114 C3129 0.930 . S
C3115 H3103 0.930 . S
C3115 C3116 1.399 . S
C3115 C3120 1.399 . S
C3116 C3115 1.399 . S
C3116 C3117 1.376 . S
C3117 H3104 0.930 . S
C3117 C3116 1.376 . S
C3117 C3118 1.388 . S
C3118 H3105 0.930 . S
C3118 C3117 1.388 . S
C3118 C3119 1.390 . S
C3119 C3118 1.390 . S
C3119 C3120 1.394 . S
C3119 C3125 1.465 . S
C3120 C3115 1.399 . S
C3120 C3119 1.394 . S
C3120 C3121 1.516 . S
C3121 C3120 1.516 . S
C3121 C3122 1.502 . S
C3121 C3123 1.561 . S
C3121 C3124 1.526 . S
C3122 H3106 0.959 . S
C3122 H3107 0.959 . S
C3122 H3108 0.961 . S
C3122 C3121 1.502 . S
C3123 H3109 0.960 . S
C3123 H3110 0.961 . S
C3123 H3111 0.959 . S
C3123 C3121 1.561 . S
C3124 C3121 1.526 . S
C3124 C3125 1.396 . S
C3124 C3129 1.390 . S
C3125 C3119 1.465 . S
C3125 C3124 1.396 . S
C3125 C3126 1.399 . S
C3126 H3112 0.929 . S
C3126 C3125 1.399 . S
C3126 C3127 1.385 . S
C3127 H3113 0.931 . S
C3127 C3126 1.385 . S
C3127 C3128 1.389 . S
C3128 C3127 1.389 . S
C3128 C3129 1.387 . S
C3129 H3114 0.930 . S
C3129 C3124 1.390 . S
C3129 C3128 1.387 . S
H3130 C3142 0.930 . S
H3131 C3144 0.930 . S
H3132 C3145 0.930 . S
H3133 C3149 0.959 . S
H3134 C3149 0.959 . S
H3135 C3149 0.961 . S
H3136 C3150 0.960 . S
H3137 C3150 0.961 . S
H3138 C3150 0.959 . S
H3139 C3153 0.929 . S
H3140 C3154 0.931 . S
H3141 C3156 0.930 . S
C3142 H3130 0.930 . S
C3142 C3143 1.399 . S
C3142 C3147 1.399 . S
C3143 C3142 1.399 . S
C3143 C3144 1.376 . S
C3144 H3131 0.930 . S
C3144 C3143 1.376 . S
C3144 C3145 1.388 . S
C3145 H3132 0.930 . S
C3145 C3144 1.388 . S
C3145 C3146 1.390 . S
C3146 C3145 1.390 . S
C3146 C3147 1.394 . S
C3146 C3152 1.465 . S
C3147 C3142 1.399 . S
C3147 C3146 1.394 . S
C3147 C3148 1.516 . S
C3148 C3147 1.516 . S
C3148 C3149 1.502 . S
C3148 C3150 1.561 . S
C3148 C3151 1.526 . S
C3149 H3133 0.959 . S
C3149 H3134 0.959 . S
C3149 H3135 0.961 . S
C3149 C3148 1.502 . S
C3150 H3136 0.960 . S
C3150 H3137 0.961 . S
C3150 H3138 0.959 . S
C3150 C3148 1.561 . S
C3151 C3148 1.526 . S
C3151 C3152 1.396 . S
C3151 C3156 1.390 . S
C3152 C3146 1.465 . S
C3152 C3151 1.396 . S
C3152 C3153 1.399 . S
C3153 H3139 0.929 . S
C3153 C3152 1.399 . S
C3153 C3154 1.385 . S
C3154 H3140 0.931 . S
C3154 C3153 1.385 . S
C3154 C3155 1.389 . S
C3155 C3154 1.389 . S
C3155 C3156 1.387 . S
C3156 H3141 0.930 . S
C3156 C3151 1.390 . S
C3156 C3155 1.387 . S
H3157 C3169 0.930 . S
H3158 C3171 0.930 . S
H3159 C3172 0.930 . S
H3160 C3176 0.959 . S
H3161 C3176 0.959 . S
H3162 C3176 0.961 . S
H3163 C3177 0.960 . S
H3164 C3177 0.961 . S
H3165 C3177 0.959 . S
H3166 C3180 0.929 . S
H3167 C3181 0.931 . S
H3168 C3183 0.930 . S
C3169 H3157 0.930 . S
C3169 C3170 1.399 . S
C3169 C3174 1.399 . S
C3170 C3169 1.399 . S
C3170 C3171 1.376 . S
C3171 H3158 0.930 . S
C3171 C3170 1.376 . S
C3171 C3172 1.388 . S
C3172 H3159 0.930 . S
C3172 C3171 1.388 . S
C3172 C3173 1.390 . S
C3173 C3172 1.390 . S
C3173 C3174 1.394 . S
C3173 C3179 1.465 . S
C3174 C3169 1.399 . S
C3174 C3173 1.394 . S
C3174 C3175 1.516 . S
C3175 C3174 1.516 . S
C3175 C3176 1.502 . S
C3175 C3177 1.561 . S
C3175 C3178 1.526 . S
C3176 H3160 0.959 . S
C3176 H3161 0.959 . S
C3176 H3162 0.961 . S
C3176 C3175 1.502 . S
C3177 H3163 0.960 . S
C3177 H3164 0.961 . S
C3177 H3165 0.959 . S
C3177 C3175 1.561 . S
C3178 C3175 1.526 . S
C3178 C3179 1.396 . S
C3178 C3183 1.390 . S
C3179 C3173 1.465 . S
C3179 C3178 1.396 . S
C3179 C3180 1.399 . S
C3180 H3166 0.929 . S
C3180 C3179 1.399 . S
C3180 C3181 1.385 . S
C3181 H3167 0.931 . S
C3181 C3180 1.385 . S
C3181 C3182 1.389 . S
C3182 C3181 1.389 . S
C3182 C3183 1.387 . S
C3183 H3168 0.930 . S
C3183 C3178 1.390 . S
C3183 C3182 1.387 . S
H3184 C3196 0.930 . S
H3185 C3198 0.930 . S
H3186 C3199 0.930 1_545 S
H3187 C3203 0.959 . S
H3188 C3203 0.959 . S
H3189 C3203 0.961 . S
H3190 C3204 0.960 . S
H3191 C3204 0.961 . S
H3192 C3204 0.959 . S
H3193 C3207 0.929 . S
H3194 C3208 0.889 1_556 S
H3195 C3210 0.930 . S
C3196 H3184 0.930 . S
C3196 C3197 1.399 . S
C3196 C3201 1.399 . S
C3197 C3196 1.399 . S
C3197 C3198 1.376 1_554 S
C3198 H3185 0.930 . S
C3198 C3197 1.376 1_556 S
C3198 C3199 1.388 . S
C3199 H3186 0.930 1_565 S
C3199 C3198 1.388 . S
C3199 C3200 1.390 1_556 S
C3200 C3199 1.390 1_554 S
C3200 C3201 1.394 . S
C3200 C3206 1.465 1_565 S
C3201 C3196 1.399 . S
C3201 C3200 1.394 . S
C3201 C3202 1.516 . S
C3202 C3201 1.516 . S
C3202 C3203 1.502 . S
C3202 C3204 1.561 1_565 S
C3202 C3205 1.526 1_565 S
C3203 H3187 0.959 . S
C3203 H3188 0.959 . S
C3203 H3189 0.961 . S
C3203 C3202 1.502 . S
C3204 H3190 0.960 . S
C3204 H3191 0.961 . S
C3204 H3192 0.959 . S
C3204 C3202 1.561 1_545 S
C3205 C3202 1.526 1_545 S
C3205 C3206 1.396 . S
C3205 C3210 1.390 . S
C3206 C3200 1.465 1_545 S
C3206 C3205 1.396 . S
C3206 C3207 1.399 1_554 S
C3207 H3193 0.929 . S
C3207 C3206 1.399 1_556 S
C3207 C3208 1.369 1_556 S
C3208 H3194 0.889 1_554 S
C3208 C3207 1.369 1_554 S
C3208 C3209 1.449 . S
C3209 C3208 1.449 . S
C3209 C3210 1.387 . S
C3210 H3195 0.930 . S
C3210 C3205 1.390 . S
C3210 C3209 1.387 . S
H3211 C3223 0.930 . S
H3212 C3225 0.930 . S
H3213 C3226 0.930 . S
H3214 C3230 0.959 . S
H3215 C3230 0.959 . S
H3216 C3230 0.961 . S
H3217 C3231 0.960 . S
H3218 C3231 0.961 . S
H3219 C3231 0.959 . S
H3220 C3234 0.929 . S
H3221 C3235 0.931 . S
H3222 C3237 0.930 . S
C3223 H3211 0.930 . S
C3223 C3224 1.399 . S
C3223 C3228 1.399 . S
C3224 C3223 1.399 . S
C3224 C3225 1.376 1_556 S
C3225 H3212 0.930 . S
C3225 C3224 1.376 1_554 S
C3225 C3226 1.388 . S
C3226 H3213 0.930 . S
C3226 C3225 1.388 . S
C3226 C3227 1.390 . S
C3227 C3226 1.390 . S
C3227 C3228 1.394 1_554 S
C3227 C3233 1.465 . S
C3228 C3223 1.399 . S
C3228 C3227 1.394 1_556 S
C3228 C3229 1.516 . S
C3229 C3228 1.516 . S
C3229 C3230 1.502 . S
C3229 C3231 1.561 . S
C3229 C3232 1.526 . S
C3230 H3214 0.959 . S
C3230 H3215 0.959 . S
C3230 H3216 0.961 . S
C3230 C3229 1.502 . S
C3231 H3217 0.960 . S
C3231 H3218 0.961 . S
C3231 H3219 0.959 . S
C3231 C3229 1.561 . S
C3232 C3229 1.526 . S
C3232 C3233 1.396 1_556 S
C3232 C3237 1.390 . S
C3233 C3227 1.465 . S
C3233 C3232 1.396 1_554 S
C3233 C3234 1.399 . S
C3234 H3220 0.929 . S
C3234 C3233 1.399 . S
C3234 C3235 1.385 . S
C3235 H3221 0.931 . S
C3235 C3234 1.385 . S
C3235 C3236 1.389 . S
C3236 C3235 1.389 . S
C3236 C3237 1.387 1_554 S
C3237 H3222 0.930 . S
C3237 C3232 1.390 . S
C3237 C3236 1.387 1_556 S
H3238 C3250 0.930 . S
H3239 C3252 0.930 . S
H3240 C3253 0.930 . S
H3241 C3257 0.959 . S
H3242 C3257 0.959 . S
H3243 C3257 0.961 . S
H3244 C3258 0.960 . S
H3245 C3258 0.961 . S
H3246 C3258 0.959 . S
H3247 C3261 0.929 . S
H3248 C3262 0.931 . S
H3249 C3264 0.930 . S
C3250 H3238 0.930 . S
C3250 C3251 1.399 . S
C3250 C3255 1.399 . S
C3251 C3250 1.399 . S
C3251 C3252 1.376 . S
C3252 H3239 0.930 . S
C3252 C3251 1.376 . S
C3252 C3253 1.388 . S
C3253 H3240 0.930 . S
C3253 C3252 1.388 . S
C3253 C3254 1.390 . S
C3254 C3253 1.390 . S
C3254 C3255 1.394 . S
C3254 C3260 1.465 . S
C3255 C3250 1.399 . S
C3255 C3254 1.394 . S
C3255 C3256 1.516 . S
C3256 C3255 1.516 . S
C3256 C3257 1.502 . S
C3256 C3258 1.561 . S
C3256 C3259 1.526 . S
C3257 H3241 0.959 . S
C3257 H3242 0.959 . S
C3257 H3243 0.961 . S
C3257 C3256 1.502 . S
C3258 H3244 0.960 . S
C3258 H3245 0.961 . S
C3258 H3246 0.959 . S
C3258 C3256 1.561 . S
C3259 C3256 1.526 . S
C3259 C3260 1.396 . S
C3259 C3264 1.390 . S
C3260 C3254 1.465 . S
C3260 C3259 1.396 . S
C3260 C3261 1.399 . S
C3261 H3247 0.929 . S
C3261 C3260 1.399 . S
C3261 C3262 1.385 . S
C3262 H3248 0.931 . S
C3262 C3261 1.385 . S
C3262 C3263 1.389 . S
C3263 C3262 1.389 . S
C3263 C3264 1.387 . S
C3264 H3249 0.930 . S
C3264 C3259 1.390 . S
C3264 C3263 1.387 . S
H3265 C3277 0.930 . S
H3266 C3279 0.930 . S
H3267 C3280 0.930 . S
H3268 C3284 0.959 . S
H3269 C3284 0.959 . S
H3270 C3284 0.961 . S
H3271 C3285 0.960 . S
H3272 C3285 0.961 . S
H3273 C3285 0.959 . S
H3274 C3288 0.929 . S
H3275 C3289 0.931 . S
H3276 C3291 0.930 . S
C3277 H3265 0.930 . S
C3277 C3278 1.399 . S
C3277 C3282 1.399 . S
C3278 C3277 1.399 . S
C3278 C3279 1.376 . S
C3279 H3266 0.930 . S
C3279 C3278 1.376 . S
C3279 C3280 1.388 . S
C3280 H3267 0.930 . S
C3280 C3279 1.388 . S
C3280 C3281 1.390 . S
C3281 C3280 1.390 . S
C3281 C3282 1.394 . S
C3281 C3287 1.465 . S
C3282 C3277 1.399 . S
C3282 C3281 1.394 . S
C3282 C3283 1.516 . S
C3283 C3282 1.516 . S
C3283 C3284 1.502 . S
C3283 C3285 1.561 . S
C3283 C3286 1.526 . S
C3284 H3268 0.959 . S
C3284 H3269 0.959 . S
C3284 H3270 0.961 . S
C3284 C3283 1.502 . S
C3285 H3271 0.960 . S
C3285 H3272 0.961 . S
C3285 H3273 0.959 . S
C3285 C3283 1.561 . S
C3286 C3283 1.526 . S
C3286 C3287 1.396 . S
C3286 C3291 1.390 . S
C3287 C3281 1.465 . S
C3287 C3286 1.396 . S
C3287 C3288 1.399 . S
C3288 H3274 0.929 . S
C3288 C3287 1.399 . S
C3288 C3289 1.385 . S
C3289 H3275 0.931 . S
C3289 C3288 1.385 . S
C3289 C3290 1.389 . S
C3290 C3289 1.389 . S
C3290 C3291 1.387 . S
C3291 H3276 0.930 . S
C3291 C3286 1.390 . S
C3291 C3290 1.387 . S
H3292 C3304 0.930 . S
H3293 C3306 0.930 . S
H3294 C3307 0.930 . S
H3295 C3311 0.959 . S
H3296 C3311 0.959 . S
H3297 C3311 0.961 . S
H3298 C3312 0.960 . S
H3299 C3312 0.961 . S
H3300 C3312 0.959 . S
H3301 C3315 0.929 . S
H3302 C3316 0.931 . S
H3303 C3318 0.930 . S
C3304 H3292 0.930 . S
C3304 C3305 1.399 . S
C3304 C3309 1.399 . S
C3305 C3304 1.399 . S
C3305 C3306 1.376 . S
C3306 H3293 0.930 . S
C3306 C3305 1.376 . S
C3306 C3307 1.388 . S
C3307 H3294 0.930 . S
C3307 C3306 1.388 . S
C3307 C3308 1.390 . S
C3308 C3307 1.390 . S
C3308 C3309 1.394 . S
C3308 C3314 1.465 . S
C3309 C3304 1.399 . S
C3309 C3308 1.394 . S
C3309 C3310 1.516 . S
C3310 C3309 1.516 . S
C3310 C3311 1.502 . S
C3310 C3312 1.561 . S
C3310 C3313 1.526 . S
C3311 H3295 0.959 . S
C3311 H3296 0.959 . S
C3311 H3297 0.961 . S
C3311 C3310 1.502 . S
C3312 H3298 0.960 . S
C3312 H3299 0.961 . S
C3312 H3300 0.959 . S
C3312 C3310 1.561 . S
C3313 C3310 1.526 . S
C3313 C3314 1.396 . S
C3313 C3318 1.390 . S
C3314 C3308 1.465 . S
C3314 C3313 1.396 . S
C3314 C3315 1.399 . S
C3315 H3301 0.929 . S
C3315 C3314 1.399 . S
C3315 C3316 1.385 . S
C3316 H3302 0.931 . S
C3316 C3315 1.385 . S
C3316 C3317 1.389 . S
C3317 C3316 1.389 . S
C3317 C3318 1.387 . S
C3318 H3303 0.930 . S
C3318 C3313 1.390 . S
C3318 C3317 1.387 . S
H3319 C3331 0.930 . S
H3320 C3333 0.930 . S
H3321 C3334 0.930 . S
H3322 C3338 0.959 . S
H3323 C3338 0.959 . S
H3324 C3338 0.961 . S
H3325 C3339 0.960 . S
H3326 C3339 0.961 . S
H3327 C3339 0.959 . S
H3328 C3342 0.929 . S
H3329 C3343 0.931 . S
H3330 C3345 0.930 . S
C3331 H3319 0.930 . S
C3331 C3332 1.399 . S
C3331 C3336 1.399 . S
C3332 C3331 1.399 . S
C3332 C3333 1.376 . S
C3333 H3320 0.930 . S
C3333 C3332 1.376 . S
C3333 C3334 1.388 . S
C3334 H3321 0.930 . S
C3334 C3333 1.388 . S
C3334 C3335 1.390 . S
C3335 C3334 1.390 . S
C3335 C3336 1.394 . S
C3335 C3341 1.465 . S
C3336 C3331 1.399 . S
C3336 C3335 1.394 . S
C3336 C3337 1.516 . S
C3337 C3336 1.516 . S
C3337 C3338 1.502 . S
C3337 C3339 1.561 . S
C3337 C3340 1.526 . S
C3338 H3322 0.959 . S
C3338 H3323 0.959 . S
C3338 H3324 0.961 . S
C3338 C3337 1.502 . S
C3339 H3325 0.960 . S
C3339 H3326 0.961 . S
C3339 H3327 0.959 . S
C3339 C3337 1.561 . S
C3340 C3337 1.526 . S
C3340 C3341 1.396 . S
C3340 C3345 1.390 . S
C3341 C3335 1.465 . S
C3341 C3340 1.396 . S
C3341 C3342 1.399 . S
C3342 H3328 0.929 . S
C3342 C3341 1.399 . S
C3342 C3343 1.385 . S
C3343 H3329 0.931 . S
C3343 C3342 1.385 . S
C3343 C3344 1.389 . S
C3344 C3343 1.389 . S
C3344 C3345 1.387 . S
C3345 H3330 0.930 . S
C3345 C3340 1.390 . S
C3345 C3344 1.387 . S
H3346 C3358 0.930 . S
H3347 C3360 0.930 . S
H3348 C3361 0.930 . S
H3349 C3365 0.959 . S
H3350 C3365 0.959 . S
H3351 C3365 0.961 . S
H3352 C3366 0.960 . S
H3353 C3366 0.961 . S
H3354 C3366 0.959 . S
H3355 C3369 0.929 . S
H3356 C3370 0.931 . S
H3357 C3372 0.930 . S
C3358 H3346 0.930 . S
C3358 C3359 1.399 . S
C3358 C3363 1.399 . S
C3359 C3358 1.399 . S
C3359 C3360 1.376 . S
C3360 H3347 0.930 . S
C3360 C3359 1.376 . S
C3360 C3361 1.388 . S
C3361 H3348 0.930 . S
C3361 C3360 1.388 . S
C3361 C3362 1.390 . S
C3362 C3361 1.390 . S
C3362 C3363 1.394 . S
C3362 C3368 1.465 . S
C3363 C3358 1.399 . S
C3363 C3362 1.394 . S
C3363 C3364 1.516 . S
C3364 C3363 1.516 . S
C3364 C3365 1.502 . S
C3364 C3366 1.561 . S
C3364 C3367 1.526 . S
C3365 H3349 0.959 . S
C3365 H3350 0.959 . S
C3365 H3351 0.961 . S
C3365 C3364 1.502 . S
C3366 H3352 0.960 . S
C3366 H3353 0.961 . S
C3366 H3354 0.959 . S
C3366 C3364 1.561 . S
C3367 C3364 1.526 . S
C3367 C3368 1.396 . S
C3367 C3372 1.390 . S
C3368 C3362 1.465 . S
C3368 C3367 1.396 . S
C3368 C3369 1.399 . S
C3369 H3355 0.929 . S
C3369 C3368 1.399 . S
C3369 C3370 1.385 . S
C3370 H3356 0.931 . S
C3370 C3369 1.385 . S
C3370 C3371 1.389 . S
C3371 C3370 1.389 . S
C3371 C3372 1.387 . S
C3372 H3357 0.930 . S
C3372 C3367 1.390 . S
C3372 C3371 1.387 . S
H3373 C3385 0.930 . S
H3374 C3387 0.930 . S
H3375 C3388 0.930 . S
H3376 C3392 0.959 . S
H3377 C3392 0.959 . S
H3378 C3392 0.961 . S
H3379 C3393 0.960 . S
H3380 C3393 0.961 . S
H3381 C3393 0.959 . S
H3382 C3396 0.929 . S
H3383 C3397 0.931 . S
H3384 C3399 0.930 . S
C3385 H3373 0.930 . S
C3385 C3386 1.399 . S
C3385 C3390 1.399 . S
C3386 C3385 1.399 . S
C3386 C3387 1.376 . S
C3387 H3374 0.930 . S
C3387 C3386 1.376 . S
C3387 C3388 1.388 . S
C3388 H3375 0.930 . S
C3388 C3387 1.388 . S
C3388 C3389 1.390 . S
C3389 C3388 1.390 . S
C3389 C3390 1.394 . S
C3389 C3395 1.465 . S
C3390 C3385 1.399 . S
C3390 C3389 1.394 . S
C3390 C3391 1.516 . S
C3391 C3390 1.516 . S
C3391 C3392 1.502 . S
C3391 C3393 1.561 . S
C3391 C3394 1.526 . S
C3392 H3376 0.959 . S
C3392 H3377 0.959 . S
C3392 H3378 0.961 . S
C3392 C3391 1.502 . S
C3393 H3379 0.960 . S
C3393 H3380 0.961 . S
C3393 H3381 0.959 . S
C3393 C3391 1.561 . S
C3394 C3391 1.526 . S
C3394 C3395 1.396 . S
C3394 C3399 1.390 . S
C3395 C3389 1.465 . S
C3395 C3394 1.396 . S
C3395 C3396 1.399 . S
C3396 H3382 0.929 . S
C3396 C3395 1.399 . S
C3396 C3397 1.385 . S
C3397 H3383 0.931 . S
C3397 C3396 1.385 . S
C3397 C3398 1.389 . S
C3398 C3397 1.389 . S
C3398 C3399 1.387 . S
C3399 H3384 0.930 . S
C3399 C3394 1.390 . S
C3399 C3398 1.387 . S
H3400 C3412 0.930 . S
H3401 C3414 0.930 . S
H3402 C3415 0.930 . S
H3403 C3419 0.959 . S
H3404 C3419 0.959 . S
H3405 C3419 0.961 . S
H3406 C3420 0.960 . S
H3407 C3420 0.961 . S
H3408 C3420 0.959 . S
H3409 C3423 0.929 . S
H3410 C3424 0.931 . S
H3411 C3426 0.930 . S
C3412 H3400 0.930 . S
C3412 C3413 1.399 . S
C3412 C3417 1.399 . S
C3413 C3412 1.399 . S
C3413 C3414 1.376 . S
C3414 H3401 0.930 . S
C3414 C3413 1.376 . S
C3414 C3415 1.388 . S
C3415 H3402 0.930 . S
C3415 C3414 1.388 . S
C3415 C3416 1.390 . S
C3416 C3415 1.390 . S
C3416 C3417 1.394 . S
C3416 C3422 1.465 . S
C3417 C3412 1.399 . S
C3417 C3416 1.394 . S
C3417 C3418 1.516 . S
C3418 C3417 1.516 . S
C3418 C3419 1.502 . S
C3418 C3420 1.561 . S
C3418 C3421 1.526 . S
C3419 H3403 0.959 . S
C3419 H3404 0.959 . S
C3419 H3405 0.961 . S
C3419 C3418 1.502 . S
C3420 H3406 0.960 . S
C3420 H3407 0.961 . S
C3420 H3408 0.959 . S
C3420 C3418 1.561 . S
C3421 C3418 1.526 . S
C3421 C3422 1.396 . S
C3421 C3426 1.390 . S
C3422 C3416 1.465 . S
C3422 C3421 1.396 . S
C3422 C3423 1.399 . S
C3423 H3409 0.929 . S
C3423 C3422 1.399 . S
C3423 C3424 1.385 . S
C3424 H3410 0.931 . S
C3424 C3423 1.385 . S
C3424 C3425 1.389 . S
C3425 C3424 1.389 . S
C3425 C3426 1.387 . S
C3426 H3411 0.930 . S
C3426 C3421 1.390 . S
C3426 C3425 1.387 . S
H3427 C3439 0.930 . S
H3428 C3441 0.930 . S
H3429 C3442 0.930 . S
H3430 C3446 0.959 . S
H3431 C3446 0.959 . S
H3432 C3446 0.961 . S
H3433 C3447 0.960 . S
H3434 C3447 0.961 . S
H3435 C3447 0.959 . S
H3436 C3450 0.929 . S
H3437 C3451 0.931 . S
H3438 C3453 0.930 . S
C3439 H3427 0.930 . S
C3439 C3440 1.399 . S
C3439 C3444 1.399 . S
C3440 C3439 1.399 . S
C3440 C3441 1.376 . S
C3441 H3428 0.930 . S
C3441 C3440 1.376 . S
C3441 C3442 1.388 . S
C3442 H3429 0.930 . S
C3442 C3441 1.388 . S
C3442 C3443 1.390 . S
C3443 C3442 1.390 . S
C3443 C3444 1.394 . S
C3443 C3449 1.465 . S
C3444 C3439 1.399 . S
C3444 C3443 1.394 . S
C3444 C3445 1.516 . S
C3445 C3444 1.516 . S
C3445 C3446 1.502 . S
C3445 C3447 1.561 . S
C3445 C3448 1.526 . S
C3446 H3430 0.959 . S
C3446 H3431 0.959 . S
C3446 H3432 0.961 . S
C3446 C3445 1.502 . S
C3447 H3433 0.960 . S
C3447 H3434 0.961 . S
C3447 H3435 0.959 . S
C3447 C3445 1.561 . S
C3448 C3445 1.526 . S
C3448 C3449 1.396 . S
C3448 C3453 1.390 . S
C3449 C3443 1.465 . S
C3449 C3448 1.396 . S
C3449 C3450 1.399 . S
C3450 H3436 0.929 . S
C3450 C3449 1.399 . S
C3450 C3451 1.385 . S
C3451 H3437 0.931 . S
C3451 C3450 1.385 . S
C3451 C3452 1.389 . S
C3452 C3451 1.389 . S
C3452 C3453 1.387 . S
C3453 H3438 0.930 . S
C3453 C3448 1.390 . S
C3453 C3452 1.387 . S
H3454 C3466 0.930 . S
H3455 C3468 0.930 . S
H3456 C3469 0.930 . S
H3457 C3473 0.959 . S
H3458 C3473 0.959 . S
H3459 C3473 0.961 . S
H3460 C3474 0.960 . S
H3461 C3474 0.961 . S
H3462 C3474 0.959 . S
H3463 C3477 0.929 . S
H3464 C3478 0.931 . S
H3465 C3480 0.930 . S
C3466 H3454 0.930 . S
C3466 C3467 1.399 . S
C3466 C3471 1.399 . S
C3467 C3466 1.399 . S
C3467 C3468 1.376 . S
C3468 H3455 0.930 . S
C3468 C3467 1.376 . S
C3468 C3469 1.388 . S
C3469 H3456 0.930 . S
C3469 C3468 1.388 . S
C3469 C3470 1.390 . S
C3470 C3469 1.390 . S
C3470 C3471 1.394 . S
C3470 C3476 1.465 . S
C3471 C3466 1.399 . S
C3471 C3470 1.394 . S
C3471 C3472 1.516 . S
C3472 C3471 1.516 . S
C3472 C3473 1.502 . S
C3472 C3474 1.561 . S
C3472 C3475 1.526 . S
C3473 H3457 0.959 . S
C3473 H3458 0.959 . S
C3473 H3459 0.961 . S
C3473 C3472 1.502 . S
C3474 H3460 0.960 . S
C3474 H3461 0.961 . S
C3474 H3462 0.959 . S
C3474 C3472 1.561 . S
C3475 C3472 1.526 . S
C3475 C3476 1.396 . S
C3475 C3480 1.390 . S
C3476 C3470 1.465 . S
C3476 C3475 1.396 . S
C3476 C3477 1.399 . S
C3477 H3463 0.929 . S
C3477 C3476 1.399 . S
C3477 C3478 1.385 . S
C3478 H3464 0.931 . S
C3478 C3477 1.385 . S
C3478 C3479 1.389 . S
C3479 C3478 1.389 . S
C3479 C3480 1.387 . S
C3480 H3465 0.930 . S
C3480 C3475 1.390 . S
C3480 C3479 1.387 . S
H3481 C3493 0.930 . S
H3482 C3495 0.930 . S
H3483 C3496 0.930 . S
H3484 C3500 0.959 . S
H3485 C3500 0.959 . S
H3486 C3500 0.961 . S
H3487 C3501 0.960 . S
H3488 C3501 0.961 . S
H3489 C3501 0.959 . S
H3490 C3504 0.929 . S
H3491 C3505 0.931 . S
H3492 C3507 0.930 . S
C3493 H3481 0.930 . S
C3493 C3494 1.399 . S
C3493 C3498 1.399 . S
C3494 C3493 1.399 . S
C3494 C3495 1.376 . S
C3495 H3482 0.930 . S
C3495 C3494 1.376 . S
C3495 C3496 1.388 . S
C3496 H3483 0.930 . S
C3496 C3495 1.388 . S
C3496 C3497 1.390 . S
C3497 C3496 1.390 . S
C3497 C3498 1.394 . S
C3497 C3503 1.465 . S
C3498 C3493 1.399 . S
C3498 C3497 1.394 . S
C3498 C3499 1.516 . S
C3499 C3498 1.516 . S
C3499 C3500 1.502 . S
C3499 C3501 1.561 . S
C3499 C3502 1.526 . S
C3500 H3484 0.959 . S
C3500 H3485 0.959 . S
C3500 H3486 0.961 . S
C3500 C3499 1.502 . S
C3501 H3487 0.960 . S
C3501 H3488 0.961 . S
C3501 H3489 0.959 . S
C3501 C3499 1.561 . S
C3502 C3499 1.526 . S
C3502 C3503 1.396 . S
C3502 C3507 1.390 . S
C3503 C3497 1.465 . S
C3503 C3502 1.396 . S
C3503 C3504 1.399 . S
C3504 H3490 0.929 . S
C3504 C3503 1.399 . S
C3504 C3505 1.385 . S
C3505 H3491 0.931 . S
C3505 C3504 1.385 . S
C3505 C3506 1.389 . S
C3506 C3505 1.389 . S
C3506 C3507 1.387 . S
C3507 H3492 0.930 . S
C3507 C3502 1.390 . S
C3507 C3506 1.387 . S
H3508 C3520 0.930 . S
H3509 C3522 0.930 . S
H3510 C3523 0.930 . S
H3511 C3527 0.959 . S
H3512 C3527 0.959 . S
H3513 C3527 0.961 . S
H3514 C3528 0.960 . S
H3515 C3528 0.961 . S
H3516 C3528 0.959 . S
H3517 C3531 0.929 . S
H3518 C3532 0.931 . S
H3519 C3534 0.930 . S
C3520 H3508 0.930 . S
C3520 C3521 1.399 . S
C3520 C3525 1.399 . S
C3521 C3520 1.399 . S
C3521 C3522 1.376 . S
C3522 H3509 0.930 . S
C3522 C3521 1.376 . S
C3522 C3523 1.388 . S
C3523 H3510 0.930 . S
C3523 C3522 1.388 . S
C3523 C3524 1.390 . S
C3524 C3523 1.390 . S
C3524 C3525 1.394 . S
C3524 C3530 1.465 . S
C3525 C3520 1.399 . S
C3525 C3524 1.394 . S
C3525 C3526 1.516 . S
C3526 C3525 1.516 . S
C3526 C3527 1.502 . S
C3526 C3528 1.561 . S
C3526 C3529 1.526 . S
C3527 H3511 0.959 . S
C3527 H3512 0.959 . S
C3527 H3513 0.961 . S
C3527 C3526 1.502 . S
C3528 H3514 0.960 . S
C3528 H3515 0.961 . S
C3528 H3516 0.959 . S
C3528 C3526 1.561 . S
C3529 C3526 1.526 . S
C3529 C3530 1.396 . S
C3529 C3534 1.390 . S
C3530 C3524 1.465 . S
C3530 C3529 1.396 . S
C3530 C3531 1.399 . S
C3531 H3517 0.929 . S
C3531 C3530 1.399 . S
C3531 C3532 1.385 . S
C3532 H3518 0.931 . S
C3532 C3531 1.385 . S
C3532 C3533 1.389 . S
C3533 C3532 1.389 . S
C3533 C3534 1.387 . S
C3534 H3519 0.930 . S
C3534 C3529 1.390 . S
C3534 C3533 1.387 . S
H3535 C3547 0.930 . S
H3536 C3549 0.930 . S
H3537 C3550 0.930 . S
H3538 C3554 0.959 . S
H3539 C3554 0.959 . S
H3540 C3554 0.961 . S
H3541 C3555 0.960 . S
H3542 C3555 0.961 . S
H3543 C3555 0.959 . S
H3544 C3558 0.929 . S
H3545 C3559 0.931 . S
H3546 C3561 0.930 . S
C3547 H3535 0.930 . S
C3547 C3548 1.399 . S
C3547 C3552 1.399 . S
C3548 C3547 1.399 . S
C3548 C3549 1.376 . S
C3549 H3536 0.930 . S
C3549 C3548 1.376 . S
C3549 C3550 1.388 . S
C3550 H3537 0.930 . S
C3550 C3549 1.388 . S
C3550 C3551 1.390 . S
C3551 C3550 1.390 . S
C3551 C3552 1.394 . S
C3551 C3557 1.465 . S
C3552 C3547 1.399 . S
C3552 C3551 1.394 . S
C3552 C3553 1.516 . S
C3553 C3552 1.516 . S
C3553 C3554 1.502 . S
C3553 C3555 1.561 . S
C3553 C3556 1.526 . S
C3554 H3538 0.959 . S
C3554 H3539 0.959 . S
C3554 H3540 0.961 . S
C3554 C3553 1.502 . S
C3555 H3541 0.960 . S
C3555 H3542 0.961 . S
C3555 H3543 0.959 . S
C3555 C3553 1.561 . S
C3556 C3553 1.526 . S
C3556 C3557 1.396 . S
C3556 C3561 1.390 . S
C3557 C3551 1.465 . S
C3557 C3556 1.396 . S
C3557 C3558 1.399 . S
C3558 H3544 0.929 . S
C3558 C3557 1.399 . S
C3558 C3559 1.385 . S
C3559 H3545 0.931 . S
C3559 C3558 1.385 . S
C3559 C3560 1.389 . S
C3560 C3559 1.389 . S
C3560 C3561 1.387 . S
C3561 H3546 0.930 . S
C3561 C3556 1.390 . S
C3561 C3560 1.387 . S
H3562 C3574 0.930 . S
H3563 C3576 0.930 . S
H3564 C3577 0.930 . S
H3565 C3581 0.982 . S
H3566 C3581 0.974 . S
H3567 C3581 0.961 . S
H3568 C3582 0.960 . S
H3569 C3582 0.961 . S
H3570 C3582 0.959 . S
H3571 C3585 0.929 . S
H3572 C3586 0.931 . S
H3573 C3588 0.958 . S
C3574 H3562 0.930 . S
C3574 C3575 1.399 . S
C3574 C3579 1.399 . S
C3575 C3574 1.399 . S
C3575 C3576 1.376 . S
C3576 H3563 0.930 . S
C3576 C3575 1.376 . S
C3576 C3577 1.388 . S
C3577 H3564 0.930 . S
C3577 C3576 1.388 . S
C3577 C3578 1.390 . S
C3578 C3577 1.390 . S
C3578 C3579 1.394 . S
C3578 C3584 1.465 . S
C3579 C3574 1.399 . S
C3579 C3578 1.394 . S
C3579 C3580 1.516 . S
C3580 C3579 1.516 . S
C3580 C3581 1.467 1_556 S
C3580 C3582 1.561 . S
C3580 C3583 1.526 . S
C3581 H3565 0.982 . S
C3581 H3566 0.974 . S
C3581 H3567 0.961 . S
C3581 C3580 1.467 1_554 S
C3582 H3568 0.960 . S
C3582 H3569 0.961 . S
C3582 H3570 0.959 . S
C3582 C3580 1.561 . S
C3583 C3580 1.526 . S
C3583 C3584 1.396 . S
C3583 C3588 1.390 . S
C3584 C3578 1.465 . S
C3584 C3583 1.396 . S
C3584 C3585 1.399 . S
C3585 H3571 0.929 . S
C3585 C3584 1.399 . S
C3585 C3586 1.385 . S
C3586 H3572 0.931 . S
C3586 C3585 1.385 . S
C3586 C3587 1.389 . S
C3587 C3586 1.389 . S
C3587 C3588 1.387 . S
C3588 H3573 0.958 . S
C3588 C3583 1.390 . S
C3588 C3587 1.387 . S
H3589 C3601 0.930 . S
H3590 C3603 0.930 . S
H3591 C3604 0.930 . S
H3592 C3608 0.959 . S
H3593 C3608 0.959 . S
H3594 C3608 0.961 . S
H3595 C3609 0.960 . S
H3596 C3609 0.961 . S
H3597 C3609 0.959 . S
H3598 C3612 0.929 . S
H3599 C3613 0.931 . S
H3600 C3615 0.930 . S
C3601 H3589 0.930 . S
C3601 C3602 1.399 . S
C3601 C3606 1.399 . S
C3602 C3601 1.399 . S
C3602 C3603 1.376 . S
C3603 H3590 0.930 . S
C3603 C3602 1.376 . S
C3603 C3604 1.388 . S
C3604 H3591 0.930 . S
C3604 C3603 1.388 . S
C3604 C3605 1.390 . S
C3605 C3604 1.390 . S
C3605 C3606 1.394 . S
C3605 C3611 1.465 . S
C3606 C3601 1.399 . S
C3606 C3605 1.394 . S
C3606 C3607 1.516 . S
C3607 C3606 1.516 . S
C3607 C3608 1.502 . S
C3607 C3609 1.561 . S
C3607 C3610 1.526 . S
C3608 H3592 0.959 . S
C3608 H3593 0.959 . S
C3608 H3594 0.961 . S
C3608 C3607 1.502 . S
C3609 H3595 0.960 . S
C3609 H3596 0.961 . S
C3609 H3597 0.959 . S
C3609 C3607 1.561 . S
C3610 C3607 1.526 . S
C3610 C3611 1.396 . S
C3610 C3615 1.390 . S
C3611 C3605 1.465 . S
C3611 C3610 1.396 . S
C3611 C3612 1.399 . S
C3612 H3598 0.929 . S
C3612 C3611 1.399 . S
C3612 C3613 1.385 . S
C3613 H3599 0.931 . S
C3613 C3612 1.385 . S
C3613 C3614 1.389 . S
C3614 C3613 1.389 . S
C3614 C3615 1.387 . S
C3615 H3600 0.930 . S
C3615 C3610 1.390 . S
C3615 C3614 1.387 . S
H3616 C3628 0.930 . S
H3617 C3630 0.930 . S
H3618 C3631 0.930 . S
H3619 C3635 0.959 . S
H3620 C3635 0.959 . S
H3621 C3635 0.961 . S
H3622 C3636 0.960 . S
H3623 C3636 0.961 . S
H3624 C3636 0.959 . S
H3625 C3639 0.929 . S
H3626 C3640 0.931 . S
H3627 C3642 0.930 . S
C3628 H3616 0.930 . S
C3628 C3629 1.399 . S
C3628 C3633 1.399 . S
C3629 C3628 1.399 . S
C3629 C3630 1.376 1_545 S
C3630 H3617 0.930 . S
C3630 C3629 1.376 1_565 S
C3630 C3631 1.388 . S
C3631 H3618 0.930 . S
C3631 C3630 1.388 . S
C3631 C3632 1.390 1_565 S
C3632 C3631 1.390 1_545 S
C3632 C3633 1.394 . S
C3632 C3638 1.465 . S
C3633 C3628 1.399 . S
C3633 C3632 1.394 . S
C3633 C3634 1.516 . S
C3634 C3633 1.516 . S
C3634 C3635 1.502 . S
C3634 C3636 1.561 . S
C3634 C3637 1.526 . S
C3635 H3619 0.959 . S
C3635 H3620 0.959 . S
C3635 H3621 0.961 . S
C3635 C3634 1.502 . S
C3636 H3622 0.960 . S
C3636 H3623 0.961 . S
C3636 H3624 0.959 . S
C3636 C3634 1.561 . S
C3637 C3634 1.526 . S
C3637 C3638 1.396 . S
C3637 C3642 1.390 . S
C3638 C3632 1.465 . S
C3638 C3637 1.396 . S
C3638 C3639 1.399 1_545 S
C3639 H3625 0.929 . S
C3639 C3638 1.399 1_565 S
C3639 C3640 1.385 . S
C3640 H3626 0.931 . S
C3640 C3639 1.385 . S
C3640 C3641 1.389 1_565 S
C3641 C3640 1.389 1_545 S
C3641 C3642 1.387 . S
C3642 H3627 0.930 . S
C3642 C3637 1.390 . S
C3642 C3641 1.387 . S
H3643 C3655 0.930 . S
H3644 C3657 0.930 . S
H3645 C3658 0.930 . S
H3646 C3662 0.959 . S
H3647 C3662 0.959 . S
H3648 C3662 0.961 . S
H3649 C3663 0.960 . S
H3650 C3663 0.961 . S
H3651 C3663 0.959 . S
H3652 C3666 0.929 . S
H3653 C3667 0.931 . S
H3654 C3669 0.930 . S
C3655 H3643 0.930 . S
C3655 C3656 1.399 . S
C3655 C3660 1.399 . S
C3656 C3655 1.399 . S
C3656 C3657 1.376 . S
C3657 H3644 0.930 . S
C3657 C3656 1.376 . S
C3657 C3658 1.388 . S
C3658 H3645 0.930 . S
C3658 C3657 1.388 . S
C3658 C3659 1.390 . S
C3659 C3658 1.390 . S
C3659 C3660 1.394 . S
C3659 C3665 1.465 . S
C3660 C3655 1.399 . S
C3660 C3659 1.394 . S
C3660 C3661 1.516 . S
C3661 C3660 1.516 . S
C3661 C3662 1.502 . S
C3661 C3663 1.561 . S
C3661 C3664 1.526 . S
C3662 H3646 0.959 . S
C3662 H3647 0.959 . S
C3662 H3648 0.961 . S
C3662 C3661 1.502 . S
C3663 H3649 0.960 . S
C3663 H3650 0.961 . S
C3663 H3651 0.959 . S
C3663 C3661 1.561 . S
C3664 C3661 1.526 . S
C3664 C3665 1.396 . S
C3664 C3669 1.390 . S
C3665 C3659 1.465 . S
C3665 C3664 1.396 . S
C3665 C3666 1.399 . S
C3666 H3652 0.929 . S
C3666 C3665 1.399 . S
C3666 C3667 1.385 . S
C3667 H3653 0.931 . S
C3667 C3666 1.385 . S
C3667 C3668 1.389 . S
C3668 C3667 1.389 . S
C3668 C3669 1.387 . S
C3669 H3654 0.930 . S
C3669 C3664 1.390 . S
C3669 C3668 1.387 . S
H3670 C3682 0.930 . S
H3671 C3684 0.930 1_565 S
H3672 C3685 0.958 . S
H3673 C3689 0.959 . S
H3674 C3689 0.959 . S
H3675 C3689 0.961 . S
H3676 C3690 0.960 . S
H3677 C3690 0.961 . S
H3678 C3690 0.959 . S
H3679 C3693 0.929 1_565 S
H3680 C3694 0.907 1_565 S
H3681 C3696 0.930 . S
C3682 H3670 0.930 . S
C3682 C3683 1.399 . S
C3682 C3687 1.399 . S
C3683 C3682 1.399 . S
C3683 C3684 1.376 . S
C3684 H3671 0.930 1_545 S
C3684 C3683 1.376 . S
C3684 C3685 1.378 1_545 S
C3685 H3672 0.958 . S
C3685 C3684 1.378 1_565 S
C3685 C3686 1.372 1_565 S
C3686 C3685 1.372 1_545 S
C3686 C3687 1.394 . S
C3686 C3692 1.465 . S
C3687 C3682 1.399 . S
C3687 C3686 1.394 . S
C3687 C3688 1.516 . S
C3688 C3687 1.516 . S
C3688 C3689 1.502 . S
C3688 C3690 1.561 . S
C3688 C3691 1.526 . S
C3689 H3673 0.959 . S
C3689 H3674 0.959 . S
C3689 H3675 0.961 . S
C3689 C3688 1.502 . S
C3690 H3676 0.960 . S
C3690 H3677 0.961 . S
C3690 H3678 0.959 . S
C3690 C3688 1.561 . S
C3691 C3688 1.526 . S
C3691 C3692 1.396 . S
C3691 C3696 1.390 . S
C3692 C3686 1.465 . S
C3692 C3691 1.396 . S
C3692 C3693 1.399 . S
C3693 H3679 0.929 1_545 S
C3693 C3692 1.399 . S
C3693 C3694 1.385 . S
C3694 H3680 0.907 1_545 S
C3694 C3693 1.385 . S
C3694 C3695 1.389 . S
C3695 C3694 1.389 . S
C3695 C3696 1.387 . S
C3696 H3681 0.930 . S
C3696 C3691 1.390 . S
C3696 C3695 1.387 . S
H3697 C3709 0.930 . S
H3698 C3711 0.930 . S
H3699 C3712 0.930 . S
H3700 C3716 0.959 . S
H3701 C3716 0.959 . S
H3702 C3716 0.961 . S
H3703 C3717 0.960 . S
H3704 C3717 0.961 . S
H3705 C3717 0.959 . S
H3706 C3720 0.929 . S
H3707 C3721 0.931 . S
H3708 C3723 0.930 . S
C3709 H3697 0.930 . S
C3709 C3710 1.399 . S
C3709 C3714 1.399 . S
C3710 C3709 1.399 . S
C3710 C3711 1.376 . S
C3711 H3698 0.930 . S
C3711 C3710 1.376 . S
C3711 C3712 1.388 . S
C3712 H3699 0.930 . S
C3712 C3711 1.388 . S
C3712 C3713 1.390 . S
C3713 C3712 1.390 . S
C3713 C3714 1.394 . S
C3713 C3719 1.465 . S
C3714 C3709 1.399 . S
C3714 C3713 1.394 . S
C3714 C3715 1.516 . S
C3715 C3714 1.516 . S
C3715 C3716 1.502 . S
C3715 C3717 1.561 . S
C3715 C3718 1.526 . S
C3716 H3700 0.959 . S
C3716 H3701 0.959 . S
C3716 H3702 0.961 . S
C3716 C3715 1.502 . S
C3717 H3703 0.960 . S
C3717 H3704 0.961 . S
C3717 H3705 0.959 . S
C3717 C3715 1.561 . S
C3718 C3715 1.526 . S
C3718 C3719 1.396 . S
C3718 C3723 1.390 . S
C3719 C3713 1.465 . S
C3719 C3718 1.396 . S
C3719 C3720 1.399 . S
C3720 H3706 0.929 . S
C3720 C3719 1.399 . S
C3720 C3721 1.385 . S
C3721 H3707 0.931 . S
C3721 C3720 1.385 . S
C3721 C3722 1.389 . S
C3722 C3721 1.389 . S
C3722 C3723 1.387 . S
C3723 H3708 0.930 . S
C3723 C3718 1.390 . S
C3723 C3722 1.387 . S
H3724 C3736 0.930 . S
H3725 C3738 0.930 . S
H3726 C3739 0.930 . S
H3727 C3743 0.959 . S
H3728 C3743 0.959 . S
H3729 C3743 0.961 . S
H3730 C3744 0.960 . S
H3731 C3744 0.961 . S
H3732 C3744 0.959 . S
H3733 C3747 0.929 . S
H3734 C3748 0.933 . S
H3735 C3750 0.930 . S
C3736 H3724 0.930 . S
C3736 C3737 1.399 1_545 S
C3736 C3741 1.399 . S
C3737 C3736 1.399 1_565 S
C3737 C3738 1.376 . S
C3738 H3725 0.930 . S
C3738 C3737 1.376 . S
C3738 C3739 1.388 . S
C3739 H3726 0.930 . S
C3739 C3738 1.388 . S
C3739 C3740 1.390 . S
C3740 C3739 1.390 . S
C3740 C3741 1.394 1_565 S
C3740 C3746 1.465 1_565 S
C3741 C3736 1.399 . S
C3741 C3740 1.394 1_545 S
C3741 C3742 1.516 . S
C3742 C3741 1.516 . S
C3742 C3743 1.502 . S
C3742 C3744 1.561 . S
C3742 C3745 1.526 . S
C3743 H3727 0.959 . S
C3743 H3728 0.959 . S
C3743 H3729 0.961 . S
C3743 C3742 1.502 . S
C3744 H3730 0.960 . S
C3744 H3731 0.961 . S
C3744 H3732 0.959 . S
C3744 C3742 1.561 . S
C3745 C3742 1.526 . S
C3745 C3746 1.396 . S
C3745 C3750 1.390 . S
C3746 C3740 1.465 1_545 S
C3746 C3745 1.396 . S
C3746 C3747 1.399 1_545 S
C3747 H3733 0.929 . S
C3747 C3746 1.399 1_565 S
C3747 C3748 1.389 . S
C3748 H3734 0.933 . S
C3748 C3747 1.389 . S
C3748 C3749 1.383 1_565 S
C3749 C3748 1.383 1_545 S
C3749 C3750 1.387 . S
C3750 H3735 0.930 . S
C3750 C3745 1.390 . S
C3750 C3749 1.387 . S
H3751 C3763 0.930 . S
H3752 C3765 0.930 . S
H3753 C3766 0.930 . S
H3754 C3770 0.959 . S
H3755 C3770 0.959 . S
H3756 C3770 0.961 . S
H3757 C3771 0.960 . S
H3758 C3771 0.961 . S
H3759 C3771 0.959 . S
H3760 C3774 0.929 . S
H3761 C3775 0.931 . S
H3762 C3777 0.930 . S
C3763 H3751 0.930 . S
C3763 C3764 1.399 . S
C3763 C3768 1.399 . S
C3764 C3763 1.399 . S
C3764 C3765 1.376 . S
C3765 H3752 0.930 . S
C3765 C3764 1.376 . S
C3765 C3766 1.388 . S
C3766 H3753 0.930 . S
C3766 C3765 1.388 . S
C3766 C3767 1.390 . S
C3767 C3766 1.390 . S
C3767 C3768 1.394 . S
C3767 C3773 1.465 . S
C3768 C3763 1.399 . S
C3768 C3767 1.394 . S
C3768 C3769 1.516 . S
C3769 C3768 1.516 . S
C3769 C3770 1.502 . S
C3769 C3771 1.561 . S
C3769 C3772 1.526 . S
C3770 H3754 0.959 . S
C3770 H3755 0.959 . S
C3770 H3756 0.961 . S
C3770 C3769 1.502 . S
C3771 H3757 0.960 . S
C3771 H3758 0.961 . S
C3771 H3759 0.959 . S
C3771 C3769 1.561 . S
C3772 C3769 1.526 . S
C3772 C3773 1.396 . S
C3772 C3777 1.390 . S
C3773 C3767 1.465 . S
C3773 C3772 1.396 . S
C3773 C3774 1.399 . S
C3774 H3760 0.929 . S
C3774 C3773 1.399 . S
C3774 C3775 1.385 . S
C3775 H3761 0.931 . S
C3775 C3774 1.385 . S
C3775 C3776 1.389 . S
C3776 C3775 1.389 . S
C3776 C3777 1.387 . S
C3777 H3762 0.930 . S
C3777 C3772 1.390 . S
C3777 C3776 1.387 . S
H3778 C3790 0.930 . S
H3779 C3792 0.930 . S
H3780 C3793 0.930 . S
H3781 C3797 0.959 . S
H3782 C3797 0.959 . S
H3783 C3797 0.961 . S
H3784 C3798 0.960 . S
H3785 C3798 0.961 . S
H3786 C3798 0.959 . S
H3787 C3801 0.929 . S
H3788 C3802 0.931 . S
H3789 C3804 0.930 . S
C3790 H3778 0.930 . S
C3790 C3791 1.399 1_565 S
C3790 C3795 1.399 . S
C3791 C3790 1.399 1_545 S
C3791 C3792 1.376 . S
C3792 H3779 0.930 . S
C3792 C3791 1.376 . S
C3792 C3793 1.388 . S
C3793 H3780 0.930 . S
C3793 C3792 1.388 . S
C3793 C3794 1.390 . S
C3794 C3793 1.390 . S
C3794 C3795 1.394 1_545 S
C3794 C3800 1.465 . S
C3795 C3790 1.399 . S
C3795 C3794 1.394 1_565 S
C3795 C3796 1.516 . S
C3796 C3795 1.516 . S
C3796 C3797 1.502 . S
C3796 C3798 1.561 . S
C3796 C3799 1.526 . S
C3797 H3781 0.959 . S
C3797 H3782 0.959 . S
C3797 H3783 0.961 . S
C3797 C3796 1.502 . S
C3798 H3784 0.960 . S
C3798 H3785 0.961 . S
C3798 H3786 0.959 . S
C3798 C3796 1.561 . S
C3799 C3796 1.526 . S
C3799 C3800 1.396 1_565 S
C3799 C3804 1.390 . S
C3800 C3794 1.465 . S
C3800 C3799 1.396 1_545 S
C3800 C3801 1.399 . S
C3801 H3787 0.929 . S
C3801 C3800 1.399 . S
C3801 C3802 1.385 . S
C3802 H3788 0.931 . S
C3802 C3801 1.385 . S
C3802 C3803 1.399 . S
C3803 C3802 1.399 . S
C3803 C3804 1.378 1_545 S
C3804 H3789 0.930 . S
C3804 C3799 1.390 . S
C3804 C3803 1.378 1_565 S
H3805 C3817 0.930 . S
H3806 C3819 0.930 . S
H3807 C3820 0.930 . S
H3808 C3824 0.959 . S
H3809 C3824 0.959 . S
H3810 C3824 0.961 . S
H3811 C3825 0.960 . S
H3812 C3825 0.961 . S
H3813 C3825 0.959 . S
H3814 C3828 0.929 . S
H3815 C3829 0.931 . S
H3816 C3831 0.930 . S
C3817 H3805 0.930 . S
C3817 C3818 1.399 . S
C3817 C3822 1.399 . S
C3818 C3817 1.399 . S
C3818 C3819 1.376 . S
C3819 H3806 0.930 . S
C3819 C3818 1.376 . S
C3819 C3820 1.388 . S
C3820 H3807 0.930 . S
C3820 C3819 1.388 . S
C3820 C3821 1.390 . S
C3821 C3820 1.390 . S
C3821 C3822 1.394 . S
C3821 C3827 1.465 . S
C3822 C3817 1.399 . S
C3822 C3821 1.394 . S
C3822 C3823 1.516 . S
C3823 C3822 1.516 . S
C3823 C3824 1.502 . S
C3823 C3825 1.561 . S
C3823 C3826 1.526 . S
C3824 H3808 0.959 . S
C3824 H3809 0.959 . S
C3824 H3810 0.961 . S
C3824 C3823 1.502 . S
C3825 H3811 0.960 . S
C3825 H3812 0.961 . S
C3825 H3813 0.959 . S
C3825 C3823 1.561 . S
C3826 C3823 1.526 . S
C3826 C3827 1.396 . S
C3826 C3831 1.390 . S
C3827 C3821 1.465 . S
C3827 C3826 1.396 . S
C3827 C3828 1.399 . S
C3828 H3814 0.929 . S
C3828 C3827 1.399 . S
C3828 C3829 1.385 . S
C3829 H3815 0.931 . S
C3829 C3828 1.385 . S
C3829 C3830 1.389 . S
C3830 C3829 1.389 . S
C3830 C3831 1.387 . S
C3831 H3816 0.930 . S
C3831 C3826 1.390 . S
C3831 C3830 1.387 . S
H3832 C3844 0.930 . S
H3833 C3846 0.930 . S
H3834 C3847 0.930 . S
H3835 C3851 0.959 . S
H3836 C3851 0.959 . S
H3837 C3851 0.961 . S
H3838 C3852 0.960 . S
H3839 C3852 0.961 . S
H3840 C3852 0.959 . S
H3841 C3855 0.929 . S
H3842 C3856 0.931 . S
H3843 C3858 0.930 . S
C3844 H3832 0.930 . S
C3844 C3845 1.399 1_556 S
C3844 C3849 1.399 . S
C3845 C3844 1.399 1_554 S
C3845 C3846 1.376 . S
C3846 H3833 0.930 . S
C3846 C3845 1.376 . S
C3846 C3847 1.388 . S
C3847 H3834 0.930 . S
C3847 C3846 1.388 . S
C3847 C3848 1.390 . S
C3848 C3847 1.390 . S
C3848 C3849 1.394 1_554 S
C3848 C3854 1.465 . S
C3849 C3844 1.399 . S
C3849 C3848 1.394 1_556 S
C3849 C3850 1.516 . S
C3850 C3849 1.516 . S
C3850 C3851 1.502 . S
C3850 C3852 1.561 . S
C3850 C3853 1.526 . S
C3851 H3835 0.959 . S
C3851 H3836 0.959 . S
C3851 H3837 0.961 . S
C3851 C3850 1.502 . S
C3852 H3838 0.960 . S
C3852 H3839 0.961 . S
C3852 H3840 0.959 . S
C3852 C3850 1.561 . S
C3853 C3850 1.526 . S
C3853 C3854 1.396 1_556 S
C3853 C3858 1.390 . S
C3854 C3848 1.465 . S
C3854 C3853 1.396 1_554 S
C3854 C3855 1.399 . S
C3855 H3841 0.929 . S
C3855 C3854 1.399 . S
C3855 C3856 1.385 . S
C3856 H3842 0.931 . S
C3856 C3855 1.385 . S
C3856 C3857 1.389 . S
C3857 C3856 1.389 . S
C3857 C3858 1.387 1_554 S
C3858 H3843 0.930 . S
C3858 C3853 1.390 . S
C3858 C3857 1.387 1_556 S
H3859 C3871 0.930 1_556 S
H3860 C3873 0.930 . S
H3861 C3874 0.930 . S
H3862 C3878 0.959 . S
H3863 C3878 0.959 . S
H3864 C3878 0.961 . S
H3865 C3879 0.960 . S
H3866 C3879 0.961 . S
H3867 C3879 0.959 . S
H3868 C3882 0.929 . S
H3869 C3883 0.931 . S
H3870 C3885 0.930 1_556 S
C3871 H3859 0.930 1_554 S
C3871 C3872 1.399 . S
C3871 C3876 1.399 . S
C3872 C3871 1.399 . S
C3872 C3873 1.376 . S
C3873 H3860 0.930 . S
C3873 C3872 1.376 . S
C3873 C3874 1.388 . S
C3874 H3861 0.930 . S
C3874 C3873 1.388 . S
C3874 C3875 1.390 . S
C3875 C3874 1.390 . S
C3875 C3876 1.394 . S
C3875 C3881 1.465 . S
C3876 C3871 1.399 . S
C3876 C3875 1.394 . S
C3876 C3877 1.516 1_554 S
C3877 C3876 1.516 1_556 S
C3877 C3878 1.502 . S
C3877 C3879 1.561 . S
C3877 C3880 1.526 1_556 S
C3878 H3862 0.959 . S
C3878 H3863 0.959 . S
C3878 H3864 0.961 . S
C3878 C3877 1.502 . S
C3879 H3865 0.960 . S
C3879 H3866 0.961 . S
C3879 H3867 0.959 . S
C3879 C3877 1.561 . S
C3880 C3877 1.526 1_554 S
C3880 C3881 1.396 . S
C3880 C3885 1.390 . S
C3881 C3875 1.465 . S
C3881 C3880 1.396 . S
C3881 C3882 1.399 . S
C3882 H3868 0.929 . S
C3882 C3881 1.399 . S
C3882 C3883 1.385 . S
C3883 H3869 0.931 . S
C3883 C3882 1.385 . S
C3883 C3884 1.389 . S
C3884 C3883 1.389 . S
C3884 C3885 1.387 . S
C3885 H3870 0.930 1_554 S
C3885 C3880 1.390 . S
C3885 C3884 1.387 . S
H3886 C3898 0.930 . S
H3887 C3900 0.930 . S
H3888 C3901 0.930 . S
H3889 C3905 0.959 . S
H3890 C3905 0.959 . S
H3891 C3905 0.961 . S
H3892 C3906 0.960 . S
H3893 C3906 0.961 . S
H3894 C3906 0.959 . S
H3895 C3909 0.929 . S
H3896 C3910 0.931 . S
H3897 C3912 0.930 . S
C3898 H3886 0.930 . S
C3898 C3899 1.399 . S
C3898 C3903 1.399 . S
C3899 C3898 1.399 . S
C3899 C3900 1.376 . S
C3900 H3887 0.930 . S
C3900 C3899 1.376 . S
C3900 C3901 1.388 . S
C3901 H3888 0.930 . S
C3901 C3900 1.388 . S
C3901 C3902 1.390 . S
C3902 C3901 1.390 . S
C3902 C3903 1.394 . S
C3902 C3908 1.465 . S
C3903 C3898 1.399 . S
C3903 C3902 1.394 . S
C3903 C3904 1.516 . S
C3904 C3903 1.516 . S
C3904 C3905 1.502 . S
C3904 C3906 1.561 . S
C3904 C3907 1.526 . S
C3905 H3889 0.959 . S
C3905 H3890 0.959 . S
C3905 H3891 0.961 . S
C3905 C3904 1.502 . S
C3906 H3892 0.960 . S
C3906 H3893 0.961 . S
C3906 H3894 0.959 . S
C3906 C3904 1.561 . S
C3907 C3904 1.526 . S
C3907 C3908 1.396 . S
C3907 C3912 1.390 . S
C3908 C3902 1.465 . S
C3908 C3907 1.396 . S
C3908 C3909 1.399 . S
C3909 H3895 0.929 . S
C3909 C3908 1.399 . S
C3909 C3910 1.385 . S
C3910 H3896 0.931 . S
C3910 C3909 1.385 . S
C3910 C3911 1.389 . S
C3911 C3910 1.389 . S
C3911 C3912 1.387 . S
C3912 H3897 0.930 . S
C3912 C3907 1.390 . S
C3912 C3911 1.387 . S
H3913 C3925 0.930 . S
H3914 C3927 0.930 . S
H3915 C3928 0.930 . S
H3916 C3932 0.959 . S
H3917 C3932 0.959 . S
H3918 C3932 0.961 . S
H3919 C3933 0.960 . S
H3920 C3933 0.961 . S
H3921 C3933 0.959 . S
H3922 C3936 0.929 . S
H3923 C3937 0.931 . S
H3924 C3939 0.930 . S
C3925 H3913 0.930 . S
C3925 C3926 1.399 . S
C3925 C3930 1.399 . S
C3926 C3925 1.399 . S
C3926 C3927 1.376 . S
C3927 H3914 0.930 . S
C3927 C3926 1.376 . S
C3927 C3928 1.388 . S
C3928 H3915 0.930 . S
C3928 C3927 1.388 . S
C3928 C3929 1.390 . S
C3929 C3928 1.390 . S
C3929 C3930 1.394 . S
C3929 C3935 1.465 . S
C3930 C3925 1.399 . S
C3930 C3929 1.394 . S
C3930 C3931 1.516 . S
C3931 C3930 1.516 . S
C3931 C3932 1.502 . S
C3931 C3933 1.561 . S
C3931 C3934 1.526 . S
C3932 H3916 0.959 . S
C3932 H3917 0.959 . S
C3932 H3918 0.961 . S
C3932 C3931 1.502 . S
C3933 H3919 0.960 . S
C3933 H3920 0.961 . S
C3933 H3921 0.959 . S
C3933 C3931 1.561 . S
C3934 C3931 1.526 . S
C3934 C3935 1.396 . S
C3934 C3939 1.390 . S
C3935 C3929 1.465 . S
C3935 C3934 1.396 . S
C3935 C3936 1.399 . S
C3936 H3922 0.929 . S
C3936 C3935 1.399 . S
C3936 C3937 1.385 . S
C3937 H3923 0.931 . S
C3937 C3936 1.385 . S
C3937 C3938 1.389 . S
C3938 C3937 1.389 . S
C3938 C3939 1.387 . S
C3939 H3924 0.930 . S
C3939 C3934 1.390 . S
C3939 C3938 1.387 . S
H3940 C3952 0.930 . S
H3941 C3954 0.930 . S
H3942 C3955 0.930 . S
H3943 C3959 0.959 . S
H3944 C3959 0.959 . S
H3945 C3959 0.961 . S
H3946 C3960 0.960 . S
H3947 C3960 0.961 . S
H3948 C3960 0.959 . S
H3949 C3963 0.929 . S
H3950 C3964 0.931 . S
H3951 C3966 0.930 . S
C3952 H3940 0.930 . S
C3952 C3953 1.399 . S
C3952 C3957 1.399 . S
C3953 C3952 1.399 . S
C3953 C3954 1.376 . S
C3954 H3941 0.930 . S
C3954 C3953 1.376 . S
C3954 C3955 1.388 . S
C3955 H3942 0.930 . S
C3955 C3954 1.388 . S
C3955 C3956 1.390 . S
C3956 C3955 1.390 . S
C3956 C3957 1.394 . S
C3956 C3962 1.465 . S
C3957 C3952 1.399 . S
C3957 C3956 1.394 . S
C3957 C3958 1.516 . S
C3958 C3957 1.516 . S
C3958 C3959 1.502 . S
C3958 C3960 1.561 . S
C3958 C3961 1.526 . S
C3959 H3943 0.959 . S
C3959 H3944 0.959 . S
C3959 H3945 0.961 . S
C3959 C3958 1.502 . S
C3960 H3946 0.960 . S
C3960 H3947 0.961 . S
C3960 H3948 0.959 . S
C3960 C3958 1.561 . S
C3961 C3958 1.526 . S
C3961 C3962 1.396 . S
C3961 C3966 1.390 . S
C3962 C3956 1.465 . S
C3962 C3961 1.396 . S
C3962 C3963 1.399 . S
C3963 H3949 0.929 . S
C3963 C3962 1.399 . S
C3963 C3964 1.385 . S
C3964 H3950 0.931 . S
C3964 C3963 1.385 . S
C3964 C3965 1.389 . S
C3965 C3964 1.389 . S
C3965 C3966 1.387 . S
C3966 H3951 0.930 . S
C3966 C3961 1.390 . S
C3966 C3965 1.387 . S
H3967 C3979 0.930 . S
H3968 C3981 0.930 . S
H3969 C3982 0.930 . S
H3970 C3986 0.959 . S
H3971 C3986 0.959 . S
H3972 C3986 0.961 . S
H3973 C3987 0.960 . S
H3974 C3987 0.961 . S
H3975 C3987 0.959 . S
H3976 C3990 0.929 . S
H3977 C3991 0.931 . S
H3978 C3993 0.930 . S
C3979 H3967 0.930 . S
C3979 C3980 1.399 . S
C3979 C3984 1.399 . S
C3980 C3979 1.399 . S
C3980 C3981 1.376 . S
C3981 H3968 0.930 . S
C3981 C3980 1.376 . S
C3981 C3982 1.388 . S
C3982 H3969 0.930 . S
C3982 C3981 1.388 . S
C3982 C3983 1.390 . S
C3983 C3982 1.390 . S
C3983 C3984 1.394 . S
C3983 C3989 1.465 . S
C3984 C3979 1.399 . S
C3984 C3983 1.394 . S
C3984 C3985 1.516 . S
C3985 C3984 1.516 . S
C3985 C3986 1.502 . S
C3985 C3987 1.561 . S
C3985 C3988 1.526 . S
C3986 H3970 0.959 . S
C3986 H3971 0.959 . S
C3986 H3972 0.961 . S
C3986 C3985 1.502 . S
C3987 H3973 0.960 . S
C3987 H3974 0.961 . S
C3987 H3975 0.959 . S
C3987 C3985 1.561 . S
C3988 C3985 1.526 . S
C3988 C3989 1.396 . S
C3988 C3993 1.390 . S
C3989 C3983 1.465 . S
C3989 C3988 1.396 . S
C3989 C3990 1.399 . S
C3990 H3976 0.929 . S
C3990 C3989 1.399 . S
C3990 C3991 1.385 . S
C3991 H3977 0.931 . S
C3991 C3990 1.385 . S
C3991 C3992 1.389 . S
C3992 C3991 1.389 . S
C3992 C3993 1.387 . S
C3993 H3978 0.930 . S
C3993 C3988 1.390 . S
C3993 C3992 1.387 . S
H3994 C4006 0.930 . S
H3995 C4008 0.930 . S
H3996 C4009 0.930 . S
H3997 C4013 0.959 . S
H3998 C4013 0.959 . S
H3999 C4013 0.961 . S
H4000 C4014 0.960 . S
H4001 C4014 0.961 . S
H4002 C4014 0.959 . S
H4003 C4017 0.929 . S
H4004 C4018 0.931 . S
H4005 C4020 0.930 . S
C4006 H3994 0.930 . S
C4006 C4007 1.399 . S
C4006 C4011 1.399 . S
C4007 C4006 1.399 . S
C4007 C4008 1.376 . S
C4008 H3995 0.930 . S
C4008 C4007 1.376 . S
C4008 C4009 1.388 . S
C4009 H3996 0.930 . S
C4009 C4008 1.388 . S
C4009 C4010 1.390 . S
C4010 C4009 1.390 . S
C4010 C4011 1.394 . S
C4010 C4016 1.465 . S
C4011 C4006 1.399 . S
C4011 C4010 1.394 . S
C4011 C4012 1.516 . S
C4012 C4011 1.516 . S
C4012 C4013 1.502 . S
C4012 C4014 1.561 . S
C4012 C4015 1.526 . S
C4013 H3997 0.959 . S
C4013 H3998 0.959 . S
C4013 H3999 0.961 . S
C4013 C4012 1.502 . S
C4014 H4000 0.960 . S
C4014 H4001 0.961 . S
C4014 H4002 0.959 . S
C4014 C4012 1.561 . S
C4015 C4012 1.526 . S
C4015 C4016 1.396 . S
C4015 C4020 1.390 . S
C4016 C4010 1.465 . S
C4016 C4015 1.396 . S
C4016 C4017 1.399 . S
C4017 H4003 0.929 . S
C4017 C4016 1.399 . S
C4017 C4018 1.385 . S
C4018 H4004 0.931 . S
C4018 C4017 1.385 . S
C4018 C4019 1.389 . S
C4019 C4018 1.389 . S
C4019 C4020 1.387 . S
C4020 H4005 0.930 . S
C4020 C4015 1.390 . S
C4020 C4019 1.387 . S
H4021 C4033 0.930 . S
H4022 C4035 0.930 . S
H4023 C4036 0.930 . S
H4024 C4040 0.959 . S
H4025 C4040 0.959 . S
H4026 C4040 0.961 . S
H4027 C4041 0.960 . S
H4028 C4041 0.961 . S
H4029 C4041 0.959 . S
H4030 C4044 0.929 . S
H4031 C4045 0.931 . S
H4032 C4047 0.930 . S
C4033 H4021 0.930 . S
C4033 C4034 1.399 . S
C4033 C4038 1.399 . S
C4034 C4033 1.399 . S
C4034 C4035 1.376 . S
C4035 H4022 0.930 . S
C4035 C4034 1.376 . S
C4035 C4036 1.388 . S
C4036 H4023 0.930 . S
C4036 C4035 1.388 . S
C4036 C4037 1.390 . S
C4037 C4036 1.390 . S
C4037 C4038 1.394 . S
C4037 C4043 1.465 . S
C4038 C4033 1.399 . S
C4038 C4037 1.394 . S
C4038 C4039 1.516 . S
C4039 C4038 1.516 . S
C4039 C4040 1.502 . S
C4039 C4041 1.561 . S
C4039 C4042 1.526 . S
C4040 H4024 0.959 . S
C4040 H4025 0.959 . S
C4040 H4026 0.961 . S
C4040 C4039 1.502 . S
C4041 H4027 0.960 . S
C4041 H4028 0.961 . S
C4041 H4029 0.959 . S
C4041 C4039 1.561 . S
C4042 C4039 1.526 . S
C4042 C4043 1.396 . S
C4042 C4047 1.390 . S
C4043 C4037 1.465 . S
C4043 C4042 1.396 . S
C4043 C4044 1.399 . S
C4044 H4030 0.929 . S
C4044 C4043 1.399 . S
C4044 C4045 1.385 . S
C4045 H4031 0.931 . S
C4045 C4044 1.385 . S
C4045 C4046 1.389 . S
C4046 C4045 1.389 . S
C4046 C4047 1.387 . S
C4047 H4032 0.930 . S
C4047 C4042 1.390 . S
C4047 C4046 1.387 . S
H4048 C4060 0.930 . S
H4049 C4062 0.930 . S
H4050 C4063 0.930 . S
H4051 C4067 0.959 . S
H4052 C4067 0.959 . S
H4053 C4067 0.961 . S
H4054 C4068 0.960 . S
H4055 C4068 0.961 . S
H4056 C4068 0.959 . S
H4057 C4071 0.929 . S
H4058 C4072 0.931 . S
H4059 C4074 0.930 . S
C4060 H4048 0.930 . S
C4060 C4061 1.399 . S
C4060 C4065 1.399 . S
C4061 C4060 1.399 . S
C4061 C4062 1.376 . S
C4062 H4049 0.930 . S
C4062 C4061 1.376 . S
C4062 C4063 1.388 . S
C4063 H4050 0.930 . S
C4063 C4062 1.388 . S
C4063 C4064 1.390 . S
C4064 C4063 1.390 . S
C4064 C4065 1.394 . S
C4064 C4070 1.465 . S
C4065 C4060 1.399 . S
C4065 C4064 1.394 . S
C4065 C4066 1.516 . S
C4066 C4065 1.516 . S
C4066 C4067 1.502 . S
C4066 C4068 1.561 . S
C4066 C4069 1.526 . S
C4067 H4051 0.959 . S
C4067 H4052 0.959 . S
C4067 H4053 0.961 . S
C4067 C4066 1.502 . S
C4068 H4054 0.960 . S
C4068 H4055 0.961 . S
C4068 H4056 0.959 . S
C4068 C4066 1.561 . S
C4069 C4066 1.526 . S
C4069 C4070 1.396 . S
C4069 C4074 1.390 . S
C4070 C4064 1.465 . S
C4070 C4069 1.396 . S
C4070 C4071 1.399 . S
C4071 H4057 0.929 . S
C4071 C4070 1.399 . S
C4071 C4072 1.385 . S
C4072 H4058 0.931 . S
C4072 C4071 1.385 . S
C4072 C4073 1.389 . S
C4073 C4072 1.389 . S
C4073 C4074 1.387 . S
C4074 H4059 0.930 . S
C4074 C4069 1.390 . S
C4074 C4073 1.387 . S
H4075 C4087 0.930 . S
H4076 C4089 0.930 . S
H4077 C4090 0.930 . S
H4078 C4094 0.959 . S
H4079 C4094 0.959 . S
H4080 C4094 0.961 . S
H4081 C4095 0.960 . S
H4082 C4095 0.961 . S
H4083 C4095 0.959 . S
H4084 C4098 0.929 . S
H4085 C4099 0.931 . S
H4086 C4101 0.930 . S
C4087 H4075 0.930 . S
C4087 C4088 1.399 . S
C4087 C4092 1.399 . S
C4088 C4087 1.399 . S
C4088 C4089 1.376 . S
C4089 H4076 0.930 . S
C4089 C4088 1.376 . S
C4089 C4090 1.388 . S
C4090 H4077 0.930 . S
C4090 C4089 1.388 . S
C4090 C4091 1.390 . S
C4091 C4090 1.390 . S
C4091 C4092 1.394 . S
C4091 C4097 1.465 . S
C4092 C4087 1.399 . S
C4092 C4091 1.394 . S
C4092 C4093 1.516 . S
C4093 C4092 1.516 . S
C4093 C4094 1.502 . S
C4093 C4095 1.561 . S
C4093 C4096 1.526 . S
C4094 H4078 0.959 . S
C4094 H4079 0.959 . S
C4094 H4080 0.961 . S
C4094 C4093 1.502 . S
C4095 H4081 0.960 . S
C4095 H4082 0.961 . S
C4095 H4083 0.959 . S
C4095 C4093 1.561 . S
C4096 C4093 1.526 . S
C4096 C4097 1.396 . S
C4096 C4101 1.390 . S
C4097 C4091 1.465 . S
C4097 C4096 1.396 . S
C4097 C4098 1.399 . S
C4098 H4084 0.929 . S
C4098 C4097 1.399 . S
C4098 C4099 1.385 . S
C4099 H4085 0.931 . S
C4099 C4098 1.385 . S
C4099 C4100 1.389 . S
C4100 C4099 1.389 . S
C4100 C4101 1.387 . S
C4101 H4086 0.930 . S
C4101 C4096 1.390 . S
C4101 C4100 1.387 . S
H4102 C4114 0.930 . S
H4103 C4116 0.930 . S
H4104 C4117 0.930 . S
H4105 C4121 0.959 . S
H4106 C4121 0.959 1_554 S
H4107 C4121 0.961 . S
H4108 C4122 0.960 . S
H4109 C4122 0.961 . S
H4110 C4122 0.959 . S
H4111 C4125 0.929 . S
H4112 C4126 0.931 . S
H4113 C4128 0.930 . S
C4114 H4102 0.930 . S
C4114 C4115 1.399 . S
C4114 C4119 1.399 . S
C4115 C4114 1.399 . S
C4115 C4116 1.376 . S
C4116 H4103 0.930 . S
C4116 C4115 1.376 . S
C4116 C4117 1.388 . S
C4117 H4104 0.930 . S
C4117 C4116 1.388 . S
C4117 C4118 1.390 . S
C4118 C4117 1.390 . S
C4118 C4119 1.394 . S
C4118 C4124 1.465 . S
C4119 C4114 1.399 . S
C4119 C4118 1.394 . S
C4119 C4120 1.516 . S
C4120 C4119 1.516 . S
C4120 C4121 1.502 1_455 S
C4120 C4122 1.561 1_556 S
C4120 C4123 1.526 . S
C4121 H4105 0.959 . S
C4121 H4106 0.959 1_556 S
C4121 H4107 0.961 . S
C4121 C4120 1.502 1_655 S
C4122 H4108 0.960 . S
C4122 H4109 0.961 . S
C4122 H4110 0.959 . S
C4122 C4120 1.561 1_554 S
C4123 C4120 1.526 . S
C4123 C4124 1.396 . S
C4123 C4128 1.390 1_556 S
C4124 C4118 1.465 . S
C4124 C4123 1.396 . S
C4124 C4125 1.399 . S
C4125 H4111 0.929 . S
C4125 C4124 1.399 . S
C4125 C4126 1.385 . S
C4126 H4112 0.931 . S
C4126 C4125 1.385 . S
C4126 C4127 1.389 . S
C4127 C4126 1.389 . S
C4127 C4128 1.387 1_556 S
C4128 H4113 0.930 . S
C4128 C4123 1.390 1_554 S
C4128 C4127 1.387 1_554 S
H4129 C4141 0.930 . S
H4130 C4143 0.930 . S
H4131 C4144 0.930 . S
H4132 C4148 0.959 . S
H4133 C4148 0.959 . S
H4134 C4148 0.961 . S
H4135 C4149 0.960 . S
H4136 C4149 0.961 . S
H4137 C4149 0.959 . S
H4138 C4152 0.929 . S
H4139 C4153 0.931 . S
H4140 C4155 0.930 . S
C4141 H4129 0.930 . S
C4141 C4142 1.399 . S
C4141 C4146 1.399 . S
C4142 C4141 1.399 . S
C4142 C4143 1.376 . S
C4143 H4130 0.930 . S
C4143 C4142 1.376 . S
C4143 C4144 1.388 . S
C4144 H4131 0.930 . S
C4144 C4143 1.388 . S
C4144 C4145 1.390 . S
C4145 C4144 1.390 . S
C4145 C4146 1.394 . S
C4145 C4151 1.465 . S
C4146 C4141 1.399 . S
C4146 C4145 1.394 . S
C4146 C4147 1.516 . S
C4147 C4146 1.516 . S
C4147 C4148 1.502 . S
C4147 C4149 1.561 . S
C4147 C4150 1.526 . S
C4148 H4132 0.959 . S
C4148 H4133 0.959 . S
C4148 H4134 0.961 . S
C4148 C4147 1.502 . S
C4149 H4135 0.960 . S
C4149 H4136 0.961 . S
C4149 H4137 0.959 . S
C4149 C4147 1.561 . S
C4150 C4147 1.526 . S
C4150 C4151 1.396 . S
C4150 C4155 1.390 . S
C4151 C4145 1.465 . S
C4151 C4150 1.396 . S
C4151 C4152 1.399 . S
C4152 H4138 0.929 . S
C4152 C4151 1.399 . S
C4152 C4153 1.385 . S
C4153 H4139 0.931 . S
C4153 C4152 1.385 . S
C4153 C4154 1.389 . S
C4154 C4153 1.389 . S
C4154 C4155 1.387 . S
C4155 H4140 0.930 . S
C4155 C4150 1.390 . S
C4155 C4154 1.387 . S
H4156 C4168 0.930 . S
H4157 C4170 0.930 . S
H4158 C4171 0.930 . S
H4159 C4175 0.959 . S
H4160 C4175 0.959 . S
H4161 C4175 0.961 . S
H4162 C4176 0.960 . S
H4163 C4176 0.961 . S
H4164 C4176 0.959 . S
H4165 C4179 0.929 . S
H4166 C4180 0.931 . S
H4167 C4182 0.930 . S
C4168 H4156 0.930 . S
C4168 C4169 1.399 . S
C4168 C4173 1.399 . S
C4169 C4168 1.399 . S
C4169 C4170 1.376 . S
C4170 H4157 0.930 . S
C4170 C4169 1.376 . S
C4170 C4171 1.388 . S
C4171 H4158 0.930 . S
C4171 C4170 1.388 . S
C4171 C4172 1.390 . S
C4172 C4171 1.390 . S
C4172 C4173 1.394 . S
C4172 C4178 1.465 . S
C4173 C4168 1.399 . S
C4173 C4172 1.394 . S
C4173 C4174 1.516 . S
C4174 C4173 1.516 . S
C4174 C4175 1.502 . S
C4174 C4176 1.561 . S
C4174 C4177 1.526 . S
C4175 H4159 0.959 . S
C4175 H4160 0.959 . S
C4175 H4161 0.961 . S
C4175 C4174 1.502 . S
C4176 H4162 0.960 . S
C4176 H4163 0.961 . S
C4176 H4164 0.959 . S
C4176 C4174 1.561 . S
C4177 C4174 1.526 . S
C4177 C4178 1.396 . S
C4177 C4182 1.390 . S
C4178 C4172 1.465 . S
C4178 C4177 1.396 . S
C4178 C4179 1.399 . S
C4179 H4165 0.929 . S
C4179 C4178 1.399 . S
C4179 C4180 1.385 . S
C4180 H4166 0.931 . S
C4180 C4179 1.385 . S
C4180 C4181 1.389 . S
C4181 C4180 1.389 . S
C4181 C4182 1.387 . S
C4182 H4167 0.930 . S
C4182 C4177 1.390 . S
C4182 C4181 1.387 . S
H4183 C4195 0.930 . S
H4184 C4197 0.930 1_455 S
H4185 C4198 0.930 . S
H4186 C4202 0.959 . S
H4187 C4202 0.959 . S
H4188 C4202 0.961 . S
H4189 C4203 0.960 . S
H4190 C4203 0.961 . S
H4191 C4203 0.959 . S
H4192 C4206 0.929 . S
H4193 C4207 0.931 . S
H4194 C4209 0.930 . S
C4195 H4183 0.930 . S
C4195 C4196 1.399 . S
C4195 C4200 1.399 . S
C4196 C4195 1.399 . S
C4196 C4197 1.376 . S
C4197 H4184 0.930 1_655 S
C4197 C4196 1.376 . S
C4197 C4198 1.388 . S
C4198 H4185 0.930 . S
C4198 C4197 1.388 . S
C4198 C4199 1.390 . S
C4199 C4198 1.390 . S
C4199 C4200 1.394 . S
C4199 C4205 1.465 . S
C4200 C4195 1.399 . S
C4200 C4199 1.394 . S
C4200 C4201 1.516 . S
C4201 C4200 1.516 . S
C4201 C4202 1.502 . S
C4201 C4203 1.561 . S
C4201 C4204 1.526 . S
C4202 H4186 0.959 . S
C4202 H4187 0.959 . S
C4202 H4188 0.961 . S
C4202 C4201 1.502 . S
C4203 H4189 0.960 . S
C4203 H4190 0.961 . S
C4203 H4191 0.959 . S
C4203 C4201 1.561 . S
C4204 C4201 1.526 . S
C4204 C4205 1.396 . S
C4204 C4209 1.390 . S
C4205 C4199 1.465 . S
C4205 C4204 1.396 . S
C4205 C4206 1.399 . S
C4206 H4192 0.929 . S
C4206 C4205 1.399 . S
C4206 C4207 1.385 . S
C4207 H4193 0.931 . S
C4207 C4206 1.385 . S
C4207 C4208 1.389 . S
C4208 C4207 1.389 . S
C4208 C4209 1.387 . S
C4209 H4194 0.930 . S
C4209 C4204 1.390 . S
C4209 C4208 1.387 . S
H4210 C4222 0.930 . S
H4211 C4224 0.930 . S
H4212 C4225 0.930 . S
H4213 C4229 0.959 . S
H4214 C4229 0.959 . S
H4215 C4229 0.961 . S
H4216 C4230 0.960 . S
H4217 C4230 0.961 . S
H4218 C4230 0.959 . S
H4219 C4233 0.929 . S
H4220 C4234 0.931 . S
H4221 C4236 0.930 . S
C4222 H4210 0.930 . S
C4222 C4223 1.399 . S
C4222 C4227 1.399 . S
C4223 C4222 1.399 . S
C4223 C4224 1.376 1_655 S
C4224 H4211 0.930 . S
C4224 C4223 1.376 1_455 S
C4224 C4225 1.388 . S
C4225 H4212 0.930 . S
C4225 C4224 1.388 . S
C4225 C4226 1.390 . S
C4226 C4225 1.390 . S
C4226 C4227 1.394 1_455 S
C4226 C4232 1.465 . S
C4227 C4222 1.399 . S
C4227 C4226 1.394 1_655 S
C4227 C4228 1.516 . S
C4228 C4227 1.516 . S
C4228 C4229 1.502 . S
C4228 C4230 1.561 . S
C4228 C4231 1.526 1_655 S
C4229 H4213 0.959 . S
C4229 H4214 0.959 . S
C4229 H4215 0.961 . S
C4229 C4228 1.502 . S
C4230 H4216 0.960 . S
C4230 H4217 0.961 . S
C4230 H4218 0.959 . S
C4230 C4228 1.561 . S
C4231 C4228 1.526 1_455 S
C4231 C4232 1.396 . S
C4231 C4236 1.390 . S
C4232 C4226 1.465 . S
C4232 C4231 1.396 . S
C4232 C4233 1.399 . S
C4233 H4219 0.929 . S
C4233 C4232 1.399 . S
C4233 C4234 1.385 . S
C4234 H4220 0.931 . S
C4234 C4233 1.385 . S
C4234 C4235 1.389 . S
C4235 C4234 1.389 . S
C4235 C4236 1.387 . S
C4236 H4221 0.930 . S
C4236 C4231 1.390 . S
C4236 C4235 1.387 . S
H4237 C4249 0.930 . S
H4238 C4251 0.930 . S
H4239 C4252 0.930 . S
H4240 C4256 0.959 . S
H4241 C4256 0.959 . S
H4242 C4256 0.961 . S
H4243 C4257 0.960 . S
H4244 C4257 0.961 . S
H4245 C4257 0.959 . S
H4246 C4260 0.929 . S
H4247 C4261 0.931 . S
H4248 C4263 0.930 . S
C4249 H4237 0.930 . S
C4249 C4250 1.399 . S
C4249 C4254 1.399 . S
C4250 C4249 1.399 . S
C4250 C4251 1.376 . S
C4251 H4238 0.930 . S
C4251 C4250 1.376 . S
C4251 C4252 1.388 . S
C4252 H4239 0.930 . S
C4252 C4251 1.388 . S
C4252 C4253 1.390 . S
C4253 C4252 1.390 . S
C4253 C4254 1.394 . S
C4253 C4259 1.465 . S
C4254 C4249 1.399 . S
C4254 C4253 1.394 . S
C4254 C4255 1.516 . S
C4255 C4254 1.516 . S
C4255 C4256 1.502 . S
C4255 C4257 1.561 . S
C4255 C4258 1.526 . S
C4256 H4240 0.959 . S
C4256 H4241 0.959 . S
C4256 H4242 0.961 . S
C4256 C4255 1.502 . S
C4257 H4243 0.960 . S
C4257 H4244 0.961 . S
C4257 H4245 0.959 . S
C4257 C4255 1.561 . S
C4258 C4255 1.526 . S
C4258 C4259 1.396 . S
C4258 C4263 1.390 . S
C4259 C4253 1.465 . S
C4259 C4258 1.396 . S
C4259 C4260 1.399 . S
C4260 H4246 0.929 . S
C4260 C4259 1.399 . S
C4260 C4261 1.385 . S
C4261 H4247 0.931 . S
C4261 C4260 1.385 . S
C4261 C4262 1.389 . S
C4262 C4261 1.389 . S
C4262 C4263 1.387 . S
C4263 H4248 0.930 . S
C4263 C4258 1.390 . S
C4263 C4262 1.387 . S
H4264 C4276 0.930 . S
H4265 C4278 0.930 . S
H4266 C4279 0.930 . S
H4267 C4283 0.959 . S
H4268 C4283 0.959 . S
H4269 C4283 0.961 . S
H4270 C4284 0.960 . S
H4271 C4284 0.961 . S
H4272 C4284 0.959 . S
H4273 C4287 0.929 . S
H4274 C4288 0.931 . S
H4275 C4290 0.930 . S
C4276 H4264 0.930 . S
C4276 C4277 1.399 . S
C4276 C4281 1.399 . S
C4277 C4276 1.399 . S
C4277 C4278 1.376 . S
C4278 H4265 0.930 . S
C4278 C4277 1.376 . S
C4278 C4279 1.388 . S
C4279 H4266 0.930 . S
C4279 C4278 1.388 . S
C4279 C4280 1.390 . S
C4280 C4279 1.390 . S
C4280 C4281 1.394 . S
C4280 C4286 1.465 . S
C4281 C4276 1.399 . S
C4281 C4280 1.394 . S
C4281 C4282 1.516 . S
C4282 C4281 1.516 . S
C4282 C4283 1.502 . S
C4282 C4284 1.561 . S
C4282 C4285 1.526 . S
C4283 H4267 0.959 . S
C4283 H4268 0.959 . S
C4283 H4269 0.961 . S
C4283 C4282 1.502 . S
C4284 H4270 0.960 . S
C4284 H4271 0.961 . S
C4284 H4272 0.959 . S
C4284 C4282 1.561 . S
C4285 C4282 1.526 . S
C4285 C4286 1.396 . S
C4285 C4290 1.390 . S
C4286 C4280 1.465 . S
C4286 C4285 1.396 . S
C4286 C4287 1.399 . S
C4287 H4273 0.929 . S
C4287 C4286 1.399 . S
C4287 C4288 1.385 . S
C4288 H4274 0.931 . S
C4288 C4287 1.385 . S
C4288 C4289 1.389 . S
C4289 C4288 1.389 . S
C4289 C4290 1.387 . S
C4290 H4275 0.930 . S
C4290 C4285 1.390 . S
C4290 C4289 1.387 . S
H4291 C4303 0.930 . S
H4292 C4305 0.930 . S
H4293 C4306 0.930 . S
H4294 C4310 0.959 . S
H4295 C4310 0.959 . S
H4296 C4310 0.961 . S
H4297 C4311 0.960 . S
H4298 C4311 0.961 . S
H4299 C4311 0.959 . S
H4300 C4314 0.929 . S
H4301 C4315 0.931 . S
H4302 C4317 0.930 . S
C4303 H4291 0.930 . S
C4303 C4304 1.399 . S
C4303 C4308 1.399 . S
C4304 C4303 1.399 . S
C4304 C4305 1.376 . S
C4305 H4292 0.930 . S
C4305 C4304 1.376 . S
C4305 C4306 1.388 . S
C4306 H4293 0.930 . S
C4306 C4305 1.388 . S
C4306 C4307 1.390 . S
C4307 C4306 1.390 . S
C4307 C4308 1.394 . S
C4307 C4313 1.465 . S
C4308 C4303 1.399 . S
C4308 C4307 1.394 . S
C4308 C4309 1.516 . S
C4309 C4308 1.516 . S
C4309 C4310 1.502 . S
C4309 C4311 1.561 . S
C4309 C4312 1.526 . S
C4310 H4294 0.959 . S
C4310 H4295 0.959 . S
C4310 H4296 0.961 . S
C4310 C4309 1.502 . S
C4311 H4297 0.960 . S
C4311 H4298 0.961 . S
C4311 H4299 0.959 . S
C4311 C4309 1.561 . S
C4312 C4309 1.526 . S
C4312 C4313 1.396 . S
C4312 C4317 1.390 . S
C4313 C4307 1.465 . S
C4313 C4312 1.396 . S
C4313 C4314 1.399 . S
C4314 H4300 0.929 . S
C4314 C4313 1.399 . S
C4314 C4315 1.385 . S
C4315 H4301 0.931 . S
C4315 C4314 1.385 . S
C4315 C4316 1.389 . S
C4316 C4315 1.389 . S
C4316 C4317 1.387 . S
C4317 H4302 0.930 . S
C4317 C4312 1.390 . S
C4317 C4316 1.387 . S
H4318 C4330 0.930 . S
H4319 C4332 0.930 . S
H4320 C4333 0.930 . S
H4321 C4337 0.959 . S
H4322 C4337 0.959 . S
H4323 C4337 0.961 . S
H4324 C4338 0.960 . S
H4325 C4338 0.961 . S
H4326 C4338 0.959 . S
H4327 C4341 0.929 . S
H4328 C4342 0.931 . S
H4329 C4344 0.930 . S
C4330 H4318 0.930 . S
C4330 C4331 1.399 . S
C4330 C4335 1.399 . S
C4331 C4330 1.399 . S
C4331 C4332 1.376 . S
C4332 H4319 0.930 . S
C4332 C4331 1.376 . S
C4332 C4333 1.388 . S
C4333 H4320 0.930 . S
C4333 C4332 1.388 . S
C4333 C4334 1.390 . S
C4334 C4333 1.390 . S
C4334 C4335 1.394 . S
C4334 C4340 1.465 . S
C4335 C4330 1.399 . S
C4335 C4334 1.394 . S
C4335 C4336 1.516 . S
C4336 C4335 1.516 . S
C4336 C4337 1.502 . S
C4336 C4338 1.561 . S
C4336 C4339 1.526 . S
C4337 H4321 0.959 . S
C4337 H4322 0.959 . S
C4337 H4323 0.961 . S
C4337 C4336 1.502 . S
C4338 H4324 0.960 . S
C4338 H4325 0.961 . S
C4338 H4326 0.959 . S
C4338 C4336 1.561 . S
C4339 C4336 1.526 . S
C4339 C4340 1.396 . S
C4339 C4344 1.390 . S
C4340 C4334 1.465 . S
C4340 C4339 1.396 . S
C4340 C4341 1.399 . S
C4341 H4327 0.929 . S
C4341 C4340 1.399 . S
C4341 C4342 1.385 . S
C4342 H4328 0.931 . S
C4342 C4341 1.385 . S
C4342 C4343 1.389 . S
C4343 C4342 1.389 . S
C4343 C4344 1.387 . S
C4344 H4329 0.930 . S
C4344 C4339 1.390 . S
C4344 C4343 1.387 . S
H4345 C4357 0.930 . S
H4346 C4359 0.930 . S
H4347 C4360 0.930 . S
H4348 C4364 0.959 . S
H4349 C4364 0.959 . S
H4350 C4364 0.961 . S
H4351 C4365 0.960 . S
H4352 C4365 0.961 . S
H4353 C4365 0.959 . S
H4354 C4368 0.929 . S
H4355 C4369 0.931 . S
H4356 C4371 0.930 . S
C4357 H4345 0.930 . S
C4357 C4358 1.399 . S
C4357 C4362 1.399 . S
C4358 C4357 1.399 . S
C4358 C4359 1.376 . S
C4359 H4346 0.930 . S
C4359 C4358 1.376 . S
C4359 C4360 1.388 . S
C4360 H4347 0.930 . S
C4360 C4359 1.388 . S
C4360 C4361 1.390 . S
C4361 C4360 1.390 . S
C4361 C4362 1.394 . S
C4361 C4367 1.465 . S
C4362 C4357 1.399 . S
C4362 C4361 1.394 . S
C4362 C4363 1.516 . S
C4363 C4362 1.516 . S
C4363 C4364 1.502 . S
C4363 C4365 1.561 . S
C4363 C4366 1.526 . S
C4364 H4348 0.959 . S
C4364 H4349 0.959 . S
C4364 H4350 0.961 . S
C4364 C4363 1.502 . S
C4365 H4351 0.960 . S
C4365 H4352 0.961 . S
C4365 H4353 0.959 . S
C4365 C4363 1.561 . S
C4366 C4363 1.526 . S
C4366 C4367 1.396 . S
C4366 C4371 1.390 . S
C4367 C4361 1.465 . S
C4367 C4366 1.396 . S
C4367 C4368 1.399 . S
C4368 H4354 0.929 . S
C4368 C4367 1.399 . S
C4368 C4369 1.385 . S
C4369 H4355 0.931 . S
C4369 C4368 1.385 . S
C4369 C4370 1.389 . S
C4370 C4369 1.389 . S
C4370 C4371 1.387 . S
C4371 H4356 0.930 . S
C4371 C4366 1.390 . S
C4371 C4370 1.387 . S
H4372 C4384 0.930 . S
H4373 C4386 0.930 . S
H4374 C4387 0.930 . S
H4375 C4391 0.959 . S
H4376 C4391 0.959 . S
H4377 C4391 0.961 . S
H4378 C4392 0.960 . S
H4379 C4392 0.961 . S
H4380 C4392 0.959 . S
H4381 C4395 0.929 . S
H4382 C4396 0.931 . S
H4383 C4398 0.930 . S
C4384 H4372 0.930 . S
C4384 C4385 1.399 . S
C4384 C4389 1.399 . S
C4385 C4384 1.399 . S
C4385 C4386 1.376 . S
C4386 H4373 0.930 . S
C4386 C4385 1.376 . S
C4386 C4387 1.388 . S
C4387 H4374 0.930 . S
C4387 C4386 1.388 . S
C4387 C4388 1.390 . S
C4388 C4387 1.390 . S
C4388 C4389 1.394 . S
C4388 C4394 1.465 . S
C4389 C4384 1.399 . S
C4389 C4388 1.394 . S
C4389 C4390 1.516 . S
C4390 C4389 1.516 . S
C4390 C4391 1.502 . S
C4390 C4392 1.561 . S
C4390 C4393 1.526 . S
C4391 H4375 0.959 . S
C4391 H4376 0.959 . S
C4391 H4377 0.961 . S
C4391 C4390 1.502 . S
C4392 H4378 0.960 . S
C4392 H4379 0.961 . S
C4392 H4380 0.959 . S
C4392 C4390 1.561 . S
C4393 C4390 1.526 . S
C4393 C4394 1.396 . S
C4393 C4398 1.390 . S
C4394 C4388 1.465 . S
C4394 C4393 1.396 . S
C4394 C4395 1.399 . S
C4395 H4381 0.929 . S
C4395 C4394 1.399 . S
C4395 C4396 1.385 . S
C4396 H4382 0.931 . S
C4396 C4395 1.385 . S
C4396 C4397 1.389 . S
C4397 C4396 1.389 . S
C4397 C4398 1.387 . S
C4398 H4383 0.930 . S
C4398 C4393 1.390 . S
C4398 C4397 1.387 . S
H4399 C4411 0.930 . S
H4400 C4413 0.930 . S
H4401 C4414 0.930 . S
H4402 C4418 0.959 . S
H4403 C4418 0.959 . S
H4404 C4418 0.961 . S
H4405 C4419 0.960 . S
H4406 C4419 0.961 . S
H4407 C4419 0.959 . S
H4408 C4422 0.929 . S
H4409 C4423 0.931 . S
H4410 C4425 0.930 . S
C4411 H4399 0.930 . S
C4411 C4412 1.399 . S
C4411 C4416 1.399 . S
C4412 C4411 1.399 . S
C4412 C4413 1.376 . S
C4413 H4400 0.930 . S
C4413 C4412 1.376 . S
C4413 C4414 1.388 . S
C4414 H4401 0.930 . S
C4414 C4413 1.388 . S
C4414 C4415 1.390 . S
C4415 C4414 1.390 . S
C4415 C4416 1.394 . S
C4415 C4421 1.465 . S
C4416 C4411 1.399 . S
C4416 C4415 1.394 . S
C4416 C4417 1.516 . S
C4417 C4416 1.516 . S
C4417 C4418 1.502 . S
C4417 C4419 1.561 . S
C4417 C4420 1.526 . S
C4418 H4402 0.959 . S
C4418 H4403 0.959 . S
C4418 H4404 0.961 . S
C4418 C4417 1.502 . S
C4419 H4405 0.960 . S
C4419 H4406 0.961 . S
C4419 H4407 0.959 . S
C4419 C4417 1.561 . S
C4420 C4417 1.526 . S
C4420 C4421 1.396 . S
C4420 C4425 1.390 . S
C4421 C4415 1.465 . S
C4421 C4420 1.396 . S
C4421 C4422 1.399 . S
C4422 H4408 0.929 . S
C4422 C4421 1.399 . S
C4422 C4423 1.385 . S
C4423 H4409 0.931 . S
C4423 C4422 1.385 . S
C4423 C4424 1.389 . S
C4424 C4423 1.389 . S
C4424 C4425 1.387 . S
C4425 H4410 0.930 . S
C4425 C4420 1.390 . S
C4425 C4424 1.387 . S
H4426 C4438 0.930 . S
H4427 C4440 0.930 . S
H4428 C4441 0.930 . S
H4429 C4445 0.959 . S
H4430 C4445 0.959 . S
H4431 C4445 0.961 . S
H4432 C4446 0.960 . S
H4433 C4446 0.961 . S
H4434 C4446 0.959 . S
H4435 C4449 0.929 . S
H4436 C4450 0.931 . S
H4437 C4452 0.930 . S
C4438 H4426 0.930 . S
C4438 C4439 1.399 . S
C4438 C4443 1.399 . S
C4439 C4438 1.399 . S
C4439 C4440 1.376 . S
C4440 H4427 0.930 . S
C4440 C4439 1.376 . S
C4440 C4441 1.388 . S
C4441 H4428 0.930 . S
C4441 C4440 1.388 . S
C4441 C4442 1.390 . S
C4442 C4441 1.390 . S
C4442 C4443 1.394 . S
C4442 C4448 1.465 . S
C4443 C4438 1.399 . S
C4443 C4442 1.394 . S
C4443 C4444 1.516 . S
C4444 C4443 1.516 . S
C4444 C4445 1.502 . S
C4444 C4446 1.561 . S
C4444 C4447 1.526 . S
C4445 H4429 0.959 . S
C4445 H4430 0.959 . S
C4445 H4431 0.961 . S
C4445 C4444 1.502 . S
C4446 H4432 0.960 . S
C4446 H4433 0.961 . S
C4446 H4434 0.959 . S
C4446 C4444 1.561 . S
C4447 C4444 1.526 . S
C4447 C4448 1.396 . S
C4447 C4452 1.390 . S
C4448 C4442 1.465 . S
C4448 C4447 1.396 . S
C4448 C4449 1.399 . S
C4449 H4435 0.929 . S
C4449 C4448 1.399 . S
C4449 C4450 1.385 . S
C4450 H4436 0.931 . S
C4450 C4449 1.385 . S
C4450 C4451 1.389 . S
C4451 C4450 1.389 . S
C4451 C4452 1.387 . S
C4452 H4437 0.930 . S
C4452 C4447 1.390 . S
C4452 C4451 1.387 . S
H4453 C4465 0.930 . S
H4454 C4467 0.930 . S
H4455 C4468 0.930 . S
H4456 C4472 0.959 . S
H4457 C4472 0.959 . S
H4458 C4472 0.961 . S
H4459 C4473 0.960 . S
H4460 C4473 0.961 . S
H4461 C4473 0.959 . S
H4462 C4476 0.929 . S
H4463 C4477 0.931 . S
H4464 C4479 0.930 . S
C4465 H4453 0.930 . S
C4465 C4466 1.399 . S
C4465 C4470 1.399 . S
C4466 C4465 1.399 . S
C4466 C4467 1.376 . S
C4467 H4454 0.930 . S
C4467 C4466 1.376 . S
C4467 C4468 1.388 . S
C4468 H4455 0.930 . S
C4468 C4467 1.388 . S
C4468 C4469 1.390 . S
C4469 C4468 1.390 . S
C4469 C4470 1.394 . S
C4469 C4475 1.465 . S
C4470 C4465 1.399 . S
C4470 C4469 1.394 . S
C4470 C4471 1.516 . S
C4471 C4470 1.516 . S
C4471 C4472 1.502 . S
C4471 C4473 1.561 . S
C4471 C4474 1.526 . S
C4472 H4456 0.959 . S
C4472 H4457 0.959 . S
C4472 H4458 0.961 . S
C4472 C4471 1.502 . S
C4473 H4459 0.960 . S
C4473 H4460 0.961 . S
C4473 H4461 0.959 . S
C4473 C4471 1.561 . S
C4474 C4471 1.526 . S
C4474 C4475 1.396 . S
C4474 C4479 1.390 . S
C4475 C4469 1.465 . S
C4475 C4474 1.396 . S
C4475 C4476 1.399 . S
C4476 H4462 0.929 . S
C4476 C4475 1.399 . S
C4476 C4477 1.385 . S
C4477 H4463 0.931 . S
C4477 C4476 1.385 . S
C4477 C4478 1.389 . S
C4478 C4477 1.389 . S
C4478 C4479 1.387 . S
C4479 H4464 0.930 . S
C4479 C4474 1.390 . S
C4479 C4478 1.387 . S
H4480 C4492 0.930 . S
H4481 C4494 0.930 . S
H4482 C4495 0.930 . S
H4483 C4499 0.959 . S
H4484 C4499 0.959 . S
H4485 C4499 0.961 . S
H4486 C4500 0.960 . S
H4487 C4500 0.961 . S
H4488 C4500 0.959 . S
H4489 C4503 0.929 . S
H4490 C4504 0.931 . S
H4491 C4506 0.930 . S
C4492 H4480 0.930 . S
C4492 C4493 1.399 . S
C4492 C4497 1.399 . S
C4493 C4492 1.399 . S
C4493 C4494 1.376 . S
C4494 H4481 0.930 . S
C4494 C4493 1.376 . S
C4494 C4495 1.388 . S
C4495 H4482 0.930 . S
C4495 C4494 1.388 . S
C4495 C4496 1.390 . S
C4496 C4495 1.390 . S
C4496 C4497 1.394 . S
C4496 C4502 1.465 . S
C4497 C4492 1.399 . S
C4497 C4496 1.394 . S
C4497 C4498 1.516 . S
C4498 C4497 1.516 . S
C4498 C4499 1.502 . S
C4498 C4500 1.561 . S
C4498 C4501 1.526 . S
C4499 H4483 0.959 . S
C4499 H4484 0.959 . S
C4499 H4485 0.961 . S
C4499 C4498 1.502 . S
C4500 H4486 0.960 . S
C4500 H4487 0.961 . S
C4500 H4488 0.959 . S
C4500 C4498 1.561 . S
C4501 C4498 1.526 . S
C4501 C4502 1.396 . S
C4501 C4506 1.390 . S
C4502 C4496 1.465 . S
C4502 C4501 1.396 . S
C4502 C4503 1.399 . S
C4503 H4489 0.929 . S
C4503 C4502 1.399 . S
C4503 C4504 1.385 . S
C4504 H4490 0.931 . S
C4504 C4503 1.385 . S
C4504 C4505 1.389 . S
C4505 C4504 1.389 . S
C4505 C4506 1.387 . S
C4506 H4491 0.930 . S
C4506 C4501 1.390 . S
C4506 C4505 1.387 . S
H4507 C4519 0.930 . S
H4508 C4521 0.930 . S
H4509 C4522 0.930 . S
H4510 C4526 0.959 . S
H4511 C4526 0.959 . S
H4512 C4526 0.961 . S
H4513 C4527 0.960 . S
H4514 C4527 0.961 . S
H4515 C4527 0.959 . S
H4516 C4530 0.929 . S
H4517 C4531 0.931 . S
H4518 C4533 0.930 . S
C4519 H4507 0.930 . S
C4519 C4520 1.399 . S
C4519 C4524 1.399 . S
C4520 C4519 1.399 . S
C4520 C4521 1.376 . S
C4521 H4508 0.930 . S
C4521 C4520 1.376 . S
C4521 C4522 1.388 . S
C4522 H4509 0.930 . S
C4522 C4521 1.388 . S
C4522 C4523 1.390 . S
C4523 C4522 1.390 . S
C4523 C4524 1.394 . S
C4523 C4529 1.465 . S
C4524 C4519 1.399 . S
C4524 C4523 1.394 . S
C4524 C4525 1.516 . S
C4525 C4524 1.516 . S
C4525 C4526 1.502 . S
C4525 C4527 1.561 . S
C4525 C4528 1.526 . S
C4526 H4510 0.959 . S
C4526 H4511 0.959 . S
C4526 H4512 0.961 . S
C4526 C4525 1.502 . S
C4527 H4513 0.960 . S
C4527 H4514 0.961 . S
C4527 H4515 0.959 . S
C4527 C4525 1.561 . S
C4528 C4525 1.526 . S
C4528 C4529 1.396 . S
C4528 C4533 1.390 . S
C4529 C4523 1.465 . S
C4529 C4528 1.396 . S
C4529 C4530 1.399 . S
C4530 H4516 0.929 . S
C4530 C4529 1.399 . S
C4530 C4531 1.385 . S
C4531 H4517 0.931 . S
C4531 C4530 1.385 . S
C4531 C4532 1.389 . S
C4532 C4531 1.389 . S
C4532 C4533 1.387 . S
C4533 H4518 0.930 . S
C4533 C4528 1.390 . S
C4533 C4532 1.387 . S
H4534 C4546 0.930 . S
H4535 C4548 0.930 . S
H4536 C4549 0.930 . S
H4537 C4553 0.959 . S
H4538 C4553 0.959 . S
H4539 C4553 0.961 . S
H4540 C4554 0.960 . S
H4541 C4554 0.961 . S
H4542 C4554 0.959 . S
H4543 C4557 0.929 . S
H4544 C4558 0.931 . S
H4545 C4560 0.930 . S
C4546 H4534 0.930 . S
C4546 C4547 1.399 . S
C4546 C4551 1.399 . S
C4547 C4546 1.399 . S
C4547 C4548 1.376 . S
C4548 H4535 0.930 . S
C4548 C4547 1.376 . S
C4548 C4549 1.388 . S
C4549 H4536 0.930 . S
C4549 C4548 1.388 . S
C4549 C4550 1.390 . S
C4550 C4549 1.390 . S
C4550 C4551 1.394 . S
C4550 C4556 1.465 . S
C4551 C4546 1.399 . S
C4551 C4550 1.394 . S
C4551 C4552 1.516 . S
C4552 C4551 1.516 . S
C4552 C4553 1.502 . S
C4552 C4554 1.561 . S
C4552 C4555 1.526 . S
C4553 H4537 0.959 . S
C4553 H4538 0.959 . S
C4553 H4539 0.961 . S
C4553 C4552 1.502 . S
C4554 H4540 0.960 . S
C4554 H4541 0.961 . S
C4554 H4542 0.959 . S
C4554 C4552 1.561 . S
C4555 C4552 1.526 . S
C4555 C4556 1.396 . S
C4555 C4560 1.390 . S
C4556 C4550 1.465 . S
C4556 C4555 1.396 . S
C4556 C4557 1.399 . S
C4557 H4543 0.929 . S
C4557 C4556 1.399 . S
C4557 C4558 1.385 . S
C4558 H4544 0.931 . S
C4558 C4557 1.385 . S
C4558 C4559 1.389 . S
C4559 C4558 1.389 . S
C4559 C4560 1.387 . S
C4560 H4545 0.930 . S
C4560 C4555 1.390 . S
C4560 C4559 1.387 . S
H4561 C4573 0.930 . S
H4562 C4575 0.930 . S
H4563 C4576 0.930 . S
H4564 C4580 0.959 . S
H4565 C4580 0.959 . S
H4566 C4580 0.961 . S
H4567 C4581 0.960 . S
H4568 C4581 0.961 . S
H4569 C4581 0.959 . S
H4570 C4584 0.929 . S
H4571 C4585 0.931 . S
H4572 C4587 0.930 1_556 S
C4573 H4561 0.930 . S
C4573 C4574 1.399 1_545 S
C4573 C4578 1.399 . S
C4574 C4573 1.399 1_565 S
C4574 C4575 1.376 . S
C4575 H4562 0.930 . S
C4575 C4574 1.376 . S
C4575 C4576 1.388 . S
C4576 H4563 0.930 . S
C4576 C4575 1.388 . S
C4576 C4577 1.390 . S
C4577 C4576 1.390 . S
C4577 C4578 1.394 1_565 S
C4577 C4583 1.465 . S
C4578 C4573 1.399 . S
C4578 C4577 1.394 1_545 S
C4578 C4579 1.516 . S
C4579 C4578 1.516 . S
C4579 C4580 1.502 1_554 S
C4579 C4581 1.561 . S
C4579 C4582 1.526 . S
C4580 H4564 0.959 . S
C4580 H4565 0.959 . S
C4580 H4566 0.961 . S
C4580 C4579 1.502 1_556 S
C4581 H4567 0.960 . S
C4581 H4568 0.961 . S
C4581 H4569 0.959 . S
C4581 C4579 1.561 . S
C4582 C4579 1.526 . S
C4582 C4583 1.396 1_545 S
C4582 C4587 1.390 . S
C4583 C4577 1.465 . S
C4583 C4582 1.396 1_565 S
C4583 C4584 1.399 . S
C4584 H4570 0.929 . S
C4584 C4583 1.399 . S
C4584 C4585 1.385 . S
C4585 H4571 0.931 . S
C4585 C4584 1.385 . S
C4585 C4586 1.389 1_565 S
C4586 C4585 1.389 1_545 S
C4586 C4587 1.387 . S
C4587 H4572 0.930 1_554 S
C4587 C4582 1.390 . S
C4587 C4586 1.387 . S
H4588 C4600 0.930 . S
H4589 C4602 0.930 . S
H4590 C4603 0.930 . S
H4591 C4607 0.959 . S
H4592 C4607 0.959 . S
H4593 C4607 0.961 . S
H4594 C4608 0.960 . S
H4595 C4608 0.961 . S
H4596 C4608 0.959 . S
H4597 C4611 0.929 . S
H4598 C4612 0.931 . S
H4599 C4614 0.930 . S
C4600 H4588 0.930 . S
C4600 C4601 1.399 . S
C4600 C4605 1.399 . S
C4601 C4600 1.399 . S
C4601 C4602 1.376 . S
C4602 H4589 0.930 . S
C4602 C4601 1.376 . S
C4602 C4603 1.388 . S
C4603 H4590 0.930 . S
C4603 C4602 1.388 . S
C4603 C4604 1.390 . S
C4604 C4603 1.390 . S
C4604 C4605 1.394 . S
C4604 C4610 1.465 . S
C4605 C4600 1.399 . S
C4605 C4604 1.394 . S
C4605 C4606 1.516 . S
C4606 C4605 1.516 . S
C4606 C4607 1.502 . S
C4606 C4608 1.561 . S
C4606 C4609 1.526 . S
C4607 H4591 0.959 . S
C4607 H4592 0.959 . S
C4607 H4593 0.961 . S
C4607 C4606 1.502 . S
C4608 H4594 0.960 . S
C4608 H4595 0.961 . S
C4608 H4596 0.959 . S
C4608 C4606 1.561 . S
C4609 C4606 1.526 . S
C4609 C4610 1.396 . S
C4609 C4614 1.390 . S
C4610 C4604 1.465 . S
C4610 C4609 1.396 . S
C4610 C4611 1.399 . S
C4611 H4597 0.929 . S
C4611 C4610 1.399 . S
C4611 C4612 1.385 . S
C4612 H4598 0.931 . S
C4612 C4611 1.385 . S
C4612 C4613 1.389 . S
C4613 C4612 1.389 . S
C4613 C4614 1.387 . S
C4614 H4599 0.930 . S
C4614 C4609 1.390 . S
C4614 C4613 1.387 . S
H4615 C4627 0.930 1_556 S
H4616 C4629 0.930 . S
H4617 C4630 0.930 . S
H4618 C4634 0.959 . S
H4619 C4634 0.959 . S
H4620 C4634 0.961 . S
H4621 C4635 0.960 . S
H4622 C4635 0.961 . S
H4623 C4635 0.959 . S
H4624 C4638 0.929 . S
H4625 C4639 0.931 . S
H4626 C4641 0.930 . S
C4627 H4615 0.930 1_554 S
C4627 C4628 1.399 . S
C4627 C4632 1.399 . S
C4628 C4627 1.399 . S
C4628 C4629 1.376 . S
C4629 H4616 0.930 . S
C4629 C4628 1.376 . S
C4629 C4630 1.388 . S
C4630 H4617 0.930 . S
C4630 C4629 1.388 . S
C4630 C4631 1.390 . S
C4631 C4630 1.390 . S
C4631 C4632 1.394 . S
C4631 C4637 1.465 . S
C4632 C4627 1.399 . S
C4632 C4631 1.394 . S
C4632 C4633 1.516 . S
C4633 C4632 1.516 . S
C4633 C4634 1.502 . S
C4633 C4635 1.561 1_554 S
C4633 C4636 1.526 . S
C4634 H4618 0.959 . S
C4634 H4619 0.959 . S
C4634 H4620 0.961 . S
C4634 C4633 1.502 . S
C4635 H4621 0.960 . S
C4635 H4622 0.961 . S
C4635 H4623 0.959 . S
C4635 C4633 1.561 1_556 S
C4636 C4633 1.526 . S
C4636 C4637 1.396 . S
C4636 C4641 1.390 . S
C4637 C4631 1.465 . S
C4637 C4636 1.396 . S
C4637 C4638 1.399 . S
C4638 H4624 0.929 . S
C4638 C4637 1.399 . S
C4638 C4639 1.385 . S
C4639 H4625 0.931 . S
C4639 C4638 1.385 . S
C4639 C4640 1.389 . S
C4640 C4639 1.389 . S
C4640 C4641 1.387 . S
C4641 H4626 0.930 . S
C4641 C4636 1.390 . S
C4641 C4640 1.387 . S
H4642 C4654 0.930 . S
H4643 C4656 0.930 . S
H4644 C4657 0.930 . S
H4645 C4661 0.959 . S
H4646 C4661 0.959 . S
H4647 C4661 0.961 . S
H4648 C4662 0.960 . S
H4649 C4662 0.961 . S
H4650 C4662 0.959 . S
H4651 C4665 0.929 . S
H4652 C4666 0.931 . S
H4653 C4668 0.930 . S
C4654 H4642 0.930 . S
C4654 C4655 1.399 . S
C4654 C4659 1.399 . S
C4655 C4654 1.399 . S
C4655 C4656 1.376 . S
C4656 H4643 0.930 . S
C4656 C4655 1.376 . S
C4656 C4657 1.388 . S
C4657 H4644 0.930 . S
C4657 C4656 1.388 . S
C4657 C4658 1.390 . S
C4658 C4657 1.390 . S
C4658 C4659 1.394 . S
C4658 C4664 1.465 . S
C4659 C4654 1.399 . S
C4659 C4658 1.394 . S
C4659 C4660 1.516 . S
C4660 C4659 1.516 . S
C4660 C4661 1.502 . S
C4660 C4662 1.561 . S
C4660 C4663 1.526 . S
C4661 H4645 0.959 . S
C4661 H4646 0.959 . S
C4661 H4647 0.961 . S
C4661 C4660 1.502 . S
C4662 H4648 0.960 . S
C4662 H4649 0.961 . S
C4662 H4650 0.959 . S
C4662 C4660 1.561 . S
C4663 C4660 1.526 . S
C4663 C4664 1.396 . S
C4663 C4668 1.390 . S
C4664 C4658 1.465 . S
C4664 C4663 1.396 . S
C4664 C4665 1.399 . S
C4665 H4651 0.929 . S
C4665 C4664 1.399 . S
C4665 C4666 1.385 . S
C4666 H4652 0.931 . S
C4666 C4665 1.385 . S
C4666 C4667 1.389 . S
C4667 C4666 1.389 . S
C4667 C4668 1.387 . S
C4668 H4653 0.930 . S
C4668 C4663 1.390 . S
C4668 C4667 1.387 . S
H4669 C4681 0.930 . S
H4670 C4683 0.930 . S
H4671 C4684 0.930 . S
H4672 C4688 0.959 . S
H4673 C4688 0.959 . S
H4674 C4688 0.961 . S
H4675 C4689 0.960 . S
H4676 C4689 0.961 . S
H4677 C4689 0.959 . S
H4678 C4692 0.929 . S
H4679 C4693 0.931 . S
H4680 C4695 0.930 . S
C4681 H4669 0.930 . S
C4681 C4682 1.399 . S
C4681 C4686 1.399 . S
C4682 C4681 1.399 . S
C4682 C4683 1.376 . S
C4683 H4670 0.930 . S
C4683 C4682 1.376 . S
C4683 C4684 1.388 . S
C4684 H4671 0.930 . S
C4684 C4683 1.388 . S
C4684 C4685 1.390 . S
C4685 C4684 1.390 . S
C4685 C4686 1.394 . S
C4685 C4691 1.465 . S
C4686 C4681 1.399 . S
C4686 C4685 1.394 . S
C4686 C4687 1.516 . S
C4687 C4686 1.516 . S
C4687 C4688 1.502 . S
C4687 C4689 1.561 . S
C4687 C4690 1.526 . S
C4688 H4672 0.959 . S
C4688 H4673 0.959 . S
C4688 H4674 0.961 . S
C4688 C4687 1.502 . S
C4689 H4675 0.960 . S
C4689 H4676 0.961 . S
C4689 H4677 0.959 . S
C4689 C4687 1.561 . S
C4690 C4687 1.526 . S
C4690 C4691 1.396 . S
C4690 C4695 1.390 . S
C4691 C4685 1.465 . S
C4691 C4690 1.396 . S
C4691 C4692 1.399 . S
C4692 H4678 0.929 . S
C4692 C4691 1.399 . S
C4692 C4693 1.385 . S
C4693 H4679 0.931 . S
C4693 C4692 1.385 . S
C4693 C4694 1.389 . S
C4694 C4693 1.389 . S
C4694 C4695 1.387 . S
C4695 H4680 0.930 . S
C4695 C4690 1.390 . S
C4695 C4694 1.387 . S
H4696 C4708 0.930 . S
H4697 C4710 0.930 . S
H4698 C4711 0.930 . S
H4699 C4715 0.959 . S
H4700 C4715 0.959 . S
H4701 C4715 0.961 . S
H4702 C4716 0.960 . S
H4703 C4716 0.961 . S
H4704 C4716 0.959 . S
H4705 C4719 0.929 . S
H4706 C4720 0.931 . S
H4707 C4722 0.930 . S
C4708 H4696 0.930 . S
C4708 C4709 1.399 . S
C4708 C4713 1.399 . S
C4709 C4708 1.399 . S
C4709 C4710 1.376 . S
C4710 H4697 0.930 . S
C4710 C4709 1.376 . S
C4710 C4711 1.388 . S
C4711 H4698 0.930 . S
C4711 C4710 1.388 . S
C4711 C4712 1.390 . S
C4712 C4711 1.390 . S
C4712 C4713 1.394 . S
C4712 C4718 1.465 . S
C4713 C4708 1.399 . S
C4713 C4712 1.394 . S
C4713 C4714 1.516 . S
C4714 C4713 1.516 . S
C4714 C4715 1.502 . S
C4714 C4716 1.561 . S
C4714 C4717 1.526 . S
C4715 H4699 0.959 . S
C4715 H4700 0.959 . S
C4715 H4701 0.961 . S
C4715 C4714 1.502 . S
C4716 H4702 0.960 . S
C4716 H4703 0.961 . S
C4716 H4704 0.959 . S
C4716 C4714 1.561 . S
C4717 C4714 1.526 . S
C4717 C4718 1.396 . S
C4717 C4722 1.390 . S
C4718 C4712 1.465 . S
C4718 C4717 1.396 . S
C4718 C4719 1.399 . S
C4719 H4705 0.929 . S
C4719 C4718 1.399 . S
C4719 C4720 1.385 . S
C4720 H4706 0.931 . S
C4720 C4719 1.385 . S
C4720 C4721 1.389 . S
C4721 C4720 1.389 . S
C4721 C4722 1.387 . S
C4722 H4707 0.930 . S
C4722 C4717 1.390 . S
C4722 C4721 1.387 . S
H4723 C4735 0.930 . S
H4724 C4737 0.930 . S
H4725 C4738 0.930 . S
H4726 C4742 0.959 . S
H4727 C4742 0.959 . S
H4728 C4742 0.961 . S
H4729 C4743 0.960 . S
H4730 C4743 0.961 . S
H4731 C4743 0.959 . S
H4732 C4746 0.929 . S
H4733 C4747 0.931 . S
H4734 C4749 0.930 . S
C4735 H4723 0.930 . S
C4735 C4736 1.399 . S
C4735 C4740 1.399 . S
C4736 C4735 1.399 . S
C4736 C4737 1.376 . S
C4737 H4724 0.930 . S
C4737 C4736 1.376 . S
C4737 C4738 1.388 . S
C4738 H4725 0.930 . S
C4738 C4737 1.388 . S
C4738 C4739 1.390 . S
C4739 C4738 1.390 . S
C4739 C4740 1.394 . S
C4739 C4745 1.465 . S
C4740 C4735 1.399 . S
C4740 C4739 1.394 . S
C4740 C4741 1.516 . S
C4741 C4740 1.516 . S
C4741 C4742 1.502 . S
C4741 C4743 1.561 . S
C4741 C4744 1.526 . S
C4742 H4726 0.959 . S
C4742 H4727 0.959 . S
C4742 H4728 0.961 . S
C4742 C4741 1.502 . S
C4743 H4729 0.960 . S
C4743 H4730 0.961 . S
C4743 H4731 0.959 . S
C4743 C4741 1.561 . S
C4744 C4741 1.526 . S
C4744 C4745 1.396 . S
C4744 C4749 1.390 . S
C4745 C4739 1.465 . S
C4745 C4744 1.396 . S
C4745 C4746 1.399 . S
C4746 H4732 0.929 . S
C4746 C4745 1.399 . S
C4746 C4747 1.385 . S
C4747 H4733 0.931 . S
C4747 C4746 1.385 . S
C4747 C4748 1.389 . S
C4748 C4747 1.389 . S
C4748 C4749 1.387 . S
C4749 H4734 0.930 . S
C4749 C4744 1.390 . S
C4749 C4748 1.387 . S
H4750 C4762 0.930 . S
H4751 C4764 0.930 . S
H4752 C4765 0.930 . S
H4753 C4769 0.959 . S
H4754 C4769 0.959 . S
H4755 C4769 0.961 . S
H4756 C4770 0.960 . S
H4757 C4770 0.961 . S
H4758 C4770 0.959 . S
H4759 C4773 0.929 . S
H4760 C4774 0.931 1_556 S
H4761 C4776 0.930 . S
C4762 H4750 0.930 . S
C4762 C4763 1.399 . S
C4762 C4767 1.399 . S
C4763 C4762 1.399 . S
C4763 C4764 1.376 . S
C4764 H4751 0.930 . S
C4764 C4763 1.376 . S
C4764 C4765 1.388 . S
C4765 H4752 0.930 . S
C4765 C4764 1.388 . S
C4765 C4766 1.390 . S
C4766 C4765 1.390 . S
C4766 C4767 1.394 . S
C4766 C4772 1.465 . S
C4767 C4762 1.399 . S
C4767 C4766 1.394 . S
C4767 C4768 1.516 . S
C4768 C4767 1.516 . S
C4768 C4769 1.502 . S
C4768 C4770 1.561 . S
C4768 C4771 1.526 . S
C4769 H4753 0.959 . S
C4769 H4754 0.959 . S
C4769 H4755 0.961 . S
C4769 C4768 1.502 . S
C4770 H4756 0.960 . S
C4770 H4757 0.961 . S
C4770 H4758 0.959 . S
C4770 C4768 1.561 . S
C4771 C4768 1.526 . S
C4771 C4772 1.396 . S
C4771 C4776 1.390 . S
C4772 C4766 1.465 . S
C4772 C4771 1.396 . S
C4772 C4773 1.399 . S
C4773 H4759 0.929 . S
C4773 C4772 1.399 . S
C4773 C4774 1.385 . S
C4774 H4760 0.931 1_554 S
C4774 C4773 1.385 . S
C4774 C4775 1.389 . S
C4775 C4774 1.389 . S
C4775 C4776 1.387 . S
C4776 H4761 0.930 . S
C4776 C4771 1.390 . S
C4776 C4775 1.387 . S
H4777 C4789 0.930 . S
H4778 C4791 0.930 . S
H4779 C4792 0.930 . S
H4780 C4796 0.959 . S
H4781 C4796 0.959 . S
H4782 C4796 0.961 . S
H4783 C4797 0.960 . S
H4784 C4797 0.961 . S
H4785 C4797 0.959 . S
H4786 C4800 0.929 . S
H4787 C4801 0.931 . S
H4788 C4803 0.930 . S
C4789 H4777 0.930 . S
C4789 C4790 1.399 . S
C4789 C4794 1.399 . S
C4790 C4789 1.399 . S
C4790 C4791 1.376 . S
C4791 H4778 0.930 . S
C4791 C4790 1.376 . S
C4791 C4792 1.388 . S
C4792 H4779 0.930 . S
C4792 C4791 1.388 . S
C4792 C4793 1.390 . S
C4793 C4792 1.390 . S
C4793 C4794 1.394 . S
C4793 C4799 1.465 . S
C4794 C4789 1.399 . S
C4794 C4793 1.394 . S
C4794 C4795 1.516 . S
C4795 C4794 1.516 . S
C4795 C4796 1.502 . S
C4795 C4797 1.561 . S
C4795 C4798 1.526 . S
C4796 H4780 0.959 . S
C4796 H4781 0.959 . S
C4796 H4782 0.961 . S
C4796 C4795 1.502 . S
C4797 H4783 0.960 . S
C4797 H4784 0.961 . S
C4797 H4785 0.959 . S
C4797 C4795 1.561 . S
C4798 C4795 1.526 . S
C4798 C4799 1.396 . S
C4798 C4803 1.390 . S
C4799 C4793 1.465 . S
C4799 C4798 1.396 . S
C4799 C4800 1.399 . S
C4800 H4786 0.929 . S
C4800 C4799 1.399 . S
C4800 C4801 1.385 . S
C4801 H4787 0.931 . S
C4801 C4800 1.385 . S
C4801 C4802 1.389 . S
C4802 C4801 1.389 . S
C4802 C4803 1.387 . S
C4803 H4788 0.930 . S
C4803 C4798 1.390 . S
C4803 C4802 1.387 . S
H4804 C4816 0.930 . S
H4805 C4818 0.930 . S
H4806 C4819 0.930 . S
H4807 C4823 0.959 . S
H4808 C4823 0.959 . S
H4809 C4823 0.961 . S
H4810 C4824 0.960 . S
H4811 C4824 0.961 1_554 S
H4812 C4824 0.959 . S
H4813 C4827 0.929 . S
H4814 C4828 0.931 . S
H4815 C4830 0.930 . S
C4816 H4804 0.930 . S
C4816 C4817 1.399 . S
C4816 C4821 1.399 . S
C4817 C4816 1.399 . S
C4817 C4818 1.376 . S
C4818 H4805 0.930 . S
C4818 C4817 1.376 . S
C4818 C4819 1.388 . S
C4819 H4806 0.930 . S
C4819 C4818 1.388 . S
C4819 C4820 1.390 . S
C4820 C4819 1.390 . S
C4820 C4821 1.394 . S
C4820 C4826 1.465 . S
C4821 C4816 1.399 . S
C4821 C4820 1.394 . S
C4821 C4822 1.516 . S
C4822 C4821 1.516 . S
C4822 C4823 1.502 . S
C4822 C4824 1.561 . S
C4822 C4825 1.526 . S
C4823 H4807 0.959 . S
C4823 H4808 0.959 . S
C4823 H4809 0.961 . S
C4823 C4822 1.502 . S
C4824 H4810 0.960 . S
C4824 H4811 0.961 1_556 S
C4824 H4812 0.959 . S
C4824 C4822 1.561 . S
C4825 C4822 1.526 . S
C4825 C4826 1.396 . S
C4825 C4830 1.390 . S
C4826 C4820 1.465 . S
C4826 C4825 1.396 . S
C4826 C4827 1.399 . S
C4827 H4813 0.929 . S
C4827 C4826 1.399 . S
C4827 C4828 1.385 . S
C4828 H4814 0.931 . S
C4828 C4827 1.385 . S
C4828 C4829 1.389 . S
C4829 C4828 1.389 . S
C4829 C4830 1.387 . S
C4830 H4815 0.930 . S
C4830 C4825 1.390 . S
C4830 C4829 1.387 . S
H4831 C4843 0.930 . S
H4832 C4845 0.930 . S
H4833 C4846 0.930 . S
H4834 C4850 0.959 . S
H4835 C4850 0.959 . S
H4836 C4850 0.961 . S
H4837 C4851 0.960 . S
H4838 C4851 0.961 . S
H4839 C4851 0.959 . S
H4840 C4854 0.929 . S
H4841 C4855 0.931 . S
H4842 C4857 0.930 . S
C4843 H4831 0.930 . S
C4843 C4844 1.399 . S
C4843 C4848 1.399 . S
C4844 C4843 1.399 . S
C4844 C4845 1.376 . S
C4845 H4832 0.930 . S
C4845 C4844 1.376 . S
C4845 C4846 1.388 . S
C4846 H4833 0.930 . S
C4846 C4845 1.388 . S
C4846 C4847 1.390 . S
C4847 C4846 1.390 . S
C4847 C4848 1.394 . S
C4847 C4853 1.465 . S
C4848 C4843 1.399 . S
C4848 C4847 1.394 . S
C4848 C4849 1.516 . S
C4849 C4848 1.516 . S
C4849 C4850 1.502 . S
C4849 C4851 1.561 . S
C4849 C4852 1.526 . S
C4850 H4834 0.959 . S
C4850 H4835 0.959 . S
C4850 H4836 0.961 . S
C4850 C4849 1.502 . S
C4851 H4837 0.960 . S
C4851 H4838 0.961 . S
C4851 H4839 0.959 . S
C4851 C4849 1.561 . S
C4852 C4849 1.526 . S
C4852 C4853 1.396 . S
C4852 C4857 1.390 . S
C4853 C4847 1.465 . S
C4853 C4852 1.396 . S
C4853 C4854 1.399 . S
C4854 H4840 0.929 . S
C4854 C4853 1.399 . S
C4854 C4855 1.385 . S
C4855 H4841 0.931 . S
C4855 C4854 1.385 . S
C4855 C4856 1.389 . S
C4856 C4855 1.389 . S
C4856 C4857 1.387 . S
C4857 H4842 0.930 . S
C4857 C4852 1.390 . S
C4857 C4856 1.387 . S
H4858 C4870 0.930 . S
H4859 C4872 0.930 . S
H4860 C4873 0.930 . S
H4861 C4877 0.959 . S
H4862 C4877 0.959 . S
H4863 C4877 0.961 . S
H4864 C4878 0.960 . S
H4865 C4878 0.961 . S
H4866 C4878 0.959 . S
H4867 C4881 0.929 . S
H4868 C4882 0.931 . S
H4869 C4884 0.930 . S
C4870 H4858 0.930 . S
C4870 C4871 1.399 . S
C4870 C4875 1.399 . S
C4871 C4870 1.399 . S
C4871 C4872 1.376 . S
C4872 H4859 0.930 . S
C4872 C4871 1.376 . S
C4872 C4873 1.388 . S
C4873 H4860 0.930 . S
C4873 C4872 1.388 . S
C4873 C4874 1.390 . S
C4874 C4873 1.390 . S
C4874 C4875 1.394 . S
C4874 C4880 1.465 . S
C4875 C4870 1.399 . S
C4875 C4874 1.394 . S
C4875 C4876 1.516 . S
C4876 C4875 1.516 . S
C4876 C4877 1.502 . S
C4876 C4878 1.561 . S
C4876 C4879 1.526 . S
C4877 H4861 0.959 . S
C4877 H4862 0.959 . S
C4877 H4863 0.961 . S
C4877 C4876 1.502 . S
C4878 H4864 0.960 . S
C4878 H4865 0.961 . S
C4878 H4866 0.959 . S
C4878 C4876 1.561 . S
C4879 C4876 1.526 . S
C4879 C4880 1.396 . S
C4879 C4884 1.390 . S
C4880 C4874 1.465 . S
C4880 C4879 1.396 . S
C4880 C4881 1.399 . S
C4881 H4867 0.929 . S
C4881 C4880 1.399 . S
C4881 C4882 1.385 . S
C4882 H4868 0.931 . S
C4882 C4881 1.385 . S
C4882 C4883 1.389 . S
C4883 C4882 1.389 . S
C4883 C4884 1.387 . S
C4884 H4869 0.930 . S
C4884 C4879 1.390 . S
C4884 C4883 1.387 . S
H4885 C4897 0.930 . S
H4886 C4899 0.930 . S
H4887 C4900 0.930 . S
H4888 C4904 0.959 . S
H4889 C4904 0.959 . S
H4890 C4904 0.961 . S
H4891 C4905 0.960 . S
H4892 C4905 0.961 . S
H4893 C4905 0.959 . S
H4894 C4908 0.929 . S
H4895 C4909 0.931 . S
H4896 C4911 0.930 . S
C4897 H4885 0.930 . S
C4897 C4898 1.399 . S
C4897 C4902 1.399 . S
C4898 C4897 1.399 . S
C4898 C4899 1.376 . S
C4899 H4886 0.930 . S
C4899 C4898 1.376 . S
C4899 C4900 1.388 . S
C4900 H4887 0.930 . S
C4900 C4899 1.388 . S
C4900 C4901 1.390 . S
C4901 C4900 1.390 . S
C4901 C4902 1.394 . S
C4901 C4907 1.465 . S
C4902 C4897 1.399 . S
C4902 C4901 1.394 . S
C4902 C4903 1.516 . S
C4903 C4902 1.516 . S
C4903 C4904 1.502 . S
C4903 C4905 1.561 . S
C4903 C4906 1.526 . S
C4904 H4888 0.959 . S
C4904 H4889 0.959 . S
C4904 H4890 0.961 . S
C4904 C4903 1.502 . S
C4905 H4891 0.960 . S
C4905 H4892 0.961 . S
C4905 H4893 0.959 . S
C4905 C4903 1.561 . S
C4906 C4903 1.526 . S
C4906 C4907 1.396 . S
C4906 C4911 1.390 . S
C4907 C4901 1.465 . S
C4907 C4906 1.396 . S
C4907 C4908 1.399 . S
C4908 H4894 0.929 . S
C4908 C4907 1.399 . S
C4908 C4909 1.385 . S
C4909 H4895 0.931 . S
C4909 C4908 1.385 . S
C4909 C4910 1.389 . S
C4910 C4909 1.389 . S
C4910 C4911 1.387 . S
C4911 H4896 0.930 . S
C4911 C4906 1.390 . S
C4911 C4910 1.387 . S
H4912 C4924 0.930 . S
H4913 C4926 0.930 . S
H4914 C4927 0.930 . S
H4915 C4931 0.959 . S
H4916 C4931 0.959 . S
H4917 C4931 0.961 . S
H4918 C4932 0.960 . S
H4919 C4932 0.961 . S
H4920 C4932 0.959 . S
H4921 C4935 0.929 . S
H4922 C4936 0.931 . S
H4923 C4938 0.930 . S
C4924 H4912 0.930 . S
C4924 C4925 1.399 . S
C4924 C4929 1.399 . S
C4925 C4924 1.399 . S
C4925 C4926 1.376 . S
C4926 H4913 0.930 . S
C4926 C4925 1.376 . S
C4926 C4927 1.388 . S
C4927 H4914 0.930 . S
C4927 C4926 1.388 . S
C4927 C4928 1.390 . S
C4928 C4927 1.390 . S
C4928 C4929 1.394 . S
C4928 C4934 1.465 . S
C4929 C4924 1.399 . S
C4929 C4928 1.394 . S
C4929 C4930 1.516 . S
C4930 C4929 1.516 . S
C4930 C4931 1.502 . S
C4930 C4932 1.561 . S
C4930 C4933 1.526 . S
C4931 H4915 0.959 . S
C4931 H4916 0.959 . S
C4931 H4917 0.961 . S
C4931 C4930 1.502 . S
C4932 H4918 0.960 . S
C4932 H4919 0.961 . S
C4932 H4920 0.959 . S
C4932 C4930 1.561 . S
C4933 C4930 1.526 . S
C4933 C4934 1.396 . S
C4933 C4938 1.390 . S
C4934 C4928 1.465 . S
C4934 C4933 1.396 . S
C4934 C4935 1.399 . S
C4935 H4921 0.929 . S
C4935 C4934 1.399 . S
C4935 C4936 1.385 . S
C4936 H4922 0.931 . S
C4936 C4935 1.385 . S
C4936 C4937 1.389 . S
C4937 C4936 1.389 . S
C4937 C4938 1.387 . S
C4938 H4923 0.930 . S
C4938 C4933 1.390 . S
C4938 C4937 1.387 . S
H4939 C4951 0.930 . S
H4940 C4953 0.930 . S
H4941 C4954 0.930 . S
H4942 C4958 0.959 . S
H4943 C4958 0.959 . S
H4944 C4958 0.961 . S
H4945 C4959 0.960 . S
H4946 C4959 0.961 . S
H4947 C4959 0.959 . S
H4948 C4962 0.929 . S
H4949 C4963 0.931 . S
H4950 C4965 0.930 . S
C4951 H4939 0.930 . S
C4951 C4952 1.399 . S
C4951 C4956 1.399 . S
C4952 C4951 1.399 . S
C4952 C4953 1.376 . S
C4953 H4940 0.930 . S
C4953 C4952 1.376 . S
C4953 C4954 1.388 . S
C4954 H4941 0.930 . S
C4954 C4953 1.388 . S
C4954 C4955 1.390 . S
C4955 C4954 1.390 . S
C4955 C4956 1.394 . S
C4955 C4961 1.465 . S
C4956 C4951 1.399 . S
C4956 C4955 1.394 . S
C4956 C4957 1.516 . S
C4957 C4956 1.516 . S
C4957 C4958 1.502 . S
C4957 C4959 1.561 . S
C4957 C4960 1.526 . S
C4958 H4942 0.959 . S
C4958 H4943 0.959 . S
C4958 H4944 0.961 . S
C4958 C4957 1.502 . S
C4959 H4945 0.960 . S
C4959 H4946 0.961 . S
C4959 H4947 0.959 . S
C4959 C4957 1.561 . S
C4960 C4957 1.526 . S
C4960 C4961 1.396 . S
C4960 C4965 1.390 . S
C4961 C4955 1.465 . S
C4961 C4960 1.396 . S
C4961 C4962 1.399 . S
C4962 H4948 0.929 . S
C4962 C4961 1.399 . S
C4962 C4963 1.385 . S
C4963 H4949 0.931 . S
C4963 C4962 1.385 . S
C4963 C4964 1.389 . S
C4964 C4963 1.389 . S
C4964 C4965 1.387 . S
C4965 H4950 0.930 . S
C4965 C4960 1.390 . S
C4965 C4964 1.387 . S
H4966 C4978 0.930 . S
H4967 C4980 0.930 . S
H4968 C4981 0.930 . S
H4969 C4985 0.959 . S
H4970 C4985 0.959 . S
H4971 C4985 0.961 . S
H4972 C4986 0.960 . S
H4973 C4986 0.961 . S
H4974 C4986 0.959 . S
H4975 C4989 0.933 . S
H4976 C4990 0.931 . S
H4977 C4992 0.930 . S
C4978 H4966 0.930 . S
C4978 C4979 1.399 . S
C4978 C4983 1.399 . S
C4979 C4978 1.399 . S
C4979 C4980 1.376 . S
C4980 H4967 0.930 . S
C4980 C4979 1.376 . S
C4980 C4981 1.388 . S
C4981 H4968 0.930 . S
C4981 C4980 1.388 . S
C4981 C4982 1.390 . S
C4982 C4981 1.390 . S
C4982 C4983 1.394 . S
C4982 C4988 1.465 . S
C4983 C4978 1.399 . S
C4983 C4982 1.394 . S
C4983 C4984 1.514 1_655 S
C4984 C4983 1.514 1_455 S
C4984 C4985 1.507 . S
C4984 C4986 1.555 1_455 S
C4984 C4987 1.528 . S
C4985 H4969 0.959 . S
C4985 H4970 0.959 . S
C4985 H4971 0.961 . S
C4985 C4984 1.507 . S
C4986 H4972 0.960 . S
C4986 H4973 0.961 . S
C4986 H4974 0.959 . S
C4986 C4984 1.555 1_655 S
C4987 C4984 1.528 . S
C4987 C4988 1.396 1_455 S
C4987 C4992 1.390 . S
C4988 C4982 1.465 . S
C4988 C4987 1.396 1_655 S
C4988 C4989 1.403 . S
C4989 H4975 0.933 . S
C4989 C4988 1.403 . S
C4989 C4990 1.378 1_655 S
C4990 H4976 0.931 . S
C4990 C4989 1.378 1_455 S
C4990 C4991 1.389 . S
C4991 C4990 1.389 . S
C4991 C4992 1.387 . S
C4992 H4977 0.930 . S
C4992 C4987 1.390 . S
C4992 C4991 1.387 . S
H4993 C5005 0.930 . S
H4994 C5007 0.930 . S
H4995 C5008 0.930 . S
H4996 C5012 0.959 . S
H4997 C5012 0.959 . S
H4998 C5012 0.961 . S
H4999 C5013 0.960 . S
H5000 C5013 0.961 . S
H5001 C5013 0.959 . S
H5002 C5016 0.929 . S
H5003 C5017 0.931 . S
H5004 C5019 0.930 . S
C5005 H4993 0.930 . S
C5005 C5006 1.399 . S
C5005 C5010 1.399 . S
C5006 C5005 1.399 . S
C5006 C5007 1.376 . S
C5007 H4994 0.930 . S
C5007 C5006 1.376 . S
C5007 C5008 1.388 . S
C5008 H4995 0.930 . S
C5008 C5007 1.388 . S
C5008 C5009 1.390 . S
C5009 C5008 1.390 . S
C5009 C5010 1.394 . S
C5009 C5015 1.465 . S
C5010 C5005 1.399 . S
C5010 C5009 1.394 . S
C5010 C5011 1.516 . S
C5011 C5010 1.516 . S
C5011 C5012 1.502 . S
C5011 C5013 1.561 . S
C5011 C5014 1.526 . S
C5012 H4996 0.959 . S
C5012 H4997 0.959 . S
C5012 H4998 0.961 . S
C5012 C5011 1.502 . S
C5013 H4999 0.960 . S
C5013 H5000 0.961 . S
C5013 H5001 0.959 . S
C5013 C5011 1.561 . S
C5014 C5011 1.526 . S
C5014 C5015 1.396 . S
C5014 C5019 1.390 . S
C5015 C5009 1.465 . S
C5015 C5014 1.396 . S
C5015 C5016 1.399 . S
C5016 H5002 0.929 . S
C5016 C5015 1.399 . S
C5016 C5017 1.385 . S
C5017 H5003 0.931 . S
C5017 C5016 1.385 . S
C5017 C5018 1.389 . S
C5018 C5017 1.389 . S
C5018 C5019 1.387 . S
C5019 H5004 0.930 . S
C5019 C5014 1.390 . S
C5019 C5018 1.387 . S
H5020 C5032 0.930 . S
H5021 C5034 0.930 . S
H5022 C5035 0.930 . S
H5023 C5039 0.959 . S
H5024 C5039 0.959 . S
H5025 C5039 0.961 . S
H5026 C5040 0.960 . S
H5027 C5040 0.961 . S
H5028 C5040 0.959 . S
H5029 C5043 0.929 . S
H5030 C5044 0.931 . S
H5031 C5046 0.930 . S
C5032 H5020 0.930 . S
C5032 C5033 1.399 . S
C5032 C5037 1.399 . S
C5033 C5032 1.399 . S
C5033 C5034 1.376 . S
C5034 H5021 0.930 . S
C5034 C5033 1.376 . S
C5034 C5035 1.388 . S
C5035 H5022 0.930 . S
C5035 C5034 1.388 . S
C5035 C5036 1.390 . S
C5036 C5035 1.390 . S
C5036 C5037 1.394 . S
C5036 C5042 1.465 . S
C5037 C5032 1.399 . S
C5037 C5036 1.394 . S
C5037 C5038 1.516 . S
C5038 C5037 1.516 . S
C5038 C5039 1.502 . S
C5038 C5040 1.561 . S
C5038 C5041 1.526 . S
C5039 H5023 0.959 . S
C5039 H5024 0.959 . S
C5039 H5025 0.961 . S
C5039 C5038 1.502 . S
C5040 H5026 0.960 . S
C5040 H5027 0.961 . S
C5040 H5028 0.959 . S
C5040 C5038 1.561 . S
C5041 C5038 1.526 . S
C5041 C5042 1.396 . S
C5041 C5046 1.390 . S
C5042 C5036 1.465 . S
C5042 C5041 1.396 . S
C5042 C5043 1.399 . S
C5043 H5029 0.929 . S
C5043 C5042 1.399 . S
C5043 C5044 1.385 . S
C5044 H5030 0.931 . S
C5044 C5043 1.385 . S
C5044 C5045 1.389 . S
C5045 C5044 1.389 . S
C5045 C5046 1.387 . S
C5046 H5031 0.930 . S
C5046 C5041 1.390 . S
C5046 C5045 1.387 . S
H5047 C5059 0.930 . S
H5048 C5061 0.930 . S
H5049 C5062 0.930 . S
H5050 C5066 0.959 . S
H5051 C5066 0.959 . S
H5052 C5066 0.961 . S
H5053 C5067 0.960 . S
H5054 C5067 0.961 . S
H5055 C5067 0.959 . S
H5056 C5070 0.929 . S
H5057 C5071 0.931 . S
H5058 C5073 0.930 . S
C5059 H5047 0.930 . S
C5059 C5060 1.399 . S
C5059 C5064 1.399 . S
C5060 C5059 1.399 . S
C5060 C5061 1.376 . S
C5061 H5048 0.930 . S
C5061 C5060 1.376 . S
C5061 C5062 1.388 . S
C5062 H5049 0.930 . S
C5062 C5061 1.388 . S
C5062 C5063 1.390 . S
C5063 C5062 1.390 . S
C5063 C5064 1.394 . S
C5063 C5069 1.465 . S
C5064 C5059 1.399 . S
C5064 C5063 1.394 . S
C5064 C5065 1.516 . S
C5065 C5064 1.516 . S
C5065 C5066 1.502 . S
C5065 C5067 1.561 . S
C5065 C5068 1.526 . S
C5066 H5050 0.959 . S
C5066 H5051 0.959 . S
C5066 H5052 0.961 . S
C5066 C5065 1.502 . S
C5067 H5053 0.960 . S
C5067 H5054 0.961 . S
C5067 H5055 0.959 . S
C5067 C5065 1.561 . S
C5068 C5065 1.526 . S
C5068 C5069 1.396 . S
C5068 C5073 1.390 . S
C5069 C5063 1.465 . S
C5069 C5068 1.396 . S
C5069 C5070 1.399 . S
C5070 H5056 0.929 . S
C5070 C5069 1.399 . S
C5070 C5071 1.385 . S
C5071 H5057 0.931 . S
C5071 C5070 1.385 . S
C5071 C5072 1.389 . S
C5072 C5071 1.389 . S
C5072 C5073 1.387 . S
C5073 H5058 0.930 . S
C5073 C5068 1.390 . S
C5073 C5072 1.387 . S
H5074 C5086 0.930 . S
H5075 C5088 0.930 . S
H5076 C5089 0.930 . S
H5077 C5093 0.959 . S
H5078 C5093 0.959 . S
H5079 C5093 0.961 . S
H5080 C5094 0.960 . S
H5081 C5094 0.961 . S
H5082 C5094 0.959 1_455 S
H5083 C5097 0.929 . S
H5084 C5098 0.931 . S
H5085 C5100 0.930 . S
C5086 H5074 0.930 . S
C5086 C5087 1.399 . S
C5086 C5091 1.399 . S
C5087 C5086 1.399 . S
C5087 C5088 1.376 . S
C5088 H5075 0.930 . S
C5088 C5087 1.376 . S
C5088 C5089 1.388 . S
C5089 H5076 0.930 . S
C5089 C5088 1.388 . S
C5089 C5090 1.390 . S
C5090 C5089 1.390 . S
C5090 C5091 1.394 . S
C5090 C5096 1.465 . S
C5091 C5086 1.399 . S
C5091 C5090 1.394 . S
C5091 C5092 1.516 . S
C5092 C5091 1.516 . S
C5092 C5093 1.502 . S
C5092 C5094 1.561 . S
C5092 C5095 1.526 . S
C5093 H5077 0.959 . S
C5093 H5078 0.959 . S
C5093 H5079 0.961 . S
C5093 C5092 1.502 . S
C5094 H5080 0.960 . S
C5094 H5081 0.961 . S
C5094 H5082 0.959 1_655 S
C5094 C5092 1.561 . S
C5095 C5092 1.526 . S
C5095 C5096 1.396 . S
C5095 C5100 1.390 . S
C5096 C5090 1.465 . S
C5096 C5095 1.396 . S
C5096 C5097 1.399 . S
C5097 H5083 0.929 . S
C5097 C5096 1.399 . S
C5097 C5098 1.385 . S
C5098 H5084 0.931 . S
C5098 C5097 1.385 . S
C5098 C5099 1.389 . S
C5099 C5098 1.389 . S
C5099 C5100 1.387 . S
C5100 H5085 0.930 . S
C5100 C5095 1.390 . S
C5100 C5099 1.387 . S
H5101 C5113 0.930 . S
H5102 C5115 0.930 . S
H5103 C5116 0.930 . S
H5104 C5120 0.959 . S
H5105 C5120 0.959 . S
H5106 C5120 0.961 . S
H5107 C5121 0.960 . S
H5108 C5121 0.961 . S
H5109 C5121 0.959 . S
H5110 C5124 0.929 . S
H5111 C5125 0.931 . S
H5112 C5127 0.930 . S
C5113 H5101 0.930 . S
C5113 C5114 1.399 . S
C5113 C5118 1.399 . S
C5114 C5113 1.399 . S
C5114 C5115 1.376 . S
C5115 H5102 0.930 . S
C5115 C5114 1.376 . S
C5115 C5116 1.388 . S
C5116 H5103 0.930 . S
C5116 C5115 1.388 . S
C5116 C5117 1.390 . S
C5117 C5116 1.390 . S
C5117 C5118 1.394 . S
C5117 C5123 1.465 . S
C5118 C5113 1.399 . S
C5118 C5117 1.394 . S
C5118 C5119 1.516 . S
C5119 C5118 1.516 . S
C5119 C5120 1.502 . S
C5119 C5121 1.561 . S
C5119 C5122 1.526 . S
C5120 H5104 0.959 . S
C5120 H5105 0.959 . S
C5120 H5106 0.961 . S
C5120 C5119 1.502 . S
C5121 H5107 0.960 . S
C5121 H5108 0.961 . S
C5121 H5109 0.959 . S
C5121 C5119 1.561 . S
C5122 C5119 1.526 . S
C5122 C5123 1.396 . S
C5122 C5127 1.390 . S
C5123 C5117 1.465 . S
C5123 C5122 1.396 . S
C5123 C5124 1.399 . S
C5124 H5110 0.929 . S
C5124 C5123 1.399 . S
C5124 C5125 1.385 . S
C5125 H5111 0.931 . S
C5125 C5124 1.385 . S
C5125 C5126 1.389 . S
C5126 C5125 1.389 . S
C5126 C5127 1.387 . S
C5127 H5112 0.930 . S
C5127 C5122 1.390 . S
C5127 C5126 1.387 . S
H5128 C5140 0.930 . S
H5129 C5142 0.930 . S
H5130 C5143 0.930 . S
H5131 C5147 0.959 . S
H5132 C5147 0.959 . S
H5133 C5147 0.961 . S
H5134 C5148 0.960 . S
H5135 C5148 0.961 . S
H5136 C5148 0.959 . S
H5137 C5151 0.929 . S
H5138 C5152 0.931 . S
H5139 C5154 0.930 . S
C5140 H5128 0.930 . S
C5140 C5141 1.399 . S
C5140 C5145 1.399 . S
C5141 C5140 1.399 . S
C5141 C5142 1.376 . S
C5142 H5129 0.930 . S
C5142 C5141 1.376 . S
C5142 C5143 1.388 . S
C5143 H5130 0.930 . S
C5143 C5142 1.388 . S
C5143 C5144 1.390 . S
C5144 C5143 1.390 . S
C5144 C5145 1.394 . S
C5144 C5150 1.465 . S
C5145 C5140 1.399 . S
C5145 C5144 1.394 . S
C5145 C5146 1.516 . S
C5146 C5145 1.516 . S
C5146 C5147 1.502 . S
C5146 C5148 1.561 . S
C5146 C5149 1.526 . S
C5147 H5131 0.959 . S
C5147 H5132 0.959 . S
C5147 H5133 0.961 . S
C5147 C5146 1.502 . S
C5148 H5134 0.960 . S
C5148 H5135 0.961 . S
C5148 H5136 0.959 . S
C5148 C5146 1.561 . S
C5149 C5146 1.526 . S
C5149 C5150 1.396 . S
C5149 C5154 1.390 . S
C5150 C5144 1.465 . S
C5150 C5149 1.396 . S
C5150 C5151 1.399 . S
C5151 H5137 0.929 . S
C5151 C5150 1.399 . S
C5151 C5152 1.385 . S
C5152 H5138 0.931 . S
C5152 C5151 1.385 . S
C5152 C5153 1.389 . S
C5153 C5152 1.389 . S
C5153 C5154 1.387 . S
C5154 H5139 0.930 . S
C5154 C5149 1.390 . S
C5154 C5153 1.387 . S
H5155 C5167 0.930 . S
H5156 C5169 0.930 . S
H5157 C5170 0.930 . S
H5158 C5174 0.955 . S
H5159 C5174 0.959 . S
H5160 C5174 0.960 1_565 S
H5161 C5175 0.960 . S
H5162 C5175 0.948 1_545 S
H5163 C5175 0.959 . S
H5164 C5178 0.929 . S
H5165 C5179 0.931 . S
H5166 C5181 0.977 . S
C5167 H5155 0.930 . S
C5167 C5168 1.399 . S
C5167 C5172 1.399 . S
C5168 C5167 1.399 . S
C5168 C5169 1.376 . S
C5169 H5156 0.930 . S
C5169 C5168 1.376 . S
C5169 C5170 1.388 . S
C5170 H5157 0.930 . S
C5170 C5169 1.388 . S
C5170 C5171 1.390 . S
C5171 C5170 1.390 . S
C5171 C5172 1.394 . S
C5171 C5177 1.465 . S
C5172 C5167 1.399 . S
C5172 C5171 1.394 . S
C5172 C5173 1.516 . S
C5173 C5172 1.516 . S
C5173 C5174 1.502 1_565 S
C5173 C5175 1.561 . S
C5173 C5176 1.526 . S
C5174 H5158 0.955 . S
C5174 H5159 0.959 . S
C5174 H5160 0.960 1_545 S
C5174 C5173 1.502 1_545 S
C5175 H5161 0.960 . S
C5175 H5162 0.948 1_565 S
C5175 H5163 0.959 . S
C5175 C5173 1.561 . S
C5176 C5173 1.526 . S
C5176 C5177 1.396 . S
C5176 C5181 1.355 1_565 S
C5177 C5171 1.465 . S
C5177 C5176 1.396 . S
C5177 C5178 1.399 . S
C5178 H5164 0.929 . S
C5178 C5177 1.399 . S
C5178 C5179 1.385 . S
C5179 H5165 0.931 . S
C5179 C5178 1.385 . S
C5179 C5180 1.389 . S
C5180 C5179 1.389 . S
C5180 C5181 1.376 1_565 S
C5181 H5166 0.977 . S
C5181 C5176 1.355 1_545 S
C5181 C5180 1.376 1_545 S
H5182 C5194 0.930 . S
H5183 C5196 0.930 . S
H5184 C5197 0.930 . S
H5185 C5201 0.959 . S
H5186 C5201 0.959 . S
H5187 C5201 0.961 . S
H5188 C5202 0.960 . S
H5189 C5202 0.961 . S
H5190 C5202 0.959 . S
H5191 C5205 0.929 . S
H5192 C5206 0.931 . S
H5193 C5208 0.930 . S
C5194 H5182 0.930 . S
C5194 C5195 1.399 . S
C5194 C5199 1.399 . S
C5195 C5194 1.399 . S
C5195 C5196 1.376 . S
C5196 H5183 0.930 . S
C5196 C5195 1.376 . S
C5196 C5197 1.388 . S
C5197 H5184 0.930 . S
C5197 C5196 1.388 . S
C5197 C5198 1.390 . S
C5198 C5197 1.390 . S
C5198 C5199 1.394 . S
C5198 C5204 1.465 . S
C5199 C5194 1.399 . S
C5199 C5198 1.394 . S
C5199 C5200 1.516 . S
C5200 C5199 1.516 . S
C5200 C5201 1.502 . S
C5200 C5202 1.561 . S
C5200 C5203 1.526 . S
C5201 H5185 0.959 . S
C5201 H5186 0.959 . S
C5201 H5187 0.961 . S
C5201 C5200 1.502 . S
C5202 H5188 0.960 . S
C5202 H5189 0.961 . S
C5202 H5190 0.959 . S
C5202 C5200 1.561 . S
C5203 C5200 1.526 . S
C5203 C5204 1.396 . S
C5203 C5208 1.390 . S
C5204 C5198 1.465 . S
C5204 C5203 1.396 . S
C5204 C5205 1.399 . S
C5205 H5191 0.929 . S
C5205 C5204 1.399 . S
C5205 C5206 1.385 . S
C5206 H5192 0.931 . S
C5206 C5205 1.385 . S
C5206 C5207 1.389 . S
C5207 C5206 1.389 . S
C5207 C5208 1.387 . S
C5208 H5193 0.930 . S
C5208 C5203 1.390 . S
C5208 C5207 1.387 . S
H5209 C5221 0.930 . S
H5210 C5223 0.930 . S
H5211 C5224 0.930 . S
H5212 C5228 0.959 . S
H5213 C5228 0.959 . S
H5214 C5228 0.961 . S
H5215 C5229 0.967 1_554 S
H5216 C5229 0.963 1_554 S
H5217 C5229 0.953 . S
H5218 C5232 0.929 . S
H5219 C5233 0.931 . S
H5220 C5235 0.930 . S
C5221 H5209 0.930 . S
C5221 C5222 1.401 . S
C5221 C5226 1.399 . S
C5222 C5221 1.401 . S
C5222 C5223 1.375 1_554 S
C5223 H5210 0.930 . S
C5223 C5222 1.375 1_556 S
C5223 C5224 1.388 . S
C5224 H5211 0.930 . S
C5224 C5223 1.388 . S
C5224 C5225 1.390 . S
C5225 C5224 1.390 . S
C5225 C5226 1.394 1_556 S
C5225 C5231 1.466 . S
C5226 C5221 1.399 . S
C5226 C5225 1.394 1_554 S
C5226 C5227 1.516 . S
C5227 C5226 1.516 . S
C5227 C5228 1.502 . S
C5227 C5229 1.566 1_554 S
C5227 C5230 1.526 . S
C5228 H5212 0.959 . S
C5228 H5213 0.959 . S
C5228 H5214 0.961 . S
C5228 C5227 1.502 . S
C5229 H5215 0.967 1_556 S
C5229 H5216 0.963 1_556 S
C5229 H5217 0.953 . S
C5229 C5227 1.566 1_556 S
C5230 C5227 1.526 . S
C5230 C5231 1.395 1_554 S
C5230 C5235 1.390 . S
C5231 C5225 1.466 . S
C5231 C5230 1.395 1_556 S
C5231 C5232 1.399 . S
C5232 H5218 0.929 . S
C5232 C5231 1.399 . S
C5232 C5233 1.385 . S
C5233 H5219 0.931 . S
C5233 C5232 1.385 . S
C5233 C5234 1.389 1_556 S
C5234 C5233 1.389 1_554 S
C5234 C5235 1.387 . S
C5235 H5220 0.930 . S
C5235 C5230 1.390 . S
C5235 C5234 1.387 . S
H5236 C5248 0.930 . S
H5237 C5250 0.930 . S
H5238 C5251 0.930 . S
H5239 C5255 0.959 . S
H5240 C5255 0.959 . S
H5241 C5255 0.961 . S
H5242 C5256 0.960 . S
H5243 C5256 0.961 . S
H5244 C5256 0.959 . S
H5245 C5259 0.929 . S
H5246 C5260 0.931 . S
H5247 C5262 0.930 . S
C5248 H5236 0.930 . S
C5248 C5249 1.399 . S
C5248 C5253 1.399 . S
C5249 C5248 1.399 . S
C5249 C5250 1.376 . S
C5250 H5237 0.930 . S
C5250 C5249 1.376 . S
C5250 C5251 1.388 . S
C5251 H5238 0.930 . S
C5251 C5250 1.388 . S
C5251 C5252 1.390 . S
C5252 C5251 1.390 . S
C5252 C5253 1.394 . S
C5252 C5258 1.465 . S
C5253 C5248 1.399 . S
C5253 C5252 1.394 . S
C5253 C5254 1.516 . S
C5254 C5253 1.516 . S
C5254 C5255 1.502 . S
C5254 C5256 1.561 . S
C5254 C5257 1.526 . S
C5255 H5239 0.959 . S
C5255 H5240 0.959 . S
C5255 H5241 0.961 . S
C5255 C5254 1.502 . S
C5256 H5242 0.960 . S
C5256 H5243 0.961 . S
C5256 H5244 0.959 . S
C5256 C5254 1.561 . S
C5257 C5254 1.526 . S
C5257 C5258 1.396 . S
C5257 C5262 1.390 . S
C5258 C5252 1.465 . S
C5258 C5257 1.396 . S
C5258 C5259 1.399 . S
C5259 H5245 0.929 . S
C5259 C5258 1.399 . S
C5259 C5260 1.385 . S
C5260 H5246 0.931 . S
C5260 C5259 1.385 . S
C5260 C5261 1.389 . S
C5261 C5260 1.389 . S
C5261 C5262 1.387 . S
C5262 H5247 0.930 . S
C5262 C5257 1.390 . S
C5262 C5261 1.387 . S
H5263 C5275 0.930 . S
H5264 C5277 0.930 . S
H5265 C5278 0.930 . S
H5266 C5282 0.959 . S
H5267 C5282 0.959 . S
H5268 C5282 0.961 . S
H5269 C5283 0.960 . S
H5270 C5283 0.961 . S
H5271 C5283 0.959 . S
H5272 C5286 0.929 . S
H5273 C5287 0.931 . S
H5274 C5289 0.930 . S
C5275 H5263 0.930 . S
C5275 C5276 1.399 1_556 S
C5275 C5280 1.399 . S
C5276 C5275 1.399 1_554 S
C5276 C5277 1.376 . S
C5277 H5264 0.930 . S
C5277 C5276 1.376 . S
C5277 C5278 1.388 . S
C5278 H5265 0.930 . S
C5278 C5277 1.388 . S
C5278 C5279 1.390 . S
C5279 C5278 1.390 . S
C5279 C5280 1.394 1_554 S
C5279 C5285 1.465 . S
C5280 C5275 1.399 . S
C5280 C5279 1.394 1_556 S
C5280 C5281 1.516 . S
C5281 C5280 1.516 . S
C5281 C5282 1.502 . S
C5281 C5283 1.561 . S
C5281 C5284 1.526 . S
C5282 H5266 0.959 . S
C5282 H5267 0.959 . S
C5282 H5268 0.961 . S
C5282 C5281 1.502 . S
C5283 H5269 0.960 . S
C5283 H5270 0.961 . S
C5283 H5271 0.959 . S
C5283 C5281 1.561 . S
C5284 C5281 1.526 . S
C5284 C5285 1.396 1_556 S
C5284 C5289 1.390 . S
C5285 C5279 1.465 . S
C5285 C5284 1.396 1_554 S
C5285 C5286 1.399 . S
C5286 H5272 0.929 . S
C5286 C5285 1.399 . S
C5286 C5287 1.385 . S
C5287 H5273 0.931 . S
C5287 C5286 1.385 . S
C5287 C5288 1.389 1_554 S
C5288 C5287 1.389 1_556 S
C5288 C5289 1.387 . S
C5289 H5274 0.930 . S
C5289 C5284 1.390 . S
C5289 C5288 1.387 . S
H5290 C5302 0.930 . S
H5291 C5304 0.930 . S
H5292 C5305 0.930 . S
H5293 C5309 0.959 . S
H5294 C5309 0.959 . S
H5295 C5309 0.961 . S
H5296 C5310 0.960 . S
H5297 C5310 0.961 . S
H5298 C5310 0.959 . S
H5299 C5313 0.929 . S
H5300 C5314 0.931 . S
H5301 C5316 0.930 . S
C5302 H5290 0.930 . S
C5302 C5303 1.399 . S
C5302 C5307 1.399 . S
C5303 C5302 1.399 . S
C5303 C5304 1.376 . S
C5304 H5291 0.930 . S
C5304 C5303 1.376 . S
C5304 C5305 1.388 . S
C5305 H5292 0.930 . S
C5305 C5304 1.388 . S
C5305 C5306 1.390 . S
C5306 C5305 1.390 . S
C5306 C5307 1.394 . S
C5306 C5312 1.465 . S
C5307 C5302 1.399 . S
C5307 C5306 1.394 . S
C5307 C5308 1.516 . S
C5308 C5307 1.516 . S
C5308 C5309 1.502 . S
C5308 C5310 1.561 . S
C5308 C5311 1.526 . S
C5309 H5293 0.959 . S
C5309 H5294 0.959 . S
C5309 H5295 0.961 . S
C5309 C5308 1.502 . S
C5310 H5296 0.960 . S
C5310 H5297 0.961 . S
C5310 H5298 0.959 . S
C5310 C5308 1.561 . S
C5311 C5308 1.526 . S
C5311 C5312 1.396 . S
C5311 C5316 1.390 . S
C5312 C5306 1.465 . S
C5312 C5311 1.396 . S
C5312 C5313 1.399 . S
C5313 H5299 0.929 . S
C5313 C5312 1.399 . S
C5313 C5314 1.385 . S
C5314 H5300 0.931 . S
C5314 C5313 1.385 . S
C5314 C5315 1.389 . S
C5315 C5314 1.389 . S
C5315 C5316 1.387 . S
C5316 H5301 0.930 . S
C5316 C5311 1.390 . S
C5316 C5315 1.387 . S
H5317 C5329 0.930 . S
H5318 C5331 0.930 . S
H5319 C5332 0.930 . S
H5320 C5336 0.959 . S
H5321 C5336 0.959 . S
H5322 C5336 0.961 . S
H5323 C5337 0.960 . S
H5324 C5337 0.961 . S
H5325 C5337 0.959 . S
H5326 C5340 0.929 . S
H5327 C5341 0.931 . S
H5328 C5343 0.930 . S
C5329 H5317 0.930 . S
C5329 C5330 1.399 . S
C5329 C5334 1.399 . S
C5330 C5329 1.399 . S
C5330 C5331 1.376 . S
C5331 H5318 0.930 . S
C5331 C5330 1.376 . S
C5331 C5332 1.388 . S
C5332 H5319 0.930 . S
C5332 C5331 1.388 . S
C5332 C5333 1.390 . S
C5333 C5332 1.390 . S
C5333 C5334 1.394 . S
C5333 C5339 1.465 . S
C5334 C5329 1.399 . S
C5334 C5333 1.394 . S
C5334 C5335 1.516 . S
C5335 C5334 1.516 . S
C5335 C5336 1.502 . S
C5335 C5337 1.561 . S
C5335 C5338 1.526 . S
C5336 H5320 0.959 . S
C5336 H5321 0.959 . S
C5336 H5322 0.961 . S
C5336 C5335 1.502 . S
C5337 H5323 0.960 . S
C5337 H5324 0.961 . S
C5337 H5325 0.959 . S
C5337 C5335 1.561 . S
C5338 C5335 1.526 . S
C5338 C5339 1.396 . S
C5338 C5343 1.390 . S
C5339 C5333 1.465 . S
C5339 C5338 1.396 . S
C5339 C5340 1.399 . S
C5340 H5326 0.929 . S
C5340 C5339 1.399 . S
C5340 C5341 1.385 . S
C5341 H5327 0.931 . S
C5341 C5340 1.385 . S
C5341 C5342 1.389 . S
C5342 C5341 1.389 . S
C5342 C5343 1.387 . S
C5343 H5328 0.930 . S
C5343 C5338 1.390 . S
C5343 C5342 1.387 . S
C2765 C665 0.977 . S
C2777 C2120 0.999 . S
C2792 C381 1.271 . S
C2804 C2154 1.282 . S
C2819 C460 0.423 . S
C2831 C2223 0.426 . S
C2858 C2261 0.927 . S
C2846 C585 0.906 . S
C2873 C108 1.370 . S
C2885 C2301 1.286 . S
C2912 C2320 0.189 . S
C2900 C196 0.388 . S
C2939 C2354 1.202 . S
C2927 C313 1.245 . S
C2954 C49 1.575 . S
C2966 C2423 1.556 . S
C2993 C2129 2.398 . S
C2981 C1457 2.433 . S
C3008 C1545 0.891 . S
C3020 C2181 0.907 . S
C3047 C2194 1.397 . S
C3035 C1721 1.381 . S
C3074 C2263 1.463 . S
C3062 C1113 1.378 . S
C3089 C1428 1.912 . S
C3101 C2303 1.952 . S
C3128 C2329 1.812 . S
C3116 C1516 1.893 . S
C3155 C2381 0.244 . S
C3143 C1692 0.397 . S
C3182 C2394 2.182 . S
C3170 C1085 2.180 . S
C3209 C2124 2.431 . S
C3197 C988 2.468 . S
C3224 C1817 1.929 . S
C3236 C2434 1.946 . S
C3263 C2484 2.611 . S
C3251 C2081 2.639 . S
C3290 C2543 1.573 . S
C3278 C1993 1.562 . S
C3305 C761 1.424 . S
C3317 C2421 1.354 . S
C3332 C821 1.387 . S
C3344 C2221 1.317 . S
C3359 C2053 2.484 . S
C3371 C2554 2.461 . S
C3398 C2623 0.649 . S
C3386 C1868 0.672 . S
C3425 C2141 0.989 . S
C3413 C372 0.948 . S
C3452 C2609 1.260 . S
C3440 C645 1.272 . S
C3467 C577 0.475 . S
C3479 C2204 0.458 . S
C3494 C497 0.934 . S
C3506 C2560 0.863 . S
C3533 C2280 1.352 . S
C3521 C57 1.316 . S
C3548 C293 0.192 . S
C3560 C2501 0.244 . S
C3587 C2369 1.275 . S
C3575 C205 1.174 . S
C3614 C2644 1.570 . S
C3602 C145 1.562 . S
C3641 C2114 2.395 . S
C3629 C909 2.444 . S
C3668 C2600 0.845 . S
C3656 C1956 0.959 . S
C3683 C724 1.373 . S
C3695 C2209 1.376 . S
C3710 C1780 1.361 . S
C3722 C2564 1.454 . S
C3737 C937 1.910 . S
C3749 C2284 1.934 . S
C3776 C2474 1.854 . S
C3764 C1985 1.868 . S
C3791 C753 0.184 . S
C3803 C2360 0.399 . S
C3818 C1809 2.170 . S
C3830 C2649 2.187 . S
C3845 C1173 2.445 . S
C3857 C2143 2.435 1_655 S
C3872 C1105 1.942 . S
C3884 C2449 1.928 . S
C3899 C1633 2.634 . S
C3911 C2343 2.615 . S
C3926 C1553 1.557 . S
C3938 C2524 1.572 . S
C3965 C2640 1.378 . S
C3953 C1729 1.397 . S
C3980 C1340 1.392 . S
C3992 C2200 1.317 . S
C4019 C2249 2.460 . S
C4007 C1604 2.470 . S
C4046 C2164 0.664 . S
C4034 C1252 0.674 . S
C4061 C489 0.951 . S
C4073 C2680 0.993 . S
C4100 C2594 1.250 . S
C4088 C557 1.271 . S
C4115 C636 0.419 . S
C4127 C2743 0.431 . S
C4142 C409 0.896 . S
C4154 C2581 0.938 . S
C4169 C284 1.378 . S
C4181 C2461 1.283 . S
C4208 C2480 0.186 . S
C4196 C20 0.139 . S
C4235 C2514 1.243 . S
C4223 C137 1.198 . S
C4262 C2663 1.564 . S
C4250 C225 1.570 . S
C4289 C2689 2.400 . S
C4277 C1641 2.432 . S
C4304 C1193 0.885 . S
C4316 C2621 0.917 . S
C4343 C2714 1.357 . S
C4331 C1289 1.397 . S
C4370 C2583 1.435 . S
C4358 C1377 1.425 . S
C4397 C2463 1.955 . S
C4385 C1613 1.876 . S
C4412 C1164 1.893 . S
C4424 C2489 1.820 . S
C4451 C2541 0.280 . S
C4439 C1261 0.377 . S
C4466 C1349 2.175 . S
C4478 C2634 2.184 . S
C4505 C2684 2.436 . S
C4493 C1965 2.470 . S
C4520 C849 1.932 . S
C4532 C2274 1.937 . S
C4559 C2324 2.633 . S
C4547 C929 2.640 . S
C4586 C2383 1.598 . S
C4574 C1017 1.541 . S
C4613 C2661 1.345 . S
C4601 C1897 1.436 . S
C4628 C1789 1.371 . S
C4640 C2741 1.371 . S
C4667 C2234 2.461 . S
C4655 C900 2.484 . S
C4694 C2183 0.669 . S
C4682 C733 0.655 . S
C4709 C548 1.019 . S
C4721 C2701 0.999 . S
C4748 C2169 1.272 . S
C4736 C469 1.265 . S
C4763 C401 0.471 . S
C4775 C2724 0.458 . S
C4790 C673 0.879 . S
C4802 C2240 0.916 . S
C4817 C233 1.315 . S
C4829 C2440 1.354 . S
C4856 C2341 0.140 . S
C4844 C117 0.310 . S
C4871 C29 1.251 . S
C4883 C2529 1.182 . S
C4898 C321 1.541 . S
C4910 C2404 1.547 . S
C4937 C2674 2.396 . S
C4925 C2044 2.444 . S
C4952 C997 0.883 . S
C4964 C2160 0.946 . S
C4991 C2729 1.372 . S
C4979 C1877 1.374 . S
C5006 C812 1.423 . S
C5018 C2244 1.435 . S
C5033 C2073 1.901 . S
C5045 C2444 1.935 . S
C5072 C2314 1.851 . S
C5060 C1025 1.869 . S
C5087 C1905 0.381 . S
C5099 C2520 0.384 . S
C5126 C2409 2.187 . S
C5114 C841 2.171 . S
C5153 C2703 2.458 . S
C5141 C1525 2.450 . S
C5180 C2289 1.915 1_665 S
C5168 C1369 1.934 . S
C5195 C1465 2.633 . S
C5207 C2503 2.610 . S
C5234 C2364 1.567 . S
C5222 C1201 1.567 . S
C5249 C1281 1.417 . S
C5261 C2400 1.388 . S
C5276 C1076 1.393 . S
C5288 C2720 1.316 . S
C5315 C2569 2.468 . S
C5303 C1437 2.471 . S
C5342 C2604 0.682 . S
C5330 C1701 0.672 . S
