# Generated by pormake.
# Topology ocu, (6,8)-cn, num edge types: 1
# Building blocks:
#     Node 0, Type 0, BuildingBlock: KUMJIN_clean_sbu_0, # of connection points: 6
#     Node 1, Type 0, BuildingBlock: KUMJIN_clean_sbu_0, # of connection points: 6
#     Node 2, Type 0, BuildingBlock: KUMJIN_clean_sbu_0, # of connection points: 6
#     Node 3, Type 0, BuildingBlock: KUMJIN_clean_sbu_0, # of connection points: 6
#     Node 4, Type 0, BuildingBlock: KUMJIN_clean_sbu_0, # of connection points: 6
#     Node 5, Type 0, BuildingBlock: KUMJIN_clean_sbu_0, # of connection points: 6
#     Node 6, Type 0, BuildingBlock: KUMJIN_clean_sbu_0, # of connection points: 6
#     Node 7, Type 0, BuildingBlock: KUMJIN_clean_sbu_0, # of connection points: 6
#     Node 8, Type 1, BuildingBlock: TAGTUT_clean_sbu_1, # of connection points: 8
#     Node 9, Type 1, BuildingBlock: TAGTUT_clean_sbu_1, # of connection points: 8
#     Node 10, Type 1, BuildingBlock: TAGTUT_clean_sbu_1, # of connection points: 8
#     Node 11, Type 1, BuildingBlock: TAGTUT_clean_sbu_1, # of connection points: 8
#     Node 12, Type 1, BuildingBlock: TAGTUT_clean_sbu_1, # of connection points: 8
#     Node 13, Type 1, BuildingBlock: TAGTUT_clean_sbu_1, # of connection points: 8
#     Edge 14, Type (0, 1), BuildingBlock: XUDNAN_clean_linker_2, # of connection points: 2
#     Edge 15, Type (0, 1), BuildingBlock: XUDNAN_clean_linker_2, # of connection points: 2
#     Edge 16, Type (0, 1), BuildingBlock: XUDNAN_clean_linker_2, # of connection points: 2
#     Edge 17, Type (0, 1), BuildingBlock: XUDNAN_clean_linker_2, # of connection points: 2
#     Edge 18, Type (0, 1), BuildingBlock: XUDNAN_clean_linker_2, # of connection points: 2
#     Edge 19, Type (0, 1), BuildingBlock: XUDNAN_clean_linker_2, # of connection points: 2
#     Edge 20, Type (0, 1), BuildingBlock: XUDNAN_clean_linker_2, # of connection points: 2
#     Edge 21, Type (0, 1), BuildingBlock: XUDNAN_clean_linker_2, # of connection points: 2
#     Edge 22, Type (0, 1), BuildingBlock: XUDNAN_clean_linker_2, # of connection points: 2
#     Edge 23, Type (0, 1), BuildingBlock: XUDNAN_clean_linker_2, # of connection points: 2
#     Edge 24, Type (0, 1), BuildingBlock: XUDNAN_clean_linker_2, # of connection points: 2
#     Edge 25, Type (0, 1), BuildingBlock: XUDNAN_clean_linker_2, # of connection points: 2
#     Edge 26, Type (0, 1), BuildingBlock: XUDNAN_clean_linker_2, # of connection points: 2
#     Edge 27, Type (0, 1), BuildingBlock: XUDNAN_clean_linker_2, # of connection points: 2
#     Edge 28, Type (0, 1), BuildingBlock: XUDNAN_clean_linker_2, # of connection points: 2
#     Edge 29, Type (0, 1), BuildingBlock: XUDNAN_clean_linker_2, # of connection points: 2
#     Edge 30, Type (0, 1), BuildingBlock: XUDNAN_clean_linker_2, # of connection points: 2
#     Edge 31, Type (0, 1), BuildingBlock: XUDNAN_clean_linker_2, # of connection points: 2
#     Edge 32, Type (0, 1), BuildingBlock: XUDNAN_clean_linker_2, # of connection points: 2
#     Edge 33, Type (0, 1), BuildingBlock: XUDNAN_clean_linker_2, # of connection points: 2
#     Edge 34, Type (0, 1), BuildingBlock: XUDNAN_clean_linker_2, # of connection points: 2
#     Edge 35, Type (0, 1), BuildingBlock: XUDNAN_clean_linker_2, # of connection points: 2
#     Edge 36, Type (0, 1), BuildingBlock: XUDNAN_clean_linker_2, # of connection points: 2
#     Edge 37, Type (0, 1), BuildingBlock: XUDNAN_clean_linker_2, # of connection points: 2
#     Edge 38, Type (0, 1), BuildingBlock: XUDNAN_clean_linker_2, # of connection points: 2
#     Edge 39, Type (0, 1), BuildingBlock: XUDNAN_clean_linker_2, # of connection points: 2
#     Edge 40, Type (0, 1), BuildingBlock: XUDNAN_clean_linker_2, # of connection points: 2
#     Edge 41, Type (0, 1), BuildingBlock: XUDNAN_clean_linker_2, # of connection points: 2
#     Edge 42, Type (0, 1), BuildingBlock: XUDNAN_clean_linker_2, # of connection points: 2
#     Edge 43, Type (0, 1), BuildingBlock: XUDNAN_clean_linker_2, # of connection points: 2
#     Edge 44, Type (0, 1), BuildingBlock: XUDNAN_clean_linker_2, # of connection points: 2
#     Edge 45, Type (0, 1), BuildingBlock: XUDNAN_clean_linker_2, # of connection points: 2
#     Edge 46, Type (0, 1), BuildingBlock: XUDNAN_clean_linker_2, # of connection points: 2
#     Edge 47, Type (0, 1), BuildingBlock: XUDNAN_clean_linker_2, # of connection points: 2
#     Edge 48, Type (0, 1), BuildingBlock: XUDNAN_clean_linker_2, # of connection points: 2
#     Edge 49, Type (0, 1), BuildingBlock: XUDNAN_clean_linker_2, # of connection points: 2
#     Edge 50, Type (0, 1), BuildingBlock: XUDNAN_clean_linker_2, # of connection points: 2
#     Edge 51, Type (0, 1), BuildingBlock: XUDNAN_clean_linker_2, # of connection points: 2
#     Edge 52, Type (0, 1), BuildingBlock: XUDNAN_clean_linker_2, # of connection points: 2
#     Edge 53, Type (0, 1), BuildingBlock: XUDNAN_clean_linker_2, # of connection points: 2
#     Edge 54, Type (0, 1), BuildingBlock: XUDNAN_clean_linker_2, # of connection points: 2
#     Edge 55, Type (0, 1), BuildingBlock: XUDNAN_clean_linker_2, # of connection points: 2
#     Edge 56, Type (0, 1), BuildingBlock: XUDNAN_clean_linker_2, # of connection points: 2
#     Edge 57, Type (0, 1), BuildingBlock: XUDNAN_clean_linker_2, # of connection points: 2
#     Edge 58, Type (0, 1), BuildingBlock: XUDNAN_clean_linker_2, # of connection points: 2
#     Edge 59, Type (0, 1), BuildingBlock: XUDNAN_clean_linker_2, # of connection points: 2
#     Edge 60, Type (0, 1), BuildingBlock: XUDNAN_clean_linker_2, # of connection points: 2
#     Edge 61, Type (0, 1), BuildingBlock: XUDNAN_clean_linker_2, # of connection points: 2
# Relax obj value: 0.099
# Max RMSD: 0.264
# Mean RMSD: 0.150
data_MOF--net-ocu--node1-KUMJIN_clean_sbu_0--node2-TAGTUT_clean_sbu_1--edge1-XUDNAN_clean_linker_2
_symmetry_space_group_name_H-M    P1
_symmetry_Int_Tables_number       1
_symmetry_cell_setting            triclinic
loop_
_symmetry_equiv_pos_as_xyz
'x, y, z'
_cell_length_a     39.642827
_cell_length_b     37.666136
_cell_length_c     43.277857
_cell_angle_alpha  78.55389
_cell_angle_beta   102.10415
_cell_angle_gamma 114.45392
loop_
_atom_site_label
_atom_site_type_symbol
_atom_site_fract_x
_atom_site_fract_y
_atom_site_fract_z
_atom_type_partial_charge
Eu0 Eu 0.26315 0.21325 0.22259 0.0
C1 C 0.38051 0.31754 0.3183 0.0
C2 C 0.39564 0.27444 0.36345 0.0
C3 C 0.44276 0.33893 0.34916 0.0
C4 C 0.37024 0.28175 0.33741 0.0
C5 C 0.41672 0.34681 0.32429 0.0
C6 C 0.43219 0.30286 0.36878 0.0
C7 C 0.39763 0.39092 0.28289 0.0
N8 N 0.35436 0.32451 0.29492 0.0
C9 C 0.36194 0.36121 0.27816 0.0
C10 C 0.42528 0.38358 0.30581 0.0
Eu11 Eu 0.29435 0.27219 0.28845 0.0
N12 N 0.33461 0.25511 0.33189 0.0
C13 C 0.32205 0.22131 0.35237 0.0
C14 C 0.38315 0.2394 0.38403 0.0
C15 C 0.34616 0.21275 0.37849 0.0
H16 H 0.34085 0.36739 0.26045 0.0
H17 H 0.33612 0.18575 0.39444 0.0
H18 H 0.45222 0.29758 0.38844 0.0
H19 H 0.40372 0.41954 0.26896 0.0
H20 H 0.29333 0.20077 0.34858 0.0
H21 H 0.36348 0.24899 0.1403 0.0
H22 H 0.40154 0.23307 0.40467 0.0
H23 H 0.17462 0.20768 0.20588 0.0
H24 H 0.3377 0.22325 0.19114 0.0
H25 H 0.13246 0.22464 0.16071 0.0
H26 H 0.47078 0.36094 0.35398 0.0
H27 H 0.32865 0.27597 0.09422 0.0
H28 H 0.27047 0.28864 0.07054 0.0
H29 H 0.45279 0.4068 0.30964 0.0
H30 H 0.20747 0.28188 0.07607 0.0
N31 N 0.28988 0.23765 0.17454 0.0
C32 C 0.32244 0.23524 0.17122 0.0
C33 C 0.31734 0.26493 0.11653 0.0
C34 C 0.28262 0.26448 0.11937 0.0
C35 C 0.33708 0.24971 0.14247 0.0
C36 C 0.26924 0.24995 0.14897 0.0
H37 H 0.15547 0.25731 0.10936 0.0
N38 N 0.22131 0.23003 0.18054 0.0
C39 C 0.16105 0.23129 0.15803 0.0
C40 C 0.23386 0.24603 0.15208 0.0
C41 C 0.18511 0.22161 0.18363 0.0
C42 C 0.17413 0.24962 0.12908 0.0
C43 C 0.21078 0.25672 0.12566 0.0
O44 O 0.21626 0.15979 0.20845 0.0
O45 O 0.2895 0.21575 0.27442 0.0
O46 O 0.34201 0.28973 0.25976 0.0
O47 O 0.30782 0.27276 0.21032 0.0
O48 O 0.31584 0.20196 0.24532 0.0
O49 O 0.27214 0.16108 0.21773 0.0
O50 O 0.2677 0.30958 0.29658 0.0
O51 O 0.25368 0.2579 0.24295 0.0
O52 O 0.21554 0.19405 0.25231 0.0
O53 O 0.25039 0.21182 0.30066 0.0
O54 O 0.27908 0.3164 0.2502 0.0
O55 O 0.2785 0.26822 0.33491 0.0
C56 C 0.31716 0.20694 0.27415 0.0
C57 C 0.23426 0.13367 0.17167 0.0
C58 C 0.25846 0.11448 0.13276 0.0
C59 C 0.25852 0.11846 0.1645 0.0
C60 C 0.23371 0.1252 0.10835 0.0
C61 C 0.2092 0.14343 0.1467 0.0
C62 C 0.20905 0.13924 0.11536 0.0
C63 C 0.33895 0.29161 0.22858 0.0
C64 C 0.23805 0.14361 0.20417 0.0
C65 C 0.22462 0.27307 0.09652 0.0
C66 C 0.26049 0.27693 0.09338 0.0
C67 C 0.25545 0.29237 0.23104 0.0
C68 C 0.2824 0.32779 0.34812 0.0
C69 C 0.25819 0.34199 0.35619 0.0
C70 C 0.27212 0.3729 0.37519 0.0
C71 C 0.31078 0.38897 0.38618 0.0
C72 C 0.32073 0.34399 0.35966 0.0
C73 C 0.33478 0.37439 0.37859 0.0
C74 C 0.21807 0.1941 0.28329 0.0
C75 C 0.26747 0.29717 0.32673 0.0
H76 H 0.27817 0.11097 0.18333 0.0
H77 H 0.23328 0.12239 0.08382 0.0
H78 H 0.19026 0.15528 0.15114 0.0
H79 H 0.18999 0.14736 0.09635 0.0
H80 H 0.22851 0.32872 0.3477 0.0
H81 H 0.32269 0.41321 0.40027 0.0
H82 H 0.3398 0.3333 0.35397 0.0
H83 H 0.36446 0.38696 0.38717 0.0
Eu84 Eu 0.81318 0.20591 0.25892 0.0
C85 C 0.69864 0.24814 0.30178 0.0
C86 C 0.64396 0.19621 0.27908 0.0
C87 C 0.64002 0.22429 0.3234 0.0
C88 C 0.6817 0.22272 0.27897 0.0
C89 C 0.67805 0.24903 0.3244 0.0
C90 C 0.62303 0.19785 0.30082 0.0
C91 C 0.73472 0.29681 0.3489 0.0
N92 N 0.73585 0.27018 0.30322 0.0
C93 C 0.75398 0.29475 0.32615 0.0
C94 C 0.69654 0.27395 0.34798 0.0
Eu95 Eu 0.76567 0.27085 0.26089 0.0
N96 N 0.70302 0.22128 0.25875 0.0
C97 C 0.68918 0.19044 0.24113 0.0
C98 C 0.62888 0.16741 0.25852 0.0
C99 C 0.65192 0.16386 0.24011 0.0
H100 H 0.78341 0.31318 0.32697 0.0
H101 H 0.64125 0.14012 0.22559 0.0
H102 H 0.594 0.17792 0.30104 0.0
H103 H 0.74934 0.31617 0.36705 0.0
H104 H 0.70666 0.18493 0.22843 0.0
H105 H 0.90366 0.16583 0.36125 0.0
H106 H 0.60013 0.14645 0.25798 0.0
H107 H 0.82909 0.22895 0.1805 0.0
H108 H 0.84437 0.16732 0.33108 0.0
H109 H 0.88204 0.25373 0.15119 0.0
H110 H 0.6238 0.22458 0.34056 0.0
H111 H 0.96141 0.19666 0.33629 0.0
H112 H 0.99226 0.23124 0.28781 0.0
H113 H 0.68173 0.27537 0.36579 0.0
H114 H 0.98648 0.25589 0.23077 0.0
N115 N 0.86805 0.19942 0.28906 0.0
C116 C 0.86914 0.18078 0.31959 0.0
C117 C 0.93538 0.19752 0.32279 0.0
C118 C 0.93378 0.21494 0.2911 0.0
C119 C 0.90281 0.17993 0.33694 0.0
C120 C 0.89916 0.21526 0.27451 0.0
H121 H 0.94554 0.26381 0.17966 0.0
N122 N 0.8617 0.22724 0.22664 0.0
C123 C 0.88646 0.24748 0.17689 0.0
C124 C 0.89592 0.22954 0.2424 0.0
C125 C 0.85629 0.23367 0.19401 0.0
C126 C 0.92224 0.25316 0.19303 0.0
C127 C 0.92722 0.24323 0.22606 0.0
O128 O 0.76332 0.16175 0.23625 0.0
O129 O 0.76902 0.21352 0.27715 0.0
O130 O 0.80588 0.2709 0.30596 0.0
O131 O 0.84686 0.24345 0.2989 0.0
O132 O 0.78691 0.17179 0.30418 0.0
O133 O 0.81267 0.14907 0.25373 0.0
O134 O 0.79846 0.33127 0.27116 0.0
O135 O 0.81723 0.26798 0.24972 0.0
O136 O 0.78405 0.22016 0.20981 0.0
O137 O 0.74436 0.25213 0.21131 0.0
O138 O 0.79586 0.30563 0.21876 0.0
O139 O 0.74067 0.31404 0.24804 0.0
C140 C 0.76414 0.18888 0.30186 0.0
C141 C 0.75347 0.09798 0.2601 0.0
C142 C 0.74153 0.05802 0.31103 0.0
C143 C 0.76524 0.08888 0.29216 0.0
C144 C 0.70611 0.03388 0.29734 0.0
C145 C 0.71755 0.07457 0.24636 0.0
C146 C 0.69413 0.04234 0.26489 0.0
C147 C 0.83639 0.26327 0.31451 0.0
C148 C 0.77693 0.13475 0.24282 0.0
C149 C 0.96212 0.24495 0.24289 0.0
C150 C 0.96539 0.23085 0.27534 0.0
C151 C 0.82336 0.29417 0.22571 0.0
C152 C 0.78376 0.37569 0.22906 0.0
C153 C 0.75521 0.38218 0.20701 0.0
C154 C 0.76153 0.40028 0.17619 0.0
C155 C 0.79796 0.41662 0.16839 0.0
C156 C 0.82067 0.39345 0.2218 0.0
C157 C 0.8277 0.41442 0.19165 0.0
C158 C 0.75742 0.23349 0.19669 0.0
C159 C 0.77251 0.34334 0.25516 0.0
H160 H 0.79306 0.10647 0.30303 0.0
H161 H 0.68794 0.00908 0.31159 0.0
H162 H 0.7075 0.08155 0.22162 0.0
H163 H 0.66654 0.02423 0.25419 0.0
H164 H 0.72672 0.36833 0.2125 0.0
H165 H 0.80316 0.43016 0.1444 0.0
H166 H 0.84355 0.38907 0.23847 0.0
H167 H 0.85588 0.42691 0.18575 0.0
Eu168 Eu 0.73264 0.72306 0.2722 0.0
C169 C 0.83816 0.87413 0.19398 0.0
C170 C 0.79796 0.89026 0.14797 0.0
C171 C 0.85435 0.94199 0.16962 0.0
C172 C 0.80611 0.86253 0.17207 0.0
C173 C 0.86301 0.91391 0.19275 0.0
C174 C 0.82188 0.93017 0.14724 0.0
C175 C 0.90424 0.89475 0.23594 0.0
N176 N 0.84578 0.84621 0.21575 0.0
C177 C 0.87881 0.85564 0.23602 0.0
C178 C 0.89616 0.9241 0.2144 0.0
Eu179 Eu 0.80071 0.78097 0.21554 0.0
N180 N 0.7837 0.8238 0.17348 0.0
C181 C 0.75416 0.8103 0.15016 0.0
C182 C 0.76656 0.87687 0.1249 0.0
C183 C 0.74489 0.83662 0.12574 0.0
H184 H 0.885 0.83306 0.25288 0.0
H185 H 0.72098 0.82584 0.10769 0.0
H186 H 0.81594 0.95199 0.1291 0.0
H187 H 0.93001 0.90223 0.25249 0.0
H188 H 0.73712 0.77923 0.15079 0.0
H189 H 0.79933 0.67026 0.3846 0.0
H190 H 0.75928 0.89721 0.10601 0.0
H191 H 0.6539 0.67355 0.22545 0.0
H192 H 0.78895 0.71941 0.34107 0.0
H193 H 0.60842 0.60545 0.22174 0.0
H194 H 0.87295 0.97275 0.16842 0.0
H195 H 0.75882 0.59977 0.38332 0.0
H196 H 0.70424 0.54754 0.35561 0.0
H197 H 0.91597 0.95435 0.21428 0.0
H198 H 0.65215 0.52999 0.31152 0.0
N199 N 0.74449 0.6773 0.31446 0.0
C200 C 0.77152 0.68878 0.33993 0.0
C201 C 0.75448 0.62125 0.36393 0.0
C202 C 0.7257 0.60982 0.33845 0.0
C203 C 0.77733 0.66099 0.36478 0.0
C204 C 0.72109 0.63901 0.31394 0.0
H205 H 0.61601 0.5514 0.26171 0.0
N206 N 0.68716 0.65846 0.26714 0.0
C207 C 0.63163 0.61174 0.24097 0.0
C208 C 0.69147 0.62925 0.28953 0.0
C209 C 0.65738 0.65039 0.24327 0.0
C210 C 0.63606 0.5813 0.26353 0.0
C211 C 0.66608 0.58986 0.28835 0.0
O212 O 0.68391 0.72639 0.28566 0.0
O213 O 0.7478 0.77231 0.23224 0.0
O214 O 0.8079 0.81948 0.2528 0.0
O215 O 0.7856 0.76949 0.29387 0.0
O216 O 0.69185 0.74182 0.23306 0.0
O217 O 0.73832 0.7499 0.31415 0.0
O218 O 0.84686 0.77002 0.20562 0.0
O219 O 0.78779 0.73576 0.25813 0.0
O220 O 0.7354 0.68272 0.24132 0.0
O221 O 0.74923 0.72953 0.19748 0.0
O222 O 0.84262 0.76058 0.25095 0.0
O223 O 0.79709 0.761 0.17037 0.0
C224 C 0.71603 0.77103 0.21805 0.0
C225 C 0.6861 0.7303 0.34026 0.0
C226 C 0.67092 0.748 0.38534 0.0
C227 C 0.68592 0.75882 0.35662 0.0
C228 C 0.65605 0.70793 0.3975 0.0
C229 C 0.67153 0.69054 0.35275 0.0
C230 C 0.6565 0.67947 0.3813 0.0
C231 C 0.80398 0.80684 0.28321 0.0
C232 C 0.70299 0.74344 0.31087 0.0
C233 C 0.67126 0.56044 0.31208 0.0
C234 C 0.70097 0.57042 0.33714 0.0
C235 C 0.81962 0.73391 0.26873 0.0
C236 C 0.85347 0.77158 0.15239 0.0
C237 C 0.85279 0.74222 0.13661 0.0
C238 C 0.87961 0.75015 0.11667 0.0
C239 C 0.90543 0.78932 0.11106 0.0
C240 C 0.87903 0.81029 0.14637 0.0
C241 C 0.90458 0.81914 0.12536 0.0
C242 C 0.73868 0.69249 0.21074 0.0
C243 C 0.8301 0.7595 0.17763 0.0
H244 H 0.69711 0.78951 0.34666 0.0
H245 H 0.64447 0.69865 0.41968 0.0
H246 H 0.67188 0.66825 0.34053 0.0
H247 H 0.64523 0.64874 0.39096 0.0
H248 H 0.83186 0.71281 0.14099 0.0
H249 H 0.92716 0.79707 0.09654 0.0
H250 H 0.87982 0.83326 0.15847 0.0
H251 H 0.92471 0.84897 0.12101 0.0
Eu252 Eu 0.31814 0.72597 0.27135 0.0
C253 C 0.25306 0.83469 0.16778 0.0
C254 C 0.30524 0.89673 0.15895 0.0
C255 C 0.2513 0.87725 0.11776 0.0
C256 C 0.28828 0.86118 0.17823 0.0
C257 C 0.23402 0.84253 0.13751 0.0
C258 C 0.28673 0.90437 0.12854 0.0
C259 C 0.18104 0.78269 0.14955 0.0
N260 N 0.23677 0.80194 0.18772 0.0
C261 C 0.20094 0.77634 0.17939 0.0
C262 C 0.19777 0.81575 0.12836 0.0
Eu263 Eu 0.27147 0.79396 0.23824 0.0
N264 N 0.30516 0.8531 0.20786 0.0
C265 C 0.33811 0.88025 0.22038 0.0
C266 C 0.33999 0.92383 0.17103 0.0
C267 C 0.35638 0.91562 0.20198 0.0
H268 H 0.1878 0.75069 0.1956 0.0
H269 H 0.38294 0.93666 0.21178 0.0
H270 H 0.29947 0.93123 0.11325 0.0
H271 H 0.1528 0.76211 0.14293 0.0
H272 H 0.35068 0.8745 0.24448 0.0
H273 H 0.20525 0.58247 0.29328 0.0
H274 H 0.35403 0.95139 0.15689 0.0
H275 H 0.39812 0.7692 0.31871 0.0
H276 H 0.24031 0.64359 0.2614 0.0
H277 H 0.42663 0.7602 0.37472 0.0
H278 H 0.23721 0.88375 0.09437 0.0
H279 H 0.22705 0.5705 0.35077 0.0
H280 H 0.27546 0.59305 0.39817 0.0
H281 H 0.18223 0.82068 0.10529 0.0
H282 H 0.33569 0.64127 0.4203 0.0
N283 N 0.28192 0.66664 0.30028 0.0
C284 C 0.25038 0.63901 0.28639 0.0
C285 C 0.24268 0.59754 0.33687 0.0
C286 C 0.27565 0.62538 0.35077 0.0
C287 C 0.2303 0.60417 0.30443 0.0
C288 C 0.29516 0.65989 0.3315 0.0
H289 H 0.39238 0.70344 0.41168 0.0
N290 N 0.34807 0.71851 0.3242 0.0
C291 C 0.3992 0.73933 0.36636 0.0
C292 C 0.32926 0.68665 0.34385 0.0
C293 C 0.38306 0.74427 0.33466 0.0
C294 C 0.37974 0.7073 0.38717 0.0
C295 C 0.34452 0.6802 0.37593 0.0
O296 O 0.369 0.71937 0.26629 0.0
O297 O 0.31932 0.77837 0.23549 0.0
O298 O 0.26589 0.75946 0.19853 0.0
O299 O 0.27219 0.70423 0.23011 0.0
O300 O 0.36981 0.78114 0.26142 0.0
O301 O 0.31477 0.68132 0.24458 0.0
O302 O 0.22319 0.80082 0.24923 0.0
O303 O 0.27005 0.74123 0.27244 0.0
O304 O 0.31786 0.75664 0.31056 0.0
O305 O 0.31765 0.81479 0.28061 0.0
O306 O 0.21941 0.73936 0.25011 0.0
O307 O 0.27974 0.84055 0.26525 0.0
C308 C 0.354 0.79922 0.2386 0.0
C309 C 0.36174 0.65615 0.25778 0.0
C310 C 0.37861 0.60965 0.23913 0.0
C311 C 0.37172 0.64418 0.23361 0.0
C312 C 0.37606 0.58745 0.26937 0.0
C313 C 0.35962 0.63406 0.288 0.0
C314 C 0.367 0.59991 0.29376 0.0
C315 C 0.2633 0.72264 0.20224 0.0
C316 C 0.35066 0.68981 0.24984 0.0
C317 C 0.32452 0.64666 0.39555 0.0
C318 C 0.29019 0.61924 0.38296 0.0
C319 C 0.2355 0.72028 0.27174 0.0
C320 C 0.23157 0.86348 0.26051 0.0
C321 C 0.21482 0.86606 0.28494 0.0
C322 C 0.20323 0.89709 0.28323 0.0
C323 C 0.20953 0.92623 0.2567 0.0
C324 C 0.23748 0.8925 0.23408 0.0
C325 C 0.22653 0.92383 0.23229 0.0
C326 C 0.32276 0.7938 0.30834 0.0
C327 C 0.24403 0.83104 0.26448 0.0
H328 H 0.37266 0.66089 0.21007 0.0
H329 H 0.38102 0.56054 0.27403 0.0
H330 H 0.35171 0.64282 0.30683 0.0
H331 H 0.3651 0.58272 0.31703 0.0
H332 H 0.21123 0.84389 0.30561 0.0
H333 H 0.20074 0.95037 0.25454 0.0
H334 H 0.25071 0.89109 0.21511 0.0
H335 H 0.23112 0.94627 0.21187 0.0
Eu336 Eu 0.31301 0.73895 0.76288 0.0
C337 C 0.1652 0.77939 0.75603 0.0
C338 C 0.11862 0.72231 0.73321 0.0
C339 C 0.09907 0.76479 0.75425 0.0
C340 C 0.15641 0.74774 0.74058 0.0
C341 C 0.13677 0.78766 0.76418 0.0
C342 C 0.08998 0.73202 0.73876 0.0
C343 C 0.18475 0.83649 0.79517 0.0
N344 N 0.20174 0.79923 0.7665 0.0
C345 C 0.21175 0.82677 0.78669 0.0
C346 C 0.14707 0.81729 0.78342 0.0
Eu347 Eu 0.24789 0.78849 0.74622 0.0
N348 N 0.18506 0.73876 0.73715 0.0
C349 C 0.17721 0.70158 0.73087 0.0
C350 C 0.11086 0.68657 0.72281 0.0
C351 C 0.14035 0.67565 0.72261 0.0
H352 H 0.24076 0.84212 0.79578 0.0
H353 H 0.13473 0.64696 0.71664 0.0
H354 H 0.06081 0.71325 0.73277 0.0
H355 H 0.19306 0.85882 0.81072 0.0
H356 H 0.19919 0.69136 0.7322 0.0
H357 H 0.41263 0.87948 0.8065 0.0
H358 H 0.08228 0.66616 0.71699 0.0
H359 H 0.32098 0.70546 0.69897 0.0
H360 H 0.35103 0.82953 0.79194 0.0
H361 H 0.36978 0.7097 0.67032 0.0
H362 H 0.07681 0.77099 0.75983 0.0
H363 H 0.46835 0.8788 0.79004 0.0
H364 H 0.49397 0.85097 0.75697 0.0
H365 H 0.12613 0.82456 0.79024 0.0
H366 H 0.48174 0.80634 0.71782 0.0
N367 N 0.37096 0.79514 0.77244 0.0
C368 C 0.37483 0.82624 0.78682 0.0
C369 C 0.44124 0.85546 0.7848 0.0
C370 C 0.43651 0.82696 0.7662 0.0
C371 C 0.40994 0.85585 0.79421 0.0
C372 C 0.40046 0.79732 0.75988 0.0
H373 H 0.43532 0.75492 0.6844 0.0
N374 N 0.35771 0.7481 0.72957 0.0
C375 C 0.37695 0.72767 0.68923 0.0
C376 C 0.39351 0.773 0.7375 0.0
C377 C 0.3492 0.72545 0.70569 0.0
C378 C 0.41388 0.75307 0.69731 0.0
C379 C 0.42254 0.77639 0.72151 0.0
O380 O 0.29354 0.68159 0.74756 0.0
O381 O 0.25727 0.73504 0.76806 0.0
O382 O 0.27071 0.7845 0.79965 0.0
O383 O 0.31911 0.76059 0.80991 0.0
O384 O 0.27702 0.69817 0.80059 0.0
O385 O 0.33852 0.69778 0.78749 0.0
O386 O 0.28745 0.84376 0.76342 0.0
O387 O 0.30314 0.79158 0.74002 0.0
O388 O 0.27572 0.72729 0.71542 0.0
O389 O 0.23297 0.75845 0.70161 0.0
O390 O 0.27522 0.81441 0.70056 0.0
O391 O 0.24061 0.84281 0.72598 0.0
C392 C 0.24816 0.70716 0.79063 0.0
C393 C 0.29288 0.63175 0.7899 0.0
C394 C 0.28865 0.58849 0.83981 0.0
C395 C 0.30781 0.62307 0.82105 0.0
C396 C 0.25387 0.56184 0.82741 0.0
C397 C 0.25764 0.60515 0.77737 0.0
C398 C 0.23823 0.57048 0.79617 0.0
C399 C 0.29875 0.77675 0.81862 0.0
C400 C 0.31379 0.66924 0.77145 0.0
C401 C 0.45904 0.8036 0.72959 0.0
C402 C 0.46605 0.82882 0.75201 0.0
C403 C 0.30643 0.80999 0.71224 0.0
C404 C 0.29877 0.89756 0.72261 0.0
C405 C 0.2897 0.9029 0.68959 0.0
C406 C 0.31212 0.93556 0.671 0.0
C407 C 0.34469 0.96324 0.68565 0.0
C408 C 0.33216 0.92455 0.73717 0.0
C409 C 0.35513 0.95713 0.71866 0.0
C410 C 0.24781 0.73457 0.69633 0.0
C411 C 0.2726 0.86455 0.7415 0.0
H412 H 0.33529 0.64288 0.83077 0.0
H413 H 0.23932 0.53453 0.84156 0.0
H414 H 0.24506 0.61112 0.75321 0.0
H415 H 0.21125 0.55013 0.78637 0.0
H416 H 0.26351 0.88282 0.6782 0.0
H417 H 0.36149 0.98956 0.67176 0.0
H418 H 0.34005 0.92085 0.76276 0.0
H419 H 0.38049 0.97824 0.73002 0.0
Eu420 Eu 0.24118 0.23245 0.77193 0.0
C421 C 0.35543 0.38509 0.69955 0.0
C422 C 0.31851 0.40473 0.6527 0.0
C423 C 0.37566 0.45369 0.6765 0.0
C424 C 0.32423 0.37556 0.67665 0.0
C425 C 0.38189 0.42416 0.6995 0.0
C426 C 0.34401 0.44399 0.65312 0.0
C427 C 0.41979 0.40137 0.74351 0.0
N428 N 0.36064 0.35578 0.72117 0.0
C429 C 0.39268 0.36308 0.74255 0.0
C430 C 0.41417 0.43215 0.72213 0.0
Eu431 Eu 0.31323 0.2919 0.71901 0.0
N432 N 0.30043 0.33736 0.67687 0.0
C433 C 0.27187 0.32579 0.65242 0.0
C434 C 0.28793 0.39335 0.62858 0.0
C435 C 0.26481 0.3536 0.62821 0.0
H436 H 0.39697 0.33956 0.75946 0.0
H437 H 0.24146 0.34435 0.60938 0.0
H438 H 0.33995 0.46689 0.63509 0.0
H439 H 0.44485 0.40715 0.76086 0.0
H440 H 0.25377 0.29518 0.65195 0.0
H441 H 0.30777 0.18901 0.88825 0.0
H442 H 0.28246 0.41485 0.60979 0.0
H443 H 0.16353 0.17807 0.72734 0.0
H444 H 0.29557 0.23504 0.84258 0.0
H445 H 0.12215 0.10815 0.72462 0.0
H446 H 0.39551 0.48395 0.67619 0.0
H447 H 0.2726 0.11738 0.88798 0.0
H448 H 0.22313 0.06165 0.86004 0.0
H449 H 0.43518 0.46178 0.72293 0.0
H450 H 0.17266 0.03961 0.81541 0.0
N451 N 0.2555 0.18994 0.81586 0.0
C452 C 0.28049 0.20382 0.84191 0.0
C453 C 0.26761 0.13743 0.86761 0.0
C454 C 0.24074 0.12345 0.84148 0.0
C455 C 0.28737 0.17784 0.86793 0.0
C456 C 0.23485 0.15088 0.81584 0.0
H457 H 0.13447 0.05677 0.76503 0.0
N458 N 0.19951 0.1662 0.76826 0.0
C459 C 0.14569 0.11629 0.74343 0.0
C460 C 0.20604 0.13858 0.79116 0.0
C461 C 0.16908 0.15585 0.7451 0.0
C462 C 0.15282 0.08737 0.76622 0.0
C463 C 0.18291 0.09837 0.7908 0.0
O464 O 0.18871 0.23301 0.78033 0.0
O465 O 0.25829 0.28289 0.73302 0.0
O466 O 0.31656 0.33164 0.75381 0.0
O467 O 0.28972 0.28323 0.79456 0.0
O468 O 0.20181 0.25022 0.73101 0.0
O469 O 0.23957 0.25525 0.8135 0.0
O470 O 0.36032 0.28267 0.70824 0.0
O471 O 0.29785 0.24613 0.76112 0.0
O472 O 0.24332 0.1945 0.73818 0.0
O473 O 0.26157 0.24467 0.69709 0.0
O474 O 0.35311 0.27006 0.75617 0.0
O475 O 0.30803 0.26719 0.67592 0.0
C476 C 0.22655 0.28069 0.71757 0.0
C477 C 0.18331 0.23486 0.83382 0.0
C478 C 0.16521 0.25181 0.87766 0.0
C479 C 0.1832 0.26309 0.85052 0.0
C480 C 0.14691 0.21147 0.88771 0.0
C481 C 0.16539 0.1948 0.84424 0.0
C482 C 0.1471 0.18323 0.87108 0.0
C483 C 0.30739 0.32051 0.78302 0.0
C484 C 0.20417 0.24876 0.8067 0.0
C485 C 0.18995 0.07067 0.81537 0.0
C486 C 0.21871 0.0832 0.84075 0.0
C487 C 0.32903 0.24351 0.77301 0.0
C488 C 0.36216 0.27856 0.65458 0.0
C489 C 0.36544 0.24847 0.64235 0.0
C490 C 0.38399 0.25685 0.61579 0.0
C491 C 0.39927 0.29613 0.60169 0.0
C492 C 0.37733 0.31744 0.6402 0.0
C493 C 0.39589 0.32612 0.61384 0.0
C494 C 0.24704 0.20695 0.70783 0.0
C495 C 0.34191 0.26803 0.6819 0.0
H496 H 0.19705 0.29403 0.84215 0.0
H497 H 0.13292 0.20177 0.90864 0.0
H498 H 0.16577 0.17269 0.83181 0.0
H499 H 0.13324 0.15228 0.87917 0.0
H500 H 0.35384 0.21851 0.65385 0.0
H501 H 0.4134 0.30364 0.58101 0.0
H502 H 0.37473 0.34088 0.64928 0.0
H503 H 0.40756 0.35617 0.60268 0.0
Eu504 Eu 0.80392 0.22834 0.76383 0.0
C505 C 0.73927 0.33423 0.66004 0.0
C506 C 0.79338 0.39229 0.64641 0.0
C507 C 0.7382 0.37012 0.60677 0.0
C508 C 0.77546 0.36023 0.66846 0.0
C509 C 0.72004 0.33907 0.6292 0.0
C510 C 0.77479 0.39673 0.61538 0.0
C511 C 0.6657 0.28344 0.64556 0.0
N512 N 0.72249 0.30471 0.68232 0.0
C513 C 0.68587 0.28 0.67588 0.0
C514 C 0.68294 0.31292 0.62202 0.0
Eu515 Eu 0.75905 0.29935 0.73246 0.0
N516 N 0.79255 0.35514 0.69864 0.0
C517 C 0.8266 0.38252 0.709 0.0
C518 C 0.82903 0.4195 0.65649 0.0
C519 C 0.84544 0.4149 0.68808 0.0
H520 H 0.67251 0.25701 0.69393 0.0
H521 H 0.87263 0.43621 0.69635 0.0
H522 H 0.78819 0.42105 0.59805 0.0
H523 H 0.63689 0.26337 0.64035 0.0
H524 H 0.83971 0.37924 0.7333 0.0
H525 H 0.68713 0.09459 0.79963 0.0
H526 H 0.84372 0.44457 0.64032 0.0
H527 H 0.89127 0.26603 0.80174 0.0
H528 H 0.72199 0.15028 0.76252 0.0
H529 H 0.92678 0.25756 0.85503 0.0
H530 H 0.72397 0.37422 0.58289 0.0
H531 H 0.71498 0.08614 0.856 0.0
H532 H 0.77057 0.10828 0.89853 0.0
H533 H 0.66722 0.31559 0.59858 0.0
H534 H 0.83599 0.15242 0.91354 0.0
N535 N 0.76887 0.17359 0.79758 0.0
C536 C 0.73453 0.14687 0.78701 0.0
C537 C 0.73042 0.11066 0.8398 0.0
C538 C 0.76652 0.13693 0.85001 0.0
C539 C 0.71464 0.11527 0.80799 0.0
C540 C 0.7854 0.1683 0.82794 0.0
H541 H 0.89473 0.20761 0.89728 0.0
N542 N 0.83983 0.22157 0.81396 0.0
C543 C 0.89731 0.23931 0.85013 0.0
C544 C 0.82212 0.19299 0.83637 0.0
C545 C 0.87719 0.24401 0.82001 0.0
C546 C 0.87909 0.21113 0.87394 0.0
C547 C 0.84113 0.1872 0.86712 0.0
O548 O 0.84931 0.22009 0.74927 0.0
O549 O 0.80399 0.28017 0.729 0.0
O550 O 0.74988 0.2635 0.69369 0.0
O551 O 0.75453 0.20684 0.72396 0.0
O552 O 0.85569 0.28022 0.74742 0.0
O553 O 0.79265 0.17616 0.74212 0.0
O554 O 0.71324 0.30712 0.7472 0.0
O555 O 0.75945 0.24801 0.76792 0.0
O556 O 0.8161 0.2665 0.80226 0.0
O557 O 0.80945 0.32165 0.77066 0.0
O558 O 0.70767 0.24696 0.7487 0.0
O559 O 0.77026 0.35055 0.75488 0.0
C560 C 0.83843 0.29948 0.72728 0.0
C561 C 0.84235 0.15504 0.74797 0.0
C562 C 0.86122 0.10943 0.73021 0.0
C563 C 0.8447 0.13716 0.72347 0.0
C564 C 0.87491 0.09926 0.76188 0.0
C565 C 0.85554 0.14424 0.7796 0.0
C566 C 0.87167 0.11632 0.78647 0.0
C567 C 0.74563 0.22639 0.69658 0.0
C568 C 0.8277 0.18615 0.73953 0.0
C569 C 0.82198 0.15712 0.88969 0.0
C570 C 0.78472 0.13202 0.88115 0.0
C571 C 0.72506 0.22855 0.76968 0.0
C572 C 0.72127 0.37136 0.75391 0.0
C573 C 0.69988 0.36993 0.77634 0.0
C574 C 0.6879 0.40035 0.77544 0.0
C575 C 0.6977 0.43263 0.75158 0.0
C576 C 0.73056 0.40335 0.72987 0.0
C577 C 0.7187 0.43388 0.72875 0.0
C578 C 0.81968 0.3036 0.79827 0.0
C579 C 0.73539 0.34019 0.75818 0.0
H580 H 0.83477 0.14578 0.69899 0.0
H581 H 0.88792 0.07806 0.76754 0.0
H582 H 0.85384 0.15771 0.7988 0.0
H583 H 0.88208 0.10822 0.81086 0.0
H584 H 0.69341 0.34541 0.79521 0.0
H585 H 0.6888 0.45651 0.75041 0.0
H586 H 0.74729 0.40495 0.7124 0.0
H587 H 0.72602 0.4587 0.71031 0.0
Eu588 Eu 0.76819 0.72295 0.73373 0.0
C589 C 0.89121 0.81377 0.82925 0.0
C590 C 0.88283 0.76296 0.87451 0.0
C591 C 0.94527 0.81083 0.867 0.0
C592 C 0.86789 0.781 0.84638 0.0
C593 C 0.93007 0.8298 0.83996 0.0
C594 C 0.92168 0.77745 0.88424 0.0
C595 C 0.9355 0.88472 0.79884 0.0
N596 N 0.87563 0.83163 0.80343 0.0
C597 C 0.89685 0.8679 0.78939 0.0
C598 C 0.95232 0.86522 0.82389 0.0
Eu599 Eu 0.81004 0.79968 0.78718 0.0
N600 N 0.83048 0.76756 0.83622 0.0
C601 C 0.80632 0.73789 0.85452 0.0
C602 C 0.85826 0.73132 0.89234 0.0
C603 C 0.8198 0.71911 0.88252 0.0
H604 H 0.88397 0.88347 0.7702 0.0
H605 H 0.80048 0.69506 0.89641 0.0
H606 H 0.93365 0.76363 0.9055 0.0
H607 H 0.95224 0.9128 0.7869 0.0
H608 H 0.77653 0.72772 0.84757 0.0
H609 H 0.78731 0.83047 0.62607 0.0
H610 H 0.86864 0.71665 0.914 0.0
H611 H 0.69062 0.64212 0.7488 0.0
H612 H 0.80711 0.79654 0.67615 0.0
H613 H 0.62319 0.61512 0.72857 0.0
H614 H 0.97509 0.82241 0.87531 0.0
H615 H 0.72019 0.80975 0.60418 0.0
H616 H 0.65391 0.76386 0.60887 0.0
H617 H 0.98225 0.87844 0.83135 0.0
H618 H 0.60921 0.70586 0.63705 0.0
N619 N 0.75184 0.75691 0.68403 0.0
C620 C 0.77774 0.78686 0.66742 0.0
C621 C 0.72874 0.7946 0.62644 0.0
C622 C 0.7024 0.76295 0.64273 0.0
C623 C 0.76661 0.80633 0.6387 0.0
C624 C 0.71499 0.74413 0.67166 0.0
H625 H 0.59751 0.65018 0.68144 0.0
N626 N 0.70291 0.69374 0.71492 0.0
C627 C 0.64148 0.64262 0.71706 0.0
C628 C 0.68978 0.71181 0.6877 0.0
C629 C 0.67969 0.65828 0.7286 0.0
C630 C 0.62712 0.66245 0.69046 0.0
C631 C 0.6514 0.69703 0.67502 0.0
O632 O 0.75724 0.66238 0.72881 0.0
O633 O 0.81258 0.74471 0.77541 0.0
O634 O 0.84877 0.81797 0.75003 0.0
O635 O 0.82734 0.76211 0.72429 0.0
O636 O 0.78059 0.68484 0.77863 0.0
O637 O 0.79488 0.7103 0.70019 0.0
O638 O 0.81951 0.85909 0.79491 0.0
O639 O 0.76557 0.77735 0.7459 0.0
O640 O 0.7289 0.70506 0.76982 0.0
O641 O 0.75288 0.75785 0.79957 0.0
O642 O 0.79567 0.83744 0.74263 0.0
O643 O 0.78037 0.809 0.82016 0.0
C644 C 0.80899 0.71183 0.79243 0.0
C645 C 0.76269 0.6499 0.67856 0.0
C646 C 0.77488 0.62624 0.63492 0.0
C647 C 0.78784 0.64821 0.66089 0.0
C648 C 0.73616 0.60554 0.62707 0.0
C649 C 0.72409 0.62941 0.67005 0.0
C650 C 0.71101 0.60729 0.64449 0.0
C651 C 0.85219 0.7973 0.73042 0.0
C652 C 0.77773 0.67233 0.70616 0.0
C653 C 0.63862 0.71652 0.6469 0.0
C654 C 0.66407 0.74944 0.63081 0.0
C655 C 0.7679 0.80982 0.72891 0.0
C656 C 0.81092 0.8663 0.84565 0.0
C657 C 0.78987 0.88321 0.85578 0.0
C658 C 0.80338 0.90205 0.88363 0.0
C659 C 0.83775 0.90292 0.90135 0.0
C660 C 0.84499 0.86754 0.86389 0.0
C661 C 0.85823 0.88567 0.89159 0.0
C662 C 0.72735 0.72371 0.79186 0.0
C663 C 0.79708 0.84712 0.8163 0.0
H664 H 0.81767 0.66378 0.66764 0.0
H665 H 0.72528 0.5887 0.60706 0.0
H666 H 0.70408 0.63027 0.68317 0.0
H667 H 0.68122 0.59154 0.63807 0.0
H668 H 0.76352 0.88236 0.84175 0.0
H669 H 0.84871 0.91675 0.923 0.0
H670 H 0.86137 0.85452 0.85672 0.0
H671 H 0.88455 0.88646 0.90554 0.0
C672 C 0.94437 0.05028 0.55574 0.0
C673 C 0.95529 0.07354 0.45589 0.0
C674 C 0.95295 0.9295 0.46774 0.0
Mg675 Mg 1.01144 0.08035 0.51734 0.0
O676 O 0.99787 0.0259 0.52001 0.0
Mg677 Mg 0.94486 0.99118 0.50655 0.0
Mg678 Mg 1.02287 1.00202 0.49986 0.0
O679 O 0.04721 0.97734 0.48019 0.0
Mg680 Mg 0.03183 0.92238 0.48999 0.0
Mg681 Mg 0.10055 0.01103 0.49367 0.0
C682 C 0.09233 0.07419 0.53302 0.0
C683 C 0.06395 0.06416 0.44189 0.0
O684 O 0.92836 0.02039 0.54022 0.0
O685 O 0.97727 0.07617 0.55213 0.0
O686 O 0.94001 0.03731 0.46653 0.0
O687 O 0.98481 0.09737 0.47082 0.0
O688 O 0.07206 0.09411 0.53129 0.0
O689 O 0.07873 0.03992 0.52394 0.0
C690 C 0.98306 0.94019 0.55855 0.0
O691 O 1.01255 0.95513 0.54486 0.0
O692 O 0.9544 0.94855 0.54755 0.0
O693 O 0.11458 0.97708 0.46074 0.0
O694 O 0.06536 0.91877 0.45901 0.0
O695 O 0.10563 0.96626 0.53498 0.0
C696 C 0.09707 0.94298 0.45089 0.0
O697 O 0.05764 0.90811 0.53743 0.0
O698 O 0.97184 0.90758 0.47325 0.0
C699 C 0.08966 0.93181 0.54897 0.0
O700 O 0.9672 0.96439 0.47553 0.0
O701 O 0.03388 0.04917 0.45487 0.0
O702 O 0.09182 0.05431 0.45268 0.0
C703 C 0.42478 0.05697 0.02866 0.0
C704 C 0.4559 0.09355 0.93608 0.0
C705 C 0.47739 0.94253 0.96573 0.0
Mg706 Mg 0.50156 0.09188 0.00484 0.0
O707 O 0.49423 0.04042 0.00431 0.0
Mg708 Mg 0.44465 1.00445 0.9841 0.0
Mg709 Mg 0.53202 0.01924 0.99996 0.0
O710 O 0.56933 0.99686 0.99616 0.0
Mg711 Mg 0.56102 0.94384 0.99964 0.0
Mg712 Mg 0.61773 0.03218 0.01825 0.0
C713 C 0.58638 0.09643 0.03298 0.0
C714 C 0.59366 0.08405 0.95374 0.0
O715 O 0.41487 0.02907 0.01142 0.0
O716 O 0.45809 0.08339 0.03166 0.0
O717 O 0.44068 0.05544 0.93948 0.0
O718 O 0.482 0.11165 0.95721 0.0
O719 O 0.561 0.11083 0.02395 0.0
O720 O 0.57952 0.05971 0.03312 0.0
C721 C 0.47279 0.95431 0.04844 0.0
O722 O 0.50714 0.97278 0.04345 0.0
O723 O 0.4461 0.96008 0.02864 0.0
O724 O 0.64841 1.00496 0.99433 0.0
O725 O 0.60568 0.95009 0.97474 0.0
O726 O 0.61839 0.98361 0.06317 0.0
C727 C 0.63921 0.97612 0.97822 0.0
O728 O 0.57954 0.92454 0.0491 0.0
O729 O 0.5023 0.92758 0.97654 0.0
C730 C 0.60459 0.94576 0.06927 0.0
O731 O 0.48382 0.9788 0.96717 0.0
O732 O 0.55845 0.06722 0.95656 0.0
O733 O 0.61828 0.07551 0.97428 0.0
C734 C 0.95577 0.58212 0.02518 0.0
C735 C 0.97271 0.58512 0.93447 0.0
C736 C 0.9657 0.42849 0.9812 0.0
Mg737 Mg 1.02654 0.59155 0.99841 0.0
O738 O 1.00791 0.53751 0.01208 0.0
Mg739 Mg 0.95475 0.50602 0.99471 0.0
Mg740 Mg 0.03484 0.50415 0.00735 0.0
O741 O 0.06119 0.47027 1.00287 0.0
Mg742 Mg 0.04274 0.41623 0.01708 0.0
Mg743 Mg 0.11492 0.50195 0.0168 0.0
C744 C 0.10452 0.58035 0.03258 0.0
C745 C 0.0893 0.55204 0.95192 0.0
O746 O 0.93851 0.54737 0.01675 0.0
O747 O 0.99002 0.60352 0.02168 0.0
O748 O 0.95317 0.55026 0.94672 0.0
O749 O 1.00541 0.60465 0.94837 0.0
O750 O 0.08528 0.60158 0.01997 0.0
O751 O 0.09036 0.5425 0.03397 0.0
C752 C 0.97728 0.45345 0.06006 0.0
O753 O 1.0108 0.46421 0.05386 0.0
O754 O 0.95372 0.46577 0.04138 0.0
O755 O 0.12846 0.45833 0.9937 0.0
O756 O 0.07481 0.40451 0.98938 0.0
O757 O 0.11946 0.46047 0.0647 0.0
C758 C 0.10886 0.4241 0.98453 0.0
O759 O 0.07095 0.40262 0.06563 0.0
O760 O 0.98365 0.40631 0.99521 0.0
C761 C 0.10369 0.42495 0.07773 0.0
O762 O 0.98073 0.46627 0.97979 0.0
O763 O 0.05754 0.5438 0.96061 0.0
O764 O 0.11326 0.53935 0.96921 0.0
C765 C 0.46186 0.56597 0.05677 0.0
C766 C 0.50006 0.60311 0.96278 0.0
C767 C 0.44939 0.44853 0.95571 0.0
Mg768 Mg 0.53356 0.58119 0.02925 0.0
O769 O 0.50619 0.52785 0.0237 0.0
Mg770 Mg 0.45455 0.51219 0.99961 0.0
Mg771 Mg 0.52418 0.4977 0.00311 0.0
O772 O 0.54134 0.46692 0.98259 0.0
Mg773 Mg 0.51152 0.41325 0.98083 0.0
Mg774 Mg 0.59324 0.48175 0.00552 0.0
C775 C 0.59923 0.54862 0.04851 0.0
C776 C 0.58572 0.55691 0.95825 0.0
O777 O 0.44314 0.54216 0.03599 0.0
O778 O 0.49757 0.58416 0.05924 0.0
O779 O 0.47363 0.56926 0.9667 0.0
O780 O 0.52822 0.61548 0.98404 0.0
O781 O 0.58674 0.57544 0.04754 0.0
O782 O 0.57897 0.51583 0.03728 0.0
C783 C 0.46173 0.4376 0.04723 0.0
O784 O 0.49388 0.44576 0.03942 0.0
O785 O 0.44174 0.45721 0.03379 0.0
O786 O 0.60162 0.44777 0.9695 0.0
O787 O 0.54448 0.40383 0.95268 0.0
O788 O 0.57525 0.42548 0.04051 0.0
C789 C 0.57984 0.42061 0.9521 0.0
O790 O 0.5176 0.38139 0.02687 0.0
O791 O 0.45968 0.41972 0.95875 0.0
C792 C 0.54792 0.3928 0.04615 0.0
O793 O 0.47023 0.48047 0.96784 0.0
O794 O 0.55464 0.54982 0.96754 0.0
O795 O 0.605 0.53594 0.96964 0.0
C796 C 0.93603 0.57921 0.51575 0.0
C797 C 0.96136 0.59579 0.42484 0.0
C798 C 0.96626 0.43895 0.46756 0.0
Mg799 Mg 1.01041 0.59762 0.49121 0.0
O800 O 0.99501 0.5437 0.49923 0.0
Mg801 Mg 0.94373 0.51138 0.47913 0.0
Mg802 Mg 1.02755 0.51611 0.49554 0.0
O803 O 0.0606 0.48849 0.49252 0.0
Mg804 Mg 0.04767 0.43456 0.50109 0.0
Mg805 Mg 0.11202 0.52272 0.51092 0.0
C806 C 0.0898 0.59282 0.52615 0.0
C807 C 0.08827 0.57382 0.44589 0.0
O808 O 0.92069 0.54681 0.50314 0.0
O809 O 0.97067 0.60163 0.5154 0.0
O810 O 0.94254 0.5589 0.43269 0.0
O811 O 0.99189 0.61439 0.44208 0.0
O812 O 0.06848 0.61169 0.51377 0.0
O813 O 0.07874 0.55538 0.5265 0.0
C814 C 0.9659 0.45827 0.54396 0.0
O815 O 1.00057 0.47152 0.53989 0.0
O816 O 0.94218 0.46914 0.52412 0.0
O817 O 0.1352 0.48838 0.48654 0.0
O818 O 0.08498 0.43482 0.47175 0.0
O819 O 0.11472 0.47822 0.55788 0.0
C820 C 0.1194 0.45798 0.47145 0.0
O821 O 0.07224 0.4183 0.54966 0.0
O822 O 0.98858 0.42135 0.48071 0.0
C823 C 0.10042 0.44098 0.56684 0.0
O824 O 0.97647 0.47674 0.46417 0.0
O825 O 0.054 0.56058 0.451 0.0
O826 O 0.11273 0.56384 0.46529 0.0
C827 C 0.45811 0.08199 0.52764 0.0
C828 C 0.46387 0.0745 0.43446 0.0
C829 C 0.46306 0.92508 0.48428 0.0
Mg830 Mg 0.52423 0.08858 0.4952 0.0
O831 O 0.50759 0.03531 0.51268 0.0
Mg832 Mg 0.45377 1.00252 0.49895 0.0
Mg833 Mg 0.53396 1.0012 0.50777 0.0
O834 O 0.55969 0.96704 0.50258 0.0
Mg835 Mg 0.54038 0.91332 0.5176 0.0
Mg836 Mg 0.61342 0.99778 0.51841 0.0
C837 C 0.60328 0.07744 0.52921 0.0
C838 C 0.59015 0.04944 0.45347 0.0
O839 O 0.43961 0.04668 0.5204 0.0
O840 O 0.49176 0.10236 0.52178 0.0
O841 O 0.44864 0.04074 0.45024 0.0
O842 O 0.49642 0.09836 0.44537 0.0
O843 O 0.58383 0.09803 0.51484 0.0
O844 O 0.58932 0.0395 0.53402 0.0
C845 C 0.47979 0.95284 0.5635 0.0
O846 O 0.51134 0.96127 0.55432 0.0
O847 O 0.45557 0.96559 0.54689 0.0
O848 O 0.62709 0.95346 0.49663 0.0
O849 O 0.57363 0.89938 0.4924 0.0
O850 O 0.61594 0.95623 0.56727 0.0
C851 C 0.60791 0.91886 0.48807 0.0
O852 O 0.56397 0.9016 0.56738 0.0
O853 O 0.48123 0.903 0.49751 0.0
C854 C 0.59682 0.92193 0.58058 0.0
O855 O 0.47826 0.96284 0.48186 0.0
O856 O 0.55786 0.0412 0.46134 0.0
O857 O 0.61362 0.03614 0.47094 0.0
H858 H 0.2126 0.20562 0.34158 0.0
H859 H 0.14712 0.1422 0.2616 0.0
H860 H 0.09215 0.11186 0.29082 0.0
H861 H 0.18091 0.13132 0.40059 0.0
H862 H 0.18169 0.1624 0.42772 0.0
H863 H 0.21244 0.18232 0.39807 0.0
H864 H 0.18543 0.23618 0.37736 0.0
H865 H 0.15384 0.2156 0.40668 0.0
H866 H 0.13575 0.22204 0.36504 0.0
H867 H 0.04798 0.08118 0.33281 0.0
H868 H 1.02267 0.04971 0.38353 0.0
H869 H 0.11679 0.13647 0.43385 0.0
C870 C 0.18665 0.18577 0.32984 0.0
C871 C 0.18426 0.17603 0.29938 0.0
C872 C 0.14962 0.14998 0.28499 0.0
C873 C 0.11821 0.13293 0.30131 0.0
C874 C 0.12178 0.14307 0.33158 0.0
C875 C 0.15527 0.16912 0.34549 0.0
C876 C 0.15371 0.17257 0.37927 0.0
C877 C 0.18393 0.16145 0.40276 0.0
C878 C 0.15739 0.21407 0.38225 0.0
C879 C 0.11469 0.14259 0.38313 0.0
C880 C 0.09617 0.12645 0.35519 0.0
C881 C 0.06174 0.0944 0.35448 0.0
C882 C 0.04723 0.07696 0.38332 0.0
C883 C 0.06743 0.09146 0.41227 0.0
C884 C 0.10024 0.12594 0.41175 0.0
H885 H 0.77453 0.00761 0.33508 0.0
H886 H 0.749 0.09928 0.35847 0.0
H887 H 0.80741 0.11921 0.39649 0.0
H888 H 0.82528 0.98714 0.41608 0.0
H889 H 0.85913 0.97951 0.39936 0.0
H890 H 0.81178 0.96598 0.37926 0.0
H891 H 0.83451 0.00893 0.32789 0.0
H892 H 0.88257 0.02418 0.34625 0.0
H893 H 0.86332 0.06054 0.32852 0.0
H894 H 0.87412 0.13567 0.42502 0.0
H895 H 0.93578 0.13588 0.4522 0.0
H896 H 0.91923 0.03872 0.40356 0.0
C897 C 0.77988 0.02981 0.35005 0.0
C898 C 0.75733 0.05162 0.34432 0.0
C899 C 0.76565 0.08163 0.36331 0.0
C900 C 0.7993 0.09383 0.38428 0.0
C901 C 0.82354 0.07504 0.38618 0.0
C902 C 0.81361 0.0428 0.3704 0.0
C903 C 0.84537 0.02939 0.37448 0.0
C904 C 0.83475 0.98806 0.39338 0.0
C905 C 0.85709 0.03086 0.34236 0.0
C906 C 0.87529 0.06012 0.39373 0.0
C907 C 0.86225 0.086 0.40066 0.0
C908 C 0.88461 0.11548 0.41982 0.0
C909 C 0.92001 0.11617 0.43444 0.0
C910 C 0.93216 0.08753 0.42961 0.0
C911 C 0.91077 0.06138 0.40709 0.0
H912 H 0.81568 0.78678 0.34714 0.0
H913 H 0.83577 0.88812 0.27456 0.0
H914 H 0.8671 0.93189 0.31689 0.0
H915 H 0.8004 0.82977 0.40949 0.0
H916 H 0.82416 0.80505 0.44041 0.0
H917 H 0.79911 0.78273 0.40478 0.0
H918 H 0.85923 0.7776 0.39486 0.0
H919 H 0.88423 0.79948 0.43048 0.0
H920 H 0.90161 0.82125 0.393 0.0
H921 H 0.90008 0.96346 0.36698 0.0
H922 H 0.93854 0.98056 0.4186 0.0
H923 H 0.89865 0.85731 0.45709 0.0
C924 C 0.82598 0.81814 0.3399 0.0
C925 C 0.82296 0.83404 0.3075 0.0
C926 C 0.83771 0.87533 0.29927 0.0
C927 C 0.85517 0.90032 0.32315 0.0
C928 C 0.85746 0.88338 0.35494 0.0
C929 C 0.84349 0.84317 0.36319 0.0
C930 C 0.85277 0.83176 0.39844 0.0
C931 C 0.81698 0.81111 0.4142 0.0
C932 C 0.87584 0.80604 0.40453 0.0
C933 C 0.87569 0.87193 0.40885 0.0
C934 C 0.87711 0.90138 0.38361 0.0
C935 C 0.8986 0.94074 0.38698 0.0
C936 C 0.92006 0.95017 0.41656 0.0
C937 C 0.92098 0.92019 0.44199 0.0
C938 C 0.89764 0.88076 0.4383 0.0
H939 H 0.21151 0.961 0.31131 0.0
H940 H 0.15038 0.83475 0.31292 0.0
H941 H 0.12053 0.83359 0.35758 0.0
H942 H 0.22683 0.96332 0.39624 0.0
H943 H 0.21919 0.00787 0.39351 0.0
H944 H 0.23706 0.99966 0.36174 0.0
H945 H 0.1825 0.00936 0.32118 0.0
H946 H 0.16467 0.01802 0.35275 0.0
H947 H 0.13491 0.98007 0.32815 0.0
H948 H 0.09775 0.8446 0.40151 0.0
H949 H 0.07816 0.86797 0.44082 0.0
H950 H 0.15111 0.9882 0.41134 0.0
C951 C 0.19162 0.93321 0.32093 0.0
C952 C 0.18382 0.89781 0.30889 0.0
C953 C 0.15761 0.86207 0.32218 0.0
C954 C 0.14034 0.8611 0.34751 0.0
C955 C 0.14919 0.89617 0.35922 0.0
C956 C 0.17379 0.93169 0.34629 0.0
C957 C 0.17721 0.96506 0.3632 0.0
C958 C 0.21747 0.98516 0.37965 0.0
C959 C 0.16402 0.99489 0.33993 0.0
C960 C 0.15049 0.94253 0.38746 0.0
C961 C 0.13506 0.90281 0.38468 0.0
C962 C 0.10945 0.87563 0.4039 0.0
C963 C 0.09848 0.88934 0.42617 0.0
C964 C 0.11285 0.93002 0.42912 0.0
C965 C 0.13978 0.95695 0.4098 0.0
H966 H 0.28606 0.99222 0.64959 0.0
H967 H 0.29503 0.89264 0.62192 0.0
H968 H 0.23276 0.87648 0.58932 0.0
H969 H 0.20118 0.9485 0.6657 0.0
H970 H 0.18374 0.98675 0.65017 0.0
H971 H 0.23304 0.99941 0.66271 0.0
H972 H 0.249 0.03726 0.60762 0.0
H973 H 0.20008 0.02734 0.59475 0.0
H974 H 0.22532 0.01388 0.57222 0.0
H975 H 0.16396 0.86236 0.57105 0.0
H976 H 0.10152 0.86497 0.55225 0.0
H977 H 0.13708 0.97048 0.59677 0.0
C978 C 0.2762 0.969 0.6346 0.0
C979 C 0.2948 0.94339 0.63835 0.0
C980 C 0.28104 0.91272 0.61895 0.0
C981 C 0.24525 0.90273 0.6011 0.0
C982 C 0.2248 0.92481 0.60216 0.0
C983 C 0.24044 0.95846 0.61714 0.0
C984 C 0.21187 0.97536 0.617 0.0
C985 C 0.20723 0.97761 0.65092 0.0
C986 C 0.22217 0.01585 0.59669 0.0
C987 C 0.17734 0.94486 0.60124 0.0
C988 C 0.18524 0.916 0.59268 0.0
C989 C 0.15756 0.88512 0.57726 0.0
C990 C 0.12183 0.88611 0.56752 0.0
C991 C 0.11463 0.91784 0.57326 0.0
C992 C 0.1418 0.94562 0.59251 0.0
H993 H 0.23182 0.22513 0.64409 0.0
H994 H 0.22443 0.12608 0.71726 0.0
H995 H 0.19566 0.08105 0.67568 0.0
H996 H 0.14536 0.18276 0.60331 0.0
H997 H 0.15829 0.20544 0.56444 0.0
H998 H 0.18464 0.22912 0.59892 0.0
H999 H 0.24543 0.23081 0.58404 0.0
H1000 H 0.21902 0.20648 0.54958 0.0
H1001 H 0.24793 0.18577 0.57865 0.0
H1002 H 0.16199 0.04713 0.62677 0.0
H1003 H 0.1175 0.02651 0.5783 0.0
H1004 H 0.14438 0.14839 0.53869 0.0
C1005 C 0.22509 0.19407 0.6515 0.0
C1006 C 0.23077 0.17911 0.68389 0.0
C1007 C 0.22049 0.13815 0.69251 0.0
C1008 C 0.20454 0.11249 0.66903 0.0
C1009 C 0.19924 0.12843 0.63721 0.0
C1010 C 0.20892 0.16834 0.62861 0.0
C1011 C 0.19561 0.17807 0.59386 0.0
C1012 C 0.16941 0.20009 0.58993 0.0
C1013 C 0.22899 0.20168 0.57545 0.0
C1014 C 0.1749 0.13713 0.5844 0.0
C1015 C 0.1786 0.10895 0.60933 0.0
C1016 C 0.15949 0.06893 0.60697 0.0
C1017 C 0.13454 0.05747 0.57916 0.0
C1018 C 0.12799 0.08598 0.55468 0.0
C1019 C 0.14961 0.12616 0.55679 0.0
H1020 H 0.92622 0.11373 0.71492 0.0
H1021 H 0.8062 0.06948 0.68546 0.0
H1022 H 0.81402 0.0463 0.6387 0.0
H1023 H 0.95076 0.15204 0.63826 0.0
H1024 H 0.99132 0.1398 0.64477 0.0
H1025 H 0.97602 0.14855 0.67782 0.0
H1026 H 0.97149 0.08003 0.70736 0.0
H1027 H 0.98721 0.0713 0.67449 0.0
H1028 H 0.94376 0.03685 0.68773 0.0
H1029 H 0.8354 0.02976 0.59448 0.0
H1030 H 0.86875 0.02416 0.5545 0.0
H1031 H 0.97517 0.08383 0.61095 0.0
C1032 C 0.90162 0.09841 0.69892 0.0
C1033 C 0.86558 0.09277 0.70383 0.0
C1034 C 0.83398 0.07367 0.68206 0.0
C1035 C 0.83817 0.06042 0.65555 0.0
C1036 C 0.87421 0.06699 0.65104 0.0
C1037 C 0.9054 0.08566 0.67206 0.0
C1038 C 0.94117 0.09166 0.66057 0.0
C1039 C 0.96628 0.13562 0.65502 0.0
C1040 C 0.96213 0.06858 0.68393 0.0
C1041 C 0.9253 0.07419 0.6295 0.0
C1042 C 0.88661 0.05942 0.62474 0.0
C1043 C 0.86569 0.04131 0.59792 0.0
C1044 C 0.88485 0.0383 0.57536 0.0
C1045 C 0.92449 0.05399 0.57948 0.0
C1046 C 0.94485 0.07214 0.60693 0.0
H1047 H 0.89166 0.87508 0.712 0.0
H1048 H 0.88394 0.75805 0.70728 0.0
H1049 H 0.93045 0.78564 0.67 0.0
H1050 H 0.88975 0.90463 0.63351 0.0
H1051 H 0.92154 0.95507 0.63597 0.0
H1052 H 0.89555 0.92762 0.66811 0.0
H1053 H 0.9574 0.94262 0.70754 0.0
H1054 H 0.9836 0.97023 0.67523 0.0
H1055 H 0.99399 0.93035 0.6998 0.0
H1056 H 0.96756 0.82366 0.6256 0.0
H1057 H 0.98859 0.86833 0.57671 0.0
H1058 H 0.97239 0.96015 0.61031 0.0
C1059 C 0.90102 0.85554 0.70417 0.0
C1060 C 0.88456 0.81458 0.71272 0.0
C1061 C 0.89637 0.78964 0.70107 0.0
C1062 C 0.92301 0.80506 0.68006 0.0
C1063 C 0.93774 0.84553 0.67101 0.0
C1064 C 0.92727 0.87048 0.68286 0.0
C1065 C 0.94237 0.91178 0.6657 0.0
C1066 C 0.91041 0.92553 0.64988 0.0
C1067 C 0.97106 0.94043 0.68843 0.0
C1068 C 0.96109 0.90564 0.64124 0.0
C1069 C 0.95911 0.86754 0.64513 0.0
C1070 C 0.97034 0.85389 0.62282 0.0
C1071 C 0.98243 0.87937 0.59523 0.0
C1072 C 0.98264 0.9176 0.59034 0.0
C1073 C 0.97334 0.93124 0.61417 0.0
H1074 H 0.31826 0.15526 0.10041 0.0
H1075 H 0.25446 0.03914 0.14474 0.0
H1076 H 0.29063 0.0115 0.12344 0.0
H1077 H 0.32483 0.12761 0.02969 0.0
H1078 H 0.37224 0.16202 0.02667 0.0
H1079 H 0.34301 0.17297 0.04686 0.0
H1080 H 0.39226 0.18191 0.09765 0.0
H1081 H 0.42194 0.17153 0.07748 0.0
H1082 H 0.40843 0.14306 0.11483 0.0
H1083 H 0.32897 0.99607 0.09194 0.0
H1084 H 0.37263 0.99445 0.05933 0.0
H1085 H 0.41512 0.12153 0.03896 0.0
C1086 C 0.31258 0.12416 0.10613 0.0
C1087 C 0.28389 0.09921 0.12436 0.0
C1088 C 0.27671 0.05864 0.13114 0.0
C1089 C 0.29693 0.04275 0.11897 0.0
C1090 C 0.32457 0.06799 0.10045 0.0
C1091 C 0.33298 0.10799 0.09465 0.0
C1092 C 0.36393 0.12868 0.07399 0.0
C1093 C 0.35016 0.14901 0.04244 0.0
C1094 C 0.3987 0.15803 0.09207 0.0
C1095 C 0.37118 0.09405 0.06856 0.0
C1096 C 0.34788 0.05925 0.0837 0.0
C1097 C 0.34777 0.0231 0.08045 0.0
C1098 C 0.37243 0.02246 0.06169 0.0
C1099 C 0.39737 0.05785 0.04683 0.0
C1100 C 0.39667 0.09406 0.05041 0.0
H1101 H 0.81633 0.31434 0.16252 0.0
H1102 H 0.89954 0.31315 0.24489 0.0
H1103 H 0.95003 0.35017 0.21089 0.0
H1104 H 0.86474 0.30581 0.10282 0.0
H1105 H 0.84863 0.33849 0.07318 0.0
H1106 H 0.82058 0.30843 0.10374 0.0
H1107 H 0.81989 0.37081 0.12008 0.0
H1108 H 0.8479 0.40093 0.08965 0.0
H1109 H 0.86366 0.41064 0.13044 0.0
H1110 H 0.99163 0.39241 0.16581 0.0
H1111 H 1.01779 0.43517 0.1176 0.0
H1112 H 0.90491 0.408 0.06746 0.0
C1113 C 0.84518 0.32092 0.17329 0.0
C1114 C 0.85406 0.30979 0.20606 0.0
C1115 C 0.89216 0.32026 0.21956 0.0
C1116 C 0.92093 0.34155 0.20042 0.0
C1117 C 0.91104 0.35228 0.16795 0.0
C1118 C 0.87384 0.34204 0.15473 0.0
C1119 C 0.86969 0.35895 0.12013 0.0
C1120 C 0.84974 0.32595 0.09871 0.0
C1121 C 0.84908 0.38698 0.11479 0.0
C1122 C 0.91036 0.38098 0.11567 0.0
C1123 C 0.93412 0.37671 0.14319 0.0
C1124 C 0.97306 0.39566 0.14422 0.0
C1125 C 0.98776 0.41986 0.1167 0.0
C1126 C 0.96354 0.42534 0.08869 0.0
C1127 C 0.92443 0.40492 0.08842 0.0
H1128 H 0.65512 0.76519 0.17191 0.0
H1129 H 0.75327 0.85102 0.2198 0.0
H1130 H 0.73396 0.90442 0.18945 0.0
H1131 H 0.65558 0.82514 0.09408 0.0
H1132 H 0.60524 0.80656 0.0858 0.0
H1133 H 0.62798 0.77643 0.11121 0.0
H1134 H 0.58879 0.76855 0.15513 0.0
H1135 H 0.56718 0.79984 0.12994 0.0
H1136 H 0.59137 0.8118 0.16903 0.0
H1137 H 0.70219 0.94902 0.15376 0.0
H1138 H 0.66516 0.9804 0.11377 0.0
H1139 H 0.58794 0.86566 0.08791 0.0
C1140 C 0.67271 0.7953 0.1758 0.0
C1141 C 0.70624 0.80385 0.1979 0.0
C1142 C 0.72802 0.84365 0.20261 0.0
C1143 C 0.71701 0.8742 0.18558 0.0
C1144 C 0.6839 0.86478 0.16385 0.0
C1145 C 0.66228 0.82621 0.15872 0.0
C1146 C 0.6283 0.8239 0.13365 0.0
C1147 C 0.62935 0.807 0.10446 0.0
C1148 C 0.59175 0.79957 0.14779 0.0
C1149 C 0.63394 0.86709 0.12545 0.0
C1150 C 0.66604 0.89019 0.1433 0.0
C1151 C 0.67708 0.931 0.13973 0.0
C1152 C 0.65555 0.94866 0.11693 0.0
C1153 C 0.6231 0.9259 0.09744 0.0
C1154 C 0.61215 0.88429 0.1024 0.0
H1155 H 0.23141 0.74235 0.14157 0.0
H1156 H 0.26362 0.65064 0.20066 0.0
H1157 H 0.2392 0.6109 0.15677 0.0
H1158 H 0.14598 0.68045 0.11096 0.0
H1159 H 0.14432 0.70621 0.07117 0.0
H1160 H 0.17269 0.73261 0.10377 0.0
H1161 H 0.2311 0.75818 0.07568 0.0
H1162 H 0.20311 0.73214 0.04243 0.0
H1163 H 0.24435 0.72383 0.0626 0.0
H1164 H 0.20288 0.57598 0.11106 0.0
H1165 H 0.15138 0.54633 0.06926 0.0
H1166 H 0.14061 0.65867 0.03889 0.0
C1167 C 0.23404 0.71431 0.14502 0.0
C1168 C 0.24984 0.70006 0.17465 0.0
C1169 C 0.25215 0.6628 0.17827 0.0
C1170 C 0.23854 0.63987 0.15327 0.0
C1171 C 0.22249 0.65432 0.12461 0.0
C1172 C 0.21995 0.69059 0.12031 0.0
C1173 C 0.19627 0.69641 0.08892 0.0
C1174 C 0.16281 0.70431 0.09404 0.0
C1175 C 0.22014 0.72961 0.06605 0.0
C1176 C 0.18383 0.6567 0.07754 0.0
C1177 C 0.20042 0.63343 0.09792 0.0
C1178 C 0.19021 0.5941 0.09449 0.0
C1179 C 0.16087 0.57746 0.07063 0.0
C1180 C 0.14174 0.60004 0.05088 0.0
C1181 C 0.15482 0.64064 0.0534 0.0
H1182 H 0.35639 0.77123 0.86379 0.0
H1183 H 0.26927 0.8174 0.84361 0.0
H1184 H 0.30153 0.85955 0.88616 0.0
H1185 H 0.37785 0.77857 0.95343 0.0
H1186 H 0.42688 0.79219 0.95226 0.0
H1187 H 0.39201 0.75878 0.92604 0.0
H1188 H 0.42266 0.80441 0.87763 0.0
H1189 H 0.45701 0.83823 0.90343 0.0
H1190 H 0.42804 0.85514 0.87123 0.0
H1191 H 0.35152 0.90884 0.91996 0.0
H1192 H 0.41044 0.9534 0.94811 0.0
H1193 H 0.46214 0.87184 0.94812 0.0
C1194 C 0.34314 0.78883 0.8692 0.0
C1195 C 0.31075 0.79159 0.84989 0.0
C1196 C 0.29444 0.81521 0.8577 0.0
C1197 C 0.31249 0.83921 0.88199 0.0
C1198 C 0.34615 0.83826 0.89888 0.0
C1199 C 0.36064 0.81266 0.8935 0.0
C1200 C 0.39919 0.82033 0.91203 0.0
C1201 C 0.39895 0.78539 0.93746 0.0
C1202 C 0.4284 0.83012 0.88975 0.0
C1203 C 0.40506 0.85578 0.92701 0.0
C1204 C 0.37419 0.86565 0.9195 0.0
C1205 C 0.37541 0.90059 0.92708 0.0
C1206 C 0.40905 0.9259 0.94286 0.0
C1207 C 0.44079 0.91592 0.95087 0.0
C1208 C 0.43822 0.88006 0.94316 0.0
H1209 H 0.10659 0.25245 0.9014 0.0
H1210 H 0.22392 0.32034 0.89262 0.0
H1211 H 0.22294 0.37263 0.91868 0.0
H1212 H 0.07822 0.33303 0.88534 0.0
H1213 H 0.04545 0.31277 0.91367 0.0
H1214 H 0.05586 0.2805 0.89505 0.0
H1215 H 0.075 0.24747 0.95057 0.0
H1216 H 0.06437 0.27947 0.96934 0.0
H1217 H 0.11011 0.27749 0.97891 0.0
H1218 H 0.20825 0.41836 0.94535 0.0
H1219 H 0.18134 0.45207 0.97093 0.0
H1220 H 0.07419 0.35308 0.96171 0.0
C1221 C 0.13224 0.27803 0.90535 0.0
C1222 C 0.16529 0.28228 0.89494 0.0
C1223 C 0.19811 0.31662 0.90009 0.0
C1224 C 0.19788 0.34642 0.91498 0.0
C1225 C 0.16464 0.34146 0.92462 0.0
C1226 C 0.13248 0.30801 0.92008 0.0
C1227 C 0.10023 0.30987 0.93217 0.0
C1228 C 0.06805 0.309 0.90493 0.0
C1229 C 0.08665 0.27661 0.95937 0.0
C1230 C 0.11918 0.34958 0.94419 0.0
C1231 C 0.1563 0.3675 0.93971 0.0
C1232 C 0.17918 0.40452 0.94902 0.0
C1233 C 0.16366 0.4235 0.96347 0.0
C1234 C 0.12565 0.40537 0.96841 0.0
C1235 C 0.10336 0.36798 0.95841 0.0
H1236 H 0.65782 0.1663 0.77985 0.0
H1237 H 0.75719 0.24982 0.82886 0.0
H1238 H 0.72974 0.22622 0.87864 0.0
H1239 H 0.58962 0.1691 0.82157 0.0
H1240 H 0.56189 0.11699 0.82488 0.0
H1241 H 0.58836 0.14058 0.79214 0.0
H1242 H 0.62241 0.09253 0.8072 0.0
H1243 H 0.59521 0.06821 0.83935 0.0
H1244 H 0.64558 0.08699 0.84736 0.0
H1245 H 0.69046 0.19757 0.92216 0.0
H1246 H 0.64901 0.15431 0.96108 0.0
H1247 H 0.57621 0.08289 0.88756 0.0
C1248 C 0.67386 0.17921 0.80123 0.0
C1249 C 0.71 0.20979 0.80038 0.0
C1250 C 0.73002 0.22596 0.82882 0.0
C1251 C 0.71433 0.21305 0.85724 0.0
C1252 C 0.6786 0.1834 0.85721 0.0
C1253 C 0.659 0.16566 0.83031 0.0
C1254 C 0.6222 0.13226 0.83783 0.0
C1255 C 0.58852 0.14022 0.81791 0.0
C1256 C 0.62132 0.09265 0.83263 0.0
C1257 C 0.62415 0.13432 0.87306 0.0
C1258 C 0.65662 0.16487 0.88327 0.0
C1259 C 0.66514 0.17338 0.9145 0.0
C1260 C 0.64111 0.14882 0.93639 0.0
C1261 C 0.60904 0.11543 0.92746 0.0
C1262 C 0.59987 0.10872 0.89502 0.0
H1263 H 0.80309 0.64681 0.83681 0.0
H1264 H 0.8856 0.75046 0.79222 0.0
H1265 H 0.93589 0.72863 0.82183 0.0
H1266 H 0.8608 0.64266 0.9147 0.0
H1267 H 0.84234 0.5897 0.92051 0.0
H1268 H 0.81395 0.61505 0.89679 0.0
H1269 H 0.80446 0.57678 0.84997 0.0
H1270 H 0.83358 0.55211 0.87336 0.0
H1271 H 0.8448 0.57948 0.83513 0.0
H1272 H 0.97784 0.6937 0.85674 0.0
H1273 H 1.00676 0.65192 0.89425 0.0
H1274 H 0.89679 0.56956 0.91521 0.0
C1275 C 0.83183 0.66518 0.83355 0.0
C1276 C 0.84026 0.70106 0.81263 0.0
C1277 C 0.87826 0.72356 0.80863 0.0
C1278 C 0.90707 0.7111 0.82524 0.0
C1279 C 0.89773 0.6756 0.84567 0.0
C1280 C 0.86092 0.65309 0.84996 0.0
C1281 C 0.85813 0.61601 0.87311 0.0
C1282 C 0.8429 0.61585 0.90305 0.0
C1283 C 0.8338 0.57891 0.85692 0.0
C1284 C 0.899 0.62064 0.88091 0.0
C1285 C 0.92146 0.65533 0.86496 0.0
C1286 C 0.96029 0.66646 0.86912 0.0
C1287 C 0.97657 0.64226 0.89046 0.0
C1288 C 0.95438 0.6067 0.90756 0.0
C1289 C 0.91483 0.59581 0.90211 0.0
H1290 H 0.182 0.2885 0.22232 0.0
H1291 H 0.28066 0.33231 0.17577 0.0
H1292 H 0.25241 0.36996 0.13309 0.0
H1293 H 0.11245 0.28081 0.14592 0.0
H1294 H 0.08346 0.29513 0.16355 0.0
H1295 H 0.11078 0.26913 0.18824 0.0
H1296 H 0.13994 0.32611 0.2235 0.0
H1297 H 0.11391 0.35251 0.19736 0.0
H1298 H 0.16421 0.37552 0.20554 0.0
H1299 H 0.21722 0.40885 0.09878 0.0
H1300 H 0.17393 0.43947 0.06983 0.0
H1301 H 0.09266 0.36812 0.13366 0.0
C1302 C 0.19699 0.30491 0.20248 0.0
C1303 C 0.23346 0.30629 0.20203 0.0
C1304 C 0.2527 0.32988 0.17644 0.0
C1305 C 0.23678 0.35158 0.15207 0.0
C1306 C 0.20121 0.34994 0.15332 0.0
C1307 C 0.18101 0.32655 0.17741 0.0
C1308 C 0.14339 0.33098 0.17287 0.0
C1309 C 0.11058 0.29164 0.16734 0.0
C1310 C 0.14018 0.34724 0.20153 0.0
C1311 C 0.14592 0.36087 0.14279 0.0
C1312 C 0.17994 0.37158 0.13243 0.0
C1313 C 0.19034 0.40018 0.10648 0.0
C1314 C 0.16542 0.4178 0.09028 0.0
C1315 C 0.12954 0.40681 0.09919 0.0
C1316 C 0.11966 0.37747 0.12597 0.0
H1317 H 0.22119 0.63328 0.81902 0.0
H1318 H 0.20253 0.74075 0.80406 0.0
H1319 H 0.15159 0.70931 0.83734 0.0
H1320 H 0.12432 0.5623 0.82489 0.0
H1321 H 0.13974 0.53081 0.85641 0.0
H1322 H 0.16926 0.56013 0.82664 0.0
H1323 H 0.22324 0.59126 0.87093 0.0
H1324 H 0.19399 0.56197 0.90071 0.0
H1325 H 0.21514 0.61471 0.89949 0.0
H1326 H 0.1059 0.66558 0.87808 0.0
H1327 H 0.07595 0.61852 0.92307 0.0
H1328 H 0.12932 0.54248 0.91307 0.0
C1329 C 0.20565 0.64993 0.82195 0.0
C1330 C 0.21466 0.68916 0.80745 0.0
C1331 C 0.19465 0.71024 0.81303 0.0
C1332 C 0.16597 0.69252 0.83246 0.0
C1333 C 0.15802 0.65368 0.84661 0.0
C1334 C 0.17763 0.63285 0.84156 0.0
C1335 C 0.16747 0.59339 0.86199 0.0
C1336 C 0.14909 0.55967 0.84124 0.0
C1337 C 0.20199 0.59017 0.88462 0.0
C1338 C 0.13956 0.59531 0.88002 0.0
C1339 C 0.13374 0.62986 0.87061 0.0
C1340 C 0.11011 0.63833 0.88531 0.0
C1341 C 0.09298 0.61137 0.91072 0.0
C1342 C 0.10019 0.5768 0.92146 0.0
C1343 C 0.1231 0.56856 0.90528 0.0
H1344 H 0.3183 0.16342 0.78845 0.0
H1345 H 0.37287 0.27661 0.82395 0.0
H1346 H 0.41017 0.24973 0.86728 0.0
H1347 H 0.31836 0.10044 0.87063 0.0
H1348 H 0.32654 0.06512 0.85403 0.0
H1349 H 0.30096 0.09302 0.82939 0.0
H1350 H 0.34954 0.11373 0.78992 0.0
H1351 H 0.37605 0.0884 0.81686 0.0
H1352 H 0.39842 0.1401 0.80361 0.0
H1353 H 0.44799 0.21564 0.90133 0.0
H1354 H 0.47711 0.1724 0.93309 0.0
H1355 H 0.39718 0.07517 0.88224 0.0
C1356 C 0.33688 0.18189 0.80627 0.0
C1357 C 0.34152 0.22211 0.80332 0.0
C1358 C 0.36779 0.2457 0.82615 0.0
C1359 C 0.38946 0.23069 0.85075 0.0
C1360 C 0.38506 0.19165 0.85259 0.0
C1361 C 0.35882 0.16697 0.83167 0.0
C1362 C 0.36141 0.12637 0.83923 0.0
C1363 C 0.32458 0.09436 0.84885 0.0
C1364 C 0.37198 0.11657 0.8107 0.0
C1365 C 0.39316 0.13242 0.86753 0.0
C1366 C 0.40652 0.17078 0.87397 0.0
C1367 C 0.4371 0.18527 0.89705 0.0
C1368 C 0.45372 0.15995 0.91503 0.0
C1369 C 0.4397 0.11937 0.91113 0.0
C1370 C 0.40888 0.10564 0.8864 0.0
H1371 H 0.84974 0.28073 0.8582 0.0
H1372 H 0.82249 0.37676 0.80152 0.0
H1373 H 0.8443 0.41259 0.84811 0.0
H1374 H 0.82964 0.28963 0.93556 0.0
H1375 H 0.86961 0.28 0.95747 0.0
H1376 H 0.84572 0.2583 0.92136 0.0
H1377 H 0.90786 0.28877 0.89763 0.0
H1378 H 0.93204 0.3099 0.93362 0.0
H1379 H 0.93475 0.34095 0.89592 0.0
H1380 H 0.87482 0.4413 0.89827 0.0
H1381 H 0.92105 0.46524 0.94482 0.0
H1382 H 0.93075 0.35197 0.96904 0.0
C1383 C 0.848 0.3091 0.8556 0.0
C1384 C 0.83406 0.32563 0.82613 0.0
C1385 C 0.83267 0.3631 0.82379 0.0
C1386 C 0.8447 0.38364 0.85028 0.0
C1387 C 0.85824 0.36649 0.87896 0.0
C1388 C 0.86051 0.33033 0.88167 0.0
C1389 C 0.88108 0.321 0.91379 0.0
C1390 C 0.85494 0.2851 0.93319 0.0
C1391 C 0.91601 0.31485 0.91 0.0
C1392 C 0.89152 0.3584 0.92811 0.0
C1393 C 0.87701 0.38369 0.90801 0.0
C1394 C 0.88596 0.4216 0.91446 0.0
C1395 C 0.91228 0.43493 0.94107 0.0
C1396 C 0.92984 0.41062 0.96052 0.0
C1397 C 0.91761 0.37118 0.95489 0.0
H1398 H 0.7287 0.87222 0.89167 0.0
H1399 H 0.83173 0.97583 0.90083 0.0
H1400 H 0.80033 0.00686 0.92383 0.0
H1401 H 0.66435 0.92436 0.87215 0.0
H1402 H 0.62994 0.88689 0.89501 0.0
H1403 H 0.65963 0.87395 0.87693 0.0
H1404 H 0.68131 0.84217 0.93197 0.0
H1405 H 0.65191 0.85524 0.95024 0.0
H1406 H 0.70129 0.87102 0.96477 0.0
H1407 H 0.75921 0.02527 0.9489 0.0
H1408 H 0.71077 0.03027 0.97341 0.0
H1409 H 0.63373 0.91489 0.94848 0.0
C1410 C 0.74435 0.90174 0.89794 0.0
C1411 C 0.78271 0.92164 0.89439 0.0
C1412 C 0.80242 0.95996 0.90346 0.0
C1413 C 0.78479 0.97788 0.91648 0.0
C1414 C 0.74728 0.95721 0.92037 0.0
C1415 C 0.72716 0.92006 0.91124 0.0
C1416 C 0.68759 0.90369 0.9194 0.0
C1417 C 0.65867 0.89683 0.88906 0.0
C1418 C 0.6801 0.86579 0.943 0.0
C1419 C 0.68885 0.93718 0.93489 0.0
C1420 C 0.72352 0.96781 0.93503 0.0
C1421 C 0.73186 1.00153 0.94876 0.0
C1422 C 0.70412 1.00405 0.96275 0.0
C1423 C 0.66825 0.97306 0.96298 0.0
C1424 C 0.66069 0.93926 0.94864 0.0
H1425 H 0.90811 0.75297 0.06225 0.0
H1426 H 0.85897 0.67205 0.14287 0.0
H1427 H 0.86538 0.6189 0.12349 0.0
H1428 H 0.87455 0.68291 0.00375 0.0
H1429 H 0.91834 0.70382 0.98804 0.0
H1430 H 0.90342 0.73447 0.00438 0.0
H1431 H 0.96574 0.75581 0.04321 0.0
H1432 H 0.98083 0.72533 0.02697 0.0
H1433 H 0.97941 0.71876 0.06915 0.0
H1434 H 0.8803 0.57446 0.09755 0.0
H1435 H 0.9095 0.54481 0.0703 0.0
H1436 H 0.95697 0.65626 0.01189 0.0
C1437 C 0.8985 0.72423 0.07599 0.0
C1438 C 0.88215 0.71727 0.10389 0.0
C1439 C 0.87008 0.67862 0.1207 0.0
C1440 C 0.87391 0.64792 0.11005 0.0
C1441 C 0.8906 0.65612 0.08287 0.0
C1442 C 0.90319 0.69344 0.0663 0.0
C1443 C 0.92431 0.69553 0.04015 0.0
C1444 C 0.90393 0.70472 0.00713 0.0
C1445 C 0.96498 0.72563 0.04519 0.0
C1446 C 0.92249 0.65386 0.0453 0.0
C1447 C 0.90193 0.63126 0.06942 0.0
C1448 C 0.89645 0.59183 0.0786 0.0
C1449 C 0.91303 0.57524 0.06305 0.0
C1450 C 0.93558 0.59846 0.03935 0.0
C1451 C 0.94002 0.63807 0.03018 0.0
H1452 H 0.33305 0.80871 0.17236 0.0
H1453 H 0.42534 0.8516 0.24762 0.0
H1454 H 0.46642 0.89249 0.20747 0.0
H1455 H 0.38879 0.80314 0.11905 0.0
H1456 H 0.36341 0.81883 0.08315 0.0
H1457 H 0.34003 0.79366 0.11742 0.0
H1458 H 0.32084 0.85163 0.11774 0.0
H1459 H 0.34249 0.87519 0.08244 0.0
H1460 H 0.35646 0.90103 0.11668 0.0
H1461 H 0.49895 0.92683 0.15916 0.0
H1462 H 0.51799 0.95845 0.10631 0.0
H1463 H 0.40503 0.89552 0.06153 0.0
C1464 C 0.36168 0.82734 0.18034 0.0
C1465 C 0.37585 0.82723 0.21334 0.0
C1466 C 0.41377 0.85136 0.22261 0.0
C1467 C 0.43741 0.8746 0.19993 0.0
C1468 C 0.42301 0.87353 0.16771 0.0
C1469 C 0.38589 0.85097 0.15781 0.0
C1470 C 0.37793 0.85498 0.12154 0.0
C1471 C 0.36689 0.81529 0.10959 0.0
C1472 C 0.3476 0.87171 0.1089 0.0
C1473 C 0.41595 0.88412 0.11278 0.0
C1474 C 0.44175 0.89375 0.1398 0.0
C1475 C 0.47886 0.91966 0.13784 0.0
C1476 C 0.48957 0.93731 0.10762 0.0
C1477 C 0.4632 0.92966 0.07957 0.0
C1478 C 0.42601 0.90207 0.08241 0.0
H1479 H 0.73996 0.16475 0.17589 0.0
H1480 H 0.73485 0.2794 0.1457 0.0
H1481 H 0.70334 0.25911 0.09235 0.0
H1482 H 0.74733 0.14251 0.09737 0.0
H1483 H 0.71638 0.09184 0.10567 0.0
H1484 H 0.74691 0.11856 0.13781 0.0
H1485 H 0.68984 0.10186 0.1663 0.0
H1486 H 0.65948 0.07474 0.13469 0.0
H1487 H 0.65098 0.11403 0.14519 0.0
H1488 H 0.66648 0.22395 0.0458 0.0
H1489 H 0.61584 0.17501 0.01472 0.0
H1490 H 0.64025 0.08115 0.07789 0.0
C1491 C 0.73327 0.18605 0.15775 0.0
C1492 C 0.74023 0.22379 0.16445 0.0
C1493 C 0.72983 0.25043 0.14069 0.0
C1494 C 0.71249 0.23928 0.11034 0.0
C1495 C 0.70565 0.20142 0.10462 0.0
C1496 C 0.71521 0.17503 0.12795 0.0
C1497 C 0.69839 0.13395 0.1185 0.0
C1498 C 0.72909 0.12096 0.11459 0.0
C1499 C 0.67315 0.10445 0.14257 0.0
C1500 C 0.67596 0.14065 0.08677 0.0
C1501 C 0.68198 0.18012 0.07855 0.0
C1502 C 0.66183 0.19315 0.05185 0.0
C1503 C 0.63303 0.16503 0.03442 0.0
C1504 C 0.62392 0.12431 0.04438 0.0
C1505 C 0.64705 0.11208 0.06963 0.0
H1506 H 0.69624 0.64601 0.81167 0.0
H1507 H 0.69204 0.7577 0.81706 0.0
H1508 H 0.64726 0.72497 0.85606 0.0
H1509 H 0.59901 0.58056 0.82533 0.0
H1510 H 0.61392 0.54398 0.85052 0.0
H1511 H 0.63926 0.57407 0.81834 0.0
H1512 H 0.70037 0.59567 0.85759 0.0
H1513 H 0.67657 0.56725 0.89086 0.0
H1514 H 0.70341 0.61917 0.89111 0.0
H1515 H 0.60769 0.6805 0.89863 0.0
H1516 H 0.58161 0.62986 0.9433 0.0
H1517 H 0.61729 0.55029 0.91175 0.0
C1518 C 0.68466 0.66322 0.82008 0.0
C1519 C 0.69672 0.70401 0.81105 0.0
C1520 C 0.68255 0.72617 0.8236 0.0
C1521 C 0.65706 0.70784 0.84558 0.0
C1522 C 0.64652 0.66755 0.85486 0.0
C1523 C 0.66007 0.6456 0.84252 0.0
C1524 C 0.64946 0.6044 0.85971 0.0
C1525 C 0.62389 0.57396 0.83712 0.0
C1526 C 0.68452 0.59616 0.87574 0.0
C1527 C 0.62842 0.6067 0.88401 0.0
C1528 C 0.62615 0.64292 0.88056 0.0
C1529 C 0.60907 0.65192 0.9014 0.0
C1530 C 0.59441 0.62318 0.92664 0.0
C1531 C 0.59803 0.58667 0.93099 0.0
C1532 C 0.61464 0.57828 0.9091 0.0
H1533 H 0.33105 0.547 0.84939 0.0
H1534 H 0.29741 0.61673 0.89529 0.0
H1535 H 0.36128 0.64383 0.9248 0.0
H1536 H 0.40269 0.53006 0.91523 0.0
H1537 H 0.43144 0.53464 0.88626 0.0
H1538 H 0.38136 0.51561 0.87618 0.0
H1539 H 0.39073 0.56915 0.82703 0.0
H1540 H 0.44056 0.59062 0.83904 0.0
H1541 H 0.41332 0.62033 0.83289 0.0
H1542 H 0.43055 0.66942 0.9434 0.0
H1543 H 0.4933 0.67083 0.96629 0.0
H1544 H 0.48362 0.59328 0.90077 0.0
C1545 C 0.33649 0.56571 0.86743 0.0
C1546 C 0.30977 0.58003 0.87017 0.0
C1547 C 0.3177 0.60521 0.89334 0.0
C1548 C 0.35419 0.62177 0.90925 0.0
C1549 C 0.38162 0.61208 0.90181 0.0
C1550 C 0.37292 0.58349 0.88245 0.0
C1551 C 0.40751 0.57942 0.87715 0.0
C1552 C 0.40564 0.53747 0.88949 0.0
C1553 C 0.41333 0.59056 0.84193 0.0
C1554 C 0.43711 0.60953 0.89728 0.0
C1555 C 0.42166 0.62868 0.91076 0.0
C1556 C 0.44286 0.65448 0.93311 0.0
C1557 C 0.47906 0.65613 0.94532 0.0
C1558 C 0.49164 0.63015 0.93629 0.0
C1559 C 0.47377 0.61272 0.90822 0.0
H1560 H 0.3731 0.38528 0.79075 0.0
H1561 H 0.2661 0.32307 0.825 0.0
H1562 H 0.28738 0.36444 0.86797 0.0
H1563 H 0.42662 0.38863 0.86017 0.0
H1564 H 0.46189 0.43732 0.85277 0.0
H1565 H 0.4349 0.41055 0.82004 0.0
H1566 H 0.41429 0.46811 0.79442 0.0
H1567 H 0.44121 0.49499 0.82753 0.0
H1568 H 0.3921 0.4856 0.81696 0.0
H1569 H 0.32445 0.39919 0.9141 0.0
H1570 H 0.37473 0.42339 0.95884 0.0
H1571 H 0.45701 0.46734 0.89442 0.0
C1572 C 0.35377 0.38148 0.80651 0.0
C1573 C 0.31828 0.35036 0.80484 0.0
C1574 C 0.29387 0.3458 0.82632 0.0
C1575 C 0.30548 0.3698 0.85054 0.0
C1576 C 0.34144 0.39893 0.85271 0.0
C1577 C 0.3651 0.40536 0.83092 0.0
C1578 C 0.40414 0.43431 0.84129 0.0
C1579 C 0.43357 0.41661 0.84375 0.0
C1580 C 0.41347 0.47305 0.81869 0.0
C1581 C 0.39956 0.43999 0.87367 0.0
C1582 C 0.36284 0.42051 0.87938 0.0
C1583 C 0.353 0.416 0.90956 0.0
C1584 C 0.38158 0.42996 0.93485 0.0
C1585 C 0.41924 0.44834 0.92955 0.0
C1586 C 0.42805 0.45495 0.89846 0.0
H1587 H 0.69933 0.4568 0.81272 0.0
H1588 H 0.62706 0.33767 0.79388 0.0
H1589 H 0.59414 0.32939 0.83885 0.0
H1590 H 0.7087 0.43758 0.89756 0.0
H1591 H 0.70723 0.48299 0.90335 0.0
H1592 H 0.72477 0.48067 0.86895 0.0
H1593 H 0.67661 0.50552 0.83185 0.0
H1594 H 0.65913 0.50817 0.86613 0.0
H1595 H 0.62752 0.4798 0.83535 0.0
H1596 H 0.57011 0.33291 0.88578 0.0
H1597 H 0.55227 0.3498 0.93035 0.0
H1598 H 0.63984 0.46673 0.92004 0.0
C1599 C 0.67615 0.42927 0.81781 0.0
C1600 C 0.66572 0.39778 0.79996 0.0
C1601 C 0.6356 0.36199 0.80748 0.0
C1602 C 0.6168 0.357 0.83296 0.0
C1603 C 0.62843 0.38811 0.85068 0.0
C1604 C 0.65707 0.42371 0.84335 0.0
C1605 C 0.66374 0.45226 0.86643 0.0
C1606 C 0.70347 0.46405 0.88518 0.0
C1607 C 0.65629 0.48857 0.84886 0.0
C1608 C 0.6344 0.427 0.88784 0.0
C1609 C 0.61451 0.3901 0.87825 0.0
C1610 C 0.58542 0.36168 0.89358 0.0
C1611 C 0.57558 0.37153 0.91891 0.0
C1612 C 0.59481 0.40945 0.92875 0.0
C1613 C 0.62511 0.4373 0.91339 0.0
H1614 H 0.70545 0.42308 0.1762 0.0
H1615 H 0.74163 0.36045 0.12494 0.0
H1616 H 0.67741 0.33283 0.09566 0.0
H1617 H 0.61104 0.34447 0.18232 0.0
H1618 H 0.58977 0.37952 0.17811 0.0
H1619 H 0.63759 0.39132 0.19696 0.0
H1620 H 0.6609 0.45458 0.15669 0.0
H1621 H 0.61291 0.44383 0.14008 0.0
H1622 H 0.6466 0.45096 0.11465 0.0
H1623 H 0.6111 0.31554 0.07053 0.0
H1624 H 0.55684 0.32811 0.03946 0.0
H1625 H 0.56321 0.39991 0.10852 0.0
C1626 C 0.69985 0.40418 0.15826 0.0
C1627 C 0.72821 0.39433 0.15221 0.0
C1628 C 0.72021 0.36904 0.12915 0.0
C1629 C 0.68367 0.3523 0.11326 0.0
C1630 C 0.6557 0.36074 0.12128 0.0
C1631 C 0.66365 0.38676 0.14277 0.0
C1632 C 0.62979 0.39423 0.14502 0.0
C1633 C 0.61626 0.37631 0.17754 0.0
C1634 C 0.63804 0.43851 0.13865 0.0
C1635 C 0.60243 0.37182 0.1188 0.0
C1636 C 0.61709 0.35051 0.10687 0.0
C1637 C 0.59905 0.33148 0.07995 0.0
C1638 C 0.56777 0.33822 0.06268 0.0
C1639 C 0.5565 0.36513 0.07185 0.0
C1640 C 0.5712 0.37858 0.10176 0.0
H1641 H 0.74039 0.70167 0.14683 0.0
H1642 H 0.71092 0.61242 0.2281 0.0
H1643 H 0.68716 0.56087 0.19258 0.0
H1644 H 0.66377 0.66358 0.09686 0.0
H1645 H 0.6855 0.6764 0.06135 0.0
H1646 H 0.70818 0.70441 0.09406 0.0
H1647 H 0.76743 0.69063 0.09546 0.0
H1648 H 0.74436 0.66162 0.06294 0.0
H1649 H 0.76384 0.64067 0.09977 0.0
H1650 H 0.6544 0.52122 0.14807 0.0
H1651 H 0.61081 0.49875 0.09953 0.0
H1652 H 0.66363 0.61254 0.04704 0.0
C1653 C 0.73009 0.6713 0.1574 0.0
C1654 C 0.72747 0.66118 0.19025 0.0
C1655 C 0.71313 0.62099 0.20297 0.0
C1656 C 0.70001 0.59144 0.183 0.0
C1657 C 0.70224 0.60249 0.1505 0.0
C1658 C 0.71725 0.64158 0.13787 0.0
C1659 C 0.71144 0.64631 0.10186 0.0
C1660 C 0.69097 0.67426 0.08775 0.0
C1661 C 0.749 0.66064 0.08927 0.0
C1662 C 0.68736 0.60419 0.09607 0.0
C1663 C 0.6838 0.57903 0.12438 0.0
C1664 C 0.65811 0.54006 0.12561 0.0
C1665 C 0.63368 0.52729 0.09783 0.0
C1666 C 0.63467 0.55373 0.06962 0.0
C1667 C 0.66348 0.59156 0.06818 0.0
H1668 H 0.4357 0.64826 0.20334 0.0
H1669 H 0.33784 0.54033 0.21513 0.0
H1670 H 0.34698 0.519 0.16801 0.0
H1671 H 0.42349 0.66355 0.1181 0.0
H1672 H 0.47258 0.68076 0.11518 0.0
H1673 H 0.45823 0.68788 0.14953 0.0
H1674 H 0.49777 0.65191 0.18668 0.0
H1675 H 0.51258 0.6451 0.15246 0.0
H1676 H 0.49051 0.60324 0.1803 0.0
H1677 H 0.36487 0.51118 0.11842 0.0
H1678 H 0.395 0.51242 0.07372 0.0
H1679 H 0.48407 0.62366 0.0959 0.0
C1680 C 0.41639 0.62008 0.19597 0.0
C1681 C 0.38603 0.59582 0.21261 0.0
C1682 C 0.36135 0.55906 0.20265 0.0
C1683 C 0.36619 0.5469 0.17587 0.0
C1684 C 0.39615 0.5717 0.15968 0.0
C1685 C 0.42126 0.60717 0.16966 0.0
C1686 C 0.45197 0.62745 0.14877 0.0
C1687 C 0.45152 0.66727 0.1319 0.0
C1688 C 0.49048 0.63218 0.16821 0.0
C1689 C 0.44 0.59797 0.12533 0.0
C1690 C 0.40744 0.56634 0.13182 0.0
C1691 C 0.39048 0.53568 0.11319 0.0
C1692 C 0.40772 0.53684 0.08767 0.0
C1693 C 0.44191 0.5682 0.08123 0.0
C1694 C 0.45799 0.59931 0.10022 0.0
H1695 H 0.3449 0.35811 0.19036 0.0
H1696 H 0.40148 0.27883 0.2277 0.0
H1697 H 0.44303 0.30955 0.18581 0.0
H1698 H 0.33777 0.34939 0.11249 0.0
H1699 H 0.34401 0.39949 0.09747 0.0
H1700 H 0.32518 0.37725 0.13412 0.0
H1701 H 0.37776 0.43357 0.16337 0.0
H1702 H 0.39652 0.456 0.12659 0.0
H1703 H 0.42608 0.44445 0.1613 0.0
H1704 H 0.47297 0.34491 0.13482 0.0
H1705 H 0.49002 0.3833 0.08267 0.0
H1706 H 0.40739 0.43253 0.07854 0.0
C1707 C 0.36702 0.34837 0.19035 0.0
C1708 C 0.37078 0.31693 0.21218 0.0
C1709 C 0.3993 0.30394 0.21148 0.0
C1710 C 0.42258 0.32087 0.18761 0.0
C1711 C 0.4166 0.35049 0.16496 0.0
C1712 C 0.38976 0.36442 0.16657 0.0
C1713 C 0.38575 0.39333 0.13803 0.0
C1714 C 0.34582 0.37896 0.11947 0.0
C1715 C 0.39723 0.43426 0.14794 0.0
C1716 C 0.41362 0.39269 0.11949 0.0
C1717 C 0.43178 0.36853 0.13536 0.0
C1718 C 0.45893 0.364 0.12227 0.0
C1719 C 0.46823 0.38558 0.09257 0.0
C1720 C 0.44976 0.41049 0.07621 0.0
C1721 C 0.42179 0.41334 0.08992 0.0
H1722 H 0.77586 0.56325 0.61174 0.0
H1723 H 0.83453 0.68913 0.61408 0.0
H1724 H 0.88002 0.69007 0.58264 0.0
H1725 H 0.85755 0.54159 0.6193 0.0
H1726 H 0.83663 0.5048 0.5924 0.0
H1727 H 0.8077 0.51358 0.61452 0.0
H1728 H 0.76685 0.52645 0.56195 0.0
H1729 H 0.79567 0.51768 0.53966 0.0
H1730 H 0.7887 0.56319 0.53069 0.0
H1731 H 0.91952 0.67816 0.55237 0.0
H1732 H 0.95261 0.65405 0.52504 0.0
H1733 H 0.86929 0.53526 0.54073 0.0
C1734 C 0.79812 0.59103 0.60537 0.0
C1735 C 0.80174 0.62615 0.61554 0.0
C1736 C 0.83148 0.66182 0.60701 0.0
C1737 C 0.85732 0.6627 0.58896 0.0
C1738 C 0.85311 0.62767 0.57951 0.0
C1739 C 0.82439 0.59243 0.58736 0.0
C1740 C 0.82708 0.55901 0.57453 0.0
C1741 C 0.83258 0.52793 0.60182 0.0
C1742 C 0.79252 0.5405 0.55026 0.0
C1743 C 0.86198 0.58111 0.55846 0.0
C1744 C 0.87627 0.62068 0.56166 0.0
C1745 C 0.90862 0.64728 0.54964 0.0
C1746 C 0.92728 0.63315 0.53419 0.0
C1747 C 0.91369 0.59268 0.53075 0.0
C1748 C 0.88024 0.56636 0.54276 0.0
H1749 H 0.37218 0.87474 0.71328 0.0
H1750 H 0.30713 0.77206 0.6648 0.0
H1751 H 0.3548 0.79224 0.6297 0.0
H1752 H 0.38896 0.93591 0.64423 0.0
H1753 H 0.43587 0.96959 0.6567 0.0
H1754 H 0.40478 0.94317 0.68563 0.0
H1755 H 0.44979 0.91239 0.71952 0.0
H1756 H 0.48291 0.94178 0.69237 0.0
H1757 H 0.47019 0.88947 0.70011 0.0
H1758 H 0.40693 0.82504 0.59721 0.0
H1759 H 0.44945 0.87495 0.56135 0.0
H1760 H 0.47584 0.96223 0.62392 0.0
C1761 C 0.36902 0.85575 0.69617 0.0
C1762 C 0.3372 0.82013 0.69344 0.0
C1763 C 0.33218 0.79797 0.66883 0.0
C1764 C 0.35929 0.80931 0.64865 0.0
C1765 C 0.39075 0.84407 0.65225 0.0
C1766 C 0.39528 0.86763 0.67484 0.0
C1767 C 0.42719 0.90737 0.66914 0.0
C1768 C 0.41331 0.94099 0.6635 0.0
C1769 C 0.45941 0.91307 0.69698 0.0
C1770 C 0.43872 0.90294 0.63919 0.0
C1771 C 0.41855 0.86543 0.6309 0.0
C1772 C 0.42319 0.85436 0.60367 0.0
C1773 C 0.44773 0.88278 0.58359 0.0
C1774 C 0.46669 0.92207 0.59034 0.0
C1775 C 0.4627 0.93205 0.61886 0.0
H1776 H 0.16653 0.27075 0.67027 0.0
H1777 H 0.26077 0.36151 0.71706 0.0
H1778 H 0.23789 0.41188 0.68535 0.0
H1779 H 0.16414 0.32895 0.5916 0.0
H1780 H 0.11377 0.30743 0.58316 0.0
H1781 H 0.13866 0.27954 0.60883 0.0
H1782 H 0.09897 0.26838 0.653 0.0
H1783 H 0.07437 0.29677 0.62769 0.0
H1784 H 0.09804 0.31019 0.66656 0.0
H1785 H 0.20195 0.45248 0.64912 0.0
H1786 H 0.16098 0.47953 0.60969 0.0
H1787 H 0.08995 0.36216 0.58587 0.0
C1788 C 0.18266 0.30134 0.67352 0.0
C1789 C 0.216 0.31213 0.69584 0.0
C1790 C 0.23576 0.35245 0.69972 0.0
C1791 C 0.22267 0.38126 0.68192 0.0
C1792 C 0.18954 0.36954 0.66025 0.0
C1793 C 0.17009 0.33046 0.65577 0.0
C1794 C 0.13541 0.32538 0.63094 0.0
C1795 C 0.13816 0.30938 0.60191 0.0
C1796 C 0.09958 0.29859 0.64542 0.0
C1797 C 0.13779 0.36754 0.62239 0.0
C1798 C 0.16922 0.39259 0.63959 0.0
C1799 C 0.17739 0.43292 0.63561 0.0
C1800 C 0.15362 0.44808 0.61314 0.0
C1801 C 0.12158 0.4233 0.5945 0.0
C1802 C 0.11362 0.38222 0.59981 0.0
H1803 H 0.7158 0.14729 0.69008 0.0
H1804 H 0.74738 0.26362 0.63594 0.0
H1805 H 0.72982 0.2345 0.58636 0.0
H1806 H 0.7379 0.09752 0.63321 0.0
H1807 H 0.69651 0.05353 0.63861 0.0
H1808 H 0.72036 0.08278 0.67089 0.0
H1809 H 0.65888 0.08908 0.67545 0.0
H1810 H 0.63496 0.05924 0.64382 0.0
H1811 H 0.63399 0.1073 0.64053 0.0
H1812 H 0.70191 0.19527 0.54283 0.0
H1813 H 0.65313 0.14896 0.50844 0.0
H1814 H 0.63497 0.05655 0.58832 0.0
C1815 C 0.7198 0.16651 0.66778 0.0
C1816 C 0.73383 0.20773 0.66705 0.0
C1817 C 0.73736 0.23196 0.63734 0.0
C1818 C 0.72786 0.21572 0.60891 0.0
C1819 C 0.71421 0.17507 0.6103 0.0
C1820 C 0.70937 0.15062 0.63887 0.0
C1821 C 0.68744 0.10806 0.63316 0.0
C1822 C 0.71203 0.08406 0.64465 0.0
C1823 C 0.6517 0.08989 0.64916 0.0
C1824 C 0.67854 0.11292 0.59705 0.0
C1825 C 0.69591 0.15168 0.58442 0.0
C1826 C 0.6887 0.16469 0.55224 0.0
C1827 C 0.661 0.13815 0.53281 0.0
C1828 C 0.64063 0.09925 0.54574 0.0
C1829 C 0.65102 0.08585 0.57773 0.0
H1830 H 0.8814 0.33898 0.31454 0.0
H1831 H 0.83903 0.22915 0.37581 0.0
H1832 H 0.85816 0.26576 0.4225 0.0
H1833 H 0.96197 0.39114 0.37022 0.0
H1834 H 0.95635 0.43706 0.35642 0.0
H1835 H 0.94148 0.40067 0.32975 0.0
H1836 H 0.87558 0.40334 0.31902 0.0
H1837 H 0.88975 0.43801 0.34722 0.0
H1838 H 0.84983 0.39227 0.3518 0.0
H1839 H 0.88016 0.31444 0.46138 0.0
H1840 H 0.91704 0.36997 0.49206 0.0
H1841 H 0.94116 0.44878 0.40475 0.0
C1842 C 0.87789 0.32271 0.3381 0.0
C1843 C 0.86017 0.28142 0.34215 0.0
C1844 C 0.85402 0.26078 0.37278 0.0
C1845 C 0.86391 0.28139 0.39913 0.0
C1846 C 0.87935 0.32241 0.39401 0.0
C1847 C 0.88719 0.34278 0.36441 0.0
C1848 C 0.90415 0.38675 0.36519 0.0
C1849 C 0.94332 0.40497 0.35482 0.0
C1850 C 0.87828 0.40622 0.34458 0.0
C1851 C 0.90594 0.38808 0.40023 0.0
C1852 C 0.89054 0.35062 0.41622 0.0
C1853 C 0.89175 0.34392 0.44912 0.0
C1854 C 0.91206 0.37584 0.46638 0.0
C1855 C 0.93093 0.41377 0.45069 0.0
C1856 C 0.92571 0.42041 0.41716 0.0
H1857 H 0.61297 0.74529 0.41212 0.0
H1858 H 0.72682 0.81995 0.39573 0.0
H1859 H 0.72396 0.87209 0.42074 0.0
H1860 H 0.57762 0.82047 0.39513 0.0
H1861 H 0.54742 0.79997 0.4255 0.0
H1862 H 0.55915 0.7682 0.40748 0.0
H1863 H 0.58427 0.74083 0.46319 0.0
H1864 H 0.57238 0.77236 0.4814 0.0
H1865 H 0.6196 0.77442 0.48904 0.0
H1866 H 0.70757 0.91689 0.44677 0.0
H1867 H 0.67921 0.94971 0.47165 0.0
H1868 H 0.57649 0.8448 0.47047 0.0
C1869 C 0.63753 0.77235 0.41424 0.0
C1870 C 0.67012 0.77852 0.402 0.0
C1871 C 0.70141 0.81471 0.40469 0.0
C1872 C 0.70011 0.84443 0.41898 0.0
C1873 C 0.66733 0.83751 0.43046 0.0
C1874 C 0.63667 0.80228 0.4283 0.0
C1875 C 0.60446 0.8024 0.44173 0.0
C1876 C 0.57015 0.79748 0.41592 0.0
C1877 C 0.59462 0.77062 0.47055 0.0
C1878 C 0.62165 0.84324 0.45167 0.0
C1879 C 0.65795 0.86312 0.44512 0.0
C1880 C 0.67917 0.90151 0.45208 0.0
C1881 C 0.66283 0.91994 0.46619 0.0
C1882 C 0.62558 0.89998 0.47305 0.0
C1883 C 0.60499 0.8611 0.46558 0.0
H1884 H 0.17683 0.64801 0.28282 0.0
H1885 H 0.25083 0.75308 0.32576 0.0
H1886 H 0.2166 0.72943 0.37192 0.0
H1887 H 0.09266 0.63777 0.30852 0.0
H1888 H 0.07463 0.58496 0.31735 0.0
H1889 H 0.1051 0.60927 0.28738 0.0
H1890 H 0.15014 0.57585 0.31669 0.0
H1891 H 0.11982 0.55104 0.34657 0.0
H1892 H 0.16834 0.5809 0.35817 0.0
H1893 H 0.1727 0.69641 0.41237 0.0
H1894 H 0.12963 0.65046 0.44952 0.0
H1895 H 0.08463 0.56395 0.38335 0.0
C1896 C 0.18636 0.66542 0.30241 0.0
C1897 C 0.21778 0.70179 0.30126 0.0
C1898 C 0.22836 0.72435 0.3268 0.0
C1899 C 0.20847 0.71145 0.35288 0.0
C1900 C 0.17769 0.67567 0.35332 0.0
C1901 C 0.16713 0.65239 0.32919 0.0
C1902 C 0.13363 0.61446 0.33643 0.0
C1903 C 0.09948 0.61145 0.31089 0.0
C1904 C 0.14362 0.57844 0.33966 0.0
C1905 C 0.12718 0.62014 0.36831 0.0
C1906 C 0.1525 0.65615 0.37713 0.0
C1907 C 0.1527 0.66819 0.40565 0.0
C1908 C 0.12772 0.64211 0.42644 0.0
C1909 C 0.10285 0.60416 0.41895 0.0
C1910 C 0.10218 0.59334 0.38916 0.0
H1911 H 0.39254 0.22244 0.2973 0.0
H1912 H 0.2801 0.1394 0.31026 0.0
H1913 H 0.30615 0.09637 0.34931 0.0
H1914 H 0.43253 0.15034 0.304 0.0
H1915 H 0.47703 0.17764 0.32583 0.0
H1916 H 0.45062 0.20331 0.29916 0.0
H1917 H 0.44976 0.23882 0.34528 0.0
H1918 H 0.4796 0.21548 0.36957 0.0
H1919 H 0.43723 0.20929 0.38262 0.0
H1920 H 0.34347 0.05965 0.3834 0.0
H1921 H 0.38871 0.03596 0.41843 0.0
H1922 H 0.47989 0.14425 0.38976 0.0
C1923 C 0.37353 0.19552 0.3089 0.0
C1924 C 0.33403 0.18466 0.30106 0.0
C1925 C 0.3102 0.14876 0.31623 0.0
C1926 C 0.32486 0.12398 0.33831 0.0
C1927 C 0.36368 0.13528 0.34539 0.0
C1928 C 0.38788 0.1706 0.33177 0.0
C1929 C 0.42856 0.17529 0.34411 0.0
C1930 C 0.44835 0.17674 0.31664 0.0
C1931 C 0.45001 0.21195 0.36137 0.0
C1932 C 0.42333 0.13758 0.36733 0.0
C1933 C 0.38554 0.11465 0.36671 0.0
C1934 C 0.37307 0.07775 0.38448 0.0
C1935 C 0.39944 0.06442 0.40438 0.0
C1936 C 0.43854 0.08801 0.40764 0.0
C1937 C 0.4505 0.12518 0.38822 0.0
H1938 H 0.77164 0.87405 0.6841 0.0
H1939 H 0.69175 0.76769 0.72842 0.0
H1940 H 0.63969 0.78548 0.69713 0.0
H1941 H 0.72325 0.93652 0.68335 0.0
H1942 H 0.73483 0.96423 0.64531 0.0
H1943 H 0.7656 0.94236 0.67 0.0
H1944 H 0.76117 0.9047 0.62414 0.0
H1945 H 0.7315 0.92784 0.59926 0.0
H1946 H 0.71567 0.87506 0.60515 0.0
H1947 H 0.59559 0.81606 0.66016 0.0
H1948 H 0.56443 0.85439 0.62086 0.0
H1949 H 0.67306 0.94252 0.60183 0.0
C1950 C 0.74314 0.85429 0.68698 0.0
C1951 C 0.73594 0.81874 0.7082 0.0
C1952 C 0.69816 0.79437 0.71174 0.0
C1953 C 0.66835 0.8045 0.69418 0.0
C1954 C 0.67644 0.83964 0.67336 0.0
C1955 C 0.71303 0.86412 0.6697 0.0
C1956 C 0.71434 0.90044 0.64607 0.0
C1957 C 0.73577 0.93811 0.66215 0.0
C1958 C 0.73171 0.9021 0.61694 0.0
C1959 C 0.67283 0.89286 0.63706 0.0
C1960 C 0.6514 0.85755 0.65299 0.0
C1961 C 0.6123 0.8438 0.64778 0.0
C1962 C 0.59473 0.86602 0.62541 0.0
C1963 C 0.6159 0.90212 0.60829 0.0
C1964 C 0.65569 0.91568 0.61481 0.0
H1965 H 0.69999 0.12312 0.30458 0.0
H1966 H 0.76852 0.22608 0.35175 0.0
H1967 H 0.72258 0.20639 0.38905 0.0
H1968 H 0.60546 0.10986 0.31716 0.0
H1969 H 0.59129 0.05745 0.32663 0.0
H1970 H 0.62543 0.08449 0.29991 0.0
H1971 H 0.67122 0.05519 0.33659 0.0
H1972 H 0.63681 0.02888 0.36294 0.0
H1973 H 0.68291 0.06167 0.37819 0.0
H1974 H 0.6686 0.17549 0.42109 0.0
H1975 H 0.62296 0.12749 0.45551 0.0
H1976 H 0.59514 0.03906 0.39373 0.0
C1977 C 0.70447 0.14212 0.32212 0.0
C1978 C 0.73614 0.17799 0.32362 0.0
C1979 C 0.74304 0.20023 0.34863 0.0
C1980 C 0.71713 0.18904 0.37006 0.0
C1981 C 0.68514 0.15452 0.36703 0.0
C1982 C 0.67951 0.13055 0.34446 0.0
C1983 C 0.64696 0.09144 0.35019 0.0
C1984 C 0.61543 0.08548 0.32176 0.0
C1985 C 0.66028 0.05728 0.35744 0.0
C1986 C 0.635 0.0972 0.37936 0.0
C1987 C 0.6566 0.13437 0.38795 0.0
C1988 C 0.65151 0.14637 0.41451 0.0
C1989 C 0.62517 0.11907 0.43374 0.0
C1990 C 0.6048 0.07995 0.42684 0.0
C1991 C 0.60926 0.06919 0.39889 0.0
H1992 H 0.81031 0.6549 0.28678 0.0
H1993 H 0.86601 0.7709 0.31724 0.0
H1994 H 0.90754 0.74749 0.3588 0.0
H1995 H 0.81912 0.59906 0.37105 0.0
H1996 H 0.82556 0.56165 0.35564 0.0
H1997 H 0.79731 0.58694 0.33144 0.0
H1998 H 0.83955 0.60483 0.28748 0.0
H1999 H 0.86885 0.5816 0.31289 0.0
H2000 H 0.88919 0.6325 0.2965 0.0
H2001 H 0.9501 0.71631 0.38998 0.0
H2002 H 0.98277 0.67496 0.41985 0.0
H2003 H 0.89816 0.57409 0.37606 0.0
C2004 C 0.83008 0.67473 0.30324 0.0
C2005 C 0.834 0.71472 0.29924 0.0
C2006 C 0.86157 0.74009 0.32033 0.0
C2007 C 0.88569 0.7271 0.34383 0.0
C2008 C 0.88218 0.68826 0.34641 0.0
C2009 C 0.85432 0.66185 0.3276 0.0
C2010 C 0.85768 0.62177 0.33571 0.0
C2011 C 0.82281 0.5905 0.34924 0.0
C2012 C 0.8642 0.60946 0.30639 0.0
C2013 C 0.89231 0.6303 0.36129 0.0
C2014 C 0.90605 0.6692 0.36638 0.0
C2015 C 0.93902 0.68555 0.38679 0.0
C2016 C 0.95773 0.6615 0.40354 0.0
C2017 C 0.94346 0.62061 0.40091 0.0
C2018 C 0.91015 0.60499 0.37897 0.0
H2019 H 0.35631 0.87174 0.31833 0.0
H2020 H 0.30911 0.7531 0.36657 0.0
H2021 H 0.32625 0.77874 0.41782 0.0
H2022 H 0.43482 0.90146 0.37136 0.0
H2023 H 0.43911 0.95124 0.37026 0.0
H2024 H 0.41446 0.92506 0.33666 0.0
H2025 H 0.35605 0.93806 0.33992 0.0
H2026 H 0.38059 0.96388 0.37403 0.0
H2027 H 0.33622 0.92299 0.37655 0.0
H2028 H 0.35837 0.8134 0.46373 0.0
H2029 H 0.40903 0.85426 0.50097 0.0
H2030 H 0.43641 0.95172 0.42546 0.0
C2031 C 0.34861 0.85146 0.33965 0.0
C2032 C 0.33116 0.81056 0.33842 0.0
C2033 C 0.32245 0.78464 0.36685 0.0
C2034 C 0.33163 0.79894 0.39614 0.0
C2035 C 0.34962 0.83931 0.39682 0.0
C2036 C 0.3582 0.86533 0.36938 0.0
C2037 C 0.38335 0.90639 0.37741 0.0
C2038 C 0.4201 0.9219 0.3631 0.0
C2039 C 0.36282 0.93449 0.36632 0.0
C2040 C 0.38987 0.89856 0.4135 0.0
C2041 C 0.36893 0.85994 0.42418 0.0
C2042 C 0.37412 0.844 0.4559 0.0
C2043 C 0.40291 0.86736 0.47693 0.0
C2044 C 0.42604 0.90612 0.46606 0.0
C2045 C 0.41813 0.92257 0.43449 0.0
H2046 H 0.27575 0.40007 0.43113 0.0
H2047 H 0.21041 0.38175 0.3373 0.0
H2048 H 0.1665 0.40492 0.35114 0.0
H2049 H 0.20117 0.37026 0.47465 0.0
H2050 H 0.22427 0.40748 0.50111 0.0
H2051 H 0.25154 0.3907 0.48363 0.0
H2052 H 0.28882 0.46231 0.46039 0.0
H2053 H 0.26169 0.47934 0.47789 0.0
H2054 H 0.26398 0.4909 0.43573 0.0
H2055 H 0.12707 0.42473 0.37624 0.0
H2056 H 0.09579 0.44298 0.41053 0.0
H2057 H 0.18898 0.45434 0.4865 0.0
C2058 C 0.25266 0.40158 0.41319 0.0
C2059 C 0.2465 0.3886 0.38316 0.0
C2060 C 0.21541 0.39055 0.36072 0.0
C2061 C 0.19047 0.40411 0.36822 0.0
C2062 C 0.19726 0.41631 0.39805 0.0
C2063 C 0.22777 0.41564 0.42009 0.0
C2064 C 0.22818 0.42986 0.45067 0.0
C2065 C 0.22616 0.39765 0.47919 0.0
C2066 C 0.26272 0.46787 0.4565 0.0
C2067 C 0.19254 0.43759 0.44266 0.0
C2068 C 0.17522 0.42957 0.41213 0.0
C2069 C 0.14064 0.43174 0.39996 0.0
C2070 C 0.12307 0.44199 0.4196 0.0
C2071 C 0.14029 0.45044 0.45087 0.0
C2072 C 0.17572 0.44882 0.4624 0.0
H2073 H 0.44527 0.25826 0.5945 0.0
H2074 H 0.33075 0.18258 0.60828 0.0
H2075 H 0.33725 0.12885 0.58848 0.0
H2076 H 0.44324 0.22474 0.52146 0.0
H2077 H 0.4909 0.22817 0.53104 0.0
H2078 H 0.47704 0.26023 0.54662 0.0
H2079 H 0.50113 0.23623 0.60398 0.0
H2080 H 0.51487 0.20395 0.58858 0.0
H2081 H 0.48357 0.18439 0.6181 0.0
H2082 H 0.35664 0.08313 0.56668 0.0
H2083 H 0.38685 0.05026 0.54407 0.0
H2084 H 0.48816 0.15669 0.54434 0.0
C2085 C 0.4214 0.23054 0.59309 0.0
C2086 C 0.38753 0.2247 0.60308 0.0
C2087 C 0.35718 0.18767 0.60122 0.0
C2088 C 0.36054 0.157 0.58985 0.0
C2089 C 0.39442 0.16374 0.58037 0.0
C2090 C 0.42426 0.19966 0.58182 0.0
C2091 C 0.45761 0.19951 0.57013 0.0
C2092 C 0.46778 0.22996 0.54055 0.0
C2093 C 0.49128 0.20642 0.59679 0.0
C2094 C 0.4419 0.15794 0.5618 0.0
C2095 C 0.40544 0.13766 0.56789 0.0
C2096 C 0.3852 0.09878 0.56183 0.0
C2097 C 0.40263 0.08032 0.54901 0.0
C2098 C 0.43995 0.10073 0.54238 0.0
C2099 C 0.45966 0.14003 0.54912 0.0
H2100 H 0.90551 0.36337 0.7185 0.0
H2101 H 0.80716 0.281 0.66791 0.0
H2102 H 0.83231 0.30983 0.61757 0.0
H2103 H 0.91682 0.44723 0.65471 0.0
H2104 H 0.96719 0.46567 0.66202 0.0
H2105 H 0.94052 0.43862 0.6941 0.0
H2106 H 0.97483 0.39083 0.70419 0.0
H2107 H 1.00025 0.4172 0.67121 0.0
H2108 H 0.97248 0.36522 0.67225 0.0
H2109 H 0.86766 0.34475 0.5733 0.0
H2110 H 0.90716 0.39141 0.53462 0.0
H2111 H 0.98479 0.45494 0.61061 0.0
C2112 C 0.88923 0.35188 0.69667 0.0
C2113 C 0.85344 0.32055 0.69703 0.0
C2114 C 0.83339 0.30594 0.66812 0.0
C2115 C 0.84795 0.32176 0.6394 0.0
C2116 C 0.88304 0.3524 0.63974 0.0
C2117 C 0.90331 0.36802 0.66735 0.0
C2118 C 0.93984 0.40217 0.66016 0.0
C2119 C 0.94115 0.4407 0.66824 0.0
C2120 C 0.97387 0.39331 0.67802 0.0
C2121 C 0.93674 0.403 0.62427 0.0
C2122 C 0.90385 0.37337 0.61344 0.0
C2123 C 0.89358 0.36794 0.58148 0.0
C2124 C 0.91655 0.39439 0.55966 0.0
C2125 C 0.94967 0.42622 0.56946 0.0
C2126 C 0.96036 0.43019 0.60245 0.0
H2127 H 0.20498 0.75105 0.64064 0.0
H2128 H 0.25598 0.66891 0.68889 0.0
H2129 H 0.23294 0.63267 0.643 0.0
H2130 H 0.1228 0.68082 0.6117 0.0
H2131 H 0.11505 0.70883 0.57395 0.0
H2132 H 0.1426 0.73381 0.60757 0.0
H2133 H 0.19755 0.77224 0.57477 0.0
H2134 H 0.17018 0.74678 0.54107 0.0
H2135 H 0.21562 0.74566 0.55687 0.0
H2136 H 0.19646 0.59834 0.59765 0.0
H2137 H 0.14414 0.56582 0.55748 0.0
H2138 H 0.11672 0.66929 0.53657 0.0
C2139 C 0.2119 0.72597 0.64112 0.0
C2140 C 0.23326 0.71368 0.66799 0.0
C2141 C 0.24094 0.68002 0.66817 0.0
C2142 C 0.22799 0.65906 0.64211 0.0
C2143 C 0.20718 0.67186 0.61591 0.0
C2144 C 0.19894 0.70439 0.61515 0.0
C2145 C 0.17148 0.70828 0.58598 0.0
C2146 C 0.13589 0.70787 0.59537 0.0
C2147 C 0.18982 0.74545 0.56333 0.0
C2148 C 0.16381 0.67143 0.57191 0.0
C2149 C 0.18551 0.65146 0.58905 0.0
C2150 C 0.17989 0.61408 0.58338 0.0
C2151 C 0.15007 0.59576 0.56053 0.0
C2152 C 0.12632 0.61492 0.54389 0.0
C2153 C 0.13462 0.65397 0.54858 0.0
loop_
_geom_bond_atom_site_label_1
_geom_bond_atom_site_label_2
_geom_bond_distance
_geom_bond_site_symmetry_2
_ccdc_geom_bond_type
Eu0 N31 2.657 . S
Eu0 N38 2.609 . S
Eu0 O44 2.558 . S
Eu0 O45 2.612 . S
Eu0 O47 2.339 . S
Eu0 O48 2.563 . S
Eu0 O49 2.419 . S
Eu0 O51 2.380 . S
Eu0 O52 2.432 . S
Eu0 C64 2.848 . S
C1 C4 1.429 . S
C1 C5 1.411 . S
C1 N8 1.377 . S
C2 C4 1.420 . S
C2 C6 1.423 . S
C2 C14 1.392 . S
C3 C5 1.420 . S
C3 C6 1.351 . S
C3 H26 0.931 . S
C4 C1 1.429 . S
C4 C2 1.420 . S
C4 N12 1.362 . S
C5 C1 1.411 . S
C5 C3 1.420 . S
C5 C10 1.395 . S
C6 C2 1.423 . S
C6 C3 1.351 . S
C6 H18 0.930 . S
C7 C9 1.400 . S
C7 C10 1.386 . S
C7 H19 0.930 . S
N8 C1 1.377 . S
N8 C9 1.321 . S
N8 Eu11 2.609 . S
C9 C7 1.400 . S
C9 N8 1.321 . S
C9 H16 0.930 . S
C10 C5 1.395 . S
C10 C7 1.386 . S
C10 H29 0.930 . S
Eu11 N8 2.609 . S
Eu11 N12 2.657 . S
Eu11 O45 2.380 . S
Eu11 O46 2.432 . S
Eu11 O50 2.558 . S
Eu11 O51 2.612 . S
Eu11 O53 2.339 . S
Eu11 O54 2.563 . S
Eu11 O55 2.419 . S
Eu11 C75 2.848 . S
N12 C4 1.362 . S
N12 Eu11 2.657 . S
N12 C13 1.334 . S
C13 N12 1.334 . S
C13 C15 1.413 . S
C13 H20 0.929 . S
C14 C2 1.392 . S
C14 C15 1.367 . S
C14 H22 0.930 . S
C15 C13 1.413 . S
C15 C14 1.367 . S
C15 H17 0.930 . S
H16 C9 0.930 . S
H17 C15 0.930 . S
H18 C6 0.930 . S
H19 C7 0.930 . S
H20 C13 0.929 . S
H21 C35 0.930 . S
H22 C14 0.930 . S
H23 C41 0.930 . S
H24 C32 0.929 . S
H25 C39 0.930 . S
H26 C3 0.931 . S
H27 C33 0.930 . S
H28 C66 0.930 . S
H29 C10 0.930 . S
H30 C65 0.931 . S
N31 Eu0 2.657 . S
N31 C32 1.334 . S
N31 C36 1.362 . S
C32 H24 0.929 . S
C32 N31 1.334 . S
C32 C35 1.413 . S
C33 H27 0.930 . S
C33 C34 1.392 . S
C33 C35 1.367 . S
C34 C33 1.392 . S
C34 C36 1.420 . S
C34 C66 1.423 . S
C35 H21 0.930 . S
C35 C32 1.413 . S
C35 C33 1.367 . S
C36 N31 1.362 . S
C36 C34 1.420 . S
C36 C40 1.429 . S
H37 C42 0.930 . S
N38 Eu0 2.609 . S
N38 C40 1.377 . S
N38 C41 1.321 . S
C39 H25 0.930 . S
C39 C41 1.400 . S
C39 C42 1.386 . S
C40 C36 1.429 . S
C40 N38 1.377 . S
C40 C43 1.411 . S
C41 H23 0.930 . S
C41 N38 1.321 . S
C41 C39 1.400 . S
C42 H37 0.930 . S
C42 C39 1.386 . S
C42 C43 1.395 . S
C43 C40 1.411 . S
C43 C42 1.395 . S
C43 C65 1.420 . S
O44 Eu0 2.558 . S
O44 C64 1.257 . S
O45 Eu0 2.612 . S
O45 Eu11 2.380 . S
O45 C56 1.276 . S
O46 Eu11 2.432 . S
O46 C63 1.264 . S
O47 Eu0 2.339 . S
O47 C63 1.254 . S
O48 Eu0 2.563 . S
O48 C56 1.235 . S
O49 Eu0 2.419 . S
O49 C64 1.249 . S
O50 Eu11 2.558 . S
O50 C75 1.257 . S
O51 Eu0 2.380 . S
O51 Eu11 2.612 . S
O51 C67 1.276 . S
O52 Eu0 2.432 . S
O52 C74 1.264 . S
O53 Eu11 2.339 . S
O53 C74 1.254 . S
O54 Eu11 2.563 . S
O54 C67 1.235 . S
O55 Eu11 2.419 . S
O55 C75 1.249 . S
C56 O45 1.276 . S
C56 O48 1.235 . S
C57 C59 1.393 . S
C57 C61 1.395 . S
C57 C64 1.492 . S
C58 C59 1.392 . S
C58 C60 1.386 . S
C59 C57 1.393 . S
C59 C58 1.392 . S
C59 H76 0.930 . S
C60 C58 1.386 . S
C60 C62 1.395 . S
C60 H77 0.930 . S
C61 C57 1.395 . S
C61 C62 1.379 . S
C61 H78 0.930 . S
C62 C60 1.395 . S
C62 C61 1.379 . S
C62 H79 0.930 . S
C63 O46 1.264 . S
C63 O47 1.254 . S
C64 Eu0 2.848 . S
C64 O44 1.257 . S
C64 O49 1.249 . S
C64 C57 1.492 . S
C65 H30 0.931 . S
C65 C43 1.420 . S
C65 C66 1.351 . S
C66 H28 0.930 . S
C66 C34 1.423 . S
C66 C65 1.351 . S
C67 O51 1.276 . S
C67 O54 1.235 . S
C68 C69 1.393 . S
C68 C72 1.395 . S
C68 C75 1.492 . S
C69 C68 1.393 . S
C69 C70 1.392 . S
C69 H80 0.930 . S
C70 C69 1.392 . S
C70 C71 1.386 . S
C71 C70 1.386 . S
C71 C73 1.395 . S
C71 H81 0.930 . S
C72 C68 1.395 . S
C72 C73 1.379 . S
C72 H82 0.930 . S
C73 C71 1.395 . S
C73 C72 1.379 . S
C73 H83 0.930 . S
C74 O52 1.264 . S
C74 O53 1.254 . S
C75 Eu11 2.848 . S
C75 O50 1.257 . S
C75 O55 1.249 . S
C75 C68 1.492 . S
H76 C59 0.930 . S
H77 C60 0.930 . S
H78 C61 0.930 . S
H79 C62 0.930 . S
H80 C69 0.930 . S
H81 C71 0.930 . S
H82 C72 0.930 . S
H83 C73 0.930 . S
Eu84 N115 2.657 . S
Eu84 N122 2.609 . S
Eu84 O128 2.558 . S
Eu84 O129 2.612 . S
Eu84 O131 2.339 . S
Eu84 O132 2.563 . S
Eu84 O133 2.419 . S
Eu84 O135 2.380 . S
Eu84 O136 2.432 . S
Eu84 C148 2.848 . S
C85 C88 1.429 . S
C85 C89 1.411 . S
C85 N92 1.377 . S
C86 C88 1.420 . S
C86 C90 1.423 . S
C86 C98 1.392 . S
C87 C89 1.420 . S
C87 C90 1.351 . S
C87 H110 0.931 . S
C88 C85 1.429 . S
C88 C86 1.420 . S
C88 N96 1.362 . S
C89 C85 1.411 . S
C89 C87 1.420 . S
C89 C94 1.395 . S
C90 C86 1.423 . S
C90 C87 1.351 . S
C90 H102 0.930 . S
C91 C93 1.400 . S
C91 C94 1.386 . S
C91 H103 0.930 . S
N92 C85 1.377 . S
N92 C93 1.321 . S
N92 Eu95 2.609 . S
C93 C91 1.400 . S
C93 N92 1.321 . S
C93 H100 0.930 . S
C94 C89 1.395 . S
C94 C91 1.386 . S
C94 H113 0.930 . S
Eu95 N92 2.609 . S
Eu95 N96 2.657 . S
Eu95 O129 2.380 . S
Eu95 O130 2.432 . S
Eu95 O134 2.558 . S
Eu95 O135 2.612 . S
Eu95 O137 2.339 . S
Eu95 O138 2.563 . S
Eu95 O139 2.419 . S
Eu95 C159 2.848 . S
N96 C88 1.362 . S
N96 Eu95 2.657 . S
N96 C97 1.334 . S
C97 N96 1.334 . S
C97 C99 1.413 . S
C97 H104 0.929 . S
C98 C86 1.392 . S
C98 C99 1.367 . S
C98 H106 0.930 . S
C99 C97 1.413 . S
C99 C98 1.367 . S
C99 H101 0.930 . S
H100 C93 0.930 . S
H101 C99 0.930 . S
H102 C90 0.930 . S
H103 C91 0.930 . S
H104 C97 0.929 . S
H105 C119 0.930 . S
H106 C98 0.930 . S
H107 C125 0.930 . S
H108 C116 0.929 . S
H109 C123 0.930 . S
H110 C87 0.931 . S
H111 C117 0.930 . S
H112 C150 0.930 . S
H113 C94 0.930 . S
H114 C149 0.931 . S
N115 Eu84 2.657 . S
N115 C116 1.334 . S
N115 C120 1.362 . S
C116 H108 0.929 . S
C116 N115 1.334 . S
C116 C119 1.413 . S
C117 H111 0.930 . S
C117 C118 1.392 . S
C117 C119 1.367 . S
C118 C117 1.392 . S
C118 C120 1.420 . S
C118 C150 1.423 . S
C119 H105 0.930 . S
C119 C116 1.413 . S
C119 C117 1.367 . S
C120 N115 1.362 . S
C120 C118 1.420 . S
C120 C124 1.429 . S
H121 C126 0.930 . S
N122 Eu84 2.609 . S
N122 C124 1.377 . S
N122 C125 1.321 . S
C123 H109 0.930 . S
C123 C125 1.400 . S
C123 C126 1.386 . S
C124 C120 1.429 . S
C124 N122 1.377 . S
C124 C127 1.411 . S
C125 H107 0.930 . S
C125 N122 1.321 . S
C125 C123 1.400 . S
C126 H121 0.930 . S
C126 C123 1.386 . S
C126 C127 1.395 . S
C127 C124 1.411 . S
C127 C126 1.395 . S
C127 C149 1.420 . S
O128 Eu84 2.558 . S
O128 C148 1.257 . S
O129 Eu84 2.612 . S
O129 Eu95 2.380 . S
O129 C140 1.276 . S
O130 Eu95 2.432 . S
O130 C147 1.264 . S
O131 Eu84 2.339 . S
O131 C147 1.254 . S
O132 Eu84 2.563 . S
O132 C140 1.235 . S
O133 Eu84 2.419 . S
O133 C148 1.249 . S
O134 Eu95 2.558 . S
O134 C159 1.257 . S
O135 Eu84 2.380 . S
O135 Eu95 2.612 . S
O135 C151 1.276 . S
O136 Eu84 2.432 . S
O136 C158 1.264 . S
O137 Eu95 2.339 . S
O137 C158 1.254 . S
O138 Eu95 2.563 . S
O138 C151 1.235 . S
O139 Eu95 2.419 . S
O139 C159 1.249 . S
C140 O129 1.276 . S
C140 O132 1.235 . S
C141 C143 1.393 . S
C141 C145 1.395 . S
C141 C148 1.492 . S
C142 C143 1.392 . S
C142 C144 1.386 . S
C143 C141 1.393 . S
C143 C142 1.392 . S
C143 H160 0.930 . S
C144 C142 1.386 . S
C144 C146 1.395 . S
C144 H161 0.930 . S
C145 C141 1.395 . S
C145 C146 1.379 . S
C145 H162 0.930 . S
C146 C144 1.395 . S
C146 C145 1.379 . S
C146 H163 0.930 . S
C147 O130 1.264 . S
C147 O131 1.254 . S
C148 Eu84 2.848 . S
C148 O128 1.257 . S
C148 O133 1.249 . S
C148 C141 1.492 . S
C149 H114 0.931 . S
C149 C127 1.420 . S
C149 C150 1.351 . S
C150 H112 0.930 . S
C150 C118 1.423 . S
C150 C149 1.351 . S
C151 O135 1.276 . S
C151 O138 1.235 . S
C152 C153 1.393 . S
C152 C156 1.395 . S
C152 C159 1.492 . S
C153 C152 1.393 . S
C153 C154 1.392 . S
C153 H164 0.930 . S
C154 C153 1.392 . S
C154 C155 1.386 . S
C155 C154 1.386 . S
C155 C157 1.395 . S
C155 H165 0.930 . S
C156 C152 1.395 . S
C156 C157 1.379 . S
C156 H166 0.930 . S
C157 C155 1.395 . S
C157 C156 1.379 . S
C157 H167 0.930 . S
C158 O136 1.264 . S
C158 O137 1.254 . S
C159 Eu95 2.848 . S
C159 O134 1.257 . S
C159 O139 1.249 . S
C159 C152 1.492 . S
H160 C143 0.930 . S
H161 C144 0.930 . S
H162 C145 0.930 . S
H163 C146 0.930 . S
H164 C153 0.930 . S
H165 C155 0.930 . S
H166 C156 0.930 . S
H167 C157 0.930 . S
Eu168 N199 2.657 . S
Eu168 N206 2.609 . S
Eu168 O212 2.558 . S
Eu168 O213 2.612 . S
Eu168 O215 2.339 . S
Eu168 O216 2.563 . S
Eu168 O217 2.419 . S
Eu168 O219 2.380 . S
Eu168 O220 2.432 . S
Eu168 C232 2.848 . S
C169 C172 1.429 . S
C169 C173 1.411 . S
C169 N176 1.377 . S
C170 C172 1.420 . S
C170 C174 1.423 . S
C170 C182 1.392 . S
C171 C173 1.420 . S
C171 C174 1.351 . S
C171 H194 0.931 . S
C172 C169 1.429 . S
C172 C170 1.420 . S
C172 N180 1.362 . S
C173 C169 1.411 . S
C173 C171 1.420 . S
C173 C178 1.395 . S
C174 C170 1.423 . S
C174 C171 1.351 . S
C174 H186 0.930 . S
C175 C177 1.400 . S
C175 C178 1.386 . S
C175 H187 0.930 . S
N176 C169 1.377 . S
N176 C177 1.321 . S
N176 Eu179 2.609 . S
C177 C175 1.400 . S
C177 N176 1.321 . S
C177 H184 0.930 . S
C178 C173 1.395 . S
C178 C175 1.386 . S
C178 H197 0.930 . S
Eu179 N176 2.609 . S
Eu179 N180 2.657 . S
Eu179 O213 2.380 . S
Eu179 O214 2.432 . S
Eu179 O218 2.558 . S
Eu179 O219 2.612 . S
Eu179 O221 2.339 . S
Eu179 O222 2.563 . S
Eu179 O223 2.419 . S
Eu179 C243 2.848 . S
N180 C172 1.362 . S
N180 Eu179 2.657 . S
N180 C181 1.334 . S
C181 N180 1.334 . S
C181 C183 1.413 . S
C181 H188 0.929 . S
C182 C170 1.392 . S
C182 C183 1.367 . S
C182 H190 0.930 . S
C183 C181 1.413 . S
C183 C182 1.367 . S
C183 H185 0.930 . S
H184 C177 0.930 . S
H185 C183 0.930 . S
H186 C174 0.930 . S
H187 C175 0.930 . S
H188 C181 0.929 . S
H189 C203 0.930 . S
H190 C182 0.930 . S
H191 C209 0.930 . S
H192 C200 0.929 . S
H193 C207 0.930 . S
H194 C171 0.931 . S
H195 C201 0.930 . S
H196 C234 0.930 . S
H197 C178 0.930 . S
H198 C233 0.931 . S
N199 Eu168 2.657 . S
N199 C200 1.334 . S
N199 C204 1.362 . S
C200 H192 0.929 . S
C200 N199 1.334 . S
C200 C203 1.413 . S
C201 H195 0.930 . S
C201 C202 1.392 . S
C201 C203 1.367 . S
C202 C201 1.392 . S
C202 C204 1.420 . S
C202 C234 1.423 . S
C203 H189 0.930 . S
C203 C200 1.413 . S
C203 C201 1.367 . S
C204 N199 1.362 . S
C204 C202 1.420 . S
C204 C208 1.429 . S
H205 C210 0.930 . S
N206 Eu168 2.609 . S
N206 C208 1.377 . S
N206 C209 1.321 . S
C207 H193 0.930 . S
C207 C209 1.400 . S
C207 C210 1.386 . S
C208 C204 1.429 . S
C208 N206 1.377 . S
C208 C211 1.411 . S
C209 H191 0.930 . S
C209 N206 1.321 . S
C209 C207 1.400 . S
C210 H205 0.930 . S
C210 C207 1.386 . S
C210 C211 1.395 . S
C211 C208 1.411 . S
C211 C210 1.395 . S
C211 C233 1.420 . S
O212 Eu168 2.558 . S
O212 C232 1.257 . S
O213 Eu168 2.612 . S
O213 Eu179 2.380 . S
O213 C224 1.276 . S
O214 Eu179 2.432 . S
O214 C231 1.264 . S
O215 Eu168 2.339 . S
O215 C231 1.254 . S
O216 Eu168 2.563 . S
O216 C224 1.235 . S
O217 Eu168 2.419 . S
O217 C232 1.249 . S
O218 Eu179 2.558 . S
O218 C243 1.257 . S
O219 Eu168 2.380 . S
O219 Eu179 2.612 . S
O219 C235 1.276 . S
O220 Eu168 2.432 . S
O220 C242 1.264 . S
O221 Eu179 2.339 . S
O221 C242 1.254 . S
O222 Eu179 2.563 . S
O222 C235 1.235 . S
O223 Eu179 2.419 . S
O223 C243 1.249 . S
C224 O213 1.276 . S
C224 O216 1.235 . S
C225 C227 1.393 . S
C225 C229 1.395 . S
C225 C232 1.492 . S
C226 C227 1.392 . S
C226 C228 1.386 . S
C227 C225 1.393 . S
C227 C226 1.392 . S
C227 H244 0.930 . S
C228 C226 1.386 . S
C228 C230 1.395 . S
C228 H245 0.930 . S
C229 C225 1.395 . S
C229 C230 1.379 . S
C229 H246 0.930 . S
C230 C228 1.395 . S
C230 C229 1.379 . S
C230 H247 0.930 . S
C231 O214 1.264 . S
C231 O215 1.254 . S
C232 Eu168 2.848 . S
C232 O212 1.257 . S
C232 O217 1.249 . S
C232 C225 1.492 . S
C233 H198 0.931 . S
C233 C211 1.420 . S
C233 C234 1.351 . S
C234 H196 0.930 . S
C234 C202 1.423 . S
C234 C233 1.351 . S
C235 O219 1.276 . S
C235 O222 1.235 . S
C236 C237 1.393 . S
C236 C240 1.395 . S
C236 C243 1.492 . S
C237 C236 1.393 . S
C237 C238 1.392 . S
C237 H248 0.930 . S
C238 C237 1.392 . S
C238 C239 1.386 . S
C239 C238 1.386 . S
C239 C241 1.395 . S
C239 H249 0.930 . S
C240 C236 1.395 . S
C240 C241 1.379 . S
C240 H250 0.930 . S
C241 C239 1.395 . S
C241 C240 1.379 . S
C241 H251 0.930 . S
C242 O220 1.264 . S
C242 O221 1.254 . S
C243 Eu179 2.848 . S
C243 O218 1.257 . S
C243 O223 1.249 . S
C243 C236 1.492 . S
H244 C227 0.930 . S
H245 C228 0.930 . S
H246 C229 0.930 . S
H247 C230 0.930 . S
H248 C237 0.930 . S
H249 C239 0.930 . S
H250 C240 0.930 . S
H251 C241 0.930 . S
Eu252 N283 2.657 . S
Eu252 N290 2.609 . S
Eu252 O296 2.558 . S
Eu252 O297 2.612 . S
Eu252 O299 2.339 . S
Eu252 O300 2.563 . S
Eu252 O301 2.419 . S
Eu252 O303 2.380 . S
Eu252 O304 2.432 . S
Eu252 C316 2.848 . S
C253 C256 1.429 . S
C253 C257 1.411 . S
C253 N260 1.377 . S
C254 C256 1.420 . S
C254 C258 1.423 . S
C254 C266 1.392 . S
C255 C257 1.420 . S
C255 C258 1.351 . S
C255 H278 0.931 . S
C256 C253 1.429 . S
C256 C254 1.420 . S
C256 N264 1.362 . S
C257 C253 1.411 . S
C257 C255 1.420 . S
C257 C262 1.395 . S
C258 C254 1.423 . S
C258 C255 1.351 . S
C258 H270 0.930 . S
C259 C261 1.400 . S
C259 C262 1.386 . S
C259 H271 0.930 . S
N260 C253 1.377 . S
N260 C261 1.321 . S
N260 Eu263 2.609 . S
C261 C259 1.400 . S
C261 N260 1.321 . S
C261 H268 0.930 . S
C262 C257 1.395 . S
C262 C259 1.386 . S
C262 H281 0.930 . S
Eu263 N260 2.609 . S
Eu263 N264 2.657 . S
Eu263 O297 2.380 . S
Eu263 O298 2.432 . S
Eu263 O302 2.558 . S
Eu263 O303 2.612 . S
Eu263 O305 2.339 . S
Eu263 O306 2.563 . S
Eu263 O307 2.419 . S
Eu263 C327 2.848 . S
N264 C256 1.362 . S
N264 Eu263 2.657 . S
N264 C265 1.334 . S
C265 N264 1.334 . S
C265 C267 1.413 . S
C265 H272 0.929 . S
C266 C254 1.392 . S
C266 C267 1.367 . S
C266 H274 0.930 . S
C267 C265 1.413 . S
C267 C266 1.367 . S
C267 H269 0.930 . S
H268 C261 0.930 . S
H269 C267 0.930 . S
H270 C258 0.930 . S
H271 C259 0.930 . S
H272 C265 0.929 . S
H273 C287 0.930 . S
H274 C266 0.930 . S
H275 C293 0.930 . S
H276 C284 0.929 . S
H277 C291 0.930 . S
H278 C255 0.931 . S
H279 C285 0.930 . S
H280 C318 0.930 . S
H281 C262 0.930 . S
H282 C317 0.931 . S
N283 Eu252 2.657 . S
N283 C284 1.334 . S
N283 C288 1.362 . S
C284 H276 0.929 . S
C284 N283 1.334 . S
C284 C287 1.413 . S
C285 H279 0.930 . S
C285 C286 1.392 . S
C285 C287 1.367 . S
C286 C285 1.392 . S
C286 C288 1.420 . S
C286 C318 1.423 . S
C287 H273 0.930 . S
C287 C284 1.413 . S
C287 C285 1.367 . S
C288 N283 1.362 . S
C288 C286 1.420 . S
C288 C292 1.429 . S
H289 C294 0.930 . S
N290 Eu252 2.609 . S
N290 C292 1.377 . S
N290 C293 1.321 . S
C291 H277 0.930 . S
C291 C293 1.400 . S
C291 C294 1.386 . S
C292 C288 1.429 . S
C292 N290 1.377 . S
C292 C295 1.411 . S
C293 H275 0.930 . S
C293 N290 1.321 . S
C293 C291 1.400 . S
C294 H289 0.930 . S
C294 C291 1.386 . S
C294 C295 1.395 . S
C295 C292 1.411 . S
C295 C294 1.395 . S
C295 C317 1.420 . S
O296 Eu252 2.558 . S
O296 C316 1.257 . S
O297 Eu252 2.612 . S
O297 Eu263 2.380 . S
O297 C308 1.276 . S
O298 Eu263 2.432 . S
O298 C315 1.264 . S
O299 Eu252 2.339 . S
O299 C315 1.254 . S
O300 Eu252 2.563 . S
O300 C308 1.235 . S
O301 Eu252 2.419 . S
O301 C316 1.249 . S
O302 Eu263 2.558 . S
O302 C327 1.257 . S
O303 Eu252 2.380 . S
O303 Eu263 2.612 . S
O303 C319 1.276 . S
O304 Eu252 2.432 . S
O304 C326 1.264 . S
O305 Eu263 2.339 . S
O305 C326 1.254 . S
O306 Eu263 2.563 . S
O306 C319 1.235 . S
O307 Eu263 2.419 . S
O307 C327 1.249 . S
C308 O297 1.276 . S
C308 O300 1.235 . S
C309 C311 1.393 . S
C309 C313 1.395 . S
C309 C316 1.492 . S
C310 C311 1.392 . S
C310 C312 1.386 . S
C311 C309 1.393 . S
C311 C310 1.392 . S
C311 H328 0.930 . S
C312 C310 1.386 . S
C312 C314 1.395 . S
C312 H329 0.930 . S
C313 C309 1.395 . S
C313 C314 1.379 . S
C313 H330 0.930 . S
C314 C312 1.395 . S
C314 C313 1.379 . S
C314 H331 0.930 . S
C315 O298 1.264 . S
C315 O299 1.254 . S
C316 Eu252 2.848 . S
C316 O296 1.257 . S
C316 O301 1.249 . S
C316 C309 1.492 . S
C317 H282 0.931 . S
C317 C295 1.420 . S
C317 C318 1.351 . S
C318 H280 0.930 . S
C318 C286 1.423 . S
C318 C317 1.351 . S
C319 O303 1.276 . S
C319 O306 1.235 . S
C320 C321 1.393 . S
C320 C324 1.395 . S
C320 C327 1.492 . S
C321 C320 1.393 . S
C321 C322 1.392 . S
C321 H332 0.930 . S
C322 C321 1.392 . S
C322 C323 1.386 . S
C323 C322 1.386 . S
C323 C325 1.395 . S
C323 H333 0.930 . S
C324 C320 1.395 . S
C324 C325 1.379 . S
C324 H334 0.930 . S
C325 C323 1.395 . S
C325 C324 1.379 . S
C325 H335 0.930 . S
C326 O304 1.264 . S
C326 O305 1.254 . S
C327 Eu263 2.848 . S
C327 O302 1.257 . S
C327 O307 1.249 . S
C327 C320 1.492 . S
H328 C311 0.930 . S
H329 C312 0.930 . S
H330 C313 0.930 . S
H331 C314 0.930 . S
H332 C321 0.930 . S
H333 C323 0.930 . S
H334 C324 0.930 . S
H335 C325 0.930 . S
Eu336 N367 2.657 . S
Eu336 N374 2.609 . S
Eu336 O380 2.558 . S
Eu336 O381 2.612 . S
Eu336 O383 2.339 . S
Eu336 O384 2.563 . S
Eu336 O385 2.419 . S
Eu336 O387 2.380 . S
Eu336 O388 2.432 . S
Eu336 C400 2.848 . S
C337 C340 1.429 . S
C337 C341 1.411 . S
C337 N344 1.377 . S
C338 C340 1.420 . S
C338 C342 1.423 . S
C338 C350 1.392 . S
C339 C341 1.420 . S
C339 C342 1.351 . S
C339 H362 0.931 . S
C340 C337 1.429 . S
C340 C338 1.420 . S
C340 N348 1.362 . S
C341 C337 1.411 . S
C341 C339 1.420 . S
C341 C346 1.395 . S
C342 C338 1.423 . S
C342 C339 1.351 . S
C342 H354 0.930 . S
C343 C345 1.400 . S
C343 C346 1.386 . S
C343 H355 0.930 . S
N344 C337 1.377 . S
N344 C345 1.321 . S
N344 Eu347 2.609 . S
C345 C343 1.400 . S
C345 N344 1.321 . S
C345 H352 0.930 . S
C346 C341 1.395 . S
C346 C343 1.386 . S
C346 H365 0.930 . S
Eu347 N344 2.609 . S
Eu347 N348 2.657 . S
Eu347 O381 2.380 . S
Eu347 O382 2.432 . S
Eu347 O386 2.558 . S
Eu347 O387 2.612 . S
Eu347 O389 2.339 . S
Eu347 O390 2.563 . S
Eu347 O391 2.419 . S
Eu347 C411 2.848 . S
N348 C340 1.362 . S
N348 Eu347 2.657 . S
N348 C349 1.334 . S
C349 N348 1.334 . S
C349 C351 1.413 . S
C349 H356 0.929 . S
C350 C338 1.392 . S
C350 C351 1.367 . S
C350 H358 0.930 . S
C351 C349 1.413 . S
C351 C350 1.367 . S
C351 H353 0.930 . S
H352 C345 0.930 . S
H353 C351 0.930 . S
H354 C342 0.930 . S
H355 C343 0.930 . S
H356 C349 0.929 . S
H357 C371 0.930 . S
H358 C350 0.930 . S
H359 C377 0.930 . S
H360 C368 0.929 . S
H361 C375 0.930 . S
H362 C339 0.931 . S
H363 C369 0.930 . S
H364 C402 0.930 . S
H365 C346 0.930 . S
H366 C401 0.931 . S
N367 Eu336 2.657 . S
N367 C368 1.334 . S
N367 C372 1.362 . S
C368 H360 0.929 . S
C368 N367 1.334 . S
C368 C371 1.413 . S
C369 H363 0.930 . S
C369 C370 1.392 . S
C369 C371 1.367 . S
C370 C369 1.392 . S
C370 C372 1.420 . S
C370 C402 1.423 . S
C371 H357 0.930 . S
C371 C368 1.413 . S
C371 C369 1.367 . S
C372 N367 1.362 . S
C372 C370 1.420 . S
C372 C376 1.429 . S
H373 C378 0.930 . S
N374 Eu336 2.609 . S
N374 C376 1.377 . S
N374 C377 1.321 . S
C375 H361 0.930 . S
C375 C377 1.400 . S
C375 C378 1.386 . S
C376 C372 1.429 . S
C376 N374 1.377 . S
C376 C379 1.411 . S
C377 H359 0.930 . S
C377 N374 1.321 . S
C377 C375 1.400 . S
C378 H373 0.930 . S
C378 C375 1.386 . S
C378 C379 1.395 . S
C379 C376 1.411 . S
C379 C378 1.395 . S
C379 C401 1.420 . S
O380 Eu336 2.558 . S
O380 C400 1.257 . S
O381 Eu336 2.612 . S
O381 Eu347 2.380 . S
O381 C392 1.276 . S
O382 Eu347 2.432 . S
O382 C399 1.264 . S
O383 Eu336 2.339 . S
O383 C399 1.254 . S
O384 Eu336 2.563 . S
O384 C392 1.235 . S
O385 Eu336 2.419 . S
O385 C400 1.249 . S
O386 Eu347 2.558 . S
O386 C411 1.257 . S
O387 Eu336 2.380 . S
O387 Eu347 2.612 . S
O387 C403 1.276 . S
O388 Eu336 2.432 . S
O388 C410 1.264 . S
O389 Eu347 2.339 . S
O389 C410 1.254 . S
O390 Eu347 2.563 . S
O390 C403 1.235 . S
O391 Eu347 2.419 . S
O391 C411 1.249 . S
C392 O381 1.276 . S
C392 O384 1.235 . S
C393 C395 1.393 . S
C393 C397 1.395 . S
C393 C400 1.492 . S
C394 C395 1.392 . S
C394 C396 1.386 . S
C395 C393 1.393 . S
C395 C394 1.392 . S
C395 H412 0.930 . S
C396 C394 1.386 . S
C396 C398 1.395 . S
C396 H413 0.930 . S
C397 C393 1.395 . S
C397 C398 1.379 . S
C397 H414 0.930 . S
C398 C396 1.395 . S
C398 C397 1.379 . S
C398 H415 0.930 . S
C399 O382 1.264 . S
C399 O383 1.254 . S
C400 Eu336 2.848 . S
C400 O380 1.257 . S
C400 O385 1.249 . S
C400 C393 1.492 . S
C401 H366 0.931 . S
C401 C379 1.420 . S
C401 C402 1.351 . S
C402 H364 0.930 . S
C402 C370 1.423 . S
C402 C401 1.351 . S
C403 O387 1.276 . S
C403 O390 1.235 . S
C404 C405 1.393 . S
C404 C408 1.395 . S
C404 C411 1.492 . S
C405 C404 1.393 . S
C405 C406 1.392 . S
C405 H416 0.930 . S
C406 C405 1.392 . S
C406 C407 1.386 . S
C407 C406 1.386 . S
C407 C409 1.395 . S
C407 H417 0.930 . S
C408 C404 1.395 . S
C408 C409 1.379 . S
C408 H418 0.930 . S
C409 C407 1.395 . S
C409 C408 1.379 . S
C409 H419 0.930 . S
C410 O388 1.264 . S
C410 O389 1.254 . S
C411 Eu347 2.848 . S
C411 O386 1.257 . S
C411 O391 1.249 . S
C411 C404 1.492 . S
H412 C395 0.930 . S
H413 C396 0.930 . S
H414 C397 0.930 . S
H415 C398 0.930 . S
H416 C405 0.930 . S
H417 C407 0.930 . S
H418 C408 0.930 . S
H419 C409 0.930 . S
Eu420 N451 2.657 . S
Eu420 N458 2.609 . S
Eu420 O464 2.558 . S
Eu420 O465 2.612 . S
Eu420 O467 2.339 . S
Eu420 O468 2.563 . S
Eu420 O469 2.419 . S
Eu420 O471 2.380 . S
Eu420 O472 2.432 . S
Eu420 C484 2.848 . S
C421 C424 1.429 . S
C421 C425 1.411 . S
C421 N428 1.377 . S
C422 C424 1.420 . S
C422 C426 1.423 . S
C422 C434 1.392 . S
C423 C425 1.420 . S
C423 C426 1.351 . S
C423 H446 0.931 . S
C424 C421 1.429 . S
C424 C422 1.420 . S
C424 N432 1.362 . S
C425 C421 1.411 . S
C425 C423 1.420 . S
C425 C430 1.395 . S
C426 C422 1.423 . S
C426 C423 1.351 . S
C426 H438 0.930 . S
C427 C429 1.400 . S
C427 C430 1.386 . S
C427 H439 0.930 . S
N428 C421 1.377 . S
N428 C429 1.321 . S
N428 Eu431 2.609 . S
C429 C427 1.400 . S
C429 N428 1.321 . S
C429 H436 0.930 . S
C430 C425 1.395 . S
C430 C427 1.386 . S
C430 H449 0.930 . S
Eu431 N428 2.609 . S
Eu431 N432 2.657 . S
Eu431 O465 2.380 . S
Eu431 O466 2.432 . S
Eu431 O470 2.558 . S
Eu431 O471 2.612 . S
Eu431 O473 2.339 . S
Eu431 O474 2.563 . S
Eu431 O475 2.419 . S
Eu431 C495 2.848 . S
N432 C424 1.362 . S
N432 Eu431 2.657 . S
N432 C433 1.334 . S
C433 N432 1.334 . S
C433 C435 1.413 . S
C433 H440 0.929 . S
C434 C422 1.392 . S
C434 C435 1.367 . S
C434 H442 0.930 . S
C435 C433 1.413 . S
C435 C434 1.367 . S
C435 H437 0.930 . S
H436 C429 0.930 . S
H437 C435 0.930 . S
H438 C426 0.930 . S
H439 C427 0.930 . S
H440 C433 0.929 . S
H441 C455 0.930 . S
H442 C434 0.930 . S
H443 C461 0.930 . S
H444 C452 0.929 . S
H445 C459 0.930 . S
H446 C423 0.931 . S
H447 C453 0.930 . S
H448 C486 0.930 . S
H449 C430 0.930 . S
H450 C485 0.931 . S
N451 Eu420 2.657 . S
N451 C452 1.334 . S
N451 C456 1.362 . S
C452 H444 0.929 . S
C452 N451 1.334 . S
C452 C455 1.413 . S
C453 H447 0.930 . S
C453 C454 1.392 . S
C453 C455 1.367 . S
C454 C453 1.392 . S
C454 C456 1.420 . S
C454 C486 1.423 . S
C455 H441 0.930 . S
C455 C452 1.413 . S
C455 C453 1.367 . S
C456 N451 1.362 . S
C456 C454 1.420 . S
C456 C460 1.429 . S
H457 C462 0.930 . S
N458 Eu420 2.609 . S
N458 C460 1.377 . S
N458 C461 1.321 . S
C459 H445 0.930 . S
C459 C461 1.400 . S
C459 C462 1.386 . S
C460 C456 1.429 . S
C460 N458 1.377 . S
C460 C463 1.411 . S
C461 H443 0.930 . S
C461 N458 1.321 . S
C461 C459 1.400 . S
C462 H457 0.930 . S
C462 C459 1.386 . S
C462 C463 1.395 . S
C463 C460 1.411 . S
C463 C462 1.395 . S
C463 C485 1.420 . S
O464 Eu420 2.558 . S
O464 C484 1.257 . S
O465 Eu420 2.612 . S
O465 Eu431 2.380 . S
O465 C476 1.276 . S
O466 Eu431 2.432 . S
O466 C483 1.264 . S
O467 Eu420 2.339 . S
O467 C483 1.254 . S
O468 Eu420 2.563 . S
O468 C476 1.235 . S
O469 Eu420 2.419 . S
O469 C484 1.249 . S
O470 Eu431 2.558 . S
O470 C495 1.257 . S
O471 Eu420 2.380 . S
O471 Eu431 2.612 . S
O471 C487 1.276 . S
O472 Eu420 2.432 . S
O472 C494 1.264 . S
O473 Eu431 2.339 . S
O473 C494 1.254 . S
O474 Eu431 2.563 . S
O474 C487 1.235 . S
O475 Eu431 2.419 . S
O475 C495 1.249 . S
C476 O465 1.276 . S
C476 O468 1.235 . S
C477 C479 1.393 . S
C477 C481 1.395 . S
C477 C484 1.492 . S
C478 C479 1.392 . S
C478 C480 1.386 . S
C479 C477 1.393 . S
C479 C478 1.392 . S
C479 H496 0.930 . S
C480 C478 1.386 . S
C480 C482 1.395 . S
C480 H497 0.930 . S
C481 C477 1.395 . S
C481 C482 1.379 . S
C481 H498 0.930 . S
C482 C480 1.395 . S
C482 C481 1.379 . S
C482 H499 0.930 . S
C483 O466 1.264 . S
C483 O467 1.254 . S
C484 Eu420 2.848 . S
C484 O464 1.257 . S
C484 O469 1.249 . S
C484 C477 1.492 . S
C485 H450 0.931 . S
C485 C463 1.420 . S
C485 C486 1.351 . S
C486 H448 0.930 . S
C486 C454 1.423 . S
C486 C485 1.351 . S
C487 O471 1.276 . S
C487 O474 1.235 . S
C488 C489 1.393 . S
C488 C492 1.395 . S
C488 C495 1.492 . S
C489 C488 1.393 . S
C489 C490 1.392 . S
C489 H500 0.930 . S
C490 C489 1.392 . S
C490 C491 1.386 . S
C491 C490 1.386 . S
C491 C493 1.395 . S
C491 H501 0.930 . S
C492 C488 1.395 . S
C492 C493 1.379 . S
C492 H502 0.930 . S
C493 C491 1.395 . S
C493 C492 1.379 . S
C493 H503 0.930 . S
C494 O472 1.264 . S
C494 O473 1.254 . S
C495 Eu431 2.848 . S
C495 O470 1.257 . S
C495 O475 1.249 . S
C495 C488 1.492 . S
H496 C479 0.930 . S
H497 C480 0.930 . S
H498 C481 0.930 . S
H499 C482 0.930 . S
H500 C489 0.930 . S
H501 C491 0.930 . S
H502 C492 0.930 . S
H503 C493 0.930 . S
Eu504 N535 2.657 . S
Eu504 N542 2.609 . S
Eu504 O548 2.558 . S
Eu504 O549 2.612 . S
Eu504 O551 2.339 . S
Eu504 O552 2.563 . S
Eu504 O553 2.419 . S
Eu504 O555 2.380 . S
Eu504 O556 2.432 . S
Eu504 C568 2.848 . S
C505 C508 1.429 . S
C505 C509 1.411 . S
C505 N512 1.377 . S
C506 C508 1.420 . S
C506 C510 1.423 . S
C506 C518 1.392 . S
C507 C509 1.420 . S
C507 C510 1.351 . S
C507 H530 0.931 . S
C508 C505 1.429 . S
C508 C506 1.420 . S
C508 N516 1.362 . S
C509 C505 1.411 . S
C509 C507 1.420 . S
C509 C514 1.395 . S
C510 C506 1.423 . S
C510 C507 1.351 . S
C510 H522 0.930 . S
C511 C513 1.400 . S
C511 C514 1.386 . S
C511 H523 0.930 . S
N512 C505 1.377 . S
N512 C513 1.321 . S
N512 Eu515 2.609 . S
C513 C511 1.400 . S
C513 N512 1.321 . S
C513 H520 0.930 . S
C514 C509 1.395 . S
C514 C511 1.386 . S
C514 H533 0.930 . S
Eu515 N512 2.609 . S
Eu515 N516 2.657 . S
Eu515 O549 2.380 . S
Eu515 O550 2.432 . S
Eu515 O554 2.558 . S
Eu515 O555 2.612 . S
Eu515 O557 2.339 . S
Eu515 O558 2.563 . S
Eu515 O559 2.419 . S
Eu515 C579 2.848 . S
N516 C508 1.362 . S
N516 Eu515 2.657 . S
N516 C517 1.334 . S
C517 N516 1.334 . S
C517 C519 1.413 . S
C517 H524 0.929 . S
C518 C506 1.392 . S
C518 C519 1.367 . S
C518 H526 0.930 . S
C519 C517 1.413 . S
C519 C518 1.367 . S
C519 H521 0.930 . S
H520 C513 0.930 . S
H521 C519 0.930 . S
H522 C510 0.930 . S
H523 C511 0.930 . S
H524 C517 0.929 . S
H525 C539 0.930 . S
H526 C518 0.930 . S
H527 C545 0.930 . S
H528 C536 0.929 . S
H529 C543 0.930 . S
H530 C507 0.931 . S
H531 C537 0.930 . S
H532 C570 0.930 . S
H533 C514 0.930 . S
H534 C569 0.931 . S
N535 Eu504 2.657 . S
N535 C536 1.334 . S
N535 C540 1.362 . S
C536 H528 0.929 . S
C536 N535 1.334 . S
C536 C539 1.413 . S
C537 H531 0.930 . S
C537 C538 1.392 . S
C537 C539 1.367 . S
C538 C537 1.392 . S
C538 C540 1.420 . S
C538 C570 1.423 . S
C539 H525 0.930 . S
C539 C536 1.413 . S
C539 C537 1.367 . S
C540 N535 1.362 . S
C540 C538 1.420 . S
C540 C544 1.429 . S
H541 C546 0.930 . S
N542 Eu504 2.609 . S
N542 C544 1.377 . S
N542 C545 1.321 . S
C543 H529 0.930 . S
C543 C545 1.400 . S
C543 C546 1.386 . S
C544 C540 1.429 . S
C544 N542 1.377 . S
C544 C547 1.411 . S
C545 H527 0.930 . S
C545 N542 1.321 . S
C545 C543 1.400 . S
C546 H541 0.930 . S
C546 C543 1.386 . S
C546 C547 1.395 . S
C547 C544 1.411 . S
C547 C546 1.395 . S
C547 C569 1.420 . S
O548 Eu504 2.558 . S
O548 C568 1.257 . S
O549 Eu504 2.612 . S
O549 Eu515 2.380 . S
O549 C560 1.276 . S
O550 Eu515 2.432 . S
O550 C567 1.264 . S
O551 Eu504 2.339 . S
O551 C567 1.254 . S
O552 Eu504 2.563 . S
O552 C560 1.235 . S
O553 Eu504 2.419 . S
O553 C568 1.249 . S
O554 Eu515 2.558 . S
O554 C579 1.257 . S
O555 Eu504 2.380 . S
O555 Eu515 2.612 . S
O555 C571 1.276 . S
O556 Eu504 2.432 . S
O556 C578 1.264 . S
O557 Eu515 2.339 . S
O557 C578 1.254 . S
O558 Eu515 2.563 . S
O558 C571 1.235 . S
O559 Eu515 2.419 . S
O559 C579 1.249 . S
C560 O549 1.276 . S
C560 O552 1.235 . S
C561 C563 1.393 . S
C561 C565 1.395 . S
C561 C568 1.492 . S
C562 C563 1.392 . S
C562 C564 1.386 . S
C563 C561 1.393 . S
C563 C562 1.392 . S
C563 H580 0.930 . S
C564 C562 1.386 . S
C564 C566 1.395 . S
C564 H581 0.930 . S
C565 C561 1.395 . S
C565 C566 1.379 . S
C565 H582 0.930 . S
C566 C564 1.395 . S
C566 C565 1.379 . S
C566 H583 0.930 . S
C567 O550 1.264 . S
C567 O551 1.254 . S
C568 Eu504 2.848 . S
C568 O548 1.257 . S
C568 O553 1.249 . S
C568 C561 1.492 . S
C569 H534 0.931 . S
C569 C547 1.420 . S
C569 C570 1.351 . S
C570 H532 0.930 . S
C570 C538 1.423 . S
C570 C569 1.351 . S
C571 O555 1.276 . S
C571 O558 1.235 . S
C572 C573 1.393 . S
C572 C576 1.395 . S
C572 C579 1.492 . S
C573 C572 1.393 . S
C573 C574 1.392 . S
C573 H584 0.930 . S
C574 C573 1.392 . S
C574 C575 1.386 . S
C575 C574 1.386 . S
C575 C577 1.395 . S
C575 H585 0.930 . S
C576 C572 1.395 . S
C576 C577 1.379 . S
C576 H586 0.930 . S
C577 C575 1.395 . S
C577 C576 1.379 . S
C577 H587 0.930 . S
C578 O556 1.264 . S
C578 O557 1.254 . S
C579 Eu515 2.848 . S
C579 O554 1.257 . S
C579 O559 1.249 . S
C579 C572 1.492 . S
H580 C563 0.930 . S
H581 C564 0.930 . S
H582 C565 0.930 . S
H583 C566 0.930 . S
H584 C573 0.930 . S
H585 C575 0.930 . S
H586 C576 0.930 . S
H587 C577 0.930 . S
Eu588 N619 2.657 . S
Eu588 N626 2.609 . S
Eu588 O632 2.558 . S
Eu588 O633 2.612 . S
Eu588 O635 2.339 . S
Eu588 O636 2.563 . S
Eu588 O637 2.419 . S
Eu588 O639 2.380 . S
Eu588 O640 2.432 . S
Eu588 C652 2.848 . S
C589 C592 1.429 . S
C589 C593 1.411 . S
C589 N596 1.377 . S
C590 C592 1.420 . S
C590 C594 1.423 . S
C590 C602 1.392 . S
C591 C593 1.420 . S
C591 C594 1.351 . S
C591 H614 0.931 . S
C592 C589 1.429 . S
C592 C590 1.420 . S
C592 N600 1.362 . S
C593 C589 1.411 . S
C593 C591 1.420 . S
C593 C598 1.395 . S
C594 C590 1.423 . S
C594 C591 1.351 . S
C594 H606 0.930 . S
C595 C597 1.400 . S
C595 C598 1.386 . S
C595 H607 0.930 . S
N596 C589 1.377 . S
N596 C597 1.321 . S
N596 Eu599 2.609 . S
C597 C595 1.400 . S
C597 N596 1.321 . S
C597 H604 0.930 . S
C598 C593 1.395 . S
C598 C595 1.386 . S
C598 H617 0.930 . S
Eu599 N596 2.609 . S
Eu599 N600 2.657 . S
Eu599 O633 2.380 . S
Eu599 O634 2.432 . S
Eu599 O638 2.558 . S
Eu599 O639 2.612 . S
Eu599 O641 2.339 . S
Eu599 O642 2.563 . S
Eu599 O643 2.419 . S
Eu599 C663 2.848 . S
N600 C592 1.362 . S
N600 Eu599 2.657 . S
N600 C601 1.334 . S
C601 N600 1.334 . S
C601 C603 1.413 . S
C601 H608 0.929 . S
C602 C590 1.392 . S
C602 C603 1.367 . S
C602 H610 0.930 . S
C603 C601 1.413 . S
C603 C602 1.367 . S
C603 H605 0.930 . S
H604 C597 0.930 . S
H605 C603 0.930 . S
H606 C594 0.930 . S
H607 C595 0.930 . S
H608 C601 0.929 . S
H609 C623 0.930 . S
H610 C602 0.930 . S
H611 C629 0.930 . S
H612 C620 0.929 . S
H613 C627 0.930 . S
H614 C591 0.931 . S
H615 C621 0.930 . S
H616 C654 0.930 . S
H617 C598 0.930 . S
H618 C653 0.931 . S
N619 Eu588 2.657 . S
N619 C620 1.334 . S
N619 C624 1.362 . S
C620 H612 0.929 . S
C620 N619 1.334 . S
C620 C623 1.413 . S
C621 H615 0.930 . S
C621 C622 1.392 . S
C621 C623 1.367 . S
C622 C621 1.392 . S
C622 C624 1.420 . S
C622 C654 1.423 . S
C623 H609 0.930 . S
C623 C620 1.413 . S
C623 C621 1.367 . S
C624 N619 1.362 . S
C624 C622 1.420 . S
C624 C628 1.429 . S
H625 C630 0.930 . S
N626 Eu588 2.609 . S
N626 C628 1.377 . S
N626 C629 1.321 . S
C627 H613 0.930 . S
C627 C629 1.400 . S
C627 C630 1.386 . S
C628 C624 1.429 . S
C628 N626 1.377 . S
C628 C631 1.411 . S
C629 H611 0.930 . S
C629 N626 1.321 . S
C629 C627 1.400 . S
C630 H625 0.930 . S
C630 C627 1.386 . S
C630 C631 1.395 . S
C631 C628 1.411 . S
C631 C630 1.395 . S
C631 C653 1.420 . S
O632 Eu588 2.558 . S
O632 C652 1.257 . S
O633 Eu588 2.612 . S
O633 Eu599 2.380 . S
O633 C644 1.276 . S
O634 Eu599 2.432 . S
O634 C651 1.264 . S
O635 Eu588 2.339 . S
O635 C651 1.254 . S
O636 Eu588 2.563 . S
O636 C644 1.235 . S
O637 Eu588 2.419 . S
O637 C652 1.249 . S
O638 Eu599 2.558 . S
O638 C663 1.257 . S
O639 Eu588 2.380 . S
O639 Eu599 2.612 . S
O639 C655 1.276 . S
O640 Eu588 2.432 . S
O640 C662 1.264 . S
O641 Eu599 2.339 . S
O641 C662 1.254 . S
O642 Eu599 2.563 . S
O642 C655 1.235 . S
O643 Eu599 2.419 . S
O643 C663 1.249 . S
C644 O633 1.276 . S
C644 O636 1.235 . S
C645 C647 1.393 . S
C645 C649 1.395 . S
C645 C652 1.492 . S
C646 C647 1.392 . S
C646 C648 1.386 . S
C647 C645 1.393 . S
C647 C646 1.392 . S
C647 H664 0.930 . S
C648 C646 1.386 . S
C648 C650 1.395 . S
C648 H665 0.930 . S
C649 C645 1.395 . S
C649 C650 1.379 . S
C649 H666 0.930 . S
C650 C648 1.395 . S
C650 C649 1.379 . S
C650 H667 0.930 . S
C651 O634 1.264 . S
C651 O635 1.254 . S
C652 Eu588 2.848 . S
C652 O632 1.257 . S
C652 O637 1.249 . S
C652 C645 1.492 . S
C653 H618 0.931 . S
C653 C631 1.420 . S
C653 C654 1.351 . S
C654 H616 0.930 . S
C654 C622 1.423 . S
C654 C653 1.351 . S
C655 O639 1.276 . S
C655 O642 1.235 . S
C656 C657 1.393 . S
C656 C660 1.395 . S
C656 C663 1.492 . S
C657 C656 1.393 . S
C657 C658 1.392 . S
C657 H668 0.930 . S
C658 C657 1.392 . S
C658 C659 1.386 . S
C659 C658 1.386 . S
C659 C661 1.395 . S
C659 H669 0.930 . S
C660 C656 1.395 . S
C660 C661 1.379 . S
C660 H670 0.930 . S
C661 C659 1.395 . S
C661 C660 1.379 . S
C661 H671 0.930 . S
C662 O640 1.264 . S
C662 O641 1.254 . S
C663 Eu599 2.848 . S
C663 O638 1.257 . S
C663 O643 1.249 . S
C663 C656 1.492 . S
H664 C647 0.930 . S
H665 C648 0.930 . S
H666 C649 0.930 . S
H667 C650 0.930 . S
H668 C657 0.930 . S
H669 C659 0.930 . S
H670 C660 0.930 . S
H671 C661 0.930 . S
C672 O684 1.241 . S
C672 O685 1.280 . S
C673 O686 1.277 . S
C673 O687 1.245 . S
C674 O698 1.247 . S
C674 O700 1.289 . S
Mg675 O676 1.924 . S
Mg675 O685 2.012 . S
Mg675 O687 1.998 . S
Mg675 O688 2.033 1_655 S
O676 Mg675 1.924 . S
O676 Mg677 1.986 1_545 S
O676 Mg678 1.900 1_655 S
Mg677 O676 1.986 1_565 S
Mg677 O684 2.042 1_565 S
Mg677 O686 2.041 1_565 S
Mg677 O692 2.038 . S
Mg677 O700 2.238 . S
Mg678 O676 1.900 1_455 S
Mg678 O679 1.934 1_545 S
Mg678 O689 2.125 . S
Mg678 O691 2.069 1_445 S
Mg678 O700 2.088 1_445 S
Mg678 O701 2.088 . S
O679 Mg678 1.934 1_565 S
O679 Mg680 1.926 . S
O679 Mg681 1.986 1_565 S
Mg680 O679 1.926 . S
Mg680 O694 1.984 . S
Mg680 O697 1.988 . S
Mg680 O698 2.061 1_455 S
Mg681 O679 1.986 1_545 S
Mg681 O689 2.238 . S
Mg681 O693 2.042 1_545 S
Mg681 O695 2.041 1_545 S
Mg681 O702 2.038 . S
C682 O688 1.247 . S
C682 O689 1.289 . S
C683 O701 1.245 . S
C683 O702 1.274 . S
O684 C672 1.241 . S
O684 Mg677 2.042 1_545 S
O685 C672 1.280 . S
O685 Mg675 2.012 . S
O686 C673 1.277 . S
O686 Mg677 2.041 1_545 S
O687 C673 1.245 . S
O687 Mg675 1.998 . S
O688 Mg675 2.033 1_455 S
O688 C682 1.247 . S
O689 Mg678 2.125 . S
O689 Mg681 2.238 . S
O689 C682 1.289 . S
C690 O691 1.245 . S
C690 O692 1.274 . S
O691 Mg678 2.069 1_665 S
O691 C690 1.245 . S
O692 Mg677 2.038 . S
O692 C690 1.274 . S
O693 Mg681 2.042 1_565 S
O693 C696 1.241 . S
O694 Mg680 1.984 . S
O694 C696 1.280 . S
O695 Mg681 2.041 1_565 S
O695 C699 1.277 . S
C696 O693 1.241 . S
C696 O694 1.280 . S
O697 Mg680 1.988 . S
O697 C699 1.245 . S
O698 C674 1.247 . S
O698 Mg680 2.061 1_655 S
C699 O695 1.277 . S
C699 O697 1.245 . S
O700 C674 1.289 . S
O700 Mg677 2.238 . S
O700 Mg678 2.088 1_665 S
O701 Mg678 2.088 . S
O701 C683 1.245 . S
O702 Mg681 2.038 . S
O702 C683 1.274 . S
C703 O715 1.241 . S
C703 O716 1.280 . S
C704 O717 1.277 . S
C704 O718 1.245 . S
C705 O729 1.247 . S
C705 O731 1.289 . S
Mg706 O707 1.926 . S
Mg706 O716 1.984 . S
Mg706 O718 1.988 1_554 S
Mg706 O719 2.061 . S
O707 Mg706 1.926 . S
O707 Mg708 1.986 1_544 S
O707 Mg709 1.924 . S
Mg708 O707 1.986 1_566 S
Mg708 O715 2.042 1_566 S
Mg708 O717 2.041 1_565 S
Mg708 O723 2.038 1_556 S
Mg708 O731 2.238 . S
Mg709 O707 1.924 . S
Mg709 O710 1.910 1_544 S
Mg709 O720 2.109 . S
Mg709 O722 2.079 1_545 S
Mg709 O731 2.104 1_544 S
Mg709 O732 2.078 1_554 S
O710 Mg709 1.910 1_566 S
O710 Mg711 1.926 . S
O710 Mg712 1.986 1_566 S
Mg711 O710 1.926 . S
Mg711 O725 1.984 . S
Mg711 O728 1.988 1_556 S
Mg711 O729 2.061 . S
Mg712 O710 1.986 1_544 S
Mg712 O720 2.238 . S
Mg712 O724 2.042 1_544 S
Mg712 O726 2.041 1_545 S
Mg712 O733 2.038 1_554 S
C713 O719 1.247 . S
C713 O720 1.289 . S
C714 O732 1.245 . S
C714 O733 1.274 . S
O715 C703 1.241 . S
O715 Mg708 2.042 1_544 S
O716 C703 1.280 . S
O716 Mg706 1.984 . S
O717 C704 1.277 . S
O717 Mg708 2.041 1_545 S
O718 C704 1.245 . S
O718 Mg706 1.988 1_556 S
O719 Mg706 2.061 . S
O719 C713 1.247 . S
O720 Mg709 2.109 . S
O720 Mg712 2.238 . S
O720 C713 1.289 . S
C721 O722 1.245 . S
C721 O723 1.274 . S
O722 Mg709 2.079 1_565 S
O722 C721 1.245 . S
O723 Mg708 2.038 1_554 S
O723 C721 1.274 . S
O724 Mg712 2.042 1_566 S
O724 C727 1.241 . S
O725 Mg711 1.984 . S
O725 C727 1.280 . S
O726 Mg712 2.041 1_565 S
O726 C730 1.277 . S
C727 O724 1.241 . S
C727 O725 1.280 . S
O728 Mg711 1.988 1_554 S
O728 C730 1.245 . S
O729 C705 1.247 . S
O729 Mg711 2.061 . S
C730 O726 1.277 . S
C730 O728 1.245 . S
O731 C705 1.289 . S
O731 Mg708 2.238 . S
O731 Mg709 2.104 1_566 S
O732 Mg709 2.078 1_556 S
O732 C714 1.245 . S
O733 Mg712 2.038 1_556 S
O733 C714 1.274 . S
C734 O746 1.241 . S
C734 O747 1.280 . S
C735 O748 1.277 . S
C735 O749 1.245 . S
C736 O760 1.247 . S
C736 O762 1.289 . S
Mg737 O738 1.924 . S
Mg737 O747 2.012 . S
Mg737 O749 1.998 1_554 S
Mg737 O750 2.033 1_655 S
O738 Mg737 1.924 . S
O738 Mg739 1.986 1_554 S
O738 Mg740 1.895 1_655 S
Mg739 O738 1.986 1_556 S
Mg739 O746 2.042 1_556 S
Mg739 O748 2.041 . S
Mg739 O754 2.038 1_556 S
Mg739 O762 2.238 . S
Mg740 O738 1.895 1_455 S
Mg740 O741 1.939 1_554 S
Mg740 O751 2.126 . S
Mg740 O753 2.075 1_455 S
Mg740 O762 2.087 1_454 S
Mg740 O763 2.082 1_554 S
O741 Mg740 1.939 1_556 S
O741 Mg742 1.926 . S
O741 Mg743 1.986 1_556 S
Mg742 O741 1.926 . S
Mg742 O756 1.984 . S
Mg742 O759 1.988 1_556 S
Mg742 O760 2.061 1_455 S
Mg743 O741 1.986 1_554 S
Mg743 O751 2.238 . S
Mg743 O755 2.042 1_554 S
Mg743 O757 2.041 . S
Mg743 O764 2.038 1_554 S
C744 O750 1.247 . S
C744 O751 1.289 . S
C745 O763 1.245 . S
C745 O764 1.274 . S
O746 C734 1.241 . S
O746 Mg739 2.042 1_554 S
O747 C734 1.280 . S
O747 Mg737 2.012 . S
O748 C735 1.277 . S
O748 Mg739 2.041 . S
O749 C735 1.245 . S
O749 Mg737 1.998 1_556 S
O750 Mg737 2.033 1_455 S
O750 C744 1.247 . S
O751 Mg740 2.126 . S
O751 Mg743 2.238 . S
O751 C744 1.289 . S
C752 O753 1.245 . S
C752 O754 1.274 . S
O753 Mg740 2.075 1_655 S
O753 C752 1.245 . S
O754 Mg739 2.038 1_554 S
O754 C752 1.274 . S
O755 Mg743 2.042 1_556 S
O755 C758 1.241 . S
O756 Mg742 1.984 . S
O756 C758 1.280 . S
O757 Mg743 2.041 . S
O757 C761 1.277 . S
C758 O755 1.241 . S
C758 O756 1.280 . S
O759 Mg742 1.988 1_554 S
O759 C761 1.245 . S
O760 C736 1.247 . S
O760 Mg742 2.061 1_655 S
C761 O757 1.277 . S
C761 O759 1.245 . S
O762 C736 1.289 . S
O762 Mg739 2.238 . S
O762 Mg740 2.087 1_656 S
O763 Mg740 2.082 1_556 S
O763 C745 1.245 . S
O764 Mg743 2.038 1_556 S
O764 C745 1.274 . S
C765 O777 1.241 . S
C765 O778 1.280 . S
C766 O779 1.277 . S
C766 O780 1.245 . S
C767 O791 1.247 . S
C767 O793 1.289 . S
Mg768 O769 1.926 . S
Mg768 O778 1.984 . S
Mg768 O780 1.988 1_554 S
Mg768 O781 2.061 . S
O769 Mg768 1.926 . S
O769 Mg770 1.986 1_554 S
O769 Mg771 1.918 . S
Mg770 O769 1.986 1_556 S
Mg770 O777 2.042 1_556 S
Mg770 O779 2.041 . S
Mg770 O785 2.038 1_556 S
Mg770 O793 2.238 . S
Mg771 O769 1.918 . S
Mg771 O772 1.916 1_554 S
Mg771 O782 2.108 . S
Mg771 O784 2.082 . S
Mg771 O793 2.105 1_554 S
Mg771 O794 2.076 1_554 S
O772 Mg771 1.916 1_556 S
O772 Mg773 1.926 . S
O772 Mg774 1.986 1_556 S
Mg773 O772 1.926 . S
Mg773 O787 1.984 . S
Mg773 O790 1.988 1_556 S
Mg773 O791 2.061 . S
Mg774 O772 1.986 1_554 S
Mg774 O782 2.238 . S
Mg774 O786 2.042 1_554 S
Mg774 O788 2.041 . S
Mg774 O795 2.038 1_554 S
C775 O781 1.247 . S
C775 O782 1.289 . S
C776 O794 1.245 . S
C776 O795 1.274 . S
O777 C765 1.241 . S
O777 Mg770 2.042 1_554 S
O778 C765 1.280 . S
O778 Mg768 1.984 . S
O779 C766 1.277 . S
O779 Mg770 2.041 . S
O780 C766 1.245 . S
O780 Mg768 1.988 1_556 S
O781 Mg768 2.061 . S
O781 C775 1.247 . S
O782 Mg771 2.108 . S
O782 Mg774 2.238 . S
O782 C775 1.289 . S
C783 O784 1.245 . S
C783 O785 1.274 . S
O784 Mg771 2.082 . S
O784 C783 1.245 . S
O785 Mg770 2.038 1_554 S
O785 C783 1.274 . S
O786 Mg774 2.042 1_556 S
O786 C789 1.241 . S
O787 Mg773 1.984 . S
O787 C789 1.280 . S
O788 Mg774 2.041 . S
O788 C792 1.277 . S
C789 O786 1.241 . S
C789 O787 1.280 . S
O790 Mg773 1.988 1_554 S
O790 C792 1.245 . S
O791 C767 1.247 . S
O791 Mg773 2.061 . S
C792 O788 1.277 . S
C792 O790 1.245 . S
O793 C767 1.289 . S
O793 Mg770 2.238 . S
O793 Mg771 2.105 1_556 S
O794 Mg771 2.076 1_556 S
O794 C776 1.245 . S
O795 Mg774 2.038 1_556 S
O795 C776 1.274 . S
C796 O808 1.241 . S
C796 O809 1.280 . S
C797 O810 1.277 . S
C797 O811 1.245 . S
C798 O822 1.247 . S
C798 O824 1.289 . S
Mg799 O800 1.924 . S
Mg799 O809 2.012 . S
Mg799 O811 1.998 . S
Mg799 O812 2.033 1_655 S
O800 Mg799 1.924 . S
O800 Mg801 1.986 . S
O800 Mg802 1.893 1_655 S
Mg801 O800 1.986 . S
Mg801 O808 2.042 . S
Mg801 O810 2.041 . S
Mg801 O816 2.038 . S
Mg801 O824 2.238 . S
Mg802 O800 1.893 1_455 S
Mg802 O803 1.941 . S
Mg802 O813 2.124 . S
Mg802 O815 2.072 1_455 S
Mg802 O824 2.089 1_455 S
Mg802 O825 2.085 . S
O803 Mg802 1.941 . S
O803 Mg804 1.926 . S
O803 Mg805 1.986 . S
Mg804 O803 1.926 . S
Mg804 O818 1.984 . S
Mg804 O821 1.988 . S
Mg804 O822 2.061 1_455 S
Mg805 O803 1.986 . S
Mg805 O813 2.238 . S
Mg805 O817 2.042 . S
Mg805 O819 2.041 . S
Mg805 O826 2.038 . S
C806 O812 1.247 . S
C806 O813 1.289 . S
C807 O825 1.245 . S
C807 O826 1.274 . S
O808 C796 1.241 . S
O808 Mg801 2.042 . S
O809 C796 1.280 . S
O809 Mg799 2.012 . S
O810 C797 1.277 . S
O810 Mg801 2.041 . S
O811 C797 1.245 . S
O811 Mg799 1.998 . S
O812 Mg799 2.033 1_455 S
O812 C806 1.247 . S
O813 Mg802 2.124 . S
O813 Mg805 2.238 . S
O813 C806 1.289 . S
C814 O815 1.245 . S
C814 O816 1.274 . S
O815 Mg802 2.072 1_655 S
O815 C814 1.245 . S
O816 Mg801 2.038 . S
O816 C814 1.274 . S
O817 Mg805 2.042 . S
O817 C820 1.241 . S
O818 Mg804 1.984 . S
O818 C820 1.280 . S
O819 Mg805 2.041 . S
O819 C823 1.277 . S
C820 O817 1.241 . S
C820 O818 1.280 . S
O821 Mg804 1.988 . S
O821 C823 1.245 . S
O822 C798 1.247 . S
O822 Mg804 2.061 1_655 S
C823 O819 1.277 . S
C823 O821 1.245 . S
O824 C798 1.289 . S
O824 Mg801 2.238 . S
O824 Mg802 2.089 1_655 S
O825 Mg802 2.085 . S
O825 C807 1.245 . S
O826 Mg805 2.038 . S
O826 C807 1.274 . S
C827 O839 1.241 . S
C827 O840 1.280 . S
C828 O841 1.277 . S
C828 O842 1.245 . S
C829 O853 1.247 . S
C829 O855 1.289 . S
Mg830 O831 1.926 . S
Mg830 O840 1.984 . S
Mg830 O842 1.988 . S
Mg830 O843 2.061 . S
O831 Mg830 1.926 . S
O831 Mg832 1.986 1_545 S
O831 Mg833 1.922 . S
Mg832 O831 1.986 1_565 S
Mg832 O839 2.042 1_565 S
Mg832 O841 2.041 1_565 S
Mg832 O847 2.038 . S
Mg832 O855 2.238 . S
Mg833 O831 1.922 . S
Mg833 O834 1.912 1_545 S
Mg833 O844 2.107 . S
Mg833 O846 2.076 1_545 S
Mg833 O855 2.105 1_545 S
Mg833 O856 2.081 . S
O834 Mg833 1.912 1_565 S
O834 Mg835 1.926 . S
O834 Mg836 1.986 1_565 S
Mg835 O834 1.926 . S
Mg835 O849 1.984 . S
Mg835 O852 1.988 . S
Mg835 O853 2.061 . S
Mg836 O834 1.986 1_545 S
Mg836 O844 2.238 . S
Mg836 O848 2.042 1_545 S
Mg836 O850 2.041 1_545 S
Mg836 O857 2.038 . S
C837 O843 1.247 . S
C837 O844 1.289 . S
C838 O856 1.245 . S
C838 O857 1.274 . S
O839 C827 1.241 . S
O839 Mg832 2.042 1_545 S
O840 C827 1.280 . S
O840 Mg830 1.984 . S
O841 C828 1.277 . S
O841 Mg832 2.041 1_545 S
O842 C828 1.245 . S
O842 Mg830 1.988 . S
O843 Mg830 2.061 . S
O843 C837 1.247 . S
O844 Mg833 2.107 . S
O844 Mg836 2.238 . S
O844 C837 1.289 . S
C845 O846 1.245 . S
C845 O847 1.274 . S
O846 Mg833 2.076 1_565 S
O846 C845 1.245 . S
O847 Mg832 2.038 . S
O847 C845 1.274 . S
O848 Mg836 2.042 1_565 S
O848 C851 1.241 . S
O849 Mg835 1.984 . S
O849 C851 1.280 . S
O850 Mg836 2.041 1_565 S
O850 C854 1.277 . S
C851 O848 1.241 . S
C851 O849 1.280 . S
O852 Mg835 1.988 . S
O852 C854 1.245 . S
O853 C829 1.247 . S
O853 Mg835 2.061 . S
C854 O850 1.277 . S
C854 O852 1.245 . S
O855 C829 1.289 . S
O855 Mg832 2.238 . S
O855 Mg833 2.105 1_565 S
O856 Mg833 2.081 . S
O856 C838 1.245 . S
O857 Mg836 2.038 . S
O857 C838 1.274 . S
H858 C870 0.930 . S
H859 C872 0.930 . S
H860 C873 0.930 . S
H861 C877 0.959 . S
H862 C877 0.959 . S
H863 C877 0.961 . S
H864 C878 0.960 . S
H865 C878 0.961 . S
H866 C878 0.959 . S
H867 C881 0.929 . S
H868 C882 0.931 . S
H869 C884 0.930 . S
C870 H858 0.930 . S
C870 C871 1.399 . S
C870 C875 1.399 . S
C871 C870 1.399 . S
C871 C872 1.376 . S
C872 H859 0.930 . S
C872 C871 1.376 . S
C872 C873 1.388 . S
C873 H860 0.930 . S
C873 C872 1.388 . S
C873 C874 1.390 . S
C874 C873 1.390 . S
C874 C875 1.394 . S
C874 C880 1.465 . S
C875 C870 1.399 . S
C875 C874 1.394 . S
C875 C876 1.516 . S
C876 C875 1.516 . S
C876 C877 1.502 . S
C876 C878 1.561 . S
C876 C879 1.526 . S
C877 H861 0.959 . S
C877 H862 0.959 . S
C877 H863 0.961 . S
C877 C876 1.502 . S
C878 H864 0.960 . S
C878 H865 0.961 . S
C878 H866 0.959 . S
C878 C876 1.561 . S
C879 C876 1.526 . S
C879 C880 1.396 . S
C879 C884 1.390 . S
C880 C874 1.465 . S
C880 C879 1.396 . S
C880 C881 1.399 . S
C881 H867 0.929 . S
C881 C880 1.399 . S
C881 C882 1.385 . S
C882 H868 0.931 . S
C882 C881 1.385 . S
C882 C883 1.389 . S
C883 C882 1.389 . S
C883 C884 1.387 . S
C884 H869 0.930 . S
C884 C879 1.390 . S
C884 C883 1.387 . S
H885 C897 0.930 . S
H886 C899 0.930 . S
H887 C900 0.930 . S
H888 C904 0.959 . S
H889 C904 0.959 . S
H890 C904 0.961 . S
H891 C905 0.960 . S
H892 C905 0.961 . S
H893 C905 0.959 . S
H894 C908 0.929 . S
H895 C909 0.931 . S
H896 C911 0.930 . S
C897 H885 0.930 . S
C897 C898 1.399 . S
C897 C902 1.399 . S
C898 C897 1.399 . S
C898 C899 1.376 . S
C899 H886 0.930 . S
C899 C898 1.376 . S
C899 C900 1.388 . S
C900 H887 0.930 . S
C900 C899 1.388 . S
C900 C901 1.390 . S
C901 C900 1.390 . S
C901 C902 1.394 . S
C901 C907 1.465 . S
C902 C897 1.399 . S
C902 C901 1.394 . S
C902 C903 1.516 . S
C903 C902 1.516 . S
C903 C904 1.502 . S
C903 C905 1.561 . S
C903 C906 1.526 . S
C904 H888 0.959 . S
C904 H889 0.959 . S
C904 H890 0.961 . S
C904 C903 1.502 . S
C905 H891 0.960 . S
C905 H892 0.961 . S
C905 H893 0.959 . S
C905 C903 1.561 . S
C906 C903 1.526 . S
C906 C907 1.396 . S
C906 C911 1.390 . S
C907 C901 1.465 . S
C907 C906 1.396 . S
C907 C908 1.399 . S
C908 H894 0.929 . S
C908 C907 1.399 . S
C908 C909 1.385 . S
C909 H895 0.931 . S
C909 C908 1.385 . S
C909 C910 1.389 . S
C910 C909 1.389 . S
C910 C911 1.387 . S
C911 H896 0.930 . S
C911 C906 1.390 . S
C911 C910 1.387 . S
H912 C924 0.930 . S
H913 C926 0.930 . S
H914 C927 0.930 . S
H915 C931 0.959 . S
H916 C931 0.959 . S
H917 C931 0.961 . S
H918 C932 0.960 . S
H919 C932 0.961 . S
H920 C932 0.959 . S
H921 C935 0.929 . S
H922 C936 0.931 . S
H923 C938 0.930 . S
C924 H912 0.930 . S
C924 C925 1.399 . S
C924 C929 1.399 . S
C925 C924 1.399 . S
C925 C926 1.376 . S
C926 H913 0.930 . S
C926 C925 1.376 . S
C926 C927 1.388 . S
C927 H914 0.930 . S
C927 C926 1.388 . S
C927 C928 1.390 . S
C928 C927 1.390 . S
C928 C929 1.394 . S
C928 C934 1.465 . S
C929 C924 1.399 . S
C929 C928 1.394 . S
C929 C930 1.516 . S
C930 C929 1.516 . S
C930 C931 1.502 . S
C930 C932 1.561 . S
C930 C933 1.526 . S
C931 H915 0.959 . S
C931 H916 0.959 . S
C931 H917 0.961 . S
C931 C930 1.502 . S
C932 H918 0.960 . S
C932 H919 0.961 . S
C932 H920 0.959 . S
C932 C930 1.561 . S
C933 C930 1.526 . S
C933 C934 1.396 . S
C933 C938 1.390 . S
C934 C928 1.465 . S
C934 C933 1.396 . S
C934 C935 1.399 . S
C935 H921 0.929 . S
C935 C934 1.399 . S
C935 C936 1.385 . S
C936 H922 0.931 . S
C936 C935 1.385 . S
C936 C937 1.389 . S
C937 C936 1.389 . S
C937 C938 1.387 . S
C938 H923 0.930 . S
C938 C933 1.390 . S
C938 C937 1.387 . S
H939 C951 0.930 . S
H940 C953 0.930 . S
H941 C954 0.930 . S
H942 C958 0.959 . S
H943 C958 0.959 . S
H944 C958 0.961 . S
H945 C959 0.960 . S
H946 C959 0.961 . S
H947 C959 0.959 . S
H948 C962 0.929 . S
H949 C963 0.931 . S
H950 C965 0.930 . S
C951 H939 0.930 . S
C951 C952 1.399 . S
C951 C956 1.399 . S
C952 C951 1.399 . S
C952 C953 1.376 . S
C953 H940 0.930 . S
C953 C952 1.376 . S
C953 C954 1.388 . S
C954 H941 0.930 . S
C954 C953 1.388 . S
C954 C955 1.390 . S
C955 C954 1.390 . S
C955 C956 1.394 . S
C955 C961 1.465 . S
C956 C951 1.399 . S
C956 C955 1.394 . S
C956 C957 1.516 . S
C957 C956 1.516 . S
C957 C958 1.502 . S
C957 C959 1.561 . S
C957 C960 1.526 . S
C958 H942 0.959 . S
C958 H943 0.959 . S
C958 H944 0.961 . S
C958 C957 1.502 . S
C959 H945 0.960 . S
C959 H946 0.961 . S
C959 H947 0.959 . S
C959 C957 1.561 . S
C960 C957 1.526 . S
C960 C961 1.396 . S
C960 C965 1.390 . S
C961 C955 1.465 . S
C961 C960 1.396 . S
C961 C962 1.399 . S
C962 H948 0.929 . S
C962 C961 1.399 . S
C962 C963 1.385 . S
C963 H949 0.931 . S
C963 C962 1.385 . S
C963 C964 1.389 . S
C964 C963 1.389 . S
C964 C965 1.387 . S
C965 H950 0.930 . S
C965 C960 1.390 . S
C965 C964 1.387 . S
H966 C978 0.930 . S
H967 C980 0.930 . S
H968 C981 0.930 . S
H969 C985 0.959 . S
H970 C985 0.959 . S
H971 C985 0.961 . S
H972 C986 0.960 . S
H973 C986 0.961 . S
H974 C986 0.959 . S
H975 C989 0.929 . S
H976 C990 0.931 . S
H977 C992 0.930 . S
C978 H966 0.930 . S
C978 C979 1.399 . S
C978 C983 1.399 . S
C979 C978 1.399 . S
C979 C980 1.376 . S
C980 H967 0.930 . S
C980 C979 1.376 . S
C980 C981 1.388 . S
C981 H968 0.930 . S
C981 C980 1.388 . S
C981 C982 1.390 . S
C982 C981 1.390 . S
C982 C983 1.394 . S
C982 C988 1.465 . S
C983 C978 1.399 . S
C983 C982 1.394 . S
C983 C984 1.516 . S
C984 C983 1.516 . S
C984 C985 1.502 . S
C984 C986 1.561 . S
C984 C987 1.526 . S
C985 H969 0.959 . S
C985 H970 0.959 . S
C985 H971 0.961 . S
C985 C984 1.502 . S
C986 H972 0.960 . S
C986 H973 0.961 . S
C986 H974 0.959 . S
C986 C984 1.561 . S
C987 C984 1.526 . S
C987 C988 1.396 . S
C987 C992 1.390 . S
C988 C982 1.465 . S
C988 C987 1.396 . S
C988 C989 1.399 . S
C989 H975 0.929 . S
C989 C988 1.399 . S
C989 C990 1.385 . S
C990 H976 0.931 . S
C990 C989 1.385 . S
C990 C991 1.389 . S
C991 C990 1.389 . S
C991 C992 1.387 . S
C992 H977 0.930 . S
C992 C987 1.390 . S
C992 C991 1.387 . S
H993 C1005 0.930 . S
H994 C1007 0.930 . S
H995 C1008 0.930 . S
H996 C1012 0.959 . S
H997 C1012 0.959 . S
H998 C1012 0.961 . S
H999 C1013 0.960 . S
H1000 C1013 0.961 . S
H1001 C1013 0.959 . S
H1002 C1016 0.929 . S
H1003 C1017 0.931 . S
H1004 C1019 0.930 . S
C1005 H993 0.930 . S
C1005 C1006 1.399 . S
C1005 C1010 1.399 . S
C1006 C1005 1.399 . S
C1006 C1007 1.376 . S
C1007 H994 0.930 . S
C1007 C1006 1.376 . S
C1007 C1008 1.388 . S
C1008 H995 0.930 . S
C1008 C1007 1.388 . S
C1008 C1009 1.390 . S
C1009 C1008 1.390 . S
C1009 C1010 1.394 . S
C1009 C1015 1.465 . S
C1010 C1005 1.399 . S
C1010 C1009 1.394 . S
C1010 C1011 1.516 . S
C1011 C1010 1.516 . S
C1011 C1012 1.502 . S
C1011 C1013 1.561 . S
C1011 C1014 1.526 . S
C1012 H996 0.959 . S
C1012 H997 0.959 . S
C1012 H998 0.961 . S
C1012 C1011 1.502 . S
C1013 H999 0.960 . S
C1013 H1000 0.961 . S
C1013 H1001 0.959 . S
C1013 C1011 1.561 . S
C1014 C1011 1.526 . S
C1014 C1015 1.396 . S
C1014 C1019 1.390 . S
C1015 C1009 1.465 . S
C1015 C1014 1.396 . S
C1015 C1016 1.399 . S
C1016 H1002 0.929 . S
C1016 C1015 1.399 . S
C1016 C1017 1.385 . S
C1017 H1003 0.931 . S
C1017 C1016 1.385 . S
C1017 C1018 1.389 . S
C1018 C1017 1.389 . S
C1018 C1019 1.387 . S
C1019 H1004 0.930 . S
C1019 C1014 1.390 . S
C1019 C1018 1.387 . S
H1020 C1032 0.930 . S
H1021 C1034 0.930 . S
H1022 C1035 0.930 . S
H1023 C1039 0.959 . S
H1024 C1039 0.959 . S
H1025 C1039 0.961 . S
H1026 C1040 0.960 . S
H1027 C1040 0.961 . S
H1028 C1040 0.959 . S
H1029 C1043 0.929 . S
H1030 C1044 0.931 . S
H1031 C1046 0.930 . S
C1032 H1020 0.930 . S
C1032 C1033 1.399 . S
C1032 C1037 1.399 . S
C1033 C1032 1.399 . S
C1033 C1034 1.376 . S
C1034 H1021 0.930 . S
C1034 C1033 1.376 . S
C1034 C1035 1.388 . S
C1035 H1022 0.930 . S
C1035 C1034 1.388 . S
C1035 C1036 1.390 . S
C1036 C1035 1.390 . S
C1036 C1037 1.394 . S
C1036 C1042 1.465 . S
C1037 C1032 1.399 . S
C1037 C1036 1.394 . S
C1037 C1038 1.516 . S
C1038 C1037 1.516 . S
C1038 C1039 1.502 . S
C1038 C1040 1.561 . S
C1038 C1041 1.526 . S
C1039 H1023 0.959 . S
C1039 H1024 0.959 . S
C1039 H1025 0.961 . S
C1039 C1038 1.502 . S
C1040 H1026 0.960 . S
C1040 H1027 0.961 . S
C1040 H1028 0.959 . S
C1040 C1038 1.561 . S
C1041 C1038 1.526 . S
C1041 C1042 1.396 . S
C1041 C1046 1.390 . S
C1042 C1036 1.465 . S
C1042 C1041 1.396 . S
C1042 C1043 1.399 . S
C1043 H1029 0.929 . S
C1043 C1042 1.399 . S
C1043 C1044 1.385 . S
C1044 H1030 0.931 . S
C1044 C1043 1.385 . S
C1044 C1045 1.389 . S
C1045 C1044 1.389 . S
C1045 C1046 1.387 . S
C1046 H1031 0.930 . S
C1046 C1041 1.390 . S
C1046 C1045 1.387 . S
H1047 C1059 0.930 . S
H1048 C1061 0.930 . S
H1049 C1062 0.930 . S
H1050 C1066 0.959 . S
H1051 C1066 0.959 . S
H1052 C1066 0.961 . S
H1053 C1067 0.960 . S
H1054 C1067 0.961 . S
H1055 C1067 0.959 . S
H1056 C1070 0.929 . S
H1057 C1071 0.931 . S
H1058 C1073 0.930 . S
C1059 H1047 0.930 . S
C1059 C1060 1.399 . S
C1059 C1064 1.399 . S
C1060 C1059 1.399 . S
C1060 C1061 1.376 . S
C1061 H1048 0.930 . S
C1061 C1060 1.376 . S
C1061 C1062 1.388 . S
C1062 H1049 0.930 . S
C1062 C1061 1.388 . S
C1062 C1063 1.390 . S
C1063 C1062 1.390 . S
C1063 C1064 1.394 . S
C1063 C1069 1.465 . S
C1064 C1059 1.399 . S
C1064 C1063 1.394 . S
C1064 C1065 1.516 . S
C1065 C1064 1.516 . S
C1065 C1066 1.502 . S
C1065 C1067 1.561 . S
C1065 C1068 1.526 . S
C1066 H1050 0.959 . S
C1066 H1051 0.959 . S
C1066 H1052 0.961 . S
C1066 C1065 1.502 . S
C1067 H1053 0.960 . S
C1067 H1054 0.961 . S
C1067 H1055 0.959 . S
C1067 C1065 1.561 . S
C1068 C1065 1.526 . S
C1068 C1069 1.396 . S
C1068 C1073 1.390 . S
C1069 C1063 1.465 . S
C1069 C1068 1.396 . S
C1069 C1070 1.399 . S
C1070 H1056 0.929 . S
C1070 C1069 1.399 . S
C1070 C1071 1.385 . S
C1071 H1057 0.931 . S
C1071 C1070 1.385 . S
C1071 C1072 1.389 . S
C1072 C1071 1.389 . S
C1072 C1073 1.387 . S
C1073 H1058 0.930 . S
C1073 C1068 1.390 . S
C1073 C1072 1.387 . S
H1074 C1086 0.930 . S
H1075 C1088 0.930 . S
H1076 C1089 0.930 . S
H1077 C1093 0.959 . S
H1078 C1093 0.959 . S
H1079 C1093 0.961 . S
H1080 C1094 0.960 . S
H1081 C1094 0.961 . S
H1082 C1094 0.959 . S
H1083 C1097 0.929 . S
H1084 C1098 0.931 . S
H1085 C1100 0.930 . S
C1086 H1074 0.930 . S
C1086 C1087 1.399 . S
C1086 C1091 1.399 . S
C1087 C1086 1.399 . S
C1087 C1088 1.376 . S
C1088 H1075 0.930 . S
C1088 C1087 1.376 . S
C1088 C1089 1.388 . S
C1089 H1076 0.930 . S
C1089 C1088 1.388 . S
C1089 C1090 1.390 . S
C1090 C1089 1.390 . S
C1090 C1091 1.394 . S
C1090 C1096 1.465 . S
C1091 C1086 1.399 . S
C1091 C1090 1.394 . S
C1091 C1092 1.516 . S
C1092 C1091 1.516 . S
C1092 C1093 1.502 . S
C1092 C1094 1.561 . S
C1092 C1095 1.526 . S
C1093 H1077 0.959 . S
C1093 H1078 0.959 . S
C1093 H1079 0.961 . S
C1093 C1092 1.502 . S
C1094 H1080 0.960 . S
C1094 H1081 0.961 . S
C1094 H1082 0.959 . S
C1094 C1092 1.561 . S
C1095 C1092 1.526 . S
C1095 C1096 1.396 . S
C1095 C1100 1.390 . S
C1096 C1090 1.465 . S
C1096 C1095 1.396 . S
C1096 C1097 1.399 . S
C1097 H1083 0.929 . S
C1097 C1096 1.399 . S
C1097 C1098 1.385 . S
C1098 H1084 0.931 . S
C1098 C1097 1.385 . S
C1098 C1099 1.389 . S
C1099 C1098 1.389 . S
C1099 C1100 1.387 . S
C1100 H1085 0.930 . S
C1100 C1095 1.390 . S
C1100 C1099 1.387 . S
H1101 C1113 0.930 . S
H1102 C1115 0.930 . S
H1103 C1116 0.930 . S
H1104 C1120 0.959 . S
H1105 C1120 0.959 . S
H1106 C1120 0.961 . S
H1107 C1121 0.960 . S
H1108 C1121 0.961 . S
H1109 C1121 0.959 . S
H1110 C1124 0.929 . S
H1111 C1125 0.931 . S
H1112 C1127 0.930 . S
C1113 H1101 0.930 . S
C1113 C1114 1.399 . S
C1113 C1118 1.399 . S
C1114 C1113 1.399 . S
C1114 C1115 1.376 . S
C1115 H1102 0.930 . S
C1115 C1114 1.376 . S
C1115 C1116 1.388 . S
C1116 H1103 0.930 . S
C1116 C1115 1.388 . S
C1116 C1117 1.390 . S
C1117 C1116 1.390 . S
C1117 C1118 1.394 . S
C1117 C1123 1.465 . S
C1118 C1113 1.399 . S
C1118 C1117 1.394 . S
C1118 C1119 1.516 . S
C1119 C1118 1.516 . S
C1119 C1120 1.502 . S
C1119 C1121 1.561 . S
C1119 C1122 1.526 . S
C1120 H1104 0.959 . S
C1120 H1105 0.959 . S
C1120 H1106 0.961 . S
C1120 C1119 1.502 . S
C1121 H1107 0.960 . S
C1121 H1108 0.961 . S
C1121 H1109 0.959 . S
C1121 C1119 1.561 . S
C1122 C1119 1.526 . S
C1122 C1123 1.396 . S
C1122 C1127 1.390 . S
C1123 C1117 1.465 . S
C1123 C1122 1.396 . S
C1123 C1124 1.399 . S
C1124 H1110 0.929 . S
C1124 C1123 1.399 . S
C1124 C1125 1.385 . S
C1125 H1111 0.931 . S
C1125 C1124 1.385 . S
C1125 C1126 1.389 . S
C1126 C1125 1.389 . S
C1126 C1127 1.387 . S
C1127 H1112 0.930 . S
C1127 C1122 1.390 . S
C1127 C1126 1.387 . S
H1128 C1140 0.930 . S
H1129 C1142 0.930 . S
H1130 C1143 0.930 . S
H1131 C1147 0.959 . S
H1132 C1147 0.959 . S
H1133 C1147 0.961 . S
H1134 C1148 0.960 . S
H1135 C1148 0.961 . S
H1136 C1148 0.959 . S
H1137 C1151 0.929 . S
H1138 C1152 0.931 . S
H1139 C1154 0.930 . S
C1140 H1128 0.930 . S
C1140 C1141 1.399 . S
C1140 C1145 1.399 . S
C1141 C1140 1.399 . S
C1141 C1142 1.376 . S
C1142 H1129 0.930 . S
C1142 C1141 1.376 . S
C1142 C1143 1.388 . S
C1143 H1130 0.930 . S
C1143 C1142 1.388 . S
C1143 C1144 1.390 . S
C1144 C1143 1.390 . S
C1144 C1145 1.394 . S
C1144 C1150 1.465 . S
C1145 C1140 1.399 . S
C1145 C1144 1.394 . S
C1145 C1146 1.516 . S
C1146 C1145 1.516 . S
C1146 C1147 1.502 . S
C1146 C1148 1.561 . S
C1146 C1149 1.526 . S
C1147 H1131 0.959 . S
C1147 H1132 0.959 . S
C1147 H1133 0.961 . S
C1147 C1146 1.502 . S
C1148 H1134 0.960 . S
C1148 H1135 0.961 . S
C1148 H1136 0.959 . S
C1148 C1146 1.561 . S
C1149 C1146 1.526 . S
C1149 C1150 1.396 . S
C1149 C1154 1.390 . S
C1150 C1144 1.465 . S
C1150 C1149 1.396 . S
C1150 C1151 1.399 . S
C1151 H1137 0.929 . S
C1151 C1150 1.399 . S
C1151 C1152 1.385 . S
C1152 H1138 0.931 . S
C1152 C1151 1.385 . S
C1152 C1153 1.389 . S
C1153 C1152 1.389 . S
C1153 C1154 1.387 . S
C1154 H1139 0.930 . S
C1154 C1149 1.390 . S
C1154 C1153 1.387 . S
H1155 C1167 0.930 . S
H1156 C1169 0.930 . S
H1157 C1170 0.930 . S
H1158 C1174 0.959 . S
H1159 C1174 0.959 . S
H1160 C1174 0.961 . S
H1161 C1175 0.960 . S
H1162 C1175 0.961 . S
H1163 C1175 0.959 . S
H1164 C1178 0.929 . S
H1165 C1179 0.931 . S
H1166 C1181 0.930 . S
C1167 H1155 0.930 . S
C1167 C1168 1.399 . S
C1167 C1172 1.399 . S
C1168 C1167 1.399 . S
C1168 C1169 1.376 . S
C1169 H1156 0.930 . S
C1169 C1168 1.376 . S
C1169 C1170 1.388 . S
C1170 H1157 0.930 . S
C1170 C1169 1.388 . S
C1170 C1171 1.390 . S
C1171 C1170 1.390 . S
C1171 C1172 1.394 . S
C1171 C1177 1.465 . S
C1172 C1167 1.399 . S
C1172 C1171 1.394 . S
C1172 C1173 1.516 . S
C1173 C1172 1.516 . S
C1173 C1174 1.502 . S
C1173 C1175 1.561 . S
C1173 C1176 1.526 . S
C1174 H1158 0.959 . S
C1174 H1159 0.959 . S
C1174 H1160 0.961 . S
C1174 C1173 1.502 . S
C1175 H1161 0.960 . S
C1175 H1162 0.961 . S
C1175 H1163 0.959 . S
C1175 C1173 1.561 . S
C1176 C1173 1.526 . S
C1176 C1177 1.396 . S
C1176 C1181 1.390 . S
C1177 C1171 1.465 . S
C1177 C1176 1.396 . S
C1177 C1178 1.399 . S
C1178 H1164 0.929 . S
C1178 C1177 1.399 . S
C1178 C1179 1.385 . S
C1179 H1165 0.931 . S
C1179 C1178 1.385 . S
C1179 C1180 1.389 . S
C1180 C1179 1.389 . S
C1180 C1181 1.387 . S
C1181 H1166 0.930 . S
C1181 C1176 1.390 . S
C1181 C1180 1.387 . S
H1182 C1194 0.930 . S
H1183 C1196 0.930 . S
H1184 C1197 0.930 . S
H1185 C1201 0.959 . S
H1186 C1201 0.959 . S
H1187 C1201 0.961 . S
H1188 C1202 0.960 . S
H1189 C1202 0.961 . S
H1190 C1202 0.959 . S
H1191 C1205 0.929 . S
H1192 C1206 0.931 . S
H1193 C1208 0.930 . S
C1194 H1182 0.930 . S
C1194 C1195 1.399 . S
C1194 C1199 1.399 . S
C1195 C1194 1.399 . S
C1195 C1196 1.376 . S
C1196 H1183 0.930 . S
C1196 C1195 1.376 . S
C1196 C1197 1.388 . S
C1197 H1184 0.930 . S
C1197 C1196 1.388 . S
C1197 C1198 1.390 . S
C1198 C1197 1.390 . S
C1198 C1199 1.394 . S
C1198 C1204 1.465 . S
C1199 C1194 1.399 . S
C1199 C1198 1.394 . S
C1199 C1200 1.516 . S
C1200 C1199 1.516 . S
C1200 C1201 1.502 . S
C1200 C1202 1.561 . S
C1200 C1203 1.526 . S
C1201 H1185 0.959 . S
C1201 H1186 0.959 . S
C1201 H1187 0.961 . S
C1201 C1200 1.502 . S
C1202 H1188 0.960 . S
C1202 H1189 0.961 . S
C1202 H1190 0.959 . S
C1202 C1200 1.561 . S
C1203 C1200 1.526 . S
C1203 C1204 1.396 . S
C1203 C1208 1.390 . S
C1204 C1198 1.465 . S
C1204 C1203 1.396 . S
C1204 C1205 1.399 . S
C1205 H1191 0.929 . S
C1205 C1204 1.399 . S
C1205 C1206 1.385 . S
C1206 H1192 0.931 . S
C1206 C1205 1.385 . S
C1206 C1207 1.389 . S
C1207 C1206 1.389 . S
C1207 C1208 1.387 . S
C1208 H1193 0.930 . S
C1208 C1203 1.390 . S
C1208 C1207 1.387 . S
H1209 C1221 0.930 . S
H1210 C1223 0.930 . S
H1211 C1224 0.930 . S
H1212 C1228 0.959 . S
H1213 C1228 0.959 . S
H1214 C1228 0.961 . S
H1215 C1229 0.960 . S
H1216 C1229 0.961 . S
H1217 C1229 0.959 . S
H1218 C1232 0.929 . S
H1219 C1233 0.931 . S
H1220 C1235 0.930 . S
C1221 H1209 0.930 . S
C1221 C1222 1.399 . S
C1221 C1226 1.399 . S
C1222 C1221 1.399 . S
C1222 C1223 1.376 . S
C1223 H1210 0.930 . S
C1223 C1222 1.376 . S
C1223 C1224 1.388 . S
C1224 H1211 0.930 . S
C1224 C1223 1.388 . S
C1224 C1225 1.390 . S
C1225 C1224 1.390 . S
C1225 C1226 1.394 . S
C1225 C1231 1.465 . S
C1226 C1221 1.399 . S
C1226 C1225 1.394 . S
C1226 C1227 1.516 . S
C1227 C1226 1.516 . S
C1227 C1228 1.502 . S
C1227 C1229 1.561 . S
C1227 C1230 1.526 . S
C1228 H1212 0.959 . S
C1228 H1213 0.959 . S
C1228 H1214 0.961 . S
C1228 C1227 1.502 . S
C1229 H1215 0.960 . S
C1229 H1216 0.961 . S
C1229 H1217 0.959 . S
C1229 C1227 1.561 . S
C1230 C1227 1.526 . S
C1230 C1231 1.396 . S
C1230 C1235 1.390 . S
C1231 C1225 1.465 . S
C1231 C1230 1.396 . S
C1231 C1232 1.399 . S
C1232 H1218 0.929 . S
C1232 C1231 1.399 . S
C1232 C1233 1.385 . S
C1233 H1219 0.931 . S
C1233 C1232 1.385 . S
C1233 C1234 1.389 . S
C1234 C1233 1.389 . S
C1234 C1235 1.387 . S
C1235 H1220 0.930 . S
C1235 C1230 1.390 . S
C1235 C1234 1.387 . S
H1236 C1248 0.930 . S
H1237 C1250 0.930 . S
H1238 C1251 0.930 . S
H1239 C1255 0.959 . S
H1240 C1255 0.959 . S
H1241 C1255 0.961 . S
H1242 C1256 0.960 . S
H1243 C1256 0.961 . S
H1244 C1256 0.959 . S
H1245 C1259 0.929 . S
H1246 C1260 0.931 . S
H1247 C1262 0.930 . S
C1248 H1236 0.930 . S
C1248 C1249 1.399 . S
C1248 C1253 1.399 . S
C1249 C1248 1.399 . S
C1249 C1250 1.376 . S
C1250 H1237 0.930 . S
C1250 C1249 1.376 . S
C1250 C1251 1.388 . S
C1251 H1238 0.930 . S
C1251 C1250 1.388 . S
C1251 C1252 1.390 . S
C1252 C1251 1.390 . S
C1252 C1253 1.394 . S
C1252 C1258 1.465 . S
C1253 C1248 1.399 . S
C1253 C1252 1.394 . S
C1253 C1254 1.516 . S
C1254 C1253 1.516 . S
C1254 C1255 1.502 . S
C1254 C1256 1.561 . S
C1254 C1257 1.526 . S
C1255 H1239 0.959 . S
C1255 H1240 0.959 . S
C1255 H1241 0.961 . S
C1255 C1254 1.502 . S
C1256 H1242 0.960 . S
C1256 H1243 0.961 . S
C1256 H1244 0.959 . S
C1256 C1254 1.561 . S
C1257 C1254 1.526 . S
C1257 C1258 1.396 . S
C1257 C1262 1.390 . S
C1258 C1252 1.465 . S
C1258 C1257 1.396 . S
C1258 C1259 1.399 . S
C1259 H1245 0.929 . S
C1259 C1258 1.399 . S
C1259 C1260 1.385 . S
C1260 H1246 0.931 . S
C1260 C1259 1.385 . S
C1260 C1261 1.389 . S
C1261 C1260 1.389 . S
C1261 C1262 1.387 . S
C1262 H1247 0.930 . S
C1262 C1257 1.390 . S
C1262 C1261 1.387 . S
H1263 C1275 0.930 . S
H1264 C1277 0.930 . S
H1265 C1278 0.930 . S
H1266 C1282 0.959 . S
H1267 C1282 0.959 . S
H1268 C1282 0.961 . S
H1269 C1283 0.960 . S
H1270 C1283 0.961 . S
H1271 C1283 0.959 . S
H1272 C1286 0.929 . S
H1273 C1287 0.931 . S
H1274 C1289 0.930 . S
C1275 H1263 0.930 . S
C1275 C1276 1.399 . S
C1275 C1280 1.399 . S
C1276 C1275 1.399 . S
C1276 C1277 1.376 . S
C1277 H1264 0.930 . S
C1277 C1276 1.376 . S
C1277 C1278 1.388 . S
C1278 H1265 0.930 . S
C1278 C1277 1.388 . S
C1278 C1279 1.390 . S
C1279 C1278 1.390 . S
C1279 C1280 1.394 . S
C1279 C1285 1.465 . S
C1280 C1275 1.399 . S
C1280 C1279 1.394 . S
C1280 C1281 1.516 . S
C1281 C1280 1.516 . S
C1281 C1282 1.502 . S
C1281 C1283 1.561 . S
C1281 C1284 1.526 . S
C1282 H1266 0.959 . S
C1282 H1267 0.959 . S
C1282 H1268 0.961 . S
C1282 C1281 1.502 . S
C1283 H1269 0.960 . S
C1283 H1270 0.961 . S
C1283 H1271 0.959 . S
C1283 C1281 1.561 . S
C1284 C1281 1.526 . S
C1284 C1285 1.396 . S
C1284 C1289 1.390 . S
C1285 C1279 1.465 . S
C1285 C1284 1.396 . S
C1285 C1286 1.399 . S
C1286 H1272 0.929 . S
C1286 C1285 1.399 . S
C1286 C1287 1.385 . S
C1287 H1273 0.931 . S
C1287 C1286 1.385 . S
C1287 C1288 1.389 . S
C1288 C1287 1.389 . S
C1288 C1289 1.387 . S
C1289 H1274 0.930 . S
C1289 C1284 1.390 . S
C1289 C1288 1.387 . S
H1290 C1302 0.930 . S
H1291 C1304 0.930 . S
H1292 C1305 0.930 . S
H1293 C1309 0.959 . S
H1294 C1309 0.959 . S
H1295 C1309 0.961 . S
H1296 C1310 0.960 . S
H1297 C1310 0.961 . S
H1298 C1310 0.959 . S
H1299 C1313 0.929 . S
H1300 C1314 0.931 . S
H1301 C1316 0.930 . S
C1302 H1290 0.930 . S
C1302 C1303 1.399 . S
C1302 C1307 1.399 . S
C1303 C1302 1.399 . S
C1303 C1304 1.376 . S
C1304 H1291 0.930 . S
C1304 C1303 1.376 . S
C1304 C1305 1.388 . S
C1305 H1292 0.930 . S
C1305 C1304 1.388 . S
C1305 C1306 1.390 . S
C1306 C1305 1.390 . S
C1306 C1307 1.394 . S
C1306 C1312 1.465 . S
C1307 C1302 1.399 . S
C1307 C1306 1.394 . S
C1307 C1308 1.516 . S
C1308 C1307 1.516 . S
C1308 C1309 1.502 . S
C1308 C1310 1.561 . S
C1308 C1311 1.526 . S
C1309 H1293 0.959 . S
C1309 H1294 0.959 . S
C1309 H1295 0.961 . S
C1309 C1308 1.502 . S
C1310 H1296 0.960 . S
C1310 H1297 0.961 . S
C1310 H1298 0.959 . S
C1310 C1308 1.561 . S
C1311 C1308 1.526 . S
C1311 C1312 1.396 . S
C1311 C1316 1.390 . S
C1312 C1306 1.465 . S
C1312 C1311 1.396 . S
C1312 C1313 1.399 . S
C1313 H1299 0.929 . S
C1313 C1312 1.399 . S
C1313 C1314 1.385 . S
C1314 H1300 0.931 . S
C1314 C1313 1.385 . S
C1314 C1315 1.389 . S
C1315 C1314 1.389 . S
C1315 C1316 1.387 . S
C1316 H1301 0.930 . S
C1316 C1311 1.390 . S
C1316 C1315 1.387 . S
H1317 C1329 0.930 . S
H1318 C1331 0.930 . S
H1319 C1332 0.930 . S
H1320 C1336 0.959 . S
H1321 C1336 0.959 . S
H1322 C1336 0.961 . S
H1323 C1337 0.960 . S
H1324 C1337 0.961 . S
H1325 C1337 0.959 . S
H1326 C1340 0.929 . S
H1327 C1341 0.931 . S
H1328 C1343 0.930 . S
C1329 H1317 0.930 . S
C1329 C1330 1.399 . S
C1329 C1334 1.399 . S
C1330 C1329 1.399 . S
C1330 C1331 1.376 . S
C1331 H1318 0.930 . S
C1331 C1330 1.376 . S
C1331 C1332 1.388 . S
C1332 H1319 0.930 . S
C1332 C1331 1.388 . S
C1332 C1333 1.390 . S
C1333 C1332 1.390 . S
C1333 C1334 1.394 . S
C1333 C1339 1.465 . S
C1334 C1329 1.399 . S
C1334 C1333 1.394 . S
C1334 C1335 1.516 . S
C1335 C1334 1.516 . S
C1335 C1336 1.502 . S
C1335 C1337 1.561 . S
C1335 C1338 1.526 . S
C1336 H1320 0.959 . S
C1336 H1321 0.959 . S
C1336 H1322 0.961 . S
C1336 C1335 1.502 . S
C1337 H1323 0.960 . S
C1337 H1324 0.961 . S
C1337 H1325 0.959 . S
C1337 C1335 1.561 . S
C1338 C1335 1.526 . S
C1338 C1339 1.396 . S
C1338 C1343 1.390 . S
C1339 C1333 1.465 . S
C1339 C1338 1.396 . S
C1339 C1340 1.399 . S
C1340 H1326 0.929 . S
C1340 C1339 1.399 . S
C1340 C1341 1.385 . S
C1341 H1327 0.931 . S
C1341 C1340 1.385 . S
C1341 C1342 1.389 . S
C1342 C1341 1.389 . S
C1342 C1343 1.387 . S
C1343 H1328 0.930 . S
C1343 C1338 1.390 . S
C1343 C1342 1.387 . S
H1344 C1356 0.930 . S
H1345 C1358 0.930 . S
H1346 C1359 0.930 . S
H1347 C1363 0.959 . S
H1348 C1363 0.959 . S
H1349 C1363 0.961 . S
H1350 C1364 0.960 . S
H1351 C1364 0.961 . S
H1352 C1364 0.959 . S
H1353 C1367 0.929 . S
H1354 C1368 0.931 . S
H1355 C1370 0.930 . S
C1356 H1344 0.930 . S
C1356 C1357 1.399 . S
C1356 C1361 1.399 . S
C1357 C1356 1.399 . S
C1357 C1358 1.376 . S
C1358 H1345 0.930 . S
C1358 C1357 1.376 . S
C1358 C1359 1.388 . S
C1359 H1346 0.930 . S
C1359 C1358 1.388 . S
C1359 C1360 1.390 . S
C1360 C1359 1.390 . S
C1360 C1361 1.394 . S
C1360 C1366 1.465 . S
C1361 C1356 1.399 . S
C1361 C1360 1.394 . S
C1361 C1362 1.516 . S
C1362 C1361 1.516 . S
C1362 C1363 1.502 . S
C1362 C1364 1.561 . S
C1362 C1365 1.526 . S
C1363 H1347 0.959 . S
C1363 H1348 0.959 . S
C1363 H1349 0.961 . S
C1363 C1362 1.502 . S
C1364 H1350 0.960 . S
C1364 H1351 0.961 . S
C1364 H1352 0.959 . S
C1364 C1362 1.561 . S
C1365 C1362 1.526 . S
C1365 C1366 1.396 . S
C1365 C1370 1.390 . S
C1366 C1360 1.465 . S
C1366 C1365 1.396 . S
C1366 C1367 1.399 . S
C1367 H1353 0.929 . S
C1367 C1366 1.399 . S
C1367 C1368 1.385 . S
C1368 H1354 0.931 . S
C1368 C1367 1.385 . S
C1368 C1369 1.389 . S
C1369 C1368 1.389 . S
C1369 C1370 1.387 . S
C1370 H1355 0.930 . S
C1370 C1365 1.390 . S
C1370 C1369 1.387 . S
H1371 C1383 0.930 . S
H1372 C1385 0.930 . S
H1373 C1386 0.930 . S
H1374 C1390 0.959 . S
H1375 C1390 0.959 . S
H1376 C1390 0.961 . S
H1377 C1391 0.960 . S
H1378 C1391 0.961 . S
H1379 C1391 0.959 . S
H1380 C1394 0.929 . S
H1381 C1395 0.931 . S
H1382 C1397 0.930 . S
C1383 H1371 0.930 . S
C1383 C1384 1.399 . S
C1383 C1388 1.399 . S
C1384 C1383 1.399 . S
C1384 C1385 1.376 . S
C1385 H1372 0.930 . S
C1385 C1384 1.376 . S
C1385 C1386 1.388 . S
C1386 H1373 0.930 . S
C1386 C1385 1.388 . S
C1386 C1387 1.390 . S
C1387 C1386 1.390 . S
C1387 C1388 1.394 . S
C1387 C1393 1.465 . S
C1388 C1383 1.399 . S
C1388 C1387 1.394 . S
C1388 C1389 1.516 . S
C1389 C1388 1.516 . S
C1389 C1390 1.502 . S
C1389 C1391 1.561 . S
C1389 C1392 1.526 . S
C1390 H1374 0.959 . S
C1390 H1375 0.959 . S
C1390 H1376 0.961 . S
C1390 C1389 1.502 . S
C1391 H1377 0.960 . S
C1391 H1378 0.961 . S
C1391 H1379 0.959 . S
C1391 C1389 1.561 . S
C1392 C1389 1.526 . S
C1392 C1393 1.396 . S
C1392 C1397 1.390 . S
C1393 C1387 1.465 . S
C1393 C1392 1.396 . S
C1393 C1394 1.399 . S
C1394 H1380 0.929 . S
C1394 C1393 1.399 . S
C1394 C1395 1.385 . S
C1395 H1381 0.931 . S
C1395 C1394 1.385 . S
C1395 C1396 1.389 . S
C1396 C1395 1.389 . S
C1396 C1397 1.387 . S
C1397 H1382 0.930 . S
C1397 C1392 1.390 . S
C1397 C1396 1.387 . S
H1398 C1410 0.930 . S
H1399 C1412 0.930 . S
H1400 C1413 0.930 . S
H1401 C1417 0.959 . S
H1402 C1417 0.959 . S
H1403 C1417 0.961 . S
H1404 C1418 0.960 . S
H1405 C1418 0.961 . S
H1406 C1418 0.959 . S
H1407 C1421 0.929 . S
H1408 C1422 0.931 . S
H1409 C1424 0.930 . S
C1410 H1398 0.930 . S
C1410 C1411 1.399 . S
C1410 C1415 1.399 . S
C1411 C1410 1.399 . S
C1411 C1412 1.376 . S
C1412 H1399 0.930 . S
C1412 C1411 1.376 . S
C1412 C1413 1.388 . S
C1413 H1400 0.930 . S
C1413 C1412 1.388 . S
C1413 C1414 1.390 . S
C1414 C1413 1.390 . S
C1414 C1415 1.394 . S
C1414 C1420 1.465 . S
C1415 C1410 1.399 . S
C1415 C1414 1.394 . S
C1415 C1416 1.516 . S
C1416 C1415 1.516 . S
C1416 C1417 1.502 . S
C1416 C1418 1.561 . S
C1416 C1419 1.526 . S
C1417 H1401 0.959 . S
C1417 H1402 0.959 . S
C1417 H1403 0.961 . S
C1417 C1416 1.502 . S
C1418 H1404 0.960 . S
C1418 H1405 0.961 . S
C1418 H1406 0.959 . S
C1418 C1416 1.561 . S
C1419 C1416 1.526 . S
C1419 C1420 1.396 . S
C1419 C1424 1.390 . S
C1420 C1414 1.465 . S
C1420 C1419 1.396 . S
C1420 C1421 1.399 . S
C1421 H1407 0.929 . S
C1421 C1420 1.399 . S
C1421 C1422 1.385 . S
C1422 H1408 0.931 . S
C1422 C1421 1.385 . S
C1422 C1423 1.389 . S
C1423 C1422 1.389 . S
C1423 C1424 1.387 . S
C1424 H1409 0.930 . S
C1424 C1419 1.390 . S
C1424 C1423 1.387 . S
H1425 C1437 0.930 . S
H1426 C1439 0.930 . S
H1427 C1440 0.930 . S
H1428 C1444 0.959 . S
H1429 C1444 0.959 . S
H1430 C1444 0.961 . S
H1431 C1445 0.960 . S
H1432 C1445 0.961 . S
H1433 C1445 0.959 . S
H1434 C1448 0.929 . S
H1435 C1449 0.931 . S
H1436 C1451 0.930 . S
C1437 H1425 0.930 . S
C1437 C1438 1.399 . S
C1437 C1442 1.399 . S
C1438 C1437 1.399 . S
C1438 C1439 1.376 . S
C1439 H1426 0.930 . S
C1439 C1438 1.376 . S
C1439 C1440 1.388 . S
C1440 H1427 0.930 . S
C1440 C1439 1.388 . S
C1440 C1441 1.390 . S
C1441 C1440 1.390 . S
C1441 C1442 1.394 . S
C1441 C1447 1.465 . S
C1442 C1437 1.399 . S
C1442 C1441 1.394 . S
C1442 C1443 1.516 . S
C1443 C1442 1.516 . S
C1443 C1444 1.502 . S
C1443 C1445 1.561 . S
C1443 C1446 1.526 . S
C1444 H1428 0.959 . S
C1444 H1429 0.959 . S
C1444 H1430 0.961 . S
C1444 C1443 1.502 . S
C1445 H1431 0.960 . S
C1445 H1432 0.961 . S
C1445 H1433 0.959 . S
C1445 C1443 1.561 . S
C1446 C1443 1.526 . S
C1446 C1447 1.396 . S
C1446 C1451 1.390 . S
C1447 C1441 1.465 . S
C1447 C1446 1.396 . S
C1447 C1448 1.399 . S
C1448 H1434 0.929 . S
C1448 C1447 1.399 . S
C1448 C1449 1.385 . S
C1449 H1435 0.931 . S
C1449 C1448 1.385 . S
C1449 C1450 1.389 . S
C1450 C1449 1.389 . S
C1450 C1451 1.387 . S
C1451 H1436 0.930 . S
C1451 C1446 1.390 . S
C1451 C1450 1.387 . S
H1452 C1464 0.930 . S
H1453 C1466 0.930 . S
H1454 C1467 0.930 . S
H1455 C1471 0.959 . S
H1456 C1471 0.959 . S
H1457 C1471 0.961 . S
H1458 C1472 0.960 . S
H1459 C1472 0.961 . S
H1460 C1472 0.959 . S
H1461 C1475 0.929 . S
H1462 C1476 0.931 . S
H1463 C1478 0.930 . S
C1464 H1452 0.930 . S
C1464 C1465 1.399 . S
C1464 C1469 1.399 . S
C1465 C1464 1.399 . S
C1465 C1466 1.376 . S
C1466 H1453 0.930 . S
C1466 C1465 1.376 . S
C1466 C1467 1.388 . S
C1467 H1454 0.930 . S
C1467 C1466 1.388 . S
C1467 C1468 1.390 . S
C1468 C1467 1.390 . S
C1468 C1469 1.394 . S
C1468 C1474 1.465 . S
C1469 C1464 1.399 . S
C1469 C1468 1.394 . S
C1469 C1470 1.516 . S
C1470 C1469 1.516 . S
C1470 C1471 1.502 . S
C1470 C1472 1.561 . S
C1470 C1473 1.526 . S
C1471 H1455 0.959 . S
C1471 H1456 0.959 . S
C1471 H1457 0.961 . S
C1471 C1470 1.502 . S
C1472 H1458 0.960 . S
C1472 H1459 0.961 . S
C1472 H1460 0.959 . S
C1472 C1470 1.561 . S
C1473 C1470 1.526 . S
C1473 C1474 1.396 . S
C1473 C1478 1.390 . S
C1474 C1468 1.465 . S
C1474 C1473 1.396 . S
C1474 C1475 1.399 . S
C1475 H1461 0.929 . S
C1475 C1474 1.399 . S
C1475 C1476 1.385 . S
C1476 H1462 0.931 . S
C1476 C1475 1.385 . S
C1476 C1477 1.389 . S
C1477 C1476 1.389 . S
C1477 C1478 1.387 . S
C1478 H1463 0.930 . S
C1478 C1473 1.390 . S
C1478 C1477 1.387 . S
H1479 C1491 0.930 . S
H1480 C1493 0.930 . S
H1481 C1494 0.930 . S
H1482 C1498 0.959 . S
H1483 C1498 0.959 . S
H1484 C1498 0.961 . S
H1485 C1499 0.960 . S
H1486 C1499 0.961 . S
H1487 C1499 0.959 . S
H1488 C1502 0.929 . S
H1489 C1503 0.931 . S
H1490 C1505 0.930 . S
C1491 H1479 0.930 . S
C1491 C1492 1.399 . S
C1491 C1496 1.399 . S
C1492 C1491 1.399 . S
C1492 C1493 1.376 . S
C1493 H1480 0.930 . S
C1493 C1492 1.376 . S
C1493 C1494 1.388 . S
C1494 H1481 0.930 . S
C1494 C1493 1.388 . S
C1494 C1495 1.390 . S
C1495 C1494 1.390 . S
C1495 C1496 1.394 . S
C1495 C1501 1.465 . S
C1496 C1491 1.399 . S
C1496 C1495 1.394 . S
C1496 C1497 1.516 . S
C1497 C1496 1.516 . S
C1497 C1498 1.502 . S
C1497 C1499 1.561 . S
C1497 C1500 1.526 . S
C1498 H1482 0.959 . S
C1498 H1483 0.959 . S
C1498 H1484 0.961 . S
C1498 C1497 1.502 . S
C1499 H1485 0.960 . S
C1499 H1486 0.961 . S
C1499 H1487 0.959 . S
C1499 C1497 1.561 . S
C1500 C1497 1.526 . S
C1500 C1501 1.396 . S
C1500 C1505 1.390 . S
C1501 C1495 1.465 . S
C1501 C1500 1.396 . S
C1501 C1502 1.399 . S
C1502 H1488 0.929 . S
C1502 C1501 1.399 . S
C1502 C1503 1.385 . S
C1503 H1489 0.931 . S
C1503 C1502 1.385 . S
C1503 C1504 1.389 . S
C1504 C1503 1.389 . S
C1504 C1505 1.387 . S
C1505 H1490 0.930 . S
C1505 C1500 1.390 . S
C1505 C1504 1.387 . S
H1506 C1518 0.930 . S
H1507 C1520 0.930 . S
H1508 C1521 0.930 . S
H1509 C1525 0.959 . S
H1510 C1525 0.959 . S
H1511 C1525 0.961 . S
H1512 C1526 0.960 . S
H1513 C1526 0.961 . S
H1514 C1526 0.959 . S
H1515 C1529 0.929 . S
H1516 C1530 0.931 . S
H1517 C1532 0.930 . S
C1518 H1506 0.930 . S
C1518 C1519 1.399 . S
C1518 C1523 1.399 . S
C1519 C1518 1.399 . S
C1519 C1520 1.376 . S
C1520 H1507 0.930 . S
C1520 C1519 1.376 . S
C1520 C1521 1.388 . S
C1521 H1508 0.930 . S
C1521 C1520 1.388 . S
C1521 C1522 1.390 . S
C1522 C1521 1.390 . S
C1522 C1523 1.394 . S
C1522 C1528 1.465 . S
C1523 C1518 1.399 . S
C1523 C1522 1.394 . S
C1523 C1524 1.516 . S
C1524 C1523 1.516 . S
C1524 C1525 1.502 . S
C1524 C1526 1.561 . S
C1524 C1527 1.526 . S
C1525 H1509 0.959 . S
C1525 H1510 0.959 . S
C1525 H1511 0.961 . S
C1525 C1524 1.502 . S
C1526 H1512 0.960 . S
C1526 H1513 0.961 . S
C1526 H1514 0.959 . S
C1526 C1524 1.561 . S
C1527 C1524 1.526 . S
C1527 C1528 1.396 . S
C1527 C1532 1.390 . S
C1528 C1522 1.465 . S
C1528 C1527 1.396 . S
C1528 C1529 1.399 . S
C1529 H1515 0.929 . S
C1529 C1528 1.399 . S
C1529 C1530 1.385 . S
C1530 H1516 0.931 . S
C1530 C1529 1.385 . S
C1530 C1531 1.389 . S
C1531 C1530 1.389 . S
C1531 C1532 1.387 . S
C1532 H1517 0.930 . S
C1532 C1527 1.390 . S
C1532 C1531 1.387 . S
H1533 C1545 0.930 . S
H1534 C1547 0.930 . S
H1535 C1548 0.930 . S
H1536 C1552 0.959 . S
H1537 C1552 0.959 . S
H1538 C1552 0.961 . S
H1539 C1553 0.960 . S
H1540 C1553 0.961 . S
H1541 C1553 0.959 . S
H1542 C1556 0.929 . S
H1543 C1557 0.931 . S
H1544 C1559 0.930 . S
C1545 H1533 0.930 . S
C1545 C1546 1.399 . S
C1545 C1550 1.399 . S
C1546 C1545 1.399 . S
C1546 C1547 1.376 . S
C1547 H1534 0.930 . S
C1547 C1546 1.376 . S
C1547 C1548 1.388 . S
C1548 H1535 0.930 . S
C1548 C1547 1.388 . S
C1548 C1549 1.390 . S
C1549 C1548 1.390 . S
C1549 C1550 1.394 . S
C1549 C1555 1.465 . S
C1550 C1545 1.399 . S
C1550 C1549 1.394 . S
C1550 C1551 1.516 . S
C1551 C1550 1.516 . S
C1551 C1552 1.502 . S
C1551 C1553 1.561 . S
C1551 C1554 1.526 . S
C1552 H1536 0.959 . S
C1552 H1537 0.959 . S
C1552 H1538 0.961 . S
C1552 C1551 1.502 . S
C1553 H1539 0.960 . S
C1553 H1540 0.961 . S
C1553 H1541 0.959 . S
C1553 C1551 1.561 . S
C1554 C1551 1.526 . S
C1554 C1555 1.396 . S
C1554 C1559 1.390 . S
C1555 C1549 1.465 . S
C1555 C1554 1.396 . S
C1555 C1556 1.399 . S
C1556 H1542 0.929 . S
C1556 C1555 1.399 . S
C1556 C1557 1.385 . S
C1557 H1543 0.931 . S
C1557 C1556 1.385 . S
C1557 C1558 1.389 . S
C1558 C1557 1.389 . S
C1558 C1559 1.387 . S
C1559 H1544 0.930 . S
C1559 C1554 1.390 . S
C1559 C1558 1.387 . S
H1560 C1572 0.930 . S
H1561 C1574 0.930 . S
H1562 C1575 0.930 . S
H1563 C1579 0.959 . S
H1564 C1579 0.959 . S
H1565 C1579 0.961 . S
H1566 C1580 0.960 . S
H1567 C1580 0.961 . S
H1568 C1580 0.959 . S
H1569 C1583 0.929 . S
H1570 C1584 0.931 . S
H1571 C1586 0.930 . S
C1572 H1560 0.930 . S
C1572 C1573 1.399 . S
C1572 C1577 1.399 . S
C1573 C1572 1.399 . S
C1573 C1574 1.376 . S
C1574 H1561 0.930 . S
C1574 C1573 1.376 . S
C1574 C1575 1.388 . S
C1575 H1562 0.930 . S
C1575 C1574 1.388 . S
C1575 C1576 1.390 . S
C1576 C1575 1.390 . S
C1576 C1577 1.394 . S
C1576 C1582 1.465 . S
C1577 C1572 1.399 . S
C1577 C1576 1.394 . S
C1577 C1578 1.516 . S
C1578 C1577 1.516 . S
C1578 C1579 1.502 . S
C1578 C1580 1.561 . S
C1578 C1581 1.526 . S
C1579 H1563 0.959 . S
C1579 H1564 0.959 . S
C1579 H1565 0.961 . S
C1579 C1578 1.502 . S
C1580 H1566 0.960 . S
C1580 H1567 0.961 . S
C1580 H1568 0.959 . S
C1580 C1578 1.561 . S
C1581 C1578 1.526 . S
C1581 C1582 1.396 . S
C1581 C1586 1.390 . S
C1582 C1576 1.465 . S
C1582 C1581 1.396 . S
C1582 C1583 1.399 . S
C1583 H1569 0.929 . S
C1583 C1582 1.399 . S
C1583 C1584 1.385 . S
C1584 H1570 0.931 . S
C1584 C1583 1.385 . S
C1584 C1585 1.389 . S
C1585 C1584 1.389 . S
C1585 C1586 1.387 . S
C1586 H1571 0.930 . S
C1586 C1581 1.390 . S
C1586 C1585 1.387 . S
H1587 C1599 0.930 . S
H1588 C1601 0.930 . S
H1589 C1602 0.930 . S
H1590 C1606 0.959 . S
H1591 C1606 0.959 . S
H1592 C1606 0.961 . S
H1593 C1607 0.960 . S
H1594 C1607 0.961 . S
H1595 C1607 0.959 . S
H1596 C1610 0.929 . S
H1597 C1611 0.931 . S
H1598 C1613 0.930 . S
C1599 H1587 0.930 . S
C1599 C1600 1.399 . S
C1599 C1604 1.399 . S
C1600 C1599 1.399 . S
C1600 C1601 1.376 . S
C1601 H1588 0.930 . S
C1601 C1600 1.376 . S
C1601 C1602 1.388 . S
C1602 H1589 0.930 . S
C1602 C1601 1.388 . S
C1602 C1603 1.390 . S
C1603 C1602 1.390 . S
C1603 C1604 1.394 . S
C1603 C1609 1.465 . S
C1604 C1599 1.399 . S
C1604 C1603 1.394 . S
C1604 C1605 1.516 . S
C1605 C1604 1.516 . S
C1605 C1606 1.502 . S
C1605 C1607 1.561 . S
C1605 C1608 1.526 . S
C1606 H1590 0.959 . S
C1606 H1591 0.959 . S
C1606 H1592 0.961 . S
C1606 C1605 1.502 . S
C1607 H1593 0.960 . S
C1607 H1594 0.961 . S
C1607 H1595 0.959 . S
C1607 C1605 1.561 . S
C1608 C1605 1.526 . S
C1608 C1609 1.396 . S
C1608 C1613 1.390 . S
C1609 C1603 1.465 . S
C1609 C1608 1.396 . S
C1609 C1610 1.399 . S
C1610 H1596 0.929 . S
C1610 C1609 1.399 . S
C1610 C1611 1.385 . S
C1611 H1597 0.931 . S
C1611 C1610 1.385 . S
C1611 C1612 1.389 . S
C1612 C1611 1.389 . S
C1612 C1613 1.387 . S
C1613 H1598 0.930 . S
C1613 C1608 1.390 . S
C1613 C1612 1.387 . S
H1614 C1626 0.930 . S
H1615 C1628 0.930 . S
H1616 C1629 0.930 . S
H1617 C1633 0.959 . S
H1618 C1633 0.959 . S
H1619 C1633 0.961 . S
H1620 C1634 0.960 . S
H1621 C1634 0.961 . S
H1622 C1634 0.959 . S
H1623 C1637 0.929 . S
H1624 C1638 0.931 . S
H1625 C1640 0.930 . S
C1626 H1614 0.930 . S
C1626 C1627 1.399 . S
C1626 C1631 1.399 . S
C1627 C1626 1.399 . S
C1627 C1628 1.376 . S
C1628 H1615 0.930 . S
C1628 C1627 1.376 . S
C1628 C1629 1.388 . S
C1629 H1616 0.930 . S
C1629 C1628 1.388 . S
C1629 C1630 1.390 . S
C1630 C1629 1.390 . S
C1630 C1631 1.394 . S
C1630 C1636 1.465 . S
C1631 C1626 1.399 . S
C1631 C1630 1.394 . S
C1631 C1632 1.516 . S
C1632 C1631 1.516 . S
C1632 C1633 1.502 . S
C1632 C1634 1.561 . S
C1632 C1635 1.526 . S
C1633 H1617 0.959 . S
C1633 H1618 0.959 . S
C1633 H1619 0.961 . S
C1633 C1632 1.502 . S
C1634 H1620 0.960 . S
C1634 H1621 0.961 . S
C1634 H1622 0.959 . S
C1634 C1632 1.561 . S
C1635 C1632 1.526 . S
C1635 C1636 1.396 . S
C1635 C1640 1.390 . S
C1636 C1630 1.465 . S
C1636 C1635 1.396 . S
C1636 C1637 1.399 . S
C1637 H1623 0.929 . S
C1637 C1636 1.399 . S
C1637 C1638 1.385 . S
C1638 H1624 0.931 . S
C1638 C1637 1.385 . S
C1638 C1639 1.389 . S
C1639 C1638 1.389 . S
C1639 C1640 1.387 . S
C1640 H1625 0.930 . S
C1640 C1635 1.390 . S
C1640 C1639 1.387 . S
H1641 C1653 0.930 . S
H1642 C1655 0.930 . S
H1643 C1656 0.930 . S
H1644 C1660 0.959 . S
H1645 C1660 0.959 . S
H1646 C1660 0.961 . S
H1647 C1661 0.960 . S
H1648 C1661 0.961 . S
H1649 C1661 0.959 . S
H1650 C1664 0.929 . S
H1651 C1665 0.931 . S
H1652 C1667 0.930 . S
C1653 H1641 0.930 . S
C1653 C1654 1.399 . S
C1653 C1658 1.399 . S
C1654 C1653 1.399 . S
C1654 C1655 1.376 . S
C1655 H1642 0.930 . S
C1655 C1654 1.376 . S
C1655 C1656 1.388 . S
C1656 H1643 0.930 . S
C1656 C1655 1.388 . S
C1656 C1657 1.390 . S
C1657 C1656 1.390 . S
C1657 C1658 1.394 . S
C1657 C1663 1.465 . S
C1658 C1653 1.399 . S
C1658 C1657 1.394 . S
C1658 C1659 1.516 . S
C1659 C1658 1.516 . S
C1659 C1660 1.502 . S
C1659 C1661 1.561 . S
C1659 C1662 1.526 . S
C1660 H1644 0.959 . S
C1660 H1645 0.959 . S
C1660 H1646 0.961 . S
C1660 C1659 1.502 . S
C1661 H1647 0.960 . S
C1661 H1648 0.961 . S
C1661 H1649 0.959 . S
C1661 C1659 1.561 . S
C1662 C1659 1.526 . S
C1662 C1663 1.396 . S
C1662 C1667 1.390 . S
C1663 C1657 1.465 . S
C1663 C1662 1.396 . S
C1663 C1664 1.399 . S
C1664 H1650 0.929 . S
C1664 C1663 1.399 . S
C1664 C1665 1.385 . S
C1665 H1651 0.931 . S
C1665 C1664 1.385 . S
C1665 C1666 1.389 . S
C1666 C1665 1.389 . S
C1666 C1667 1.387 . S
C1667 H1652 0.930 . S
C1667 C1662 1.390 . S
C1667 C1666 1.387 . S
H1668 C1680 0.930 . S
H1669 C1682 0.930 . S
H1670 C1683 0.930 . S
H1671 C1687 0.959 . S
H1672 C1687 0.959 . S
H1673 C1687 0.961 . S
H1674 C1688 0.960 . S
H1675 C1688 0.961 . S
H1676 C1688 0.959 . S
H1677 C1691 0.929 . S
H1678 C1692 0.931 . S
H1679 C1694 0.930 . S
C1680 H1668 0.930 . S
C1680 C1681 1.399 . S
C1680 C1685 1.399 . S
C1681 C1680 1.399 . S
C1681 C1682 1.376 . S
C1682 H1669 0.930 . S
C1682 C1681 1.376 . S
C1682 C1683 1.388 . S
C1683 H1670 0.930 . S
C1683 C1682 1.388 . S
C1683 C1684 1.390 . S
C1684 C1683 1.390 . S
C1684 C1685 1.394 . S
C1684 C1690 1.465 . S
C1685 C1680 1.399 . S
C1685 C1684 1.394 . S
C1685 C1686 1.516 . S
C1686 C1685 1.516 . S
C1686 C1687 1.502 . S
C1686 C1688 1.561 . S
C1686 C1689 1.526 . S
C1687 H1671 0.959 . S
C1687 H1672 0.959 . S
C1687 H1673 0.961 . S
C1687 C1686 1.502 . S
C1688 H1674 0.960 . S
C1688 H1675 0.961 . S
C1688 H1676 0.959 . S
C1688 C1686 1.561 . S
C1689 C1686 1.526 . S
C1689 C1690 1.396 . S
C1689 C1694 1.390 . S
C1690 C1684 1.465 . S
C1690 C1689 1.396 . S
C1690 C1691 1.399 . S
C1691 H1677 0.929 . S
C1691 C1690 1.399 . S
C1691 C1692 1.385 . S
C1692 H1678 0.931 . S
C1692 C1691 1.385 . S
C1692 C1693 1.389 . S
C1693 C1692 1.389 . S
C1693 C1694 1.387 . S
C1694 H1679 0.930 . S
C1694 C1689 1.390 . S
C1694 C1693 1.387 . S
H1695 C1707 0.930 . S
H1696 C1709 0.930 . S
H1697 C1710 0.930 . S
H1698 C1714 0.959 . S
H1699 C1714 0.959 . S
H1700 C1714 0.961 . S
H1701 C1715 0.960 . S
H1702 C1715 0.961 . S
H1703 C1715 0.959 . S
H1704 C1718 0.929 . S
H1705 C1719 0.931 . S
H1706 C1721 0.930 . S
C1707 H1695 0.930 . S
C1707 C1708 1.399 . S
C1707 C1712 1.399 . S
C1708 C1707 1.399 . S
C1708 C1709 1.376 . S
C1709 H1696 0.930 . S
C1709 C1708 1.376 . S
C1709 C1710 1.388 . S
C1710 H1697 0.930 . S
C1710 C1709 1.388 . S
C1710 C1711 1.390 . S
C1711 C1710 1.390 . S
C1711 C1712 1.394 . S
C1711 C1717 1.465 . S
C1712 C1707 1.399 . S
C1712 C1711 1.394 . S
C1712 C1713 1.516 . S
C1713 C1712 1.516 . S
C1713 C1714 1.502 . S
C1713 C1715 1.561 . S
C1713 C1716 1.526 . S
C1714 H1698 0.959 . S
C1714 H1699 0.959 . S
C1714 H1700 0.961 . S
C1714 C1713 1.502 . S
C1715 H1701 0.960 . S
C1715 H1702 0.961 . S
C1715 H1703 0.959 . S
C1715 C1713 1.561 . S
C1716 C1713 1.526 . S
C1716 C1717 1.396 . S
C1716 C1721 1.390 . S
C1717 C1711 1.465 . S
C1717 C1716 1.396 . S
C1717 C1718 1.399 . S
C1718 H1704 0.929 . S
C1718 C1717 1.399 . S
C1718 C1719 1.385 . S
C1719 H1705 0.931 . S
C1719 C1718 1.385 . S
C1719 C1720 1.389 . S
C1720 C1719 1.389 . S
C1720 C1721 1.387 . S
C1721 H1706 0.930 . S
C1721 C1716 1.390 . S
C1721 C1720 1.387 . S
H1722 C1734 0.930 . S
H1723 C1736 0.930 . S
H1724 C1737 0.930 . S
H1725 C1741 0.959 . S
H1726 C1741 0.959 . S
H1727 C1741 0.961 . S
H1728 C1742 0.960 . S
H1729 C1742 0.961 . S
H1730 C1742 0.959 . S
H1731 C1745 0.929 . S
H1732 C1746 0.931 . S
H1733 C1748 0.930 . S
C1734 H1722 0.930 . S
C1734 C1735 1.399 . S
C1734 C1739 1.399 . S
C1735 C1734 1.399 . S
C1735 C1736 1.376 . S
C1736 H1723 0.930 . S
C1736 C1735 1.376 . S
C1736 C1737 1.388 . S
C1737 H1724 0.930 . S
C1737 C1736 1.388 . S
C1737 C1738 1.390 . S
C1738 C1737 1.390 . S
C1738 C1739 1.394 . S
C1738 C1744 1.465 . S
C1739 C1734 1.399 . S
C1739 C1738 1.394 . S
C1739 C1740 1.516 . S
C1740 C1739 1.516 . S
C1740 C1741 1.502 . S
C1740 C1742 1.561 . S
C1740 C1743 1.526 . S
C1741 H1725 0.959 . S
C1741 H1726 0.959 . S
C1741 H1727 0.961 . S
C1741 C1740 1.502 . S
C1742 H1728 0.960 . S
C1742 H1729 0.961 . S
C1742 H1730 0.959 . S
C1742 C1740 1.561 . S
C1743 C1740 1.526 . S
C1743 C1744 1.396 . S
C1743 C1748 1.390 . S
C1744 C1738 1.465 . S
C1744 C1743 1.396 . S
C1744 C1745 1.399 . S
C1745 H1731 0.929 . S
C1745 C1744 1.399 . S
C1745 C1746 1.385 . S
C1746 H1732 0.931 . S
C1746 C1745 1.385 . S
C1746 C1747 1.389 . S
C1747 C1746 1.389 . S
C1747 C1748 1.387 . S
C1748 H1733 0.930 . S
C1748 C1743 1.390 . S
C1748 C1747 1.387 . S
H1749 C1761 0.930 . S
H1750 C1763 0.930 . S
H1751 C1764 0.930 . S
H1752 C1768 0.959 . S
H1753 C1768 0.959 . S
H1754 C1768 0.961 . S
H1755 C1769 0.960 . S
H1756 C1769 0.961 . S
H1757 C1769 0.959 . S
H1758 C1772 0.929 . S
H1759 C1773 0.931 . S
H1760 C1775 0.930 . S
C1761 H1749 0.930 . S
C1761 C1762 1.399 . S
C1761 C1766 1.399 . S
C1762 C1761 1.399 . S
C1762 C1763 1.376 . S
C1763 H1750 0.930 . S
C1763 C1762 1.376 . S
C1763 C1764 1.388 . S
C1764 H1751 0.930 . S
C1764 C1763 1.388 . S
C1764 C1765 1.390 . S
C1765 C1764 1.390 . S
C1765 C1766 1.394 . S
C1765 C1771 1.465 . S
C1766 C1761 1.399 . S
C1766 C1765 1.394 . S
C1766 C1767 1.516 . S
C1767 C1766 1.516 . S
C1767 C1768 1.502 . S
C1767 C1769 1.561 . S
C1767 C1770 1.526 . S
C1768 H1752 0.959 . S
C1768 H1753 0.959 . S
C1768 H1754 0.961 . S
C1768 C1767 1.502 . S
C1769 H1755 0.960 . S
C1769 H1756 0.961 . S
C1769 H1757 0.959 . S
C1769 C1767 1.561 . S
C1770 C1767 1.526 . S
C1770 C1771 1.396 . S
C1770 C1775 1.390 . S
C1771 C1765 1.465 . S
C1771 C1770 1.396 . S
C1771 C1772 1.399 . S
C1772 H1758 0.929 . S
C1772 C1771 1.399 . S
C1772 C1773 1.385 . S
C1773 H1759 0.931 . S
C1773 C1772 1.385 . S
C1773 C1774 1.389 . S
C1774 C1773 1.389 . S
C1774 C1775 1.387 . S
C1775 H1760 0.930 . S
C1775 C1770 1.390 . S
C1775 C1774 1.387 . S
H1776 C1788 0.930 . S
H1777 C1790 0.930 . S
H1778 C1791 0.930 . S
H1779 C1795 0.959 . S
H1780 C1795 0.959 . S
H1781 C1795 0.961 . S
H1782 C1796 0.960 . S
H1783 C1796 0.961 . S
H1784 C1796 0.959 . S
H1785 C1799 0.929 . S
H1786 C1800 0.931 . S
H1787 C1802 0.930 . S
C1788 H1776 0.930 . S
C1788 C1789 1.399 . S
C1788 C1793 1.399 . S
C1789 C1788 1.399 . S
C1789 C1790 1.376 . S
C1790 H1777 0.930 . S
C1790 C1789 1.376 . S
C1790 C1791 1.388 . S
C1791 H1778 0.930 . S
C1791 C1790 1.388 . S
C1791 C1792 1.390 . S
C1792 C1791 1.390 . S
C1792 C1793 1.394 . S
C1792 C1798 1.465 . S
C1793 C1788 1.399 . S
C1793 C1792 1.394 . S
C1793 C1794 1.516 . S
C1794 C1793 1.516 . S
C1794 C1795 1.502 . S
C1794 C1796 1.561 . S
C1794 C1797 1.526 . S
C1795 H1779 0.959 . S
C1795 H1780 0.959 . S
C1795 H1781 0.961 . S
C1795 C1794 1.502 . S
C1796 H1782 0.960 . S
C1796 H1783 0.961 . S
C1796 H1784 0.959 . S
C1796 C1794 1.561 . S
C1797 C1794 1.526 . S
C1797 C1798 1.396 . S
C1797 C1802 1.390 . S
C1798 C1792 1.465 . S
C1798 C1797 1.396 . S
C1798 C1799 1.399 . S
C1799 H1785 0.929 . S
C1799 C1798 1.399 . S
C1799 C1800 1.385 . S
C1800 H1786 0.931 . S
C1800 C1799 1.385 . S
C1800 C1801 1.389 . S
C1801 C1800 1.389 . S
C1801 C1802 1.387 . S
C1802 H1787 0.930 . S
C1802 C1797 1.390 . S
C1802 C1801 1.387 . S
H1803 C1815 0.930 . S
H1804 C1817 0.930 . S
H1805 C1818 0.930 . S
H1806 C1822 0.959 . S
H1807 C1822 0.959 . S
H1808 C1822 0.961 . S
H1809 C1823 0.960 . S
H1810 C1823 0.961 . S
H1811 C1823 0.959 . S
H1812 C1826 0.929 . S
H1813 C1827 0.931 . S
H1814 C1829 0.930 . S
C1815 H1803 0.930 . S
C1815 C1816 1.399 . S
C1815 C1820 1.399 . S
C1816 C1815 1.399 . S
C1816 C1817 1.376 . S
C1817 H1804 0.930 . S
C1817 C1816 1.376 . S
C1817 C1818 1.388 . S
C1818 H1805 0.930 . S
C1818 C1817 1.388 . S
C1818 C1819 1.390 . S
C1819 C1818 1.390 . S
C1819 C1820 1.394 . S
C1819 C1825 1.465 . S
C1820 C1815 1.399 . S
C1820 C1819 1.394 . S
C1820 C1821 1.516 . S
C1821 C1820 1.516 . S
C1821 C1822 1.502 . S
C1821 C1823 1.561 . S
C1821 C1824 1.526 . S
C1822 H1806 0.959 . S
C1822 H1807 0.959 . S
C1822 H1808 0.961 . S
C1822 C1821 1.502 . S
C1823 H1809 0.960 . S
C1823 H1810 0.961 . S
C1823 H1811 0.959 . S
C1823 C1821 1.561 . S
C1824 C1821 1.526 . S
C1824 C1825 1.396 . S
C1824 C1829 1.390 . S
C1825 C1819 1.465 . S
C1825 C1824 1.396 . S
C1825 C1826 1.399 . S
C1826 H1812 0.929 . S
C1826 C1825 1.399 . S
C1826 C1827 1.385 . S
C1827 H1813 0.931 . S
C1827 C1826 1.385 . S
C1827 C1828 1.389 . S
C1828 C1827 1.389 . S
C1828 C1829 1.387 . S
C1829 H1814 0.930 . S
C1829 C1824 1.390 . S
C1829 C1828 1.387 . S
H1830 C1842 0.930 . S
H1831 C1844 0.930 . S
H1832 C1845 0.930 . S
H1833 C1849 0.959 . S
H1834 C1849 0.959 . S
H1835 C1849 0.961 . S
H1836 C1850 0.960 . S
H1837 C1850 0.961 . S
H1838 C1850 0.959 . S
H1839 C1853 0.929 . S
H1840 C1854 0.931 . S
H1841 C1856 0.930 . S
C1842 H1830 0.930 . S
C1842 C1843 1.399 . S
C1842 C1847 1.399 . S
C1843 C1842 1.399 . S
C1843 C1844 1.376 . S
C1844 H1831 0.930 . S
C1844 C1843 1.376 . S
C1844 C1845 1.388 . S
C1845 H1832 0.930 . S
C1845 C1844 1.388 . S
C1845 C1846 1.390 . S
C1846 C1845 1.390 . S
C1846 C1847 1.394 . S
C1846 C1852 1.465 . S
C1847 C1842 1.399 . S
C1847 C1846 1.394 . S
C1847 C1848 1.516 . S
C1848 C1847 1.516 . S
C1848 C1849 1.502 . S
C1848 C1850 1.561 . S
C1848 C1851 1.526 . S
C1849 H1833 0.959 . S
C1849 H1834 0.959 . S
C1849 H1835 0.961 . S
C1849 C1848 1.502 . S
C1850 H1836 0.960 . S
C1850 H1837 0.961 . S
C1850 H1838 0.959 . S
C1850 C1848 1.561 . S
C1851 C1848 1.526 . S
C1851 C1852 1.396 . S
C1851 C1856 1.390 . S
C1852 C1846 1.465 . S
C1852 C1851 1.396 . S
C1852 C1853 1.399 . S
C1853 H1839 0.929 . S
C1853 C1852 1.399 . S
C1853 C1854 1.385 . S
C1854 H1840 0.931 . S
C1854 C1853 1.385 . S
C1854 C1855 1.389 . S
C1855 C1854 1.389 . S
C1855 C1856 1.387 . S
C1856 H1841 0.930 . S
C1856 C1851 1.390 . S
C1856 C1855 1.387 . S
H1857 C1869 0.930 . S
H1858 C1871 0.930 . S
H1859 C1872 0.930 . S
H1860 C1876 0.959 . S
H1861 C1876 0.959 . S
H1862 C1876 0.961 . S
H1863 C1877 0.960 . S
H1864 C1877 0.961 . S
H1865 C1877 0.959 . S
H1866 C1880 0.929 . S
H1867 C1881 0.931 . S
H1868 C1883 0.930 . S
C1869 H1857 0.930 . S
C1869 C1870 1.399 . S
C1869 C1874 1.399 . S
C1870 C1869 1.399 . S
C1870 C1871 1.376 . S
C1871 H1858 0.930 . S
C1871 C1870 1.376 . S
C1871 C1872 1.388 . S
C1872 H1859 0.930 . S
C1872 C1871 1.388 . S
C1872 C1873 1.390 . S
C1873 C1872 1.390 . S
C1873 C1874 1.394 . S
C1873 C1879 1.465 . S
C1874 C1869 1.399 . S
C1874 C1873 1.394 . S
C1874 C1875 1.516 . S
C1875 C1874 1.516 . S
C1875 C1876 1.502 . S
C1875 C1877 1.561 . S
C1875 C1878 1.526 . S
C1876 H1860 0.959 . S
C1876 H1861 0.959 . S
C1876 H1862 0.961 . S
C1876 C1875 1.502 . S
C1877 H1863 0.960 . S
C1877 H1864 0.961 . S
C1877 H1865 0.959 . S
C1877 C1875 1.561 . S
C1878 C1875 1.526 . S
C1878 C1879 1.396 . S
C1878 C1883 1.390 . S
C1879 C1873 1.465 . S
C1879 C1878 1.396 . S
C1879 C1880 1.399 . S
C1880 H1866 0.929 . S
C1880 C1879 1.399 . S
C1880 C1881 1.385 . S
C1881 H1867 0.931 . S
C1881 C1880 1.385 . S
C1881 C1882 1.389 . S
C1882 C1881 1.389 . S
C1882 C1883 1.387 . S
C1883 H1868 0.930 . S
C1883 C1878 1.390 . S
C1883 C1882 1.387 . S
H1884 C1896 0.930 . S
H1885 C1898 0.930 . S
H1886 C1899 0.930 . S
H1887 C1903 0.959 . S
H1888 C1903 0.959 . S
H1889 C1903 0.961 . S
H1890 C1904 0.960 . S
H1891 C1904 0.961 . S
H1892 C1904 0.959 . S
H1893 C1907 0.929 . S
H1894 C1908 0.931 . S
H1895 C1910 0.930 . S
C1896 H1884 0.930 . S
C1896 C1897 1.399 . S
C1896 C1901 1.399 . S
C1897 C1896 1.399 . S
C1897 C1898 1.376 . S
C1898 H1885 0.930 . S
C1898 C1897 1.376 . S
C1898 C1899 1.388 . S
C1899 H1886 0.930 . S
C1899 C1898 1.388 . S
C1899 C1900 1.390 . S
C1900 C1899 1.390 . S
C1900 C1901 1.394 . S
C1900 C1906 1.465 . S
C1901 C1896 1.399 . S
C1901 C1900 1.394 . S
C1901 C1902 1.516 . S
C1902 C1901 1.516 . S
C1902 C1903 1.502 . S
C1902 C1904 1.561 . S
C1902 C1905 1.526 . S
C1903 H1887 0.959 . S
C1903 H1888 0.959 . S
C1903 H1889 0.961 . S
C1903 C1902 1.502 . S
C1904 H1890 0.960 . S
C1904 H1891 0.961 . S
C1904 H1892 0.959 . S
C1904 C1902 1.561 . S
C1905 C1902 1.526 . S
C1905 C1906 1.396 . S
C1905 C1910 1.390 . S
C1906 C1900 1.465 . S
C1906 C1905 1.396 . S
C1906 C1907 1.399 . S
C1907 H1893 0.929 . S
C1907 C1906 1.399 . S
C1907 C1908 1.385 . S
C1908 H1894 0.931 . S
C1908 C1907 1.385 . S
C1908 C1909 1.389 . S
C1909 C1908 1.389 . S
C1909 C1910 1.387 . S
C1910 H1895 0.930 . S
C1910 C1905 1.390 . S
C1910 C1909 1.387 . S
H1911 C1923 0.930 . S
H1912 C1925 0.930 . S
H1913 C1926 0.930 . S
H1914 C1930 0.959 . S
H1915 C1930 0.959 . S
H1916 C1930 0.961 . S
H1917 C1931 0.960 . S
H1918 C1931 0.961 . S
H1919 C1931 0.959 . S
H1920 C1934 0.929 . S
H1921 C1935 0.931 . S
H1922 C1937 0.930 . S
C1923 H1911 0.930 . S
C1923 C1924 1.399 . S
C1923 C1928 1.399 . S
C1924 C1923 1.399 . S
C1924 C1925 1.376 . S
C1925 H1912 0.930 . S
C1925 C1924 1.376 . S
C1925 C1926 1.388 . S
C1926 H1913 0.930 . S
C1926 C1925 1.388 . S
C1926 C1927 1.390 . S
C1927 C1926 1.390 . S
C1927 C1928 1.394 . S
C1927 C1933 1.465 . S
C1928 C1923 1.399 . S
C1928 C1927 1.394 . S
C1928 C1929 1.516 . S
C1929 C1928 1.516 . S
C1929 C1930 1.502 . S
C1929 C1931 1.561 . S
C1929 C1932 1.526 . S
C1930 H1914 0.959 . S
C1930 H1915 0.959 . S
C1930 H1916 0.961 . S
C1930 C1929 1.502 . S
C1931 H1917 0.960 . S
C1931 H1918 0.961 . S
C1931 H1919 0.959 . S
C1931 C1929 1.561 . S
C1932 C1929 1.526 . S
C1932 C1933 1.396 . S
C1932 C1937 1.390 . S
C1933 C1927 1.465 . S
C1933 C1932 1.396 . S
C1933 C1934 1.399 . S
C1934 H1920 0.929 . S
C1934 C1933 1.399 . S
C1934 C1935 1.385 . S
C1935 H1921 0.931 . S
C1935 C1934 1.385 . S
C1935 C1936 1.389 . S
C1936 C1935 1.389 . S
C1936 C1937 1.387 . S
C1937 H1922 0.930 . S
C1937 C1932 1.390 . S
C1937 C1936 1.387 . S
H1938 C1950 0.930 . S
H1939 C1952 0.930 . S
H1940 C1953 0.930 . S
H1941 C1957 0.959 . S
H1942 C1957 0.959 . S
H1943 C1957 0.961 . S
H1944 C1958 0.960 . S
H1945 C1958 0.961 . S
H1946 C1958 0.959 . S
H1947 C1961 0.929 . S
H1948 C1962 0.931 . S
H1949 C1964 0.930 . S
C1950 H1938 0.930 . S
C1950 C1951 1.399 . S
C1950 C1955 1.399 . S
C1951 C1950 1.399 . S
C1951 C1952 1.376 . S
C1952 H1939 0.930 . S
C1952 C1951 1.376 . S
C1952 C1953 1.388 . S
C1953 H1940 0.930 . S
C1953 C1952 1.388 . S
C1953 C1954 1.390 . S
C1954 C1953 1.390 . S
C1954 C1955 1.394 . S
C1954 C1960 1.465 . S
C1955 C1950 1.399 . S
C1955 C1954 1.394 . S
C1955 C1956 1.516 . S
C1956 C1955 1.516 . S
C1956 C1957 1.502 . S
C1956 C1958 1.561 . S
C1956 C1959 1.526 . S
C1957 H1941 0.959 . S
C1957 H1942 0.959 . S
C1957 H1943 0.961 . S
C1957 C1956 1.502 . S
C1958 H1944 0.960 . S
C1958 H1945 0.961 . S
C1958 H1946 0.959 . S
C1958 C1956 1.561 . S
C1959 C1956 1.526 . S
C1959 C1960 1.396 . S
C1959 C1964 1.390 . S
C1960 C1954 1.465 . S
C1960 C1959 1.396 . S
C1960 C1961 1.399 . S
C1961 H1947 0.929 . S
C1961 C1960 1.399 . S
C1961 C1962 1.385 . S
C1962 H1948 0.931 . S
C1962 C1961 1.385 . S
C1962 C1963 1.389 . S
C1963 C1962 1.389 . S
C1963 C1964 1.387 . S
C1964 H1949 0.930 . S
C1964 C1959 1.390 . S
C1964 C1963 1.387 . S
H1965 C1977 0.930 . S
H1966 C1979 0.930 . S
H1967 C1980 0.930 . S
H1968 C1984 0.959 . S
H1969 C1984 0.959 . S
H1970 C1984 0.961 . S
H1971 C1985 0.960 . S
H1972 C1985 0.961 . S
H1973 C1985 0.959 . S
H1974 C1988 0.929 . S
H1975 C1989 0.931 . S
H1976 C1991 0.930 . S
C1977 H1965 0.930 . S
C1977 C1978 1.399 . S
C1977 C1982 1.399 . S
C1978 C1977 1.399 . S
C1978 C1979 1.376 . S
C1979 H1966 0.930 . S
C1979 C1978 1.376 . S
C1979 C1980 1.388 . S
C1980 H1967 0.930 . S
C1980 C1979 1.388 . S
C1980 C1981 1.390 . S
C1981 C1980 1.390 . S
C1981 C1982 1.394 . S
C1981 C1987 1.465 . S
C1982 C1977 1.399 . S
C1982 C1981 1.394 . S
C1982 C1983 1.516 . S
C1983 C1982 1.516 . S
C1983 C1984 1.502 . S
C1983 C1985 1.561 . S
C1983 C1986 1.526 . S
C1984 H1968 0.959 . S
C1984 H1969 0.959 . S
C1984 H1970 0.961 . S
C1984 C1983 1.502 . S
C1985 H1971 0.960 . S
C1985 H1972 0.961 . S
C1985 H1973 0.959 . S
C1985 C1983 1.561 . S
C1986 C1983 1.526 . S
C1986 C1987 1.396 . S
C1986 C1991 1.390 . S
C1987 C1981 1.465 . S
C1987 C1986 1.396 . S
C1987 C1988 1.399 . S
C1988 H1974 0.929 . S
C1988 C1987 1.399 . S
C1988 C1989 1.385 . S
C1989 H1975 0.931 . S
C1989 C1988 1.385 . S
C1989 C1990 1.389 . S
C1990 C1989 1.389 . S
C1990 C1991 1.387 . S
C1991 H1976 0.930 . S
C1991 C1986 1.390 . S
C1991 C1990 1.387 . S
H1992 C2004 0.930 . S
H1993 C2006 0.930 . S
H1994 C2007 0.930 . S
H1995 C2011 0.959 . S
H1996 C2011 0.959 . S
H1997 C2011 0.961 . S
H1998 C2012 0.960 . S
H1999 C2012 0.961 . S
H2000 C2012 0.959 . S
H2001 C2015 0.929 . S
H2002 C2016 0.931 . S
H2003 C2018 0.930 . S
C2004 H1992 0.930 . S
C2004 C2005 1.399 . S
C2004 C2009 1.399 . S
C2005 C2004 1.399 . S
C2005 C2006 1.376 . S
C2006 H1993 0.930 . S
C2006 C2005 1.376 . S
C2006 C2007 1.388 . S
C2007 H1994 0.930 . S
C2007 C2006 1.388 . S
C2007 C2008 1.390 . S
C2008 C2007 1.390 . S
C2008 C2009 1.394 . S
C2008 C2014 1.465 . S
C2009 C2004 1.399 . S
C2009 C2008 1.394 . S
C2009 C2010 1.516 . S
C2010 C2009 1.516 . S
C2010 C2011 1.502 . S
C2010 C2012 1.561 . S
C2010 C2013 1.526 . S
C2011 H1995 0.959 . S
C2011 H1996 0.959 . S
C2011 H1997 0.961 . S
C2011 C2010 1.502 . S
C2012 H1998 0.960 . S
C2012 H1999 0.961 . S
C2012 H2000 0.959 . S
C2012 C2010 1.561 . S
C2013 C2010 1.526 . S
C2013 C2014 1.396 . S
C2013 C2018 1.390 . S
C2014 C2008 1.465 . S
C2014 C2013 1.396 . S
C2014 C2015 1.399 . S
C2015 H2001 0.929 . S
C2015 C2014 1.399 . S
C2015 C2016 1.385 . S
C2016 H2002 0.931 . S
C2016 C2015 1.385 . S
C2016 C2017 1.389 . S
C2017 C2016 1.389 . S
C2017 C2018 1.387 . S
C2018 H2003 0.930 . S
C2018 C2013 1.390 . S
C2018 C2017 1.387 . S
H2019 C2031 0.930 . S
H2020 C2033 0.930 . S
H2021 C2034 0.930 . S
H2022 C2038 0.959 . S
H2023 C2038 0.959 . S
H2024 C2038 0.961 . S
H2025 C2039 0.960 . S
H2026 C2039 0.961 . S
H2027 C2039 0.959 . S
H2028 C2042 0.929 . S
H2029 C2043 0.931 . S
H2030 C2045 0.930 . S
C2031 H2019 0.930 . S
C2031 C2032 1.399 . S
C2031 C2036 1.399 . S
C2032 C2031 1.399 . S
C2032 C2033 1.376 . S
C2033 H2020 0.930 . S
C2033 C2032 1.376 . S
C2033 C2034 1.388 . S
C2034 H2021 0.930 . S
C2034 C2033 1.388 . S
C2034 C2035 1.390 . S
C2035 C2034 1.390 . S
C2035 C2036 1.394 . S
C2035 C2041 1.465 . S
C2036 C2031 1.399 . S
C2036 C2035 1.394 . S
C2036 C2037 1.516 . S
C2037 C2036 1.516 . S
C2037 C2038 1.502 . S
C2037 C2039 1.561 . S
C2037 C2040 1.526 . S
C2038 H2022 0.959 . S
C2038 H2023 0.959 . S
C2038 H2024 0.961 . S
C2038 C2037 1.502 . S
C2039 H2025 0.960 . S
C2039 H2026 0.961 . S
C2039 H2027 0.959 . S
C2039 C2037 1.561 . S
C2040 C2037 1.526 . S
C2040 C2041 1.396 . S
C2040 C2045 1.390 . S
C2041 C2035 1.465 . S
C2041 C2040 1.396 . S
C2041 C2042 1.399 . S
C2042 H2028 0.929 . S
C2042 C2041 1.399 . S
C2042 C2043 1.385 . S
C2043 H2029 0.931 . S
C2043 C2042 1.385 . S
C2043 C2044 1.389 . S
C2044 C2043 1.389 . S
C2044 C2045 1.387 . S
C2045 H2030 0.930 . S
C2045 C2040 1.390 . S
C2045 C2044 1.387 . S
H2046 C2058 0.930 . S
H2047 C2060 0.930 . S
H2048 C2061 0.930 . S
H2049 C2065 0.959 . S
H2050 C2065 0.959 . S
H2051 C2065 0.961 . S
H2052 C2066 0.960 . S
H2053 C2066 0.961 . S
H2054 C2066 0.959 . S
H2055 C2069 0.929 . S
H2056 C2070 0.931 . S
H2057 C2072 0.930 . S
C2058 H2046 0.930 . S
C2058 C2059 1.399 . S
C2058 C2063 1.399 . S
C2059 C2058 1.399 . S
C2059 C2060 1.376 . S
C2060 H2047 0.930 . S
C2060 C2059 1.376 . S
C2060 C2061 1.388 . S
C2061 H2048 0.930 . S
C2061 C2060 1.388 . S
C2061 C2062 1.390 . S
C2062 C2061 1.390 . S
C2062 C2063 1.394 . S
C2062 C2068 1.465 . S
C2063 C2058 1.399 . S
C2063 C2062 1.394 . S
C2063 C2064 1.516 . S
C2064 C2063 1.516 . S
C2064 C2065 1.502 . S
C2064 C2066 1.561 . S
C2064 C2067 1.526 . S
C2065 H2049 0.959 . S
C2065 H2050 0.959 . S
C2065 H2051 0.961 . S
C2065 C2064 1.502 . S
C2066 H2052 0.960 . S
C2066 H2053 0.961 . S
C2066 H2054 0.959 . S
C2066 C2064 1.561 . S
C2067 C2064 1.526 . S
C2067 C2068 1.396 . S
C2067 C2072 1.390 . S
C2068 C2062 1.465 . S
C2068 C2067 1.396 . S
C2068 C2069 1.399 . S
C2069 H2055 0.929 . S
C2069 C2068 1.399 . S
C2069 C2070 1.385 . S
C2070 H2056 0.931 . S
C2070 C2069 1.385 . S
C2070 C2071 1.389 . S
C2071 C2070 1.389 . S
C2071 C2072 1.387 . S
C2072 H2057 0.930 . S
C2072 C2067 1.390 . S
C2072 C2071 1.387 . S
H2073 C2085 0.930 . S
H2074 C2087 0.930 . S
H2075 C2088 0.930 . S
H2076 C2092 0.959 . S
H2077 C2092 0.959 . S
H2078 C2092 0.961 . S
H2079 C2093 0.960 . S
H2080 C2093 0.961 . S
H2081 C2093 0.959 . S
H2082 C2096 0.929 . S
H2083 C2097 0.931 . S
H2084 C2099 0.930 . S
C2085 H2073 0.930 . S
C2085 C2086 1.399 . S
C2085 C2090 1.399 . S
C2086 C2085 1.399 . S
C2086 C2087 1.376 . S
C2087 H2074 0.930 . S
C2087 C2086 1.376 . S
C2087 C2088 1.388 . S
C2088 H2075 0.930 . S
C2088 C2087 1.388 . S
C2088 C2089 1.390 . S
C2089 C2088 1.390 . S
C2089 C2090 1.394 . S
C2089 C2095 1.465 . S
C2090 C2085 1.399 . S
C2090 C2089 1.394 . S
C2090 C2091 1.516 . S
C2091 C2090 1.516 . S
C2091 C2092 1.502 . S
C2091 C2093 1.561 . S
C2091 C2094 1.526 . S
C2092 H2076 0.959 . S
C2092 H2077 0.959 . S
C2092 H2078 0.961 . S
C2092 C2091 1.502 . S
C2093 H2079 0.960 . S
C2093 H2080 0.961 . S
C2093 H2081 0.959 . S
C2093 C2091 1.561 . S
C2094 C2091 1.526 . S
C2094 C2095 1.396 . S
C2094 C2099 1.390 . S
C2095 C2089 1.465 . S
C2095 C2094 1.396 . S
C2095 C2096 1.399 . S
C2096 H2082 0.929 . S
C2096 C2095 1.399 . S
C2096 C2097 1.385 . S
C2097 H2083 0.931 . S
C2097 C2096 1.385 . S
C2097 C2098 1.389 . S
C2098 C2097 1.389 . S
C2098 C2099 1.387 . S
C2099 H2084 0.930 . S
C2099 C2094 1.390 . S
C2099 C2098 1.387 . S
H2100 C2112 0.930 . S
H2101 C2114 0.930 . S
H2102 C2115 0.930 . S
H2103 C2119 0.959 . S
H2104 C2119 0.959 . S
H2105 C2119 0.961 . S
H2106 C2120 0.960 . S
H2107 C2120 0.961 . S
H2108 C2120 0.959 . S
H2109 C2123 0.929 . S
H2110 C2124 0.931 . S
H2111 C2126 0.930 . S
C2112 H2100 0.930 . S
C2112 C2113 1.399 . S
C2112 C2117 1.399 . S
C2113 C2112 1.399 . S
C2113 C2114 1.376 . S
C2114 H2101 0.930 . S
C2114 C2113 1.376 . S
C2114 C2115 1.388 . S
C2115 H2102 0.930 . S
C2115 C2114 1.388 . S
C2115 C2116 1.390 . S
C2116 C2115 1.390 . S
C2116 C2117 1.394 . S
C2116 C2122 1.465 . S
C2117 C2112 1.399 . S
C2117 C2116 1.394 . S
C2117 C2118 1.516 . S
C2118 C2117 1.516 . S
C2118 C2119 1.502 . S
C2118 C2120 1.561 . S
C2118 C2121 1.526 . S
C2119 H2103 0.959 . S
C2119 H2104 0.959 . S
C2119 H2105 0.961 . S
C2119 C2118 1.502 . S
C2120 H2106 0.960 . S
C2120 H2107 0.961 . S
C2120 H2108 0.959 . S
C2120 C2118 1.561 . S
C2121 C2118 1.526 . S
C2121 C2122 1.396 . S
C2121 C2126 1.390 . S
C2122 C2116 1.465 . S
C2122 C2121 1.396 . S
C2122 C2123 1.399 . S
C2123 H2109 0.929 . S
C2123 C2122 1.399 . S
C2123 C2124 1.385 . S
C2124 H2110 0.931 . S
C2124 C2123 1.385 . S
C2124 C2125 1.389 . S
C2125 C2124 1.389 . S
C2125 C2126 1.387 . S
C2126 H2111 0.930 . S
C2126 C2121 1.390 . S
C2126 C2125 1.387 . S
H2127 C2139 0.930 . S
H2128 C2141 0.930 . S
H2129 C2142 0.930 . S
H2130 C2146 0.959 . S
H2131 C2146 0.959 . S
H2132 C2146 0.961 . S
H2133 C2147 0.960 . S
H2134 C2147 0.961 . S
H2135 C2147 0.959 . S
H2136 C2150 0.929 . S
H2137 C2151 0.931 . S
H2138 C2153 0.930 . S
C2139 H2127 0.930 . S
C2139 C2140 1.399 . S
C2139 C2144 1.399 . S
C2140 C2139 1.399 . S
C2140 C2141 1.376 . S
C2141 H2128 0.930 . S
C2141 C2140 1.376 . S
C2141 C2142 1.388 . S
C2142 H2129 0.930 . S
C2142 C2141 1.388 . S
C2142 C2143 1.390 . S
C2143 C2142 1.390 . S
C2143 C2144 1.394 . S
C2143 C2149 1.465 . S
C2144 C2139 1.399 . S
C2144 C2143 1.394 . S
C2144 C2145 1.516 . S
C2145 C2144 1.516 . S
C2145 C2146 1.502 . S
C2145 C2147 1.561 . S
C2145 C2148 1.526 . S
C2146 H2130 0.959 . S
C2146 H2131 0.959 . S
C2146 H2132 0.961 . S
C2146 C2145 1.502 . S
C2147 H2133 0.960 . S
C2147 H2134 0.961 . S
C2147 H2135 0.959 . S
C2147 C2145 1.561 . S
C2148 C2145 1.526 . S
C2148 C2149 1.396 . S
C2148 C2153 1.390 . S
C2149 C2143 1.465 . S
C2149 C2148 1.396 . S
C2149 C2150 1.399 . S
C2150 H2136 0.929 . S
C2150 C2149 1.399 . S
C2150 C2151 1.385 . S
C2151 H2137 0.931 . S
C2151 C2150 1.385 . S
C2151 C2152 1.389 . S
C2152 C2151 1.389 . S
C2152 C2153 1.387 . S
C2153 H2138 0.930 . S
C2153 C2148 1.390 . S
C2153 C2152 1.387 . S
C883 C683 1.486 . S
C871 C74 1.409 . S
C910 C673 0.440 . S
C898 C142 0.970 . S
C937 C674 1.185 . S
C925 C231 1.135 . S
C952 C322 1.305 . S
C964 C696 1.388 . S
C979 C406 0.921 . S
C991 C699 0.444 . S
C1018 C682 1.193 . S
C1006 C494 1.162 . S
C1033 C562 1.287 . S
C1045 C672 1.447 . S
C1060 C651 1.497 . S
C1072 C690 1.535 . S
C1099 C703 1.481 . S
C1087 C58 1.407 . S
C1114 C151 1.527 . S
C1126 C752 1.561 . S
C1153 C730 2.639 . S
C1141 C224 2.517 . S
C1180 C744 1.104 . S
C1168 C315 1.045 . S
C1195 C399 1.038 . S
C1207 C705 1.082 . S
C1234 C758 1.411 . S
C1222 C478 1.376 . S
C1249 C571 1.518 . S
C1261 C714 1.494 . S
C1276 C644 2.516 . S
C1288 C735 2.609 . S
C1303 C67 2.493 . S
C1315 C761 2.611 . S
C1330 C392 1.532 . S
C1342 C745 1.488 . S
C1369 C704 2.619 . S
C1357 C487 2.491 . S
C1396 C736 1.098 . S
C1384 C578 1.033 . S
C1411 C658 1.344 . S
C1423 C727 1.478 . S
C1438 C238 1.417 . S
C1450 C734 1.484 . S
C1477 C721 1.521 . S
C1465 C308 1.514 . S
C1492 C158 1.105 . S
C1504 C713 1.023 . S
C1519 C662 1.429 . S
C1531 C776 1.506 . S
C1546 C394 0.868 . S
C1558 C766 0.603 . S
C1585 C767 1.135 . S
C1573 C483 1.068 . S
C1612 C789 1.405 . S
C1600 C574 1.276 . S
C1627 C154 0.932 . S
C1639 C792 0.440 . S
C1666 C775 1.191 . S
C1654 C242 1.148 . S
C1681 C310 1.265 . S
C1693 C765 1.443 . S
C1708 C63 1.498 . S
C1720 C783 1.541 . S
C1735 C646 1.415 . S
C1747 C796 1.423 . S
C1774 C845 1.489 . S
C1762 C403 1.562 . S
C1789 C476 2.551 . S
C1801 C823 2.609 . S
C1816 C567 1.099 . S
C1828 C837 1.013 . S
C1855 C798 1.041 . S
C1843 C147 1.081 . S
C1870 C226 1.376 . S
C1882 C851 1.412 . S
C1909 C807 1.481 . S
C1897 C319 1.533 . S
C1936 C828 2.575 . S
C1924 C56 2.515 . S
C1963 C854 2.613 . S
C1951 C655 2.499 . S
C1978 C140 1.585 . S
C1990 C838 1.545 . S
C2005 C235 2.494 . S
C2017 C797 2.616 . S
C2044 C829 0.994 . S
C2032 C326 1.093 . S
C2059 C70 1.392 . S
C2071 C820 1.477 . S
C2086 C490 1.460 . S
C2098 C827 1.435 . S
C2125 C814 1.480 . S
C2113 C560 1.535 . S
C2152 C806 1.099 . S
C2140 C410 1.045 . S
