# Generated by pormake.
# Topology anh, (6,3)-cn, num edge types: 1
# Building blocks:
#     Node 0, Type 0, BuildingBlock: PAMTUU_clean_sbu_0, # of connection points: 6
#     Node 1, Type 0, BuildingBlock: PAMTUU_clean_sbu_0, # of connection points: 6
#     Node 2, Type 0, BuildingBlock: PAMTUU_clean_sbu_0, # of connection points: 6
#     Node 3, Type 1, BuildingBlock: OLANEW_clean_sbu_2, # of connection points: 3
#     Node 4, Type 1, BuildingBlock: OLANEW_clean_sbu_2, # of connection points: 3
#     Node 5, Type 1, BuildingBlock: OLANEW_clean_sbu_2, # of connection points: 3
#     Node 6, Type 1, BuildingBlock: OLANEW_clean_sbu_2, # of connection points: 3
#     Node 7, Type 1, BuildingBlock: OLANEW_clean_sbu_2, # of connection points: 3
#     Node 8, Type 1, BuildingBlock: OLANEW_clean_sbu_2, # of connection points: 3
#     Edge 9, Type (0, 1), BuildingBlock: EZIPEK_clean_linker_0, # of connection points: 2
#     Edge 10, Type (0, 1), BuildingBlock: EZIPEK_clean_linker_0, # of connection points: 2
#     Edge 11, Type (0, 1), BuildingBlock: EZIPEK_clean_linker_0, # of connection points: 2
#     Edge 12, Type (0, 1), BuildingBlock: EZIPEK_clean_linker_0, # of connection points: 2
#     Edge 13, Type (0, 1), BuildingBlock: EZIPEK_clean_linker_0, # of connection points: 2
#     Edge 14, Type (0, 1), BuildingBlock: EZIPEK_clean_linker_0, # of connection points: 2
#     Edge 15, Type (0, 1), BuildingBlock: EZIPEK_clean_linker_0, # of connection points: 2
#     Edge 16, Type (0, 1), BuildingBlock: EZIPEK_clean_linker_0, # of connection points: 2
#     Edge 17, Type (0, 1), BuildingBlock: EZIPEK_clean_linker_0, # of connection points: 2
#     Edge 18, Type (0, 1), BuildingBlock: EZIPEK_clean_linker_0, # of connection points: 2
#     Edge 19, Type (0, 1), BuildingBlock: EZIPEK_clean_linker_0, # of connection points: 2
#     Edge 20, Type (0, 1), BuildingBlock: EZIPEK_clean_linker_0, # of connection points: 2
#     Edge 21, Type (0, 1), BuildingBlock: EZIPEK_clean_linker_0, # of connection points: 2
#     Edge 22, Type (0, 1), BuildingBlock: EZIPEK_clean_linker_0, # of connection points: 2
#     Edge 23, Type (0, 1), BuildingBlock: EZIPEK_clean_linker_0, # of connection points: 2
#     Edge 24, Type (0, 1), BuildingBlock: EZIPEK_clean_linker_0, # of connection points: 2
#     Edge 25, Type (0, 1), BuildingBlock: EZIPEK_clean_linker_0, # of connection points: 2
#     Edge 26, Type (0, 1), BuildingBlock: EZIPEK_clean_linker_0, # of connection points: 2
# Relax obj value: 0.345
# Max RMSD: 0.146
# Mean RMSD: 0.120
data_MOF--net-anh--node1-PAMTUU_clean_sbu_0--node2-OLANEW_clean_sbu_2--edge1-EZIPEK_clean_linker_0
_symmetry_space_group_name_H-M    P1
_symmetry_Int_Tables_number       1
_symmetry_cell_setting            triclinic
loop_
_symmetry_equiv_pos_as_xyz
'x, y, z'
_cell_length_a     28.94095
_cell_length_b     28.975059
_cell_length_c     37.885929
_cell_angle_alpha  93.045591
_cell_angle_beta   90.927968
_cell_angle_gamma 119.86986
loop_
_atom_site_label
_atom_site_type_symbol
_atom_site_fract_x
_atom_site_fract_y
_atom_site_fract_z
_atom_type_partial_charge
Tb0 Tb 0.02928 0.59721 0.16787 0.0
Tb1 Tb 0.09358 0.53219 0.16191 0.0
C2 C 0.05392 0.56239 0.09442 0.0
C3 C 0.915 0.6181 0.1682 0.0
C4 C 0.8031 0.55765 0.16373 0.0
C5 C 0.8324 0.55798 0.13455 0.0
C6 C 0.88799 0.58776 0.13677 0.0
C7 C 0.88538 0.61961 0.19683 0.0
C8 C 0.82973 0.58914 0.19475 0.0
C9 C 0.97303 0.64091 0.17362 0.0
O10 O 0.96858 0.51451 0.17706 0.0
O11 O 1.00947 0.46772 0.1576 0.0
O12 O 0.06545 0.52512 0.21523 0.0
O13 O 0.06573 0.60396 0.21983 0.0
O14 O 0.11402 0.48268 0.13145 0.0
O15 O 0.14539 0.51048 0.18522 0.0
O16 O 0.15554 0.61489 0.17782 0.0
O17 O 0.11272 0.66101 0.16387 0.0
O18 O 1.01686 0.56399 0.11304 0.0
O19 O 0.09483 0.5629 0.11026 0.0
C20 C 0.96724 0.46883 0.16932 0.0
O21 O 0.98673 0.62248 0.19994 0.0
O22 O 1.00007 0.64346 0.14579 0.0
C23 C 0.0663 0.56441 0.23446 0.0
C24 C 0.20249 0.50407 0.14459 0.0
C25 C 0.30695 0.53603 0.1256 0.0
C26 C 0.29388 0.57429 0.1381 0.0
C27 C 0.24181 0.55839 0.14744 0.0
C28 C 0.21546 0.46605 0.13149 0.0
C29 C 0.26745 0.48195 0.12201 0.0
C30 C 0.14833 0.48673 0.15588 0.0
C31 C 0.15632 0.66026 0.17387 0.0
H32 H 0.81226 0.53341 0.11054 0.0
H33 H 0.90968 0.58504 0.11448 0.0
H34 H 0.90544 0.64218 0.22145 0.0
H35 H 0.80753 0.58888 0.21756 0.0
H36 H 0.32407 0.61614 0.14108 0.0
H37 H 0.23245 0.58831 0.15745 0.0
H38 H 0.18558 0.42406 0.12906 0.0
H39 H 0.27719 0.45205 0.11247 0.0
Tb40 Tb 0.48713 0.99716 0.49002 0.0
Tb41 Tb 0.61607 0.05623 0.49799 0.0
C42 C 0.5568 0.03736 0.42349 0.0
C43 C 0.34881 0.89912 0.50195 0.0
C44 C 0.28481 0.79787 0.52619 0.0
C45 C 0.26691 0.8143 0.49738 0.0
C46 C 0.29881 0.86474 0.48529 0.0
C47 C 0.36532 0.88407 0.53226 0.0
C48 C 0.33319 0.8336 0.54451 0.0
C49 C 0.38687 0.94594 0.48432 0.0
O50 O 0.50412 0.93597 0.50853 0.0
O51 O 0.59083 0.9707 0.49294 0.0
O52 O 0.5914 0.03432 0.5511 0.0
O53 O 0.50439 0.01611 0.54659 0.0
O54 O 0.68816 0.07327 0.47517 0.0
O55 O 0.68719 0.10292 0.52846 0.0
O56 O 0.59778 0.1202 0.5107 0.0
O57 O 0.51221 0.08195 0.48642 0.0
O58 O 0.5135 0.99909 0.43606 0.0
O59 O 0.5976 0.07045 0.44473 0.0
C60 C 0.54681 0.93126 0.50448 0.0
O61 O 0.41406 0.98983 0.50438 0.0
O62 O 0.41723 0.93711 0.46332 0.0
C63 C 0.54697 0.02534 0.56528 0.0
C64 C 0.75159 0.16216 0.49331 0.0
C65 C 0.80645 0.2724 0.48724 0.0
C66 C 0.82516 0.25011 0.51173 0.0
C67 C 0.79757 0.19506 0.51488 0.0
C68 C 0.73433 0.18458 0.4679 0.0
C69 C 0.76162 0.2394 0.4649 0.0
C70 C 0.71626 0.10703 0.5017 0.0
C71 C 0.55558 0.1236 0.50125 0.0
H72 H 0.22957 0.78688 0.48303 0.0
H73 H 0.28588 0.87563 0.46171 0.0
H74 H 0.40428 0.91006 0.54514 0.0
H75 H 0.34747 0.8212 0.56667 0.0
H76 H 0.86015 0.27543 0.52887 0.0
H77 H 0.81075 0.17844 0.53505 0.0
H78 H 0.6985 0.16 0.45133 0.0
H79 H 0.74738 0.25627 0.44557 0.0
Tb80 Tb 0.51372 0.47443 0.82332 0.0
Tb81 Tb 0.58083 0.60374 0.83317 0.0
C82 C 0.54675 0.54126 0.75794 0.0
C83 C 0.48582 0.33989 0.83579 0.0
C84 C 0.53347 0.28429 0.86268 0.0
C85 C 0.50969 0.27095 0.82834 0.0
C86 C 0.48594 0.29853 0.81498 0.0
C87 C 0.50795 0.35189 0.87075 0.0
C88 C 0.5313 0.32392 0.88421 0.0
C89 C 0.46901 0.37442 0.81943 0.0
O90 O 0.59866 0.4954 0.82347 0.0
O91 O 0.64205 0.58296 0.84597 0.0
O92 O 0.55642 0.58025 0.88635 0.0
O93 O 0.54173 0.49488 0.87814 0.0
O94 O 0.60045 0.67294 0.80766 0.0
O95 O 0.63371 0.67785 0.86001 0.0
O96 O 0.49733 0.58512 0.83651 0.0
O97 O 0.45021 0.49323 0.83285 0.0
O98 O 0.50617 0.50275 0.77258 0.0
O99 O 0.58694 0.57779 0.77838 0.0
C100 C 0.64179 0.53802 0.83796 0.0
O101 O 0.45524 0.40156 0.84104 0.0
O102 O 0.50026 0.4038 0.79559 0.0
C103 C 0.5491 0.53584 0.89875 0.0
C104 C 0.61009 0.74216 0.84637 0.0
C105 C 0.56437 0.80733 0.8537 0.0
C106 C 0.61237 0.82508 0.8366 0.0
C107 C 0.63513 0.79263 0.83295 0.0
C108 C 0.5636 0.72554 0.86526 0.0
C109 C 0.5409 0.75817 0.86906 0.0
C110 C 0.62727 0.70413 0.83534 0.0
C111 C 0.4521 0.53952 0.83778 0.0
H112 H 0.51099 0.24022 0.81151 0.0
H113 H 0.46958 0.28904 0.78794 0.0
H114 H 0.50898 0.38411 0.88725 0.0
H115 H 0.5495 0.33455 0.91077 0.0
H116 H 0.63071 0.86292 0.82453 0.0
H117 H 0.67058 0.80566 0.81794 0.0
H118 H 0.54339 0.68628 0.87537 0.0
H119 H 0.50363 0.74392 0.88211 0.0
O120 O 0.62172 0.11849 0.26605 0.0
Cd121 Cd 0.6704 0.17225 0.21189 0.0
O122 O 0.54666 0.044 0.24666 0.0
Cd123 Cd 0.46568 0.96488 0.24099 0.0
O124 O 0.38221 0.89458 0.22195 0.0
C125 C 0.36697 0.84453 0.21871 0.0
O126 O 0.40151 0.82939 0.22672 0.0
C127 C 0.57901 0.07464 0.27237 0.0
C128 C 0.76971 0.2721 0.2031 0.0
O129 O 0.72571 0.27135 0.20875 0.0
O130 O 0.76848 0.22726 0.20404 0.0
O131 O 0.5572 0.48559 0.59213 0.0
Cd132 Cd 0.56429 0.43131 0.53795 0.0
O133 O 0.55336 0.55822 0.57959 0.0
Cd134 Cd 0.54935 0.63587 0.57436 0.0
O135 O 0.55723 0.71297 0.55228 0.0
C136 C 0.52647 0.73295 0.55612 0.0
O137 O 0.48423 0.70826 0.57492 0.0
C138 C 0.5535 0.52683 0.60256 0.0
C139 C 0.56113 0.32898 0.53225 0.0
O140 O 0.60497 0.37311 0.53898 0.0
O141 O 0.51836 0.33194 0.53053 0.0
O142 O 0.10379 0.55047 0.93254 0.0
Cd143 Cd 0.15657 0.5492 0.87792 0.0
O144 O 0.028 0.54837 0.91591 0.0
Cd145 Cd 0.94668 0.54613 0.91142 0.0
O146 O 0.86887 0.54865 0.89916 0.0
C147 C 0.83884 0.5304 0.87059 0.0
O148 O 0.85201 0.50745 0.84498 0.0
C149 C 0.06031 0.55008 0.94054 0.0
C150 C 0.25623 0.54788 0.87082 0.0
O151 O 0.25544 0.59179 0.87448 0.0
O152 O 0.2114 0.5048 0.87293 0.0
O153 O 0.05215 0.52724 0.40386 0.0
Cd154 Cd 0.0362 0.51204 0.4668 0.0
O155 O 0.03782 0.59531 0.40031 0.0
Cd156 Cd 1.01053 0.59078 0.45385 0.0
O157 O 0.95513 0.52719 0.48479 0.0
C158 C 0.90941 0.49765 0.46963 0.0
O159 O 0.89673 0.51313 0.44088 0.0
C160 C 0.05047 0.56257 0.38611 0.0
C161 C 0.12508 0.58897 0.50598 0.0
O162 O 0.11934 0.54259 0.49908 0.0
O163 O 0.08732 0.59719 0.49645 0.0
O164 O 0.51427 0.0412 0.73397 0.0
Cd165 Cd 0.50347 0.04688 0.79802 0.0
O166 O 0.59595 0.05276 0.73447 0.0
Cd167 Cd 0.61019 0.08017 0.78991 0.0
O168 O 0.59849 0.13245 0.82694 0.0
C169 C 0.62156 0.15403 0.85687 0.0
O170 O 0.65836 0.14521 0.87025 0.0
C171 C 0.553 0.04233 0.71776 0.0
C172 C 0.50278 0.96029 0.82649 0.0
O173 O 0.45909 0.95638 0.81481 0.0
O174 O 0.54561 1.00548 0.82668 0.0
O175 O 0.51318 0.39066 0.02117 0.0
Cd176 Cd 0.5065 0.33988 0.07221 0.0
O177 O 0.56172 0.46296 0.05611 0.0
Cd178 Cd 0.59471 0.54894 0.06338 0.0
O179 O 0.54592 0.58418 0.07731 0.0
C180 C 0.50357 0.54982 0.09077 0.0
O181 O 0.49731 0.50266 0.09607 0.0
C182 C 0.53977 0.44119 0.02598 0.0
C183 C 0.59077 0.40757 0.11937 0.0
O184 O 0.59643 0.37993 0.09408 0.0
O185 O 0.54411 0.4009 0.12393 0.0
C186 C 0.37962 0.56244 0.08289 0.0
C187 C 0.36264 0.55169 0.11789 0.0
C188 C 0.44782 0.5595 0.13634 0.0
C189 C 0.46078 0.56106 0.1004 0.0
N190 N 0.44056 0.56458 0.03892 0.0
N191 N 0.37935 0.54024 0.17846 0.0
C192 C 0.42767 0.56383 0.07353 0.0
C193 C 0.39676 0.55108 0.14494 0.0
N194 N 0.34958 0.57105 0.05875 0.0
N195 N 0.48484 0.56664 0.16214 0.0
H196 H 0.34299 0.53592 0.18605 0.0
H197 H 0.39948 0.53275 0.19835 0.0
H198 H 0.52283 0.57352 0.15638 0.0
H199 H 0.48002 0.57068 0.18908 0.0
H200 H 0.36199 0.58404 0.03373 0.0
H201 H 0.31372 0.5693 0.06478 0.0
H202 H 0.41497 0.5598 0.01767 0.0
H203 H 0.47623 0.56742 0.03117 0.0
C204 C 0.8715 0.35229 0.45751 0.0
C205 C 0.83426 0.33051 0.48412 0.0
C206 C 0.84351 0.41797 0.50019 0.0
C207 C 0.88266 0.44013 0.47473 0.0
N208 N 0.93832 0.43104 0.43137 0.0
N209 N 0.78675 0.34092 0.53276 0.0
C210 C 0.89779 0.40795 0.45397 0.0
C211 C 0.82082 0.36292 0.50612 0.0
N212 N 0.88058 0.31937 0.43501 0.0
N213 N 0.82723 0.44938 0.51784 0.0
H214 H 0.76813 0.3004 0.53704 0.0
H215 H 0.77892 0.36285 0.55192 0.0
H216 H 0.84393 0.49001 0.51432 0.0
H217 H 0.79529 0.43509 0.53434 0.0
H218 H 0.90171 0.33142 0.41215 0.0
H219 H 0.86433 0.27866 0.43794 0.0
H220 H 0.95634 0.41156 0.41902 0.0
H221 H 0.9565 0.47122 0.4265 0.0
C222 C 0.54768 0.88002 0.87722 0.0
C223 C 0.5363 0.83805 0.85147 0.0
C224 C 0.49321 0.87048 0.81164 0.0
C225 C 0.50556 0.91337 0.83707 0.0
N226 N 0.53129 0.95147 0.89703 0.0
N227 N 0.48546 0.78391 0.79932 0.0
C228 C 0.52845 0.91558 0.87095 0.0
C229 C 0.50436 0.82998 0.82051 0.0
N230 N 0.57857 0.88699 0.90689 0.0
N231 N 0.47508 0.87056 0.77807 0.0
H232 H 0.49383 0.75382 0.80472 0.0
H233 H 0.4575 0.77329 0.77837 0.0
H234 H 0.46686 0.89957 0.76992 0.0
H235 H 0.47208 0.84402 0.75731 0.0
H236 H 0.59364 0.92037 0.92473 0.0
H237 H 0.59129 0.86018 0.9128 0.0
H238 H 0.54344 0.95233 0.92319 0.0
H239 H 0.51667 0.97738 0.89313 0.0
C240 C 0.72536 0.46552 0.16582 0.0
C241 C 0.74477 0.52058 0.16223 0.0
C242 C 0.65576 0.50206 0.14258 0.0
C243 C 0.6381 0.44654 0.14192 0.0
N244 N 0.64882 0.37567 0.16322 0.0
N245 N 0.72796 0.59323 0.15624 0.0
C246 C 0.67076 0.42843 0.15705 0.0
C247 C 0.70953 0.5395 0.15385 0.0
N248 N 0.75976 0.44892 0.17654 0.0
N249 N 0.62216 0.51889 0.13071 0.0
H250 H 0.76754 0.62147 0.16332 0.0
H251 H 0.70396 0.61025 0.15354 0.0
H252 H 0.58178 0.49325 0.12463 0.0
H253 H 0.63382 0.5583 0.12653 0.0
H254 H 0.74996 0.40918 0.17639 0.0
H255 H 0.79934 0.47542 0.18494 0.0
H256 H 0.66889 0.35958 0.1762 0.0
H257 H 0.60836 0.34839 0.15789 0.0
C258 C 0.20946 0.72171 0.55367 0.0
C259 C 0.25521 0.74097 0.53342 0.0
C260 C 0.22365 0.65235 0.50466 0.0
C261 C 0.17507 0.63417 0.52214 0.0
N262 N 0.12916 0.64443 0.57155 0.0
N263 N 0.31522 0.72288 0.50021 0.0
C264 C 0.17082 0.6666 0.54976 0.0
C265 C 0.26566 0.70533 0.51285 0.0
N266 N 0.20185 0.75668 0.57492 0.0
N267 N 0.22817 0.62128 0.47805 0.0
H268 H 0.34645 0.76193 0.5054 0.0
H269 H 0.32678 0.69768 0.48765 0.0
H270 H 0.19963 0.58164 0.4716 0.0
H271 H 0.25946 0.63557 0.46098 0.0
H272 H 0.16652 0.74643 0.58734 0.0
H273 H 0.23093 0.79689 0.57912 0.0
H274 H 0.1253 0.66484 0.59372 0.0
H275 H 0.10099 0.60376 0.56908 0.0
C276 C 0.53365 0.20572 0.88675 0.0
C277 C 0.5627 0.25774 0.87476 0.0
C278 C 0.64083 0.2475 0.86652 0.0
C279 C 0.60936 0.19331 0.87393 0.0
N280 N 0.53367 0.12462 0.90075 0.0
N281 N 0.64703 0.33389 0.86286 0.0
C282 C 0.55838 0.17395 0.88772 0.0
C283 C 0.61772 0.28078 0.86831 0.0
N284 N 0.4818 0.1862 0.89535 0.0
N285 N 0.69122 0.2656 0.85519 0.0
H286 H 0.63049 0.35865 0.86283 0.0
H287 H 0.68821 0.35444 0.86082 0.0
H288 H 0.70955 0.2424 0.85508 0.0
H289 H 0.71448 0.30267 0.84519 0.0
H290 H 0.45626 0.1469 0.90098 0.0
H291 H 0.46379 0.20972 0.89618 0.0
H292 H 0.49745 0.10832 0.91296 0.0
H293 H 0.55204 0.10145 0.90161 0.0
C294 C 0.58269 0.88229 0.54092 0.0
C295 C 0.54545 0.88037 0.51479 0.0
C296 C 0.49823 0.78137 0.51377 0.0
C297 C 0.53636 0.78339 0.5391 0.0
N298 N 0.6203 0.83617 0.572 0.0
N299 N 0.47383 0.82734 0.47159 0.0
C300 C 0.58043 0.83399 0.55089 0.0
C301 C 0.50484 0.82957 0.49998 0.0
N302 N 0.6183 0.93007 0.55818 0.0
N303 N 0.45527 0.733 0.50282 0.0
H304 H 0.47839 0.86134 0.46031 0.0
H305 H 0.4469 0.79221 0.45707 0.0
H306 H 0.45122 0.69687 0.50979 0.0
H307 H 0.42256 0.72847 0.48797 0.0
H308 H 0.64146 0.9337 0.58059 0.0
H309 H 0.62189 0.96622 0.55206 0.0
H310 H 0.65661 0.87094 0.57798 0.0
H311 H 0.61898 0.8024 0.58139 0.0
C312 C 0.69289 0.50133 0.87178 0.0
C313 C 0.69231 0.53561 0.84617 0.0
C314 C 0.78868 0.56858 0.83823 0.0
C315 C 0.78966 0.53586 0.86474 0.0
N316 N 0.74416 0.47546 0.90959 0.0
N317 N 0.74107 0.60499 0.80695 0.0
C318 C 0.74212 0.50367 0.88238 0.0
C319 C 0.74077 0.57022 0.83012 0.0
N320 N 0.64608 0.4659 0.88584 0.0
N321 N 0.83372 0.59759 0.8202 0.0
H322 H 0.70649 0.60417 0.79778 0.0
H323 H 0.77558 0.63619 0.79775 0.0
H324 H 0.8703 0.60078 0.82707 0.0
H325 H 0.83479 0.61681 0.79755 0.0
H326 H 0.64185 0.43622 0.90195 0.0
H327 H 0.60998 0.46412 0.88007 0.0
H328 H 0.71328 0.45564 0.92641 0.0
H329 H 0.77855 0.47464 0.91708 0.0
C330 C 0.25446 0.72327 0.16321 0.0
C331 C 0.2085 0.71226 0.18234 0.0
C332 C 0.26506 0.79296 0.22274 0.0
C333 C 0.31131 0.80237 0.20448 0.0
N334 N 0.34805 0.78371 0.15278 0.0
N335 N 0.17014 0.73568 0.23127 0.0
C336 C 0.30532 0.76927 0.17352 0.0
C337 C 0.21375 0.74757 0.21195 0.0
N338 N 0.24955 0.68898 0.13527 0.0
N339 N 0.27026 0.82753 0.25058 0.0
H340 H 0.13208 0.70439 0.22392 0.0
H341 H 0.17125 0.75486 0.2555 0.0
H342 H 0.30701 0.85865 0.26065 0.0
H343 H 0.23847 0.82755 0.26292 0.0
H344 H 0.28169 0.68937 0.12309 0.0
H345 H 0.21275 0.65808 0.12495 0.0
H346 H 0.3462 0.76508 0.12815 0.0
H347 H 0.38505 0.81778 0.15875 0.0
C348 C 0.59249 0.22244 0.49168 0.0
C349 C 0.5566 0.17614 0.50885 0.0
C350 C 0.52779 0.23137 0.54412 0.0
C351 C 0.56018 0.2764 0.5247 0.0
N352 N 0.616 0.31117 0.4752 0.0
N353 N 0.48617 0.13571 0.54956 0.0
C354 C 0.59082 0.27099 0.49735 0.0
C355 C 0.5229 0.18042 0.53434 0.0
N356 N 0.62847 0.22027 0.46975 0.0
N357 N 0.50387 0.2379 0.57327 0.0
H358 H 0.48367 0.0987 0.54531 0.0
H359 H 0.45595 0.1344 0.56476 0.0
H360 H 0.50734 0.27441 0.58167 0.0
H361 H 0.48471 0.20871 0.59107 0.0
H362 H 0.66013 0.25392 0.46006 0.0
H363 H 0.62893 0.18518 0.46305 0.0
H364 H 0.63382 0.30759 0.45235 0.0
H365 H 0.61478 0.34654 0.47756 0.0
C366 C 0.38496 0.57106 0.82555 0.0
C367 C 0.40099 0.54059 0.84563 0.0
C368 C 0.32503 0.51953 0.88418 0.0
C369 C 0.30696 0.54664 0.86265 0.0
N370 N 0.315 0.59017 0.80877 0.0
N371 N 0.37921 0.47811 0.89117 0.0
C372 C 0.336 0.57067 0.83243 0.0
C373 C 0.36872 0.51234 0.87389 0.0
N374 N 0.41586 0.59975 0.79914 0.0
N375 N 0.30236 0.50309 0.91583 0.0
H376 H 0.41263 0.47422 0.88742 0.0
H377 H 0.35285 0.45096 0.90812 0.0
H378 H 0.27128 0.50843 0.92467 0.0
H379 H 0.31773 0.48915 0.93494 0.0
H380 H 0.41149 0.62916 0.78743 0.0
H381 H 0.44742 0.59582 0.7897 0.0
H382 H 0.33045 0.60254 0.78421 0.0
H383 H 0.27902 0.58955 0.81207 0.0
C384 C 0.91813 0.38317 0.20235 0.0
C385 C 0.91692 0.41692 0.17657 0.0
C386 C 0.81971 0.35341 0.16622 0.0
C387 C 0.82018 0.32284 0.19444 0.0
N388 N 0.86923 0.31605 0.24386 0.0
N389 N 0.86412 0.4361 0.13646 0.0
C390 C 0.86935 0.33966 0.21353 0.0
C391 C 0.86683 0.40272 0.15952 0.0
N392 N 0.96593 0.39237 0.21651 0.0
N393 N 0.77507 0.33382 0.14425 0.0
H394 H 0.89772 0.46978 0.12841 0.0
H395 H 0.82834 0.43205 0.12672 0.0
H396 H 0.74053 0.29762 0.14734 0.0
H397 H 0.77368 0.35084 0.12102 0.0
H398 H 0.96979 0.36551 0.23177 0.0
H399 H 1.0024 0.42476 0.21104 0.0
H400 H 0.90228 0.33043 0.26143 0.0
H401 H 0.8346 0.2854 0.25352 0.0
C402 C 0.03867 0.50885 0.03623 0.0
C403 C 0.04849 0.55711 0.05466 0.0
C404 C 0.05133 0.59537 0.99733 0.0
C405 C 0.04838 0.54967 0.97912 0.0
N406 N 0.03936 0.46256 0.98101 0.0
N407 N 0.06672 0.64759 0.05329 0.0
C408 C 0.04182 0.50624 -0.0014 0.0
C409 C 0.05471 0.60047 0.03531 0.0
N410 N 0.02447 0.46479 0.05472 0.0
N411 N 0.05138 0.63417 0.97831 0.0
H412 H 0.06904 0.65259 0.08085 0.0
H413 H 0.07783 0.68282 0.04121 0.0
H414 H 0.0509 0.6327 0.95076 0.0
H415 H 0.04788 0.6658 0.98949 0.0
H416 H 1.01133 0.42678 0.0429 0.0
H417 H 1.0214 0.46514 0.08212 0.0
H418 H 0.0421 0.43283 0.99353 0.0
H419 H 0.03671 0.45697 0.95346 0.0
C420 C 0.55993 0.09045 0.37147 0.0
C421 C 0.5589 0.04469 0.38432 0.0
C422 C 0.56787 0.01627 0.32323 0.0
C423 C 0.56752 0.06135 0.31033 0.0
N424 N 0.55263 0.13542 0.32104 0.0
N425 N 0.55408 0.95989 0.37194 0.0
C426 C 0.56074 0.09684 0.33423 0.0
C427 C 0.5601 1.00618 0.35995 0.0
N428 N 0.56011 0.12804 0.39494 0.0
N429 N 0.57862 0.98467 0.30076 0.0
H430 H 0.55179 0.95247 0.39867 0.0
H431 H 0.548 0.92736 0.35535 0.0
H432 H 0.58408 0.9904 0.27388 0.0
H433 H 0.58586 0.95506 0.309 0.0
H434 H 0.56827 0.16565 0.38821 0.0
H435 H 0.55455 0.12266 0.42183 0.0
H436 H 0.54192 0.15925 0.33628 0.0
H437 H 0.55181 0.14054 0.29403 0.0
C438 C 0.52685 0.49046 0.69768 0.0
C439 C 0.54845 0.54015 0.71786 0.0
C440 C 0.5756 0.58462 0.66166 0.0
C441 C 0.54747 0.53438 0.64175 0.0
N442 N 0.47977 0.44149 0.64319 0.0
N443 N 0.58088 0.63474 0.71641 0.0
C444 C 0.5177 0.48804 0.66055 0.0
C445 C 0.56926 0.58745 0.69911 0.0
N446 N 0.51848 0.44572 0.71323 0.0
N447 N 0.61017 0.62934 0.64562 0.0
H448 H 0.57324 0.63778 0.74291 0.0
H449 H 0.59184 0.66926 0.70338 0.0
H450 H 0.61769 0.62909 0.61886 0.0
H451 H 0.63526 0.66564 0.65975 0.0
H452 H 0.50603 0.40942 0.69884 0.0
H453 H 0.53183 0.44705 0.73912 0.0
H454 H 0.45477 0.40784 0.65647 0.0
H455 H 0.46884 0.43883 0.61646 0.0
C456 C 0.52388 0.98183 0.62288 0.0
C457 C 0.54614 0.02889 0.60425 0.0
C458 C 0.57483 0.08423 0.66011 0.0
C459 C 0.55023 0.03726 0.67875 0.0
N460 N 0.49541 0.94176 0.67895 0.0
N461 N 0.58389 0.12419 0.60428 0.0
C462 C 0.52283 0.98609 0.66043 0.0
C463 C 0.56917 0.07994 0.62264 0.0
N464 N 0.50529 0.93334 0.60473 0.0
N465 N 0.60428 0.13298 0.67826 0.0
H466 H 0.58047 0.12263 0.5768 0.0
H467 H 0.59513 0.16174 0.61619 0.0
H468 H 0.60737 0.13823 0.70582 0.0
H469 H 0.62863 0.16798 0.66614 0.0
H470 H 0.49407 0.89807 0.61681 0.0
H471 H 0.50422 0.92874 0.57722 0.0
H472 H 0.46989 0.90382 0.66712 0.0
H473 H 0.49546 0.94342 0.70653 0.0
C474 C 0.59901 0.52958 0.94995 0.0
C475 C 0.55399 0.53141 0.93707 0.0
C476 C 0.50332 0.4842 0.98707 0.0
C477 C 0.54563 0.47517 0.99681 0.0
N478 N 0.63429 0.48937 0.98871 0.0
N479 N 0.4713 0.52788 0.9482 0.0
C480 C 0.59417 0.49884 0.97903 0.0
C481 C 0.5085 0.51423 0.95733 0.0
N482 N 0.6465 0.55844 0.9345 0.0
N483 N 0.45784 0.4625 0.00555 0.0
H484 H 0.47667 0.55213 0.92745 0.0
H485 H 0.43768 0.51905 0.9623 0.0
H486 H 0.45373 0.44177 0.02806 0.0
H487 H 0.42353 0.46341 -0.00173 0.0
H488 H 0.68245 0.56242 0.94374 0.0
H489 H 0.65054 0.58292 0.91419 0.0
H490 H 0.66811 0.50024 0.97433 0.0
H491 H 0.63253 0.46765 0.01024 0.0
C492 C 0.10781 0.60119 0.29549 0.0
C493 C 0.06403 0.56256 0.27336 0.0
C494 C 1.01556 0.51997 0.32533 0.0
C495 C 0.05695 0.56151 0.34751 0.0
N496 N 0.14062 0.64422 0.35447 0.0
N497 N 0.97233 0.4916 0.26705 0.0
C498 C 0.10259 0.603 0.3328 0.0
C499 C 1.01704 0.52334 0.28821 0.0
N500 N 0.15483 0.63488 0.28087 0.0
N501 N 0.97427 0.47736 0.33964 0.0
H502 H 0.97117 0.49404 0.23988 0.0
H503 H 0.93498 0.46659 0.27658 0.0
H504 H 0.96892 0.47496 0.36667 0.0
H505 H 0.94719 0.44257 0.3248 0.0
H506 H 0.18991 0.66066 0.29563 0.0
H507 H 0.16003 0.6341 0.25371 0.0
H508 H 0.17172 0.67874 0.34524 0.0
H509 H 0.13942 0.64528 0.38199 0.0
loop_
_geom_bond_atom_site_label_1
_geom_bond_atom_site_label_2
_geom_bond_distance
_geom_bond_site_symmetry_2
_ccdc_geom_bond_type
Tb0 C9 2.764 . S
Tb0 O10 2.325 . S
Tb0 O13 2.303 1_655 S
Tb0 O17 2.322 1_655 S
Tb0 O18 2.349 1_655 S
Tb0 O21 2.415 . S
Tb0 O22 2.399 . S
Tb1 O11 2.322 1_455 S
Tb1 O12 2.349 . S
Tb1 O14 2.415 . S
Tb1 O15 2.399 . S
Tb1 O16 2.325 . S
Tb1 O19 2.303 . S
Tb1 C30 2.764 . S
C2 O18 1.261 . S
C2 O19 1.257 . S
C3 C6 1.358 . S
C3 C7 1.332 . S
C3 C9 1.504 . S
C4 C5 1.373 . S
C4 C8 1.308 . S
C5 C4 1.373 . S
C5 C6 1.429 . S
C5 H32 0.932 . S
C6 C3 1.358 . S
C6 C5 1.429 . S
C6 H33 0.930 . S
C7 C3 1.332 . S
C7 C8 1.394 . S
C7 H34 0.932 . S
C8 C4 1.308 . S
C8 C7 1.394 . S
C8 H35 0.929 . S
C9 Tb0 2.764 . S
C9 C3 1.504 . S
C9 O21 1.239 . S
C9 O22 1.263 . S
O10 Tb0 2.325 . S
O10 C20 1.236 . S
O11 Tb1 2.322 1_655 S
O11 C20 1.257 . S
O12 Tb1 2.349 . S
O12 C23 1.261 . S
O13 Tb0 2.303 1_455 S
O13 C23 1.257 . S
O14 Tb1 2.415 . S
O14 C30 1.239 . S
O15 Tb1 2.399 . S
O15 C30 1.263 . S
O16 Tb1 2.325 . S
O16 C31 1.236 . S
O17 Tb0 2.322 1_455 S
O17 C31 1.257 . S
O18 Tb0 2.349 1_455 S
O18 C2 1.261 . S
O19 Tb1 2.303 . S
O19 C2 1.257 . S
C20 O10 1.236 . S
C20 O11 1.257 . S
O21 Tb0 2.415 . S
O21 C9 1.239 . S
O22 Tb0 2.399 . S
O22 C9 1.263 . S
C23 O12 1.261 . S
C23 O13 1.257 . S
C24 C27 1.358 . S
C24 C28 1.332 . S
C24 C30 1.504 . S
C25 C26 1.373 . S
C25 C29 1.308 . S
C26 C25 1.373 . S
C26 C27 1.429 . S
C26 H36 0.932 . S
C27 C24 1.358 . S
C27 C26 1.429 . S
C27 H37 0.930 . S
C28 C24 1.332 . S
C28 C29 1.394 . S
C28 H38 0.932 . S
C29 C25 1.308 . S
C29 C28 1.394 . S
C29 H39 0.929 . S
C30 Tb1 2.764 . S
C30 O14 1.239 . S
C30 O15 1.263 . S
C30 C24 1.504 . S
C31 O16 1.236 . S
C31 O17 1.257 . S
H32 C5 0.932 . S
H33 C6 0.930 . S
H34 C7 0.932 . S
H35 C8 0.929 . S
H36 C26 0.932 . S
H37 C27 0.930 . S
H38 C28 0.932 . S
H39 C29 0.929 . S
Tb40 C49 2.764 . S
Tb40 O50 2.325 . S
Tb40 O53 2.303 1_565 S
Tb40 O57 2.322 1_565 S
Tb40 O58 2.349 1_565 S
Tb40 O61 2.415 . S
Tb40 O62 2.399 . S
Tb41 O51 2.322 1_545 S
Tb41 O52 2.349 . S
Tb41 O54 2.415 . S
Tb41 O55 2.399 . S
Tb41 O56 2.325 . S
Tb41 O59 2.303 . S
Tb41 C70 2.764 . S
C42 O58 1.261 . S
C42 O59 1.257 . S
C43 C46 1.358 . S
C43 C47 1.332 . S
C43 C49 1.504 . S
C44 C45 1.373 . S
C44 C48 1.308 . S
C45 C44 1.373 . S
C45 C46 1.429 . S
C45 H72 0.932 . S
C46 C43 1.358 . S
C46 C45 1.429 . S
C46 H73 0.930 . S
C47 C43 1.332 . S
C47 C48 1.394 . S
C47 H74 0.932 . S
C48 C44 1.308 . S
C48 C47 1.394 . S
C48 H75 0.929 . S
C49 Tb40 2.764 . S
C49 C43 1.504 . S
C49 O61 1.239 . S
C49 O62 1.263 . S
O50 Tb40 2.325 . S
O50 C60 1.236 . S
O51 Tb41 2.322 1_565 S
O51 C60 1.257 . S
O52 Tb41 2.349 . S
O52 C63 1.261 . S
O53 Tb40 2.303 1_545 S
O53 C63 1.257 . S
O54 Tb41 2.415 . S
O54 C70 1.239 . S
O55 Tb41 2.399 . S
O55 C70 1.263 . S
O56 Tb41 2.325 . S
O56 C71 1.236 . S
O57 Tb40 2.322 1_545 S
O57 C71 1.257 . S
O58 Tb40 2.349 1_545 S
O58 C42 1.261 . S
O59 Tb41 2.303 . S
O59 C42 1.257 . S
C60 O50 1.236 . S
C60 O51 1.257 . S
O61 Tb40 2.415 . S
O61 C49 1.239 . S
O62 Tb40 2.399 . S
O62 C49 1.263 . S
C63 O52 1.261 . S
C63 O53 1.257 . S
C64 C67 1.358 . S
C64 C68 1.332 . S
C64 C70 1.504 . S
C65 C66 1.373 . S
C65 C69 1.308 . S
C66 C65 1.373 . S
C66 C67 1.429 . S
C66 H76 0.932 . S
C67 C64 1.358 . S
C67 C66 1.429 . S
C67 H77 0.930 . S
C68 C64 1.332 . S
C68 C69 1.394 . S
C68 H78 0.932 . S
C69 C65 1.308 . S
C69 C68 1.394 . S
C69 H79 0.929 . S
C70 Tb41 2.764 . S
C70 O54 1.239 . S
C70 O55 1.263 . S
C70 C64 1.504 . S
C71 O56 1.236 . S
C71 O57 1.257 . S
H72 C45 0.932 . S
H73 C46 0.930 . S
H74 C47 0.932 . S
H75 C48 0.929 . S
H76 C66 0.932 . S
H77 C67 0.930 . S
H78 C68 0.932 . S
H79 C69 0.929 . S
Tb80 C89 2.764 . S
Tb80 O90 2.325 . S
Tb80 O93 2.303 . S
Tb80 O97 2.322 . S
Tb80 O98 2.349 . S
Tb80 O101 2.415 . S
Tb80 O102 2.399 . S
Tb81 O91 2.322 . S
Tb81 O92 2.349 . S
Tb81 O94 2.415 . S
Tb81 O95 2.399 . S
Tb81 O96 2.325 . S
Tb81 O99 2.303 . S
Tb81 C110 2.764 . S
C82 O98 1.261 . S
C82 O99 1.257 . S
C83 C86 1.358 . S
C83 C87 1.332 . S
C83 C89 1.504 . S
C84 C85 1.373 . S
C84 C88 1.308 . S
C85 C84 1.373 . S
C85 C86 1.429 . S
C85 H112 0.932 . S
C86 C83 1.358 . S
C86 C85 1.429 . S
C86 H113 0.930 . S
C87 C83 1.332 . S
C87 C88 1.394 . S
C87 H114 0.932 . S
C88 C84 1.308 . S
C88 C87 1.394 . S
C88 H115 0.929 . S
C89 Tb80 2.764 . S
C89 C83 1.504 . S
C89 O101 1.239 . S
C89 O102 1.263 . S
O90 Tb80 2.325 . S
O90 C100 1.236 . S
O91 Tb81 2.322 . S
O91 C100 1.257 . S
O92 Tb81 2.349 . S
O92 C103 1.261 . S
O93 Tb80 2.303 . S
O93 C103 1.257 . S
O94 Tb81 2.415 . S
O94 C110 1.239 . S
O95 Tb81 2.399 . S
O95 C110 1.263 . S
O96 Tb81 2.325 . S
O96 C111 1.236 . S
O97 Tb80 2.322 . S
O97 C111 1.257 . S
O98 Tb80 2.349 . S
O98 C82 1.261 . S
O99 Tb81 2.303 . S
O99 C82 1.257 . S
C100 O90 1.236 . S
C100 O91 1.257 . S
O101 Tb80 2.415 . S
O101 C89 1.239 . S
O102 Tb80 2.399 . S
O102 C89 1.263 . S
C103 O92 1.261 . S
C103 O93 1.257 . S
C104 C107 1.358 . S
C104 C108 1.332 . S
C104 C110 1.504 . S
C105 C106 1.373 . S
C105 C109 1.308 . S
C106 C105 1.373 . S
C106 C107 1.429 . S
C106 H116 0.932 . S
C107 C104 1.358 . S
C107 C106 1.429 . S
C107 H117 0.930 . S
C108 C104 1.332 . S
C108 C109 1.394 . S
C108 H118 0.932 . S
C109 C105 1.308 . S
C109 C108 1.394 . S
C109 H119 0.929 . S
C110 Tb81 2.764 . S
C110 O94 1.239 . S
C110 O95 1.263 . S
C110 C104 1.504 . S
C111 O96 1.236 . S
C111 O97 1.257 . S
H112 C85 0.932 . S
H113 C86 0.930 . S
H114 C87 0.932 . S
H115 C88 0.929 . S
H116 C106 0.932 . S
H117 C107 0.930 . S
H118 C108 0.932 . S
H119 C109 0.929 . S
O120 Cd121 2.300 . S
O120 C127 1.275 . S
Cd121 O120 2.300 . S
Cd121 O129 2.381 . S
Cd121 O130 2.378 . S
O122 Cd123 2.385 . S
O122 C127 1.255 1_565 S
Cd123 O122 2.385 . S
Cd123 O124 2.317 . S
O124 Cd123 2.317 . S
O124 C125 1.232 . S
C125 O124 1.232 . S
C125 O126 1.218 . S
O126 C125 1.218 . S
C127 O120 1.275 . S
C127 O122 1.255 1_545 S
C128 O129 1.258 . S
C128 O130 1.256 . S
O129 Cd121 2.381 . S
O129 C128 1.258 . S
O130 Cd121 2.378 . S
O130 C128 1.256 . S
O131 Cd132 2.300 . S
O131 C138 1.275 . S
Cd132 O131 2.300 . S
Cd132 O140 2.381 . S
Cd132 O141 2.378 . S
O133 Cd134 2.385 . S
O133 C138 1.255 . S
Cd134 O133 2.385 . S
Cd134 O135 2.317 . S
O135 Cd134 2.317 . S
O135 C136 1.232 . S
C136 O135 1.232 . S
C136 O137 1.218 . S
O137 C136 1.218 . S
C138 O131 1.275 . S
C138 O133 1.255 . S
C139 O140 1.258 . S
C139 O141 1.256 . S
O140 Cd132 2.381 . S
O140 C139 1.258 . S
O141 Cd132 2.378 . S
O141 C139 1.256 . S
O142 Cd143 2.300 . S
O142 C149 1.275 . S
Cd143 O142 2.300 . S
Cd143 O151 2.381 . S
Cd143 O152 2.378 . S
O144 Cd145 2.385 1_455 S
O144 C149 1.255 . S
Cd145 O144 2.385 1_655 S
Cd145 O146 2.317 . S
O146 Cd145 2.317 . S
O146 C147 1.232 . S
C147 O146 1.232 . S
C147 O148 1.218 . S
O148 C147 1.218 . S
C149 O142 1.275 . S
C149 O144 1.255 . S
C150 O151 1.258 . S
C150 O152 1.256 . S
O151 Cd143 2.381 . S
O151 C150 1.258 . S
O152 Cd143 2.378 . S
O152 C150 1.256 . S
O153 Cd154 2.300 . S
O153 C160 1.275 1_455 S
Cd154 O153 2.300 . S
Cd154 O162 2.381 . S
Cd154 O163 2.378 . S
O155 Cd156 2.385 . S
O155 C160 1.255 . S
Cd156 O155 2.385 . S
Cd156 O157 2.317 . S
O157 Cd156 2.317 . S
O157 C158 1.232 . S
C158 O157 1.232 . S
C158 O159 1.218 . S
O159 C158 1.218 . S
C160 O153 1.275 1_655 S
C160 O155 1.255 . S
C161 O162 1.258 . S
C161 O163 1.256 . S
O162 Cd154 2.381 . S
O162 C161 1.258 . S
O163 Cd154 2.378 . S
O163 C161 1.256 . S
O164 Cd165 2.300 . S
O164 C171 1.275 1_565 S
Cd165 O164 2.300 . S
Cd165 O173 2.381 . S
Cd165 O174 2.378 . S
O166 Cd167 2.385 . S
O166 C171 1.255 . S
Cd167 O166 2.385 . S
Cd167 O168 2.317 . S
O168 Cd167 2.317 . S
O168 C169 1.232 . S
C169 O168 1.232 . S
C169 O170 1.218 . S
O170 C169 1.218 . S
C171 O164 1.275 1_545 S
C171 O166 1.255 . S
C172 O173 1.258 . S
C172 O174 1.256 . S
O173 Cd165 2.381 . S
O173 C172 1.258 . S
O174 Cd165 2.378 . S
O174 C172 1.256 . S
O175 Cd176 2.300 . S
O175 C182 1.275 . S
Cd176 O175 2.300 . S
Cd176 O184 2.381 . S
Cd176 O185 2.378 . S
O177 Cd178 2.385 . S
O177 C182 1.255 . S
Cd178 O177 2.385 . S
Cd178 O179 2.317 . S
O179 Cd178 2.317 . S
O179 C180 1.232 . S
C180 O179 1.232 . S
C180 O181 1.218 . S
O181 C180 1.218 . S
C182 O175 1.275 . S
C182 O177 1.255 . S
C183 O184 1.258 . S
C183 O185 1.256 . S
O184 Cd176 2.381 . S
O184 C183 1.258 . S
O185 Cd176 2.378 . S
O185 C183 1.256 . S
C186 C187 1.363 . S
C186 C192 1.379 . S
C186 N194 1.356 . S
C187 C186 1.363 . S
C187 C193 1.363 . S
C188 C189 1.363 . S
C188 C193 1.379 . S
C188 N195 1.356 . S
C189 C188 1.363 . S
C189 C192 1.363 . S
N190 C192 1.356 . S
N190 H202 0.984 . S
N190 H203 0.985 . S
N191 C193 1.356 . S
N191 H196 0.984 . S
N191 H197 0.985 . S
C192 C186 1.379 . S
C192 C189 1.363 . S
C192 N190 1.356 . S
C193 C187 1.363 . S
C193 C188 1.379 . S
C193 N191 1.356 . S
N194 C186 1.356 . S
N194 H200 0.984 . S
N194 H201 0.984 . S
N195 C188 1.356 . S
N195 H198 0.984 . S
N195 H199 0.985 . S
H196 N191 0.984 . S
H197 N191 0.985 . S
H198 N195 0.984 . S
H199 N195 0.985 . S
H200 N194 0.984 . S
H201 N194 0.984 . S
H202 N190 0.984 . S
H203 N190 0.985 . S
C204 C205 1.363 . S
C204 C210 1.379 . S
C204 N212 1.356 . S
C205 C204 1.363 . S
C205 C211 1.363 . S
C206 C207 1.363 . S
C206 C211 1.379 . S
C206 N213 1.356 . S
C207 C206 1.363 . S
C207 C210 1.363 . S
N208 C210 1.356 . S
N208 H220 0.984 . S
N208 H221 0.985 . S
N209 C211 1.356 . S
N209 H214 0.984 . S
N209 H215 0.985 . S
C210 C204 1.379 . S
C210 C207 1.363 . S
C210 N208 1.356 . S
C211 C205 1.363 . S
C211 C206 1.379 . S
C211 N209 1.356 . S
N212 C204 1.356 . S
N212 H218 0.984 . S
N212 H219 0.984 . S
N213 C206 1.356 . S
N213 H216 0.984 . S
N213 H217 0.985 . S
H214 N209 0.984 . S
H215 N209 0.985 . S
H216 N213 0.984 . S
H217 N213 0.985 . S
H218 N212 0.984 . S
H219 N212 0.984 . S
H220 N208 0.984 . S
H221 N208 0.985 . S
C222 C223 1.363 . S
C222 C228 1.379 . S
C222 N230 1.356 . S
C223 C222 1.363 . S
C223 C229 1.363 . S
C224 C225 1.363 . S
C224 C229 1.379 . S
C224 N231 1.356 . S
C225 C224 1.363 . S
C225 C228 1.363 . S
N226 C228 1.356 . S
N226 H238 0.984 . S
N226 H239 0.985 . S
N227 C229 1.356 . S
N227 H232 0.984 . S
N227 H233 0.985 . S
C228 C222 1.379 . S
C228 C225 1.363 . S
C228 N226 1.356 . S
C229 C223 1.363 . S
C229 C224 1.379 . S
C229 N227 1.356 . S
N230 C222 1.356 . S
N230 H236 0.984 . S
N230 H237 0.984 . S
N231 C224 1.356 . S
N231 H234 0.984 . S
N231 H235 0.985 . S
H232 N227 0.984 . S
H233 N227 0.985 . S
H234 N231 0.984 . S
H235 N231 0.985 . S
H236 N230 0.984 . S
H237 N230 0.984 . S
H238 N226 0.984 . S
H239 N226 0.985 . S
C240 C241 1.363 . S
C240 C246 1.379 . S
C240 N248 1.356 . S
C241 C240 1.363 . S
C241 C247 1.363 . S
C242 C243 1.363 . S
C242 C247 1.379 . S
C242 N249 1.356 . S
C243 C242 1.363 . S
C243 C246 1.363 . S
N244 C246 1.356 . S
N244 H256 0.984 . S
N244 H257 0.985 . S
N245 C247 1.356 . S
N245 H250 0.984 . S
N245 H251 0.985 . S
C246 C240 1.379 . S
C246 C243 1.363 . S
C246 N244 1.356 . S
C247 C241 1.363 . S
C247 C242 1.379 . S
C247 N245 1.356 . S
N248 C240 1.356 . S
N248 H254 0.984 . S
N248 H255 0.984 . S
N249 C242 1.356 . S
N249 H252 0.984 . S
N249 H253 0.985 . S
H250 N245 0.984 . S
H251 N245 0.985 . S
H252 N249 0.984 . S
H253 N249 0.985 . S
H254 N248 0.984 . S
H255 N248 0.984 . S
H256 N244 0.984 . S
H257 N244 0.985 . S
C258 C259 1.363 . S
C258 C264 1.379 . S
C258 N266 1.356 . S
C259 C258 1.363 . S
C259 C265 1.363 . S
C260 C261 1.363 . S
C260 C265 1.379 . S
C260 N267 1.356 . S
C261 C260 1.363 . S
C261 C264 1.363 . S
N262 C264 1.356 . S
N262 H274 0.984 . S
N262 H275 0.985 . S
N263 C265 1.356 . S
N263 H268 0.984 . S
N263 H269 0.985 . S
C264 C258 1.379 . S
C264 C261 1.363 . S
C264 N262 1.356 . S
C265 C259 1.363 . S
C265 C260 1.379 . S
C265 N263 1.356 . S
N266 C258 1.356 . S
N266 H272 0.984 . S
N266 H273 0.984 . S
N267 C260 1.356 . S
N267 H270 0.984 . S
N267 H271 0.985 . S
H268 N263 0.984 . S
H269 N263 0.985 . S
H270 N267 0.984 . S
H271 N267 0.985 . S
H272 N266 0.984 . S
H273 N266 0.984 . S
H274 N262 0.984 . S
H275 N262 0.985 . S
C276 C277 1.363 . S
C276 C282 1.379 . S
C276 N284 1.356 . S
C277 C276 1.363 . S
C277 C283 1.363 . S
C278 C279 1.363 . S
C278 C283 1.379 . S
C278 N285 1.356 . S
C279 C278 1.363 . S
C279 C282 1.363 . S
N280 C282 1.356 . S
N280 H292 0.984 . S
N280 H293 0.985 . S
N281 C283 1.356 . S
N281 H286 0.984 . S
N281 H287 0.985 . S
C282 C276 1.379 . S
C282 C279 1.363 . S
C282 N280 1.356 . S
C283 C277 1.363 . S
C283 C278 1.379 . S
C283 N281 1.356 . S
N284 C276 1.356 . S
N284 H290 0.984 . S
N284 H291 0.984 . S
N285 C278 1.356 . S
N285 H288 0.984 . S
N285 H289 0.985 . S
H286 N281 0.984 . S
H287 N281 0.985 . S
H288 N285 0.984 . S
H289 N285 0.985 . S
H290 N284 0.984 . S
H291 N284 0.984 . S
H292 N280 0.984 . S
H293 N280 0.985 . S
C294 C295 1.363 . S
C294 C300 1.379 . S
C294 N302 1.356 . S
C295 C294 1.363 . S
C295 C301 1.363 . S
C296 C297 1.363 . S
C296 C301 1.379 . S
C296 N303 1.356 . S
C297 C296 1.363 . S
C297 C300 1.363 . S
N298 C300 1.356 . S
N298 H310 0.984 . S
N298 H311 0.985 . S
N299 C301 1.356 . S
N299 H304 0.984 . S
N299 H305 0.985 . S
C300 C294 1.379 . S
C300 C297 1.363 . S
C300 N298 1.356 . S
C301 C295 1.363 . S
C301 C296 1.379 . S
C301 N299 1.356 . S
N302 C294 1.356 . S
N302 H308 0.984 . S
N302 H309 0.984 . S
N303 C296 1.356 . S
N303 H306 0.984 . S
N303 H307 0.985 . S
H304 N299 0.984 . S
H305 N299 0.985 . S
H306 N303 0.984 . S
H307 N303 0.985 . S
H308 N302 0.984 . S
H309 N302 0.984 . S
H310 N298 0.984 . S
H311 N298 0.985 . S
C312 C313 1.363 . S
C312 C318 1.379 . S
C312 N320 1.356 . S
C313 C312 1.363 . S
C313 C319 1.363 . S
C314 C315 1.363 . S
C314 C319 1.379 . S
C314 N321 1.356 . S
C315 C314 1.363 . S
C315 C318 1.363 . S
N316 C318 1.356 . S
N316 H328 0.984 . S
N316 H329 0.985 . S
N317 C319 1.356 . S
N317 H322 0.984 . S
N317 H323 0.985 . S
C318 C312 1.379 . S
C318 C315 1.363 . S
C318 N316 1.356 . S
C319 C313 1.363 . S
C319 C314 1.379 . S
C319 N317 1.356 . S
N320 C312 1.356 . S
N320 H326 0.984 . S
N320 H327 0.984 . S
N321 C314 1.356 . S
N321 H324 0.984 . S
N321 H325 0.985 . S
H322 N317 0.984 . S
H323 N317 0.985 . S
H324 N321 0.984 . S
H325 N321 0.985 . S
H326 N320 0.984 . S
H327 N320 0.984 . S
H328 N316 0.984 . S
H329 N316 0.985 . S
C330 C331 1.363 . S
C330 C336 1.379 . S
C330 N338 1.356 . S
C331 C330 1.363 . S
C331 C337 1.363 . S
C332 C333 1.363 . S
C332 C337 1.379 . S
C332 N339 1.356 . S
C333 C332 1.363 . S
C333 C336 1.363 . S
N334 C336 1.356 . S
N334 H346 0.984 . S
N334 H347 0.985 . S
N335 C337 1.356 . S
N335 H340 0.984 . S
N335 H341 0.985 . S
C336 C330 1.379 . S
C336 C333 1.363 . S
C336 N334 1.356 . S
C337 C331 1.363 . S
C337 C332 1.379 . S
C337 N335 1.356 . S
N338 C330 1.356 . S
N338 H344 0.984 . S
N338 H345 0.984 . S
N339 C332 1.356 . S
N339 H342 0.984 . S
N339 H343 0.985 . S
H340 N335 0.984 . S
H341 N335 0.985 . S
H342 N339 0.984 . S
H343 N339 0.985 . S
H344 N338 0.984 . S
H345 N338 0.984 . S
H346 N334 0.984 . S
H347 N334 0.985 . S
C348 C349 1.363 . S
C348 C354 1.379 . S
C348 N356 1.356 . S
C349 C348 1.363 . S
C349 C355 1.363 . S
C350 C351 1.363 . S
C350 C355 1.379 . S
C350 N357 1.356 . S
C351 C350 1.363 . S
C351 C354 1.363 . S
N352 C354 1.356 . S
N352 H364 0.984 . S
N352 H365 0.985 . S
N353 C355 1.356 . S
N353 H358 0.984 . S
N353 H359 0.985 . S
C354 C348 1.379 . S
C354 C351 1.363 . S
C354 N352 1.356 . S
C355 C349 1.363 . S
C355 C350 1.379 . S
C355 N353 1.356 . S
N356 C348 1.356 . S
N356 H362 0.984 . S
N356 H363 0.984 . S
N357 C350 1.356 . S
N357 H360 0.984 . S
N357 H361 0.985 . S
H358 N353 0.984 . S
H359 N353 0.985 . S
H360 N357 0.984 . S
H361 N357 0.985 . S
H362 N356 0.984 . S
H363 N356 0.984 . S
H364 N352 0.984 . S
H365 N352 0.985 . S
C366 C367 1.363 . S
C366 C372 1.379 . S
C366 N374 1.356 . S
C367 C366 1.363 . S
C367 C373 1.363 . S
C368 C369 1.363 . S
C368 C373 1.379 . S
C368 N375 1.356 . S
C369 C368 1.363 . S
C369 C372 1.363 . S
N370 C372 1.356 . S
N370 H382 0.984 . S
N370 H383 0.985 . S
N371 C373 1.356 . S
N371 H376 0.984 . S
N371 H377 0.985 . S
C372 C366 1.379 . S
C372 C369 1.363 . S
C372 N370 1.356 . S
C373 C367 1.363 . S
C373 C368 1.379 . S
C373 N371 1.356 . S
N374 C366 1.356 . S
N374 H380 0.984 . S
N374 H381 0.984 . S
N375 C368 1.356 . S
N375 H378 0.984 . S
N375 H379 0.985 . S
H376 N371 0.984 . S
H377 N371 0.985 . S
H378 N375 0.984 . S
H379 N375 0.985 . S
H380 N374 0.984 . S
H381 N374 0.984 . S
H382 N370 0.984 . S
H383 N370 0.985 . S
C384 C385 1.363 . S
C384 C390 1.379 . S
C384 N392 1.356 . S
C385 C384 1.363 . S
C385 C391 1.363 . S
C386 C387 1.363 . S
C386 C391 1.379 . S
C386 N393 1.356 . S
C387 C386 1.363 . S
C387 C390 1.363 . S
N388 C390 1.356 . S
N388 H400 0.984 . S
N388 H401 0.985 . S
N389 C391 1.356 . S
N389 H394 0.984 . S
N389 H395 0.985 . S
C390 C384 1.379 . S
C390 C387 1.363 . S
C390 N388 1.356 . S
C391 C385 1.363 . S
C391 C386 1.379 . S
C391 N389 1.356 . S
N392 C384 1.356 . S
N392 H398 0.984 . S
N392 H399 0.984 . S
N393 C386 1.356 . S
N393 H396 0.984 . S
N393 H397 0.985 . S
H394 N389 0.984 . S
H395 N389 0.985 . S
H396 N393 0.984 . S
H397 N393 0.985 . S
H398 N392 0.984 . S
H399 N392 0.984 . S
H400 N388 0.984 . S
H401 N388 0.985 . S
C402 C403 1.363 . S
C402 C408 1.379 . S
C402 N410 1.356 . S
C403 C402 1.363 . S
C403 C409 1.363 . S
C404 C405 1.363 1_554 S
C404 C409 1.379 . S
C404 N411 1.341 1_554 S
C405 C404 1.363 1_556 S
C405 C408 1.363 1_556 S
N406 C408 1.356 1_556 S
N406 H418 0.984 . S
N406 H419 0.985 . S
N407 C409 1.356 . S
N407 H412 0.984 . S
N407 H413 0.985 . S
C408 C402 1.379 . S
C408 C405 1.363 1_554 S
C408 N406 1.356 1_554 S
C409 C403 1.363 . S
C409 C404 1.379 . S
C409 N407 1.356 . S
N410 C402 1.356 . S
N410 H416 0.984 . S
N410 H417 0.984 . S
N411 C404 1.341 1_556 S
N411 H414 1.009 . S
N411 H415 0.975 1_556 S
H412 N407 0.984 . S
H413 N407 0.985 . S
H414 N411 1.009 . S
H415 N411 0.975 1_554 S
H416 N410 0.984 . S
H417 N410 0.984 . S
H418 N406 0.984 . S
H419 N406 0.985 . S
C420 C421 1.363 . S
C420 C426 1.379 . S
C420 N428 1.356 . S
C421 C420 1.363 . S
C421 C427 1.363 . S
C422 C423 1.363 1_565 S
C422 C427 1.379 1_565 S
C422 N429 1.356 . S
C423 C422 1.363 1_545 S
C423 C426 1.363 . S
N424 C426 1.356 . S
N424 H436 0.984 . S
N424 H437 0.985 . S
N425 C427 1.356 1_565 S
N425 H430 0.984 . S
N425 H431 0.985 . S
C426 C420 1.379 . S
C426 C423 1.363 . S
C426 N424 1.356 . S
C427 C421 1.363 . S
C427 C422 1.379 1_545 S
C427 N425 1.356 1_545 S
N428 C420 1.356 . S
N428 H434 0.984 . S
N428 H435 0.984 . S
N429 C422 1.356 . S
N429 H432 0.984 . S
N429 H433 0.985 . S
H430 N425 0.984 . S
H431 N425 0.985 . S
H432 N429 0.984 . S
H433 N429 0.985 . S
H434 N428 0.984 . S
H435 N428 0.984 . S
H436 N424 0.984 . S
H437 N424 0.985 . S
C438 C439 1.363 . S
C438 C444 1.379 . S
C438 N446 1.356 . S
C439 C438 1.363 . S
C439 C445 1.363 . S
C440 C441 1.363 . S
C440 C445 1.379 . S
C440 N447 1.356 . S
C441 C440 1.363 . S
C441 C444 1.363 . S
N442 C444 1.356 . S
N442 H454 0.984 . S
N442 H455 0.985 . S
N443 C445 1.356 . S
N443 H448 0.984 . S
N443 H449 0.985 . S
C444 C438 1.379 . S
C444 C441 1.363 . S
C444 N442 1.356 . S
C445 C439 1.363 . S
C445 C440 1.379 . S
C445 N443 1.356 . S
N446 C438 1.356 . S
N446 H452 0.984 . S
N446 H453 0.984 . S
N447 C440 1.356 . S
N447 H450 0.984 . S
N447 H451 0.985 . S
H448 N443 0.984 . S
H449 N443 0.985 . S
H450 N447 0.984 . S
H451 N447 0.985 . S
H452 N446 0.984 . S
H453 N446 0.984 . S
H454 N442 0.984 . S
H455 N442 0.985 . S
C456 C457 1.363 1_565 S
C456 C462 1.379 . S
C456 N464 1.356 . S
C457 C456 1.363 1_545 S
C457 C463 1.363 . S
C458 C459 1.363 . S
C458 C463 1.379 . S
C458 N465 1.356 . S
C459 C458 1.363 . S
C459 C462 1.363 1_545 S
N460 C462 1.356 . S
N460 H472 0.984 . S
N460 H473 0.985 . S
N461 C463 1.356 . S
N461 H466 0.984 . S
N461 H467 0.985 . S
C462 C456 1.379 . S
C462 C459 1.363 1_565 S
C462 N460 1.356 . S
C463 C457 1.363 . S
C463 C458 1.379 . S
C463 N461 1.356 . S
N464 C456 1.356 . S
N464 H470 0.984 . S
N464 H471 0.984 . S
N465 C458 1.356 . S
N465 H468 0.984 . S
N465 H469 0.985 . S
H466 N461 0.984 . S
H467 N461 0.985 . S
H468 N465 0.984 . S
H469 N465 0.985 . S
H470 N464 0.984 . S
H471 N464 0.984 . S
H472 N460 0.984 . S
H473 N460 0.985 . S
C474 C475 1.363 . S
C474 C480 1.379 1_556 S
C474 N482 1.356 . S
C475 C474 1.363 . S
C475 C481 1.363 . S
C476 C477 1.363 1_556 S
C476 C481 1.379 . S
C476 N483 1.368 . S
C477 C476 1.363 1_554 S
C477 C480 1.363 . S
N478 C480 1.356 . S
N478 H490 0.984 . S
N478 H491 0.985 . S
N479 C481 1.356 . S
N479 H484 0.984 . S
N479 H485 0.985 . S
C480 C474 1.379 1_554 S
C480 C477 1.363 . S
C480 N478 1.356 . S
C481 C475 1.363 . S
C481 C476 1.379 . S
C481 N479 1.356 . S
N482 C474 1.356 . S
N482 H488 0.984 . S
N482 H489 0.984 . S
N483 C476 1.368 . S
N483 H486 0.961 1_556 S
N483 H487 0.997 . S
H484 N479 0.984 . S
H485 N479 0.985 . S
H486 N483 0.961 1_554 S
H487 N483 0.997 . S
H488 N482 0.984 . S
H489 N482 0.984 . S
H490 N478 0.984 . S
H491 N478 0.985 . S
C492 C493 1.363 . S
C492 C498 1.379 . S
C492 N500 1.356 . S
C493 C492 1.363 . S
C493 C499 1.363 1_455 S
C494 C495 1.363 . S
C494 C499 1.379 . S
C494 N501 1.356 . S
C495 C494 1.363 . S
C495 C498 1.363 1_655 S
N496 C498 1.356 . S
N496 H508 0.984 . S
N496 H509 0.985 . S
N497 C499 1.356 . S
N497 H502 0.984 . S
N497 H503 0.985 . S
C498 C492 1.379 . S
C498 C495 1.363 1_455 S
C498 N496 1.356 . S
C499 C493 1.363 1_655 S
C499 C494 1.379 . S
C499 N497 1.356 . S
N500 C492 1.356 . S
N500 H506 0.984 . S
N500 H507 0.984 . S
N501 C494 1.356 . S
N501 H504 0.984 . S
N501 H505 0.985 . S
H502 N497 0.984 . S
H503 N497 0.985 . S
H504 N501 0.984 . S
H505 N501 0.985 . S
H506 N500 0.984 . S
H507 N500 0.984 . S
H508 N496 0.984 . S
H509 N496 0.985 . S
C187 C25 0.676 . S
C189 C180 0.739 . S
C205 C65 0.675 . S
C207 C158 0.634 . S
C223 C105 0.663 . S
C225 C172 0.612 . S
C241 C4 0.668 . S
C243 C183 0.625 . S
C261 C161 0.381 . S
C259 C44 0.526 . S
C279 C169 0.736 . S
C277 C84 0.698 . S
C295 C60 3.165 . S
C297 C136 2.830 . S
C313 C100 3.258 . S
C315 C147 2.889 . S
C331 C31 3.250 . S
C333 C125 2.880 . S
C351 C139 2.955 . S
C349 C71 3.052 . S
C369 C150 2.856 . S
C367 C111 2.936 . S
C385 C20 2.936 . S
C387 C128 2.856 . S
C405 C149 1.713 . S
C403 C2 1.721 . S
C421 C42 1.719 . S
C423 C127 1.709 . S
C439 C82 1.786 . S
C441 C138 1.717 . S
C459 C171 1.042 . S
C457 C63 1.091 . S
C477 C182 1.076 . S
C475 C103 1.162 . S
C493 C23 1.144 . S
C495 C160 1.095 . S
