# Generated by pormake.
# Topology ssa, (4,4)-cn, num edge types: 1
# Building blocks:
#     Node 0, Type 0, BuildingBlock: NAWXER_clean_sbu_0, # of connection points: 4
#     Node 1, Type 0, BuildingBlock: NAWXER_clean_sbu_0, # of connection points: 4
#     Node 2, Type 0, BuildingBlock: NAWXER_clean_sbu_0, # of connection points: 4
#     Node 3, Type 0, BuildingBlock: NAWXER_clean_sbu_0, # of connection points: 4
#     Node 4, Type 0, BuildingBlock: NAWXER_clean_sbu_0, # of connection points: 4
#     Node 5, Type 0, BuildingBlock: NAWXER_clean_sbu_0, # of connection points: 4
#     Node 6, Type 1, BuildingBlock: MUDLON_clean_sbu_0, # of connection points: 4
#     Node 7, Type 1, BuildingBlock: MUDLON_clean_sbu_0, # of connection points: 4
#     Node 8, Type 1, BuildingBlock: MUDLON_clean_sbu_0, # of connection points: 4
#     Node 9, Type 1, BuildingBlock: MUDLON_clean_sbu_0, # of connection points: 4
#     Node 10, Type 1, BuildingBlock: MUDLON_clean_sbu_0, # of connection points: 4
#     Node 11, Type 1, BuildingBlock: MUDLON_clean_sbu_0, # of connection points: 4
#     Edge 12, Type (0, 1), BuildingBlock: AJUNOK_clean_linker_0, # of connection points: 2
#     Edge 13, Type (0, 1), BuildingBlock: AJUNOK_clean_linker_0, # of connection points: 2
#     Edge 14, Type (0, 1), BuildingBlock: AJUNOK_clean_linker_0, # of connection points: 2
#     Edge 15, Type (0, 1), BuildingBlock: AJUNOK_clean_linker_0, # of connection points: 2
#     Edge 16, Type (0, 1), BuildingBlock: AJUNOK_clean_linker_0, # of connection points: 2
#     Edge 17, Type (0, 1), BuildingBlock: AJUNOK_clean_linker_0, # of connection points: 2
#     Edge 18, Type (0, 1), BuildingBlock: AJUNOK_clean_linker_0, # of connection points: 2
#     Edge 19, Type (0, 1), BuildingBlock: AJUNOK_clean_linker_0, # of connection points: 2
#     Edge 20, Type (0, 1), BuildingBlock: AJUNOK_clean_linker_0, # of connection points: 2
#     Edge 21, Type (0, 1), BuildingBlock: AJUNOK_clean_linker_0, # of connection points: 2
#     Edge 22, Type (0, 1), BuildingBlock: AJUNOK_clean_linker_0, # of connection points: 2
#     Edge 23, Type (0, 1), BuildingBlock: AJUNOK_clean_linker_0, # of connection points: 2
#     Edge 24, Type (0, 1), BuildingBlock: AJUNOK_clean_linker_0, # of connection points: 2
#     Edge 25, Type (0, 1), BuildingBlock: AJUNOK_clean_linker_0, # of connection points: 2
#     Edge 26, Type (0, 1), BuildingBlock: AJUNOK_clean_linker_0, # of connection points: 2
#     Edge 27, Type (0, 1), BuildingBlock: AJUNOK_clean_linker_0, # of connection points: 2
#     Edge 28, Type (0, 1), BuildingBlock: AJUNOK_clean_linker_0, # of connection points: 2
#     Edge 29, Type (0, 1), BuildingBlock: AJUNOK_clean_linker_0, # of connection points: 2
#     Edge 30, Type (0, 1), BuildingBlock: AJUNOK_clean_linker_0, # of connection points: 2
#     Edge 31, Type (0, 1), BuildingBlock: AJUNOK_clean_linker_0, # of connection points: 2
#     Edge 32, Type (0, 1), BuildingBlock: AJUNOK_clean_linker_0, # of connection points: 2
#     Edge 33, Type (0, 1), BuildingBlock: AJUNOK_clean_linker_0, # of connection points: 2
#     Edge 34, Type (0, 1), BuildingBlock: AJUNOK_clean_linker_0, # of connection points: 2
#     Edge 35, Type (0, 1), BuildingBlock: AJUNOK_clean_linker_0, # of connection points: 2
# Relax obj value: 0.034
# Max RMSD: 0.048
# Mean RMSD: 0.037
data_MOF--net-ssa--node1-NAWXER_clean_sbu_0--node2-MUDLON_clean_sbu_0--edge1-AJUNOK_clean_linker_0
_symmetry_space_group_name_H-M    P1
_symmetry_Int_Tables_number       1
_symmetry_cell_setting            triclinic
loop_
_symmetry_equiv_pos_as_xyz
'x, y, z'
_cell_length_a     31.341439
_cell_length_b     31.265891
_cell_length_c     28.542197
_cell_angle_alpha  90.864885
_cell_angle_beta   88.572816
_cell_angle_gamma 120.08277
loop_
_atom_site_label
_atom_site_type_symbol
_atom_site_fract_x
_atom_site_fract_y
_atom_site_fract_z
_atom_type_partial_charge
C0 C 0.10929 0.58972 0.04757 0.0
C1 C 0.04145 0.44088 0.94787 0.0
O2 O 0.06991 0.5531 0.06472 0.0
Zn3 Zn 0.0178 0.4778 0.04577 0.0
O4 O 0.12545 0.58541 1.00745 0.0
Zn5 Zn 0.07716 0.51577 0.99782 0.0
O6 O 1.01106 0.51786 0.98286 0.0
O7 O 0.95701 0.47863 0.03996 0.0
O8 O 0.08194 0.4812 0.94217 0.0
O9 O 0.01538 0.43513 0.98508 0.0
O10 O 0.02354 0.44316 0.09776 0.0
O11 O 0.09309 0.48385 0.05702 0.0
C12 C 0.96803 0.50192 1.0014 0.0
C13 C 0.06925 0.45789 0.09295 0.0
C14 C 0.44213 1.00639 0.59122 0.0
C15 C 0.51628 0.91381 0.52108 0.0
O16 O 0.43179 0.96293 0.60249 0.0
Zn17 Zn 0.48117 0.95945 0.56164 0.0
O18 O 0.47689 0.03076 0.56124 0.0
Zn19 Zn 0.52915 0.02227 0.51878 0.0
O20 O 0.50871 0.02853 0.45623 0.0
O21 O 0.4549 0.96043 0.49355 0.0
O22 O 0.53622 0.95863 0.50722 0.0
O23 O 0.48365 0.89841 0.55381 0.0
O24 O 0.54869 0.01181 0.59446 0.0
O25 O 0.59258 0.07166 0.54428 0.0
C26 C 0.4683 0.98739 0.45681 0.0
C27 C 0.58766 0.05307 0.58477 0.0
C28 C 0.41714 0.40124 0.97124 0.0
C29 C 0.47913 0.54801 0.0722 0.0
O30 O 0.40874 0.4369 0.9687 0.0
Zn31 Zn 0.44594 0.47473 0.0228 0.0
O32 O 0.44275 0.40038 1.00515 0.0
Zn33 Zn 0.4806 0.44578 0.06413 0.0
O34 O 0.44602 0.40663 0.11928 0.0
O35 O 0.40298 0.43378 0.08348 0.0
O36 O 0.49227 0.51716 0.08464 0.0
O37 O 0.4512 0.5383 0.03726 0.0
O38 O 0.52168 0.49723 1.0016 0.0
O39 O 0.54789 0.46186 0.05036 0.0
C40 C 0.40764 0.4106 0.11791 0.0
C41 C 0.55614 0.48965 1.01515 0.0
C42 C 0.05348 0.65001 0.48404 0.0
C43 C 0.94777 0.49855 0.57387 0.0
O44 O 0.07474 0.64436 0.51929 0.0
Zn45 Zn 0.05811 0.59205 0.57409 0.0
O46 O 1.00909 0.61743 0.47588 0.0
Zn47 Zn 0.99954 0.57267 0.5276 0.0
O48 O 0.99786 0.61189 0.59102 0.0
O49 O 0.06364 0.62886 0.63113 0.0
O50 O 0.93663 0.51138 0.53603 0.0
O51 O 0.99118 0.52488 0.59013 0.0
O52 O 0.10461 0.56931 0.56141 0.0
O53 O 0.04837 0.54472 0.50723 0.0
C54 C 0.02383 0.63003 0.6279 0.0
C55 C 0.08704 0.54624 0.52328 0.0
C56 C 0.56642 0.97981 0.06349 0.0
C57 C 0.52105 0.06527 0.94767 0.0
O58 O 0.57034 0.02025 0.07942 0.0
Zn59 Zn 0.55774 0.0779 0.0544 0.0
O60 O 0.55309 0.96729 0.02141 0.0
Zn61 Zn 0.54256 0.02092 1.00392 0.0
O62 O 0.61448 0.08358 0.99878 0.0
O63 O 0.62214 0.13834 0.05268 0.0
O64 O 0.51978 0.02417 0.94158 0.0
O65 O 0.53307 0.08659 0.9877 0.0
O66 O 0.50464 0.07162 0.09635 0.0
O67 O 0.48139 1.00872 0.04777 0.0
C68 C 0.63981 0.12616 1.01771 0.0
C69 C 0.47105 0.02997 0.08128 0.0
C70 C 0.6298 0.57871 0.59283 0.0
C71 C 0.48222 0.52407 0.50174 0.0
O72 O 0.59545 0.58852 0.6 0.0
Zn73 Zn 0.55729 0.55485 0.5459 0.0
O74 O 0.63028 0.5554 0.55573 0.0
Zn75 Zn 0.58333 0.52073 0.49722 0.0
O76 O 0.62068 0.55795 0.44205 0.0
O77 O 0.59641 0.60006 0.48659 0.0
O78 O 0.51151 0.51043 0.48393 0.0
O79 O 0.49399 0.5503 0.53876 0.0
O80 O 0.53819 0.48005 0.56235 0.0
O81 O 0.56883 0.45304 0.50669 0.0
C82 C 0.61767 0.59664 0.44893 0.0
C83 C 0.54547 0.44585 0.54559 0.0
Mg84 Mg 0.24045 0.45615 0.32316 0.0
C85 C 0.17536 0.44665 0.25271 0.0
O86 O 0.15736 0.40516 0.27627 0.0
C87 C 0.30689 0.47486 0.39782 0.0
O88 O 0.26699 0.43205 0.40595 0.0
C89 C 0.19578 0.48495 0.39836 0.0
O90 O 0.23734 0.52445 0.38599 0.0
O91 O 0.18353 0.44424 0.37706 0.0
O92 O 0.21674 0.4829 0.26511 0.0
O93 O 0.25269 0.40188 0.28269 0.0
C94 C 0.29511 0.40537 0.28256 0.0
O95 O 0.32677 0.4334 0.31418 0.0
O96 O 0.30833 0.49942 0.36195 0.0
Mg97 Mg 0.81267 0.26324 0.77138 0.0
C98 C 0.72523 0.17599 0.729 0.0
O99 O 0.70531 0.18834 0.76381 0.0
C100 C 0.92191 0.32307 0.79498 0.0
O101 O 0.9218 0.35137 0.7615 0.0
C102 C 0.77556 0.22469 0.8662 0.0
O103 O 0.80632 0.20896 0.85523 0.0
O104 O 0.7687 0.2502 0.83602 0.0
O105 O 0.77209 0.19946 0.72413 0.0
O106 O 0.82777 0.32853 0.73151 0.0
C107 C 0.82201 0.32594 0.6873 0.0
O108 O 0.80077 0.28233 0.66702 0.0
O109 O 0.88383 0.28057 0.80085 0.0
Mg110 Mg 0.56585 0.78055 0.27611 0.0
C111 C 0.56059 0.84163 0.20112 0.0
O112 O 0.51622 0.80266 0.20413 0.0
C113 C 0.61204 0.71793 0.30251 0.0
O114 O 0.58283 0.68962 0.26944 0.0
C115 C 0.56126 0.81824 0.36956 0.0
O116 O 0.60786 0.83198 0.3616 0.0
O117 O 0.53045 0.79366 0.33769 0.0
O118 O 0.59324 0.84553 0.22952 0.0
O119 O 0.52116 0.7186 0.22925 0.0
C120 C 0.54558 0.72026 0.19226 0.0
O121 O 0.59058 0.75777 0.1867 0.0
O122 O 0.61643 0.76038 0.30945 0.0
Mg123 Mg 0.807 0.5868 0.82331 0.0
C124 C 0.76242 0.596 0.73878 0.0
O125 O 0.79772 0.6411 0.74813 0.0
C126 C 0.83807 0.54763 0.90034 0.0
O127 O 0.83158 0.58204 0.92047 0.0
C128 C 0.7273 0.55366 0.89144 0.0
O129 O 0.72655 0.51451 0.87307 0.0
O130 O 0.76041 0.59636 0.87701 0.0
O131 O 0.7568 0.56064 0.76478 0.0
O132 O 0.87585 0.64161 0.78716 0.0
C133 C 0.91559 0.64021 0.79127 0.0
O134 O 0.91941 0.61669 0.82717 0.0
O135 O 0.82825 0.53815 0.85704 0.0
Mg136 Mg 0.24039 0.82599 0.25556 0.0
C137 C 0.20667 0.7638 0.16728 0.0
O138 O 0.20552 0.80323 0.15403 0.0
C139 C 0.32239 0.89844 0.31195 0.0
O140 O 0.2969 0.91985 0.3018 0.0
C141 C 0.18785 0.7906 0.34753 0.0
O142 O 0.23282 0.80021 0.35573 0.0
O143 O 0.17851 0.80013 0.30696 0.0
O144 O 0.22094 0.76258 0.20851 0.0
O145 O 0.26584 0.89028 0.20991 0.0
C146 C 0.30151 0.89264 0.18539 0.0
O147 O 0.3122 0.85728 0.18948 0.0
O148 O 0.30741 0.85465 0.29676 0.0
Mg149 Mg 0.43289 0.21433 0.75796 0.0
C150 C 0.38503 0.13708 0.68095 0.0
O151 O 0.39337 0.17575 0.65627 0.0
C152 C 0.39835 0.27777 0.81003 0.0
O153 O 0.41236 0.30214 0.7703 0.0
C154 C 0.4882 0.16454 0.79236 0.0
O155 O 0.47277 0.14 0.75286 0.0
O156 O 0.48305 0.20204 0.79955 0.0
O157 O 0.38961 0.14187 0.72511 0.0
O158 O 0.46646 0.27417 0.70624 0.0
C159 C 0.49088 0.27713 0.66888 0.0
O160 O 0.50088 0.24187 0.65899 0.0
O161 O 0.39773 0.23682 0.81269 0.0
C162 C 0.14705 0.48547 0.13705 0.0
C163 C 0.09629 0.45174 0.13182 0.0
C164 C 0.17237 0.48434 0.17654 0.0
C165 C 0.14804 0.44904 0.212 0.0
H166 H 0.1672 0.51396 0.1111 0.0
H167 H 0.21131 0.5111 0.1791 0.0
S168 S 0.01547 0.35187 0.21471 0.0
N169 N 0.02289 0.38171 0.16527 0.0
N170 N 0.07012 0.37922 0.23909 0.0
C171 C 0.09741 0.41468 0.20684 0.0
C172 C 0.07166 0.41611 0.16689 0.0
C173 C 0.67303 0.11729 0.61046 0.0
C174 C 0.62428 0.08058 0.62205 0.0
C175 C 0.70668 0.14613 0.64537 0.0
C176 C 0.69255 0.14009 0.69315 0.0
H177 H 0.68508 0.12437 0.57409 0.0
H178 H 0.74326 0.17486 0.63465 0.0
S179 S 0.57001 0.04815 0.7425 0.0
N180 N 0.56453 0.03878 0.68537 0.0
N181 N 0.62712 0.09331 0.75028 0.0
C182 C 0.64441 0.10272 0.70524 0.0
C183 C 0.61049 0.07291 0.66994 0.0
C184 C 0.46481 0.61175 0.11281 0.0
C185 C 0.49683 0.59416 0.09948 0.0
C186 C 0.48029 0.65237 0.14351 0.0
C187 C 0.52858 0.67722 0.1606 0.0
H188 H 0.42719 0.59304 0.10076 0.0
H189 H 0.45456 0.66458 0.15365 0.0
S190 S 0.62659 0.64611 0.13526 0.0
N191 N 0.5788 0.60481 0.1055 0.0
N192 N 0.60821 0.68159 0.16166 0.0
C193 C 0.56106 0.66052 0.14661 0.0
C194 C 0.54509 0.61884 0.11642 0.0
C195 C 0.95856 0.64506 0.66467 0.0
C196 C 1.00308 0.64457 0.66897 0.0
C197 C 0.9325 0.6482 0.70421 0.0
C198 C 0.94955 0.65051 0.74992 0.0
H199 H 0.9422 0.64037 0.63064 0.0
H200 H 0.89703 0.64531 0.69894 0.0
S201 S 0.06781 0.65848 0.78041 0.0
N202 N 0.06598 0.65307 0.72276 0.0
N203 N 0.01685 0.65836 0.7967 0.0
C204 C 0.99587 0.65404 0.7545 0.0
C205 C 0.02264 0.65127 0.71421 0.0
C206 C 0.38538 0.95791 0.08401 0.0
C207 C 0.42144 1.00251 0.10439 0.0
C208 C 0.34287 0.92457 0.10908 0.0
C209 C 0.3341 0.93481 0.15517 0.0
H210 H 0.39147 0.94682 0.04949 0.0
H211 H 0.31852 0.88882 0.09354 0.0
S212 S 0.41199 0.04947 0.22209 0.0
N213 N 0.44203 0.05774 0.17162 0.0
N214 N 0.36143 0.9948 0.21851 0.0
C215 C 0.36697 0.98119 0.17439 0.0
C216 C 0.41081 0.0152 0.14899 0.0
C217 C 0.50564 0.39567 0.61776 0.0
C218 C 0.53006 0.40068 0.57432 0.0
C219 C 0.49353 0.35596 0.64775 0.0
C220 C 0.50519 0.31906 0.6359 0.0
H221 H 0.49611 0.42307 0.62931 0.0
H222 H 0.47497 0.35447 0.6807 0.0
S223 S 0.56853 0.31395 0.52591 0.0
N224 N 0.56513 0.36469 0.52073 0.0
N225 N 0.54223 0.28984 0.57702 0.0
C226 C 0.52925 0.32318 0.59237 0.0
C227 C 0.54164 0.36387 0.56164 0.0
C228 C 0.57441 0.89424 0.47891 0.0
C229 C 0.52561 0.87981 0.49194 0.0
C230 C 0.58507 0.87215 0.44081 0.0
C231 C 0.54735 0.83557 0.41317 0.0
H232 H 0.60474 0.92474 0.49682 0.0
H233 H 0.6235 0.88596 0.4316 0.0
S234 S 0.41294 0.78255 0.43481 0.0
N235 N 0.43888 0.82449 0.47652 0.0
N236 N 0.45875 0.78356 0.40395 0.0
C237 C 0.49815 0.81907 0.42727 0.0
C238 C 0.48734 0.84102 0.46689 0.0
C239 C 0.61489 0.54647 0.95258 0.0
C240 C 0.60408 0.51137 0.98827 0.0
C241 C 0.65726 0.56356 0.92339 0.0
C242 C 0.69012 0.54583 0.92853 0.0
H243 H 0.58965 0.55978 0.94608 0.0
H244 H 0.6627 0.58849 0.89496 0.0
S245 S 0.6823 0.45794 1.01876 0.0
N246 N 0.63296 0.46305 0.02902 0.0
N247 N 0.71137 0.49432 0.97371 0.0
C248 C 0.68117 0.51275 0.96528 0.0
C249 C 0.63856 0.49581 0.9953 0.0
C250 C 0.06966 0.6887 0.40371 0.0
C251 C 0.08282 0.6918 0.4511 0.0
C252 C 0.10209 0.72336 0.37037 0.0
C253 C 0.14873 0.76224 0.38333 0.0
H254 H 0.03548 0.65767 0.3917 0.0
H255 H 0.09198 0.71765 0.33384 0.0
S256 S 0.19691 0.79228 0.50402 0.0
N257 N 0.14292 0.74127 0.50996 0.0
N258 N 0.2034 0.80561 0.44764 0.0
C259 C 0.1604 0.76797 0.43111 0.0
C260 C 0.1276 0.73299 0.46488 0.0
C261 C 0.5067 0.07247 0.8624 0.0
C262 C 0.51291 0.09116 0.90841 0.0
C263 C 0.50079 0.09749 0.82485 0.0
C264 C 0.50103 0.14241 0.83163 0.0
H265 H 0.50629 0.03814 0.85518 0.0
H266 H 0.49507 0.08088 0.79034 0.0
S267 S 0.51711 0.208 0.94518 0.0
N268 N 0.51954 0.15811 0.95843 0.0
N269 N 0.50916 0.20504 0.88808 0.0
C270 C 0.50821 0.16204 0.87733 0.0
C271 C 0.51386 0.13646 0.9156 0.0
C272 C 0.42089 0.54567 0.47178 0.0
C273 C 0.43615 0.51069 0.47747 0.0
C274 C 0.37954 0.53459 0.44488 0.0
C275 C 0.35162 0.48779 0.42415 0.0
H276 H 0.4418 0.58219 0.4871 0.0
H277 H 0.36895 0.5624 0.44086 0.0
S278 S 0.37576 0.3833 0.42937 0.0
N279 N 0.4203 0.42776 0.46003 0.0
N280 N 0.34167 0.40624 0.41141 0.0
C281 C 0.36609 0.45238 0.43033 0.0
C282 C 0.40865 0.46403 0.45651 0.0
C283 C 0.03122 0.4213 0.86194 0.0
C284 C 0.01925 0.40489 0.90861 0.0
C285 C 1.00171 0.3926 0.82472 0.0
C286 C 0.95933 0.34604 0.83251 0.0
H287 H 0.0613 0.45818 0.85431 0.0
H288 H 1.01058 0.40844 0.7899 0.0
S289 S 0.91757 0.28225 0.9474 0.0
N290 N 0.96615 0.33623 0.95985 0.0
N291 N 0.91133 0.28206 0.89013 0.0
C292 C 0.94996 0.32715 0.87849 0.0
C293 C 0.97969 0.35664 0.91645 0.0
C294 C 0.93398 0.51243 0.92706 0.0
C295 C 0.93119 0.50891 0.97633 0.0
C296 C 0.90122 0.52137 0.90218 0.0
C297 C 0.86519 0.52819 0.92579 0.0
H298 H 0.96209 0.5088 0.90752 0.0
H299 H 0.90584 0.52545 0.86447 0.0
S300 S 0.83998 0.51894 0.05403 0.0
N301 N 0.8871 0.50944 0.04742 0.0
N302 N 0.82649 0.52776 1.00078 0.0
C303 C 0.86081 0.52297 0.97482 0.0
C304 C 0.89355 0.51291 1.00008 0.0
C305 C 0.41524 0.91729 0.40442 0.0
C306 C 0.43684 0.96794 0.41533 0.0
C307 C 0.3801 0.89552 0.36928 0.0
C308 C 0.36437 0.92341 0.34441 0.0
H309 H 0.42489 0.89402 0.42395 0.0
H310 H 0.36367 0.85616 0.36307 0.0
S311 S 0.41142 0.05819 0.35856 0.0
N312 N 0.44218 0.04594 0.39717 0.0
N313 N 0.37501 1.00524 0.332 0.0
C314 C 0.38696 0.97458 0.35407 0.0
C315 C 0.42353 0.99684 0.38926 0.0
C316 C 0.39392 0.3755 0.88766 0.0
C317 C 0.40306 0.36425 0.93257 0.0
C318 C 0.38952 0.34563 0.8487 0.0
C319 C 0.39344 0.30288 0.85301 0.0
H320 H 0.39284 0.40911 0.88194 0.0
H321 H 0.38497 0.35734 0.81457 0.0
S322 S 0.41063 0.25341 0.9641 0.0
N323 N 0.41103 0.30462 0.97987 0.0
N324 N 0.40228 0.24839 0.90697 0.0
C325 C 0.39903 0.28929 0.89831 0.0
C326 C 0.40403 0.32 0.93794 0.0
C327 C 0.09004 0.49392 0.45618 0.0
C328 C 0.11248 0.52396 0.4958 0.0
C329 C 0.11556 0.47737 0.42654 0.0
C330 C 0.16466 0.49067 0.43514 0.0
H331 H 0.05299 0.48446 0.447 0.0
H332 H 0.09783 0.45673 0.39519 0.0
S333 S 0.23906 0.5641 0.53593 0.0
N334 N 0.18584 0.56239 0.54363 0.0
N335 N 0.23355 0.53225 0.48758 0.0
C336 C 0.1866 0.51839 0.4757 0.0
C337 C 0.16062 0.53472 0.50613 0.0
C338 C 0.72053 0.15259 0.97866 0.0
C339 C 0.68295 0.16292 0.99057 0.0
C340 C 0.75228 0.1754 0.94016 0.0
C341 C 0.74673 0.20838 0.91111 0.0
H342 H 0.72335 0.12424 0.9974 0.0
H343 H 0.77945 0.16463 0.93161 0.0
S344 S 0.65557 0.25004 0.92967 0.0
N345 N 0.64375 0.21065 0.97271 0.0
N346 N 0.70273 0.25302 0.89964 0.0
C347 C 0.71107 0.22126 0.92444 0.0
C348 C 0.67932 0.1986 0.96431 0.0
C349 C 0.63074 0.67833 0.42137 0.0
C350 C 0.63023 0.63378 0.41106 0.0
C351 C 0.62988 0.70841 0.3857 0.0
C352 C 0.62791 0.69485 0.33824 0.0
H353 H 0.62877 0.68865 0.45743 0.0
H354 H 0.62676 0.74032 0.39568 0.0
S355 S 0.63457 0.58678 0.29177 0.0
N356 N 0.63459 0.58153 0.34925 0.0
N357 N 0.63241 0.63765 0.28251 0.0
C358 C 0.63192 0.65292 0.32727 0.0
C359 C 0.63329 0.62253 0.36355 0.0
C360 C 0.41351 0.0675 0.58749 0.0
C361 C 0.41658 0.03103 0.61305 0.0
C362 C 0.39867 0.09863 0.60895 0.0
C363 C 0.38691 0.0952 0.65719 0.0
H364 H 0.42481 0.07357 0.55086 0.0
H365 H 0.39962 0.12769 0.58798 0.0
S366 S 0.38239 1.0011 0.73845 0.0
N367 N 0.40148 0.98948 0.68793 0.0
N368 N 0.37345 0.04793 0.72864 0.0
C369 C 0.38587 0.0561 0.68235 0.0
C370 C 0.40079 0.02409 0.66023 0.0
C371 C 0.3288 0.3987 0.15537 0.0
C372 C 0.37225 0.39595 0.15875 0.0
C373 C 0.30049 0.39633 0.19538 0.0
C374 C 0.31476 0.39162 0.2405 0.0
H375 H 0.31803 0.40565 0.12184 0.0
H376 H 0.26961 0.4023 0.19117 0.0
S377 S 0.42031 0.37458 0.26836 0.0
N378 N 0.42402 0.38148 0.21089 0.0
N379 N 0.37136 0.37782 0.28569 0.0
C380 C 0.3555 0.3845 0.24399 0.0
C381 C 0.38407 0.38641 0.20329 0.0
C382 C 0.91698 0.45593 0.6505 0.0
C383 C 0.91113 0.45554 0.6017 0.0
C384 C 0.88599 0.41495 0.67822 0.0
C385 C 0.84817 0.37136 0.65827 0.0
H386 H 0.9464 0.48806 0.66754 0.0
H387 H 0.89329 0.41691 0.71531 0.0
S388 S 0.81429 0.35285 0.53273 0.0
N389 N 0.86219 0.40947 0.53502 0.0
N390 N 0.8041 0.3317 0.58696 0.0
C391 C 0.84036 0.3712 0.60977 0.0
C392 C 0.87173 0.41345 0.58154 0.0
C393 C 0.59186 0.96196 0.14084 0.0
C394 C 0.57241 0.94586 0.09566 0.0
C395 C 0.59145 0.92888 0.17418 0.0
C396 C 0.57087 0.87834 0.1638 0.0
H397 H 0.60605 1.00013 0.15118 0.0
H398 H 0.6047 0.94242 0.20904 0.0
S399 S 0.51972 0.81763 0.04994 0.0
N400 N 0.53592 0.87603 0.04168 0.0
N401 N 0.53424 0.81433 0.10444 0.0
C402 C 0.55359 0.86221 0.11829 0.0
C403 C 0.55465 0.89581 0.08419 0.0
C404 C 0.71386 0.61669 0.62619 0.0
C405 C 0.66294 0.58428 0.63081 0.0
C406 C 0.74589 0.61948 0.66112 0.0
C407 C 0.72816 0.5887 0.70088 0.0
H408 H 0.72891 0.64019 0.59564 0.0
H409 H 0.7849 0.64583 0.65688 0.0
S410 S 0.59774 0.49545 0.72731 0.0
N411 N 0.59603 0.51985 0.67694 0.0
N412 N 0.65636 0.52398 0.74199 0.0
C413 C 0.67734 0.55516 0.70508 0.0
C414 C 0.64467 0.55325 0.67013 0.0
C415 C 0.13472 0.63051 0.12594 0.0
C416 C 0.13704 0.6348 0.0767 0.0
C417 C 0.15939 0.67215 0.155 0.0
C418 C 0.18646 0.71989 0.13601 0.0
H419 H 0.11357 0.59455 0.14229 0.0
H420 H 0.15567 0.66702 0.19264 0.0
S421 S 0.20629 0.75129 1.00943 0.0
N422 N 0.17085 0.69051 1.01029 0.0
N423 N 0.21599 0.76899 0.06484 0.0
C424 C 0.18996 0.72469 0.08684 0.0
C425 C 0.16565 0.68212 0.05721 0.0
loop_
_geom_bond_atom_site_label_1
_geom_bond_atom_site_label_2
_geom_bond_distance
_geom_bond_site_symmetry_2
_ccdc_geom_bond_type
C0 O2 1.247 . S
C0 O4 1.258 . S
C1 O8 1.247 1_655 S
C1 O9 1.258 . S
O2 C0 1.247 . S
O2 Zn3 2.028 1_455 S
Zn3 O2 2.028 1_655 S
Zn3 O7 2.035 1_554 S
Zn3 O9 2.035 1_554 S
Zn3 O10 2.028 1_655 S
O4 C0 1.258 . S
O4 Zn5 2.035 1_554 S
Zn5 O4 2.035 1_556 S
Zn5 O6 2.028 . S
Zn5 O8 2.028 . S
Zn5 O11 2.035 1_556 S
O6 Zn5 2.028 . S
O6 C12 1.247 1_455 S
O7 Zn3 2.035 1_556 S
O7 C12 1.258 . S
O8 C1 1.247 1_455 S
O8 Zn5 2.028 . S
O9 C1 1.258 . S
O9 Zn3 2.035 1_556 S
O10 Zn3 2.028 1_455 S
O10 C13 1.247 . S
O11 Zn5 2.035 1_554 S
O11 C13 1.258 . S
C12 O6 1.247 1_655 S
C12 O7 1.258 . S
C13 O10 1.247 . S
C13 O11 1.258 . S
C14 O16 1.247 . S
C14 O18 1.258 . S
C15 O22 1.247 1_565 S
C15 O23 1.258 . S
O16 C14 1.247 . S
O16 Zn17 2.028 1_545 S
Zn17 O16 2.028 1_565 S
Zn17 O21 2.035 . S
Zn17 O23 2.035 . S
Zn17 O24 2.028 1_565 S
O18 C14 1.258 . S
O18 Zn19 2.035 . S
Zn19 O18 2.035 . S
Zn19 O20 2.028 . S
Zn19 O22 2.028 . S
Zn19 O25 2.035 . S
O20 Zn19 2.028 . S
O20 C26 1.247 1_545 S
O21 Zn17 2.035 . S
O21 C26 1.258 . S
O22 C15 1.247 1_545 S
O22 Zn19 2.028 . S
O23 C15 1.258 . S
O23 Zn17 2.035 . S
O24 Zn17 2.028 1_545 S
O24 C27 1.247 . S
O25 Zn19 2.035 . S
O25 C27 1.258 . S
C26 O20 1.247 1_565 S
C26 O21 1.258 . S
C27 O24 1.247 . S
C27 O25 1.258 . S
C28 O30 1.247 . S
C28 O32 1.258 . S
C29 O36 1.247 . S
C29 O37 1.258 . S
O30 C28 1.247 . S
O30 Zn31 2.028 . S
Zn31 O30 2.028 . S
Zn31 O35 2.035 1_556 S
Zn31 O37 2.035 1_556 S
Zn31 O38 2.028 . S
O32 C28 1.258 . S
O32 Zn33 2.035 1_556 S
Zn33 O32 2.035 1_554 S
Zn33 O34 2.028 . S
Zn33 O36 2.028 . S
Zn33 O39 2.035 1_554 S
O34 Zn33 2.028 . S
O34 C40 1.247 . S
O35 Zn31 2.035 1_554 S
O35 C40 1.258 . S
O36 C29 1.247 . S
O36 Zn33 2.028 . S
O37 C29 1.258 . S
O37 Zn31 2.035 1_554 S
O38 Zn31 2.028 . S
O38 C41 1.247 . S
O39 Zn33 2.035 1_556 S
O39 C41 1.258 . S
C40 O34 1.247 . S
C40 O35 1.258 . S
C41 O38 1.247 . S
C41 O39 1.258 . S
C42 O44 1.247 . S
C42 O46 1.257 . S
C43 O50 1.247 . S
C43 O51 1.258 1_655 S
O44 C42 1.247 . S
O44 Zn45 2.028 . S
Zn45 O44 2.028 . S
Zn45 O49 2.035 . S
Zn45 O51 2.035 . S
Zn45 O52 2.028 . S
O46 C42 1.257 . S
O46 Zn47 2.035 1_455 S
Zn47 O46 2.035 1_655 S
Zn47 O48 2.028 . S
Zn47 O50 2.028 . S
Zn47 O53 2.036 1_655 S
O48 Zn47 2.028 . S
O48 C54 1.247 . S
O49 Zn45 2.035 . S
O49 C54 1.258 1_455 S
O50 C43 1.247 . S
O50 Zn47 2.028 . S
O51 C43 1.258 1_455 S
O51 Zn45 2.035 . S
O52 Zn45 2.028 . S
O52 C55 1.247 . S
O53 Zn47 2.036 1_455 S
O53 C55 1.257 . S
C54 O48 1.247 . S
C54 O49 1.258 1_655 S
C55 O52 1.247 . S
C55 O53 1.257 . S
C56 O58 1.247 1_565 S
C56 O60 1.258 . S
C57 O64 1.248 1_545 S
C57 O65 1.258 . S
O58 C56 1.247 1_545 S
O58 Zn59 2.028 . S
Zn59 O58 2.028 . S
Zn59 O63 2.035 1_554 S
Zn59 O65 2.035 1_554 S
Zn59 O66 2.028 . S
O60 C56 1.258 . S
O60 Zn61 2.035 1_554 S
Zn61 O60 2.035 1_556 S
Zn61 O62 2.028 . S
Zn61 O64 2.027 . S
Zn61 O67 2.035 1_556 S
O62 Zn61 2.028 . S
O62 C68 1.247 1_565 S
O63 Zn59 2.035 1_556 S
O63 C68 1.258 . S
O64 C57 1.248 1_565 S
O64 Zn61 2.027 . S
O65 C57 1.258 . S
O65 Zn59 2.035 1_556 S
O66 Zn59 2.028 . S
O66 C69 1.247 1_545 S
O67 Zn61 2.035 1_554 S
O67 C69 1.258 . S
C68 O62 1.247 1_545 S
C68 O63 1.258 . S
C69 O66 1.247 1_565 S
C69 O67 1.258 . S
C70 O72 1.247 . S
C70 O74 1.258 . S
C71 O78 1.247 . S
C71 O79 1.258 . S
O72 C70 1.247 . S
O72 Zn73 2.028 . S
Zn73 O72 2.028 . S
Zn73 O77 2.035 . S
Zn73 O79 2.035 . S
Zn73 O80 2.028 . S
O74 C70 1.258 . S
O74 Zn75 2.035 . S
Zn75 O74 2.035 . S
Zn75 O76 2.028 . S
Zn75 O78 2.028 . S
Zn75 O81 2.035 . S
O76 Zn75 2.028 . S
O76 C82 1.247 . S
O77 Zn73 2.035 . S
O77 C82 1.258 . S
O78 C71 1.247 . S
O78 Zn75 2.028 . S
O79 C71 1.258 . S
O79 Zn73 2.035 . S
O80 Zn73 2.028 . S
O80 C83 1.247 . S
O81 Zn75 2.035 . S
O81 C83 1.258 . S
C82 O76 1.247 . S
C82 O77 1.258 . S
C83 O80 1.247 . S
C83 O81 1.258 . S
Mg84 O91 2.141 . S
Mg84 O92 2.048 . S
Mg84 O93 2.048 . S
Mg84 O96 2.141 . S
C85 O86 1.313 . S
C85 O92 1.195 . S
O86 C85 1.313 . S
C87 O88 1.245 . S
C87 O96 1.289 . S
O88 C87 1.245 . S
C89 O90 1.245 . S
C89 O91 1.289 . S
O90 C89 1.245 . S
O91 Mg84 2.141 . S
O91 C89 1.289 . S
O92 Mg84 2.048 . S
O92 C85 1.195 . S
O93 Mg84 2.048 . S
O93 C94 1.195 . S
C94 O93 1.195 . S
C94 O95 1.313 . S
O95 C94 1.313 . S
O96 Mg84 2.141 . S
O96 C87 1.289 . S
Mg97 O104 2.141 . S
Mg97 O105 2.048 . S
Mg97 O106 2.048 . S
Mg97 O109 2.141 . S
C98 O99 1.313 . S
C98 O105 1.195 . S
O99 C98 1.313 . S
C100 O101 1.245 . S
C100 O109 1.289 . S
O101 C100 1.245 . S
C102 O103 1.245 . S
C102 O104 1.289 . S
O103 C102 1.245 . S
O104 Mg97 2.141 . S
O104 C102 1.289 . S
O105 Mg97 2.048 . S
O105 C98 1.195 . S
O106 Mg97 2.048 . S
O106 C107 1.195 . S
C107 O106 1.195 . S
C107 O108 1.313 . S
O108 C107 1.313 . S
O109 Mg97 2.141 . S
O109 C100 1.289 . S
Mg110 O117 2.141 . S
Mg110 O118 2.048 . S
Mg110 O119 2.048 . S
Mg110 O122 2.141 . S
C111 O112 1.313 . S
C111 O118 1.195 . S
O112 C111 1.313 . S
C113 O114 1.245 . S
C113 O122 1.289 . S
O114 C113 1.245 . S
C115 O116 1.245 . S
C115 O117 1.289 . S
O116 C115 1.245 . S
O117 Mg110 2.141 . S
O117 C115 1.289 . S
O118 Mg110 2.048 . S
O118 C111 1.195 . S
O119 Mg110 2.048 . S
O119 C120 1.195 . S
C120 O119 1.195 . S
C120 O121 1.313 . S
O121 C120 1.313 . S
O122 Mg110 2.141 . S
O122 C113 1.289 . S
Mg123 O130 2.141 . S
Mg123 O131 2.048 . S
Mg123 O132 2.048 . S
Mg123 O135 2.141 . S
C124 O125 1.313 . S
C124 O131 1.195 . S
O125 C124 1.313 . S
C126 O127 1.245 . S
C126 O135 1.289 . S
O127 C126 1.245 . S
C128 O129 1.245 . S
C128 O130 1.289 . S
O129 C128 1.245 . S
O130 Mg123 2.141 . S
O130 C128 1.289 . S
O131 Mg123 2.048 . S
O131 C124 1.195 . S
O132 Mg123 2.048 . S
O132 C133 1.195 . S
C133 O132 1.195 . S
C133 O134 1.313 . S
O134 C133 1.313 . S
O135 Mg123 2.141 . S
O135 C126 1.289 . S
Mg136 O143 2.141 . S
Mg136 O144 2.048 . S
Mg136 O145 2.048 . S
Mg136 O148 2.141 . S
C137 O138 1.313 . S
C137 O144 1.195 . S
O138 C137 1.313 . S
C139 O140 1.245 . S
C139 O148 1.289 . S
O140 C139 1.245 . S
C141 O142 1.245 . S
C141 O143 1.289 . S
O142 C141 1.245 . S
O143 Mg136 2.141 . S
O143 C141 1.289 . S
O144 Mg136 2.048 . S
O144 C137 1.195 . S
O145 Mg136 2.048 . S
O145 C146 1.195 . S
C146 O145 1.195 . S
C146 O147 1.313 . S
O147 C146 1.313 . S
O148 Mg136 2.141 . S
O148 C139 1.289 . S
Mg149 O156 2.141 . S
Mg149 O157 2.048 . S
Mg149 O158 2.048 . S
Mg149 O161 2.141 . S
C150 O151 1.313 . S
C150 O157 1.195 . S
O151 C150 1.313 . S
C152 O153 1.245 . S
C152 O161 1.289 . S
O153 C152 1.245 . S
C154 O155 1.245 . S
C154 O156 1.289 . S
O155 C154 1.245 . S
O156 Mg149 2.141 . S
O156 C154 1.289 . S
O157 Mg149 2.048 . S
O157 C150 1.195 . S
O158 Mg149 2.048 . S
O158 C159 1.195 . S
C159 O158 1.195 . S
C159 O160 1.313 . S
O160 C159 1.313 . S
O161 Mg149 2.141 . S
O161 C152 1.289 . S
C162 C163 1.369 . S
C162 C164 1.419 . S
C162 H166 0.930 . S
C163 C162 1.369 . S
C163 C172 1.429 . S
C164 C162 1.419 . S
C164 C165 1.363 . S
C164 H167 0.929 . S
C165 C164 1.363 . S
C165 C171 1.428 . S
H166 C162 0.930 . S
H167 C164 0.929 . S
S168 N169 1.613 1_655 S
S168 N170 1.610 1_655 S
N169 S168 1.613 1_455 S
N169 C172 1.350 . S
N170 S168 1.610 1_455 S
N170 C171 1.351 . S
C171 C165 1.428 . S
C171 N170 1.351 . S
C171 C172 1.434 . S
C172 C163 1.429 . S
C172 N169 1.350 . S
C172 C171 1.434 . S
C173 C174 1.369 . S
C173 C175 1.419 . S
C173 H177 0.930 . S
C174 C173 1.369 . S
C174 C183 1.429 . S
C175 C173 1.419 . S
C175 C176 1.363 . S
C175 H178 0.929 . S
C176 C175 1.363 . S
C176 C182 1.428 . S
H177 C173 0.930 . S
H178 C175 0.929 . S
S179 N180 1.613 . S
S179 N181 1.610 1_565 S
N180 S179 1.613 . S
N180 C183 1.350 1_565 S
N181 S179 1.610 1_545 S
N181 C182 1.351 . S
C182 C176 1.428 . S
C182 N181 1.351 . S
C182 C183 1.434 . S
C183 C174 1.429 . S
C183 N180 1.350 1_545 S
C183 C182 1.434 . S
C184 C185 1.369 . S
C184 C186 1.419 . S
C184 H188 0.930 . S
C185 C184 1.369 . S
C185 C194 1.429 . S
C186 C184 1.419 . S
C186 C187 1.363 . S
C186 H189 0.929 . S
C187 C186 1.363 . S
C187 C193 1.428 . S
H188 C184 0.930 . S
H189 C186 0.929 . S
S190 N191 1.613 . S
S190 N192 1.610 . S
N191 S190 1.613 . S
N191 C194 1.350 . S
N192 S190 1.610 . S
N192 C193 1.351 . S
C193 C187 1.428 . S
C193 N192 1.351 . S
C193 C194 1.434 . S
C194 C185 1.429 . S
C194 N191 1.350 . S
C194 C193 1.434 . S
C195 C196 1.369 . S
C195 C197 1.419 . S
C195 H199 0.930 . S
C196 C195 1.369 . S
C196 C205 1.429 . S
C197 C195 1.419 . S
C197 C198 1.363 . S
C197 H200 0.929 . S
C198 C197 1.363 . S
C198 C204 1.428 . S
H199 C195 0.930 . S
H200 C197 0.929 . S
S201 N202 1.613 . S
S201 N203 1.632 . S
N202 S201 1.613 . S
N202 C205 1.350 1_455 S
N203 S201 1.632 . S
N203 C204 1.340 1_455 S
C204 C198 1.428 . S
C204 N203 1.340 1_655 S
C204 C205 1.434 . S
C205 C196 1.429 . S
C205 N202 1.350 1_655 S
C205 C204 1.434 . S
C206 C207 1.369 . S
C206 C208 1.419 . S
C206 H210 0.930 . S
C207 C206 1.369 . S
C207 C216 1.429 . S
C208 C206 1.419 . S
C208 C209 1.363 . S
C208 H211 0.929 . S
C209 C208 1.363 . S
C209 C215 1.428 . S
H210 C206 0.930 . S
H211 C208 0.929 . S
S212 N213 1.613 . S
S212 N214 1.610 . S
N213 S212 1.613 . S
N213 C216 1.350 . S
N214 S212 1.610 . S
N214 C215 1.351 . S
C215 C209 1.428 . S
C215 N214 1.351 . S
C215 C216 1.434 . S
C216 C207 1.429 . S
C216 N213 1.350 . S
C216 C215 1.434 . S
C217 C218 1.369 . S
C217 C219 1.419 . S
C217 H221 0.930 . S
C218 C217 1.369 . S
C218 C227 1.429 . S
C219 C217 1.419 . S
C219 C220 1.363 . S
C219 H222 0.929 . S
C220 C219 1.363 . S
C220 C226 1.428 . S
H221 C217 0.930 . S
H222 C219 0.929 . S
S223 N224 1.613 . S
S223 N225 1.610 . S
N224 S223 1.613 . S
N224 C227 1.350 . S
N225 S223 1.610 . S
N225 C226 1.351 . S
C226 C220 1.428 . S
C226 N225 1.351 . S
C226 C227 1.434 . S
C227 C218 1.429 . S
C227 N224 1.350 . S
C227 C226 1.434 . S
C228 C229 1.369 . S
C228 C230 1.419 . S
C228 H232 0.930 1_565 S
C229 C228 1.369 . S
C229 C238 1.429 . S
C230 C228 1.419 . S
C230 C231 1.363 . S
C230 H233 0.929 . S
C231 C230 1.363 . S
C231 C237 1.428 . S
H232 C228 0.930 1_545 S
H233 C230 0.929 . S
S234 N235 1.613 . S
S234 N236 1.610 . S
N235 S234 1.613 . S
N235 C238 1.350 . S
N236 S234 1.610 . S
N236 C237 1.351 . S
C237 C231 1.428 . S
C237 N236 1.351 . S
C237 C238 1.434 . S
C238 C229 1.429 . S
C238 N235 1.350 . S
C238 C237 1.434 . S
C239 C240 1.369 . S
C239 C241 1.419 . S
C239 H243 0.930 . S
C240 C239 1.369 . S
C240 C249 1.429 . S
C241 C239 1.419 . S
C241 C242 1.363 . S
C241 H244 0.929 . S
C242 C241 1.363 . S
C242 C248 1.428 . S
H243 C239 0.930 . S
H244 C241 0.929 . S
S245 N246 1.613 . S
S245 N247 1.610 . S
N246 S245 1.613 . S
N246 C249 1.350 . S
N247 S245 1.610 . S
N247 C248 1.351 . S
C248 C242 1.428 . S
C248 N247 1.351 . S
C248 C249 1.434 . S
C249 C240 1.429 . S
C249 N246 1.350 . S
C249 C248 1.434 . S
C250 C251 1.369 . S
C250 C252 1.419 . S
C250 H254 0.930 . S
C251 C250 1.369 . S
C251 C260 1.429 . S
C252 C250 1.419 . S
C252 C253 1.363 . S
C252 H255 0.929 . S
C253 C252 1.363 . S
C253 C259 1.428 . S
H254 C250 0.930 . S
H255 C252 0.929 . S
S256 N257 1.613 . S
S256 N258 1.610 . S
N257 S256 1.613 . S
N257 C260 1.350 . S
N258 S256 1.610 . S
N258 C259 1.351 . S
C259 C253 1.428 . S
C259 N258 1.351 . S
C259 C260 1.434 . S
C260 C251 1.429 . S
C260 N257 1.350 . S
C260 C259 1.434 . S
C261 C262 1.369 . S
C261 C263 1.419 . S
C261 H265 0.930 . S
C262 C261 1.369 . S
C262 C271 1.429 . S
C263 C261 1.419 . S
C263 C264 1.363 . S
C263 H266 0.929 . S
C264 C263 1.363 . S
C264 C270 1.428 . S
H265 C261 0.930 . S
H266 C263 0.929 . S
S267 N268 1.613 . S
S267 N269 1.610 . S
N268 S267 1.613 . S
N268 C271 1.350 . S
N269 S267 1.610 . S
N269 C270 1.351 . S
C270 C264 1.428 . S
C270 N269 1.351 . S
C270 C271 1.434 . S
C271 C262 1.429 . S
C271 N268 1.350 . S
C271 C270 1.434 . S
C272 C273 1.369 . S
C272 C274 1.419 . S
C272 H276 0.930 . S
C273 C272 1.369 . S
C273 C282 1.429 . S
C274 C272 1.419 . S
C274 C275 1.363 . S
C274 H277 0.929 . S
C275 C274 1.363 . S
C275 C281 1.428 . S
H276 C272 0.930 . S
H277 C274 0.929 . S
S278 N279 1.613 . S
S278 N280 1.610 . S
N279 S278 1.613 . S
N279 C282 1.350 . S
N280 S278 1.610 . S
N280 C281 1.351 . S
C281 C275 1.428 . S
C281 N280 1.351 . S
C281 C282 1.434 . S
C282 C273 1.429 . S
C282 N279 1.350 . S
C282 C281 1.434 . S
C283 C284 1.369 . S
C283 C285 1.419 . S
C283 H287 0.930 . S
C284 C283 1.369 . S
C284 C293 1.429 . S
C285 C283 1.419 . S
C285 C286 1.363 . S
C285 H288 0.929 . S
C286 C285 1.363 . S
C286 C292 1.428 . S
H287 C283 0.930 . S
H288 C285 0.929 . S
S289 N290 1.613 . S
S289 N291 1.610 . S
N290 S289 1.613 . S
N290 C293 1.350 . S
N291 S289 1.610 . S
N291 C292 1.351 . S
C292 C286 1.428 . S
C292 N291 1.351 . S
C292 C293 1.434 . S
C293 C284 1.429 . S
C293 N290 1.350 . S
C293 C292 1.434 . S
C294 C295 1.369 . S
C294 C296 1.419 . S
C294 H298 0.930 1_655 S
C295 C294 1.369 . S
C295 C304 1.429 . S
C296 C294 1.419 . S
C296 C297 1.363 . S
C296 H299 0.929 . S
C297 C296 1.363 . S
C297 C303 1.428 . S
H298 C294 0.930 1_455 S
H299 C296 0.929 . S
S300 N301 1.613 . S
S300 N302 1.610 . S
N301 S300 1.613 . S
N301 C304 1.350 . S
N302 S300 1.610 . S
N302 C303 1.351 . S
C303 C297 1.428 . S
C303 N302 1.351 . S
C303 C304 1.434 . S
C304 C295 1.429 . S
C304 N301 1.350 . S
C304 C303 1.434 . S
C305 C306 1.369 . S
C305 C307 1.419 . S
C305 H309 0.930 . S
C306 C305 1.369 . S
C306 C315 1.429 . S
C307 C305 1.419 . S
C307 C308 1.363 . S
C307 H310 0.929 . S
C308 C307 1.363 . S
C308 C314 1.428 . S
H309 C305 0.930 . S
H310 C307 0.929 . S
S311 N312 1.613 . S
S311 N313 1.610 . S
N312 S311 1.613 . S
N312 C315 1.350 . S
N313 S311 1.610 . S
N313 C314 1.351 . S
C314 C308 1.428 . S
C314 N313 1.351 . S
C314 C315 1.434 . S
C315 C306 1.429 . S
C315 N312 1.350 . S
C315 C314 1.434 . S
C316 C317 1.369 . S
C316 C318 1.419 . S
C316 H320 0.930 . S
C317 C316 1.369 . S
C317 C326 1.429 . S
C318 C316 1.419 . S
C318 C319 1.363 . S
C318 H321 0.929 . S
C319 C318 1.363 . S
C319 C325 1.428 . S
H320 C316 0.930 . S
H321 C318 0.929 . S
S322 N323 1.613 . S
S322 N324 1.610 . S
N323 S322 1.613 . S
N323 C326 1.350 . S
N324 S322 1.610 . S
N324 C325 1.351 . S
C325 C319 1.428 . S
C325 N324 1.351 . S
C325 C326 1.434 . S
C326 C317 1.429 . S
C326 N323 1.350 . S
C326 C325 1.434 . S
C327 C328 1.369 . S
C327 C329 1.419 . S
C327 H331 0.930 . S
C328 C327 1.369 . S
C328 C337 1.429 . S
C329 C327 1.419 . S
C329 C330 1.363 . S
C329 H332 0.929 . S
C330 C329 1.363 . S
C330 C336 1.428 . S
H331 C327 0.930 . S
H332 C329 0.929 . S
S333 N334 1.613 . S
S333 N335 1.610 . S
N334 S333 1.613 . S
N334 C337 1.350 . S
N335 S333 1.610 . S
N335 C336 1.351 . S
C336 C330 1.428 . S
C336 N335 1.351 . S
C336 C337 1.434 . S
C337 C328 1.429 . S
C337 N334 1.350 . S
C337 C336 1.434 . S
C338 C339 1.369 . S
C338 C340 1.419 . S
C338 H342 0.930 . S
C339 C338 1.369 . S
C339 C348 1.429 . S
C340 C338 1.419 . S
C340 C341 1.363 . S
C340 H343 0.929 . S
C341 C340 1.363 . S
C341 C347 1.428 . S
H342 C338 0.930 . S
H343 C340 0.929 . S
S344 N345 1.613 . S
S344 N346 1.610 . S
N345 S344 1.613 . S
N345 C348 1.350 . S
N346 S344 1.610 . S
N346 C347 1.351 . S
C347 C341 1.428 . S
C347 N346 1.351 . S
C347 C348 1.434 . S
C348 C339 1.429 . S
C348 N345 1.350 . S
C348 C347 1.434 . S
C349 C350 1.369 . S
C349 C351 1.419 . S
C349 H353 0.930 . S
C350 C349 1.369 . S
C350 C359 1.429 . S
C351 C349 1.419 . S
C351 C352 1.363 . S
C351 H354 0.929 . S
C352 C351 1.363 . S
C352 C358 1.428 . S
H353 C349 0.930 . S
H354 C351 0.929 . S
S355 N356 1.613 . S
S355 N357 1.610 . S
N356 S355 1.613 . S
N356 C359 1.350 . S
N357 S355 1.610 . S
N357 C358 1.351 . S
C358 C352 1.428 . S
C358 N357 1.351 . S
C358 C359 1.434 . S
C359 C350 1.429 . S
C359 N356 1.350 . S
C359 C358 1.434 . S
C360 C361 1.369 . S
C360 C362 1.419 . S
C360 H364 0.930 . S
C361 C360 1.369 . S
C361 C370 1.429 . S
C362 C360 1.419 . S
C362 C363 1.363 . S
C362 H365 0.929 . S
C363 C362 1.363 . S
C363 C369 1.428 . S
H364 C360 0.930 . S
H365 C362 0.929 . S
S366 N367 1.613 . S
S366 N368 1.610 . S
N367 S366 1.613 . S
N367 C370 1.350 . S
N368 S366 1.610 . S
N368 C369 1.351 . S
C369 C363 1.428 . S
C369 N368 1.351 . S
C369 C370 1.434 . S
C370 C361 1.429 . S
C370 N367 1.350 . S
C370 C369 1.434 . S
C371 C372 1.369 . S
C371 C373 1.419 . S
C371 H375 0.930 . S
C372 C371 1.369 . S
C372 C381 1.429 . S
C373 C371 1.419 . S
C373 C374 1.363 . S
C373 H376 0.929 . S
C374 C373 1.363 . S
C374 C380 1.428 . S
H375 C371 0.930 . S
H376 C373 0.929 . S
S377 N378 1.613 . S
S377 N379 1.610 . S
N378 S377 1.613 . S
N378 C381 1.350 . S
N379 S377 1.610 . S
N379 C380 1.351 . S
C380 C374 1.428 . S
C380 N379 1.351 . S
C380 C381 1.434 . S
C381 C372 1.429 . S
C381 N378 1.350 . S
C381 C380 1.434 . S
C382 C383 1.369 . S
C382 C384 1.419 . S
C382 H386 0.930 . S
C383 C382 1.369 . S
C383 C392 1.429 . S
C384 C382 1.419 . S
C384 C385 1.363 . S
C384 H387 0.929 . S
C385 C384 1.363 . S
C385 C391 1.428 . S
H386 C382 0.930 . S
H387 C384 0.929 . S
S388 N389 1.613 . S
S388 N390 1.610 . S
N389 S388 1.613 . S
N389 C392 1.350 . S
N390 S388 1.610 . S
N390 C391 1.351 . S
C391 C385 1.428 . S
C391 N390 1.351 . S
C391 C392 1.434 . S
C392 C383 1.429 . S
C392 N389 1.350 . S
C392 C391 1.434 . S
C393 C394 1.369 . S
C393 C395 1.419 . S
C393 H397 0.930 . S
C394 C393 1.369 . S
C394 C403 1.429 . S
C395 C393 1.419 . S
C395 C396 1.363 . S
C395 H398 0.929 . S
C396 C395 1.363 . S
C396 C402 1.428 . S
H397 C393 0.930 . S
H398 C395 0.929 . S
S399 N400 1.613 . S
S399 N401 1.610 . S
N400 S399 1.613 . S
N400 C403 1.350 . S
N401 S399 1.610 . S
N401 C402 1.351 . S
C402 C396 1.428 . S
C402 N401 1.351 . S
C402 C403 1.434 . S
C403 C394 1.429 . S
C403 N400 1.350 . S
C403 C402 1.434 . S
C404 C405 1.369 . S
C404 C406 1.419 . S
C404 H408 0.930 . S
C405 C404 1.369 . S
C405 C414 1.429 . S
C406 C404 1.419 . S
C406 C407 1.363 . S
C406 H409 0.929 . S
C407 C406 1.363 . S
C407 C413 1.428 . S
H408 C404 0.930 . S
H409 C406 0.929 . S
S410 N411 1.613 . S
S410 N412 1.610 . S
N411 S410 1.613 . S
N411 C414 1.350 . S
N412 S410 1.610 . S
N412 C413 1.351 . S
C413 C407 1.428 . S
C413 N412 1.351 . S
C413 C414 1.434 . S
C414 C405 1.429 . S
C414 N411 1.350 . S
C414 C413 1.434 . S
C415 C416 1.369 . S
C415 C417 1.419 . S
C415 H419 0.930 . S
C416 C415 1.369 . S
C416 C425 1.429 . S
C417 C415 1.419 . S
C417 C418 1.363 . S
C417 H420 0.929 . S
C418 C417 1.363 . S
C418 C424 1.428 . S
H419 C415 0.930 . S
H420 C417 0.929 . S
S421 N422 1.613 . S
S421 N423 1.610 . S
N422 S421 1.613 . S
N422 C425 1.350 . S
N423 S421 1.610 . S
N423 C424 1.351 . S
C424 C418 1.428 . S
C424 N423 1.351 . S
C424 C425 1.434 . S
C425 C416 1.429 . S
C425 N422 1.350 . S
C425 C424 1.434 . S
C163 C13 1.685 . S
C165 C85 1.676 . S
C174 C27 1.686 . S
C176 C98 1.675 . S
C187 C120 1.593 . S
C185 C29 1.687 . S
C198 C133 1.596 . S
C196 C54 1.687 . S
C209 C146 1.591 . S
C207 C69 1.689 . S
C220 C159 1.590 . S
C218 C83 1.688 . S
C229 C15 1.679 . S
C231 C115 1.568 . S
C240 C41 1.678 . S
C242 C128 1.572 . S
C253 C141 1.569 . S
C251 C42 1.679 . S
C264 C154 1.574 . S
C262 C57 1.677 . S
C273 C71 1.677 . S
C275 C87 1.675 . S
C286 C100 1.675 . S
C284 C1 1.677 . S
C297 C126 1.566 . S
C295 C12 1.681 . S
C306 C26 1.680 . S
C308 C139 1.570 . S
C319 C152 1.574 . S
C317 C28 1.677 . S
C328 C55 1.678 . S
C330 C89 1.675 . S
C339 C68 1.681 . S
C341 C102 1.672 . S
C350 C82 1.680 . S
C352 C113 1.567 . S
C361 C14 1.687 . S
C363 C150 1.594 . S
C374 C94 1.674 . S
C372 C40 1.687 . S
C383 C43 1.686 . S
C385 C107 1.676 . S
C394 C56 1.687 . S
C396 C111 1.594 . S
C405 C70 1.685 . S
C407 C124 1.598 . S
C416 C0 1.686 . S
C418 C137 1.596 . S
