# Generated by pormake.
# Topology gar, (4,6)-cn, num edge types: 1
# Building blocks:
#     Node 0, Type 0, BuildingBlock: KUFVIS_clean_sbu_0, # of connection points: 4
#     Node 1, Type 0, BuildingBlock: KUFVIS_clean_sbu_0, # of connection points: 4
#     Node 2, Type 0, BuildingBlock: KUFVIS_clean_sbu_0, # of connection points: 4
#     Node 3, Type 0, BuildingBlock: KUFVIS_clean_sbu_0, # of connection points: 4
#     Node 4, Type 0, BuildingBlock: KUFVIS_clean_sbu_0, # of connection points: 4
#     Node 5, Type 0, BuildingBlock: KUFVIS_clean_sbu_0, # of connection points: 4
#     Node 6, Type 0, BuildingBlock: KUFVIS_clean_sbu_0, # of connection points: 4
#     Node 7, Type 0, BuildingBlock: KUFVIS_clean_sbu_0, # of connection points: 4
#     Node 8, Type 0, BuildingBlock: KUFVIS_clean_sbu_0, # of connection points: 4
#     Node 9, Type 0, BuildingBlock: KUFVIS_clean_sbu_0, # of connection points: 4
#     Node 10, Type 0, BuildingBlock: KUFVIS_clean_sbu_0, # of connection points: 4
#     Node 11, Type 0, BuildingBlock: KUFVIS_clean_sbu_0, # of connection points: 4
#     Node 12, Type 0, BuildingBlock: KUFVIS_clean_sbu_0, # of connection points: 4
#     Node 13, Type 0, BuildingBlock: KUFVIS_clean_sbu_0, # of connection points: 4
#     Node 14, Type 0, BuildingBlock: KUFVIS_clean_sbu_0, # of connection points: 4
#     Node 15, Type 0, BuildingBlock: KUFVIS_clean_sbu_0, # of connection points: 4
#     Node 16, Type 0, BuildingBlock: KUFVIS_clean_sbu_0, # of connection points: 4
#     Node 17, Type 0, BuildingBlock: KUFVIS_clean_sbu_0, # of connection points: 4
#     Node 18, Type 0, BuildingBlock: KUFVIS_clean_sbu_0, # of connection points: 4
#     Node 19, Type 0, BuildingBlock: KUFVIS_clean_sbu_0, # of connection points: 4
#     Node 20, Type 0, BuildingBlock: KUFVIS_clean_sbu_0, # of connection points: 4
#     Node 21, Type 0, BuildingBlock: KUFVIS_clean_sbu_0, # of connection points: 4
#     Node 22, Type 0, BuildingBlock: KUFVIS_clean_sbu_0, # of connection points: 4
#     Node 23, Type 0, BuildingBlock: KUFVIS_clean_sbu_0, # of connection points: 4
#     Node 24, Type 1, BuildingBlock: CUKXOW_clean_sbu_0, # of connection points: 6
#     Node 25, Type 1, BuildingBlock: CUKXOW_clean_sbu_0, # of connection points: 6
#     Node 26, Type 1, BuildingBlock: CUKXOW_clean_sbu_0, # of connection points: 6
#     Node 27, Type 1, BuildingBlock: CUKXOW_clean_sbu_0, # of connection points: 6
#     Node 28, Type 1, BuildingBlock: CUKXOW_clean_sbu_0, # of connection points: 6
#     Node 29, Type 1, BuildingBlock: CUKXOW_clean_sbu_0, # of connection points: 6
#     Node 30, Type 1, BuildingBlock: CUKXOW_clean_sbu_0, # of connection points: 6
#     Node 31, Type 1, BuildingBlock: CUKXOW_clean_sbu_0, # of connection points: 6
#     Node 32, Type 1, BuildingBlock: CUKXOW_clean_sbu_0, # of connection points: 6
#     Node 33, Type 1, BuildingBlock: CUKXOW_clean_sbu_0, # of connection points: 6
#     Node 34, Type 1, BuildingBlock: CUKXOW_clean_sbu_0, # of connection points: 6
#     Node 35, Type 1, BuildingBlock: CUKXOW_clean_sbu_0, # of connection points: 6
#     Node 36, Type 1, BuildingBlock: CUKXOW_clean_sbu_0, # of connection points: 6
#     Node 37, Type 1, BuildingBlock: CUKXOW_clean_sbu_0, # of connection points: 6
#     Node 38, Type 1, BuildingBlock: CUKXOW_clean_sbu_0, # of connection points: 6
#     Node 39, Type 1, BuildingBlock: CUKXOW_clean_sbu_0, # of connection points: 6
#     Edge 40, Type (0, 1), BuildingBlock: KIFKEQ_clean_linker_1, # of connection points: 2
#     Edge 41, Type (0, 1), BuildingBlock: KIFKEQ_clean_linker_1, # of connection points: 2
#     Edge 42, Type (0, 1), BuildingBlock: KIFKEQ_clean_linker_1, # of connection points: 2
#     Edge 43, Type (0, 1), BuildingBlock: KIFKEQ_clean_linker_1, # of connection points: 2
#     Edge 44, Type (0, 1), BuildingBlock: KIFKEQ_clean_linker_1, # of connection points: 2
#     Edge 45, Type (0, 1), BuildingBlock: KIFKEQ_clean_linker_1, # of connection points: 2
#     Edge 46, Type (0, 1), BuildingBlock: KIFKEQ_clean_linker_1, # of connection points: 2
#     Edge 47, Type (0, 1), BuildingBlock: KIFKEQ_clean_linker_1, # of connection points: 2
#     Edge 48, Type (0, 1), BuildingBlock: KIFKEQ_clean_linker_1, # of connection points: 2
#     Edge 49, Type (0, 1), BuildingBlock: KIFKEQ_clean_linker_1, # of connection points: 2
#     Edge 50, Type (0, 1), BuildingBlock: KIFKEQ_clean_linker_1, # of connection points: 2
#     Edge 51, Type (0, 1), BuildingBlock: KIFKEQ_clean_linker_1, # of connection points: 2
#     Edge 52, Type (0, 1), BuildingBlock: KIFKEQ_clean_linker_1, # of connection points: 2
#     Edge 53, Type (0, 1), BuildingBlock: KIFKEQ_clean_linker_1, # of connection points: 2
#     Edge 54, Type (0, 1), BuildingBlock: KIFKEQ_clean_linker_1, # of connection points: 2
#     Edge 55, Type (0, 1), BuildingBlock: KIFKEQ_clean_linker_1, # of connection points: 2
#     Edge 56, Type (0, 1), BuildingBlock: KIFKEQ_clean_linker_1, # of connection points: 2
#     Edge 57, Type (0, 1), BuildingBlock: KIFKEQ_clean_linker_1, # of connection points: 2
#     Edge 58, Type (0, 1), BuildingBlock: KIFKEQ_clean_linker_1, # of connection points: 2
#     Edge 59, Type (0, 1), BuildingBlock: KIFKEQ_clean_linker_1, # of connection points: 2
#     Edge 60, Type (0, 1), BuildingBlock: KIFKEQ_clean_linker_1, # of connection points: 2
#     Edge 61, Type (0, 1), BuildingBlock: KIFKEQ_clean_linker_1, # of connection points: 2
#     Edge 62, Type (0, 1), BuildingBlock: KIFKEQ_clean_linker_1, # of connection points: 2
#     Edge 63, Type (0, 1), BuildingBlock: KIFKEQ_clean_linker_1, # of connection points: 2
#     Edge 64, Type (0, 1), BuildingBlock: KIFKEQ_clean_linker_1, # of connection points: 2
#     Edge 65, Type (0, 1), BuildingBlock: KIFKEQ_clean_linker_1, # of connection points: 2
#     Edge 66, Type (0, 1), BuildingBlock: KIFKEQ_clean_linker_1, # of connection points: 2
#     Edge 67, Type (0, 1), BuildingBlock: KIFKEQ_clean_linker_1, # of connection points: 2
#     Edge 68, Type (0, 1), BuildingBlock: KIFKEQ_clean_linker_1, # of connection points: 2
#     Edge 69, Type (0, 1), BuildingBlock: KIFKEQ_clean_linker_1, # of connection points: 2
#     Edge 70, Type (0, 1), BuildingBlock: KIFKEQ_clean_linker_1, # of connection points: 2
#     Edge 71, Type (0, 1), BuildingBlock: KIFKEQ_clean_linker_1, # of connection points: 2
#     Edge 72, Type (0, 1), BuildingBlock: KIFKEQ_clean_linker_1, # of connection points: 2
#     Edge 73, Type (0, 1), BuildingBlock: KIFKEQ_clean_linker_1, # of connection points: 2
#     Edge 74, Type (0, 1), BuildingBlock: KIFKEQ_clean_linker_1, # of connection points: 2
#     Edge 75, Type (0, 1), BuildingBlock: KIFKEQ_clean_linker_1, # of connection points: 2
#     Edge 76, Type (0, 1), BuildingBlock: KIFKEQ_clean_linker_1, # of connection points: 2
#     Edge 77, Type (0, 1), BuildingBlock: KIFKEQ_clean_linker_1, # of connection points: 2
#     Edge 78, Type (0, 1), BuildingBlock: KIFKEQ_clean_linker_1, # of connection points: 2
#     Edge 79, Type (0, 1), BuildingBlock: KIFKEQ_clean_linker_1, # of connection points: 2
#     Edge 80, Type (0, 1), BuildingBlock: KIFKEQ_clean_linker_1, # of connection points: 2
#     Edge 81, Type (0, 1), BuildingBlock: KIFKEQ_clean_linker_1, # of connection points: 2
#     Edge 82, Type (0, 1), BuildingBlock: KIFKEQ_clean_linker_1, # of connection points: 2
#     Edge 83, Type (0, 1), BuildingBlock: KIFKEQ_clean_linker_1, # of connection points: 2
#     Edge 84, Type (0, 1), BuildingBlock: KIFKEQ_clean_linker_1, # of connection points: 2
#     Edge 85, Type (0, 1), BuildingBlock: KIFKEQ_clean_linker_1, # of connection points: 2
#     Edge 86, Type (0, 1), BuildingBlock: KIFKEQ_clean_linker_1, # of connection points: 2
#     Edge 87, Type (0, 1), BuildingBlock: KIFKEQ_clean_linker_1, # of connection points: 2
#     Edge 88, Type (0, 1), BuildingBlock: KIFKEQ_clean_linker_1, # of connection points: 2
#     Edge 89, Type (0, 1), BuildingBlock: KIFKEQ_clean_linker_1, # of connection points: 2
#     Edge 90, Type (0, 1), BuildingBlock: KIFKEQ_clean_linker_1, # of connection points: 2
#     Edge 91, Type (0, 1), BuildingBlock: KIFKEQ_clean_linker_1, # of connection points: 2
#     Edge 92, Type (0, 1), BuildingBlock: KIFKEQ_clean_linker_1, # of connection points: 2
#     Edge 93, Type (0, 1), BuildingBlock: KIFKEQ_clean_linker_1, # of connection points: 2
#     Edge 94, Type (0, 1), BuildingBlock: KIFKEQ_clean_linker_1, # of connection points: 2
#     Edge 95, Type (0, 1), BuildingBlock: KIFKEQ_clean_linker_1, # of connection points: 2
#     Edge 96, Type (0, 1), BuildingBlock: KIFKEQ_clean_linker_1, # of connection points: 2
#     Edge 97, Type (0, 1), BuildingBlock: KIFKEQ_clean_linker_1, # of connection points: 2
#     Edge 98, Type (0, 1), BuildingBlock: KIFKEQ_clean_linker_1, # of connection points: 2
#     Edge 99, Type (0, 1), BuildingBlock: KIFKEQ_clean_linker_1, # of connection points: 2
#     Edge 100, Type (0, 1), BuildingBlock: KIFKEQ_clean_linker_1, # of connection points: 2
#     Edge 101, Type (0, 1), BuildingBlock: KIFKEQ_clean_linker_1, # of connection points: 2
#     Edge 102, Type (0, 1), BuildingBlock: KIFKEQ_clean_linker_1, # of connection points: 2
#     Edge 103, Type (0, 1), BuildingBlock: KIFKEQ_clean_linker_1, # of connection points: 2
#     Edge 104, Type (0, 1), BuildingBlock: KIFKEQ_clean_linker_1, # of connection points: 2
#     Edge 105, Type (0, 1), BuildingBlock: KIFKEQ_clean_linker_1, # of connection points: 2
#     Edge 106, Type (0, 1), BuildingBlock: KIFKEQ_clean_linker_1, # of connection points: 2
#     Edge 107, Type (0, 1), BuildingBlock: KIFKEQ_clean_linker_1, # of connection points: 2
#     Edge 108, Type (0, 1), BuildingBlock: KIFKEQ_clean_linker_1, # of connection points: 2
#     Edge 109, Type (0, 1), BuildingBlock: KIFKEQ_clean_linker_1, # of connection points: 2
#     Edge 110, Type (0, 1), BuildingBlock: KIFKEQ_clean_linker_1, # of connection points: 2
#     Edge 111, Type (0, 1), BuildingBlock: KIFKEQ_clean_linker_1, # of connection points: 2
#     Edge 112, Type (0, 1), BuildingBlock: KIFKEQ_clean_linker_1, # of connection points: 2
#     Edge 113, Type (0, 1), BuildingBlock: KIFKEQ_clean_linker_1, # of connection points: 2
#     Edge 114, Type (0, 1), BuildingBlock: KIFKEQ_clean_linker_1, # of connection points: 2
#     Edge 115, Type (0, 1), BuildingBlock: KIFKEQ_clean_linker_1, # of connection points: 2
#     Edge 116, Type (0, 1), BuildingBlock: KIFKEQ_clean_linker_1, # of connection points: 2
#     Edge 117, Type (0, 1), BuildingBlock: KIFKEQ_clean_linker_1, # of connection points: 2
#     Edge 118, Type (0, 1), BuildingBlock: KIFKEQ_clean_linker_1, # of connection points: 2
#     Edge 119, Type (0, 1), BuildingBlock: KIFKEQ_clean_linker_1, # of connection points: 2
#     Edge 120, Type (0, 1), BuildingBlock: KIFKEQ_clean_linker_1, # of connection points: 2
#     Edge 121, Type (0, 1), BuildingBlock: KIFKEQ_clean_linker_1, # of connection points: 2
#     Edge 122, Type (0, 1), BuildingBlock: KIFKEQ_clean_linker_1, # of connection points: 2
#     Edge 123, Type (0, 1), BuildingBlock: KIFKEQ_clean_linker_1, # of connection points: 2
#     Edge 124, Type (0, 1), BuildingBlock: KIFKEQ_clean_linker_1, # of connection points: 2
#     Edge 125, Type (0, 1), BuildingBlock: KIFKEQ_clean_linker_1, # of connection points: 2
#     Edge 126, Type (0, 1), BuildingBlock: KIFKEQ_clean_linker_1, # of connection points: 2
#     Edge 127, Type (0, 1), BuildingBlock: KIFKEQ_clean_linker_1, # of connection points: 2
#     Edge 128, Type (0, 1), BuildingBlock: KIFKEQ_clean_linker_1, # of connection points: 2
#     Edge 129, Type (0, 1), BuildingBlock: KIFKEQ_clean_linker_1, # of connection points: 2
#     Edge 130, Type (0, 1), BuildingBlock: KIFKEQ_clean_linker_1, # of connection points: 2
#     Edge 131, Type (0, 1), BuildingBlock: KIFKEQ_clean_linker_1, # of connection points: 2
#     Edge 132, Type (0, 1), BuildingBlock: KIFKEQ_clean_linker_1, # of connection points: 2
#     Edge 133, Type (0, 1), BuildingBlock: KIFKEQ_clean_linker_1, # of connection points: 2
#     Edge 134, Type (0, 1), BuildingBlock: KIFKEQ_clean_linker_1, # of connection points: 2
#     Edge 135, Type (0, 1), BuildingBlock: KIFKEQ_clean_linker_1, # of connection points: 2
# Relax obj value: 0.106
# Max RMSD: 0.220
# Mean RMSD: 0.117
data_MOF--net-gar--node1-KUFVIS_clean_sbu_0--node2-CUKXOW_clean_sbu_0--edge1-KIFKEQ_clean_linker_1
_symmetry_space_group_name_H-M    P1
_symmetry_Int_Tables_number       1
_symmetry_cell_setting            triclinic
loop_
_symmetry_equiv_pos_as_xyz
'x, y, z'
_cell_length_a     55.090192
_cell_length_b     53.888316
_cell_length_c     55.253327
_cell_angle_alpha  93.508746
_cell_angle_beta   95.075155
_cell_angle_gamma 98.725206
loop_
_atom_site_label
_atom_site_type_symbol
_atom_site_fract_x
_atom_site_fract_y
_atom_site_fract_z
_atom_type_partial_charge
Mn0 Mn 0.02661 0.28106 0.43623 0.0
Mn1 Mn 0.02705 0.31765 0.38867 0.0
C2 C 0.99019 0.28994 0.41733 0.0
C3 C 0.02559 0.24271 0.4534 0.0
C4 C 0.04095 0.33842 0.44091 0.0
O5 O 0.06062 0.27965 0.42483 0.0
O6 O 0.05814 0.30376 0.39294 0.0
C7 C 0.02642 0.27778 0.34917 0.0
N8 N 0.01621 0.29696 0.35922 0.0
C9 C 0.98464 0.29292 0.32559 0.0
C10 C 0.99486 0.27318 0.31482 0.0
C11 C 0.01578 0.26551 0.32672 0.0
C12 C 0.99591 0.30427 0.34808 0.0
H13 H 0.04255 0.2719 0.35821 0.0
C14 C 0.06945 0.29004 0.40667 0.0
O15 O 0.03462 0.26384 0.46571 0.0
O16 O 0.01764 0.24371 0.43067 0.0
N17 N 0.99778 0.3322 0.38227 0.0
C18 C 0.98992 0.35119 0.39536 0.0
C19 C 0.96929 0.36121 0.38592 0.0
C20 C 0.95715 0.35181 0.36303 0.0
C21 C 0.9656 0.33229 0.34987 0.0
C22 C 0.98633 0.32315 0.36015 0.0
H23 H 0.9994 0.35876 0.41279 0.0
O24 O 0.99111 0.28356 0.43964 0.0
O25 O 0.01048 0.29114 0.40698 0.0
O26 O 0.03727 0.31732 0.4502 0.0
O27 O 0.03792 0.34073 0.41805 0.0
C28 C 0.9543 0.32155 0.32696 0.0
C29 C 0.96366 0.30171 0.31494 0.0
H30 H 0.98676 0.26373 0.29747 0.0
H31 H 0.02374 0.25025 0.31855 0.0
H32 H 0.96287 0.37627 0.39617 0.0
H33 H 0.94139 0.35977 0.35574 0.0
H34 H 0.93828 0.32826 0.3185 0.0
H35 H 0.95461 0.29338 0.2975 0.0
Mn36 Mn 0.00964 0.79686 0.61109 0.0
Mn37 Mn 0.03017 0.83878 0.65939 0.0
C38 C 0.04952 0.80031 0.62888 0.0
C39 C 0.99108 0.75742 0.59362 0.0
C40 C 0.02384 0.85354 0.60764 0.0
O41 O 0.9778 0.80492 0.62337 0.0
O42 O 0.99372 0.83167 0.65592 0.0
C43 C 0.01403 0.80673 0.69847 0.0
N44 N 0.03232 0.82121 0.68832 0.0
C45 C 0.06228 0.816 0.72126 0.0
C46 C 0.04375 0.8011 0.73213 0.0
C47 C 0.01955 0.79634 0.72062 0.0
C48 C 0.05574 0.82556 0.69903 0.0
H49 H 0.99537 0.80317 0.68976 0.0
C50 C 0.97553 0.81921 0.64207 0.0
O51 O 0.99177 0.77736 0.58153 0.0
O52 O 1.00029 0.76056 0.61628 0.0
N53 N 0.0653 0.84737 0.66517 0.0
C54 C 0.08105 0.86201 0.65222 0.0
C55 C 0.10603 0.86843 0.66119 0.0
C56 C 0.11446 0.86014 0.68357 0.0
C57 C 0.0978 0.84553 0.6968 0.0
C58 C 0.07315 0.83966 0.68691 0.0
H59 H 0.07462 0.86874 0.63518 0.0
O60 O 0.04396 0.79093 0.60653 0.0
O61 O 0.03173 0.80739 0.64006 0.0
O62 O 0.01644 0.83137 0.59788 0.0
O63 O 0.02918 0.85854 0.63053 0.0
C64 C 0.10469 0.83661 0.71944 0.0
C65 C 0.08697 0.82172 0.73159 0.0
H66 H 0.04791 0.79317 0.74928 0.0
H67 H 1.00516 0.78481 0.72886 0.0
H68 H 0.11873 0.87983 0.65093 0.0
H69 H 0.13374 0.86511 0.69043 0.0
H70 H 0.12362 0.84087 0.72755 0.0
H71 H 0.09257 0.81471 0.74883 0.0
Mn72 Mn 0.53306 0.77829 0.93672 0.0
Mn73 Mn 0.53346 0.81732 0.89118 0.0
C74 C 0.49658 0.78809 0.91882 0.0
C75 C 0.53224 0.73939 0.9523 0.0
C76 C 0.54721 0.83545 0.9441 0.0
O77 O 0.56694 0.77737 0.92485 0.0
O78 O 0.56458 0.80324 0.89442 0.0
C79 C 0.53275 0.77931 0.84995 0.0
N80 N 0.52255 0.79798 0.86096 0.0
C81 C 0.49066 0.79511 0.82775 0.0
C82 C 0.50088 0.77592 0.816 0.0
C83 C 0.52196 0.76793 0.8272 0.0
C84 C 0.5021 0.8056 0.85049 0.0
H85 H 0.54898 0.77314 0.85845 0.0
C86 C 0.57582 0.78861 0.90715 0.0
O87 O 0.54154 0.76002 0.96528 0.0
O88 O 0.52384 0.74119 0.92983 0.0
N89 N 0.50417 0.83208 0.88574 0.0
C90 C 0.49633 0.85045 0.89972 0.0
C91 C 0.47554 0.86068 0.89105 0.0
C92 C 0.46321 0.85212 0.86804 0.0
C93 C 0.47164 0.83325 0.85395 0.0
C94 C 0.49255 0.82388 0.86347 0.0
H95 H 0.50592 0.85735 0.91729 0.0
O96 O 0.49767 0.78066 0.94075 0.0
O97 O 0.51678 0.78975 0.90824 0.0
O98 O 0.54377 0.81377 0.95214 0.0
O99 O 0.5443 0.83911 0.9215 0.0
C100 C 0.46015 0.82337 0.83084 0.0
C101 C 0.46951 0.80415 0.81785 0.0
H102 H 0.49266 0.76715 0.79842 0.0
H103 H 0.52991 0.75308 0.81828 0.0
H104 H 0.46914 0.87523 0.90202 0.0
H105 H 0.44731 0.86023 0.86137 0.0
H106 H 0.444 0.83028 0.82295 0.0
H107 H 0.46032 0.79647 0.80025 0.0
Mn108 Mn 0.50289 0.29043 0.11443 0.0
Mn109 Mn 0.45656 0.27838 0.06893 0.0
C110 C 0.48845 0.24978 0.09844 0.0
C111 C 0.54384 0.29944 0.13 0.0
C112 C 0.4489 0.29257 0.12104 0.0
O113 O 0.50348 0.32443 0.10044 0.0
O114 O 0.47291 0.31391 0.06979 0.0
C115 C 0.48603 0.28408 0.02671 0.0
N116 N 0.46932 0.26983 0.03897 0.0
C117 C 0.46486 0.23537 1.00824 0.0
C118 C 0.48182 0.24979 0.99517 0.0
C119 C 0.49249 0.27423 1.00449 0.0
C120 C 0.45895 0.24628 0.03017 0.0
H121 H 0.49447 0.30277 0.0339 0.0
C122 C 0.49018 0.32969 0.08191 0.0
O123 O 0.52635 0.30512 0.14246 0.0
O124 O 0.5377 0.28923 0.10794 0.0
N125 N 0.43997 0.24427 0.06615 0.0
C126 C 0.42578 0.23203 0.08206 0.0
C127 C 0.41469 0.20692 0.07607 0.0
C128 C 0.41831 0.19467 0.0538 0.0
C129 C 0.43302 0.20765 0.03773 0.0
C130 C 0.44342 0.23272 0.04459 0.0
H131 H 0.42316 0.24125 0.0993 0.0
O132 O 0.49914 0.25378 0.12055 0.0
O133 O 0.48589 0.26955 0.08691 0.0
O134 O 0.47137 0.29439 0.12923 0.0
O135 O 0.44096 0.2864 0.09877 0.0
C136 C 0.43829 0.19647 0.01547 0.0
C137 C 0.45418 0.21033 1.00072 0.0
H138 H 0.48703 0.24217 0.97814 0.0
H139 H 0.50575 0.28539 0.99461 0.0
H140 H 0.40351 0.19698 0.08865 0.0
H141 H 0.40997 0.17521 0.04937 0.0
H142 H 0.43058 0.17708 1.00974 0.0
H143 H 0.45845 0.20138 0.98387 0.0
Mn144 Mn 1.00283 0.76419 0.16827 0.0
Mn145 Mn 0.95883 0.7482 0.1209 0.0
C146 C 0.99542 0.72343 0.14953 0.0
C147 C 0.04359 0.77856 0.18532 0.0
C148 C 0.94691 0.75666 0.17311 0.0
O149 O 0.99835 0.79838 0.15555 0.0
O150 O 0.96992 0.78517 0.12346 0.0
C151 C 0.98797 0.76133 0.07966 0.0
N152 N 0.97337 0.74395 0.09109 0.0
C153 C 0.97364 0.71213 0.05865 0.0
C154 C 0.9886 0.7297 0.0465 0.0
C155 C 0.99584 0.75439 0.05709 0.0
C156 C 0.96628 0.72016 0.08105 0.0
H157 H 0.99354 0.78034 0.08771 0.0
C158 C 0.98461 0.80252 0.13672 0.0
O159 O 0.02481 0.7798 0.19766 0.0
O160 O 0.03872 0.76991 0.16267 0.0
N161 N 0.94723 0.71276 0.11644 0.0
C162 C 0.93466 0.69758 0.13152 0.0
C163 C 0.92722 0.67192 0.12425 0.0
C164 C 0.93262 0.6622 0.10152 0.0
C165 C 0.94551 0.67822 0.08629 0.0
C166 C 0.9525 0.7036 0.09452 0.0
H167 H 0.93049 0.70498 0.14902 0.0
O168 O 1.00489 0.72761 0.17205 0.0
O169 O 0.98966 0.74299 0.13914 0.0
O170 O 0.96926 0.76114 0.18256 0.0
O171 O 0.94114 0.75169 0.15028 0.0
C172 C 0.95211 0.66991 0.06347 0.0
C173 C 0.96618 0.68684 0.04967 0.0
H174 H 0.99482 0.72439 0.02914 0.0
H175 H 1.00747 0.76804 0.04786 0.0
H176 H 0.91736 0.65966 0.13615 0.0
H177 H 0.927 0.64236 0.09608 0.0
H178 H 0.94693 0.65042 0.05657 0.0
H179 H 0.97155 0.68008 0.03237 0.0
Mn180 Mn 0.52942 0.79812 0.38623 0.0
Mn181 Mn 0.52218 0.83226 0.33748 0.0
C182 C 0.49011 0.79911 0.36753 0.0
C183 C 0.53608 0.76202 0.40561 0.0
C184 C 0.53147 0.85565 0.38941 0.0
O185 O 0.56396 0.80311 0.37455 0.0
O186 O 0.55705 0.82588 0.34252 0.0
C187 C 0.5301 0.79377 0.29957 0.0
N188 N 0.51573 0.80989 0.30861 0.0
C189 C 0.48444 0.79787 0.27496 0.0
C190 C 0.49899 0.78128 0.26522 0.0
C191 C 0.52189 0.77918 0.27763 0.0
C192 C 0.49357 0.8119 0.29692 0.0
H193 H 0.54769 0.79202 0.30904 0.0
C194 C 0.57116 0.81461 0.35627 0.0
O195 O 0.54154 0.78433 0.41666 0.0
O196 O 0.52748 0.7606 0.38277 0.0
N197 N 0.48959 0.83968 0.32975 0.0
C198 C 0.47753 0.85616 0.3418 0.0
C199 C 0.45437 0.86049 0.33174 0.0
C200 C 0.44395 0.84803 0.30932 0.0
C201 C 0.45676 0.83131 0.29716 0.0
C202 C 0.4799 0.82795 0.30794 0.0
H203 H 0.48544 0.86588 0.359 0.0
O204 O 0.49329 0.79373 0.39006 0.0
O205 O 0.51004 0.80379 0.35644 0.0
O206 O 0.53321 0.83504 0.399 0.0
O207 O 0.52776 0.857 0.3664 0.0
C208 C 0.44736 0.81765 0.27489 0.0
C209 C 0.46114 0.80086 0.26386 0.0
H210 H 0.49271 0.76998 0.24831 0.0
H211 H 0.53317 0.76633 0.27028 0.0
H212 H 0.44458 0.87341 0.34125 0.0
H213 H 0.42609 0.85142 0.30161 0.0
H214 H 0.42943 0.81973 0.26622 0.0
H215 H 0.4536 0.79026 0.24686 0.0
Mn216 Mn 0.49722 0.26369 0.66554 0.0
Mn217 Mn 0.45252 0.24684 0.61892 0.0
C218 C 0.48968 0.22266 0.64742 0.0
C219 C 0.53834 0.27867 0.68116 0.0
C220 C 0.44153 0.25571 0.67147 0.0
O221 O 0.49232 0.2975 0.65236 0.0
O222 O 0.46341 0.28387 0.6208 0.0
C223 C 0.48089 0.25948 0.57704 0.0
N224 N 0.46658 0.24224 0.58888 0.0
C225 C 0.46663 0.20999 0.55678 0.0
C226 C 0.48129 0.22742 0.54421 0.0
C227 C 0.4885 0.25225 0.55443 0.0
C228 C 0.45952 0.2183 0.57921 0.0
H229 H 0.48648 0.2786 0.5848 0.0
C230 C 0.47836 0.30135 0.6336 0.0
O231 O 0.52006 0.28025 0.69415 0.0
O232 O 0.53268 0.26921 0.65884 0.0
N233 N 0.44107 0.21133 0.615 0.0
C234 C 0.42874 0.19634 0.63039 0.0
C235 C 0.42125 0.17062 0.62343 0.0
C236 C 0.42638 0.16062 0.60071 0.0
C237 C 0.43907 0.17643 0.58518 0.0
C238 C 0.44607 0.20191 0.59308 0.0
H239 H 0.42475 0.20394 0.64788 0.0
O240 O 0.49962 0.22723 0.66978 0.0
O241 O 0.48358 0.24199 0.6369 0.0
O242 O 0.46399 0.2607 0.68062 0.0
O243 O 0.43547 0.25056 0.64868 0.0
C244 C 0.44543 0.16783 0.56236 0.0
C245 C 0.45923 0.18457 0.54818 0.0
H246 H 0.48731 0.22189 0.52682 0.0
H247 H 0.49991 0.26579 0.54488 0.0
H248 H 0.41155 0.15852 0.63557 0.0
H249 H 0.42067 0.14074 0.59545 0.0
H250 H 0.44024 0.14825 0.55573 0.0
H251 H 0.46442 0.1776 0.53089 0.0
Mn252 Mn 0.02333 0.29801 0.88456 0.0
Mn253 Mn 0.01513 0.33421 0.83759 0.0
C254 C 0.98377 0.29913 0.86651 0.0
C255 C 0.03077 0.26114 0.90184 0.0
C256 C 0.02443 0.35528 0.89033 0.0
O257 O 0.05786 0.30439 0.87281 0.0
O258 O 0.05 0.32784 0.84159 0.0
C259 C 0.02269 0.29758 0.7978 0.0
N260 N 0.00836 0.3131 0.80791 0.0
C261 C 0.97662 0.30231 0.77449 0.0
C262 C 0.99111 0.28634 0.76367 0.0
C263 C 0.01422 0.28392 0.77542 0.0
C264 C 0.98601 0.31541 0.79685 0.0
H265 H 0.04045 0.29559 0.80676 0.0
C266 C 0.06458 0.31645 0.85468 0.0
O267 O 0.0361 0.28292 0.91397 0.0
O268 O 0.02182 0.26074 0.8792 0.0
N269 N 0.9824 0.34168 0.83095 0.0
C270 C 0.9705 0.35758 0.84394 0.0
C271 C 0.94719 0.36218 0.8346 0.0
C272 C 0.93646 0.3506 0.81192 0.0
C273 C 0.94912 0.33447 0.79879 0.0
C274 C 0.97242 0.33081 0.80888 0.0
H275 H 0.97868 0.3667 0.86132 0.0
O276 O 0.98719 0.29262 0.88863 0.0
O277 O 1.00358 0.30475 0.85545 0.0
O278 O 0.02642 0.33426 0.89899 0.0
O279 O 0.02096 0.35769 0.86747 0.0
C280 C 0.93944 0.32174 0.77616 0.0
C281 C 0.95313 0.30557 0.76408 0.0
H282 H 0.98464 0.27576 0.74641 0.0
H283 H 0.02547 0.27155 0.76723 0.0
H284 H 0.93753 0.37467 0.84485 0.0
H285 H 0.91852 0.35425 0.80474 0.0
H286 H 0.92139 0.32406 0.768 0.0
H287 H 0.94539 0.29569 0.7468 0.0
Mn288 Mn 0.41337 0.07994 0.25994 0.0
Mn289 Mn 0.3655 0.07618 0.29499 0.0
C290 C 0.39152 0.04101 0.26684 0.0
C291 C 0.43079 0.08189 0.22225 0.0
C292 C 0.41896 0.08488 0.31642 0.0
O293 O 0.40442 0.11593 0.25998 0.0
O294 O 0.37343 0.11059 0.28421 0.0
C295 C 0.32667 0.08397 0.25684 0.0
N296 N 0.33507 0.06994 0.27452 0.0
C297 C 0.29705 0.04071 0.26942 0.0
C298 C 0.28794 0.05492 0.25126 0.0
C299 C 0.30287 0.07657 0.24486 0.0
C300 C 0.32097 0.04892 0.2806 0.0
H301 H 0.33802 0.10071 0.25196 0.0
C302 C 0.3874 0.12409 0.27115 0.0
O303 O 0.44379 0.08926 0.24287 0.0
O304 O 0.40731 0.07496 0.22334 0.0
N305 N 0.35512 0.04401 0.30679 0.0
C306 C 0.3671 0.03172 0.32381 0.0
C307 C 0.35497 0.00924 0.33167 0.0
C308 C 0.33051 0.99993 0.32235 0.0
C309 C 0.31842 0.01314 0.30518 0.0
C310 C 0.3315 0.03533 0.2979 0.0
H311 H 0.3858 0.03895 0.33125 0.0
O312 O 0.41393 0.04299 0.26086 0.0
O313 O 0.38232 0.06182 0.26867 0.0
O314 O 0.42845 0.08536 0.29609 0.0
O315 O 0.39573 0.08199 0.31789 0.0
C316 C 0.29399 1.00502 0.29479 0.0
C317 C 0.28339 0.01866 0.27677 0.0
H318 H 0.26956 0.04932 0.24203 0.0
H319 H 0.29601 0.0876 0.23081 0.0
H320 H 0.36442 0.99917 0.34495 0.0
H321 H 0.32123 0.98256 0.32843 0.0
H322 H 0.28326 0.98816 0.30034 0.0
H323 H 0.26475 0.01198 0.26861 0.0
Mn324 Mn 0.26797 0.16181 0.49719 0.0
Mn325 Mn 0.26044 0.11562 0.45206 0.0
C326 C 0.22908 0.14613 0.47864 0.0
C327 C 0.27093 0.1764 0.5377 0.0
C328 C 0.28158 0.16982 0.44579 0.0
O329 O 0.29952 0.14691 0.50199 0.0
O330 O 0.29176 0.11475 0.47277 0.0
C331 C 0.2543 0.07059 0.48046 0.0
N332 N 0.24526 0.08458 0.46308 0.0
C333 C 0.20754 0.05501 0.45542 0.0
C334 C 0.2165 0.04025 0.47316 0.0
C335 C 0.23999 0.04808 0.48572 0.0
C336 C 0.22279 0.07708 0.45069 0.0
H337 H 0.27225 0.0766 0.49031 0.0
C338 C 0.305 0.12719 0.49116 0.0
O339 O 0.28076 0.19009 0.52153 0.0
O340 O 0.25986 0.15378 0.53044 0.0
N341 N 0.23022 0.11452 0.43173 0.0
C342 C 0.22347 0.1319 0.41665 0.0
C343 C 0.20001 0.12748 0.40353 0.0
C344 C 0.18373 0.10529 0.4061 0.0
C345 C 0.19107 0.0877 0.42177 0.0
C346 C 0.21476 0.093 0.43419 0.0
H347 H 0.23579 0.14912 0.4148 0.0
O348 O 0.23368 0.16876 0.48926 0.0
O349 O 0.24764 0.13388 0.47866 0.0
O350 O 0.27903 0.17804 0.46724 0.0
O351 O 0.27573 0.14665 0.43817 0.0
C352 C 0.17556 0.0654 0.42597 0.0
C353 C 0.18381 0.04904 0.44275 0.0
H354 H 0.2054 0.02303 0.47749 0.0
H355 H 0.24698 0.03686 0.49953 0.0
H356 H 0.19443 0.14121 0.39159 0.0
H357 H 0.16556 0.10207 0.39614 0.0
H358 H 0.15713 0.06082 0.41666 0.0
H359 H 0.17159 0.03214 0.44609 0.0
Mn360 Mn 0.15186 0.01334 0.7957 0.0
Mn361 Mn 0.19735 0.02811 0.84159 0.0
C362 C 0.16718 0.05523 0.80792 0.0
C363 C 0.13752 1.00466 0.75452 0.0
C364 C 0.14407 0.00958 0.84985 0.0
O365 O 0.16665 0.98079 0.79736 0.0
O366 O 0.19725 0.99303 0.8276 0.0
C367 C 0.24048 0.02756 0.81324 0.0
N368 N 0.22763 0.04009 0.82858 0.0
C369 C 0.25743 0.07786 0.82973 0.0
C370 C 0.27106 0.0653 0.81409 0.0
C371 C 0.26253 0.04005 0.8058 0.0
C372 C 0.23572 0.06436 0.83673 0.0
H373 H 0.23393 0.00822 0.80667 0.0
C374 C 0.18539 0.97676 0.81108 0.0
O375 O 0.12406 0.99718 0.77162 0.0
O376 O 0.15972 0.01624 0.76135 0.0
N377 N 0.19965 0.06171 0.85606 0.0
C378 C 0.18356 0.07158 0.8698 0.0
C379 C 0.18897 0.09693 0.87886 0.0
C380 C 0.21084 0.11185 0.87372 0.0
C381 C 0.22716 0.10125 0.85965 0.0
C382 C 0.22093 0.0758 0.85133 0.0
H383 H 0.16663 0.06028 0.87365 0.0
O384 O 0.14509 0.04892 0.79692 0.0
O385 O 0.17935 0.03675 0.81183 0.0
O386 O 0.13584 0.00746 0.8274 0.0
O387 O 0.16687 0.01668 0.85717 0.0
C388 C 0.24911 0.11508 0.85311 0.0
C389 C 0.26424 0.10339 0.83817 0.0
H390 H 0.28796 0.07493 0.80812 0.0
H391 H 0.27288 0.03028 0.79362 0.0
H392 H 0.17623 0.105 0.88964 0.0
H393 H 0.21479 0.13148 0.88049 0.0
H394 H 0.25435 0.13482 0.85919 0.0
H395 H 0.28089 0.11432 0.833 0.0
Mn396 Mn 0.2324 0.89337 0.03548 0.0
Mn397 Mn 0.24266 0.9427 1.00035 0.0
C398 C 0.27244 0.91057 0.02891 0.0
C399 C 0.22912 0.8764 0.07417 0.0
C400 C 0.22758 0.88876 0.97871 0.0
O401 O 0.19915 0.90741 0.03455 0.0
O402 O 0.20863 0.93903 0.01042 0.0
C403 C 0.2406 0.98302 0.03871 0.0
N404 N 0.25291 0.97272 0.02131 0.0
C405 C 0.28729 0.00646 0.02914 0.0
C406 C 0.27491 0.01749 0.04703 0.0
C407 C 0.25149 0.00568 0.05187 0.0
C408 C 0.27554 0.98383 0.01665 0.0
H409 H 0.22262 0.974 0.04254 0.0
C410 C 0.19366 0.92622 0.02314 0.0
O411 O 0.22007 0.86341 0.05393 0.0
O412 O 0.23824 0.89969 0.07205 0.0
N413 N 0.27478 0.94914 0.98919 0.0
C414 C 0.28438 0.93596 0.97151 0.0
C415 C 0.3077 0.94529 0.96446 0.0
C416 C 0.32078 0.96821 0.9754 0.0
C417 C 0.31037 0.98165 0.99326 0.0
C418 C 0.28696 0.97153 0.99938 0.0
H419 H 0.27436 0.91842 0.96287 0.0
O420 O 0.26751 0.88775 0.03526 0.0
O421 O 0.25389 0.92286 0.02664 0.0
O422 O 0.2255 0.87865 0.99907 0.0
O423 O 0.23316 0.91251 0.9774 0.0
C424 C 0.32241 1.00456 1.00538 0.0
C425 C 0.31093 0.0169 0.02339 0.0
H426 H 0.28325 0.03496 0.05724 0.0
H427 H 0.24186 0.01402 0.06572 0.0
H428 H 0.31558 0.93484 0.95061 0.0
H429 H 0.33879 0.97531 0.96997 0.0
H430 H 0.34061 0.01273 1.00115 0.0
H431 H 0.32047 0.03437 0.03275 0.0
Mn432 Mn 0.2678 0.41549 0.05645 0.0
Mn433 Mn 0.28934 0.47032 0.03323 0.0
C434 C 0.3093 0.43142 0.06385 0.0
C435 C 0.24747 0.39308 0.08533 0.0
C436 C 0.27764 0.42001 1.0038 0.0
O437 O 0.23679 0.42945 0.04477 0.0
O438 O 0.25388 0.46836 0.03689 0.0
C439 C 0.2834 0.50489 0.07526 0.0
N440 N 0.29778 0.49666 0.05864 0.0
C441 C 0.33171 0.52921 0.07315 0.0
C442 C 0.31723 0.53817 0.09035 0.0
C443 C 0.29303 0.52584 0.09152 0.0
C444 C 0.32126 0.50796 0.05777 0.0
H445 H 0.26473 0.49554 0.07603 0.0
C446 C 0.23526 0.45181 0.03926 0.0
O447 O 0.24755 0.38367 0.06321 0.0
O448 O 0.25885 0.416 0.09071 0.0
N449 N 0.32352 0.4761 0.02802 0.0
C450 C 0.33482 0.46539 1.01002 0.0
C451 C 0.35861 0.4763 1.00544 0.0
C452 C 0.37049 0.4982 0.01927 0.0
C453 C 0.35857 0.5089 0.03768 0.0
C454 C 0.33465 0.49751 0.04105 0.0
H455 H 0.32557 0.44898 0.99884 0.0
O456 O 0.30116 0.4082 0.06747 0.0
O457 O 0.2927 0.44533 0.0576 0.0
O458 O 0.27356 0.40664 0.02158 0.0
O459 O 0.28163 0.44408 1.00559 0.0
C460 C 0.36937 0.53056 0.05266 0.0
C461 C 0.35605 0.54053 0.07059 0.0
H462 H 0.32452 0.55448 0.10276 0.0
H463 H 0.28176 0.53259 0.10479 0.0
H464 H 0.36764 0.46801 0.99108 0.0
H465 H 0.38876 0.5067 0.01555 0.0
H466 H 0.38795 0.53961 0.05063 0.0
H467 H 0.36461 0.55705 0.08216 0.0
Mn468 Mn 0.80314 0.17972 0.01709 0.0
Mn469 Mn 0.78186 0.13126 0.97497 0.0
C470 C 0.76093 0.16481 1.00913 0.0
C471 C 0.8136 0.19571 0.05854 0.0
C472 C 0.79833 0.18475 0.96118 0.0
O473 O 0.83452 0.16275 0.0136 0.0
O474 O 0.81726 0.13112 0.98585 0.0
C475 C 0.78575 0.0891 1.0064 0.0
N476 N 0.77187 0.1015 0.9911 0.0
C477 C 0.73538 0.07162 0.9946 0.0
C478 C 0.74935 0.05844 1.01024 0.0
C479 C 0.77463 0.06725 0.01619 0.0
C480 C 0.7475 0.09319 0.98528 0.0
H481 H 0.80515 0.09586 0.0112 0.0
C482 C 0.83567 0.14254 1.00025 0.0
O483 O 0.8205 0.20878 0.04064 0.0
O484 O 0.80305 0.1728 0.05239 0.0
N485 N 0.74765 0.12885 0.96351 0.0
C486 C 0.73649 0.14437 0.94915 0.0
C487 C 0.71104 0.13852 0.94203 0.0
C488 C 0.69734 0.11676 0.94967 0.0
C489 C 0.70924 0.10096 0.96427 0.0
C490 C 0.7347 0.1076 0.97057 0.0
H491 H 0.74685 0.16118 0.94325 0.0
O492 O 0.76865 0.18764 0.01825 0.0
O493 O 0.77801 0.15168 1.00439 0.0
O494 O 0.80472 0.19467 0.98301 0.0
O495 O 0.79064 0.16118 0.95654 0.0
C496 C 0.69675 0.07911 0.97315 0.0
C497 C 0.70981 0.06447 0.98832 0.0
H498 H 0.74081 0.04167 0.01795 0.0
H499 H 0.7855 0.05727 0.02836 0.0
H500 H 0.70199 0.15082 0.93077 0.0
H501 H 0.67767 0.11245 0.94436 0.0
H502 H 0.67705 0.07359 0.96868 0.0
H503 H 0.69994 0.0479 0.9953 0.0
Mn504 Mn 0.12025 0.50406 0.28523 0.0
Mn505 Mn 0.16921 0.5205 0.32776 0.0
C506 C 0.13969 0.54565 0.29231 0.0
C507 C 0.10271 0.49413 0.2444 0.0
C508 C 0.11638 0.50963 0.34089 0.0
O509 O 0.13284 0.47005 0.28936 0.0
O510 O 0.16459 0.48383 0.31814 0.0
C511 C 0.20892 0.51018 0.29755 0.0
N512 N 0.19893 0.52646 0.31209 0.0
C513 C 0.23276 0.55971 0.30894 0.0
C514 C 0.24346 0.54325 0.29405 0.0
C515 C 0.23146 0.5184 0.2883 0.0
C516 C 0.21033 0.55042 0.31774 0.0
H517 H 0.19978 0.49108 0.29301 0.0
C518 C 0.15148 0.46637 0.30365 0.0
O519 O 0.09003 0.48906 0.26271 0.0
O520 O 0.12592 0.50286 0.24984 0.0
N521 N 0.17606 0.55566 0.33815 0.0
C522 C 0.16255 0.56963 0.35144 0.0
C523 C 0.17167 0.59512 0.35815 0.0
C524 C 0.19458 0.60598 0.3512 0.0
C525 C 0.20819 0.59122 0.33761 0.0
C526 C 0.19828 0.56585 0.33164 0.0
H527 H 0.14486 0.56147 0.35671 0.0
O528 O 0.11679 0.54053 0.28334 0.0
O529 O 0.15021 0.52649 0.29766 0.0
O530 O 0.10626 0.50376 0.31908 0.0
O531 O 0.13969 0.51573 0.34585 0.0
C532 C 0.23096 0.60083 0.32933 0.0
C533 C 0.24322 0.5851 0.31499 0.0
H534 H 0.26077 0.54955 0.28676 0.0
H535 H 0.23955 0.50563 0.27672 0.0
H536 H 0.16101 0.60641 0.36856 0.0
H537 H 0.20143 0.62572 0.35619 0.0
H538 H 0.23901 0.62041 0.33356 0.0
H539 H 0.26053 0.5928 0.30842 0.0
Mn540 Mn 0.7653 0.91632 0.55566 0.0
Mn541 Mn 0.7875 0.96761 0.52681 0.0
C542 C 0.8069 0.93211 0.56121 0.0
C543 C 0.74627 0.89546 0.58627 0.0
C544 C 0.77752 0.9153 0.50244 0.0
O545 O 0.73409 0.93009 0.54483 0.0
O546 O 0.75114 0.96253 0.52512 0.0
C547 C 0.77304 1.00442 0.56265 0.0
N548 N 0.79058 0.99623 0.54969 0.0
C549 C 0.8208 0.03171 0.56583 0.0
C550 C 0.80304 0.0406 0.57929 0.0
C551 C 0.7791 0.02681 0.5778 0.0
C552 C 0.81381 0.00901 0.55145 0.0
H553 H 0.75458 0.99397 0.56139 0.0
C554 C 0.73252 0.94862 0.53191 0.0
O555 O 0.74534 0.88526 0.56434 0.0
O556 O 0.758 0.91841 0.59058 0.0
N557 N 0.82231 0.97625 0.52571 0.0
C558 C 0.83664 0.96604 0.51017 0.0
C559 C 0.86056 0.97847 0.50801 0.0
C560 C 0.86953 1.00132 0.52176 0.0
C561 C 0.85431 0.01176 0.53725 0.0
C562 C 0.8304 0.99882 0.53817 0.0
H563 H 0.82969 0.94879 0.49909 0.0
O564 O 0.79883 0.90916 0.56578 0.0
O565 O 0.79034 0.94594 0.55445 0.0
O566 O 0.76905 0.90492 0.52066 0.0
O567 O 0.78529 0.93885 0.5024 0.0
C568 C 0.86175 0.03472 0.55144 0.0
C569 C 0.84508 0.04455 0.56594 0.0
H570 H 0.80757 0.05801 0.59078 0.0
H571 H 0.7653 0.03353 0.58815 0.0
H572 H 0.87195 0.97058 0.49555 0.0
H573 H 0.88802 0.01083 0.52008 0.0
H574 H 0.88022 0.045 0.55128 0.0
H575 H 0.85102 0.06219 0.57683 0.0
Mn576 Mn 0.87869 0.05206 0.24089 0.0
Mn577 Mn 0.82739 0.03767 0.27017 0.0
C578 C 0.86193 0.01007 0.24345 0.0
C579 C 0.89941 0.06311 0.20683 0.0
C580 C 0.87857 0.05456 0.29627 0.0
O581 O 0.86525 0.08559 0.24394 0.0
O582 O 0.82922 0.07217 0.25911 0.0
C583 C 0.78987 0.03657 0.22814 0.0
N584 N 0.79958 0.02516 0.2472 0.0
C585 C 0.76797 0.98882 0.23914 0.0
C586 C 0.75745 1.0003 0.21958 0.0
C587 C 0.76854 0.02423 0.21398 0.0
C588 C 0.78931 1.00198 0.25249 0.0
H589 H 0.79841 0.0549 0.22376 0.0
C590 C 0.84431 0.08913 0.25064 0.0
O591 O 0.90954 0.06868 0.22893 0.0
O592 O 0.8766 0.05185 0.20432 0.0
N593 N 0.82262 1.00483 0.28208 0.0
C594 C 0.83547 0.99604 0.30107 0.0
C595 C 0.82684 0.97234 0.30902 0.0
C596 C 0.80492 0.95807 0.2976 0.0
C597 C 0.79191 0.96754 0.27821 0.0
C598 C 0.80128 0.99139 0.27125 0.0
H599 H 0.85213 0.00706 0.31019 0.0
O600 O 0.88463 0.01627 0.23878 0.0
O601 O 0.84933 0.02851 0.24579 0.0
O602 O 0.88989 0.05523 0.27718 0.0
O603 O 0.85509 0.04973 0.29578 0.0
C604 C 0.77015 0.95416 0.26537 0.0
C605 C 0.75828 0.96472 0.24574 0.0
H606 H 0.74098 0.99085 0.20863 0.0
H607 H 0.76064 0.03314 0.1988 0.0
H608 H 0.83698 0.96514 0.32399 0.0
H609 H 0.79826 0.93984 0.30383 0.0
H610 H 0.76258 0.93559 0.27023 0.0
H611 H 0.74176 0.9541 0.23578 0.0
Mn612 Mn 0.30418 0.68257 0.52024 0.0
Mn613 Mn 0.28282 0.63369 0.47847 0.0
C614 C 0.26203 0.66696 0.51312 0.0
C615 C 0.31576 0.69974 0.56118 0.0
C616 C 0.29778 0.68727 0.46426 0.0
O617 O 0.33577 0.66611 0.51629 0.0
O618 O 0.3186 0.63469 0.48829 0.0
C619 C 0.28915 0.59192 0.50977 0.0
N620 N 0.27436 0.60375 0.49481 0.0
C621 C 0.23912 0.57237 0.49866 0.0
C622 C 0.25402 0.55979 0.51398 0.0
C623 C 0.27913 0.56965 0.51959 0.0
C624 C 0.25015 0.59444 0.48932 0.0
H625 H 0.30845 0.59942 0.51422 0.0
C626 C 0.33709 0.64629 0.50245 0.0
O627 O 0.32157 0.7123 0.54263 0.0
O628 O 0.30539 0.67657 0.55599 0.0
N629 N 0.24831 0.63003 0.46782 0.0
C630 C 0.23616 0.64502 0.45369 0.0
C631 C 0.21075 0.63804 0.44684 0.0
C632 C 0.19812 0.6157 0.45447 0.0
C633 C 0.21103 0.60047 0.46882 0.0
C634 C 0.2364 0.60825 0.47488 0.0
H635 H 0.24569 0.66227 0.44783 0.0
O636 O 0.2696 0.68991 0.52198 0.0
O637 O 0.2792 0.65396 0.50818 0.0
O638 O 0.30488 0.69718 0.48595 0.0
O639 O 0.29001 0.66371 0.45979 0.0
C640 C 0.19964 0.57811 0.47769 0.0
C641 C 0.21366 0.56409 0.49263 0.0
H642 H 0.24634 0.54267 0.52169 0.0
H643 H 0.29073 0.56011 0.53149 0.0
H644 H 0.20091 0.64992 0.43579 0.0
H645 H 0.17847 0.61052 0.44936 0.0
H646 H 0.18003 0.5717 0.47341 0.0
H647 H 0.20462 0.5471 0.49961 0.0
Mn648 Mn 0.37548 0.55093 0.74029 0.0
Mn649 Mn 0.32479 0.53675 0.7706 0.0
C650 C 0.35881 0.50906 0.74352 0.0
C651 C 0.39518 0.56123 0.70554 0.0
C652 C 0.37631 0.55299 0.79598 0.0
O653 O 0.3622 0.58432 0.74277 0.0
O654 O 0.3279 0.572 0.7612 0.0
C655 C 0.28722 0.53901 0.72936 0.0
N656 N 0.29656 0.52624 0.74759 0.0
C657 C 0.2637 0.49117 0.73835 0.0
C658 C 0.25361 0.50402 0.71959 0.0
C659 C 0.26549 0.528 0.715 0.0
C660 C 0.28548 0.50302 0.75192 0.0
H661 H 0.2963 0.55743 0.72581 0.0
C662 C 0.3424 0.58852 0.75151 0.0
O663 O 0.40595 0.56745 0.72734 0.0
O664 O 0.37254 0.54962 0.70381 0.0
N665 N 0.31867 0.5034 0.78116 0.0
C666 C 0.33099 0.49336 0.7997 0.0
C667 C 0.32141 0.46954 0.80677 0.0
C668 C 0.2991 0.45644 0.79498 0.0
C669 C 0.28663 0.46723 0.77613 0.0
C670 C 0.29694 0.49113 0.77003 0.0
H671 H 0.34797 0.50346 0.80907 0.0
O672 O 0.38151 0.51519 0.73881 0.0
O673 O 0.34617 0.5275 0.74574 0.0
O674 O 0.38712 0.55525 0.77661 0.0
O675 O 0.35299 0.54663 0.79589 0.0
C676 C 0.26448 0.4551 0.763 0.0
C677 C 0.25311 0.467 0.74401 0.0
H678 H 0.23682 0.49562 0.70851 0.0
H679 H 0.25788 0.53799 0.70048 0.0
H680 H 0.33114 0.46133 0.82135 0.0
H681 H 0.29173 0.4381 0.80052 0.0
H682 H 0.25618 0.43652 0.76719 0.0
H683 H 0.23624 0.45737 0.73386 0.0
Mn684 Mn 0.61867 0.99947 0.7821 0.0
Mn685 Mn 0.66722 0.01369 0.82535 0.0
C686 C 0.63822 0.04076 0.79103 0.0
C687 C 0.60177 0.99042 0.7411 0.0
C688 C 0.61418 1.00227 0.83756 0.0
O689 O 0.63053 0.96501 0.78545 0.0
O690 O 0.66292 0.97762 0.81377 0.0
C691 C 0.70708 0.00597 0.79437 0.0
N692 N 0.69689 0.02118 0.80984 0.0
C693 C 0.7299 0.05553 0.80762 0.0
C694 C 0.7408 0.04018 0.79177 0.0
C695 C 0.72931 0.01531 0.78509 0.0
C696 C 0.70776 0.04517 0.81632 0.0
H697 H 0.69828 0.98687 0.7891 0.0
C698 C 0.64935 0.9607 0.79909 0.0
O699 O 0.58872 0.98514 0.75911 0.0
O700 O 0.62495 0.99908 0.74692 0.0
N701 N 0.6737 0.04828 0.83776 0.0
C702 C 0.66046 0.06086 0.85268 0.0
C703 C 0.66936 0.08606 0.86088 0.0
C704 C 0.69181 0.09802 0.85379 0.0
C705 C 0.70524 0.08461 0.83866 0.0
C706 C 0.69559 0.05945 0.83127 0.0
H707 H 0.64321 0.05179 0.85823 0.0
O708 O 0.6156 0.03608 0.78118 0.0
O709 O 0.6485 0.02129 0.7957 0.0
O710 O 0.60423 0.99861 0.81553 0.0
O711 O 0.6375 0.00712 0.84309 0.0
C712 C 0.72767 0.09531 0.83039 0.0
C713 C 0.73996 0.0808 0.81482 0.0
H714 H 0.7579 0.04734 0.7845 0.0
H715 H 0.73755 1.00339 0.77279 0.0
H716 H 0.65891 0.09626 0.8726 0.0
H717 H 0.6985 0.11752 0.85997 0.0
H718 H 0.7355 0.11477 0.83566 0.0
H719 H 0.75704 0.08934 0.80834 0.0
Mn720 Mn 0.76872 0.66553 0.99647 0.0
Mn721 Mn 0.76358 0.6186 0.95239 0.0
C722 C 0.73026 0.64762 0.97812 0.0
C723 C 0.7715 0.68072 0.03679 0.0
C724 C 0.78395 0.67315 0.94594 0.0
O725 O 0.80133 0.65235 1.00142 0.0
O726 O 0.79352 0.61742 0.97515 0.0
C727 C 0.75532 0.57254 0.97917 0.0
N728 N 0.74719 0.58743 0.96216 0.0
C729 C 0.7093 0.55844 0.95236 0.0
C730 C 0.71718 0.54298 0.96998 0.0
C731 C 0.74034 0.55003 0.98338 0.0
C732 C 0.72517 0.58052 0.94875 0.0
H733 H 0.77311 0.57775 0.98939 0.0
C734 C 0.80664 0.63161 0.99256 0.0
O735 O 0.78052 0.69446 0.02027 0.0
O736 O 0.76118 0.65772 0.02999 0.0
N737 N 0.73443 0.61818 0.93056 0.0
C738 C 0.72879 0.63593 0.91537 0.0
C739 C 0.70591 0.6321 0.90121 0.0
C740 C 0.68901 0.61013 0.90285 0.0
C741 C 0.69515 0.59215 0.91864 0.0
C742 C 0.71833 0.59689 0.93216 0.0
H743 H 0.74155 0.653 0.91418 0.0
O744 O 0.73365 0.67036 0.98846 0.0
O745 O 0.74967 0.63668 0.97832 0.0
O746 O 0.77878 0.68178 0.96634 0.0
O747 O 0.78034 0.64965 0.93933 0.0
C748 C 0.67897 0.56998 0.92186 0.0
C749 C 0.68606 0.5531 0.93865 0.0
H750 H 0.70557 0.52574 0.97346 0.0
H751 H 0.74661 0.53817 0.99697 0.0
H752 H 0.70125 0.64614 0.88917 0.0
H753 H 0.67128 0.60735 0.89206 0.0
H754 H 0.66091 0.56586 0.9117 0.0
H755 H 0.67336 0.53625 0.94115 0.0
Mn756 Mn 0.91252 0.57234 0.76046 0.0
Mn757 Mn 0.86437 0.56885 0.79513 0.0
C758 C 0.89139 0.53351 0.76865 0.0
C759 C 0.92959 0.57426 0.7226 0.0
C760 C 0.91786 0.58067 0.81669 0.0
O761 O 0.9023 0.60769 0.75919 0.0
O762 O 0.86966 0.60209 0.78143 0.0
C763 C 0.82447 0.57028 0.75583 0.0
N764 N 0.83415 0.55865 0.77477 0.0
C765 C 0.79893 0.52573 0.77061 0.0
C766 C 0.78852 0.53743 0.75115 0.0
C767 C 0.8014 0.55975 0.74367 0.0
C768 C 0.82205 0.537 0.78191 0.0
H769 H 0.83428 0.58745 0.75003 0.0
C770 C 0.88386 0.61528 0.76835 0.0
O771 O 0.94262 0.58216 0.74309 0.0
O772 O 0.90632 0.5663 0.72392 0.0
N773 N 0.85664 0.53754 0.80948 0.0
C774 C 0.8694 0.52839 0.82832 0.0
C775 C 0.85893 0.50633 0.83818 0.0
C776 C 0.83538 0.49403 0.82877 0.0
C777 C 0.82256 0.5038 0.80943 0.0
C778 C 0.83381 0.52602 0.80052 0.0
H779 H 0.88736 0.53792 0.83591 0.0
O780 O 0.91376 0.53542 0.76248 0.0
O781 O 0.8821 0.55421 0.76985 0.0
O782 O 0.92747 0.57912 0.7965 0.0
O783 O 0.8946 0.57856 0.81791 0.0
C784 C 0.79909 0.49237 0.79862 0.0
C785 C 0.78736 0.50321 0.7791 0.0
H786 H 0.77071 0.5294 0.74175 0.0
H787 H 0.79353 0.56885 0.72861 0.0
H788 H 0.86893 0.4989 0.85312 0.0
H789 H 0.8273 0.47716 0.8366 0.0
H790 H 0.78999 0.47509 0.80503 0.0
H791 H 0.76946 0.49407 0.77074 0.0
Mn792 Mn 0.7321 0.39098 0.53379 0.0
Mn793 Mn 0.74556 0.44 0.49894 0.0
C794 C 0.77305 0.4068 0.52804 0.0
C795 C 0.72756 0.37388 0.57232 0.0
C796 C 0.72712 0.38645 0.47718 0.0
O797 O 0.69953 0.40698 0.53232 0.0
O798 O 0.71252 0.43948 0.51044 0.0
C799 C 0.74843 0.48113 0.53775 0.0
N800 N 0.75878 0.46969 0.51949 0.0
C801 C 0.79508 0.50133 0.52521 0.0
C802 C 0.78462 0.51367 0.5438 0.0
C803 C 0.76126 0.50344 0.55019 0.0
C804 C 0.78145 0.47911 0.51353 0.0
H805 H 0.73059 0.47323 0.54288 0.0
C806 C 0.69635 0.42754 0.52254 0.0
O807 O 0.71831 0.36132 0.55194 0.0
O808 O 0.73749 0.39699 0.57046 0.0
N809 N 0.77727 0.44332 0.48675 0.0
C810 C 0.78515 0.42865 0.46901 0.0
C811 C 0.80823 0.4362 0.46057 0.0
C812 C 0.82287 0.45884 0.47026 0.0
C813 C 0.8144 0.47364 0.48848 0.0
C814 C 0.7911 0.46532 0.49596 0.0
H815 H 0.77388 0.41139 0.46121 0.0
O816 O 0.76715 0.38404 0.53425 0.0
O817 O 0.755 0.41954 0.52524 0.0
O818 O 0.72531 0.37627 0.49749 0.0
O819 O 0.73308 0.41017 0.476 0.0
C820 C 0.82821 0.49626 0.49959 0.0
C821 C 0.81863 0.51 0.51806 0.0
H822 H 0.79447 0.53087 0.55345 0.0
H823 H 0.75318 0.51271 0.56468 0.0
H824 H 0.81466 0.42467 0.44651 0.0
H825 H 0.84056 0.46469 0.46355 0.0
H826 H 0.84635 0.50307 0.49429 0.0
H827 H 0.82958 0.52714 0.52675 0.0
Mn828 Mn 0.65193 0.51428 0.29433 0.0
Mn829 Mn 0.69734 0.52929 0.34029 0.0
C830 C 0.66794 0.55615 0.30565 0.0
C831 C 0.63778 0.5045 0.25329 0.0
C832 C 0.64376 0.51192 0.34839 0.0
O833 O 0.66593 0.48142 0.29713 0.0
O834 O 0.69706 0.49408 0.32672 0.0
C835 C 0.74062 0.5279 0.31231 0.0
N836 N 0.7278 0.54077 0.32739 0.0
C837 C 0.758 0.57822 0.32839 0.0
C838 C 0.77159 0.5653 0.313 0.0
C839 C 0.76285 0.54004 0.30492 0.0
C840 C 0.73609 0.56507 0.33534 0.0
H841 H 0.73392 0.50854 0.30588 0.0
C842 C 0.68488 0.47754 0.31065 0.0
O843 O 0.62408 0.49795 0.27048 0.0
O844 O 0.6601 0.51585 0.25998 0.0
N845 N 0.69983 0.5631 0.3543 0.0
C846 C 0.68375 0.57336 0.36775 0.0
C847 C 0.68937 0.59877 0.37656 0.0
C848 C 0.71144 0.61337 0.37149 0.0
C849 C 0.72776 0.60237 0.35772 0.0
C850 C 0.72131 0.57688 0.34964 0.0
H851 H 0.66666 0.5623 0.37156 0.0
O852 O 0.64591 0.55008 0.29444 0.0
O853 O 0.67965 0.5375 0.31018 0.0
O854 O 0.63563 0.50982 0.32594 0.0
O855 O 0.66663 0.51838 0.35579 0.0
C856 C 0.74991 0.61587 0.35124 0.0
C857 C 0.76502 0.6038 0.3366 0.0
H858 H 0.78862 0.57467 0.30708 0.0
H859 H 0.77316 0.52999 0.29293 0.0
H860 H 0.67664 0.60715 0.38711 0.0
H861 H 0.71557 0.63305 0.37806 0.0
H862 H 0.75531 0.63563 0.35713 0.0
H863 H 0.78182 0.61446 0.33145 0.0
Tb864 Tb 0.02502 0.06242 0.01673 0.0
C865 C 0.03005 0.0159 0.98137 0.0
Tb866 Tb 1.00826 0.00834 0.03193 0.0
O867 O 0.06401 0.05741 0.01817 0.0
O868 O 0.04033 0.03595 0.0383 0.0
O869 O 0.02546 0.03937 0.98305 0.0
C870 C 1.00632 0.96409 0.05176 0.0
O871 O 0.0267 1.00064 0.99924 0.0
C872 C 0.97176 0.03307 0.01753 0.0
C873 C 1.00287 0.05476 0.06714 0.0
O874 O 0.99554 0.9674 0.0305 0.0
O875 O 0.01823 0.98549 0.06137 0.0
O876 O 0.96912 0.01365 0.03043 0.0
O877 O 0.99312 0.0349 0.01047 0.0
O878 O 1.00722 0.03119 0.06557 0.0
O879 O 1.00633 0.07003 0.04928 0.0
C880 C 0.0272 0.10577 0.99546 0.0
O881 O 0.03534 0.10374 0.01803 0.0
O882 O 0.0176 0.08373 0.98547 0.0
C883 C 0.06167 0.03802 0.0311 0.0
Tb884 Tb 0.27384 0.82142 0.28022 0.0
C885 C 0.31688 0.78742 0.28493 0.0
Tb886 Tb 0.26165 0.76072 0.26845 0.0
O887 O 0.27546 0.81966 0.32079 0.0
O888 O 0.26724 0.78821 0.29761 0.0
O889 O 0.31023 0.80991 0.28204 0.0
C890 C 0.24325 0.71375 0.27663 0.0
O891 O 0.3011 0.76576 0.28166 0.0
C892 C 0.26398 0.78647 0.22851 0.0
C893 C 0.21889 0.79498 0.26292 0.0
O894 O 0.25863 0.71987 0.26054 0.0
O895 O 0.23869 0.73398 0.28814 0.0
O896 O 0.25963 0.76194 0.22811 0.0
O897 O 0.26801 0.79399 0.25075 0.0
O898 O 0.22506 0.77235 0.26638 0.0
O899 O 0.23503 0.81636 0.26542 0.0
C900 C 0.29327 0.86827 0.27268 0.0
O901 O 0.27446 0.86234 0.28518 0.0
O902 O 0.30053 0.84791 0.26428 0.0
C903 C 0.27117 0.7951 0.31991 0.0
Tb904 Tb 0.53997 0.03651 0.51996 0.0
C905 C 0.528 0.01763 0.57135 0.0
Tb906 Tb 0.48724 0.03304 0.53304 0.0
O907 O 0.55145 0.06864 0.54705 0.0
O908 O 0.51612 0.06225 0.52868 0.0
O909 O 0.54262 0.01702 0.55348 0.0
C910 C 0.44642 0.04552 0.5498 0.0
O911 O 0.50594 0.02488 0.568 0.0
C912 C 0.49686 0.99403 0.50699 0.0
C913 C 0.49894 0.05095 0.48103 0.0
O914 O 0.44821 0.02387 0.53896 0.0
O915 O 0.4679 0.05952 0.552 0.0
O916 O 0.47523 1.00095 0.50613 0.0
O917 O 0.51093 0.00723 0.52375 0.0
O918 O 0.4836 0.05014 0.49835 0.0
O919 O 0.52174 0.04553 0.485 0.0
C920 C 0.58199 0.02696 0.5037 0.0
O921 O 0.57977 0.04584 0.51861 0.0
O922 O 0.56031 0.01413 0.49715 0.0
C923 C 0.52988 0.0756 0.54546 0.0
Tb924 Tb 0.26913 0.28951 0.80341 0.0
C925 C 0.27816 0.33162 0.76471 0.0
Tb926 Tb 0.25244 0.2755 0.74766 0.0
O927 O 0.30267 0.27176 0.80081 0.0
O928 O 0.28557 0.28529 0.77074 0.0
O929 O 0.27879 0.32583 0.78787 0.0
C930 C 0.25589 0.25463 0.70378 0.0
O931 O 0.26994 0.31472 0.74598 0.0
C932 C 0.21515 0.28564 0.77194 0.0
C933 C 0.24286 0.23464 0.78672 0.0
O934 O 0.24584 0.27463 0.708 0.0
O935 O 0.26382 0.24651 0.72417 0.0
O936 O 0.21319 0.28046 0.74842 0.0
O937 O 0.23715 0.28464 0.77935 0.0
O938 O 0.24719 0.23919 0.76395 0.0
O939 O 0.24669 0.25265 0.80485 0.0
C940 C 0.27075 0.31475 0.84642 0.0
O941 O 0.27969 0.29395 0.84288 0.0
O942 O 0.26081 0.3209 0.82601 0.0
C943 C 0.30212 0.27277 0.77725 0.0
Tb944 Tb 1.00399 0.04318 0.49799 0.0
C945 C 0.97446 0.017 0.5389 0.0
Tb946 Tb 0.03081 0.04109 0.54991 0.0
O947 O 1.0017 1.00248 0.49045 0.0
O948 O 0.02966 0.02266 0.51486 0.0
O949 O 0.97343 0.02578 0.5169 0.0
C950 C 0.05429 0.02846 0.59072 0.0
O951 O 0.99459 0.02052 0.55455 0.0
C952 C 0.0155 0.08389 0.54124 0.0
C953 C 0.06045 0.06489 0.50925 0.0
O954 O 0.0571 0.05055 0.58236 0.0
O955 O 0.03801 0.01333 0.57617 0.0
O956 O 0.03258 0.08153 0.55826 0.0
O957 O 1.00563 0.06214 0.5328 0.0
O958 O 0.06111 0.05032 0.52779 0.0
O959 O 0.0394 0.06765 0.49672 0.0
C960 C 0.98061 0.05584 0.45721 0.0
O961 O 1.00145 0.04725 0.45862 0.0
O962 O 0.97312 0.05751 0.47877 0.0
C963 C 0.01984 1.00086 0.50667 0.0
Tb964 Tb 0.29958 0.79267 0.7852 0.0
C965 C 0.25621 0.80193 0.81719 0.0
Tb966 Tb 0.24642 0.78616 0.76018 0.0
O967 O 0.30056 0.83293 0.79437 0.0
O968 O 0.27741 0.81484 0.76497 0.0
O969 O 0.27841 0.795 0.81693 0.0
C970 C 0.20447 0.79172 0.73523 0.0
O971 O 0.24136 0.80214 0.79679 0.0
C972 C 0.26258 0.74359 0.76796 0.0
C973 C 0.28992 0.77742 0.72803 0.0
O974 O 0.20601 0.78182 0.75609 0.0
O975 O 0.22635 0.79898 0.72897 0.0
O976 O 0.24379 0.74533 0.7527 0.0
O977 O 0.26839 0.76432 0.78053 0.0
O978 O 0.26753 0.78373 0.72845 0.0
O979 O 0.30513 0.77787 0.74826 0.0
C980 C 0.34223 0.78722 0.809 0.0
O981 O 0.33949 0.80373 0.7932 0.0
O982 O 0.32113 0.77359 0.81108 0.0
C983 C 0.2825 0.83518 0.77836 0.0
Tb984 Tb 0.49207 0.0245 0.02157 0.0
C985 C 0.53507 0.99276 0.03467 0.0
Tb986 Tb 0.54452 0.0514 0.03368 0.0
O987 O 0.49416 0.02909 0.98255 0.0
O988 O 0.52566 0.02607 1.00488 0.0
O989 O 0.51106 0.99387 0.03421 0.0
C990 C 0.58917 0.07773 0.02961 0.0
O991 O 0.55141 0.01283 0.03173 0.0
C992 C 0.51822 0.04639 0.07165 0.0
C993 C 0.50188 0.08317 0.01983 0.0
O994 O 0.58238 0.06703 0.04888 0.0
O995 O 0.57079 0.07371 0.01277 0.0
O996 O 0.54208 0.04792 0.07295 0.0
O997 O 0.51091 0.05015 0.05015 0.0
O998 O 0.52581 0.08179 0.02084 0.0
O999 O 0.48513 0.06327 0.02241 0.0
C1000 C 0.4469 0.99864 0.02418 0.0
O1001 O 0.4563 1.00493 1.0043 0.0
O1002 O 0.46297 0.00685 0.04261 0.0
C1003 C 0.51797 0.0303 0.98358 0.0
Tb1004 Tb 0.23713 0.27428 0.27709 0.0
C1005 C 0.28279 0.28563 0.31613 0.0
Tb1006 Tb 0.28849 0.30272 0.26398 0.0
O1007 O 0.25074 0.23812 0.27666 0.0
O1008 O 0.26678 0.26648 0.25696 0.0
O1009 O 0.25882 0.28652 0.3119 0.0
C1010 C 0.3319 0.31052 0.2461 0.0
O1011 O 0.29822 0.28931 0.29916 0.0
C1012 C 0.26045 0.33383 0.28279 0.0
C1013 C 0.24137 0.29281 0.22458 0.0
O1014 O 0.32488 0.29271 0.25995 0.0
O1015 O 0.31471 0.32436 0.24293 0.0
O1016 O 0.28233 0.34137 0.27623 0.0
O1017 O 0.25747 0.31029 0.28009 0.0
O1018 O 0.26586 0.2972 0.22904 0.0
O1019 O 0.22606 0.28464 0.24073 0.0
C1020 C 0.19373 0.26208 0.2947 0.0
O1021 O 0.19886 0.27957 0.27996 0.0
O1022 O 0.21278 0.251 0.29875 0.0
C1023 C 0.26929 0.24527 0.26447 0.0
Tb1024 Tb 0.50687 0.53633 0.99351 0.0
C1025 C 0.47645 0.51363 0.03585 0.0
Tb1026 Tb 0.53324 0.53535 0.04631 0.0
O1027 O 0.503 0.49578 0.98658 0.0
O1028 O 0.53052 0.51468 0.01209 0.0
O1029 O 0.47593 0.52145 0.01341 0.0
C1030 C 0.55623 0.52353 0.08768 0.0
O1031 O 0.4965 0.51682 0.05158 0.0
C1032 C 0.51914 0.57837 0.03593 0.0
C1033 C 0.56392 0.55568 1.00473 0.0
O1034 O 0.53979 0.50824 0.07343 0.0
O1035 O 0.5595 0.5453 0.07868 0.0
O1036 O 0.5355 0.5763 0.05375 0.0
O1037 O 0.50948 0.55656 0.02765 0.0
O1038 O 0.56391 0.54238 0.02422 0.0
O1039 O 0.54331 0.55839 0.99144 0.0
C1040 C 0.48273 0.54763 0.95257 0.0
O1041 O 0.50317 0.53829 0.95386 0.0
O1042 O 0.47606 0.55091 0.97434 0.0
C1043 C 0.51944 0.49313 1.00419 0.0
Tb1044 Tb 0.79515 0.29125 0.28075 0.0
C1045 C 0.75257 0.29869 0.31483 0.0
Tb1046 Tb 0.74072 0.28258 0.25776 0.0
O1047 O 0.79551 0.33147 0.28941 0.0
O1048 O 0.77105 0.31197 0.26144 0.0
O1049 O 0.77551 0.29395 0.31357 0.0
C1050 C 0.69856 0.29001 0.23442 0.0
O1051 O 0.73627 0.2968 0.29518 0.0
C1052 C 0.75929 0.24124 0.26516 0.0
C1053 C 0.78328 0.27446 0.22371 0.0
O1054 O 0.7004 0.27411 0.25107 0.0
O1055 O 0.72025 0.30168 0.23121 0.0
O1056 O 0.73975 0.24191 0.25038 0.0
O1057 O 0.76467 0.26222 0.27742 0.0
O1058 O 0.76001 0.27794 0.22511 0.0
O1059 O 0.80005 0.27791 0.24309 0.0
C1060 C 0.8382 0.28591 0.30361 0.0
O1061 O 0.83493 0.30314 0.28871 0.0
O1062 O 0.81742 0.27152 0.30525 0.0
C1063 C 0.77628 0.33261 0.27442 0.0
Tb1064 Tb 0.99014 0.52755 0.52385 0.0
C1065 C 0.03521 0.49957 0.53021 0.0
Tb1066 Tb 0.04144 0.55893 0.52959 0.0
O1067 O 0.99747 0.50852 0.48979 0.0
O1068 O 0.01476 0.54529 0.49975 0.0
O1069 O 0.01194 0.49912 0.53482 0.0
C1070 C 0.0879 0.5809 0.52591 0.0
O1071 O 0.04936 0.52051 0.52536 0.0
C1072 C 0.01764 0.5596 0.56901 0.0
C1073 C 0.99618 0.58699 0.52313 0.0
O1074 O 0.08032 0.5691 0.54429 0.0
O1075 O 0.06933 0.58026 0.5096 0.0
O1076 O 0.03425 0.57772 0.56383 0.0
O1077 O 0.01695 0.54104 0.5536 0.0
O1078 O 0.01972 0.58771 0.51935 0.0
O1079 O 0.98173 0.5659 0.52716 0.0
C1080 C 0.9442 0.50394 0.52721 0.0
O1081 O 0.95261 0.51239 0.50759 0.0
O1082 O 0.96154 0.50918 0.54507 0.0
C1083 C 0.01395 0.52663 0.48439 0.0
Tb1084 Tb 0.77181 0.79045 0.30246 0.0
C1085 C 0.7829 0.83222 0.26571 0.0
Tb1086 Tb 0.75824 0.77554 0.24907 0.0
O1087 O 0.81121 0.79574 0.29755 0.0
O1088 O 0.78631 0.76894 0.27527 0.0
O1089 O 0.78093 0.82732 0.28876 0.0
C1090 C 0.76067 0.76298 0.20217 0.0
O1091 O 0.77559 0.81486 0.24729 0.0
C1092 C 0.72173 0.78646 0.27314 0.0
C1093 C 0.7487 0.73387 0.28568 0.0
O1094 O 0.77936 0.77143 0.21792 0.0
O1095 O 0.74045 0.76211 0.21268 0.0
O1096 O 0.71882 0.77049 0.25417 0.0
O1097 O 0.74389 0.79718 0.27612 0.0
O1098 O 0.75419 0.7385 0.26331 0.0
O1099 O 0.75203 0.75199 0.30365 0.0
C1100 C 0.76883 0.80531 0.34866 0.0
O1101 O 0.75319 0.80779 0.33043 0.0
O1102 O 0.78619 0.7939 0.34101 0.0
C1103 C 0.80846 0.77981 0.27849 0.0
Tb1104 Tb 0.76806 0.31813 0.77789 0.0
C1105 C 0.81095 0.28524 0.78274 0.0
Tb1106 Tb 0.756 0.25876 0.76745 0.0
O1107 O 0.78026 0.31494 0.81644 0.0
O1108 O 0.75599 0.28595 0.79709 0.0
O1109 O 0.80438 0.30695 0.77662 0.0
C1110 C 0.73588 0.2121 0.77523 0.0
O1111 O 0.79481 0.2641 0.78254 0.0
C1112 C 0.76038 0.28296 0.72672 0.0
C1113 C 0.71295 0.29246 0.75999 0.0
O1114 O 0.75673 0.21785 0.76584 0.0
O1115 O 0.72696 0.23246 0.78027 0.0
O1116 O 0.75549 0.25851 0.72691 0.0
O1117 O 0.7643 0.29085 0.74883 0.0
O1118 O 0.71961 0.26982 0.76145 0.0
O1119 O 0.72853 0.31398 0.7655 0.0
C1120 C 0.78312 0.36646 0.772 0.0
O1121 O 0.77066 0.35817 0.78964 0.0
O1122 O 0.78648 0.34761 0.75761 0.0
C1123 C 0.76946 0.29184 0.81706 0.0
Tb1124 Tb 0.73935 0.76884 0.77377 0.0
C1125 C 0.78478 0.78512 0.8138 0.0
Tb1126 Tb 0.78918 0.79966 0.76059 0.0
O1127 O 0.74754 0.73495 0.75305 0.0
O1128 O 0.77544 0.76262 0.76852 0.0
O1129 O 0.76038 0.78251 0.80884 0.0
C1130 C 0.82867 0.80483 0.7364 0.0
O1131 O 0.80028 0.78933 0.79684 0.0
C1132 C 0.75777 0.82984 0.77314 0.0
C1133 C 0.74139 0.78976 0.72257 0.0
O1134 O 0.82711 0.81738 0.75703 0.0
O1135 O 0.80839 0.7894 0.72996 0.0
O1136 O 0.78005 0.83802 0.76783 0.0
O1137 O 0.75552 0.80625 0.77172 0.0
O1138 O 0.76581 0.79266 0.72611 0.0
O1139 O 0.72678 0.7829 0.73959 0.0
C1140 C 0.69951 0.75409 0.79652 0.0
O1141 O 0.70029 0.76815 0.77827 0.0
O1142 O 0.72106 0.74771 0.80146 0.0
C1143 C 0.7713 0.74265 0.75497 0.0
Tb1144 Tb 0.52466 0.56253 0.51894 0.0
C1145 C 0.52925 0.51863 0.47963 0.0
Tb1146 Tb 0.50588 0.50675 0.52876 0.0
O1147 O 0.56296 0.55569 0.51919 0.0
O1148 O 0.53831 0.53338 0.53796 0.0
O1149 O 0.52667 0.5426 0.48377 0.0
C1150 C 0.50385 0.46146 0.54638 0.0
O1151 O 0.52394 0.5014 0.49544 0.0
C1152 C 0.4709 0.53405 0.51643 0.0
C1153 C 0.50133 0.55017 0.56831 0.0
O1154 O 0.49126 0.46612 0.5265 0.0
O1155 O 0.5177 0.48203 0.55561 0.0
O1156 O 0.46695 0.51314 0.52706 0.0
O1157 O 0.49252 0.53601 0.51005 0.0
O1158 O 0.50357 0.52621 0.56377 0.0
O1159 O 0.50742 0.56775 0.553 0.0
C1160 C 0.52643 0.6077 0.50119 0.0
O1161 O 0.53991 0.60296 0.52047 0.0
O1162 O 0.51197 0.58727 0.49254 0.0
C1163 C 0.5597 0.53538 0.53083 0.0
Tb1164 Tb 0.039 0.53476 0.021 0.0
C1165 C 0.0275 0.5199 0.07429 0.0
Tb1166 Tb 0.98619 0.53453 0.03566 0.0
O1167 O 0.05288 0.56685 0.04757 0.0
O1168 O 0.01677 0.5616 0.03059 0.0
O1169 O 0.04271 0.51988 0.05687 0.0
C1170 C 0.94701 0.55074 0.05242 0.0
O1171 O 1.00497 0.5261 0.07052 0.0
C1172 C 0.99315 0.49452 1.0094 0.0
C1173 C 0.99771 0.55016 0.98273 0.0
O1174 O 0.94748 0.52804 0.04322 0.0
O1175 O 0.96886 0.56377 0.05299 0.0
O1176 O 0.97158 0.50129 0.01042 0.0
O1177 O 1.00825 0.50793 0.02516 0.0
O1178 O 0.98279 0.55057 1.00037 0.0
O1179 O 0.02014 0.54367 0.98629 0.0
C1180 C 0.07743 0.51719 1.00445 0.0
O1181 O 0.07607 0.54099 1.00859 0.0
O1182 O 0.05711 0.5038 1.00918 0.0
C1183 C 0.03159 0.57462 0.04686 0.0
H1184 H 0.05935 0.25637 0.94359 0.0
H1185 H 1.00657 0.21366 0.88832 0.0
H1186 H 0.06024 0.21898 0.96608 0.0
H1187 H 1.00621 0.17657 0.91134 0.0
H1188 H 0.02379 0.10801 0.94672 0.0
H1189 H 0.02718 0.14498 0.92359 0.0
H1190 H 0.03777 0.19259 0.99086 0.0
H1191 H 0.03588 0.15514 0.014 0.0
C1192 C 0.04795 0.23891 0.93624 0.0
C1193 C 0.03297 0.23788 0.91415 0.0
C1194 C 0.04823 0.2175 0.94928 0.0
C1195 C 0.03317 0.19461 0.94076 0.0
C1196 C 0.01845 0.19362 0.91839 0.0
C1197 C 0.01855 0.21492 0.90513 0.0
C1198 C 0.02693 0.12641 0.95656 0.0
C1199 C 0.02949 0.12877 0.98213 0.0
C1200 C 0.02869 0.14769 0.94328 0.0
C1201 C 0.0325 0.17197 0.9552 0.0
C1202 C 0.03519 0.17429 0.98094 0.0
C1203 C 0.03393 0.15287 0.99427 0.0
H1204 H 0.05863 0.78423 0.23402 0.0
H1205 H 0.08679 0.78631 0.16356 0.0
H1206 H 0.1008 0.7904 0.25379 0.0
H1207 H 0.12911 0.79304 0.1835 0.0
H1208 H 0.20148 0.82798 0.23252 0.0
H1209 H 0.15909 0.82635 0.2139 0.0
H1210 H 0.13525 0.76201 0.25359 0.0
H1211 H 0.17759 0.76326 0.27177 0.0
C1212 C 0.07381 0.78637 0.22274 0.0
C1213 C 0.06931 0.78473 0.19718 0.0
C1214 C 0.09797 0.78978 0.2341 0.0
C1215 C 0.11826 0.79215 0.22021 0.0
C1216 C 0.11384 0.79143 0.19468 0.0
C1217 C 0.08962 0.7875 0.18327 0.0
C1218 C 0.18711 0.81373 0.23754 0.0
C1219 C 0.19286 0.79583 0.25375 0.0
C1220 C 0.1629 0.81267 0.22671 0.0
C1221 C 0.14385 0.79406 0.23229 0.0
C1222 C 0.1495 0.77667 0.24906 0.0
C1223 C 0.17375 0.77737 0.25944 0.0
H1224 H 0.54188 0.86112 0.43906 0.0
H1225 H 0.52004 0.90182 0.37787 0.0
H1226 H 0.53549 0.89566 0.46697 0.0
H1227 H 0.51396 0.93662 0.40594 0.0
H1228 H 0.47255 0.97487 0.46333 0.0
H1229 H 0.48396 0.9435 0.43453 0.0
H1230 H 0.54926 0.93915 0.48252 0.0
H1231 H 0.53733 0.97011 0.51166 0.0
C1232 C 0.5361 0.8776 0.43148 0.0
C1233 C 0.53127 0.87845 0.4061 0.0
C1234 C 0.53253 0.89752 0.44757 0.0
C1235 C 0.52395 0.91888 0.43878 0.0
C1236 C 0.52017 0.92027 0.41338 0.0
C1237 C 0.52387 0.90036 0.39725 0.0
C1238 C 0.48933 0.96718 0.46772 0.0
C1239 C 0.5041 0.97501 0.48969 0.0
C1240 C 0.49603 0.94939 0.45108 0.0
C1241 C 0.51763 0.93884 0.45606 0.0
C1242 C 0.53242 0.94672 0.47812 0.0
C1243 C 0.5257 0.96458 0.49476 0.0
H1244 H 0.39166 0.2437 0.65898 0.0
H1245 H 0.44511 0.26859 0.72101 0.0
H1246 H 0.35834 0.24574 0.68468 0.0
H1247 H 0.41151 0.27102 0.74676 0.0
H1248 H 0.34388 0.25251 0.79032 0.0
H1249 H 0.37765 0.24682 0.76539 0.0
H1250 H 0.33939 0.27719 0.70518 0.0
H1251 H 0.30594 0.28267 0.72992 0.0
C1252 C 0.39639 0.24966 0.67811 0.0
C1253 C 0.42126 0.25615 0.68776 0.0
C1254 C 0.37717 0.25094 0.69289 0.0
C1255 C 0.3821 0.25875 0.71785 0.0
C1256 C 0.40695 0.26471 0.72769 0.0
C1257 C 0.42626 0.26346 0.71285 0.0
C1258 C 0.34267 0.25774 0.77168 0.0
C1259 C 0.32211 0.26782 0.76205 0.0
C1260 C 0.3621 0.25467 0.75743 0.0
C1261 C 0.36134 0.26147 0.73317 0.0
C1262 C 0.34056 0.27131 0.72359 0.0
C1263 C 0.3213 0.27449 0.73783 0.0
H1264 H 0.03992 0.90365 0.6205 0.0
H1265 H 0.01295 0.85096 0.55822 0.0
H1266 H 0.04144 0.93828 0.59409 0.0
H1267 H 0.01494 0.88559 0.5319 0.0
H1268 H 0.98823 0.95676 0.5029 0.0
H1269 H 0.99156 0.92034 0.5263 0.0
H1270 H 0.06274 0.9568 0.56043 0.0
H1271 H 0.05924 0.99338 0.53695 0.0
C1272 C 0.0345 0.8994 0.60119 0.0
C1273 C 0.02606 0.87453 0.59155 0.0
C1274 C 0.03557 0.91925 0.58604 0.0
C1275 C 0.02822 0.91462 0.56096 0.0
C1276 C 0.02041 0.88973 0.55122 0.0
C1277 C 0.01935 0.86989 0.56633 0.0
C1278 C 1.00477 0.95676 0.51507 0.0
C1279 C 0.0234 0.97783 0.51839 0.0
C1280 C 1.00671 0.93592 0.52844 0.0
C1281 C 0.02736 0.9358 0.54528 0.0
C1282 C 0.04647 0.95654 0.54782 0.0
C1283 C 0.04453 0.97737 0.53437 0.0
H1284 H 0.48047 0.75894 0.87773 0.0
H1285 H 0.45904 0.81394 0.92828 0.0
H1286 H 0.44173 0.75764 0.8521 0.0
H1287 H 0.42023 0.81312 0.90219 0.0
H1288 H 0.37712 0.82668 0.82633 0.0
H1289 H 0.41265 0.82611 0.85606 0.0
H1290 H 0.3936 0.74552 0.85692 0.0
H1291 H 0.35708 0.74628 0.82824 0.0
C1292 C 0.46732 0.77068 0.88331 0.0
C1293 C 0.4727 0.78694 0.90454 0.0
C1294 C 0.44518 0.7698 0.86879 0.0
C1295 C 0.42818 0.78534 0.87521 0.0
C1296 C 0.43322 0.80109 0.89689 0.0
C1297 C 0.45524 0.80155 0.91175 0.0
C1298 C 0.38067 0.80887 0.83281 0.0
C1299 C 0.36473 0.78648 0.82495 0.0
C1300 C 0.40082 0.80858 0.8499 0.0
C1301 C 0.40583 0.78579 0.85859 0.0
C1302 C 0.39006 0.76331 0.85039 0.0
C1303 C 0.36937 0.76372 0.83398 0.0
H1304 H 0.50806 0.24272 0.0565 0.0
H1305 H 0.46884 0.20269 0.1101 0.0
H1306 H 0.50647 0.20377 0.03167 0.0
H1307 H 0.46858 0.16285 0.08596 0.0
H1308 H 0.53061 0.12775 0.01448 0.0
H1309 H 0.52532 0.16844 0.03199 0.0
H1310 H 0.45229 0.13749 0.04923 0.0
H1311 H 0.45823 0.09603 0.03277 0.0
C1312 C 0.49903 0.2254 0.06288 0.0
C1313 C 0.48788 0.22558 0.0847 0.0
C1314 C 0.49835 0.20302 0.04881 0.0
C1315 C 0.48727 0.18013 0.05668 0.0
C1316 C 0.4767 0.18024 0.07902 0.0
C1317 C 0.47711 0.20287 0.09303 0.0
C1318 C 0.51316 0.12965 0.02148 0.0
C1319 C 0.49509 0.10853 0.02273 0.0
C1320 C 0.51005 0.15312 0.03149 0.0
C1321 C 0.48856 0.15614 0.04257 0.0
C1322 C 0.46937 0.13557 0.04151 0.0
C1323 C 0.47261 0.11191 0.03169 0.0
H1324 H 0.10688 0.32286 0.39342 0.0
H1325 H 0.08275 0.2437 0.3996 0.0
H1326 H 0.13727 0.31274 0.36651 0.0
H1327 H 0.11303 0.23339 0.37212 0.0
H1328 H 0.15617 0.28931 0.29253 0.0
H1329 H 0.12814 0.29406 0.32363 0.0
H1330 H 0.15817 0.2375 0.3638 0.0
H1331 H 0.18606 0.23245 0.33235 0.0
C1332 C 0.10875 0.30329 0.38965 0.0
C1333 C 0.09259 0.28404 0.39845 0.0
C1334 C 0.12582 0.29748 0.37398 0.0
C1335 C 0.12686 0.27229 0.36663 0.0
C1336 C 0.11242 0.25297 0.37738 0.0
C1337 C 0.09533 0.25884 0.39328 0.0
C1338 C 0.15636 0.27747 0.30768 0.0
C1339 C 0.17332 0.26067 0.31018 0.0
C1340 C 0.14058 0.2804 0.32564 0.0
C1341 C 0.14154 0.26664 0.34644 0.0
C1342 C 0.15723 0.24846 0.34804 0.0
C1343 C 0.17307 0.24552 0.33002 0.0
H1344 H 0.88428 0.05468 0.15768 0.0
H1345 H 0.9485 0.08108 0.20855 0.0
H1346 H 0.91049 0.05754 0.12393 0.0
H1347 H 0.97443 0.08361 0.17504 0.0
H1348 H 0.01062 0.04197 0.11366 0.0
H1349 H 0.9855 0.04814 0.14711 0.0
H1350 H 0.94055 0.08944 0.10172 0.0
H1351 H 0.96615 0.08366 0.06821 0.0
C1352 C 0.90386 0.06142 0.16164 0.0
C1353 C 0.91427 0.06748 0.18585 0.0
C1354 C 0.91884 0.06315 0.14232 0.0
C1355 C 0.94454 0.07065 0.14688 0.0
C1356 C 0.95474 0.07758 0.17098 0.0
C1357 C 0.9398 0.07617 0.19017 0.0
C1358 C 0.99577 0.05292 0.11102 0.0
C1359 C 0.99054 0.06259 0.08844 0.0
C1360 C 0.98135 0.05643 0.13015 0.0
C1361 C 0.96099 0.06921 0.12702 0.0
C1362 C 0.95607 0.07944 0.10461 0.0
C1363 C 0.9709 0.0764 0.08557 0.0
H1364 H 0.27868 0.67276 0.41709 0.0
H1365 H 0.3125 0.73898 0.4628 0.0
H1366 H 0.27203 0.6983 0.38348 0.0
H1367 H 0.307 0.76478 0.42837 0.0
H1368 H 0.27302 0.80868 0.36869 0.0
H1369 H 0.28033 0.78354 0.40316 0.0
H1370 H 0.28715 0.72077 0.35299 0.0
H1371 H 0.27878 0.7457 0.31888 0.0
C1372 C 0.28516 0.69282 0.41999 0.0
C1373 C 0.29623 0.70357 0.44303 0.0
C1374 C 0.28145 0.70764 0.40036 0.0
C1375 C 0.28895 0.73395 0.40267 0.0
C1376 C 0.30049 0.74474 0.42563 0.0
C1377 C 0.30395 0.72984 0.44548 0.0
C1378 C 0.27583 0.7894 0.36508 0.0
C1379 C 0.27482 0.77915 0.34089 0.0
C1380 C 0.28034 0.77494 0.38495 0.0
C1381 C 0.28437 0.74976 0.38134 0.0
C1382 C 0.28359 0.73972 0.35696 0.0
C1383 C 0.27876 0.7541 0.33715 0.0
H1384 H 0.62478 1.00266 0.70059 0.0
H1385 H 0.55275 0.97795 0.72355 0.0
H1386 H 0.60606 0.00725 0.6599 0.0
H1387 H 0.5339 0.98195 0.68247 0.0
H1388 H 0.50787 0.02239 0.61508 0.0
H1389 H 0.52491 0.01326 0.65534 0.0
H1390 H 0.58564 0.9864 0.62316 0.0
H1391 H 0.56901 0.99609 0.58324 0.0
C1392 C 0.60493 0.99773 0.69685 0.0
C1393 C 0.59034 0.98987 0.71546 0.0
C1394 C 0.59413 1.00029 0.67337 0.0
C1395 C 0.56833 0.99506 0.66765 0.0
C1396 C 0.55376 0.98653 0.68614 0.0
C1397 C 0.56461 0.98397 0.7097 0.0
C1398 C 0.52474 0.01433 0.61656 0.0
C1399 C 0.53705 0.01013 0.59577 0.0
C1400 C 0.53452 0.00897 0.63972 0.0
C1401 C 0.55686 0.99921 0.64276 0.0
C1402 C 0.56871 0.99436 0.6218 0.0
C1403 C 0.55902 0.99979 0.59875 0.0
H1404 H 0.25491 0.42805 0.95984 0.0
H1405 H 0.30241 0.38157 0.99507 0.0
H1406 H 0.25325 0.4023 0.92164 0.0
H1407 H 0.30247 0.35688 0.95674 0.0
H1408 H 0.27639 0.29996 0.89261 0.0
H1409 H 0.27832 0.32622 0.93052 0.0
H1410 H 0.27379 0.39137 0.88914 0.0
H1411 H 0.26999 0.36463 0.85157 0.0
C1412 C 0.2654 0.41261 0.95914 0.0
C1413 C 0.27862 0.40654 0.98018 0.0
C1414 C 0.26461 0.39788 0.9373 0.0
C1415 C 0.2776 0.37727 0.93602 0.0
C1416 C 0.29164 0.37205 0.95707 0.0
C1417 C 0.29186 0.38632 0.97898 0.0
C1418 C 0.27576 0.31989 0.89182 0.0
C1419 C 0.2729 0.33034 0.86938 0.0
C1420 C 0.27707 0.33505 0.91348 0.0
C1421 C 0.27624 0.36106 0.91302 0.0
C1422 C 0.27389 0.37141 0.89034 0.0
C1423 C 0.27191 0.35614 0.86878 0.0
H1424 H 0.92406 0.04205 0.30597 0.0
H1425 H 0.8672 0.07378 0.34032 0.0
H1426 H 0.94853 0.04461 0.34486 0.0
H1427 H 0.89252 0.07815 0.37939 0.0
H1428 H 0.93114 0.05542 0.44972 0.0
H1429 H 0.90659 0.05699 0.41117 0.0
H1430 H 0.97357 0.06879 0.37503 0.0
H1431 H 0.99768 0.06515 0.41341 0.0
C1432 C 0.91703 0.05012 0.32186 0.0
C1433 C 0.89373 0.05777 0.32007 0.0
C1434 C 0.93121 0.05181 0.34427 0.0
C1435 C 0.92281 0.06181 0.36556 0.0
C1436 C 0.89957 0.06993 0.36363 0.0
C1437 C 0.88507 0.06763 0.34119 0.0
C1438 C 0.94053 0.05849 0.43349 0.0
C1439 C 0.96624 0.05992 0.43441 0.0
C1440 C 0.92647 0.05959 0.41132 0.0
C1441 C 0.93789 0.06275 0.38963 0.0
C1442 C 0.96387 0.06552 0.39103 0.0
C1443 C 0.97782 0.06373 0.41308 0.0
H1444 H 0.31201 0.67722 0.60437 0.0
H1445 H 0.32147 0.75025 0.57549 0.0
H1446 H 0.30852 0.697 0.64478 0.0
H1447 H 0.31751 0.76997 0.61579 0.0
H1448 H 0.27309 0.78788 0.68208 0.0
H1449 H 0.28249 0.7702 0.6428 0.0
H1450 H 0.33199 0.72689 0.67985 0.0
H1451 H 0.32291 0.745 0.71928 0.0
C1452 C 0.31374 0.69753 0.60668 0.0
C1453 C 0.31717 0.71207 0.58653 0.0
C1454 C 0.31174 0.70891 0.62993 0.0
C1455 C 0.31256 0.73515 0.63368 0.0
C1456 C 0.31657 0.74972 0.61364 0.0
C1457 C 0.31907 0.7384 0.59051 0.0
C1458 C 0.28624 0.77484 0.68192 0.0
C1459 C 0.29735 0.7681 0.70401 0.0
C1460 C 0.2917 0.76472 0.65931 0.0
C1461 C 0.30804 0.74705 0.65798 0.0
C1462 C 0.31926 0.74036 0.68007 0.0
C1463 C 0.3142 0.75092 0.70273 0.0
H1464 H 0.62399 0.99049 0.88449 0.0
H1465 H 0.56876 0.01737 0.83718 0.0
H1466 H 0.60041 0.99635 0.91898 0.0
H1467 H 0.54579 0.02497 0.87187 0.0
H1468 H 0.49914 0.0204 0.93586 0.0
H1469 H 0.52089 0.0114 0.90069 0.0
H1470 H 0.58995 0.02452 0.94686 0.0
H1471 H 0.56769 0.03154 0.98214 0.0
C1472 C 0.60671 0.99765 0.88146 0.0
C1473 C 0.59822 1.00327 0.85797 0.0
C1474 C 0.59325 1.00141 0.9014 0.0
C1475 C 0.5711 0.01158 0.89871 0.0
C1476 C 0.56243 0.01676 0.87499 0.0
C1477 C 0.57566 0.01243 0.85492 0.0
C1478 C 0.51899 0.02138 0.93844 0.0
C1479 C 0.53166 0.02679 0.96184 0.0
C1480 C 0.53162 0.01636 0.91814 0.0
C1481 C 0.55745 0.01706 0.9205 0.0
C1482 C 0.57009 0.02307 0.94401 0.0
C1483 C 0.55736 0.02754 0.96437 0.0
H1484 H 0.22696 0.34362 0.07912 0.0
H1485 H 0.24425 0.40652 0.13347 0.0
H1486 H 0.21647 0.31541 0.11075 0.0
H1487 H 0.23344 0.37814 0.16511 0.0
H1488 H 0.20569 0.32178 0.21695 0.0
H1489 H 0.19894 0.34518 0.18086 0.0
H1490 H 0.2489 0.30504 0.14405 0.0
H1491 H 0.25607 0.28232 0.18019 0.0
C1492 C 0.22798 0.35155 0.09774 0.0
C1493 C 0.23685 0.37725 0.10389 0.0
C1494 C 0.2219 0.33536 0.11579 0.0
C1495 C 0.22425 0.3446 0.1403 0.0
C1496 C 0.23125 0.3706 0.14628 0.0
C1497 C 0.23761 0.3868 0.12821 0.0
C1498 C 0.21435 0.31727 0.20073 0.0
C1499 C 0.23129 0.30025 0.20114 0.0
C1500 C 0.2107 0.33081 0.18025 0.0
C1501 C 0.22349 0.32696 0.1598 0.0
C1502 C 0.23863 0.3082 0.1595 0.0
C1503 C 0.24273 0.29517 0.18012 0.0
H1504 H 0.16436 0.94036 0.98623 0.0
H1505 H 0.1692 0.93471 0.0639 0.0
H1506 H 0.13063 0.96444 0.98874 0.0
H1507 H 0.13562 0.95982 0.06672 0.0
H1508 H 0.06414 0.99751 0.05985 0.0
H1509 H 0.09262 0.96655 0.05813 0.0
H1510 H 0.12802 0.00617 1.00186 0.0
H1511 H 0.09936 0.03605 1.00311 0.0
C1512 C 0.15786 0.94389 1.00388 0.0
C1513 C 0.1695 0.93544 0.02483 0.0
C1514 C 0.13866 0.95808 1.0054 0.0
C1515 C 0.13059 0.96485 0.02804 0.0
C1516 C 0.14119 0.95508 0.04893 0.0
C1517 C 0.1604 0.94052 0.04734 0.0
C1518 C 0.07774 0.99926 0.04688 0.0
C1519 C 0.07906 0.0191 0.03135 0.0
C1520 C 0.09433 0.98167 0.04605 0.0
C1521 C 0.11263 0.98341 0.02959 0.0
C1522 C 0.11399 1.00357 0.0144 0.0
C1523 C 0.09759 0.02103 0.01531 0.0
H1524 H 0.68621 0.6587 0.95788 0.0
H1525 H 0.7189 0.60351 0.99745 0.0
H1526 H 0.64493 0.63538 0.96181 0.0
H1527 H 0.67855 0.57932 0.99962 0.0
H1528 H 0.60747 0.56414 0.03309 0.0
H1529 H 0.64674 0.58578 0.02359 0.0
H1530 H 0.61451 0.5972 0.95169 0.0
H1531 H 0.5744 0.57616 0.96172 0.0
C1532 C 0.68453 0.64122 0.96672 0.0
C1533 C 0.70562 0.63244 0.97674 0.0
C1534 C 0.66102 0.62779 0.96885 0.0
C1535 C 0.65844 0.6056 0.98125 0.0
C1536 C 0.67976 0.59658 0.99041 0.0
C1537 C 0.70297 0.61016 0.98871 0.0
C1538 C 0.60868 0.57105 0.01516 0.0
C1539 C 0.58787 0.56819 0.99807 0.0
C1540 C 0.63131 0.58339 1.00963 0.0
C1541 C 0.63392 0.59286 0.98669 0.0
C1542 C 0.61308 0.59017 0.96954 0.0
C1543 C 0.59018 0.57802 0.97523 0.0
H1544 H 0.72216 0.46067 0.33779 0.0
H1545 H 0.67132 0.44075 0.27291 0.0
H1546 H 0.74282 0.42523 0.32778 0.0
H1547 H 0.69243 0.40529 0.26271 0.0
H1548 H 0.7257 0.3306 0.26673 0.0
H1549 H 0.70197 0.36424 0.27504 0.0
H1550 H 0.76978 0.41498 0.29767 0.0
H1551 H 0.79332 0.38121 0.28906 0.0
C1552 C 0.71521 0.44864 0.32146 0.0
C1553 C 0.69509 0.45379 0.3061 0.0
C1554 C 0.72726 0.42839 0.3156 0.0
C1555 C 0.71963 0.41266 0.29418 0.0
C1556 C 0.6988 0.41702 0.27936 0.0
C1557 C 0.68668 0.43737 0.28523 0.0
C1558 C 0.73557 0.34907 0.27246 0.0
C1559 C 0.76143 0.35329 0.2765 0.0
C1560 C 0.72193 0.36838 0.27762 0.0
C1561 C 0.73391 0.39234 0.2872 0.0
C1562 C 0.75986 0.39667 0.29072 0.0
C1563 C 0.77339 0.37737 0.28556 0.0
H1564 H 0.81051 0.39152 0.50462 0.0
H1565 H 0.79426 0.44859 0.55612 0.0
H1566 H 0.85308 0.41359 0.5058 0.0
H1567 H 0.83657 0.47069 0.55743 0.0
H1568 H 0.9208 0.4934 0.5678 0.0
H1569 H 0.88034 0.46778 0.56969 0.0
H1570 H 0.87266 0.45386 0.49139 0.0
H1571 H 0.91257 0.48005 0.48949 0.0
C1572 C 0.81617 0.40869 0.5163 0.0
C1573 C 0.79908 0.41887 0.5297 0.0
C1574 C 0.84044 0.42138 0.51693 0.0
C1575 C 0.84816 0.44406 0.53153 0.0
C1576 C 0.83131 0.45325 0.54609 0.0
C1577 C 0.80703 0.44077 0.54516 0.0
C1578 C 0.91031 0.48497 0.55102 0.0
C1579 C 0.91966 0.48887 0.52848 0.0
C1580 C 0.88718 0.47033 0.55208 0.0
C1581 C 0.87318 0.45884 0.53066 0.0
C1582 C 0.88288 0.46242 0.5082 0.0
C1583 C 0.90569 0.47753 0.5071 0.0
H1584 H 0.37135 0.14334 0.22896 0.0
H1585 H 0.38613 0.16068 0.30649 0.0
H1586 H 0.34619 0.1772 0.22639 0.0
H1587 H 0.36173 0.19475 0.30402 0.0
H1588 H 0.28318 0.21379 0.29715 0.0
H1589 H 0.31715 0.19 0.29748 0.0
H1590 H 0.33966 0.22284 0.23204 0.0
H1591 H 0.30501 0.24706 0.23181 0.0
C1592 C 0.37032 0.15526 0.24523 0.0
C1593 C 0.38096 0.14953 0.2679 0.0
C1594 C 0.35571 0.17456 0.24382 0.0
C1595 C 0.35143 0.18843 0.26508 0.0
C1596 C 0.36412 0.18416 0.28733 0.0
C1597 C 0.37847 0.16487 0.28873 0.0
C1598 C 0.29542 0.21616 0.28287 0.0
C1599 C 0.29137 0.23237 0.26448 0.0
C1600 C 0.31515 0.20264 0.28318 0.0
C1601 C 0.33145 0.20457 0.26492 0.0
C1602 C 0.32751 0.22088 0.24641 0.0
C1603 C 0.30778 0.23484 0.24633 0.0
H1604 H 0.33245 0.1416 0.53499 0.0
H1605 H 0.32518 0.08783 0.47233 0.0
H1606 H 0.36401 0.12051 0.55488 0.0
H1607 H 0.35705 0.06726 0.49196 0.0
H1608 H 0.39973 0.02122 0.53626 0.0
H1609 H 0.3639 0.04128 0.52519 0.0
H1610 H 0.40571 0.11371 0.55177 0.0
H1611 H 0.44124 0.09359 0.56339 0.0
C1612 C 0.3378 0.12552 0.52529 0.0
C1613 C 0.32625 0.11642 0.50201 0.0
C1614 C 0.35582 0.11337 0.53677 0.0
C1615 C 0.36272 0.09193 0.52521 0.0
C1616 C 0.35165 0.08328 0.5017 0.0
C1617 C 0.3336 0.09532 0.49027 0.0
C1618 C 0.40094 0.0413 0.54049 0.0
C1619 C 0.42328 0.05591 0.55032 0.0
C1620 C 0.38057 0.05285 0.53386 0.0
C1621 C 0.38227 0.07919 0.53688 0.0
C1622 C 0.40386 0.09343 0.54905 0.0
C1623 C 0.4242 0.08187 0.55576 0.0
H1624 H 0.71078 0.57093 0.28666 0.0
H1625 H 0.65359 0.59978 0.32289 0.0
H1626 H 0.73179 0.61374 0.28388 0.0
H1627 H 0.67435 0.643 0.31975 0.0
H1628 H 0.74291 0.69171 0.25437 0.0
H1629 H 0.72413 0.64921 0.2609 0.0
H1630 H 0.71226 0.6736 0.33422 0.0
H1631 H 0.73082 0.71659 0.32757 0.0
C1632 C 0.70292 0.58654 0.29434 0.0
C1633 C 0.681 0.58215 0.30561 0.0
C1634 C 0.71478 0.61107 0.2925 0.0
C1635 C 0.70478 0.63185 0.30159 0.0
C1636 C 0.68274 0.62742 0.31288 0.0
C1637 C 0.67078 0.60276 0.31458 0.0
C1638 C 0.73645 0.68812 0.27197 0.0
C1639 C 0.73843 0.70767 0.29044 0.0
C1640 C 0.72577 0.66363 0.27576 0.0
C1641 C 0.71671 0.65795 0.2981 0.0
C1642 C 0.71884 0.67741 0.31671 0.0
C1643 C 0.72965 0.702 0.31295 0.0
H1644 H 0.84915 0.51689 0.74003 0.0
H1645 H 0.89931 0.49436 0.79585 0.0
H1646 H 0.82183 0.47659 0.74019 0.0
H1647 H 0.87171 0.45401 0.79641 0.0
H1648 H 0.79918 0.40152 0.80981 0.0
H1649 H 0.82667 0.44151 0.80846 0.0
H1650 H 0.82392 0.42929 0.73028 0.0
H1651 H 0.7973 0.38874 0.73176 0.0
C1652 C 0.85425 0.5032 0.75232 0.0
C1653 C 0.87589 0.50875 0.76836 0.0
C1654 C 0.83874 0.48017 0.75232 0.0
C1655 C 0.84454 0.46236 0.76851 0.0
C1656 C 0.86667 0.46761 0.78401 0.0
C1657 C 0.88246 0.49052 0.78364 0.0
C1658 C 0.80413 0.40764 0.79233 0.0
C1659 C 0.79603 0.39227 0.77086 0.0
C1660 C 0.82 0.43038 0.79158 0.0
C1661 C 0.82741 0.43847 0.76928 0.0
C1662 C 0.81843 0.42353 0.7477 0.0
C1663 C 0.80316 0.40044 0.74853 0.0
H1664 H 0.0243 0.84067 0.14445 0.0
H1665 H 0.95048 0.82201 0.10811 0.0
H1666 H 0.03022 0.8797 0.12389 0.0
H1667 H 0.95602 0.86118 0.08824 0.0
H1668 H 0.98229 0.91725 0.03445 0.0
H1669 H 0.97725 0.87907 0.05643 0.0
H1670 H 0.01919 0.92029 0.12009 0.0
H1671 H 0.0249 0.958 0.09777 0.0
C1672 C 0.00913 0.84518 0.13255 0.0
C1673 C 0.98697 0.82816 0.12787 0.0
C1674 C 0.01252 0.86755 0.12068 0.0
C1675 C 0.99373 0.8735 0.10402 0.0
C1676 C 0.97117 0.85698 0.10035 0.0
C1677 C 0.96788 0.8346 0.112 0.0
C1678 C 0.99054 0.91801 0.05307 0.0
C1679 C 1.00396 0.94055 0.06439 0.0
C1680 C 0.98749 0.89622 0.0658 0.0
C1681 C 0.99763 0.89655 0.09021 0.0
C1682 C 0.01134 0.91914 0.10131 0.0
C1683 C 0.01451 0.94083 0.08853 0.0
H1684 H 0.96605 0.27147 0.82398 0.0
H1685 H 0.94438 0.31825 0.88175 0.0
H1686 H 0.9241 0.26626 0.80317 0.0
H1687 H 0.90254 0.31331 0.861 0.0
H1688 H 0.83698 0.24566 0.78869 0.0
H1689 H 0.8789 0.24763 0.80891 0.0
H1690 H 0.88464 0.32817 0.8218 0.0
H1691 H 0.84358 0.32645 0.80124 0.0
C1692 C 0.95228 0.28073 0.8321 0.0
C1693 C 0.95854 0.29599 0.85398 0.0
C1694 C 0.92825 0.27752 0.82037 0.0
C1695 C 0.91007 0.2896 0.83029 0.0
C1696 C 0.91623 0.30409 0.85269 0.0
C1697 C 0.94011 0.30692 0.86458 0.0
C1698 C 0.84738 0.2638 0.79554 0.0
C1699 C 0.83693 0.28589 0.7931 0.0
C1700 C 0.87135 0.26492 0.8071 0.0
C1701 C 0.88507 0.28807 0.81701 0.0
C1702 C 0.87461 0.31006 0.81443 0.0
C1703 C 0.85103 0.30903 0.80245 0.0
H1704 H 0.50838 0.22068 0.60393 0.0
H1705 H 0.48173 0.17344 0.65924 0.0
H1706 H 0.51563 0.18372 0.57948 0.0
H1707 H 0.49034 0.13622 0.63515 0.0
H1708 H 0.54723 0.09103 0.59255 0.0
H1709 H 0.53523 0.1251 0.61831 0.0
H1710 H 0.4847 0.14021 0.5589 0.0
H1711 H 0.49585 0.10561 0.53355 0.0
C1712 C 0.50361 0.20227 0.61062 0.0
C1713 C 0.49341 0.19976 0.63293 0.0
C1714 C 0.508 0.18118 0.59673 0.0
C1715 C 0.50326 0.15714 0.60531 0.0
C1716 C 0.49393 0.15459 0.62808 0.0
C1717 C 0.48901 0.17577 0.6418 0.0
C1718 C 0.5334 0.10155 0.58514 0.0
C1719 C 0.52248 0.09582 0.5611 0.0
C1720 C 0.52642 0.12084 0.5999 0.0
C1721 C 0.5089 0.13513 0.59062 0.0
C1722 C 0.49805 0.12936 0.56655 0.0
C1723 C 0.5045 0.10965 0.55205 0.0
H1724 H 0.59922 0.84689 0.32947 0.0
H1725 H 0.59958 0.77788 0.36521 0.0
H1726 H 0.63751 0.84094 0.31221 0.0
H1727 H 0.63765 0.77174 0.34749 0.0
H1728 H 0.67975 0.75471 0.27874 0.0
H1729 H 0.64575 0.76263 0.30226 0.0
H1730 H 0.68401 0.83754 0.3247 0.0
H1731 H 0.71838 0.82938 0.3014 0.0
C1732 C 0.60765 0.83064 0.33396 0.0
C1733 C 0.59627 0.81288 0.34878 0.0
C1734 C 0.62964 0.82728 0.3241 0.0
C1735 C 0.64056 0.8058 0.32837 0.0
C1736 C 0.62962 0.78842 0.34376 0.0
C1737 C 0.60789 0.79205 0.35406 0.0
C1738 C 0.68099 0.77281 0.28883 0.0
C1739 C 0.70173 0.79141 0.28825 0.0
C1740 C 0.66159 0.77729 0.30244 0.0
C1741 C 0.66218 0.80069 0.31541 0.0
C1742 C 0.68299 0.81933 0.31488 0.0
C1743 C 0.70269 0.81464 0.30164 0.0
H1744 H 0.03963 0.23664 0.50066 0.0
H1745 H 1.00691 0.19496 0.43337 0.0
H1746 H 0.0357 0.19805 0.52133 0.0
H1747 H 1.00346 0.15585 0.45417 0.0
H1748 H 0.97915 0.09635 0.50927 0.0
H1749 H 0.98118 0.1342 0.48644 0.0
H1750 H 0.05472 0.16057 0.52131 0.0
H1751 H 0.05255 0.1232 0.54388 0.0
C1752 C 0.03176 0.21918 0.4902 0.0
C1753 C 0.02372 0.21882 0.46534 0.0
C1754 C 0.02958 0.19701 0.50206 0.0
C1755 C 0.01943 0.17388 0.48935 0.0
C1756 C 0.0112 0.17345 0.46447 0.0
C1757 C 0.01335 0.19577 0.45254 0.0
C1758 C 0.99573 0.11021 0.51176 0.0
C1759 C 0.01567 0.1069 0.5282 0.0
C1760 C 0.99693 0.13182 0.49876 0.0
C1761 C 0.01808 0.15041 0.50218 0.0
C1762 C 0.03799 0.14685 0.5186 0.0
C1763 C 0.03674 0.12543 0.53155 0.0
H1764 H 0.5781 0.26951 0.12116 0.0
H1765 H 0.56569 0.33381 0.16632 0.0
H1766 H 0.61655 0.26814 0.14672 0.0
H1767 H 0.60446 0.33283 0.19133 0.0
H1768 H 0.69066 0.33052 0.2101 0.0
H1769 H 0.65432 0.33484 0.18267 0.0
H1770 H 0.61996 0.26054 0.19722 0.0
H1771 H 0.65605 0.25646 0.22527 0.0
C1772 C 0.58398 0.28376 0.13608 0.0
C1773 C 0.56906 0.30176 0.14187 0.0
C1774 C 0.60575 0.28282 0.15076 0.0
C1775 C 0.6131 0.30025 0.17097 0.0
C1776 C 0.59901 0.31922 0.17581 0.0
C1777 C 0.57697 0.31979 0.16152 0.0
C1778 C 0.67521 0.31524 0.20758 0.0
C1779 C 0.67594 0.29319 0.21972 0.0
C1780 C 0.65457 0.31771 0.19192 0.0
C1781 C 0.63471 0.29789 0.18777 0.0
C1782 C 0.63531 0.27591 0.20006 0.0
C1783 C 0.65573 0.27368 0.21619 0.0
H1784 H 0.54308 0.83587 0.99299 0.0
H1785 H 0.5628 0.88474 0.93616 0.0
H1786 H 0.54556 0.87252 0.02172 0.0
H1787 H 0.56551 0.92131 0.96515 0.0
H1788 H 0.58011 0.98262 0.0238 0.0
H1789 H 0.58868 0.94275 1.00622 0.0
H1790 H 0.51649 0.90649 0.02035 0.0
H1791 H 0.50757 0.94643 0.0377 0.0
C1792 C 0.54849 0.85437 0.98672 0.0
C1793 C 0.55252 0.85742 0.96217 0.0
C1794 C 0.54986 0.87529 1.00322 0.0
C1795 C 0.55571 0.89961 0.99561 0.0
C1796 C 0.56122 0.90267 0.97151 0.0
C1797 C 0.5595 0.88176 0.95488 0.0
C1798 C 0.56628 0.96605 0.02391 0.0
C1799 C 0.54288 0.96782 0.03162 0.0
C1800 C 0.57123 0.94326 0.01373 0.0
C1801 C 0.55309 0.9218 0.01158 0.0
C1802 C 0.53078 0.92286 0.02181 0.0
C1803 C 0.52566 0.94575 0.0317 0.0
H1804 H 0.9364 0.78115 0.63697 0.0
H1805 H 0.95979 0.85798 0.66656 0.0
H1806 H 0.89971 0.77883 0.6588 0.0
H1807 H 0.92264 0.85612 0.68762 0.0
H1808 H 0.87492 0.83148 0.74843 0.0
H1809 H 0.90878 0.83653 0.72247 0.0
H1810 H 0.86145 0.79233 0.66359 0.0
H1811 H 0.82827 0.78642 0.68986 0.0
C1812 C 0.93323 0.7978 0.64747 0.0
C1813 C 0.95093 0.81966 0.65025 0.0
C1814 C 0.91224 0.7965 0.66005 0.0
C1815 C 0.90846 0.81719 0.67532 0.0
C1816 C 0.92535 0.83964 0.67658 0.0
C1817 C 0.94646 0.84081 0.6643 0.0
C1818 C 0.87192 0.82288 0.72995 0.0
C1819 C 0.8492 0.80844 0.72115 0.0
C1820 C 0.89115 0.82593 0.71498 0.0
C1821 C 0.88779 0.81486 0.69089 0.0
C1822 C 0.86481 0.80076 0.68212 0.0
C1823 C 0.84578 0.79746 0.69715 0.0
H1824 H 0.15361 0.00866 0.89953 0.0
H1825 H 0.09348 1.00054 0.84236 0.0
H1826 H 0.12396 1.00527 0.92999 0.0
H1827 H 0.06399 0.99713 0.87283 0.0
H1828 H 0.06271 0.98233 0.97876 0.0
H1829 H 0.08951 0.97679 0.94635 0.0
H1830 H 0.05332 0.02777 0.90391 0.0
H1831 H 0.02688 0.03345 0.93621 0.0
C1832 C 0.13411 0.00584 0.89339 0.0
C1833 C 0.12605 1.00506 0.86839 0.0
C1834 C 0.11708 1.00374 0.91089 0.0
C1835 C 0.09158 1.00104 0.90387 0.0
C1836 C 0.0835 0.99945 0.87888 0.0
C1837 C 0.10048 1.00132 0.86139 0.0
C1838 C 0.06007 0.99182 0.96223 0.0
C1839 C 0.04261 0.00829 0.96004 0.0
C1840 C 0.07561 0.98887 0.94378 0.0
C1841 C 0.07365 1.00192 0.92255 0.0
C1842 C 0.05523 0.01726 0.91987 0.0
C1843 C 0.04005 0.02054 0.93843 0.0
H1844 H 0.71099 0.32478 0.58139 0.0
H1845 H 0.7498 0.39481 0.61705 0.0
H1846 H 0.71836 0.30381 0.61867 0.0
H1847 H 0.75773 0.3738 0.65421 0.0
H1848 H 0.75132 0.33202 0.72468 0.0
H1849 H 0.74223 0.35432 0.68852 0.0
H1850 H 0.7496 0.28855 0.64273 0.0
H1851 H 0.75852 0.26647 0.67892 0.0
C1852 C 0.72094 0.33581 0.59724 0.0
C1853 C 0.72969 0.36161 0.59602 0.0
C1854 C 0.72546 0.32367 0.61869 0.0
C1855 C 0.73897 0.33685 0.63974 0.0
C1856 C 0.7471 0.36286 0.63868 0.0
C1857 C 0.74256 0.37499 0.61721 0.0
C1858 C 0.75159 0.32255 0.70692 0.0
C1859 C 0.75624 0.29758 0.70485 0.0
C1860 C 0.74616 0.33531 0.68602 0.0
C1861 C 0.74503 0.32343 0.66233 0.0
C1862 C 0.7498 0.29841 0.66043 0.0
C1863 C 0.7552 0.28573 0.68128 0.0
H1864 H 0.41134 0.10413 0.36134 0.0
H1865 H 0.46231 0.06567 0.32448 0.0
H1866 H 0.43297 0.09879 0.40047 0.0
H1867 H 0.48349 0.05907 0.3639 0.0
H1868 H 0.52465 0.06173 0.44094 0.0
H1869 H 0.5083 0.0733 0.40116 0.0
H1870 H 0.43549 0.06662 0.42587 0.0
H1871 H 0.45181 0.05619 0.46528 0.0
C1872 C 0.42737 0.09468 0.3616 0.0
C1873 C 0.43502 0.0853 0.33972 0.0
C1874 C 0.43967 0.0913 0.38415 0.0
C1875 C 0.45975 0.07786 0.38568 0.0
C1876 C 0.46822 0.06958 0.36367 0.0
C1877 C 0.45608 0.07338 0.34097 0.0
C1878 C 0.5052 0.06295 0.43787 0.0
C1879 C 0.48969 0.05822 0.45657 0.0
C1880 C 0.49574 0.06946 0.41495 0.0
C1881 C 0.47049 0.0713 0.41009 0.0
C1882 C 0.45512 0.06625 0.42883 0.0
C1883 C 0.46454 0.06 0.45161 0.0
H1884 H 0.79676 0.72562 0.05651 0.0
H1885 H 0.7467 0.66061 0.07352 0.0
H1886 H 0.79439 0.74583 0.09664 0.0
H1887 H 0.74453 0.68088 0.11394 0.0
H1888 H 0.7233 0.73952 0.16941 0.0
H1889 H 0.727 0.71852 0.1297 0.0
H1890 H 0.80617 0.74074 0.14034 0.0
H1891 H 0.80243 0.76186 0.17989 0.0
C1892 C 0.78545 0.71554 0.06893 0.0
C1893 C 0.77182 0.69159 0.0619 0.0
C1894 C 0.78418 0.72709 0.09193 0.0
C1895 C 0.76916 0.71496 0.10827 0.0
C1896 C 0.75599 0.69074 0.1015 0.0
C1897 C 0.7574 0.67908 0.0785 0.0
C1898 C 0.74142 0.74008 0.16309 0.0
C1899 C 0.76257 0.75235 0.1775 0.0
C1900 C 0.74357 0.72787 0.14056 0.0
C1901 C 0.76688 0.72788 0.1321 0.0
C1902 C 0.78797 0.74059 0.14639 0.0
C1903 C 0.78583 0.75268 0.16895 0.0
H1904 H 0.16039 0.02146 0.71537 0.0
H1905 H 0.0909 0.98372 0.73531 0.0
H1906 H 0.14146 0.02396 0.67418 0.0
H1907 H 0.07188 0.98658 0.69419 0.0
H1908 H 0.04848 0.98368 0.61209 0.0
H1909 H 0.07023 0.97389 0.65019 0.0
H1910 H 0.11151 0.04929 0.65804 0.0
H1911 H 0.0901 0.05879 0.62011 0.0
C1912 C 0.14117 0.01337 0.71088 0.0
C1913 C 0.12709 1.00262 0.72869 0.0
C1914 C 0.13027 0.01494 0.68731 0.0
C1915 C 0.10506 0.00579 0.68099 0.0
C1916 C 0.09135 0.99371 0.69841 0.0
C1917 C 0.10225 0.99217 0.72202 0.0
C1918 C 0.06233 0.99801 0.62197 0.0
C1919 C 0.0676 0.02198 0.61325 0.0
C1920 C 0.07472 0.99247 0.64377 0.0
C1921 C 0.09271 0.01078 0.65711 0.0
C1922 C 0.0981 0.03461 0.64805 0.0
C1923 C 0.08568 0.04014 0.62641 0.0
H1924 H 0.71734 0.39994 0.43069 0.0
H1925 H 0.73404 0.33683 0.46992 0.0
H1926 H 0.72125 0.37688 0.39228 0.0
H1927 H 0.73796 0.31359 0.43124 0.0
H1928 H 0.71328 0.32277 0.32414 0.0
H1929 H 0.70395 0.34137 0.36306 0.0
H1930 H 0.76698 0.31558 0.3995 0.0
H1931 H 0.7763 0.29695 0.36063 0.0
C1932 C 0.72137 0.38091 0.43115 0.0
C1933 C 0.72521 0.37033 0.45364 0.0
C1934 C 0.7236 0.3676 0.40897 0.0
C1935 C 0.73008 0.34328 0.40841 0.0
C1936 C 0.7332 0.33234 0.43083 0.0
C1937 C 0.73063 0.34558 0.45308 0.0
C1938 C 0.72499 0.32072 0.34047 0.0
C1939 C 0.74555 0.30817 0.33903 0.0
C1940 C 0.71974 0.33162 0.36287 0.0
C1941 C 0.73467 0.33012 0.38467 0.0
C1942 C 0.75483 0.31696 0.3833 0.0
C1943 C 0.76026 0.30634 0.36087 0.0
H1944 H 0.47937 0.09568 0.21472 0.0
H1945 H 0.40931 0.06066 0.17742 0.0
H1946 H 0.4996 0.08726 0.17828 0.0
H1947 H 0.42961 0.05154 0.14108 0.0
H1948 H 0.47127 0.05765 0.07225 0.0
H1949 H 0.44986 0.06754 0.10768 0.0
H1950 H 0.51228 0.05397 0.15525 0.0
H1951 H 0.5338 0.04481 0.11981 0.0
C1952 C 0.46821 0.08628 0.19869 0.0
C1953 C 0.44264 0.07891 0.19911 0.0
C1954 C 0.4799 0.08117 0.17776 0.0
C1955 C 0.46643 0.06838 0.15657 0.0
C1956 C 0.4407 0.0616 0.15682 0.0
C1957 C 0.42899 0.0668 0.17776 0.0
C1958 C 0.48034 0.05665 0.0903 0.0
C1959 C 0.5043 0.05048 0.09316 0.0
C1960 C 0.46801 0.06226 0.1107 0.0
C1961 C 0.47927 0.06182 0.13459 0.0
C1962 C 0.50309 0.05511 0.1373 0.0
C1963 C 0.51541 0.04958 0.11692 0.0
H1964 H 0.79132 0.66471 0.89769 0.0
H1965 H 0.79633 0.72401 0.95521 0.0
H1966 H 0.79924 0.69652 0.86841 0.0
H1967 H 0.80394 0.75544 0.92593 0.0
H1968 H 0.82362 0.76017 0.82251 0.0
H1969 H 0.83037 0.73473 0.85692 0.0
H1970 H 0.77231 0.76404 0.89158 0.0
H1971 H 0.76526 0.78909 0.8571 0.0
C1972 C 0.79462 0.68442 0.90419 0.0
C1973 C 0.79273 0.69175 0.92871 0.0
C1974 C 0.79928 0.70261 0.88746 0.0
C1975 C 0.802 0.72839 0.89498 0.0
C1976 C 0.8017 0.73569 0.91969 0.0
C1977 C 0.79726 0.7176 0.9364 0.0
C1978 C 0.81298 0.76194 0.83793 0.0
C1979 C 0.79389 0.77658 0.8372 0.0
C1980 C 0.81667 0.74716 0.85744 0.0
C1981 C 0.80172 0.74728 0.87671 0.0
C1982 C 0.78419 0.76371 0.87699 0.0
C1983 C 0.78017 0.77808 0.85731 0.0
H1984 H 0.84049 0.09708 0.97808 0.0
H1985 H 0.88202 0.15735 0.02707 0.0
H1986 H 0.87394 0.07301 0.98286 0.0
H1987 H 0.91635 0.13274 0.03139 0.0
H1988 H 0.97898 0.08338 1.0071 0.0
H1989 H 0.94818 0.11195 1.0038 0.0
H1990 H 0.89207 0.05175 0.01935 0.0
H1991 H 0.92278 0.02356 0.02289 0.0
C1992 C 0.85684 0.10552 0.98977 0.0
C1993 C 0.85815 0.12947 1.00224 0.0
C1994 C 0.87613 0.09143 0.99256 0.0
C1995 C 0.89786 0.10069 1.00765 0.0
C1996 C 0.89986 0.125 0.01956 0.0
C1997 C 0.88015 0.13912 0.0171 0.0
C1998 C 0.96008 0.0762 1.00954 0.0
C1999 C 0.9534 0.05093 0.01474 0.0
C2000 C 0.94243 0.0927 1.00801 0.0
C2001 C 0.91751 0.08421 0.0112 0.0
C2002 C 0.91099 0.05899 0.01659 0.0
C2003 C 0.92864 0.04276 0.01857 0.0
H2004 H 0.33666 0.47172 0.09091 0.0
H2005 H 0.34186 0.40875 0.04075 0.0
H2006 H 0.3802 0.48816 0.08836 0.0
H2007 H 0.38554 0.42425 0.03887 0.0
H2008 H 0.44113 0.48256 1.00677 0.0
H2009 H 0.4043 0.45757 0.01836 0.0
H2010 H 0.42347 0.48709 0.09332 0.0
H2011 H 0.46127 0.51149 0.0816 0.0
C2012 C 0.34734 0.46134 0.07956 0.0
C2013 C 0.33593 0.43988 0.06496 0.0
C2014 C 0.37235 0.47042 0.07841 0.0
C2015 C 0.38622 0.45793 0.06278 0.0
C2016 C 0.3752 0.43485 0.05035 0.0
C2017 C 0.35025 0.42592 0.05146 0.0
C2018 C 0.43752 0.48368 0.02573 0.0
C2019 C 0.45377 0.49926 0.04321 0.0
C2020 C 0.41652 0.46907 0.03251 0.0
C2021 C 0.41065 0.4705 0.05679 0.0
C2022 C 0.42721 0.48583 0.07441 0.0
C2023 C 0.44878 0.49984 0.06771 0.0
H2024 H 0.30803 0.6034 0.71999 0.0
H2025 H 0.3596 0.62936 0.78289 0.0
H2026 H 0.29019 0.64211 0.72381 0.0
H2027 H 0.34138 0.66793 0.78742 0.0
H2028 H 0.31254 0.74295 0.77662 0.0
H2029 H 0.33416 0.7071 0.77131 0.0
H2030 H 0.26429 0.659 0.75056 0.0
H2031 H 0.24295 0.69508 0.75577 0.0
C2032 C 0.31581 0.61771 0.73436 0.0
C2033 C 0.33532 0.61371 0.75096 0.0
C2034 C 0.30541 0.63973 0.73681 0.0
C2035 C 0.31404 0.65803 0.75619 0.0
C2036 C 0.33436 0.65439 0.77218 0.0
C2037 C 0.34487 0.63238 0.76959 0.0
C2038 C 0.30179 0.72467 0.77178 0.0
C2039 C 0.27601 0.72179 0.76732 0.0
C2040 C 0.31421 0.70406 0.76837 0.0
C2041 C 0.30105 0.68008 0.76034 0.0
C2042 C 0.27516 0.67722 0.75627 0.0
C2043 C 0.26286 0.69785 0.75954 0.0
H2044 H 0.24737 0.62471 0.53531 0.0
H2045 H 0.21929 0.68315 0.49675 0.0
H2046 H 0.20535 0.6039 0.53837 0.0
H2047 H 0.17692 0.66272 0.5002 0.0
H2048 H 0.12715 0.58634 0.56049 0.0
H2049 H 0.16898 0.60806 0.55798 0.0
H2050 H 0.14813 0.62529 0.48439 0.0
H2051 H 0.10607 0.60407 0.48724 0.0
C2052 C 0.23208 0.63301 0.52741 0.0
C2053 C 0.23643 0.65498 0.51505 0.0
C2054 C 0.20799 0.62129 0.52942 0.0
C2055 C 0.18765 0.63148 0.51936 0.0
C2056 C 0.19212 0.65406 0.50772 0.0
C2057 C 0.21631 0.66585 0.50584 0.0
C2058 C 0.13154 0.59478 0.54379 0.0
C2059 C 0.11338 0.59357 0.52409 0.0
C2060 C 0.15554 0.60714 0.54229 0.0
C2061 C 0.16198 0.61851 0.52099 0.0
C2062 C 0.14375 0.61713 0.50121 0.0
C2063 C 0.1197 0.60483 0.50277 0.0
H2064 H 0.64209 0.92454 0.75999 0.0
H2065 H 0.67811 0.94114 0.83311 0.0
H2066 H 0.66565 0.88955 0.75431 0.0
H2067 H 0.70163 0.907 0.82716 0.0
H2068 H 0.76587 0.87939 0.78793 0.0
H2069 H 0.7356 0.90716 0.79478 0.0
H2070 H 0.67646 0.84502 0.77553 0.0
H2071 H 0.70704 0.81686 0.76923 0.0
C2072 C 0.65439 0.92034 0.77505 0.0
C2073 C 0.65834 0.93592 0.79691 0.0
C2074 C 0.66796 0.90038 0.77176 0.0
C2075 C 0.68575 0.89583 0.7902 0.0
C2076 C 0.6883 0.91024 0.81254 0.0
C2077 C 0.67472 0.92983 0.8159 0.0
C2078 C 0.74643 0.87154 0.78537 0.0
C2079 C 0.73887 0.84587 0.77832 0.0
C2080 C 0.72909 0.88746 0.78926 0.0
C2081 C 0.70365 0.87828 0.78569 0.0
C2082 C 0.69594 0.85261 0.77836 0.0
C2083 C 0.71343 0.83648 0.77499 0.0
H2084 H 0.69396 0.94981 0.55945 0.0
H2085 H 0.7171 0.96358 0.48815 0.0
H2086 H 0.65683 0.96871 0.54912 0.0
H2087 H 0.67973 0.98177 0.47771 0.0
H2088 H 0.58899 0.98553 0.47597 0.0
H2089 H 0.62476 0.96336 0.48055 0.0
H2090 H 0.66159 0.02201 0.53373 0.0
H2091 H 0.62639 0.04454 0.52876 0.0
C2092 C 0.69071 0.9562 0.5414 0.0
C2093 C 0.70827 0.95541 0.5246 0.0
C2094 C 0.66968 0.96706 0.53557 0.0
C2095 C 0.66576 0.97663 0.51271 0.0
C2096 C 0.6825 0.97441 0.49539 0.0
C2097 C 0.70377 0.96409 0.50139 0.0
C2098 C 0.60505 0.99401 0.48807 0.0
C2099 C 0.60504 0.01672 0.502 0.0
C2100 C 0.6253 0.98125 0.49082 0.0
C2101 C 0.64544 0.99092 0.5078 0.0
C2102 C 0.64598 0.01419 0.52076 0.0
C2103 C 0.62601 0.02715 0.51771 0.0
H2104 H 0.37737 0.47403 0.76959 0.0
H2105 H 0.31727 0.48358 0.71738 0.0
H2106 H 0.35889 0.43022 0.77237 0.0
H2107 H 0.29829 0.43983 0.72035 0.0
H2108 H 0.27962 0.35332 0.72081 0.0
H2109 H 0.30046 0.3952 0.71333 0.0
H2110 H 0.3238 0.40988 0.79026 0.0
H2111 H 0.30315 0.36852 0.79772 0.0
C2112 C 0.36016 0.46664 0.7587 0.0
C2113 C 0.34811 0.48232 0.74411 0.0
C2114 C 0.3495 0.44161 0.76033 0.0
C2115 C 0.32675 0.43159 0.74703 0.0
C2116 C 0.31573 0.44687 0.73093 0.0
C2117 C 0.32638 0.472 0.72946 0.0
C2118 C 0.28911 0.36556 0.73612 0.0
C2119 C 0.28964 0.35744 0.75987 0.0
C2120 C 0.30103 0.3896 0.73184 0.0
C2121 C 0.31399 0.40593 0.75116 0.0
C2122 C 0.31435 0.39776 0.77485 0.0
C2123 C 0.30226 0.37399 0.77916 0.0
H2124 H 0.12983 0.59243 0.30594 0.0
H2125 H 0.1817 0.55405 0.27048 0.0
H2126 H 0.15538 0.63297 0.30158 0.0
H2127 H 0.20785 0.59406 0.26702 0.0
H2128 H 0.23849 0.672 0.24499 0.0
H2129 H 0.21249 0.63153 0.2476 0.0
H2130 H 0.19314 0.65764 0.31788 0.0
H2131 H 0.21816 0.69843 0.3145 0.0
C2132 C 0.14679 0.59277 0.29734 0.0
C2133 C 0.15436 0.57027 0.28935 0.0
C2134 C 0.16156 0.61589 0.295 0.0
C2135 C 0.18399 0.61687 0.28431 0.0
C2136 C 0.19074 0.59421 0.27524 0.0
C2137 C 0.17595 0.57122 0.27753 0.0
C2138 C 0.22883 0.66891 0.26105 0.0
C2139 C 0.23022 0.68828 0.27949 0.0
C2140 C 0.21393 0.64571 0.26262 0.0
C2141 C 0.2004 0.64131 0.28285 0.0
C2142 C 0.20268 0.66052 0.30172 0.0
C2143 C 0.21726 0.6838 0.29995 0.0
H2144 H 0.52485 0.71238 0.38844 0.0
H2145 H 0.55084 0.76054 0.45385 0.0
H2146 H 0.52407 0.67548 0.41208 0.0
H2147 H 0.54937 0.72386 0.47755 0.0
H2148 H 0.5622 0.64954 0.5099 0.0
H2149 H 0.56688 0.68675 0.48626 0.0
H2150 H 0.49944 0.65615 0.44137 0.0
H2151 H 0.49528 0.61902 0.46445 0.0
C2152 C 0.53053 0.71509 0.40782 0.0
C2153 C 0.53779 0.7394 0.41925 0.0
C2154 C 0.52989 0.69396 0.42145 0.0
C2155 C 0.53637 0.69667 0.44684 0.0
C2156 C 0.54444 0.72098 0.45806 0.0
C2157 C 0.54516 0.74207 0.44444 0.0
C2158 C 0.54835 0.65098 0.49509 0.0
C2159 C 0.52844 0.63143 0.48896 0.0
C2160 C 0.551 0.67224 0.48153 0.0
C2161 C 0.53371 0.67434 0.46164 0.0
C2162 C 0.51346 0.65495 0.45609 0.0
C2163 C 0.51092 0.63376 0.46951 0.0
H2164 H 0.57962 0.26847 0.6611 0.0
H2165 H 0.5562 0.30339 0.72564 0.0
H2166 H 0.6219 0.27449 0.68043 0.0
H2167 H 0.59879 0.30968 0.74489 0.0
H2168 H 0.68676 0.33258 0.75906 0.0
H2169 H 0.64472 0.33244 0.73966 0.0
H2170 H 0.63923 0.25346 0.71757 0.0
H2171 H 0.68039 0.25331 0.73693 0.0
C2172 C 0.58353 0.2778 0.67926 0.0
C2173 C 0.56445 0.28527 0.69187 0.0
C2174 C 0.60776 0.28118 0.69037 0.0
C2175 C 0.61363 0.29241 0.71424 0.0
C2176 C 0.59484 0.30107 0.72644 0.0
C2177 C 0.57045 0.29736 0.71544 0.0
C2178 C 0.67648 0.31518 0.75023 0.0
C2179 C 0.68707 0.29297 0.74972 0.0
C2180 C 0.65243 0.31511 0.73913 0.0
C2181 C 0.6388 0.29298 0.72687 0.0
C2182 C 0.64936 0.27088 0.72658 0.0
C2183 C 0.673 0.27082 0.73792 0.0
H2184 H 0.01869 0.40375 0.88057 0.0
H2185 H 0.02705 0.35633 0.94014 0.0
H2186 H 0.01173 0.43763 0.90936 0.0
H2187 H 0.02013 0.39013 0.96867 0.0
H2188 H 0.97529 0.44449 1.00661 0.0
H2189 H 0.98449 0.41141 0.97789 0.0
H2190 H 0.03253 0.46708 0.94408 0.0
H2191 H 0.02306 0.49982 0.97248 0.0
C2192 C 0.01942 0.40061 0.89978 0.0
C2193 C 0.02341 0.37717 0.9079 0.0
C2194 C 0.01541 0.42006 0.9163 0.0
C2195 C 0.01509 0.41649 0.94131 0.0
C2196 C 0.01982 0.39337 0.9495 0.0
C2197 C 0.02402 0.37403 0.93308 0.0
C2198 C 0.98787 0.44953 0.99307 0.0
C2199 C 0.99888 0.47463 0.99213 0.0
C2200 C 0.99325 0.43063 0.97671 0.0
C2201 C 0.00942 0.43657 0.95877 0.0
C2202 C 0.01999 0.46184 0.9576 0.0
C2203 C 0.01476 0.48062 0.97409 0.0
H2204 H 0.95052 0.76861 0.22264 0.0
H2205 H 0.89687 0.74793 0.16002 0.0
H2206 H 0.91726 0.77269 0.24823 0.0
H2207 H 0.86372 0.75258 0.18549 0.0
H2208 H 0.80788 0.74211 0.24251 0.0
H2209 H 0.84113 0.73513 0.21751 0.0
H2210 H 0.88777 0.79999 0.25564 0.0
H2211 H 0.85463 0.80671 0.28057 0.0
C2212 C 0.93167 0.76488 0.21428 0.0
C2213 C 0.92655 0.75801 0.18914 0.0
C2214 C 0.91253 0.76741 0.22897 0.0
C2215 C 0.88767 0.76313 0.219 0.0
C2216 C 0.88254 0.75578 0.19396 0.0
C2217 C 0.90166 0.75326 0.17927 0.0
C2218 C 0.82523 0.75489 0.24544 0.0
C2219 C 0.82857 0.77505 0.26342 0.0
C2220 C 0.84431 0.75094 0.23109 0.0
C2221 C 0.8673 0.76696 0.23449 0.0
C2222 C 0.87057 0.78699 0.25267 0.0
C2223 C 0.85149 0.79095 0.26693 0.0
H2224 H 0.5177 0.37291 0.10528 0.0
H2225 H 0.47576 0.34302 0.03708 0.0
H2226 H 0.52618 0.41428 0.08874 0.0
H2227 H 0.48502 0.3833 0.02057 0.0
H2228 H 0.478 0.46018 1.00497 0.0
H2229 H 0.47168 0.42294 0.02714 0.0
H2230 H 0.54821 0.43748 0.05689 0.0
H2231 H 0.55413 0.4764 0.0354 0.0
C2232 C 0.51039 0.37512 0.08682 0.0
C2233 C 0.49572 0.35481 0.07264 0.0
C2234 C 0.51539 0.39869 0.07734 0.0
C2235 C 0.50592 0.4021 0.05352 0.0
C2236 C 0.49198 0.38151 0.03924 0.0
C2237 C 0.48673 0.3583 0.04873 0.0
C2238 C 0.49349 0.45562 0.01636 0.0
C2239 C 0.51663 0.47092 0.01832 0.0
C2240 C 0.4899 0.43419 0.029 0.0
C2241 C 0.5096 0.42693 0.04325 0.0
C2242 C 0.5327 0.44264 0.04597 0.0
C2243 C 0.53617 0.46468 0.0336 0.0
H2244 H 0.97479 0.25894 0.37735 0.0
H2245 H 0.9523 0.31593 0.42489 0.0
H2246 H 0.93666 0.25676 0.35063 0.0
H2247 H 0.91399 0.3141 0.3978 0.0
H2248 H 0.87206 0.32587 0.32185 0.0
H2249 H 0.90676 0.32583 0.35262 0.0
H2250 H 0.88937 0.24497 0.35242 0.0
H2251 H 0.8537 0.24517 0.32256 0.0
C2252 C 0.9615 0.27089 0.38206 0.0
C2253 C 0.96645 0.28802 0.40269 0.0
C2254 C 0.93969 0.26951 0.36693 0.0
C2255 C 0.92256 0.28535 0.37217 0.0
C2256 C 0.92709 0.30185 0.39337 0.0
C2257 C 0.94882 0.30288 0.40881 0.0
C2258 C 0.87585 0.30811 0.32825 0.0
C2259 C 0.8606 0.28548 0.31976 0.0
C2260 C 0.8955 0.30812 0.34597 0.0
C2261 C 0.90073 0.28541 0.35473 0.0
C2262 C 0.8857 0.2627 0.34585 0.0
C2263 C 0.8655 0.26279 0.32875 0.0
H2264 H 0.97963 0.74505 0.54491 0.0
H2265 H 0.98496 0.71241 0.61433 0.0
H2266 H 0.974 0.70307 0.52392 0.0
H2267 H 0.9792 0.67047 0.59329 0.0
H2268 H 0.01409 0.63241 0.50699 0.0
H2269 H 1.00574 0.67354 0.52176 0.0
H2270 H 0.95056 0.63764 0.56462 0.0
H2271 H 0.95878 0.59642 0.54977 0.0
C2272 C 0.97902 0.7289 0.55571 0.0
C2273 C 0.98302 0.73203 0.58128 0.0
C2274 C 0.97587 0.7049 0.54366 0.0
C2275 C 0.97633 0.68357 0.55697 0.0
C2276 C 0.97857 0.68657 0.58256 0.0
C2277 C 0.982 0.71059 0.59462 0.0
C2278 C 0.99968 0.63327 0.519 0.0
C2279 C 0.98719 0.6112 0.52729 0.0
C2280 C 0.99483 0.65682 0.5274 0.0
C2281 C 0.97763 0.65875 0.54449 0.0
C2282 C 0.96401 0.63665 0.55157 0.0
C2283 C 0.9686 0.61307 0.54289 0.0
H2284 H 0.60964 0.81968 0.88619 0.0
H2285 H 0.59287 0.74339 0.90683 0.0
H2286 H 0.6399 0.80706 0.86041 0.0
H2287 H 0.62348 0.73071 0.88076 0.0
H2288 H 0.69972 0.73419 0.84086 0.0
H2289 H 0.67161 0.74061 0.87196 0.0
H2290 H 0.6279 0.77722 0.82068 0.0
H2291 H 0.65576 0.77088 0.7898 0.0
C2292 C 0.61296 0.80034 0.88573 0.0
C2293 C 0.59875 0.78244 0.89824 0.0
C2294 C 0.6301 0.7931 0.87084 0.0
C2295 C 0.63339 0.76781 0.86815 0.0
C2296 C 0.62103 0.75029 0.88247 0.0
C2297 C 0.60373 0.75758 0.89748 0.0
C2298 C 0.6837 0.74297 0.83611 0.0
C2299 C 0.67996 0.75228 0.81307 0.0
C2300 C 0.66773 0.74669 0.85389 0.0
C2301 C 0.64804 0.7599 0.84878 0.0
C2302 C 0.64331 0.76743 0.82516 0.0
C2303 C 0.65911 0.76363 0.80745 0.0
H2304 H 0.38385 0.53769 0.65985 0.0
H2305 H 0.43844 0.5929 0.70265 0.0
H2306 H 0.41038 0.5387 0.62653 0.0
H2307 H 0.46468 0.59423 0.66897 0.0
H2308 H 0.48786 0.59548 0.58426 0.0
H2309 H 0.46116 0.60222 0.61678 0.0
H2310 H 0.45766 0.52452 0.63265 0.0
H2311 H 0.48457 0.5178 0.60131 0.0
C2312 C 0.40118 0.55051 0.66192 0.0
C2313 C 0.40912 0.56506 0.68395 0.0
C2314 C 0.41636 0.55105 0.64287 0.0
C2315 C 0.43953 0.56654 0.64528 0.0
C2316 C 0.44682 0.58229 0.66665 0.0
C2317 C 0.43184 0.5814 0.68591 0.0
C2318 C 0.48182 0.58 0.59504 0.0
C2319 C 0.48844 0.5561 0.59003 0.0
C2320 C 0.46644 0.58384 0.6135 0.0
C2321 C 0.45709 0.56373 0.62683 0.0
C2322 C 0.46434 0.54021 0.62236 0.0
C2323 C 0.47995 0.53649 0.60442 0.0
H2324 H 0.80433 0.23694 0.96127 0.0
H2325 H 0.78883 0.16962 0.91241 0.0
H2326 H 0.7974 0.26228 0.92677 0.0
H2327 H 0.78234 0.19479 0.87814 0.0
H2328 H 0.74616 0.24391 0.82471 0.0
H2329 H 0.75428 0.21869 0.85906 0.0
H2330 H 0.81196 0.27817 0.89058 0.0
H2331 H 0.80353 0.30322 0.85648 0.0
C2332 C 0.79988 0.2275 0.94319 0.0
C2333 C 0.79726 0.20105 0.93994 0.0
C2334 C 0.79585 0.24209 0.92325 0.0
C2335 C 0.78901 0.23077 0.89935 0.0
C2336 C 0.78702 0.20438 0.89612 0.0
C2337 C 0.79106 0.18986 0.91595 0.0
C2338 C 0.76065 0.25149 0.83886 0.0
C2339 C 0.77415 0.27564 0.83764 0.0
C2340 C 0.76543 0.237 0.85868 0.0
C2341 C 0.78386 0.2462 0.87797 0.0
C2342 C 0.79736 0.27038 0.87654 0.0
C2343 C 0.79259 0.28478 0.85677 0.0
H2344 H 0.12515 0.50577 0.20344 0.0
H2345 H 0.05337 0.48227 0.22746 0.0
H2346 H 0.10606 0.51041 0.16296 0.0
H2347 H 0.03409 0.48628 0.18651 0.0
H2348 H 1.00754 0.52546 0.1182 0.0
H2349 H 0.02479 0.51688 0.15864 0.0
H2350 H 0.08539 0.48963 0.12661 0.0
H2351 H 0.06862 0.49877 0.08661 0.0
C2352 C 0.10526 0.5011 0.19998 0.0
C2353 C 0.09089 0.49353 0.21884 0.0
C2354 C 0.09422 0.5037 0.17659 0.0
C2355 C 0.06837 0.49877 0.17115 0.0
C2356 C 0.05399 0.49061 0.18991 0.0
C2357 C 0.06509 0.48801 0.2134 0.0
C2358 C 0.02445 0.51747 0.11977 0.0
C2359 C 0.03668 0.51301 0.09898 0.0
C2360 C 0.03435 0.51243 0.14304 0.0
C2361 C 0.05674 0.50271 0.1462 0.0
C2362 C 0.06848 0.49761 0.12523 0.0
C2363 C 0.0587 0.50275 0.1021 0.0
H2364 H 0.77654 0.92817 0.45535 0.0
H2365 H 0.78009 0.86527 0.49983 0.0
H2366 H 0.77463 0.89976 0.41868 0.0
H2367 H 0.77841 0.8371 0.46321 0.0
H2368 H 0.80197 0.80498 0.3884 0.0
H2369 H 0.80539 0.83163 0.4266 0.0
H2370 H 0.74055 0.86201 0.4007 0.0
H2371 H 0.73689 0.83531 0.36291 0.0
C2372 C 0.77717 0.90838 0.45728 0.0
C2373 C 0.77821 0.89886 0.48035 0.0
C2374 C 0.77595 0.89217 0.43638 0.0
C2375 C 0.77622 0.86633 0.4383 0.0
C2376 C 0.77822 0.85697 0.46136 0.0
C2377 C 0.77902 0.87307 0.48222 0.0
C2378 C 0.78827 0.81706 0.39114 0.0
C2379 C 0.76924 0.81824 0.37283 0.0
C2380 C 0.79026 0.83229 0.41284 0.0
C2381 C 0.77345 0.84905 0.41622 0.0
C2382 C 0.75395 0.84952 0.39824 0.0
C2383 C 0.75177 0.83411 0.37677 0.0
H2384 H 0.42599 0.56983 0.80436 0.0
H2385 H 0.36203 0.54363 0.84133 0.0
H2386 H 0.45218 0.57172 0.84246 0.0
H2387 H 0.38838 0.54498 0.87931 0.0
H2388 H 0.44003 0.56731 0.94829 0.0
H2389 H 0.41457 0.57205 0.91086 0.0
H2390 H 0.46717 0.54185 0.8685 0.0
H2391 H 0.49281 0.53773 0.90593 0.0
C2392 C 0.41745 0.56457 0.82061 0.0
C2393 C 0.39186 0.55639 0.81967 0.0
C2394 C 0.43254 0.56553 0.84245 0.0
C2395 C 0.42245 0.55828 0.86391 0.0
C2396 C 0.39676 0.55093 0.86318 0.0
C2397 C 0.38163 0.55004 0.84133 0.0
C2398 C 0.44621 0.56194 0.93093 0.0
C2399 C 0.46831 0.5521 0.92994 0.0
C2400 C 0.43157 0.56449 0.90951 0.0
C2401 C 0.43875 0.55723 0.88666 0.0
C2402 C 0.46123 0.54795 0.88575 0.0
C2403 C 0.47587 0.54544 0.90718 0.0
H2404 H 0.79049 0.17472 0.09583 0.0
H2405 H 0.83586 0.24291 0.07921 0.0
H2406 H 0.78498 0.1945 0.1354 0.0
H2407 H 0.83074 0.26259 0.11949 0.0
H2408 H 0.82961 0.27496 0.20727 0.0
H2409 H 0.83957 0.25667 0.16808 0.0
H2410 H 0.76208 0.23203 0.14676 0.0
H2411 H 0.75208 0.25063 0.18521 0.0
C2412 C 0.79974 0.19381 0.10073 0.0
C2413 C 0.81368 0.20712 0.08409 0.0
C2414 C 0.79641 0.20522 0.12348 0.0
C2415 C 0.80725 0.23023 0.13068 0.0
C2416 C 0.82217 0.24328 0.11461 0.0
C2417 C 0.82513 0.23197 0.0915 0.0
C2418 C 0.81469 0.26584 0.19413 0.0
C2419 C 0.78999 0.2645 0.19955 0.0
C2420 C 0.82041 0.2554 0.17163 0.0
C2421 C 0.80164 0.24274 0.15423 0.0
C2422 C 0.77704 0.24146 0.15971 0.0
C2423 C 0.77131 0.25233 0.18182 0.0
H2424 H 0.06624 0.49321 0.34181 0.0
H2425 H 0.13089 0.53023 0.38748 0.0
H2426 H 0.04121 0.49783 0.37594 0.0
H2427 H 0.10593 0.53509 0.42107 0.0
H2428 H 0.04772 0.56326 0.46743 0.0
H2429 H 0.07211 0.55894 0.43275 0.0
H2430 H 0.03674 0.48175 0.4177 0.0
H2431 H 0.01304 0.4859 0.45261 0.0
C2432 C 0.07517 0.50226 0.35902 0.0
C2433 C 0.10071 0.51125 0.36167 0.0
C2434 C 0.06081 0.50491 0.37863 0.0
C2435 C 0.0715 0.51702 0.40128 0.0
C2436 C 0.09697 0.52598 0.40387 0.0
C2437 C 0.11134 0.52298 0.38451 0.0
C2438 C 0.04542 0.54533 0.45692 0.0
C2439 C 0.02864 0.52489 0.46306 0.0
C2440 C 0.05929 0.54283 0.43694 0.0
C2441 C 0.05639 0.51996 0.42231 0.0
C2442 C 0.0393 0.4997 0.4283 0.0
C2443 C 0.02577 0.50208 0.44844 0.0
H2444 H 0.72132 0.84767 0.58066 0.0
H2445 H 0.74882 0.90857 0.63543 0.0
H2446 H 0.71172 0.81947 0.61243 0.0
H2447 H 0.73879 0.88011 0.66734 0.0
H2448 H 0.7528 0.78019 0.67668 0.0
H2449 H 0.746 0.80562 0.64238 0.0
H2450 H 0.70277 0.84893 0.68489 0.0
H2451 H 0.70897 0.8228 0.71907 0.0
C2452 C 0.72482 0.85522 0.59948 0.0
C2453 C 0.73626 0.88027 0.60557 0.0
C2454 C 0.71923 0.83903 0.61762 0.0
C2455 C 0.72465 0.8476 0.64224 0.0
C2456 C 0.73427 0.87313 0.64842 0.0
C2457 C 0.74012 0.88936 0.6302 0.0
C2458 C 0.74093 0.79439 0.67825 0.0
C2459 C 0.73115 0.79941 0.70027 0.0
C2460 C 0.73711 0.80901 0.65872 0.0
C2461 C 0.72398 0.8293 0.66112 0.0
C2462 C 0.71294 0.83338 0.68266 0.0
C2463 C 0.71624 0.81828 0.70204 0.0
H2464 H 0.64954 0.40918 0.53762 0.0
H2465 H 0.69276 0.47624 0.51545 0.0
H2466 H 0.61418 0.43239 0.54006 0.0
H2467 H 0.65886 0.49875 0.5186 0.0
H2468 H 0.59167 0.5293 0.49753 0.0
H2469 H 0.62117 0.50038 0.49579 0.0
H2470 H 0.59675 0.46856 0.56099 0.0
H2471 H 0.56599 0.49742 0.56207 0.0
C2472 C 0.65168 0.4287 0.5334 0.0
C2473 C 0.67418 0.44041 0.52588 0.0
C2474 C 0.63141 0.44207 0.53487 0.0
C2475 C 0.63325 0.46745 0.52891 0.0
C2476 C 0.6561 0.47912 0.52249 0.0
C2477 C 0.67589 0.46597 0.52084 0.0
C2478 C 0.59235 0.51607 0.51148 0.0
C2479 C 0.57642 0.51588 0.52999 0.0
C2480 C 0.60948 0.49943 0.51058 0.0
C2481 C 0.61202 0.48231 0.52859 0.0
C2482 C 0.59544 0.48136 0.54675 0.0
C2483 C 0.57778 0.49794 0.5474 0.0
H2484 H 0.21462 0.10149 0.49602 0.0
H2485 H 0.18655 0.16139 0.45969 0.0
H2486 H 0.17298 0.08075 0.499 0.0
H2487 H 0.14416 0.14148 0.46443 0.0
H2488 H 0.10439 0.07309 0.53674 0.0
H2489 H 0.144 0.09225 0.52562 0.0
H2490 H 0.11039 0.10459 0.45459 0.0
H2491 H 0.06999 0.08581 0.46616 0.0
C2492 C 0.19942 0.10983 0.48798 0.0
C2493 C 0.20371 0.13253 0.47685 0.0
C2494 C 0.17553 0.09824 0.49017 0.0
C2495 C 0.15527 0.10971 0.48236 0.0
C2496 C 0.15942 0.13212 0.47048 0.0
C2497 C 0.18357 0.14355 0.46786 0.0
C2498 C 0.10533 0.07978 0.5187 0.0
C2499 C 0.08413 0.07759 0.50219 0.0
C2500 C 0.12812 0.09067 0.51226 0.0
C2501 C 0.13044 0.09938 0.48899 0.0
C2502 C 0.10915 0.09795 0.47262 0.0
C2503 C 0.0861 0.08717 0.47921 0.0
H2504 H 0.18048 0.94608 0.76874 0.0
H2505 H 0.21415 0.95416 0.84296 0.0
H2506 H 0.20294 0.91138 0.75976 0.0
H2507 H 0.23568 0.91894 0.8344 0.0
H2508 H 0.29462 0.87894 0.80641 0.0
H2509 H 0.26946 0.91131 0.81398 0.0
H2510 H 0.20986 0.86936 0.76482 0.0
H2511 H 0.23584 0.83748 0.75659 0.0
C2512 C 0.19221 0.94006 0.7833 0.0
C2513 C 0.19566 0.95308 0.80653 0.0
C2514 C 0.20513 0.92011 0.77815 0.0
C2515 C 0.22162 0.91253 0.79618 0.0
C2516 C 0.22384 0.92467 0.81977 0.0
C2517 C 0.21125 0.94477 0.82479 0.0
C2518 C 0.27621 0.87671 0.79702 0.0
C2519 C 0.26722 0.85552 0.78085 0.0
C2520 C 0.26159 0.89518 0.80161 0.0
C2521 C 0.2373 0.89292 0.7904 0.0
C2522 C 0.22846 0.87194 0.77375 0.0
C2523 C 0.24333 0.85354 0.76898 0.0
H2524 H 0.30809 0.89382 1.00425 0.0
H2525 H 0.29524 0.95336 0.05491 0.0
H2526 H 0.35105 0.91407 1.00402 0.0
H2527 H 0.33808 0.97377 0.05476 0.0
H2528 H 0.42296 0.99051 0.06481 0.0
H2529 H 0.38116 0.96812 0.06697 0.0
H2530 H 0.37269 0.95299 0.98876 0.0
H2531 H 0.41434 0.97552 0.98665 0.0
C2532 C 0.31455 0.91128 0.01529 0.0
C2533 C 0.2983 0.92261 0.02888 0.0
C2534 C 0.33905 0.92291 0.01513 0.0
C2535 C 0.34792 0.9457 0.02916 0.0
C2536 C 0.33188 0.95623 0.04379 0.0
C2537 C 0.30731 0.94476 0.04367 0.0
C2538 C 0.41213 0.98236 0.04812 0.0
C2539 C 0.42184 0.98475 0.02557 0.0
C2540 C 0.38818 0.96964 0.04933 0.0
C2541 C 0.37357 0.95879 0.02803 0.0
C2542 C 0.38349 0.96096 1.00551 0.0
C2543 C 0.4073 0.97395 1.00428 0.0
H2544 H 0.88274 0.65644 0.79873 0.0
H2545 H 0.86371 0.62619 0.72435 0.0
H2546 H 0.85748 0.68939 0.79169 0.0
H2547 H 0.83788 0.65892 0.71726 0.0
H2548 H 0.76574 0.69405 0.73407 0.0
H2549 H 0.79724 0.66632 0.73369 0.0
H2550 H 0.85182 0.72705 0.76817 0.0
H2551 H 0.82063 0.75465 0.76832 0.0
C2552 C 0.87398 0.65754 0.78057 0.0
C2553 C 0.8758 0.63923 0.7619 0.0
C2554 C 0.85929 0.67627 0.77655 0.0
C2555 C 0.84548 0.67674 0.75393 0.0
C2556 C 0.84817 0.65904 0.73491 0.0
C2557 C 0.86331 0.64058 0.73882 0.0
C2558 C 0.78457 0.70157 0.74112 0.0
C2559 C 0.79058 0.72651 0.75137 0.0
C2560 C 0.80265 0.68572 0.74085 0.0
C2561 C 0.82707 0.69441 0.75107 0.0
C2562 C 0.8332 0.71966 0.76039 0.0
C2563 C 0.81527 0.73551 0.76039 0.0
H2564 H 0.8018 0.59339 0.02165 0.0
H2565 H 0.85619 0.64774 0.99402 0.0
H2566 H 0.8344 0.5745 0.0427 0.0
H2567 H 0.88918 0.62879 0.01497 0.0
H2568 H 0.9441 0.59973 0.06486 0.0
H2569 H 0.90875 0.62097 0.05471 0.0
H2570 H 0.86454 0.5493 0.02978 0.0
H2571 H 0.89957 0.52808 0.04036 0.0
C2572 C 0.82084 0.60103 0.01987 0.0
C2573 C 0.82669 0.62139 1.00569 0.0
C2574 C 0.83947 0.59038 0.03206 0.0
C2575 C 0.86435 0.59999 0.03034 0.0
C2576 C 0.87016 0.62109 0.01684 0.0
C2577 C 0.85141 0.63181 1.00467 0.0
C2578 C 0.92657 0.58847 0.05795 0.0
C2579 C 0.92454 0.5623 0.05314 0.0
C2580 C 0.90649 0.60067 0.05188 0.0
C2581 C 0.88411 0.5869 0.04096 0.0
C2582 C 0.88153 0.56047 0.03821 0.0
C2583 C 0.90158 0.54827 0.0443 0.0
H2584 H 0.20985 0.07147 0.78904 0.0
H2585 H 0.15177 0.09814 0.82562 0.0
H2586 H 0.22944 0.11478 0.78606 0.0
H2587 H 0.17111 0.14183 0.82229 0.0
H2588 H 0.23717 0.19232 0.75558 0.0
H2589 H 0.21981 0.14953 0.76269 0.0
H2590 H 0.20834 0.17396 0.8361 0.0
H2591 H 0.22556 0.21723 0.82891 0.0
C2592 C 0.20152 0.0867 0.79682 0.0
C2593 C 0.17971 0.08153 0.80817 0.0
C2594 C 0.21256 0.11152 0.79485 0.0
C2595 C 0.20185 0.13185 0.80389 0.0
C2596 C 0.18003 0.12664 0.81542 0.0
C2597 C 0.16888 0.10169 0.81724 0.0
C2598 C 0.23103 0.18871 0.7733 0.0
C2599 C 0.2328 0.20837 0.79165 0.0
C2600 C 0.2212 0.16404 0.77743 0.0
C2601 C 0.21274 0.15823 0.8 0.0
C2602 C 0.2145 0.17782 0.81844 0.0
C2603 C 0.22452 0.2026 0.81435 0.0
H2604 H 0.34542 0.02438 0.24453 0.0
H2605 H 0.40497 1.00073 0.28871 0.0
H2606 H 0.32054 0.98269 0.24553 0.0
H2607 H 0.38046 0.95881 0.28921 0.0
H2608 H 0.33904 0.88049 0.25851 0.0
H2609 H 0.36259 0.9224 0.25667 0.0
H2610 H 0.30109 0.95569 0.2794 0.0
H2611 H 0.2776 0.91356 0.28197 0.0
C2612 C 0.353 0.0103 0.25471 0.0
C2613 C 0.37663 0.01593 0.26739 0.0
C2614 C 0.33887 0.98648 0.25515 0.0
C2615 C 0.3485 0.96764 0.26765 0.0
C2616 C 0.37258 0.97302 0.27949 0.0
C2617 C 0.38656 0.99693 0.27926 0.0
C2618 C 0.33049 0.89676 0.26307 0.0
C2619 C 0.30652 0.89383 0.27044 0.0
C2620 C 0.34404 0.92072 0.26213 0.0
C2621 C 0.33372 0.94228 0.26808 0.0
C2622 C 0.30946 0.93938 0.27479 0.0
C2623 C 0.29606 0.91533 0.27627 0.0
H2624 H 0.51911 0.33805 0.63943 0.0
H2625 H 0.44434 0.32143 0.60524 0.0
H2626 H 0.5259 0.37621 0.61785 0.0
H2627 H 0.45065 0.36008 0.58449 0.0
H2628 H 0.47644 0.41567 0.52997 0.0
H2629 H 0.47037 0.37763 0.55215 0.0
H2630 H 0.5175 0.4169 0.6138 0.0
H2631 H 0.52438 0.45414 0.59118 0.0
C2632 C 0.5039 0.34291 0.62783 0.0
C2633 C 0.48119 0.32669 0.62409 0.0
C2634 C 0.50778 0.36482 0.61535 0.0
C2635 C 0.48892 0.37125 0.59908 0.0
C2636 C 0.46586 0.35552 0.59628 0.0
C2637 C 0.46211 0.33347 0.60846 0.0
C2638 C 0.48565 0.41595 0.54815 0.0
C2639 C 0.50091 0.43779 0.5588 0.0
C2640 C 0.482 0.39427 0.56104 0.0
C2641 C 0.4933 0.39408 0.58497 0.0
C2642 C 0.50876 0.41602 0.59537 0.0
C2643 C 0.51262 0.4375 0.58241 0.0
H2644 H 0.47182 0.77037 0.32562 0.0
H2645 H 0.4512 0.81943 0.38215 0.0
H2646 H 0.42983 0.76541 0.30484 0.0
H2647 H 0.40937 0.81467 0.36153 0.0
H2648 H 0.35092 0.82812 0.3024 0.0
H2649 H 0.39195 0.82903 0.32232 0.0
H2650 H 0.38423 0.74825 0.31028 0.0
H2651 H 0.34222 0.74706 0.29053 0.0
C2652 C 0.45828 0.78019 0.33347 0.0
C2653 C 0.46488 0.79606 0.35494 0.0
C2654 C 0.43421 0.77711 0.32178 0.0
C2655 C 0.41634 0.78991 0.33136 0.0
C2656 C 0.42281 0.80492 0.35343 0.0
C2657 C 0.44671 0.80766 0.36526 0.0
C2658 C 0.35781 0.81042 0.30367 0.0
C2659 C 0.34303 0.78745 0.29473 0.0
C2660 C 0.38145 0.81101 0.31529 0.0
C2661 C 0.39137 0.78874 0.31803 0.0
C2662 C 0.3771 0.76576 0.30839 0.0
C2663 C 0.35305 0.76508 0.29709 0.0
H2664 H 0.98669 0.67412 0.16091 0.0
H2665 H 0.01474 0.72153 0.10631 0.0
H2666 H 0.995 0.63687 0.1367 0.0
H2667 H 0.0218 0.68456 0.08175 0.0
H2668 H 1.00074 0.60757 0.03466 0.0
H2669 H 0.99126 0.64289 0.06014 0.0
H2670 H 0.03825 0.62343 0.12034 0.0
H2671 H 0.04871 0.58859 0.09437 0.0
C2672 C 0.99426 0.6765 0.14361 0.0
C2673 C 0.9991 0.70055 0.13495 0.0
C2674 C 0.99905 0.65529 0.12984 0.0
C2675 C 0.00871 0.65787 0.10722 0.0
C2676 C 0.01395 0.68198 0.09889 0.0
C2677 C 0.00965 0.70309 0.11283 0.0
C2678 C 0.00902 0.61085 0.05334 0.0
C2679 C 0.02553 0.59552 0.06257 0.0
C2680 C 1.00351 0.63098 0.06793 0.0
C2681 C 0.01378 0.63572 0.09227 0.0
C2682 C 0.0299 0.62002 0.1017 0.0
C2683 C 0.03602 0.60029 0.08684 0.0
H2684 H 0.08671 0.34281 0.8196 0.0
H2685 H 0.09932 0.28748 0.87074 0.0
H2686 H 0.12452 0.33722 0.80197 0.0
H2687 H 0.13733 0.28169 0.8527 0.0
H2688 H 0.17016 0.29428 0.75418 0.0
H2689 H 0.13605 0.30355 0.77643 0.0
H2690 H 0.18007 0.30062 0.84456 0.0
H2691 H 0.21445 0.29097 0.82193 0.0
C2692 C 0.09764 0.3296 0.82732 0.0
C2693 C 0.08965 0.31545 0.84655 0.0
C2694 C 0.11935 0.32628 0.81704 0.0
C2695 C 0.13386 0.30868 0.82558 0.0
C2696 C 0.12668 0.29545 0.84567 0.0
C2697 C 0.10482 0.29877 0.85601 0.0
C2698 C 0.17267 0.29576 0.77391 0.0
C2699 C 0.19509 0.29211 0.78627 0.0
C2700 C 0.15312 0.30123 0.78672 0.0
C2701 C 0.15528 0.30311 0.81237 0.0
C2702 C 0.17772 0.29928 0.82484 0.0
C2703 C 0.19748 0.29395 0.81191 0.0
H2704 H 0.49983 0.69652 0.93792 0.0
H2705 H 0.55959 0.72814 0.99214 0.0
H2706 H 0.49384 0.65796 0.95906 0.0
H2707 H 0.55463 0.68929 0.01258 0.0
H2708 H 0.52745 0.62598 0.05725 0.0
H2709 H 0.52895 0.66519 0.03703 0.0
H2710 H 0.51157 0.62228 0.96723 0.0
H2711 H 0.50932 0.58386 0.98769 0.0
C2712 C 0.51196 0.69499 0.95412 0.0
C2713 C 0.53015 0.7152 0.96343 0.0
C2714 C 0.50857 0.67293 0.96626 0.0
C2715 C 0.52363 0.67054 0.98769 0.0
C2716 C 0.54225 0.69066 0.99655 0.0
C2717 C 0.54531 0.71282 0.98467 0.0
C2718 C 0.52352 0.6251 0.03762 0.0
C2719 C 0.51773 0.60183 0.02398 0.0
C2720 C 0.52461 0.6475 0.02599 0.0
C2721 C 0.52046 0.64696 1.00041 0.0
C2722 C 0.51429 0.62356 0.98695 0.0
C2723 C 0.51282 0.60134 0.99867 0.0
H2724 H 0.05377 0.77265 0.66731 0.0
H2725 H 0.09635 0.81864 0.62011 0.0
H2726 H 0.0913 0.76728 0.69157 0.0
H2727 H 0.13401 0.81576 0.64561 0.0
H2728 H 0.2009 0.7965 0.68686 0.0
H2729 H 0.16381 0.79477 0.65944 0.0
H2730 H 0.12001 0.78645 0.72073 0.0
H2731 H 0.15732 0.78655 0.74769 0.0
C2732 C 0.07137 0.78179 0.66237 0.0
C2733 C 0.07246 0.79654 0.6424 0.0
C2734 C 0.0929 0.77899 0.6764 0.0
C2735 C 0.11594 0.79151 0.67109 0.0
C2736 C 0.11686 0.80544 0.65026 0.0
C2737 C 0.0953 0.80744 0.63573 0.0
C2738 C 0.18326 0.79441 0.69438 0.0
C2739 C 0.18182 0.79189 0.71933 0.0
C2740 C 0.16191 0.79358 0.67867 0.0
C2741 C 0.13864 0.7909 0.68768 0.0
C2742 C 0.13739 0.78831 0.71284 0.0
C2743 C 0.15878 0.7886 0.72847 0.0
H2744 H 0.0434 0.3422 0.49077 0.0
H2745 H 0.05295 0.38699 0.42893 0.0
H2746 H 0.04879 0.38057 0.51775 0.0
H2747 H 0.05815 0.42517 0.45593 0.0
H2748 H 0.07622 0.49134 0.50846 0.0
H2749 H 0.08398 0.45126 0.49047 0.0
H2750 H 0.02106 0.41279 0.52189 0.0
H2751 H 0.01333 0.45275 0.54006 0.0
C2752 C 0.04703 0.36017 0.48294 0.0
C2753 C 0.04743 0.3615 0.4576 0.0
C2754 C 0.05008 0.38212 0.49843 0.0
C2755 C 0.05382 0.40582 0.48895 0.0
C2756 C 0.0556 0.40716 0.46383 0.0
C2757 C 0.0524 0.38525 0.44831 0.0
C2758 C 0.06449 0.47428 0.51223 0.0
C2759 C 0.04388 0.47528 0.52536 0.0
C2760 C 0.06887 0.45134 0.50175 0.0
C2761 C 0.05288 0.429 0.50443 0.0
C2762 C 0.03374 0.4297 0.51955 0.0
C2763 C 0.02925 0.45265 0.52989 0.0
H2764 H 0.40079 0.27067 0.12146 0.0
H2765 H 0.45806 0.32613 0.16051 0.0
H2766 H 0.37387 0.27653 0.15377 0.0
H2767 H 0.43083 0.33241 0.19224 0.0
H2768 H 0.35107 0.34833 0.21969 0.0
H2769 H 0.38016 0.34555 0.18881 0.0
H2770 H 0.3864 0.26972 0.20636 0.0
H2771 H 0.35805 0.27267 0.23775 0.0
C2772 C 0.40745 0.28432 0.1367 0.0
C2773 C 0.43151 0.29778 0.13867 0.0
C2774 C 0.39217 0.28756 0.15513 0.0
C2775 C 0.40058 0.30476 0.17532 0.0
C2776 C 0.42416 0.31902 0.17677 0.0
C2777 C 0.43962 0.31537 0.1587 0.0
C2778 C 0.35916 0.33133 0.21731 0.0
C2779 C 0.35246 0.31072 0.231 0.0
C2780 C 0.37558 0.32972 0.19965 0.0
C2781 C 0.38499 0.30731 0.19521 0.0
C2782 C 0.37904 0.28706 0.20948 0.0
C2783 C 0.36307 0.28885 0.22749 0.0
H2784 H 0.6525 0.50793 0.39776 0.0
H2785 H 0.59347 0.50782 0.34072 0.0
H2786 H 0.62247 0.50532 0.42799 0.0
H2787 H 0.56372 0.50544 0.37095 0.0
H2788 H 0.55738 0.48132 0.47324 0.0
H2789 H 0.58437 0.47642 0.44087 0.0
H2790 H 0.55688 0.53693 0.40494 0.0
H2791 H 0.5304 0.54218 0.43737 0.0
C2792 C 0.63315 0.50709 0.3916 0.0
C2793 C 0.6255 0.50819 0.36674 0.0
C2794 C 0.61594 0.50545 0.40892 0.0
C2795 C 0.59074 0.50524 0.40184 0.0
C2796 C 0.58303 0.50573 0.37698 0.0
C2797 C 0.60013 0.50701 0.35965 0.0
C2798 C 0.5567 0.49319 0.45815 0.0
C2799 C 0.54172 0.51215 0.45789 0.0
C2800 C 0.57234 0.49055 0.43976 0.0
C2801 C 0.57283 0.50637 0.42042 0.0
C2802 C 0.55683 0.52435 0.4195 0.0
C2803 C 0.54164 0.52736 0.4381 0.0
H2804 H 0.25396 0.89751 0.11773 0.0
H2805 H 0.21096 0.82821 0.0848 0.0
H2806 H 0.26259 0.87706 0.15504 0.0
H2807 H 0.21874 0.8079 0.12235 0.0
H2808 H 0.25831 0.7692 0.18091 0.0
H2809 H 0.2491 0.79127 0.145 0.0
H2810 H 0.24977 0.85939 0.19076 0.0
H2811 H 0.25992 0.83712 0.22681 0.0
C2812 C 0.24594 0.87799 0.11856 0.0
C2813 C 0.23176 0.86458 0.09804 0.0
C2814 C 0.25086 0.86619 0.14013 0.0
C2815 C 0.2417 0.84054 0.14203 0.0
C2816 C 0.22676 0.82744 0.12171 0.0
C2817 C 0.22199 0.8392 0.10009 0.0
C2818 C 0.25669 0.78896 0.18335 0.0
C2819 C 0.26001 0.80133 0.20684 0.0
C2820 C 0.25107 0.80167 0.16263 0.0
C2821 C 0.24825 0.82727 0.16458 0.0
C2822 C 0.25193 0.8398 0.1882 0.0
C2823 C 0.25777 0.82703 0.20901 0.0
H2824 H 0.90985 0.60101 0.86125 0.0
H2825 H 0.96124 0.56187 0.82578 0.0
H2826 H 0.93129 0.59657 0.90074 0.0
H2827 H 0.98211 0.55613 0.86548 0.0
H2828 H 0.02307 0.55937 0.94216 0.0
H2829 H 1.00669 0.57036 0.90222 0.0
H2830 H 0.93425 0.56598 0.92754 0.0
H2831 H 0.9507 0.55625 0.9672 0.0
C2832 C 0.92593 0.59164 0.86187 0.0
C2833 C 0.93376 0.58184 0.84024 0.0
C2834 C 0.93812 0.58874 0.88465 0.0
C2835 C 0.95825 0.57538 0.8867 0.0
C2836 C 0.96684 0.56664 0.86492 0.0
C2837 C 0.95485 0.56996 0.84202 0.0
C2838 C 1.00369 0.56098 0.93919 0.0
C2839 C 0.98835 0.5571 0.95815 0.0
C2840 C 0.9942 0.56716 0.91616 0.0
C2841 C 0.96903 0.56942 0.91136 0.0
C2842 C 0.95381 0.56526 0.93039 0.0
C2843 C 0.9633 0.5594 0.95332 0.0
H2844 H 0.28815 0.22447 0.55587 0.0
H2845 H 0.25345 0.15231 0.57624 0.0
H2846 H 0.285 0.24317 0.59649 0.0
H2847 H 0.25032 0.1712 0.61701 0.0
H2848 H 0.27361 0.21129 0.69401 0.0
H2849 H 0.27852 0.1917 0.65407 0.0
H2850 H 0.24906 0.25205 0.61953 0.0
H2851 H 0.24415 0.27168 0.65956 0.0
C2852 C 0.28004 0.21255 0.56908 0.0
C2853 C 0.27094 0.18695 0.56289 0.0
C2854 C 0.2781 0.22332 0.59225 0.0
C2855 C 0.26723 0.20865 0.60971 0.0
C2856 C 0.25886 0.18286 0.60383 0.0
C2857 C 0.26061 0.1721 0.58054 0.0
C2858 C 0.26814 0.22031 0.67785 0.0
C2859 C 0.25847 0.24292 0.67971 0.0
C2860 C 0.27087 0.20907 0.65507 0.0
C2861 C 0.26419 0.22041 0.63383 0.0
C2862 C 0.25456 0.24309 0.63571 0.0
C2863 C 0.25163 0.25422 0.65852 0.0
H2864 H 0.6612 0.51916 0.21375 0.0
H2865 H 0.59106 0.4838 0.23434 0.0
H2866 H 0.64262 0.52033 0.17219 0.0
H2867 H 0.5724 0.48536 0.19285 0.0
H2868 H 0.54963 0.47958 0.11047 0.0
H2869 H 0.57092 0.47086 0.14923 0.0
H2870 H 0.6132 0.54575 0.15494 0.0
H2871 H 0.59222 0.55424 0.11643 0.0
C2872 C 0.64191 0.5113 0.20934 0.0
C2873 C 0.62755 0.50163 0.22741 0.0
C2874 C 0.63122 0.51212 0.18555 0.0
C2875 C 0.60595 0.50326 0.1793 0.0
C2876 C 0.59193 0.49222 0.19703 0.0
C2877 C 0.60262 0.49144 0.22084 0.0
C2878 C 0.56359 0.49404 0.12003 0.0
C2879 C 0.56926 0.51759 0.11056 0.0
C2880 C 0.57572 0.4891 0.1422 0.0
C2881 C 0.59386 0.50757 0.1551 0.0
C2882 C 0.59967 0.53095 0.14529 0.0
C2883 C 0.58749 0.5359 0.12331 0.0
H2884 H 0.23421 0.83897 0.97154 0.0
H2885 H 0.21891 0.90252 0.93225 0.0
H2886 H 0.23861 0.81584 0.93293 0.0
H2887 H 0.22352 0.87974 0.89402 0.0
H2888 H 0.21762 0.82751 0.82539 0.0
H2889 H 0.20728 0.84562 0.86405 0.0
H2890 H 0.26771 0.81685 0.90207 0.0
H2891 H 0.27786 0.79851 0.86349 0.0
C2892 C 0.23126 0.84785 0.9547 0.0
C2893 C 0.2261 0.87269 0.95523 0.0
C2894 C 0.2341 0.83469 0.9325 0.0
C2895 C 0.2316 0.84585 0.91011 0.0
C2896 C 0.22538 0.87026 0.91065 0.0
C2897 C 0.22278 0.88344 0.93275 0.0
C2898 C 0.22853 0.82471 0.842 0.0
C2899 C 0.24859 0.81139 0.8411 0.0
C2900 C 0.2227 0.83533 0.86427 0.0
C2901 C 0.23663 0.83286 0.88646 0.0
C2902 C 0.25629 0.81897 0.88558 0.0
C2903 C 0.26224 0.80853 0.8633 0.0
H2904 H 0.90956 0.54985 0.67847 0.0
H2905 H 0.9762 0.59491 0.71373 0.0
H2906 H 0.92967 0.54564 0.64089 0.0
H2907 H 0.99619 0.59077 0.67634 0.0
H2908 H 0.01602 0.601 0.5988 0.0
H2909 H 0.99393 0.60469 0.63478 0.0
H2910 H 0.9639 0.5256 0.62411 0.0
H2911 H 0.98652 0.52186 0.58798 0.0
C2912 C 0.92842 0.55903 0.67818 0.0
C2913 C 0.94118 0.57285 0.69917 0.0
C2914 C 0.94003 0.55642 0.65667 0.0
C2915 C 0.9646 0.56785 0.65546 0.0
C2916 C 0.9772 0.5819 0.67641 0.0
C2917 C 0.96572 0.58424 0.69795 0.0
C2918 C 1.00474 0.58432 0.60408 0.0
C2919 C 1.00306 0.56111 0.59042 0.0
C2920 C 0.99208 0.58645 0.62482 0.0
C2921 C 0.97718 0.56545 0.63257 0.0
C2922 C 0.97503 0.54224 0.61861 0.0
C2923 C 0.98796 0.54007 0.59786 0.0
H2924 H 0.287 0.16199 0.39705 0.0
H2925 H 0.29498 0.22055 0.45573 0.0
H2926 H 0.2947 0.19418 0.36815 0.0
H2927 H 0.30238 0.25237 0.4268 0.0
H2928 H 0.26347 0.28842 0.35969 0.0
H2929 H 0.27019 0.26221 0.39334 0.0
H2930 H 0.32656 0.23187 0.35677 0.0
H2931 H 0.32021 0.25847 0.32325 0.0
C2932 C 0.29086 0.18161 0.40387 0.0
C2933 C 0.28995 0.18864 0.42865 0.0
C2934 C 0.29541 0.20001 0.38736 0.0
C2935 C 0.29896 0.22569 0.39534 0.0
C2936 C 0.29952 0.23268 0.42023 0.0
C2937 C 0.29521 0.21437 0.43674 0.0
C2938 C 0.27788 0.27682 0.35925 0.0
C2939 C 0.29126 0.27542 0.3389 0.0
C2940 C 0.28175 0.26184 0.37848 0.0
C2941 C 0.29875 0.24492 0.37745 0.0
C2942 C 0.31328 0.24471 0.35787 0.0
C2943 C 0.30978 0.2601 0.33884 0.0
H2944 H 0.37947 0.65501 0.53586 0.0
H2945 H 0.34655 0.60819 0.47154 0.0
H2946 H 0.41302 0.62946 0.53932 0.0
H2947 H 0.37928 0.583 0.47529 0.0
H2948 H 0.42097 0.52325 0.50774 0.0
H2949 H 0.39079 0.55212 0.50455 0.0
H2950 H 0.44958 0.61547 0.51777 0.0
H2951 H 0.4797 0.58643 0.52109 0.0
C2952 C 0.37947 0.63965 0.52228 0.0
C2953 C 0.35993 0.63382 0.50352 0.0
C2954 C 0.3987 0.62491 0.5243 0.0
C2955 C 0.39872 0.60377 0.50782 0.0
C2956 C 0.37974 0.59869 0.48865 0.0
C2957 C 0.36089 0.61342 0.48646 0.0
C2958 C 0.42752 0.54333 0.50975 0.0
C2959 C 0.45297 0.55237 0.51383 0.0
C2960 C 0.41019 0.55996 0.5079 0.0
C2961 C 0.41762 0.5863 0.51064 0.0
C2962 C 0.44307 0.59539 0.51543 0.0
C2963 C 0.46048 0.57867 0.51686 0.0
H2964 H 0.83227 0.9743 0.5868 0.0
H2965 H 0.84153 0.90868 0.54212 0.0
H2966 H 0.87598 0.99115 0.58625 0.0
H2967 H 0.88541 0.92479 0.54214 0.0
H2968 H 0.94242 0.98241 0.51004 0.0
H2969 H 0.90528 0.95696 0.52074 0.0
H2970 H 0.9192 0.99115 0.59455 0.0
H2971 H 0.95715 0.01615 0.58373 0.0
C2972 C 0.84386 0.96342 0.57711 0.0
C2973 C 0.83358 0.94099 0.56341 0.0
C2974 C 0.86897 0.97277 0.57712 0.0
C2975 C 0.88413 0.95965 0.56353 0.0
C2976 C 0.87412 0.93581 0.55206 0.0
C2977 C 0.84906 0.92654 0.55206 0.0
C2978 C 0.93752 0.98443 0.52855 0.0
C2979 C 0.95221 1.00158 0.54593 0.0
C2980 C 0.91637 0.96962 0.53484 0.0
C2981 C 0.90891 0.97227 0.55847 0.0
C2982 C 0.92415 0.98895 0.5761 0.0
C2983 C 0.94581 1.00326 0.56994 0.0
H2984 H 0.86409 0.13339 0.27658 0.0
H2985 H 0.80549 0.10003 0.22215 0.0
H2986 H 0.84461 0.17123 0.28073 0.0
H2987 H 0.78646 0.13787 0.22536 0.0
H2988 H 0.74108 0.19173 0.25799 0.0
H2989 H 0.76356 0.15644 0.25324 0.0
H2990 H 0.83254 0.20789 0.26389 0.0
H2991 H 0.80981 0.2429 0.26894 0.0
C2992 C 0.84749 0.13457 0.26492 0.0
C2993 C 0.83632 0.11394 0.24896 0.0
C2994 C 0.83622 0.15617 0.26734 0.0
C2995 C 0.8136 0.15752 0.25375 0.0
C2996 C 0.80341 0.13732 0.2367 0.0
C2997 C 0.81448 0.11572 0.23456 0.0
C2998 C 0.76107 0.19542 0.25966 0.0
C2999 C 0.77366 0.2201 0.26461 0.0
C3000 C 0.77402 0.17522 0.25664 0.0
C3001 C 0.8 0.17919 0.25796 0.0
C3002 C 0.81261 0.20395 0.26313 0.0
C3003 C 0.79956 0.22414 0.26637 0.0
H3004 H 0.71765 0.18008 0.99273 0.0
H3005 H 0.74724 0.12338 0.03272 0.0
H3006 H 0.67558 0.15983 0.99801 0.0
H3007 H 0.70556 0.10291 0.03775 0.0
H3008 H 0.6289 0.0875 0.06377 0.0
H3009 H 0.67013 0.10965 0.05908 0.0
H3010 H 0.6468 0.12072 0.98432 0.0
H3011 H 0.6054 0.09895 0.98924 0.0
C3012 C 0.71506 0.16321 1.00252 0.0
C3013 C 0.7355 0.15279 0.01169 0.0
C3014 C 0.69107 0.15156 1.00547 0.0
C3015 C 0.68718 0.12966 0.01822 0.0
C3016 C 0.70782 0.11983 0.02802 0.0
C3017 C 0.73169 0.13134 0.02489 0.0
C3018 C 0.63258 0.09477 0.04639 0.0
C3019 C 0.61398 0.09154 0.02689 0.0
C3020 C 0.65622 0.10734 0.04363 0.0
C3021 C 0.66179 0.11697 0.0213 0.0
C3022 C 0.64305 0.11387 1.00185 0.0
C3023 C 0.61939 0.10128 1.00462 0.0
H3024 H 0.17961 0.44771 0.33897 0.0
H3025 H 0.14623 0.42985 0.26506 0.0
H3026 H 0.20361 0.41371 0.33468 0.0
H3027 H 0.17046 0.39532 0.26082 0.0
H3028 H 0.21031 0.32458 0.27008 0.0
H3029 H 0.18031 0.35328 0.27597 0.0
H3030 H 0.23911 0.4099 0.31045 0.0
H3031 H 0.26876 0.38114 0.30469 0.0
C3032 C 0.17698 0.4362 0.32188 0.0
C3033 C 0.16103 0.44179 0.30228 0.0
C3034 C 0.19095 0.41675 0.31939 0.0
C3035 C 0.18941 0.40205 0.29726 0.0
C3036 C 0.17213 0.40629 0.27814 0.0
C3037 C 0.15812 0.42601 0.2806 0.0
C3038 C 0.21661 0.34286 0.27954 0.0
C3039 C 0.24176 0.3503 0.2876 0.0
C3040 C 0.19951 0.3595 0.28252 0.0
C3041 C 0.20718 0.38388 0.29391 0.0
C3042 C 0.2324 0.39116 0.30199 0.0
C3043 C 0.24945 0.37471 0.29866 0.0
H3044 H 0.19459 0.42434 0.01341 0.0
H3045 H 0.22191 0.49658 0.05207 0.0
H3046 H 0.15676 0.4397 0.99895 0.0
H3047 H 0.18383 0.51156 0.03904 0.0
H3048 H 0.12365 0.5422 0.99999 0.0
H3049 H 0.16208 0.52487 1.00533 0.0
H3050 H 0.12025 0.45101 0.01083 0.0
H3051 H 0.08223 0.46806 1.0039 0.0
C3052 C 0.19215 0.44328 0.0193 0.0
C3053 C 0.21096 0.45928 0.03389 0.0
C3054 C 0.17059 0.45216 0.01095 0.0
C3055 C 0.16734 0.47706 0.01748 0.0
C3056 C 0.18594 0.49261 0.03291 0.0
C3057 C 0.20761 0.48391 0.04078 0.0
C3058 C 0.12281 0.52215 1.00158 0.0
C3059 C 0.10012 0.50652 1.00189 0.0
C3060 C 0.14477 0.51224 1.00501 0.0
C3061 C 0.14432 0.48664 1.00927 0.0
C3062 C 0.12144 0.47075 1.0076 0.0
C3063 C 0.09957 0.48057 1.00373 0.0
H3064 H 0.88045 0.97581 0.27054 0.0
H3065 H 0.82086 0.98378 0.21708 0.0
H3066 H 0.86249 0.93191 0.27367 0.0
H3067 H 0.80236 0.93993 0.22041 0.0
H3068 H 0.80729 0.86943 0.29861 0.0
H3069 H 0.82754 0.91095 0.29107 0.0
H3070 H 0.80536 0.89546 0.214 0.0
H3071 H 0.78496 0.85341 0.22159 0.0
C3072 C 0.86345 0.96806 0.25948 0.0
C3073 C 0.8514 0.98332 0.24438 0.0
C3074 C 0.85308 0.94297 0.26131 0.0
C3075 C 0.83063 0.93246 0.24772 0.0
C3076 C 0.81959 0.94734 0.23121 0.0
C3077 C 0.82995 0.97254 0.22953 0.0
C3078 C 0.80655 0.87478 0.28002 0.0
C3079 C 0.79435 0.85799 0.26072 0.0
C3080 C 0.8184 0.89865 0.27566 0.0
C3081 C 0.8182 0.90666 0.2519 0.0
C3082 C 0.80575 0.89001 0.23256 0.0
C3083 C 0.79411 0.86588 0.2369 0.0
H3084 H 0.67858 0.05161 0.76706 0.0
H3085 H 0.63023 0.0858 0.81131 0.0
H3086 H 0.70278 0.09274 0.76346 0.0
H3087 H 0.65522 0.12698 0.80931 0.0
H3088 H 0.68753 0.19974 0.78027 0.0
H3089 H 0.6643 0.15857 0.78415 0.0
H3090 H 0.73129 0.12594 0.78228 0.0
H3091 H 0.75428 0.16747 0.77672 0.0
C3092 C 0.67344 0.06806 0.77634 0.0
C3093 C 0.65294 0.0657 0.78985 0.0
C3094 C 0.68738 0.09164 0.77445 0.0
C3095 C 0.68119 0.11341 0.78618 0.0
C3096 C 0.66042 0.11084 0.79961 0.0
C3097 C 0.64616 0.08727 0.80101 0.0
C3098 C 0.69731 0.18374 0.78069 0.0
C3099 C 0.72268 0.18672 0.77816 0.0
C3100 C 0.68399 0.16007 0.78317 0.0
C3101 C 0.69579 0.1387 0.78377 0.0
C3102 C 0.7214 0.1418 0.78153 0.0
C3103 C 0.73467 0.16558 0.77848 0.0
loop_
_geom_bond_atom_site_label_1
_geom_bond_atom_site_label_2
_geom_bond_distance
_geom_bond_site_symmetry_2
_ccdc_geom_bond_type
Mn0 O5 2.095 . S
Mn0 O15 2.162 . S
Mn0 O16 2.297 . S
Mn0 O24 2.385 1_455 S
Mn0 O25 2.209 1_455 S
Mn0 O26 2.094 . S
Mn1 O6 2.121 . S
Mn1 N8 2.257 . S
Mn1 N17 2.282 1_455 S
Mn1 O25 2.215 1_455 S
Mn1 O27 2.117 . S
C2 O24 1.234 . S
C2 O25 1.283 . S
C3 O15 1.281 . S
C3 O16 1.236 . S
C4 O26 1.240 . S
C4 O27 1.264 . S
O5 Mn0 2.095 . S
O5 C14 1.250 . S
O6 Mn1 2.121 . S
O6 C14 1.258 . S
C7 N8 1.326 . S
C7 C11 1.460 . S
C7 H13 0.929 . S
N8 Mn1 2.257 . S
N8 C7 1.326 . S
N8 C12 1.362 1_455 S
C9 C10 1.258 . S
C9 C12 1.431 . S
C9 C29 1.449 . S
C10 C9 1.258 . S
C10 C11 1.477 1_655 S
C10 H30 0.931 . S
C11 C7 1.460 . S
C11 C10 1.477 1_455 S
C11 H31 0.930 . S
C12 N8 1.362 1_655 S
C12 C9 1.431 . S
C12 C22 1.476 . S
H13 C7 0.929 . S
C14 O5 1.250 . S
C14 O6 1.258 . S
O15 Mn0 2.162 . S
O15 C3 1.281 . S
O16 Mn0 2.297 . S
O16 C3 1.236 . S
N17 Mn1 2.282 1_655 S
N17 C18 1.328 . S
N17 C22 1.318 . S
C18 N17 1.328 . S
C18 C19 1.457 . S
C18 H23 0.929 . S
C19 C18 1.457 . S
C19 C20 1.291 . S
C19 H32 0.931 . S
C20 C19 1.291 . S
C20 C21 1.373 . S
C20 H33 0.929 . S
C21 C20 1.373 . S
C21 C22 1.396 . S
C21 C28 1.403 . S
C22 C12 1.476 . S
C22 N17 1.318 . S
C22 C21 1.396 . S
H23 C18 0.929 . S
O24 Mn0 2.385 1_655 S
O24 C2 1.234 . S
O25 Mn0 2.209 1_655 S
O25 Mn1 2.215 1_655 S
O25 C2 1.283 . S
O26 Mn0 2.094 . S
O26 C4 1.240 . S
O27 Mn1 2.117 . S
O27 C4 1.264 . S
C28 C21 1.403 . S
C28 C29 1.399 . S
C28 H34 0.929 . S
C29 C9 1.449 . S
C29 C28 1.399 . S
C29 H35 0.930 . S
H30 C10 0.931 . S
H31 C11 0.930 . S
H32 C19 0.931 . S
H33 C20 0.929 . S
H34 C28 0.929 . S
H35 C29 0.930 . S
Mn36 O41 2.074 1_455 S
Mn36 O51 2.162 1_455 S
Mn36 O52 2.299 1_455 S
Mn36 O60 2.407 . S
Mn36 O61 2.218 . S
Mn36 O62 2.093 . S
Mn37 O42 2.121 1_455 S
Mn37 N44 2.257 . S
Mn37 N53 2.282 . S
Mn37 O61 2.215 . S
Mn37 O63 2.117 . S
C38 O60 1.234 . S
C38 O61 1.283 . S
C39 O51 1.281 . S
C39 O52 1.236 . S
C40 O62 1.240 . S
C40 O63 1.264 . S
O41 Mn36 2.074 1_655 S
O41 C50 1.250 . S
O42 Mn37 2.121 1_655 S
O42 C50 1.258 . S
C43 N44 1.326 . S
C43 C47 1.460 . S
C43 H49 0.929 1_455 S
N44 Mn37 2.257 . S
N44 C43 1.326 . S
N44 C48 1.362 . S
C45 C46 1.258 . S
C45 C48 1.431 . S
C45 C65 1.449 . S
C46 C45 1.258 . S
C46 C47 1.477 . S
C46 H66 0.931 . S
C47 C43 1.460 . S
C47 C46 1.477 . S
C47 H67 0.930 . S
C48 N44 1.362 . S
C48 C45 1.431 . S
C48 C58 1.476 . S
H49 C43 0.929 1_655 S
C50 O41 1.250 . S
C50 O42 1.258 . S
O51 Mn36 2.162 1_655 S
O51 C39 1.281 . S
O52 Mn36 2.299 1_655 S
O52 C39 1.236 . S
N53 Mn37 2.282 . S
N53 C54 1.328 . S
N53 C58 1.318 . S
C54 N53 1.328 . S
C54 C55 1.457 . S
C54 H59 0.929 . S
C55 C54 1.457 . S
C55 C56 1.291 . S
C55 H68 0.931 . S
C56 C55 1.291 . S
C56 C57 1.373 . S
C56 H69 0.929 . S
C57 C56 1.373 . S
C57 C58 1.396 . S
C57 C64 1.403 . S
C58 C48 1.476 . S
C58 N53 1.318 . S
C58 C57 1.396 . S
H59 C54 0.929 . S
O60 Mn36 2.407 . S
O60 C38 1.234 . S
O61 Mn36 2.218 . S
O61 Mn37 2.215 . S
O61 C38 1.283 . S
O62 Mn36 2.093 . S
O62 C40 1.240 . S
O63 Mn37 2.117 . S
O63 C40 1.264 . S
C64 C57 1.403 . S
C64 C65 1.399 . S
C64 H70 0.929 . S
C65 C45 1.449 . S
C65 C64 1.399 . S
C65 H71 0.930 . S
H66 C46 0.931 . S
H67 C47 0.930 . S
H68 C55 0.931 . S
H69 C56 0.929 . S
H70 C64 0.929 . S
H71 C65 0.930 . S
Mn72 O77 2.095 . S
Mn72 O87 2.162 . S
Mn72 O88 2.297 . S
Mn72 O96 2.385 . S
Mn72 O97 2.209 . S
Mn72 O98 2.094 . S
Mn73 O78 2.121 . S
Mn73 N80 2.257 . S
Mn73 N89 2.282 . S
Mn73 O97 2.215 . S
Mn73 O99 2.117 . S
C74 O96 1.234 . S
C74 O97 1.283 . S
C75 O87 1.281 . S
C75 O88 1.236 . S
C76 O98 1.240 . S
C76 O99 1.264 . S
O77 Mn72 2.095 . S
O77 C86 1.250 . S
O78 Mn73 2.121 . S
O78 C86 1.258 . S
C79 N80 1.326 . S
C79 C83 1.460 . S
C79 H85 0.929 . S
N80 Mn73 2.257 . S
N80 C79 1.326 . S
N80 C84 1.362 . S
C81 C82 1.258 . S
C81 C84 1.431 . S
C81 C101 1.449 . S
C82 C81 1.258 . S
C82 C83 1.477 . S
C82 H102 0.931 . S
C83 C79 1.460 . S
C83 C82 1.477 . S
C83 H103 0.930 . S
C84 N80 1.362 . S
C84 C81 1.431 . S
C84 C94 1.476 . S
H85 C79 0.929 . S
C86 O77 1.250 . S
C86 O78 1.258 . S
O87 Mn72 2.162 . S
O87 C75 1.281 . S
O88 Mn72 2.297 . S
O88 C75 1.236 . S
N89 Mn73 2.282 . S
N89 C90 1.328 . S
N89 C94 1.318 . S
C90 N89 1.328 . S
C90 C91 1.457 . S
C90 H95 0.929 . S
C91 C90 1.457 . S
C91 C92 1.291 . S
C91 H104 0.931 . S
C92 C91 1.291 . S
C92 C93 1.373 . S
C92 H105 0.929 . S
C93 C92 1.373 . S
C93 C94 1.396 . S
C93 C100 1.403 . S
C94 C84 1.476 . S
C94 N89 1.318 . S
C94 C93 1.396 . S
H95 C90 0.929 . S
O96 Mn72 2.385 . S
O96 C74 1.234 . S
O97 Mn72 2.209 . S
O97 Mn73 2.215 . S
O97 C74 1.283 . S
O98 Mn72 2.094 . S
O98 C76 1.240 . S
O99 Mn73 2.117 . S
O99 C76 1.264 . S
C100 C93 1.403 . S
C100 C101 1.399 . S
C100 H106 0.929 . S
C101 C81 1.449 . S
C101 C100 1.399 . S
C101 H107 0.930 . S
H102 C82 0.931 . S
H103 C83 0.930 . S
H104 C91 0.931 . S
H105 C92 0.929 . S
H106 C100 0.929 . S
H107 C101 0.930 . S
Mn108 O113 2.095 . S
Mn108 O123 2.162 . S
Mn108 O124 2.297 . S
Mn108 O132 2.385 . S
Mn108 O133 2.209 . S
Mn108 O134 2.094 . S
Mn109 O114 2.121 . S
Mn109 N116 2.257 . S
Mn109 N125 2.282 . S
Mn109 O133 2.215 . S
Mn109 O135 2.117 . S
C110 O132 1.234 . S
C110 O133 1.283 . S
C111 O123 1.281 . S
C111 O124 1.236 . S
C112 O134 1.240 . S
C112 O135 1.264 . S
O113 Mn108 2.095 . S
O113 C122 1.250 . S
O114 Mn109 2.121 . S
O114 C122 1.258 . S
C115 N116 1.326 . S
C115 C119 1.460 . S
C115 H121 0.929 . S
N116 Mn109 2.257 . S
N116 C115 1.326 . S
N116 C120 1.362 . S
C117 C118 1.258 . S
C117 C120 1.431 . S
C117 C137 1.449 . S
C118 C117 1.258 . S
C118 C119 1.477 . S
C118 H138 0.931 . S
C119 C115 1.460 . S
C119 C118 1.477 . S
C119 H139 0.930 . S
C120 N116 1.362 . S
C120 C117 1.431 . S
C120 C130 1.476 . S
H121 C115 0.929 . S
C122 O113 1.250 . S
C122 O114 1.258 . S
O123 Mn108 2.162 . S
O123 C111 1.281 . S
O124 Mn108 2.297 . S
O124 C111 1.236 . S
N125 Mn109 2.282 . S
N125 C126 1.328 . S
N125 C130 1.318 . S
C126 N125 1.328 . S
C126 C127 1.457 . S
C126 H131 0.929 . S
C127 C126 1.457 . S
C127 C128 1.291 . S
C127 H140 0.931 . S
C128 C127 1.291 . S
C128 C129 1.373 . S
C128 H141 0.929 . S
C129 C128 1.373 . S
C129 C130 1.396 . S
C129 C136 1.403 . S
C130 C120 1.476 . S
C130 N125 1.318 . S
C130 C129 1.396 . S
H131 C126 0.929 . S
O132 Mn108 2.385 . S
O132 C110 1.234 . S
O133 Mn108 2.209 . S
O133 Mn109 2.215 . S
O133 C110 1.283 . S
O134 Mn108 2.094 . S
O134 C112 1.240 . S
O135 Mn109 2.117 . S
O135 C112 1.264 . S
C136 C129 1.403 . S
C136 C137 1.399 . S
C136 H142 0.929 . S
C137 C117 1.449 . S
C137 C136 1.399 . S
C137 H143 0.930 . S
H138 C118 0.931 . S
H139 C119 0.930 . S
H140 C127 0.931 . S
H141 C128 0.929 . S
H142 C136 0.929 . S
H143 C137 0.930 . S
Mn144 O149 2.095 . S
Mn144 O159 2.162 . S
Mn144 O160 2.297 . S
Mn144 O168 2.385 . S
Mn144 O169 2.209 1_455 S
Mn144 O170 2.094 1_455 S
Mn145 O150 2.121 . S
Mn145 N152 2.257 . S
Mn145 N161 2.282 . S
Mn145 O169 2.215 . S
Mn145 O171 2.117 . S
C146 O168 1.234 . S
C146 O169 1.283 1_455 S
C147 O159 1.281 . S
C147 O160 1.236 . S
C148 O170 1.240 . S
C148 O171 1.264 . S
O149 Mn144 2.095 . S
O149 C158 1.250 . S
O150 Mn145 2.121 . S
O150 C158 1.258 1_655 S
C151 N152 1.326 . S
C151 C155 1.460 . S
C151 H157 0.929 . S
N152 Mn145 2.257 . S
N152 C151 1.326 . S
N152 C156 1.362 . S
C153 C154 1.258 . S
C153 C156 1.431 . S
C153 C173 1.449 . S
C154 C153 1.258 . S
C154 C155 1.477 . S
C154 H174 0.953 . S
C155 C151 1.460 . S
C155 C154 1.477 . S
C155 H175 0.930 . S
C156 N152 1.362 . S
C156 C153 1.431 . S
C156 C166 1.476 . S
H157 C151 0.929 . S
C158 O149 1.250 . S
C158 O150 1.258 1_455 S
O159 Mn144 2.162 . S
O159 C147 1.281 . S
O160 Mn144 2.297 . S
O160 C147 1.236 . S
N161 Mn145 2.282 . S
N161 C162 1.328 . S
N161 C166 1.318 . S
C162 N161 1.328 . S
C162 C163 1.457 . S
C162 H167 0.929 . S
C163 C162 1.457 . S
C163 C164 1.291 . S
C163 H176 0.931 . S
C164 C163 1.291 . S
C164 C165 1.373 . S
C164 H177 0.929 . S
C165 C164 1.373 . S
C165 C166 1.396 . S
C165 C172 1.403 . S
C166 C156 1.476 . S
C166 N161 1.318 . S
C166 C165 1.396 . S
H167 C162 0.929 . S
O168 Mn144 2.385 . S
O168 C146 1.234 . S
O169 Mn144 2.209 1_655 S
O169 Mn145 2.215 . S
O169 C146 1.283 1_655 S
O170 Mn144 2.094 1_655 S
O170 C148 1.240 . S
O171 Mn145 2.117 . S
O171 C148 1.264 . S
C172 C165 1.403 . S
C172 C173 1.399 . S
C172 H178 0.929 . S
C173 C153 1.449 . S
C173 C172 1.399 . S
C173 H179 0.930 . S
H174 C154 0.953 . S
H175 C155 0.930 . S
H176 C163 0.931 . S
H177 C164 0.929 . S
H178 C172 0.929 . S
H179 C173 0.930 . S
Mn180 O185 2.095 . S
Mn180 O195 2.162 . S
Mn180 O196 2.297 . S
Mn180 O204 2.385 . S
Mn180 O205 2.209 . S
Mn180 O206 2.094 . S
Mn181 O186 2.121 . S
Mn181 N188 2.257 . S
Mn181 N197 2.282 . S
Mn181 O205 2.215 . S
Mn181 O207 2.117 . S
C182 O204 1.234 . S
C182 O205 1.283 . S
C183 O195 1.281 . S
C183 O196 1.236 . S
C184 O206 1.240 . S
C184 O207 1.264 . S
O185 Mn180 2.095 . S
O185 C194 1.250 . S
O186 Mn181 2.121 . S
O186 C194 1.258 . S
C187 N188 1.326 . S
C187 C191 1.460 . S
C187 H193 0.929 . S
N188 Mn181 2.257 . S
N188 C187 1.326 . S
N188 C192 1.362 . S
C189 C190 1.258 . S
C189 C192 1.431 . S
C189 C209 1.449 . S
C190 C189 1.258 . S
C190 C191 1.477 . S
C190 H210 0.931 . S
C191 C187 1.460 . S
C191 C190 1.477 . S
C191 H211 0.930 . S
C192 N188 1.362 . S
C192 C189 1.431 . S
C192 C202 1.476 . S
H193 C187 0.929 . S
C194 O185 1.250 . S
C194 O186 1.258 . S
O195 Mn180 2.162 . S
O195 C183 1.281 . S
O196 Mn180 2.297 . S
O196 C183 1.236 . S
N197 Mn181 2.282 . S
N197 C198 1.328 . S
N197 C202 1.318 . S
C198 N197 1.328 . S
C198 C199 1.457 . S
C198 H203 0.929 . S
C199 C198 1.457 . S
C199 C200 1.291 . S
C199 H212 0.931 . S
C200 C199 1.291 . S
C200 C201 1.373 . S
C200 H213 0.929 . S
C201 C200 1.373 . S
C201 C202 1.396 . S
C201 C208 1.403 . S
C202 C192 1.476 . S
C202 N197 1.318 . S
C202 C201 1.396 . S
H203 C198 0.929 . S
O204 Mn180 2.385 . S
O204 C182 1.234 . S
O205 Mn180 2.209 . S
O205 Mn181 2.215 . S
O205 C182 1.283 . S
O206 Mn180 2.094 . S
O206 C184 1.240 . S
O207 Mn181 2.117 . S
O207 C184 1.264 . S
C208 C201 1.403 . S
C208 C209 1.399 . S
C208 H214 0.929 . S
C209 C189 1.449 . S
C209 C208 1.399 . S
C209 H215 0.930 . S
H210 C190 0.931 . S
H211 C191 0.930 . S
H212 C199 0.931 . S
H213 C200 0.929 . S
H214 C208 0.929 . S
H215 C209 0.930 . S
Mn216 O221 2.095 . S
Mn216 O231 2.162 . S
Mn216 O232 2.297 . S
Mn216 O240 2.385 . S
Mn216 O241 2.209 . S
Mn216 O242 2.094 . S
Mn217 O222 2.121 . S
Mn217 N224 2.257 . S
Mn217 N233 2.282 . S
Mn217 O241 2.215 . S
Mn217 O243 2.117 . S
C218 O240 1.234 . S
C218 O241 1.283 . S
C219 O231 1.281 . S
C219 O232 1.236 . S
C220 O242 1.240 . S
C220 O243 1.264 . S
O221 Mn216 2.095 . S
O221 C230 1.250 . S
O222 Mn217 2.121 . S
O222 C230 1.258 . S
C223 N224 1.326 . S
C223 C227 1.460 . S
C223 H229 0.929 . S
N224 Mn217 2.257 . S
N224 C223 1.326 . S
N224 C228 1.362 . S
C225 C226 1.258 . S
C225 C228 1.431 . S
C225 C245 1.449 . S
C226 C225 1.258 . S
C226 C227 1.477 . S
C226 H246 0.931 . S
C227 C223 1.460 . S
C227 C226 1.477 . S
C227 H247 0.930 . S
C228 N224 1.362 . S
C228 C225 1.431 . S
C228 C238 1.476 . S
H229 C223 0.929 . S
C230 O221 1.250 . S
C230 O222 1.258 . S
O231 Mn216 2.162 . S
O231 C219 1.281 . S
O232 Mn216 2.297 . S
O232 C219 1.236 . S
N233 Mn217 2.282 . S
N233 C234 1.328 . S
N233 C238 1.318 . S
C234 N233 1.328 . S
C234 C235 1.457 . S
C234 H239 0.929 . S
C235 C234 1.457 . S
C235 C236 1.291 . S
C235 H248 0.931 . S
C236 C235 1.291 . S
C236 C237 1.373 . S
C236 H249 0.929 . S
C237 C236 1.373 . S
C237 C238 1.396 . S
C237 C244 1.403 . S
C238 C228 1.476 . S
C238 N233 1.318 . S
C238 C237 1.396 . S
H239 C234 0.929 . S
O240 Mn216 2.385 . S
O240 C218 1.234 . S
O241 Mn216 2.209 . S
O241 Mn217 2.215 . S
O241 C218 1.283 . S
O242 Mn216 2.094 . S
O242 C220 1.240 . S
O243 Mn217 2.117 . S
O243 C220 1.264 . S
C244 C237 1.403 . S
C244 C245 1.399 . S
C244 H250 0.929 . S
C245 C225 1.449 . S
C245 C244 1.399 . S
C245 H251 0.930 . S
H246 C226 0.931 . S
H247 C227 0.930 . S
H248 C235 0.931 . S
H249 C236 0.929 . S
H250 C244 0.929 . S
H251 C245 0.930 . S
Mn252 O257 2.095 . S
Mn252 O267 2.162 . S
Mn252 O268 2.297 . S
Mn252 O276 2.385 1_455 S
Mn252 O277 2.209 1_455 S
Mn252 O278 2.094 . S
Mn253 O258 2.121 . S
Mn253 N260 2.257 1_455 S
Mn253 N269 2.282 1_455 S
Mn253 O277 2.215 1_455 S
Mn253 O279 2.117 . S
C254 O276 1.234 . S
C254 O277 1.283 . S
C255 O267 1.281 . S
C255 O268 1.236 . S
C256 O278 1.240 . S
C256 O279 1.264 . S
O257 Mn252 2.095 . S
O257 C266 1.250 . S
O258 Mn253 2.121 . S
O258 C266 1.258 . S
C259 N260 1.326 1_455 S
C259 C263 1.460 1_455 S
C259 H265 0.929 . S
N260 Mn253 2.257 1_655 S
N260 C259 1.326 1_655 S
N260 C264 1.362 . S
C261 C262 1.258 . S
C261 C264 1.431 . S
C261 C281 1.449 . S
C262 C261 1.258 . S
C262 C263 1.477 . S
C262 H282 0.931 . S
C263 C259 1.460 1_655 S
C263 C262 1.477 . S
C263 H283 0.930 1_655 S
C264 N260 1.362 . S
C264 C261 1.431 . S
C264 C274 1.476 . S
H265 C259 0.929 . S
C266 O257 1.250 . S
C266 O258 1.258 . S
O267 Mn252 2.162 . S
O267 C255 1.281 . S
O268 Mn252 2.297 . S
O268 C255 1.236 . S
N269 Mn253 2.282 1_655 S
N269 C270 1.328 . S
N269 C274 1.318 . S
C270 N269 1.328 . S
C270 C271 1.457 . S
C270 H275 0.929 . S
C271 C270 1.457 . S
C271 C272 1.291 . S
C271 H284 0.931 . S
C272 C271 1.291 . S
C272 C273 1.373 . S
C272 H285 0.929 . S
C273 C272 1.373 . S
C273 C274 1.396 . S
C273 C280 1.403 . S
C274 C264 1.476 . S
C274 N269 1.318 . S
C274 C273 1.396 . S
H275 C270 0.929 . S
O276 Mn252 2.385 1_655 S
O276 C254 1.234 . S
O277 Mn252 2.209 1_655 S
O277 Mn253 2.215 1_655 S
O277 C254 1.283 . S
O278 Mn252 2.094 . S
O278 C256 1.240 . S
O279 Mn253 2.117 . S
O279 C256 1.264 . S
C280 C273 1.403 . S
C280 C281 1.399 . S
C280 H286 0.929 . S
C281 C261 1.449 . S
C281 C280 1.399 . S
C281 H287 0.930 . S
H282 C262 0.931 . S
H283 C263 0.930 1_455 S
H284 C271 0.931 . S
H285 C272 0.929 . S
H286 C280 0.929 . S
H287 C281 0.930 . S
Mn288 O293 2.095 . S
Mn288 O303 2.162 . S
Mn288 O304 2.297 . S
Mn288 O312 2.385 . S
Mn288 O313 2.209 . S
Mn288 O314 2.094 . S
Mn289 O294 2.121 . S
Mn289 N296 2.257 . S
Mn289 N305 2.282 . S
Mn289 O313 2.215 . S
Mn289 O315 2.117 . S
C290 O312 1.234 . S
C290 O313 1.283 . S
C291 O303 1.281 . S
C291 O304 1.236 . S
C292 O314 1.240 . S
C292 O315 1.264 . S
O293 Mn288 2.095 . S
O293 C302 1.250 . S
O294 Mn289 2.121 . S
O294 C302 1.258 . S
C295 N296 1.326 . S
C295 C299 1.460 . S
C295 H301 0.929 . S
N296 Mn289 2.257 . S
N296 C295 1.326 . S
N296 C300 1.362 . S
C297 C298 1.258 1_565 S
C297 C300 1.431 1_565 S
C297 C317 1.449 . S
C298 C297 1.258 1_545 S
C298 C299 1.477 . S
C298 H318 0.931 1_545 S
C299 C295 1.460 . S
C299 C298 1.477 . S
C299 H319 0.930 . S
C300 N296 1.362 . S
C300 C297 1.431 1_545 S
C300 C310 1.476 1_545 S
H301 C295 0.929 . S
C302 O293 1.250 . S
C302 O294 1.258 . S
O303 Mn288 2.162 . S
O303 C291 1.281 . S
O304 Mn288 2.297 . S
O304 C291 1.236 . S
N305 Mn289 2.282 . S
N305 C306 1.328 1_545 S
N305 C310 1.318 1_545 S
C306 N305 1.328 1_565 S
C306 C307 1.457 . S
C306 H311 0.929 1_565 S
C307 C306 1.457 . S
C307 C308 1.291 . S
C307 H320 0.931 . S
C308 C307 1.291 . S
C308 C309 1.373 . S
C308 H321 0.929 . S
C309 C308 1.373 . S
C309 C310 1.396 . S
C309 C316 1.403 . S
C310 C300 1.476 1_565 S
C310 N305 1.318 1_565 S
C310 C309 1.396 . S
H311 C306 0.929 1_545 S
O312 Mn288 2.385 . S
O312 C290 1.234 . S
O313 Mn288 2.209 . S
O313 Mn289 2.215 . S
O313 C290 1.283 . S
O314 Mn288 2.094 . S
O314 C292 1.240 . S
O315 Mn289 2.117 . S
O315 C292 1.264 . S
C316 C309 1.403 . S
C316 C317 1.399 . S
C316 H322 0.929 . S
C317 C297 1.449 . S
C317 C316 1.399 . S
C317 H323 0.930 . S
H318 C298 0.931 1_565 S
H319 C299 0.930 . S
H320 C307 0.931 . S
H321 C308 0.929 . S
H322 C316 0.929 . S
H323 C317 0.930 . S
Mn324 O329 2.095 . S
Mn324 O339 2.162 . S
Mn324 O340 2.297 . S
Mn324 O348 2.385 . S
Mn324 O349 2.209 . S
Mn324 O350 2.094 . S
Mn325 O330 2.121 . S
Mn325 N332 2.257 . S
Mn325 N341 2.282 . S
Mn325 O349 2.215 . S
Mn325 O351 2.117 . S
C326 O348 1.234 . S
C326 O349 1.283 . S
C327 O339 1.281 . S
C327 O340 1.236 . S
C328 O350 1.240 . S
C328 O351 1.264 . S
O329 Mn324 2.095 . S
O329 C338 1.250 . S
O330 Mn325 2.121 . S
O330 C338 1.258 . S
C331 N332 1.326 . S
C331 C335 1.460 . S
C331 H337 0.929 . S
N332 Mn325 2.257 . S
N332 C331 1.326 . S
N332 C336 1.362 . S
C333 C334 1.258 . S
C333 C336 1.431 . S
C333 C353 1.449 . S
C334 C333 1.258 . S
C334 C335 1.477 . S
C334 H354 0.931 . S
C335 C331 1.460 . S
C335 C334 1.477 . S
C335 H355 0.930 . S
C336 N332 1.362 . S
C336 C333 1.431 . S
C336 C346 1.476 . S
H337 C331 0.929 . S
C338 O329 1.250 . S
C338 O330 1.258 . S
O339 Mn324 2.162 . S
O339 C327 1.281 . S
O340 Mn324 2.297 . S
O340 C327 1.236 . S
N341 Mn325 2.282 . S
N341 C342 1.328 . S
N341 C346 1.318 . S
C342 N341 1.328 . S
C342 C343 1.457 . S
C342 H347 0.929 . S
C343 C342 1.457 . S
C343 C344 1.291 . S
C343 H356 0.931 . S
C344 C343 1.291 . S
C344 C345 1.373 . S
C344 H357 0.929 . S
C345 C344 1.373 . S
C345 C346 1.396 . S
C345 C352 1.403 . S
C346 C336 1.476 . S
C346 N341 1.318 . S
C346 C345 1.396 . S
H347 C342 0.929 . S
O348 Mn324 2.385 . S
O348 C326 1.234 . S
O349 Mn324 2.209 . S
O349 Mn325 2.215 . S
O349 C326 1.283 . S
O350 Mn324 2.094 . S
O350 C328 1.240 . S
O351 Mn325 2.117 . S
O351 C328 1.264 . S
C352 C345 1.403 . S
C352 C353 1.399 . S
C352 H358 0.929 . S
C353 C333 1.449 . S
C353 C352 1.399 . S
C353 H359 0.930 . S
H354 C334 0.931 . S
H355 C335 0.930 . S
H356 C343 0.931 . S
H357 C344 0.929 . S
H358 C352 0.929 . S
H359 C353 0.930 . S
Mn360 O365 2.092 1_545 S
Mn360 O375 2.162 1_545 S
Mn360 O376 2.297 . S
Mn360 O384 2.389 . S
Mn360 O385 2.210 . S
Mn360 O386 2.094 1_545 S
Mn361 O366 2.121 1_545 S
Mn361 N368 2.257 . S
Mn361 N377 2.282 . S
Mn361 O385 2.215 . S
Mn361 O387 2.117 . S
C362 O384 1.234 . S
C362 O385 1.283 . S
C363 O375 1.281 . S
C363 O376 1.236 1_565 S
C364 O386 1.240 1_545 S
C364 O387 1.264 . S
O365 Mn360 2.092 1_565 S
O365 C374 1.250 . S
O366 Mn361 2.121 1_565 S
O366 C374 1.258 . S
C367 N368 1.326 . S
C367 C371 1.460 . S
C367 H373 0.929 1_545 S
N368 Mn361 2.257 . S
N368 C367 1.326 . S
N368 C372 1.362 . S
C369 C370 1.258 . S
C369 C372 1.431 . S
C369 C389 1.449 . S
C370 C369 1.258 . S
C370 C371 1.477 . S
C370 H390 0.931 . S
C371 C367 1.460 . S
C371 C370 1.477 . S
C371 H391 0.930 . S
C372 N368 1.362 . S
C372 C369 1.431 . S
C372 C382 1.476 . S
H373 C367 0.929 1_565 S
C374 O365 1.250 . S
C374 O366 1.258 . S
O375 Mn360 2.162 1_565 S
O375 C363 1.281 . S
O376 Mn360 2.297 . S
O376 C363 1.236 1_545 S
N377 Mn361 2.282 . S
N377 C378 1.328 . S
N377 C382 1.318 . S
C378 N377 1.328 . S
C378 C379 1.457 . S
C378 H383 0.929 . S
C379 C378 1.457 . S
C379 C380 1.291 . S
C379 H392 0.931 . S
C380 C379 1.291 . S
C380 C381 1.373 . S
C380 H393 0.929 . S
C381 C380 1.373 . S
C381 C382 1.396 . S
C381 C388 1.403 . S
C382 C372 1.476 . S
C382 N377 1.318 . S
C382 C381 1.396 . S
H383 C378 0.929 . S
O384 Mn360 2.389 . S
O384 C362 1.234 . S
O385 Mn360 2.210 . S
O385 Mn361 2.215 . S
O385 C362 1.283 . S
O386 Mn360 2.094 1_565 S
O386 C364 1.240 1_565 S
O387 Mn361 2.117 . S
O387 C364 1.264 . S
C388 C381 1.403 . S
C388 C389 1.399 . S
C388 H394 0.929 . S
C389 C369 1.449 . S
C389 C388 1.399 . S
C389 H395 0.930 . S
H390 C370 0.931 . S
H391 C371 0.930 . S
H392 C379 0.931 . S
H393 C380 0.929 . S
H394 C388 0.929 . S
H395 C389 0.930 . S
Mn396 O401 2.095 . S
Mn396 O411 2.162 . S
Mn396 O412 2.297 . S
Mn396 O420 2.385 . S
Mn396 O421 2.209 . S
Mn396 O422 2.094 1_554 S
Mn397 O402 2.121 1_556 S
Mn397 N404 2.261 . S
Mn397 N413 2.282 . S
Mn397 O421 2.215 1_556 S
Mn397 O423 2.117 . S
C398 O420 1.234 . S
C398 O421 1.283 . S
C399 O411 1.281 . S
C399 O412 1.236 . S
C400 O422 1.240 . S
C400 O423 1.264 . S
O401 Mn396 2.095 . S
O401 C410 1.250 . S
O402 Mn397 2.121 1_554 S
O402 C410 1.258 . S
C403 N404 1.309 1_554 S
C403 C407 1.460 1_565 S
C403 H409 0.929 . S
N404 Mn397 2.261 . S
N404 C403 1.309 1_556 S
N404 C408 1.381 . S
C405 C406 1.258 1_556 S
C405 C408 1.431 1_545 S
C405 C425 1.449 . S
C406 C405 1.258 1_554 S
C406 C407 1.477 . S
C406 H426 0.931 . S
C407 C403 1.460 1_545 S
C407 C406 1.477 . S
C407 H427 0.930 . S
C408 N404 1.381 . S
C408 C405 1.431 1_565 S
C408 C418 1.476 . S
H409 C403 0.929 . S
C410 O401 1.250 . S
C410 O402 1.258 . S
O411 Mn396 2.162 . S
O411 C399 1.281 . S
O412 Mn396 2.297 . S
O412 C399 1.236 . S
N413 Mn397 2.282 . S
N413 C414 1.328 . S
N413 C418 1.318 . S
C414 N413 1.328 . S
C414 C415 1.457 . S
C414 H419 0.929 . S
C415 C414 1.457 . S
C415 C416 1.291 . S
C415 H428 0.931 . S
C416 C415 1.291 . S
C416 C417 1.373 . S
C416 H429 0.929 . S
C417 C416 1.373 . S
C417 C418 1.396 . S
C417 C424 1.403 1_565 S
C418 C408 1.476 . S
C418 N413 1.318 . S
C418 C417 1.396 . S
H419 C414 0.929 . S
O420 Mn396 2.385 . S
O420 C398 1.234 . S
O421 Mn396 2.209 . S
O421 Mn397 2.215 1_554 S
O421 C398 1.283 . S
O422 Mn396 2.094 1_556 S
O422 C400 1.240 . S
O423 Mn397 2.117 . S
O423 C400 1.264 . S
C424 C417 1.403 1_545 S
C424 C425 1.399 . S
C424 H430 0.929 . S
C425 C405 1.449 . S
C425 C424 1.399 . S
C425 H431 0.930 . S
H426 C406 0.931 . S
H427 C407 0.930 . S
H428 C415 0.931 . S
H429 C416 0.929 . S
H430 C424 0.929 . S
H431 C425 0.930 . S
Mn432 O437 2.095 . S
Mn432 O447 2.162 . S
Mn432 O448 2.297 . S
Mn432 O456 2.385 . S
Mn432 O457 2.209 . S
Mn432 O458 2.094 1_554 S
Mn433 O438 2.121 1_556 S
Mn433 N440 2.257 . S
Mn433 N449 2.282 . S
Mn433 O457 2.215 1_556 S
Mn433 O459 2.117 . S
C434 O456 1.234 . S
C434 O457 1.283 . S
C435 O447 1.281 . S
C435 O448 1.236 . S
C436 O458 1.240 . S
C436 O459 1.264 . S
O437 Mn432 2.095 . S
O437 C446 1.250 . S
O438 Mn433 2.121 1_554 S
O438 C446 1.258 . S
C439 N440 1.326 1_554 S
C439 C443 1.460 . S
C439 H445 0.929 . S
N440 Mn433 2.257 . S
N440 C439 1.326 1_556 S
N440 C444 1.362 . S
C441 C442 1.238 1_556 S
C441 C444 1.431 . S
C441 C461 1.449 . S
C442 C441 1.238 1_554 S
C442 C443 1.501 . S
C442 H462 0.929 . S
C443 C439 1.460 . S
C443 C442 1.501 . S
C443 H463 0.930 . S
C444 N440 1.362 . S
C444 C441 1.431 . S
C444 C454 1.476 . S
H445 C439 0.929 . S
C446 O437 1.250 . S
C446 O438 1.258 . S
O447 Mn432 2.162 . S
O447 C435 1.281 . S
O448 Mn432 2.297 . S
O448 C435 1.236 . S
N449 Mn433 2.282 . S
N449 C450 1.328 . S
N449 C454 1.318 . S
C450 N449 1.328 . S
C450 C451 1.457 . S
C450 H455 0.929 . S
C451 C450 1.457 . S
C451 C452 1.291 . S
C451 H464 0.931 . S
C452 C451 1.291 . S
C452 C453 1.373 . S
C452 H465 0.929 . S
C453 C452 1.373 . S
C453 C454 1.396 . S
C453 C460 1.403 . S
C454 C444 1.476 . S
C454 N449 1.318 . S
C454 C453 1.396 . S
H455 C450 0.929 . S
O456 Mn432 2.385 . S
O456 C434 1.234 . S
O457 Mn432 2.209 . S
O457 Mn433 2.215 1_554 S
O457 C434 1.283 . S
O458 Mn432 2.094 1_556 S
O458 C436 1.240 . S
O459 Mn433 2.117 . S
O459 C436 1.264 . S
C460 C453 1.403 . S
C460 C461 1.399 . S
C460 H466 0.929 . S
C461 C441 1.449 . S
C461 C460 1.399 . S
C461 H467 0.930 . S
H462 C442 0.929 . S
H463 C443 0.930 . S
H464 C451 0.931 . S
H465 C452 0.929 . S
H466 C460 0.929 . S
H467 C461 0.930 . S
Mn468 O473 2.095 1_554 S
Mn468 O483 2.162 . S
Mn468 O484 2.297 . S
Mn468 O492 2.385 . S
Mn468 O493 2.209 1_554 S
Mn468 O494 2.094 1_554 S
Mn469 O474 2.121 . S
Mn469 N476 2.257 . S
Mn469 N485 2.282 . S
Mn469 O493 2.215 . S
Mn469 O495 2.117 . S
C470 O492 1.234 1_556 S
C470 O493 1.283 . S
C471 O483 1.281 . S
C471 O484 1.236 . S
C472 O494 1.240 . S
C472 O495 1.264 . S
O473 Mn468 2.095 1_556 S
O473 C482 1.250 . S
O474 Mn469 2.121 . S
O474 C482 1.258 . S
C475 N476 1.326 . S
C475 C479 1.460 . S
C475 H481 0.929 . S
N476 Mn469 2.257 . S
N476 C475 1.326 . S
N476 C480 1.362 . S
C477 C478 1.258 . S
C477 C480 1.431 . S
C477 C497 1.449 . S
C478 C477 1.258 . S
C478 C479 1.477 . S
C478 H498 0.931 . S
C479 C475 1.460 . S
C479 C478 1.477 . S
C479 H499 0.930 . S
C480 N476 1.362 . S
C480 C477 1.431 . S
C480 C490 1.476 . S
H481 C475 0.929 . S
C482 O473 1.250 . S
C482 O474 1.258 . S
O483 Mn468 2.162 . S
O483 C471 1.281 . S
O484 Mn468 2.297 . S
O484 C471 1.236 . S
N485 Mn469 2.282 . S
N485 C486 1.328 . S
N485 C490 1.318 . S
C486 N485 1.328 . S
C486 C487 1.457 . S
C486 H491 0.929 . S
C487 C486 1.457 . S
C487 C488 1.291 . S
C487 H500 0.931 . S
C488 C487 1.291 . S
C488 C489 1.373 . S
C488 H501 0.929 . S
C489 C488 1.373 . S
C489 C490 1.396 . S
C489 C496 1.403 . S
C490 C480 1.476 . S
C490 N485 1.318 . S
C490 C489 1.396 . S
H491 C486 0.929 . S
O492 Mn468 2.385 . S
O492 C470 1.234 1_554 S
O493 Mn468 2.209 1_556 S
O493 Mn469 2.215 . S
O493 C470 1.283 . S
O494 Mn468 2.094 1_556 S
O494 C472 1.240 . S
O495 Mn469 2.117 . S
O495 C472 1.264 . S
C496 C489 1.403 . S
C496 C497 1.399 . S
C496 H502 0.929 . S
C497 C477 1.449 . S
C497 C496 1.399 . S
C497 H503 0.930 . S
H498 C478 0.931 . S
H499 C479 0.930 . S
H500 C487 0.931 . S
H501 C488 0.929 . S
H502 C496 0.929 . S
H503 C497 0.930 . S
Mn504 O509 2.095 . S
Mn504 O519 2.162 . S
Mn504 O520 2.297 . S
Mn504 O528 2.385 . S
Mn504 O529 2.209 . S
Mn504 O530 2.094 . S
Mn505 O510 2.121 . S
Mn505 N512 2.257 . S
Mn505 N521 2.282 . S
Mn505 O529 2.215 . S
Mn505 O531 2.117 . S
C506 O528 1.234 . S
C506 O529 1.283 . S
C507 O519 1.281 . S
C507 O520 1.236 . S
C508 O530 1.240 . S
C508 O531 1.264 . S
O509 Mn504 2.095 . S
O509 C518 1.250 . S
O510 Mn505 2.121 . S
O510 C518 1.258 . S
C511 N512 1.326 . S
C511 C515 1.460 . S
C511 H517 0.929 . S
N512 Mn505 2.257 . S
N512 C511 1.326 . S
N512 C516 1.362 . S
C513 C514 1.258 . S
C513 C516 1.431 . S
C513 C533 1.449 . S
C514 C513 1.258 . S
C514 C515 1.477 . S
C514 H534 0.931 . S
C515 C511 1.460 . S
C515 C514 1.477 . S
C515 H535 0.930 . S
C516 N512 1.362 . S
C516 C513 1.431 . S
C516 C526 1.476 . S
H517 C511 0.929 . S
C518 O509 1.250 . S
C518 O510 1.258 . S
O519 Mn504 2.162 . S
O519 C507 1.281 . S
O520 Mn504 2.297 . S
O520 C507 1.236 . S
N521 Mn505 2.282 . S
N521 C522 1.328 . S
N521 C526 1.318 . S
C522 N521 1.328 . S
C522 C523 1.457 . S
C522 H527 0.929 . S
C523 C522 1.457 . S
C523 C524 1.291 . S
C523 H536 0.931 . S
C524 C523 1.291 . S
C524 C525 1.373 . S
C524 H537 0.929 . S
C525 C524 1.373 . S
C525 C526 1.396 . S
C525 C532 1.403 . S
C526 C516 1.476 . S
C526 N521 1.318 . S
C526 C525 1.396 . S
H527 C522 0.929 . S
O528 Mn504 2.385 . S
O528 C506 1.234 . S
O529 Mn504 2.209 . S
O529 Mn505 2.215 . S
O529 C506 1.283 . S
O530 Mn504 2.094 . S
O530 C508 1.240 . S
O531 Mn505 2.117 . S
O531 C508 1.264 . S
C532 C525 1.403 . S
C532 C533 1.399 . S
C532 H538 0.929 . S
C533 C513 1.449 . S
C533 C532 1.399 . S
C533 H539 0.930 . S
H534 C514 0.931 . S
H535 C515 0.930 . S
H536 C523 0.931 . S
H537 C524 0.929 . S
H538 C532 0.929 . S
H539 C533 0.930 . S
Mn540 O545 2.095 . S
Mn540 O555 2.162 . S
Mn540 O556 2.297 . S
Mn540 O564 2.385 . S
Mn540 O565 2.209 . S
Mn540 O566 2.094 . S
Mn541 O546 2.121 . S
Mn541 N548 2.257 . S
Mn541 N557 2.282 . S
Mn541 O565 2.215 . S
Mn541 O567 2.117 . S
C542 O564 1.234 . S
C542 O565 1.283 . S
C543 O555 1.281 . S
C543 O556 1.236 . S
C544 O566 1.240 . S
C544 O567 1.264 . S
O545 Mn540 2.095 . S
O545 C554 1.250 . S
O546 Mn541 2.121 . S
O546 C554 1.258 . S
C547 N548 1.326 . S
C547 C551 1.460 1_565 S
C547 H553 0.929 . S
N548 Mn541 2.257 . S
N548 C547 1.326 . S
N548 C552 1.362 . S
C549 C550 1.258 . S
C549 C552 1.431 1_545 S
C549 C569 1.449 . S
C550 C549 1.258 . S
C550 C551 1.477 . S
C550 H570 0.931 . S
C551 C547 1.460 1_545 S
C551 C550 1.477 . S
C551 H571 0.930 . S
C552 N548 1.362 . S
C552 C549 1.431 1_565 S
C552 C562 1.476 . S
H553 C547 0.929 . S
C554 O545 1.250 . S
C554 O546 1.258 . S
O555 Mn540 2.162 . S
O555 C543 1.281 . S
O556 Mn540 2.297 . S
O556 C543 1.236 . S
N557 Mn541 2.282 . S
N557 C558 1.328 . S
N557 C562 1.318 . S
C558 N557 1.328 . S
C558 C559 1.457 . S
C558 H563 0.929 . S
C559 C558 1.457 . S
C559 C560 1.291 . S
C559 H572 0.931 . S
C560 C559 1.291 . S
C560 C561 1.373 . S
C560 H573 0.929 . S
C561 C560 1.373 . S
C561 C562 1.396 . S
C561 C568 1.403 . S
C562 C552 1.476 . S
C562 N557 1.318 . S
C562 C561 1.396 . S
H563 C558 0.929 . S
O564 Mn540 2.385 . S
O564 C542 1.234 . S
O565 Mn540 2.209 . S
O565 Mn541 2.215 . S
O565 C542 1.283 . S
O566 Mn540 2.094 . S
O566 C544 1.240 . S
O567 Mn541 2.117 . S
O567 C544 1.264 . S
C568 C561 1.403 . S
C568 C569 1.399 1_565 S
C568 H574 0.929 . S
C569 C549 1.449 . S
C569 C568 1.399 1_545 S
C569 H575 0.930 . S
H570 C550 0.931 . S
H571 C551 0.930 . S
H572 C559 0.931 . S
H573 C560 0.929 . S
H574 C568 0.929 . S
H575 C569 0.930 . S
Mn576 O581 2.095 . S
Mn576 O591 2.162 . S
Mn576 O592 2.297 . S
Mn576 O600 2.385 . S
Mn576 O601 2.209 . S
Mn576 O602 2.094 . S
Mn577 O582 2.121 . S
Mn577 N584 2.257 . S
Mn577 N593 2.282 . S
Mn577 O601 2.215 . S
Mn577 O603 2.117 . S
C578 O600 1.234 . S
C578 O601 1.283 . S
C579 O591 1.281 . S
C579 O592 1.236 . S
C580 O602 1.240 . S
C580 O603 1.264 . S
O581 Mn576 2.095 . S
O581 C590 1.250 . S
O582 Mn577 2.121 . S
O582 C590 1.258 . S
C583 N584 1.326 . S
C583 C587 1.460 . S
C583 H589 0.929 . S
N584 Mn577 2.257 . S
N584 C583 1.326 . S
N584 C588 1.362 . S
C585 C586 1.258 . S
C585 C588 1.431 . S
C585 C605 1.449 1_545 S
C586 C585 1.258 . S
C586 C587 1.477 . S
C586 H606 0.931 . S
C587 C583 1.460 . S
C587 C586 1.477 . S
C587 H607 0.930 . S
C588 N584 1.362 . S
C588 C585 1.431 . S
C588 C598 1.476 . S
H589 C583 0.929 . S
C590 O581 1.250 . S
C590 O582 1.258 . S
O591 Mn576 2.162 . S
O591 C579 1.281 . S
O592 Mn576 2.297 . S
O592 C579 1.236 . S
N593 Mn577 2.282 . S
N593 C594 1.328 . S
N593 C598 1.318 . S
C594 N593 1.328 . S
C594 C595 1.457 1_545 S
C594 H599 0.929 . S
C595 C594 1.457 1_565 S
C595 C596 1.291 . S
C595 H608 0.931 . S
C596 C595 1.291 . S
C596 C597 1.373 . S
C596 H609 0.929 . S
C597 C596 1.373 . S
C597 C598 1.396 1_565 S
C597 C604 1.403 . S
C598 C588 1.476 . S
C598 N593 1.318 . S
C598 C597 1.396 1_545 S
H599 C594 0.929 . S
O600 Mn576 2.385 . S
O600 C578 1.234 . S
O601 Mn576 2.209 . S
O601 Mn577 2.215 . S
O601 C578 1.283 . S
O602 Mn576 2.094 . S
O602 C580 1.240 . S
O603 Mn577 2.117 . S
O603 C580 1.264 . S
C604 C597 1.403 . S
C604 C605 1.399 . S
C604 H610 0.929 . S
C605 C585 1.449 1_565 S
C605 C604 1.399 . S
C605 H611 0.930 . S
H606 C586 0.931 . S
H607 C587 0.930 . S
H608 C595 0.931 . S
H609 C596 0.929 . S
H610 C604 0.929 . S
H611 C605 0.930 . S
Mn612 O617 2.095 . S
Mn612 O627 2.162 . S
Mn612 O628 2.297 . S
Mn612 O636 2.385 . S
Mn612 O637 2.209 . S
Mn612 O638 2.094 . S
Mn613 O618 2.121 . S
Mn613 N620 2.257 . S
Mn613 N629 2.282 . S
Mn613 O637 2.215 . S
Mn613 O639 2.117 . S
C614 O636 1.234 . S
C614 O637 1.283 . S
C615 O627 1.281 . S
C615 O628 1.236 . S
C616 O638 1.240 . S
C616 O639 1.264 . S
O617 Mn612 2.095 . S
O617 C626 1.250 . S
O618 Mn613 2.121 . S
O618 C626 1.258 . S
C619 N620 1.326 . S
C619 C623 1.460 . S
C619 H625 0.929 . S
N620 Mn613 2.257 . S
N620 C619 1.326 . S
N620 C624 1.362 . S
C621 C622 1.258 . S
C621 C624 1.431 . S
C621 C641 1.449 . S
C622 C621 1.258 . S
C622 C623 1.477 . S
C622 H642 0.931 . S
C623 C619 1.460 . S
C623 C622 1.477 . S
C623 H643 0.930 . S
C624 N620 1.362 . S
C624 C621 1.431 . S
C624 C634 1.476 . S
H625 C619 0.929 . S
C626 O617 1.250 . S
C626 O618 1.258 . S
O627 Mn612 2.162 . S
O627 C615 1.281 . S
O628 Mn612 2.297 . S
O628 C615 1.236 . S
N629 Mn613 2.282 . S
N629 C630 1.328 . S
N629 C634 1.318 . S
C630 N629 1.328 . S
C630 C631 1.457 . S
C630 H635 0.929 . S
C631 C630 1.457 . S
C631 C632 1.291 . S
C631 H644 0.931 . S
C632 C631 1.291 . S
C632 C633 1.373 . S
C632 H645 0.929 . S
C633 C632 1.373 . S
C633 C634 1.396 . S
C633 C640 1.403 . S
C634 C624 1.476 . S
C634 N629 1.318 . S
C634 C633 1.396 . S
H635 C630 0.929 . S
O636 Mn612 2.385 . S
O636 C614 1.234 . S
O637 Mn612 2.209 . S
O637 Mn613 2.215 . S
O637 C614 1.283 . S
O638 Mn612 2.094 . S
O638 C616 1.240 . S
O639 Mn613 2.117 . S
O639 C616 1.264 . S
C640 C633 1.403 . S
C640 C641 1.399 . S
C640 H646 0.929 . S
C641 C621 1.449 . S
C641 C640 1.399 . S
C641 H647 0.930 . S
H642 C622 0.931 . S
H643 C623 0.930 . S
H644 C631 0.931 . S
H645 C632 0.929 . S
H646 C640 0.929 . S
H647 C641 0.930 . S
Mn648 O653 2.095 . S
Mn648 O663 2.162 . S
Mn648 O664 2.297 . S
Mn648 O672 2.385 . S
Mn648 O673 2.209 . S
Mn648 O674 2.094 . S
Mn649 O654 2.121 . S
Mn649 N656 2.257 . S
Mn649 N665 2.282 . S
Mn649 O673 2.215 . S
Mn649 O675 2.117 . S
C650 O672 1.234 . S
C650 O673 1.283 . S
C651 O663 1.281 . S
C651 O664 1.236 . S
C652 O674 1.240 . S
C652 O675 1.264 . S
O653 Mn648 2.095 . S
O653 C662 1.250 . S
O654 Mn649 2.121 . S
O654 C662 1.258 . S
C655 N656 1.326 . S
C655 C659 1.460 . S
C655 H661 0.929 . S
N656 Mn649 2.257 . S
N656 C655 1.326 . S
N656 C660 1.362 . S
C657 C658 1.258 . S
C657 C660 1.431 . S
C657 C677 1.449 . S
C658 C657 1.258 . S
C658 C659 1.477 . S
C658 H678 0.931 . S
C659 C655 1.460 . S
C659 C658 1.477 . S
C659 H679 0.930 . S
C660 N656 1.362 . S
C660 C657 1.431 . S
C660 C670 1.476 . S
H661 C655 0.929 . S
C662 O653 1.250 . S
C662 O654 1.258 . S
O663 Mn648 2.162 . S
O663 C651 1.281 . S
O664 Mn648 2.297 . S
O664 C651 1.236 . S
N665 Mn649 2.282 . S
N665 C666 1.328 . S
N665 C670 1.318 . S
C666 N665 1.328 . S
C666 C667 1.457 . S
C666 H671 0.929 . S
C667 C666 1.457 . S
C667 C668 1.291 . S
C667 H680 0.931 . S
C668 C667 1.291 . S
C668 C669 1.373 . S
C668 H681 0.929 . S
C669 C668 1.373 . S
C669 C670 1.396 . S
C669 C676 1.403 . S
C670 C660 1.476 . S
C670 N665 1.318 . S
C670 C669 1.396 . S
H671 C666 0.929 . S
O672 Mn648 2.385 . S
O672 C650 1.234 . S
O673 Mn648 2.209 . S
O673 Mn649 2.215 . S
O673 C650 1.283 . S
O674 Mn648 2.094 . S
O674 C652 1.240 . S
O675 Mn649 2.117 . S
O675 C652 1.264 . S
C676 C669 1.403 . S
C676 C677 1.399 . S
C676 H682 0.929 . S
C677 C657 1.449 . S
C677 C676 1.399 . S
C677 H683 0.930 . S
H678 C658 0.931 . S
H679 C659 0.930 . S
H680 C667 0.931 . S
H681 C668 0.929 . S
H682 C676 0.929 . S
H683 C677 0.930 . S
Mn684 O689 2.095 1_545 S
Mn684 O699 2.162 . S
Mn684 O700 2.297 . S
Mn684 O708 2.385 . S
Mn684 O709 2.209 . S
Mn684 O710 2.094 . S
Mn685 O690 2.121 1_545 S
Mn685 N692 2.257 . S
Mn685 N701 2.282 . S
Mn685 O709 2.215 . S
Mn685 O711 2.117 . S
C686 O708 1.234 . S
C686 O709 1.283 . S
C687 O699 1.281 . S
C687 O700 1.236 . S
C688 O710 1.240 . S
C688 O711 1.264 . S
O689 Mn684 2.095 1_565 S
O689 C698 1.250 . S
O690 Mn685 2.121 1_565 S
O690 C698 1.258 . S
C691 N692 1.326 . S
C691 C695 1.460 . S
C691 H697 0.929 . S
N692 Mn685 2.257 . S
N692 C691 1.326 . S
N692 C696 1.362 . S
C693 C694 1.258 . S
C693 C696 1.431 . S
C693 C713 1.449 . S
C694 C693 1.258 . S
C694 C695 1.477 . S
C694 H714 0.931 . S
C695 C691 1.460 . S
C695 C694 1.477 . S
C695 H715 0.930 . S
C696 N692 1.362 . S
C696 C693 1.431 . S
C696 C706 1.476 . S
H697 C691 0.929 . S
C698 O689 1.250 . S
C698 O690 1.258 . S
O699 Mn684 2.162 . S
O699 C687 1.281 . S
O700 Mn684 2.297 . S
O700 C687 1.236 . S
N701 Mn685 2.282 . S
N701 C702 1.328 . S
N701 C706 1.318 . S
C702 N701 1.328 . S
C702 C703 1.457 . S
C702 H707 0.929 . S
C703 C702 1.457 . S
C703 C704 1.291 . S
C703 H716 0.931 . S
C704 C703 1.291 . S
C704 C705 1.373 . S
C704 H717 0.929 . S
C705 C704 1.373 . S
C705 C706 1.396 . S
C705 C712 1.403 . S
C706 C696 1.476 . S
C706 N701 1.318 . S
C706 C705 1.396 . S
H707 C702 0.929 . S
O708 Mn684 2.385 . S
O708 C686 1.234 . S
O709 Mn684 2.209 . S
O709 Mn685 2.215 . S
O709 C686 1.283 . S
O710 Mn684 2.094 . S
O710 C688 1.240 . S
O711 Mn685 2.117 . S
O711 C688 1.264 . S
C712 C705 1.403 . S
C712 C713 1.399 . S
C712 H718 0.929 . S
C713 C693 1.449 . S
C713 C712 1.399 . S
C713 H719 0.930 . S
H714 C694 0.931 . S
H715 C695 0.930 . S
H716 C703 0.931 . S
H717 C704 0.929 . S
H718 C712 0.929 . S
H719 C713 0.930 . S
Mn720 O725 2.091 1_554 S
Mn720 O735 2.162 . S
Mn720 O736 2.297 . S
Mn720 O744 2.385 . S
Mn720 O745 2.209 1_554 S
Mn720 O746 2.094 1_554 S
Mn721 O726 2.121 . S
Mn721 N728 2.257 . S
Mn721 N737 2.282 . S
Mn721 O745 2.215 . S
Mn721 O747 2.117 . S
C722 O744 1.234 1_556 S
C722 O745 1.283 . S
C723 O735 1.281 . S
C723 O736 1.236 . S
C724 O746 1.240 . S
C724 O747 1.264 . S
O725 Mn720 2.091 1_556 S
O725 C734 1.252 . S
O726 Mn721 2.121 . S
O726 C734 1.258 . S
C727 N728 1.326 . S
C727 C731 1.460 . S
C727 H733 0.929 . S
N728 Mn721 2.257 . S
N728 C727 1.326 . S
N728 C732 1.362 . S
C729 C730 1.258 . S
C729 C732 1.431 . S
C729 C749 1.449 . S
C730 C729 1.258 . S
C730 C731 1.477 . S
C730 H750 0.931 . S
C731 C727 1.460 . S
C731 C730 1.477 . S
C731 H751 0.930 . S
C732 N728 1.362 . S
C732 C729 1.431 . S
C732 C742 1.476 . S
H733 C727 0.929 . S
C734 O725 1.252 . S
C734 O726 1.258 . S
O735 Mn720 2.162 . S
O735 C723 1.281 . S
O736 Mn720 2.297 . S
O736 C723 1.236 . S
N737 Mn721 2.282 . S
N737 C738 1.328 . S
N737 C742 1.318 . S
C738 N737 1.328 . S
C738 C739 1.457 . S
C738 H743 0.929 . S
C739 C738 1.457 . S
C739 C740 1.291 . S
C739 H752 0.931 . S
C740 C739 1.291 . S
C740 C741 1.373 . S
C740 H753 0.929 . S
C741 C740 1.373 . S
C741 C742 1.396 . S
C741 C748 1.403 . S
C742 C732 1.476 . S
C742 N737 1.318 . S
C742 C741 1.396 . S
H743 C738 0.929 . S
O744 Mn720 2.385 . S
O744 C722 1.234 1_554 S
O745 Mn720 2.209 1_556 S
O745 Mn721 2.215 . S
O745 C722 1.283 . S
O746 Mn720 2.094 1_556 S
O746 C724 1.240 . S
O747 Mn721 2.117 . S
O747 C724 1.264 . S
C748 C741 1.403 . S
C748 C749 1.399 . S
C748 H754 0.929 . S
C749 C729 1.449 . S
C749 C748 1.399 . S
C749 H755 0.930 . S
H750 C730 0.931 . S
H751 C731 0.930 . S
H752 C739 0.931 . S
H753 C740 0.929 . S
H754 C748 0.929 . S
H755 C749 0.930 . S
Mn756 O761 2.095 . S
Mn756 O771 2.162 . S
Mn756 O772 2.297 . S
Mn756 O780 2.385 . S
Mn756 O781 2.209 . S
Mn756 O782 2.094 . S
Mn757 O762 2.121 . S
Mn757 N764 2.257 . S
Mn757 N773 2.282 . S
Mn757 O781 2.215 . S
Mn757 O783 2.117 . S
C758 O780 1.234 . S
C758 O781 1.283 . S
C759 O771 1.281 . S
C759 O772 1.236 . S
C760 O782 1.240 . S
C760 O783 1.264 . S
O761 Mn756 2.095 . S
O761 C770 1.250 . S
O762 Mn757 2.121 . S
O762 C770 1.258 . S
C763 N764 1.326 . S
C763 C767 1.460 . S
C763 H769 0.929 . S
N764 Mn757 2.257 . S
N764 C763 1.326 . S
N764 C768 1.362 . S
C765 C766 1.258 . S
C765 C768 1.431 . S
C765 C785 1.449 . S
C766 C765 1.258 . S
C766 C767 1.477 . S
C766 H786 0.931 . S
C767 C763 1.460 . S
C767 C766 1.477 . S
C767 H787 0.930 . S
C768 N764 1.362 . S
C768 C765 1.431 . S
C768 C778 1.476 . S
H769 C763 0.929 . S
C770 O761 1.250 . S
C770 O762 1.258 . S
O771 Mn756 2.162 . S
O771 C759 1.281 . S
O772 Mn756 2.297 . S
O772 C759 1.236 . S
N773 Mn757 2.282 . S
N773 C774 1.328 . S
N773 C778 1.318 . S
C774 N773 1.328 . S
C774 C775 1.457 . S
C774 H779 0.929 . S
C775 C774 1.457 . S
C775 C776 1.291 . S
C775 H788 0.931 . S
C776 C775 1.291 . S
C776 C777 1.373 . S
C776 H789 0.929 . S
C777 C776 1.373 . S
C777 C778 1.396 . S
C777 C784 1.403 . S
C778 C768 1.476 . S
C778 N773 1.318 . S
C778 C777 1.396 . S
H779 C774 0.929 . S
O780 Mn756 2.385 . S
O780 C758 1.234 . S
O781 Mn756 2.209 . S
O781 Mn757 2.215 . S
O781 C758 1.283 . S
O782 Mn756 2.094 . S
O782 C760 1.240 . S
O783 Mn757 2.117 . S
O783 C760 1.264 . S
C784 C777 1.403 . S
C784 C785 1.399 . S
C784 H790 0.929 . S
C785 C765 1.449 . S
C785 C784 1.399 . S
C785 H791 0.930 . S
H786 C766 0.931 . S
H787 C767 0.930 . S
H788 C775 0.931 . S
H789 C776 0.929 . S
H790 C784 0.929 . S
H791 C785 0.930 . S
Mn792 O797 2.095 . S
Mn792 O807 2.162 . S
Mn792 O808 2.297 . S
Mn792 O816 2.385 . S
Mn792 O817 2.209 . S
Mn792 O818 2.094 . S
Mn793 O798 2.121 . S
Mn793 N800 2.257 . S
Mn793 N809 2.282 . S
Mn793 O817 2.215 . S
Mn793 O819 2.117 . S
C794 O816 1.234 . S
C794 O817 1.283 . S
C795 O807 1.281 . S
C795 O808 1.236 . S
C796 O818 1.240 . S
C796 O819 1.264 . S
O797 Mn792 2.095 . S
O797 C806 1.250 . S
O798 Mn793 2.121 . S
O798 C806 1.258 . S
C799 N800 1.326 . S
C799 C803 1.460 . S
C799 H805 0.929 . S
N800 Mn793 2.257 . S
N800 C799 1.326 . S
N800 C804 1.362 . S
C801 C802 1.258 . S
C801 C804 1.431 . S
C801 C821 1.449 . S
C802 C801 1.258 . S
C802 C803 1.477 . S
C802 H822 0.931 . S
C803 C799 1.460 . S
C803 C802 1.477 . S
C803 H823 0.930 . S
C804 N800 1.362 . S
C804 C801 1.431 . S
C804 C814 1.476 . S
H805 C799 0.929 . S
C806 O797 1.250 . S
C806 O798 1.258 . S
O807 Mn792 2.162 . S
O807 C795 1.281 . S
O808 Mn792 2.297 . S
O808 C795 1.236 . S
N809 Mn793 2.282 . S
N809 C810 1.328 . S
N809 C814 1.318 . S
C810 N809 1.328 . S
C810 C811 1.457 . S
C810 H815 0.929 . S
C811 C810 1.457 . S
C811 C812 1.291 . S
C811 H824 0.931 . S
C812 C811 1.291 . S
C812 C813 1.373 . S
C812 H825 0.929 . S
C813 C812 1.373 . S
C813 C814 1.396 . S
C813 C820 1.403 . S
C814 C804 1.476 . S
C814 N809 1.318 . S
C814 C813 1.396 . S
H815 C810 0.929 . S
O816 Mn792 2.385 . S
O816 C794 1.234 . S
O817 Mn792 2.209 . S
O817 Mn793 2.215 . S
O817 C794 1.283 . S
O818 Mn792 2.094 . S
O818 C796 1.240 . S
O819 Mn793 2.117 . S
O819 C796 1.264 . S
C820 C813 1.403 . S
C820 C821 1.399 . S
C820 H826 0.929 . S
C821 C801 1.449 . S
C821 C820 1.399 . S
C821 H827 0.930 . S
H822 C802 0.931 . S
H823 C803 0.930 . S
H824 C811 0.931 . S
H825 C812 0.929 . S
H826 C820 0.929 . S
H827 C821 0.930 . S
Mn828 O833 2.095 . S
Mn828 O843 2.162 . S
Mn828 O844 2.297 . S
Mn828 O852 2.385 . S
Mn828 O853 2.209 . S
Mn828 O854 2.094 . S
Mn829 O834 2.121 . S
Mn829 N836 2.257 . S
Mn829 N845 2.282 . S
Mn829 O853 2.215 . S
Mn829 O855 2.117 . S
C830 O852 1.234 . S
C830 O853 1.283 . S
C831 O843 1.281 . S
C831 O844 1.236 . S
C832 O854 1.240 . S
C832 O855 1.264 . S
O833 Mn828 2.095 . S
O833 C842 1.250 . S
O834 Mn829 2.121 . S
O834 C842 1.258 . S
C835 N836 1.326 . S
C835 C839 1.460 . S
C835 H841 0.929 . S
N836 Mn829 2.257 . S
N836 C835 1.326 . S
N836 C840 1.362 . S
C837 C838 1.258 . S
C837 C840 1.431 . S
C837 C857 1.449 . S
C838 C837 1.258 . S
C838 C839 1.477 . S
C838 H858 0.931 . S
C839 C835 1.460 . S
C839 C838 1.477 . S
C839 H859 0.930 . S
C840 N836 1.362 . S
C840 C837 1.431 . S
C840 C850 1.476 . S
H841 C835 0.929 . S
C842 O833 1.250 . S
C842 O834 1.258 . S
O843 Mn828 2.162 . S
O843 C831 1.281 . S
O844 Mn828 2.297 . S
O844 C831 1.236 . S
N845 Mn829 2.282 . S
N845 C846 1.328 . S
N845 C850 1.318 . S
C846 N845 1.328 . S
C846 C847 1.457 . S
C846 H851 0.929 . S
C847 C846 1.457 . S
C847 C848 1.291 . S
C847 H860 0.931 . S
C848 C847 1.291 . S
C848 C849 1.373 . S
C848 H861 0.929 . S
C849 C848 1.373 . S
C849 C850 1.396 . S
C849 C856 1.403 . S
C850 C840 1.476 . S
C850 N845 1.318 . S
C850 C849 1.396 . S
H851 C846 0.929 . S
O852 Mn828 2.385 . S
O852 C830 1.234 . S
O853 Mn828 2.209 . S
O853 Mn829 2.215 . S
O853 C830 1.283 . S
O854 Mn828 2.094 . S
O854 C832 1.240 . S
O855 Mn829 2.117 . S
O855 C832 1.264 . S
C856 C849 1.403 . S
C856 C857 1.399 . S
C856 H862 0.929 . S
C857 C837 1.449 . S
C857 C856 1.399 . S
C857 H863 0.930 . S
H858 C838 0.931 . S
H859 C839 0.930 . S
H860 C847 0.931 . S
H861 C848 0.929 . S
H862 C856 0.929 . S
H863 C857 0.930 . S
Tb864 O867 2.453 . S
Tb864 O868 2.596 . S
Tb864 O869 2.374 1_554 S
Tb864 O877 2.343 1_455 S
Tb864 O879 2.353 . S
Tb864 O881 2.427 . S
Tb864 O882 2.513 1_554 S
C865 O869 1.251 . S
C865 O871 1.263 1_445 S
Tb866 O868 2.343 1_665 S
Tb866 O871 2.353 1_554 S
Tb866 O874 2.427 . S
Tb866 O875 2.513 . S
Tb866 O876 2.453 1_564 S
Tb866 O877 2.596 1_565 S
Tb866 O878 2.374 1_565 S
O867 Tb864 2.453 . S
O867 C883 1.245 . S
O868 Tb864 2.596 . S
O868 Tb866 2.343 1_445 S
O868 C883 1.259 . S
O869 Tb864 2.374 1_556 S
O869 C865 1.251 . S
C870 O874 1.273 1_455 S
C870 O875 1.237 1_455 S
O871 C865 1.263 1_665 S
O871 Tb866 2.353 1_556 S
C872 O876 1.245 . S
C872 O877 1.259 1_556 S
C873 O878 1.250 . S
C873 O879 1.263 1_655 S
O874 Tb866 2.427 . S
O874 C870 1.273 1_655 S
O875 Tb866 2.513 . S
O875 C870 1.237 1_655 S
O876 Tb866 2.453 1_546 S
O876 C872 1.245 . S
O877 Tb864 2.343 1_655 S
O877 Tb866 2.596 1_545 S
O877 C872 1.259 1_554 S
O878 Tb866 2.374 1_545 S
O878 C873 1.250 . S
O879 Tb864 2.353 . S
O879 C873 1.263 1_455 S
C880 O881 1.275 1_556 S
C880 O882 1.246 . S
O881 Tb864 2.427 . S
O881 C880 1.275 1_554 S
O882 Tb864 2.513 1_556 S
O882 C880 1.246 . S
C883 O867 1.245 . S
C883 O868 1.259 . S
Tb884 O887 2.453 . S
Tb884 O888 2.596 . S
Tb884 O889 2.374 . S
Tb884 O897 2.343 . S
Tb884 O899 2.353 . S
Tb884 O901 2.427 . S
Tb884 O902 2.513 . S
C885 O889 1.251 . S
C885 O891 1.263 . S
Tb886 O888 2.343 . S
Tb886 O891 2.353 . S
Tb886 O894 2.427 . S
Tb886 O895 2.513 . S
Tb886 O896 2.453 . S
Tb886 O897 2.596 . S
Tb886 O898 2.374 . S
O887 Tb884 2.453 . S
O887 C903 1.245 . S
O888 Tb884 2.596 . S
O888 Tb886 2.343 . S
O888 C903 1.259 . S
O889 Tb884 2.374 . S
O889 C885 1.251 . S
C890 O894 1.275 . S
C890 O895 1.246 . S
O891 C885 1.263 . S
O891 Tb886 2.353 . S
C892 O896 1.245 . S
C892 O897 1.259 . S
C893 O898 1.250 . S
C893 O899 1.263 . S
O894 Tb886 2.427 . S
O894 C890 1.275 . S
O895 Tb886 2.513 . S
O895 C890 1.246 . S
O896 Tb886 2.453 . S
O896 C892 1.245 . S
O897 Tb884 2.343 . S
O897 Tb886 2.596 . S
O897 C892 1.259 . S
O898 Tb886 2.374 . S
O898 C893 1.250 . S
O899 Tb884 2.353 . S
O899 C893 1.263 . S
C900 O901 1.275 . S
C900 O902 1.246 . S
O901 Tb884 2.427 . S
O901 C900 1.275 . S
O902 Tb884 2.513 . S
O902 C900 1.246 . S
C903 O887 1.245 . S
C903 O888 1.259 . S
Tb904 O907 2.453 . S
Tb904 O908 2.596 . S
Tb904 O909 2.374 . S
Tb904 O917 2.343 . S
Tb904 O919 2.353 . S
Tb904 O921 2.427 . S
Tb904 O922 2.513 . S
C905 O909 1.251 . S
C905 O911 1.263 . S
Tb906 O908 2.343 . S
Tb906 O911 2.353 . S
Tb906 O914 2.427 . S
Tb906 O915 2.513 . S
Tb906 O916 2.453 1_545 S
Tb906 O917 2.596 . S
Tb906 O918 2.374 . S
O907 Tb904 2.453 . S
O907 C923 1.245 . S
O908 Tb904 2.596 . S
O908 Tb906 2.343 . S
O908 C923 1.259 . S
O909 Tb904 2.374 . S
O909 C905 1.251 . S
C910 O914 1.275 . S
C910 O915 1.246 . S
O911 C905 1.263 . S
O911 Tb906 2.353 . S
C912 O916 1.245 . S
C912 O917 1.259 1_565 S
C913 O918 1.250 . S
C913 O919 1.263 . S
O914 Tb906 2.427 . S
O914 C910 1.275 . S
O915 Tb906 2.513 . S
O915 C910 1.246 . S
O916 Tb906 2.453 1_565 S
O916 C912 1.245 . S
O917 Tb904 2.343 . S
O917 Tb906 2.596 . S
O917 C912 1.259 1_545 S
O918 Tb906 2.374 . S
O918 C913 1.250 . S
O919 Tb904 2.353 . S
O919 C913 1.263 . S
C920 O921 1.275 . S
C920 O922 1.246 . S
O921 Tb904 2.427 . S
O921 C920 1.275 . S
O922 Tb904 2.513 . S
O922 C920 1.246 . S
C923 O907 1.245 . S
C923 O908 1.259 . S
Tb924 O927 2.453 . S
Tb924 O928 2.596 . S
Tb924 O929 2.374 . S
Tb924 O937 2.343 . S
Tb924 O939 2.353 . S
Tb924 O941 2.427 . S
Tb924 O942 2.513 . S
C925 O929 1.251 . S
C925 O931 1.263 . S
Tb926 O928 2.343 . S
Tb926 O931 2.353 . S
Tb926 O934 2.427 . S
Tb926 O935 2.513 . S
Tb926 O936 2.453 . S
Tb926 O937 2.596 . S
Tb926 O938 2.374 . S
O927 Tb924 2.453 . S
O927 C943 1.245 . S
O928 Tb924 2.596 . S
O928 Tb926 2.343 . S
O928 C943 1.259 . S
O929 Tb924 2.374 . S
O929 C925 1.251 . S
C930 O934 1.275 . S
C930 O935 1.246 . S
O931 C925 1.263 . S
O931 Tb926 2.353 . S
C932 O936 1.245 . S
C932 O937 1.259 . S
C933 O938 1.250 . S
C933 O939 1.263 . S
O934 Tb926 2.427 . S
O934 C930 1.275 . S
O935 Tb926 2.513 . S
O935 C930 1.246 . S
O936 Tb926 2.453 . S
O936 C932 1.245 . S
O937 Tb924 2.343 . S
O937 Tb926 2.596 . S
O937 C932 1.259 . S
O938 Tb926 2.374 . S
O938 C933 1.250 . S
O939 Tb924 2.353 . S
O939 C933 1.263 . S
C940 O941 1.275 . S
C940 O942 1.246 . S
O941 Tb924 2.427 . S
O941 C940 1.275 . S
O942 Tb924 2.513 . S
O942 C940 1.246 . S
C943 O927 1.245 . S
C943 O928 1.259 . S
Tb944 O947 2.453 1_545 S
Tb944 O948 2.596 . S
Tb944 O949 2.374 1_455 S
Tb944 O957 2.343 . S
Tb944 O959 2.353 . S
Tb944 O961 2.427 . S
Tb944 O962 2.513 1_455 S
C945 O949 1.251 . S
C945 O951 1.263 . S
Tb946 O948 2.343 . S
Tb946 O951 2.353 1_455 S
Tb946 O954 2.427 . S
Tb946 O955 2.513 . S
Tb946 O956 2.453 . S
Tb946 O957 2.596 . S
Tb946 O958 2.374 . S
O947 Tb944 2.453 1_565 S
O947 C963 1.245 . S
O948 Tb944 2.596 . S
O948 Tb946 2.343 . S
O948 C963 1.259 1_545 S
O949 Tb944 2.374 1_655 S
O949 C945 1.251 . S
C950 O954 1.275 . S
C950 O955 1.246 . S
O951 C945 1.263 . S
O951 Tb946 2.353 1_655 S
C952 O956 1.244 . S
C952 O957 1.259 . S
C953 O958 1.250 . S
C953 O959 1.263 . S
O954 Tb946 2.427 . S
O954 C950 1.275 . S
O955 Tb946 2.513 . S
O955 C950 1.246 . S
O956 Tb946 2.453 . S
O956 C952 1.244 . S
O957 Tb944 2.343 . S
O957 Tb946 2.596 . S
O957 C952 1.259 . S
O958 Tb946 2.374 . S
O958 C953 1.250 . S
O959 Tb944 2.353 . S
O959 C953 1.263 . S
C960 O961 1.275 1_655 S
C960 O962 1.246 . S
O961 Tb944 2.427 . S
O961 C960 1.275 1_455 S
O962 Tb944 2.513 1_655 S
O962 C960 1.246 . S
C963 O947 1.245 . S
C963 O948 1.259 1_565 S
Tb964 O967 2.453 . S
Tb964 O968 2.596 . S
Tb964 O969 2.374 . S
Tb964 O977 2.343 . S
Tb964 O979 2.353 . S
Tb964 O981 2.427 . S
Tb964 O982 2.513 . S
C965 O969 1.251 . S
C965 O971 1.263 . S
Tb966 O968 2.343 . S
Tb966 O971 2.353 . S
Tb966 O974 2.427 . S
Tb966 O975 2.513 . S
Tb966 O976 2.453 . S
Tb966 O977 2.596 . S
Tb966 O978 2.374 . S
O967 Tb964 2.453 . S
O967 C983 1.245 . S
O968 Tb964 2.596 . S
O968 Tb966 2.343 . S
O968 C983 1.259 . S
O969 Tb964 2.374 . S
O969 C965 1.251 . S
C970 O974 1.275 . S
C970 O975 1.246 . S
O971 C965 1.263 . S
O971 Tb966 2.353 . S
C972 O976 1.245 . S
C972 O977 1.259 . S
C973 O978 1.250 . S
C973 O979 1.263 . S
O974 Tb966 2.427 . S
O974 C970 1.275 . S
O975 Tb966 2.513 . S
O975 C970 1.246 . S
O976 Tb966 2.453 . S
O976 C972 1.245 . S
O977 Tb964 2.343 . S
O977 Tb966 2.596 . S
O977 C972 1.259 . S
O978 Tb966 2.374 . S
O978 C973 1.250 . S
O979 Tb964 2.353 . S
O979 C973 1.263 . S
C980 O981 1.275 . S
C980 O982 1.246 . S
O981 Tb964 2.427 . S
O981 C980 1.275 . S
O982 Tb964 2.513 . S
O982 C980 1.246 . S
C983 O967 1.245 . S
C983 O968 1.259 . S
Tb984 O987 2.453 . S
Tb984 O988 2.596 . S
Tb984 O989 2.374 1_545 S
Tb984 O997 2.343 1_556 S
Tb984 O999 2.353 1_556 S
Tb984 O1001 2.427 1_556 S
Tb984 O1002 2.513 1_546 S
C985 O989 1.259 . S
C985 O991 1.238 1_556 S
Tb986 O988 2.343 1_554 S
Tb986 O991 2.353 1_545 S
Tb986 O994 2.427 . S
Tb986 O995 2.513 . S
Tb986 O996 2.453 . S
Tb986 O997 2.596 . S
Tb986 O998 2.374 . S
O987 Tb984 2.453 . S
O987 C1003 1.245 . S
O988 Tb984 2.596 . S
O988 Tb986 2.343 1_556 S
O988 C1003 1.259 . S
O989 Tb984 2.374 1_565 S
O989 C985 1.259 . S
C990 O994 1.275 . S
C990 O995 1.246 . S
O991 C985 1.238 1_554 S
O991 Tb986 2.353 1_565 S
C992 O996 1.245 . S
C992 O997 1.259 . S
C993 O998 1.250 . S
C993 O999 1.263 . S
O994 Tb986 2.427 . S
O994 C990 1.275 . S
O995 Tb986 2.513 . S
O995 C990 1.246 . S
O996 Tb986 2.453 . S
O996 C992 1.245 . S
O997 Tb984 2.343 1_554 S
O997 Tb986 2.596 . S
O997 C992 1.259 . S
O998 Tb986 2.374 . S
O998 C993 1.250 . S
O999 Tb984 2.353 1_554 S
O999 C993 1.263 . S
C1000 O1001 1.275 . S
C1000 O1002 1.246 1_545 S
O1001 Tb984 2.427 1_554 S
O1001 C1000 1.275 . S
O1002 Tb984 2.513 1_564 S
O1002 C1000 1.246 1_565 S
C1003 O987 1.245 . S
C1003 O988 1.259 . S
Tb1004 O1007 2.453 . S
Tb1004 O1008 2.596 . S
Tb1004 O1009 2.374 . S
Tb1004 O1017 2.343 . S
Tb1004 O1019 2.353 . S
Tb1004 O1021 2.427 . S
Tb1004 O1022 2.513 . S
C1005 O1009 1.251 . S
C1005 O1011 1.263 . S
Tb1006 O1008 2.343 . S
Tb1006 O1011 2.353 . S
Tb1006 O1014 2.427 . S
Tb1006 O1015 2.513 . S
Tb1006 O1016 2.453 . S
Tb1006 O1017 2.596 . S
Tb1006 O1018 2.374 . S
O1007 Tb1004 2.453 . S
O1007 C1023 1.245 . S
O1008 Tb1004 2.596 . S
O1008 Tb1006 2.343 . S
O1008 C1023 1.259 . S
O1009 Tb1004 2.374 . S
O1009 C1005 1.251 . S
C1010 O1014 1.275 . S
C1010 O1015 1.246 . S
O1011 C1005 1.263 . S
O1011 Tb1006 2.353 . S
C1012 O1016 1.245 . S
C1012 O1017 1.259 . S
C1013 O1018 1.250 . S
C1013 O1019 1.263 . S
O1014 Tb1006 2.427 . S
O1014 C1010 1.275 . S
O1015 Tb1006 2.513 . S
O1015 C1010 1.246 . S
O1016 Tb1006 2.453 . S
O1016 C1012 1.245 . S
O1017 Tb1004 2.343 . S
O1017 Tb1006 2.596 . S
O1017 C1012 1.259 . S
O1018 Tb1006 2.374 . S
O1018 C1013 1.250 . S
O1019 Tb1004 2.353 . S
O1019 C1013 1.263 . S
C1020 O1021 1.275 . S
C1020 O1022 1.246 . S
O1021 Tb1004 2.427 . S
O1021 C1020 1.275 . S
O1022 Tb1004 2.513 . S
O1022 C1020 1.246 . S
C1023 O1007 1.245 . S
C1023 O1008 1.259 . S
Tb1024 O1027 2.453 1_556 S
Tb1024 O1028 2.596 1_556 S
Tb1024 O1029 2.386 . S
Tb1024 O1037 2.343 . S
Tb1024 O1039 2.353 . S
Tb1024 O1041 2.427 . S
Tb1024 O1042 2.513 . S
C1025 O1029 1.229 1_554 S
C1025 O1031 1.263 . S
Tb1026 O1028 2.343 . S
Tb1026 O1031 2.353 . S
Tb1026 O1034 2.427 . S
Tb1026 O1035 2.513 . S
Tb1026 O1036 2.453 . S
Tb1026 O1037 2.596 1_554 S
Tb1026 O1038 2.374 . S
O1027 Tb1024 2.453 1_554 S
O1027 C1043 1.245 . S
O1028 Tb1024 2.596 1_554 S
O1028 Tb1026 2.343 . S
O1028 C1043 1.259 . S
O1029 Tb1024 2.386 . S
O1029 C1025 1.229 1_556 S
C1030 O1034 1.275 . S
C1030 O1035 1.246 . S
O1031 C1025 1.263 . S
O1031 Tb1026 2.353 . S
C1032 O1036 1.245 . S
C1032 O1037 1.259 1_554 S
C1033 O1038 1.250 . S
C1033 O1039 1.263 1_554 S
O1034 Tb1026 2.427 . S
O1034 C1030 1.275 . S
O1035 Tb1026 2.513 . S
O1035 C1030 1.246 . S
O1036 Tb1026 2.453 . S
O1036 C1032 1.245 . S
O1037 Tb1024 2.343 . S
O1037 Tb1026 2.596 1_556 S
O1037 C1032 1.259 1_556 S
O1038 Tb1026 2.374 . S
O1038 C1033 1.250 . S
O1039 Tb1024 2.353 . S
O1039 C1033 1.263 1_556 S
C1040 O1041 1.275 . S
C1040 O1042 1.246 . S
O1041 Tb1024 2.427 . S
O1041 C1040 1.275 . S
O1042 Tb1024 2.513 . S
O1042 C1040 1.246 . S
C1043 O1027 1.245 . S
C1043 O1028 1.259 . S
Tb1044 O1047 2.453 . S
Tb1044 O1048 2.596 . S
Tb1044 O1049 2.374 . S
Tb1044 O1057 2.343 . S
Tb1044 O1059 2.353 . S
Tb1044 O1061 2.427 . S
Tb1044 O1062 2.513 . S
C1045 O1049 1.251 . S
C1045 O1051 1.263 . S
Tb1046 O1048 2.343 . S
Tb1046 O1051 2.353 . S
Tb1046 O1054 2.427 . S
Tb1046 O1055 2.513 . S
Tb1046 O1056 2.453 . S
Tb1046 O1057 2.596 . S
Tb1046 O1058 2.374 . S
O1047 Tb1044 2.453 . S
O1047 C1063 1.245 . S
O1048 Tb1044 2.596 . S
O1048 Tb1046 2.343 . S
O1048 C1063 1.259 . S
O1049 Tb1044 2.374 . S
O1049 C1045 1.251 . S
C1050 O1054 1.275 . S
C1050 O1055 1.246 . S
O1051 C1045 1.263 . S
O1051 Tb1046 2.353 . S
C1052 O1056 1.245 . S
C1052 O1057 1.259 . S
C1053 O1058 1.250 . S
C1053 O1059 1.263 . S
O1054 Tb1046 2.427 . S
O1054 C1050 1.275 . S
O1055 Tb1046 2.513 . S
O1055 C1050 1.246 . S
O1056 Tb1046 2.453 . S
O1056 C1052 1.245 . S
O1057 Tb1044 2.343 . S
O1057 Tb1046 2.596 . S
O1057 C1052 1.259 . S
O1058 Tb1046 2.374 . S
O1058 C1053 1.250 . S
O1059 Tb1044 2.353 . S
O1059 C1053 1.263 . S
C1060 O1061 1.275 . S
C1060 O1062 1.246 . S
O1061 Tb1044 2.427 . S
O1061 C1060 1.275 . S
O1062 Tb1044 2.513 . S
O1062 C1060 1.246 . S
C1063 O1047 1.245 . S
C1063 O1048 1.259 . S
Tb1064 O1067 2.453 1_655 S
Tb1064 O1068 2.596 1_655 S
Tb1064 O1069 2.374 . S
Tb1064 O1077 2.343 . S
Tb1064 O1079 2.353 . S
Tb1064 O1081 2.427 . S
Tb1064 O1082 2.513 . S
C1065 O1069 1.251 1_455 S
C1065 O1071 1.263 . S
Tb1066 O1068 2.343 . S
Tb1066 O1071 2.353 . S
Tb1066 O1074 2.427 . S
Tb1066 O1075 2.513 . S
Tb1066 O1076 2.453 . S
Tb1066 O1077 2.596 1_455 S
Tb1066 O1078 2.374 . S
O1067 Tb1064 2.453 1_455 S
O1067 C1083 1.245 . S
O1068 Tb1064 2.596 1_455 S
O1068 Tb1066 2.343 . S
O1068 C1083 1.259 . S
O1069 Tb1064 2.374 . S
O1069 C1065 1.251 1_655 S
C1070 O1074 1.275 . S
C1070 O1075 1.246 . S
O1071 C1065 1.263 . S
O1071 Tb1066 2.353 . S
C1072 O1076 1.245 1_655 S
C1072 O1077 1.259 . S
C1073 O1078 1.250 . S
C1073 O1079 1.263 1_455 S
O1074 Tb1066 2.427 . S
O1074 C1070 1.275 . S
O1075 Tb1066 2.513 . S
O1075 C1070 1.246 . S
O1076 Tb1066 2.453 . S
O1076 C1072 1.245 1_455 S
O1077 Tb1064 2.343 . S
O1077 Tb1066 2.596 1_655 S
O1077 C1072 1.259 . S
O1078 Tb1066 2.374 . S
O1078 C1073 1.250 . S
O1079 Tb1064 2.353 . S
O1079 C1073 1.263 1_655 S
C1080 O1081 1.275 . S
C1080 O1082 1.246 . S
O1081 Tb1064 2.427 . S
O1081 C1080 1.275 . S
O1082 Tb1064 2.513 . S
O1082 C1080 1.246 . S
C1083 O1067 1.245 . S
C1083 O1068 1.259 . S
Tb1084 O1087 2.453 . S
Tb1084 O1088 2.596 . S
Tb1084 O1089 2.374 . S
Tb1084 O1097 2.343 . S
Tb1084 O1099 2.353 . S
Tb1084 O1101 2.427 . S
Tb1084 O1102 2.513 . S
C1085 O1089 1.251 . S
C1085 O1091 1.263 . S
Tb1086 O1088 2.343 . S
Tb1086 O1091 2.353 . S
Tb1086 O1094 2.427 . S
Tb1086 O1095 2.513 . S
Tb1086 O1096 2.453 . S
Tb1086 O1097 2.596 . S
Tb1086 O1098 2.374 . S
O1087 Tb1084 2.453 . S
O1087 C1103 1.245 . S
O1088 Tb1084 2.596 . S
O1088 Tb1086 2.343 . S
O1088 C1103 1.259 . S
O1089 Tb1084 2.374 . S
O1089 C1085 1.251 . S
C1090 O1094 1.275 . S
C1090 O1095 1.246 . S
O1091 C1085 1.263 . S
O1091 Tb1086 2.353 . S
C1092 O1096 1.245 . S
C1092 O1097 1.259 . S
C1093 O1098 1.250 . S
C1093 O1099 1.263 . S
O1094 Tb1086 2.427 . S
O1094 C1090 1.275 . S
O1095 Tb1086 2.513 . S
O1095 C1090 1.246 . S
O1096 Tb1086 2.453 . S
O1096 C1092 1.245 . S
O1097 Tb1084 2.343 . S
O1097 Tb1086 2.596 . S
O1097 C1092 1.259 . S
O1098 Tb1086 2.374 . S
O1098 C1093 1.250 . S
O1099 Tb1084 2.353 . S
O1099 C1093 1.263 . S
C1100 O1101 1.275 . S
C1100 O1102 1.246 . S
O1101 Tb1084 2.427 . S
O1101 C1100 1.275 . S
O1102 Tb1084 2.513 . S
O1102 C1100 1.246 . S
C1103 O1087 1.245 . S
C1103 O1088 1.259 . S
Tb1104 O1107 2.453 . S
Tb1104 O1108 2.596 . S
Tb1104 O1109 2.374 . S
Tb1104 O1117 2.343 . S
Tb1104 O1119 2.353 . S
Tb1104 O1121 2.427 . S
Tb1104 O1122 2.513 . S
C1105 O1109 1.251 . S
C1105 O1111 1.263 . S
Tb1106 O1108 2.343 . S
Tb1106 O1111 2.353 . S
Tb1106 O1114 2.427 . S
Tb1106 O1115 2.513 . S
Tb1106 O1116 2.453 . S
Tb1106 O1117 2.596 . S
Tb1106 O1118 2.374 . S
O1107 Tb1104 2.453 . S
O1107 C1123 1.245 . S
O1108 Tb1104 2.596 . S
O1108 Tb1106 2.343 . S
O1108 C1123 1.259 . S
O1109 Tb1104 2.374 . S
O1109 C1105 1.251 . S
C1110 O1114 1.275 . S
C1110 O1115 1.246 . S
O1111 C1105 1.263 . S
O1111 Tb1106 2.353 . S
C1112 O1116 1.245 . S
C1112 O1117 1.259 . S
C1113 O1118 1.250 . S
C1113 O1119 1.263 . S
O1114 Tb1106 2.427 . S
O1114 C1110 1.275 . S
O1115 Tb1106 2.513 . S
O1115 C1110 1.246 . S
O1116 Tb1106 2.453 . S
O1116 C1112 1.245 . S
O1117 Tb1104 2.343 . S
O1117 Tb1106 2.596 . S
O1117 C1112 1.259 . S
O1118 Tb1106 2.374 . S
O1118 C1113 1.250 . S
O1119 Tb1104 2.353 . S
O1119 C1113 1.263 . S
C1120 O1121 1.275 . S
C1120 O1122 1.246 . S
O1121 Tb1104 2.427 . S
O1121 C1120 1.275 . S
O1122 Tb1104 2.513 . S
O1122 C1120 1.246 . S
C1123 O1107 1.245 . S
C1123 O1108 1.259 . S
Tb1124 O1127 2.453 . S
Tb1124 O1128 2.596 . S
Tb1124 O1129 2.374 . S
Tb1124 O1137 2.343 . S
Tb1124 O1139 2.353 . S
Tb1124 O1141 2.427 . S
Tb1124 O1142 2.513 . S
C1125 O1129 1.251 . S
C1125 O1131 1.263 . S
Tb1126 O1128 2.343 . S
Tb1126 O1131 2.353 . S
Tb1126 O1134 2.427 . S
Tb1126 O1135 2.513 . S
Tb1126 O1136 2.453 . S
Tb1126 O1137 2.596 . S
Tb1126 O1138 2.374 . S
O1127 Tb1124 2.453 . S
O1127 C1143 1.245 . S
O1128 Tb1124 2.596 . S
O1128 Tb1126 2.343 . S
O1128 C1143 1.259 . S
O1129 Tb1124 2.374 . S
O1129 C1125 1.251 . S
C1130 O1134 1.275 . S
C1130 O1135 1.246 . S
O1131 C1125 1.263 . S
O1131 Tb1126 2.353 . S
C1132 O1136 1.245 . S
C1132 O1137 1.259 . S
C1133 O1138 1.250 . S
C1133 O1139 1.263 . S
O1134 Tb1126 2.427 . S
O1134 C1130 1.275 . S
O1135 Tb1126 2.513 . S
O1135 C1130 1.246 . S
O1136 Tb1126 2.453 . S
O1136 C1132 1.245 . S
O1137 Tb1124 2.343 . S
O1137 Tb1126 2.596 . S
O1137 C1132 1.259 . S
O1138 Tb1126 2.374 . S
O1138 C1133 1.250 . S
O1139 Tb1124 2.353 . S
O1139 C1133 1.263 . S
C1140 O1141 1.275 . S
C1140 O1142 1.246 . S
O1141 Tb1124 2.427 . S
O1141 C1140 1.275 . S
O1142 Tb1124 2.513 . S
O1142 C1140 1.246 . S
C1143 O1127 1.245 . S
C1143 O1128 1.259 . S
Tb1144 O1147 2.453 . S
Tb1144 O1148 2.596 . S
Tb1144 O1149 2.374 . S
Tb1144 O1157 2.343 . S
Tb1144 O1159 2.353 . S
Tb1144 O1161 2.427 . S
Tb1144 O1162 2.513 . S
C1145 O1149 1.251 . S
C1145 O1151 1.263 . S
Tb1146 O1148 2.343 . S
Tb1146 O1151 2.353 . S
Tb1146 O1154 2.427 . S
Tb1146 O1155 2.513 . S
Tb1146 O1156 2.453 . S
Tb1146 O1157 2.596 . S
Tb1146 O1158 2.374 . S
O1147 Tb1144 2.453 . S
O1147 C1163 1.245 . S
O1148 Tb1144 2.596 . S
O1148 Tb1146 2.343 . S
O1148 C1163 1.259 . S
O1149 Tb1144 2.374 . S
O1149 C1145 1.251 . S
C1150 O1154 1.275 . S
C1150 O1155 1.246 . S
O1151 C1145 1.263 . S
O1151 Tb1146 2.353 . S
C1152 O1156 1.245 . S
C1152 O1157 1.259 . S
C1153 O1158 1.250 . S
C1153 O1159 1.263 . S
O1154 Tb1146 2.427 . S
O1154 C1150 1.275 . S
O1155 Tb1146 2.513 . S
O1155 C1150 1.246 . S
O1156 Tb1146 2.453 . S
O1156 C1152 1.245 . S
O1157 Tb1144 2.343 . S
O1157 Tb1146 2.596 . S
O1157 C1152 1.259 . S
O1158 Tb1146 2.374 . S
O1158 C1153 1.250 . S
O1159 Tb1144 2.353 . S
O1159 C1153 1.263 . S
C1160 O1161 1.275 . S
C1160 O1162 1.246 . S
O1161 Tb1144 2.427 . S
O1161 C1160 1.275 . S
O1162 Tb1144 2.513 . S
O1162 C1160 1.246 . S
C1163 O1147 1.245 . S
C1163 O1148 1.259 . S
Tb1164 O1167 2.453 . S
Tb1164 O1168 2.596 . S
Tb1164 O1169 2.374 . S
Tb1164 O1177 2.343 . S
Tb1164 O1179 2.353 1_554 S
Tb1164 O1181 2.427 1_554 S
Tb1164 O1182 2.513 . S
C1165 O1169 1.251 . S
C1165 O1171 1.263 1_455 S
Tb1166 O1168 2.343 1_655 S
Tb1166 O1171 2.353 . S
Tb1166 O1174 2.427 . S
Tb1166 O1175 2.513 . S
Tb1166 O1176 2.453 . S
Tb1166 O1177 2.596 1_655 S
Tb1166 O1178 2.374 1_554 S
O1167 Tb1164 2.453 . S
O1167 C1183 1.245 . S
O1168 Tb1164 2.596 . S
O1168 Tb1166 2.343 1_455 S
O1168 C1183 1.259 . S
O1169 Tb1164 2.374 . S
O1169 C1165 1.251 . S
C1170 O1174 1.275 . S
C1170 O1175 1.246 . S
O1171 C1165 1.263 1_655 S
O1171 Tb1166 2.353 . S
C1172 O1176 1.245 1_456 S
C1172 O1177 1.259 1_556 S
C1173 O1178 1.250 1_455 S
C1173 O1179 1.263 . S
O1174 Tb1166 2.427 . S
O1174 C1170 1.275 . S
O1175 Tb1166 2.513 . S
O1175 C1170 1.246 . S
O1176 Tb1166 2.453 . S
O1176 C1172 1.245 1_654 S
O1177 Tb1164 2.343 . S
O1177 Tb1166 2.596 1_455 S
O1177 C1172 1.259 1_554 S
O1178 Tb1166 2.374 1_556 S
O1178 C1173 1.250 1_655 S
O1179 Tb1164 2.353 1_556 S
O1179 C1173 1.263 . S
C1180 O1181 1.275 . S
C1180 O1182 1.246 1_556 S
O1181 Tb1164 2.427 1_556 S
O1181 C1180 1.275 . S
O1182 Tb1164 2.513 . S
O1182 C1180 1.246 1_554 S
C1183 O1167 1.245 . S
C1183 O1168 1.259 . S
H1184 C1192 0.950 . S
H1185 C1197 0.950 . S
H1186 C1194 0.950 . S
H1187 C1196 0.950 . S
H1188 C1198 0.950 . S
H1189 C1200 0.950 . S
H1190 C1202 0.950 . S
H1191 C1203 0.950 . S
C1192 H1184 0.950 . S
C1192 C1193 1.386 . S
C1192 C1194 1.391 . S
C1193 C1192 1.386 . S
C1193 C1197 1.393 1_455 S
C1194 H1186 0.950 . S
C1194 C1192 1.391 . S
C1194 C1195 1.400 . S
C1195 C1194 1.400 . S
C1195 C1196 1.398 1_455 S
C1195 C1201 1.491 . S
C1196 H1187 0.950 . S
C1196 C1195 1.398 1_655 S
C1196 C1197 1.391 . S
C1197 H1185 0.950 . S
C1197 C1193 1.393 1_655 S
C1197 C1196 1.391 . S
C1198 H1188 0.950 . S
C1198 C1199 1.386 1_655 S
C1198 C1200 1.391 . S
C1199 C1198 1.386 1_455 S
C1199 C1203 1.393 . S
C1200 H1189 0.950 . S
C1200 C1198 1.391 . S
C1200 C1201 1.400 1_655 S
C1201 C1195 1.491 . S
C1201 C1200 1.400 1_455 S
C1201 C1202 1.398 . S
C1202 H1190 0.950 . S
C1202 C1201 1.398 . S
C1202 C1203 1.391 . S
C1203 H1191 0.950 . S
C1203 C1199 1.393 . S
C1203 C1202 1.391 . S
H1204 C1212 0.950 . S
H1205 C1217 0.950 . S
H1206 C1214 0.950 . S
H1207 C1216 0.950 . S
H1208 C1218 0.950 . S
H1209 C1220 0.950 . S
H1210 C1222 0.950 . S
H1211 C1223 0.950 . S
C1212 H1204 0.950 . S
C1212 C1213 1.386 . S
C1212 C1214 1.391 . S
C1213 C1212 1.386 . S
C1213 C1217 1.393 . S
C1214 H1206 0.950 . S
C1214 C1212 1.391 . S
C1214 C1215 1.400 . S
C1215 C1214 1.400 . S
C1215 C1216 1.398 . S
C1215 C1221 1.491 . S
C1216 H1207 0.950 . S
C1216 C1215 1.398 . S
C1216 C1217 1.391 . S
C1217 H1205 0.950 . S
C1217 C1213 1.393 . S
C1217 C1216 1.391 . S
C1218 H1208 0.950 . S
C1218 C1219 1.386 . S
C1218 C1220 1.391 . S
C1219 C1218 1.386 . S
C1219 C1223 1.393 . S
C1220 H1209 0.950 . S
C1220 C1218 1.391 . S
C1220 C1221 1.400 . S
C1221 C1215 1.491 . S
C1221 C1220 1.400 . S
C1221 C1222 1.398 . S
C1222 H1210 0.950 . S
C1222 C1221 1.398 . S
C1222 C1223 1.391 . S
C1223 H1211 0.950 . S
C1223 C1219 1.393 . S
C1223 C1222 1.391 . S
H1224 C1232 0.950 . S
H1225 C1237 0.950 . S
H1226 C1234 0.950 . S
H1227 C1236 0.950 . S
H1228 C1238 0.950 . S
H1229 C1240 0.950 . S
H1230 C1242 0.950 . S
H1231 C1243 0.950 . S
C1232 H1224 0.950 . S
C1232 C1233 1.386 . S
C1232 C1234 1.391 . S
C1233 C1232 1.386 . S
C1233 C1237 1.393 . S
C1234 H1226 0.950 . S
C1234 C1232 1.391 . S
C1234 C1235 1.400 . S
C1235 C1234 1.400 . S
C1235 C1236 1.398 . S
C1235 C1241 1.491 . S
C1236 H1227 0.950 . S
C1236 C1235 1.398 . S
C1236 C1237 1.391 . S
C1237 H1225 0.950 . S
C1237 C1233 1.393 . S
C1237 C1236 1.391 . S
C1238 H1228 0.950 . S
C1238 C1239 1.386 . S
C1238 C1240 1.391 . S
C1239 C1238 1.386 . S
C1239 C1243 1.393 . S
C1240 H1229 0.950 . S
C1240 C1238 1.391 . S
C1240 C1241 1.400 . S
C1241 C1235 1.491 . S
C1241 C1240 1.400 . S
C1241 C1242 1.398 . S
C1242 H1230 0.950 . S
C1242 C1241 1.398 . S
C1242 C1243 1.391 . S
C1243 H1231 0.950 . S
C1243 C1239 1.393 . S
C1243 C1242 1.391 . S
H1244 C1252 0.950 . S
H1245 C1257 0.950 . S
H1246 C1254 0.950 . S
H1247 C1256 0.950 . S
H1248 C1258 0.950 . S
H1249 C1260 0.950 . S
H1250 C1262 0.950 . S
H1251 C1263 0.950 . S
C1252 H1244 0.950 . S
C1252 C1253 1.386 . S
C1252 C1254 1.391 . S
C1253 C1252 1.386 . S
C1253 C1257 1.393 . S
C1254 H1246 0.950 . S
C1254 C1252 1.391 . S
C1254 C1255 1.400 . S
C1255 C1254 1.400 . S
C1255 C1256 1.398 . S
C1255 C1261 1.491 . S
C1256 H1247 0.950 . S
C1256 C1255 1.398 . S
C1256 C1257 1.391 . S
C1257 H1245 0.950 . S
C1257 C1253 1.393 . S
C1257 C1256 1.391 . S
C1258 H1248 0.950 . S
C1258 C1259 1.386 . S
C1258 C1260 1.391 . S
C1259 C1258 1.386 . S
C1259 C1263 1.393 . S
C1260 H1249 0.950 . S
C1260 C1258 1.391 . S
C1260 C1261 1.400 . S
C1261 C1255 1.491 . S
C1261 C1260 1.400 . S
C1261 C1262 1.398 . S
C1262 H1250 0.950 . S
C1262 C1261 1.398 . S
C1262 C1263 1.391 . S
C1263 H1251 0.950 . S
C1263 C1259 1.393 . S
C1263 C1262 1.391 . S
H1264 C1272 0.950 . S
H1265 C1277 0.950 . S
H1266 C1274 0.950 . S
H1267 C1276 0.950 . S
H1268 C1278 0.950 . S
H1269 C1280 0.950 . S
H1270 C1282 0.950 . S
H1271 C1283 0.950 . S
C1272 H1264 0.950 . S
C1272 C1273 1.386 . S
C1272 C1274 1.391 . S
C1273 C1272 1.386 . S
C1273 C1277 1.393 1_455 S
C1274 H1266 0.950 . S
C1274 C1272 1.391 . S
C1274 C1275 1.400 . S
C1275 C1274 1.400 . S
C1275 C1276 1.398 1_455 S
C1275 C1281 1.491 . S
C1276 H1267 0.950 . S
C1276 C1275 1.398 1_655 S
C1276 C1277 1.391 . S
C1277 H1265 0.950 . S
C1277 C1273 1.393 1_655 S
C1277 C1276 1.391 . S
C1278 H1268 0.950 . S
C1278 C1279 1.386 1_655 S
C1278 C1280 1.391 . S
C1279 C1278 1.386 1_455 S
C1279 C1283 1.393 . S
C1280 H1269 0.950 . S
C1280 C1278 1.391 . S
C1280 C1281 1.400 1_655 S
C1281 C1275 1.491 . S
C1281 C1280 1.400 1_455 S
C1281 C1282 1.398 . S
C1282 H1270 0.950 . S
C1282 C1281 1.398 . S
C1282 C1283 1.391 . S
C1283 H1271 0.950 . S
C1283 C1279 1.393 . S
C1283 C1282 1.391 . S
H1284 C1292 0.950 . S
H1285 C1297 0.950 . S
H1286 C1294 0.950 . S
H1287 C1296 0.950 . S
H1288 C1298 0.950 . S
H1289 C1300 0.950 . S
H1290 C1302 0.950 . S
H1291 C1303 0.950 . S
C1292 H1284 0.950 . S
C1292 C1293 1.386 . S
C1292 C1294 1.391 . S
C1293 C1292 1.386 . S
C1293 C1297 1.393 . S
C1294 H1286 0.950 . S
C1294 C1292 1.391 . S
C1294 C1295 1.400 . S
C1295 C1294 1.400 . S
C1295 C1296 1.398 . S
C1295 C1301 1.491 . S
C1296 H1287 0.950 . S
C1296 C1295 1.398 . S
C1296 C1297 1.391 . S
C1297 H1285 0.950 . S
C1297 C1293 1.393 . S
C1297 C1296 1.391 . S
C1298 H1288 0.950 . S
C1298 C1299 1.386 . S
C1298 C1300 1.391 . S
C1299 C1298 1.386 . S
C1299 C1303 1.393 . S
C1300 H1289 0.950 . S
C1300 C1298 1.391 . S
C1300 C1301 1.400 . S
C1301 C1295 1.491 . S
C1301 C1300 1.400 . S
C1301 C1302 1.398 . S
C1302 H1290 0.950 . S
C1302 C1301 1.398 . S
C1302 C1303 1.391 . S
C1303 H1291 0.950 . S
C1303 C1299 1.393 . S
C1303 C1302 1.391 . S
H1304 C1312 0.950 . S
H1305 C1317 0.950 . S
H1306 C1314 0.950 . S
H1307 C1316 0.950 . S
H1308 C1318 0.950 . S
H1309 C1320 0.950 . S
H1310 C1322 0.950 . S
H1311 C1323 0.950 . S
C1312 H1304 0.950 . S
C1312 C1313 1.386 . S
C1312 C1314 1.391 . S
C1313 C1312 1.386 . S
C1313 C1317 1.393 . S
C1314 H1306 0.950 . S
C1314 C1312 1.391 . S
C1314 C1315 1.400 . S
C1315 C1314 1.400 . S
C1315 C1316 1.398 . S
C1315 C1321 1.491 . S
C1316 H1307 0.950 . S
C1316 C1315 1.398 . S
C1316 C1317 1.391 . S
C1317 H1305 0.950 . S
C1317 C1313 1.393 . S
C1317 C1316 1.391 . S
C1318 H1308 0.950 . S
C1318 C1319 1.386 . S
C1318 C1320 1.391 . S
C1319 C1318 1.386 . S
C1319 C1323 1.393 . S
C1320 H1309 0.950 . S
C1320 C1318 1.391 . S
C1320 C1321 1.400 . S
C1321 C1315 1.491 . S
C1321 C1320 1.400 . S
C1321 C1322 1.398 . S
C1322 H1310 0.950 . S
C1322 C1321 1.398 . S
C1322 C1323 1.391 . S
C1323 H1311 0.950 . S
C1323 C1319 1.393 . S
C1323 C1322 1.391 . S
H1324 C1332 0.950 . S
H1325 C1337 0.950 . S
H1326 C1334 0.950 . S
H1327 C1336 0.950 . S
H1328 C1338 0.950 . S
H1329 C1340 0.950 . S
H1330 C1342 0.950 . S
H1331 C1343 0.950 . S
C1332 H1324 0.950 . S
C1332 C1333 1.386 . S
C1332 C1334 1.391 . S
C1333 C1332 1.386 . S
C1333 C1337 1.393 . S
C1334 H1326 0.950 . S
C1334 C1332 1.391 . S
C1334 C1335 1.400 . S
C1335 C1334 1.400 . S
C1335 C1336 1.398 . S
C1335 C1341 1.491 . S
C1336 H1327 0.950 . S
C1336 C1335 1.398 . S
C1336 C1337 1.391 . S
C1337 H1325 0.950 . S
C1337 C1333 1.393 . S
C1337 C1336 1.391 . S
C1338 H1328 0.950 . S
C1338 C1339 1.386 . S
C1338 C1340 1.391 . S
C1339 C1338 1.386 . S
C1339 C1343 1.393 . S
C1340 H1329 0.950 . S
C1340 C1338 1.391 . S
C1340 C1341 1.400 . S
C1341 C1335 1.491 . S
C1341 C1340 1.400 . S
C1341 C1342 1.398 . S
C1342 H1330 0.950 . S
C1342 C1341 1.398 . S
C1342 C1343 1.391 . S
C1343 H1331 0.950 . S
C1343 C1339 1.393 . S
C1343 C1342 1.391 . S
H1344 C1352 0.950 . S
H1345 C1357 0.950 . S
H1346 C1354 0.950 . S
H1347 C1356 0.950 . S
H1348 C1358 0.950 1_455 S
H1349 C1360 0.950 . S
H1350 C1362 0.950 . S
H1351 C1363 0.950 . S
C1352 H1344 0.950 . S
C1352 C1353 1.386 . S
C1352 C1354 1.391 . S
C1353 C1352 1.386 . S
C1353 C1357 1.393 . S
C1354 H1346 0.950 . S
C1354 C1352 1.391 . S
C1354 C1355 1.400 . S
C1355 C1354 1.400 . S
C1355 C1356 1.398 . S
C1355 C1361 1.491 . S
C1356 H1347 0.950 . S
C1356 C1355 1.398 . S
C1356 C1357 1.391 . S
C1357 H1345 0.950 . S
C1357 C1353 1.393 . S
C1357 C1356 1.391 . S
C1358 H1348 0.950 1_655 S
C1358 C1359 1.386 . S
C1358 C1360 1.391 . S
C1359 C1358 1.386 . S
C1359 C1363 1.393 . S
C1360 H1349 0.950 . S
C1360 C1358 1.391 . S
C1360 C1361 1.400 . S
C1361 C1355 1.491 . S
C1361 C1360 1.400 . S
C1361 C1362 1.398 . S
C1362 H1350 0.950 . S
C1362 C1361 1.398 . S
C1362 C1363 1.391 . S
C1363 H1351 0.950 . S
C1363 C1359 1.393 . S
C1363 C1362 1.391 . S
H1364 C1372 0.950 . S
H1365 C1377 0.950 . S
H1366 C1374 0.950 . S
H1367 C1376 0.950 . S
H1368 C1378 0.950 . S
H1369 C1380 0.950 . S
H1370 C1382 0.950 . S
H1371 C1383 0.950 . S
C1372 H1364 0.950 . S
C1372 C1373 1.386 . S
C1372 C1374 1.391 . S
C1373 C1372 1.386 . S
C1373 C1377 1.393 . S
C1374 H1366 0.950 . S
C1374 C1372 1.391 . S
C1374 C1375 1.400 . S
C1375 C1374 1.400 . S
C1375 C1376 1.398 . S
C1375 C1381 1.491 . S
C1376 H1367 0.950 . S
C1376 C1375 1.398 . S
C1376 C1377 1.391 . S
C1377 H1365 0.950 . S
C1377 C1373 1.393 . S
C1377 C1376 1.391 . S
C1378 H1368 0.950 . S
C1378 C1379 1.386 . S
C1378 C1380 1.391 . S
C1379 C1378 1.386 . S
C1379 C1383 1.393 . S
C1380 H1369 0.950 . S
C1380 C1378 1.391 . S
C1380 C1381 1.400 . S
C1381 C1375 1.491 . S
C1381 C1380 1.400 . S
C1381 C1382 1.398 . S
C1382 H1370 0.950 . S
C1382 C1381 1.398 . S
C1382 C1383 1.391 . S
C1383 H1371 0.950 . S
C1383 C1379 1.393 . S
C1383 C1382 1.391 . S
H1384 C1392 0.950 1_565 S
H1385 C1397 0.950 . S
H1386 C1394 0.950 . S
H1387 C1396 0.950 . S
H1388 C1398 0.950 . S
H1389 C1400 0.950 . S
H1390 C1402 0.950 . S
H1391 C1403 0.950 . S
C1392 H1384 0.950 1_545 S
C1392 C1393 1.386 . S
C1392 C1394 1.391 . S
C1393 C1392 1.386 . S
C1393 C1397 1.393 . S
C1394 H1386 0.950 . S
C1394 C1392 1.391 . S
C1394 C1395 1.400 . S
C1395 C1394 1.400 . S
C1395 C1396 1.398 . S
C1395 C1401 1.491 . S
C1396 H1387 0.950 . S
C1396 C1395 1.398 . S
C1396 C1397 1.391 . S
C1397 H1385 0.950 . S
C1397 C1393 1.393 . S
C1397 C1396 1.391 . S
C1398 H1388 0.950 . S
C1398 C1399 1.386 . S
C1398 C1400 1.391 . S
C1399 C1398 1.386 . S
C1399 C1403 1.393 . S
C1400 H1389 0.950 . S
C1400 C1398 1.391 . S
C1400 C1401 1.400 . S
C1401 C1395 1.491 . S
C1401 C1400 1.400 . S
C1401 C1402 1.398 . S
C1402 H1390 0.950 . S
C1402 C1401 1.398 . S
C1402 C1403 1.391 . S
C1403 H1391 0.950 . S
C1403 C1399 1.393 . S
C1403 C1402 1.391 . S
H1404 C1412 0.950 . S
H1405 C1417 0.950 . S
H1406 C1414 0.950 . S
H1407 C1416 0.950 . S
H1408 C1418 0.950 . S
H1409 C1420 0.950 . S
H1410 C1422 0.950 . S
H1411 C1423 0.950 . S
C1412 H1404 0.950 . S
C1412 C1413 1.386 . S
C1412 C1414 1.391 . S
C1413 C1412 1.386 . S
C1413 C1417 1.393 . S
C1414 H1406 0.950 . S
C1414 C1412 1.391 . S
C1414 C1415 1.400 . S
C1415 C1414 1.400 . S
C1415 C1416 1.398 . S
C1415 C1421 1.491 . S
C1416 H1407 0.950 . S
C1416 C1415 1.398 . S
C1416 C1417 1.391 . S
C1417 H1405 0.950 . S
C1417 C1413 1.393 . S
C1417 C1416 1.391 . S
C1418 H1408 0.950 . S
C1418 C1419 1.386 . S
C1418 C1420 1.391 . S
C1419 C1418 1.386 . S
C1419 C1423 1.393 . S
C1420 H1409 0.950 . S
C1420 C1418 1.391 . S
C1420 C1421 1.400 . S
C1421 C1415 1.491 . S
C1421 C1420 1.400 . S
C1421 C1422 1.398 . S
C1422 H1410 0.950 . S
C1422 C1421 1.398 . S
C1422 C1423 1.391 . S
C1423 H1411 0.950 . S
C1423 C1419 1.393 . S
C1423 C1422 1.391 . S
H1424 C1432 0.950 . S
H1425 C1437 0.950 . S
H1426 C1434 0.950 . S
H1427 C1436 0.950 . S
H1428 C1438 0.950 . S
H1429 C1440 0.950 . S
H1430 C1442 0.950 . S
H1431 C1443 0.950 1_455 S
C1432 H1424 0.950 . S
C1432 C1433 1.386 . S
C1432 C1434 1.391 . S
C1433 C1432 1.386 . S
C1433 C1437 1.393 . S
C1434 H1426 0.950 . S
C1434 C1432 1.391 . S
C1434 C1435 1.400 . S
C1435 C1434 1.400 . S
C1435 C1436 1.398 . S
C1435 C1441 1.491 . S
C1436 H1427 0.950 . S
C1436 C1435 1.398 . S
C1436 C1437 1.391 . S
C1437 H1425 0.950 . S
C1437 C1433 1.393 . S
C1437 C1436 1.391 . S
C1438 H1428 0.950 . S
C1438 C1439 1.386 . S
C1438 C1440 1.391 . S
C1439 C1438 1.386 . S
C1439 C1443 1.393 . S
C1440 H1429 0.950 . S
C1440 C1438 1.391 . S
C1440 C1441 1.400 . S
C1441 C1435 1.491 . S
C1441 C1440 1.400 . S
C1441 C1442 1.398 . S
C1442 H1430 0.950 . S
C1442 C1441 1.398 . S
C1442 C1443 1.391 . S
C1443 H1431 0.950 1_655 S
C1443 C1439 1.393 . S
C1443 C1442 1.391 . S
H1444 C1452 0.950 . S
H1445 C1457 0.950 . S
H1446 C1454 0.950 . S
H1447 C1456 0.950 . S
H1448 C1458 0.950 . S
H1449 C1460 0.950 . S
H1450 C1462 0.950 . S
H1451 C1463 0.950 . S
C1452 H1444 0.950 . S
C1452 C1453 1.386 . S
C1452 C1454 1.391 . S
C1453 C1452 1.386 . S
C1453 C1457 1.393 . S
C1454 H1446 0.950 . S
C1454 C1452 1.391 . S
C1454 C1455 1.400 . S
C1455 C1454 1.400 . S
C1455 C1456 1.398 . S
C1455 C1461 1.491 . S
C1456 H1447 0.950 . S
C1456 C1455 1.398 . S
C1456 C1457 1.391 . S
C1457 H1445 0.950 . S
C1457 C1453 1.393 . S
C1457 C1456 1.391 . S
C1458 H1448 0.950 . S
C1458 C1459 1.386 . S
C1458 C1460 1.391 . S
C1459 C1458 1.386 . S
C1459 C1463 1.393 . S
C1460 H1449 0.950 . S
C1460 C1458 1.391 . S
C1460 C1461 1.400 . S
C1461 C1455 1.491 . S
C1461 C1460 1.400 . S
C1461 C1462 1.398 . S
C1462 H1450 0.950 . S
C1462 C1461 1.398 . S
C1462 C1463 1.391 . S
C1463 H1451 0.950 . S
C1463 C1459 1.393 . S
C1463 C1462 1.391 . S
H1464 C1472 0.950 . S
H1465 C1477 0.950 . S
H1466 C1474 0.950 . S
H1467 C1476 0.950 . S
H1468 C1478 0.950 . S
H1469 C1480 0.950 . S
H1470 C1482 0.950 . S
H1471 C1483 0.950 . S
C1472 H1464 0.950 . S
C1472 C1473 1.386 . S
C1472 C1474 1.391 . S
C1473 C1472 1.386 . S
C1473 C1477 1.393 . S
C1474 H1466 0.950 . S
C1474 C1472 1.391 . S
C1474 C1475 1.400 . S
C1475 C1474 1.400 . S
C1475 C1476 1.398 . S
C1475 C1481 1.491 . S
C1476 H1467 0.950 . S
C1476 C1475 1.398 . S
C1476 C1477 1.391 . S
C1477 H1465 0.950 . S
C1477 C1473 1.393 . S
C1477 C1476 1.391 . S
C1478 H1468 0.950 . S
C1478 C1479 1.386 . S
C1478 C1480 1.391 . S
C1479 C1478 1.386 . S
C1479 C1483 1.393 . S
C1480 H1469 0.950 . S
C1480 C1478 1.391 . S
C1480 C1481 1.400 . S
C1481 C1475 1.491 . S
C1481 C1480 1.400 . S
C1481 C1482 1.398 . S
C1482 H1470 0.950 . S
C1482 C1481 1.398 . S
C1482 C1483 1.391 . S
C1483 H1471 0.950 . S
C1483 C1479 1.393 . S
C1483 C1482 1.391 . S
H1484 C1492 0.950 . S
H1485 C1497 0.950 . S
H1486 C1494 0.950 . S
H1487 C1496 0.950 . S
H1488 C1498 0.950 . S
H1489 C1500 0.950 . S
H1490 C1502 0.950 . S
H1491 C1503 0.950 . S
C1492 H1484 0.950 . S
C1492 C1493 1.386 . S
C1492 C1494 1.391 . S
C1493 C1492 1.386 . S
C1493 C1497 1.393 . S
C1494 H1486 0.950 . S
C1494 C1492 1.391 . S
C1494 C1495 1.400 . S
C1495 C1494 1.400 . S
C1495 C1496 1.398 . S
C1495 C1501 1.491 . S
C1496 H1487 0.950 . S
C1496 C1495 1.398 . S
C1496 C1497 1.391 . S
C1497 H1485 0.950 . S
C1497 C1493 1.393 . S
C1497 C1496 1.391 . S
C1498 H1488 0.950 . S
C1498 C1499 1.386 . S
C1498 C1500 1.391 . S
C1499 C1498 1.386 . S
C1499 C1503 1.393 . S
C1500 H1489 0.950 . S
C1500 C1498 1.391 . S
C1500 C1501 1.400 . S
C1501 C1495 1.491 . S
C1501 C1500 1.400 . S
C1501 C1502 1.398 . S
C1502 H1490 0.950 . S
C1502 C1501 1.398 . S
C1502 C1503 1.391 . S
C1503 H1491 0.950 . S
C1503 C1499 1.393 . S
C1503 C1502 1.391 . S
H1504 C1512 0.950 1_556 S
H1505 C1517 0.950 . S
H1506 C1514 0.950 1_556 S
H1507 C1516 0.950 . S
H1508 C1518 0.950 . S
H1509 C1520 0.950 . S
H1510 C1522 0.950 1_556 S
H1511 C1523 0.950 1_546 S
C1512 H1504 0.950 1_554 S
C1512 C1513 1.386 . S
C1512 C1514 1.391 . S
C1513 C1512 1.386 . S
C1513 C1517 1.393 . S
C1514 H1506 0.950 1_554 S
C1514 C1512 1.391 . S
C1514 C1515 1.400 . S
C1515 C1514 1.400 . S
C1515 C1516 1.398 . S
C1515 C1521 1.491 . S
C1516 H1507 0.950 . S
C1516 C1515 1.398 . S
C1516 C1517 1.391 . S
C1517 H1505 0.950 . S
C1517 C1513 1.393 . S
C1517 C1516 1.391 . S
C1518 H1508 0.950 . S
C1518 C1519 1.386 . S
C1518 C1520 1.391 . S
C1519 C1518 1.386 . S
C1519 C1523 1.393 . S
C1520 H1509 0.950 . S
C1520 C1518 1.391 . S
C1520 C1521 1.400 . S
C1521 C1515 1.491 . S
C1521 C1520 1.400 . S
C1521 C1522 1.398 . S
C1522 H1510 0.950 1_554 S
C1522 C1521 1.398 . S
C1522 C1523 1.391 . S
C1523 H1511 0.950 1_564 S
C1523 C1519 1.393 . S
C1523 C1522 1.391 . S
H1524 C1532 0.950 . S
H1525 C1537 0.950 . S
H1526 C1534 0.950 . S
H1527 C1536 0.950 . S
H1528 C1538 0.950 . S
H1529 C1540 0.950 . S
H1530 C1542 0.950 . S
H1531 C1543 0.950 . S
C1532 H1524 0.950 . S
C1532 C1533 1.386 . S
C1532 C1534 1.391 . S
C1533 C1532 1.386 . S
C1533 C1537 1.393 1_556 S
C1534 H1526 0.950 . S
C1534 C1532 1.391 . S
C1534 C1535 1.399 1_556 S
C1535 C1534 1.399 1_554 S
C1535 C1536 1.399 . S
C1535 C1541 1.491 . S
C1536 H1527 0.950 . S
C1536 C1535 1.399 . S
C1536 C1537 1.391 . S
C1537 H1525 0.950 . S
C1537 C1533 1.393 1_554 S
C1537 C1536 1.391 . S
C1538 H1528 0.950 . S
C1538 C1539 1.386 . S
C1538 C1540 1.391 . S
C1539 C1538 1.386 . S
C1539 C1543 1.393 1_554 S
C1540 H1529 0.950 . S
C1540 C1538 1.391 . S
C1540 C1541 1.400 . S
C1541 C1535 1.491 . S
C1541 C1540 1.400 . S
C1541 C1542 1.398 1_554 S
C1542 H1530 0.950 . S
C1542 C1541 1.398 1_556 S
C1542 C1543 1.391 . S
C1543 H1531 0.950 . S
C1543 C1539 1.393 1_556 S
C1543 C1542 1.391 . S
H1544 C1552 0.950 . S
H1545 C1557 0.950 . S
H1546 C1554 0.950 . S
H1547 C1556 0.950 . S
H1548 C1558 0.950 . S
H1549 C1560 0.950 . S
H1550 C1562 0.950 . S
H1551 C1563 0.950 . S
C1552 H1544 0.950 . S
C1552 C1553 1.386 . S
C1552 C1554 1.391 . S
C1553 C1552 1.386 . S
C1553 C1557 1.393 . S
C1554 H1546 0.950 . S
C1554 C1552 1.391 . S
C1554 C1555 1.400 . S
C1555 C1554 1.400 . S
C1555 C1556 1.398 . S
C1555 C1561 1.491 . S
C1556 H1547 0.950 . S
C1556 C1555 1.398 . S
C1556 C1557 1.391 . S
C1557 H1545 0.950 . S
C1557 C1553 1.393 . S
C1557 C1556 1.391 . S
C1558 H1548 0.950 . S
C1558 C1559 1.386 . S
C1558 C1560 1.391 . S
C1559 C1558 1.386 . S
C1559 C1563 1.393 . S
C1560 H1549 0.950 . S
C1560 C1558 1.391 . S
C1560 C1561 1.400 . S
C1561 C1555 1.491 . S
C1561 C1560 1.400 . S
C1561 C1562 1.398 . S
C1562 H1550 0.950 . S
C1562 C1561 1.398 . S
C1562 C1563 1.391 . S
C1563 H1551 0.950 . S
C1563 C1559 1.393 . S
C1563 C1562 1.391 . S
H1564 C1572 0.950 . S
H1565 C1577 0.950 . S
H1566 C1574 0.950 . S
H1567 C1576 0.950 . S
H1568 C1578 0.950 . S
H1569 C1580 0.950 . S
H1570 C1582 0.950 . S
H1571 C1583 0.950 . S
C1572 H1564 0.950 . S
C1572 C1573 1.386 . S
C1572 C1574 1.391 . S
C1573 C1572 1.386 . S
C1573 C1577 1.393 . S
C1574 H1566 0.950 . S
C1574 C1572 1.391 . S
C1574 C1575 1.400 . S
C1575 C1574 1.400 . S
C1575 C1576 1.398 . S
C1575 C1581 1.491 . S
C1576 H1567 0.950 . S
C1576 C1575 1.398 . S
C1576 C1577 1.391 . S
C1577 H1565 0.950 . S
C1577 C1573 1.393 . S
C1577 C1576 1.391 . S
C1578 H1568 0.950 . S
C1578 C1579 1.386 . S
C1578 C1580 1.391 . S
C1579 C1578 1.386 . S
C1579 C1583 1.393 . S
C1580 H1569 0.950 . S
C1580 C1578 1.391 . S
C1580 C1581 1.400 . S
C1581 C1575 1.491 . S
C1581 C1580 1.400 . S
C1581 C1582 1.398 . S
C1582 H1570 0.950 . S
C1582 C1581 1.398 . S
C1582 C1583 1.391 . S
C1583 H1571 0.950 . S
C1583 C1579 1.393 . S
C1583 C1582 1.391 . S
H1584 C1592 0.950 . S
H1585 C1597 0.950 . S
H1586 C1594 0.950 . S
H1587 C1596 0.950 . S
H1588 C1598 0.950 . S
H1589 C1600 0.950 . S
H1590 C1602 0.950 . S
H1591 C1603 0.950 . S
C1592 H1584 0.950 . S
C1592 C1593 1.386 . S
C1592 C1594 1.391 . S
C1593 C1592 1.386 . S
C1593 C1597 1.393 . S
C1594 H1586 0.950 . S
C1594 C1592 1.391 . S
C1594 C1595 1.400 . S
C1595 C1594 1.400 . S
C1595 C1596 1.398 . S
C1595 C1601 1.491 . S
C1596 H1587 0.950 . S
C1596 C1595 1.398 . S
C1596 C1597 1.391 . S
C1597 H1585 0.950 . S
C1597 C1593 1.393 . S
C1597 C1596 1.391 . S
C1598 H1588 0.950 . S
C1598 C1599 1.386 . S
C1598 C1600 1.391 . S
C1599 C1598 1.386 . S
C1599 C1603 1.393 . S
C1600 H1589 0.950 . S
C1600 C1598 1.391 . S
C1600 C1601 1.400 . S
C1601 C1595 1.491 . S
C1601 C1600 1.400 . S
C1601 C1602 1.398 . S
C1602 H1590 0.950 . S
C1602 C1601 1.398 . S
C1602 C1603 1.391 . S
C1603 H1591 0.950 . S
C1603 C1599 1.393 . S
C1603 C1602 1.391 . S
H1604 C1612 0.950 . S
H1605 C1617 0.950 . S
H1606 C1614 0.950 . S
H1607 C1616 0.950 . S
H1608 C1618 0.950 . S
H1609 C1620 0.950 . S
H1610 C1622 0.950 . S
H1611 C1623 0.950 . S
C1612 H1604 0.950 . S
C1612 C1613 1.386 . S
C1612 C1614 1.391 . S
C1613 C1612 1.386 . S
C1613 C1617 1.393 . S
C1614 H1606 0.950 . S
C1614 C1612 1.391 . S
C1614 C1615 1.400 . S
C1615 C1614 1.400 . S
C1615 C1616 1.398 . S
C1615 C1621 1.491 . S
C1616 H1607 0.950 . S
C1616 C1615 1.398 . S
C1616 C1617 1.391 . S
C1617 H1605 0.950 . S
C1617 C1613 1.393 . S
C1617 C1616 1.391 . S
C1618 H1608 0.950 . S
C1618 C1619 1.386 . S
C1618 C1620 1.391 . S
C1619 C1618 1.386 . S
C1619 C1623 1.393 . S
C1620 H1609 0.950 . S
C1620 C1618 1.391 . S
C1620 C1621 1.400 . S
C1621 C1615 1.491 . S
C1621 C1620 1.400 . S
C1621 C1622 1.398 . S
C1622 H1610 0.950 . S
C1622 C1621 1.398 . S
C1622 C1623 1.391 . S
C1623 H1611 0.950 . S
C1623 C1619 1.393 . S
C1623 C1622 1.391 . S
H1624 C1632 0.950 . S
H1625 C1637 0.950 . S
H1626 C1634 0.950 . S
H1627 C1636 0.950 . S
H1628 C1638 0.950 . S
H1629 C1640 0.950 . S
H1630 C1642 0.950 . S
H1631 C1643 0.950 . S
C1632 H1624 0.950 . S
C1632 C1633 1.386 . S
C1632 C1634 1.391 . S
C1633 C1632 1.386 . S
C1633 C1637 1.393 . S
C1634 H1626 0.950 . S
C1634 C1632 1.391 . S
C1634 C1635 1.400 . S
C1635 C1634 1.400 . S
C1635 C1636 1.398 . S
C1635 C1641 1.491 . S
C1636 H1627 0.950 . S
C1636 C1635 1.398 . S
C1636 C1637 1.391 . S
C1637 H1625 0.950 . S
C1637 C1633 1.393 . S
C1637 C1636 1.391 . S
C1638 H1628 0.950 . S
C1638 C1639 1.386 . S
C1638 C1640 1.391 . S
C1639 C1638 1.386 . S
C1639 C1643 1.393 . S
C1640 H1629 0.950 . S
C1640 C1638 1.391 . S
C1640 C1641 1.400 . S
C1641 C1635 1.491 . S
C1641 C1640 1.400 . S
C1641 C1642 1.398 . S
C1642 H1630 0.950 . S
C1642 C1641 1.398 . S
C1642 C1643 1.391 . S
C1643 H1631 0.950 . S
C1643 C1639 1.393 . S
C1643 C1642 1.391 . S
H1644 C1652 0.950 . S
H1645 C1657 0.950 . S
H1646 C1654 0.950 . S
H1647 C1656 0.950 . S
H1648 C1658 0.950 . S
H1649 C1660 0.950 . S
H1650 C1662 0.950 . S
H1651 C1663 0.950 . S
C1652 H1644 0.950 . S
C1652 C1653 1.386 . S
C1652 C1654 1.391 . S
C1653 C1652 1.386 . S
C1653 C1657 1.393 . S
C1654 H1646 0.950 . S
C1654 C1652 1.391 . S
C1654 C1655 1.400 . S
C1655 C1654 1.400 . S
C1655 C1656 1.398 . S
C1655 C1661 1.491 . S
C1656 H1647 0.950 . S
C1656 C1655 1.398 . S
C1656 C1657 1.391 . S
C1657 H1645 0.950 . S
C1657 C1653 1.393 . S
C1657 C1656 1.391 . S
C1658 H1648 0.950 . S
C1658 C1659 1.386 . S
C1658 C1660 1.391 . S
C1659 C1658 1.386 . S
C1659 C1663 1.393 . S
C1660 H1649 0.950 . S
C1660 C1658 1.391 . S
C1660 C1661 1.400 . S
C1661 C1655 1.491 . S
C1661 C1660 1.400 . S
C1661 C1662 1.398 . S
C1662 H1650 0.950 . S
C1662 C1661 1.398 . S
C1662 C1663 1.391 . S
C1663 H1651 0.950 . S
C1663 C1659 1.393 . S
C1663 C1662 1.391 . S
H1664 C1672 0.950 . S
H1665 C1677 0.950 . S
H1666 C1674 0.950 . S
H1667 C1676 0.950 . S
H1668 C1678 0.950 . S
H1669 C1680 0.950 . S
H1670 C1682 0.950 . S
H1671 C1683 0.950 . S
C1672 H1664 0.950 . S
C1672 C1673 1.386 . S
C1672 C1674 1.391 . S
C1673 C1672 1.386 . S
C1673 C1677 1.393 1_455 S
C1674 H1666 0.950 . S
C1674 C1672 1.391 . S
C1674 C1675 1.400 . S
C1675 C1674 1.400 . S
C1675 C1676 1.398 1_455 S
C1675 C1681 1.491 . S
C1676 H1667 0.950 . S
C1676 C1675 1.398 1_655 S
C1676 C1677 1.391 . S
C1677 H1665 0.950 . S
C1677 C1673 1.393 1_655 S
C1677 C1676 1.391 . S
C1678 H1668 0.950 . S
C1678 C1679 1.386 1_655 S
C1678 C1680 1.391 . S
C1679 C1678 1.386 1_455 S
C1679 C1683 1.393 . S
C1680 H1669 0.950 . S
C1680 C1678 1.391 . S
C1680 C1681 1.400 1_655 S
C1681 C1675 1.491 . S
C1681 C1680 1.400 1_455 S
C1681 C1682 1.398 . S
C1682 H1670 0.950 . S
C1682 C1681 1.398 . S
C1682 C1683 1.391 . S
C1683 H1671 0.950 . S
C1683 C1679 1.393 . S
C1683 C1682 1.391 . S
H1684 C1692 0.950 . S
H1685 C1697 0.950 . S
H1686 C1694 0.950 . S
H1687 C1696 0.950 . S
H1688 C1698 0.950 . S
H1689 C1700 0.950 . S
H1690 C1702 0.950 . S
H1691 C1703 0.950 . S
C1692 H1684 0.950 . S
C1692 C1693 1.386 . S
C1692 C1694 1.391 . S
C1693 C1692 1.386 . S
C1693 C1697 1.393 . S
C1694 H1686 0.950 . S
C1694 C1692 1.391 . S
C1694 C1695 1.400 . S
C1695 C1694 1.400 . S
C1695 C1696 1.398 . S
C1695 C1701 1.491 . S
C1696 H1687 0.950 . S
C1696 C1695 1.398 . S
C1696 C1697 1.391 . S
C1697 H1685 0.950 . S
C1697 C1693 1.393 . S
C1697 C1696 1.391 . S
C1698 H1688 0.950 . S
C1698 C1699 1.386 . S
C1698 C1700 1.391 . S
C1699 C1698 1.386 . S
C1699 C1703 1.393 . S
C1700 H1689 0.950 . S
C1700 C1698 1.391 . S
C1700 C1701 1.400 . S
C1701 C1695 1.491 . S
C1701 C1700 1.400 . S
C1701 C1702 1.398 . S
C1702 H1690 0.950 . S
C1702 C1701 1.398 . S
C1702 C1703 1.391 . S
C1703 H1691 0.950 . S
C1703 C1699 1.393 . S
C1703 C1702 1.391 . S
H1704 C1712 0.950 . S
H1705 C1717 0.950 . S
H1706 C1714 0.950 . S
H1707 C1716 0.950 . S
H1708 C1718 0.950 . S
H1709 C1720 0.950 . S
H1710 C1722 0.950 . S
H1711 C1723 0.950 . S
C1712 H1704 0.950 . S
C1712 C1713 1.386 . S
C1712 C1714 1.391 . S
C1713 C1712 1.386 . S
C1713 C1717 1.393 . S
C1714 H1706 0.950 . S
C1714 C1712 1.391 . S
C1714 C1715 1.400 . S
C1715 C1714 1.400 . S
C1715 C1716 1.398 . S
C1715 C1721 1.491 . S
C1716 H1707 0.950 . S
C1716 C1715 1.398 . S
C1716 C1717 1.391 . S
C1717 H1705 0.950 . S
C1717 C1713 1.393 . S
C1717 C1716 1.391 . S
C1718 H1708 0.950 . S
C1718 C1719 1.386 . S
C1718 C1720 1.391 . S
C1719 C1718 1.386 . S
C1719 C1723 1.393 . S
C1720 H1709 0.950 . S
C1720 C1718 1.391 . S
C1720 C1721 1.400 . S
C1721 C1715 1.491 . S
C1721 C1720 1.400 . S
C1721 C1722 1.398 . S
C1722 H1710 0.950 . S
C1722 C1721 1.398 . S
C1722 C1723 1.391 . S
C1723 H1711 0.950 . S
C1723 C1719 1.393 . S
C1723 C1722 1.391 . S
H1724 C1732 0.950 . S
H1725 C1737 0.950 . S
H1726 C1734 0.950 . S
H1727 C1736 0.950 . S
H1728 C1738 0.950 . S
H1729 C1740 0.950 . S
H1730 C1742 0.950 . S
H1731 C1743 0.950 . S
C1732 H1724 0.950 . S
C1732 C1733 1.386 . S
C1732 C1734 1.391 . S
C1733 C1732 1.386 . S
C1733 C1737 1.393 . S
C1734 H1726 0.950 . S
C1734 C1732 1.391 . S
C1734 C1735 1.400 . S
C1735 C1734 1.400 . S
C1735 C1736 1.398 . S
C1735 C1741 1.491 . S
C1736 H1727 0.950 . S
C1736 C1735 1.398 . S
C1736 C1737 1.391 . S
C1737 H1725 0.950 . S
C1737 C1733 1.393 . S
C1737 C1736 1.391 . S
C1738 H1728 0.950 . S
C1738 C1739 1.386 . S
C1738 C1740 1.391 . S
C1739 C1738 1.386 . S
C1739 C1743 1.393 . S
C1740 H1729 0.950 . S
C1740 C1738 1.391 . S
C1740 C1741 1.400 . S
C1741 C1735 1.491 . S
C1741 C1740 1.400 . S
C1741 C1742 1.398 . S
C1742 H1730 0.950 . S
C1742 C1741 1.398 . S
C1742 C1743 1.391 . S
C1743 H1731 0.950 . S
C1743 C1739 1.393 . S
C1743 C1742 1.391 . S
H1744 C1752 0.950 . S
H1745 C1757 0.950 . S
H1746 C1754 0.950 . S
H1747 C1756 0.950 . S
H1748 C1758 0.950 . S
H1749 C1760 0.950 . S
H1750 C1762 0.950 . S
H1751 C1763 0.950 . S
C1752 H1744 0.950 . S
C1752 C1753 1.386 . S
C1752 C1754 1.391 . S
C1753 C1752 1.386 . S
C1753 C1757 1.393 1_455 S
C1754 H1746 0.950 . S
C1754 C1752 1.391 . S
C1754 C1755 1.400 . S
C1755 C1754 1.400 . S
C1755 C1756 1.398 1_455 S
C1755 C1761 1.491 . S
C1756 H1747 0.950 . S
C1756 C1755 1.398 1_655 S
C1756 C1757 1.391 . S
C1757 H1745 0.950 . S
C1757 C1753 1.393 1_655 S
C1757 C1756 1.391 . S
C1758 H1748 0.950 . S
C1758 C1759 1.386 1_655 S
C1758 C1760 1.391 . S
C1759 C1758 1.386 1_455 S
C1759 C1763 1.393 . S
C1760 H1749 0.950 . S
C1760 C1758 1.391 . S
C1760 C1761 1.400 1_655 S
C1761 C1755 1.491 . S
C1761 C1760 1.400 1_455 S
C1761 C1762 1.398 . S
C1762 H1750 0.950 . S
C1762 C1761 1.398 . S
C1762 C1763 1.391 . S
C1763 H1751 0.950 . S
C1763 C1759 1.393 . S
C1763 C1762 1.391 . S
H1764 C1772 0.950 . S
H1765 C1777 0.950 . S
H1766 C1774 0.950 . S
H1767 C1776 0.950 . S
H1768 C1778 0.950 . S
H1769 C1780 0.950 . S
H1770 C1782 0.950 . S
H1771 C1783 0.950 . S
C1772 H1764 0.950 . S
C1772 C1773 1.386 . S
C1772 C1774 1.391 . S
C1773 C1772 1.386 . S
C1773 C1777 1.393 . S
C1774 H1766 0.950 . S
C1774 C1772 1.391 . S
C1774 C1775 1.400 . S
C1775 C1774 1.400 . S
C1775 C1776 1.398 . S
C1775 C1781 1.491 . S
C1776 H1767 0.950 . S
C1776 C1775 1.398 . S
C1776 C1777 1.391 . S
C1777 H1765 0.950 . S
C1777 C1773 1.393 . S
C1777 C1776 1.391 . S
C1778 H1768 0.950 . S
C1778 C1779 1.386 . S
C1778 C1780 1.391 . S
C1779 C1778 1.386 . S
C1779 C1783 1.393 . S
C1780 H1769 0.950 . S
C1780 C1778 1.391 . S
C1780 C1781 1.400 . S
C1781 C1775 1.491 . S
C1781 C1780 1.400 . S
C1781 C1782 1.398 . S
C1782 H1770 0.950 . S
C1782 C1781 1.398 . S
C1782 C1783 1.391 . S
C1783 H1771 0.950 . S
C1783 C1779 1.393 . S
C1783 C1782 1.391 . S
H1784 C1792 0.950 . S
H1785 C1797 0.950 . S
H1786 C1794 0.950 . S
H1787 C1796 0.950 . S
H1788 C1798 0.950 . S
H1789 C1800 0.950 . S
H1790 C1802 0.950 . S
H1791 C1803 0.950 1_554 S
C1792 H1784 0.950 . S
C1792 C1793 1.386 . S
C1792 C1794 1.391 . S
C1793 C1792 1.386 . S
C1793 C1797 1.393 . S
C1794 H1786 0.950 . S
C1794 C1792 1.391 . S
C1794 C1795 1.400 . S
C1795 C1794 1.400 . S
C1795 C1796 1.398 . S
C1795 C1801 1.491 . S
C1796 H1787 0.950 . S
C1796 C1795 1.398 . S
C1796 C1797 1.391 . S
C1797 H1785 0.950 . S
C1797 C1793 1.393 . S
C1797 C1796 1.391 . S
C1798 H1788 0.950 . S
C1798 C1799 1.386 . S
C1798 C1800 1.391 . S
C1799 C1798 1.386 . S
C1799 C1803 1.393 . S
C1800 H1789 0.950 . S
C1800 C1798 1.391 . S
C1800 C1801 1.400 . S
C1801 C1795 1.491 . S
C1801 C1800 1.400 . S
C1801 C1802 1.398 . S
C1802 H1790 0.950 . S
C1802 C1801 1.398 . S
C1802 C1803 1.391 . S
C1803 H1791 0.950 1_556 S
C1803 C1799 1.393 . S
C1803 C1802 1.391 . S
H1804 C1812 0.950 . S
H1805 C1817 0.950 . S
H1806 C1814 0.950 . S
H1807 C1816 0.950 . S
H1808 C1818 0.950 . S
H1809 C1820 0.950 . S
H1810 C1822 0.950 . S
H1811 C1823 0.950 . S
C1812 H1804 0.950 . S
C1812 C1813 1.386 . S
C1812 C1814 1.391 . S
C1813 C1812 1.386 . S
C1813 C1817 1.393 . S
C1814 H1806 0.950 . S
C1814 C1812 1.391 . S
C1814 C1815 1.400 . S
C1815 C1814 1.400 . S
C1815 C1816 1.398 . S
C1815 C1821 1.491 . S
C1816 H1807 0.950 . S
C1816 C1815 1.398 . S
C1816 C1817 1.391 . S
C1817 H1805 0.950 . S
C1817 C1813 1.393 . S
C1817 C1816 1.391 . S
C1818 H1808 0.950 . S
C1818 C1819 1.386 . S
C1818 C1820 1.391 . S
C1819 C1818 1.386 . S
C1819 C1823 1.393 . S
C1820 H1809 0.950 . S
C1820 C1818 1.391 . S
C1820 C1821 1.400 . S
C1821 C1815 1.491 . S
C1821 C1820 1.400 . S
C1821 C1822 1.398 . S
C1822 H1810 0.950 . S
C1822 C1821 1.398 . S
C1822 C1823 1.391 . S
C1823 H1811 0.950 . S
C1823 C1819 1.393 . S
C1823 C1822 1.391 . S
H1824 C1832 0.950 . S
H1825 C1837 0.950 . S
H1826 C1834 0.950 . S
H1827 C1836 0.950 . S
H1828 C1838 0.950 . S
H1829 C1840 0.950 . S
H1830 C1842 0.950 . S
H1831 C1843 0.950 . S
C1832 H1824 0.950 . S
C1832 C1833 1.371 1_545 S
C1832 C1834 1.391 . S
C1833 C1832 1.371 1_565 S
C1833 C1837 1.405 . S
C1834 H1826 0.950 . S
C1834 C1832 1.391 . S
C1834 C1835 1.400 . S
C1835 C1834 1.400 . S
C1835 C1836 1.398 1_545 S
C1835 C1841 1.491 . S
C1836 H1827 0.950 . S
C1836 C1835 1.398 1_565 S
C1836 C1837 1.391 . S
C1837 H1825 0.950 . S
C1837 C1833 1.405 . S
C1837 C1836 1.391 . S
C1838 H1828 0.950 . S
C1838 C1839 1.386 1_565 S
C1838 C1840 1.391 . S
C1839 C1838 1.386 1_545 S
C1839 C1843 1.393 . S
C1840 H1829 0.950 . S
C1840 C1838 1.391 . S
C1840 C1841 1.400 1_565 S
C1841 C1835 1.491 . S
C1841 C1840 1.400 1_545 S
C1841 C1842 1.398 . S
C1842 H1830 0.950 . S
C1842 C1841 1.398 . S
C1842 C1843 1.391 . S
C1843 H1831 0.950 . S
C1843 C1839 1.393 . S
C1843 C1842 1.391 . S
H1844 C1852 0.950 . S
H1845 C1857 0.950 . S
H1846 C1854 0.950 . S
H1847 C1856 0.950 . S
H1848 C1858 0.950 . S
H1849 C1860 0.950 . S
H1850 C1862 0.950 . S
H1851 C1863 0.950 . S
C1852 H1844 0.950 . S
C1852 C1853 1.386 . S
C1852 C1854 1.391 . S
C1853 C1852 1.386 . S
C1853 C1857 1.393 . S
C1854 H1846 0.950 . S
C1854 C1852 1.391 . S
C1854 C1855 1.400 . S
C1855 C1854 1.400 . S
C1855 C1856 1.398 . S
C1855 C1861 1.491 . S
C1856 H1847 0.950 . S
C1856 C1855 1.398 . S
C1856 C1857 1.391 . S
C1857 H1845 0.950 . S
C1857 C1853 1.393 . S
C1857 C1856 1.391 . S
C1858 H1848 0.950 . S
C1858 C1859 1.386 . S
C1858 C1860 1.391 . S
C1859 C1858 1.386 . S
C1859 C1863 1.393 . S
C1860 H1849 0.950 . S
C1860 C1858 1.391 . S
C1860 C1861 1.400 . S
C1861 C1855 1.491 . S
C1861 C1860 1.400 . S
C1861 C1862 1.398 . S
C1862 H1850 0.950 . S
C1862 C1861 1.398 . S
C1862 C1863 1.391 . S
C1863 H1851 0.950 . S
C1863 C1859 1.393 . S
C1863 C1862 1.391 . S
H1864 C1872 0.950 . S
H1865 C1877 0.950 . S
H1866 C1874 0.950 . S
H1867 C1876 0.950 . S
H1868 C1878 0.950 . S
H1869 C1880 0.950 . S
H1870 C1882 0.950 . S
H1871 C1883 0.950 . S
C1872 H1864 0.950 . S
C1872 C1873 1.386 . S
C1872 C1874 1.391 . S
C1873 C1872 1.386 . S
C1873 C1877 1.393 . S
C1874 H1866 0.950 . S
C1874 C1872 1.391 . S
C1874 C1875 1.400 . S
C1875 C1874 1.400 . S
C1875 C1876 1.398 . S
C1875 C1881 1.491 . S
C1876 H1867 0.950 . S
C1876 C1875 1.398 . S
C1876 C1877 1.391 . S
C1877 H1865 0.950 . S
C1877 C1873 1.393 . S
C1877 C1876 1.391 . S
C1878 H1868 0.950 . S
C1878 C1879 1.386 . S
C1878 C1880 1.391 . S
C1879 C1878 1.386 . S
C1879 C1883 1.393 . S
C1880 H1869 0.950 . S
C1880 C1878 1.391 . S
C1880 C1881 1.400 . S
C1881 C1875 1.491 . S
C1881 C1880 1.400 . S
C1881 C1882 1.398 . S
C1882 H1870 0.950 . S
C1882 C1881 1.398 . S
C1882 C1883 1.391 . S
C1883 H1871 0.950 . S
C1883 C1879 1.393 . S
C1883 C1882 1.391 . S
H1884 C1892 0.950 . S
H1885 C1897 0.950 . S
H1886 C1894 0.950 . S
H1887 C1896 0.950 . S
H1888 C1898 0.950 . S
H1889 C1900 0.950 . S
H1890 C1902 0.950 . S
H1891 C1903 0.950 . S
C1892 H1884 0.950 . S
C1892 C1893 1.386 . S
C1892 C1894 1.391 . S
C1893 C1892 1.386 . S
C1893 C1897 1.393 . S
C1894 H1886 0.950 . S
C1894 C1892 1.391 . S
C1894 C1895 1.400 . S
C1895 C1894 1.400 . S
C1895 C1896 1.398 . S
C1895 C1901 1.491 . S
C1896 H1887 0.950 . S
C1896 C1895 1.398 . S
C1896 C1897 1.391 . S
C1897 H1885 0.950 . S
C1897 C1893 1.393 . S
C1897 C1896 1.391 . S
C1898 H1888 0.950 . S
C1898 C1899 1.386 . S
C1898 C1900 1.391 . S
C1899 C1898 1.386 . S
C1899 C1903 1.393 . S
C1900 H1889 0.950 . S
C1900 C1898 1.391 . S
C1900 C1901 1.400 . S
C1901 C1895 1.491 . S
C1901 C1900 1.400 . S
C1901 C1902 1.398 . S
C1902 H1890 0.950 . S
C1902 C1901 1.398 . S
C1902 C1903 1.391 . S
C1903 H1891 0.950 . S
C1903 C1899 1.393 . S
C1903 C1902 1.391 . S
H1904 C1912 0.950 . S
H1905 C1917 0.950 . S
H1906 C1914 0.950 . S
H1907 C1916 0.950 . S
H1908 C1918 0.950 1_565 S
H1909 C1920 0.934 1_565 S
H1910 C1922 0.950 . S
H1911 C1923 0.950 . S
C1912 H1904 0.950 . S
C1912 C1913 1.386 1_545 S
C1912 C1914 1.391 . S
C1913 C1912 1.386 1_565 S
C1913 C1917 1.393 . S
C1914 H1906 0.950 . S
C1914 C1912 1.391 . S
C1914 C1915 1.400 . S
C1915 C1914 1.400 . S
C1915 C1916 1.398 1_545 S
C1915 C1921 1.491 . S
C1916 H1907 0.950 . S
C1916 C1915 1.398 1_565 S
C1916 C1917 1.391 . S
C1917 H1905 0.950 . S
C1917 C1913 1.393 . S
C1917 C1916 1.391 . S
C1918 H1908 0.950 1_545 S
C1918 C1919 1.386 . S
C1918 C1920 1.398 . S
C1919 C1918 1.386 . S
C1919 C1923 1.393 . S
C1920 H1909 0.934 1_545 S
C1920 C1918 1.398 . S
C1920 C1921 1.409 . S
C1921 C1915 1.491 . S
C1921 C1920 1.409 . S
C1921 C1922 1.398 . S
C1922 H1910 0.950 . S
C1922 C1921 1.398 . S
C1922 C1923 1.391 . S
C1923 H1911 0.950 . S
C1923 C1919 1.393 . S
C1923 C1922 1.391 . S
H1924 C1932 0.950 . S
H1925 C1937 0.950 . S
H1926 C1934 0.950 . S
H1927 C1936 0.950 . S
H1928 C1938 0.950 . S
H1929 C1940 0.950 . S
H1930 C1942 0.950 . S
H1931 C1943 0.950 . S
C1932 H1924 0.950 . S
C1932 C1933 1.386 . S
C1932 C1934 1.391 . S
C1933 C1932 1.386 . S
C1933 C1937 1.393 . S
C1934 H1926 0.950 . S
C1934 C1932 1.391 . S
C1934 C1935 1.400 . S
C1935 C1934 1.400 . S
C1935 C1936 1.398 . S
C1935 C1941 1.491 . S
C1936 H1927 0.950 . S
C1936 C1935 1.398 . S
C1936 C1937 1.391 . S
C1937 H1925 0.950 . S
C1937 C1933 1.393 . S
C1937 C1936 1.391 . S
C1938 H1928 0.950 . S
C1938 C1939 1.386 . S
C1938 C1940 1.391 . S
C1939 C1938 1.386 . S
C1939 C1943 1.393 . S
C1940 H1929 0.950 . S
C1940 C1938 1.391 . S
C1940 C1941 1.400 . S
C1941 C1935 1.491 . S
C1941 C1940 1.400 . S
C1941 C1942 1.398 . S
C1942 H1930 0.950 . S
C1942 C1941 1.398 . S
C1942 C1943 1.391 . S
C1943 H1931 0.950 . S
C1943 C1939 1.393 . S
C1943 C1942 1.391 . S
H1944 C1952 0.950 . S
H1945 C1957 0.950 . S
H1946 C1954 0.950 . S
H1947 C1956 0.950 . S
H1948 C1958 0.950 . S
H1949 C1960 0.950 . S
H1950 C1962 0.950 . S
H1951 C1963 0.950 . S
C1952 H1944 0.950 . S
C1952 C1953 1.386 . S
C1952 C1954 1.391 . S
C1953 C1952 1.386 . S
C1953 C1957 1.393 . S
C1954 H1946 0.950 . S
C1954 C1952 1.391 . S
C1954 C1955 1.400 . S
C1955 C1954 1.400 . S
C1955 C1956 1.398 . S
C1955 C1961 1.491 . S
C1956 H1947 0.950 . S
C1956 C1955 1.398 . S
C1956 C1957 1.391 . S
C1957 H1945 0.950 . S
C1957 C1953 1.393 . S
C1957 C1956 1.391 . S
C1958 H1948 0.950 . S
C1958 C1959 1.386 . S
C1958 C1960 1.391 . S
C1959 C1958 1.386 . S
C1959 C1963 1.393 . S
C1960 H1949 0.950 . S
C1960 C1958 1.391 . S
C1960 C1961 1.400 . S
C1961 C1955 1.491 . S
C1961 C1960 1.400 . S
C1961 C1962 1.398 . S
C1962 H1950 0.950 . S
C1962 C1961 1.398 . S
C1962 C1963 1.391 . S
C1963 H1951 0.950 . S
C1963 C1959 1.393 . S
C1963 C1962 1.391 . S
H1964 C1972 0.950 . S
H1965 C1977 0.950 . S
H1966 C1974 0.950 . S
H1967 C1976 0.950 . S
H1968 C1978 0.950 . S
H1969 C1980 0.950 . S
H1970 C1982 0.950 . S
H1971 C1983 0.950 . S
C1972 H1964 0.950 . S
C1972 C1973 1.386 . S
C1972 C1974 1.391 . S
C1973 C1972 1.386 . S
C1973 C1977 1.393 . S
C1974 H1966 0.950 . S
C1974 C1972 1.391 . S
C1974 C1975 1.400 . S
C1975 C1974 1.400 . S
C1975 C1976 1.398 . S
C1975 C1981 1.491 . S
C1976 H1967 0.950 . S
C1976 C1975 1.398 . S
C1976 C1977 1.391 . S
C1977 H1965 0.950 . S
C1977 C1973 1.393 . S
C1977 C1976 1.391 . S
C1978 H1968 0.950 . S
C1978 C1979 1.386 . S
C1978 C1980 1.391 . S
C1979 C1978 1.386 . S
C1979 C1983 1.393 . S
C1980 H1969 0.950 . S
C1980 C1978 1.391 . S
C1980 C1981 1.400 . S
C1981 C1975 1.491 . S
C1981 C1980 1.400 . S
C1981 C1982 1.398 . S
C1982 H1970 0.950 . S
C1982 C1981 1.398 . S
C1982 C1983 1.391 . S
C1983 H1971 0.950 . S
C1983 C1979 1.393 . S
C1983 C1982 1.391 . S
H1984 C1992 0.950 . S
H1985 C1997 0.950 . S
H1986 C1994 0.950 . S
H1987 C1996 0.950 . S
H1988 C1998 0.950 . S
H1989 C2000 0.950 . S
H1990 C2002 0.950 . S
H1991 C2003 0.950 . S
C1992 H1984 0.950 . S
C1992 C1993 1.389 1_556 S
C1992 C1994 1.391 . S
C1993 C1992 1.389 1_554 S
C1993 C1997 1.390 . S
C1994 H1986 0.950 . S
C1994 C1992 1.391 . S
C1994 C1995 1.433 . S
C1995 C1994 1.433 . S
C1995 C1996 1.364 1_556 S
C1995 C2001 1.493 . S
C1996 H1987 0.950 . S
C1996 C1995 1.364 1_554 S
C1996 C1997 1.391 . S
C1997 H1985 0.950 . S
C1997 C1993 1.390 . S
C1997 C1996 1.391 . S
C1998 H1988 0.950 . S
C1998 C1999 1.386 1_554 S
C1998 C2000 1.391 . S
C1999 C1998 1.386 1_556 S
C1999 C2003 1.393 . S
C2000 H1989 0.950 . S
C2000 C1998 1.391 . S
C2000 C2001 1.400 1_554 S
C2001 C1995 1.493 . S
C2001 C2000 1.400 1_556 S
C2001 C2002 1.398 . S
C2002 H1990 0.950 . S
C2002 C2001 1.398 . S
C2002 C2003 1.391 . S
C2003 H1991 0.950 . S
C2003 C1999 1.393 . S
C2003 C2002 1.391 . S
H2004 C2012 0.950 . S
H2005 C2017 0.978 . S
H2006 C2014 0.950 . S
H2007 C2016 0.952 . S
H2008 C2018 0.950 1_556 S
H2009 C2020 0.950 1_556 S
H2010 C2022 0.950 . S
H2011 C2023 0.950 . S
C2012 H2004 0.950 . S
C2012 C2013 1.386 . S
C2012 C2014 1.391 . S
C2013 C2012 1.386 . S
C2013 C2017 1.393 . S
C2014 H2006 0.950 . S
C2014 C2012 1.391 . S
C2014 C2015 1.400 . S
C2015 C2014 1.400 . S
C2015 C2016 1.398 . S
C2015 C2021 1.491 . S
C2016 H2007 0.952 . S
C2016 C2015 1.398 . S
C2016 C2017 1.391 . S
C2017 H2005 0.978 . S
C2017 C2013 1.393 . S
C2017 C2016 1.391 . S
C2018 H2008 0.950 1_554 S
C2018 C2019 1.386 . S
C2018 C2020 1.391 . S
C2019 C2018 1.386 . S
C2019 C2023 1.393 . S
C2020 H2009 0.950 1_554 S
C2020 C2018 1.391 . S
C2020 C2021 1.400 . S
C2021 C2015 1.491 . S
C2021 C2020 1.400 . S
C2021 C2022 1.398 . S
C2022 H2010 0.950 . S
C2022 C2021 1.398 . S
C2022 C2023 1.391 . S
C2023 H2011 0.950 . S
C2023 C2019 1.393 . S
C2023 C2022 1.391 . S
H2024 C2032 0.950 . S
H2025 C2037 0.950 . S
H2026 C2034 0.950 . S
H2027 C2036 0.950 . S
H2028 C2038 0.950 . S
H2029 C2040 0.950 . S
H2030 C2042 0.950 . S
H2031 C2043 0.950 . S
C2032 H2024 0.950 . S
C2032 C2033 1.386 . S
C2032 C2034 1.391 . S
C2033 C2032 1.386 . S
C2033 C2037 1.393 . S
C2034 H2026 0.950 . S
C2034 C2032 1.391 . S
C2034 C2035 1.400 . S
C2035 C2034 1.400 . S
C2035 C2036 1.398 . S
C2035 C2041 1.491 . S
C2036 H2027 0.950 . S
C2036 C2035 1.398 . S
C2036 C2037 1.391 . S
C2037 H2025 0.950 . S
C2037 C2033 1.393 . S
C2037 C2036 1.391 . S
C2038 H2028 0.950 . S
C2038 C2039 1.386 . S
C2038 C2040 1.391 . S
C2039 C2038 1.386 . S
C2039 C2043 1.393 . S
C2040 H2029 0.950 . S
C2040 C2038 1.391 . S
C2040 C2041 1.400 . S
C2041 C2035 1.491 . S
C2041 C2040 1.400 . S
C2041 C2042 1.398 . S
C2042 H2030 0.950 . S
C2042 C2041 1.398 . S
C2042 C2043 1.391 . S
C2043 H2031 0.950 . S
C2043 C2039 1.393 . S
C2043 C2042 1.391 . S
H2044 C2052 0.950 . S
H2045 C2057 0.950 . S
H2046 C2054 0.950 . S
H2047 C2056 0.950 . S
H2048 C2058 0.950 . S
H2049 C2060 0.950 . S
H2050 C2062 0.950 . S
H2051 C2063 0.950 . S
C2052 H2044 0.950 . S
C2052 C2053 1.386 . S
C2052 C2054 1.391 . S
C2053 C2052 1.386 . S
C2053 C2057 1.393 . S
C2054 H2046 0.950 . S
C2054 C2052 1.391 . S
C2054 C2055 1.400 . S
C2055 C2054 1.400 . S
C2055 C2056 1.398 . S
C2055 C2061 1.491 . S
C2056 H2047 0.950 . S
C2056 C2055 1.398 . S
C2056 C2057 1.391 . S
C2057 H2045 0.950 . S
C2057 C2053 1.393 . S
C2057 C2056 1.391 . S
C2058 H2048 0.950 . S
C2058 C2059 1.386 . S
C2058 C2060 1.391 . S
C2059 C2058 1.386 . S
C2059 C2063 1.393 . S
C2060 H2049 0.950 . S
C2060 C2058 1.391 . S
C2060 C2061 1.400 . S
C2061 C2055 1.491 . S
C2061 C2060 1.400 . S
C2061 C2062 1.398 . S
C2062 H2050 0.950 . S
C2062 C2061 1.398 . S
C2062 C2063 1.391 . S
C2063 H2051 0.950 . S
C2063 C2059 1.393 . S
C2063 C2062 1.391 . S
H2064 C2072 0.950 . S
H2065 C2077 0.950 . S
H2066 C2074 0.950 . S
H2067 C2076 0.950 . S
H2068 C2078 0.950 . S
H2069 C2080 0.950 . S
H2070 C2082 0.950 . S
H2071 C2083 0.950 . S
C2072 H2064 0.950 . S
C2072 C2073 1.386 . S
C2072 C2074 1.391 . S
C2073 C2072 1.386 . S
C2073 C2077 1.393 . S
C2074 H2066 0.950 . S
C2074 C2072 1.391 . S
C2074 C2075 1.400 . S
C2075 C2074 1.400 . S
C2075 C2076 1.398 . S
C2075 C2081 1.491 . S
C2076 H2067 0.950 . S
C2076 C2075 1.398 . S
C2076 C2077 1.391 . S
C2077 H2065 0.950 . S
C2077 C2073 1.393 . S
C2077 C2076 1.391 . S
C2078 H2068 0.950 . S
C2078 C2079 1.386 . S
C2078 C2080 1.391 . S
C2079 C2078 1.386 . S
C2079 C2083 1.393 . S
C2080 H2069 0.950 . S
C2080 C2078 1.391 . S
C2080 C2081 1.400 . S
C2081 C2075 1.491 . S
C2081 C2080 1.400 . S
C2081 C2082 1.398 . S
C2082 H2070 0.950 . S
C2082 C2081 1.398 . S
C2082 C2083 1.391 . S
C2083 H2071 0.950 . S
C2083 C2079 1.393 . S
C2083 C2082 1.391 . S
H2084 C2092 0.950 . S
H2085 C2097 0.950 . S
H2086 C2094 0.950 . S
H2087 C2096 0.950 . S
H2088 C2098 0.950 . S
H2089 C2100 0.950 . S
H2090 C2102 0.950 . S
H2091 C2103 0.950 . S
C2092 H2084 0.950 . S
C2092 C2093 1.386 . S
C2092 C2094 1.391 . S
C2093 C2092 1.386 . S
C2093 C2097 1.393 . S
C2094 H2086 0.950 . S
C2094 C2092 1.391 . S
C2094 C2095 1.400 . S
C2095 C2094 1.400 . S
C2095 C2096 1.398 . S
C2095 C2101 1.491 . S
C2096 H2087 0.950 . S
C2096 C2095 1.398 . S
C2096 C2097 1.391 . S
C2097 H2085 0.950 . S
C2097 C2093 1.393 . S
C2097 C2096 1.391 . S
C2098 H2088 0.950 . S
C2098 C2099 1.386 . S
C2098 C2100 1.391 . S
C2099 C2098 1.386 . S
C2099 C2103 1.393 1_565 S
C2100 H2089 0.950 . S
C2100 C2098 1.391 . S
C2100 C2101 1.400 . S
C2101 C2095 1.491 . S
C2101 C2100 1.400 . S
C2101 C2102 1.398 . S
C2102 H2090 0.950 . S
C2102 C2101 1.398 . S
C2102 C2103 1.391 1_565 S
C2103 H2091 0.950 . S
C2103 C2099 1.393 1_545 S
C2103 C2102 1.391 1_545 S
H2104 C2112 0.950 . S
H2105 C2117 0.950 . S
H2106 C2114 0.950 . S
H2107 C2116 0.950 . S
H2108 C2118 0.950 . S
H2109 C2120 0.950 . S
H2110 C2122 0.950 . S
H2111 C2123 0.950 . S
C2112 H2104 0.950 . S
C2112 C2113 1.386 . S
C2112 C2114 1.391 . S
C2113 C2112 1.386 . S
C2113 C2117 1.393 . S
C2114 H2106 0.950 . S
C2114 C2112 1.391 . S
C2114 C2115 1.400 . S
C2115 C2114 1.400 . S
C2115 C2116 1.398 . S
C2115 C2121 1.491 . S
C2116 H2107 0.950 . S
C2116 C2115 1.398 . S
C2116 C2117 1.391 . S
C2117 H2105 0.950 . S
C2117 C2113 1.393 . S
C2117 C2116 1.391 . S
C2118 H2108 0.950 . S
C2118 C2119 1.386 . S
C2118 C2120 1.391 . S
C2119 C2118 1.386 . S
C2119 C2123 1.393 . S
C2120 H2109 0.950 . S
C2120 C2118 1.391 . S
C2120 C2121 1.400 . S
C2121 C2115 1.491 . S
C2121 C2120 1.400 . S
C2121 C2122 1.398 . S
C2122 H2110 0.950 . S
C2122 C2121 1.398 . S
C2122 C2123 1.391 . S
C2123 H2111 0.950 . S
C2123 C2119 1.393 . S
C2123 C2122 1.391 . S
H2124 C2132 0.950 . S
H2125 C2137 0.950 . S
H2126 C2134 0.950 . S
H2127 C2136 0.950 . S
H2128 C2138 0.950 . S
H2129 C2140 0.950 . S
H2130 C2142 0.950 . S
H2131 C2143 0.950 . S
C2132 H2124 0.950 . S
C2132 C2133 1.386 . S
C2132 C2134 1.391 . S
C2133 C2132 1.386 . S
C2133 C2137 1.393 . S
C2134 H2126 0.950 . S
C2134 C2132 1.391 . S
C2134 C2135 1.400 . S
C2135 C2134 1.400 . S
C2135 C2136 1.398 . S
C2135 C2141 1.491 . S
C2136 H2127 0.950 . S
C2136 C2135 1.398 . S
C2136 C2137 1.391 . S
C2137 H2125 0.950 . S
C2137 C2133 1.393 . S
C2137 C2136 1.391 . S
C2138 H2128 0.950 . S
C2138 C2139 1.386 . S
C2138 C2140 1.391 . S
C2139 C2138 1.386 . S
C2139 C2143 1.393 . S
C2140 H2129 0.950 . S
C2140 C2138 1.391 . S
C2140 C2141 1.400 . S
C2141 C2135 1.491 . S
C2141 C2140 1.400 . S
C2141 C2142 1.398 . S
C2142 H2130 0.950 . S
C2142 C2141 1.398 . S
C2142 C2143 1.391 . S
C2143 H2131 0.950 . S
C2143 C2139 1.393 . S
C2143 C2142 1.391 . S
H2144 C2152 0.950 . S
H2145 C2157 0.950 . S
H2146 C2154 0.950 . S
H2147 C2156 0.950 . S
H2148 C2158 0.950 . S
H2149 C2160 0.950 . S
H2150 C2162 0.950 . S
H2151 C2163 0.950 . S
C2152 H2144 0.950 . S
C2152 C2153 1.386 . S
C2152 C2154 1.391 . S
C2153 C2152 1.386 . S
C2153 C2157 1.393 . S
C2154 H2146 0.950 . S
C2154 C2152 1.391 . S
C2154 C2155 1.400 . S
C2155 C2154 1.400 . S
C2155 C2156 1.398 . S
C2155 C2161 1.491 . S
C2156 H2147 0.950 . S
C2156 C2155 1.398 . S
C2156 C2157 1.391 . S
C2157 H2145 0.950 . S
C2157 C2153 1.393 . S
C2157 C2156 1.391 . S
C2158 H2148 0.950 . S
C2158 C2159 1.386 . S
C2158 C2160 1.391 . S
C2159 C2158 1.386 . S
C2159 C2163 1.393 . S
C2160 H2149 0.950 . S
C2160 C2158 1.391 . S
C2160 C2161 1.400 . S
C2161 C2155 1.491 . S
C2161 C2160 1.400 . S
C2161 C2162 1.398 . S
C2162 H2150 0.950 . S
C2162 C2161 1.398 . S
C2162 C2163 1.391 . S
C2163 H2151 0.950 . S
C2163 C2159 1.393 . S
C2163 C2162 1.391 . S
H2164 C2172 0.950 . S
H2165 C2177 0.950 . S
H2166 C2174 0.950 . S
H2167 C2176 0.950 . S
H2168 C2178 0.950 . S
H2169 C2180 0.950 . S
H2170 C2182 0.950 . S
H2171 C2183 0.950 . S
C2172 H2164 0.950 . S
C2172 C2173 1.386 . S
C2172 C2174 1.391 . S
C2173 C2172 1.386 . S
C2173 C2177 1.393 . S
C2174 H2166 0.950 . S
C2174 C2172 1.391 . S
C2174 C2175 1.400 . S
C2175 C2174 1.400 . S
C2175 C2176 1.398 . S
C2175 C2181 1.491 . S
C2176 H2167 0.950 . S
C2176 C2175 1.398 . S
C2176 C2177 1.391 . S
C2177 H2165 0.950 . S
C2177 C2173 1.393 . S
C2177 C2176 1.391 . S
C2178 H2168 0.950 . S
C2178 C2179 1.386 . S
C2178 C2180 1.391 . S
C2179 C2178 1.386 . S
C2179 C2183 1.393 . S
C2180 H2169 0.950 . S
C2180 C2178 1.391 . S
C2180 C2181 1.400 . S
C2181 C2175 1.491 . S
C2181 C2180 1.400 . S
C2181 C2182 1.398 . S
C2182 H2170 0.950 . S
C2182 C2181 1.398 . S
C2182 C2183 1.391 . S
C2183 H2171 0.950 . S
C2183 C2179 1.393 . S
C2183 C2182 1.391 . S
H2184 C2192 0.950 . S
H2185 C2197 0.950 . S
H2186 C2194 0.950 . S
H2187 C2196 0.950 . S
H2188 C2198 0.950 . S
H2189 C2200 0.950 . S
H2190 C2202 0.950 . S
H2191 C2203 0.950 . S
C2192 H2184 0.950 . S
C2192 C2193 1.386 . S
C2192 C2194 1.391 . S
C2193 C2192 1.386 . S
C2193 C2197 1.393 1_455 S
C2194 H2186 0.950 . S
C2194 C2192 1.391 . S
C2194 C2195 1.400 . S
C2195 C2194 1.400 . S
C2195 C2196 1.398 1_455 S
C2195 C2201 1.491 . S
C2196 H2187 0.950 . S
C2196 C2195 1.398 1_655 S
C2196 C2197 1.391 . S
C2197 H2185 0.950 . S
C2197 C2193 1.393 1_655 S
C2197 C2196 1.391 . S
C2198 H2188 0.950 . S
C2198 C2199 1.386 1_655 S
C2198 C2200 1.391 . S
C2199 C2198 1.386 1_455 S
C2199 C2203 1.393 . S
C2200 H2189 0.950 . S
C2200 C2198 1.391 . S
C2200 C2201 1.400 1_655 S
C2201 C2195 1.491 . S
C2201 C2200 1.400 1_455 S
C2201 C2202 1.398 . S
C2202 H2190 0.950 . S
C2202 C2201 1.398 . S
C2202 C2203 1.391 . S
C2203 H2191 0.950 . S
C2203 C2199 1.393 . S
C2203 C2202 1.391 . S
H2204 C2212 0.950 . S
H2205 C2217 0.950 . S
H2206 C2214 0.950 . S
H2207 C2216 0.950 . S
H2208 C2218 0.950 . S
H2209 C2220 0.950 . S
H2210 C2222 0.950 . S
H2211 C2223 0.950 . S
C2212 H2204 0.950 . S
C2212 C2213 1.386 . S
C2212 C2214 1.391 . S
C2213 C2212 1.386 . S
C2213 C2217 1.393 . S
C2214 H2206 0.950 . S
C2214 C2212 1.391 . S
C2214 C2215 1.400 . S
C2215 C2214 1.400 . S
C2215 C2216 1.398 . S
C2215 C2221 1.491 . S
C2216 H2207 0.950 . S
C2216 C2215 1.398 . S
C2216 C2217 1.391 . S
C2217 H2205 0.950 . S
C2217 C2213 1.393 . S
C2217 C2216 1.391 . S
C2218 H2208 0.950 . S
C2218 C2219 1.386 . S
C2218 C2220 1.391 . S
C2219 C2218 1.386 . S
C2219 C2223 1.393 . S
C2220 H2209 0.950 . S
C2220 C2218 1.391 . S
C2220 C2221 1.400 . S
C2221 C2215 1.491 . S
C2221 C2220 1.400 . S
C2221 C2222 1.398 . S
C2222 H2210 0.950 . S
C2222 C2221 1.398 . S
C2222 C2223 1.391 . S
C2223 H2211 0.950 . S
C2223 C2219 1.393 . S
C2223 C2222 1.391 . S
H2224 C2232 0.950 . S
H2225 C2237 0.950 . S
H2226 C2234 0.950 . S
H2227 C2236 0.950 . S
H2228 C2238 0.950 . S
H2229 C2240 0.950 . S
H2230 C2242 0.950 . S
H2231 C2243 0.950 . S
C2232 H2224 0.950 . S
C2232 C2233 1.386 . S
C2232 C2234 1.391 . S
C2233 C2232 1.386 . S
C2233 C2237 1.393 . S
C2234 H2226 0.950 . S
C2234 C2232 1.391 . S
C2234 C2235 1.400 . S
C2235 C2234 1.400 . S
C2235 C2236 1.398 . S
C2235 C2241 1.491 . S
C2236 H2227 0.950 . S
C2236 C2235 1.398 . S
C2236 C2237 1.391 . S
C2237 H2225 0.950 . S
C2237 C2233 1.393 . S
C2237 C2236 1.391 . S
C2238 H2228 0.950 . S
C2238 C2239 1.386 . S
C2238 C2240 1.391 . S
C2239 C2238 1.386 . S
C2239 C2243 1.393 . S
C2240 H2229 0.950 . S
C2240 C2238 1.391 . S
C2240 C2241 1.400 . S
C2241 C2235 1.491 . S
C2241 C2240 1.400 . S
C2241 C2242 1.398 . S
C2242 H2230 0.950 . S
C2242 C2241 1.398 . S
C2242 C2243 1.391 . S
C2243 H2231 0.950 . S
C2243 C2239 1.393 . S
C2243 C2242 1.391 . S
H2244 C2252 0.950 . S
H2245 C2257 0.950 . S
H2246 C2254 0.950 . S
H2247 C2256 0.950 . S
H2248 C2258 0.950 . S
H2249 C2260 0.950 . S
H2250 C2262 0.950 . S
H2251 C2263 0.950 . S
C2252 H2244 0.950 . S
C2252 C2253 1.386 . S
C2252 C2254 1.391 . S
C2253 C2252 1.386 . S
C2253 C2257 1.393 . S
C2254 H2246 0.950 . S
C2254 C2252 1.391 . S
C2254 C2255 1.400 . S
C2255 C2254 1.400 . S
C2255 C2256 1.398 . S
C2255 C2261 1.491 . S
C2256 H2247 0.950 . S
C2256 C2255 1.398 . S
C2256 C2257 1.391 . S
C2257 H2245 0.950 . S
C2257 C2253 1.393 . S
C2257 C2256 1.391 . S
C2258 H2248 0.950 . S
C2258 C2259 1.386 . S
C2258 C2260 1.391 . S
C2259 C2258 1.386 . S
C2259 C2263 1.393 . S
C2260 H2249 0.950 . S
C2260 C2258 1.391 . S
C2260 C2261 1.400 . S
C2261 C2255 1.491 . S
C2261 C2260 1.400 . S
C2261 C2262 1.398 . S
C2262 H2250 0.950 . S
C2262 C2261 1.398 . S
C2262 C2263 1.391 . S
C2263 H2251 0.950 . S
C2263 C2259 1.393 . S
C2263 C2262 1.391 . S
H2264 C2272 0.950 . S
H2265 C2277 0.950 . S
H2266 C2274 0.950 . S
H2267 C2276 0.950 . S
H2268 C2278 0.950 . S
H2269 C2280 0.950 . S
H2270 C2282 0.950 . S
H2271 C2283 0.950 . S
C2272 H2264 0.950 . S
C2272 C2273 1.383 1_455 S
C2272 C2274 1.394 . S
C2273 C2272 1.383 1_655 S
C2273 C2277 1.393 . S
C2274 H2266 0.950 . S
C2274 C2272 1.394 . S
C2274 C2275 1.400 1_455 S
C2275 C2274 1.400 1_655 S
C2275 C2276 1.398 . S
C2275 C2281 1.491 . S
C2276 H2267 0.950 . S
C2276 C2275 1.398 . S
C2276 C2277 1.391 . S
C2277 H2265 0.950 . S
C2277 C2273 1.393 . S
C2277 C2276 1.391 . S
C2278 H2268 0.950 . S
C2278 C2279 1.387 . S
C2278 C2280 1.391 . S
C2279 C2278 1.387 . S
C2279 C2283 1.393 1_655 S
C2280 H2269 0.950 . S
C2280 C2278 1.391 . S
C2280 C2281 1.400 . S
C2281 C2275 1.491 . S
C2281 C2280 1.400 . S
C2281 C2282 1.398 1_655 S
C2282 H2270 0.950 . S
C2282 C2281 1.398 1_455 S
C2282 C2283 1.391 . S
C2283 H2271 0.950 . S
C2283 C2279 1.393 1_455 S
C2283 C2282 1.391 . S
H2284 C2292 0.950 . S
H2285 C2297 0.950 . S
H2286 C2294 0.950 . S
H2287 C2296 0.950 . S
H2288 C2298 0.950 . S
H2289 C2300 0.950 . S
H2290 C2302 0.950 . S
H2291 C2303 0.950 . S
C2292 H2284 0.950 . S
C2292 C2293 1.386 . S
C2292 C2294 1.391 . S
C2293 C2292 1.386 . S
C2293 C2297 1.393 . S
C2294 H2286 0.950 . S
C2294 C2292 1.391 . S
C2294 C2295 1.400 . S
C2295 C2294 1.400 . S
C2295 C2296 1.398 . S
C2295 C2301 1.491 . S
C2296 H2287 0.950 . S
C2296 C2295 1.398 . S
C2296 C2297 1.391 . S
C2297 H2285 0.950 . S
C2297 C2293 1.393 . S
C2297 C2296 1.391 . S
C2298 H2288 0.950 . S
C2298 C2299 1.386 . S
C2298 C2300 1.391 . S
C2299 C2298 1.386 . S
C2299 C2303 1.393 . S
C2300 H2289 0.950 . S
C2300 C2298 1.391 . S
C2300 C2301 1.400 . S
C2301 C2295 1.491 . S
C2301 C2300 1.400 . S
C2301 C2302 1.398 . S
C2302 H2290 0.950 . S
C2302 C2301 1.398 . S
C2302 C2303 1.391 . S
C2303 H2291 0.950 . S
C2303 C2299 1.393 . S
C2303 C2302 1.391 . S
H2304 C2312 0.950 . S
H2305 C2317 0.950 . S
H2306 C2314 0.950 . S
H2307 C2316 0.950 . S
H2308 C2318 0.950 . S
H2309 C2320 0.950 . S
H2310 C2322 0.950 . S
H2311 C2323 0.950 . S
C2312 H2304 0.950 . S
C2312 C2313 1.386 . S
C2312 C2314 1.391 . S
C2313 C2312 1.386 . S
C2313 C2317 1.393 . S
C2314 H2306 0.950 . S
C2314 C2312 1.391 . S
C2314 C2315 1.400 . S
C2315 C2314 1.400 . S
C2315 C2316 1.398 . S
C2315 C2321 1.491 . S
C2316 H2307 0.950 . S
C2316 C2315 1.398 . S
C2316 C2317 1.391 . S
C2317 H2305 0.950 . S
C2317 C2313 1.393 . S
C2317 C2316 1.391 . S
C2318 H2308 0.950 . S
C2318 C2319 1.386 . S
C2318 C2320 1.391 . S
C2319 C2318 1.386 . S
C2319 C2323 1.393 . S
C2320 H2309 0.950 . S
C2320 C2318 1.391 . S
C2320 C2321 1.400 . S
C2321 C2315 1.491 . S
C2321 C2320 1.400 . S
C2321 C2322 1.398 . S
C2322 H2310 0.950 . S
C2322 C2321 1.398 . S
C2322 C2323 1.391 . S
C2323 H2311 0.950 . S
C2323 C2319 1.393 . S
C2323 C2322 1.391 . S
H2324 C2332 0.950 . S
H2325 C2337 0.950 . S
H2326 C2334 0.950 . S
H2327 C2336 0.950 . S
H2328 C2338 0.950 . S
H2329 C2340 0.950 . S
H2330 C2342 0.950 . S
H2331 C2343 0.950 . S
C2332 H2324 0.950 . S
C2332 C2333 1.386 . S
C2332 C2334 1.391 . S
C2333 C2332 1.386 . S
C2333 C2337 1.393 . S
C2334 H2326 0.950 . S
C2334 C2332 1.391 . S
C2334 C2335 1.400 . S
C2335 C2334 1.400 . S
C2335 C2336 1.398 . S
C2335 C2341 1.491 . S
C2336 H2327 0.950 . S
C2336 C2335 1.398 . S
C2336 C2337 1.391 . S
C2337 H2325 0.950 . S
C2337 C2333 1.393 . S
C2337 C2336 1.391 . S
C2338 H2328 0.950 . S
C2338 C2339 1.386 . S
C2338 C2340 1.391 . S
C2339 C2338 1.386 . S
C2339 C2343 1.393 . S
C2340 H2329 0.950 . S
C2340 C2338 1.391 . S
C2340 C2341 1.400 . S
C2341 C2335 1.491 . S
C2341 C2340 1.400 . S
C2341 C2342 1.398 . S
C2342 H2330 0.950 . S
C2342 C2341 1.398 . S
C2342 C2343 1.391 . S
C2343 H2331 0.950 . S
C2343 C2339 1.393 . S
C2343 C2342 1.391 . S
H2344 C2352 0.950 . S
H2345 C2357 0.950 . S
H2346 C2354 0.950 . S
H2347 C2356 0.950 . S
H2348 C2358 0.950 . S
H2349 C2360 0.950 . S
H2350 C2362 0.950 . S
H2351 C2363 0.950 . S
C2352 H2344 0.950 . S
C2352 C2353 1.386 . S
C2352 C2354 1.391 . S
C2353 C2352 1.386 . S
C2353 C2357 1.393 . S
C2354 H2346 0.950 . S
C2354 C2352 1.391 . S
C2354 C2355 1.400 . S
C2355 C2354 1.400 . S
C2355 C2356 1.398 . S
C2355 C2361 1.491 . S
C2356 H2347 0.950 . S
C2356 C2355 1.398 . S
C2356 C2357 1.391 . S
C2357 H2345 0.950 . S
C2357 C2353 1.393 . S
C2357 C2356 1.391 . S
C2358 H2348 0.950 . S
C2358 C2359 1.386 . S
C2358 C2360 1.391 . S
C2359 C2358 1.386 . S
C2359 C2363 1.393 . S
C2360 H2349 0.950 . S
C2360 C2358 1.391 . S
C2360 C2361 1.400 . S
C2361 C2355 1.491 . S
C2361 C2360 1.400 . S
C2361 C2362 1.398 . S
C2362 H2350 0.950 . S
C2362 C2361 1.398 . S
C2362 C2363 1.391 . S
C2363 H2351 0.950 . S
C2363 C2359 1.393 . S
C2363 C2362 1.391 . S
H2364 C2372 0.950 . S
H2365 C2377 0.950 . S
H2366 C2374 0.950 . S
H2367 C2376 0.950 . S
H2368 C2378 0.950 . S
H2369 C2380 0.950 . S
H2370 C2382 0.950 . S
H2371 C2383 0.950 . S
C2372 H2364 0.950 . S
C2372 C2373 1.386 . S
C2372 C2374 1.391 . S
C2373 C2372 1.386 . S
C2373 C2377 1.393 . S
C2374 H2366 0.950 . S
C2374 C2372 1.391 . S
C2374 C2375 1.400 . S
C2375 C2374 1.400 . S
C2375 C2376 1.398 . S
C2375 C2381 1.491 . S
C2376 H2367 0.950 . S
C2376 C2375 1.398 . S
C2376 C2377 1.391 . S
C2377 H2365 0.950 . S
C2377 C2373 1.393 . S
C2377 C2376 1.391 . S
C2378 H2368 0.950 . S
C2378 C2379 1.386 . S
C2378 C2380 1.391 . S
C2379 C2378 1.386 . S
C2379 C2383 1.393 . S
C2380 H2369 0.950 . S
C2380 C2378 1.391 . S
C2380 C2381 1.400 . S
C2381 C2375 1.491 . S
C2381 C2380 1.400 . S
C2381 C2382 1.398 . S
C2382 H2370 0.950 . S
C2382 C2381 1.398 . S
C2382 C2383 1.391 . S
C2383 H2371 0.950 . S
C2383 C2379 1.393 . S
C2383 C2382 1.391 . S
H2384 C2392 0.950 . S
H2385 C2397 0.950 . S
H2386 C2394 0.950 . S
H2387 C2396 0.950 . S
H2388 C2398 0.950 . S
H2389 C2400 0.950 . S
H2390 C2402 0.950 . S
H2391 C2403 0.950 . S
C2392 H2384 0.950 . S
C2392 C2393 1.386 . S
C2392 C2394 1.391 . S
C2393 C2392 1.386 . S
C2393 C2397 1.393 . S
C2394 H2386 0.950 . S
C2394 C2392 1.391 . S
C2394 C2395 1.400 . S
C2395 C2394 1.400 . S
C2395 C2396 1.398 . S
C2395 C2401 1.491 . S
C2396 H2387 0.950 . S
C2396 C2395 1.398 . S
C2396 C2397 1.391 . S
C2397 H2385 0.950 . S
C2397 C2393 1.393 . S
C2397 C2396 1.391 . S
C2398 H2388 0.950 . S
C2398 C2399 1.386 . S
C2398 C2400 1.391 . S
C2399 C2398 1.386 . S
C2399 C2403 1.393 . S
C2400 H2389 0.950 . S
C2400 C2398 1.391 . S
C2400 C2401 1.400 . S
C2401 C2395 1.491 . S
C2401 C2400 1.400 . S
C2401 C2402 1.398 . S
C2402 H2390 0.950 . S
C2402 C2401 1.398 . S
C2402 C2403 1.391 . S
C2403 H2391 0.950 . S
C2403 C2399 1.393 . S
C2403 C2402 1.391 . S
H2404 C2412 0.950 . S
H2405 C2417 0.950 . S
H2406 C2414 0.950 . S
H2407 C2416 0.950 . S
H2408 C2418 0.950 . S
H2409 C2420 0.950 . S
H2410 C2422 0.950 . S
H2411 C2423 0.950 . S
C2412 H2404 0.950 . S
C2412 C2413 1.386 . S
C2412 C2414 1.391 . S
C2413 C2412 1.386 . S
C2413 C2417 1.393 . S
C2414 H2406 0.950 . S
C2414 C2412 1.391 . S
C2414 C2415 1.400 . S
C2415 C2414 1.400 . S
C2415 C2416 1.398 . S
C2415 C2421 1.491 . S
C2416 H2407 0.950 . S
C2416 C2415 1.398 . S
C2416 C2417 1.391 . S
C2417 H2405 0.950 . S
C2417 C2413 1.393 . S
C2417 C2416 1.391 . S
C2418 H2408 0.950 . S
C2418 C2419 1.386 . S
C2418 C2420 1.391 . S
C2419 C2418 1.386 . S
C2419 C2423 1.393 . S
C2420 H2409 0.950 . S
C2420 C2418 1.391 . S
C2420 C2421 1.400 . S
C2421 C2415 1.491 . S
C2421 C2420 1.400 . S
C2421 C2422 1.398 . S
C2422 H2410 0.950 . S
C2422 C2421 1.398 . S
C2422 C2423 1.391 . S
C2423 H2411 0.950 . S
C2423 C2419 1.393 . S
C2423 C2422 1.391 . S
H2424 C2432 0.950 . S
H2425 C2437 0.950 . S
H2426 C2434 0.950 . S
H2427 C2436 0.950 . S
H2428 C2438 0.950 . S
H2429 C2440 0.950 . S
H2430 C2442 0.950 . S
H2431 C2443 0.950 . S
C2432 H2424 0.950 . S
C2432 C2433 1.386 . S
C2432 C2434 1.391 . S
C2433 C2432 1.386 . S
C2433 C2437 1.393 . S
C2434 H2426 0.950 . S
C2434 C2432 1.391 . S
C2434 C2435 1.400 . S
C2435 C2434 1.400 . S
C2435 C2436 1.398 . S
C2435 C2441 1.491 . S
C2436 H2427 0.950 . S
C2436 C2435 1.398 . S
C2436 C2437 1.391 . S
C2437 H2425 0.950 . S
C2437 C2433 1.393 . S
C2437 C2436 1.391 . S
C2438 H2428 0.950 . S
C2438 C2439 1.386 . S
C2438 C2440 1.391 . S
C2439 C2438 1.386 . S
C2439 C2443 1.393 . S
C2440 H2429 0.950 . S
C2440 C2438 1.391 . S
C2440 C2441 1.400 . S
C2441 C2435 1.491 . S
C2441 C2440 1.400 . S
C2441 C2442 1.398 . S
C2442 H2430 0.950 . S
C2442 C2441 1.398 . S
C2442 C2443 1.391 . S
C2443 H2431 0.950 . S
C2443 C2439 1.393 . S
C2443 C2442 1.391 . S
H2444 C2452 0.950 . S
H2445 C2457 0.950 . S
H2446 C2454 0.950 . S
H2447 C2456 0.950 . S
H2448 C2458 0.950 . S
H2449 C2460 0.950 . S
H2450 C2462 0.950 . S
H2451 C2463 0.950 . S
C2452 H2444 0.950 . S
C2452 C2453 1.386 . S
C2452 C2454 1.391 . S
C2453 C2452 1.386 . S
C2453 C2457 1.393 . S
C2454 H2446 0.950 . S
C2454 C2452 1.391 . S
C2454 C2455 1.400 . S
C2455 C2454 1.400 . S
C2455 C2456 1.398 . S
C2455 C2461 1.491 . S
C2456 H2447 0.950 . S
C2456 C2455 1.398 . S
C2456 C2457 1.391 . S
C2457 H2445 0.950 . S
C2457 C2453 1.393 . S
C2457 C2456 1.391 . S
C2458 H2448 0.950 . S
C2458 C2459 1.386 . S
C2458 C2460 1.391 . S
C2459 C2458 1.386 . S
C2459 C2463 1.393 . S
C2460 H2449 0.950 . S
C2460 C2458 1.391 . S
C2460 C2461 1.400 . S
C2461 C2455 1.491 . S
C2461 C2460 1.400 . S
C2461 C2462 1.398 . S
C2462 H2450 0.950 . S
C2462 C2461 1.398 . S
C2462 C2463 1.391 . S
C2463 H2451 0.950 . S
C2463 C2459 1.393 . S
C2463 C2462 1.391 . S
H2464 C2472 0.950 . S
H2465 C2477 0.950 . S
H2466 C2474 0.950 . S
H2467 C2476 0.950 . S
H2468 C2478 0.950 . S
H2469 C2480 0.950 . S
H2470 C2482 0.950 . S
H2471 C2483 0.950 . S
C2472 H2464 0.950 . S
C2472 C2473 1.386 . S
C2472 C2474 1.391 . S
C2473 C2472 1.386 . S
C2473 C2477 1.393 . S
C2474 H2466 0.950 . S
C2474 C2472 1.391 . S
C2474 C2475 1.400 . S
C2475 C2474 1.400 . S
C2475 C2476 1.398 . S
C2475 C2481 1.491 . S
C2476 H2467 0.950 . S
C2476 C2475 1.398 . S
C2476 C2477 1.391 . S
C2477 H2465 0.950 . S
C2477 C2473 1.393 . S
C2477 C2476 1.391 . S
C2478 H2468 0.950 . S
C2478 C2479 1.386 . S
C2478 C2480 1.391 . S
C2479 C2478 1.386 . S
C2479 C2483 1.393 . S
C2480 H2469 0.950 . S
C2480 C2478 1.391 . S
C2480 C2481 1.400 . S
C2481 C2475 1.491 . S
C2481 C2480 1.400 . S
C2481 C2482 1.398 . S
C2482 H2470 0.950 . S
C2482 C2481 1.398 . S
C2482 C2483 1.391 . S
C2483 H2471 0.950 . S
C2483 C2479 1.393 . S
C2483 C2482 1.391 . S
H2484 C2492 0.950 . S
H2485 C2497 0.950 . S
H2486 C2494 0.950 . S
H2487 C2496 0.950 . S
H2488 C2498 0.950 . S
H2489 C2500 0.950 . S
H2490 C2502 0.950 . S
H2491 C2503 0.950 . S
C2492 H2484 0.950 . S
C2492 C2493 1.386 . S
C2492 C2494 1.391 . S
C2493 C2492 1.386 . S
C2493 C2497 1.393 . S
C2494 H2486 0.950 . S
C2494 C2492 1.391 . S
C2494 C2495 1.400 . S
C2495 C2494 1.400 . S
C2495 C2496 1.398 . S
C2495 C2501 1.491 . S
C2496 H2487 0.950 . S
C2496 C2495 1.398 . S
C2496 C2497 1.391 . S
C2497 H2485 0.950 . S
C2497 C2493 1.393 . S
C2497 C2496 1.391 . S
C2498 H2488 0.950 . S
C2498 C2499 1.386 . S
C2498 C2500 1.391 . S
C2499 C2498 1.386 . S
C2499 C2503 1.393 . S
C2500 H2489 0.950 . S
C2500 C2498 1.391 . S
C2500 C2501 1.400 . S
C2501 C2495 1.491 . S
C2501 C2500 1.400 . S
C2501 C2502 1.398 . S
C2502 H2490 0.950 . S
C2502 C2501 1.398 . S
C2502 C2503 1.391 . S
C2503 H2491 0.950 . S
C2503 C2499 1.393 . S
C2503 C2502 1.391 . S
H2504 C2512 0.950 . S
H2505 C2517 0.950 . S
H2506 C2514 0.950 . S
H2507 C2516 0.950 . S
H2508 C2518 0.950 . S
H2509 C2520 0.950 . S
H2510 C2522 0.950 . S
H2511 C2523 0.950 . S
C2512 H2504 0.950 . S
C2512 C2513 1.386 . S
C2512 C2514 1.391 . S
C2513 C2512 1.386 . S
C2513 C2517 1.393 . S
C2514 H2506 0.950 . S
C2514 C2512 1.391 . S
C2514 C2515 1.400 . S
C2515 C2514 1.400 . S
C2515 C2516 1.398 . S
C2515 C2521 1.491 . S
C2516 H2507 0.950 . S
C2516 C2515 1.398 . S
C2516 C2517 1.391 . S
C2517 H2505 0.950 . S
C2517 C2513 1.393 . S
C2517 C2516 1.391 . S
C2518 H2508 0.950 . S
C2518 C2519 1.386 . S
C2518 C2520 1.391 . S
C2519 C2518 1.386 . S
C2519 C2523 1.393 . S
C2520 H2509 0.950 . S
C2520 C2518 1.391 . S
C2520 C2521 1.400 . S
C2521 C2515 1.491 . S
C2521 C2520 1.400 . S
C2521 C2522 1.398 . S
C2522 H2510 0.950 . S
C2522 C2521 1.398 . S
C2522 C2523 1.391 . S
C2523 H2511 0.950 . S
C2523 C2519 1.393 . S
C2523 C2522 1.391 . S
H2524 C2532 0.950 1_556 S
H2525 C2537 0.950 . S
H2526 C2534 0.950 1_556 S
H2527 C2536 0.950 . S
H2528 C2538 0.950 . S
H2529 C2540 0.950 . S
H2530 C2542 0.950 1_556 S
H2531 C2543 0.950 1_556 S
C2532 H2524 0.950 1_554 S
C2532 C2533 1.386 . S
C2532 C2534 1.391 . S
C2533 C2532 1.386 . S
C2533 C2537 1.393 . S
C2534 H2526 0.950 1_554 S
C2534 C2532 1.391 . S
C2534 C2535 1.400 . S
C2535 C2534 1.400 . S
C2535 C2536 1.398 . S
C2535 C2541 1.491 . S
C2536 H2527 0.950 . S
C2536 C2535 1.398 . S
C2536 C2537 1.391 . S
C2537 H2525 0.950 . S
C2537 C2533 1.393 . S
C2537 C2536 1.391 . S
C2538 H2528 0.950 . S
C2538 C2539 1.386 . S
C2538 C2540 1.391 1_545 S
C2539 C2538 1.386 . S
C2539 C2543 1.393 1_545 S
C2540 H2529 0.950 . S
C2540 C2538 1.391 1_565 S
C2540 C2541 1.400 . S
C2541 C2535 1.491 . S
C2541 C2540 1.400 . S
C2541 C2542 1.398 . S
C2542 H2530 0.950 1_554 S
C2542 C2541 1.398 . S
C2542 C2543 1.391 . S
C2543 H2531 0.950 1_554 S
C2543 C2539 1.393 1_565 S
C2543 C2542 1.391 . S
H2544 C2552 0.950 . S
H2545 C2557 0.950 . S
H2546 C2554 0.950 . S
H2547 C2556 0.950 . S
H2548 C2558 0.950 . S
H2549 C2560 0.950 . S
H2550 C2562 0.950 . S
H2551 C2563 0.950 . S
C2552 H2544 0.950 . S
C2552 C2553 1.386 . S
C2552 C2554 1.391 . S
C2553 C2552 1.386 . S
C2553 C2557 1.393 . S
C2554 H2546 0.950 . S
C2554 C2552 1.391 . S
C2554 C2555 1.400 . S
C2555 C2554 1.400 . S
C2555 C2556 1.398 . S
C2555 C2561 1.491 . S
C2556 H2547 0.950 . S
C2556 C2555 1.398 . S
C2556 C2557 1.391 . S
C2557 H2545 0.950 . S
C2557 C2553 1.393 . S
C2557 C2556 1.391 . S
C2558 H2548 0.950 . S
C2558 C2559 1.386 . S
C2558 C2560 1.391 . S
C2559 C2558 1.386 . S
C2559 C2563 1.393 . S
C2560 H2549 0.950 . S
C2560 C2558 1.391 . S
C2560 C2561 1.400 . S
C2561 C2555 1.491 . S
C2561 C2560 1.400 . S
C2561 C2562 1.398 . S
C2562 H2550 0.950 . S
C2562 C2561 1.398 . S
C2562 C2563 1.391 . S
C2563 H2551 0.950 . S
C2563 C2559 1.393 . S
C2563 C2562 1.391 . S
H2564 C2572 0.950 . S
H2565 C2577 0.950 . S
H2566 C2574 0.950 . S
H2567 C2576 0.950 . S
H2568 C2578 0.950 . S
H2569 C2580 0.950 . S
H2570 C2582 0.950 . S
H2571 C2583 0.950 . S
C2572 H2564 0.950 . S
C2572 C2573 1.386 . S
C2572 C2574 1.391 . S
C2573 C2572 1.386 . S
C2573 C2577 1.393 . S
C2574 H2566 0.950 . S
C2574 C2572 1.391 . S
C2574 C2575 1.400 . S
C2575 C2574 1.400 . S
C2575 C2576 1.398 . S
C2575 C2581 1.491 . S
C2576 H2567 0.950 . S
C2576 C2575 1.398 . S
C2576 C2577 1.391 . S
C2577 H2565 0.950 . S
C2577 C2573 1.393 . S
C2577 C2576 1.391 . S
C2578 H2568 0.950 . S
C2578 C2579 1.386 . S
C2578 C2580 1.391 . S
C2579 C2578 1.386 . S
C2579 C2583 1.393 . S
C2580 H2569 0.950 . S
C2580 C2578 1.391 . S
C2580 C2581 1.400 . S
C2581 C2575 1.491 . S
C2581 C2580 1.400 . S
C2581 C2582 1.398 . S
C2582 H2570 0.950 . S
C2582 C2581 1.398 . S
C2582 C2583 1.391 . S
C2583 H2571 0.950 . S
C2583 C2579 1.393 . S
C2583 C2582 1.391 . S
H2584 C2592 0.950 . S
H2585 C2597 0.950 . S
H2586 C2594 0.950 . S
H2587 C2596 0.950 . S
H2588 C2598 0.950 . S
H2589 C2600 0.950 . S
H2590 C2602 0.950 . S
H2591 C2603 0.950 . S
C2592 H2584 0.950 . S
C2592 C2593 1.386 . S
C2592 C2594 1.391 . S
C2593 C2592 1.386 . S
C2593 C2597 1.393 . S
C2594 H2586 0.950 . S
C2594 C2592 1.391 . S
C2594 C2595 1.400 . S
C2595 C2594 1.400 . S
C2595 C2596 1.398 . S
C2595 C2601 1.491 . S
C2596 H2587 0.950 . S
C2596 C2595 1.398 . S
C2596 C2597 1.391 . S
C2597 H2585 0.950 . S
C2597 C2593 1.393 . S
C2597 C2596 1.391 . S
C2598 H2588 0.950 . S
C2598 C2599 1.386 . S
C2598 C2600 1.391 . S
C2599 C2598 1.386 . S
C2599 C2603 1.393 . S
C2600 H2589 0.950 . S
C2600 C2598 1.391 . S
C2600 C2601 1.400 . S
C2601 C2595 1.491 . S
C2601 C2600 1.400 . S
C2601 C2602 1.398 . S
C2602 H2590 0.950 . S
C2602 C2601 1.398 . S
C2602 C2603 1.391 . S
C2603 H2591 0.950 . S
C2603 C2599 1.393 . S
C2603 C2602 1.391 . S
H2604 C2612 0.950 1_545 S
H2605 C2617 0.950 . S
H2606 C2614 0.950 . S
H2607 C2616 0.950 . S
H2608 C2618 0.950 . S
H2609 C2620 0.950 . S
H2610 C2622 0.950 . S
H2611 C2623 0.950 . S
C2612 H2604 0.950 1_565 S
C2612 C2613 1.386 . S
C2612 C2614 1.391 . S
C2613 C2612 1.386 . S
C2613 C2617 1.393 . S
C2614 H2606 0.950 . S
C2614 C2612 1.391 . S
C2614 C2615 1.400 . S
C2615 C2614 1.400 . S
C2615 C2616 1.398 . S
C2615 C2621 1.491 . S
C2616 H2607 0.950 . S
C2616 C2615 1.398 . S
C2616 C2617 1.391 . S
C2617 H2605 0.950 . S
C2617 C2613 1.393 . S
C2617 C2616 1.391 . S
C2618 H2608 0.950 . S
C2618 C2619 1.386 . S
C2618 C2620 1.391 . S
C2619 C2618 1.386 . S
C2619 C2623 1.393 . S
C2620 H2609 0.950 . S
C2620 C2618 1.391 . S
C2620 C2621 1.400 . S
C2621 C2615 1.491 . S
C2621 C2620 1.400 . S
C2621 C2622 1.398 . S
C2622 H2610 0.950 . S
C2622 C2621 1.398 . S
C2622 C2623 1.391 . S
C2623 H2611 0.950 . S
C2623 C2619 1.393 . S
C2623 C2622 1.391 . S
H2624 C2632 0.950 . S
H2625 C2637 0.950 . S
H2626 C2634 0.950 . S
H2627 C2636 0.950 . S
H2628 C2638 0.950 . S
H2629 C2640 0.950 . S
H2630 C2642 0.950 . S
H2631 C2643 0.950 . S
C2632 H2624 0.950 . S
C2632 C2633 1.386 . S
C2632 C2634 1.391 . S
C2633 C2632 1.386 . S
C2633 C2637 1.393 . S
C2634 H2626 0.950 . S
C2634 C2632 1.391 . S
C2634 C2635 1.400 . S
C2635 C2634 1.400 . S
C2635 C2636 1.398 . S
C2635 C2641 1.491 . S
C2636 H2627 0.950 . S
C2636 C2635 1.398 . S
C2636 C2637 1.391 . S
C2637 H2625 0.950 . S
C2637 C2633 1.393 . S
C2637 C2636 1.391 . S
C2638 H2628 0.950 . S
C2638 C2639 1.386 . S
C2638 C2640 1.391 . S
C2639 C2638 1.386 . S
C2639 C2643 1.393 . S
C2640 H2629 0.950 . S
C2640 C2638 1.391 . S
C2640 C2641 1.400 . S
C2641 C2635 1.491 . S
C2641 C2640 1.400 . S
C2641 C2642 1.398 . S
C2642 H2630 0.950 . S
C2642 C2641 1.398 . S
C2642 C2643 1.391 . S
C2643 H2631 0.950 . S
C2643 C2639 1.393 . S
C2643 C2642 1.391 . S
H2644 C2652 0.950 . S
H2645 C2657 0.950 . S
H2646 C2654 0.950 . S
H2647 C2656 0.950 . S
H2648 C2658 0.950 . S
H2649 C2660 0.950 . S
H2650 C2662 0.950 . S
H2651 C2663 0.950 . S
C2652 H2644 0.950 . S
C2652 C2653 1.386 . S
C2652 C2654 1.391 . S
C2653 C2652 1.386 . S
C2653 C2657 1.393 . S
C2654 H2646 0.950 . S
C2654 C2652 1.391 . S
C2654 C2655 1.400 . S
C2655 C2654 1.400 . S
C2655 C2656 1.398 . S
C2655 C2661 1.491 . S
C2656 H2647 0.950 . S
C2656 C2655 1.398 . S
C2656 C2657 1.391 . S
C2657 H2645 0.950 . S
C2657 C2653 1.393 . S
C2657 C2656 1.391 . S
C2658 H2648 0.950 . S
C2658 C2659 1.386 . S
C2658 C2660 1.391 . S
C2659 C2658 1.386 . S
C2659 C2663 1.393 . S
C2660 H2649 0.950 . S
C2660 C2658 1.391 . S
C2660 C2661 1.400 . S
C2661 C2655 1.491 . S
C2661 C2660 1.400 . S
C2661 C2662 1.398 . S
C2662 H2650 0.950 . S
C2662 C2661 1.398 . S
C2662 C2663 1.391 . S
C2663 H2651 0.950 . S
C2663 C2659 1.393 . S
C2663 C2662 1.391 . S
H2664 C2672 0.950 . S
H2665 C2677 0.950 . S
H2666 C2674 0.950 . S
H2667 C2676 0.950 . S
H2668 C2678 0.950 . S
H2669 C2680 0.950 . S
H2670 C2682 0.950 . S
H2671 C2683 0.950 . S
C2672 H2664 0.950 . S
C2672 C2673 1.386 . S
C2672 C2674 1.391 . S
C2673 C2672 1.386 . S
C2673 C2677 1.393 1_455 S
C2674 H2666 0.950 . S
C2674 C2672 1.391 . S
C2674 C2675 1.400 . S
C2675 C2674 1.400 . S
C2675 C2676 1.398 1_455 S
C2675 C2681 1.491 . S
C2676 H2667 0.950 . S
C2676 C2675 1.398 1_655 S
C2676 C2677 1.391 . S
C2677 H2665 0.950 . S
C2677 C2673 1.393 1_655 S
C2677 C2676 1.391 . S
C2678 H2668 0.950 . S
C2678 C2679 1.386 1_655 S
C2678 C2680 1.391 . S
C2679 C2678 1.386 1_455 S
C2679 C2683 1.393 . S
C2680 H2669 0.950 . S
C2680 C2678 1.391 . S
C2680 C2681 1.400 1_655 S
C2681 C2675 1.491 . S
C2681 C2680 1.400 1_455 S
C2681 C2682 1.398 . S
C2682 H2670 0.950 . S
C2682 C2681 1.398 . S
C2682 C2683 1.391 . S
C2683 H2671 0.950 . S
C2683 C2679 1.393 . S
C2683 C2682 1.391 . S
H2684 C2692 0.950 . S
H2685 C2697 0.950 . S
H2686 C2694 0.950 . S
H2687 C2696 0.950 . S
H2688 C2698 0.950 . S
H2689 C2700 0.950 . S
H2690 C2702 0.950 . S
H2691 C2703 0.950 . S
C2692 H2684 0.950 . S
C2692 C2693 1.386 . S
C2692 C2694 1.391 . S
C2693 C2692 1.386 . S
C2693 C2697 1.393 . S
C2694 H2686 0.950 . S
C2694 C2692 1.391 . S
C2694 C2695 1.400 . S
C2695 C2694 1.400 . S
C2695 C2696 1.398 . S
C2695 C2701 1.491 . S
C2696 H2687 0.950 . S
C2696 C2695 1.398 . S
C2696 C2697 1.391 . S
C2697 H2685 0.950 . S
C2697 C2693 1.393 . S
C2697 C2696 1.391 . S
C2698 H2688 0.950 . S
C2698 C2699 1.386 . S
C2698 C2700 1.391 . S
C2699 C2698 1.386 . S
C2699 C2703 1.393 . S
C2700 H2689 0.950 . S
C2700 C2698 1.391 . S
C2700 C2701 1.400 . S
C2701 C2695 1.491 . S
C2701 C2700 1.400 . S
C2701 C2702 1.398 . S
C2702 H2690 0.950 . S
C2702 C2701 1.398 . S
C2702 C2703 1.391 . S
C2703 H2691 0.950 . S
C2703 C2699 1.393 . S
C2703 C2702 1.391 . S
H2704 C2712 0.950 . S
H2705 C2717 0.950 . S
H2706 C2714 0.950 . S
H2707 C2716 0.950 . S
H2708 C2718 0.950 1_554 S
H2709 C2720 0.950 . S
H2710 C2722 0.950 . S
H2711 C2723 0.950 . S
C2712 H2704 0.950 . S
C2712 C2713 1.386 . S
C2712 C2714 1.391 . S
C2713 C2712 1.386 . S
C2713 C2717 1.393 . S
C2714 H2706 0.950 . S
C2714 C2712 1.391 . S
C2714 C2715 1.400 . S
C2715 C2714 1.400 . S
C2715 C2716 1.398 . S
C2715 C2721 1.491 . S
C2716 H2707 0.950 . S
C2716 C2715 1.398 . S
C2716 C2717 1.391 . S
C2717 H2705 0.950 . S
C2717 C2713 1.393 . S
C2717 C2716 1.391 . S
C2718 H2708 0.950 1_556 S
C2718 C2719 1.386 . S
C2718 C2720 1.391 . S
C2719 C2718 1.386 . S
C2719 C2723 1.393 . S
C2720 H2709 0.950 . S
C2720 C2718 1.391 . S
C2720 C2721 1.400 . S
C2721 C2715 1.491 . S
C2721 C2720 1.400 . S
C2721 C2722 1.398 . S
C2722 H2710 0.950 . S
C2722 C2721 1.398 . S
C2722 C2723 1.391 . S
C2723 H2711 0.950 . S
C2723 C2719 1.393 . S
C2723 C2722 1.391 . S
H2724 C2732 0.950 . S
H2725 C2737 0.950 . S
H2726 C2734 0.950 . S
H2727 C2736 0.950 . S
H2728 C2738 0.950 . S
H2729 C2740 0.950 . S
H2730 C2742 0.950 . S
H2731 C2743 0.950 . S
C2732 H2724 0.950 . S
C2732 C2733 1.386 . S
C2732 C2734 1.391 . S
C2733 C2732 1.386 . S
C2733 C2737 1.393 . S
C2734 H2726 0.950 . S
C2734 C2732 1.391 . S
C2734 C2735 1.400 . S
C2735 C2734 1.400 . S
C2735 C2736 1.398 . S
C2735 C2741 1.491 . S
C2736 H2727 0.950 . S
C2736 C2735 1.398 . S
C2736 C2737 1.391 . S
C2737 H2725 0.950 . S
C2737 C2733 1.393 . S
C2737 C2736 1.391 . S
C2738 H2728 0.950 . S
C2738 C2739 1.386 . S
C2738 C2740 1.391 . S
C2739 C2738 1.386 . S
C2739 C2743 1.393 . S
C2740 H2729 0.950 . S
C2740 C2738 1.391 . S
C2740 C2741 1.400 . S
C2741 C2735 1.491 . S
C2741 C2740 1.400 . S
C2741 C2742 1.398 . S
C2742 H2730 0.950 . S
C2742 C2741 1.398 . S
C2742 C2743 1.391 . S
C2743 H2731 0.950 . S
C2743 C2739 1.393 . S
C2743 C2742 1.391 . S
H2744 C2752 0.950 1_655 S
H2745 C2757 0.950 . S
H2746 C2754 0.931 1_655 S
H2747 C2756 0.950 . S
H2748 C2758 0.950 . S
H2749 C2760 0.950 . S
H2750 C2762 0.950 . S
H2751 C2763 0.950 . S
C2752 H2744 0.950 1_455 S
C2752 C2753 1.386 . S
C2752 C2754 1.396 . S
C2753 C2752 1.386 . S
C2753 C2757 1.393 . S
C2754 H2746 0.931 1_455 S
C2754 C2752 1.396 . S
C2754 C2755 1.414 . S
C2755 C2754 1.414 . S
C2755 C2756 1.398 . S
C2755 C2761 1.491 . S
C2756 H2747 0.950 . S
C2756 C2755 1.398 . S
C2756 C2757 1.391 . S
C2757 H2745 0.950 . S
C2757 C2753 1.393 . S
C2757 C2756 1.391 . S
C2758 H2748 0.950 . S
C2758 C2759 1.386 . S
C2758 C2760 1.391 . S
C2759 C2758 1.386 . S
C2759 C2763 1.393 1_455 S
C2760 H2749 0.950 . S
C2760 C2758 1.391 . S
C2760 C2761 1.400 . S
C2761 C2755 1.491 . S
C2761 C2760 1.400 . S
C2761 C2762 1.398 1_455 S
C2762 H2750 0.950 . S
C2762 C2761 1.398 1_655 S
C2762 C2763 1.391 . S
C2763 H2751 0.950 . S
C2763 C2759 1.393 1_655 S
C2763 C2762 1.391 . S
H2764 C2772 0.950 . S
H2765 C2777 0.950 . S
H2766 C2774 0.950 . S
H2767 C2776 0.950 . S
H2768 C2778 0.950 . S
H2769 C2780 0.950 . S
H2770 C2782 0.950 . S
H2771 C2783 0.950 . S
C2772 H2764 0.950 . S
C2772 C2773 1.386 . S
C2772 C2774 1.391 . S
C2773 C2772 1.386 . S
C2773 C2777 1.393 . S
C2774 H2766 0.950 . S
C2774 C2772 1.391 . S
C2774 C2775 1.400 . S
C2775 C2774 1.400 . S
C2775 C2776 1.398 . S
C2775 C2781 1.491 . S
C2776 H2767 0.950 . S
C2776 C2775 1.398 . S
C2776 C2777 1.391 . S
C2777 H2765 0.950 . S
C2777 C2773 1.393 . S
C2777 C2776 1.391 . S
C2778 H2768 0.950 . S
C2778 C2779 1.386 . S
C2778 C2780 1.391 . S
C2779 C2778 1.386 . S
C2779 C2783 1.393 . S
C2780 H2769 0.950 . S
C2780 C2778 1.391 . S
C2780 C2781 1.400 . S
C2781 C2775 1.491 . S
C2781 C2780 1.400 . S
C2781 C2782 1.398 . S
C2782 H2770 0.950 . S
C2782 C2781 1.398 . S
C2782 C2783 1.391 . S
C2783 H2771 0.950 . S
C2783 C2779 1.393 . S
C2783 C2782 1.391 . S
H2784 C2792 0.950 . S
H2785 C2797 0.950 . S
H2786 C2794 0.950 . S
H2787 C2796 0.950 . S
H2788 C2798 0.950 . S
H2789 C2800 0.950 . S
H2790 C2802 0.950 . S
H2791 C2803 0.950 . S
C2792 H2784 0.950 . S
C2792 C2793 1.386 . S
C2792 C2794 1.391 . S
C2793 C2792 1.386 . S
C2793 C2797 1.393 . S
C2794 H2786 0.950 . S
C2794 C2792 1.391 . S
C2794 C2795 1.400 . S
C2795 C2794 1.400 . S
C2795 C2796 1.398 . S
C2795 C2801 1.491 . S
C2796 H2787 0.950 . S
C2796 C2795 1.398 . S
C2796 C2797 1.391 . S
C2797 H2785 0.950 . S
C2797 C2793 1.393 . S
C2797 C2796 1.391 . S
C2798 H2788 0.950 . S
C2798 C2799 1.386 . S
C2798 C2800 1.391 . S
C2799 C2798 1.386 . S
C2799 C2803 1.393 . S
C2800 H2789 0.950 . S
C2800 C2798 1.391 . S
C2800 C2801 1.400 . S
C2801 C2795 1.491 . S
C2801 C2800 1.400 . S
C2801 C2802 1.398 . S
C2802 H2790 0.950 . S
C2802 C2801 1.398 . S
C2802 C2803 1.391 . S
C2803 H2791 0.950 . S
C2803 C2799 1.393 . S
C2803 C2802 1.391 . S
H2804 C2812 0.950 . S
H2805 C2817 0.950 . S
H2806 C2814 0.950 . S
H2807 C2816 0.950 . S
H2808 C2818 0.950 . S
H2809 C2820 0.950 . S
H2810 C2822 0.950 . S
H2811 C2823 0.950 . S
C2812 H2804 0.950 . S
C2812 C2813 1.386 . S
C2812 C2814 1.391 . S
C2813 C2812 1.386 . S
C2813 C2817 1.393 . S
C2814 H2806 0.950 . S
C2814 C2812 1.391 . S
C2814 C2815 1.400 . S
C2815 C2814 1.400 . S
C2815 C2816 1.398 . S
C2815 C2821 1.491 . S
C2816 H2807 0.950 . S
C2816 C2815 1.398 . S
C2816 C2817 1.391 . S
C2817 H2805 0.950 . S
C2817 C2813 1.393 . S
C2817 C2816 1.391 . S
C2818 H2808 0.950 . S
C2818 C2819 1.386 . S
C2818 C2820 1.391 . S
C2819 C2818 1.386 . S
C2819 C2823 1.393 . S
C2820 H2809 0.950 . S
C2820 C2818 1.391 . S
C2820 C2821 1.400 . S
C2821 C2815 1.491 . S
C2821 C2820 1.400 . S
C2821 C2822 1.398 . S
C2822 H2810 0.950 . S
C2822 C2821 1.398 . S
C2822 C2823 1.391 . S
C2823 H2811 0.950 . S
C2823 C2819 1.393 . S
C2823 C2822 1.391 . S
H2824 C2832 0.950 . S
H2825 C2837 0.950 . S
H2826 C2834 0.950 . S
H2827 C2836 0.950 . S
H2828 C2838 0.950 . S
H2829 C2840 0.950 . S
H2830 C2842 0.950 . S
H2831 C2843 0.950 . S
C2832 H2824 0.950 . S
C2832 C2833 1.386 . S
C2832 C2834 1.391 . S
C2833 C2832 1.386 . S
C2833 C2837 1.393 . S
C2834 H2826 0.950 . S
C2834 C2832 1.391 . S
C2834 C2835 1.400 . S
C2835 C2834 1.400 . S
C2835 C2836 1.398 . S
C2835 C2841 1.491 . S
C2836 H2827 0.950 . S
C2836 C2835 1.398 . S
C2836 C2837 1.391 . S
C2837 H2825 0.950 . S
C2837 C2833 1.393 . S
C2837 C2836 1.391 . S
C2838 H2828 0.950 . S
C2838 C2839 1.386 1_455 S
C2838 C2840 1.391 1_455 S
C2839 C2838 1.386 1_655 S
C2839 C2843 1.393 . S
C2840 H2829 0.950 . S
C2840 C2838 1.391 1_655 S
C2840 C2841 1.400 . S
C2841 C2835 1.491 . S
C2841 C2840 1.400 . S
C2841 C2842 1.398 . S
C2842 H2830 0.950 . S
C2842 C2841 1.398 . S
C2842 C2843 1.391 . S
C2843 H2831 0.950 . S
C2843 C2839 1.393 . S
C2843 C2842 1.391 . S
H2844 C2852 0.950 . S
H2845 C2857 0.950 . S
H2846 C2854 0.950 . S
H2847 C2856 0.950 . S
H2848 C2858 0.950 . S
H2849 C2860 0.950 . S
H2850 C2862 0.950 . S
H2851 C2863 0.950 . S
C2852 H2844 0.950 . S
C2852 C2853 1.386 . S
C2852 C2854 1.391 . S
C2853 C2852 1.386 . S
C2853 C2857 1.393 . S
C2854 H2846 0.950 . S
C2854 C2852 1.391 . S
C2854 C2855 1.400 . S
C2855 C2854 1.400 . S
C2855 C2856 1.398 . S
C2855 C2861 1.491 . S
C2856 H2847 0.950 . S
C2856 C2855 1.398 . S
C2856 C2857 1.391 . S
C2857 H2845 0.950 . S
C2857 C2853 1.393 . S
C2857 C2856 1.391 . S
C2858 H2848 0.950 . S
C2858 C2859 1.386 . S
C2858 C2860 1.391 . S
C2859 C2858 1.386 . S
C2859 C2863 1.393 . S
C2860 H2849 0.950 . S
C2860 C2858 1.391 . S
C2860 C2861 1.400 . S
C2861 C2855 1.491 . S
C2861 C2860 1.400 . S
C2861 C2862 1.398 . S
C2862 H2850 0.950 . S
C2862 C2861 1.398 . S
C2862 C2863 1.391 . S
C2863 H2851 0.950 . S
C2863 C2859 1.393 . S
C2863 C2862 1.391 . S
H2864 C2872 0.950 . S
H2865 C2877 0.950 . S
H2866 C2874 0.950 . S
H2867 C2876 0.950 . S
H2868 C2878 0.950 . S
H2869 C2880 0.950 . S
H2870 C2882 0.950 . S
H2871 C2883 0.950 . S
C2872 H2864 0.950 . S
C2872 C2873 1.386 . S
C2872 C2874 1.391 . S
C2873 C2872 1.386 . S
C2873 C2877 1.393 . S
C2874 H2866 0.950 . S
C2874 C2872 1.391 . S
C2874 C2875 1.400 . S
C2875 C2874 1.400 . S
C2875 C2876 1.398 . S
C2875 C2881 1.491 . S
C2876 H2867 0.950 . S
C2876 C2875 1.398 . S
C2876 C2877 1.391 . S
C2877 H2865 0.950 . S
C2877 C2873 1.393 . S
C2877 C2876 1.391 . S
C2878 H2868 0.950 . S
C2878 C2879 1.386 . S
C2878 C2880 1.391 . S
C2879 C2878 1.386 . S
C2879 C2883 1.393 . S
C2880 H2869 0.950 . S
C2880 C2878 1.391 . S
C2880 C2881 1.400 . S
C2881 C2875 1.491 . S
C2881 C2880 1.400 . S
C2881 C2882 1.398 . S
C2882 H2870 0.950 . S
C2882 C2881 1.398 . S
C2882 C2883 1.391 . S
C2883 H2871 0.950 . S
C2883 C2879 1.393 . S
C2883 C2882 1.391 . S
H2884 C2892 0.950 . S
H2885 C2897 0.950 . S
H2886 C2894 0.950 . S
H2887 C2896 0.950 . S
H2888 C2898 0.950 . S
H2889 C2900 0.950 . S
H2890 C2902 0.950 . S
H2891 C2903 0.950 . S
C2892 H2884 0.950 . S
C2892 C2893 1.386 . S
C2892 C2894 1.391 . S
C2893 C2892 1.386 . S
C2893 C2897 1.393 . S
C2894 H2886 0.950 . S
C2894 C2892 1.391 . S
C2894 C2895 1.400 . S
C2895 C2894 1.400 . S
C2895 C2896 1.398 . S
C2895 C2901 1.491 . S
C2896 H2887 0.950 . S
C2896 C2895 1.398 . S
C2896 C2897 1.391 . S
C2897 H2885 0.950 . S
C2897 C2893 1.393 . S
C2897 C2896 1.391 . S
C2898 H2888 0.950 . S
C2898 C2899 1.386 . S
C2898 C2900 1.391 . S
C2899 C2898 1.386 . S
C2899 C2903 1.393 . S
C2900 H2889 0.950 . S
C2900 C2898 1.391 . S
C2900 C2901 1.400 . S
C2901 C2895 1.491 . S
C2901 C2900 1.400 . S
C2901 C2902 1.398 . S
C2902 H2890 0.950 . S
C2902 C2901 1.398 . S
C2902 C2903 1.391 . S
C2903 H2891 0.950 . S
C2903 C2899 1.393 . S
C2903 C2902 1.391 . S
H2904 C2912 0.950 . S
H2905 C2917 0.950 . S
H2906 C2914 0.950 . S
H2907 C2916 0.950 . S
H2908 C2918 0.950 . S
H2909 C2920 0.950 . S
H2910 C2922 0.950 . S
H2911 C2923 0.950 . S
C2912 H2904 0.950 . S
C2912 C2913 1.386 . S
C2912 C2914 1.391 . S
C2913 C2912 1.386 . S
C2913 C2917 1.393 . S
C2914 H2906 0.950 . S
C2914 C2912 1.391 . S
C2914 C2915 1.400 . S
C2915 C2914 1.400 . S
C2915 C2916 1.398 . S
C2915 C2921 1.491 . S
C2916 H2907 0.950 . S
C2916 C2915 1.398 . S
C2916 C2917 1.391 . S
C2917 H2905 0.950 . S
C2917 C2913 1.393 . S
C2917 C2916 1.391 . S
C2918 H2908 0.950 . S
C2918 C2919 1.386 . S
C2918 C2920 1.391 . S
C2919 C2918 1.386 . S
C2919 C2923 1.393 . S
C2920 H2909 0.950 . S
C2920 C2918 1.391 . S
C2920 C2921 1.400 . S
C2921 C2915 1.491 . S
C2921 C2920 1.400 . S
C2921 C2922 1.398 . S
C2922 H2910 0.950 . S
C2922 C2921 1.398 . S
C2922 C2923 1.391 . S
C2923 H2911 0.950 . S
C2923 C2919 1.393 . S
C2923 C2922 1.391 . S
H2924 C2932 0.950 . S
H2925 C2937 0.950 . S
H2926 C2934 0.950 . S
H2927 C2936 0.950 . S
H2928 C2938 0.950 . S
H2929 C2940 0.950 . S
H2930 C2942 0.950 . S
H2931 C2943 0.950 . S
C2932 H2924 0.950 . S
C2932 C2933 1.386 . S
C2932 C2934 1.391 . S
C2933 C2932 1.386 . S
C2933 C2937 1.393 . S
C2934 H2926 0.950 . S
C2934 C2932 1.391 . S
C2934 C2935 1.400 . S
C2935 C2934 1.400 . S
C2935 C2936 1.398 . S
C2935 C2941 1.491 . S
C2936 H2927 0.950 . S
C2936 C2935 1.398 . S
C2936 C2937 1.391 . S
C2937 H2925 0.950 . S
C2937 C2933 1.393 . S
C2937 C2936 1.391 . S
C2938 H2928 0.950 . S
C2938 C2939 1.386 . S
C2938 C2940 1.391 . S
C2939 C2938 1.386 . S
C2939 C2943 1.393 . S
C2940 H2929 0.950 . S
C2940 C2938 1.391 . S
C2940 C2941 1.400 . S
C2941 C2935 1.491 . S
C2941 C2940 1.400 . S
C2941 C2942 1.398 . S
C2942 H2930 0.950 . S
C2942 C2941 1.398 . S
C2942 C2943 1.391 . S
C2943 H2931 0.950 . S
C2943 C2939 1.393 . S
C2943 C2942 1.391 . S
H2944 C2952 0.950 . S
H2945 C2957 0.950 . S
H2946 C2954 0.950 . S
H2947 C2956 0.950 . S
H2948 C2958 0.950 . S
H2949 C2960 0.950 . S
H2950 C2962 0.950 . S
H2951 C2963 0.950 . S
C2952 H2944 0.950 . S
C2952 C2953 1.386 . S
C2952 C2954 1.391 . S
C2953 C2952 1.386 . S
C2953 C2957 1.393 . S
C2954 H2946 0.950 . S
C2954 C2952 1.391 . S
C2954 C2955 1.400 . S
C2955 C2954 1.400 . S
C2955 C2956 1.398 . S
C2955 C2961 1.491 . S
C2956 H2947 0.950 . S
C2956 C2955 1.398 . S
C2956 C2957 1.391 . S
C2957 H2945 0.950 . S
C2957 C2953 1.393 . S
C2957 C2956 1.391 . S
C2958 H2948 0.950 . S
C2958 C2959 1.386 . S
C2958 C2960 1.391 . S
C2959 C2958 1.386 . S
C2959 C2963 1.393 . S
C2960 H2949 0.950 . S
C2960 C2958 1.391 . S
C2960 C2961 1.400 . S
C2961 C2955 1.491 . S
C2961 C2960 1.400 . S
C2961 C2962 1.398 . S
C2962 H2950 0.950 . S
C2962 C2961 1.398 . S
C2962 C2963 1.391 . S
C2963 H2951 0.950 . S
C2963 C2959 1.393 . S
C2963 C2962 1.391 . S
H2964 C2972 0.950 . S
H2965 C2977 0.950 . S
H2966 C2974 0.950 . S
H2967 C2976 0.950 . S
H2968 C2978 0.950 . S
H2969 C2980 0.950 . S
H2970 C2982 0.950 . S
H2971 C2983 0.950 . S
C2972 H2964 0.950 . S
C2972 C2973 1.386 . S
C2972 C2974 1.391 . S
C2973 C2972 1.386 . S
C2973 C2977 1.393 . S
C2974 H2966 0.950 . S
C2974 C2972 1.391 . S
C2974 C2975 1.400 . S
C2975 C2974 1.400 . S
C2975 C2976 1.398 . S
C2975 C2981 1.491 . S
C2976 H2967 0.950 . S
C2976 C2975 1.398 . S
C2976 C2977 1.391 . S
C2977 H2965 0.950 . S
C2977 C2973 1.393 . S
C2977 C2976 1.391 . S
C2978 H2968 0.950 . S
C2978 C2979 1.386 . S
C2978 C2980 1.391 . S
C2979 C2978 1.386 . S
C2979 C2983 1.393 1_565 S
C2980 H2969 0.950 . S
C2980 C2978 1.391 . S
C2980 C2981 1.400 . S
C2981 C2975 1.491 . S
C2981 C2980 1.400 . S
C2981 C2982 1.398 . S
C2982 H2970 0.950 . S
C2982 C2981 1.398 . S
C2982 C2983 1.391 1_565 S
C2983 H2971 0.950 . S
C2983 C2979 1.393 1_545 S
C2983 C2982 1.391 1_545 S
H2984 C2992 0.950 . S
H2985 C2997 0.950 . S
H2986 C2994 0.950 . S
H2987 C2996 0.950 . S
H2988 C2998 0.950 . S
H2989 C3000 0.950 . S
H2990 C3002 0.950 . S
H2991 C3003 0.950 . S
C2992 H2984 0.950 . S
C2992 C2993 1.386 . S
C2992 C2994 1.391 . S
C2993 C2992 1.386 . S
C2993 C2997 1.393 . S
C2994 H2986 0.950 . S
C2994 C2992 1.391 . S
C2994 C2995 1.400 . S
C2995 C2994 1.400 . S
C2995 C2996 1.398 . S
C2995 C3001 1.491 . S
C2996 H2987 0.950 . S
C2996 C2995 1.398 . S
C2996 C2997 1.391 . S
C2997 H2985 0.950 . S
C2997 C2993 1.393 . S
C2997 C2996 1.391 . S
C2998 H2988 0.950 . S
C2998 C2999 1.386 . S
C2998 C3000 1.391 . S
C2999 C2998 1.386 . S
C2999 C3003 1.393 . S
C3000 H2989 0.950 . S
C3000 C2998 1.391 . S
C3000 C3001 1.400 . S
C3001 C2995 1.491 . S
C3001 C3000 1.400 . S
C3001 C3002 1.398 . S
C3002 H2990 0.950 . S
C3002 C3001 1.398 . S
C3002 C3003 1.391 . S
C3003 H2991 0.950 . S
C3003 C2999 1.393 . S
C3003 C3002 1.391 . S
H3004 C3012 0.950 . S
H3005 C3017 0.950 . S
H3006 C3014 0.950 . S
H3007 C3016 0.950 . S
H3008 C3018 0.950 . S
H3009 C3020 0.950 . S
H3010 C3022 0.950 . S
H3011 C3023 0.950 . S
C3012 H3004 0.950 . S
C3012 C3013 1.386 . S
C3012 C3014 1.391 . S
C3013 C3012 1.386 . S
C3013 C3017 1.393 1_556 S
C3014 H3006 0.950 . S
C3014 C3012 1.391 . S
C3014 C3015 1.395 1_556 S
C3015 C3014 1.395 1_554 S
C3015 C3016 1.402 . S
C3015 C3021 1.492 . S
C3016 H3007 0.950 . S
C3016 C3015 1.402 . S
C3016 C3017 1.391 . S
C3017 H3005 0.950 . S
C3017 C3013 1.393 1_554 S
C3017 C3016 1.391 . S
C3018 H3008 0.950 . S
C3018 C3019 1.386 . S
C3018 C3020 1.391 . S
C3019 C3018 1.386 . S
C3019 C3023 1.393 1_554 S
C3020 H3009 0.950 . S
C3020 C3018 1.391 . S
C3020 C3021 1.400 . S
C3021 C3015 1.492 . S
C3021 C3020 1.400 . S
C3021 C3022 1.398 1_554 S
C3022 H3010 0.950 . S
C3022 C3021 1.398 1_556 S
C3022 C3023 1.391 . S
C3023 H3011 0.950 . S
C3023 C3019 1.393 1_556 S
C3023 C3022 1.391 . S
H3024 C3032 0.950 . S
H3025 C3037 0.950 . S
H3026 C3034 0.950 . S
H3027 C3036 0.950 . S
H3028 C3038 0.950 . S
H3029 C3040 0.950 . S
H3030 C3042 0.950 . S
H3031 C3043 0.950 . S
C3032 H3024 0.950 . S
C3032 C3033 1.386 . S
C3032 C3034 1.391 . S
C3033 C3032 1.386 . S
C3033 C3037 1.393 . S
C3034 H3026 0.950 . S
C3034 C3032 1.391 . S
C3034 C3035 1.400 . S
C3035 C3034 1.400 . S
C3035 C3036 1.398 . S
C3035 C3041 1.491 . S
C3036 H3027 0.950 . S
C3036 C3035 1.398 . S
C3036 C3037 1.391 . S
C3037 H3025 0.950 . S
C3037 C3033 1.393 . S
C3037 C3036 1.391 . S
C3038 H3028 0.950 . S
C3038 C3039 1.386 . S
C3038 C3040 1.391 . S
C3039 C3038 1.386 . S
C3039 C3043 1.393 . S
C3040 H3029 0.950 . S
C3040 C3038 1.391 . S
C3040 C3041 1.400 . S
C3041 C3035 1.491 . S
C3041 C3040 1.400 . S
C3041 C3042 1.398 . S
C3042 H3030 0.950 . S
C3042 C3041 1.398 . S
C3042 C3043 1.391 . S
C3043 H3031 0.950 . S
C3043 C3039 1.393 . S
C3043 C3042 1.391 . S
H3044 C3052 0.950 . S
H3045 C3057 0.961 . S
H3046 C3054 0.950 . S
H3047 C3056 0.950 1_556 S
H3048 C3058 0.950 . S
H3049 C3060 0.950 . S
H3050 C3062 0.950 . S
H3051 C3063 0.950 . S
C3052 H3044 0.950 . S
C3052 C3053 1.386 . S
C3052 C3054 1.391 . S
C3053 C3052 1.386 . S
C3053 C3057 1.393 . S
C3054 H3046 0.950 . S
C3054 C3052 1.391 . S
C3054 C3055 1.400 . S
C3055 C3054 1.400 . S
C3055 C3056 1.398 . S
C3055 C3061 1.491 . S
C3056 H3047 0.950 1_554 S
C3056 C3055 1.398 . S
C3056 C3057 1.391 . S
C3057 H3045 0.961 . S
C3057 C3053 1.393 . S
C3057 C3056 1.391 . S
C3058 H3048 0.950 . S
C3058 C3059 1.386 . S
C3058 C3060 1.391 . S
C3059 C3058 1.386 . S
C3059 C3063 1.393 1_556 S
C3060 H3049 0.950 . S
C3060 C3058 1.391 . S
C3060 C3061 1.400 1_556 S
C3061 C3055 1.491 . S
C3061 C3060 1.400 1_554 S
C3061 C3062 1.398 . S
C3062 H3050 0.950 . S
C3062 C3061 1.398 . S
C3062 C3063 1.391 . S
C3063 H3051 0.950 . S
C3063 C3059 1.393 1_554 S
C3063 C3062 1.391 . S
H3064 C3072 0.950 . S
H3065 C3077 0.950 . S
H3066 C3074 0.950 . S
H3067 C3076 0.950 . S
H3068 C3078 0.950 . S
H3069 C3080 0.950 . S
H3070 C3082 0.950 . S
H3071 C3083 0.950 . S
C3072 H3064 0.950 . S
C3072 C3073 1.386 . S
C3072 C3074 1.391 . S
C3073 C3072 1.386 . S
C3073 C3077 1.393 . S
C3074 H3066 0.950 . S
C3074 C3072 1.391 . S
C3074 C3075 1.400 . S
C3075 C3074 1.400 . S
C3075 C3076 1.398 . S
C3075 C3081 1.491 . S
C3076 H3067 0.950 . S
C3076 C3075 1.398 . S
C3076 C3077 1.391 . S
C3077 H3065 0.950 . S
C3077 C3073 1.393 . S
C3077 C3076 1.391 . S
C3078 H3068 0.950 . S
C3078 C3079 1.386 . S
C3078 C3080 1.391 . S
C3079 C3078 1.386 . S
C3079 C3083 1.393 . S
C3080 H3069 0.950 . S
C3080 C3078 1.391 . S
C3080 C3081 1.400 . S
C3081 C3075 1.491 . S
C3081 C3080 1.400 . S
C3081 C3082 1.398 . S
C3082 H3070 0.950 . S
C3082 C3081 1.398 . S
C3082 C3083 1.391 . S
C3083 H3071 0.950 . S
C3083 C3079 1.393 . S
C3083 C3082 1.391 . S
H3084 C3092 0.950 . S
H3085 C3097 0.950 . S
H3086 C3094 0.950 . S
H3087 C3096 0.950 . S
H3088 C3098 0.950 . S
H3089 C3100 0.950 . S
H3090 C3102 0.950 . S
H3091 C3103 0.950 . S
C3092 H3084 0.950 . S
C3092 C3093 1.386 . S
C3092 C3094 1.391 . S
C3093 C3092 1.386 . S
C3093 C3097 1.393 . S
C3094 H3086 0.950 . S
C3094 C3092 1.391 . S
C3094 C3095 1.400 . S
C3095 C3094 1.400 . S
C3095 C3096 1.398 . S
C3095 C3101 1.491 . S
C3096 H3087 0.950 . S
C3096 C3095 1.398 . S
C3096 C3097 1.391 . S
C3097 H3085 0.950 . S
C3097 C3093 1.393 . S
C3097 C3096 1.391 . S
C3098 H3088 0.950 . S
C3098 C3099 1.386 . S
C3098 C3100 1.391 . S
C3099 C3098 1.386 . S
C3099 C3103 1.393 . S
C3100 H3089 0.950 . S
C3100 C3098 1.391 . S
C3100 C3101 1.400 . S
C3101 C3095 1.491 . S
C3101 C3100 1.400 . S
C3101 C3102 1.398 . S
C3102 H3090 0.950 . S
C3102 C3101 1.398 . S
C3102 C3103 1.391 . S
C3103 H3091 0.950 . S
C3103 C3099 1.393 . S
C3103 C3102 1.391 . S
C1193 C255 1.211 . S
C1199 C880 1.176 . S
C1213 C147 1.279 . S
C1219 C893 1.264 . S
C1233 C184 1.298 . S
C1239 C912 1.275 . S
C1259 C943 1.881 . S
C1253 C220 1.931 . S
C1273 C40 1.685 . S
C1279 C963 1.665 . S
C1299 C980 0.888 . S
C1293 C74 0.898 . S
C1319 C993 1.504 . S
C1313 C110 1.499 . S
C1333 C14 0.947 . S
C1339 C1020 0.946 . S
C1359 C873 1.232 . S
C1353 C579 1.249 . S
C1373 C616 1.484 . S
C1379 C903 1.463 . S
C1399 C905 1.705 . S
C1393 C687 1.757 . S
C1419 C940 0.910 . S
C1413 C436 0.883 . S
C1433 C580 1.148 . S
C1439 C960 1.130 . S
C1459 C973 1.780 . S
C1453 C615 1.788 . S
C1479 C1003 1.306 . S
C1473 C688 1.322 . S
C1499 C1013 1.200 . S
C1493 C435 1.218 . S
C1519 C883 1.594 1_565 S
C1513 C410 1.592 . S
C1533 C722 1.833 . S
C1539 C1033 1.825 . S
C1559 C1063 1.671 . S
C1553 C842 1.657 . S
C1579 C1080 1.198 . S
C1573 C794 1.220 . S
C1593 C302 1.896 . S
C1599 C1023 1.949 . S
C1613 C338 1.239 . S
C1619 C910 1.209 . S
C1633 C830 1.919 . S
C1639 C1093 1.926 . S
C1659 C1120 0.990 . S
C1653 C758 1.013 . S
C1679 C870 1.168 . S
C1673 C158 1.121 . S
C1699 C1105 1.259 . S
C1693 C254 1.282 . S
C1713 C218 1.290 . S
C1719 C923 1.286 . S
C1733 C194 1.879 . S
C1739 C1092 1.863 . S
C1759 C952 1.645 . S
C1753 C3 1.659 . S
C1773 C111 0.780 . S
C1779 C1050 0.793 . S
C1799 C985 1.462 . S
C1793 C76 1.454 . S
C1819 C1130 0.965 . S
C1813 C50 0.981 . S
C1839 C865 1.194 . S
C1833 C364 1.201 1_565 S
C1859 C1112 1.432 . S
C1853 C795 1.461 . S
C1873 C292 1.686 . S
C1879 C913 1.645 . S
C1893 C723 0.836 . S
C1899 C1090 0.849 . S
C1913 C363 1.119 . S
C1919 C950 1.120 . S
C1939 C1045 1.774 . S
C1933 C796 1.753 . S
C1953 C291 1.311 . S
C1959 C992 1.275 . S
C1973 C724 1.213 . S
C1979 C1125 1.203 . S
C1993 C482 1.539 1_554 S
C1999 C872 1.562 . S
C2013 C434 1.816 . S
C2019 C1025 1.811 . S
C2033 C662 1.536 . S
C2039 C972 1.616 . S
C2053 C614 1.207 . S
C2059 C1070 1.190 . S
C2079 C1132 1.939 . S
C2073 C698 1.916 . S
C2093 C554 1.176 . S
C2099 C920 1.226 1_565 S
C2119 C925 1.869 . S
C2113 C650 1.871 . S
C2139 C890 0.956 . S
C2133 C506 1.004 . S
C2153 C183 1.210 . S
C2159 C1160 1.191 . S
C2179 C1113 1.256 . S
C2173 C219 1.279 . S
C2193 C256 1.286 . S
C2199 C1172 1.284 . S
C2213 C148 1.928 . S
C2219 C1103 1.877 . S
C2233 C122 1.694 . S
C2239 C1043 1.714 . S
C2259 C1060 0.827 . S
C2253 C2 0.834 . S
C2279 C1073 1.391 1_655 S
C2273 C39 1.388 . S
C2299 C1140 0.990 . S
C2293 C86 0.989 . S
C2319 C1153 1.248 . S
C2313 C651 1.271 . S
C2333 C472 1.493 . S
C2339 C1123 1.461 . S
C2359 C1165 1.695 . S
C2353 C507 1.745 . S
C2379 C1100 0.907 . S
C2373 C544 0.897 . S
C2399 C1040 1.139 . S
C2393 C652 1.146 . S
C2413 C471 1.766 . S
C2419 C1053 1.755 . S
C2439 C1083 1.283 . S
C2433 C508 1.317 . S
C2453 C543 1.240 . S
C2459 C1133 1.223 . S
C2479 C1163 1.625 . S
C2473 C806 1.616 . S
C2493 C326 1.813 . S
C2499 C953 1.815 . S
C2519 C983 1.646 . S
C2513 C374 1.630 . S
C2539 C1000 1.217 . S
C2533 C398 1.243 . S
C2559 C1143 1.941 . S
C2553 C770 1.907 . S
C2573 C734 1.221 1_554 S
C2579 C1170 1.218 . S
C2599 C933 1.921 . S
C2593 C362 1.910 . S
C2619 C900 0.993 . S
C2613 C290 1.031 1_565 S
C2633 C230 1.122 . S
C2639 C1150 1.150 . S
C2659 C885 1.273 . S
C2653 C182 1.283 . S
C2673 C146 1.287 . S
C2679 C1183 1.268 . S
C2693 C266 1.878 . S
C2699 C932 1.865 . S
C2713 C75 1.723 . S
C2719 C1032 1.701 1_556 S
C2739 C970 0.873 . S
C2733 C38 0.875 . S
C2753 C4 1.388 . S
C2759 C1065 1.384 . S
C2773 C112 0.963 . S
C2779 C1010 0.925 . S
C2799 C1145 1.202 . S
C2793 C832 1.207 . S
C2813 C399 1.479 . S
C2819 C892 1.448 . S
C2839 C1173 1.645 1_655 S
C2833 C760 1.674 . S
C2853 C327 0.830 . S
C2859 C930 0.846 . S
C2873 C831 1.147 . S
C2879 C1030 1.125 . S
C2899 C965 1.760 . S
C2893 C400 1.762 . S
C2913 C759 1.320 . S
C2919 C1072 1.273 . S
C2939 C1005 1.206 . S
C2933 C328 1.216 . S
C2959 C1152 1.589 . S
C2953 C626 1.557 . S
C2979 C945 1.811 1_565 S
C2973 C542 1.817 . S
C2993 C590 1.528 . S
C2999 C1052 1.598 . S
C3019 C990 1.185 . S
C3013 C470 1.218 . S
C3033 C518 1.896 . S
C3039 C1012 1.918 . S
C3053 C446 1.189 . S
C3059 C1180 1.235 . S
C3079 C1085 1.883 . S
C3073 C578 1.872 1_565 S
C3099 C1110 0.974 . S
C3093 C686 0.970 . S
