# Generated by pormake.
# Topology ocu, (6,8)-cn, num edge types: 1
# Building blocks:
#     Node 0, Type 0, BuildingBlock: HISSIN_clean_sbu_0, # of connection points: 6
#     Node 1, Type 0, BuildingBlock: HISSIN_clean_sbu_0, # of connection points: 6
#     Node 2, Type 0, BuildingBlock: HISSIN_clean_sbu_0, # of connection points: 6
#     Node 3, Type 0, BuildingBlock: HISSIN_clean_sbu_0, # of connection points: 6
#     Node 4, Type 0, BuildingBlock: HISSIN_clean_sbu_0, # of connection points: 6
#     Node 5, Type 0, BuildingBlock: HISSIN_clean_sbu_0, # of connection points: 6
#     Node 6, Type 0, BuildingBlock: HISSIN_clean_sbu_0, # of connection points: 6
#     Node 7, Type 0, BuildingBlock: HISSIN_clean_sbu_0, # of connection points: 6
#     Node 8, Type 1, BuildingBlock: GIZVER_clean_sbu_0, # of connection points: 8
#     Node 9, Type 1, BuildingBlock: GIZVER_clean_sbu_0, # of connection points: 8
#     Node 10, Type 1, BuildingBlock: GIZVER_clean_sbu_0, # of connection points: 8
#     Node 11, Type 1, BuildingBlock: GIZVER_clean_sbu_0, # of connection points: 8
#     Node 12, Type 1, BuildingBlock: GIZVER_clean_sbu_0, # of connection points: 8
#     Node 13, Type 1, BuildingBlock: GIZVER_clean_sbu_0, # of connection points: 8
#     Edge 14, Type (0, 1), BuildingBlock: KIFKEQ_clean_linker_1, # of connection points: 2
#     Edge 15, Type (0, 1), BuildingBlock: KIFKEQ_clean_linker_1, # of connection points: 2
#     Edge 16, Type (0, 1), BuildingBlock: KIFKEQ_clean_linker_1, # of connection points: 2
#     Edge 17, Type (0, 1), BuildingBlock: KIFKEQ_clean_linker_1, # of connection points: 2
#     Edge 18, Type (0, 1), BuildingBlock: KIFKEQ_clean_linker_1, # of connection points: 2
#     Edge 19, Type (0, 1), BuildingBlock: KIFKEQ_clean_linker_1, # of connection points: 2
#     Edge 20, Type (0, 1), BuildingBlock: KIFKEQ_clean_linker_1, # of connection points: 2
#     Edge 21, Type (0, 1), BuildingBlock: KIFKEQ_clean_linker_1, # of connection points: 2
#     Edge 22, Type (0, 1), BuildingBlock: KIFKEQ_clean_linker_1, # of connection points: 2
#     Edge 23, Type (0, 1), BuildingBlock: KIFKEQ_clean_linker_1, # of connection points: 2
#     Edge 24, Type (0, 1), BuildingBlock: KIFKEQ_clean_linker_1, # of connection points: 2
#     Edge 25, Type (0, 1), BuildingBlock: KIFKEQ_clean_linker_1, # of connection points: 2
#     Edge 26, Type (0, 1), BuildingBlock: KIFKEQ_clean_linker_1, # of connection points: 2
#     Edge 27, Type (0, 1), BuildingBlock: KIFKEQ_clean_linker_1, # of connection points: 2
#     Edge 28, Type (0, 1), BuildingBlock: KIFKEQ_clean_linker_1, # of connection points: 2
#     Edge 29, Type (0, 1), BuildingBlock: KIFKEQ_clean_linker_1, # of connection points: 2
#     Edge 30, Type (0, 1), BuildingBlock: KIFKEQ_clean_linker_1, # of connection points: 2
#     Edge 31, Type (0, 1), BuildingBlock: KIFKEQ_clean_linker_1, # of connection points: 2
#     Edge 32, Type (0, 1), BuildingBlock: KIFKEQ_clean_linker_1, # of connection points: 2
#     Edge 33, Type (0, 1), BuildingBlock: KIFKEQ_clean_linker_1, # of connection points: 2
#     Edge 34, Type (0, 1), BuildingBlock: KIFKEQ_clean_linker_1, # of connection points: 2
#     Edge 35, Type (0, 1), BuildingBlock: KIFKEQ_clean_linker_1, # of connection points: 2
#     Edge 36, Type (0, 1), BuildingBlock: KIFKEQ_clean_linker_1, # of connection points: 2
#     Edge 37, Type (0, 1), BuildingBlock: KIFKEQ_clean_linker_1, # of connection points: 2
#     Edge 38, Type (0, 1), BuildingBlock: KIFKEQ_clean_linker_1, # of connection points: 2
#     Edge 39, Type (0, 1), BuildingBlock: KIFKEQ_clean_linker_1, # of connection points: 2
#     Edge 40, Type (0, 1), BuildingBlock: KIFKEQ_clean_linker_1, # of connection points: 2
#     Edge 41, Type (0, 1), BuildingBlock: KIFKEQ_clean_linker_1, # of connection points: 2
#     Edge 42, Type (0, 1), BuildingBlock: KIFKEQ_clean_linker_1, # of connection points: 2
#     Edge 43, Type (0, 1), BuildingBlock: KIFKEQ_clean_linker_1, # of connection points: 2
#     Edge 44, Type (0, 1), BuildingBlock: KIFKEQ_clean_linker_1, # of connection points: 2
#     Edge 45, Type (0, 1), BuildingBlock: KIFKEQ_clean_linker_1, # of connection points: 2
#     Edge 46, Type (0, 1), BuildingBlock: KIFKEQ_clean_linker_1, # of connection points: 2
#     Edge 47, Type (0, 1), BuildingBlock: KIFKEQ_clean_linker_1, # of connection points: 2
#     Edge 48, Type (0, 1), BuildingBlock: KIFKEQ_clean_linker_1, # of connection points: 2
#     Edge 49, Type (0, 1), BuildingBlock: KIFKEQ_clean_linker_1, # of connection points: 2
#     Edge 50, Type (0, 1), BuildingBlock: KIFKEQ_clean_linker_1, # of connection points: 2
#     Edge 51, Type (0, 1), BuildingBlock: KIFKEQ_clean_linker_1, # of connection points: 2
#     Edge 52, Type (0, 1), BuildingBlock: KIFKEQ_clean_linker_1, # of connection points: 2
#     Edge 53, Type (0, 1), BuildingBlock: KIFKEQ_clean_linker_1, # of connection points: 2
#     Edge 54, Type (0, 1), BuildingBlock: KIFKEQ_clean_linker_1, # of connection points: 2
#     Edge 55, Type (0, 1), BuildingBlock: KIFKEQ_clean_linker_1, # of connection points: 2
#     Edge 56, Type (0, 1), BuildingBlock: KIFKEQ_clean_linker_1, # of connection points: 2
#     Edge 57, Type (0, 1), BuildingBlock: KIFKEQ_clean_linker_1, # of connection points: 2
#     Edge 58, Type (0, 1), BuildingBlock: KIFKEQ_clean_linker_1, # of connection points: 2
#     Edge 59, Type (0, 1), BuildingBlock: KIFKEQ_clean_linker_1, # of connection points: 2
#     Edge 60, Type (0, 1), BuildingBlock: KIFKEQ_clean_linker_1, # of connection points: 2
#     Edge 61, Type (0, 1), BuildingBlock: KIFKEQ_clean_linker_1, # of connection points: 2
# Relax obj value: 0.166
# Max RMSD: 0.247
# Mean RMSD: 0.168
data_MOF--net-ocu--node1-HISSIN_clean_sbu_0--node2-GIZVER_clean_sbu_0--edge1-KIFKEQ_clean_linker_1
_symmetry_space_group_name_H-M    P1
_symmetry_Int_Tables_number       1
_symmetry_cell_setting            triclinic
loop_
_symmetry_equiv_pos_as_xyz
'x, y, z'
_cell_length_a     44.338243
_cell_length_b     46.53134
_cell_length_c     33.442626
_cell_angle_alpha  102.2191
_cell_angle_beta   79.506767
_cell_angle_gamma 111.24842
loop_
_atom_site_label
_atom_site_type_symbol
_atom_site_fract_x
_atom_site_fract_y
_atom_site_fract_z
_atom_type_partial_charge
Eu0 Eu 0.3197 0.28304 0.2982 0.0
Eu1 Eu 0.2735 0.2598 0.22217 0.0
C2 C 0.2568 0.21958 0.29679 0.0
C3 C 0.37242 0.27757 0.37053 0.0
C4 C 0.3636 0.24538 0.35601 0.0
C5 C 0.41089 0.27331 0.4105 0.0
C6 C 0.37824 0.22729 0.36862 0.0
C7 C 0.39611 0.29142 0.39789 0.0
C8 C 0.40225 0.241 0.39585 0.0
C9 C 0.35743 0.29652 0.35612 0.0
O10 O 0.26004 0.30064 0.26172 0.0
O11 O 0.2797 0.30486 0.32249 0.0
C12 C 0.26148 0.31173 0.30129 0.0
O13 O 0.33781 0.32393 0.26314 0.0
O14 O 0.22537 0.24097 0.20107 0.0
O15 O 0.26805 0.25396 0.15681 0.0
O16 O 0.31816 0.29869 0.20158 0.0
C17 C 0.33705 0.32314 0.22377 0.0
O18 O 0.3427 0.25275 0.24863 0.0
O19 O 0.3019 0.22584 0.20731 0.0
O20 O 0.24564 0.22812 0.26908 0.0
O21 O 0.36815 0.30267 0.3188 0.0
O22 O 0.32572 0.28796 0.36297 0.0
O23 O 0.28625 0.23456 0.30738 0.0
C24 C 0.22228 0.26538 0.1473 0.0
C25 C 0.22628 0.26591 0.10481 0.0
C26 C 0.19453 0.30343 0.15883 0.0
C27 C 0.21484 0.28536 0.08946 0.0
C28 C 0.20608 0.28419 0.17411 0.0
C29 C 0.19916 0.30467 0.11638 0.0
C30 C 0.23646 0.24653 0.1636 0.0
C31 C 0.33016 0.22983 0.21916 0.0
H32 H 0.34539 0.23423 0.33478 0.0
H33 H 0.42948 0.28473 0.43113 0.0
H34 H 0.37048 0.20245 0.35723 0.0
H35 H 0.40337 0.31628 0.40923 0.0
H36 H 0.23884 0.25173 0.08358 0.0
H37 H 0.18203 0.31748 0.18043 0.0
H38 H 0.21909 0.28592 0.05666 0.0
H39 H 0.20265 0.28439 0.20707 0.0
Eu40 Eu 0.8206 0.24764 0.24624 0.0
Eu41 Eu 0.76802 0.28689 0.26973 0.0
C42 C 0.82528 0.30191 0.32597 0.0
C43 C 0.88168 0.20558 0.24611 0.0
C44 C 0.87999 0.20917 0.28909 0.0
C45 C 0.92067 0.17867 0.23886 0.0
C46 C 0.8984 0.1973 0.30687 0.0
C47 C 0.90228 0.1905 0.22119 0.0
C48 C 0.91883 0.1817 0.28193 0.0
C49 C 0.86202 0.21704 0.22651 0.0
O50 O 0.81325 0.31833 0.23752 0.0
O51 O 0.83517 0.28147 0.20079 0.0
C52 C 0.83433 0.31014 0.20862 0.0
O53 O 0.7779 0.22123 0.21011 0.0
O54 O 0.75588 0.32969 0.28962 0.0
O55 O 0.7175 0.28518 0.27823 0.0
O56 O 0.76184 0.26165 0.20481 0.0
C57 C 0.7611 0.23266 0.19323 0.0
O58 O 0.7882 0.22948 0.30227 0.0
O59 O 0.74394 0.24143 0.29449 0.0
O60 O 0.79495 0.29978 0.32549 0.0
O61 O 0.83051 0.20364 0.23209 0.0
O62 O 0.87043 0.24721 0.22922 0.0
O63 O 0.84066 0.2871 0.29639 0.0
C64 C 0.70764 0.32961 0.26871 0.0
C65 C 0.71217 0.32931 0.22602 0.0
C66 C 0.66887 0.35674 0.2763 0.0
C67 C 0.69516 0.34282 0.20857 0.0
C68 C 0.68587 0.3433 0.29364 0.0
C69 C 0.67332 0.35674 0.23357 0.0
C70 C 0.72475 0.31533 0.28797 0.0
C71 C 0.75688 0.22544 0.30984 0.0
H72 H 0.8643 0.22092 0.30882 0.0
H73 H 0.93566 0.16639 0.21867 0.0
H74 H 0.89662 0.20034 0.34012 0.0
H75 H 0.90385 0.1875 0.18794 0.0
H76 H 0.72877 0.31862 0.20629 0.0
H77 H 0.65271 0.36769 0.29653 0.0
H78 H 0.69894 0.3422 0.17552 0.0
H79 H 0.6821 0.3437 0.32667 0.0
Eu80 Eu 0.80771 0.79136 0.22451 0.0
Eu81 Eu 0.78325 0.74834 0.29711 0.0
C82 C 0.74227 0.73213 0.2201 0.0
C83 C 0.80211 0.83634 0.14581 0.0
C84 C 0.77015 0.8178 0.13777 0.0
C85 C 0.79584 0.87869 0.11999 0.0
C86 C 0.75119 0.82964 0.12104 0.0
C87 C 0.81486 0.86676 0.13646 0.0
C88 C 0.76367 0.86037 0.11242 0.0
C89 C 0.82173 0.8247 0.16551 0.0
O90 O 0.82742 0.73705 0.26078 0.0
O91 O 0.82548 0.74975 0.19926 0.0
C92 C 0.83519 0.73458 0.2206 0.0
O93 O 0.8513 0.80718 0.26049 0.0
O94 O 0.76813 0.70267 0.31632 0.0
O95 O 0.77365 0.74389 0.36239 0.0
O96 O 0.82266 0.79199 0.32099 0.0
C97 C 0.84943 0.8081 0.30046 0.0
O98 O 0.7806 0.81659 0.27629 0.0
O99 O 0.74789 0.7758 0.30952 0.0
O100 O 0.75262 0.72065 0.24547 0.0
O101 O 0.82599 0.8369 0.20381 0.0
O102 O 0.81526 0.79455 0.15911 0.0
O103 O 0.75568 0.7616 0.2157 0.0
C104 C 0.79256 0.70561 0.37435 0.0
C105 C 0.82629 0.71695 0.36258 0.0
C106 C 0.80134 0.67514 0.419 0.0
C107 C 0.84737 0.70708 0.37836 0.0
C108 C 0.78025 0.68497 0.40303 0.0
C109 C 0.83515 0.68567 0.40634 0.0
C110 C 0.77043 0.71434 0.35512 0.0
C111 C 0.75512 0.80458 0.30242 0.0
H112 H 0.75959 0.79432 0.14502 0.0
H113 H 0.8063 0.90235 0.1133 0.0
H114 H 0.72642 0.81505 0.11606 0.0
H115 H 0.8394 0.88147 0.14244 0.0
H116 H 0.83627 0.73294 0.34041 0.0
H117 H 0.7911 0.65903 0.44095 0.0
H118 H 0.8731 0.71539 0.36744 0.0
H119 H 0.7543 0.67606 0.41259 0.0
Eu120 Eu 0.31551 0.74942 0.25316 0.0
Eu121 Eu 0.26825 0.79055 0.2832 0.0
C122 C 0.25531 0.74014 0.20258 0.0
C123 C 0.36239 0.70999 0.17664 0.0
C124 C 0.34251 0.7103 0.14848 0.0
C125 C 0.40403 0.70582 0.12045 0.0
C126 C 0.35325 0.70818 0.10648 0.0
C127 C 0.39317 0.70772 0.16242 0.0
C128 C 0.38427 0.70631 0.09216 0.0
C129 C 0.35273 0.71674 0.22082 0.0
O130 O 0.24009 0.74164 0.29609 0.0
O131 O 0.2827 0.7297 0.30817 0.0
C132 C 0.25127 0.72463 0.31207 0.0
O133 O 0.34148 0.78873 0.29986 0.0
O134 O 0.22177 0.7948 0.31341 0.0
O135 O 0.26115 0.83584 0.29685 0.0
O136 O 0.29601 0.79698 0.33631 0.0
C137 C 0.3272 0.80152 0.33278 0.0
O138 O 0.32969 0.78318 0.20797 0.0
O139 O 0.31388 0.82155 0.25075 0.0
O140 O 0.25381 0.76777 0.22002 0.0
O141 O 0.36415 0.7462 0.23638 0.0
O142 O 0.32185 0.70402 0.23299 0.0
O143 O 0.27367 0.72772 0.2148 0.0
C144 C 0.23554 0.83927 0.36408 0.0
C145 C 0.24071 0.82328 0.39212 0.0
C146 C 0.24166 0.8846 0.41704 0.0
C147 C 0.24627 0.83781 0.43234 0.0
C148 C 0.23642 0.87011 0.37668 0.0
C149 C 0.24656 0.86858 0.44545 0.0
C150 C 0.23418 0.82518 0.32058 0.0
C151 C 0.33179 0.81259 0.21827 0.0
H152 H 0.31894 0.71288 0.15904 0.0
H153 H 0.4278 0.70356 0.11005 0.0
H154 H 0.33755 0.70843 0.08532 0.0
H155 H 0.409 0.70803 0.18379 0.0
H156 H 0.24086 0.79957 0.38284 0.0
H157 H 0.24073 0.90804 0.42625 0.0
H158 H 0.24993 0.82484 0.45328 0.0
H159 H 0.23315 0.883 0.35531 0.0
Eu160 Eu 0.32212 0.7428 0.74447 0.0
Eu161 Eu 0.27287 0.78459 0.7663 0.0
C162 C 0.33092 0.79786 0.82139 0.0
C163 C 0.3861 0.70521 0.74848 0.0
C164 C 0.3868 0.71139 0.79133 0.0
C165 C 0.42891 0.68274 0.74067 0.0
C166 C 0.40761 0.70226 0.8088 0.0
C167 C 0.40793 0.69168 0.72326 0.0
C168 C 0.42821 0.68699 0.7837 0.0
C169 C 0.3604 0.70919 0.73007 0.0
O170 O 0.30809 0.80113 0.71117 0.0
O171 O 0.35048 0.79061 0.72746 0.0
C172 C 0.3395 0.80645 0.70897 0.0
O173 O 0.29638 0.73047 0.68773 0.0
O174 O 0.26515 0.82948 0.77829 0.0
O175 O 0.22363 0.78703 0.78175 0.0
O176 O 0.25212 0.74594 0.71549 0.0
C177 C 0.26671 0.73 0.68644 0.0
O178 O 0.27197 0.71245 0.76704 0.0
O179 O 0.25689 0.75044 0.81161 0.0
O180 O 0.31393 0.80965 0.80539 0.0
O181 O 0.33141 0.7013 0.75048 0.0
O182 O 0.36735 0.73462 0.71457 0.0
O183 O 0.33076 0.76908 0.80857 0.0
C184 C 0.21552 0.82877 0.7604 0.0
C185 C 0.18593 0.83236 0.77942 0.0
C186 C 0.21103 0.8496 0.7017 0.0
C187 C 0.16912 0.84473 0.76 0.0
C188 C 0.22776 0.83704 0.7211 0.0
C189 C 0.18166 0.85389 0.72113 0.0
C190 C 0.23346 0.81713 0.78258 0.0
C191 C 0.25365 0.72083 0.79944 0.0
H192 H 0.37025 0.72198 0.81138 0.0
H193 H 0.44426 0.67082 0.72053 0.0
H194 H 0.40681 0.70617 0.84202 0.0
H195 H 0.40767 0.68664 0.69015 0.0
H196 H 0.17608 0.82608 0.80972 0.0
H197 H 0.22115 0.85609 0.67158 0.0
H198 H 0.1468 0.84806 0.77604 0.0
H199 H 0.25044 0.83418 0.70567 0.0
Eu200 Eu 0.30892 0.28436 0.72361 0.0
Eu201 Eu 0.28487 0.24119 0.79697 0.0
C202 C 0.24316 0.22604 0.72136 0.0
C203 C 0.29839 0.3273 0.64628 0.0
C204 C 0.27739 0.30802 0.61701 0.0
C205 C 0.27524 0.36788 0.64882 0.0
C206 C 0.25519 0.31838 0.60436 0.0
C207 C 0.29747 0.35758 0.66136 0.0
C208 C 0.25345 0.34824 0.62069 0.0
C209 C 0.31967 0.3153 0.66286 0.0
O210 O 0.32835 0.22877 0.76077 0.0
O211 O 0.32995 0.24458 0.69981 0.0
C212 C 0.3383 0.2283 0.72112 0.0
O213 O 0.35169 0.30461 0.76111 0.0
O214 O 0.26815 0.19505 0.81543 0.0
O215 O 0.27353 0.23606 0.862 0.0
O216 O 0.32838 0.28133 0.81889 0.0
C217 C 0.35222 0.30162 0.79925 0.0
O218 O 0.28275 0.31075 0.77457 0.0
O219 O 0.25225 0.27174 0.81215 0.0
O220 O 0.25448 0.21391 0.74484 0.0
O221 O 0.32813 0.32854 0.69954 0.0
O222 O 0.31192 0.28502 0.65792 0.0
O223 O 0.25607 0.25579 0.71877 0.0
C224 C 0.28856 0.19549 0.87587 0.0
C225 C 0.32091 0.21374 0.88233 0.0
C226 C 0.29442 0.15408 0.90424 0.0
C227 C 0.3399 0.20218 0.8995 0.0
C228 C 0.27539 0.16574 0.88737 0.0
C229 C 0.32704 0.17199 0.91002 0.0
C230 C 0.26924 0.20626 0.8545 0.0
C231 C 0.25893 0.29998 0.80325 0.0
H232 H 0.27753 0.2846 0.60452 0.0
H233 H 0.27506 0.39128 0.66131 0.0
H234 H 0.23873 0.30264 0.58272 0.0
H235 H 0.31351 0.37319 0.68355 0.0
H236 H 0.33175 0.23664 0.87321 0.0
H237 H 0.28368 0.13085 0.91239 0.0
H238 H 0.36501 0.21642 0.90311 0.0
H239 H 0.25057 0.15123 0.88248 0.0
Eu240 Eu 0.82215 0.2447 0.74891 0.0
Eu241 Eu 0.76982 0.28093 0.77471 0.0
C242 C 0.763 0.22794 0.69478 0.0
C243 C 0.8839 0.22381 0.67739 0.0
C244 C 0.87198 0.23676 0.65194 0.0
C245 C 0.92356 0.2147 0.6211 0.0
C246 C 0.88495 0.23773 0.61097 0.0
C247 C 0.91019 0.21334 0.66213 0.0
C248 C 0.91052 0.22631 0.59512 0.0
C249 C 0.86784 0.2214 0.71934 0.0
O250 O 0.75886 0.24758 0.82004 0.0
O251 O 0.77906 0.21073 0.78068 0.0
C252 C 0.75882 0.21868 0.81094 0.0
O253 O 0.82957 0.26895 0.81401 0.0
O254 O 0.71953 0.27928 0.79287 0.0
O255 O 0.75858 0.32394 0.79593 0.0
O256 O 0.81413 0.3089 0.80684 0.0
C257 C 0.83049 0.29798 0.82497 0.0
O258 O 0.84443 0.29018 0.72381 0.0
O259 O 0.79949 0.30206 0.71924 0.0
O260 O 0.74777 0.24236 0.72488 0.0
O261 O 0.87304 0.24812 0.74379 0.0
O262 O 0.83705 0.20432 0.72156 0.0
O263 O 0.79361 0.23095 0.69447 0.0
C264 C 0.71953 0.31459 0.85328 0.0
C265 C 0.7408 0.31506 0.88013 0.0
C266 C 0.67941 0.31877 0.91144 0.0
C267 C 0.73161 0.31785 0.9225 0.0
C268 C 0.6887 0.31617 0.86908 0.0
C269 C 0.7008 0.31968 0.93855 0.0
C270 C 0.72849 0.30876 0.80884 0.0
C271 C 0.83068 0.30606 0.70966 0.0
H272 H 0.85205 0.24548 0.66346 0.0
H273 H 0.94303 0.20524 0.6091 0.0
H274 H 0.87451 0.24661 0.59145 0.0
H275 H 0.91977 0.20351 0.68146 0.0
H276 H 0.76448 0.31304 0.86828 0.0
H277 H 0.65575 0.32095 0.92307 0.0
H278 H 0.74854 0.31866 0.94268 0.0
H279 H 0.67185 0.31525 0.84871 0.0
Eu280 Eu 0.82143 0.77742 0.79401 0.0
Eu281 Eu 0.77545 0.75319 0.71861 0.0
C282 C 0.75912 0.71479 0.79333 0.0
C283 C 0.86794 0.76925 0.87186 0.0
C284 C 0.85352 0.73673 0.86255 0.0
C285 C 0.90395 0.76195 0.91273 0.0
C286 C 0.86437 0.71696 0.87791 0.0
C287 C 0.89302 0.78176 0.8973 0.0
C288 C 0.89003 0.72927 0.90274 0.0
C289 C 0.85794 0.78977 0.85301 0.0
O290 O 0.75195 0.78294 0.76865 0.0
O291 O 0.79369 0.81185 0.80775 0.0
C292 C 0.76473 0.80673 0.79707 0.0
O293 O 0.84873 0.81046 0.7483 0.0
O294 O 0.72687 0.72954 0.6993 0.0
O295 O 0.76739 0.74876 0.6546 0.0
O296 O 0.8092 0.80099 0.70656 0.0
C297 C 0.838 0.81736 0.71859 0.0
O298 O 0.83373 0.73557 0.75507 0.0
O299 O 0.81611 0.73271 0.69352 0.0
O300 O 0.76164 0.71238 0.75312 0.0
O301 O 0.86948 0.79154 0.81455 0.0
O302 O 0.82703 0.78638 0.85956 0.0
O303 O 0.77475 0.74102 0.81569 0.0
C304 C 0.71704 0.75357 0.64939 0.0
C305 C 0.71885 0.75513 0.60753 0.0
C306 C 0.68324 0.78663 0.66612 0.0
C307 C 0.70339 0.77268 0.59508 0.0
C308 C 0.69878 0.76924 0.67853 0.0
C309 C 0.68577 0.78904 0.6243 0.0
C310 C 0.73578 0.73725 0.66252 0.0
C311 C 0.83336 0.72512 0.71521 0.0
H312 H 0.83415 0.7266 0.84286 0.0
H313 H 0.92393 0.77221 0.93143 0.0
H314 H 0.8527 0.69196 0.87012 0.0
H315 H 0.90457 0.80682 0.90458 0.0
H316 H 0.73292 0.74339 0.58453 0.0
H317 H 0.66946 0.79846 0.68945 0.0
H318 H 0.70621 0.77428 0.56269 0.0
H319 H 0.69694 0.76853 0.71107 0.0
Co320 Co 0.07938 0.96804 0.52421 0.0
Co321 Co 0.06238 1.00709 0.58575 0.0
Co322 Co 0.04682 0.01968 0.50641 0.0
O323 O 0.07764 1.00881 0.53009 0.0
H324 H 0.09914 0.02438 0.52786 0.0
O325 O 1.01651 0.03192 0.48284 0.0
Co326 Co 1.02293 0.07568 0.48484 0.0
Co327 Co 1.03289 0.03023 0.42663 0.0
H328 H 0.99407 0.01863 0.48712 0.0
O329 O 0.08756 1.00791 0.6247 0.0
O330 O 0.05931 0.96576 0.58295 0.0
O331 O 1.02027 1.01084 0.60477 0.0
O332 O 1.00717 0.99357 0.54132 0.0
O333 O 0.05304 0.05708 0.54958 0.0
O334 O 1.02522 0.11401 0.48456 0.0
O335 O 0.98336 0.06938 0.47031 0.0
O336 O 0.06545 0.08976 0.5051 0.0
O337 O 0.08652 0.0448 0.47099 0.0
O338 O 0.07393 0.02341 0.40836 0.0
O339 O 1.04027 0.07179 0.42449 0.0
O340 O 1.00795 0.02852 0.38779 0.0
C341 C 0.11358 0.95191 0.53491 0.0
C342 C 1.02926 0.95459 0.47117 0.0
C343 C 0.99923 0.99512 0.58041 0.0
C344 C 0.07666 0.97779 0.61389 0.0
C345 C 0.99629 0.09972 0.4732 0.0
C346 C 0.06833 0.08408 0.53986 0.0
C347 C 0.09485 0.04095 0.43203 0.0
C348 C 1.02111 0.05872 0.39528 0.0
O349 O 0.08661 0.93226 0.52124 0.0
O350 O 0.11878 0.98174 0.54066 0.0
O351 O 1.04064 0.98234 0.46318 0.0
O352 O 1.03702 0.948 0.50243 0.0
Co353 Co 0.5845 0.95851 0.97227 0.0
Co354 Co 0.58558 0.98532 0.04848 0.0
Co355 Co 0.54422 1.01468 0.01097 0.0
O356 O 0.58311 0.99959 1.00204 0.0
H357 H 0.6033 1.01604 0.99578 0.0
O358 O 0.50547 0.03 0.01969 0.0
Co359 Co 0.50486 0.07158 0.04873 0.0
Co360 Co 0.50321 0.04403 0.97269 0.0
H361 H 0.48521 1.01375 0.02632 0.0
O362 O 0.62534 0.98978 0.06103 0.0
O363 O 0.59126 0.94782 0.02417 0.0
O364 O 0.54826 0.97582 0.08849 0.0
O365 O 0.51689 0.98703 0.05363 0.0
O366 O 0.56549 0.04964 0.05368 0.0
O367 O 0.50139 0.10815 0.07599 0.0
O368 O 0.46022 0.063 0.06544 0.0
O369 O 0.55145 0.08723 0.03795 0.0
O370 O 0.57153 0.0422 0.96841 0.0
O371 O 0.5406 0.05298 0.93245 0.0
O372 O 0.49833 0.08198 0.99652 0.0
O373 O 0.46355 0.04028 0.96028 0.0
C374 C 0.61976 0.93811 0.93996 0.0
C375 C 0.5179 0.95091 0.96916 0.0
C376 C 0.52044 0.97462 0.08243 0.0
C377 C 0.61804 0.96112 0.04204 0.0
C378 C 0.47028 0.09291 0.08064 0.0
C379 C 0.57108 0.07841 0.05208 0.0
C380 C 0.56831 0.05431 0.93915 0.0
C381 C 0.47141 0.06905 0.97893 0.0
O382 O 0.58876 0.92236 0.94433 0.0
O383 O 0.62924 0.96793 0.9557 0.0
O384 O 0.523 0.97969 0.96823 0.0
O385 O 0.53786 0.94215 0.98274 0.0
Co386 Co 0.08349 0.45926 0.97231 0.0
Co387 Co 0.08627 0.48781 0.04876 0.0
Co388 Co 1.04595 0.51774 0.01009 0.0
O389 O 0.08421 0.50144 1.00099 0.0
H390 H 0.10465 0.5173 0.99381 0.0
O391 O 1.0077 0.53384 0.01863 0.0
Co392 Co 1.00846 0.5757 0.04728 0.0
Co393 Co 1.00586 0.54769 0.97102 0.0
H394 H 0.98726 0.51797 0.02565 0.0
O395 O 0.12455 0.48558 0.06019 0.0
O396 O 0.08586 0.44781 0.02522 0.0
O397 O 0.0493 0.48195 0.09014 0.0
O398 O 1.01793 0.48898 0.05093 0.0
O399 O 0.06714 0.55151 0.05454 0.0
O400 O 1.00584 0.61274 0.07497 0.0
O401 O 0.96395 0.56854 0.06163 0.0
O402 O 0.05474 0.58965 0.03809 0.0
O403 O 0.07386 0.54655 0.9694 0.0
O404 O 1.0427 0.55285 0.92914 0.0
O405 O 1.00573 0.58765 0.9946 0.0
O406 O 0.9676 0.54942 0.95917 0.0
C407 C 0.11744 0.43618 0.94264 0.0
C408 C 1.01869 0.45505 0.96598 0.0
C409 C 1.02136 0.47854 0.08169 0.0
C410 C 0.11243 0.45675 0.04283 0.0
C411 C 0.97455 0.59811 0.07821 0.0
C412 C 0.07314 0.58052 0.05394 0.0
C413 C 0.07054 0.55642 0.93809 0.0
C414 C 0.97938 0.57836 0.97637 0.0
O415 O 0.08609 0.42195 0.94569 0.0
O416 O 0.12815 0.46605 0.958 0.0
O417 O 1.02472 0.48411 0.96583 0.0
O418 O 1.03719 0.4454 0.98085 0.0
Co419 Co 0.57081 0.46268 0.0316 0.0
Co420 Co 0.56129 0.50912 0.08809 0.0
Co421 Co 0.54783 0.5184 1.007 0.0
O422 O 0.57708 0.50578 0.03172 0.0
H423 H 0.59964 0.51875 0.02729 0.0
O424 O 0.51866 0.53124 0.98244 0.0
Co425 Co 0.52496 0.57448 0.98325 0.0
Co426 Co 0.53395 0.52837 0.92606 0.0
H427 H 0.49606 0.51831 0.98697 0.0
O428 O 0.58644 0.51159 0.12718 0.0
O429 O 0.55374 0.46785 0.09182 0.0
O430 O 0.52057 0.51665 0.10621 0.0
O431 O 0.5075 0.49543 0.04367 0.0
O432 O 0.5564 0.55707 0.04821 0.0
O433 O 0.52627 0.61275 0.98187 0.0
O434 O 0.48546 0.56703 0.96889 0.0
O435 O 0.56772 0.58908 1.00291 0.0
O436 O 0.58808 0.54133 0.97015 0.0
O437 O 0.57396 0.51975 0.90813 0.0
O438 O 0.54269 0.57014 0.9234 0.0
O439 O 0.50945 0.52772 0.88687 0.0
C440 C 0.59828 0.43962 0.04388 0.0
C441 C 0.52486 0.45281 0.9769 0.0
C442 C 0.49938 0.4995 0.0827 0.0
C443 C 0.57306 0.48139 0.12073 0.0
C444 C 0.49712 0.59734 0.97146 0.0
C445 C 0.57134 0.58383 0.03755 0.0
C446 C 0.59555 0.53715 0.93098 0.0
C447 C 0.5237 0.55779 0.89409 0.0
O448 O 0.56909 0.4245 0.03354 0.0
O449 O 0.61046 0.46988 0.04574 0.0
O450 O 0.53921 0.47956 0.96594 0.0
O451 O 0.52809 0.44822 0.01216 0.0
Co452 Co 0.10124 0.48144 0.51432 0.0
Co453 Co 0.08617 0.47531 0.4432 0.0
Co454 Co 1.04415 0.51491 0.51047 0.0
O455 O 0.06167 0.47852 0.49442 0.0
H456 H 1.04456 0.45885 0.49759 0.0
O457 O 1.02693 0.55159 0.52597 0.0
Co458 Co 0.98889 0.54993 0.50341 0.0
Co459 Co 1.00021 0.5541 0.57491 0.0
H460 H 1.0444 0.57129 0.5243 0.0
O461 O 0.08792 0.43685 0.41413 0.0
O462 O 0.12318 0.47048 0.45707 0.0
O463 O 0.09917 0.51189 0.41747 0.0
O464 O 0.07476 0.53975 0.46687 0.0
O465 O 1.01077 0.49213 0.47155 0.0
O466 O 0.95657 0.55071 0.48044 0.0
O467 O 1.00226 0.59068 0.49607 0.0
O468 O 0.96983 0.5067 0.5069 0.0
O469 O 1.01316 0.48971 0.5542 0.0
O470 O 0.98318 0.51614 0.59665 0.0
O471 O 0.96552 0.56157 0.55937 0.0
O472 O 0.99969 0.59226 0.60552 0.0
C473 C 0.1179 0.45243 0.53559 0.0
C474 C 0.1082 0.5442 0.53673 0.0
C475 C 0.09375 0.53716 0.43337 0.0
C476 C 0.11487 0.44466 0.43027 0.0
C477 C 0.97434 0.57988 0.48089 0.0
C478 C 0.98032 0.48645 0.48254 0.0
C479 C 0.99058 0.49156 0.58388 0.0
C480 C 0.97393 0.58645 0.58769 0.0
O481 O 0.13511 0.48166 0.53501 0.0
O482 O 0.08946 0.44093 0.52169 0.0
O483 O 0.07781 0.5378 0.54913 0.0
O484 O 0.1186 0.52461 0.51075 0.0
Co485 Co 0.59772 0.97633 0.51445 0.0
Co486 Co 0.5874 0.975 0.44235 0.0
Co487 Co 0.5464 1.01634 0.5091 0.0
O488 O 0.56136 0.97845 0.49196 0.0
H489 H 0.54296 0.95936 0.4929 0.0
O490 O 0.53128 0.05416 0.52671 0.0
Co491 Co 0.49492 0.05657 0.50448 0.0
Co492 Co 0.50464 0.05658 0.57623 0.0
H493 H 0.54966 0.07334 0.52627 0.0
O494 O 0.58775 0.93609 0.41204 0.0
O495 O 0.62165 0.96683 0.45817 0.0
O496 O 0.60439 1.01301 0.4198 0.0
O497 O 0.57923 0.04156 0.46704 0.0
O498 O 0.51383 0.99685 0.46879 0.0
O499 O 0.46446 0.062 0.48205 0.0
O500 O 0.51129 0.09808 0.50176 0.0
O501 O 0.47322 1.01262 0.50297 0.0
O502 O 0.51373 0.99097 0.55086 0.0
O503 O 0.48841 0.01861 0.59937 0.0
O504 O 0.47076 0.0658 0.56097 0.0
O505 O 0.50466 0.09475 0.60811 0.0
C506 C 0.60844 0.94234 0.5336 0.0
C507 C 0.6093 0.04078 0.53939 0.0
C508 C 0.59964 0.03872 0.43498 0.0
C509 C 0.61336 0.94184 0.43012 0.0
C510 C 0.48428 0.09073 0.4855 0.0
C511 C 0.48345 0.99187 0.47927 0.0
C512 C 0.4937 0.99328 0.5834 0.0
C513 C 0.47914 0.08996 0.59031 0.0
O514 O 0.62825 0.97107 0.53681 0.0
O515 O 0.58124 0.93496 0.51774 0.0
O516 O 0.5789 0.0359 0.5495 0.0
O517 O 0.61949 0.02014 0.51542 0.0
H518 H 0.19726 0.17814 0.27723 0.0
H519 H 0.26785 0.19883 0.36209 0.0
H520 H 0.16209 0.13377 0.31043 0.0
H521 H 0.23255 0.15418 0.39521 0.0
H522 H 0.11908 0.03979 0.35071 0.0
H523 H 0.16024 0.08189 0.31849 0.0
H524 H 0.17898 0.13688 0.43833 0.0
H525 H 0.13776 0.09449 0.47087 0.0
C526 C 0.20539 0.17322 0.30287 0.0
C527 C 0.2355 0.19218 0.31684 0.0
C528 C 0.18527 0.14758 0.32179 0.0
C529 C 0.19453 0.14022 0.35541 0.0
C530 C 0.22456 0.15924 0.36957 0.0
C531 C 0.24487 0.18478 0.35039 0.0
C532 C 0.13233 0.06058 0.37038 0.0
C533 C 0.12475 0.06373 0.4135 0.0
C534 C 0.15578 0.08489 0.35179 0.0
C535 C 0.1725 0.11307 0.37571 0.0
C536 C 0.16657 0.11551 0.41893 0.0
C537 C 0.14294 0.09113 0.43762 0.0
H538 H 0.89749 0.15013 0.34772 0.0
H539 H 0.98105 0.18015 0.25792 0.0
H540 H 0.92482 0.12239 0.37411 0.0
H541 H 1.00806 0.15148 0.28371 0.0
H542 H 0.05462 0.11649 0.3721 0.0
H543 H 1.0322 0.14845 0.34424 0.0
H544 H 0.93845 0.07505 0.34699 0.0
H545 H 0.96074 0.04343 0.37394 0.0
C546 C 0.92185 0.15116 0.33389 0.0
C547 C 0.93689 0.16719 0.3004 0.0
C548 C 0.9374 0.13493 0.34873 0.0
C549 C 0.96844 0.1343 0.33058 0.0
C550 C 0.98416 0.15145 0.29833 0.0
C551 C 0.96852 0.16763 0.28332 0.0
C552 C 1.02937 0.10721 0.36618 0.0
C553 C 1.00937 0.07763 0.37542 0.0
C554 C 1.01656 0.12537 0.35012 0.0
C555 C 0.98336 0.11452 0.34418 0.0
C556 C 0.96388 0.08446 0.35215 0.0
C557 C 0.97677 0.06618 0.36721 0.0
H558 H 0.90972 0.84679 0.27167 0.0
H559 H 0.85309 0.8139 0.38271 0.0
H560 H 0.95481 0.87952 0.31132 0.0
H561 H 0.89753 0.84703 0.42226 0.0
H562 H 1.01009 0.96227 0.40228 0.0
H563 H 0.96868 0.92586 0.3607 0.0
H564 H 0.95136 0.85618 0.43731 0.0
H565 H 0.99269 0.89333 0.48011 0.0
C566 C 0.90682 0.84653 0.30447 0.0
C567 C 0.87756 0.8278 0.32385 0.0
C568 C 0.93265 0.86543 0.32735 0.0
C569 C 0.92994 0.86614 0.37024 0.0
C570 C 0.90086 0.84692 0.38935 0.0
C571 C 0.87513 0.82806 0.36654 0.0
C572 C 0.99767 0.93915 0.41039 0.0
C573 C 1.00487 0.93088 0.44484 0.0
C574 C 0.97396 0.91807 0.38611 0.0
C575 C 0.95655 0.88787 0.39529 0.0
C576 C 0.96398 0.87932 0.42943 0.0
C577 C 0.98786 0.90055 0.4539 0.0
H578 H 0.27593 0.92946 0.48029 0.0
H579 H 0.21678 0.83902 0.51254 0.0
H580 H 0.24783 0.95402 0.53804 0.0
H581 H 0.19053 0.86392 0.57243 0.0
H582 H 0.11121 0.89174 0.52707 0.0
H583 H 0.15238 0.87369 0.54028 0.0
H584 H 0.20917 0.96847 0.58779 0.0
H585 H 0.16777 0.98657 0.57335 0.0
C586 C 0.25816 0.91491 0.50105 0.0
C587 C 0.2462 0.88233 0.48971 0.0
C588 C 0.24221 0.92905 0.53483 0.0
C589 C 0.2143 0.91037 0.55674 0.0
C590 C 0.21025 0.87862 0.55366 0.0
C591 C 0.22543 0.86428 0.51912 0.0
C592 C 0.13234 0.9087 0.54061 0.0
C593 C 0.13705 0.94065 0.54719 0.0
C594 C 0.15584 0.89833 0.54924 0.0
C595 C 0.18482 0.91977 0.5643 0.0
C596 C 0.18765 0.95142 0.57521 0.0
C597 C 0.16413 0.96181 0.56638 0.0
H598 H 0.20952 0.90529 0.68284 0.0
H599 H 0.11617 0.83795 0.71708 0.0
H600 H 0.18233 0.93363 0.65733 0.0
H601 H 0.08884 0.86665 0.6919 0.0
H602 H 0.05594 0.91366 0.60512 0.0
H603 H 0.08057 0.88193 0.62904 0.0
H604 H 0.14863 0.96582 0.68839 0.0
H605 H 0.12451 0.99734 0.66429 0.0
C606 C 0.1832 0.89628 0.68441 0.0
C607 C 0.16503 0.86943 0.70222 0.0
C608 C 0.16757 0.9127 0.67012 0.0
C609 C 0.13337 0.90256 0.67287 0.0
C610 C 0.1152 0.87504 0.68922 0.0
C611 C 0.13085 0.85875 0.70393 0.0
C612 C 0.07589 0.92525 0.62372 0.0
C613 C 0.08839 0.95805 0.63249 0.0
C614 C 0.08998 0.90709 0.63745 0.0
C615 C 0.1169 0.92137 0.6601 0.0
C616 C 0.12841 0.95408 0.67024 0.0
C617 C 0.11428 0.97216 0.65678 0.0
H618 H 0.21383 0.16234 0.71241 0.0
H619 H 0.21224 0.24393 0.67195 0.0
H620 H 0.17224 0.12927 0.66819 0.0
H621 H 0.16988 0.21095 0.62864 0.0
H622 H 0.11706 0.13898 0.52355 0.0
H623 H 0.15898 0.17345 0.56724 0.0
H624 H 0.11649 0.1146 0.66121 0.0
H625 H 0.07563 0.08 0.61741 0.0
C626 C 0.20436 0.1733 0.69447 0.0
C627 C 0.21641 0.20588 0.69604 0.0
C628 C 0.18031 0.1543 0.66911 0.0
C629 C 0.1674 0.16729 0.64469 0.0
C630 C 0.1794 0.19994 0.64644 0.0
C631 C 0.20357 0.21894 0.67168 0.0
C632 C 0.11665 0.13352 0.5536 0.0
C633 C 0.09299 0.10656 0.56672 0.0
C634 C 0.14064 0.15336 0.57881 0.0
C635 C 0.14147 0.14682 0.61787 0.0
C636 C 0.11729 0.12018 0.63112 0.0
C637 C 0.09357 0.10036 0.60596 0.0
H638 H 0.9717 0.24689 0.556 0.0
H639 H 0.87194 0.1956 0.53416 0.0
H640 H 0.99025 0.21972 0.49248 0.0
H641 H 0.8903 0.16814 0.4693 0.0
H642 H 0.93085 0.08882 0.47935 0.0
H643 H 0.90622 0.12737 0.47796 0.0
H644 H 0.99982 0.18907 0.43204 0.0
H645 H 1.02483 0.15221 0.43906 0.0
C646 C 0.9538 0.23084 0.53628 0.0
C647 C 0.92063 0.22199 0.55059 0.0
C648 C 0.96429 0.21517 0.49934 0.0
C649 C 0.94159 0.18982 0.47716 0.0
C650 C 0.90836 0.18632 0.4869 0.0
C651 C 0.89782 0.20213 0.52398 0.0
C652 C 0.94593 0.11046 0.46841 0.0
C653 C 0.97979 0.11832 0.46136 0.0
C654 C 0.93179 0.13251 0.46674 0.0
C655 C 0.9515 0.16236 0.45718 0.0
C656 C 0.98428 0.16714 0.44185 0.0
C657 C 0.99863 0.14605 0.44602 0.0
H658 H 0.82858 0.83431 0.64903 0.0
H659 H 0.89563 0.86187 0.74019 0.0
H660 H 0.86351 0.87829 0.6144 0.0
H661 H 0.93046 0.90561 0.70551 0.0
H662 H 0.9715 0.99772 0.66023 0.0
H663 H 0.93061 0.95561 0.69273 0.0
H664 H 0.91818 0.89714 0.57391 0.0
H665 H 0.95931 0.93959 0.54109 0.0
C666 C 0.85069 0.84975 0.66183 0.0
C667 C 0.85913 0.84445 0.69763 0.0
C668 C 0.87083 0.87491 0.64175 0.0
C669 C 0.89977 0.8957 0.65719 0.0
C670 C 0.90812 0.89042 0.69303 0.0
C671 C 0.88819 0.86514 0.71285 0.0
C672 C 0.95963 0.97614 0.64079 0.0
C673 C 0.96893 0.97213 0.59796 0.0
C674 C 0.93636 0.95181 0.65956 0.0
C675 C 0.92152 0.92267 0.63615 0.0
C676 C 0.92909 0.91925 0.59295 0.0
C677 C 0.95258 0.94369 0.57406 0.0
H678 H 0.38551 0.22675 0.24143 0.0
H679 H 0.31748 0.18262 0.15127 0.0
H680 H 0.41645 0.19244 0.20964 0.0
H681 H 0.34917 0.14849 0.11846 0.0
H682 H 0.40218 0.07421 0.08745 0.0
H683 H 0.36723 0.10546 0.12054 0.0
H684 H 0.4527 0.18402 0.15227 0.0
H685 H 0.48688 0.15305 0.12062 0.0
C686 C 0.37715 0.20987 0.21456 0.0
C687 C 0.34888 0.20798 0.19899 0.0
C688 C 0.39517 0.19008 0.19598 0.0
C689 C 0.38591 0.16753 0.16077 0.0
C690 C 0.35725 0.1652 0.14555 0.0
C691 C 0.33907 0.18505 0.16432 0.0
C692 C 0.41341 0.09805 0.1019 0.0
C693 C 0.44757 0.11072 0.10152 0.0
C694 C 0.39334 0.1162 0.12066 0.0
C695 C 0.40677 0.14755 0.13985 0.0
C696 C 0.44094 0.15998 0.139 0.0
C697 C 0.46079 0.14204 0.12035 0.0
H698 H 0.89199 0.30792 0.16425 0.0
H699 H 0.83382 0.3681 0.20364 0.0
H700 H 0.93581 0.35011 0.13468 0.0
H701 H 0.87771 0.41022 0.1736 0.0
H702 H 0.95648 0.46443 0.07395 0.0
H703 H 0.90976 0.42387 0.10304 0.0
H704 H 0.9737 0.40279 0.16659 0.0
H705 H 1.02015 0.44326 0.13827 0.0
C706 C 0.88831 0.32996 0.1661 0.0
C707 C 0.85935 0.33458 0.18645 0.0
C708 C 0.91356 0.35423 0.14944 0.0
C709 C 0.91034 0.3836 0.15216 0.0
C710 C 0.8809 0.38786 0.17097 0.0
C711 C 0.8558 0.36372 0.18824 0.0
C712 C 0.96052 0.45153 0.0947 0.0
C713 C 0.99222 0.45726 0.10368 0.0
C714 C 0.93374 0.42824 0.11127 0.0
C715 C 0.93813 0.40984 0.13664 0.0
C716 C 0.9696 0.41622 0.14661 0.0
C717 C 0.99622 0.4397 0.13061 0.0
H718 H 0.72178 0.83315 0.05296 0.0
H719 H 0.75778 0.91781 0.13883 0.0
H720 H 0.68731 0.85572 0.02948 0.0
H721 H 0.72328 0.94005 0.11616 0.0
H722 H 0.68279 0.98585 0.04758 0.0
H723 H 0.71864 0.96018 0.05894 0.0
H724 H 0.63952 0.87193 0.05074 0.0
H725 H 0.60369 0.89781 0.0377 0.0
C726 C 0.72225 0.85652 0.0669 0.0
C727 C 0.74279 0.87382 0.09748 0.0
C728 C 0.70247 0.86943 0.0535 0.0
C729 C 0.70272 0.89987 0.07052 0.0
C730 C 0.72303 0.91689 0.10144 0.0
C731 C 0.74285 0.90411 0.11458 0.0
C732 C 0.67308 0.96088 0.04773 0.0
C733 C 0.64024 0.94394 0.0426 0.0
C734 C 0.69361 0.94617 0.05451 0.0
C735 C 0.6818 0.91412 0.05701 0.0
C736 C 0.64944 0.89668 0.04916 0.0
C737 C 0.62887 0.91146 0.04178 0.0
H738 H 0.25804 0.68651 0.15249 0.0
H739 H 0.20078 0.74776 0.18523 0.0
H740 H 0.2163 0.64868 0.11192 0.0
H741 H 0.15861 0.7095 0.14515 0.0
H742 H 0.09748 0.64252 0.04757 0.0
H743 H 0.14417 0.68251 0.07729 0.0
H744 H 0.16195 0.61295 0.12822 0.0
H745 H 0.11554 0.57267 0.09767 0.0
C746 C 0.23671 0.6921 0.15065 0.0
C747 C 0.23263 0.72009 0.17241 0.0
C748 C 0.21265 0.67025 0.12762 0.0
C749 C 0.18387 0.67579 0.12584 0.0
C750 C 0.18057 0.70455 0.1457 0.0
C751 C 0.20475 0.72652 0.1687 0.0
C752 C 0.11139 0.63565 0.06496 0.0
C753 C 0.10257 0.60436 0.07052 0.0
C754 C 0.13812 0.65867 0.08212 0.0
C755 C 0.15671 0.65101 0.1053 0.0
C756 C 0.14837 0.61961 0.11009 0.0
C757 C 0.12164 0.59651 0.0928 0.0
H758 H 0.36509 0.78252 0.86965 0.0
H759 H 0.34988 0.86127 0.83823 0.0
H760 H 0.40732 0.81828 0.9117 0.0
H761 H 0.39288 0.89673 0.8779 0.0
H762 H 0.45957 0.95804 0.96906 0.0
H763 H 0.41111 0.91976 0.94104 0.0
H764 H 0.461 0.85211 0.90492 0.0
H765 H 0.50866 0.88999 0.93534 0.0
C766 C 0.3706 0.80743 0.87192 0.0
C767 C 0.35402 0.81898 0.85062 0.0
C768 C 0.39506 0.828 0.89572 0.0
C769 C 0.40387 0.86059 0.89822 0.0
C770 C 0.38656 0.87194 0.87766 0.0
C771 C 0.36185 0.85147 0.85453 0.0
C772 C 0.46001 0.93488 0.95539 0.0
C773 C 0.48798 0.92708 0.95401 0.0
C774 C 0.43226 0.9129 0.93907 0.0
C775 C 0.43204 0.88277 0.92001 0.0
C776 C 0.45988 0.87481 0.91973 0.0
C777 C 0.48739 0.89662 0.9369 0.0
H778 H 0.26731 0.36034 0.79494 0.0
H779 H 0.20512 0.28671 0.86245 0.0
H780 H 0.23508 0.39329 0.82926 0.0
H781 H 0.17303 0.31985 0.89725 0.0
H782 H 0.10038 0.37285 0.91862 0.0
H783 H 0.13435 0.34133 0.88724 0.0
H784 H 0.2197 0.42427 0.8919 0.0
H785 H 0.18521 0.45617 0.92336 0.0
C786 C 0.24684 0.35107 0.81726 0.0
C787 C 0.23905 0.32045 0.82548 0.0
C788 C 0.22832 0.37026 0.83732 0.0
C789 C 0.20104 0.35964 0.86636 0.0
C790 C 0.19341 0.32907 0.87481 0.0
C791 C 0.21205 0.30992 0.85487 0.0
C792 C 0.1264 0.38464 0.91305 0.0
C793 C 0.13971 0.41743 0.92355 0.0
C794 C 0.14611 0.36629 0.89518 0.0
C795 C 0.18017 0.37981 0.88668 0.0
C796 C 0.19365 0.41269 0.89731 0.0
C797 C 0.17381 0.43114 0.91563 0.0
H798 H 0.75611 0.15859 0.81034 0.0
H799 H 0.70425 0.22332 0.86112 0.0
H800 H 0.71139 0.11706 0.84065 0.0
H801 H 0.65966 0.18179 0.89069 0.0
H802 H 0.57079 0.09218 0.88535 0.0
H803 H 0.61843 0.1313 0.85655 0.0
H804 H 0.68083 0.10296 0.91324 0.0
H805 H 0.63292 0.06376 0.94294 0.0
C806 C 0.7354 0.16408 0.82831 0.0
C807 C 0.73379 0.19432 0.83319 0.0
C808 C 0.70984 0.14028 0.84568 0.0
C809 C 0.68188 0.14609 0.86763 0.0
C810 C 0.68072 0.17652 0.87349 0.0
C811 C 0.70643 0.20038 0.85677 0.0
C812 C 0.5946 0.09384 0.89138 0.0
C813 C 0.59785 0.07469 0.91664 0.0
C814 C 0.62192 0.11652 0.87509 0.0
C815 C 0.65332 0.12047 0.88306 0.0
C816 C 0.6569 0.10044 0.90662 0.0
C817 C 0.62944 0.07795 0.92353 0.0
H818 H 0.90016 0.67648 0.85839 0.0
H819 H 0.90952 0.73395 0.97828 0.0
H820 H 0.92013 0.64087 0.88049 0.0
H821 H 0.92983 0.69807 1.00048 0.0
H822 H 0.99965 0.64202 1.00173 0.0
H823 H 0.97728 0.67922 0.98712 0.0
H824 H 0.90176 0.60278 0.92743 0.0
H825 H 0.92415 0.56587 0.94137 0.0
C826 C 0.90612 0.68135 0.88968 0.0
C827 C 0.90285 0.70794 0.91666 0.0
C828 C 0.91762 0.66089 0.90237 0.0
C829 C 0.92625 0.6664 0.94243 0.0
C830 C 0.92355 0.69325 0.96935 0.0
C831 C 0.91194 0.7138 0.95661 0.0
C832 C 0.97811 0.63318 0.9858 0.0
C833 C 0.96406 0.60098 0.97209 0.0
C834 C 0.96521 0.65449 0.97759 0.0
C835 C 0.93808 0.644 0.95543 0.0
C836 C 0.92315 0.61171 0.94367 0.0
C837 C 0.93594 0.5905 0.95187 0.0
H838 H 0.17093 0.2953 0.04565 0.0
H839 H 0.20353 0.36437 0.1517 0.0
H840 H 0.15291 0.33184 0.02146 0.0
H841 H 0.18413 0.39994 0.12888 0.0
H842 H 0.17223 0.46918 0.06614 0.0
H843 H 0.19555 0.43227 0.078 0.0
H844 H 0.11085 0.35565 0.03843 0.0
H845 H 0.08793 0.39276 0.0252 0.0
C846 C 0.17435 0.31826 0.06374 0.0
C847 C 0.18851 0.32678 0.10079 0.0
C848 C 0.16371 0.33908 0.05008 0.0
C849 C 0.16708 0.36891 0.07313 0.0
C850 C 0.18156 0.37741 0.10991 0.0
C851 C 0.19224 0.35674 0.12341 0.0
C852 C 0.15867 0.44445 0.05958 0.0
C853 C 0.12792 0.43394 0.04548 0.0
C854 C 0.17199 0.42325 0.06659 0.0
C855 C 0.15479 0.39096 0.06009 0.0
C856 C 0.12481 0.38033 0.04376 0.0
C857 C 0.11156 0.40161 0.0364 0.0
H858 H 0.22766 0.65916 0.76833 0.0
H859 H 0.22124 0.72648 0.87756 0.0
H860 H 0.18486 0.61822 0.80127 0.0
H861 H 0.17855 0.68507 0.91084 0.0
H862 H 0.12827 0.59308 0.96754 0.0
H863 H 0.17323 0.63283 0.93467 0.0
H864 H 0.1234 0.60755 0.82635 0.0
H865 H 0.07811 0.56821 0.8594 0.0
C866 C 0.21727 0.66522 0.79951 0.0
C867 C 0.22791 0.69615 0.82034 0.0
C868 C 0.19264 0.64173 0.81826 0.0
C869 C 0.1784 0.64841 0.85861 0.0
C870 C 0.18928 0.67921 0.87978 0.0
C871 C 0.21357 0.70293 0.86068 0.0
C872 C 0.12713 0.59562 0.93643 0.0
C873 C 0.09967 0.57729 0.91594 0.0
C874 C 0.15272 0.61863 0.91785 0.0
C875 C 0.15175 0.62339 0.87805 0.0
C876 C 0.12487 0.60433 0.857 0.0
C877 C 0.09897 0.58178 0.87589 0.0
H878 H 0.37073 0.19961 0.96741 0.0
H879 H 0.33125 0.11386 0.88492 0.0
H880 H 0.40502 0.17662 0.99055 0.0
H881 H 0.36562 0.09124 0.90708 0.0
H882 H 0.40642 0.04542 0.97506 0.0
H883 H 0.37105 0.07175 0.96412 0.0
H884 H 0.45166 0.15893 0.96912 0.0
H885 H 0.48699 0.13239 0.98185 0.0
C886 C 0.36946 0.17591 0.95414 0.0
C887 C 0.34797 0.15842 0.92467 0.0
C888 C 0.38915 0.16276 0.96733 0.0
C889 C 0.38788 0.13189 0.95114 0.0
C890 C 0.36667 0.11473 0.92123 0.0
C891 C 0.34693 0.12773 0.90836 0.0
C892 C 0.41656 0.07029 0.97429 0.0
C893 C 0.44964 0.08672 0.97847 0.0
C894 C 0.39631 0.0854 0.96774 0.0
C895 C 0.40864 0.11733 0.96445 0.0
C896 C 0.44131 0.13429 0.97131 0.0
C897 C 0.4616 0.11913 0.97851 0.0
H898 H 0.86493 0.28519 0.87546 0.0
H899 H 0.84933 0.36128 0.83719 0.0
H900 H 0.90739 0.32279 0.91583 0.0
H901 H 0.89258 0.39844 0.87502 0.0
H902 H 0.96116 0.46325 0.96309 0.0
H903 H 0.9121 0.42437 0.93684 0.0
H904 H 0.96095 0.3558 0.90514 0.0
H905 H 1.00898 0.39417 0.93365 0.0
C906 C 0.87048 0.3099 0.87579 0.0
C907 C 0.85389 0.32019 0.85295 0.0
C908 C 0.89501 0.3315 0.89862 0.0
C909 C 0.90383 0.36381 0.89848 0.0
C910 C 0.88632 0.37393 0.87664 0.0
C911 C 0.86152 0.35246 0.85454 0.0
C912 C 0.96123 0.4398 0.9506 0.0
C913 C 0.9889 0.43177 0.95009 0.0
C914 C 0.93316 0.41747 0.93542 0.0
C915 C 0.93243 0.3868 0.91852 0.0
C916 C 0.96016 0.37886 0.91856 0.0
C917 C 0.98791 0.40099 0.93453 0.0
H918 H 0.77822 0.85553 0.86304 0.0
H919 H 0.70685 0.80652 0.77803 0.0
H920 H 0.74528 0.88827 0.89703 0.0
H921 H 0.67466 0.83944 0.81085 0.0
H922 H 0.60443 0.87737 0.90225 0.0
H923 H 0.63973 0.84776 0.86957 0.0
H924 H 0.72407 0.92922 0.89578 0.0
H925 H 0.68803 0.95908 0.93 0.0
C926 C 0.75564 0.85176 0.85132 0.0
C927 C 0.74533 0.82789 0.81772 0.0
C928 C 0.73671 0.87079 0.87079 0.0
C929 C 0.70676 0.86668 0.85736 0.0
C930 C 0.69697 0.8432 0.82319 0.0
C931 C 0.71573 0.82421 0.80394 0.0
C932 C 0.63049 0.8893 0.90111 0.0
C933 C 0.64305 0.92102 0.91873 0.0
C934 C 0.651 0.87214 0.88184 0.0
C935 C 0.6852 0.88579 0.87908 0.0
C936 C 0.69798 0.91754 0.89714 0.0
C937 C 0.67725 0.93488 0.91657 0.0
H938 H 0.87102 0.71053 0.255 0.0
H939 H 0.84437 0.71125 0.13754 0.0
H940 H 0.90271 0.67685 0.22111 0.0
H941 H 0.87579 0.67701 0.10363 0.0
H942 H 0.91125 0.58923 0.06523 0.0
H943 H 0.87729 0.62153 0.09835 0.0
H944 H 0.95361 0.68024 0.17273 0.0
H945 H 0.98743 0.64861 0.13936 0.0
C946 C 0.87183 0.70355 0.22191 0.0
C947 C 0.85506 0.71403 0.19924 0.0
C948 C 0.89017 0.68416 0.20234 0.0
C949 C 0.89202 0.67393 0.15939 0.0
C950 C 0.87488 0.68404 0.13672 0.0
C951 C 0.85699 0.70396 0.15623 0.0
C952 C 0.92062 0.60885 0.08893 0.0
C953 C 0.95212 0.61597 0.09973 0.0
C954 C 0.90124 0.62761 0.10773 0.0
C955 C 0.91245 0.65366 0.13859 0.0
C956 C 0.94378 0.66035 0.14958 0.0
C957 C 0.96331 0.64213 0.13024 0.0
H958 H 0.38473 0.80642 0.16531 0.0
H959 H 0.33588 0.87308 0.2196 0.0
H960 H 0.42888 0.84708 0.13329 0.0
H961 H 0.38 0.91366 0.18685 0.0
H962 H 0.45542 0.96545 0.08113 0.0
H963 H 0.40801 0.92663 0.11252 0.0
H964 H 0.47199 0.89752 0.16519 0.0
H965 H 0.51905 0.93627 0.13488 0.0
C966 C 0.38312 0.8296 0.16995 0.0
C967 C 0.35676 0.83647 0.19519 0.0
C968 C 0.40855 0.85295 0.15179 0.0
C969 C 0.40802 0.88363 0.15781 0.0
C970 C 0.38104 0.89024 0.18159 0.0
C971 C 0.35584 0.86699 0.20041 0.0
C972 C 0.45936 0.95114 0.09998 0.0
C973 C 0.49121 0.95416 0.10541 0.0
C974 C 0.4322 0.92886 0.11785 0.0
C975 C 0.43634 0.90876 0.14085 0.0
C976 C 0.46804 0.91235 0.14713 0.0
C977 C 0.49504 0.93484 0.12996 0.0
H978 H 0.72691 0.24701 0.14399 0.0
H979 H 0.74117 0.16916 0.17934 0.0
H980 H 0.68392 0.21066 0.10351 0.0
H981 H 0.69741 0.13317 0.14124 0.0
H982 H 0.62891 0.07037 0.05272 0.0
H983 H 0.67809 0.10865 0.07904 0.0
H984 H 0.63001 0.1778 0.11231 0.0
H985 H 0.58164 0.13987 0.08357 0.0
C986 C 0.72101 0.22216 0.14293 0.0
C987 C 0.73751 0.21104 0.16491 0.0
C988 C 0.69612 0.20127 0.12003 0.0
C989 C 0.6868 0.16879 0.11914 0.0
C990 C 0.70407 0.15783 0.1403 0.0
C991 C 0.72921 0.17862 0.16252 0.0
C992 C 0.62902 0.09385 0.06542 0.0
C993 C 0.60136 0.10207 0.06647 0.0
C994 C 0.65718 0.11583 0.08075 0.0
C995 C 0.65813 0.14642 0.09845 0.0
C996 C 0.63058 0.15474 0.09848 0.0
C997 C 0.60266 0.1329 0.0823 0.0
H998 H 0.7315 0.71531 0.87357 0.0
H999 H 0.73998 0.65271 0.7602 0.0
H1000 H 0.69587 0.67127 0.90697 0.0
H1001 H 0.70614 0.60831 0.794 0.0
H1002 H 0.61335 0.53992 0.84892 0.0
H1003 H 0.65404 0.58171 0.81704 0.0
H1004 H 0.68716 0.62762 0.93563 0.0
H1005 H 0.64446 0.58625 0.96812 0.0
C1006 C 0.72608 0.69202 0.85589 0.0
C1007 C 0.73831 0.68762 0.81403 0.0
C1008 C 0.7058 0.66656 0.87522 0.0
C1009 C 0.69764 0.63578 0.85349 0.0
C1010 C 0.71087 0.63147 0.81183 0.0
C1011 C 0.73055 0.65701 0.7923 0.0
C1012 C 0.62954 0.55863 0.86835 0.0
C1013 C 0.6253 0.55956 0.91133 0.0
C1014 C 0.65329 0.5828 0.84982 0.0
C1015 C 0.6742 0.60861 0.87341 0.0
C1016 C 0.67119 0.60868 0.91624 0.0
C1017 C 0.64695 0.58461 0.93496 0.0
H1018 H 0.49119 0.68715 0.76213 0.0
H1019 H 0.40491 0.65287 0.8463 0.0
H1020 H 0.51732 0.65716 0.78735 0.0
H1021 H 0.43083 0.62312 0.87115 0.0
H1022 H 0.46647 0.54265 0.86346 0.0
H1023 H 0.44625 0.57629 0.83733 0.0
H1024 H 0.53734 0.65184 0.8527 0.0
H1025 H 0.55764 0.61796 0.8799 0.0
C1026 C 0.47799 0.67353 0.7863 0.0
C1027 C 0.44597 0.67234 0.80217 0.0
C1028 C 0.49299 0.65652 0.80083 0.0
C1029 C 0.47599 0.6376 0.83093 0.0
C1030 C 0.44444 0.6373 0.84769 0.0
C1031 C 0.42969 0.65459 0.83369 0.0
C1032 C 0.48245 0.56629 0.8608 0.0
C1033 C 0.51362 0.57772 0.8739 0.0
C1034 C 0.47072 0.58565 0.84617 0.0
C1035 C 0.49003 0.61682 0.84355 0.0
C1036 C 0.52195 0.62788 0.8544 0.0
C1037 C 0.53352 0.60858 0.87002 0.0
H1038 H 0.39112 0.36154 0.79044 0.0
H1039 H 0.37582 0.28864 0.86061 0.0
H1040 H 0.43287 0.39699 0.83307 0.0
H1041 H 0.41889 0.32315 0.90166 0.0
H1042 H 0.4736 0.40099 0.99737 0.0
H1043 H 0.43296 0.36455 0.95382 0.0
H1044 H 0.48435 0.41229 0.85074 0.0
H1045 H 0.52328 0.44977 0.89509 0.0
C1046 C 0.39721 0.3529 0.81445 0.0
C1047 C 0.38007 0.32232 0.82218 0.0
C1048 C 0.42136 0.37321 0.83897 0.0
C1049 C 0.42958 0.36328 0.87136 0.0
C1050 C 0.41297 0.33221 0.87799 0.0
C1051 C 0.38838 0.31219 0.85408 0.0
C1052 C 0.4761 0.40369 0.96543 0.0
C1053 C 0.50148 0.4286 0.94998 0.0
C1054 C 0.45289 0.38255 0.94013 0.0
C1055 C 0.45487 0.38528 0.89835 0.0
C1056 C 0.4811 0.40966 0.88278 0.0
C1057 C 0.50378 0.43111 0.90825 0.0
H1058 H 0.73832 0.36214 0.9958 0.0
H1059 H 0.64347 0.29224 0.98346 0.0
H1060 H 0.71596 0.38946 0.05731 0.0
H1061 H 0.62055 0.32014 0.04225 0.0
H1062 H 0.57317 0.38515 0.07449 0.0
H1063 H 0.60239 0.35349 0.08677 0.0
H1064 H 0.69343 0.42291 0.04817 0.0
H1065 H 0.66404 0.45608 0.04203 0.0
C1066 C 0.71287 0.35199 1.00707 0.0
C1067 C 0.69192 0.32648 0.98337 0.0
C1068 C 0.69985 0.36792 0.04209 0.0
C1069 C 0.66578 0.35936 0.05181 0.0
C1070 C 0.64662 0.32925 0.03443 0.0
C1071 C 0.65969 0.31298 1.00013 0.0
C1072 C 0.59955 0.3938 0.06958 0.0
C1073 C 0.61643 0.42241 0.0556 0.0
C1074 C 0.61641 0.37555 0.07643 0.0
C1075 C 0.65032 0.38409 0.06549 0.0
C1076 C 0.66732 0.41457 0.05614 0.0
C1077 C 0.65046 0.43366 0.05175 0.0
H1078 H 0.69792 0.39395 0.17384 0.0
H1079 H 0.60984 0.35498 0.2529 0.0
H1080 H 0.67134 0.42285 0.14844 0.0
H1081 H 0.58343 0.38466 0.22815 0.0
H1082 H 0.54061 0.42214 0.13918 0.0
H1083 H 0.56287 0.39038 0.16739 0.0
H1084 H 0.6537 0.46732 0.17638 0.0
H1085 H 0.63159 0.49872 0.14882 0.0
C1086 C 0.67277 0.39128 0.1855 0.0
C1087 C 0.65613 0.37233 0.21567 0.0
C1088 C 0.65761 0.40814 0.17129 0.0
C1089 C 0.62537 0.40641 0.18669 0.0
C1090 C 0.60826 0.38652 0.21566 0.0
C1091 C 0.62351 0.36975 0.23009 0.0
C1092 C 0.56514 0.43226 0.14781 0.0
C1093 C 0.58442 0.46278 0.14157 0.0
C1094 C 0.57785 0.41419 0.1641 0.0
C1095 C 0.61031 0.42613 0.17334 0.0
C1096 C 0.62894 0.45711 0.16859 0.0
C1097 C 0.6161 0.47524 0.15318 0.0
H1098 H 0.71133 0.74822 0.1686 0.0
H1099 H 0.71392 0.66851 0.21286 0.0
H1100 H 0.66994 0.71372 0.12466 0.0
H1101 H 0.67326 0.63402 0.16827 0.0
H1102 H 0.57763 0.58216 0.11642 0.0
H1103 H 0.61747 0.61846 0.16042 0.0
H1104 H 0.66065 0.67475 0.06377 0.0
H1105 H 0.61977 0.63848 0.01971 0.0
C1106 C 0.70313 0.72333 0.16899 0.0
C1107 C 0.71597 0.71123 0.19454 0.0
C1108 C 0.6795 0.70348 0.14347 0.0
C1109 C 0.66806 0.67094 0.14273 0.0
C1110 C 0.68092 0.65893 0.16839 0.0
C1111 C 0.70443 0.67876 0.19398 0.0
C1112 C 0.59552 0.6023 0.10439 0.0
C1113 C 0.59544 0.60727 0.06433 0.0
C1114 C 0.61863 0.62311 0.12969 0.0
C1115 C 0.64268 0.64952 0.11574 0.0
C1116 C 0.64237 0.65485 0.07582 0.0
C1117 C 0.61898 0.634 0.05044 0.0
H1118 H 0.44333 0.7367 0.05356 0.0
H1119 H 0.3503 0.66685 0.02982 0.0
H1120 H 0.46901 0.71369 0.9923 0.0
H1121 H 0.37555 0.64457 0.96602 0.0
H1122 H 0.43135 0.57846 0.97265 0.0
H1123 H 0.39978 0.61088 0.97178 0.0
H1124 H 0.48835 0.68528 0.93905 0.0
H1125 H 0.51992 0.65368 0.94515 0.0
C1126 C 0.42816 0.71711 0.034 0.0
C1127 C 0.39548 0.70207 0.04772 0.0
C1128 C 0.4428 0.70384 0.9982 0.0
C1129 C 0.42482 0.67512 0.97609 0.0
C1130 C 0.39059 0.66516 0.98424 0.0
C1131 C 0.37597 0.67812 0.02065 0.0
C1132 C 0.44397 0.6017 0.96503 0.0
C1133 C 0.47798 0.61426 0.96132 0.0
C1134 C 0.42582 0.62039 0.9637 0.0
C1135 C 0.44151 0.65185 0.95789 0.0
C1136 C 0.47541 0.66207 0.94652 0.0
C1137 C 0.49358 0.64395 0.94994 0.0
H1138 H 0.33307 0.33563 0.14869 0.0
H1139 H 0.38902 0.37275 0.25227 0.0
H1140 H 0.36761 0.37978 0.11475 0.0
H1141 H 0.4245 0.41624 0.21771 0.0
H1142 H 0.47204 0.50387 0.1631 0.0
H1143 H 0.43051 0.46291 0.19697 0.0
H1144 H 0.41881 0.40188 0.07964 0.0
H1145 H 0.45918 0.44357 0.0457 0.0
C1146 C 0.35289 0.35313 0.16419 0.0
C1147 C 0.35819 0.35048 0.20332 0.0
C1148 C 0.37292 0.3785 0.14453 0.0
C1149 C 0.39913 0.40193 0.16317 0.0
C1150 C 0.40429 0.39923 0.20245 0.0
C1151 C 0.38402 0.37403 0.22231 0.0
C1152 C 0.46007 0.48194 0.14436 0.0
C1153 C 0.46928 0.47705 0.10158 0.0
C1154 C 0.43648 0.45815 0.16394 0.0
C1155 C 0.42155 0.42851 0.14148 0.0
C1156 C 0.42944 0.42425 0.09829 0.0
C1157 C 0.45276 0.44825 0.07863 0.0
H1158 H 0.84119 0.69864 0.63284 0.0
H1159 H 0.8699 0.70292 0.75107 0.0
H1160 H 0.87405 0.6655 0.60054 0.0
H1161 H 0.90191 0.66955 0.71927 0.0
H1162 H 0.98391 0.63689 0.64951 0.0
H1163 H 0.95038 0.66923 0.67761 0.0
H1164 H 0.88165 0.61532 0.59069 0.0
H1165 H 0.91601 0.58289 0.56174 0.0
C1166 C 0.85432 0.69247 0.65211 0.0
C1167 C 0.85277 0.70391 0.6948 0.0
C1168 C 0.87315 0.67319 0.6335 0.0
C1169 C 0.89124 0.6647 0.65687 0.0
C1170 C 0.88917 0.67584 0.69964 0.0
C1171 C 0.87043 0.69501 0.71815 0.0
C1172 C 0.96168 0.6317 0.63611 0.0
C1173 C 0.95282 0.60675 0.60334 0.0
C1174 C 0.9421 0.65032 0.65265 0.0
C1175 C 0.91263 0.64497 0.63727 0.0
C1176 C 0.90404 0.62048 0.60367 0.0
C1177 C 0.92375 0.60164 0.58708 0.0
H1178 H 0.40183 0.83996 0.72498 0.0
H1179 H 0.33055 0.83193 0.64704 0.0
H1180 H 0.44031 0.88447 0.69391 0.0
H1181 H 0.36968 0.87605 0.61506 0.0
H1182 H 0.46971 0.93376 0.5426 0.0
H1183 H 0.43237 0.88746 0.5715 0.0
H1184 H 0.43527 0.94205 0.69316 0.0
H1185 H 0.47167 0.98857 0.66427 0.0
C1186 C 0.39452 0.84743 0.70084 0.0
C1187 C 0.36315 0.83239 0.6884 0.0
C1188 C 0.41652 0.87297 0.68323 0.0
C1189 C 0.40794 0.88356 0.65209 0.0
C1190 C 0.37689 0.86816 0.63889 0.0
C1191 C 0.35452 0.84305 0.65726 0.0
C1192 C 0.46263 0.93577 0.57556 0.0
C1193 C 0.47375 0.96473 0.60126 0.0
C1194 C 0.4411 0.90938 0.59197 0.0
C1195 C 0.431 0.91128 0.63449 0.0
C1196 C 0.4428 0.94 0.66029 0.0
C1197 C 0.46359 0.96655 0.64378 0.0
H1198 H 0.23438 0.3404 0.54411 0.0
H1199 H 0.21614 0.37974 0.67144 0.0
H1200 H 0.19659 0.36143 0.52525 0.0
H1201 H 0.17859 0.40066 0.65264 0.0
H1202 H 0.15952 0.47198 0.59303 0.0
H1203 H 0.18823 0.44315 0.61412 0.0
H1204 H 0.13807 0.36032 0.53338 0.0
H1205 H 0.10901 0.38968 0.51193 0.0
C1206 C 0.22197 0.35312 0.56815 0.0
C1207 C 0.22873 0.35887 0.60919 0.0
C1208 C 0.20023 0.36505 0.55735 0.0
C1209 C 0.18483 0.38296 0.58739 0.0
C1210 C 0.19051 0.38745 0.62865 0.0
C1211 C 0.21216 0.37558 0.63939 0.0
C1212 C 0.15424 0.4475 0.58009 0.0
C1213 C 0.13192 0.43303 0.55097 0.0
C1214 C 0.17059 0.43091 0.59238 0.0
C1215 C 0.16535 0.39939 0.57561 0.0
C1216 C 0.14264 0.38462 0.54679 0.0
C1217 C 0.12581 0.40127 0.53482 0.0
H1218 H 0.70565 0.22514 0.67246 0.0
H1219 H 0.77718 0.17865 0.64537 0.0
H1220 H 0.67005 0.18268 0.62834 0.0
H1221 H 0.74101 0.13543 0.60293 0.0
H1222 H 0.67447 0.06555 0.5138 0.0
H1223 H 0.71347 0.11424 0.54374 0.0
H1224 H 0.63651 0.13139 0.63474 0.0
H1225 H 0.59759 0.08371 0.60381 0.0
C1226 C 0.71388 0.20596 0.65674 0.0
C1227 C 0.74406 0.20509 0.6627 0.0
C1228 C 0.69336 0.18145 0.63172 0.0
C1229 C 0.70225 0.15519 0.61269 0.0
C1230 C 0.73333 0.15527 0.61677 0.0
C1231 C 0.7541 0.18006 0.64127 0.0
C1232 C 0.66593 0.07987 0.54008 0.0
C1233 C 0.63298 0.07064 0.55662 0.0
C1234 C 0.6883 0.10776 0.55733 0.0
C1235 C 0.67827 0.12687 0.59177 0.0
C1236 C 0.64515 0.11774 0.60777 0.0
C1237 C 0.62279 0.09013 0.59025 0.0
H1238 H 0.81247 0.3521 0.37501 0.0
H1239 H 0.88132 0.30263 0.34955 0.0
H1240 H 0.84909 0.3943 0.41822 0.0
H1241 H 0.91744 0.34424 0.39402 0.0
H1242 H 0.91542 0.46165 0.50892 0.0
H1243 H 0.876 0.41346 0.47873 0.0
H1244 H 0.95241 0.39568 0.38732 0.0
H1245 H 0.99184 0.4431 0.41836 0.0
C1246 C 0.835 0.34982 0.37961 0.0
C1247 C 0.84419 0.32424 0.35846 0.0
C1248 C 0.85604 0.37402 0.4045 0.0
C1249 C 0.88654 0.37297 0.40913 0.0
C1250 C 0.89457 0.34624 0.39029 0.0
C1251 C 0.87374 0.32226 0.36503 0.0
C1252 C 0.9238 0.44729 0.48254 0.0
C1253 C 0.95671 0.45636 0.46577 0.0
C1254 C 0.90117 0.4197 0.46516 0.0
C1255 C 0.9109 0.40067 0.43043 0.0
C1256 C 0.94403 0.40941 0.41444 0.0
C1257 C 0.96667 0.4368 0.43204 0.0
H1258 H 0.69271 0.78619 0.34401 0.0
H1259 H 0.77031 0.86833 0.31035 0.0
H1260 H 0.65913 0.8185 0.37714 0.0
H1261 H 0.73701 0.90058 0.34389 0.0
H1262 H 0.67779 0.95374 0.44103 0.0
H1263 H 0.71181 0.9209 0.41265 0.0
H1264 H 0.63006 0.84976 0.35802 0.0
H1265 H 0.59643 0.88259 0.38565 0.0
C1266 C 0.70279 0.81112 0.3438 0.0
C1267 C 0.73445 0.82435 0.32414 0.0
C1268 C 0.68338 0.82976 0.36274 0.0
C1269 C 0.69511 0.86244 0.3635 0.0
C1270 C 0.727 0.87569 0.34451 0.0
C1271 C 0.74614 0.85701 0.32492 0.0
C1272 C 0.66699 0.93104 0.42315 0.0
C1273 C 0.63417 0.92115 0.41564 0.0
C1274 C 0.68662 0.91217 0.40659 0.0
C1275 C 0.67396 0.88243 0.38269 0.0
C1276 C 0.64088 0.87225 0.37634 0.0
C1277 C 0.62151 0.8913 0.39216 0.0
H1278 H 0.25978 0.69675 0.37189 0.0
H1279 H 0.18936 0.69179 0.29457 0.0
H1280 H 0.21979 0.65218 0.40239 0.0
H1281 H 0.15011 0.64691 0.32405 0.0
H1282 H 0.11574 0.5419 0.35235 0.0
H1283 H 0.15351 0.58815 0.32387 0.0
H1284 H 0.15664 0.64243 0.44572 0.0
H1285 H 0.118 0.59654 0.47417 0.0
C1286 C 0.23588 0.68612 0.36137 0.0
C1287 C 0.22768 0.69782 0.33097 0.0
C1288 C 0.21302 0.66078 0.3789 0.0
C1289 C 0.18195 0.64622 0.36548 0.0
C1290 C 0.17391 0.65773 0.33485 0.0
C1291 C 0.19637 0.68347 0.31815 0.0
C1292 C 0.12407 0.56383 0.37293 0.0
C1293 C 0.11363 0.56568 0.41539 0.0
C1294 C 0.14571 0.59021 0.35668 0.0
C1295 C 0.15807 0.6187 0.3827 0.0
C1296 C 0.14755 0.62066 0.4251 0.0
C1297 C 0.1252 0.59451 0.44123 0.0
H1298 H 0.42087 0.19321 0.34836 0.0
H1299 H 0.41983 0.24455 0.47216 0.0
H1300 H 0.44302 0.15882 0.36982 0.0
H1301 H 0.44264 0.21024 0.49341 0.0
H1302 H 0.5097 0.1549 0.50416 0.0
H1303 H 0.49252 0.19329 0.48244 0.0
H1304 H 0.42058 0.11827 0.41516 0.0
H1305 H 0.43757 0.08029 0.43654 0.0
C1306 C 0.42526 0.19716 0.38021 0.0
C1307 C 0.41806 0.22147 0.40862 0.0
C1308 C 0.43811 0.17748 0.39246 0.0
C1309 C 0.44434 0.18162 0.4334 0.0
C1310 C 0.43834 0.20659 0.46156 0.0
C1311 C 0.42526 0.22625 0.44934 0.0
C1312 C 0.49039 0.14671 0.48451 0.0
C1313 C 0.47513 0.11454 0.47192 0.0
C1314 C 0.48041 0.16865 0.47232 0.0
C1315 C 0.45533 0.15883 0.44684 0.0
C1316 C 0.44029 0.12667 0.43425 0.0
C1317 C 0.44994 0.10486 0.44675 0.0
H1318 H 0.65488 0.77908 0.55564 0.0
H1319 H 0.68475 0.84647 0.66413 0.0
H1320 H 0.6347 0.815 0.53355 0.0
H1321 H 0.66344 0.8815 0.64303 0.0
H1322 H 0.66274 0.95187 0.56858 0.0
H1323 H 0.67939 0.91378 0.58989 0.0
H1324 H 0.59254 0.84045 0.55017 0.0
H1325 H 0.57592 0.87889 0.52789 0.0
C1326 C 0.65701 0.80144 0.57488 0.0
C1327 C 0.67157 0.80986 0.61164 0.0
C1328 C 0.6451 0.82186 0.56244 0.0
C1329 C 0.64761 0.85122 0.58638 0.0
C1330 C 0.66151 0.85928 0.62352 0.0
C1331 C 0.67338 0.83895 0.63591 0.0
C1332 C 0.64702 0.92767 0.56437 0.0
C1333 C 0.61783 0.91851 0.54674 0.0
C1334 C 0.65654 0.9058 0.57688 0.0
C1335 C 0.63717 0.87407 0.57218 0.0
C1336 C 0.60809 0.86471 0.55408 0.0
C1337 C 0.59847 0.88674 0.54156 0.0
H1338 H 0.69275 0.2153 0.33917 0.0
H1339 H 0.77042 0.17864 0.33323 0.0
H1340 H 0.65455 0.17129 0.3708 0.0
H1341 H 0.7321 0.13468 0.36536 0.0
H1342 H 0.64736 0.04218 0.3697 0.0
H1343 H 0.68563 0.08845 0.34346 0.0
H1344 H 0.64006 0.14621 0.43328 0.0
H1345 H 0.60133 0.09966 0.45976 0.0
C1346 C 0.70182 0.19805 0.34503 0.0
C1347 C 0.73471 0.20047 0.33335 0.0
C1348 C 0.67987 0.17287 0.3634 0.0
C1349 C 0.69015 0.14929 0.37031 0.0
C1350 C 0.72327 0.15221 0.35989 0.0
C1351 C 0.74531 0.17755 0.34176 0.0
C1352 C 0.64521 0.06465 0.38386 0.0
C1353 C 0.62105 0.06702 0.41692 0.0
C1354 C 0.66747 0.09128 0.369 0.0
C1355 C 0.6662 0.1211 0.38654 0.0
C1356 C 0.64165 0.12356 0.41899 0.0
C1357 C 0.6194 0.09684 0.43412 0.0
H1358 H 0.82281 0.6256 0.41676 0.0
H1359 H 0.89781 0.71651 0.42656 0.0
H1360 H 0.85942 0.60353 0.43485 0.0
H1361 H 0.93516 0.6939 0.44311 0.0
H1362 H 0.97809 0.64059 0.51254 0.0
H1363 H 0.94559 0.66867 0.49593 0.0
H1364 H 0.90735 0.59177 0.40016 0.0
H1365 H 0.93884 0.56382 0.41739 0.0
C1366 C 0.84702 0.64101 0.42316 0.0
C1367 C 0.85727 0.67287 0.42006 0.0
C1368 C 0.86824 0.62822 0.43296 0.0
C1369 C 0.90046 0.64683 0.43975 0.0
C1370 C 0.91053 0.67891 0.43801 0.0
C1371 C 0.8892 0.69178 0.42815 0.0
C1372 C 0.96333 0.6302 0.48731 0.0
C1373 C 0.96088 0.60005 0.46628 0.0
C1374 C 0.9446 0.64614 0.47792 0.0
C1375 C 0.92331 0.63215 0.44729 0.0
C1376 C 0.92271 0.60287 0.4247 0.0
C1377 C 0.94104 0.58697 0.43427 0.0
H1378 H 0.31326 0.84995 0.38441 0.0
H1379 H 0.38699 0.80617 0.34927 0.0
H1380 H 0.35026 0.89376 0.42485 0.0
H1381 H 0.42377 0.84936 0.39134 0.0
H1382 H 0.49419 0.9495 0.41353 0.0
H1383 H 0.45522 0.90094 0.3847 0.0
H1384 H 0.38051 0.91597 0.48124 0.0
H1385 H 0.41948 0.96556 0.50898 0.0
C1386 C 0.33704 0.84919 0.38648 0.0
C1387 C 0.34731 0.82472 0.36348 0.0
C1388 C 0.35836 0.87439 0.40976 0.0
C1389 C 0.39033 0.87548 0.41096 0.0
C1390 C 0.39969 0.84981 0.39023 0.0
C1391 C 0.37853 0.82487 0.3664 0.0
C1392 C 0.46948 0.94241 0.42871 0.0
C1393 C 0.45982 0.96157 0.46321 0.0
C1394 C 0.44711 0.9143 0.41242 0.0
C1395 C 0.41456 0.90431 0.43059 0.0
C1396 C 0.40517 0.9231 0.46595 0.0
C1397 C 0.42751 0.95152 0.48192 0.0
H1398 H 0.25479 0.33942 0.38353 0.0
H1399 H 0.22233 0.33154 0.26642 0.0
H1400 H 0.22065 0.37133 0.41625 0.0
H1401 H 0.18899 0.3635 0.29859 0.0
H1402 H 0.10551 0.39314 0.37008 0.0
H1403 H 0.14059 0.36233 0.34181 0.0
H1404 H 0.21061 0.42069 0.42516 0.0
H1405 H 0.17473 0.45163 0.45425 0.0
C1406 C 0.24058 0.34452 0.36459 0.0
C1407 C 0.24149 0.33242 0.32207 0.0
C1408 C 0.22098 0.36308 0.38343 0.0
C1409 C 0.20141 0.3701 0.36052 0.0
C1410 C 0.20286 0.35833 0.31792 0.0
C1411 C 0.22239 0.33995 0.29919 0.0
C1412 C 0.12834 0.39964 0.38266 0.0
C1413 C 0.13708 0.4254 0.41447 0.0
C1414 C 0.14882 0.38189 0.36602 0.0
C1415 C 0.17912 0.38893 0.38034 0.0
C1416 C 0.18762 0.41424 0.41301 0.0
C1417 C 0.16703 0.43222 0.42968 0.0
H1418 H 0.36594 0.1971 0.75684 0.0
H1419 H 0.35793 0.21353 0.63765 0.0
H1420 H 0.39849 0.16424 0.72424 0.0
H1421 H 0.39087 0.18049 0.60477 0.0
H1422 H 0.42643 0.09337 0.55885 0.0
H1423 H 0.39289 0.12657 0.58838 0.0
H1424 H 0.45136 0.16668 0.68928 0.0
H1425 H 0.48443 0.13389 0.66016 0.0
C1426 C 0.37115 0.19388 0.7236 0.0
C1427 C 0.35912 0.20843 0.70023 0.0
C1428 C 0.39014 0.17497 0.70471 0.0
C1429 C 0.3978 0.16947 0.66152 0.0
C1430 C 0.38551 0.18375 0.63799 0.0
C1431 C 0.3667 0.20301 0.65699 0.0
C1432 C 0.43213 0.10926 0.58734 0.0
C1433 C 0.4583 0.11049 0.60698 0.0
C1434 C 0.41292 0.12855 0.60429 0.0
C1435 C 0.41889 0.14943 0.64178 0.0
C1436 C 0.44527 0.15073 0.66094 0.0
C1437 C 0.46457 0.13185 0.64388 0.0
H1438 H 0.82303 0.36114 0.70591 0.0
H1439 H 0.88768 0.30794 0.66118 0.0
H1440 H 0.86211 0.40497 0.67497 0.0
H1441 H 0.92605 0.35085 0.62774 0.0
H1442 H 1.00452 0.44525 0.60889 0.0
H1443 H 0.96531 0.39959 0.63726 0.0
H1444 H 0.88612 0.4265 0.61728 0.0
H1445 H 0.92522 0.47272 0.59224 0.0
C1446 C 0.84525 0.35853 0.68846 0.0
C1447 C 0.85219 0.33106 0.68595 0.0
C1448 C 0.86782 0.38371 0.67047 0.0
C1449 C 0.89767 0.38185 0.64859 0.0
C1450 C 0.90391 0.35375 0.64498 0.0
C1451 C 0.88165 0.32888 0.66376 0.0
C1452 C 0.97869 0.44127 0.61093 0.0
C1453 C 0.96791 0.46281 0.59927 0.0
C1454 C 0.95607 0.41496 0.62685 0.0
C1455 C 0.92216 0.40921 0.63031 0.0
C1456 C 0.91176 0.43035 0.61676 0.0
C1457 C 0.93426 0.45688 0.60204 0.0
H1458 H 0.27852 0.67946 0.63674 0.0
H1459 H 0.20995 0.72937 0.66486 0.0
H1460 H 0.24065 0.63702 0.59536 0.0
H1461 H 0.17245 0.68734 0.62246 0.0
H1462 H 0.17219 0.56969 0.50727 0.0
H1463 H 0.21208 0.61813 0.53577 0.0
H1464 H 0.13779 0.63552 0.63111 0.0
H1465 H 0.09773 0.58761 0.60185 0.0
C1466 C 0.25578 0.68181 0.63313 0.0
C1467 C 0.2471 0.70762 0.65451 0.0
C1468 C 0.23401 0.65744 0.60931 0.0
C1469 C 0.20322 0.6585 0.60608 0.0
C1470 C 0.1956 0.68539 0.62511 0.0
C1471 C 0.21723 0.70961 0.64917 0.0
C1472 C 0.16432 0.58396 0.53419 0.0
C1473 C 0.13185 0.57459 0.55262 0.0
C1474 C 0.18724 0.61172 0.55057 0.0
C1475 C 0.17828 0.63068 0.58592 0.0
C1476 C 0.14553 0.62176 0.60354 0.0
C1477 C 0.12255 0.59411 0.58696 0.0
loop_
_geom_bond_atom_site_label_1
_geom_bond_atom_site_label_2
_geom_bond_distance
_geom_bond_site_symmetry_2
_ccdc_geom_bond_type
Eu0 C9 2.828 . S
Eu0 O11 2.392 . S
Eu0 O13 2.418 . S
Eu0 O18 2.373 . S
Eu0 O21 2.488 . S
Eu0 O22 2.471 . S
Eu0 O23 2.349 . S
Eu1 O10 2.373 . S
Eu1 O14 2.488 . S
Eu1 O15 2.471 . S
Eu1 O16 2.349 . S
Eu1 O19 2.392 . S
Eu1 O20 2.418 . S
Eu1 C30 2.828 . S
C2 O20 1.244 . S
C2 O23 1.265 . S
C3 C4 1.379 . S
C3 C7 1.373 . S
C3 C9 1.505 . S
C4 C3 1.379 . S
C4 C6 1.369 . S
C4 H32 0.930 . S
C5 C7 1.383 . S
C5 C8 1.382 . S
C5 H33 0.930 . S
C6 C4 1.369 . S
C6 C8 1.392 . S
C6 H34 0.930 . S
C7 C3 1.373 . S
C7 C5 1.383 . S
C7 H35 0.931 . S
C8 C5 1.382 . S
C8 C6 1.392 . S
C9 Eu0 2.828 . S
C9 C3 1.505 . S
C9 O21 1.249 . S
C9 O22 1.244 . S
O10 Eu1 2.373 . S
O10 C12 1.258 . S
O11 Eu0 2.392 . S
O11 C12 1.242 . S
C12 O10 1.258 . S
C12 O11 1.242 . S
O13 Eu0 2.418 . S
O13 C17 1.244 . S
O14 Eu1 2.488 . S
O14 C30 1.249 . S
O15 Eu1 2.471 . S
O15 C30 1.244 . S
O16 Eu1 2.349 . S
O16 C17 1.265 . S
C17 O13 1.244 . S
C17 O16 1.265 . S
O18 Eu0 2.373 . S
O18 C31 1.258 . S
O19 Eu1 2.392 . S
O19 C31 1.242 . S
O20 Eu1 2.418 . S
O20 C2 1.244 . S
O21 Eu0 2.488 . S
O21 C9 1.249 . S
O22 Eu0 2.471 . S
O22 C9 1.244 . S
O23 Eu0 2.349 . S
O23 C2 1.265 . S
C24 C25 1.379 . S
C24 C28 1.373 . S
C24 C30 1.505 . S
C25 C24 1.379 . S
C25 C27 1.369 . S
C25 H36 0.930 . S
C26 C28 1.383 . S
C26 C29 1.382 . S
C26 H37 0.930 . S
C27 C25 1.369 . S
C27 C29 1.392 . S
C27 H38 0.930 . S
C28 C24 1.373 . S
C28 C26 1.383 . S
C28 H39 0.931 . S
C29 C26 1.382 . S
C29 C27 1.392 . S
C30 Eu1 2.828 . S
C30 O14 1.249 . S
C30 O15 1.244 . S
C30 C24 1.505 . S
C31 O18 1.258 . S
C31 O19 1.242 . S
H32 C4 0.930 . S
H33 C5 0.930 . S
H34 C6 0.930 . S
H35 C7 0.931 . S
H36 C25 0.930 . S
H37 C26 0.930 . S
H38 C27 0.930 . S
H39 C28 0.931 . S
Eu40 C49 2.828 . S
Eu40 O51 2.392 . S
Eu40 O53 2.418 . S
Eu40 O58 2.373 . S
Eu40 O61 2.488 . S
Eu40 O62 2.471 . S
Eu40 O63 2.349 . S
Eu41 O50 2.373 . S
Eu41 O54 2.488 . S
Eu41 O55 2.471 . S
Eu41 O56 2.349 . S
Eu41 O59 2.392 . S
Eu41 O60 2.418 . S
Eu41 C70 2.828 . S
C42 O60 1.244 . S
C42 O63 1.265 . S
C43 C44 1.379 . S
C43 C47 1.373 . S
C43 C49 1.505 . S
C44 C43 1.379 . S
C44 C46 1.369 . S
C44 H72 0.930 . S
C45 C47 1.383 . S
C45 C48 1.382 . S
C45 H73 0.930 . S
C46 C44 1.369 . S
C46 C48 1.392 . S
C46 H74 0.930 . S
C47 C43 1.373 . S
C47 C45 1.383 . S
C47 H75 0.931 . S
C48 C45 1.382 . S
C48 C46 1.392 . S
C49 Eu40 2.828 . S
C49 C43 1.505 . S
C49 O61 1.249 . S
C49 O62 1.244 . S
O50 Eu41 2.373 . S
O50 C52 1.258 . S
O51 Eu40 2.392 . S
O51 C52 1.242 . S
C52 O50 1.258 . S
C52 O51 1.242 . S
O53 Eu40 2.418 . S
O53 C57 1.244 . S
O54 Eu41 2.488 . S
O54 C70 1.249 . S
O55 Eu41 2.471 . S
O55 C70 1.244 . S
O56 Eu41 2.349 . S
O56 C57 1.265 . S
C57 O53 1.244 . S
C57 O56 1.265 . S
O58 Eu40 2.373 . S
O58 C71 1.258 . S
O59 Eu41 2.392 . S
O59 C71 1.242 . S
O60 Eu41 2.418 . S
O60 C42 1.244 . S
O61 Eu40 2.488 . S
O61 C49 1.249 . S
O62 Eu40 2.471 . S
O62 C49 1.244 . S
O63 Eu40 2.349 . S
O63 C42 1.265 . S
C64 C65 1.379 . S
C64 C68 1.373 . S
C64 C70 1.505 . S
C65 C64 1.379 . S
C65 C67 1.369 . S
C65 H76 0.930 . S
C66 C68 1.383 . S
C66 C69 1.382 . S
C66 H77 0.930 . S
C67 C65 1.369 . S
C67 C69 1.392 . S
C67 H78 0.930 . S
C68 C64 1.373 . S
C68 C66 1.383 . S
C68 H79 0.931 . S
C69 C66 1.382 . S
C69 C67 1.392 . S
C70 Eu41 2.828 . S
C70 O54 1.249 . S
C70 O55 1.244 . S
C70 C64 1.505 . S
C71 O58 1.258 . S
C71 O59 1.242 . S
H72 C44 0.930 . S
H73 C45 0.930 . S
H74 C46 0.930 . S
H75 C47 0.931 . S
H76 C65 0.930 . S
H77 C66 0.930 . S
H78 C67 0.930 . S
H79 C68 0.931 . S
Eu80 C89 2.828 . S
Eu80 O91 2.392 . S
Eu80 O93 2.418 . S
Eu80 O98 2.373 . S
Eu80 O101 2.488 . S
Eu80 O102 2.471 . S
Eu80 O103 2.349 . S
Eu81 O90 2.373 . S
Eu81 O94 2.488 . S
Eu81 O95 2.471 . S
Eu81 O96 2.349 . S
Eu81 O99 2.392 . S
Eu81 O100 2.418 . S
Eu81 C110 2.828 . S
C82 O100 1.244 . S
C82 O103 1.265 . S
C83 C84 1.379 . S
C83 C87 1.373 . S
C83 C89 1.505 . S
C84 C83 1.379 . S
C84 C86 1.369 . S
C84 H112 0.930 . S
C85 C87 1.383 . S
C85 C88 1.382 . S
C85 H113 0.930 . S
C86 C84 1.369 . S
C86 C88 1.392 . S
C86 H114 0.930 . S
C87 C83 1.373 . S
C87 C85 1.383 . S
C87 H115 0.931 . S
C88 C85 1.382 . S
C88 C86 1.392 . S
C89 Eu80 2.828 . S
C89 C83 1.505 . S
C89 O101 1.249 . S
C89 O102 1.244 . S
O90 Eu81 2.373 . S
O90 C92 1.258 . S
O91 Eu80 2.392 . S
O91 C92 1.242 . S
C92 O90 1.258 . S
C92 O91 1.242 . S
O93 Eu80 2.418 . S
O93 C97 1.244 . S
O94 Eu81 2.488 . S
O94 C110 1.249 . S
O95 Eu81 2.471 . S
O95 C110 1.244 . S
O96 Eu81 2.349 . S
O96 C97 1.265 . S
C97 O93 1.244 . S
C97 O96 1.265 . S
O98 Eu80 2.373 . S
O98 C111 1.258 . S
O99 Eu81 2.392 . S
O99 C111 1.242 . S
O100 Eu81 2.418 . S
O100 C82 1.244 . S
O101 Eu80 2.488 . S
O101 C89 1.249 . S
O102 Eu80 2.471 . S
O102 C89 1.244 . S
O103 Eu80 2.349 . S
O103 C82 1.265 . S
C104 C105 1.379 . S
C104 C108 1.373 . S
C104 C110 1.505 . S
C105 C104 1.379 . S
C105 C107 1.369 . S
C105 H116 0.930 . S
C106 C108 1.383 . S
C106 C109 1.382 . S
C106 H117 0.930 . S
C107 C105 1.369 . S
C107 C109 1.392 . S
C107 H118 0.930 . S
C108 C104 1.373 . S
C108 C106 1.383 . S
C108 H119 0.931 . S
C109 C106 1.382 . S
C109 C107 1.392 . S
C110 Eu81 2.828 . S
C110 O94 1.249 . S
C110 O95 1.244 . S
C110 C104 1.505 . S
C111 O98 1.258 . S
C111 O99 1.242 . S
H112 C84 0.930 . S
H113 C85 0.930 . S
H114 C86 0.930 . S
H115 C87 0.931 . S
H116 C105 0.930 . S
H117 C106 0.930 . S
H118 C107 0.930 . S
H119 C108 0.931 . S
Eu120 C129 2.828 . S
Eu120 O131 2.392 . S
Eu120 O133 2.418 . S
Eu120 O138 2.373 . S
Eu120 O141 2.488 . S
Eu120 O142 2.471 . S
Eu120 O143 2.349 . S
Eu121 O130 2.373 . S
Eu121 O134 2.488 . S
Eu121 O135 2.471 . S
Eu121 O136 2.349 . S
Eu121 O139 2.392 . S
Eu121 O140 2.418 . S
Eu121 C150 2.828 . S
C122 O140 1.244 . S
C122 O143 1.265 . S
C123 C124 1.379 . S
C123 C127 1.373 . S
C123 C129 1.505 . S
C124 C123 1.379 . S
C124 C126 1.369 . S
C124 H152 0.930 . S
C125 C127 1.383 . S
C125 C128 1.382 . S
C125 H153 0.930 . S
C126 C124 1.369 . S
C126 C128 1.392 . S
C126 H154 0.930 . S
C127 C123 1.373 . S
C127 C125 1.383 . S
C127 H155 0.931 . S
C128 C125 1.382 . S
C128 C126 1.392 . S
C129 Eu120 2.828 . S
C129 C123 1.505 . S
C129 O141 1.249 . S
C129 O142 1.244 . S
O130 Eu121 2.373 . S
O130 C132 1.258 . S
O131 Eu120 2.392 . S
O131 C132 1.242 . S
C132 O130 1.258 . S
C132 O131 1.242 . S
O133 Eu120 2.418 . S
O133 C137 1.244 . S
O134 Eu121 2.488 . S
O134 C150 1.249 . S
O135 Eu121 2.471 . S
O135 C150 1.244 . S
O136 Eu121 2.349 . S
O136 C137 1.265 . S
C137 O133 1.244 . S
C137 O136 1.265 . S
O138 Eu120 2.373 . S
O138 C151 1.258 . S
O139 Eu121 2.392 . S
O139 C151 1.242 . S
O140 Eu121 2.418 . S
O140 C122 1.244 . S
O141 Eu120 2.488 . S
O141 C129 1.249 . S
O142 Eu120 2.471 . S
O142 C129 1.244 . S
O143 Eu120 2.349 . S
O143 C122 1.265 . S
C144 C145 1.379 . S
C144 C148 1.373 . S
C144 C150 1.505 . S
C145 C144 1.379 . S
C145 C147 1.369 . S
C145 H156 0.930 . S
C146 C148 1.383 . S
C146 C149 1.382 . S
C146 H157 0.930 . S
C147 C145 1.369 . S
C147 C149 1.392 . S
C147 H158 0.930 . S
C148 C144 1.373 . S
C148 C146 1.383 . S
C148 H159 0.931 . S
C149 C146 1.382 . S
C149 C147 1.392 . S
C150 Eu121 2.828 . S
C150 O134 1.249 . S
C150 O135 1.244 . S
C150 C144 1.505 . S
C151 O138 1.258 . S
C151 O139 1.242 . S
H152 C124 0.930 . S
H153 C125 0.930 . S
H154 C126 0.930 . S
H155 C127 0.931 . S
H156 C145 0.930 . S
H157 C146 0.930 . S
H158 C147 0.930 . S
H159 C148 0.931 . S
Eu160 C169 2.828 . S
Eu160 O171 2.392 . S
Eu160 O173 2.418 . S
Eu160 O178 2.373 . S
Eu160 O181 2.488 . S
Eu160 O182 2.471 . S
Eu160 O183 2.349 . S
Eu161 O170 2.373 . S
Eu161 O174 2.488 . S
Eu161 O175 2.471 . S
Eu161 O176 2.349 . S
Eu161 O179 2.392 . S
Eu161 O180 2.418 . S
Eu161 C190 2.828 . S
C162 O180 1.244 . S
C162 O183 1.265 . S
C163 C164 1.379 . S
C163 C167 1.373 . S
C163 C169 1.505 . S
C164 C163 1.379 . S
C164 C166 1.369 . S
C164 H192 0.930 . S
C165 C167 1.383 . S
C165 C168 1.382 . S
C165 H193 0.930 . S
C166 C164 1.369 . S
C166 C168 1.392 . S
C166 H194 0.930 . S
C167 C163 1.373 . S
C167 C165 1.383 . S
C167 H195 0.931 . S
C168 C165 1.382 . S
C168 C166 1.392 . S
C169 Eu160 2.828 . S
C169 C163 1.505 . S
C169 O181 1.249 . S
C169 O182 1.244 . S
O170 Eu161 2.373 . S
O170 C172 1.258 . S
O171 Eu160 2.392 . S
O171 C172 1.242 . S
C172 O170 1.258 . S
C172 O171 1.242 . S
O173 Eu160 2.418 . S
O173 C177 1.244 . S
O174 Eu161 2.488 . S
O174 C190 1.249 . S
O175 Eu161 2.471 . S
O175 C190 1.244 . S
O176 Eu161 2.349 . S
O176 C177 1.265 . S
C177 O173 1.244 . S
C177 O176 1.265 . S
O178 Eu160 2.373 . S
O178 C191 1.258 . S
O179 Eu161 2.392 . S
O179 C191 1.242 . S
O180 Eu161 2.418 . S
O180 C162 1.244 . S
O181 Eu160 2.488 . S
O181 C169 1.249 . S
O182 Eu160 2.471 . S
O182 C169 1.244 . S
O183 Eu160 2.349 . S
O183 C162 1.265 . S
C184 C185 1.379 . S
C184 C188 1.373 . S
C184 C190 1.505 . S
C185 C184 1.379 . S
C185 C187 1.369 . S
C185 H196 0.930 . S
C186 C188 1.383 . S
C186 C189 1.382 . S
C186 H197 0.930 . S
C187 C185 1.369 . S
C187 C189 1.392 . S
C187 H198 0.930 . S
C188 C184 1.373 . S
C188 C186 1.383 . S
C188 H199 0.931 . S
C189 C186 1.382 . S
C189 C187 1.392 . S
C190 Eu161 2.828 . S
C190 O174 1.249 . S
C190 O175 1.244 . S
C190 C184 1.505 . S
C191 O178 1.258 . S
C191 O179 1.242 . S
H192 C164 0.930 . S
H193 C165 0.930 . S
H194 C166 0.930 . S
H195 C167 0.931 . S
H196 C185 0.930 . S
H197 C186 0.930 . S
H198 C187 0.930 . S
H199 C188 0.931 . S
Eu200 C209 2.828 . S
Eu200 O211 2.392 . S
Eu200 O213 2.418 . S
Eu200 O218 2.373 . S
Eu200 O221 2.488 . S
Eu200 O222 2.471 . S
Eu200 O223 2.349 . S
Eu201 O210 2.373 . S
Eu201 O214 2.488 . S
Eu201 O215 2.471 . S
Eu201 O216 2.349 . S
Eu201 O219 2.392 . S
Eu201 O220 2.418 . S
Eu201 C230 2.828 . S
C202 O220 1.244 . S
C202 O223 1.265 . S
C203 C204 1.379 . S
C203 C207 1.373 . S
C203 C209 1.505 . S
C204 C203 1.379 . S
C204 C206 1.369 . S
C204 H232 0.930 . S
C205 C207 1.383 . S
C205 C208 1.382 . S
C205 H233 0.930 . S
C206 C204 1.369 . S
C206 C208 1.392 . S
C206 H234 0.930 . S
C207 C203 1.373 . S
C207 C205 1.383 . S
C207 H235 0.931 . S
C208 C205 1.382 . S
C208 C206 1.392 . S
C209 Eu200 2.828 . S
C209 C203 1.505 . S
C209 O221 1.249 . S
C209 O222 1.244 . S
O210 Eu201 2.373 . S
O210 C212 1.258 . S
O211 Eu200 2.392 . S
O211 C212 1.242 . S
C212 O210 1.258 . S
C212 O211 1.242 . S
O213 Eu200 2.418 . S
O213 C217 1.244 . S
O214 Eu201 2.488 . S
O214 C230 1.249 . S
O215 Eu201 2.471 . S
O215 C230 1.244 . S
O216 Eu201 2.349 . S
O216 C217 1.265 . S
C217 O213 1.244 . S
C217 O216 1.265 . S
O218 Eu200 2.373 . S
O218 C231 1.258 . S
O219 Eu201 2.392 . S
O219 C231 1.242 . S
O220 Eu201 2.418 . S
O220 C202 1.244 . S
O221 Eu200 2.488 . S
O221 C209 1.249 . S
O222 Eu200 2.471 . S
O222 C209 1.244 . S
O223 Eu200 2.349 . S
O223 C202 1.265 . S
C224 C225 1.379 . S
C224 C228 1.373 . S
C224 C230 1.505 . S
C225 C224 1.379 . S
C225 C227 1.369 . S
C225 H236 0.930 . S
C226 C228 1.383 . S
C226 C229 1.382 . S
C226 H237 0.930 . S
C227 C225 1.369 . S
C227 C229 1.392 . S
C227 H238 0.930 . S
C228 C224 1.373 . S
C228 C226 1.383 . S
C228 H239 0.931 . S
C229 C226 1.382 . S
C229 C227 1.392 . S
C230 Eu201 2.828 . S
C230 O214 1.249 . S
C230 O215 1.244 . S
C230 C224 1.505 . S
C231 O218 1.258 . S
C231 O219 1.242 . S
H232 C204 0.930 . S
H233 C205 0.930 . S
H234 C206 0.930 . S
H235 C207 0.931 . S
H236 C225 0.930 . S
H237 C226 0.930 . S
H238 C227 0.930 . S
H239 C228 0.931 . S
Eu240 C249 2.828 . S
Eu240 O251 2.392 . S
Eu240 O253 2.418 . S
Eu240 O258 2.373 . S
Eu240 O261 2.488 . S
Eu240 O262 2.471 . S
Eu240 O263 2.349 . S
Eu241 O250 2.373 . S
Eu241 O254 2.488 . S
Eu241 O255 2.471 . S
Eu241 O256 2.349 . S
Eu241 O259 2.392 . S
Eu241 O260 2.418 . S
Eu241 C270 2.828 . S
C242 O260 1.244 . S
C242 O263 1.265 . S
C243 C244 1.379 . S
C243 C247 1.373 . S
C243 C249 1.505 . S
C244 C243 1.379 . S
C244 C246 1.369 . S
C244 H272 0.930 . S
C245 C247 1.383 . S
C245 C248 1.382 . S
C245 H273 0.930 . S
C246 C244 1.369 . S
C246 C248 1.392 . S
C246 H274 0.930 . S
C247 C243 1.373 . S
C247 C245 1.383 . S
C247 H275 0.931 . S
C248 C245 1.382 . S
C248 C246 1.392 . S
C249 Eu240 2.828 . S
C249 C243 1.505 . S
C249 O261 1.249 . S
C249 O262 1.244 . S
O250 Eu241 2.373 . S
O250 C252 1.258 . S
O251 Eu240 2.392 . S
O251 C252 1.242 . S
C252 O250 1.258 . S
C252 O251 1.242 . S
O253 Eu240 2.418 . S
O253 C257 1.244 . S
O254 Eu241 2.488 . S
O254 C270 1.249 . S
O255 Eu241 2.471 . S
O255 C270 1.244 . S
O256 Eu241 2.349 . S
O256 C257 1.265 . S
C257 O253 1.244 . S
C257 O256 1.265 . S
O258 Eu240 2.373 . S
O258 C271 1.258 . S
O259 Eu241 2.392 . S
O259 C271 1.242 . S
O260 Eu241 2.418 . S
O260 C242 1.244 . S
O261 Eu240 2.488 . S
O261 C249 1.249 . S
O262 Eu240 2.471 . S
O262 C249 1.244 . S
O263 Eu240 2.349 . S
O263 C242 1.265 . S
C264 C265 1.379 . S
C264 C268 1.373 . S
C264 C270 1.505 . S
C265 C264 1.379 . S
C265 C267 1.369 . S
C265 H276 0.930 . S
C266 C268 1.383 . S
C266 C269 1.382 . S
C266 H277 0.930 . S
C267 C265 1.369 . S
C267 C269 1.392 . S
C267 H278 0.930 . S
C268 C264 1.373 . S
C268 C266 1.383 . S
C268 H279 0.931 . S
C269 C266 1.382 . S
C269 C267 1.392 . S
C270 Eu241 2.828 . S
C270 O254 1.249 . S
C270 O255 1.244 . S
C270 C264 1.505 . S
C271 O258 1.258 . S
C271 O259 1.242 . S
H272 C244 0.930 . S
H273 C245 0.930 . S
H274 C246 0.930 . S
H275 C247 0.931 . S
H276 C265 0.930 . S
H277 C266 0.930 . S
H278 C267 0.930 . S
H279 C268 0.931 . S
Eu280 C289 2.828 . S
Eu280 O291 2.392 . S
Eu280 O293 2.418 . S
Eu280 O298 2.373 . S
Eu280 O301 2.488 . S
Eu280 O302 2.471 . S
Eu280 O303 2.349 . S
Eu281 O290 2.373 . S
Eu281 O294 2.488 . S
Eu281 O295 2.471 . S
Eu281 O296 2.349 . S
Eu281 O299 2.392 . S
Eu281 O300 2.418 . S
Eu281 C310 2.828 . S
C282 O300 1.244 . S
C282 O303 1.265 . S
C283 C284 1.379 . S
C283 C287 1.373 . S
C283 C289 1.505 . S
C284 C283 1.379 . S
C284 C286 1.369 . S
C284 H312 0.930 . S
C285 C287 1.383 . S
C285 C288 1.382 . S
C285 H313 0.930 . S
C286 C284 1.369 . S
C286 C288 1.392 . S
C286 H314 0.930 . S
C287 C283 1.373 . S
C287 C285 1.383 . S
C287 H315 0.931 . S
C288 C285 1.382 . S
C288 C286 1.392 . S
C289 Eu280 2.828 . S
C289 C283 1.505 . S
C289 O301 1.249 . S
C289 O302 1.244 . S
O290 Eu281 2.373 . S
O290 C292 1.258 . S
O291 Eu280 2.392 . S
O291 C292 1.242 . S
C292 O290 1.258 . S
C292 O291 1.242 . S
O293 Eu280 2.418 . S
O293 C297 1.244 . S
O294 Eu281 2.488 . S
O294 C310 1.249 . S
O295 Eu281 2.471 . S
O295 C310 1.244 . S
O296 Eu281 2.349 . S
O296 C297 1.265 . S
C297 O293 1.244 . S
C297 O296 1.265 . S
O298 Eu280 2.373 . S
O298 C311 1.258 . S
O299 Eu281 2.392 . S
O299 C311 1.242 . S
O300 Eu281 2.418 . S
O300 C282 1.244 . S
O301 Eu280 2.488 . S
O301 C289 1.249 . S
O302 Eu280 2.471 . S
O302 C289 1.244 . S
O303 Eu280 2.349 . S
O303 C282 1.265 . S
C304 C305 1.379 . S
C304 C308 1.373 . S
C304 C310 1.505 . S
C305 C304 1.379 . S
C305 C307 1.369 . S
C305 H316 0.930 . S
C306 C308 1.383 . S
C306 C309 1.382 . S
C306 H317 0.930 . S
C307 C305 1.369 . S
C307 C309 1.392 . S
C307 H318 0.930 . S
C308 C304 1.373 . S
C308 C306 1.383 . S
C308 H319 0.931 . S
C309 C306 1.382 . S
C309 C307 1.392 . S
C310 Eu281 2.828 . S
C310 O294 1.249 . S
C310 O295 1.244 . S
C310 C304 1.505 . S
C311 O298 1.258 . S
C311 O299 1.242 . S
H312 C284 0.930 . S
H313 C285 0.930 . S
H314 C286 0.930 . S
H315 C287 0.931 . S
H316 C305 0.930 . S
H317 C306 0.930 . S
H318 C307 0.930 . S
H319 C308 0.931 . S
Co320 O323 2.042 . S
Co320 O330 2.264 . S
Co320 O349 2.286 . S
Co320 O350 2.069 . S
Co320 O352 2.015 1_455 S
Co321 O323 2.122 . S
Co321 O329 2.073 . S
Co321 O330 2.327 . S
Co321 O331 1.976 1_455 S
Co322 O323 2.097 1_545 S
Co322 O325 2.077 1_455 S
Co322 O332 2.104 1_445 S
Co322 O333 2.150 . S
Co322 O337 2.119 . S
Co322 O351 2.137 1_445 S
O323 Co320 2.042 . S
O323 Co321 2.122 . S
O323 Co322 2.097 1_565 S
O323 H324 0.980 . S
H324 O323 0.980 . S
O325 Co322 2.077 1_655 S
O325 Co326 2.042 . S
O325 Co327 2.122 . S
O325 H328 0.980 . S
Co326 O325 2.042 . S
Co326 O334 2.286 . S
Co326 O335 2.069 . S
Co326 O336 2.015 1_655 S
Co326 O339 2.264 . S
Co327 O325 2.122 . S
Co327 O338 1.976 1_655 S
Co327 O339 2.327 . S
Co327 O340 2.073 . S
H328 O325 0.980 . S
O329 Co321 2.073 . S
O329 C344 1.245 . S
O330 Co320 2.264 . S
O330 Co321 2.327 . S
O330 C344 1.257 . S
O331 Co321 1.976 1_655 S
O331 C343 1.251 . S
O332 Co322 2.104 1_665 S
O332 C343 1.274 . S
O333 Co322 2.150 . S
O333 C346 1.246 . S
O334 Co326 2.286 . S
O334 C345 1.259 . S
O335 Co326 2.069 . S
O335 C345 1.289 . S
O336 Co326 2.015 1_455 S
O336 C346 1.257 . S
O337 Co322 2.119 . S
O337 C347 1.274 . S
O338 Co327 1.976 1_455 S
O338 C347 1.251 . S
O339 Co326 2.264 . S
O339 Co327 2.327 . S
O339 C348 1.257 . S
O340 Co327 2.073 . S
O340 C348 1.245 . S
C341 O349 1.259 . S
C341 O350 1.289 . S
C342 O351 1.246 . S
C342 O352 1.257 . S
C343 O331 1.251 . S
C343 O332 1.274 . S
C344 O329 1.245 . S
C344 O330 1.257 . S
C345 O334 1.259 . S
C345 O335 1.289 . S
C346 O333 1.246 . S
C346 O336 1.257 . S
C347 O337 1.274 . S
C347 O338 1.251 . S
C348 O339 1.257 . S
C348 O340 1.245 . S
O349 Co320 2.286 . S
O349 C341 1.259 . S
O350 Co320 2.069 . S
O350 C341 1.289 . S
O351 Co322 2.137 1_665 S
O351 C342 1.246 . S
O352 Co320 2.015 1_655 S
O352 C342 1.257 . S
Co353 O356 2.042 1_556 S
Co353 O363 2.264 1_556 S
Co353 O382 2.286 . S
Co353 O383 2.069 . S
Co353 O385 2.015 . S
Co354 O356 2.122 . S
Co354 O362 2.073 . S
Co354 O363 2.327 . S
Co354 O364 1.976 . S
Co355 O356 2.084 1_545 S
Co355 O358 2.089 1_554 S
Co355 O365 2.111 1_545 S
Co355 O366 2.145 . S
Co355 O370 2.112 1_554 S
Co355 O384 2.142 1_544 S
O356 Co353 2.042 1_554 S
O356 Co354 2.122 . S
O356 Co355 2.084 1_565 S
O356 H357 0.980 . S
H357 O356 0.980 . S
O358 Co355 2.089 1_556 S
O358 Co359 2.042 1_556 S
O358 Co360 2.122 . S
O358 H361 0.980 . S
Co359 O358 2.042 1_554 S
Co359 O367 2.286 . S
Co359 O368 2.069 . S
Co359 O369 2.015 . S
Co359 O372 2.264 1_554 S
Co360 O358 2.122 . S
Co360 O371 1.976 . S
Co360 O372 2.327 . S
Co360 O373 2.073 . S
H361 O358 0.980 . S
O362 Co354 2.073 . S
O362 C377 1.245 . S
O363 Co353 2.264 1_554 S
O363 Co354 2.327 . S
O363 C377 1.257 . S
O364 Co354 1.976 . S
O364 C376 1.251 . S
O365 Co355 2.111 1_565 S
O365 C376 1.274 . S
O366 Co355 2.145 . S
O366 C379 1.246 . S
O367 Co359 2.286 . S
O367 C378 1.259 . S
O368 Co359 2.069 . S
O368 C378 1.289 . S
O369 Co359 2.015 . S
O369 C379 1.257 . S
O370 Co355 2.112 1_556 S
O370 C380 1.274 . S
O371 Co360 1.976 . S
O371 C380 1.251 . S
O372 Co359 2.264 1_556 S
O372 Co360 2.327 . S
O372 C381 1.257 . S
O373 Co360 2.073 . S
O373 C381 1.245 . S
C374 O382 1.259 . S
C374 O383 1.289 . S
C375 O384 1.246 . S
C375 O385 1.257 . S
C376 O364 1.251 . S
C376 O365 1.274 . S
C377 O362 1.245 . S
C377 O363 1.257 . S
C378 O367 1.259 . S
C378 O368 1.289 . S
C379 O366 1.246 . S
C379 O369 1.257 . S
C380 O370 1.274 . S
C380 O371 1.251 . S
C381 O372 1.257 . S
C381 O373 1.245 . S
O382 Co353 2.286 . S
O382 C374 1.259 . S
O383 Co353 2.069 . S
O383 C374 1.289 . S
O384 Co355 2.142 1_566 S
O384 C375 1.246 . S
O385 Co353 2.015 . S
O385 C375 1.257 . S
Co386 O389 2.042 1_556 S
Co386 O396 2.264 1_556 S
Co386 O415 2.286 . S
Co386 O416 2.069 . S
Co386 O418 2.015 1_455 S
Co387 O389 2.122 . S
Co387 O395 2.073 . S
Co387 O396 2.327 . S
Co387 O397 1.976 1_455 S
Co388 O389 2.099 . S
Co388 O391 2.075 1_454 S
Co388 O398 2.105 1_455 S
Co388 O399 2.148 . S
Co388 O403 2.118 1_554 S
Co388 O417 2.139 1_454 S
O389 Co386 2.042 1_554 S
O389 Co387 2.122 . S
O389 Co388 2.099 . S
O389 H390 0.980 . S
H390 O389 0.980 . S
O391 Co388 2.075 1_656 S
O391 Co392 2.042 1_556 S
O391 Co393 2.122 . S
O391 H394 0.980 . S
Co392 O391 2.042 1_554 S
Co392 O400 2.286 . S
Co392 O401 2.069 . S
Co392 O402 2.015 1_655 S
Co392 O405 2.264 1_554 S
Co393 O391 2.122 . S
Co393 O404 1.976 1_655 S
Co393 O405 2.327 . S
Co393 O406 2.073 . S
H394 O391 0.980 . S
O395 Co387 2.073 . S
O395 C410 1.245 . S
O396 Co386 2.264 1_554 S
O396 Co387 2.327 . S
O396 C410 1.257 . S
O397 Co387 1.976 1_655 S
O397 C409 1.251 . S
O398 Co388 2.105 1_655 S
O398 C409 1.274 . S
O399 Co388 2.148 . S
O399 C412 1.246 . S
O400 Co392 2.286 . S
O400 C411 1.259 . S
O401 Co392 2.069 . S
O401 C411 1.289 . S
O402 Co392 2.015 1_455 S
O402 C412 1.257 . S
O403 Co388 2.118 1_556 S
O403 C413 1.274 . S
O404 Co393 1.976 1_455 S
O404 C413 1.251 . S
O405 Co392 2.264 1_556 S
O405 Co393 2.327 . S
O405 C414 1.257 . S
O406 Co393 2.073 . S
O406 C414 1.245 . S
C407 O415 1.259 . S
C407 O416 1.289 . S
C408 O417 1.246 . S
C408 O418 1.257 . S
C409 O397 1.251 . S
C409 O398 1.274 . S
C410 O395 1.245 . S
C410 O396 1.257 . S
C411 O400 1.259 . S
C411 O401 1.289 . S
C412 O399 1.246 . S
C412 O402 1.257 . S
C413 O403 1.274 . S
C413 O404 1.251 . S
C414 O405 1.257 . S
C414 O406 1.245 . S
O415 Co386 2.286 . S
O415 C407 1.259 . S
O416 Co386 2.069 . S
O416 C407 1.289 . S
O417 Co388 2.139 1_656 S
O417 C408 1.246 . S
O418 Co386 2.015 1_655 S
O418 C408 1.257 . S
Co419 O422 2.042 1_556 S
Co419 O429 2.264 1_556 S
Co419 O448 2.286 . S
Co419 O449 2.069 . S
Co419 O451 2.015 . S
Co420 O422 2.122 . S
Co420 O428 2.073 . S
Co420 O429 2.327 . S
Co420 O430 1.976 . S
Co421 O422 2.087 . S
Co421 O424 2.087 1_554 S
Co421 O431 2.111 . S
Co421 O432 2.143 . S
Co421 O436 2.111 1_554 S
Co421 O450 2.143 1_554 S
O422 Co419 2.042 1_554 S
O422 Co420 2.122 . S
O422 Co421 2.087 . S
O422 H423 0.980 . S
H423 O422 0.980 . S
O424 Co421 2.087 1_556 S
O424 Co425 2.042 1_556 S
O424 Co426 2.122 . S
O424 H427 0.980 . S
Co425 O424 2.042 1_554 S
Co425 O433 2.286 . S
Co425 O434 2.069 . S
Co425 O435 2.015 . S
Co425 O438 2.264 1_554 S
Co426 O424 2.122 . S
Co426 O437 1.976 . S
Co426 O438 2.327 . S
Co426 O439 2.073 . S
H427 O424 0.980 . S
O428 Co420 2.073 . S
O428 C443 1.245 . S
O429 Co419 2.264 1_554 S
O429 Co420 2.327 . S
O429 C443 1.257 . S
O430 Co420 1.976 . S
O430 C442 1.251 . S
O431 Co421 2.111 . S
O431 C442 1.274 . S
O432 Co421 2.143 . S
O432 C445 1.246 . S
O433 Co425 2.286 . S
O433 C444 1.259 . S
O434 Co425 2.069 . S
O434 C444 1.289 . S
O435 Co425 2.015 . S
O435 C445 1.257 . S
O436 Co421 2.111 1_556 S
O436 C446 1.274 . S
O437 Co426 1.976 . S
O437 C446 1.251 . S
O438 Co425 2.264 1_556 S
O438 Co426 2.327 . S
O438 C447 1.257 . S
O439 Co426 2.073 . S
O439 C447 1.245 . S
C440 O448 1.259 . S
C440 O449 1.289 . S
C441 O450 1.246 . S
C441 O451 1.257 . S
C442 O430 1.251 . S
C442 O431 1.274 . S
C443 O428 1.245 . S
C443 O429 1.257 . S
C444 O433 1.259 . S
C444 O434 1.289 . S
C445 O432 1.246 . S
C445 O435 1.257 . S
C446 O436 1.274 . S
C446 O437 1.251 . S
C447 O438 1.257 . S
C447 O439 1.245 . S
O448 Co419 2.286 . S
O448 C440 1.259 . S
O449 Co419 2.069 . S
O449 C440 1.289 . S
O450 Co421 2.143 1_556 S
O450 C441 1.246 . S
O451 Co419 2.015 . S
O451 C441 1.257 . S
Co452 O455 2.042 . S
Co452 O462 2.264 . S
Co452 O481 2.286 . S
Co452 O482 2.069 . S
Co452 O484 2.015 . S
Co453 O455 2.122 . S
Co453 O461 2.073 . S
Co453 O462 2.327 . S
Co453 O463 1.976 . S
Co454 O455 2.099 . S
Co454 O457 2.075 1_455 S
Co454 O464 2.114 . S
Co454 O465 2.136 1_455 S
Co454 O469 2.109 1_455 S
Co454 O483 2.151 . S
O455 Co452 2.042 . S
O455 Co453 2.122 . S
O455 Co454 2.099 . S
O455 H456 0.980 . S
H456 O455 0.980 . S
O457 Co454 2.075 1_655 S
O457 Co458 2.042 . S
O457 Co459 2.122 . S
O457 H460 0.980 . S
Co458 O457 2.042 . S
Co458 O466 2.286 . S
Co458 O467 2.069 . S
Co458 O468 2.015 . S
Co458 O471 2.264 . S
Co459 O457 2.122 . S
Co459 O470 1.976 . S
Co459 O471 2.327 . S
Co459 O472 2.073 . S
H460 O457 0.980 . S
O461 Co453 2.073 . S
O461 C476 1.245 . S
O462 Co452 2.264 . S
O462 Co453 2.327 . S
O462 C476 1.257 . S
O463 Co453 1.976 . S
O463 C475 1.251 . S
O464 Co454 2.114 . S
O464 C475 1.274 . S
O465 Co454 2.136 1_655 S
O465 C478 1.246 . S
O466 Co458 2.286 . S
O466 C477 1.259 . S
O467 Co458 2.069 . S
O467 C477 1.289 . S
O468 Co458 2.015 . S
O468 C478 1.257 . S
O469 Co454 2.109 1_655 S
O469 C479 1.274 . S
O470 Co459 1.976 . S
O470 C479 1.251 . S
O471 Co458 2.264 . S
O471 Co459 2.327 . S
O471 C480 1.257 . S
O472 Co459 2.073 . S
O472 C480 1.245 . S
C473 O481 1.259 . S
C473 O482 1.289 . S
C474 O483 1.246 . S
C474 O484 1.257 . S
C475 O463 1.251 . S
C475 O464 1.274 . S
C476 O461 1.245 . S
C476 O462 1.257 . S
C477 O466 1.259 . S
C477 O467 1.289 . S
C478 O465 1.246 . S
C478 O468 1.257 . S
C479 O469 1.274 . S
C479 O470 1.251 . S
C480 O471 1.257 . S
C480 O472 1.245 . S
O481 Co452 2.286 . S
O481 C473 1.259 . S
O482 Co452 2.069 . S
O482 C473 1.289 . S
O483 Co454 2.151 . S
O483 C474 1.246 . S
O484 Co452 2.015 . S
O484 C474 1.257 . S
Co485 O488 2.042 . S
Co485 O495 2.264 . S
Co485 O514 2.286 . S
Co485 O515 2.069 . S
Co485 O517 2.015 1_565 S
Co486 O488 2.122 . S
Co486 O494 2.073 . S
Co486 O495 2.327 . S
Co486 O496 1.976 1_565 S
Co487 O488 2.084 1_545 S
Co487 O490 2.089 . S
Co487 O497 2.113 . S
Co487 O498 2.143 1_545 S
Co487 O502 2.110 1_545 S
Co487 O516 2.144 . S
O488 Co485 2.042 . S
O488 Co486 2.122 . S
O488 Co487 2.084 1_565 S
O488 H489 0.980 . S
H489 O488 0.980 . S
O490 Co487 2.089 . S
O490 Co491 2.042 . S
O490 Co492 2.122 . S
O490 H493 0.980 . S
Co491 O490 2.042 . S
Co491 O499 2.286 . S
Co491 O500 2.069 . S
Co491 O501 2.015 1_545 S
Co491 O504 2.264 . S
Co492 O490 2.122 . S
Co492 O503 1.976 1_545 S
Co492 O504 2.327 . S
Co492 O505 2.073 . S
H493 O490 0.980 . S
O494 Co486 2.073 . S
O494 C509 1.245 . S
O495 Co485 2.264 . S
O495 Co486 2.327 . S
O495 C509 1.257 . S
O496 Co486 1.976 1_545 S
O496 C508 1.251 . S
O497 Co487 2.113 . S
O497 C508 1.274 . S
O498 Co487 2.143 1_565 S
O498 C511 1.246 . S
O499 Co491 2.286 . S
O499 C510 1.259 . S
O500 Co491 2.069 . S
O500 C510 1.289 . S
O501 Co491 2.015 1_565 S
O501 C511 1.257 . S
O502 Co487 2.110 1_565 S
O502 C512 1.274 . S
O503 Co492 1.976 1_565 S
O503 C512 1.251 . S
O504 Co491 2.264 . S
O504 Co492 2.327 . S
O504 C513 1.257 . S
O505 Co492 2.073 . S
O505 C513 1.245 . S
C506 O514 1.259 . S
C506 O515 1.289 . S
C507 O516 1.246 . S
C507 O517 1.257 . S
C508 O496 1.251 . S
C508 O497 1.274 . S
C509 O494 1.245 . S
C509 O495 1.257 . S
C510 O499 1.259 . S
C510 O500 1.289 . S
C511 O498 1.246 . S
C511 O501 1.257 . S
C512 O502 1.274 . S
C512 O503 1.251 . S
C513 O504 1.257 . S
C513 O505 1.245 . S
O514 Co485 2.286 . S
O514 C506 1.259 . S
O515 Co485 2.069 . S
O515 C506 1.289 . S
O516 Co487 2.144 . S
O516 C507 1.246 . S
O517 Co485 2.015 1_545 S
O517 C507 1.257 . S
H518 C526 0.950 . S
H519 C531 0.950 . S
H520 C528 0.950 . S
H521 C530 0.950 . S
H522 C532 0.950 . S
H523 C534 0.950 . S
H524 C536 0.950 . S
H525 C537 0.950 . S
C526 H518 0.950 . S
C526 C527 1.386 . S
C526 C528 1.391 . S
C527 C526 1.386 . S
C527 C531 1.393 . S
C528 H520 0.950 . S
C528 C526 1.391 . S
C528 C529 1.400 . S
C529 C528 1.400 . S
C529 C530 1.398 . S
C529 C535 1.491 . S
C530 H521 0.950 . S
C530 C529 1.398 . S
C530 C531 1.391 . S
C531 H519 0.950 . S
C531 C527 1.393 . S
C531 C530 1.391 . S
C532 H522 0.950 . S
C532 C533 1.386 . S
C532 C534 1.391 . S
C533 C532 1.386 . S
C533 C537 1.393 . S
C534 H523 0.950 . S
C534 C532 1.391 . S
C534 C535 1.400 . S
C535 C529 1.491 . S
C535 C534 1.400 . S
C535 C536 1.398 . S
C536 H524 0.950 . S
C536 C535 1.398 . S
C536 C537 1.391 . S
C537 H525 0.950 . S
C537 C533 1.393 . S
C537 C536 1.391 . S
H538 C546 0.950 . S
H539 C551 0.950 . S
H540 C548 0.950 . S
H541 C550 0.950 . S
H542 C552 0.950 . S
H543 C554 0.950 . S
H544 C556 0.950 . S
H545 C557 0.950 . S
C546 H538 0.950 . S
C546 C547 1.386 . S
C546 C548 1.391 . S
C547 C546 1.386 . S
C547 C551 1.393 . S
C548 H540 0.950 . S
C548 C546 1.391 . S
C548 C549 1.400 . S
C549 C548 1.400 . S
C549 C550 1.398 . S
C549 C555 1.491 . S
C550 H541 0.950 . S
C550 C549 1.398 . S
C550 C551 1.391 . S
C551 H539 0.950 . S
C551 C547 1.393 . S
C551 C550 1.391 . S
C552 H542 0.950 . S
C552 C553 1.386 . S
C552 C554 1.391 . S
C553 C552 1.386 . S
C553 C557 1.393 . S
C554 H543 0.950 . S
C554 C552 1.391 . S
C554 C555 1.400 . S
C555 C549 1.491 . S
C555 C554 1.400 . S
C555 C556 1.398 . S
C556 H544 0.950 . S
C556 C555 1.398 . S
C556 C557 1.391 . S
C557 H545 0.950 . S
C557 C553 1.393 . S
C557 C556 1.391 . S
H558 C566 0.950 . S
H559 C571 0.950 . S
H560 C568 0.950 . S
H561 C570 0.950 . S
H562 C572 0.950 . S
H563 C574 0.950 . S
H564 C576 0.950 . S
H565 C577 0.950 . S
C566 H558 0.950 . S
C566 C567 1.386 . S
C566 C568 1.391 . S
C567 C566 1.386 . S
C567 C571 1.393 . S
C568 H560 0.950 . S
C568 C566 1.391 . S
C568 C569 1.400 . S
C569 C568 1.400 . S
C569 C570 1.398 . S
C569 C575 1.491 . S
C570 H561 0.950 . S
C570 C569 1.398 . S
C570 C571 1.391 . S
C571 H559 0.950 . S
C571 C567 1.393 . S
C571 C570 1.391 . S
C572 H562 0.950 . S
C572 C573 1.386 . S
C572 C574 1.391 . S
C573 C572 1.386 . S
C573 C577 1.393 . S
C574 H563 0.950 . S
C574 C572 1.391 . S
C574 C575 1.400 . S
C575 C569 1.491 . S
C575 C574 1.400 . S
C575 C576 1.398 . S
C576 H564 0.950 . S
C576 C575 1.398 . S
C576 C577 1.391 . S
C577 H565 0.950 . S
C577 C573 1.393 . S
C577 C576 1.391 . S
H578 C586 0.950 . S
H579 C591 0.950 . S
H580 C588 0.950 . S
H581 C590 0.950 . S
H582 C592 0.950 . S
H583 C594 0.950 . S
H584 C596 0.950 . S
H585 C597 0.950 . S
C586 H578 0.950 . S
C586 C587 1.386 . S
C586 C588 1.391 . S
C587 C586 1.386 . S
C587 C591 1.393 . S
C588 H580 0.950 . S
C588 C586 1.391 . S
C588 C589 1.400 . S
C589 C588 1.400 . S
C589 C590 1.398 . S
C589 C595 1.491 . S
C590 H581 0.950 . S
C590 C589 1.398 . S
C590 C591 1.391 . S
C591 H579 0.950 . S
C591 C587 1.393 . S
C591 C590 1.391 . S
C592 H582 0.950 . S
C592 C593 1.386 . S
C592 C594 1.391 . S
C593 C592 1.386 . S
C593 C597 1.393 . S
C594 H583 0.950 . S
C594 C592 1.391 . S
C594 C595 1.400 . S
C595 C589 1.491 . S
C595 C594 1.400 . S
C595 C596 1.398 . S
C596 H584 0.950 . S
C596 C595 1.398 . S
C596 C597 1.391 . S
C597 H585 0.950 . S
C597 C593 1.393 . S
C597 C596 1.391 . S
H598 C606 0.950 . S
H599 C611 0.950 . S
H600 C608 0.950 . S
H601 C610 0.950 . S
H602 C612 0.950 . S
H603 C614 0.950 . S
H604 C616 0.950 . S
H605 C617 0.950 . S
C606 H598 0.950 . S
C606 C607 1.386 . S
C606 C608 1.391 . S
C607 C606 1.386 . S
C607 C611 1.393 . S
C608 H600 0.950 . S
C608 C606 1.391 . S
C608 C609 1.400 . S
C609 C608 1.400 . S
C609 C610 1.398 . S
C609 C615 1.491 . S
C610 H601 0.950 . S
C610 C609 1.398 . S
C610 C611 1.391 . S
C611 H599 0.950 . S
C611 C607 1.393 . S
C611 C610 1.391 . S
C612 H602 0.950 . S
C612 C613 1.386 . S
C612 C614 1.391 . S
C613 C612 1.386 . S
C613 C617 1.393 . S
C614 H603 0.950 . S
C614 C612 1.391 . S
C614 C615 1.400 . S
C615 C609 1.491 . S
C615 C614 1.400 . S
C615 C616 1.398 . S
C616 H604 0.950 . S
C616 C615 1.398 . S
C616 C617 1.391 . S
C617 H605 0.950 . S
C617 C613 1.393 . S
C617 C616 1.391 . S
H618 C626 0.950 . S
H619 C631 0.950 . S
H620 C628 0.950 . S
H621 C630 0.950 . S
H622 C632 0.950 . S
H623 C634 0.950 . S
H624 C636 0.950 . S
H625 C637 0.950 . S
C626 H618 0.950 . S
C626 C627 1.386 . S
C626 C628 1.391 . S
C627 C626 1.386 . S
C627 C631 1.393 . S
C628 H620 0.950 . S
C628 C626 1.391 . S
C628 C629 1.400 . S
C629 C628 1.400 . S
C629 C630 1.398 . S
C629 C635 1.491 . S
C630 H621 0.950 . S
C630 C629 1.398 . S
C630 C631 1.391 . S
C631 H619 0.950 . S
C631 C627 1.393 . S
C631 C630 1.391 . S
C632 H622 0.950 . S
C632 C633 1.386 . S
C632 C634 1.391 . S
C633 C632 1.386 . S
C633 C637 1.393 . S
C634 H623 0.950 . S
C634 C632 1.391 . S
C634 C635 1.400 . S
C635 C629 1.491 . S
C635 C634 1.400 . S
C635 C636 1.398 . S
C636 H624 0.950 . S
C636 C635 1.398 . S
C636 C637 1.391 . S
C637 H625 0.950 . S
C637 C633 1.393 . S
C637 C636 1.391 . S
H638 C646 0.950 . S
H639 C651 0.950 . S
H640 C648 0.950 . S
H641 C650 0.950 . S
H642 C652 0.950 . S
H643 C654 0.950 . S
H644 C656 0.950 . S
H645 C657 0.950 . S
C646 H638 0.950 . S
C646 C647 1.386 . S
C646 C648 1.391 . S
C647 C646 1.386 . S
C647 C651 1.393 . S
C648 H640 0.950 . S
C648 C646 1.391 . S
C648 C649 1.400 . S
C649 C648 1.400 . S
C649 C650 1.398 . S
C649 C655 1.491 . S
C650 H641 0.950 . S
C650 C649 1.398 . S
C650 C651 1.391 . S
C651 H639 0.950 . S
C651 C647 1.393 . S
C651 C650 1.391 . S
C652 H642 0.950 . S
C652 C653 1.386 . S
C652 C654 1.391 . S
C653 C652 1.386 . S
C653 C657 1.393 . S
C654 H643 0.950 . S
C654 C652 1.391 . S
C654 C655 1.400 . S
C655 C649 1.491 . S
C655 C654 1.400 . S
C655 C656 1.398 . S
C656 H644 0.950 . S
C656 C655 1.398 . S
C656 C657 1.391 . S
C657 H645 0.950 . S
C657 C653 1.393 . S
C657 C656 1.391 . S
H658 C666 0.950 . S
H659 C671 0.950 . S
H660 C668 0.950 . S
H661 C670 0.950 . S
H662 C672 0.950 . S
H663 C674 0.950 . S
H664 C676 0.950 . S
H665 C677 0.950 . S
C666 H658 0.950 . S
C666 C667 1.386 . S
C666 C668 1.391 . S
C667 C666 1.386 . S
C667 C671 1.393 . S
C668 H660 0.950 . S
C668 C666 1.391 . S
C668 C669 1.400 . S
C669 C668 1.400 . S
C669 C670 1.398 . S
C669 C675 1.491 . S
C670 H661 0.950 . S
C670 C669 1.398 . S
C670 C671 1.391 . S
C671 H659 0.950 . S
C671 C667 1.393 . S
C671 C670 1.391 . S
C672 H662 0.950 . S
C672 C673 1.386 . S
C672 C674 1.391 . S
C673 C672 1.386 . S
C673 C677 1.393 . S
C674 H663 0.950 . S
C674 C672 1.391 . S
C674 C675 1.400 . S
C675 C669 1.491 . S
C675 C674 1.400 . S
C675 C676 1.398 . S
C676 H664 0.950 . S
C676 C675 1.398 . S
C676 C677 1.391 . S
C677 H665 0.950 . S
C677 C673 1.393 . S
C677 C676 1.391 . S
H678 C686 0.950 . S
H679 C691 0.950 . S
H680 C688 0.950 . S
H681 C690 0.950 . S
H682 C692 0.950 . S
H683 C694 0.950 . S
H684 C696 0.950 . S
H685 C697 0.950 . S
C686 H678 0.950 . S
C686 C687 1.386 . S
C686 C688 1.391 . S
C687 C686 1.386 . S
C687 C691 1.393 . S
C688 H680 0.950 . S
C688 C686 1.391 . S
C688 C689 1.400 . S
C689 C688 1.400 . S
C689 C690 1.398 . S
C689 C695 1.491 . S
C690 H681 0.950 . S
C690 C689 1.398 . S
C690 C691 1.391 . S
C691 H679 0.950 . S
C691 C687 1.393 . S
C691 C690 1.391 . S
C692 H682 0.950 . S
C692 C693 1.386 . S
C692 C694 1.391 . S
C693 C692 1.386 . S
C693 C697 1.393 . S
C694 H683 0.950 . S
C694 C692 1.391 . S
C694 C695 1.400 . S
C695 C689 1.491 . S
C695 C694 1.400 . S
C695 C696 1.398 . S
C696 H684 0.950 . S
C696 C695 1.398 . S
C696 C697 1.391 . S
C697 H685 0.950 . S
C697 C693 1.393 . S
C697 C696 1.391 . S
H698 C706 0.950 . S
H699 C711 0.950 . S
H700 C708 0.950 . S
H701 C710 0.950 . S
H702 C712 0.950 . S
H703 C714 0.950 . S
H704 C716 0.950 . S
H705 C717 0.950 . S
C706 H698 0.950 . S
C706 C707 1.386 . S
C706 C708 1.391 . S
C707 C706 1.386 . S
C707 C711 1.393 . S
C708 H700 0.950 . S
C708 C706 1.391 . S
C708 C709 1.400 . S
C709 C708 1.400 . S
C709 C710 1.398 . S
C709 C715 1.491 . S
C710 H701 0.950 . S
C710 C709 1.398 . S
C710 C711 1.391 . S
C711 H699 0.950 . S
C711 C707 1.393 . S
C711 C710 1.391 . S
C712 H702 0.950 . S
C712 C713 1.386 . S
C712 C714 1.391 . S
C713 C712 1.386 . S
C713 C717 1.393 . S
C714 H703 0.950 . S
C714 C712 1.391 . S
C714 C715 1.400 . S
C715 C709 1.491 . S
C715 C714 1.400 . S
C715 C716 1.398 . S
C716 H704 0.950 . S
C716 C715 1.398 . S
C716 C717 1.391 . S
C717 H705 0.950 . S
C717 C713 1.393 . S
C717 C716 1.391 . S
H718 C726 0.950 . S
H719 C731 0.950 . S
H720 C728 0.950 . S
H721 C730 0.950 . S
H722 C732 0.950 . S
H723 C734 0.950 . S
H724 C736 0.950 . S
H725 C737 0.950 . S
C726 H718 0.950 . S
C726 C727 1.386 . S
C726 C728 1.391 . S
C727 C726 1.386 . S
C727 C731 1.393 . S
C728 H720 0.950 . S
C728 C726 1.391 . S
C728 C729 1.400 . S
C729 C728 1.400 . S
C729 C730 1.398 . S
C729 C735 1.491 . S
C730 H721 0.950 . S
C730 C729 1.398 . S
C730 C731 1.391 . S
C731 H719 0.950 . S
C731 C727 1.393 . S
C731 C730 1.391 . S
C732 H722 0.950 . S
C732 C733 1.386 . S
C732 C734 1.391 . S
C733 C732 1.386 . S
C733 C737 1.393 . S
C734 H723 0.950 . S
C734 C732 1.391 . S
C734 C735 1.400 . S
C735 C729 1.491 . S
C735 C734 1.400 . S
C735 C736 1.398 . S
C736 H724 0.950 . S
C736 C735 1.398 . S
C736 C737 1.391 . S
C737 H725 0.950 . S
C737 C733 1.393 . S
C737 C736 1.391 . S
H738 C746 0.950 . S
H739 C751 0.950 . S
H740 C748 0.950 . S
H741 C750 0.950 . S
H742 C752 0.950 . S
H743 C754 0.950 . S
H744 C756 0.950 . S
H745 C757 0.950 . S
C746 H738 0.950 . S
C746 C747 1.386 . S
C746 C748 1.391 . S
C747 C746 1.386 . S
C747 C751 1.393 . S
C748 H740 0.950 . S
C748 C746 1.391 . S
C748 C749 1.400 . S
C749 C748 1.400 . S
C749 C750 1.398 . S
C749 C755 1.491 . S
C750 H741 0.950 . S
C750 C749 1.398 . S
C750 C751 1.391 . S
C751 H739 0.950 . S
C751 C747 1.393 . S
C751 C750 1.391 . S
C752 H742 0.950 . S
C752 C753 1.386 . S
C752 C754 1.391 . S
C753 C752 1.386 . S
C753 C757 1.393 . S
C754 H743 0.950 . S
C754 C752 1.391 . S
C754 C755 1.400 . S
C755 C749 1.491 . S
C755 C754 1.400 . S
C755 C756 1.398 . S
C756 H744 0.950 . S
C756 C755 1.398 . S
C756 C757 1.391 . S
C757 H745 0.950 . S
C757 C753 1.393 . S
C757 C756 1.391 . S
H758 C766 0.950 . S
H759 C771 0.950 . S
H760 C768 0.950 . S
H761 C770 0.950 . S
H762 C772 0.950 . S
H763 C774 0.950 . S
H764 C776 0.950 . S
H765 C777 0.950 . S
C766 H758 0.950 . S
C766 C767 1.386 . S
C766 C768 1.391 . S
C767 C766 1.386 . S
C767 C771 1.393 . S
C768 H760 0.950 . S
C768 C766 1.391 . S
C768 C769 1.400 . S
C769 C768 1.400 . S
C769 C770 1.398 . S
C769 C775 1.491 . S
C770 H761 0.950 . S
C770 C769 1.398 . S
C770 C771 1.391 . S
C771 H759 0.950 . S
C771 C767 1.393 . S
C771 C770 1.391 . S
C772 H762 0.950 . S
C772 C773 1.386 . S
C772 C774 1.391 . S
C773 C772 1.386 . S
C773 C777 1.393 . S
C774 H763 0.950 . S
C774 C772 1.391 . S
C774 C775 1.400 . S
C775 C769 1.491 . S
C775 C774 1.400 . S
C775 C776 1.398 . S
C776 H764 0.950 . S
C776 C775 1.398 . S
C776 C777 1.391 . S
C777 H765 0.950 . S
C777 C773 1.393 . S
C777 C776 1.391 . S
H778 C786 0.950 . S
H779 C791 0.950 . S
H780 C788 0.950 . S
H781 C790 0.950 . S
H782 C792 0.950 . S
H783 C794 0.950 . S
H784 C796 0.950 . S
H785 C797 0.950 . S
C786 H778 0.950 . S
C786 C787 1.386 . S
C786 C788 1.391 . S
C787 C786 1.386 . S
C787 C791 1.393 . S
C788 H780 0.950 . S
C788 C786 1.391 . S
C788 C789 1.400 . S
C789 C788 1.400 . S
C789 C790 1.398 . S
C789 C795 1.491 . S
C790 H781 0.950 . S
C790 C789 1.398 . S
C790 C791 1.391 . S
C791 H779 0.950 . S
C791 C787 1.393 . S
C791 C790 1.391 . S
C792 H782 0.950 . S
C792 C793 1.386 . S
C792 C794 1.391 . S
C793 C792 1.386 . S
C793 C797 1.393 . S
C794 H783 0.950 . S
C794 C792 1.391 . S
C794 C795 1.400 . S
C795 C789 1.491 . S
C795 C794 1.400 . S
C795 C796 1.398 . S
C796 H784 0.950 . S
C796 C795 1.398 . S
C796 C797 1.391 . S
C797 H785 0.950 . S
C797 C793 1.393 . S
C797 C796 1.391 . S
H798 C806 0.950 . S
H799 C811 0.950 . S
H800 C808 0.950 . S
H801 C810 0.950 . S
H802 C812 0.950 . S
H803 C814 0.950 . S
H804 C816 0.950 . S
H805 C817 0.950 . S
C806 H798 0.950 . S
C806 C807 1.386 . S
C806 C808 1.391 . S
C807 C806 1.386 . S
C807 C811 1.393 . S
C808 H800 0.950 . S
C808 C806 1.391 . S
C808 C809 1.400 . S
C809 C808 1.400 . S
C809 C810 1.398 . S
C809 C815 1.491 . S
C810 H801 0.950 . S
C810 C809 1.398 . S
C810 C811 1.391 . S
C811 H799 0.950 . S
C811 C807 1.393 . S
C811 C810 1.391 . S
C812 H802 0.950 . S
C812 C813 1.386 . S
C812 C814 1.391 . S
C813 C812 1.386 . S
C813 C817 1.393 . S
C814 H803 0.950 . S
C814 C812 1.391 . S
C814 C815 1.400 . S
C815 C809 1.491 . S
C815 C814 1.400 . S
C815 C816 1.398 . S
C816 H804 0.950 . S
C816 C815 1.398 . S
C816 C817 1.391 . S
C817 H805 0.950 . S
C817 C813 1.393 . S
C817 C816 1.391 . S
H818 C826 0.950 . S
H819 C831 0.950 . S
H820 C828 0.950 . S
H821 C830 0.950 . S
H822 C832 0.950 . S
H823 C834 0.950 . S
H824 C836 0.950 . S
H825 C837 0.950 . S
C826 H818 0.950 . S
C826 C827 1.386 . S
C826 C828 1.391 . S
C827 C826 1.386 . S
C827 C831 1.393 . S
C828 H820 0.950 . S
C828 C826 1.391 . S
C828 C829 1.400 . S
C829 C828 1.400 . S
C829 C830 1.398 . S
C829 C835 1.491 . S
C830 H821 0.950 . S
C830 C829 1.398 . S
C830 C831 1.391 . S
C831 H819 0.950 . S
C831 C827 1.393 . S
C831 C830 1.391 . S
C832 H822 0.950 . S
C832 C833 1.386 . S
C832 C834 1.391 . S
C833 C832 1.386 . S
C833 C837 1.393 . S
C834 H823 0.950 . S
C834 C832 1.391 . S
C834 C835 1.400 . S
C835 C829 1.491 . S
C835 C834 1.400 . S
C835 C836 1.398 . S
C836 H824 0.950 . S
C836 C835 1.398 . S
C836 C837 1.391 . S
C837 H825 0.950 . S
C837 C833 1.393 . S
C837 C836 1.391 . S
H838 C846 0.950 . S
H839 C851 0.950 . S
H840 C848 0.950 . S
H841 C850 0.950 . S
H842 C852 0.950 . S
H843 C854 0.950 . S
H844 C856 0.950 . S
H845 C857 0.944 1_556 S
C846 H838 0.950 . S
C846 C847 1.386 . S
C846 C848 1.391 . S
C847 C846 1.386 . S
C847 C851 1.393 . S
C848 H840 0.950 . S
C848 C846 1.391 . S
C848 C849 1.400 . S
C849 C848 1.400 . S
C849 C850 1.398 . S
C849 C855 1.491 . S
C850 H841 0.950 . S
C850 C849 1.398 . S
C850 C851 1.391 . S
C851 H839 0.950 . S
C851 C847 1.393 . S
C851 C850 1.391 . S
C852 H842 0.950 . S
C852 C853 1.386 . S
C852 C854 1.391 . S
C853 C852 1.386 . S
C853 C857 1.393 . S
C854 H843 0.950 . S
C854 C852 1.391 . S
C854 C855 1.400 . S
C855 C849 1.491 . S
C855 C854 1.400 . S
C855 C856 1.398 . S
C856 H844 0.950 . S
C856 C855 1.398 . S
C856 C857 1.391 . S
C857 H845 0.944 1_554 S
C857 C853 1.393 . S
C857 C856 1.391 . S
H858 C866 0.950 . S
H859 C871 0.950 . S
H860 C868 0.950 . S
H861 C870 0.950 . S
H862 C872 0.950 . S
H863 C874 0.950 . S
H864 C876 0.950 . S
H865 C877 0.950 . S
C866 H858 0.950 . S
C866 C867 1.386 . S
C866 C868 1.391 . S
C867 C866 1.386 . S
C867 C871 1.393 . S
C868 H860 0.950 . S
C868 C866 1.391 . S
C868 C869 1.400 . S
C869 C868 1.400 . S
C869 C870 1.398 . S
C869 C875 1.491 . S
C870 H861 0.950 . S
C870 C869 1.398 . S
C870 C871 1.391 . S
C871 H859 0.950 . S
C871 C867 1.393 . S
C871 C870 1.391 . S
C872 H862 0.950 . S
C872 C873 1.386 . S
C872 C874 1.391 . S
C873 C872 1.386 . S
C873 C877 1.393 . S
C874 H863 0.950 . S
C874 C872 1.391 . S
C874 C875 1.400 . S
C875 C869 1.491 . S
C875 C874 1.400 . S
C875 C876 1.398 . S
C876 H864 0.950 . S
C876 C875 1.398 . S
C876 C877 1.391 . S
C877 H865 0.950 . S
C877 C873 1.393 . S
C877 C876 1.391 . S
H878 C886 0.950 . S
H879 C891 0.950 . S
H880 C888 0.950 . S
H881 C890 0.950 . S
H882 C892 0.950 . S
H883 C894 0.950 . S
H884 C896 0.950 . S
H885 C897 0.950 . S
C886 H878 0.950 . S
C886 C887 1.386 . S
C886 C888 1.391 . S
C887 C886 1.386 . S
C887 C891 1.393 . S
C888 H880 0.950 . S
C888 C886 1.391 . S
C888 C889 1.400 . S
C889 C888 1.400 . S
C889 C890 1.398 . S
C889 C895 1.491 . S
C890 H881 0.950 . S
C890 C889 1.398 . S
C890 C891 1.391 . S
C891 H879 0.950 . S
C891 C887 1.393 . S
C891 C890 1.391 . S
C892 H882 0.950 . S
C892 C893 1.386 . S
C892 C894 1.391 . S
C893 C892 1.386 . S
C893 C897 1.393 . S
C894 H883 0.950 . S
C894 C892 1.391 . S
C894 C895 1.400 . S
C895 C889 1.491 . S
C895 C894 1.400 . S
C895 C896 1.398 . S
C896 H884 0.950 . S
C896 C895 1.398 . S
C896 C897 1.391 . S
C897 H885 0.950 . S
C897 C893 1.393 . S
C897 C896 1.391 . S
H898 C906 0.950 . S
H899 C911 0.950 . S
H900 C908 0.950 . S
H901 C910 0.950 . S
H902 C912 0.950 . S
H903 C914 0.950 . S
H904 C916 0.950 . S
H905 C917 0.950 . S
C906 H898 0.950 . S
C906 C907 1.386 . S
C906 C908 1.391 . S
C907 C906 1.386 . S
C907 C911 1.393 . S
C908 H900 0.950 . S
C908 C906 1.391 . S
C908 C909 1.400 . S
C909 C908 1.400 . S
C909 C910 1.398 . S
C909 C915 1.491 . S
C910 H901 0.950 . S
C910 C909 1.398 . S
C910 C911 1.391 . S
C911 H899 0.950 . S
C911 C907 1.393 . S
C911 C910 1.391 . S
C912 H902 0.950 . S
C912 C913 1.386 . S
C912 C914 1.391 . S
C913 C912 1.386 . S
C913 C917 1.393 . S
C914 H903 0.950 . S
C914 C912 1.391 . S
C914 C915 1.400 . S
C915 C909 1.491 . S
C915 C914 1.400 . S
C915 C916 1.398 . S
C916 H904 0.950 . S
C916 C915 1.398 . S
C916 C917 1.391 . S
C917 H905 0.950 . S
C917 C913 1.393 . S
C917 C916 1.391 . S
H918 C926 0.950 . S
H919 C931 0.950 . S
H920 C928 0.950 . S
H921 C930 0.950 . S
H922 C932 0.950 . S
H923 C934 0.950 . S
H924 C936 0.950 . S
H925 C937 0.950 . S
C926 H918 0.950 . S
C926 C927 1.386 . S
C926 C928 1.391 . S
C927 C926 1.386 . S
C927 C931 1.393 . S
C928 H920 0.950 . S
C928 C926 1.391 . S
C928 C929 1.400 . S
C929 C928 1.400 . S
C929 C930 1.398 . S
C929 C935 1.491 . S
C930 H921 0.950 . S
C930 C929 1.398 . S
C930 C931 1.391 . S
C931 H919 0.950 . S
C931 C927 1.393 . S
C931 C930 1.391 . S
C932 H922 0.950 . S
C932 C933 1.386 . S
C932 C934 1.391 . S
C933 C932 1.386 . S
C933 C937 1.393 . S
C934 H923 0.950 . S
C934 C932 1.391 . S
C934 C935 1.400 . S
C935 C929 1.491 . S
C935 C934 1.400 . S
C935 C936 1.398 . S
C936 H924 0.950 . S
C936 C935 1.398 . S
C936 C937 1.391 . S
C937 H925 0.950 . S
C937 C933 1.393 . S
C937 C936 1.391 . S
H938 C946 0.950 . S
H939 C951 0.950 . S
H940 C948 0.950 . S
H941 C950 0.950 . S
H942 C952 0.950 . S
H943 C954 0.950 . S
H944 C956 0.950 . S
H945 C957 0.950 . S
C946 H938 0.950 . S
C946 C947 1.386 . S
C946 C948 1.391 . S
C947 C946 1.386 . S
C947 C951 1.393 . S
C948 H940 0.950 . S
C948 C946 1.391 . S
C948 C949 1.400 . S
C949 C948 1.400 . S
C949 C950 1.398 . S
C949 C955 1.491 . S
C950 H941 0.950 . S
C950 C949 1.398 . S
C950 C951 1.391 . S
C951 H939 0.950 . S
C951 C947 1.393 . S
C951 C950 1.391 . S
C952 H942 0.950 . S
C952 C953 1.386 . S
C952 C954 1.391 . S
C953 C952 1.386 . S
C953 C957 1.393 . S
C954 H943 0.950 . S
C954 C952 1.391 . S
C954 C955 1.400 . S
C955 C949 1.491 . S
C955 C954 1.400 . S
C955 C956 1.398 . S
C956 H944 0.950 . S
C956 C955 1.398 . S
C956 C957 1.391 . S
C957 H945 0.950 . S
C957 C953 1.393 . S
C957 C956 1.391 . S
H958 C966 0.950 . S
H959 C971 0.950 . S
H960 C968 0.950 . S
H961 C970 0.950 . S
H962 C972 0.950 . S
H963 C974 0.950 . S
H964 C976 0.950 . S
H965 C977 0.950 . S
C966 H958 0.950 . S
C966 C967 1.386 . S
C966 C968 1.391 . S
C967 C966 1.386 . S
C967 C971 1.393 . S
C968 H960 0.950 . S
C968 C966 1.391 . S
C968 C969 1.400 . S
C969 C968 1.400 . S
C969 C970 1.398 . S
C969 C975 1.491 . S
C970 H961 0.950 . S
C970 C969 1.398 . S
C970 C971 1.391 . S
C971 H959 0.950 . S
C971 C967 1.393 . S
C971 C970 1.391 . S
C972 H962 0.950 . S
C972 C973 1.386 . S
C972 C974 1.391 . S
C973 C972 1.386 . S
C973 C977 1.393 . S
C974 H963 0.950 . S
C974 C972 1.391 . S
C974 C975 1.400 . S
C975 C969 1.491 . S
C975 C974 1.400 . S
C975 C976 1.398 . S
C976 H964 0.950 . S
C976 C975 1.398 . S
C976 C977 1.391 . S
C977 H965 0.950 . S
C977 C973 1.393 . S
C977 C976 1.391 . S
H978 C986 0.950 . S
H979 C991 0.950 . S
H980 C988 0.950 . S
H981 C990 0.950 . S
H982 C992 0.950 . S
H983 C994 0.950 . S
H984 C996 0.950 . S
H985 C997 0.950 . S
C986 H978 0.950 . S
C986 C987 1.386 . S
C986 C988 1.391 . S
C987 C986 1.386 . S
C987 C991 1.393 . S
C988 H980 0.950 . S
C988 C986 1.391 . S
C988 C989 1.400 . S
C989 C988 1.400 . S
C989 C990 1.398 . S
C989 C995 1.491 . S
C990 H981 0.950 . S
C990 C989 1.398 . S
C990 C991 1.391 . S
C991 H979 0.950 . S
C991 C987 1.393 . S
C991 C990 1.391 . S
C992 H982 0.950 . S
C992 C993 1.386 . S
C992 C994 1.391 . S
C993 C992 1.386 . S
C993 C997 1.393 . S
C994 H983 0.950 . S
C994 C992 1.391 . S
C994 C995 1.400 . S
C995 C989 1.491 . S
C995 C994 1.400 . S
C995 C996 1.398 . S
C996 H984 0.950 . S
C996 C995 1.398 . S
C996 C997 1.391 . S
C997 H985 0.950 . S
C997 C993 1.393 . S
C997 C996 1.391 . S
H998 C1006 0.950 . S
H999 C1011 0.950 . S
H1000 C1008 0.950 . S
H1001 C1010 0.950 . S
H1002 C1012 0.950 . S
H1003 C1014 0.950 . S
H1004 C1016 0.950 . S
H1005 C1017 0.950 . S
C1006 H998 0.950 . S
C1006 C1007 1.386 . S
C1006 C1008 1.391 . S
C1007 C1006 1.386 . S
C1007 C1011 1.393 . S
C1008 H1000 0.950 . S
C1008 C1006 1.391 . S
C1008 C1009 1.400 . S
C1009 C1008 1.400 . S
C1009 C1010 1.398 . S
C1009 C1015 1.491 . S
C1010 H1001 0.950 . S
C1010 C1009 1.398 . S
C1010 C1011 1.391 . S
C1011 H999 0.950 . S
C1011 C1007 1.393 . S
C1011 C1010 1.391 . S
C1012 H1002 0.950 . S
C1012 C1013 1.386 . S
C1012 C1014 1.391 . S
C1013 C1012 1.386 . S
C1013 C1017 1.393 . S
C1014 H1003 0.950 . S
C1014 C1012 1.391 . S
C1014 C1015 1.400 . S
C1015 C1009 1.491 . S
C1015 C1014 1.400 . S
C1015 C1016 1.398 . S
C1016 H1004 0.950 . S
C1016 C1015 1.398 . S
C1016 C1017 1.391 . S
C1017 H1005 0.950 . S
C1017 C1013 1.393 . S
C1017 C1016 1.391 . S
H1018 C1026 0.950 . S
H1019 C1031 0.950 . S
H1020 C1028 0.950 . S
H1021 C1030 0.950 . S
H1022 C1032 0.950 . S
H1023 C1034 0.950 . S
H1024 C1036 0.950 . S
H1025 C1037 0.950 . S
C1026 H1018 0.950 . S
C1026 C1027 1.386 . S
C1026 C1028 1.391 . S
C1027 C1026 1.386 . S
C1027 C1031 1.393 . S
C1028 H1020 0.950 . S
C1028 C1026 1.391 . S
C1028 C1029 1.400 . S
C1029 C1028 1.400 . S
C1029 C1030 1.398 . S
C1029 C1035 1.491 . S
C1030 H1021 0.950 . S
C1030 C1029 1.398 . S
C1030 C1031 1.391 . S
C1031 H1019 0.950 . S
C1031 C1027 1.393 . S
C1031 C1030 1.391 . S
C1032 H1022 0.950 . S
C1032 C1033 1.386 . S
C1032 C1034 1.391 . S
C1033 C1032 1.386 . S
C1033 C1037 1.393 . S
C1034 H1023 0.950 . S
C1034 C1032 1.391 . S
C1034 C1035 1.400 . S
C1035 C1029 1.491 . S
C1035 C1034 1.400 . S
C1035 C1036 1.398 . S
C1036 H1024 0.950 . S
C1036 C1035 1.398 . S
C1036 C1037 1.391 . S
C1037 H1025 0.950 . S
C1037 C1033 1.393 . S
C1037 C1036 1.391 . S
H1038 C1046 0.950 . S
H1039 C1051 0.950 . S
H1040 C1048 0.950 . S
H1041 C1050 0.950 . S
H1042 C1052 0.950 . S
H1043 C1054 0.950 . S
H1044 C1056 0.950 . S
H1045 C1057 0.950 . S
C1046 H1038 0.950 . S
C1046 C1047 1.386 . S
C1046 C1048 1.391 . S
C1047 C1046 1.386 . S
C1047 C1051 1.393 . S
C1048 H1040 0.950 . S
C1048 C1046 1.391 . S
C1048 C1049 1.400 . S
C1049 C1048 1.400 . S
C1049 C1050 1.398 . S
C1049 C1055 1.491 . S
C1050 H1041 0.950 . S
C1050 C1049 1.398 . S
C1050 C1051 1.391 . S
C1051 H1039 0.950 . S
C1051 C1047 1.393 . S
C1051 C1050 1.391 . S
C1052 H1042 0.950 . S
C1052 C1053 1.386 . S
C1052 C1054 1.391 . S
C1053 C1052 1.386 . S
C1053 C1057 1.393 . S
C1054 H1043 0.950 . S
C1054 C1052 1.391 . S
C1054 C1055 1.400 . S
C1055 C1049 1.491 . S
C1055 C1054 1.400 . S
C1055 C1056 1.398 . S
C1056 H1044 0.950 . S
C1056 C1055 1.398 . S
C1056 C1057 1.391 . S
C1057 H1045 0.950 . S
C1057 C1053 1.393 . S
C1057 C1056 1.391 . S
H1058 C1066 0.950 . S
H1059 C1071 0.950 . S
H1060 C1068 0.950 . S
H1061 C1070 0.950 . S
H1062 C1072 0.950 . S
H1063 C1074 0.950 . S
H1064 C1076 0.950 . S
H1065 C1077 0.950 . S
C1066 H1058 0.950 . S
C1066 C1067 1.386 . S
C1066 C1068 1.391 . S
C1067 C1066 1.386 . S
C1067 C1071 1.393 . S
C1068 H1060 0.950 . S
C1068 C1066 1.391 . S
C1068 C1069 1.400 . S
C1069 C1068 1.400 . S
C1069 C1070 1.398 . S
C1069 C1075 1.491 . S
C1070 H1061 0.950 . S
C1070 C1069 1.398 . S
C1070 C1071 1.391 . S
C1071 H1059 0.950 . S
C1071 C1067 1.393 . S
C1071 C1070 1.391 . S
C1072 H1062 0.950 . S
C1072 C1073 1.386 . S
C1072 C1074 1.391 . S
C1073 C1072 1.386 . S
C1073 C1077 1.393 . S
C1074 H1063 0.950 . S
C1074 C1072 1.391 . S
C1074 C1075 1.400 . S
C1075 C1069 1.491 . S
C1075 C1074 1.400 . S
C1075 C1076 1.398 . S
C1076 H1064 0.950 . S
C1076 C1075 1.398 . S
C1076 C1077 1.391 . S
C1077 H1065 0.950 . S
C1077 C1073 1.393 . S
C1077 C1076 1.391 . S
H1078 C1086 0.950 . S
H1079 C1091 0.950 . S
H1080 C1088 0.950 . S
H1081 C1090 0.950 . S
H1082 C1092 0.950 . S
H1083 C1094 0.950 . S
H1084 C1096 0.950 . S
H1085 C1097 0.950 . S
C1086 H1078 0.950 . S
C1086 C1087 1.386 . S
C1086 C1088 1.391 . S
C1087 C1086 1.386 . S
C1087 C1091 1.393 . S
C1088 H1080 0.950 . S
C1088 C1086 1.391 . S
C1088 C1089 1.400 . S
C1089 C1088 1.400 . S
C1089 C1090 1.398 . S
C1089 C1095 1.491 . S
C1090 H1081 0.950 . S
C1090 C1089 1.398 . S
C1090 C1091 1.391 . S
C1091 H1079 0.950 . S
C1091 C1087 1.393 . S
C1091 C1090 1.391 . S
C1092 H1082 0.950 . S
C1092 C1093 1.386 . S
C1092 C1094 1.391 . S
C1093 C1092 1.386 . S
C1093 C1097 1.393 . S
C1094 H1083 0.950 . S
C1094 C1092 1.391 . S
C1094 C1095 1.400 . S
C1095 C1089 1.491 . S
C1095 C1094 1.400 . S
C1095 C1096 1.398 . S
C1096 H1084 0.950 . S
C1096 C1095 1.398 . S
C1096 C1097 1.391 . S
C1097 H1085 0.950 . S
C1097 C1093 1.393 . S
C1097 C1096 1.391 . S
H1098 C1106 0.950 . S
H1099 C1111 0.950 . S
H1100 C1108 0.950 . S
H1101 C1110 0.950 . S
H1102 C1112 0.950 . S
H1103 C1114 0.950 . S
H1104 C1116 0.950 . S
H1105 C1117 0.950 . S
C1106 H1098 0.950 . S
C1106 C1107 1.386 . S
C1106 C1108 1.391 . S
C1107 C1106 1.386 . S
C1107 C1111 1.393 . S
C1108 H1100 0.950 . S
C1108 C1106 1.391 . S
C1108 C1109 1.400 . S
C1109 C1108 1.400 . S
C1109 C1110 1.398 . S
C1109 C1115 1.491 . S
C1110 H1101 0.950 . S
C1110 C1109 1.398 . S
C1110 C1111 1.391 . S
C1111 H1099 0.950 . S
C1111 C1107 1.393 . S
C1111 C1110 1.391 . S
C1112 H1102 0.950 . S
C1112 C1113 1.386 . S
C1112 C1114 1.391 . S
C1113 C1112 1.386 . S
C1113 C1117 1.393 . S
C1114 H1103 0.950 . S
C1114 C1112 1.391 . S
C1114 C1115 1.400 . S
C1115 C1109 1.491 . S
C1115 C1114 1.400 . S
C1115 C1116 1.398 . S
C1116 H1104 0.950 . S
C1116 C1115 1.398 . S
C1116 C1117 1.391 . S
C1117 H1105 0.950 . S
C1117 C1113 1.393 . S
C1117 C1116 1.391 . S
H1118 C1126 0.950 . S
H1119 C1131 0.950 . S
H1120 C1128 0.950 . S
H1121 C1130 0.950 . S
H1122 C1132 0.950 . S
H1123 C1134 0.950 . S
H1124 C1136 0.950 . S
H1125 C1137 0.950 . S
C1126 H1118 0.950 . S
C1126 C1127 1.386 . S
C1126 C1128 1.391 . S
C1127 C1126 1.386 . S
C1127 C1131 1.393 . S
C1128 H1120 0.950 . S
C1128 C1126 1.391 . S
C1128 C1129 1.400 . S
C1129 C1128 1.400 . S
C1129 C1130 1.398 . S
C1129 C1135 1.491 . S
C1130 H1121 0.950 . S
C1130 C1129 1.398 . S
C1130 C1131 1.391 . S
C1131 H1119 0.950 . S
C1131 C1127 1.393 . S
C1131 C1130 1.391 . S
C1132 H1122 0.950 . S
C1132 C1133 1.386 . S
C1132 C1134 1.391 . S
C1133 C1132 1.386 . S
C1133 C1137 1.393 . S
C1134 H1123 0.950 . S
C1134 C1132 1.391 . S
C1134 C1135 1.400 . S
C1135 C1129 1.491 . S
C1135 C1134 1.400 . S
C1135 C1136 1.398 . S
C1136 H1124 0.950 . S
C1136 C1135 1.398 . S
C1136 C1137 1.391 . S
C1137 H1125 0.950 . S
C1137 C1133 1.393 . S
C1137 C1136 1.391 . S
H1138 C1146 0.950 . S
H1139 C1151 0.950 . S
H1140 C1148 0.950 . S
H1141 C1150 0.950 . S
H1142 C1152 0.950 . S
H1143 C1154 0.950 . S
H1144 C1156 0.950 . S
H1145 C1157 0.950 . S
C1146 H1138 0.950 . S
C1146 C1147 1.386 . S
C1146 C1148 1.391 . S
C1147 C1146 1.386 . S
C1147 C1151 1.393 . S
C1148 H1140 0.950 . S
C1148 C1146 1.391 . S
C1148 C1149 1.400 . S
C1149 C1148 1.400 . S
C1149 C1150 1.398 . S
C1149 C1155 1.491 . S
C1150 H1141 0.950 . S
C1150 C1149 1.398 . S
C1150 C1151 1.391 . S
C1151 H1139 0.950 . S
C1151 C1147 1.393 . S
C1151 C1150 1.391 . S
C1152 H1142 0.950 . S
C1152 C1153 1.386 . S
C1152 C1154 1.391 . S
C1153 C1152 1.386 . S
C1153 C1157 1.393 . S
C1154 H1143 0.950 . S
C1154 C1152 1.391 . S
C1154 C1155 1.400 . S
C1155 C1149 1.491 . S
C1155 C1154 1.400 . S
C1155 C1156 1.398 . S
C1156 H1144 0.950 . S
C1156 C1155 1.398 . S
C1156 C1157 1.391 . S
C1157 H1145 0.950 . S
C1157 C1153 1.393 . S
C1157 C1156 1.391 . S
H1158 C1166 0.950 . S
H1159 C1171 0.950 . S
H1160 C1168 0.950 . S
H1161 C1170 0.950 . S
H1162 C1172 0.950 . S
H1163 C1174 0.950 . S
H1164 C1176 0.950 . S
H1165 C1177 0.950 . S
C1166 H1158 0.950 . S
C1166 C1167 1.386 . S
C1166 C1168 1.391 . S
C1167 C1166 1.386 . S
C1167 C1171 1.393 . S
C1168 H1160 0.950 . S
C1168 C1166 1.391 . S
C1168 C1169 1.400 . S
C1169 C1168 1.400 . S
C1169 C1170 1.398 . S
C1169 C1175 1.491 . S
C1170 H1161 0.950 . S
C1170 C1169 1.398 . S
C1170 C1171 1.391 . S
C1171 H1159 0.950 . S
C1171 C1167 1.393 . S
C1171 C1170 1.391 . S
C1172 H1162 0.950 . S
C1172 C1173 1.386 . S
C1172 C1174 1.391 . S
C1173 C1172 1.386 . S
C1173 C1177 1.393 . S
C1174 H1163 0.950 . S
C1174 C1172 1.391 . S
C1174 C1175 1.400 . S
C1175 C1169 1.491 . S
C1175 C1174 1.400 . S
C1175 C1176 1.398 . S
C1176 H1164 0.950 . S
C1176 C1175 1.398 . S
C1176 C1177 1.391 . S
C1177 H1165 0.950 . S
C1177 C1173 1.393 . S
C1177 C1176 1.391 . S
H1178 C1186 0.950 . S
H1179 C1191 0.950 . S
H1180 C1188 0.950 . S
H1181 C1190 0.950 . S
H1182 C1192 0.950 . S
H1183 C1194 0.950 . S
H1184 C1196 0.950 . S
H1185 C1197 0.950 . S
C1186 H1178 0.950 . S
C1186 C1187 1.386 . S
C1186 C1188 1.391 . S
C1187 C1186 1.386 . S
C1187 C1191 1.393 . S
C1188 H1180 0.950 . S
C1188 C1186 1.391 . S
C1188 C1189 1.400 . S
C1189 C1188 1.400 . S
C1189 C1190 1.398 . S
C1189 C1195 1.491 . S
C1190 H1181 0.950 . S
C1190 C1189 1.398 . S
C1190 C1191 1.391 . S
C1191 H1179 0.950 . S
C1191 C1187 1.393 . S
C1191 C1190 1.391 . S
C1192 H1182 0.950 . S
C1192 C1193 1.386 . S
C1192 C1194 1.391 . S
C1193 C1192 1.386 . S
C1193 C1197 1.393 . S
C1194 H1183 0.950 . S
C1194 C1192 1.391 . S
C1194 C1195 1.400 . S
C1195 C1189 1.491 . S
C1195 C1194 1.400 . S
C1195 C1196 1.398 . S
C1196 H1184 0.950 . S
C1196 C1195 1.398 . S
C1196 C1197 1.391 . S
C1197 H1185 0.950 . S
C1197 C1193 1.393 . S
C1197 C1196 1.391 . S
H1198 C1206 0.950 . S
H1199 C1211 0.950 . S
H1200 C1208 0.950 . S
H1201 C1210 0.950 . S
H1202 C1212 0.950 . S
H1203 C1214 0.950 . S
H1204 C1216 0.950 . S
H1205 C1217 0.950 . S
C1206 H1198 0.950 . S
C1206 C1207 1.386 . S
C1206 C1208 1.391 . S
C1207 C1206 1.386 . S
C1207 C1211 1.393 . S
C1208 H1200 0.950 . S
C1208 C1206 1.391 . S
C1208 C1209 1.400 . S
C1209 C1208 1.400 . S
C1209 C1210 1.398 . S
C1209 C1215 1.491 . S
C1210 H1201 0.950 . S
C1210 C1209 1.398 . S
C1210 C1211 1.391 . S
C1211 H1199 0.950 . S
C1211 C1207 1.393 . S
C1211 C1210 1.391 . S
C1212 H1202 0.950 . S
C1212 C1213 1.386 . S
C1212 C1214 1.391 . S
C1213 C1212 1.386 . S
C1213 C1217 1.393 . S
C1214 H1203 0.950 . S
C1214 C1212 1.391 . S
C1214 C1215 1.400 . S
C1215 C1209 1.491 . S
C1215 C1214 1.400 . S
C1215 C1216 1.398 . S
C1216 H1204 0.950 . S
C1216 C1215 1.398 . S
C1216 C1217 1.391 . S
C1217 H1205 0.950 . S
C1217 C1213 1.393 . S
C1217 C1216 1.391 . S
H1218 C1226 0.950 . S
H1219 C1231 0.950 . S
H1220 C1228 0.950 . S
H1221 C1230 0.950 . S
H1222 C1232 0.950 . S
H1223 C1234 0.950 . S
H1224 C1236 0.950 . S
H1225 C1237 0.950 . S
C1226 H1218 0.950 . S
C1226 C1227 1.386 . S
C1226 C1228 1.391 . S
C1227 C1226 1.386 . S
C1227 C1231 1.393 . S
C1228 H1220 0.950 . S
C1228 C1226 1.391 . S
C1228 C1229 1.400 . S
C1229 C1228 1.400 . S
C1229 C1230 1.398 . S
C1229 C1235 1.491 . S
C1230 H1221 0.950 . S
C1230 C1229 1.398 . S
C1230 C1231 1.391 . S
C1231 H1219 0.950 . S
C1231 C1227 1.393 . S
C1231 C1230 1.391 . S
C1232 H1222 0.950 . S
C1232 C1233 1.386 . S
C1232 C1234 1.391 . S
C1233 C1232 1.386 . S
C1233 C1237 1.393 . S
C1234 H1223 0.950 . S
C1234 C1232 1.391 . S
C1234 C1235 1.400 . S
C1235 C1229 1.491 . S
C1235 C1234 1.400 . S
C1235 C1236 1.398 . S
C1236 H1224 0.950 . S
C1236 C1235 1.398 . S
C1236 C1237 1.391 . S
C1237 H1225 0.950 . S
C1237 C1233 1.393 . S
C1237 C1236 1.391 . S
H1238 C1246 0.950 . S
H1239 C1251 0.950 . S
H1240 C1248 0.950 . S
H1241 C1250 0.950 . S
H1242 C1252 0.950 . S
H1243 C1254 0.950 . S
H1244 C1256 0.950 . S
H1245 C1257 0.950 . S
C1246 H1238 0.950 . S
C1246 C1247 1.386 . S
C1246 C1248 1.391 . S
C1247 C1246 1.386 . S
C1247 C1251 1.393 . S
C1248 H1240 0.950 . S
C1248 C1246 1.391 . S
C1248 C1249 1.400 . S
C1249 C1248 1.400 . S
C1249 C1250 1.398 . S
C1249 C1255 1.491 . S
C1250 H1241 0.950 . S
C1250 C1249 1.398 . S
C1250 C1251 1.391 . S
C1251 H1239 0.950 . S
C1251 C1247 1.393 . S
C1251 C1250 1.391 . S
C1252 H1242 0.950 . S
C1252 C1253 1.386 . S
C1252 C1254 1.391 . S
C1253 C1252 1.386 . S
C1253 C1257 1.393 . S
C1254 H1243 0.950 . S
C1254 C1252 1.391 . S
C1254 C1255 1.400 . S
C1255 C1249 1.491 . S
C1255 C1254 1.400 . S
C1255 C1256 1.398 . S
C1256 H1244 0.950 . S
C1256 C1255 1.398 . S
C1256 C1257 1.391 . S
C1257 H1245 0.950 . S
C1257 C1253 1.393 . S
C1257 C1256 1.391 . S
H1258 C1266 0.950 . S
H1259 C1271 0.950 . S
H1260 C1268 0.950 . S
H1261 C1270 0.950 . S
H1262 C1272 0.950 . S
H1263 C1274 0.950 . S
H1264 C1276 0.950 . S
H1265 C1277 0.950 . S
C1266 H1258 0.950 . S
C1266 C1267 1.386 . S
C1266 C1268 1.391 . S
C1267 C1266 1.386 . S
C1267 C1271 1.393 . S
C1268 H1260 0.950 . S
C1268 C1266 1.391 . S
C1268 C1269 1.400 . S
C1269 C1268 1.400 . S
C1269 C1270 1.398 . S
C1269 C1275 1.491 . S
C1270 H1261 0.950 . S
C1270 C1269 1.398 . S
C1270 C1271 1.391 . S
C1271 H1259 0.950 . S
C1271 C1267 1.393 . S
C1271 C1270 1.391 . S
C1272 H1262 0.950 . S
C1272 C1273 1.386 . S
C1272 C1274 1.391 . S
C1273 C1272 1.386 . S
C1273 C1277 1.393 . S
C1274 H1263 0.950 . S
C1274 C1272 1.391 . S
C1274 C1275 1.400 . S
C1275 C1269 1.491 . S
C1275 C1274 1.400 . S
C1275 C1276 1.398 . S
C1276 H1264 0.950 . S
C1276 C1275 1.398 . S
C1276 C1277 1.391 . S
C1277 H1265 0.950 . S
C1277 C1273 1.393 . S
C1277 C1276 1.391 . S
H1278 C1286 0.950 . S
H1279 C1291 0.950 . S
H1280 C1288 0.950 . S
H1281 C1290 0.950 . S
H1282 C1292 0.950 . S
H1283 C1294 0.950 . S
H1284 C1296 0.950 . S
H1285 C1297 0.950 . S
C1286 H1278 0.950 . S
C1286 C1287 1.386 . S
C1286 C1288 1.391 . S
C1287 C1286 1.386 . S
C1287 C1291 1.393 . S
C1288 H1280 0.950 . S
C1288 C1286 1.391 . S
C1288 C1289 1.400 . S
C1289 C1288 1.400 . S
C1289 C1290 1.398 . S
C1289 C1295 1.491 . S
C1290 H1281 0.950 . S
C1290 C1289 1.398 . S
C1290 C1291 1.391 . S
C1291 H1279 0.950 . S
C1291 C1287 1.393 . S
C1291 C1290 1.391 . S
C1292 H1282 0.950 . S
C1292 C1293 1.386 . S
C1292 C1294 1.391 . S
C1293 C1292 1.386 . S
C1293 C1297 1.393 . S
C1294 H1283 0.950 . S
C1294 C1292 1.391 . S
C1294 C1295 1.400 . S
C1295 C1289 1.491 . S
C1295 C1294 1.400 . S
C1295 C1296 1.398 . S
C1296 H1284 0.950 . S
C1296 C1295 1.398 . S
C1296 C1297 1.391 . S
C1297 H1285 0.950 . S
C1297 C1293 1.393 . S
C1297 C1296 1.391 . S
H1298 C1306 0.950 . S
H1299 C1311 0.950 . S
H1300 C1308 0.950 . S
H1301 C1310 0.950 . S
H1302 C1312 0.950 . S
H1303 C1314 0.950 . S
H1304 C1316 0.950 . S
H1305 C1317 0.950 . S
C1306 H1298 0.950 . S
C1306 C1307 1.386 . S
C1306 C1308 1.391 . S
C1307 C1306 1.386 . S
C1307 C1311 1.393 . S
C1308 H1300 0.950 . S
C1308 C1306 1.391 . S
C1308 C1309 1.400 . S
C1309 C1308 1.400 . S
C1309 C1310 1.398 . S
C1309 C1315 1.491 . S
C1310 H1301 0.950 . S
C1310 C1309 1.398 . S
C1310 C1311 1.391 . S
C1311 H1299 0.950 . S
C1311 C1307 1.393 . S
C1311 C1310 1.391 . S
C1312 H1302 0.950 . S
C1312 C1313 1.386 . S
C1312 C1314 1.391 . S
C1313 C1312 1.386 . S
C1313 C1317 1.393 . S
C1314 H1303 0.950 . S
C1314 C1312 1.391 . S
C1314 C1315 1.400 . S
C1315 C1309 1.491 . S
C1315 C1314 1.400 . S
C1315 C1316 1.398 . S
C1316 H1304 0.950 . S
C1316 C1315 1.398 . S
C1316 C1317 1.391 . S
C1317 H1305 0.950 . S
C1317 C1313 1.393 . S
C1317 C1316 1.391 . S
H1318 C1326 0.950 . S
H1319 C1331 0.950 . S
H1320 C1328 0.950 . S
H1321 C1330 0.950 . S
H1322 C1332 0.950 . S
H1323 C1334 0.950 . S
H1324 C1336 0.950 . S
H1325 C1337 0.950 . S
C1326 H1318 0.950 . S
C1326 C1327 1.386 . S
C1326 C1328 1.391 . S
C1327 C1326 1.386 . S
C1327 C1331 1.393 . S
C1328 H1320 0.950 . S
C1328 C1326 1.391 . S
C1328 C1329 1.400 . S
C1329 C1328 1.400 . S
C1329 C1330 1.398 . S
C1329 C1335 1.491 . S
C1330 H1321 0.950 . S
C1330 C1329 1.398 . S
C1330 C1331 1.391 . S
C1331 H1319 0.950 . S
C1331 C1327 1.393 . S
C1331 C1330 1.391 . S
C1332 H1322 0.950 . S
C1332 C1333 1.386 . S
C1332 C1334 1.391 . S
C1333 C1332 1.386 . S
C1333 C1337 1.393 . S
C1334 H1323 0.950 . S
C1334 C1332 1.391 . S
C1334 C1335 1.400 . S
C1335 C1329 1.491 . S
C1335 C1334 1.400 . S
C1335 C1336 1.398 . S
C1336 H1324 0.950 . S
C1336 C1335 1.398 . S
C1336 C1337 1.391 . S
C1337 H1325 0.950 . S
C1337 C1333 1.393 . S
C1337 C1336 1.391 . S
H1338 C1346 0.950 . S
H1339 C1351 0.950 . S
H1340 C1348 0.950 . S
H1341 C1350 0.950 . S
H1342 C1352 0.950 . S
H1343 C1354 0.950 . S
H1344 C1356 0.950 . S
H1345 C1357 0.950 . S
C1346 H1338 0.950 . S
C1346 C1347 1.386 . S
C1346 C1348 1.391 . S
C1347 C1346 1.386 . S
C1347 C1351 1.393 . S
C1348 H1340 0.950 . S
C1348 C1346 1.391 . S
C1348 C1349 1.400 . S
C1349 C1348 1.400 . S
C1349 C1350 1.398 . S
C1349 C1355 1.491 . S
C1350 H1341 0.950 . S
C1350 C1349 1.398 . S
C1350 C1351 1.391 . S
C1351 H1339 0.950 . S
C1351 C1347 1.393 . S
C1351 C1350 1.391 . S
C1352 H1342 0.950 . S
C1352 C1353 1.386 . S
C1352 C1354 1.391 . S
C1353 C1352 1.386 . S
C1353 C1357 1.393 . S
C1354 H1343 0.950 . S
C1354 C1352 1.391 . S
C1354 C1355 1.400 . S
C1355 C1349 1.491 . S
C1355 C1354 1.400 . S
C1355 C1356 1.398 . S
C1356 H1344 0.950 . S
C1356 C1355 1.398 . S
C1356 C1357 1.391 . S
C1357 H1345 0.950 . S
C1357 C1353 1.393 . S
C1357 C1356 1.391 . S
H1358 C1366 0.950 . S
H1359 C1371 0.950 . S
H1360 C1368 0.950 . S
H1361 C1370 0.950 . S
H1362 C1372 0.950 . S
H1363 C1374 0.950 . S
H1364 C1376 0.950 . S
H1365 C1377 0.950 . S
C1366 H1358 0.950 . S
C1366 C1367 1.386 . S
C1366 C1368 1.391 . S
C1367 C1366 1.386 . S
C1367 C1371 1.393 . S
C1368 H1360 0.950 . S
C1368 C1366 1.391 . S
C1368 C1369 1.400 . S
C1369 C1368 1.400 . S
C1369 C1370 1.398 . S
C1369 C1375 1.491 . S
C1370 H1361 0.950 . S
C1370 C1369 1.398 . S
C1370 C1371 1.391 . S
C1371 H1359 0.950 . S
C1371 C1367 1.393 . S
C1371 C1370 1.391 . S
C1372 H1362 0.950 . S
C1372 C1373 1.386 . S
C1372 C1374 1.391 . S
C1373 C1372 1.386 . S
C1373 C1377 1.393 . S
C1374 H1363 0.950 . S
C1374 C1372 1.391 . S
C1374 C1375 1.400 . S
C1375 C1369 1.491 . S
C1375 C1374 1.400 . S
C1375 C1376 1.398 . S
C1376 H1364 0.950 . S
C1376 C1375 1.398 . S
C1376 C1377 1.391 . S
C1377 H1365 0.950 . S
C1377 C1373 1.393 . S
C1377 C1376 1.391 . S
H1378 C1386 0.950 . S
H1379 C1391 0.950 . S
H1380 C1388 0.950 . S
H1381 C1390 0.950 . S
H1382 C1392 0.950 . S
H1383 C1394 0.950 . S
H1384 C1396 0.950 . S
H1385 C1397 0.950 . S
C1386 H1378 0.950 . S
C1386 C1387 1.386 . S
C1386 C1388 1.391 . S
C1387 C1386 1.386 . S
C1387 C1391 1.393 . S
C1388 H1380 0.950 . S
C1388 C1386 1.391 . S
C1388 C1389 1.400 . S
C1389 C1388 1.400 . S
C1389 C1390 1.398 . S
C1389 C1395 1.491 . S
C1390 H1381 0.950 . S
C1390 C1389 1.398 . S
C1390 C1391 1.391 . S
C1391 H1379 0.950 . S
C1391 C1387 1.393 . S
C1391 C1390 1.391 . S
C1392 H1382 0.950 . S
C1392 C1393 1.386 . S
C1392 C1394 1.391 . S
C1393 C1392 1.386 . S
C1393 C1397 1.393 . S
C1394 H1383 0.950 . S
C1394 C1392 1.391 . S
C1394 C1395 1.400 . S
C1395 C1389 1.491 . S
C1395 C1394 1.400 . S
C1395 C1396 1.398 . S
C1396 H1384 0.950 . S
C1396 C1395 1.398 . S
C1396 C1397 1.391 . S
C1397 H1385 0.950 . S
C1397 C1393 1.393 . S
C1397 C1396 1.391 . S
H1398 C1406 0.950 . S
H1399 C1411 0.950 . S
H1400 C1408 0.950 . S
H1401 C1410 0.950 . S
H1402 C1412 0.950 . S
H1403 C1414 0.950 . S
H1404 C1416 0.950 . S
H1405 C1417 0.950 . S
C1406 H1398 0.950 . S
C1406 C1407 1.386 . S
C1406 C1408 1.391 . S
C1407 C1406 1.386 . S
C1407 C1411 1.393 . S
C1408 H1400 0.950 . S
C1408 C1406 1.391 . S
C1408 C1409 1.400 . S
C1409 C1408 1.400 . S
C1409 C1410 1.398 . S
C1409 C1415 1.491 . S
C1410 H1401 0.950 . S
C1410 C1409 1.398 . S
C1410 C1411 1.391 . S
C1411 H1399 0.950 . S
C1411 C1407 1.393 . S
C1411 C1410 1.391 . S
C1412 H1402 0.950 . S
C1412 C1413 1.386 . S
C1412 C1414 1.391 . S
C1413 C1412 1.386 . S
C1413 C1417 1.393 . S
C1414 H1403 0.950 . S
C1414 C1412 1.391 . S
C1414 C1415 1.400 . S
C1415 C1409 1.491 . S
C1415 C1414 1.400 . S
C1415 C1416 1.398 . S
C1416 H1404 0.950 . S
C1416 C1415 1.398 . S
C1416 C1417 1.391 . S
C1417 H1405 0.950 . S
C1417 C1413 1.393 . S
C1417 C1416 1.391 . S
H1418 C1426 0.950 . S
H1419 C1431 0.950 . S
H1420 C1428 0.950 . S
H1421 C1430 0.950 . S
H1422 C1432 0.950 . S
H1423 C1434 0.950 . S
H1424 C1436 0.950 . S
H1425 C1437 0.950 . S
C1426 H1418 0.950 . S
C1426 C1427 1.386 . S
C1426 C1428 1.391 . S
C1427 C1426 1.386 . S
C1427 C1431 1.393 . S
C1428 H1420 0.950 . S
C1428 C1426 1.391 . S
C1428 C1429 1.400 . S
C1429 C1428 1.400 . S
C1429 C1430 1.398 . S
C1429 C1435 1.491 . S
C1430 H1421 0.950 . S
C1430 C1429 1.398 . S
C1430 C1431 1.391 . S
C1431 H1419 0.950 . S
C1431 C1427 1.393 . S
C1431 C1430 1.391 . S
C1432 H1422 0.950 . S
C1432 C1433 1.386 . S
C1432 C1434 1.391 . S
C1433 C1432 1.386 . S
C1433 C1437 1.393 . S
C1434 H1423 0.950 . S
C1434 C1432 1.391 . S
C1434 C1435 1.400 . S
C1435 C1429 1.491 . S
C1435 C1434 1.400 . S
C1435 C1436 1.398 . S
C1436 H1424 0.950 . S
C1436 C1435 1.398 . S
C1436 C1437 1.391 . S
C1437 H1425 0.950 . S
C1437 C1433 1.393 . S
C1437 C1436 1.391 . S
H1438 C1446 0.950 . S
H1439 C1451 0.950 . S
H1440 C1448 0.950 . S
H1441 C1450 0.950 . S
H1442 C1452 0.950 . S
H1443 C1454 0.950 . S
H1444 C1456 0.950 . S
H1445 C1457 0.950 . S
C1446 H1438 0.950 . S
C1446 C1447 1.386 . S
C1446 C1448 1.391 . S
C1447 C1446 1.386 . S
C1447 C1451 1.393 . S
C1448 H1440 0.950 . S
C1448 C1446 1.391 . S
C1448 C1449 1.400 . S
C1449 C1448 1.400 . S
C1449 C1450 1.398 . S
C1449 C1455 1.491 . S
C1450 H1441 0.950 . S
C1450 C1449 1.398 . S
C1450 C1451 1.391 . S
C1451 H1439 0.950 . S
C1451 C1447 1.393 . S
C1451 C1450 1.391 . S
C1452 H1442 0.950 . S
C1452 C1453 1.386 . S
C1452 C1454 1.391 . S
C1453 C1452 1.386 . S
C1453 C1457 1.393 . S
C1454 H1443 0.950 . S
C1454 C1452 1.391 . S
C1454 C1455 1.400 . S
C1455 C1449 1.491 . S
C1455 C1454 1.400 . S
C1455 C1456 1.398 . S
C1456 H1444 0.950 . S
C1456 C1455 1.398 . S
C1456 C1457 1.391 . S
C1457 H1445 0.950 . S
C1457 C1453 1.393 . S
C1457 C1456 1.391 . S
H1458 C1466 0.950 . S
H1459 C1471 0.950 . S
H1460 C1468 0.950 . S
H1461 C1470 0.950 . S
H1462 C1472 0.950 . S
H1463 C1474 0.950 . S
H1464 C1476 0.950 . S
H1465 C1477 0.950 . S
C1466 H1458 0.950 . S
C1466 C1467 1.386 . S
C1466 C1468 1.391 . S
C1467 C1466 1.386 . S
C1467 C1471 1.393 . S
C1468 H1460 0.950 . S
C1468 C1466 1.391 . S
C1468 C1469 1.400 . S
C1469 C1468 1.400 . S
C1469 C1470 1.398 . S
C1469 C1475 1.491 . S
C1470 H1461 0.950 . S
C1470 C1469 1.398 . S
C1470 C1471 1.391 . S
C1471 H1459 0.950 . S
C1471 C1467 1.393 . S
C1471 C1470 1.391 . S
C1472 H1462 0.950 . S
C1472 C1473 1.386 . S
C1472 C1474 1.391 . S
C1473 C1472 1.386 . S
C1473 C1477 1.393 . S
C1474 H1463 0.950 . S
C1474 C1472 1.391 . S
C1474 C1475 1.400 . S
C1475 C1469 1.491 . S
C1475 C1474 1.400 . S
C1475 C1476 1.398 . S
C1476 H1464 0.950 . S
C1476 C1475 1.398 . S
C1476 C1477 1.391 . S
C1477 H1465 0.950 . S
C1477 C1473 1.393 . S
C1477 C1476 1.391 . S
C533 C347 1.496 . S
C527 C2 1.627 . S
C553 C348 1.600 . S
C547 C48 1.621 . S
C573 C342 1.347 . S
C567 C97 1.374 . S
C587 C149 0.521 . S
C593 C341 0.400 . S
C607 C189 1.632 . S
C613 C344 1.584 . S
C633 C346 1.365 . S
C627 C202 1.374 . S
C647 C248 0.526 . S
C653 C345 0.408 . S
C667 C297 1.634 . S
C673 C343 1.469 . S
C693 C378 2.885 . S
C687 C31 2.878 . S
C707 C52 1.724 . S
C713 C409 1.630 . S
C733 C377 1.247 . S
C727 C88 1.273 . S
C753 C412 1.073 . S
C747 C122 1.064 . S
C767 C162 1.425 . S
C773 C375 1.420 . S
C793 C407 2.888 . S
C787 C231 2.892 . S
C807 C252 1.444 . S
C813 C380 1.360 . S
C827 C288 1.291 . S
C833 C414 1.249 . S
C847 C29 1.293 . S
C853 C410 1.235 . S
C867 C191 1.729 . S
C873 C413 1.622 . S
C893 C381 1.220 . S
C887 C229 1.275 . S
C913 C408 1.086 . S
C907 C257 1.050 . S
C927 C292 2.875 . S
C933 C374 2.886 . S
C947 C92 2.891 . S
C953 C411 2.885 . S
C973 C376 1.351 . S
C967 C151 1.443 . S
C987 C57 1.415 . S
C993 C379 1.401 . S
C1007 C282 1.690 . S
C1013 C446 1.535 . S
C1027 C168 1.285 . S
C1033 C447 1.231 . S
C1053 C441 1.137 . S
C1047 C217 1.167 . S
C1073 C440 0.415 . S
C1067 C269 0.520 . S
C1087 C69 1.283 . S
C1093 C443 1.235 . S
C1113 C445 1.137 . S
C1107 C82 1.169 . S
C1127 C128 0.510 . S
C1133 C444 0.409 . S
C1147 C17 1.684 . S
C1153 C442 1.553 . S
C1167 C311 3.054 . S
C1173 C480 2.975 . S
C1193 C512 1.409 . S
C1187 C172 1.470 . S
C1207 C208 1.144 . S
C1213 C473 1.134 . S
C1227 C242 1.426 . S
C1233 C507 1.413 . S
C1253 C478 1.086 . S
C1247 C42 1.091 . S
C1267 C111 3.055 . S
C1273 C509 2.987 . S
C1293 C475 1.797 . S
C1287 C132 1.830 . S
C1313 C510 1.292 . S
C1307 C8 1.283 . S
C1333 C506 1.289 . S
C1327 C309 1.286 . S
C1347 C71 1.473 . S
C1353 C508 1.427 . S
C1367 C109 1.146 . S
C1373 C477 1.141 . S
C1393 C511 1.392 . S
C1387 C137 1.413 . S
C1407 C12 3.055 . S
C1413 C476 2.982 . S
C1427 C212 3.053 . S
C1433 C513 2.990 . S
C1453 C479 1.803 . S
C1447 C271 1.826 . S
C1473 C474 1.066 . S
C1467 C177 1.103 . S
