# Generated by pormake.
# Topology gar, (4,6)-cn, num edge types: 1
# Building blocks:
#     Node 0, Type 0, BuildingBlock: QUQFOY_clean_sbu_3, # of connection points: 4
#     Node 1, Type 0, BuildingBlock: QUQFOY_clean_sbu_3, # of connection points: 4
#     Node 2, Type 0, BuildingBlock: QUQFOY_clean_sbu_3, # of connection points: 4
#     Node 3, Type 0, BuildingBlock: QUQFOY_clean_sbu_3, # of connection points: 4
#     Node 4, Type 0, BuildingBlock: QUQFOY_clean_sbu_3, # of connection points: 4
#     Node 5, Type 0, BuildingBlock: QUQFOY_clean_sbu_3, # of connection points: 4
#     Node 6, Type 0, BuildingBlock: QUQFOY_clean_sbu_3, # of connection points: 4
#     Node 7, Type 0, BuildingBlock: QUQFOY_clean_sbu_3, # of connection points: 4
#     Node 8, Type 0, BuildingBlock: QUQFOY_clean_sbu_3, # of connection points: 4
#     Node 9, Type 0, BuildingBlock: QUQFOY_clean_sbu_3, # of connection points: 4
#     Node 10, Type 0, BuildingBlock: QUQFOY_clean_sbu_3, # of connection points: 4
#     Node 11, Type 0, BuildingBlock: QUQFOY_clean_sbu_3, # of connection points: 4
#     Node 12, Type 0, BuildingBlock: QUQFOY_clean_sbu_3, # of connection points: 4
#     Node 13, Type 0, BuildingBlock: QUQFOY_clean_sbu_3, # of connection points: 4
#     Node 14, Type 0, BuildingBlock: QUQFOY_clean_sbu_3, # of connection points: 4
#     Node 15, Type 0, BuildingBlock: QUQFOY_clean_sbu_3, # of connection points: 4
#     Node 16, Type 0, BuildingBlock: QUQFOY_clean_sbu_3, # of connection points: 4
#     Node 17, Type 0, BuildingBlock: QUQFOY_clean_sbu_3, # of connection points: 4
#     Node 18, Type 0, BuildingBlock: QUQFOY_clean_sbu_3, # of connection points: 4
#     Node 19, Type 0, BuildingBlock: QUQFOY_clean_sbu_3, # of connection points: 4
#     Node 20, Type 0, BuildingBlock: QUQFOY_clean_sbu_3, # of connection points: 4
#     Node 21, Type 0, BuildingBlock: QUQFOY_clean_sbu_3, # of connection points: 4
#     Node 22, Type 0, BuildingBlock: QUQFOY_clean_sbu_3, # of connection points: 4
#     Node 23, Type 0, BuildingBlock: QUQFOY_clean_sbu_3, # of connection points: 4
#     Node 24, Type 1, BuildingBlock: CUWYAW_clean_sbu_0, # of connection points: 6
#     Node 25, Type 1, BuildingBlock: CUWYAW_clean_sbu_0, # of connection points: 6
#     Node 26, Type 1, BuildingBlock: CUWYAW_clean_sbu_0, # of connection points: 6
#     Node 27, Type 1, BuildingBlock: CUWYAW_clean_sbu_0, # of connection points: 6
#     Node 28, Type 1, BuildingBlock: CUWYAW_clean_sbu_0, # of connection points: 6
#     Node 29, Type 1, BuildingBlock: CUWYAW_clean_sbu_0, # of connection points: 6
#     Node 30, Type 1, BuildingBlock: CUWYAW_clean_sbu_0, # of connection points: 6
#     Node 31, Type 1, BuildingBlock: CUWYAW_clean_sbu_0, # of connection points: 6
#     Node 32, Type 1, BuildingBlock: CUWYAW_clean_sbu_0, # of connection points: 6
#     Node 33, Type 1, BuildingBlock: CUWYAW_clean_sbu_0, # of connection points: 6
#     Node 34, Type 1, BuildingBlock: CUWYAW_clean_sbu_0, # of connection points: 6
#     Node 35, Type 1, BuildingBlock: CUWYAW_clean_sbu_0, # of connection points: 6
#     Node 36, Type 1, BuildingBlock: CUWYAW_clean_sbu_0, # of connection points: 6
#     Node 37, Type 1, BuildingBlock: CUWYAW_clean_sbu_0, # of connection points: 6
#     Node 38, Type 1, BuildingBlock: CUWYAW_clean_sbu_0, # of connection points: 6
#     Node 39, Type 1, BuildingBlock: CUWYAW_clean_sbu_0, # of connection points: 6
#     Edge 40, Type (0, 1), BuildingBlock: KIFKEQ_clean_linker_1, # of connection points: 2
#     Edge 41, Type (0, 1), BuildingBlock: KIFKEQ_clean_linker_1, # of connection points: 2
#     Edge 42, Type (0, 1), BuildingBlock: KIFKEQ_clean_linker_1, # of connection points: 2
#     Edge 43, Type (0, 1), BuildingBlock: KIFKEQ_clean_linker_1, # of connection points: 2
#     Edge 44, Type (0, 1), BuildingBlock: KIFKEQ_clean_linker_1, # of connection points: 2
#     Edge 45, Type (0, 1), BuildingBlock: KIFKEQ_clean_linker_1, # of connection points: 2
#     Edge 46, Type (0, 1), BuildingBlock: KIFKEQ_clean_linker_1, # of connection points: 2
#     Edge 47, Type (0, 1), BuildingBlock: KIFKEQ_clean_linker_1, # of connection points: 2
#     Edge 48, Type (0, 1), BuildingBlock: KIFKEQ_clean_linker_1, # of connection points: 2
#     Edge 49, Type (0, 1), BuildingBlock: KIFKEQ_clean_linker_1, # of connection points: 2
#     Edge 50, Type (0, 1), BuildingBlock: KIFKEQ_clean_linker_1, # of connection points: 2
#     Edge 51, Type (0, 1), BuildingBlock: KIFKEQ_clean_linker_1, # of connection points: 2
#     Edge 52, Type (0, 1), BuildingBlock: KIFKEQ_clean_linker_1, # of connection points: 2
#     Edge 53, Type (0, 1), BuildingBlock: KIFKEQ_clean_linker_1, # of connection points: 2
#     Edge 54, Type (0, 1), BuildingBlock: KIFKEQ_clean_linker_1, # of connection points: 2
#     Edge 55, Type (0, 1), BuildingBlock: KIFKEQ_clean_linker_1, # of connection points: 2
#     Edge 56, Type (0, 1), BuildingBlock: KIFKEQ_clean_linker_1, # of connection points: 2
#     Edge 57, Type (0, 1), BuildingBlock: KIFKEQ_clean_linker_1, # of connection points: 2
#     Edge 58, Type (0, 1), BuildingBlock: KIFKEQ_clean_linker_1, # of connection points: 2
#     Edge 59, Type (0, 1), BuildingBlock: KIFKEQ_clean_linker_1, # of connection points: 2
#     Edge 60, Type (0, 1), BuildingBlock: KIFKEQ_clean_linker_1, # of connection points: 2
#     Edge 61, Type (0, 1), BuildingBlock: KIFKEQ_clean_linker_1, # of connection points: 2
#     Edge 62, Type (0, 1), BuildingBlock: KIFKEQ_clean_linker_1, # of connection points: 2
#     Edge 63, Type (0, 1), BuildingBlock: KIFKEQ_clean_linker_1, # of connection points: 2
#     Edge 64, Type (0, 1), BuildingBlock: KIFKEQ_clean_linker_1, # of connection points: 2
#     Edge 65, Type (0, 1), BuildingBlock: KIFKEQ_clean_linker_1, # of connection points: 2
#     Edge 66, Type (0, 1), BuildingBlock: KIFKEQ_clean_linker_1, # of connection points: 2
#     Edge 67, Type (0, 1), BuildingBlock: KIFKEQ_clean_linker_1, # of connection points: 2
#     Edge 68, Type (0, 1), BuildingBlock: KIFKEQ_clean_linker_1, # of connection points: 2
#     Edge 69, Type (0, 1), BuildingBlock: KIFKEQ_clean_linker_1, # of connection points: 2
#     Edge 70, Type (0, 1), BuildingBlock: KIFKEQ_clean_linker_1, # of connection points: 2
#     Edge 71, Type (0, 1), BuildingBlock: KIFKEQ_clean_linker_1, # of connection points: 2
#     Edge 72, Type (0, 1), BuildingBlock: KIFKEQ_clean_linker_1, # of connection points: 2
#     Edge 73, Type (0, 1), BuildingBlock: KIFKEQ_clean_linker_1, # of connection points: 2
#     Edge 74, Type (0, 1), BuildingBlock: KIFKEQ_clean_linker_1, # of connection points: 2
#     Edge 75, Type (0, 1), BuildingBlock: KIFKEQ_clean_linker_1, # of connection points: 2
#     Edge 76, Type (0, 1), BuildingBlock: KIFKEQ_clean_linker_1, # of connection points: 2
#     Edge 77, Type (0, 1), BuildingBlock: KIFKEQ_clean_linker_1, # of connection points: 2
#     Edge 78, Type (0, 1), BuildingBlock: KIFKEQ_clean_linker_1, # of connection points: 2
#     Edge 79, Type (0, 1), BuildingBlock: KIFKEQ_clean_linker_1, # of connection points: 2
#     Edge 80, Type (0, 1), BuildingBlock: KIFKEQ_clean_linker_1, # of connection points: 2
#     Edge 81, Type (0, 1), BuildingBlock: KIFKEQ_clean_linker_1, # of connection points: 2
#     Edge 82, Type (0, 1), BuildingBlock: KIFKEQ_clean_linker_1, # of connection points: 2
#     Edge 83, Type (0, 1), BuildingBlock: KIFKEQ_clean_linker_1, # of connection points: 2
#     Edge 84, Type (0, 1), BuildingBlock: KIFKEQ_clean_linker_1, # of connection points: 2
#     Edge 85, Type (0, 1), BuildingBlock: KIFKEQ_clean_linker_1, # of connection points: 2
#     Edge 86, Type (0, 1), BuildingBlock: KIFKEQ_clean_linker_1, # of connection points: 2
#     Edge 87, Type (0, 1), BuildingBlock: KIFKEQ_clean_linker_1, # of connection points: 2
#     Edge 88, Type (0, 1), BuildingBlock: KIFKEQ_clean_linker_1, # of connection points: 2
#     Edge 89, Type (0, 1), BuildingBlock: KIFKEQ_clean_linker_1, # of connection points: 2
#     Edge 90, Type (0, 1), BuildingBlock: KIFKEQ_clean_linker_1, # of connection points: 2
#     Edge 91, Type (0, 1), BuildingBlock: KIFKEQ_clean_linker_1, # of connection points: 2
#     Edge 92, Type (0, 1), BuildingBlock: KIFKEQ_clean_linker_1, # of connection points: 2
#     Edge 93, Type (0, 1), BuildingBlock: KIFKEQ_clean_linker_1, # of connection points: 2
#     Edge 94, Type (0, 1), BuildingBlock: KIFKEQ_clean_linker_1, # of connection points: 2
#     Edge 95, Type (0, 1), BuildingBlock: KIFKEQ_clean_linker_1, # of connection points: 2
#     Edge 96, Type (0, 1), BuildingBlock: KIFKEQ_clean_linker_1, # of connection points: 2
#     Edge 97, Type (0, 1), BuildingBlock: KIFKEQ_clean_linker_1, # of connection points: 2
#     Edge 98, Type (0, 1), BuildingBlock: KIFKEQ_clean_linker_1, # of connection points: 2
#     Edge 99, Type (0, 1), BuildingBlock: KIFKEQ_clean_linker_1, # of connection points: 2
#     Edge 100, Type (0, 1), BuildingBlock: KIFKEQ_clean_linker_1, # of connection points: 2
#     Edge 101, Type (0, 1), BuildingBlock: KIFKEQ_clean_linker_1, # of connection points: 2
#     Edge 102, Type (0, 1), BuildingBlock: KIFKEQ_clean_linker_1, # of connection points: 2
#     Edge 103, Type (0, 1), BuildingBlock: KIFKEQ_clean_linker_1, # of connection points: 2
#     Edge 104, Type (0, 1), BuildingBlock: KIFKEQ_clean_linker_1, # of connection points: 2
#     Edge 105, Type (0, 1), BuildingBlock: KIFKEQ_clean_linker_1, # of connection points: 2
#     Edge 106, Type (0, 1), BuildingBlock: KIFKEQ_clean_linker_1, # of connection points: 2
#     Edge 107, Type (0, 1), BuildingBlock: KIFKEQ_clean_linker_1, # of connection points: 2
#     Edge 108, Type (0, 1), BuildingBlock: KIFKEQ_clean_linker_1, # of connection points: 2
#     Edge 109, Type (0, 1), BuildingBlock: KIFKEQ_clean_linker_1, # of connection points: 2
#     Edge 110, Type (0, 1), BuildingBlock: KIFKEQ_clean_linker_1, # of connection points: 2
#     Edge 111, Type (0, 1), BuildingBlock: KIFKEQ_clean_linker_1, # of connection points: 2
#     Edge 112, Type (0, 1), BuildingBlock: KIFKEQ_clean_linker_1, # of connection points: 2
#     Edge 113, Type (0, 1), BuildingBlock: KIFKEQ_clean_linker_1, # of connection points: 2
#     Edge 114, Type (0, 1), BuildingBlock: KIFKEQ_clean_linker_1, # of connection points: 2
#     Edge 115, Type (0, 1), BuildingBlock: KIFKEQ_clean_linker_1, # of connection points: 2
#     Edge 116, Type (0, 1), BuildingBlock: KIFKEQ_clean_linker_1, # of connection points: 2
#     Edge 117, Type (0, 1), BuildingBlock: KIFKEQ_clean_linker_1, # of connection points: 2
#     Edge 118, Type (0, 1), BuildingBlock: KIFKEQ_clean_linker_1, # of connection points: 2
#     Edge 119, Type (0, 1), BuildingBlock: KIFKEQ_clean_linker_1, # of connection points: 2
#     Edge 120, Type (0, 1), BuildingBlock: KIFKEQ_clean_linker_1, # of connection points: 2
#     Edge 121, Type (0, 1), BuildingBlock: KIFKEQ_clean_linker_1, # of connection points: 2
#     Edge 122, Type (0, 1), BuildingBlock: KIFKEQ_clean_linker_1, # of connection points: 2
#     Edge 123, Type (0, 1), BuildingBlock: KIFKEQ_clean_linker_1, # of connection points: 2
#     Edge 124, Type (0, 1), BuildingBlock: KIFKEQ_clean_linker_1, # of connection points: 2
#     Edge 125, Type (0, 1), BuildingBlock: KIFKEQ_clean_linker_1, # of connection points: 2
#     Edge 126, Type (0, 1), BuildingBlock: KIFKEQ_clean_linker_1, # of connection points: 2
#     Edge 127, Type (0, 1), BuildingBlock: KIFKEQ_clean_linker_1, # of connection points: 2
#     Edge 128, Type (0, 1), BuildingBlock: KIFKEQ_clean_linker_1, # of connection points: 2
#     Edge 129, Type (0, 1), BuildingBlock: KIFKEQ_clean_linker_1, # of connection points: 2
#     Edge 130, Type (0, 1), BuildingBlock: KIFKEQ_clean_linker_1, # of connection points: 2
#     Edge 131, Type (0, 1), BuildingBlock: KIFKEQ_clean_linker_1, # of connection points: 2
#     Edge 132, Type (0, 1), BuildingBlock: KIFKEQ_clean_linker_1, # of connection points: 2
#     Edge 133, Type (0, 1), BuildingBlock: KIFKEQ_clean_linker_1, # of connection points: 2
#     Edge 134, Type (0, 1), BuildingBlock: KIFKEQ_clean_linker_1, # of connection points: 2
#     Edge 135, Type (0, 1), BuildingBlock: KIFKEQ_clean_linker_1, # of connection points: 2
# Relax obj value: 0.197
# Max RMSD: 0.290
# Mean RMSD: 0.142
data_MOF--net-gar--node1-QUQFOY_clean_sbu_3--node2-CUWYAW_clean_sbu_0--edge1-KIFKEQ_clean_linker_1
_symmetry_space_group_name_H-M    P1
_symmetry_Int_Tables_number       1
_symmetry_cell_setting            triclinic
loop_
_symmetry_equiv_pos_as_xyz
'x, y, z'
_cell_length_a     66.549189
_cell_length_b     56.989579
_cell_length_c     56.493363
_cell_angle_alpha  97.997541
_cell_angle_beta   95.926535
_cell_angle_gamma 98.740194
loop_
_atom_site_label
_atom_site_type_symbol
_atom_site_fract_x
_atom_site_fract_y
_atom_site_fract_z
_atom_type_partial_charge
C0 C 0.03944 0.36268 0.44287 0.0
O1 O 0.04943 0.37964 0.43419 0.0
Cd2 Cd 0.08636 0.38646 0.43568 0.0
O3 O 0.04846 0.34975 0.45563 0.0
Cd4 Cd 0.08135 0.34235 0.47473 0.0
C5 C 0.09857 0.38931 0.49224 0.0
O6 O 0.08509 0.34432 0.43322 0.0
O7 O 0.10889 0.33136 0.45457 0.0
O8 O 0.08084 0.30098 0.47755 0.0
C9 C 0.1018 0.33633 0.43446 0.0
O10 O 0.10802 0.39221 0.47422 0.0
C11 C 0.06532 0.29921 0.48881 0.0
O12 O 0.10327 0.37347 0.50436 0.0
O13 O 0.05834 0.31825 0.49534 0.0
C14 C 0.98342 0.70944 0.67289 0.0
O15 O 0.99454 0.696 0.68222 0.0
Cd16 Cd 0.02707 0.6943 0.66918 0.0
O17 O 0.98866 0.72039 0.65577 0.0
Cd18 Cd 1.01087 0.7299 0.62638 0.0
C19 C 0.99902 0.68282 0.61787 0.0
O20 O 0.03465 0.7352 0.66312 0.0
O21 O 0.04845 0.73497 0.63011 0.0
O22 O 1.00053 0.76799 0.63096 0.0
C23 C 0.05058 0.73915 0.65303 0.0
O24 O 0.01724 0.69026 0.62786 0.0
C25 C 1.00613 0.77244 0.611 0.0
O26 O 0.99289 0.69303 0.60067 0.0
O27 O 1.01067 0.7553 0.59677 0.0
C28 C 0.53971 0.84843 0.93289 0.0
O29 O 0.54806 0.86237 0.9196 0.0
Cd30 Cd 0.58482 0.87298 0.92041 0.0
O31 O 0.55013 0.84059 0.94924 0.0
Cd32 Cd 0.58375 0.83962 0.97052 0.0
C33 C 0.59972 0.89574 0.97848 0.0
O34 O 0.58953 0.83559 0.93094 0.0
O35 O 0.61228 0.82351 0.95452 0.0
O36 O 0.55551 0.81127 0.97368 0.0
C37 C 0.60625 0.82794 0.93379 0.0
O38 O 0.60583 0.88904 0.95853 0.0
C39 C 0.56497 0.80043 0.98814 0.0
O40 O 0.5958 0.87999 0.99204 0.0
O41 O 0.58355 0.80931 0.99635 0.0
C42 C 0.48498 0.21331 0.18384 0.0
O43 O 0.49649 0.19868 0.18946 0.0
Cd44 Cd 0.52154 0.19081 0.1652 0.0
O45 O 0.48714 0.22432 0.16595 0.0
Cd46 Cd 0.50864 0.22805 0.13482 0.0
C47 C 0.4918 0.17664 0.10847 0.0
O48 O 0.5377 0.23037 0.16324 0.0
O49 O 0.54335 0.22141 0.1264 0.0
O50 O 0.50637 0.26964 0.13804 0.0
C51 C 0.55039 0.22946 0.14821 0.0
O52 O 0.50443 0.17268 0.12545 0.0
C53 C 0.51057 0.27045 0.11671 0.0
O54 O 0.48642 0.19695 0.10914 0.0
O55 O 0.51086 0.25083 0.10321 0.0
C56 C 0.03942 0.79134 0.20363 0.0
O57 O 0.05181 0.78478 0.21902 0.0
Cd58 Cd 0.08512 0.77737 0.21191 0.0
O59 O 0.04555 0.79851 0.18478 0.0
Cd60 Cd 0.07906 0.80732 0.16797 0.0
C61 C 0.07154 0.74814 0.15285 0.0
O62 O 0.1049 0.81261 0.20348 0.0
O63 O 0.11648 0.80629 0.16939 0.0
O64 O 0.07545 0.84862 0.16532 0.0
C65 C 0.12014 0.80985 0.19223 0.0
O66 O 0.07648 0.74824 0.17526 0.0
C67 C 0.07285 0.84571 0.14243 0.0
O68 O 0.0711 0.7676 0.14436 0.0
O69 O 0.07375 0.825 0.1313 0.0
C70 C 0.46639 0.76682 0.39336 0.0
O71 O 0.47904 0.77833 0.38202 0.0
Cd72 Cd 0.51547 0.78821 0.39077 0.0
O73 O 0.47288 0.75701 0.4111 0.0
Cd74 Cd 0.50915 0.75642 0.43199 0.0
C75 C 0.51505 0.81562 0.44889 0.0
O76 O 0.53221 0.75641 0.40049 0.0
O77 O 0.54593 0.7713 0.43676 0.0
O78 O 0.50782 0.71394 0.43554 0.0
C79 C 0.5484 0.76493 0.41502 0.0
O80 O 0.51849 0.8167 0.42728 0.0
C81 C 0.51098 0.71733 0.45843 0.0
O82 O 0.50999 0.79555 0.456 0.0
O83 O 0.51171 0.73866 0.46905 0.0
C84 C 0.53811 0.28593 0.69912 0.0
O85 O 0.54928 0.27473 0.71152 0.0
Cd86 Cd 0.58442 0.2718 0.70802 0.0
O87 O 0.54553 0.29821 0.68387 0.0
Cd88 Cd 0.57914 0.30749 0.66772 0.0
C89 C 0.57461 0.24858 0.6475 0.0
O90 O 0.60326 0.30969 0.7041 0.0
O91 O 0.61691 0.3098 0.6712 0.0
O92 O 0.5744 0.34874 0.66607 0.0
C93 C 0.61935 0.3099 0.69379 0.0
O94 O 0.57896 0.24627 0.66943 0.0
C95 C 0.5725 0.34644 0.6432 0.0
O96 O 0.57317 0.26891 0.64129 0.0
O97 O 0.57456 0.32629 0.63181 0.0
C98 C 0.96513 0.26828 0.89507 0.0
O99 O 0.97753 0.28203 0.88541 0.0
Cd100 Cd 0.01415 0.29045 0.89353 0.0
O101 O 0.97188 0.25656 0.91106 0.0
Cd102 Cd 1.00827 0.25717 0.9316 0.0
C103 C 0.01512 0.31524 0.95222 0.0
O104 O 0.03079 0.25729 0.89904 0.0
O105 O 0.04522 0.2712 0.93526 0.0
O106 O 1.00434 0.21449 0.93572 0.0
C107 C 0.04722 0.26439 0.91348 0.0
O108 O 0.02022 0.31708 0.93138 0.0
C109 C 1.0108 0.21835 0.95812 0.0
O110 O 1.00721 0.29508 0.95731 0.0
O111 O 0.0146 0.2401 0.96834 0.0
C112 C 0.45138 0.04255 0.34232 0.0
O113 O 0.45869 0.02819 0.32766 0.0
Cd114 Cd 0.44856 0.01906 0.28503 0.0
O115 O 0.43736 0.05395 0.33414 0.0
Cd116 Cd 0.41651 0.05399 0.28948 0.0
C117 C 0.39892 0.99123 0.28474 0.0
O118 O 0.44774 0.05464 0.26626 0.0
O119 O 0.41918 0.04351 0.24376 0.0
O120 O 0.41149 0.09888 0.29377 0.0
C121 C 0.4385 0.04932 0.24494 0.0
O122 O 0.41722 0.98954 0.28101 0.0
C123 C 0.39199 0.09571 0.28995 0.0
O124 O 0.39392 1.01217 0.28921 0.0
O125 O 0.38359 0.07369 0.2864 0.0
C126 C 0.30018 0.13324 0.54094 0.0
O127 O 0.28775 0.11803 0.54896 0.0
Cd128 Cd 0.25504 0.1255 0.55829 0.0
O129 O 0.29422 0.15132 0.53307 0.0
Cd130 Cd 0.26012 0.16549 0.52386 0.0
C131 C 0.26862 0.18616 0.58244 0.0
O132 O 0.23471 0.12813 0.52189 0.0
O133 O 0.2226 0.16115 0.52541 0.0
O134 O 0.27008 0.16781 0.48345 0.0
C135 C 0.21916 0.13844 0.52358 0.0
O136 O 0.26436 0.16413 0.58477 0.0
C137 C 0.26559 0.18857 0.48247 0.0
O138 O 0.26818 0.1927 0.56182 0.0
O139 O 0.25821 0.19838 0.50044 0.0
C140 C 0.13254 0.0253 0.85968 0.0
O141 O 0.1262 0.04109 0.84842 0.0
Cd142 Cd 0.13356 0.04754 0.80847 0.0
O143 O 0.14528 1.0127 0.85031 0.0
Cd144 Cd 0.16562 1.01196 0.81 0.0
C145 C 0.18309 0.07634 0.81184 0.0
O146 O 0.13288 1.01051 0.78138 0.0
O147 O 0.16063 0.015 0.7653 0.0
O148 O 0.17002 0.96683 0.80042 0.0
C149 C 0.1412 1.01249 0.76232 0.0
O150 O 0.16407 0.07757 0.8093 0.0
C151 C 0.18903 0.96894 0.8078 0.0
O152 O 0.1886 0.05582 0.81386 0.0
O153 O 0.19743 0.99045 0.81643 0.0
C154 C 0.29121 0.88309 1.00457 0.0
O155 O 0.28413 0.88874 0.9848 0.0
Cd156 Cd 0.24763 0.88546 0.97368 0.0
O157 O 0.27941 0.8731 0.01779 0.0
Cd158 Cd 0.24316 0.85623 0.01289 0.0
C159 C 0.23528 0.82661 0.95777 0.0
O160 O 0.23336 0.89415 0.01032 0.0
O161 O 0.20899 0.86345 1.00841 0.0
O162 O 0.24466 0.85682 0.05502 0.0
C163 C 0.21481 0.88609 0.01192 0.0
O164 O 0.23402 0.8465 0.95044 0.0
C165 C 0.24598 0.83474 0.05371 0.0
O166 O 0.23905 0.82609 0.97999 0.0
O167 O 0.24307 0.82207 0.033 0.0
C168 C 0.36119 0.43708 0.067 0.0
O169 O 0.35029 0.44932 0.05559 0.0
Cd170 Cd 0.3136 0.44077 0.04487 0.0
O171 O 0.35279 0.41909 0.07586 0.0
Cd172 Cd 0.31577 0.39852 0.07691 0.0
C173 C 0.31118 0.3826 0.0169 0.0
O174 O 0.29482 0.43081 0.07669 0.0
O175 O 0.27896 0.39424 0.06622 0.0
O176 O 0.31895 0.39508 0.12003 0.0
C177 C 0.27793 0.41639 0.07031 0.0
O178 O 0.30956 0.40445 0.01607 0.0
C179 C 0.31355 0.37236 0.11667 0.0
O180 O 0.31464 0.37511 0.03692 0.0
O181 O 0.31041 0.36183 0.09494 0.0
C182 C 0.85717 0.15411 0.08943 0.0
O183 O 0.84538 0.13906 0.09841 0.0
Cd184 Cd 0.81633 0.15008 0.11315 0.0
O185 O 0.85318 0.17465 0.08673 0.0
Cd186 Cd 0.83228 0.20437 0.09115 0.0
C187 C 0.84044 0.20835 0.14449 0.0
O188 O 0.80487 0.17113 0.08258 0.0
O189 O 0.79544 0.20493 0.09459 0.0
O190 O 0.83899 0.20809 0.05098 0.0
C191 C 0.79048 0.18264 0.08656 0.0
O192 O 0.83068 0.18758 0.13603 0.0
C193 C 0.83395 0.22876 0.05228 0.0
O194 O 0.84986 0.22041 0.13057 0.0
O195 O 0.83235 0.23961 0.07305 0.0
C196 C 0.13189 0.5256 0.35203 0.0
O197 O 0.12448 0.53979 0.33942 0.0
Cd198 Cd 0.13047 0.5465 0.29947 0.0
O199 O 0.14488 0.51294 0.34354 0.0
Cd200 Cd 0.16355 0.50901 0.30279 0.0
C201 C 0.1815 0.57242 0.30816 0.0
O202 O 0.13089 0.50905 0.27447 0.0
O203 O 0.15757 0.50893 0.25666 0.0
O204 O 0.16778 0.46432 0.30242 0.0
C205 C 0.13843 0.50918 0.25475 0.0
O206 O 0.16265 0.57407 0.30413 0.0
C207 C 0.18728 0.46696 0.30439 0.0
O208 O 0.18671 0.55173 0.30947 0.0
O209 O 0.19602 0.48865 0.30561 0.0
C210 C 0.86109 0.93783 0.56851 0.0
O211 O 0.84947 0.94928 0.55707 0.0
Cd212 Cd 0.81317 0.93731 0.5456 0.0
O213 O 0.85346 0.91938 0.57719 0.0
Cd214 Cd 0.81648 0.89852 0.57776 0.0
C215 C 0.81106 0.87861 0.51973 0.0
O216 O 0.7943 0.92975 0.5778 0.0
O217 O 0.77999 0.89379 0.56177 0.0
O218 O 0.8151 0.89535 0.6205 0.0
C219 C 0.77793 0.91528 0.56894 0.0
O220 O 0.80753 0.89967 0.51792 0.0
C221 C 0.8127 0.87254 0.61746 0.0
O222 O 0.8172 0.873 0.53991 0.0
O223 O 0.8132 0.86195 0.59627 0.0
C224 C 0.9504 0.03972 0.336 0.0
O225 O 0.95523 0.02273 0.32186 0.0
Cd226 Cd 0.94497 1.01255 0.27925 0.0
O227 O 0.93808 0.05296 0.32768 0.0
Cd228 Cd 0.91665 0.05148 0.28412 0.0
C229 C 0.89583 0.9874 0.28144 0.0
O230 O 0.94889 0.04953 0.26217 0.0
O231 O 0.92162 0.04656 0.23816 0.0
O232 O 0.9127 0.0966 0.2965 0.0
C233 C 0.941 0.04814 0.24048 0.0
O234 O 0.91287 0.98367 0.27466 0.0
C235 C 0.89408 0.0952 0.28758 0.0
O236 O 0.89307 1.00932 0.28731 0.0
O237 O 0.88576 0.07411 0.27735 0.0
C238 C 0.3602 0.66406 0.59437 0.0
O239 O 0.35179 0.65543 0.61111 0.0
Cd240 Cd 0.32318 0.67153 0.62326 0.0
O241 O 0.35421 0.68108 0.58504 0.0
Cd242 Cd 0.33144 0.70825 0.58583 0.0
C243 C 0.34497 0.73172 0.64009 0.0
O244 O 0.30495 0.6752 0.58569 0.0
O245 O 0.29448 0.70938 0.5887 0.0
O246 O 0.33417 0.70717 0.54395 0.0
C247 C 0.29014 0.68663 0.58599 0.0
O248 O 0.33505 0.71189 0.64374 0.0
C249 C 0.33261 0.72919 0.54479 0.0
O250 O 0.3496 0.73436 0.61945 0.0
O251 O 0.33388 0.74176 0.56543 0.0
C252 C 0.45236 0.54184 0.8362 0.0
O253 O 0.45953 0.52653 0.82238 0.0
Cd254 Cd 0.44701 0.51196 0.78082 0.0
O255 O 0.43777 0.55214 0.82769 0.0
Cd256 Cd 0.41666 0.55126 0.78416 0.0
C257 C 0.3969 0.48761 0.78422 0.0
O258 O 0.44873 0.54812 0.7623 0.0
O259 O 0.42186 0.54829 0.73859 0.0
O260 O 0.41322 0.59643 0.79633 0.0
C261 C 0.44099 0.54779 0.74074 0.0
O262 O 0.41492 0.48384 0.7814 0.0
C263 C 0.39434 0.59499 0.78847 0.0
O264 O 0.39305 0.50927 0.78581 0.0
O265 O 0.38566 0.57383 0.77889 0.0
C266 C 0.63076 0.02245 0.85344 0.0
O267 O 0.62135 0.03436 0.83995 0.0
Cd268 Cd 0.63167 0.04228 0.80189 0.0
O269 O 0.64585 1.01288 0.84582 0.0
Cd270 Cd 0.66399 1.00906 0.80401 0.0
C271 C 0.68187 0.07156 0.81044 0.0
O272 O 0.63098 1.00559 0.77407 0.0
O273 O 0.65854 0.01524 0.75917 0.0
O274 O 0.66908 0.9649 0.80683 0.0
C275 C 0.63913 1.00997 0.75545 0.0
O276 O 0.66287 0.07283 0.80705 0.0
C277 C 0.68809 0.96686 0.8046 0.0
O278 O 0.68738 0.05101 0.81128 0.0
O279 O 0.69616 0.98783 0.80173 0.0
C280 C 0.79995 0.63162 0.03738 0.0
O281 O 0.7864 0.61467 0.04076 0.0
Cd282 Cd 0.75429 0.62366 0.05017 0.0
O283 O 0.79488 0.65153 0.03331 0.0
Cd284 Cd 0.76083 0.66562 0.02398 0.0
C285 C 0.76916 0.68169 0.08213 0.0
O286 O 0.73285 0.6298 0.01598 0.0
O287 O 0.72486 0.66247 0.03343 0.0
O288 O 0.76984 0.66868 0.98353 0.0
C289 C 0.71897 0.64075 0.02363 0.0
O290 O 0.76338 0.6592 0.08134 0.0
C291 C 0.76657 0.69005 0.98343 0.0
O292 O 0.77034 0.69067 0.06285 0.0
O293 O 0.76001 0.70003 1.00198 0.0
C294 C 0.95149 0.54298 0.83965 0.0
O295 O 0.95905 0.52912 0.82473 0.0
Cd296 Cd 0.94788 0.51776 0.78252 0.0
O297 O 0.93677 0.55354 0.83185 0.0
Cd298 Cd 0.91633 0.55347 0.78712 0.0
C299 C 0.89813 0.49083 0.78295 0.0
O300 O 0.94798 0.5534 0.76407 0.0
O301 O 0.91966 0.54546 0.74113 0.0
O302 O 0.91124 0.59821 0.79508 0.0
C303 C 0.93909 0.54938 0.74257 0.0
O304 O 0.91623 0.48863 0.77874 0.0
C305 C 0.892 0.59519 0.78848 0.0
O306 O 0.89362 0.51197 0.78777 0.0
O307 O 0.88379 0.57329 0.78166 0.0
C308 C 0.79136 0.38794 0.50788 0.0
O309 O 0.78229 0.40074 0.4951 0.0
Cd310 Cd 0.74689 0.39112 0.48128 0.0
O311 O 0.78125 0.37145 0.51702 0.0
Cd312 Cd 0.74414 0.35758 0.51842 0.0
C313 C 0.74519 0.3291 0.46808 0.0
O314 O 0.72993 0.39267 0.51546 0.0
O315 O 0.70864 0.35879 0.507 0.0
O316 O 0.7503 0.36359 0.56065 0.0
C317 C 0.71168 0.38153 0.51179 0.0
O318 O 0.746 0.35023 0.46293 0.0
C319 C 0.74558 0.34141 0.56186 0.0
O320 O 0.74385 0.32504 0.48921 0.0
O321 O 0.73776 0.32726 0.54269 0.0
C322 C 0.63303 0.52523 0.35958 0.0
O323 O 0.62526 0.53982 0.34786 0.0
Cd324 Cd 0.63427 0.54773 0.30875 0.0
O325 O 0.64686 0.51416 0.35063 0.0
Cd326 Cd 0.66632 0.51287 0.30976 0.0
C327 C 0.68381 0.57719 0.31196 0.0
O328 O 0.6333 0.51099 0.28102 0.0
O329 O 0.66098 0.51509 0.26483 0.0
O330 O 0.66977 0.46737 0.30463 0.0
C331 C 0.64157 0.51269 0.26188 0.0
O332 O 0.66477 0.57836 0.30982 0.0
C333 C 0.68921 0.46954 0.30808 0.0
O334 O 0.68937 0.55664 0.31368 0.0
O335 O 0.69831 0.49131 0.31251 0.0
C336 C 0.09991 0.05738 0.08423 0.0
Eu337 Eu 0.06139 0.0457 0.06847 0.0
C338 C 0.11493 0.04134 0.08216 0.0
C339 C 0.12944 0.04121 0.10194 0.0
C340 C 0.14056 0.02235 0.10217 0.0
C341 C 0.13701 1.00342 0.08271 0.0
C342 C 0.12276 1.00389 0.06274 0.0
C343 C 0.11177 0.02266 0.06249 0.0
C344 C 0.03121 0.04686 0.09888 0.0
C345 C 0.04777 0.98746 0.06348 0.0
C346 C 0.98347 1.00992 0.02266 0.0
Eu347 Eu 0.02196 0.02051 0.03784 0.0
C348 C 0.96999 0.02777 0.02244 0.0
C349 C 0.95749 0.02844 1.00114 0.0
C350 C 0.94802 0.04829 0.99884 0.0
C351 C 0.95098 0.06761 0.01785 0.0
C352 C 0.96362 0.06704 0.03911 0.0
C353 C 0.97314 0.04729 0.04136 0.0
C354 C 0.05201 0.01863 1.0075 0.0
C355 C 0.03594 0.07858 0.04135 0.0
O356 O 0.092 0.0632 0.06407 0.0
O357 O 0.0861 0.05068 0.09781 0.0
O358 O 0.05009 0.05728 0.10417 0.0
O359 O 0.02866 0.03762 0.07655 0.0
O360 O 0.06268 1.00624 0.06804 0.0
O361 O 0.02944 0.98864 0.05319 0.0
O362 O 0.99096 1.00608 0.0439 0.0
O363 O 0.99734 1.0128 1.00815 0.0
O364 O 0.03311 1.00818 1.00234 0.0
O365 O 0.05465 0.02856 0.02968 0.0
O366 O 0.02115 0.05973 0.03631 0.0
O367 O 0.05393 0.07766 0.05282 0.0
H368 H 0.13153 0.05514 0.11756 0.0
H369 H 0.15156 0.02228 0.11768 0.0
H370 H 0.12009 0.98974 0.04727 0.0
H371 H 0.10021 0.02204 0.04731 0.0
H372 H 0.95557 1.01394 0.98606 0.0
H373 H 0.93815 0.04843 0.98238 0.0
H374 H 0.96575 0.08157 0.05419 0.0
H375 H 0.98341 0.04764 0.05762 0.0
C376 C 0.28148 0.80629 0.36963 0.0
Eu377 Eu 0.2833 0.79487 0.32467 0.0
C378 C 0.27279 0.78924 0.38448 0.0
C379 C 0.25276 0.78929 0.39027 0.0
C380 C 0.24351 0.77136 0.40193 0.0
C381 C 0.2543 0.75339 0.40832 0.0
C382 C 0.27382 0.75258 0.40115 0.0
C383 C 0.28302 0.77038 0.38952 0.0
C384 C 0.25311 0.79371 0.28772 0.0
C385 C 0.26957 0.7359 0.30635 0.0
C386 C 0.29722 0.75928 0.23013 0.0
Eu387 Eu 0.29596 0.77039 0.27528 0.0
C388 C 0.30498 0.77649 0.21489 0.0
C389 C 0.32568 0.7794 0.211 0.0
C390 C 0.33387 0.79798 0.19943 0.0
C391 C 0.32142 0.81373 0.19139 0.0
C392 C 0.30091 0.8113 0.19608 0.0
C393 C 0.29275 0.79279 0.20754 0.0
C394 C 0.32569 0.76986 0.31214 0.0
C395 C 0.31001 0.82927 0.29366 0.0
O396 O 0.29859 0.80229 0.36142 0.0
O397 O 0.26817 0.81139 0.35325 0.0
O398 O 0.25205 0.80233 0.30989 0.0
O399 O 0.27008 0.78647 0.28683 0.0
O400 O 0.27109 0.75459 0.32397 0.0
O401 O 0.27708 0.73796 0.28576 0.0
O402 O 0.28014 0.76264 0.23879 0.0
O403 O 0.31109 0.7548 0.24626 0.0
O404 O 0.32591 0.76013 0.29007 0.0
O405 O 0.30926 0.77841 0.31332 0.0
O406 O 0.309 0.8104 0.27642 0.0
O407 O 0.30177 0.82756 0.31387 0.0
H408 H 0.24433 0.80329 0.38592 0.0
H409 H 0.22855 0.77249 0.40754 0.0
H410 H 0.28281 0.73932 0.40625 0.0
H411 H 0.29825 0.76938 0.38472 0.0
H412 H 0.33556 0.76732 0.21691 0.0
H413 H 0.34957 0.79926 0.19554 0.0
H414 H 0.29069 0.82267 0.18941 0.0
H415 H 0.27682 0.79132 0.21058 0.0
C416 C 0.48165 0.03573 0.56619 0.0
Eu417 Eu 0.51931 0.03022 0.56182 0.0
C418 C 0.46858 0.05455 0.56812 0.0
C419 C 0.45694 0.05634 0.5874 0.0
C420 C 0.44221 0.07134 0.58821 0.0
C421 C 0.43856 0.08472 0.56955 0.0
C422 C 0.45138 0.08444 0.55121 0.0
C423 C 0.46628 0.06944 0.55047 0.0
C424 C 0.54974 0.02483 0.59767 0.0
C425 C 0.55017 0.08096 0.56263 0.0
C426 C 0.60075 0.02601 0.53479 0.0
Eu427 Eu 0.5634 0.03107 0.54138 0.0
C428 C 0.61535 1.00897 0.53508 0.0
C429 C 0.62754 1.00714 0.51632 0.0
C430 C 0.64291 0.99301 0.51675 0.0
C431 C 0.64637 0.98031 0.53594 0.0
C432 C 0.63333 0.9809 0.55403 0.0
C433 C 0.61792 0.99523 0.55366 0.0
C434 C 0.53314 0.03691 0.5057 0.0
C435 C 0.53201 0.98067 0.54042 0.0
O436 O 0.48802 0.02948 0.54539 0.0
O437 O 0.4955 0.03636 0.58455 0.0
O438 O 0.53045 0.02368 0.60011 0.0
O439 O 0.55127 0.02772 0.57597 0.0
O440 O 0.53156 0.06928 0.56345 0.0
O441 O 0.5657 0.07023 0.55673 0.0
O442 O 0.5959 0.036 0.55535 0.0
O443 O 0.58523 0.02041 0.51769 0.0
O444 O 0.55243 0.03825 0.50339 0.0
O445 O 0.53156 0.03366 0.52728 0.0
O446 O 0.55116 0.99173 0.54123 0.0
O447 O 0.51657 0.99187 0.54515 0.0
H448 H 0.45862 0.04529 0.60139 0.0
H449 H 0.43296 0.07156 0.60291 0.0
H450 H 0.449 0.09452 0.53656 0.0
H451 H 0.47527 0.06867 0.53554 0.0
H452 H 0.62563 0.01733 0.50165 0.0
H453 H 0.65259 0.99266 0.50245 0.0
H454 H 0.63572 0.97131 0.56906 0.0
H455 H 0.60849 0.99612 0.56818 0.0
C456 C 0.3508 0.26855 0.79656 0.0
Eu457 Eu 0.31288 0.27286 0.80096 0.0
C458 C 0.36538 0.26852 0.77857 0.0
C459 C 0.37623 0.24928 0.7752 0.0
C460 C 0.39173 0.24979 0.76028 0.0
C461 C 0.39677 0.26967 0.74855 0.0
C462 C 0.38505 0.28827 0.75082 0.0
C463 C 0.36945 0.28769 0.76566 0.0
C464 C 0.28228 0.23566 0.8063 0.0
C465 C 0.28341 0.2705 0.75062 0.0
C466 C 0.23266 0.29927 0.80618 0.0
Eu467 Eu 0.26983 0.2922 0.80081 0.0
C468 C 0.21678 0.29784 0.82265 0.0
C469 C 0.20751 0.31809 0.82829 0.0
C470 C 0.19133 0.31718 0.84219 0.0
C471 C 0.18398 0.29594 0.8508 0.0
C472 C 0.19393 0.27596 0.84614 0.0
C473 C 0.21019 0.27686 0.83212 0.0
C474 C 0.3012 0.32878 0.79509 0.0
C475 C 0.29844 0.29201 0.85112 0.0
O476 O 0.34521 0.28895 0.80472 0.0
O477 O 0.33574 0.25036 0.79305 0.0
O478 O 0.30161 0.23461 0.80671 0.0
O479 O 0.28029 0.25726 0.80425 0.0
O480 O 0.30191 0.27041 0.76164 0.0
O481 O 0.26795 0.27657 0.76168 0.0
O482 O 0.23671 0.27938 0.79432 0.0
O483 O 0.24899 0.31553 0.81362 0.0
O484 O 0.28199 0.33051 0.79407 0.0
O485 O 0.3022 0.30722 0.79778 0.0
O486 O 0.27976 0.29086 0.83995 0.0
O487 O 0.31434 0.28831 0.8398 0.0
H488 H 0.37324 0.23423 0.78486 0.0
H489 H 0.40053 0.23525 0.75902 0.0
H490 H 0.38839 0.30364 0.74168 0.0
H491 H 0.36108 0.30258 0.76762 0.0
H492 H 0.21247 0.33454 0.82138 0.0
H493 H 0.18424 0.333 0.84577 0.0
H494 H 0.18858 0.25929 0.85244 0.0
H495 H 0.21721 0.26105 0.82822 0.0
C496 C 0.04576 0.96167 0.528 0.0
Eu497 Eu 0.048 1.00705 0.54015 0.0
C498 C 0.05375 0.94573 0.54341 0.0
C499 C 0.07287 0.93879 0.5408 0.0
C500 C 0.08143 0.92574 0.55714 0.0
C501 C 0.07087 0.91936 0.57616 0.0
C502 C 0.05213 0.9272 0.57921 0.0
C503 C 0.04364 0.94011 0.56299 0.0
C504 C 0.08111 0.04196 0.53977 0.0
C505 C 0.06226 0.02565 0.59866 0.0
C506 C 0.04305 0.10323 0.57414 0.0
Eu507 Eu 0.03932 0.05757 0.56381 0.0
C508 C 0.0354 0.11854 0.55774 0.0
C509 C 0.01466 0.12122 0.55555 0.0
C510 C 1.00688 0.13329 0.53786 0.0
C511 C 0.01975 0.14293 0.52224 0.0
C512 C 0.04024 0.13943 0.52381 0.0
C513 C 0.04804 0.12753 0.54152 0.0
C514 C 1.00524 0.02416 0.56362 0.0
C515 C 0.02463 0.03855 0.50532 0.0
O516 O 0.03023 0.97121 0.53506 0.0
O517 O 0.0597 0.97719 0.52115 0.0
O518 O 0.0805 0.01949 0.53147 0.0
O519 O 0.06421 0.04395 0.54741 0.0
O520 O 0.06031 1.00799 0.57998 0.0
O521 O 0.05554 0.04617 0.59677 0.0
O522 O 0.05811 0.09268 0.56723 0.0
O523 O 0.02902 0.08878 0.58219 0.0
O524 O 1.00718 0.04678 0.5723 0.0
O525 O 0.02195 0.02036 0.55589 0.0
O526 O 0.02719 0.05664 0.52373 0.0
O527 O 0.03091 0.01791 0.50771 0.0
H528 H 0.08117 0.9434 0.52611 0.0
H529 H 0.0958 0.91973 0.55434 0.0
H530 H 0.04324 0.92206 0.59324 0.0
H531 H 0.02903 0.94549 0.56582 0.0
H532 H 1.00442 0.11406 0.56749 0.0
H533 H 0.9911 0.13612 0.53707 0.0
H534 H 0.05064 0.14726 0.51237 0.0
H535 H 0.064 0.12542 0.54251 0.0
C536 C 0.24036 0.73568 0.77905 0.0
Eu537 Eu 0.27291 0.76576 0.79576 0.0
C538 C 0.22129 0.74179 0.76844 0.0
C539 C 0.20407 0.73929 0.7808 0.0
C540 C 0.18636 0.74715 0.77219 0.0
C541 C 0.18573 0.7573 0.75105 0.0
C542 C 0.20312 0.76082 0.73919 0.0
C543 C 0.22089 0.75321 0.74789 0.0
C544 C 0.2898 0.78095 0.8411 0.0
C545 C 0.26918 0.82289 0.80102 0.0
C546 C 0.34544 0.82942 0.8198 0.0
Eu547 Eu 0.31267 0.79995 0.80247 0.0
C548 C 0.36461 0.82298 0.82991 0.0
C549 C 0.38168 0.82586 0.81738 0.0
C550 C 0.39973 0.81878 0.82601 0.0
C551 C 0.40108 0.80924 0.8476 0.0
C552 C 0.38364 0.80467 0.85923 0.0
C553 C 0.36545 0.81148 0.85042 0.0
C554 C 0.29557 0.78516 0.75708 0.0
C555 C 0.31624 0.74273 0.79663 0.0
O556 O 0.25596 0.73889 0.76673 0.0
O557 O 0.24509 0.74372 0.80215 0.0
O558 O 0.27021 0.77843 0.83458 0.0
O559 O 0.29908 0.77467 0.82393 0.0
O560 O 0.25935 0.80052 0.79323 0.0
O561 O 0.28948 0.82668 0.80721 0.0
O562 O 0.32992 0.82583 0.83217 0.0
O563 O 0.34054 0.82226 0.79657 0.0
O564 O 0.31519 0.78758 0.76342 0.0
O565 O 0.28643 0.79123 0.77442 0.0
O566 O 0.32622 0.76507 0.80408 0.0
O567 O 0.29593 0.73902 0.7909 0.0
H568 H 0.20429 0.73109 0.797 0.0
H569 H 0.17277 0.74387 0.78109 0.0
H570 H 0.20254 0.76821 0.7225 0.0
H571 H 0.23414 0.75605 0.73834 0.0
H572 H 0.38115 0.83397 0.80113 0.0
H573 H 0.41313 0.82241 0.81685 0.0
H574 H 0.38448 0.79755 0.87606 0.0
H575 H 0.35228 0.80824 0.86002 0.0
C576 C 0.59481 0.0564 0.09464 0.0
Eu577 Eu 0.56028 0.03655 0.07002 0.0
C578 C 0.61313 0.06827 0.08571 0.0
C579 C 0.62777 0.05468 0.07781 0.0
C580 C 0.64515 0.06568 0.06943 0.0
C581 C 0.64837 0.09052 0.06916 0.0
C582 C 0.63315 0.1039 0.07537 0.0
C583 C 0.61563 0.09286 0.08366 0.0
C584 C 0.54113 0.99092 0.06324 0.0
C585 C 0.56084 0.02512 0.01086 0.0
C586 C 0.48417 0.01797 0.01186 0.0
Eu587 Eu 0.5195 0.02941 0.038 0.0
C588 C 0.46493 1.00498 0.0174 0.0
C589 C 0.44636 1.01248 0.01069 0.0
C590 C 0.42804 1.00019 0.0161 0.0
C591 C 0.42825 0.98046 0.02838 0.0
C592 C 0.44684 0.97371 0.03615 0.0
C593 C 0.4651 0.98607 0.03092 0.0
C594 C 0.54078 0.07466 0.04866 0.0
C595 C 0.51783 0.0374 0.09602 0.0
O596 O 0.57889 0.06729 0.09355 0.0
O597 O 0.58995 0.03311 0.08782 0.0
O598 O 0.56092 0.99716 0.06665 0.0
O599 O 0.53226 1.00892 0.06472 0.0
O600 O 0.57165 0.03349 0.03241 0.0
O601 O 0.54045 0.02003 1.00896 0.0
O602 O 0.49899 1.00552 1.00902 0.0
O603 O 0.49039 0.03905 0.02505 0.0
O604 O 0.52114 0.0696 0.04822 0.0
O605 O 0.5478 0.05593 0.04328 0.0
O606 O 0.50779 0.02689 0.07467 0.0
O607 O 0.53805 0.04473 0.09823 0.0
H608 H 0.6261 0.03562 0.07864 0.0
H609 H 0.65671 0.05504 0.06456 0.0
H610 H 0.63545 0.12315 0.07546 0.0
H611 H 0.60437 0.10371 0.08911 0.0
H612 H 0.44602 0.02749 1.00087 0.0
H613 H 0.41366 1.00537 1.0098 0.0
H614 H 0.44716 0.95833 0.04543 0.0
H615 H 0.47925 0.98068 0.03737 0.0
C616 C 0.34554 0.32404 0.31115 0.0
Eu617 Eu 0.30975 0.29897 0.3092 0.0
C618 C 0.36209 0.31641 0.2988 0.0
C619 C 0.38192 0.31982 0.31119 0.0
C620 C 0.39685 0.30849 0.30105 0.0
C621 C 0.39193 0.29399 0.27843 0.0
C622 C 0.37209 0.2904 0.2662 0.0
C623 C 0.3572 0.30132 0.27645 0.0
C624 C 0.29292 0.28136 0.3465 0.0
C625 C 0.3097 0.23951 0.2931 0.0
C626 C 0.23091 0.23887 0.28973 0.0
Eu627 Eu 0.26724 0.26213 0.29041 0.0
C628 C 0.21415 0.24907 0.29952 0.0
C629 C 0.19435 0.24376 0.28682 0.0
C630 C 0.1789 0.25549 0.29521 0.0
C631 C 0.18336 0.27252 0.31622 0.0
C632 C 0.2033 0.27854 0.32829 0.0
C633 C 0.21865 0.26708 0.31984 0.0
C634 C 0.28403 0.27909 0.25283 0.0
C635 C 0.2674 0.32181 0.30517 0.0
O636 O 0.32962 0.32787 0.29736 0.0
O637 O 0.34057 0.31099 0.32759 0.0
O638 O 0.3097 0.29678 0.34913 0.0
O639 O 0.28561 0.27829 0.32464 0.0
O640 O 0.32 0.26216 0.29701 0.0
O641 O 0.28929 0.23494 0.29136 0.0
O642 O 0.24624 0.23684 0.30553 0.0
O643 O 0.23685 0.24828 0.27128 0.0
O644 O 0.26766 0.26297 0.25035 0.0
O645 O 0.29117 0.28341 0.27483 0.0
O646 O 0.25698 0.29928 0.30008 0.0
O647 O 0.28781 0.32624 0.30869 0.0
H648 H 0.38563 0.33057 0.32895 0.0
H649 H 0.41216 0.31112 0.31068 0.0
H650 H 0.36803 0.27874 0.24894 0.0
H651 H 0.34171 0.29713 0.26729 0.0
H652 H 0.19089 0.23062 0.27052 0.0
H653 H 0.16344 0.25074 0.28588 0.0
H654 H 0.20687 0.29178 0.34454 0.0
H655 H 0.23406 0.27255 0.32907 0.0
C656 C 0.54735 0.46136 0.02657 0.0
Eu657 Eu 0.54849 0.50653 0.03872 0.0
C658 C 0.55379 0.44559 0.04312 0.0
C659 C 0.57397 0.44086 0.04476 0.0
C660 C 0.58116 0.42885 0.06281 0.0
C661 C 0.56818 0.42112 0.0792 0.0
C662 C 0.54826 0.42655 0.07806 0.0
C663 C 0.54108 0.43856 0.06011 0.0
C664 C 0.58133 0.54183 0.03817 0.0
C665 C 0.56334 0.52487 0.09736 0.0
C666 C 0.54135 0.60127 0.07183 0.0
Eu667 Eu 0.53962 0.556 0.06326 0.0
C668 C 0.53109 0.61455 0.05532 0.0
C669 C 0.51346 0.6236 0.06107 0.0
C670 C 0.50394 0.63661 0.04554 0.0
C671 C 0.51251 0.64136 0.02468 0.0
C672 C 0.52816 0.62933 0.01723 0.0
C673 C 0.53755 0.61615 0.03258 0.0
C674 C 0.50598 0.52248 0.06449 0.0
C675 C 0.52415 0.53737 1.00475 0.0
O676 O 0.53088 0.47043 0.03082 0.0
O677 O 0.56217 0.47729 0.02203 0.0
O678 O 0.58034 0.51971 0.02844 0.0
O679 O 0.56473 0.54345 0.04664 0.0
O680 O 0.55966 0.50664 0.079 0.0
O681 O 0.5582 0.5461 0.09522 0.0
O682 O 0.55659 0.5917 0.06397 0.0
O683 O 0.52909 0.58681 0.08217 0.0
O684 O 0.50849 0.5449 0.074 0.0
O685 O 0.52223 0.5185 0.05558 0.0
O686 O 0.52559 0.55445 0.02381 0.0
O687 O 0.53181 0.51741 1.00603 0.0
H688 H 0.58421 0.44652 0.03215 0.0
H689 H 0.59647 0.42448 0.06323 0.0
H690 H 0.53771 0.42015 0.09006 0.0
H691 H 0.52557 0.44227 0.05961 0.0
H692 H 0.50764 0.62158 0.07802 0.0
H693 H 0.49171 0.64568 0.05138 0.0
H694 H 0.53495 0.63266 1.00112 0.0
H695 H 0.55047 0.60827 0.02702 0.0
C696 C 0.73871 0.23658 0.27522 0.0
Eu697 Eu 0.77208 0.26522 0.29246 0.0
C698 C 0.71928 0.2438 0.26704 0.0
C699 C 0.70388 0.24408 0.28227 0.0
C700 C 0.6858 0.25208 0.27518 0.0
C701 C 0.68297 0.25984 0.25282 0.0
C702 C 0.69885 0.26127 0.23842 0.0
C703 C 0.71678 0.25298 0.2453 0.0
C704 C 0.78619 0.27754 0.33928 0.0
C705 C 0.7682 0.32295 0.30234 0.0
C706 C 0.8448 0.3284 0.32491 0.0
Eu707 Eu 0.81182 0.30046 0.30458 0.0
C708 C 0.86372 0.32164 0.33549 0.0
C709 C 0.88194 0.32763 0.32561 0.0
C710 C 0.90006 0.32134 0.33545 0.0
C711 C 0.9001 0.30919 0.35537 0.0
C712 C 0.88168 0.3016 0.36411 0.0
C713 C 0.86352 0.30763 0.35411 0.0
C714 C 0.79654 0.29428 0.25833 0.0
C715 C 0.81526 0.24272 0.29337 0.0
O716 O 0.75372 0.24091 0.26224 0.0
O717 O 0.74455 0.24233 0.29842 0.0
O718 O 0.76688 0.27339 0.33105 0.0
O719 O 0.79662 0.27291 0.3226 0.0
O720 O 0.75881 0.30076 0.29251 0.0
O721 O 0.78833 0.32673 0.31001 0.0
O722 O 0.82859 0.32436 0.33615 0.0
O723 O 0.84085 0.32214 0.30153 0.0
O724 O 0.81602 0.29723 0.26553 0.0
O725 O 0.78617 0.29486 0.27546 0.0
O726 O 0.82475 0.26474 0.30324 0.0
O727 O 0.79529 0.2392 0.28551 0.0
H728 H 0.70557 0.2375 0.29934 0.0
H729 H 0.67336 0.25025 0.28612 0.0
H730 H 0.69658 0.2665 0.22073 0.0
H731 H 0.72834 0.25316 0.23319 0.0
H732 H 0.88228 0.33782 0.31079 0.0
H733 H 0.91429 0.32768 0.32883 0.0
H734 H 0.8816 0.29254 0.37976 0.0
H735 H 0.84955 0.30203 0.36153 0.0
C736 C 0.09685 0.54855 0.58908 0.0
Eu737 Eu 0.06063 0.53664 0.56532 0.0
C738 C 0.11532 0.56149 0.58154 0.0
C739 C 0.13195 0.5496 0.57793 0.0
C740 C 0.14962 0.56158 0.57089 0.0
C741 C 0.15097 0.58572 0.56763 0.0
C742 C 0.13386 0.59712 0.5695 0.0
C743 C 0.1161 0.58508 0.5764 0.0
C744 C 0.03968 0.49171 0.55169 0.0
C745 C 0.06124 0.52962 0.50649 0.0
C746 C 0.98378 0.51791 0.50745 0.0
Eu747 Eu 0.01946 0.53224 0.53193 0.0
C748 C 0.96534 0.5048 0.51493 0.0
C749 C 0.94908 0.5169 0.52007 0.0
C750 C 0.93184 0.50501 0.5281 0.0
C751 C 0.93031 0.4806 0.53052 0.0
C752 C 0.94704 0.46887 0.52654 0.0
C753 C 0.96443 0.48088 0.5189 0.0
C754 C 0.04063 0.57793 0.54207 0.0
C755 C 0.01869 0.53904 0.59169 0.0
O756 O 0.08222 0.56085 0.59318 0.0
O757 O 0.09009 0.52706 0.57691 0.0
O758 O 0.05945 0.49673 0.55543 0.0
O759 O 0.0319 0.51019 0.55668 0.0
O760 O 0.07139 0.5393 0.52806 0.0
O761 O 0.04099 0.52285 0.50385 0.0
O762 O 0.99904 0.50621 0.50473 0.0
O763 O 0.98969 0.53991 0.5188 0.0
O764 O 0.02118 0.57227 0.53476 0.0
O765 O 0.04796 0.55878 0.54068 0.0
O766 O 1.0082 0.53324 0.56962 0.0
O767 O 0.03913 0.54234 0.59459 0.0
H768 H 0.13147 0.53123 0.58115 0.0
H769 H 0.16271 0.55249 0.56944 0.0
H770 H 0.13468 0.6158 0.56723 0.0
H771 H 0.10324 0.59449 0.57832 0.0
H772 H 0.94966 0.53554 0.51776 0.0
H773 H 0.91938 0.5147 0.53152 0.0
H774 H 0.94632 0.45002 0.52797 0.0
H775 H 0.97693 0.4712 0.51566 0.0
C776 C 0.85172 0.77493 0.29594 0.0
Eu777 Eu 0.81313 0.77489 0.30029 0.0
C778 C 0.86502 0.77045 0.27686 0.0
C779 C 0.87298 0.74892 0.2737 0.0
C780 C 0.88801 0.74603 0.25846 0.0
C781 C 0.89576 0.76481 0.24638 0.0
C782 C 0.88671 0.78566 0.24828 0.0
C783 C 0.87152 0.78843 0.2633 0.0
C784 C 0.7828 0.73612 0.30276 0.0
C785 C 0.78383 0.77103 0.2493 0.0
C786 C 0.72993 0.79397 0.30272 0.0
Eu787 Eu 0.76833 0.79173 0.29877 0.0
C788 C 0.71588 0.79676 0.32122 0.0
C789 C 0.70493 0.81599 0.32211 0.0
C790 C 0.68936 0.81728 0.33681 0.0
C791 C 0.68422 0.79921 0.35081 0.0
C792 C 0.69616 0.78083 0.35118 0.0
C793 C 0.71184 0.77961 0.33652 0.0
C794 C 0.79966 0.82983 0.29658 0.0
C795 C 0.79679 0.79451 0.34979 0.0
O796 O 0.84319 0.79422 0.29669 0.0
O797 O 0.83956 0.75641 0.30083 0.0
O798 O 0.80225 0.73545 0.30313 0.0
O799 O 0.78072 0.75782 0.30128 0.0
O800 O 0.80241 0.77162 0.26058 0.0
O801 O 0.76792 0.77602 0.26007 0.0
O802 O 0.73705 0.77376 0.29909 0.0
O803 O 0.74357 0.8127 0.30148 0.0
O804 O 0.78039 0.83152 0.29576 0.0
O805 O 0.80054 0.80802 0.29806 0.0
O806 O 0.77833 0.79291 0.3379 0.0
O807 O 0.81309 0.79006 0.33941 0.0
H808 H 0.8682 0.73464 0.28376 0.0
H809 H 0.89414 0.72942 0.25698 0.0
H810 H 0.89227 0.80064 0.23949 0.0
H811 H 0.86567 0.80524 0.2652 0.0
H812 H 0.70786 0.82956 0.31065 0.0
H813 H 0.68085 0.83202 0.33652 0.0
H814 H 0.69263 0.76656 0.36166 0.0
H815 H 0.72014 0.76466 0.3364 0.0
C816 C 0.78103 0.30258 0.86926 0.0
Eu817 Eu 0.7835 0.29334 0.82436 0.0
C818 C 0.76798 0.28725 0.88218 0.0
C819 C 0.75386 0.2967 0.89586 0.0
C820 C 0.74353 0.28263 0.9106 0.0
C821 C 0.74842 0.25976 0.91252 0.0
C822 C 0.75864 0.24867 0.89478 0.0
C823 C 0.76894 0.26259 0.88013 0.0
C824 C 0.75185 0.29186 0.78893 0.0
C825 C 0.76867 0.2349 0.80374 0.0
C826 C 0.79505 0.26245 0.72799 0.0
Eu827 Eu 0.79449 0.27075 0.77338 0.0
C828 C 0.80648 0.27909 0.71466 0.0
C829 C 0.82597 0.27575 0.70884 0.0
C830 C 0.83712 0.29212 0.69695 0.0
C831 C 0.82868 0.31172 0.6903 0.0
C832 C 0.81021 0.31638 0.69851 0.0
C833 C 0.79911 0.30008 0.71028 0.0
C834 C 0.82609 0.27051 0.80824 0.0
C835 C 0.80981 0.32906 0.79412 0.0
O836 O 0.79643 0.29345 0.86116 0.0
O837 O 0.77118 0.31312 0.8537 0.0
O838 O 0.75138 0.30007 0.81134 0.0
O839 O 0.7689 0.28524 0.78721 0.0
O840 O 0.77098 0.253 0.82205 0.0
O841 O 0.77552 0.2377 0.78291 0.0
O842 O 0.77946 0.26995 0.73733 0.0
O843 O 0.80633 0.25252 0.7428 0.0
O844 O 0.82553 0.26177 0.78571 0.0
O845 O 0.80953 0.27843 0.81091 0.0
O846 O 0.80746 0.31096 0.77579 0.0
O847 O 0.80276 0.32632 0.81488 0.0
H848 H 0.75202 0.31534 0.89656 0.0
H849 H 0.73504 0.29119 0.92369 0.0
H850 H 0.762 0.2307 0.89525 0.0
H851 H 0.77887 0.25439 0.86867 0.0
H852 H 0.83232 0.26011 0.71281 0.0
H853 H 0.85128 0.28816 0.69073 0.0
H854 H 0.80312 0.33121 0.69356 0.0
H855 H 0.78446 0.3037 0.71527 0.0
C856 C 0.84508 0.82135 0.80265 0.0
Eu857 Eu 0.80996 0.79806 0.80736 0.0
C858 C 0.8618 0.81035 0.79325 0.0
C859 C 0.87865 0.80707 0.80891 0.0
C860 C 0.8935 0.79457 0.80001 0.0
C861 C 0.89146 0.78535 0.77545 0.0
C862 C 0.87418 0.78761 0.76012 0.0
C863 C 0.85963 0.8002 0.76881 0.0
C864 C 0.79734 0.77882 0.84562 0.0
C865 C 0.81013 0.73886 0.79248 0.0
C866 C 0.73163 0.74046 0.78708 0.0
Eu867 Eu 0.7688 0.76252 0.79055 0.0
C868 C 0.71409 0.75042 0.7951 0.0
C869 C 0.69675 0.74994 0.77853 0.0
C870 C 0.68131 0.76258 0.78515 0.0
C871 C 0.68339 0.77601 0.80822 0.0
C872 C 0.70062 0.77638 0.82481 0.0
C873 C 0.71587 0.76372 0.81831 0.0
C874 C 0.788 0.78028 0.75545 0.0
C875 C 0.76849 0.82206 0.80764 0.0
O876 O 0.82882 0.82014 0.78707 0.0
O877 O 0.84053 0.81622 0.82354 0.0
O878 O 0.81359 0.79503 0.84729 0.0
O879 O 0.7885 0.77502 0.82436 0.0
O880 O 0.82012 0.76141 0.79451 0.0
O881 O 0.78995 0.73462 0.79252 0.0
O882 O 0.74587 0.73832 0.80415 0.0
O883 O 0.73906 0.74978 0.76927 0.0
O884 O 0.77857 0.75816 0.75295 0.0
O885 O 0.78638 0.7912 0.77586 0.0
O886 O 0.75812 0.79951 0.80151 0.0
O887 O 0.78892 0.82626 0.81127 0.0
H888 H 0.88034 0.8142 0.82795 0.0
H889 H 0.9068 0.79287 0.81201 0.0
H890 H 0.87225 0.78021 0.74111 0.0
H891 H 0.84661 0.80173 0.75627 0.0
H892 H 0.69537 0.74017 0.76039 0.0
H893 H 0.66785 0.76193 0.77238 0.0
H894 H 0.70214 0.78626 0.84293 0.0
H895 H 0.72925 0.76488 0.8313 0.0
C896 C 0.59978 0.55547 0.58686 0.0
Eu897 Eu 0.56157 0.54496 0.56948 0.0
C898 C 0.61506 0.53993 0.58403 0.0
C899 C 0.63067 0.54063 0.6029 0.0
C900 C 0.64322 0.5231 0.60171 0.0
C901 C 0.63989 0.50478 0.58181 0.0
C902 C 0.62421 0.50395 0.56306 0.0
C903 C 0.61183 0.52144 0.56415 0.0
C904 C 0.53028 0.54649 0.59869 0.0
C905 C 0.54664 0.48719 0.56281 0.0
C906 C 0.48308 0.51167 0.52204 0.0
Eu907 Eu 0.52146 0.52158 0.53778 0.0
C908 C 0.46943 0.52932 0.52261 0.0
C909 C 0.45699 0.53076 0.50149 0.0
C910 C 0.4474 0.55066 0.50007 0.0
C911 C 0.45026 0.56929 0.51975 0.0
C912 C 0.46278 0.56787 0.54086 0.0
C913 C 0.47234 0.54804 0.54226 0.0
C914 C 0.55185 0.51944 0.50779 0.0
C915 C 0.53772 0.57927 0.54266 0.0
O916 O 0.5925 0.56291 0.56728 0.0
O917 O 0.58549 0.5472 0.59916 0.0
O918 O 0.54935 0.55549 0.60532 0.0
O919 O 0.52867 0.53809 0.57631 0.0
O920 O 0.56207 0.50532 0.56671 0.0
O921 O 0.52828 0.48915 0.55309 0.0
O922 O 0.49036 0.50679 0.54294 0.0
O923 O 0.49715 0.51571 0.50796 0.0
O924 O 0.53275 0.50988 0.5023 0.0
O925 O 0.55431 0.52854 0.53026 0.0
O926 O 0.52191 0.56153 0.53798 0.0
O927 O 0.55566 0.57702 0.55324 0.0
H928 H 0.63283 0.55438 0.61867 0.0
H929 H 0.65542 0.52378 0.61619 0.0
H930 H 0.62164 0.48982 0.54756 0.0
H931 H 0.59942 0.5202 0.54977 0.0
H932 H 0.45524 0.51686 0.48589 0.0
H933 H 0.43761 0.55145 0.48374 0.0
H934 H 0.46479 0.5818 0.55648 0.0
H935 H 0.48248 0.54771 0.55844 0.0
C936 C 0.98277 0.53707 0.06731 0.0
Eu937 Eu 0.02022 0.53206 0.06111 0.0
C938 C 0.96894 0.55505 0.06769 0.0
C939 C 0.95875 0.55924 0.08798 0.0
C940 C 0.94401 0.57422 0.08835 0.0
C941 C 0.93887 0.58517 0.06825 0.0
C942 C 0.95008 0.58226 0.0485 0.0
C943 C 0.96502 0.56731 0.04821 0.0
C944 C 0.05033 0.52643 0.09723 0.0
C945 C 0.05147 0.58214 0.06243 0.0
C946 C 0.10135 0.52757 0.03482 0.0
Eu947 Eu 0.06397 0.5325 0.04125 0.0
C948 C 0.11557 0.51013 0.03541 0.0
C949 C 0.12539 0.50477 0.01502 0.0
C950 C 0.14017 0.48986 0.01527 0.0
C951 C 0.14577 0.48022 0.03612 0.0
C952 C 0.13507 0.48459 0.05615 0.0
C953 C 0.12005 0.49936 0.05578 0.0
C954 C 0.03479 0.53863 1.00458 0.0
C955 C 0.03343 0.48201 0.04103 0.0
O956 O 0.98789 0.52795 0.0466 0.0
O957 O 0.99792 0.54119 0.0848 0.0
O958 O 0.03128 0.52669 0.09993 0.0
O959 O 0.05182 0.52871 0.07546 0.0
O960 O 0.03227 0.57131 0.06123 0.0
O961 O 0.06694 0.57083 0.05828 0.0
O962 O 0.0965 0.5379 0.05522 0.0
O963 O 0.08587 0.52193 0.01771 0.0
O964 O 0.05414 0.53903 1.00334 0.0
O965 O 0.03206 0.53606 0.02614 0.0
O966 O 0.0523 0.49365 0.04179 0.0
O967 O 0.0177 0.49292 0.04553 0.0
H968 H 0.96173 0.55026 0.10336 0.0
H969 H 0.93607 0.5765 0.1041 0.0
H970 H 0.9465 0.59037 0.03268 0.0
H971 H 0.97289 0.56466 0.03245 0.0
H972 H 0.12193 0.51259 0.99897 0.0
H973 H 0.14754 0.48635 0.99923 0.0
H974 H 0.13895 0.47762 0.07259 0.0
H975 H 0.11246 0.50295 0.07164 0.0
H976 H 0.03247 0.22195 1.00268 0.0
H977 H 0.99869 0.17022 0.94331 0.0
H978 H 0.03932 0.18922 0.02444 0.0
H979 H 1.00575 0.13762 0.96484 0.0
H980 H 1.00033 0.08735 0.01884 0.0
H981 H 0.99488 0.12193 1.00007 0.0
H982 H 0.05802 0.15477 0.02341 0.0
H983 H 0.06344 0.12013 0.04292 0.0
C984 C 0.02644 0.20359 0.99433 0.0
C985 C 0.01472 0.19863 0.97146 0.0
C986 C 0.03055 0.18488 1.00669 0.0
C987 C 0.02287 0.16087 0.99648 0.0
C988 C 1.01152 0.15596 0.97342 0.0
C989 C 1.00752 0.17462 0.96103 0.0
C990 C 1.01304 0.102 0.0203 0.0
C991 C 0.03235 0.10089 0.0323 0.0
C992 C 1.00995 0.12176 1.00929 0.0
C993 C 0.02611 0.14088 1.00987 0.0
C994 C 0.04526 0.1403 0.02269 0.0
C995 C 0.04836 0.12045 0.03383 0.0
H996 H 0.15788 0.816 0.17642 0.0
H997 H 0.12759 0.79623 0.23638 0.0
H998 H 0.1904 0.80936 0.19641 0.0
H999 H 0.16 0.79006 0.25672 0.0
H1000 H 0.21686 0.76372 0.28313 0.0
H1001 H 0.18503 0.76615 0.25867 0.0
H1002 H 0.21729 0.82348 0.22727 0.0
H1003 H 0.24926 0.81987 0.25099 0.0
C1004 C 0.15821 0.81035 0.19397 0.0
C1005 C 0.14015 0.80679 0.20484 0.0
C1006 C 0.17693 0.80665 0.20558 0.0
C1007 C 0.17812 0.79903 0.22833 0.0
C1008 C 0.15989 0.79544 0.23909 0.0
C1009 C 0.14124 0.79933 0.22756 0.0
C1010 C 0.21722 0.77618 0.27028 0.0
C1011 C 0.23565 0.79109 0.26842 0.0
C1012 C 0.19884 0.778 0.25657 0.0
C1013 C 0.19823 0.7953 0.24103 0.0
C1014 C 0.21696 0.80968 0.23864 0.0
C1015 C 0.23542 0.80756 0.25214 0.0
H1016 H 0.52527 0.82506 0.49802 0.0
H1017 H 0.50694 0.85728 0.43611 0.0
H1018 H 0.52785 0.86408 0.52403 0.0
H1019 H 0.50941 0.8957 0.46177 0.0
H1020 H 0.49715 0.95551 0.51423 0.0
H1021 H 0.49133 0.91363 0.49494 0.0
H1022 H 0.55098 0.90558 0.52767 0.0
H1023 H 0.55687 0.94768 0.547 0.0
C1024 C 0.52163 0.84039 0.49009 0.0
C1025 C 0.51594 0.8383 0.46515 0.0
C1026 C 0.52318 0.86261 0.50486 0.0
C1027 C 0.51862 0.88272 0.49485 0.0
C1028 C 0.51268 0.88038 0.46999 0.0
C1029 C 0.51145 0.85845 0.45529 0.0
C1030 C 0.50881 0.94464 0.51774 0.0
C1031 C 0.52749 0.95471 0.53193 0.0
C1032 C 0.50554 0.92077 0.50662 0.0
C1033 C 0.52079 0.90654 0.50975 0.0
C1034 C 0.53896 0.91619 0.52514 0.0
C1035 C 0.54237 0.94023 0.53601 0.0
H1036 H 0.5137 0.24629 0.7077 0.0
H1037 H 0.51255 0.31918 0.69555 0.0
H1038 H 0.4781 0.24202 0.7152 0.0
H1039 H 0.47661 0.31496 0.70282 0.0
H1040 H 0.42619 0.30922 0.75315 0.0
H1041 H 0.45882 0.31283 0.73721 0.0
H1042 H 0.44284 0.23945 0.70059 0.0
H1043 H 0.41016 0.23573 0.71719 0.0
C1044 C 0.50572 0.26138 0.70651 0.0
C1045 C 0.51599 0.28324 0.70158 0.0
C1046 C 0.4852 0.25884 0.7105 0.0
C1047 C 0.47446 0.27822 0.70991 0.0
C1048 C 0.48451 0.2998 0.70388 0.0
C1049 C 0.50505 0.30223 0.6996 0.0
C1050 C 0.42943 0.29401 0.74127 0.0
C1051 C 0.41555 0.27223 0.73636 0.0
C1052 C 0.44817 0.29608 0.73206 0.0
C1053 C 0.45354 0.27647 0.71753 0.0
C1054 C 0.43935 0.25484 0.71197 0.0
C1055 C 0.42061 0.25271 0.72139 0.0
H1056 H 0.02503 0.80642 0.6474 0.0
H1057 H 1.00949 0.79168 0.57001 0.0
H1058 H 0.05082 0.84002 0.64376 0.0
H1059 H 0.03412 0.82679 0.56632 0.0
H1060 H 0.08237 0.87788 0.55683 0.0
H1061 H 0.06969 0.84005 0.56927 0.0
H1062 H 0.0556 0.87856 0.63543 0.0
H1063 H 0.0701 0.91613 0.6239 0.0
C1064 C 0.02645 0.81115 0.62965 0.0
C1065 C 0.01515 0.79679 0.60893 0.0
C1066 C 0.04148 0.83019 0.62755 0.0
C1067 C 0.04493 0.83573 0.60476 0.0
C1068 C 0.03246 0.82239 0.58413 0.0
C1069 C 0.01787 0.80281 0.58619 0.0
C1070 C 0.07792 0.87822 0.57477 0.0
C1071 C 0.076 0.89986 0.58889 0.0
C1072 C 0.07013 0.85652 0.58162 0.0
C1073 C 0.06029 0.85651 0.60243 0.0
C1074 C 0.06253 0.87791 0.6189 0.0
C1075 C 0.07095 0.89953 0.61236 0.0
H1076 H 0.50791 0.87074 0.94353 0.0
H1077 H 0.52334 0.80423 0.90999 0.0
H1078 H 0.47183 0.85642 0.92765 0.0
H1079 H 0.4875 0.79031 0.89288 0.0
H1080 H 0.41686 0.77422 0.86895 0.0
H1081 H 0.44931 0.78032 0.89621 0.0
H1082 H 0.46167 0.85416 0.88414 0.0
H1083 H 0.42991 0.84819 0.85773 0.0
C1084 C 0.50339 0.85292 0.93309 0.0
C1085 C 0.51803 0.83868 0.92732 0.0
C1086 C 0.4829 0.84468 0.9241 0.0
C1087 C 0.47712 0.82254 0.90859 0.0
C1088 C 0.49159 0.80739 0.90479 0.0
C1089 C 0.51202 0.81544 0.91427 0.0
C1090 C 0.4268 0.79155 0.87212 0.0
C1091 C 0.42125 0.81068 0.86115 0.0
C1092 C 0.44511 0.79509 0.88771 0.0
C1093 C 0.45757 0.8179 0.89275 0.0
C1094 C 0.45204 0.83663 0.88121 0.0
C1095 C 0.43409 0.83307 0.86564 0.0
H1096 H 0.48154 0.12768 0.09221 0.0
H1097 H 0.50505 0.19385 0.06913 0.0
H1098 H 0.51385 0.11402 0.08847 0.0
H1099 H 0.53848 0.18164 0.06712 0.0
H1100 H 0.56029 0.1121 0.03077 0.0
H1101 H 0.55901 0.15279 0.04947 0.0
H1102 H 0.54943 0.12811 0.11632 0.0
H1103 H 0.54767 0.08737 0.09742 0.0
C1104 C 0.4935 0.13896 0.08534 0.0
C1105 C 0.4925 0.16314 0.08484 0.0
C1106 C 0.51251 0.13182 0.0846 0.0
C1107 C 0.52966 0.14829 0.08068 0.0
C1108 C 0.52614 0.16952 0.07235 0.0
C1109 C 0.50673 0.17595 0.07252 0.0
C1110 C 0.55891 0.1155 0.04984 0.0
C1111 C 0.55288 0.09657 0.06227 0.0
C1112 C 0.55855 0.13889 0.06076 0.0
C1113 C 0.55036 0.14178 0.08267 0.0
C1114 C 0.5534 0.12508 0.09813 0.0
C1115 C 0.55225 0.10145 0.08722 0.0
H1116 H 0.14237 0.33789 0.43525 0.0
H1117 H 0.0857 0.32757 0.3872 0.0
H1118 H 0.16006 0.32477 0.40153 0.0
H1119 H 0.10357 0.31385 0.35326 0.0
H1120 H 0.1625 0.30792 0.30474 0.0
H1121 H 0.14043 0.328 0.33068 0.0
H1122 H 0.14708 0.27755 0.38022 0.0
H1123 H 0.16886 0.25782 0.35465 0.0
C1124 C 0.13384 0.33324 0.41736 0.0
C1125 C 0.11274 0.33312 0.41366 0.0
C1126 C 0.14392 0.32592 0.39817 0.0
C1127 C 0.13292 0.3181 0.3752 0.0
C1128 C 0.11217 0.31994 0.37097 0.0
C1129 C 0.10205 0.32761 0.39027 0.0
C1130 C 0.1586 0.3009 0.32084 0.0
C1131 C 0.16708 0.28155 0.32802 0.0
C1132 C 0.14616 0.31228 0.33553 0.0
C1133 C 0.14253 0.30431 0.35731 0.0
C1134 C 0.14998 0.28399 0.36351 0.0
C1135 C 0.16226 0.27271 0.34896 0.0
H1136 H 0.98268 0.04769 0.24053 0.0
H1137 H 0.92847 0.04635 0.19142 0.0
H1138 H 1.00294 0.04572 0.2071 0.0
H1139 H 0.9488 0.04542 0.15773 0.0
H1140 H 0.98821 0.03031 0.09553 0.0
H1141 H 0.96673 0.02989 0.12847 0.0
H1142 H 0.02013 0.06106 0.17958 0.0
H1143 H 0.04105 0.06083 0.1472 0.0
C1144 C 0.97499 0.0472 0.22257 0.0
C1145 C 0.95366 0.04727 0.21919 0.0
C1146 C 0.98681 0.04627 0.20299 0.0
C1147 C 0.97805 0.04562 0.1788 0.0
C1148 C 0.95661 0.0456 0.17552 0.0
C1149 C 0.94476 0.04634 0.19515 0.0
C1150 C 0.99533 0.03704 0.1138 0.0
C1151 C 0.01663 0.04572 0.1182 0.0
C1152 C 0.9829 0.03695 0.13303 0.0
C1153 C 0.9912 0.04537 0.15759 0.0
C1154 C 1.01257 0.05385 0.16161 0.0
C1155 C 0.02481 0.05398 0.14259 0.0
H1156 H 0.30396 0.7572 0.54801 0.0
H1157 H 0.3332 0.71461 0.49684 0.0
H1158 H 0.27485 0.75435 0.51849 0.0
H1159 H 0.30498 0.71453 0.46568 0.0
H1160 H 0.25419 0.70597 0.41362 0.0
H1161 H 0.27125 0.69804 0.45123 0.0
H1162 H 0.26222 0.76758 0.48634 0.0
H1163 H 0.24398 0.77404 0.45005 0.0
C1164 C 0.30467 0.74836 0.52991 0.0
C1165 C 0.32081 0.73612 0.52459 0.0
C1166 C 0.28775 0.74648 0.51294 0.0
C1167 C 0.28718 0.73373 0.48972 0.0
C1168 C 0.30439 0.72355 0.4837 0.0
C1169 C 0.32094 0.72434 0.50119 0.0
C1170 C 0.25458 0.7186 0.42995 0.0
C1171 C 0.24918 0.74132 0.42875 0.0
C1172 C 0.26494 0.71447 0.4513 0.0
C1173 C 0.26961 0.73302 0.47124 0.0
C1174 C 0.2596 0.75304 0.47129 0.0
C1175 C 0.24877 0.75672 0.45025 0.0
H1176 H 0.6019 0.98339 0.73341 0.0
H1177 H 0.64772 0.04186 0.72356 0.0
H1178 H 0.58191 0.98686 0.69576 0.0
H1179 H 0.62803 0.04545 0.68566 0.0
H1180 H 0.58192 0.05845 0.62349 0.0
H1181 H 0.60278 0.05563 0.661 0.0
H1182 H 0.57401 0.9815 0.65573 0.0
H1183 H 0.55256 0.98519 0.61928 0.0
C1184 C 0.60781 0.99702 0.72314 0.0
C1185 C 0.62669 1.01214 0.7318 0.0
C1186 C 0.59632 0.99896 0.70107 0.0
C1187 C 0.60299 0.01637 0.68657 0.0
C1188 C 0.62181 0.03182 0.69568 0.0
C1189 C 0.63341 0.02962 0.71761 0.0
C1190 C 0.58043 0.04138 0.63008 0.0
C1191 C 0.56583 0.02183 0.61766 0.0
C1192 C 0.59244 0.03969 0.65196 0.0
C1193 C 0.59051 0.01827 0.6624 0.0
C1194 C 0.57612 0.99862 0.64936 0.0
C1195 C 0.56391 1.00051 0.62784 0.0
H1196 H 0.29828 0.33371 1.00703 0.0
H1197 H 0.32147 0.39535 0.97504 0.0
H1198 H 0.2961 0.30783 0.96783 0.0
H1199 H 0.31942 0.36979 0.93647 0.0
H1200 H 0.33332 0.31702 0.8776 0.0
H1201 H 0.33732 0.33617 0.91956 0.0
H1202 H 0.27515 0.30461 0.92544 0.0
H1203 H 0.27107 0.28543 0.88329 0.0
C1204 C 0.30303 0.34162 0.99172 0.0
C1205 C 0.31009 0.36645 0.99398 0.0
C1206 C 0.3017 0.32692 0.96939 0.0
C1207 C 0.30786 0.33687 0.94934 0.0
C1208 C 0.31494 0.36164 0.95177 0.0
C1209 C 0.31594 0.37627 0.97379 0.0
C1210 C 0.32069 0.31368 0.88801 0.0
C1211 C 0.30186 0.29991 0.87727 0.0
C1212 C 0.32293 0.32475 0.91192 0.0
C1213 C 0.30647 0.32196 0.92555 0.0
C1214 C 0.28807 0.3069 0.91529 0.0
C1215 C 0.28572 0.29608 0.89122 0.0
H1216 H 0.95195 1.00372 0.36232 0.0
H1217 H 0.96855 0.0806 0.36931 0.0
H1218 H 0.96873 1.00456 0.40259 0.0
H1219 H 0.98668 0.08159 0.4098 0.0
H1220 H 1.00793 0.07699 0.49026 0.0
H1221 H 0.98919 0.07871 0.45097 0.0
H1222 H 0.999 1.00685 0.42525 0.0
H1223 H 0.01668 1.00489 0.46425 0.0
C1224 C 0.9592 0.02097 0.37257 0.0
C1225 C 0.95865 0.04208 0.36235 0.0
C1226 C 0.96926 0.02145 0.39583 0.0
C1227 C 0.97982 0.04308 0.40993 0.0
C1228 C 0.9788 0.06446 0.39996 0.0
C1229 C 0.9683 0.06398 0.37661 0.0
C1230 C 1.00601 0.06152 0.47621 0.0
C1231 C 0.01385 0.04072 0.4809 0.0
C1232 C 0.99528 0.06254 0.45341 0.0
C1233 C 0.99196 0.0428 0.43441 0.0
C1234 C 1.00033 0.0223 0.43915 0.0
C1235 C 1.01086 0.02125 0.4618 0.0
H1236 H 0.35555 0.74504 0.68864 0.0
H1237 H 0.32428 0.76561 0.62621 0.0
H1238 H 0.32563 0.7473 0.70919 0.0
H1239 H 0.29335 0.76579 0.64566 0.0
H1240 H 0.27605 0.80127 0.72023 0.0
H1241 H 0.27751 0.78362 0.67896 0.0
H1242 H 0.29085 0.71858 0.70292 0.0
H1243 H 0.29159 0.73695 0.74439 0.0
C1244 C 0.34253 0.75116 0.67976 0.0
C1245 C 0.34122 0.75281 0.65529 0.0
C1246 C 0.3249 0.75103 0.69087 0.0
C1247 C 0.30635 0.75388 0.67777 0.0
C1248 C 0.30696 0.76177 0.65544 0.0
C1249 C 0.32496 0.76264 0.6448 0.0
C1250 C 0.27832 0.78275 0.71649 0.0
C1251 C 0.28516 0.77091 0.735 0.0
C1252 C 0.27875 0.77238 0.69282 0.0
C1253 C 0.2873 0.75137 0.68896 0.0
C1254 C 0.28614 0.736 0.70635 0.0
C1255 C 0.28691 0.7466 0.73015 0.0
H1256 H 0.592 1.00357 0.85987 0.0
H1257 H 0.64986 0.03598 0.90107 0.0
H1258 H 0.57601 1.00312 0.89628 0.0
H1259 H 0.63382 0.03717 0.93814 0.0
H1260 H 0.60263 0.03245 1.00666 0.0
H1261 H 0.61981 0.03038 0.97067 0.0
H1262 H 0.56071 1.01392 0.92675 0.0
H1263 H 0.54399 0.01483 0.96275 0.0
C1264 C 0.60146 1.01044 0.87693 0.0
C1265 C 0.62248 0.01917 0.87716 0.0
C1266 C 0.59208 1.01069 0.89832 0.0
C1267 C 0.60301 0.02046 0.92137 0.0
C1268 C 0.6243 0.02911 0.92149 0.0
C1269 C 0.6338 0.02835 0.89994 0.0
C1270 C 0.59327 0.02812 0.98928 0.0
C1271 C 0.57168 0.0235 0.98814 0.0
C1272 C 0.60326 0.0271 0.96816 0.0
C1273 C 0.59223 0.0217 0.9446 0.0
C1274 C 0.57051 0.0175 0.94373 0.0
C1275 C 0.56058 0.01819 0.96483 0.0
H1276 H 0.32139 0.38935 0.1651 0.0
H1277 H 0.29744 0.32498 0.11406 0.0
H1278 H 0.31434 0.36741 0.19825 0.0
H1279 H 0.29121 0.30277 0.14697 0.0
H1280 H 0.2637 0.27347 0.2081 0.0
H1281 H 0.27029 0.29676 0.17623 0.0
H1282 H 0.32391 0.33875 0.221 0.0
H1283 H 0.31601 0.31644 0.25371 0.0
C1284 C 0.31481 0.37044 0.16097 0.0
C1285 C 0.31012 0.35888 0.13694 0.0
C1286 C 0.31088 0.35777 0.18001 0.0
C1287 C 0.3022 0.33319 0.17548 0.0
C1288 C 0.29755 0.32173 0.15134 0.0
C1289 C 0.30137 0.33441 0.13237 0.0
C1290 C 0.27699 0.28761 0.21116 0.0
C1291 C 0.28968 0.29274 0.23335 0.0
C1292 C 0.28086 0.30094 0.19272 0.0
C1293 C 0.29786 0.31953 0.19568 0.0
C1294 C 0.31058 0.32471 0.21798 0.0
C1295 C 0.30635 0.31163 0.23669 0.0
H1296 H 0.22058 0.93456 0.01673 0.0
H1297 H 0.18275 0.8731 0.03586 0.0
H1298 H 0.20317 0.96129 0.04138 0.0
H1299 H 0.1661 0.89977 0.06164 0.0
H1300 H 0.12256 0.9557 0.07026 0.0
H1301 H 0.14247 0.92544 0.05659 0.0
H1302 H 0.19842 0.97639 0.08119 0.0
H1303 H 0.17822 1.00721 0.09324 0.0
C1304 C 0.20848 0.92684 0.02621 0.0
C1305 C 0.20267 0.9019 0.02416 0.0
C1306 C 0.19884 0.94209 0.04074 0.0
C1307 C 0.18345 0.93258 0.0537 0.0
C1308 C 0.17775 0.90758 0.05166 0.0
C1309 C 0.18714 0.89233 0.03676 0.0
C1310 C 0.13914 0.9602 0.07315 0.0
C1311 C 0.14894 0.98381 0.08204 0.0
C1312 C 0.15058 0.94283 0.06557 0.0
C1313 C 0.17199 0.94879 0.06723 0.0
C1314 C 0.18188 0.9716 0.07902 0.0
C1315 C 0.17038 0.98911 0.08624 0.0
H1316 H 0.69947 0.64206 0.06381 0.0
H1317 H 0.69217 0.60945 0.98931 0.0
H1318 H 0.66574 0.62089 0.06834 0.0
H1319 H 0.65863 0.58762 0.99358 0.0
H1320 H 0.59279 0.56151 0.99964 0.0
H1321 H 0.6251 0.58668 0.99649 0.0
H1322 H 0.64411 0.58727 0.07222 0.0
H1323 H 0.61097 0.56346 0.07529 0.0
C1324 C 0.69053 0.63032 0.04834 0.0
C1325 C 0.69837 0.6276 0.02613 0.0
C1326 C 0.67117 0.61786 0.05096 0.0
C1327 C 0.65887 0.60238 0.03134 0.0
C1328 C 0.66701 0.59969 1.00911 0.0
C1329 C 0.68647 0.61202 1.00661 0.0
C1330 C 0.60368 0.56773 0.01574 0.0
C1331 C 0.5991 0.56105 0.03782 0.0
C1332 C 0.62254 0.58181 0.0139 0.0
C1333 C 0.63787 0.58902 0.03396 0.0
C1334 C 0.63294 0.58266 0.05628 0.0
C1335 C 0.61381 0.56898 0.05817 0.0
H1336 H 0.73101 0.46887 0.31697 0.0
H1337 H 0.67371 0.42046 0.29666 0.0
H1338 H 0.74929 0.43503 0.31521 0.0
H1339 H 0.69163 0.38626 0.29573 0.0
H1340 H 0.72773 0.32396 0.28438 0.0
H1341 H 0.70936 0.35775 0.28497 0.0
H1342 H 0.76308 0.40451 0.32469 0.0
H1343 H 0.78142 0.37076 0.32294 0.0
C1344 C 0.72217 0.45092 0.31224 0.0
C1345 C 0.70062 0.44794 0.30705 0.0
C1346 C 0.73279 0.43101 0.3114 0.0
C1347 C 0.7225 0.40678 0.30546 0.0
C1348 C 0.70082 0.40397 0.30015 0.0
C1349 C 0.69024 0.42394 0.30086 0.0
C1350 C 0.73569 0.34148 0.29323 0.0
C1351 C 0.75636 0.34414 0.30351 0.0
C1352 C 0.72495 0.3613 0.29376 0.0
C1353 C 0.73417 0.38499 0.30485 0.0
C1354 C 0.75488 0.38735 0.31538 0.0
C1355 C 0.76565 0.36758 0.31461 0.0
H1356 H 0.81625 0.39858 0.47509 0.0
H1357 H 0.81697 0.38757 0.54922 0.0
H1358 H 0.85198 0.41746 0.48318 0.0
H1359 H 0.85292 0.40769 0.55776 0.0
H1360 H 0.92228 0.44297 0.55601 0.0
H1361 H 0.89023 0.41404 0.55089 0.0
H1362 H 0.86134 0.45797 0.50583 0.0
H1363 H 0.89304 0.48559 0.50953 0.0
C1364 C 0.82425 0.39987 0.49306 0.0
C1365 C 0.81382 0.39264 0.51179 0.0
C1366 C 0.84465 0.41074 0.49773 0.0
C1367 C 0.85478 0.41515 0.52137 0.0
C1368 C 0.84525 0.40493 0.53948 0.0
C1369 C 0.82474 0.39351 0.53464 0.0
C1370 C 0.90897 0.44642 0.54514 0.0
C1371 C 0.91031 0.46636 0.53284 0.0
C1372 C 0.8907 0.42992 0.54229 0.0
C1373 C 0.87363 0.4333 0.52718 0.0
C1374 C 0.87453 0.45438 0.51681 0.0
C1375 C 0.89266 0.47059 0.51942 0.0
H1376 H 0.40576 0.14402 0.28882 0.0
H1377 H 0.35002 0.09513 0.28976 0.0
H1378 H 0.38686 0.17699 0.28822 0.0
H1379 H 0.33066 0.12784 0.28938 0.0
H1380 H 0.29543 0.19078 0.2919 0.0
H1381 H 0.31394 0.15736 0.29038 0.0
H1382 H 0.37001 0.20611 0.2877 0.0
H1383 H 0.35116 0.23924 0.28952 0.0
C1384 C 0.38933 0.14022 0.28899 0.0
C1385 C 0.37974 0.11648 0.2895 0.0
C1386 C 0.3781 0.15953 0.28859 0.0
C1387 C 0.35649 0.15639 0.28888 0.0
C1388 C 0.34698 0.1323 0.28924 0.0
C1389 C 0.35826 0.11297 0.28945 0.0
C1390 C 0.31175 0.19442 0.29092 0.0
C1391 C 0.32151 0.21827 0.29101 0.0
C1392 C 0.32273 0.17482 0.29007 0.0
C1393 C 0.34425 0.17778 0.2891 0.0
C1394 C 0.3538 0.20183 0.28866 0.0
C1395 C 0.3428 0.22142 0.28968 0.0
H1396 H 0.33531 0.16633 0.55694 0.0
H1397 H 0.31353 0.0918 0.52728 0.0
H1398 H 0.37024 0.15745 0.56515 0.0
H1399 H 0.34807 0.08311 0.53441 0.0
H1400 H 0.40063 0.06547 0.578 0.0
H1401 H 0.36878 0.08034 0.57103 0.0
H1402 H 0.40082 0.14321 0.54789 0.0
H1403 H 0.43339 0.12854 0.55587 0.0
C1404 C 0.33813 0.14824 0.55157 0.0
C1405 C 0.32176 0.12966 0.5416 0.0
C1406 C 0.35807 0.14314 0.55633 0.0
C1407 C 0.36186 0.11944 0.55099 0.0
C1408 C 0.34562 0.1014 0.53948 0.0
C1409 C 0.32584 0.10639 0.53513 0.0
C1410 C 0.40112 0.08277 0.57199 0.0
C1411 C 0.41965 0.09576 0.56747 0.0
C1412 C 0.38272 0.09114 0.56762 0.0
C1413 C 0.38213 0.11268 0.5583 0.0
C1414 C 0.40074 0.12647 0.55492 0.0
C1415 C 0.41935 0.118 0.55933 0.0
H1416 H 0.67555 0.62311 0.31295 0.0
H1417 H 0.72625 0.58457 0.30951 0.0
H1418 H 0.69756 0.65995 0.31052 0.0
H1419 H 0.74881 0.62147 0.30698 0.0
H1420 H 0.79029 0.6907 0.30248 0.0
H1421 H 0.76816 0.65413 0.30476 0.0
H1422 H 0.71701 0.69283 0.3077 0.0
H1423 H 0.73996 0.72976 0.30546 0.0
C1424 C 0.69159 0.62241 0.31173 0.0
C1425 C 0.69881 0.60029 0.31155 0.0
C1426 C 0.70459 0.64409 0.31025 0.0
C1427 C 0.72577 0.64514 0.30839 0.0
C1428 C 0.73297 0.62275 0.30833 0.0
C1429 C 0.71986 0.60097 0.3099 0.0
C1430 C 0.77426 0.69155 0.3036 0.0
C1431 C 0.76725 0.71374 0.30376 0.0
C1432 C 0.76115 0.66998 0.30496 0.0
C1433 C 0.73996 0.66906 0.30661 0.0
C1434 C 0.73289 0.69154 0.30658 0.0
C1435 C 0.7462 0.7133 0.3052 0.0
H1436 H 0.90184 0.44482 0.76534 0.0
H1437 H 0.86045 0.48461 0.80122 0.0
H1438 H 0.88016 0.40736 0.76783 0.0
H1439 H 0.83811 0.44654 0.80326 0.0
H1440 H 0.81484 0.37201 0.82545 0.0
H1441 H 0.83435 0.41105 0.82202 0.0
H1442 H 0.84978 0.38097 0.75313 0.0
H1443 H 0.83068 0.34194 0.75684 0.0
C1444 C 0.88792 0.44569 0.77358 0.0
C1445 C 0.88308 0.4681 0.78304 0.0
C1446 C 0.87527 0.42393 0.77486 0.0
C1447 C 0.85708 0.42344 0.78565 0.0
C1448 C 0.85201 0.44589 0.79497 0.0
C1449 C 0.86475 0.46786 0.79359 0.0
C1450 C 0.82237 0.37366 0.80952 0.0
C1451 C 0.82115 0.35345 0.79151 0.0
C1452 C 0.83351 0.39628 0.80746 0.0
C1453 C 0.84398 0.39957 0.78736 0.0
C1454 C 0.84241 0.37939 0.76918 0.0
C1455 C 0.83124 0.35683 0.77121 0.0
H1456 H 0.08283 0.89349 0.15906 0.0
H1457 H 0.0533 0.84251 0.09682 0.0
H1458 H 0.07621 0.92655 0.13796 0.0
H1459 H 0.04659 0.87579 0.0756 0.0
H1460 H 0.02058 0.9455 0.06029 0.0
H1461 H 0.02617 0.91006 0.07828 0.0
H1462 H 0.08907 0.943 0.10286 0.0
H1463 H 0.08358 0.97835 0.08525 0.0
C1464 C 0.07492 0.88939 0.14085 0.0
C1465 C 0.06876 0.86551 0.12946 0.0
C1466 C 0.07122 0.90828 0.12874 0.0
C1467 C 0.06109 0.90369 0.10508 0.0
C1468 C 0.05443 0.87979 0.09384 0.0
C1469 C 0.05841 0.86082 0.10588 0.0
C1470 C 0.03566 0.94505 0.06929 0.0
C1471 C 0.05159 0.96485 0.07157 0.0
C1472 C 0.03884 0.92475 0.07953 0.0
C1473 C 0.05796 0.924 0.09225 0.0
C1474 C 0.07406 0.94334 0.09358 0.0
C1475 C 0.07092 0.96354 0.08335 0.0
H1476 H 0.93381 0.22916 0.88478 0.0
H1477 H 0.94614 0.30627 0.88971 0.0
H1478 H 0.89814 0.22893 0.86828 0.0
H1479 H 0.91077 0.30621 0.87337 0.0
H1480 H 0.84202 0.30089 0.85132 0.0
H1481 H 0.87419 0.29969 0.87677 0.0
H1482 H 0.88166 0.23542 0.83049 0.0
H1483 H 0.85 0.23661 0.80571 0.0
C1484 C 0.92879 0.24607 0.88276 0.0
C1485 C 0.94281 0.26769 0.88835 0.0
C1486 C 0.90839 0.246 0.87313 0.0
C1487 C 0.90146 0.26758 0.86922 0.0
C1488 C 0.91533 0.28927 0.87621 0.0
C1489 C 0.9357 0.28928 0.88543 0.0
C1490 C 0.85034 0.28624 0.84707 0.0
C1491 C 0.84336 0.26876 0.82659 0.0
C1492 C 0.86889 0.28564 0.86145 0.0
C1493 C 0.88065 0.26736 0.85582 0.0
C1494 C 0.87305 0.24952 0.83581 0.0
C1495 C 0.85483 0.25029 0.82145 0.0
H1496 H 0.5889 0.23757 0.60416 0.0
H1497 H 0.54763 0.21032 0.65189 0.0
H1498 H 0.58225 0.1978 0.57853 0.0
H1499 H 0.54114 0.17114 0.62695 0.0
H1500 H 0.52098 0.10792 0.5729 0.0
H1501 H 0.52552 0.15027 0.58802 0.0
H1502 H 0.59051 0.15682 0.58363 0.0
H1503 H 0.58596 0.11382 0.56766 0.0
C1504 C 0.57815 0.22318 0.60881 0.0
C1505 C 0.56885 0.22663 0.6299 0.0
C1506 C 0.5745 0.20051 0.59439 0.0
C1507 C 0.56124 0.1814 0.60081 0.0
C1508 C 0.55123 0.18552 0.62132 0.0
C1509 C 0.55503 0.20788 0.6357 0.0
C1510 C 0.5363 0.11824 0.57483 0.0
C1511 C 0.55322 0.10732 0.56943 0.0
C1512 C 0.53885 0.14261 0.58355 0.0
C1513 C 0.55839 0.15675 0.58734 0.0
C1514 C 0.57523 0.14629 0.58073 0.0
C1515 C 0.57267 0.12169 0.57181 0.0
H1516 H 0.58499 0.78463 0.44233 0.0
H1517 H 0.55757 0.75957 0.36871 0.0
H1518 H 0.6181 0.79605 0.42848 0.0
H1519 H 0.5907 0.77037 0.35489 0.0
H1520 H 0.64727 0.80962 0.33346 0.0
H1521 H 0.61515 0.80396 0.35034 0.0
H1522 H 0.64515 0.77885 0.41118 0.0
H1523 H 0.67772 0.78574 0.39482 0.0
C1524 C 0.58605 0.78144 0.42318 0.0
C1525 C 0.56864 0.77111 0.4066 0.0
C1526 C 0.60507 0.78792 0.41526 0.0
C1527 C 0.60713 0.78423 0.39056 0.0
C1528 C 0.58966 0.7739 0.37402 0.0
C1529 C 0.57067 0.76744 0.38194 0.0
C1530 C 0.64723 0.80349 0.35076 0.0
C1531 C 0.66517 0.79807 0.36271 0.0
C1532 C 0.62866 0.79986 0.36027 0.0
C1533 C 0.62741 0.79052 0.38192 0.0
C1534 C 0.64551 0.78611 0.39448 0.0
C1535 C 0.66417 0.78982 0.38498 0.0
H1536 H 0.02739 0.28906 0.50239 0.0
H1537 H 0.07831 0.25641 0.47986 0.0
H1538 H 1.00769 0.24938 0.50223 0.0
H1539 H 0.05903 0.21692 0.48068 0.0
H1540 H 0.02439 0.14792 0.47559 0.0
H1541 H 0.03005 0.18697 0.46197 0.0
H1542 H 1.0098 0.21953 0.52719 0.0
H1543 H 1.0035 0.18087 0.54007 0.0
C1544 C 0.03444 0.2734 0.49771 0.0
C1545 C 0.05439 0.27568 0.49135 0.0
C1546 C 0.02311 0.25073 0.49739 0.0
C1547 C 0.03168 0.23008 0.49102 0.0
C1548 C 0.05174 0.23247 0.48488 0.0
C1549 C 0.06296 0.25508 0.48492 0.0
C1550 C 0.0201 0.16329 0.48621 0.0
C1551 C 0.01396 0.16169 0.50903 0.0
C1552 C 0.02356 0.1856 0.47863 0.0
C1553 C 0.02107 0.20631 0.49398 0.0
C1554 C 1.01191 0.20393 0.51498 0.0
C1555 C 1.0082 0.18166 0.52235 0.0
H1556 H 0.5813 0.26605 0.14683 0.0
H1557 H 0.56604 0.19865 0.17251 0.0
H1558 H 0.61398 0.27453 0.17321 0.0
H1559 H 0.59686 0.20773 0.20049 0.0
H1560 H 0.65975 0.21815 0.23659 0.0
H1561 H 0.63001 0.21001 0.20717 0.0
H1562 H 0.62921 0.28656 0.21205 0.0
H1563 H 0.66134 0.29443 0.23963 0.0
C1564 C 0.58538 0.25279 0.15765 0.0
C1565 C 0.57178 0.23142 0.15739 0.0
C1566 C 0.60371 0.2579 0.17328 0.0
C1567 C 0.60822 0.24193 0.18924 0.0
C1568 C 0.59458 0.22022 0.1881 0.0
C1569 C 0.57679 0.21486 0.17202 0.0
C1570 C 0.65288 0.23319 0.23172 0.0
C1571 C 0.6623 0.25681 0.2405 0.0
C1572 C 0.6357 0.22859 0.21484 0.0
C1573 C 0.6268 0.24756 0.20724 0.0
C1574 C 0.6358 0.27146 0.21706 0.0
C1575 C 0.65383 0.27607 0.23325 0.0
H1576 H 0.56117 0.88625 0.95833 0.0
H1577 H 0.60609 0.94161 1.00146 0.0
H1578 H 0.5336 0.9022 0.97697 0.0
H1579 H 0.57874 0.95879 0.01963 0.0
H1580 H 0.55117 0.9506 0.07819 0.0
H1581 H 0.55932 0.92226 0.04588 0.0
H1582 H 0.5186 0.94813 0.99484 0.0
H1583 H 0.50976 0.97508 0.02776 0.0
C1584 C 0.56478 0.90287 0.97036 0.0
C1585 C 0.58531 0.91242 0.97879 0.0
C1586 C 0.54918 0.91185 0.98124 0.0
C1587 C 0.55445 0.93086 1.00023 0.0
C1588 C 0.57468 0.94349 1.0053 0.0
C1589 C 0.59026 0.93398 0.99479 0.0
C1590 C 0.54252 0.94863 0.06048 0.0
C1591 C 0.5313 0.96627 0.05446 0.0
C1592 C 0.54741 0.9327 0.04193 0.0
C1593 C 0.54054 0.93461 0.01804 0.0
C1594 C 0.52453 0.94712 0.01321 0.0
C1595 C 0.51929 0.96245 0.03207 0.0
H1596 H 0.95628 0.68571 0.69851 0.0
H1597 H 0.97832 0.755 0.67927 0.0
H1598 H 0.93498 0.70475 0.72576 0.0
H1599 H 0.96007 0.77413 0.70815 0.0
H1600 H 0.90931 0.80174 0.73973 0.0
H1601 H 0.92962 0.78155 0.7139 0.0
H1602 H 0.93357 0.72863 0.7618 0.0
H1603 H 0.91025 0.74772 0.78616 0.0
C1604 C 0.95639 0.70489 0.70007 0.0
C1605 C 0.96837 0.71886 0.68653 0.0
C1606 C 0.94465 0.7159 0.71597 0.0
C1607 C 0.94562 0.74105 0.71912 0.0
C1608 C 0.958 0.7547 0.70559 0.0
C1609 C 0.96864 0.74367 0.68896 0.0
C1610 C 0.91465 0.78585 0.74479 0.0
C1611 C 0.90807 0.77592 0.76447 0.0
C1612 C 0.92662 0.77434 0.73016 0.0
C1613 C 0.93344 0.75335 0.73569 0.0
C1614 C 0.92817 0.7444 0.75666 0.0
C1615 C 0.91527 0.75553 0.7709 0.0
H1616 H 0.1139 0.98425 0.87636 0.0
H1617 H 0.13103 0.0608 0.89715 0.0
H1618 H 0.09615 0.98224 0.91232 0.0
H1619 H 0.11358 0.05899 0.93299 0.0
H1620 H 0.08999 0.04837 1.00609 0.0
H1621 H 0.11065 0.04907 0.97229 0.0
H1622 H 0.06703 0.99048 0.93049 0.0
H1623 H 0.04683 0.98979 0.96391 0.0
C1624 C 0.11439 1.00062 0.88886 0.0
C1625 C 0.12451 0.02263 0.88376 0.0
C1626 C 0.10384 0.99959 0.90953 0.0
C1627 C 0.10313 0.02048 0.92625 0.0
C1628 C 0.11373 0.04232 0.92126 0.0
C1629 C 0.1239 0.04337 0.90046 0.0
C1630 C 0.08497 0.03542 0.98984 0.0
C1631 C 0.06663 0.01886 0.98826 0.0
C1632 C 0.09677 0.03593 0.97011 0.0
C1633 C 0.0909 0.01973 0.94804 0.0
C1634 C 0.07267 1.00306 0.94685 0.0
C1635 C 0.06087 1.00275 0.9663 0.0
H1636 H 0.75086 0.3588 0.60954 0.0
H1637 H 0.76685 0.30549 0.55589 0.0
H1638 H 0.78026 0.35475 0.63708 0.0
H1639 H 0.79739 0.30345 0.58176 0.0
H1640 H 0.83278 0.28506 0.64849 0.0
H1641 H 0.81202 0.29123 0.61376 0.0
H1642 H 0.81533 0.36589 0.64466 0.0
H1643 H 0.83454 0.35852 0.68117 0.0
C1644 C 0.76042 0.34574 0.60403 0.0
C1645 C 0.75664 0.33227 0.58095 0.0
C1646 C 0.77771 0.34408 0.6193 0.0
C1647 C 0.7918 0.32957 0.61128 0.0
C1648 C 0.78702 0.31481 0.5887 0.0
C1649 C 0.76927 0.31568 0.57394 0.0
C1650 C 0.8301 0.30321 0.64751 0.0
C1651 C 0.83367 0.3208 0.66817 0.0
C1652 C 0.81782 0.30673 0.62741 0.0
C1653 C 0.81059 0.32861 0.62724 0.0
C1654 C 0.8194 0.34826 0.64514 0.0
C1655 C 0.83106 0.34435 0.66571 0.0
H1656 H 0.46752 0.08236 0.37789 0.0
H1657 H 0.45415 1.00508 0.36685 0.0
H1658 H 0.48492 0.0822 0.41847 0.0
H1659 H 0.47141 1.00469 0.40695 0.0
H1660 H 0.49532 1.0086 0.48686 0.0
H1661 H 0.47374 1.01083 0.44941 0.0
H1662 H 0.51481 0.07423 0.44013 0.0
H1663 H 0.5361 0.07174 0.47723 0.0
C1664 C 0.4678 0.06534 0.38426 0.0
C1665 C 0.45894 0.04377 0.36891 0.0
C1666 C 0.47814 0.06514 0.40759 0.0
C1667 C 0.47988 0.04337 0.41664 0.0
C1668 C 0.4704 0.02194 0.40138 0.0
C1669 C 0.46039 0.02216 0.37809 0.0
C1670 C 0.49939 0.0234 0.47719 0.0
C1671 C 0.51731 0.04036 0.48569 0.0
C1672 C 0.48716 0.02452 0.45529 0.0
C1673 C 0.4922 0.04281 0.44112 0.0
C1674 C 0.50987 0.06006 0.45021 0.0
C1675 C 0.52221 0.05866 0.47175 0.0
H1676 H 0.77138 0.73065 0.09253 0.0
H1677 H 0.7781 0.66763 0.1253 0.0
H1678 H 0.77506 0.75478 0.13271 0.0
H1679 H 0.782 0.69164 0.16502 0.0
H1680 H 0.75832 0.73086 0.22822 0.0
H1681 H 0.75625 0.71078 0.18672 0.0
H1682 H 0.80004 0.76924 0.17157 0.0
H1683 H 0.8023 0.78913 0.21349 0.0
C1684 C 0.77393 0.72206 0.10825 0.0
C1685 C 0.77398 0.69718 0.10584 0.0
C1686 C 0.77605 0.73584 0.13117 0.0
C1687 C 0.77829 0.72488 0.15186 0.0
C1688 C 0.77969 0.70037 0.14933 0.0
C1689 C 0.77751 0.68666 0.12658 0.0
C1690 C 0.76715 0.73955 0.21582 0.0
C1691 C 0.78035 0.76144 0.22366 0.0
C1692 C 0.76618 0.72801 0.19224 0.0
C1693 C 0.77821 0.73836 0.17611 0.0
C1694 C 0.79063 0.76094 0.18369 0.0
C1695 C 0.79192 0.77227 0.20751 0.0
H1696 H 0.09916 1.00804 0.75012 0.0
H1697 H 0.15592 0.02078 0.71983 0.0
H1698 H 0.0801 1.0109 0.71144 0.0
H1699 H 0.13706 0.02421 0.68143 0.0
H1700 H 0.09721 1.00642 0.60772 0.0
H1701 H 0.11583 1.00342 0.64655 0.0
H1702 H 0.07081 0.03609 0.68326 0.0
H1703 H 0.05239 0.0392 0.64425 0.0
C1704 C 0.10764 1.01149 0.73526 0.0
C1705 C 0.12923 1.014 0.73838 0.0
C1706 C 0.09666 1.01333 0.71294 0.0
C1707 C 0.1068 0.01775 0.69278 0.0
C1708 C 0.12841 0.02037 0.69605 0.0
C1709 C 0.13936 0.01851 0.71832 0.0
C1710 C 0.0912 1.01281 0.62408 0.0
C1711 C 0.07313 0.02286 0.62267 0.0
C1712 C 0.10205 1.01136 0.64654 0.0
C1713 C 0.09506 0.01948 0.66856 0.0
C1714 C 0.07677 0.0293 0.66702 0.0
C1715 C 0.06617 0.03122 0.64453 0.0
H1716 H 0.78195 0.31774 0.47923 0.0
H1717 H 0.73154 0.30803 0.42239 0.0
H1718 H 0.80634 0.32311 0.45032 0.0
H1719 H 0.75539 0.31122 0.39323 0.0
H1720 H 0.77294 0.32012 0.34764 0.0
H1721 H 0.77957 0.34772 0.38458 0.0
H1722 H 0.81946 0.30374 0.4145 0.0
H1723 H 0.81684 0.27883 0.37513 0.0
C1724 C 0.77614 0.31512 0.46023 0.0
C1725 C 0.75508 0.31345 0.45276 0.0
C1726 C 0.79008 0.31913 0.44395 0.0
C1727 C 0.78284 0.3198 0.42 0.0
C1728 C 0.76159 0.31289 0.41198 0.0
C1729 C 0.74778 0.3097 0.42837 0.0
C1730 C 0.78485 0.31765 0.361 0.0
C1731 C 0.79392 0.29691 0.3589 0.0
C1732 C 0.78881 0.33363 0.38238 0.0
C1733 C 0.79717 0.32505 0.40257 0.0
C1734 C 0.81096 0.30891 0.39921 0.0
C1735 C 0.80893 0.29413 0.37699 0.0
H1736 H 0.45567 0.08537 0.22182 0.0
H1737 H 0.44727 1.00858 0.21809 0.0
H1738 H 0.47405 0.08245 0.18647 0.0
H1739 H 0.46645 1.00541 0.18331 0.0
H1740 H 0.48758 1.0038 0.10774 0.0
H1741 H 0.46876 1.00617 0.14273 0.0
H1742 H 0.50337 0.07705 0.16946 0.0
H1743 H 0.52207 0.07439 0.13436 0.0
C1744 C 0.45786 0.06779 0.21351 0.0
C1745 C 0.44983 0.04725 0.22296 0.0
C1746 C 0.46866 0.06604 0.19315 0.0
C1747 C 0.47218 0.04364 0.18145 0.0
C1748 C 0.46407 0.02306 0.19111 0.0
C1749 C 0.45306 0.02483 0.21133 0.0
C1750 C 0.49119 0.0199 0.12112 0.0
C1751 C 0.50649 0.03888 0.11802 0.0
C1752 C 0.48042 0.02125 0.14151 0.0
C1753 C 0.48415 0.04188 0.15955 0.0
C1754 C 0.49949 0.0609 0.15621 0.0
C1755 C 0.51051 0.05933 0.13603 0.0
H1756 H 0.75068 0.72872 0.97072 0.0
H1757 H 0.79201 0.68025 0.9499 0.0
H1758 H 0.75765 0.74958 0.93656 0.0
H1759 H 0.7992 0.70134 0.91608 0.0
H1760 H 0.82404 0.76567 0.87842 0.0
H1761 H 0.81638 0.74357 0.91142 0.0
H1762 H 0.7516 0.73939 0.8898 0.0
H1763 H 0.75942 0.76103 0.85624 0.0
C1764 C 0.76125 0.72256 0.95886 0.0
C1765 C 0.7707 0.70278 0.96287 0.0
C1766 C 0.76514 0.73439 0.93927 0.0
C1767 C 0.77889 0.72699 0.92364 0.0
C1768 C 0.78857 0.70744 0.92787 0.0
C1769 C 0.78437 0.69532 0.94715 0.0
C1770 C 0.80817 0.75992 0.88071 0.0
C1771 C 0.79225 0.76502 0.86495 0.0
C1772 C 0.8038 0.7472 0.89948 0.0
C1773 C 0.78341 0.73986 0.90321 0.0
C1774 C 0.76746 0.74501 0.88741 0.0
C1775 C 0.77187 0.75722 0.86819 0.0
H1776 H 0.84812 0.13256 0.04448 0.0
H1777 H 0.8981 0.15971 0.10126 0.0
H1778 H 0.87204 0.1207 0.01721 0.0
H1779 H 0.92224 0.14596 0.07482 0.0
H1780 H 0.96269 0.11639 0.02936 0.0
H1781 H 0.93975 0.14481 0.04018 0.0
H1782 H 0.88778 0.08728 0.01836 0.0
H1783 H 0.9103 0.05992 1.00679 0.0
C1784 C 0.86434 0.13543 0.05107 0.0
C1785 C 0.87161 0.14564 0.07489 0.0
C1786 C 0.87798 0.12903 0.03553 0.0
C1787 C 0.89891 0.1319 0.04404 0.0
C1788 C 0.9062 0.14363 0.06768 0.0
C1789 C 0.89251 0.15081 0.08302 0.0
C1790 C 0.94626 0.11037 0.02601 0.0
C1791 C 0.93809 0.08612 0.01748 0.0
C1792 C 0.93321 0.12647 0.03226 0.0
C1793 C 0.91205 0.11819 0.03046 0.0
C1794 C 0.90394 0.09447 0.01963 0.0
C1795 C 0.91688 0.07863 0.01304 0.0
H1796 H 0.38725 0.4647 0.1043 0.0
H1797 H 0.38591 0.42574 0.03305 0.0
H1798 H 0.4232 0.48168 0.1044 0.0
H1799 H 0.42184 0.4433 0.03248 0.0
H1800 H 0.49206 0.47389 0.04335 0.0
H1801 H 0.45822 0.44979 0.04512 0.0
H1802 H 0.44111 0.51114 0.08734 0.0
H1803 H 0.47421 0.53413 0.08639 0.0
C1804 C 0.39482 0.45943 0.08882 0.0
C1805 C 0.38385 0.44372 0.06882 0.0
C1806 C 0.41543 0.46947 0.0886 0.0
C1807 C 0.42564 0.46443 0.06817 0.0
C1808 C 0.41479 0.44767 0.04859 0.0
C1809 C 0.39413 0.43757 0.04889 0.0
C1810 C 0.4811 0.48197 0.05325 0.0
C1811 C 0.48617 0.50597 0.06497 0.0
C1812 C 0.46158 0.46824 0.05415 0.0
C1813 C 0.44674 0.47818 0.06684 0.0
C1814 C 0.45201 0.50224 0.07812 0.0
C1815 C 0.47122 0.51568 0.07732 0.0
H1816 H 0.35372 0.59682 0.77285 0.0
H1817 H 0.40891 0.64312 0.80792 0.0
H1818 H 0.33568 0.63062 0.77469 0.0
H1819 H 0.39111 0.67732 0.81039 0.0
H1820 H 0.35752 0.74176 0.8108 0.0
H1821 H 0.37574 0.70797 0.80927 0.0
H1822 H 0.31923 0.66016 0.77909 0.0
H1823 H 0.30152 0.69421 0.78047 0.0
C1824 C 0.36212 0.61433 0.78111 0.0
C1825 C 0.38304 0.61669 0.79015 0.0
C1826 C 0.35158 0.6343 0.78232 0.0
C1827 C 0.36126 0.65805 0.79276 0.0
C1828 C 0.38233 0.66017 0.80194 0.0
C1829 C 0.39287 0.64013 0.80063 0.0
C1830 C 0.34896 0.724 0.80374 0.0
C1831 C 0.32779 0.72127 0.79569 0.0
C1832 C 0.35956 0.70405 0.80288 0.0
C1833 C 0.34965 0.68002 0.79393 0.0
C1834 C 0.3283 0.67756 0.78602 0.0
C1835 C 0.31776 0.69752 0.78686 0.0
H1836 H 0.25398 0.70191 0.57215 0.0
H1837 H 0.27915 0.64116 0.59308 0.0
H1838 H 0.21943 0.67762 0.56584 0.0
H1839 H 0.24548 0.61703 0.58588 0.0
H1840 H 0.18328 0.58867 0.60066 0.0
H1841 H 0.21591 0.61499 0.60517 0.0
H1842 H 0.19721 0.64242 0.54016 0.0
H1843 H 0.16355 0.61639 0.5364 0.0
C1844 C 0.25209 0.68349 0.5755 0.0
C1845 C 0.26912 0.67341 0.58329 0.0
C1846 C 0.23246 0.66954 0.57158 0.0
C1847 C 0.22976 0.64548 0.57555 0.0
C1848 C 0.24693 0.63563 0.58316 0.0
C1849 C 0.2663 0.64944 0.58716 0.0
C1850 C 0.18624 0.60001 0.58708 0.0
C1851 C 0.17121 0.60021 0.56791 0.0
C1852 C 0.20492 0.61515 0.58967 0.0
C1853 C 0.20925 0.63053 0.57282 0.0
C1854 C 0.1942 0.63082 0.55348 0.0
C1855 C 0.17514 0.61583 0.55115 0.0
H1856 H 0.6761 0.92187 0.81722 0.0
H1857 H 0.7279 0.96374 0.79447 0.0
H1858 H 0.69501 0.88882 0.81953 0.0
H1859 H 0.74674 0.93031 0.79546 0.0
H1860 H 0.7836 0.87063 0.80914 0.0
H1861 H 0.76542 0.90457 0.80921 0.0
H1862 H 0.70823 0.85654 0.80753 0.0
H1863 H 0.72672 0.82293 0.80827 0.0
C1864 C 0.69154 0.92405 0.81242 0.0
C1865 C 0.70015 0.94593 0.80557 0.0
C1866 C 0.70261 0.90467 0.81356 0.0
C1867 C 0.72292 0.90581 0.80755 0.0
C1868 C 0.73149 0.92791 0.80068 0.0
C1869 C 0.72046 0.94743 0.79988 0.0
C1870 C 0.76714 0.86725 0.80906 0.0
C1871 C 0.75693 0.84352 0.80885 0.0
C1872 C 0.75642 0.88703 0.80879 0.0
C1873 C 0.73479 0.8843 0.80829 0.0
C1874 C 0.7247 0.86043 0.80832 0.0
C1875 C 0.73544 0.84067 0.80857 0.0
H1876 H 0.76903 0.96012 0.58187 0.0
H1877 H 0.74215 0.8896 0.54345 0.0
H1878 H 0.73696 0.97439 0.57239 0.0
H1879 H 0.71009 0.90408 0.53331 0.0
H1880 H 0.64953 0.93444 0.54419 0.0
H1881 H 0.68109 0.91755 0.55079 0.0
H1882 H 0.71655 0.98418 0.53933 0.0
H1883 H 0.68528 1.00094 0.5333 0.0
C1884 C 0.75629 0.94768 0.57131 0.0
C1885 C 0.75818 0.92374 0.56349 0.0
C1886 C 0.7379 0.9559 0.56566 0.0
C1887 C 0.72091 0.94046 0.55189 0.0
C1888 C 0.72276 0.91642 0.54413 0.0
C1889 C 0.74118 0.90815 0.54989 0.0
C1890 C 0.66413 0.94532 0.54304 0.0
C1891 C 0.665 0.96901 0.53836 0.0
C1892 C 0.68218 0.93564 0.54661 0.0
C1893 C 0.70144 0.94962 0.54593 0.0
C1894 C 0.70209 0.97305 0.54052 0.0
C1895 C 0.68414 0.9826 0.5368 0.0
H1896 H 0.36812 0.45922 0.7491 0.0
H1897 H 0.39116 0.46561 0.82398 0.0
H1898 H 0.34737 0.42069 0.75075 0.0
H1899 H 0.36958 0.42764 0.82655 0.0
H1900 H 0.33718 0.3502 0.8252 0.0
H1901 H 0.35931 0.38815 0.82316 0.0
H1902 H 0.32241 0.39376 0.75714 0.0
H1903 H 0.30121 0.3559 0.75924 0.0
C1904 C 0.36822 0.45274 0.76624 0.0
C1905 C 0.38103 0.46615 0.78651 0.0
C1906 C 0.35616 0.43023 0.76735 0.0
C1907 C 0.35617 0.41994 0.78891 0.0
C1908 C 0.36887 0.43387 0.80933 0.0
C1909 C 0.38116 0.45623 0.80805 0.0
C1910 C 0.33429 0.35924 0.80987 0.0
C1911 C 0.31762 0.34932 0.79199 0.0
C1912 C 0.34682 0.38161 0.80884 0.0
C1913 C 0.34321 0.39516 0.78991 0.0
C1914 C 0.32662 0.3846 0.77192 0.0
C1915 C 0.31418 0.36245 0.77304 0.0
H1916 H 0.2232 0.57985 0.30217 0.0
H1917 H 0.17427 0.6179 0.32062 0.0
H1918 H 0.24586 0.61862 0.30365 0.0
H1919 H 0.19635 0.65595 0.32165 0.0
H1920 H 0.24329 0.72394 0.33933 0.0
H1921 H 0.22427 0.68443 0.34215 0.0
H1922 H 0.25185 0.65259 0.2824 0.0
H1923 H 0.271 0.69199 0.27983 0.0
C1924 C 0.2173 0.59636 0.3068 0.0
C1925 C 0.19676 0.59547 0.31121 0.0
C1926 C 0.23025 0.6187 0.30743 0.0
C1927 C 0.22311 0.6408 0.31278 0.0
C1928 C 0.20275 0.63967 0.31781 0.0
C1929 C 0.18991 0.61758 0.31702 0.0
C1930 C 0.24545 0.70852 0.3269 0.0
C1931 C 0.25869 0.71145 0.30926 0.0
C1932 C 0.23437 0.68572 0.32837 0.0
C1933 C 0.23624 0.66494 0.31239 0.0
C1934 C 0.24999 0.66785 0.29522 0.0
C1935 C 0.26091 0.69066 0.29362 0.0
H1936 H 0.51594 0.71861 0.50734 0.0
H1937 H 0.51611 0.67207 0.44011 0.0
H1938 H 0.52446 0.6868 0.52953 0.0
H1939 H 0.52446 0.64034 0.46226 0.0
H1940 H 0.55835 0.59663 0.50867 0.0
H1941 H 0.55309 0.63139 0.48923 0.0
H1942 H 0.50749 0.64637 0.53587 0.0
H1943 H 0.51263 0.61123 0.55496 0.0
C1944 C 0.51766 0.70156 0.4973 0.0
C1945 C 0.51511 0.69776 0.47196 0.0
C1946 C 0.52254 0.68337 0.51002 0.0
C1947 C 0.52517 0.66112 0.49764 0.0
C1948 C 0.52278 0.6574 0.47232 0.0
C1949 C 0.51776 0.67549 0.45962 0.0
C1950 C 0.54742 0.60763 0.51488 0.0
C1951 C 0.53585 0.60153 0.53316 0.0
C1952 C 0.5443 0.62735 0.50371 0.0
C1953 C 0.52978 0.64149 0.51093 0.0
C1954 C 0.51887 0.63589 0.53004 0.0
C1955 C 0.52171 0.61583 0.54089 0.0
H1956 H 0.65752 0.31888 0.67969 0.0
H1957 H 0.62611 0.29306 0.73651 0.0
H1958 H 0.68991 0.31195 0.69958 0.0
H1959 H 0.65847 0.28667 0.75685 0.0
H1960 H 0.71604 0.26066 0.78197 0.0
H1961 H 0.68429 0.2636 0.75755 0.0
H1962 H 0.7158 0.32523 0.73162 0.0
H1963 H 0.74768 0.32117 0.75518 0.0
C1964 C 0.65757 0.31185 0.69655 0.0
C1965 C 0.63923 0.30667 0.70656 0.0
C1966 C 0.67622 0.30798 0.7081 0.0
C1967 C 0.67709 0.29865 0.72997 0.0
C1968 C 0.6586 0.29344 0.73989 0.0
C1969 C 0.63998 0.29743 0.72838 0.0
C1970 C 0.71624 0.27426 0.77033 0.0
C1971 C 0.73441 0.29025 0.76992 0.0
C1972 C 0.69793 0.27632 0.75665 0.0
C1973 C 0.69714 0.29489 0.74265 0.0
C1974 C 0.71563 0.31045 0.74176 0.0
C1975 C 0.73402 0.30811 0.75519 0.0
H1976 H 0.99341 0.32673 0.98997 0.0
H1977 H 0.04469 0.35333 0.95447 0.0
H1978 H 0.99772 0.36595 0.01603 0.0
H1979 H 0.04839 0.39209 0.97908 0.0
H1980 H 0.06294 0.45487 0.03353 0.0
H1981 H 0.05883 0.41297 0.01726 0.0
H1982 H 0.99301 0.40696 0.01411 0.0
H1983 H 0.99721 0.44944 0.03182 0.0
C1984 C 1.0057 0.34085 0.98798 0.0
C1985 C 0.01864 0.33719 0.97016 0.0
C1986 C 1.00802 0.36332 1.00263 0.0
C1987 C 0.0234 0.38221 0.9997 0.0
C1988 C 0.03665 0.37796 0.98233 0.0
C1989 C 0.0344 0.35573 0.96795 0.0
C1990 C 0.04751 0.44473 0.02971 0.0
C1991 C 0.03034 0.45569 0.03366 0.0
C1992 C 0.04516 0.42059 0.02014 0.0
C1993 C 0.02557 0.40668 0.01373 0.0
C1994 C 1.00834 0.41717 0.01889 0.0
C1995 C 1.01073 0.44153 0.02887 0.0
H1996 H 0.02386 0.79154 0.24599 0.0
H1997 H 1.00545 0.78489 0.16947 0.0
H1998 H 0.98834 0.78278 0.25261 0.0
H1999 H 0.96939 0.77517 0.17602 0.0
H2000 H 0.90666 0.7841 0.20622 0.0
H2001 H 0.94079 0.79028 0.19345 0.0
H2002 H 0.96201 0.74895 0.24658 0.0
H2003 H 0.92877 0.74437 0.26051 0.0
C2004 C 1.01216 0.78819 0.23053 0.0
C2005 C 0.0175 0.7888 0.20723 0.0
C2006 C 0.99173 0.78285 0.23427 0.0
C2007 C 0.97595 0.77757 0.21479 0.0
C2008 C 0.98115 0.77905 0.19143 0.0
C2009 C 1.00178 0.7847 0.18768 0.0
C2010 C 0.91862 0.7763 0.21516 0.0
C2011 C 0.91492 0.76417 0.23481 0.0
C2012 C 0.93815 0.77963 0.20762 0.0
C2013 C 0.95434 0.77074 0.21946 0.0
C2014 C 0.9501 0.75676 0.23756 0.0
C2015 C 0.93078 0.75373 0.24529 0.0
H2016 H 0.54548 0.27513 0.09713 0.0
H2017 H 0.50096 0.31512 0.126 0.0
H2018 H 0.56832 0.31227 0.09615 0.0
H2019 H 0.52301 0.35266 0.12302 0.0
H2020 H 0.56382 0.41758 0.12627 0.0
H2021 H 0.5539 0.37894 0.13946 0.0
H2022 H 0.57052 0.34284 0.07349 0.0
H2023 H 0.58128 0.38092 0.06132 0.0
C2024 C 0.5403 0.29202 0.10238 0.0
C2025 C 0.52137 0.2926 0.11109 0.0
C2026 C 0.55348 0.31325 0.10211 0.0
C2027 C 0.54761 0.3354 0.10977 0.0
C2028 C 0.52828 0.33586 0.11774 0.0
C2029 C 0.51539 0.31453 0.11883 0.0
C2030 C 0.56646 0.40134 0.11545 0.0
C2031 C 0.5727 0.40197 0.09256 0.0
C2032 C 0.56044 0.37927 0.1227 0.0
C2033 C 0.56051 0.35792 0.10695 0.0
C2034 C 0.57008 0.35891 0.08602 0.0
C2035 C 0.57643 0.38089 0.07905 0.0
H2036 H 1.00477 0.35985 0.46515 0.0
H2037 H 0.0275 0.34194 0.39732 0.0
H2038 H 0.97002 0.34079 0.44667 0.0
H2039 H 0.99312 0.32298 0.37878 0.0
H2040 H 0.93044 0.28153 0.35221 0.0
H2041 H 0.96424 0.29042 0.37693 0.0
H2042 H 0.94616 0.35249 0.41708 0.0
H2043 H 0.91271 0.34302 0.39322 0.0
C2044 C 1.00219 0.352 0.44627 0.0
C2045 C 0.01836 0.35305 0.43227 0.0
C2046 C 0.98248 0.34093 0.43574 0.0
C2047 C 0.97888 0.33044 0.41125 0.0
C2048 C 0.9954 0.33064 0.3977 0.0
C2049 C 0.01495 0.34195 0.40812 0.0
C2050 C 0.93376 0.29663 0.36678 0.0
C2051 C 0.91928 0.31159 0.3712 0.0
C2052 C 0.95296 0.30179 0.3808 0.0
C2053 C 0.95778 0.32212 0.399 0.0
C2054 C 0.94282 0.33643 0.40364 0.0
C2055 C 0.92375 0.33115 0.38991 0.0
H2056 H 1.00352 0.65744 0.65718 0.0
H2057 H 0.96601 0.65207 0.59003 0.0
H2058 H 0.02189 0.62702 0.64005 0.0
H2059 H 0.98286 0.62012 0.57239 0.0
H2060 H 0.03883 0.6243 0.53706 0.0
H2061 H 0.017 0.64155 0.56434 0.0
H2062 H 0.03401 0.59624 0.61572 0.0
H2063 H 0.05609 0.58083 0.58888 0.0
C2064 C 0.99836 0.64864 0.63891 0.0
C2065 C 0.98754 0.6601 0.62256 0.0
C2066 C 1.00898 0.6312 0.62908 0.0
C2067 C 1.00529 0.6235 0.60408 0.0
C2068 C 0.98716 0.62758 0.59127 0.0
C2069 C 0.97722 0.6455 0.60156 0.0
C2070 C 0.03897 0.61931 0.55489 0.0
C2071 C 0.04743 0.5993 0.56012 0.0
C2072 C 0.02572 0.62826 0.56999 0.0
C2073 C 0.02227 0.61813 0.59091 0.0
C2074 C 0.0354 0.60326 0.59899 0.0
C2075 C 0.04876 0.59489 0.58387 0.0
H2076 H 0.6103 0.85464 0.89833 0.0
H2077 H 0.62625 0.7909 0.9237 0.0
H2078 H 0.62464 0.84399 0.86095 0.0
H2079 H 0.64042 0.78013 0.88624 0.0
H2080 H 0.64564 0.75375 0.81202 0.0
H2081 H 0.62352 0.76897 0.84031 0.0
H2082 H 0.66264 0.83846 0.85304 0.0
H2083 H 0.68485 0.82314 0.82486 0.0
C2084 C 0.61699 0.83845 0.89585 0.0
C2085 C 0.61732 0.82345 0.9135 0.0
C2086 C 0.625 0.83237 0.87458 0.0
C2087 C 0.63296 0.81104 0.8708 0.0
C2088 C 0.63378 0.79638 0.88878 0.0
C2089 C 0.6261 0.80268 0.91021 0.0
C2090 C 0.64881 0.77259 0.81992 0.0
C2091 C 0.66677 0.7874 0.81662 0.0
C2092 C 0.63635 0.78117 0.83615 0.0
C2093 C 0.6418 0.8046 0.84885 0.0
C2094 C 0.65829 0.82032 0.84325 0.0
C2095 C 0.67088 0.81166 0.8272 0.0
H2096 H 0.4316 0.55922 0.69505 0.0
H2097 H 0.47936 0.53488 0.73754 0.0
H2098 H 0.45123 0.55774 0.66105 0.0
H2099 H 0.4995 0.53384 0.70405 0.0
H2100 H 0.53291 0.52376 0.63808 0.0
H2101 H 0.51198 0.52319 0.67074 0.0
H2102 H 0.47311 0.5657 0.63546 0.0
H2103 H 0.49377 0.56478 0.60219 0.0
C2104 C 0.44639 0.55354 0.69724 0.0
C2105 C 0.45357 0.5471 0.71945 0.0
C2106 C 0.45803 0.55284 0.67746 0.0
C2107 C 0.47756 0.54553 0.67865 0.0
C2108 C 0.48467 0.53918 0.70117 0.0
C2109 C 0.47303 0.53999 0.72094 0.0
C2110 C 0.51954 0.53248 0.63699 0.0
C2111 C 0.51486 0.54359 0.61675 0.0
C2112 C 0.50746 0.5326 0.65628 0.0
C2113 C 0.49025 0.54457 0.65692 0.0
C2114 C 0.48566 0.55575 0.63641 0.0
C2115 C 0.49759 0.55516 0.61681 0.0
H2116 H 0.84342 0.23514 1.00727 0.0
H2117 H 0.79421 0.22955 0.05153 0.0
H2118 H 0.81871 0.23919 0.97294 0.0
H2119 H 0.76973 0.23251 0.01732 0.0
H2120 H 0.74014 0.21676 0.92931 0.0
H2121 H 0.76112 0.20587 0.96341 0.0
H2122 H 0.79232 0.2793 0.98155 0.0
H2123 H 0.7714 0.29041 0.9488 0.0
C2124 C 0.82743 0.2349 1.00955 0.0
C2125 C 0.82067 0.2332 0.03197 0.0
C2126 C 0.81337 0.2367 0.99005 0.0
C2127 C 0.79254 0.23576 0.99286 0.0
C2128 C 0.78574 0.23295 0.01496 0.0
C2129 C 0.79976 0.23185 0.03448 0.0
C2130 C 0.75078 0.23065 0.94138 0.0
C2131 C 0.75387 0.25443 0.93673 0.0
C2132 C 0.76299 0.22438 0.96035 0.0
C2133 C 0.77848 0.24179 0.97417 0.0
C2134 C 0.78059 0.26569 0.9706 0.0
C2135 C 0.76822 0.27206 0.95224 0.0
H2136 H 0.12708 0.47625 0.21314 0.0
H2137 H 0.12192 0.54829 0.24303 0.0
H2138 H 0.10817 0.48047 0.17532 0.0
H2139 H 0.10256 0.55297 0.20557 0.0
H2140 H 0.07086 0.56228 0.13296 0.0
H2141 H 0.09216 0.55885 0.16951 0.0
H2142 H 0.0851 0.48205 0.14604 0.0
H2143 H 0.06483 0.48637 0.10917 0.0
C2144 C 0.12178 0.4931 0.21162 0.0
C2145 C 0.12614 0.51185 0.23137 0.0
C2146 C 0.11057 0.49565 0.18963 0.0
C2147 C 0.1032 0.51724 0.18613 0.0
C2148 C 0.10775 0.53602 0.20629 0.0
C2149 C 0.11888 0.53334 0.22832 0.0
C2150 C 0.07447 0.54478 0.13537 0.0
C2151 C 0.06661 0.52477 0.11747 0.0
C2152 C 0.08654 0.54256 0.15691 0.0
C2153 C 0.09092 0.51999 0.16203 0.0
C2154 C 0.08297 0.50001 0.14369 0.0
C2155 C 0.07117 0.50239 0.12202 0.0
H2156 H 0.83566 0.84715 0.50379 0.0
H2157 H 0.77754 0.86939 0.48726 0.0
H2158 H 0.83192 0.82364 0.46411 0.0
H2159 H 0.7721 0.84429 0.44907 0.0
H2160 H 0.77192 0.82057 0.37202 0.0
H2161 H 0.77403 0.83678 0.4128 0.0
H2162 H 0.82817 0.80449 0.42857 0.0
H2163 H 0.82635 0.78956 0.38603 0.0
C2164 C 0.82184 0.84648 0.49159 0.0
C2165 C 0.80724 0.86064 0.49794 0.0
C2166 C 0.81954 0.83295 0.46853 0.0
C2167 C 0.80227 0.83287 0.4516 0.0
C2168 C 0.78659 0.84497 0.45976 0.0
C2169 C 0.78935 0.85918 0.48225 0.0
C2170 C 0.78422 0.81668 0.38423 0.0
C2171 C 0.79882 0.80348 0.37578 0.0
C2172 C 0.78541 0.82592 0.40838 0.0
C2173 C 0.801 0.82186 0.42548 0.0
C2174 C 0.81576 0.80845 0.41678 0.0
C2175 C 0.81481 0.79964 0.39215 0.0
H2176 H 0.43368 0.53668 0.8773 0.0
H2177 H 0.49258 0.55617 0.85385 0.0
H2178 H 0.45053 0.53611 0.91796 0.0
H2179 H 0.50945 0.55679 0.89435 0.0
H2180 H 0.53685 0.52897 0.96022 0.0
H2181 H 0.51925 0.53208 0.92099 0.0
H2182 H 0.46894 0.55496 0.95544 0.0
H2183 H 0.48684 0.55177 0.99477 0.0
C2184 C 0.45019 0.5417 0.88102 0.0
C2185 C 0.46168 0.54689 0.86224 0.0
C2186 C 0.45998 0.54124 0.90443 0.0
C2187 C 0.48162 0.54608 0.9099 0.0
C2188 C 0.4929 0.55229 0.89118 0.0
C2189 C 0.48316 0.55239 0.86785 0.0
C2190 C 0.52209 0.53483 0.95944 0.0
C2191 C 0.51345 0.54039 0.98081 0.0
C2192 C 0.51193 0.53681 0.9368 0.0
C2193 C 0.49249 0.54406 0.93451 0.0
C2194 C 0.48373 0.54922 0.95603 0.0
C2195 C 0.49412 0.54765 0.97876 0.0
H2196 H 0.80088 0.19819 0.15112 0.0
H2197 H 0.85676 0.24918 0.1761 0.0
H2198 H 0.7809 0.22695 0.16542 0.0
H2199 H 0.83664 0.27716 0.19455 0.0
H2200 H 0.8113 0.32409 0.228 0.0
H2201 H 0.81548 0.30444 0.18828 0.0
H2202 H 0.76859 0.24522 0.19581 0.0
H2203 H 0.76272 0.26697 0.23308 0.0
C2204 C 0.80907 0.21526 0.16088 0.0
C2205 C 0.83049 0.22168 0.16228 0.0
C2206 C 0.7974 0.23196 0.16895 0.0
C2207 C 0.8069 0.25487 0.18035 0.0
C2208 C 0.82858 0.26023 0.18444 0.0
C2209 C 0.84029 0.24395 0.17484 0.0
C2210 C 0.80079 0.30782 0.21999 0.0
C2211 C 0.7882 0.29522 0.23395 0.0
C2212 C 0.80345 0.29626 0.19755 0.0
C2213 C 0.79446 0.27199 0.19074 0.0
C2214 C 0.77711 0.26322 0.20129 0.0
C2215 C 0.77358 0.27566 0.22288 0.0
H2216 H 0.12301 0.48699 0.37745 0.0
H2217 H 0.12373 0.56325 0.38263 0.0
H2218 H 0.10673 0.48716 0.41481 0.0
H2219 H 0.10781 0.56352 0.41949 0.0
H2220 H 0.09369 0.56154 0.49702 0.0
H2221 H 0.11213 0.55981 0.46167 0.0
H2222 H 0.07376 0.49225 0.43085 0.0
H2223 H 0.055 0.49436 0.46618 0.0
C2224 C 0.12013 0.50386 0.38672 0.0
C2225 C 0.12493 0.52512 0.37679 0.0
C2226 C 0.1105 0.50396 0.40809 0.0
C2227 C 0.1057 0.52538 0.42054 0.0
C2228 C 0.11125 0.54664 0.41093 0.0
C2229 C 0.12045 0.54646 0.38954 0.0
C2230 C 0.08914 0.54628 0.48273 0.0
C2231 C 0.07269 0.52816 0.48463 0.0
C2232 C 0.09972 0.54531 0.46224 0.0
C2233 C 0.09465 0.52585 0.44298 0.0
C2234 C 0.07841 0.50746 0.44516 0.0
C2235 C 0.06747 0.50876 0.46543 0.0
H2236 H 0.79744 0.88727 0.65895 0.0
H2237 H 0.81853 0.82672 0.62056 0.0
H2238 H 0.78979 0.86441 0.69102 0.0
H2239 H 0.81282 0.80441 0.65347 0.0
H2240 H 0.7885 0.76127 0.70835 0.0
H2241 H 0.79255 0.78297 0.67454 0.0
H2242 H 0.8017 0.85042 0.72356 0.0
H2243 H 0.79603 0.82857 0.75657 0.0
C2244 C 0.80081 0.86916 0.65764 0.0
C2245 C 0.8088 0.85887 0.6374 0.0
C2246 C 0.79659 0.85598 0.67619 0.0
C2247 C 0.80088 0.83238 0.67538 0.0
C2248 C 0.80883 0.82221 0.65489 0.0
C2249 C 0.81242 0.83514 0.63602 0.0
C2250 C 0.79141 0.78074 0.71173 0.0
C2251 C 0.79217 0.79318 0.73509 0.0
C2252 C 0.79391 0.79334 0.69236 0.0
C2253 C 0.79758 0.81874 0.69594 0.0
C2254 C 0.79845 0.83101 0.71957 0.0
C2255 C 0.7956 0.81842 0.73877 0.0
H2256 H 0.69861 0.37914 0.55442 0.0
H2257 H 0.69296 0.41327 0.49108 0.0
H2258 H 0.68327 0.41029 0.5767 0.0
H2259 H 0.67675 0.44388 0.51282 0.0
H2260 H 0.6747 0.50976 0.56194 0.0
H2261 H 0.69166 0.47699 0.54599 0.0
H2262 H 0.65094 0.4272 0.57781 0.0
H2263 H 0.6342 0.46028 0.59398 0.0
C2264 C 0.69303 0.3927 0.54504 0.0
C2265 C 0.69627 0.39388 0.52112 0.0
C2266 C 0.68461 0.41059 0.55779 0.0
C2267 C 0.67931 0.42957 0.54651 0.0
C2268 C 0.68123 0.42964 0.52198 0.0
C2269 C 0.68995 0.41197 0.50939 0.0
C2270 C 0.67003 0.49194 0.56623 0.0
C2271 C 0.65344 0.48719 0.57912 0.0
C2272 C 0.67943 0.47324 0.55689 0.0
C2273 C 0.67213 0.44965 0.56024 0.0
C2274 C 0.65672 0.4453 0.57501 0.0
C2275 C 0.64727 0.46407 0.58432 0.0
H2276 H 0.18193 0.15299 0.51663 0.0
H2277 H 0.20978 0.09413 0.53731 0.0
H2278 H 0.14846 0.13247 0.52293 0.0
H2279 H 0.17632 0.07315 0.54306 0.0
H2280 H 0.11685 0.04582 0.56886 0.0
H2281 H 0.1498 0.0702 0.56628 0.0
H2282 H 0.12106 0.10177 0.50913 0.0
H2283 H 0.08796 0.0782 0.51297 0.0
C2284 C 0.18087 0.13554 0.52239 0.0
C2285 C 0.19858 0.1252 0.52634 0.0
C2286 C 0.16157 0.1236 0.52588 0.0
C2287 C 0.15931 0.10095 0.53362 0.0
C2288 C 0.17718 0.09068 0.53756 0.0
C2289 C 0.19646 0.10258 0.53393 0.0
C2290 C 0.11754 0.05859 0.55631 0.0
C2291 C 0.09973 0.06053 0.54154 0.0
C2292 C 0.13656 0.0723 0.55443 0.0
C2293 C 0.13852 0.08795 0.5372 0.0
C2294 C 0.12043 0.09032 0.52289 0.0
C2295 C 0.10131 0.07685 0.52509 0.0
H2296 H 0.22751 0.96614 0.83049 0.0
H2297 H 0.17753 0.92257 0.78192 0.0
H2298 H 0.24597 0.93263 0.82914 0.0
H2299 H 0.19602 0.88893 0.7795 0.0
H2300 H 0.2296 0.82453 0.78036 0.0
H2301 H 0.21098 0.85799 0.7815 0.0
H2302 H 0.26365 0.90413 0.82435 0.0
H2303 H 0.28179 0.87036 0.82316 0.0
C2304 C 0.2204 0.94934 0.81928 0.0
C2305 C 0.20073 0.94757 0.80645 0.0
C2306 C 0.23121 0.92958 0.81833 0.0
C2307 C 0.22318 0.90676 0.80413 0.0
C2308 C 0.20343 0.9053 0.79104 0.0
C2309 C 0.19251 0.92502 0.79231 0.0
C2310 C 0.23723 0.84184 0.79012 0.0
C2311 C 0.25746 0.8442 0.80171 0.0
C2312 C 0.2264 0.86161 0.79075 0.0
C2313 C 0.2351 0.88505 0.80313 0.0
C2314 C 0.25551 0.88715 0.81465 0.0
C2315 C 0.26632 0.86738 0.81392 0.0
H2316 H 0.30556 0.91853 0.04152 0.0
H2317 H 0.32465 0.86682 0.98904 0.0
H2318 H 0.34075 0.93932 0.05197 0.0
H2319 H 0.36035 0.8861 1.0009 0.0
H2320 H 0.40796 0.94895 0.99137 0.0
H2321 H 0.37671 0.9208 0.99046 0.0
H2322 H 0.37541 0.94574 0.06628 0.0
H2323 H 0.40671 0.97486 0.06651 0.0
C2324 C 0.31756 0.91122 0.03287 0.0
C2325 C 0.31266 0.8917 0.01409 0.0
C2326 C 0.33777 0.92293 0.039 0.0
C2327 C 0.35339 0.91488 0.02673 0.0
C2328 C 0.34858 0.89343 1.00996 0.0
C2329 C 0.32826 0.88224 1.00325 0.0
C2330 C 0.40085 0.94836 1.00775 0.0
C2331 C 0.40923 0.96408 0.02884 0.0
C2332 C 0.38317 0.9319 1.00746 0.0
C2333 C 0.37354 0.93067 0.02839 0.0
C2334 C 0.38229 0.9463 0.04978 0.0
C2335 C 0.4001 0.96294 0.04999 0.0
H2336 H 0.85008 0.59396 0.7767 0.0
H2337 H 0.90592 0.64437 0.80021 0.0
H2338 H 0.83084 0.627 0.77618 0.0
H2339 H 0.8869 0.67753 0.80078 0.0
H2340 H 0.85184 0.73886 0.79084 0.0
H2341 H 0.87066 0.70546 0.78869 0.0
H2342 H 0.81426 0.65643 0.78853 0.0
H2343 H 0.79556 0.68992 0.78955 0.0
C2344 C 0.85836 0.61215 0.78194 0.0
C2345 C 0.87983 0.61603 0.78852 0.0
C2346 C 0.84714 0.63152 0.78185 0.0
C2347 C 0.85674 0.65596 0.78846 0.0
C2348 C 0.87832 0.65961 0.79505 0.0
C2349 C 0.8895 0.64025 0.79498 0.0
C2350 C 0.84336 0.72094 0.79023 0.0
C2351 C 0.82192 0.71763 0.79046 0.0
C2352 C 0.85434 0.70135 0.78923 0.0
C2353 C 0.84458 0.67725 0.78869 0.0
C2354 C 0.82297 0.67406 0.78863 0.0
C2355 C 0.81199 0.69365 0.7894 0.0
H2356 H 0.83512 0.66575 0.05042 0.0
H2357 H 0.81381 0.58941 0.0302 0.0
H2358 H 0.87027 0.65801 0.05998 0.0
H2359 H 0.8484 0.58184 0.03915 0.0
H2360 H 0.90239 0.5698 0.08342 0.0
H2361 H 0.87048 0.58473 0.07704 0.0
H2362 H 0.90001 0.64067 0.04187 0.0
H2363 H 0.9327 0.62616 0.04923 0.0
C2364 C 0.83799 0.64742 0.04759 0.0
C2365 C 0.82166 0.62814 0.03978 0.0
C2366 C 0.85806 0.64301 0.05312 0.0
C2367 C 0.86201 0.61927 0.05088 0.0
C2368 C 0.84581 0.60029 0.0418 0.0
C2369 C 0.82596 0.60464 0.03648 0.0
C2370 C 0.9024 0.58571 0.07494 0.0
C2371 C 0.92018 0.59666 0.06671 0.0
C2372 C 0.88395 0.5941 0.07099 0.0
C2373 C 0.88258 0.61353 0.05842 0.0
C2374 C 0.90057 0.62557 0.05149 0.0
C2375 C 0.91921 0.61712 0.0555 0.0
H2376 H 0.22555 0.0838 0.80971 0.0
H2377 H 0.17477 0.12222 0.81335 0.0
H2378 H 0.24808 0.12084 0.8077 0.0
H2379 H 0.19683 0.15927 0.81188 0.0
H2380 H 0.23912 0.22915 0.80645 0.0
H2381 H 0.21595 0.19188 0.8075 0.0
H2382 H 0.26775 0.15404 0.80902 0.0
H2383 H 0.28995 0.19066 0.80763 0.0
C2384 C 0.21915 0.10022 0.81031 0.0
C2385 C 0.19809 0.09946 0.8118 0.0
C2386 C 0.23225 0.12209 0.80914 0.0
C2387 C 0.22503 0.1445 0.80959 0.0
C2388 C 0.20384 0.14337 0.81125 0.0
C2389 C 0.19083 0.12158 0.81223 0.0
C2390 C 0.24541 0.21277 0.80702 0.0
C2391 C 0.26664 0.21339 0.80709 0.0
C2392 C 0.23202 0.19087 0.80769 0.0
C2393 C 0.23924 0.16855 0.8085 0.0
C2394 C 0.26061 0.16972 0.80838 0.0
C2395 C 0.27378 0.19136 0.80767 0.0
H2396 H 0.35675 0.98359 0.2884 0.0
H2397 H 0.40801 0.94593 0.28236 0.0
H2398 H 0.33437 0.94524 0.28933 0.0
H2399 H 0.38625 0.90845 0.28413 0.0
H2400 H 0.34127 0.8391 0.26636 0.0
H2401 H 0.36107 0.87796 0.26323 0.0
H2402 H 0.32488 0.91342 0.31162 0.0
H2403 H 0.30492 0.87437 0.31444 0.0
C2404 C 0.36331 0.96727 0.28728 0.0
C2405 C 0.38433 0.96818 0.28509 0.0
C2406 C 0.35047 0.94516 0.28797 0.0
C2407 C 0.35825 0.92326 0.28657 0.0
C2408 C 0.37928 0.92445 0.28461 0.0
C2409 C 0.39195 0.94629 0.28376 0.0
C2410 C 0.3374 0.85517 0.27621 0.0
C2411 C 0.32144 0.85338 0.2907 0.0
C2412 C 0.34896 0.87764 0.27465 0.0
C2413 C 0.34493 0.89928 0.28736 0.0
C2414 C 0.32854 0.89747 0.30136 0.0
C2415 C 0.31712 0.87492 0.30313 0.0
H2416 H 0.5754 0.39353 0.66218 0.0
H2417 H 0.55814 0.3437 0.5956 0.0
H2418 H 0.56759 0.42629 0.6413 0.0
H2419 H 0.55039 0.3767 0.5746 0.0
H2420 H 0.52127 0.44314 0.55443 0.0
H2421 H 0.52628 0.4078 0.5733 0.0
H2422 H 0.58454 0.44606 0.61037 0.0
H2423 H 0.57972 0.48091 0.59189 0.0
C2424 C 0.56992 0.38959 0.64309 0.0
C2425 C 0.56764 0.36615 0.63045 0.0
C2426 C 0.56548 0.40832 0.63113 0.0
C2427 C 0.55856 0.40401 0.60631 0.0
C2428 C 0.55564 0.38046 0.59376 0.0
C2429 C 0.56028 0.36168 0.60572 0.0
C2430 C 0.5352 0.44383 0.56644 0.0
C2431 C 0.55006 0.46482 0.57171 0.0
C2432 C 0.53806 0.42366 0.57718 0.0
C2433 C 0.55565 0.42442 0.59355 0.0
C2434 C 0.57065 0.44516 0.5982 0.0
C2435 C 0.56794 0.46507 0.58737 0.0
H2436 H 0.43246 0.73234 0.39522 0.0
H2437 H 0.44994 0.8028 0.37655 0.0
H2438 H 0.3965 0.73339 0.38086 0.0
H2439 H 0.41451 0.80388 0.36218 0.0
H2440 H 0.34743 0.80694 0.34627 0.0
H2441 H 0.38036 0.80653 0.37026 0.0
H2442 H 0.37554 0.73087 0.34328 0.0
H2443 H 0.34292 0.73148 0.31982 0.0
C2444 C 0.42863 0.74811 0.38829 0.0
C2445 C 0.44415 0.76731 0.38674 0.0
C2446 C 0.40802 0.74872 0.3799 0.0
C2447 C 0.40239 0.76873 0.37017 0.0
C2448 C 0.41796 0.78827 0.36971 0.0
C2449 C 0.43843 0.78751 0.37774 0.0
C2450 C 0.35311 0.79011 0.34628 0.0
C2451 C 0.34238 0.76914 0.33154 0.0
C2452 C 0.37218 0.78988 0.35968 0.0
C2453 C 0.38087 0.76863 0.35876 0.0
C2454 C 0.36943 0.74749 0.34492 0.0
C2455 C 0.35062 0.74782 0.33141 0.0
H2456 H 0.07256 0.73853 0.10402 0.0
H2457 H 0.05792 0.70529 0.16578 0.0
H2458 H 0.06764 0.6986 0.07932 0.0
H2459 H 0.05268 0.66591 0.14123 0.0
H2460 H 0.07473 0.60212 0.10381 0.0
H2461 H 0.07833 0.64357 0.12385 0.0
H2462 H 0.04133 0.66063 0.0631 0.0
H2463 H 0.03758 0.6187 0.04315 0.0
C2464 C 0.06802 0.72276 0.11217 0.0
C2465 C 0.06617 0.72486 0.1369 0.0
C2466 C 0.06517 0.70001 0.09808 0.0
C2467 C 0.06035 0.67928 0.10862 0.0
C2468 C 0.05704 0.68161 0.13289 0.0
C2469 C 0.06001 0.70415 0.14691 0.0
C2470 C 0.06775 0.61492 0.09462 0.0
C2471 C 0.056 0.60764 0.07209 0.0
C2472 C 0.06958 0.63847 0.10612 0.0
C2473 C 0.05983 0.65511 0.09511 0.0
C2474 C 0.04896 0.64808 0.0719 0.0
C2475 C 0.04682 0.62428 0.06055 0.0
H2476 H 0.07801 0.23828 0.91507 0.0
H2477 H 0.06185 0.30353 0.89428 0.0
H2478 H 0.1118 0.24788 0.9022 0.0
H2479 H 0.09602 0.31427 0.88275 0.0
H2480 H 0.14858 0.31173 0.83713 0.0
H2481 H 0.11637 0.30565 0.85359 0.0
H2482 H 0.14412 0.27062 0.90863 0.0
H2483 H 0.17627 0.27587 0.8912 0.0
C2484 C 0.08182 0.25472 0.9077 0.0
C2485 C 0.06731 0.26986 0.90496 0.0
C2486 C 0.10131 0.26051 0.90068 0.0
C2487 C 0.10688 0.28189 0.89124 0.0
C2488 C 0.09231 0.29735 0.88927 0.0
C2489 C 0.07271 0.29129 0.89589 0.0
C2490 C 0.1479 0.30302 0.85296 0.0
C2491 C 0.16498 0.29412 0.86272 0.0
C2492 C 0.12935 0.29959 0.86256 0.0
C2493 C 0.12732 0.2874 0.88245 0.0
C2494 C 0.14476 0.27947 0.89291 0.0
C2495 C 0.16328 0.28259 0.88302 0.0
H2496 H 0.52579 0.77864 0.97252 0.0
H2497 H 0.58209 0.76973 0.0135 0.0
H2498 H 0.5096 0.73898 0.9786 0.0
H2499 H 0.56567 0.73005 0.0195 0.0
H2500 H 0.52131 0.68298 0.05448 0.0
H2501 H 0.53313 0.72174 0.04361 0.0
H2502 H 0.51731 0.69212 0.96818 0.0
H2503 H 0.50555 0.6524 0.97912 0.0
C2504 C 0.53466 0.76825 0.98289 0.0
C2505 C 0.55507 0.77732 0.99302 0.0
C2506 C 0.52545 0.74557 0.98603 0.0
C2507 C 0.53651 0.73191 0.99943 0.0
C2508 C 0.55698 0.74066 1.00918 0.0
C2509 C 0.56624 0.76329 1.00597 0.0
C2510 C 0.51941 0.68484 0.03558 0.0
C2511 C 0.51219 0.66491 0.01755 0.0
C2512 C 0.52657 0.70689 0.02943 0.0
C2513 C 0.52634 0.70941 1.00521 0.0
C2514 C 0.51756 0.69018 0.98701 0.0
C2515 C 0.51066 0.66776 0.99319 0.0
H2516 H 0.0582 0.75374 0.70136 0.0
H2517 H 0.08789 0.7386 0.63765 0.0
H2518 H 0.09131 0.76086 0.72642 0.0
H2519 H 0.12097 0.74612 0.66272 0.0
H2520 H 0.16711 0.72368 0.71541 0.0
H2521 H 0.13378 0.72149 0.69243 0.0
H2522 H 0.12652 0.78859 0.73424 0.0
H2523 H 0.16018 0.79034 0.75792 0.0
C2524 C 0.07184 0.75215 0.69273 0.0
C2525 C 0.0706 0.74525 0.66764 0.0
C2526 C 0.0907 0.75645 0.70704 0.0
C2527 C 0.10845 0.75382 0.69638 0.0
C2528 C 0.1073 0.74793 0.67125 0.0
C2529 C 0.08848 0.74369 0.65694 0.0
C2530 C 0.15836 0.73798 0.71951 0.0
C2531 C 0.16595 0.75737 0.73781 0.0
C2532 C 0.13944 0.73678 0.70644 0.0
C2533 C 0.12797 0.75514 0.71135 0.0
C2534 C 0.13531 0.77436 0.73019 0.0
C2535 C 0.1544 0.77547 0.7435 0.0
H2536 H 0.08264 0.42242 0.47002 0.0
H2537 H 0.06658 0.3658 0.51166 0.0
H2538 H 0.05111 0.43646 0.47595 0.0
H2539 H 0.03393 0.37876 0.51626 0.0
H2540 H 0.03442 0.45016 0.56931 0.0
H2541 H 0.03307 0.41157 0.54487 0.0
H2542 H 0.01831 0.44214 0.48066 0.0
H2543 H 0.02359 0.48107 0.50496 0.0
C2544 C 0.07189 0.41233 0.47957 0.0
C2545 C 0.07727 0.39342 0.49078 0.0
C2546 C 0.05345 0.42012 0.48274 0.0
C2547 C 0.04009 0.40925 0.49749 0.0
C2548 C 0.04416 0.38804 0.50557 0.0
C2549 C 0.06293 0.38067 0.50299 0.0
C2550 C 0.02997 0.44829 0.55005 0.0
C2551 C 0.02883 0.46858 0.53902 0.0
C2552 C 0.02891 0.42601 0.53585 0.0
C2553 C 0.02708 0.42423 0.51052 0.0
C2554 C 0.02078 0.44328 0.50008 0.0
C2555 C 0.02313 0.46578 0.51413 0.0
H2556 H 0.49178 0.22511 0.23208 0.0
H2557 H 0.44625 0.21783 0.17005 0.0
H2558 H 0.46978 0.24536 0.25719 0.0
H2559 H 0.42379 0.23687 0.19516 0.0
H2560 H 0.40366 0.30012 0.23547 0.0
H2561 H 0.42665 0.2784 0.21379 0.0
H2562 H 0.43683 0.23996 0.27366 0.0
H2563 H 0.41417 0.26253 0.2957 0.0
C2564 C 0.47672 0.22711 0.22416 0.0
C2565 C 0.47038 0.22004 0.19946 0.0
C2566 C 0.46425 0.2387 0.23838 0.0
C2567 C 0.44534 0.24287 0.22791 0.0
C2568 C 0.43856 0.2343 0.20344 0.0
C2569 C 0.45117 0.22321 0.1892 0.0
C2570 C 0.41106 0.28721 0.24398 0.0
C2571 C 0.40736 0.28273 0.26699 0.0
C2572 C 0.42399 0.27469 0.23161 0.0
C2573 C 0.43307 0.25726 0.24198 0.0
C2574 C 0.42996 0.2534 0.26542 0.0
C2575 C 0.41713 0.2662 0.27796 0.0
H2576 H 0.59807 0.49522 0.36512 0.0
H2577 H 0.64686 0.54725 0.40678 0.0
H2578 H 0.58042 0.49293 0.40028 0.0
H2579 H 0.62893 0.54622 0.44236 0.0
H2580 H 0.59416 0.5395 0.50902 0.0
H2581 H 0.6146 0.53913 0.47518 0.0
H2582 H 0.56109 0.50138 0.42721 0.0
H2583 H 0.5418 0.50081 0.46053 0.0
C2584 C 0.60529 0.50594 0.38206 0.0
C2585 C 0.62441 0.52076 0.38289 0.0
C2586 C 0.5948 0.50515 0.40265 0.0
C2587 C 0.60251 0.51972 0.42531 0.0
C2588 C 0.62195 0.53436 0.42603 0.0
C2589 C 0.63255 0.5349 0.40536 0.0
C2590 C 0.58693 0.53087 0.49125 0.0
C2591 C 0.56613 0.51997 0.48811 0.0
C2592 C 0.59869 0.53075 0.47138 0.0
C2593 C 0.59019 0.51994 0.44736 0.0
C2594 C 0.56923 0.5094 0.44466 0.0
C2595 C 0.55775 0.50927 0.46431 0.0
H2596 H 0.24202 0.84144 0.10124 0.0
H2597 H 0.27963 0.81529 0.04899 0.0
H2598 H 0.27003 0.84379 0.13333 0.0
H2599 H 0.30821 0.81959 0.08046 0.0
H2600 H 0.33649 0.79695 0.15121 0.0
H2601 H 0.32019 0.80352 0.1134 0.0
H2602 H 0.30245 0.86815 0.1488 0.0
H2603 H 0.31797 0.8605 0.18732 0.0
C2604 C 0.25613 0.83561 0.09685 0.0
C2605 C 0.2587 0.82779 0.073 0.0
C2606 C 0.27241 0.83776 0.11495 0.0
C2607 C 0.29163 0.83288 0.10923 0.0
C2608 C 0.29369 0.82366 0.08543 0.0
C2609 C 0.2772 0.82074 0.0675 0.0
C2610 C 0.3303 0.81344 0.15082 0.0
C2611 C 0.32708 0.82731 0.17218 0.0
C2612 C 0.32068 0.8171 0.12899 0.0
C2613 C 0.30878 0.83539 0.12856 0.0
C2614 C 0.31054 0.85305 0.14904 0.0
C2615 C 0.31987 0.84906 0.17098 0.0
H2616 H 0.99194 0.5509 0.85463 0.0
H2617 H 0.93457 0.54253 0.88371 0.0
H2618 H 1.01007 0.55089 0.89289 0.0
H2619 H 0.95284 0.54172 0.92361 0.0
H2620 H 0.99128 0.53781 0.99705 0.0
H2621 H 0.97054 0.54071 0.95916 0.0
H2622 H 0.0258 0.54546 0.92439 0.0
H2623 H 0.04523 0.54328 0.96083 0.0
C2624 C 0.9831 0.54925 0.86957 0.0
C2625 C 0.96166 0.54703 0.86562 0.0
C2626 C 0.9937 0.54884 0.8923 0.0
C2627 C 0.98357 0.54563 0.91286 0.0
C2628 C 0.96185 0.54406 0.90901 0.0
C2629 C 0.95114 0.5448 0.88589 0.0
C2630 C 0.9988 0.5397 0.98115 0.0
C2631 C 0.02022 0.54051 0.98252 0.0
C2632 C 0.98683 0.54134 0.95902 0.0
C2633 C 0.99579 0.54377 0.93736 0.0
C2634 C 0.01724 0.54419 0.93941 0.0
C2635 C 0.02891 0.54276 0.9611 0.0
H2636 H 0.25063 0.22493 0.5956 0.0
H2637 H 0.29863 0.18691 0.61836 0.0
H2638 H 0.25438 0.24813 0.63612 0.0
H2639 H 0.30364 0.21112 0.65817 0.0
H2640 H 0.28655 0.22587 0.73211 0.0
H2641 H 0.28459 0.20886 0.69002 0.0
H2642 H 0.27197 0.27611 0.66947 0.0
H2643 H 0.27276 0.29255 0.71222 0.0
C2644 C 0.26246 0.22223 0.60913 0.0
C2645 C 0.2741 0.20399 0.60431 0.0
C2646 C 0.26468 0.23551 0.6323 0.0
C2647 C 0.27884 0.23092 0.65068 0.0
C2648 C 0.29195 0.21438 0.6448 0.0
C2649 C 0.28931 0.20071 0.62196 0.0
C2650 C 0.2831 0.23683 0.7185 0.0
C2651 C 0.27977 0.26035 0.72509 0.0
C2652 C 0.28231 0.2273 0.69438 0.0
C2653 C 0.27874 0.24134 0.67626 0.0
C2654 C 0.27478 0.2648 0.68293 0.0
C2655 C 0.27517 0.27422 0.70728 0.0
H2656 H 0.65621 0.51889 0.21891 0.0
H2657 H 0.59953 0.5092 0.24975 0.0
H2658 H 0.63748 0.52132 0.1802 0.0
H2659 H 0.58061 0.51224 0.21103 0.0
H2660 H 0.54977 0.49798 0.13149 0.0
H2661 H 0.56776 0.49514 0.17093 0.0
H2662 H 0.61994 0.54395 0.15694 0.0
H2663 H 0.60187 0.54645 0.11772 0.0
C2664 C 0.6397 0.51732 0.21752 0.0
C2665 C 0.62956 0.51377 0.23779 0.0
C2666 C 0.62882 0.51896 0.19514 0.0
C2667 C 0.60725 0.51715 0.19192 0.0
C2668 C 0.59708 0.51346 0.21225 0.0
C2669 C 0.60801 0.51183 0.2347 0.0
C2670 C 0.56517 0.50789 0.13682 0.0
C2671 C 0.57448 0.52208 0.12115 0.0
C2672 C 0.57551 0.50652 0.15968 0.0
C2673 C 0.59567 0.51909 0.16761 0.0
C2674 C 0.60477 0.53344 0.15175 0.0
C2675 C 0.59433 0.53502 0.12911 0.0
H2676 H 0.22755 0.81598 0.90849 0.0
H2677 H 0.26052 0.79532 0.96991 0.0
H2678 H 0.25788 0.81729 0.88829 0.0
H2679 H 0.29167 0.79935 0.95109 0.0
H2680 H 0.31148 0.7674 0.87806 0.0
H2681 H 0.30931 0.78501 0.91909 0.0
H2682 H 0.29116 0.8475 0.89404 0.0
H2683 H 0.29118 0.82901 0.85281 0.0
C2684 C 0.24113 0.81093 0.91734 0.0
C2685 C 0.24252 0.80828 0.94162 0.0
C2686 C 0.2589 0.81302 0.90642 0.0
C2687 C 0.27784 0.81135 0.91947 0.0
C2688 C 0.27771 0.80258 0.94139 0.0
C2689 C 0.25963 0.79955 0.95175 0.0
C2690 C 0.30799 0.78544 0.88149 0.0
C2691 C 0.29999 0.79623 0.86275 0.0
C2692 C 0.30708 0.79581 0.90503 0.0
C2693 C 0.29693 0.81564 0.9085 0.0
C2694 C 0.29703 0.83076 0.8909 0.0
C2695 C 0.29672 0.82006 0.86722 0.0
H2696 H 0.98096 0.55274 0.74063 0.0
H2697 H 0.92398 0.54172 0.69392 0.0
H2698 H 0.99957 0.54959 0.70593 0.0
H2699 H 0.94227 0.53962 0.65897 0.0
H2700 H 0.97688 0.5282 0.59406 0.0
H2701 H 0.95843 0.52958 0.62881 0.0
H2702 H 0.01563 0.55597 0.67523 0.0
H2703 H 0.03387 0.55335 0.64022 0.0
C2704 C 0.9723 0.54981 0.72286 0.0
C2705 C 0.95074 0.54761 0.72054 0.0
C2706 C 0.98314 0.54813 0.70245 0.0
C2707 C 0.97306 0.54441 0.67844 0.0
C2708 C 0.95133 0.54216 0.67638 0.0
C2709 C 0.94052 0.54357 0.69681 0.0
C2710 C 0.98559 0.53427 0.6117 0.0
C2711 C 1.00713 0.54059 0.61381 0.0
C2712 C 0.97482 0.53528 0.63216 0.0
C2713 C 0.98491 0.54302 0.65604 0.0
C2714 C 1.00659 0.54949 0.65793 0.0
C2715 C 0.01736 0.54817 0.63744 0.0
H2716 H 0.24365 0.22039 0.46483 0.0
H2717 H 0.29543 0.18483 0.45323 0.0
H2718 H 0.24952 0.2412 0.4304 0.0
H2719 H 0.30158 0.20601 0.41912 0.0
H2720 H 0.3193 0.27316 0.38257 0.0
H2721 H 0.3124 0.24953 0.41437 0.0
H2722 H 0.24868 0.23119 0.38425 0.0
H2723 H 0.25578 0.25477 0.35192 0.0
C2724 C 0.25627 0.21704 0.45488 0.0
C2725 C 0.26902 0.20092 0.46155 0.0
C2726 C 0.25953 0.2288 0.43511 0.0
C2727 C 0.27591 0.2251 0.422 0.0
C2728 C 0.28883 0.20919 0.4289 0.0
C2729 C 0.28527 0.19701 0.44832 0.0
C2730 C 0.30379 0.26402 0.3826 0.0
C2731 C 0.28797 0.26594 0.36479 0.0
C2732 C 0.29991 0.25035 0.40077 0.0
C2733 C 0.28001 0.23856 0.40183 0.0
C2734 C 0.26416 0.24026 0.38393 0.0
C2735 C 0.26817 0.25364 0.36537 0.0
H2736 H 0.39982 0.66124 0.60805 0.0
H2737 H 0.34985 0.64044 0.55021 0.0
H2738 H 0.42269 0.64377 0.58196 0.0
H2739 H 0.37261 0.62438 0.52361 0.0
H2740 H 0.40952 0.56252 0.50832 0.0
H2741 H 0.3874 0.58966 0.52237 0.0
H2742 H 0.44003 0.64574 0.54669 0.0
H2743 H 0.46249 0.61771 0.53325 0.0
C2744 C 0.39387 0.65265 0.58982 0.0
C2745 C 0.3733 0.65115 0.58105 0.0
C2746 C 0.40691 0.64337 0.57469 0.0
C2747 C 0.39936 0.63289 0.55072 0.0
C2748 C 0.37874 0.63209 0.54204 0.0
C2749 C 0.36574 0.64094 0.55723 0.0
C2750 C 0.41631 0.58095 0.51565 0.0
C2751 C 0.43758 0.58806 0.52015 0.0
C2752 C 0.40363 0.59659 0.52372 0.0
C2753 C 0.41211 0.61963 0.5361 0.0
C2754 C 0.43326 0.6278 0.53772 0.0
C2755 C 0.44603 0.61194 0.52993 0.0
H2756 H 0.88117 0.98127 0.59066 0.0
H2757 H 0.89143 0.91476 0.55131 0.0
H2758 H 0.91648 0.99919 0.58969 0.0
H2759 H 0.92688 0.93318 0.54863 0.0
H2760 H 0.99572 0.9738 0.56127 0.0
H2761 H 0.96175 0.95052 0.56398 0.0
H2762 H 0.93532 0.01517 0.56296 0.0
H2763 H 0.96854 0.03785 0.56147 0.0
C2764 C 0.89115 0.97041 0.58195 0.0
C2765 C 0.88356 0.9466 0.57128 0.0
C2766 C 0.91143 0.9808 0.58091 0.0
C2767 C 0.92473 0.96807 0.5683 0.0
C2768 C 0.91733 0.94373 0.55849 0.0
C2769 C 0.89699 0.93309 0.56006 0.0
C2770 C 0.98253 0.98282 0.56145 0.0
C2771 C 0.98501 1.00782 0.56152 0.0
C2772 C 0.96299 0.96952 0.56306 0.0
C2773 C 0.94557 0.98095 0.56464 0.0
C2774 C 0.94819 1.00563 0.56308 0.0
C2775 C 0.96744 0.01874 0.56186 0.0
H2776 H 0.90712 0.14266 0.31051 0.0
H2777 H 0.85467 0.09764 0.26746 0.0
H2778 H 0.88908 0.1767 0.31239 0.0
H2779 H 0.83654 0.1314 0.26849 0.0
H2780 H 0.80151 0.19447 0.27407 0.0
H2781 H 0.81934 0.16046 0.27325 0.0
H2782 H 0.87418 0.20766 0.30974 0.0
H2783 H 0.85584 0.24136 0.31078 0.0
C2784 C 0.89166 0.13992 0.30128 0.0
C2785 C 0.88266 0.11685 0.28881 0.0
C2786 C 0.881 0.15988 0.30223 0.0
C2787 C 0.86066 0.15811 0.29059 0.0
C2788 C 0.85181 0.13476 0.27811 0.0
C2789 C 0.86243 0.11483 0.27735 0.0
C2790 C 0.81742 0.19769 0.28191 0.0
C2791 C 0.82694 0.22127 0.29235 0.0
C2792 C 0.82803 0.17774 0.28142 0.0
C2793 C 0.84895 0.18003 0.29131 0.0
C2794 C 0.85834 0.20387 0.30183 0.0
C2795 C 0.84767 0.22379 0.30236 0.0
H2796 H 0.77857 0.13497 0.08308 0.0
H2797 H 0.75492 0.20139 0.08136 0.0
H2798 H 0.74417 0.11248 0.07476 0.0
H2799 H 0.71983 0.17856 0.07377 0.0
H2800 H 0.66045 0.12496 0.04146 0.0
H2801 H 0.6952 0.14812 0.04382 0.0
H2802 H 0.71655 0.10808 0.09823 0.0
H2803 H 0.68265 0.0849 0.09526 0.0
C2804 C 0.76593 0.14479 0.08108 0.0
C2805 C 0.76932 0.1699 0.08306 0.0
C2806 C 0.74621 0.13189 0.07635 0.0
C2807 C 0.72935 0.14379 0.07378 0.0
C2808 C 0.73263 0.16897 0.07548 0.0
C2809 C 0.75258 0.18201 0.08019 0.0
C2810 C 0.67281 0.121 0.0535 0.0
C2811 C 0.66913 0.10295 0.06785 0.0
C2812 C 0.69251 0.13429 0.05503 0.0
C2813 C 0.70853 0.12976 0.07111 0.0
C2814 C 0.70466 0.1116 0.08524 0.0
C2815 C 0.68525 0.09825 0.0835 0.0
H2816 H 0.22939 0.46748 0.31239 0.0
H2817 H 0.17237 0.41803 0.29829 0.0
H2818 H 0.24813 0.43427 0.31335 0.0
H2819 H 0.19061 0.38459 0.29949 0.0
H2820 H 0.22544 0.32171 0.29671 0.0
H2821 H 0.20697 0.35502 0.29675 0.0
H2822 H 0.26421 0.40464 0.31723 0.0
H2823 H 0.2824 0.37094 0.31648 0.0
C2824 C 0.22073 0.44941 0.3095 0.0
C2825 C 0.19911 0.44591 0.30519 0.0
C2826 C 0.23164 0.42982 0.31013 0.0
C2827 C 0.22157 0.40545 0.30648 0.0
C2828 C 0.19979 0.40226 0.30228 0.0
C2829 C 0.18895 0.42186 0.30164 0.0
C2830 C 0.23415 0.33975 0.30125 0.0
C2831 C 0.25568 0.34308 0.30647 0.0
C2832 C 0.22337 0.35946 0.30136 0.0
C2833 C 0.23343 0.38383 0.30685 0.0
C2834 C 0.25511 0.38693 0.31251 0.0
C2835 C 0.26587 0.36718 0.31223 0.0
H2836 H 0.27208 0.45842 0.05492 0.0
H2837 H 0.23951 0.3926 0.07153 0.0
H2838 H 0.23988 0.47163 0.04442 0.0
H2839 H 0.20706 0.40473 0.05959 0.0
H2840 H 0.15155 0.44221 0.05988 0.0
H2841 H 0.18281 0.42618 0.06724 0.0
H2842 H 0.21158 0.47169 0.02057 0.0
H2843 H 0.18127 0.48968 0.01589 0.0
C2844 C 0.25792 0.44678 0.0563 0.0
C2845 C 0.2583 0.42471 0.06442 0.0
C2846 C 0.23925 0.45407 0.04976 0.0
C2847 C 0.22036 0.43939 0.05098 0.0
C2848 C 0.22095 0.41704 0.05887 0.0
C2849 C 0.23965 0.40988 0.06556 0.0
C2850 C 0.16466 0.44899 0.05144 0.0
C2851 C 0.16384 0.46761 0.03766 0.0
C2852 C 0.18268 0.43943 0.05529 0.0
C2853 C 0.20034 0.4478 0.04499 0.0
C2854 C 0.19889 0.46527 0.0298 0.0
C2855 C 0.18111 0.47529 0.02655 0.0
H2856 H 0.88731 0.94443 0.25108 0.0
H2857 H 0.86957 0.97918 0.31637 0.0
H2858 H 0.86657 0.90687 0.25535 0.0
H2859 H 0.84802 0.94145 0.32066 0.0
H2860 H 0.8188 0.86624 0.33287 0.0
H2861 H 0.84114 0.90366 0.3297 0.0
H2862 H 0.83832 0.88005 0.25314 0.0
H2863 H 0.81702 0.84241 0.25702 0.0
C2864 C 0.87859 0.94422 0.26624 0.0
C2865 C 0.8801 0.96537 0.28309 0.0
C2866 C 0.86638 0.92232 0.26874 0.0
C2867 C 0.85502 0.92014 0.28842 0.0
C2868 C 0.85643 0.94153 0.30529 0.0
C2869 C 0.86864 0.96363 0.30264 0.0
C2870 C 0.82353 0.86879 0.3155 0.0
C2871 C 0.81652 0.85067 0.29537 0.0
C2872 C 0.83617 0.89071 0.31348 0.0
C2873 C 0.84202 0.89589 0.29105 0.0
C2874 C 0.83499 0.8774 0.27099 0.0
C2875 C 0.82261 0.85539 0.27314 0.0
H2876 H 0.67707 0.11678 0.8292 0.0
H2877 H 0.72078 0.0789 0.79589 0.0
H2878 H 0.69884 0.15499 0.8287 0.0
H2879 H 0.74292 0.11751 0.7954 0.0
H2880 H 0.76425 0.19214 0.77246 0.0
H2881 H 0.74538 0.15279 0.77582 0.0
H2882 H 0.72933 0.18211 0.84462 0.0
H2883 H 0.74786 0.22155 0.841 0.0
C2884 C 0.69154 0.11656 0.82203 0.0
C2885 C 0.69707 0.09453 0.81266 0.0
C2886 C 0.70418 0.13866 0.82184 0.0
C2887 C 0.72284 0.13976 0.81196 0.0
C2888 C 0.72864 0.11765 0.80295 0.0
C2889 C 0.71603 0.09538 0.80348 0.0
C2890 C 0.75676 0.19028 0.78839 0.0
C2891 C 0.75767 0.21038 0.80641 0.0
C2892 C 0.74599 0.16748 0.79041 0.0
C2893 C 0.73559 0.16388 0.81048 0.0
C2894 C 0.73678 0.18395 0.82867 0.0
C2895 C 0.74762 0.20672 0.82669 0.0
loop_
_geom_bond_atom_site_label_1
_geom_bond_atom_site_label_2
_geom_bond_distance
_geom_bond_site_symmetry_2
_ccdc_geom_bond_type
C0 O1 1.306 . S
C0 O3 1.160 . S
O1 C0 1.306 . S
O1 Cd2 2.228 . S
Cd2 O1 2.228 . S
Cd2 O6 2.273 . S
Cd2 O10 2.277 . S
O3 C0 1.160 . S
O3 Cd4 2.203 . S
Cd4 O3 2.203 . S
Cd4 O6 2.411 . S
Cd4 O7 2.333 . S
Cd4 O8 2.352 . S
Cd4 O12 2.277 . S
Cd4 O13 2.356 . S
C5 O10 1.209 . S
C5 O12 1.226 . S
O6 Cd2 2.273 . S
O6 Cd4 2.411 . S
O6 C9 1.320 . S
O7 Cd4 2.333 . S
O7 C9 1.214 . S
O8 Cd4 2.352 . S
O8 C11 1.258 . S
C9 O6 1.320 . S
C9 O7 1.214 . S
O10 Cd2 2.277 . S
O10 C5 1.209 . S
C11 O8 1.258 . S
C11 O13 1.282 . S
O12 Cd4 2.277 . S
O12 C5 1.226 . S
O13 Cd4 2.356 . S
O13 C11 1.282 . S
C14 O15 1.306 . S
C14 O17 1.160 . S
O15 C14 1.306 . S
O15 Cd16 2.228 1_655 S
Cd16 O15 2.228 1_455 S
Cd16 O20 2.273 . S
Cd16 O24 2.277 . S
O17 C14 1.160 . S
O17 Cd18 2.203 1_655 S
Cd18 O17 2.203 1_455 S
Cd18 O20 2.411 . S
Cd18 O21 2.333 . S
Cd18 O22 2.352 . S
Cd18 O26 2.277 . S
Cd18 O27 2.356 . S
C19 O24 1.209 . S
C19 O26 1.226 . S
O20 Cd16 2.273 . S
O20 Cd18 2.411 . S
O20 C23 1.320 . S
O21 Cd18 2.333 . S
O21 C23 1.214 . S
O22 Cd18 2.352 . S
O22 C25 1.258 . S
C23 O20 1.320 . S
C23 O21 1.214 . S
O24 Cd16 2.277 . S
O24 C19 1.209 . S
C25 O22 1.258 . S
C25 O27 1.282 . S
O26 Cd18 2.277 . S
O26 C19 1.226 . S
O27 Cd18 2.356 . S
O27 C25 1.282 . S
C28 O29 1.306 . S
C28 O31 1.160 . S
O29 C28 1.306 . S
O29 Cd30 2.228 . S
Cd30 O29 2.228 . S
Cd30 O34 2.273 . S
Cd30 O38 2.277 . S
O31 C28 1.160 . S
O31 Cd32 2.203 . S
Cd32 O31 2.203 . S
Cd32 O34 2.411 . S
Cd32 O35 2.333 . S
Cd32 O36 2.352 . S
Cd32 O40 2.277 . S
Cd32 O41 2.356 . S
C33 O38 1.209 . S
C33 O40 1.226 . S
O34 Cd30 2.273 . S
O34 Cd32 2.411 . S
O34 C37 1.320 . S
O35 Cd32 2.333 . S
O35 C37 1.214 . S
O36 Cd32 2.352 . S
O36 C39 1.258 . S
C37 O34 1.320 . S
C37 O35 1.214 . S
O38 Cd30 2.277 . S
O38 C33 1.209 . S
C39 O36 1.258 . S
C39 O41 1.282 . S
O40 Cd32 2.277 . S
O40 C33 1.226 . S
O41 Cd32 2.356 . S
O41 C39 1.282 . S
C42 O43 1.306 . S
C42 O45 1.160 . S
O43 C42 1.306 . S
O43 Cd44 2.228 . S
Cd44 O43 2.228 . S
Cd44 O48 2.273 . S
Cd44 O52 2.277 . S
O45 C42 1.160 . S
O45 Cd46 2.203 . S
Cd46 O45 2.203 . S
Cd46 O48 2.411 . S
Cd46 O49 2.333 . S
Cd46 O50 2.352 . S
Cd46 O54 2.277 . S
Cd46 O55 2.356 . S
C47 O52 1.209 . S
C47 O54 1.226 . S
O48 Cd44 2.273 . S
O48 Cd46 2.411 . S
O48 C51 1.320 . S
O49 Cd46 2.333 . S
O49 C51 1.214 . S
O50 Cd46 2.352 . S
O50 C53 1.258 . S
C51 O48 1.320 . S
C51 O49 1.214 . S
O52 Cd44 2.277 . S
O52 C47 1.209 . S
C53 O50 1.258 . S
C53 O55 1.282 . S
O54 Cd46 2.277 . S
O54 C47 1.226 . S
O55 Cd46 2.356 . S
O55 C53 1.282 . S
C56 O57 1.306 . S
C56 O59 1.160 . S
O57 C56 1.306 . S
O57 Cd58 2.228 . S
Cd58 O57 2.228 . S
Cd58 O62 2.273 . S
Cd58 O66 2.277 . S
O59 C56 1.160 . S
O59 Cd60 2.203 . S
Cd60 O59 2.203 . S
Cd60 O62 2.411 . S
Cd60 O63 2.333 . S
Cd60 O64 2.352 . S
Cd60 O68 2.277 . S
Cd60 O69 2.356 . S
C61 O66 1.209 . S
C61 O68 1.226 . S
O62 Cd58 2.273 . S
O62 Cd60 2.411 . S
O62 C65 1.320 . S
O63 Cd60 2.333 . S
O63 C65 1.214 . S
O64 Cd60 2.352 . S
O64 C67 1.258 . S
C65 O62 1.320 . S
C65 O63 1.214 . S
O66 Cd58 2.277 . S
O66 C61 1.209 . S
C67 O64 1.258 . S
C67 O69 1.282 . S
O68 Cd60 2.277 . S
O68 C61 1.226 . S
O69 Cd60 2.356 . S
O69 C67 1.282 . S
C70 O71 1.306 . S
C70 O73 1.160 . S
O71 C70 1.306 . S
O71 Cd72 2.228 . S
Cd72 O71 2.228 . S
Cd72 O76 2.273 . S
Cd72 O80 2.277 . S
O73 C70 1.160 . S
O73 Cd74 2.203 . S
Cd74 O73 2.203 . S
Cd74 O76 2.411 . S
Cd74 O77 2.333 . S
Cd74 O78 2.352 . S
Cd74 O82 2.277 . S
Cd74 O83 2.356 . S
C75 O80 1.209 . S
C75 O82 1.226 . S
O76 Cd72 2.273 . S
O76 Cd74 2.411 . S
O76 C79 1.320 . S
O77 Cd74 2.333 . S
O77 C79 1.214 . S
O78 Cd74 2.352 . S
O78 C81 1.258 . S
C79 O76 1.320 . S
C79 O77 1.214 . S
O80 Cd72 2.277 . S
O80 C75 1.209 . S
C81 O78 1.258 . S
C81 O83 1.282 . S
O82 Cd74 2.277 . S
O82 C75 1.226 . S
O83 Cd74 2.356 . S
O83 C81 1.282 . S
C84 O85 1.306 . S
C84 O87 1.160 . S
O85 C84 1.306 . S
O85 Cd86 2.228 . S
Cd86 O85 2.228 . S
Cd86 O90 2.273 . S
Cd86 O94 2.277 . S
O87 C84 1.160 . S
O87 Cd88 2.203 . S
Cd88 O87 2.203 . S
Cd88 O90 2.411 . S
Cd88 O91 2.333 . S
Cd88 O92 2.352 . S
Cd88 O96 2.277 . S
Cd88 O97 2.356 . S
C89 O94 1.209 . S
C89 O96 1.226 . S
O90 Cd86 2.273 . S
O90 Cd88 2.411 . S
O90 C93 1.320 . S
O91 Cd88 2.333 . S
O91 C93 1.214 . S
O92 Cd88 2.352 . S
O92 C95 1.258 . S
C93 O90 1.320 . S
C93 O91 1.214 . S
O94 Cd86 2.277 . S
O94 C89 1.209 . S
C95 O92 1.258 . S
C95 O97 1.282 . S
O96 Cd88 2.277 . S
O96 C89 1.226 . S
O97 Cd88 2.356 . S
O97 C95 1.282 . S
C98 O99 1.306 . S
C98 O101 1.160 . S
O99 C98 1.306 . S
O99 Cd100 2.228 1_655 S
Cd100 O99 2.228 1_455 S
Cd100 O104 2.273 . S
Cd100 O108 2.277 . S
O101 C98 1.160 . S
O101 Cd102 2.203 1_655 S
Cd102 O101 2.203 1_455 S
Cd102 O104 2.411 . S
Cd102 O105 2.333 . S
Cd102 O106 2.352 1_455 S
Cd102 O110 2.277 . S
Cd102 O111 2.356 . S
C103 O108 1.209 . S
C103 O110 1.226 . S
O104 Cd100 2.273 . S
O104 Cd102 2.411 . S
O104 C107 1.320 . S
O105 Cd102 2.333 . S
O105 C107 1.214 . S
O106 Cd102 2.352 1_655 S
O106 C109 1.258 1_655 S
C107 O104 1.320 . S
C107 O105 1.214 . S
O108 Cd100 2.277 . S
O108 C103 1.209 . S
C109 O106 1.258 1_455 S
C109 O111 1.282 . S
O110 Cd102 2.277 . S
O110 C103 1.226 . S
O111 Cd102 2.356 . S
O111 C109 1.282 . S
C112 O113 1.306 . S
C112 O115 1.160 . S
O113 C112 1.306 . S
O113 Cd114 2.228 1_545 S
Cd114 O113 2.228 1_565 S
Cd114 O118 2.273 1_565 S
Cd114 O122 2.277 . S
O115 C112 1.160 . S
O115 Cd116 2.203 . S
Cd116 O115 2.203 . S
Cd116 O118 2.411 . S
Cd116 O119 2.333 . S
Cd116 O120 2.352 . S
Cd116 O124 2.277 1_545 S
Cd116 O125 2.356 . S
C117 O122 1.209 . S
C117 O124 1.226 . S
O118 Cd114 2.273 1_545 S
O118 Cd116 2.411 . S
O118 C121 1.320 . S
O119 Cd116 2.333 . S
O119 C121 1.214 . S
O120 Cd116 2.352 . S
O120 C123 1.258 . S
C121 O118 1.320 . S
C121 O119 1.214 . S
O122 Cd114 2.277 . S
O122 C117 1.209 . S
C123 O120 1.258 . S
C123 O125 1.282 . S
O124 Cd116 2.277 1_565 S
O124 C117 1.226 . S
O125 Cd116 2.356 . S
O125 C123 1.282 . S
C126 O127 1.306 . S
C126 O129 1.160 . S
O127 C126 1.306 . S
O127 Cd128 2.228 . S
Cd128 O127 2.228 . S
Cd128 O132 2.273 . S
Cd128 O136 2.277 . S
O129 C126 1.160 . S
O129 Cd130 2.203 . S
Cd130 O129 2.203 . S
Cd130 O132 2.411 . S
Cd130 O133 2.333 . S
Cd130 O134 2.352 . S
Cd130 O138 2.277 . S
Cd130 O139 2.356 . S
C131 O136 1.209 . S
C131 O138 1.226 . S
O132 Cd128 2.273 . S
O132 Cd130 2.411 . S
O132 C135 1.320 . S
O133 Cd130 2.333 . S
O133 C135 1.214 . S
O134 Cd130 2.352 . S
O134 C137 1.258 . S
C135 O132 1.320 . S
C135 O133 1.214 . S
O136 Cd128 2.277 . S
O136 C131 1.209 . S
C137 O134 1.258 . S
C137 O139 1.282 . S
O138 Cd130 2.277 . S
O138 C131 1.226 . S
O139 Cd130 2.356 . S
O139 C137 1.282 . S
C140 O141 1.306 . S
C140 O143 1.160 . S
O141 C140 1.306 . S
O141 Cd142 2.228 . S
Cd142 O141 2.228 . S
Cd142 O146 2.273 1_545 S
Cd142 O150 2.277 . S
O143 C140 1.160 . S
O143 Cd144 2.203 1_545 S
Cd144 O143 2.203 1_565 S
Cd144 O146 2.411 . S
Cd144 O147 2.333 . S
Cd144 O148 2.352 . S
Cd144 O152 2.277 1_565 S
Cd144 O153 2.356 . S
C145 O150 1.209 . S
C145 O152 1.226 . S
O146 Cd142 2.273 1_565 S
O146 Cd144 2.411 . S
O146 C149 1.320 . S
O147 Cd144 2.333 . S
O147 C149 1.214 . S
O148 Cd144 2.352 . S
O148 C151 1.258 . S
C149 O146 1.320 . S
C149 O147 1.214 . S
O150 Cd142 2.277 . S
O150 C145 1.209 . S
C151 O148 1.258 . S
C151 O153 1.282 . S
O152 Cd144 2.277 1_545 S
O152 C145 1.226 . S
O153 Cd144 2.356 . S
O153 C151 1.282 . S
C154 O155 1.306 1_554 S
C154 O157 1.160 . S
O155 C154 1.306 1_556 S
O155 Cd156 2.228 . S
Cd156 O155 2.228 . S
Cd156 O160 2.231 1_556 S
Cd156 O164 2.277 . S
O157 C154 1.160 . S
O157 Cd158 2.203 . S
Cd158 O157 2.203 . S
Cd158 O160 2.419 . S
Cd158 O161 2.331 . S
Cd158 O162 2.352 . S
Cd158 O166 2.277 1_554 S
Cd158 O167 2.356 . S
C159 O164 1.209 . S
C159 O166 1.226 . S
O160 Cd156 2.231 1_554 S
O160 Cd158 2.419 . S
O160 C163 1.327 . S
O161 Cd158 2.331 . S
O161 C163 1.208 . S
O162 Cd158 2.352 . S
O162 C165 1.258 . S
C163 O160 1.327 . S
C163 O161 1.208 . S
O164 Cd156 2.277 . S
O164 C159 1.209 . S
C165 O162 1.258 . S
C165 O167 1.282 . S
O166 Cd158 2.277 1_556 S
O166 C159 1.226 . S
O167 Cd158 2.356 . S
O167 C165 1.282 . S
C168 O169 1.306 . S
C168 O171 1.160 . S
O169 C168 1.306 . S
O169 Cd170 2.228 . S
Cd170 O169 2.228 . S
Cd170 O174 2.273 . S
Cd170 O178 2.277 . S
O171 C168 1.160 . S
O171 Cd172 2.203 . S
Cd172 O171 2.203 . S
Cd172 O174 2.411 . S
Cd172 O175 2.333 . S
Cd172 O176 2.352 . S
Cd172 O180 2.277 . S
Cd172 O181 2.356 . S
C173 O178 1.209 . S
C173 O180 1.226 . S
O174 Cd170 2.273 . S
O174 Cd172 2.411 . S
O174 C177 1.320 . S
O175 Cd172 2.333 . S
O175 C177 1.214 . S
O176 Cd172 2.352 . S
O176 C179 1.258 . S
C177 O174 1.320 . S
C177 O175 1.214 . S
O178 Cd170 2.277 . S
O178 C173 1.209 . S
C179 O176 1.258 . S
C179 O181 1.282 . S
O180 Cd172 2.277 . S
O180 C173 1.226 . S
O181 Cd172 2.356 . S
O181 C179 1.282 . S
C182 O183 1.306 . S
C182 O185 1.160 . S
O183 C182 1.306 . S
O183 Cd184 2.228 . S
Cd184 O183 2.228 . S
Cd184 O188 2.273 . S
Cd184 O192 2.277 . S
O185 C182 1.160 . S
O185 Cd186 2.203 . S
Cd186 O185 2.203 . S
Cd186 O188 2.411 . S
Cd186 O189 2.333 . S
Cd186 O190 2.352 . S
Cd186 O194 2.277 . S
Cd186 O195 2.356 . S
C187 O192 1.209 . S
C187 O194 1.226 . S
O188 Cd184 2.273 . S
O188 Cd186 2.411 . S
O188 C191 1.320 . S
O189 Cd186 2.333 . S
O189 C191 1.214 . S
O190 Cd186 2.352 . S
O190 C193 1.258 . S
C191 O188 1.320 . S
C191 O189 1.214 . S
O192 Cd184 2.277 . S
O192 C187 1.209 . S
C193 O190 1.258 . S
C193 O195 1.282 . S
O194 Cd186 2.277 . S
O194 C187 1.226 . S
O195 Cd186 2.356 . S
O195 C193 1.282 . S
C196 O197 1.306 . S
C196 O199 1.160 . S
O197 C196 1.306 . S
O197 Cd198 2.228 . S
Cd198 O197 2.228 . S
Cd198 O202 2.273 . S
Cd198 O206 2.277 . S
O199 C196 1.160 . S
O199 Cd200 2.203 . S
Cd200 O199 2.203 . S
Cd200 O202 2.411 . S
Cd200 O203 2.333 . S
Cd200 O204 2.352 . S
Cd200 O208 2.277 . S
Cd200 O209 2.356 . S
C201 O206 1.209 . S
C201 O208 1.226 . S
O202 Cd198 2.273 . S
O202 Cd200 2.411 . S
O202 C205 1.320 . S
O203 Cd200 2.333 . S
O203 C205 1.214 . S
O204 Cd200 2.352 . S
O204 C207 1.258 . S
C205 O202 1.320 . S
C205 O203 1.214 . S
O206 Cd198 2.277 . S
O206 C201 1.209 . S
C207 O204 1.258 . S
C207 O209 1.282 . S
O208 Cd200 2.277 . S
O208 C201 1.226 . S
O209 Cd200 2.356 . S
O209 C207 1.282 . S
C210 O211 1.306 . S
C210 O213 1.160 . S
O211 C210 1.306 . S
O211 Cd212 2.228 . S
Cd212 O211 2.228 . S
Cd212 O216 2.273 . S
Cd212 O220 2.277 . S
O213 C210 1.160 . S
O213 Cd214 2.203 . S
Cd214 O213 2.203 . S
Cd214 O216 2.411 . S
Cd214 O217 2.333 . S
Cd214 O218 2.352 . S
Cd214 O222 2.277 . S
Cd214 O223 2.356 . S
C215 O220 1.209 . S
C215 O222 1.226 . S
O216 Cd212 2.273 . S
O216 Cd214 2.411 . S
O216 C219 1.320 . S
O217 Cd214 2.333 . S
O217 C219 1.214 . S
O218 Cd214 2.352 . S
O218 C221 1.258 . S
C219 O216 1.320 . S
C219 O217 1.214 . S
O220 Cd212 2.277 . S
O220 C215 1.209 . S
C221 O218 1.258 . S
C221 O223 1.282 . S
O222 Cd214 2.277 . S
O222 C215 1.226 . S
O223 Cd214 2.356 . S
O223 C221 1.282 . S
C224 O225 1.306 . S
C224 O227 1.160 . S
O225 C224 1.306 . S
O225 Cd226 2.228 . S
Cd226 O225 2.228 . S
Cd226 O230 2.273 . S
Cd226 O234 2.277 1_545 S
O227 C224 1.160 . S
O227 Cd228 2.203 . S
Cd228 O227 2.203 . S
Cd228 O230 2.411 . S
Cd228 O231 2.333 . S
Cd228 O232 2.352 . S
Cd228 O236 2.277 . S
Cd228 O237 2.356 . S
C229 O234 1.209 . S
C229 O236 1.226 1_565 S
O230 Cd226 2.273 . S
O230 Cd228 2.411 . S
O230 C233 1.320 . S
O231 Cd228 2.333 . S
O231 C233 1.214 . S
O232 Cd228 2.352 . S
O232 C235 1.258 . S
C233 O230 1.320 . S
C233 O231 1.214 . S
O234 Cd226 2.277 1_565 S
O234 C229 1.209 . S
C235 O232 1.258 . S
C235 O237 1.282 . S
O236 Cd228 2.277 . S
O236 C229 1.226 1_545 S
O237 Cd228 2.356 . S
O237 C235 1.282 . S
C238 O239 1.306 . S
C238 O241 1.160 . S
O239 C238 1.306 . S
O239 Cd240 2.228 . S
Cd240 O239 2.228 . S
Cd240 O244 2.273 . S
Cd240 O248 2.277 . S
O241 C238 1.160 . S
O241 Cd242 2.203 . S
Cd242 O241 2.203 . S
Cd242 O244 2.411 . S
Cd242 O245 2.333 . S
Cd242 O246 2.352 . S
Cd242 O250 2.277 . S
Cd242 O251 2.356 . S
C243 O248 1.209 . S
C243 O250 1.226 . S
O244 Cd240 2.273 . S
O244 Cd242 2.411 . S
O244 C247 1.320 . S
O245 Cd242 2.333 . S
O245 C247 1.214 . S
O246 Cd242 2.352 . S
O246 C249 1.258 . S
C247 O244 1.320 . S
C247 O245 1.214 . S
O248 Cd240 2.277 . S
O248 C243 1.209 . S
C249 O246 1.258 . S
C249 O251 1.282 . S
O250 Cd242 2.277 . S
O250 C243 1.226 . S
O251 Cd242 2.356 . S
O251 C249 1.282 . S
C252 O253 1.306 . S
C252 O255 1.160 . S
O253 C252 1.306 . S
O253 Cd254 2.228 . S
Cd254 O253 2.228 . S
Cd254 O258 2.273 . S
Cd254 O262 2.277 . S
O255 C252 1.160 . S
O255 Cd256 2.203 . S
Cd256 O255 2.203 . S
Cd256 O258 2.411 . S
Cd256 O259 2.333 . S
Cd256 O260 2.352 . S
Cd256 O264 2.277 . S
Cd256 O265 2.356 . S
C257 O262 1.209 . S
C257 O264 1.226 . S
O258 Cd254 2.273 . S
O258 Cd256 2.411 . S
O258 C261 1.320 . S
O259 Cd256 2.333 . S
O259 C261 1.214 . S
O260 Cd256 2.352 . S
O260 C263 1.258 . S
C261 O258 1.320 . S
C261 O259 1.214 . S
O262 Cd254 2.277 . S
O262 C257 1.209 . S
C263 O260 1.258 . S
C263 O265 1.282 . S
O264 Cd256 2.277 . S
O264 C257 1.226 . S
O265 Cd256 2.356 . S
O265 C263 1.282 . S
C266 O267 1.306 . S
C266 O269 1.160 . S
O267 C266 1.306 . S
O267 Cd268 2.228 . S
Cd268 O267 2.228 . S
Cd268 O272 2.273 . S
Cd268 O276 2.277 . S
O269 C266 1.160 . S
O269 Cd270 2.203 . S
Cd270 O269 2.203 . S
Cd270 O272 2.411 . S
Cd270 O273 2.333 . S
Cd270 O274 2.352 1_545 S
Cd270 O278 2.277 . S
Cd270 O279 2.356 1_545 S
C271 O276 1.209 . S
C271 O278 1.226 . S
O272 Cd268 2.273 . S
O272 Cd270 2.411 . S
O272 C275 1.320 . S
O273 Cd270 2.333 . S
O273 C275 1.214 . S
O274 Cd270 2.352 1_565 S
O274 C277 1.258 . S
C275 O272 1.320 . S
C275 O273 1.214 . S
O276 Cd268 2.277 . S
O276 C271 1.209 . S
C277 O274 1.258 . S
C277 O279 1.282 . S
O278 Cd270 2.277 . S
O278 C271 1.226 . S
O279 Cd270 2.356 1_565 S
O279 C277 1.282 . S
C280 O281 1.306 . S
C280 O283 1.160 . S
O281 C280 1.306 . S
O281 Cd282 2.228 . S
Cd282 O281 2.228 . S
Cd282 O286 2.273 . S
Cd282 O290 2.277 . S
O283 C280 1.160 . S
O283 Cd284 2.203 . S
Cd284 O283 2.203 . S
Cd284 O286 2.411 . S
Cd284 O287 2.333 . S
Cd284 O288 2.352 1_554 S
Cd284 O292 2.277 . S
Cd284 O293 2.356 . S
C285 O290 1.209 . S
C285 O292 1.226 . S
O286 Cd282 2.273 . S
O286 Cd284 2.411 . S
O286 C289 1.320 . S
O287 Cd284 2.333 . S
O287 C289 1.214 . S
O288 Cd284 2.352 1_556 S
O288 C291 1.258 . S
C289 O286 1.320 . S
C289 O287 1.214 . S
O290 Cd282 2.277 . S
O290 C285 1.209 . S
C291 O288 1.258 . S
C291 O293 1.282 1_556 S
O292 Cd284 2.277 . S
O292 C285 1.226 . S
O293 Cd284 2.356 . S
O293 C291 1.282 1_554 S
C294 O295 1.306 . S
C294 O297 1.160 . S
O295 C294 1.306 . S
O295 Cd296 2.228 . S
Cd296 O295 2.228 . S
Cd296 O300 2.273 . S
Cd296 O304 2.277 . S
O297 C294 1.160 . S
O297 Cd298 2.203 . S
Cd298 O297 2.203 . S
Cd298 O300 2.411 . S
Cd298 O301 2.333 . S
Cd298 O302 2.352 . S
Cd298 O306 2.277 . S
Cd298 O307 2.356 . S
C299 O304 1.209 . S
C299 O306 1.226 . S
O300 Cd296 2.273 . S
O300 Cd298 2.411 . S
O300 C303 1.320 . S
O301 Cd298 2.333 . S
O301 C303 1.214 . S
O302 Cd298 2.352 . S
O302 C305 1.258 . S
C303 O300 1.320 . S
C303 O301 1.214 . S
O304 Cd296 2.277 . S
O304 C299 1.209 . S
C305 O302 1.258 . S
C305 O307 1.282 . S
O306 Cd298 2.277 . S
O306 C299 1.226 . S
O307 Cd298 2.356 . S
O307 C305 1.282 . S
C308 O309 1.306 . S
C308 O311 1.160 . S
O309 C308 1.306 . S
O309 Cd310 2.228 . S
Cd310 O309 2.228 . S
Cd310 O314 2.273 . S
Cd310 O318 2.277 . S
O311 C308 1.160 . S
O311 Cd312 2.203 . S
Cd312 O311 2.203 . S
Cd312 O314 2.411 . S
Cd312 O315 2.333 . S
Cd312 O316 2.352 . S
Cd312 O320 2.277 . S
Cd312 O321 2.356 . S
C313 O318 1.209 . S
C313 O320 1.226 . S
O314 Cd310 2.273 . S
O314 Cd312 2.411 . S
O314 C317 1.320 . S
O315 Cd312 2.333 . S
O315 C317 1.214 . S
O316 Cd312 2.352 . S
O316 C319 1.258 . S
C317 O314 1.320 . S
C317 O315 1.214 . S
O318 Cd310 2.277 . S
O318 C313 1.209 . S
C319 O316 1.258 . S
C319 O321 1.282 . S
O320 Cd312 2.277 . S
O320 C313 1.226 . S
O321 Cd312 2.356 . S
O321 C319 1.282 . S
C322 O323 1.306 . S
C322 O325 1.160 . S
O323 C322 1.306 . S
O323 Cd324 2.228 . S
Cd324 O323 2.228 . S
Cd324 O328 2.273 . S
Cd324 O332 2.277 . S
O325 C322 1.160 . S
O325 Cd326 2.203 . S
Cd326 O325 2.203 . S
Cd326 O328 2.411 . S
Cd326 O329 2.333 . S
Cd326 O330 2.352 . S
Cd326 O334 2.277 . S
Cd326 O335 2.356 . S
C327 O332 1.209 . S
C327 O334 1.226 . S
O328 Cd324 2.273 . S
O328 Cd326 2.411 . S
O328 C331 1.320 . S
O329 Cd326 2.333 . S
O329 C331 1.214 . S
O330 Cd326 2.352 . S
O330 C333 1.258 . S
C331 O328 1.320 . S
C331 O329 1.214 . S
O332 Cd324 2.277 . S
O332 C327 1.209 . S
C333 O330 1.258 . S
C333 O335 1.282 . S
O334 Cd326 2.277 . S
O334 C327 1.226 . S
O335 Cd326 2.356 . S
O335 C333 1.282 . S
C336 Eu337 2.835 . S
C336 C338 1.500 1_545 S
C336 O356 1.255 . S
C336 O357 1.260 . S
Eu337 C336 2.835 . S
Eu337 O356 2.485 . S
Eu337 O357 2.480 . S
Eu337 O358 2.430 . S
Eu337 O359 2.670 . S
Eu337 O360 2.394 1_545 S
Eu337 O365 2.355 . S
Eu337 O367 2.374 . S
C338 C336 1.500 1_565 S
C338 C339 1.377 . S
C338 C343 1.377 . S
C339 C338 1.377 . S
C339 C340 1.395 . S
C339 H368 0.928 1_565 S
C340 C339 1.395 . S
C340 C341 1.383 . S
C340 H369 0.931 . S
C341 C340 1.383 . S
C341 C342 1.394 . S
C342 C341 1.394 . S
C342 C343 1.378 . S
C342 H370 0.931 . S
C343 C338 1.377 . S
C343 C342 1.378 . S
C343 H371 0.931 . S
C344 O358 1.259 . S
C344 O359 1.270 . S
C345 O360 1.251 . S
C345 O361 1.251 . S
C346 Eu347 2.817 1_655 S
C346 C348 1.500 . S
C346 O362 1.257 . S
C346 O363 1.260 . S
Eu347 C346 2.817 1_455 S
Eu347 O359 2.365 . S
Eu347 O361 2.384 1_545 S
Eu347 O362 2.456 1_455 S
Eu347 O363 2.464 1_455 S
Eu347 O364 2.441 1_554 S
Eu347 O365 2.692 . S
Eu347 O366 2.401 . S
C348 C346 1.500 . S
C348 C349 1.377 1_554 S
C348 C353 1.377 . S
C349 C348 1.377 1_556 S
C349 C350 1.395 . S
C349 H372 0.931 . S
C350 C349 1.395 . S
C350 C351 1.383 1_556 S
C350 H373 0.931 . S
C351 C350 1.383 1_554 S
C351 C352 1.394 . S
C352 C351 1.394 . S
C352 C353 1.378 . S
C352 H374 0.931 . S
C353 C348 1.377 . S
C353 C352 1.378 . S
C353 H375 0.931 . S
C354 O364 1.259 . S
C354 O365 1.270 1_556 S
C355 O366 1.251 . S
C355 O367 1.251 . S
O356 C336 1.255 . S
O356 Eu337 2.485 . S
O357 C336 1.260 . S
O357 Eu337 2.480 . S
O358 Eu337 2.430 . S
O358 C344 1.259 . S
O359 Eu337 2.670 . S
O359 C344 1.270 . S
O359 Eu347 2.365 . S
O360 Eu337 2.394 1_565 S
O360 C345 1.251 . S
O361 C345 1.251 . S
O361 Eu347 2.384 1_565 S
O362 C346 1.257 . S
O362 Eu347 2.456 1_655 S
O363 C346 1.260 . S
O363 Eu347 2.464 1_655 S
O364 Eu347 2.441 1_556 S
O364 C354 1.259 . S
O365 Eu337 2.355 . S
O365 Eu347 2.692 . S
O365 C354 1.270 1_554 S
O366 Eu347 2.401 . S
O366 C355 1.251 . S
O367 Eu337 2.374 . S
O367 C355 1.251 . S
H368 C339 0.928 1_545 S
H369 C340 0.931 . S
H370 C342 0.931 . S
H371 C343 0.931 . S
H372 C349 0.931 . S
H373 C350 0.931 . S
H374 C352 0.931 . S
H375 C353 0.931 . S
C376 Eu377 2.835 . S
C376 C378 1.500 . S
C376 O396 1.257 . S
C376 O397 1.260 . S
Eu377 C376 2.835 . S
Eu377 O396 2.473 . S
Eu377 O397 2.480 . S
Eu377 O398 2.430 . S
Eu377 O399 2.670 . S
Eu377 O400 2.394 . S
Eu377 O405 2.355 . S
Eu377 O407 2.374 . S
C378 C376 1.500 . S
C378 C379 1.377 . S
C378 C383 1.377 . S
C379 C378 1.377 . S
C379 C380 1.395 . S
C379 H408 0.931 . S
C380 C379 1.395 . S
C380 C381 1.383 . S
C380 H409 0.931 . S
C381 C380 1.383 . S
C381 C382 1.394 . S
C382 C381 1.394 . S
C382 C383 1.378 . S
C382 H410 0.931 . S
C383 C378 1.377 . S
C383 C382 1.378 . S
C383 H411 0.931 . S
C384 O398 1.259 . S
C384 O399 1.270 . S
C385 O400 1.251 . S
C385 O401 1.251 . S
C386 Eu387 2.835 . S
C386 C388 1.500 . S
C386 O402 1.257 . S
C386 O403 1.260 . S
Eu387 C386 2.835 . S
Eu387 O399 2.355 . S
Eu387 O401 2.374 . S
Eu387 O402 2.473 . S
Eu387 O403 2.480 . S
Eu387 O404 2.430 . S
Eu387 O405 2.670 . S
Eu387 O406 2.394 . S
C388 C386 1.500 . S
C388 C389 1.377 . S
C388 C393 1.377 . S
C389 C388 1.377 . S
C389 C390 1.395 . S
C389 H412 0.931 . S
C390 C389 1.395 . S
C390 C391 1.383 . S
C390 H413 0.931 . S
C391 C390 1.383 . S
C391 C392 1.394 . S
C392 C391 1.394 . S
C392 C393 1.378 . S
C392 H414 0.931 . S
C393 C388 1.377 . S
C393 C392 1.378 . S
C393 H415 0.931 . S
C394 O404 1.259 . S
C394 O405 1.270 . S
C395 O406 1.251 . S
C395 O407 1.251 . S
O396 C376 1.257 . S
O396 Eu377 2.473 . S
O397 C376 1.260 . S
O397 Eu377 2.480 . S
O398 Eu377 2.430 . S
O398 C384 1.259 . S
O399 Eu377 2.670 . S
O399 C384 1.270 . S
O399 Eu387 2.355 . S
O400 Eu377 2.394 . S
O400 C385 1.251 . S
O401 C385 1.251 . S
O401 Eu387 2.374 . S
O402 C386 1.257 . S
O402 Eu387 2.473 . S
O403 C386 1.260 . S
O403 Eu387 2.480 . S
O404 Eu387 2.430 . S
O404 C394 1.259 . S
O405 Eu377 2.355 . S
O405 Eu387 2.670 . S
O405 C394 1.270 . S
O406 Eu387 2.394 . S
O406 C395 1.251 . S
O407 Eu377 2.374 . S
O407 C395 1.251 . S
H408 C379 0.931 . S
H409 C380 0.931 . S
H410 C382 0.931 . S
H411 C383 0.931 . S
H412 C389 0.931 . S
H413 C390 0.931 . S
H414 C392 0.931 . S
H415 C393 0.931 . S
C416 Eu417 2.835 . S
C416 C418 1.500 . S
C416 O436 1.257 . S
C416 O437 1.260 . S
Eu417 C416 2.835 . S
Eu417 O436 2.473 . S
Eu417 O437 2.480 . S
Eu417 O438 2.430 . S
Eu417 O439 2.670 . S
Eu417 O440 2.394 . S
Eu417 O445 2.355 . S
Eu417 O447 2.374 1_545 S
C418 C416 1.500 . S
C418 C419 1.377 . S
C418 C423 1.377 . S
C419 C418 1.377 . S
C419 C420 1.395 . S
C419 H448 0.931 . S
C420 C419 1.395 . S
C420 C421 1.383 . S
C420 H449 0.931 . S
C421 C420 1.383 . S
C421 C422 1.394 . S
C422 C421 1.394 . S
C422 C423 1.378 . S
C422 H450 0.931 . S
C423 C418 1.377 . S
C423 C422 1.378 . S
C423 H451 0.931 . S
C424 O438 1.259 . S
C424 O439 1.270 . S
C425 O440 1.251 . S
C425 O441 1.251 . S
C426 Eu427 2.835 1_565 S
C426 C428 1.500 . S
C426 O442 1.257 . S
C426 O443 1.260 1_565 S
Eu427 C426 2.835 1_545 S
Eu427 O439 2.355 . S
Eu427 O441 2.374 . S
Eu427 O442 2.473 1_545 S
Eu427 O443 2.480 . S
Eu427 O444 2.430 . S
Eu427 O445 2.670 . S
Eu427 O446 2.394 1_545 S
C428 C426 1.500 . S
C428 C429 1.377 . S
C428 C433 1.377 . S
C429 C428 1.377 . S
C429 C430 1.395 . S
C429 H452 0.931 . S
C430 C429 1.395 . S
C430 C431 1.383 . S
C430 H453 0.931 . S
C431 C430 1.383 . S
C431 C432 1.394 . S
C432 C431 1.394 . S
C432 C433 1.378 . S
C432 H454 0.931 . S
C433 C428 1.377 . S
C433 C432 1.378 . S
C433 H455 0.931 . S
C434 O444 1.259 . S
C434 O445 1.270 . S
C435 O446 1.251 . S
C435 O447 1.251 . S
O436 C416 1.257 . S
O436 Eu417 2.473 . S
O437 C416 1.260 . S
O437 Eu417 2.480 . S
O438 Eu417 2.430 . S
O438 C424 1.259 . S
O439 Eu417 2.670 . S
O439 C424 1.270 . S
O439 Eu427 2.355 . S
O440 Eu417 2.394 . S
O440 C425 1.251 . S
O441 C425 1.251 . S
O441 Eu427 2.374 . S
O442 C426 1.257 . S
O442 Eu427 2.473 1_565 S
O443 C426 1.260 1_545 S
O443 Eu427 2.480 . S
O444 Eu427 2.430 . S
O444 C434 1.259 . S
O445 Eu417 2.355 . S
O445 Eu427 2.670 . S
O445 C434 1.270 . S
O446 Eu427 2.394 1_565 S
O446 C435 1.251 . S
O447 Eu417 2.374 1_565 S
O447 C435 1.251 . S
H448 C419 0.931 . S
H449 C420 0.931 . S
H450 C422 0.931 . S
H451 C423 0.931 . S
H452 C429 0.931 . S
H453 C430 0.931 . S
H454 C432 0.931 . S
H455 C433 0.931 . S
C456 Eu457 2.835 . S
C456 C458 1.500 . S
C456 O476 1.257 . S
C456 O477 1.260 . S
Eu457 C456 2.835 . S
Eu457 O476 2.473 . S
Eu457 O477 2.480 . S
Eu457 O478 2.430 . S
Eu457 O479 2.670 . S
Eu457 O480 2.394 . S
Eu457 O485 2.355 . S
Eu457 O487 2.374 . S
C458 C456 1.500 . S
C458 C459 1.377 . S
C458 C463 1.377 . S
C459 C458 1.377 . S
C459 C460 1.395 . S
C459 H488 0.931 . S
C460 C459 1.395 . S
C460 C461 1.383 . S
C460 H489 0.931 . S
C461 C460 1.383 . S
C461 C462 1.394 . S
C462 C461 1.394 . S
C462 C463 1.378 . S
C462 H490 0.931 . S
C463 C458 1.377 . S
C463 C462 1.378 . S
C463 H491 0.931 . S
C464 O478 1.259 . S
C464 O479 1.270 . S
C465 O480 1.251 . S
C465 O481 1.251 . S
C466 Eu467 2.835 . S
C466 C468 1.500 . S
C466 O482 1.257 . S
C466 O483 1.260 . S
Eu467 C466 2.835 . S
Eu467 O479 2.355 . S
Eu467 O481 2.374 . S
Eu467 O482 2.473 . S
Eu467 O483 2.480 . S
Eu467 O484 2.430 . S
Eu467 O485 2.670 . S
Eu467 O486 2.394 . S
C468 C466 1.500 . S
C468 C469 1.377 . S
C468 C473 1.377 . S
C469 C468 1.377 . S
C469 C470 1.395 . S
C469 H492 0.931 . S
C470 C469 1.395 . S
C470 C471 1.383 . S
C470 H493 0.931 . S
C471 C470 1.383 . S
C471 C472 1.394 . S
C472 C471 1.394 . S
C472 C473 1.378 . S
C472 H494 0.931 . S
C473 C468 1.377 . S
C473 C472 1.378 . S
C473 H495 0.931 . S
C474 O484 1.259 . S
C474 O485 1.270 . S
C475 O486 1.251 . S
C475 O487 1.251 . S
O476 C456 1.257 . S
O476 Eu457 2.473 . S
O477 C456 1.260 . S
O477 Eu457 2.480 . S
O478 Eu457 2.430 . S
O478 C464 1.259 . S
O479 Eu457 2.670 . S
O479 C464 1.270 . S
O479 Eu467 2.355 . S
O480 Eu457 2.394 . S
O480 C465 1.251 . S
O481 C465 1.251 . S
O481 Eu467 2.374 . S
O482 C466 1.257 . S
O482 Eu467 2.473 . S
O483 C466 1.260 . S
O483 Eu467 2.480 . S
O484 Eu467 2.430 . S
O484 C474 1.259 . S
O485 Eu457 2.355 . S
O485 Eu467 2.670 . S
O485 C474 1.270 . S
O486 Eu467 2.394 . S
O486 C475 1.251 . S
O487 Eu457 2.374 . S
O487 C475 1.251 . S
H488 C459 0.931 . S
H489 C460 0.931 . S
H490 C462 0.931 . S
H491 C463 0.931 . S
H492 C469 0.931 . S
H493 C470 0.931 . S
H494 C472 0.931 . S
H495 C473 0.931 . S
C496 Eu497 2.835 . S
C496 C498 1.500 . S
C496 O516 1.257 . S
C496 O517 1.260 . S
Eu497 C496 2.835 . S
Eu497 O516 2.473 . S
Eu497 O517 2.480 . S
Eu497 O518 2.430 1_565 S
Eu497 O519 2.670 1_565 S
Eu497 O520 2.394 1_565 S
Eu497 O525 2.355 1_565 S
Eu497 O527 2.345 1_565 S
C498 C496 1.500 . S
C498 C499 1.377 . S
C498 C503 1.377 . S
C499 C498 1.377 . S
C499 C500 1.395 . S
C499 H528 0.931 . S
C500 C499 1.395 . S
C500 C501 1.383 . S
C500 H529 0.931 . S
C501 C500 1.383 . S
C501 C502 1.394 . S
C502 C501 1.394 . S
C502 C503 1.378 . S
C502 H530 0.931 . S
C503 C498 1.377 . S
C503 C502 1.378 . S
C503 H531 0.931 . S
C504 O518 1.259 . S
C504 O519 1.270 . S
C505 O520 1.254 . S
C505 O521 1.251 . S
C506 Eu507 2.835 . S
C506 C508 1.500 . S
C506 O522 1.257 . S
C506 O523 1.260 . S
Eu507 C506 2.835 . S
Eu507 O519 2.355 . S
Eu507 O521 2.374 . S
Eu507 O522 2.473 . S
Eu507 O523 2.480 . S
Eu507 O524 2.430 1_455 S
Eu507 O525 2.670 . S
Eu507 O526 2.394 . S
C508 C506 1.500 . S
C508 C509 1.377 1_455 S
C508 C513 1.377 . S
C509 C508 1.377 1_655 S
C509 C510 1.395 . S
C509 H532 0.931 . S
C510 C509 1.395 . S
C510 C511 1.383 1_655 S
C510 H533 0.931 . S
C511 C510 1.383 1_455 S
C511 C512 1.394 . S
C512 C511 1.394 . S
C512 C513 1.378 . S
C512 H534 0.931 . S
C513 C508 1.377 . S
C513 C512 1.378 . S
C513 H535 0.931 . S
C514 O524 1.259 . S
C514 O525 1.270 1_655 S
C515 O526 1.251 . S
C515 O527 1.296 . S
O516 C496 1.257 . S
O516 Eu497 2.473 . S
O517 C496 1.260 . S
O517 Eu497 2.480 . S
O518 Eu497 2.430 1_545 S
O518 C504 1.259 . S
O519 Eu497 2.670 1_545 S
O519 C504 1.270 . S
O519 Eu507 2.355 . S
O520 Eu497 2.394 1_545 S
O520 C505 1.254 . S
O521 C505 1.251 . S
O521 Eu507 2.374 . S
O522 C506 1.257 . S
O522 Eu507 2.473 . S
O523 C506 1.260 . S
O523 Eu507 2.480 . S
O524 Eu507 2.430 1_655 S
O524 C514 1.259 . S
O525 Eu497 2.355 1_545 S
O525 Eu507 2.670 . S
O525 C514 1.270 1_455 S
O526 Eu507 2.394 . S
O526 C515 1.251 . S
O527 Eu497 2.345 1_545 S
O527 C515 1.296 . S
H528 C499 0.931 . S
H529 C500 0.931 . S
H530 C502 0.931 . S
H531 C503 0.931 . S
H532 C509 0.931 . S
H533 C510 0.931 . S
H534 C512 0.931 . S
H535 C513 0.931 . S
C536 Eu537 2.835 . S
C536 C538 1.500 . S
C536 O556 1.257 . S
C536 O557 1.260 . S
Eu537 C536 2.835 . S
Eu537 O556 2.473 . S
Eu537 O557 2.480 . S
Eu537 O558 2.430 . S
Eu537 O559 2.670 . S
Eu537 O560 2.394 . S
Eu537 O565 2.355 . S
Eu537 O567 2.374 . S
C538 C536 1.500 . S
C538 C539 1.377 . S
C538 C543 1.377 . S
C539 C538 1.377 . S
C539 C540 1.395 . S
C539 H568 0.931 . S
C540 C539 1.395 . S
C540 C541 1.383 . S
C540 H569 0.931 . S
C541 C540 1.383 . S
C541 C542 1.394 . S
C542 C541 1.394 . S
C542 C543 1.378 . S
C542 H570 0.931 . S
C543 C538 1.377 . S
C543 C542 1.378 . S
C543 H571 0.931 . S
C544 O558 1.259 . S
C544 O559 1.270 . S
C545 O560 1.251 . S
C545 O561 1.251 . S
C546 Eu547 2.835 . S
C546 C548 1.500 . S
C546 O562 1.257 . S
C546 O563 1.260 . S
Eu547 C546 2.835 . S
Eu547 O559 2.355 . S
Eu547 O561 2.374 . S
Eu547 O562 2.473 . S
Eu547 O563 2.480 . S
Eu547 O564 2.430 . S
Eu547 O565 2.670 . S
Eu547 O566 2.394 . S
C548 C546 1.500 . S
C548 C549 1.377 . S
C548 C553 1.377 . S
C549 C548 1.377 . S
C549 C550 1.395 . S
C549 H572 0.931 . S
C550 C549 1.395 . S
C550 C551 1.383 . S
C550 H573 0.931 . S
C551 C550 1.383 . S
C551 C552 1.394 . S
C552 C551 1.394 . S
C552 C553 1.378 . S
C552 H574 0.931 . S
C553 C548 1.377 . S
C553 C552 1.378 . S
C553 H575 0.931 . S
C554 O564 1.259 . S
C554 O565 1.270 . S
C555 O566 1.251 . S
C555 O567 1.251 . S
O556 C536 1.257 . S
O556 Eu537 2.473 . S
O557 C536 1.260 . S
O557 Eu537 2.480 . S
O558 Eu537 2.430 . S
O558 C544 1.259 . S
O559 Eu537 2.670 . S
O559 C544 1.270 . S
O559 Eu547 2.355 . S
O560 Eu537 2.394 . S
O560 C545 1.251 . S
O561 C545 1.251 . S
O561 Eu547 2.374 . S
O562 C546 1.257 . S
O562 Eu547 2.473 . S
O563 C546 1.260 . S
O563 Eu547 2.480 . S
O564 Eu547 2.430 . S
O564 C554 1.259 . S
O565 Eu537 2.355 . S
O565 Eu547 2.670 . S
O565 C554 1.270 . S
O566 Eu547 2.394 . S
O566 C555 1.251 . S
O567 Eu537 2.374 . S
O567 C555 1.251 . S
H568 C539 0.931 . S
H569 C540 0.931 . S
H570 C542 0.931 . S
H571 C543 0.931 . S
H572 C549 0.931 . S
H573 C550 0.931 . S
H574 C552 0.931 . S
H575 C553 0.931 . S
C576 Eu577 2.835 . S
C576 C578 1.500 . S
C576 O596 1.257 . S
C576 O597 1.260 . S
Eu577 C576 2.835 . S
Eu577 O596 2.473 . S
Eu577 O597 2.480 . S
Eu577 O598 2.430 1_545 S
Eu577 O599 2.670 1_545 S
Eu577 O600 2.394 . S
Eu577 O605 2.355 . S
Eu577 O607 2.374 . S
C578 C576 1.500 . S
C578 C579 1.377 . S
C578 C583 1.377 . S
C579 C578 1.377 . S
C579 C580 1.395 . S
C579 H608 0.931 . S
C580 C579 1.395 . S
C580 C581 1.383 . S
C580 H609 0.931 . S
C581 C580 1.383 . S
C581 C582 1.394 . S
C582 C581 1.394 . S
C582 C583 1.378 . S
C582 H610 0.931 . S
C583 C578 1.377 . S
C583 C582 1.378 . S
C583 H611 0.931 . S
C584 O598 1.259 . S
C584 O599 1.270 . S
C585 O600 1.260 . S
C585 O601 1.251 1_554 S
C586 Eu587 2.835 1_565 S
C586 C588 1.500 . S
C586 O602 1.257 . S
C586 O603 1.260 1_565 S
Eu587 C586 2.835 1_545 S
Eu587 O599 2.355 1_545 S
Eu587 O601 2.374 1_554 S
Eu587 O602 2.473 1_545 S
Eu587 O603 2.480 . S
Eu587 O604 2.430 . S
Eu587 O605 2.670 . S
Eu587 O606 2.394 . S
C588 C586 1.500 . S
C588 C589 1.377 . S
C588 C593 1.377 . S
C589 C588 1.377 . S
C589 C590 1.395 . S
C589 H612 0.931 1_565 S
C590 C589 1.395 . S
C590 C591 1.383 . S
C590 H613 0.931 . S
C591 C590 1.383 . S
C591 C592 1.394 . S
C592 C591 1.394 . S
C592 C593 1.378 . S
C592 H614 0.931 . S
C593 C588 1.377 . S
C593 C592 1.378 . S
C593 H615 0.931 . S
C594 O604 1.259 . S
C594 O605 1.270 . S
C595 O606 1.251 . S
C595 O607 1.251 . S
O596 C576 1.257 . S
O596 Eu577 2.473 . S
O597 C576 1.260 . S
O597 Eu577 2.480 . S
O598 Eu577 2.430 1_565 S
O598 C584 1.259 . S
O599 Eu577 2.670 1_565 S
O599 C584 1.270 . S
O599 Eu587 2.355 1_565 S
O600 Eu577 2.394 . S
O600 C585 1.260 . S
O601 C585 1.251 1_556 S
O601 Eu587 2.374 1_556 S
O602 C586 1.257 . S
O602 Eu587 2.473 1_565 S
O603 C586 1.260 1_545 S
O603 Eu587 2.480 . S
O604 Eu587 2.430 . S
O604 C594 1.259 . S
O605 Eu577 2.355 . S
O605 Eu587 2.670 . S
O605 C594 1.270 . S
O606 Eu587 2.394 . S
O606 C595 1.251 . S
O607 Eu577 2.374 . S
O607 C595 1.251 . S
H608 C579 0.931 . S
H609 C580 0.931 . S
H610 C582 0.931 . S
H611 C583 0.931 . S
H612 C589 0.931 1_545 S
H613 C590 0.931 . S
H614 C592 0.931 . S
H615 C593 0.931 . S
C616 Eu617 2.835 . S
C616 C618 1.500 . S
C616 O636 1.257 . S
C616 O637 1.260 . S
Eu617 C616 2.835 . S
Eu617 O636 2.473 . S
Eu617 O637 2.480 . S
Eu617 O638 2.430 . S
Eu617 O639 2.670 . S
Eu617 O640 2.394 . S
Eu617 O645 2.355 . S
Eu617 O647 2.374 . S
C618 C616 1.500 . S
C618 C619 1.377 . S
C618 C623 1.377 . S
C619 C618 1.377 . S
C619 C620 1.395 . S
C619 H648 0.931 . S
C620 C619 1.395 . S
C620 C621 1.383 . S
C620 H649 0.931 . S
C621 C620 1.383 . S
C621 C622 1.394 . S
C622 C621 1.394 . S
C622 C623 1.378 . S
C622 H650 0.931 . S
C623 C618 1.377 . S
C623 C622 1.378 . S
C623 H651 0.931 . S
C624 O638 1.259 . S
C624 O639 1.270 . S
C625 O640 1.251 . S
C625 O641 1.251 . S
C626 Eu627 2.835 . S
C626 C628 1.500 . S
C626 O642 1.257 . S
C626 O643 1.260 . S
Eu627 C626 2.835 . S
Eu627 O639 2.355 . S
Eu627 O641 2.374 . S
Eu627 O642 2.473 . S
Eu627 O643 2.480 . S
Eu627 O644 2.430 . S
Eu627 O645 2.670 . S
Eu627 O646 2.394 . S
C628 C626 1.500 . S
C628 C629 1.377 . S
C628 C633 1.377 . S
C629 C628 1.377 . S
C629 C630 1.395 . S
C629 H652 0.931 . S
C630 C629 1.395 . S
C630 C631 1.383 . S
C630 H653 0.931 . S
C631 C630 1.383 . S
C631 C632 1.394 . S
C632 C631 1.394 . S
C632 C633 1.378 . S
C632 H654 0.931 . S
C633 C628 1.377 . S
C633 C632 1.378 . S
C633 H655 0.931 . S
C634 O644 1.259 . S
C634 O645 1.270 . S
C635 O646 1.251 . S
C635 O647 1.251 . S
O636 C616 1.257 . S
O636 Eu617 2.473 . S
O637 C616 1.260 . S
O637 Eu617 2.480 . S
O638 Eu617 2.430 . S
O638 C624 1.259 . S
O639 Eu617 2.670 . S
O639 C624 1.270 . S
O639 Eu627 2.355 . S
O640 Eu617 2.394 . S
O640 C625 1.251 . S
O641 C625 1.251 . S
O641 Eu627 2.374 . S
O642 C626 1.257 . S
O642 Eu627 2.473 . S
O643 C626 1.260 . S
O643 Eu627 2.480 . S
O644 Eu627 2.430 . S
O644 C634 1.259 . S
O645 Eu617 2.355 . S
O645 Eu627 2.670 . S
O645 C634 1.270 . S
O646 Eu627 2.394 . S
O646 C635 1.251 . S
O647 Eu617 2.374 . S
O647 C635 1.251 . S
H648 C619 0.931 . S
H649 C620 0.931 . S
H650 C622 0.931 . S
H651 C623 0.931 . S
H652 C629 0.931 . S
H653 C630 0.931 . S
H654 C632 0.931 . S
H655 C633 0.931 . S
C656 Eu657 2.835 . S
C656 C658 1.500 . S
C656 O676 1.257 . S
C656 O677 1.260 . S
Eu657 C656 2.835 . S
Eu657 O676 2.473 . S
Eu657 O677 2.480 . S
Eu657 O678 2.430 . S
Eu657 O679 2.670 . S
Eu657 O680 2.394 . S
Eu657 O685 2.355 . S
Eu657 O687 2.374 1_554 S
C658 C656 1.500 . S
C658 C659 1.377 . S
C658 C663 1.377 . S
C659 C658 1.377 . S
C659 C660 1.395 . S
C659 H688 0.931 . S
C660 C659 1.395 . S
C660 C661 1.383 . S
C660 H689 0.931 . S
C661 C660 1.383 . S
C661 C662 1.394 . S
C662 C661 1.394 . S
C662 C663 1.378 . S
C662 H690 0.931 . S
C663 C658 1.377 . S
C663 C662 1.378 . S
C663 H691 0.931 . S
C664 O678 1.259 . S
C664 O679 1.270 . S
C665 O680 1.251 . S
C665 O681 1.251 . S
C666 Eu667 2.835 . S
C666 C668 1.500 . S
C666 O682 1.257 . S
C666 O683 1.260 . S
Eu667 C666 2.835 . S
Eu667 O679 2.355 . S
Eu667 O681 2.374 . S
Eu667 O682 2.473 . S
Eu667 O683 2.480 . S
Eu667 O684 2.430 . S
Eu667 O685 2.670 . S
Eu667 O686 2.394 . S
C668 C666 1.500 . S
C668 C669 1.377 . S
C668 C673 1.377 . S
C669 C668 1.377 . S
C669 C670 1.395 . S
C669 H692 0.931 . S
C670 C669 1.395 . S
C670 C671 1.383 . S
C670 H693 0.931 . S
C671 C670 1.383 . S
C671 C672 1.390 1_554 S
C672 C671 1.390 1_556 S
C672 C673 1.366 1_556 S
C672 H694 0.947 . S
C673 C668 1.377 . S
C673 C672 1.366 1_554 S
C673 H695 0.931 . S
C674 O684 1.259 . S
C674 O685 1.270 . S
C675 O686 1.251 1_556 S
C675 O687 1.251 . S
O676 C656 1.257 . S
O676 Eu657 2.473 . S
O677 C656 1.260 . S
O677 Eu657 2.480 . S
O678 Eu657 2.430 . S
O678 C664 1.259 . S
O679 Eu657 2.670 . S
O679 C664 1.270 . S
O679 Eu667 2.355 . S
O680 Eu657 2.394 . S
O680 C665 1.251 . S
O681 C665 1.251 . S
O681 Eu667 2.374 . S
O682 C666 1.257 . S
O682 Eu667 2.473 . S
O683 C666 1.260 . S
O683 Eu667 2.480 . S
O684 Eu667 2.430 . S
O684 C674 1.259 . S
O685 Eu657 2.355 . S
O685 Eu667 2.670 . S
O685 C674 1.270 . S
O686 Eu667 2.394 . S
O686 C675 1.251 1_554 S
O687 Eu657 2.374 1_556 S
O687 C675 1.251 . S
H688 C659 0.931 . S
H689 C660 0.931 . S
H690 C662 0.931 . S
H691 C663 0.931 . S
H692 C669 0.931 . S
H693 C670 0.931 . S
H694 C672 0.947 . S
H695 C673 0.931 . S
C696 Eu697 2.835 . S
C696 C698 1.500 . S
C696 O716 1.257 . S
C696 O717 1.260 . S
Eu697 C696 2.835 . S
Eu697 O716 2.473 . S
Eu697 O717 2.480 . S
Eu697 O718 2.430 . S
Eu697 O719 2.670 . S
Eu697 O720 2.394 . S
Eu697 O725 2.355 . S
Eu697 O727 2.374 . S
C698 C696 1.500 . S
C698 C699 1.377 . S
C698 C703 1.377 . S
C699 C698 1.377 . S
C699 C700 1.395 . S
C699 H728 0.931 . S
C700 C699 1.395 . S
C700 C701 1.383 . S
C700 H729 0.931 . S
C701 C700 1.383 . S
C701 C702 1.394 . S
C702 C701 1.394 . S
C702 C703 1.378 . S
C702 H730 0.931 . S
C703 C698 1.377 . S
C703 C702 1.378 . S
C703 H731 0.931 . S
C704 O718 1.259 . S
C704 O719 1.270 . S
C705 O720 1.251 . S
C705 O721 1.251 . S
C706 Eu707 2.835 . S
C706 C708 1.500 . S
C706 O722 1.257 . S
C706 O723 1.260 . S
Eu707 C706 2.835 . S
Eu707 O719 2.355 . S
Eu707 O721 2.374 . S
Eu707 O722 2.473 . S
Eu707 O723 2.480 . S
Eu707 O724 2.430 . S
Eu707 O725 2.670 . S
Eu707 O726 2.394 . S
C708 C706 1.500 . S
C708 C709 1.377 . S
C708 C713 1.377 . S
C709 C708 1.377 . S
C709 C710 1.395 . S
C709 H732 0.931 . S
C710 C709 1.395 . S
C710 C711 1.383 . S
C710 H733 0.931 . S
C711 C710 1.383 . S
C711 C712 1.394 . S
C712 C711 1.394 . S
C712 C713 1.378 . S
C712 H734 0.931 . S
C713 C708 1.377 . S
C713 C712 1.378 . S
C713 H735 0.931 . S
C714 O724 1.259 . S
C714 O725 1.270 . S
C715 O726 1.251 . S
C715 O727 1.251 . S
O716 C696 1.257 . S
O716 Eu697 2.473 . S
O717 C696 1.260 . S
O717 Eu697 2.480 . S
O718 Eu697 2.430 . S
O718 C704 1.259 . S
O719 Eu697 2.670 . S
O719 C704 1.270 . S
O719 Eu707 2.355 . S
O720 Eu697 2.394 . S
O720 C705 1.251 . S
O721 C705 1.251 . S
O721 Eu707 2.374 . S
O722 C706 1.257 . S
O722 Eu707 2.473 . S
O723 C706 1.260 . S
O723 Eu707 2.480 . S
O724 Eu707 2.430 . S
O724 C714 1.259 . S
O725 Eu697 2.355 . S
O725 Eu707 2.670 . S
O725 C714 1.270 . S
O726 Eu707 2.394 . S
O726 C715 1.251 . S
O727 Eu697 2.374 . S
O727 C715 1.251 . S
H728 C699 0.931 . S
H729 C700 0.931 . S
H730 C702 0.931 . S
H731 C703 0.931 . S
H732 C709 0.931 . S
H733 C710 0.931 . S
H734 C712 0.931 . S
H735 C713 0.931 . S
C736 Eu737 2.835 . S
C736 C738 1.500 . S
C736 O756 1.257 . S
C736 O757 1.260 . S
Eu737 C736 2.835 . S
Eu737 O756 2.473 . S
Eu737 O757 2.480 . S
Eu737 O758 2.430 . S
Eu737 O759 2.670 . S
Eu737 O760 2.394 . S
Eu737 O765 2.355 . S
Eu737 O767 2.374 . S
C738 C736 1.500 . S
C738 C739 1.377 . S
C738 C743 1.377 . S
C739 C738 1.377 . S
C739 C740 1.395 . S
C739 H768 0.931 . S
C740 C739 1.395 . S
C740 C741 1.383 . S
C740 H769 0.931 . S
C741 C740 1.383 . S
C741 C742 1.394 . S
C742 C741 1.394 . S
C742 C743 1.378 . S
C742 H770 0.931 . S
C743 C738 1.377 . S
C743 C742 1.378 . S
C743 H771 0.931 . S
C744 O758 1.259 . S
C744 O759 1.270 . S
C745 O760 1.251 . S
C745 O761 1.251 . S
C746 Eu747 2.830 1_655 S
C746 C748 1.500 . S
C746 O762 1.257 . S
C746 O763 1.260 . S
Eu747 C746 2.830 1_455 S
Eu747 O759 2.359 . S
Eu747 O761 2.378 . S
Eu747 O762 2.469 1_455 S
Eu747 O763 2.474 1_455 S
Eu747 O764 2.429 . S
Eu747 O765 2.674 . S
Eu747 O766 2.393 1_455 S
C748 C746 1.500 . S
C748 C749 1.377 . S
C748 C753 1.377 . S
C749 C748 1.377 . S
C749 C750 1.395 . S
C749 H772 0.931 . S
C750 C749 1.395 . S
C750 C751 1.383 . S
C750 H773 0.931 . S
C751 C750 1.383 . S
C751 C752 1.394 . S
C752 C751 1.394 . S
C752 C753 1.378 . S
C752 H774 0.931 . S
C753 C748 1.377 . S
C753 C752 1.378 . S
C753 H775 0.931 . S
C754 O764 1.259 . S
C754 O765 1.270 . S
C755 O766 1.251 1_455 S
C755 O767 1.251 . S
O756 C736 1.257 . S
O756 Eu737 2.473 . S
O757 C736 1.260 . S
O757 Eu737 2.480 . S
O758 Eu737 2.430 . S
O758 C744 1.259 . S
O759 Eu737 2.670 . S
O759 C744 1.270 . S
O759 Eu747 2.359 . S
O760 Eu737 2.394 . S
O760 C745 1.251 . S
O761 C745 1.251 . S
O761 Eu747 2.378 . S
O762 C746 1.257 . S
O762 Eu747 2.469 1_655 S
O763 C746 1.260 . S
O763 Eu747 2.474 1_655 S
O764 Eu747 2.429 . S
O764 C754 1.259 . S
O765 Eu737 2.355 . S
O765 Eu747 2.674 . S
O765 C754 1.270 . S
O766 Eu747 2.393 1_655 S
O766 C755 1.251 1_655 S
O767 Eu737 2.374 . S
O767 C755 1.251 . S
H768 C739 0.931 . S
H769 C740 0.931 . S
H770 C742 0.931 . S
H771 C743 0.931 . S
H772 C749 0.931 . S
H773 C750 0.931 . S
H774 C752 0.931 . S
H775 C753 0.931 . S
C776 Eu777 2.835 . S
C776 C778 1.500 . S
C776 O796 1.257 . S
C776 O797 1.260 . S
Eu777 C776 2.835 . S
Eu777 O796 2.473 . S
Eu777 O797 2.480 . S
Eu777 O798 2.430 . S
Eu777 O799 2.670 . S
Eu777 O800 2.394 . S
Eu777 O805 2.355 . S
Eu777 O807 2.374 . S
C778 C776 1.500 . S
C778 C779 1.377 . S
C778 C783 1.377 . S
C779 C778 1.377 . S
C779 C780 1.395 . S
C779 H808 0.931 . S
C780 C779 1.395 . S
C780 C781 1.383 . S
C780 H809 0.931 . S
C781 C780 1.383 . S
C781 C782 1.394 . S
C782 C781 1.394 . S
C782 C783 1.378 . S
C782 H810 0.931 . S
C783 C778 1.377 . S
C783 C782 1.378 . S
C783 H811 0.931 . S
C784 O798 1.259 . S
C784 O799 1.270 . S
C785 O800 1.251 . S
C785 O801 1.251 . S
C786 Eu787 2.835 . S
C786 C788 1.500 . S
C786 O802 1.257 . S
C786 O803 1.260 . S
Eu787 C786 2.835 . S
Eu787 O799 2.355 . S
Eu787 O801 2.374 . S
Eu787 O802 2.473 . S
Eu787 O803 2.480 . S
Eu787 O804 2.430 . S
Eu787 O805 2.670 . S
Eu787 O806 2.394 . S
C788 C786 1.500 . S
C788 C789 1.377 . S
C788 C793 1.377 . S
C789 C788 1.377 . S
C789 C790 1.395 . S
C789 H812 0.931 . S
C790 C789 1.395 . S
C790 C791 1.383 . S
C790 H813 0.931 . S
C791 C790 1.383 . S
C791 C792 1.394 . S
C792 C791 1.394 . S
C792 C793 1.378 . S
C792 H814 0.931 . S
C793 C788 1.377 . S
C793 C792 1.378 . S
C793 H815 0.931 . S
C794 O804 1.259 . S
C794 O805 1.270 . S
C795 O806 1.251 . S
C795 O807 1.251 . S
O796 C776 1.257 . S
O796 Eu777 2.473 . S
O797 C776 1.260 . S
O797 Eu777 2.480 . S
O798 Eu777 2.430 . S
O798 C784 1.259 . S
O799 Eu777 2.670 . S
O799 C784 1.270 . S
O799 Eu787 2.355 . S
O800 Eu777 2.394 . S
O800 C785 1.251 . S
O801 C785 1.251 . S
O801 Eu787 2.374 . S
O802 C786 1.257 . S
O802 Eu787 2.473 . S
O803 C786 1.260 . S
O803 Eu787 2.480 . S
O804 Eu787 2.430 . S
O804 C794 1.259 . S
O805 Eu777 2.355 . S
O805 Eu787 2.670 . S
O805 C794 1.270 . S
O806 Eu787 2.394 . S
O806 C795 1.251 . S
O807 Eu777 2.374 . S
O807 C795 1.251 . S
H808 C779 0.931 . S
H809 C780 0.931 . S
H810 C782 0.931 . S
H811 C783 0.931 . S
H812 C789 0.931 . S
H813 C790 0.931 . S
H814 C792 0.931 . S
H815 C793 0.931 . S
C816 Eu817 2.835 . S
C816 C818 1.500 . S
C816 O836 1.257 . S
C816 O837 1.260 . S
Eu817 C816 2.835 . S
Eu817 O836 2.473 . S
Eu817 O837 2.480 . S
Eu817 O838 2.430 . S
Eu817 O839 2.670 . S
Eu817 O840 2.394 . S
Eu817 O845 2.355 . S
Eu817 O847 2.374 . S
C818 C816 1.500 . S
C818 C819 1.377 . S
C818 C823 1.377 . S
C819 C818 1.377 . S
C819 C820 1.395 . S
C819 H848 0.931 . S
C820 C819 1.395 . S
C820 C821 1.383 . S
C820 H849 0.931 . S
C821 C820 1.383 . S
C821 C822 1.394 . S
C822 C821 1.394 . S
C822 C823 1.378 . S
C822 H850 0.931 . S
C823 C818 1.377 . S
C823 C822 1.378 . S
C823 H851 0.931 . S
C824 O838 1.259 . S
C824 O839 1.270 . S
C825 O840 1.251 . S
C825 O841 1.251 . S
C826 Eu827 2.835 . S
C826 C828 1.500 . S
C826 O842 1.257 . S
C826 O843 1.260 . S
Eu827 C826 2.835 . S
Eu827 O839 2.355 . S
Eu827 O841 2.374 . S
Eu827 O842 2.473 . S
Eu827 O843 2.480 . S
Eu827 O844 2.430 . S
Eu827 O845 2.670 . S
Eu827 O846 2.394 . S
C828 C826 1.500 . S
C828 C829 1.377 . S
C828 C833 1.377 . S
C829 C828 1.377 . S
C829 C830 1.395 . S
C829 H852 0.931 . S
C830 C829 1.395 . S
C830 C831 1.383 . S
C830 H853 0.931 . S
C831 C830 1.383 . S
C831 C832 1.394 . S
C832 C831 1.394 . S
C832 C833 1.378 . S
C832 H854 0.931 . S
C833 C828 1.377 . S
C833 C832 1.378 . S
C833 H855 0.931 . S
C834 O844 1.259 . S
C834 O845 1.270 . S
C835 O846 1.251 . S
C835 O847 1.251 . S
O836 C816 1.257 . S
O836 Eu817 2.473 . S
O837 C816 1.260 . S
O837 Eu817 2.480 . S
O838 Eu817 2.430 . S
O838 C824 1.259 . S
O839 Eu817 2.670 . S
O839 C824 1.270 . S
O839 Eu827 2.355 . S
O840 Eu817 2.394 . S
O840 C825 1.251 . S
O841 C825 1.251 . S
O841 Eu827 2.374 . S
O842 C826 1.257 . S
O842 Eu827 2.473 . S
O843 C826 1.260 . S
O843 Eu827 2.480 . S
O844 Eu827 2.430 . S
O844 C834 1.259 . S
O845 Eu817 2.355 . S
O845 Eu827 2.670 . S
O845 C834 1.270 . S
O846 Eu827 2.394 . S
O846 C835 1.251 . S
O847 Eu817 2.374 . S
O847 C835 1.251 . S
H848 C819 0.931 . S
H849 C820 0.931 . S
H850 C822 0.931 . S
H851 C823 0.931 . S
H852 C829 0.931 . S
H853 C830 0.931 . S
H854 C832 0.931 . S
H855 C833 0.931 . S
C856 Eu857 2.835 . S
C856 C858 1.500 . S
C856 O876 1.257 . S
C856 O877 1.260 . S
Eu857 C856 2.835 . S
Eu857 O876 2.473 . S
Eu857 O877 2.480 . S
Eu857 O878 2.430 . S
Eu857 O879 2.670 . S
Eu857 O880 2.394 . S
Eu857 O885 2.355 . S
Eu857 O887 2.374 . S
C858 C856 1.500 . S
C858 C859 1.377 . S
C858 C863 1.377 . S
C859 C858 1.377 . S
C859 C860 1.395 . S
C859 H888 0.931 . S
C860 C859 1.395 . S
C860 C861 1.383 . S
C860 H889 0.931 . S
C861 C860 1.383 . S
C861 C862 1.394 . S
C862 C861 1.394 . S
C862 C863 1.378 . S
C862 H890 0.931 . S
C863 C858 1.377 . S
C863 C862 1.378 . S
C863 H891 0.931 . S
C864 O878 1.259 . S
C864 O879 1.270 . S
C865 O880 1.251 . S
C865 O881 1.251 . S
C866 Eu867 2.835 . S
C866 C868 1.500 . S
C866 O882 1.257 . S
C866 O883 1.260 . S
Eu867 C866 2.835 . S
Eu867 O879 2.355 . S
Eu867 O881 2.374 . S
Eu867 O882 2.473 . S
Eu867 O883 2.480 . S
Eu867 O884 2.430 . S
Eu867 O885 2.670 . S
Eu867 O886 2.394 . S
C868 C866 1.500 . S
C868 C869 1.377 . S
C868 C873 1.377 . S
C869 C868 1.377 . S
C869 C870 1.395 . S
C869 H892 0.931 . S
C870 C869 1.395 . S
C870 C871 1.383 . S
C870 H893 0.931 . S
C871 C870 1.383 . S
C871 C872 1.394 . S
C872 C871 1.394 . S
C872 C873 1.378 . S
C872 H894 0.931 . S
C873 C868 1.377 . S
C873 C872 1.378 . S
C873 H895 0.931 . S
C874 O884 1.259 . S
C874 O885 1.270 . S
C875 O886 1.251 . S
C875 O887 1.251 . S
O876 C856 1.257 . S
O876 Eu857 2.473 . S
O877 C856 1.260 . S
O877 Eu857 2.480 . S
O878 Eu857 2.430 . S
O878 C864 1.259 . S
O879 Eu857 2.670 . S
O879 C864 1.270 . S
O879 Eu867 2.355 . S
O880 Eu857 2.394 . S
O880 C865 1.251 . S
O881 C865 1.251 . S
O881 Eu867 2.374 . S
O882 C866 1.257 . S
O882 Eu867 2.473 . S
O883 C866 1.260 . S
O883 Eu867 2.480 . S
O884 Eu867 2.430 . S
O884 C874 1.259 . S
O885 Eu857 2.355 . S
O885 Eu867 2.670 . S
O885 C874 1.270 . S
O886 Eu867 2.394 . S
O886 C875 1.251 . S
O887 Eu857 2.374 . S
O887 C875 1.251 . S
H888 C859 0.931 . S
H889 C860 0.931 . S
H890 C862 0.931 . S
H891 C863 0.931 . S
H892 C869 0.931 . S
H893 C870 0.931 . S
H894 C872 0.931 . S
H895 C873 0.931 . S
C896 Eu897 2.835 . S
C896 C898 1.500 . S
C896 O916 1.257 . S
C896 O917 1.260 . S
Eu897 C896 2.835 . S
Eu897 O916 2.473 . S
Eu897 O917 2.480 . S
Eu897 O918 2.430 . S
Eu897 O919 2.670 . S
Eu897 O920 2.394 . S
Eu897 O925 2.355 . S
Eu897 O927 2.374 . S
C898 C896 1.500 . S
C898 C899 1.377 . S
C898 C903 1.377 . S
C899 C898 1.377 . S
C899 C900 1.395 . S
C899 H928 0.931 . S
C900 C899 1.395 . S
C900 C901 1.383 . S
C900 H929 0.931 . S
C901 C900 1.383 . S
C901 C902 1.394 . S
C902 C901 1.394 . S
C902 C903 1.378 . S
C902 H930 0.931 . S
C903 C898 1.377 . S
C903 C902 1.378 . S
C903 H931 0.931 . S
C904 O918 1.259 . S
C904 O919 1.270 . S
C905 O920 1.251 . S
C905 O921 1.251 . S
C906 Eu907 2.835 . S
C906 C908 1.500 . S
C906 O922 1.257 . S
C906 O923 1.260 . S
Eu907 C906 2.835 . S
Eu907 O919 2.355 . S
Eu907 O921 2.374 . S
Eu907 O922 2.473 . S
Eu907 O923 2.480 . S
Eu907 O924 2.430 . S
Eu907 O925 2.670 . S
Eu907 O926 2.394 . S
C908 C906 1.500 . S
C908 C909 1.377 . S
C908 C913 1.377 . S
C909 C908 1.377 . S
C909 C910 1.395 . S
C909 H932 0.931 . S
C910 C909 1.395 . S
C910 C911 1.383 . S
C910 H933 0.931 . S
C911 C910 1.383 . S
C911 C912 1.394 . S
C912 C911 1.394 . S
C912 C913 1.378 . S
C912 H934 0.931 . S
C913 C908 1.377 . S
C913 C912 1.378 . S
C913 H935 0.931 . S
C914 O924 1.259 . S
C914 O925 1.270 . S
C915 O926 1.251 . S
C915 O927 1.251 . S
O916 C896 1.257 . S
O916 Eu897 2.473 . S
O917 C896 1.260 . S
O917 Eu897 2.480 . S
O918 Eu897 2.430 . S
O918 C904 1.259 . S
O919 Eu897 2.670 . S
O919 C904 1.270 . S
O919 Eu907 2.355 . S
O920 Eu897 2.394 . S
O920 C905 1.251 . S
O921 C905 1.251 . S
O921 Eu907 2.374 . S
O922 C906 1.257 . S
O922 Eu907 2.473 . S
O923 C906 1.260 . S
O923 Eu907 2.480 . S
O924 Eu907 2.430 . S
O924 C914 1.259 . S
O925 Eu897 2.355 . S
O925 Eu907 2.670 . S
O925 C914 1.270 . S
O926 Eu907 2.394 . S
O926 C915 1.251 . S
O927 Eu897 2.374 . S
O927 C915 1.251 . S
H928 C899 0.931 . S
H929 C900 0.931 . S
H930 C902 0.931 . S
H931 C903 0.931 . S
H932 C909 0.931 . S
H933 C910 0.931 . S
H934 C912 0.931 . S
H935 C913 0.931 . S
C936 Eu937 2.836 . S
C936 C938 1.500 . S
C936 O956 1.257 . S
C936 O957 1.260 . S
Eu937 C936 2.836 . S
Eu937 O956 2.473 . S
Eu937 O957 2.480 . S
Eu937 O958 2.430 1_655 S
Eu937 O959 2.669 1_655 S
Eu937 O960 2.394 1_655 S
Eu937 O965 2.355 1_655 S
Eu937 O967 2.373 1_655 S
C938 C936 1.500 . S
C938 C939 1.377 . S
C938 C943 1.377 . S
C939 C938 1.377 . S
C939 C940 1.395 . S
C939 H968 0.931 . S
C940 C939 1.395 . S
C940 C941 1.383 . S
C940 H969 0.931 . S
C941 C940 1.383 . S
C941 C942 1.394 . S
C942 C941 1.394 . S
C942 C943 1.378 . S
C942 H970 0.931 . S
C943 C938 1.377 . S
C943 C942 1.378 . S
C943 H971 0.931 . S
C944 O958 1.259 . S
C944 O959 1.270 . S
C945 O960 1.251 . S
C945 O961 1.251 . S
C946 Eu947 2.835 . S
C946 C948 1.500 . S
C946 O962 1.257 . S
C946 O963 1.260 . S
Eu947 C946 2.835 . S
Eu947 O959 2.355 . S
Eu947 O961 2.374 . S
Eu947 O962 2.473 . S
Eu947 O963 2.480 . S
Eu947 O964 2.430 1_554 S
Eu947 O965 2.670 . S
Eu947 O966 2.394 . S
C948 C946 1.500 . S
C948 C949 1.377 1_554 S
C948 C953 1.377 . S
C949 C948 1.377 1_556 S
C949 C950 1.395 . S
C949 H972 0.931 . S
C950 C949 1.395 . S
C950 C951 1.383 1_556 S
C950 H973 0.931 . S
C951 C950 1.383 1_554 S
C951 C952 1.394 . S
C952 C951 1.394 . S
C952 C953 1.378 . S
C952 H974 0.931 . S
C953 C948 1.377 . S
C953 C952 1.378 . S
C953 H975 0.931 . S
C954 O964 1.259 . S
C954 O965 1.270 1_556 S
C955 O966 1.251 . S
C955 O967 1.251 . S
O956 C936 1.257 . S
O956 Eu937 2.473 . S
O957 C936 1.260 . S
O957 Eu937 2.480 . S
O958 Eu937 2.430 1_455 S
O958 C944 1.259 . S
O959 Eu937 2.669 1_455 S
O959 C944 1.270 . S
O959 Eu947 2.355 . S
O960 Eu937 2.394 1_455 S
O960 C945 1.251 . S
O961 C945 1.251 . S
O961 Eu947 2.374 . S
O962 C946 1.257 . S
O962 Eu947 2.473 . S
O963 C946 1.260 . S
O963 Eu947 2.480 . S
O964 Eu947 2.430 1_556 S
O964 C954 1.259 . S
O965 Eu937 2.355 1_455 S
O965 Eu947 2.670 . S
O965 C954 1.270 1_554 S
O966 Eu947 2.394 . S
O966 C955 1.251 . S
O967 Eu937 2.373 1_455 S
O967 C955 1.251 . S
H968 C939 0.931 . S
H969 C940 0.931 . S
H970 C942 0.931 . S
H971 C943 0.931 . S
H972 C949 0.931 . S
H973 C950 0.931 . S
H974 C952 0.931 . S
H975 C953 0.931 . S
H976 C984 0.950 . S
H977 C989 0.950 . S
H978 C986 0.950 1_554 S
H979 C988 0.950 . S
H980 C990 0.950 1_655 S
H981 C992 0.950 1_655 S
H982 C994 0.950 . S
H983 C995 0.950 . S
C984 H976 0.950 . S
C984 C985 1.386 . S
C984 C986 1.391 . S
C985 C984 1.386 . S
C985 C989 1.393 1_455 S
C986 H978 0.950 1_556 S
C986 C984 1.391 . S
C986 C987 1.400 . S
C987 C986 1.400 . S
C987 C988 1.398 1_455 S
C987 C993 1.491 1_556 S
C988 H979 0.950 . S
C988 C987 1.398 1_655 S
C988 C989 1.391 . S
C989 H977 0.950 . S
C989 C985 1.393 1_655 S
C989 C988 1.391 . S
C990 H980 0.950 1_455 S
C990 C991 1.386 . S
C990 C992 1.391 1_554 S
C991 C990 1.386 . S
C991 C995 1.393 . S
C992 H981 0.950 1_455 S
C992 C990 1.391 1_556 S
C992 C993 1.400 1_556 S
C993 C987 1.491 1_554 S
C993 C992 1.400 1_554 S
C993 C994 1.398 . S
C994 H982 0.950 . S
C994 C993 1.398 . S
C994 C995 1.391 . S
C995 H983 0.950 . S
C995 C991 1.393 . S
C995 C994 1.391 . S
H996 C1004 0.950 . S
H997 C1009 0.950 . S
H998 C1006 0.950 . S
H999 C1008 0.950 . S
H1000 C1010 0.950 . S
H1001 C1012 0.950 . S
H1002 C1014 0.950 . S
H1003 C1015 0.950 . S
C1004 H996 0.950 . S
C1004 C1005 1.386 . S
C1004 C1006 1.391 . S
C1005 C1004 1.386 . S
C1005 C1009 1.393 . S
C1006 H998 0.950 . S
C1006 C1004 1.391 . S
C1006 C1007 1.400 . S
C1007 C1006 1.400 . S
C1007 C1008 1.398 . S
C1007 C1013 1.491 . S
C1008 H999 0.950 . S
C1008 C1007 1.398 . S
C1008 C1009 1.391 . S
C1009 H997 0.950 . S
C1009 C1005 1.393 . S
C1009 C1008 1.391 . S
C1010 H1000 0.950 . S
C1010 C1011 1.386 . S
C1010 C1012 1.391 . S
C1011 C1010 1.386 . S
C1011 C1015 1.393 . S
C1012 H1001 0.950 . S
C1012 C1010 1.391 . S
C1012 C1013 1.400 . S
C1013 C1007 1.491 . S
C1013 C1012 1.400 . S
C1013 C1014 1.398 . S
C1014 H1002 0.950 . S
C1014 C1013 1.398 . S
C1014 C1015 1.391 . S
C1015 H1003 0.950 . S
C1015 C1011 1.393 . S
C1015 C1014 1.391 . S
H1016 C1024 0.950 . S
H1017 C1029 0.950 . S
H1018 C1026 0.950 . S
H1019 C1028 0.950 . S
H1020 C1030 0.950 . S
H1021 C1032 0.950 . S
H1022 C1034 0.950 . S
H1023 C1035 0.950 . S
C1024 H1016 0.950 . S
C1024 C1025 1.386 . S
C1024 C1026 1.391 . S
C1025 C1024 1.386 . S
C1025 C1029 1.393 . S
C1026 H1018 0.950 . S
C1026 C1024 1.391 . S
C1026 C1027 1.400 . S
C1027 C1026 1.400 . S
C1027 C1028 1.398 . S
C1027 C1033 1.491 . S
C1028 H1019 0.950 . S
C1028 C1027 1.398 . S
C1028 C1029 1.391 . S
C1029 H1017 0.950 . S
C1029 C1025 1.393 . S
C1029 C1028 1.391 . S
C1030 H1020 0.950 . S
C1030 C1031 1.386 . S
C1030 C1032 1.391 . S
C1031 C1030 1.386 . S
C1031 C1035 1.393 . S
C1032 H1021 0.950 . S
C1032 C1030 1.391 . S
C1032 C1033 1.400 . S
C1033 C1027 1.491 . S
C1033 C1032 1.400 . S
C1033 C1034 1.398 . S
C1034 H1022 0.950 . S
C1034 C1033 1.398 . S
C1034 C1035 1.391 . S
C1035 H1023 0.950 . S
C1035 C1031 1.393 . S
C1035 C1034 1.391 . S
H1036 C1044 0.950 . S
H1037 C1049 0.950 . S
H1038 C1046 0.950 . S
H1039 C1048 0.950 . S
H1040 C1050 0.950 . S
H1041 C1052 0.950 . S
H1042 C1054 0.950 . S
H1043 C1055 0.950 . S
C1044 H1036 0.950 . S
C1044 C1045 1.386 . S
C1044 C1046 1.391 . S
C1045 C1044 1.386 . S
C1045 C1049 1.393 . S
C1046 H1038 0.950 . S
C1046 C1044 1.391 . S
C1046 C1047 1.400 . S
C1047 C1046 1.400 . S
C1047 C1048 1.398 . S
C1047 C1053 1.491 . S
C1048 H1039 0.950 . S
C1048 C1047 1.398 . S
C1048 C1049 1.391 . S
C1049 H1037 0.950 . S
C1049 C1045 1.393 . S
C1049 C1048 1.391 . S
C1050 H1040 0.950 . S
C1050 C1051 1.386 . S
C1050 C1052 1.391 . S
C1051 C1050 1.386 . S
C1051 C1055 1.393 . S
C1052 H1041 0.950 . S
C1052 C1050 1.391 . S
C1052 C1053 1.400 . S
C1053 C1047 1.491 . S
C1053 C1052 1.400 . S
C1053 C1054 1.398 . S
C1054 H1042 0.950 . S
C1054 C1053 1.398 . S
C1054 C1055 1.391 . S
C1055 H1043 0.950 . S
C1055 C1051 1.393 . S
C1055 C1054 1.391 . S
H1056 C1064 0.950 . S
H1057 C1069 0.950 . S
H1058 C1066 0.950 . S
H1059 C1068 0.950 . S
H1060 C1070 0.950 . S
H1061 C1072 0.950 . S
H1062 C1074 0.950 . S
H1063 C1075 0.950 . S
C1064 H1056 0.950 . S
C1064 C1065 1.386 . S
C1064 C1066 1.391 . S
C1065 C1064 1.386 . S
C1065 C1069 1.393 . S
C1066 H1058 0.950 . S
C1066 C1064 1.391 . S
C1066 C1067 1.400 . S
C1067 C1066 1.400 . S
C1067 C1068 1.398 . S
C1067 C1073 1.491 . S
C1068 H1059 0.950 . S
C1068 C1067 1.398 . S
C1068 C1069 1.391 . S
C1069 H1057 0.950 . S
C1069 C1065 1.393 . S
C1069 C1068 1.391 . S
C1070 H1060 0.950 . S
C1070 C1071 1.386 . S
C1070 C1072 1.391 . S
C1071 C1070 1.386 . S
C1071 C1075 1.393 . S
C1072 H1061 0.950 . S
C1072 C1070 1.391 . S
C1072 C1073 1.400 . S
C1073 C1067 1.491 . S
C1073 C1072 1.400 . S
C1073 C1074 1.398 . S
C1074 H1062 0.950 . S
C1074 C1073 1.398 . S
C1074 C1075 1.391 . S
C1075 H1063 0.950 . S
C1075 C1071 1.393 . S
C1075 C1074 1.391 . S
H1076 C1084 0.950 . S
H1077 C1089 0.950 . S
H1078 C1086 0.950 . S
H1079 C1088 0.950 . S
H1080 C1090 0.950 . S
H1081 C1092 0.950 . S
H1082 C1094 0.950 . S
H1083 C1095 0.950 . S
C1084 H1076 0.950 . S
C1084 C1085 1.386 . S
C1084 C1086 1.391 . S
C1085 C1084 1.386 . S
C1085 C1089 1.393 . S
C1086 H1078 0.950 . S
C1086 C1084 1.391 . S
C1086 C1087 1.400 . S
C1087 C1086 1.400 . S
C1087 C1088 1.398 . S
C1087 C1093 1.491 . S
C1088 H1079 0.950 . S
C1088 C1087 1.398 . S
C1088 C1089 1.391 . S
C1089 H1077 0.950 . S
C1089 C1085 1.393 . S
C1089 C1088 1.391 . S
C1090 H1080 0.950 . S
C1090 C1091 1.386 . S
C1090 C1092 1.391 . S
C1091 C1090 1.386 . S
C1091 C1095 1.393 . S
C1092 H1081 0.950 . S
C1092 C1090 1.391 . S
C1092 C1093 1.400 . S
C1093 C1087 1.491 . S
C1093 C1092 1.400 . S
C1093 C1094 1.398 . S
C1094 H1082 0.950 . S
C1094 C1093 1.398 . S
C1094 C1095 1.391 . S
C1095 H1083 0.950 . S
C1095 C1091 1.393 . S
C1095 C1094 1.391 . S
H1096 C1104 0.950 . S
H1097 C1109 0.950 . S
H1098 C1106 0.950 . S
H1099 C1108 0.950 . S
H1100 C1110 0.950 . S
H1101 C1112 0.950 . S
H1102 C1114 0.950 . S
H1103 C1115 0.950 . S
C1104 H1096 0.950 . S
C1104 C1105 1.386 . S
C1104 C1106 1.391 . S
C1105 C1104 1.386 . S
C1105 C1109 1.393 . S
C1106 H1098 0.950 . S
C1106 C1104 1.391 . S
C1106 C1107 1.400 . S
C1107 C1106 1.400 . S
C1107 C1108 1.398 . S
C1107 C1113 1.491 . S
C1108 H1099 0.950 . S
C1108 C1107 1.398 . S
C1108 C1109 1.391 . S
C1109 H1097 0.950 . S
C1109 C1105 1.393 . S
C1109 C1108 1.391 . S
C1110 H1100 0.950 . S
C1110 C1111 1.386 . S
C1110 C1112 1.391 . S
C1111 C1110 1.386 . S
C1111 C1115 1.393 . S
C1112 H1101 0.950 . S
C1112 C1110 1.391 . S
C1112 C1113 1.400 . S
C1113 C1107 1.491 . S
C1113 C1112 1.400 . S
C1113 C1114 1.398 . S
C1114 H1102 0.950 . S
C1114 C1113 1.398 . S
C1114 C1115 1.391 . S
C1115 H1103 0.950 . S
C1115 C1111 1.393 . S
C1115 C1114 1.391 . S
H1116 C1124 0.950 . S
H1117 C1129 0.950 . S
H1118 C1126 0.950 . S
H1119 C1128 0.950 . S
H1120 C1130 0.950 . S
H1121 C1132 0.950 . S
H1122 C1134 0.950 . S
H1123 C1135 0.950 . S
C1124 H1116 0.950 . S
C1124 C1125 1.386 . S
C1124 C1126 1.391 . S
C1125 C1124 1.386 . S
C1125 C1129 1.393 . S
C1126 H1118 0.950 . S
C1126 C1124 1.391 . S
C1126 C1127 1.400 . S
C1127 C1126 1.400 . S
C1127 C1128 1.398 . S
C1127 C1133 1.491 . S
C1128 H1119 0.950 . S
C1128 C1127 1.398 . S
C1128 C1129 1.391 . S
C1129 H1117 0.950 . S
C1129 C1125 1.393 . S
C1129 C1128 1.391 . S
C1130 H1120 0.950 . S
C1130 C1131 1.386 . S
C1130 C1132 1.391 . S
C1131 C1130 1.386 . S
C1131 C1135 1.393 . S
C1132 H1121 0.950 . S
C1132 C1130 1.391 . S
C1132 C1133 1.400 . S
C1133 C1127 1.491 . S
C1133 C1132 1.400 . S
C1133 C1134 1.398 . S
C1134 H1122 0.950 . S
C1134 C1133 1.398 . S
C1134 C1135 1.391 . S
C1135 H1123 0.950 . S
C1135 C1131 1.393 . S
C1135 C1134 1.391 . S
H1136 C1144 0.950 . S
H1137 C1149 0.950 . S
H1138 C1146 0.950 . S
H1139 C1148 0.950 . S
H1140 C1150 0.950 . S
H1141 C1152 0.950 . S
H1142 C1154 0.950 . S
H1143 C1155 0.950 . S
C1144 H1136 0.950 . S
C1144 C1145 1.386 . S
C1144 C1146 1.391 . S
C1145 C1144 1.386 . S
C1145 C1149 1.393 . S
C1146 H1138 0.950 . S
C1146 C1144 1.391 . S
C1146 C1147 1.400 . S
C1147 C1146 1.400 . S
C1147 C1148 1.398 . S
C1147 C1153 1.491 . S
C1148 H1139 0.950 . S
C1148 C1147 1.398 . S
C1148 C1149 1.391 . S
C1149 H1137 0.950 . S
C1149 C1145 1.393 . S
C1149 C1148 1.391 . S
C1150 H1140 0.950 . S
C1150 C1151 1.386 1_655 S
C1150 C1152 1.391 . S
C1151 C1150 1.386 1_455 S
C1151 C1155 1.393 . S
C1152 H1141 0.950 . S
C1152 C1150 1.391 . S
C1152 C1153 1.400 . S
C1153 C1147 1.491 . S
C1153 C1152 1.400 . S
C1153 C1154 1.398 1_655 S
C1154 H1142 0.950 . S
C1154 C1153 1.398 1_455 S
C1154 C1155 1.391 . S
C1155 H1143 0.950 . S
C1155 C1151 1.393 . S
C1155 C1154 1.391 . S
H1156 C1164 0.950 . S
H1157 C1169 0.950 . S
H1158 C1166 0.950 . S
H1159 C1168 0.950 . S
H1160 C1170 0.950 . S
H1161 C1172 0.950 . S
H1162 C1174 0.950 . S
H1163 C1175 0.950 . S
C1164 H1156 0.950 . S
C1164 C1165 1.386 . S
C1164 C1166 1.391 . S
C1165 C1164 1.386 . S
C1165 C1169 1.393 . S
C1166 H1158 0.950 . S
C1166 C1164 1.391 . S
C1166 C1167 1.400 . S
C1167 C1166 1.400 . S
C1167 C1168 1.398 . S
C1167 C1173 1.491 . S
C1168 H1159 0.950 . S
C1168 C1167 1.398 . S
C1168 C1169 1.391 . S
C1169 H1157 0.950 . S
C1169 C1165 1.393 . S
C1169 C1168 1.391 . S
C1170 H1160 0.950 . S
C1170 C1171 1.386 . S
C1170 C1172 1.391 . S
C1171 C1170 1.386 . S
C1171 C1175 1.393 . S
C1172 H1161 0.950 . S
C1172 C1170 1.391 . S
C1172 C1173 1.400 . S
C1173 C1167 1.491 . S
C1173 C1172 1.400 . S
C1173 C1174 1.398 . S
C1174 H1162 0.950 . S
C1174 C1173 1.398 . S
C1174 C1175 1.391 . S
C1175 H1163 0.950 . S
C1175 C1171 1.393 . S
C1175 C1174 1.391 . S
H1176 C1184 0.950 . S
H1177 C1189 0.950 . S
H1178 C1186 0.950 . S
H1179 C1188 0.950 . S
H1180 C1190 0.950 . S
H1181 C1192 0.950 . S
H1182 C1194 0.950 . S
H1183 C1195 0.950 . S
C1184 H1176 0.950 . S
C1184 C1185 1.386 1_565 S
C1184 C1186 1.391 . S
C1185 C1184 1.386 1_545 S
C1185 C1189 1.393 . S
C1186 H1178 0.950 . S
C1186 C1184 1.391 . S
C1186 C1187 1.400 1_565 S
C1187 C1186 1.400 1_545 S
C1187 C1188 1.398 . S
C1187 C1193 1.491 . S
C1188 H1179 0.950 . S
C1188 C1187 1.398 . S
C1188 C1189 1.391 . S
C1189 H1177 0.950 . S
C1189 C1185 1.393 . S
C1189 C1188 1.391 . S
C1190 H1180 0.950 . S
C1190 C1191 1.386 . S
C1190 C1192 1.391 . S
C1191 C1190 1.386 . S
C1191 C1195 1.393 1_545 S
C1192 H1181 0.950 . S
C1192 C1190 1.391 . S
C1192 C1193 1.400 . S
C1193 C1187 1.491 . S
C1193 C1192 1.400 . S
C1193 C1194 1.398 1_545 S
C1194 H1182 0.950 . S
C1194 C1193 1.398 1_565 S
C1194 C1195 1.391 . S
C1195 H1183 0.950 . S
C1195 C1191 1.393 1_565 S
C1195 C1194 1.391 . S
H1196 C1204 0.950 . S
H1197 C1209 0.950 . S
H1198 C1206 0.950 . S
H1199 C1208 0.950 . S
H1200 C1210 0.950 . S
H1201 C1212 0.950 . S
H1202 C1214 0.950 . S
H1203 C1215 0.950 . S
C1204 H1196 0.950 . S
C1204 C1205 1.386 . S
C1204 C1206 1.391 . S
C1205 C1204 1.386 . S
C1205 C1209 1.393 . S
C1206 H1198 0.950 . S
C1206 C1204 1.391 . S
C1206 C1207 1.400 . S
C1207 C1206 1.400 . S
C1207 C1208 1.398 . S
C1207 C1213 1.491 . S
C1208 H1199 0.950 . S
C1208 C1207 1.398 . S
C1208 C1209 1.391 . S
C1209 H1197 0.950 . S
C1209 C1205 1.393 . S
C1209 C1208 1.391 . S
C1210 H1200 0.950 . S
C1210 C1211 1.386 . S
C1210 C1212 1.391 . S
C1211 C1210 1.386 . S
C1211 C1215 1.393 . S
C1212 H1201 0.950 . S
C1212 C1210 1.391 . S
C1212 C1213 1.400 . S
C1213 C1207 1.491 . S
C1213 C1212 1.400 . S
C1213 C1214 1.398 . S
C1214 H1202 0.950 . S
C1214 C1213 1.398 . S
C1214 C1215 1.391 . S
C1215 H1203 0.950 . S
C1215 C1211 1.393 . S
C1215 C1214 1.391 . S
H1216 C1224 0.950 . S
H1217 C1229 0.950 . S
H1218 C1226 0.950 1_565 S
H1219 C1228 0.950 . S
H1220 C1230 0.947 1_455 S
H1221 C1232 0.950 . S
H1222 C1234 0.950 1_565 S
H1223 C1235 0.950 1_565 S
C1224 H1216 0.950 . S
C1224 C1225 1.386 . S
C1224 C1226 1.391 . S
C1225 C1224 1.386 . S
C1225 C1229 1.393 . S
C1226 H1218 0.950 1_545 S
C1226 C1224 1.391 . S
C1226 C1227 1.400 . S
C1227 C1226 1.400 . S
C1227 C1228 1.398 . S
C1227 C1233 1.491 . S
C1228 H1219 0.950 . S
C1228 C1227 1.398 . S
C1228 C1229 1.391 . S
C1229 H1217 0.950 . S
C1229 C1225 1.393 . S
C1229 C1228 1.391 . S
C1230 H1220 0.947 1_655 S
C1230 C1231 1.382 1_655 S
C1230 C1232 1.398 . S
C1231 C1230 1.382 1_455 S
C1231 C1235 1.393 1_455 S
C1232 H1221 0.950 . S
C1232 C1230 1.398 . S
C1232 C1233 1.400 . S
C1233 C1227 1.491 . S
C1233 C1232 1.400 . S
C1233 C1234 1.398 . S
C1234 H1222 0.950 1_545 S
C1234 C1233 1.398 . S
C1234 C1235 1.391 . S
C1235 H1223 0.950 1_545 S
C1235 C1231 1.393 1_655 S
C1235 C1234 1.391 . S
H1236 C1244 0.950 . S
H1237 C1249 0.950 . S
H1238 C1246 0.950 . S
H1239 C1248 0.950 . S
H1240 C1250 0.950 . S
H1241 C1252 0.950 . S
H1242 C1254 0.950 . S
H1243 C1255 0.950 . S
C1244 H1236 0.950 . S
C1244 C1245 1.386 . S
C1244 C1246 1.391 . S
C1245 C1244 1.386 . S
C1245 C1249 1.393 . S
C1246 H1238 0.950 . S
C1246 C1244 1.391 . S
C1246 C1247 1.400 . S
C1247 C1246 1.400 . S
C1247 C1248 1.398 . S
C1247 C1253 1.491 . S
C1248 H1239 0.950 . S
C1248 C1247 1.398 . S
C1248 C1249 1.391 . S
C1249 H1237 0.950 . S
C1249 C1245 1.393 . S
C1249 C1248 1.391 . S
C1250 H1240 0.950 . S
C1250 C1251 1.386 . S
C1250 C1252 1.391 . S
C1251 C1250 1.386 . S
C1251 C1255 1.393 . S
C1252 H1241 0.950 . S
C1252 C1250 1.391 . S
C1252 C1253 1.400 . S
C1253 C1247 1.491 . S
C1253 C1252 1.400 . S
C1253 C1254 1.398 . S
C1254 H1242 0.950 . S
C1254 C1253 1.398 . S
C1254 C1255 1.391 . S
C1255 H1243 0.950 . S
C1255 C1251 1.393 . S
C1255 C1254 1.391 . S
H1256 C1264 0.950 . S
H1257 C1269 0.950 . S
H1258 C1266 0.950 . S
H1259 C1268 0.950 . S
H1260 C1270 0.950 . S
H1261 C1272 0.950 . S
H1262 C1274 0.950 . S
H1263 C1275 0.950 . S
C1264 H1256 0.950 . S
C1264 C1265 1.386 . S
C1264 C1266 1.391 . S
C1265 C1264 1.386 . S
C1265 C1269 1.393 . S
C1266 H1258 0.950 . S
C1266 C1264 1.391 . S
C1266 C1267 1.400 . S
C1267 C1266 1.400 . S
C1267 C1268 1.398 . S
C1267 C1273 1.491 . S
C1268 H1259 0.950 . S
C1268 C1267 1.398 . S
C1268 C1269 1.391 . S
C1269 H1257 0.950 . S
C1269 C1265 1.393 . S
C1269 C1268 1.391 . S
C1270 H1260 0.950 . S
C1270 C1271 1.386 . S
C1270 C1272 1.391 . S
C1271 C1270 1.386 . S
C1271 C1275 1.393 . S
C1272 H1261 0.950 . S
C1272 C1270 1.391 . S
C1272 C1273 1.400 . S
C1273 C1267 1.491 . S
C1273 C1272 1.400 . S
C1273 C1274 1.398 . S
C1274 H1262 0.950 . S
C1274 C1273 1.398 . S
C1274 C1275 1.391 . S
C1275 H1263 0.950 . S
C1275 C1271 1.393 . S
C1275 C1274 1.391 . S
H1276 C1284 0.950 . S
H1277 C1289 0.950 . S
H1278 C1286 0.950 . S
H1279 C1288 0.950 . S
H1280 C1290 0.950 . S
H1281 C1292 0.950 . S
H1282 C1294 0.950 . S
H1283 C1295 0.950 . S
C1284 H1276 0.950 . S
C1284 C1285 1.386 . S
C1284 C1286 1.391 . S
C1285 C1284 1.386 . S
C1285 C1289 1.393 . S
C1286 H1278 0.950 . S
C1286 C1284 1.391 . S
C1286 C1287 1.400 . S
C1287 C1286 1.400 . S
C1287 C1288 1.398 . S
C1287 C1293 1.491 . S
C1288 H1279 0.950 . S
C1288 C1287 1.398 . S
C1288 C1289 1.391 . S
C1289 H1277 0.950 . S
C1289 C1285 1.393 . S
C1289 C1288 1.391 . S
C1290 H1280 0.950 . S
C1290 C1291 1.386 . S
C1290 C1292 1.391 . S
C1291 C1290 1.386 . S
C1291 C1295 1.393 . S
C1292 H1281 0.950 . S
C1292 C1290 1.391 . S
C1292 C1293 1.400 . S
C1293 C1287 1.491 . S
C1293 C1292 1.400 . S
C1293 C1294 1.398 . S
C1294 H1282 0.950 . S
C1294 C1293 1.398 . S
C1294 C1295 1.391 . S
C1295 H1283 0.950 . S
C1295 C1291 1.393 . S
C1295 C1294 1.391 . S
H1296 C1304 0.950 . S
H1297 C1309 0.950 . S
H1298 C1306 0.950 . S
H1299 C1308 0.950 . S
H1300 C1310 0.950 . S
H1301 C1312 0.950 . S
H1302 C1314 0.950 . S
H1303 C1315 0.950 . S
C1304 H1296 0.950 . S
C1304 C1305 1.386 . S
C1304 C1306 1.391 . S
C1305 C1304 1.386 . S
C1305 C1309 1.393 . S
C1306 H1298 0.950 . S
C1306 C1304 1.391 . S
C1306 C1307 1.400 . S
C1307 C1306 1.400 . S
C1307 C1308 1.398 . S
C1307 C1313 1.491 . S
C1308 H1299 0.950 . S
C1308 C1307 1.398 . S
C1308 C1309 1.391 . S
C1309 H1297 0.950 . S
C1309 C1305 1.393 . S
C1309 C1308 1.391 . S
C1310 H1300 0.950 . S
C1310 C1311 1.386 . S
C1310 C1312 1.391 . S
C1311 C1310 1.386 . S
C1311 C1315 1.393 . S
C1312 H1301 0.950 . S
C1312 C1310 1.391 . S
C1312 C1313 1.400 . S
C1313 C1307 1.491 . S
C1313 C1312 1.400 . S
C1313 C1314 1.398 . S
C1314 H1302 0.950 . S
C1314 C1313 1.398 . S
C1314 C1315 1.391 . S
C1315 H1303 0.950 . S
C1315 C1311 1.393 . S
C1315 C1314 1.391 . S
H1316 C1324 0.950 . S
H1317 C1329 0.950 1_556 S
H1318 C1326 0.950 . S
H1319 C1328 0.950 1_556 S
H1320 C1330 0.950 1_556 S
H1321 C1332 0.950 1_556 S
H1322 C1334 0.950 . S
H1323 C1335 0.950 . S
C1324 H1316 0.950 . S
C1324 C1325 1.386 . S
C1324 C1326 1.391 . S
C1325 C1324 1.386 . S
C1325 C1329 1.393 . S
C1326 H1318 0.950 . S
C1326 C1324 1.391 . S
C1326 C1327 1.400 . S
C1327 C1326 1.400 . S
C1327 C1328 1.398 . S
C1327 C1333 1.491 . S
C1328 H1319 0.950 1_554 S
C1328 C1327 1.398 . S
C1328 C1329 1.391 . S
C1329 H1317 0.950 1_554 S
C1329 C1325 1.393 . S
C1329 C1328 1.391 . S
C1330 H1320 0.950 1_554 S
C1330 C1331 1.386 . S
C1330 C1332 1.391 . S
C1331 C1330 1.386 . S
C1331 C1335 1.393 . S
C1332 H1321 0.950 1_554 S
C1332 C1330 1.391 . S
C1332 C1333 1.400 . S
C1333 C1327 1.491 . S
C1333 C1332 1.400 . S
C1333 C1334 1.398 . S
C1334 H1322 0.950 . S
C1334 C1333 1.398 . S
C1334 C1335 1.391 . S
C1335 H1323 0.950 . S
C1335 C1331 1.393 . S
C1335 C1334 1.391 . S
H1336 C1344 0.950 . S
H1337 C1349 0.950 . S
H1338 C1346 0.950 . S
H1339 C1348 0.950 . S
H1340 C1350 0.950 . S
H1341 C1352 0.950 . S
H1342 C1354 0.950 . S
H1343 C1355 0.950 . S
C1344 H1336 0.950 . S
C1344 C1345 1.386 . S
C1344 C1346 1.391 . S
C1345 C1344 1.386 . S
C1345 C1349 1.393 . S
C1346 H1338 0.950 . S
C1346 C1344 1.391 . S
C1346 C1347 1.400 . S
C1347 C1346 1.400 . S
C1347 C1348 1.398 . S
C1347 C1353 1.491 . S
C1348 H1339 0.950 . S
C1348 C1347 1.398 . S
C1348 C1349 1.391 . S
C1349 H1337 0.950 . S
C1349 C1345 1.393 . S
C1349 C1348 1.391 . S
C1350 H1340 0.950 . S
C1350 C1351 1.386 . S
C1350 C1352 1.391 . S
C1351 C1350 1.386 . S
C1351 C1355 1.393 . S
C1352 H1341 0.950 . S
C1352 C1350 1.391 . S
C1352 C1353 1.400 . S
C1353 C1347 1.491 . S
C1353 C1352 1.400 . S
C1353 C1354 1.398 . S
C1354 H1342 0.950 . S
C1354 C1353 1.398 . S
C1354 C1355 1.391 . S
C1355 H1343 0.950 . S
C1355 C1351 1.393 . S
C1355 C1354 1.391 . S
H1356 C1364 0.950 . S
H1357 C1369 0.950 . S
H1358 C1366 0.950 . S
H1359 C1368 0.950 . S
H1360 C1370 0.950 . S
H1361 C1372 0.950 . S
H1362 C1374 0.950 . S
H1363 C1375 0.950 . S
C1364 H1356 0.950 . S
C1364 C1365 1.386 . S
C1364 C1366 1.391 . S
C1365 C1364 1.386 . S
C1365 C1369 1.393 . S
C1366 H1358 0.950 . S
C1366 C1364 1.391 . S
C1366 C1367 1.400 . S
C1367 C1366 1.400 . S
C1367 C1368 1.398 . S
C1367 C1373 1.491 . S
C1368 H1359 0.950 . S
C1368 C1367 1.398 . S
C1368 C1369 1.391 . S
C1369 H1357 0.950 . S
C1369 C1365 1.393 . S
C1369 C1368 1.391 . S
C1370 H1360 0.950 . S
C1370 C1371 1.386 . S
C1370 C1372 1.391 . S
C1371 C1370 1.386 . S
C1371 C1375 1.393 . S
C1372 H1361 0.950 . S
C1372 C1370 1.391 . S
C1372 C1373 1.400 . S
C1373 C1367 1.491 . S
C1373 C1372 1.400 . S
C1373 C1374 1.398 . S
C1374 H1362 0.950 . S
C1374 C1373 1.398 . S
C1374 C1375 1.391 . S
C1375 H1363 0.950 . S
C1375 C1371 1.393 . S
C1375 C1374 1.391 . S
H1376 C1384 0.950 . S
H1377 C1389 0.950 . S
H1378 C1386 0.950 . S
H1379 C1388 0.950 . S
H1380 C1390 0.950 . S
H1381 C1392 0.950 . S
H1382 C1394 0.950 . S
H1383 C1395 0.950 . S
C1384 H1376 0.950 . S
C1384 C1385 1.386 . S
C1384 C1386 1.391 . S
C1385 C1384 1.386 . S
C1385 C1389 1.393 . S
C1386 H1378 0.950 . S
C1386 C1384 1.391 . S
C1386 C1387 1.400 . S
C1387 C1386 1.400 . S
C1387 C1388 1.398 . S
C1387 C1393 1.491 . S
C1388 H1379 0.950 . S
C1388 C1387 1.398 . S
C1388 C1389 1.391 . S
C1389 H1377 0.950 . S
C1389 C1385 1.393 . S
C1389 C1388 1.391 . S
C1390 H1380 0.950 . S
C1390 C1391 1.386 . S
C1390 C1392 1.391 . S
C1391 C1390 1.386 . S
C1391 C1395 1.393 . S
C1392 H1381 0.950 . S
C1392 C1390 1.391 . S
C1392 C1393 1.400 . S
C1393 C1387 1.491 . S
C1393 C1392 1.400 . S
C1393 C1394 1.398 . S
C1394 H1382 0.950 . S
C1394 C1393 1.398 . S
C1394 C1395 1.391 . S
C1395 H1383 0.950 . S
C1395 C1391 1.393 . S
C1395 C1394 1.391 . S
H1396 C1404 0.950 . S
H1397 C1409 0.950 . S
H1398 C1406 0.950 . S
H1399 C1408 0.950 . S
H1400 C1410 0.950 . S
H1401 C1412 0.950 . S
H1402 C1414 0.950 . S
H1403 C1415 0.950 . S
C1404 H1396 0.950 . S
C1404 C1405 1.386 . S
C1404 C1406 1.391 . S
C1405 C1404 1.386 . S
C1405 C1409 1.393 . S
C1406 H1398 0.950 . S
C1406 C1404 1.391 . S
C1406 C1407 1.400 . S
C1407 C1406 1.400 . S
C1407 C1408 1.398 . S
C1407 C1413 1.491 . S
C1408 H1399 0.950 . S
C1408 C1407 1.398 . S
C1408 C1409 1.391 . S
C1409 H1397 0.950 . S
C1409 C1405 1.393 . S
C1409 C1408 1.391 . S
C1410 H1400 0.950 . S
C1410 C1411 1.386 . S
C1410 C1412 1.391 . S
C1411 C1410 1.386 . S
C1411 C1415 1.393 . S
C1412 H1401 0.950 . S
C1412 C1410 1.391 . S
C1412 C1413 1.400 . S
C1413 C1407 1.491 . S
C1413 C1412 1.400 . S
C1413 C1414 1.398 . S
C1414 H1402 0.950 . S
C1414 C1413 1.398 . S
C1414 C1415 1.391 . S
C1415 H1403 0.950 . S
C1415 C1411 1.393 . S
C1415 C1414 1.391 . S
H1416 C1424 0.950 . S
H1417 C1429 0.950 . S
H1418 C1426 0.950 . S
H1419 C1428 0.950 . S
H1420 C1430 0.950 . S
H1421 C1432 0.950 . S
H1422 C1434 0.950 . S
H1423 C1435 0.950 . S
C1424 H1416 0.950 . S
C1424 C1425 1.386 . S
C1424 C1426 1.391 . S
C1425 C1424 1.386 . S
C1425 C1429 1.393 . S
C1426 H1418 0.950 . S
C1426 C1424 1.391 . S
C1426 C1427 1.400 . S
C1427 C1426 1.400 . S
C1427 C1428 1.398 . S
C1427 C1433 1.491 . S
C1428 H1419 0.950 . S
C1428 C1427 1.398 . S
C1428 C1429 1.391 . S
C1429 H1417 0.950 . S
C1429 C1425 1.393 . S
C1429 C1428 1.391 . S
C1430 H1420 0.950 . S
C1430 C1431 1.386 . S
C1430 C1432 1.391 . S
C1431 C1430 1.386 . S
C1431 C1435 1.393 . S
C1432 H1421 0.950 . S
C1432 C1430 1.391 . S
C1432 C1433 1.400 . S
C1433 C1427 1.491 . S
C1433 C1432 1.400 . S
C1433 C1434 1.398 . S
C1434 H1422 0.950 . S
C1434 C1433 1.398 . S
C1434 C1435 1.391 . S
C1435 H1423 0.950 . S
C1435 C1431 1.393 . S
C1435 C1434 1.391 . S
H1436 C1444 0.950 . S
H1437 C1449 0.950 . S
H1438 C1446 0.950 . S
H1439 C1448 0.950 . S
H1440 C1450 0.950 . S
H1441 C1452 0.950 . S
H1442 C1454 0.950 . S
H1443 C1455 0.950 . S
C1444 H1436 0.950 . S
C1444 C1445 1.386 . S
C1444 C1446 1.391 . S
C1445 C1444 1.386 . S
C1445 C1449 1.393 . S
C1446 H1438 0.950 . S
C1446 C1444 1.391 . S
C1446 C1447 1.400 . S
C1447 C1446 1.400 . S
C1447 C1448 1.398 . S
C1447 C1453 1.491 . S
C1448 H1439 0.950 . S
C1448 C1447 1.398 . S
C1448 C1449 1.391 . S
C1449 H1437 0.950 . S
C1449 C1445 1.393 . S
C1449 C1448 1.391 . S
C1450 H1440 0.950 . S
C1450 C1451 1.386 . S
C1450 C1452 1.391 . S
C1451 C1450 1.386 . S
C1451 C1455 1.393 . S
C1452 H1441 0.950 . S
C1452 C1450 1.391 . S
C1452 C1453 1.400 . S
C1453 C1447 1.491 . S
C1453 C1452 1.400 . S
C1453 C1454 1.398 . S
C1454 H1442 0.950 . S
C1454 C1453 1.398 . S
C1454 C1455 1.391 . S
C1455 H1443 0.950 . S
C1455 C1451 1.393 . S
C1455 C1454 1.391 . S
H1456 C1464 0.950 . S
H1457 C1469 0.950 . S
H1458 C1466 0.950 . S
H1459 C1468 0.950 . S
H1460 C1470 0.950 . S
H1461 C1472 0.950 . S
H1462 C1474 0.950 . S
H1463 C1475 0.950 . S
C1464 H1456 0.950 . S
C1464 C1465 1.386 . S
C1464 C1466 1.391 . S
C1465 C1464 1.386 . S
C1465 C1469 1.393 . S
C1466 H1458 0.950 . S
C1466 C1464 1.391 . S
C1466 C1467 1.400 . S
C1467 C1466 1.400 . S
C1467 C1468 1.398 . S
C1467 C1473 1.491 . S
C1468 H1459 0.950 . S
C1468 C1467 1.398 . S
C1468 C1469 1.391 . S
C1469 H1457 0.950 . S
C1469 C1465 1.393 . S
C1469 C1468 1.391 . S
C1470 H1460 0.950 . S
C1470 C1471 1.386 . S
C1470 C1472 1.391 . S
C1471 C1470 1.386 . S
C1471 C1475 1.393 . S
C1472 H1461 0.950 . S
C1472 C1470 1.391 . S
C1472 C1473 1.400 . S
C1473 C1467 1.491 . S
C1473 C1472 1.400 . S
C1473 C1474 1.398 . S
C1474 H1462 0.950 . S
C1474 C1473 1.398 . S
C1474 C1475 1.391 . S
C1475 H1463 0.950 . S
C1475 C1471 1.393 . S
C1475 C1474 1.391 . S
H1476 C1484 0.950 . S
H1477 C1489 0.950 . S
H1478 C1486 0.950 . S
H1479 C1488 0.950 . S
H1480 C1490 0.950 . S
H1481 C1492 0.950 . S
H1482 C1494 0.950 . S
H1483 C1495 0.950 . S
C1484 H1476 0.950 . S
C1484 C1485 1.386 . S
C1484 C1486 1.391 . S
C1485 C1484 1.386 . S
C1485 C1489 1.393 . S
C1486 H1478 0.950 . S
C1486 C1484 1.391 . S
C1486 C1487 1.400 . S
C1487 C1486 1.400 . S
C1487 C1488 1.398 . S
C1487 C1493 1.491 . S
C1488 H1479 0.950 . S
C1488 C1487 1.398 . S
C1488 C1489 1.391 . S
C1489 H1477 0.950 . S
C1489 C1485 1.393 . S
C1489 C1488 1.391 . S
C1490 H1480 0.950 . S
C1490 C1491 1.386 . S
C1490 C1492 1.391 . S
C1491 C1490 1.386 . S
C1491 C1495 1.393 . S
C1492 H1481 0.950 . S
C1492 C1490 1.391 . S
C1492 C1493 1.400 . S
C1493 C1487 1.491 . S
C1493 C1492 1.400 . S
C1493 C1494 1.398 . S
C1494 H1482 0.950 . S
C1494 C1493 1.398 . S
C1494 C1495 1.391 . S
C1495 H1483 0.950 . S
C1495 C1491 1.393 . S
C1495 C1494 1.391 . S
H1496 C1504 0.950 . S
H1497 C1509 0.950 . S
H1498 C1506 0.950 . S
H1499 C1508 0.950 . S
H1500 C1510 0.950 . S
H1501 C1512 0.950 . S
H1502 C1514 0.950 . S
H1503 C1515 0.950 . S
C1504 H1496 0.950 . S
C1504 C1505 1.386 . S
C1504 C1506 1.391 . S
C1505 C1504 1.386 . S
C1505 C1509 1.393 . S
C1506 H1498 0.950 . S
C1506 C1504 1.391 . S
C1506 C1507 1.400 . S
C1507 C1506 1.400 . S
C1507 C1508 1.398 . S
C1507 C1513 1.491 . S
C1508 H1499 0.950 . S
C1508 C1507 1.398 . S
C1508 C1509 1.391 . S
C1509 H1497 0.950 . S
C1509 C1505 1.393 . S
C1509 C1508 1.391 . S
C1510 H1500 0.950 . S
C1510 C1511 1.386 . S
C1510 C1512 1.391 . S
C1511 C1510 1.386 . S
C1511 C1515 1.393 . S
C1512 H1501 0.950 . S
C1512 C1510 1.391 . S
C1512 C1513 1.400 . S
C1513 C1507 1.491 . S
C1513 C1512 1.400 . S
C1513 C1514 1.398 . S
C1514 H1502 0.950 . S
C1514 C1513 1.398 . S
C1514 C1515 1.391 . S
C1515 H1503 0.950 . S
C1515 C1511 1.393 . S
C1515 C1514 1.391 . S
H1516 C1524 0.950 . S
H1517 C1529 0.950 . S
H1518 C1526 0.950 . S
H1519 C1528 0.950 . S
H1520 C1530 0.950 . S
H1521 C1532 0.950 . S
H1522 C1534 0.950 . S
H1523 C1535 0.950 . S
C1524 H1516 0.950 . S
C1524 C1525 1.386 . S
C1524 C1526 1.391 . S
C1525 C1524 1.386 . S
C1525 C1529 1.393 . S
C1526 H1518 0.950 . S
C1526 C1524 1.391 . S
C1526 C1527 1.400 . S
C1527 C1526 1.400 . S
C1527 C1528 1.398 . S
C1527 C1533 1.491 . S
C1528 H1519 0.950 . S
C1528 C1527 1.398 . S
C1528 C1529 1.391 . S
C1529 H1517 0.950 . S
C1529 C1525 1.393 . S
C1529 C1528 1.391 . S
C1530 H1520 0.950 . S
C1530 C1531 1.386 . S
C1530 C1532 1.391 . S
C1531 C1530 1.386 . S
C1531 C1535 1.393 . S
C1532 H1521 0.950 . S
C1532 C1530 1.391 . S
C1532 C1533 1.400 . S
C1533 C1527 1.491 . S
C1533 C1532 1.400 . S
C1533 C1534 1.398 . S
C1534 H1522 0.950 . S
C1534 C1533 1.398 . S
C1534 C1535 1.391 . S
C1535 H1523 0.950 . S
C1535 C1531 1.393 . S
C1535 C1534 1.391 . S
H1536 C1544 0.950 . S
H1537 C1549 0.950 . S
H1538 C1546 0.950 . S
H1539 C1548 0.950 . S
H1540 C1550 0.950 . S
H1541 C1552 0.950 . S
H1542 C1554 0.954 1_655 S
H1543 C1555 0.954 1_655 S
C1544 H1536 0.950 . S
C1544 C1545 1.386 . S
C1544 C1546 1.391 . S
C1545 C1544 1.386 . S
C1545 C1549 1.393 . S
C1546 H1538 0.950 . S
C1546 C1544 1.391 . S
C1546 C1547 1.400 . S
C1547 C1546 1.400 . S
C1547 C1548 1.398 . S
C1547 C1553 1.491 . S
C1548 H1539 0.950 . S
C1548 C1547 1.398 . S
C1548 C1549 1.391 . S
C1549 H1537 0.950 . S
C1549 C1545 1.393 . S
C1549 C1548 1.391 . S
C1550 H1540 0.950 . S
C1550 C1551 1.386 . S
C1550 C1552 1.391 . S
C1551 C1550 1.386 . S
C1551 C1555 1.390 . S
C1552 H1541 0.950 . S
C1552 C1550 1.391 . S
C1552 C1553 1.400 . S
C1553 C1547 1.491 . S
C1553 C1552 1.400 . S
C1553 C1554 1.398 . S
C1554 H1542 0.954 1_455 S
C1554 C1553 1.398 . S
C1554 C1555 1.390 . S
C1555 H1543 0.954 1_455 S
C1555 C1551 1.390 . S
C1555 C1554 1.390 . S
H1556 C1564 0.950 . S
H1557 C1569 0.950 . S
H1558 C1566 0.950 . S
H1559 C1568 0.950 . S
H1560 C1570 0.950 . S
H1561 C1572 0.950 . S
H1562 C1574 0.950 . S
H1563 C1575 0.950 . S
C1564 H1556 0.950 . S
C1564 C1565 1.386 . S
C1564 C1566 1.391 . S
C1565 C1564 1.386 . S
C1565 C1569 1.393 . S
C1566 H1558 0.950 . S
C1566 C1564 1.391 . S
C1566 C1567 1.400 . S
C1567 C1566 1.400 . S
C1567 C1568 1.398 . S
C1567 C1573 1.491 . S
C1568 H1559 0.950 . S
C1568 C1567 1.398 . S
C1568 C1569 1.391 . S
C1569 H1557 0.950 . S
C1569 C1565 1.393 . S
C1569 C1568 1.391 . S
C1570 H1560 0.950 . S
C1570 C1571 1.386 . S
C1570 C1572 1.391 . S
C1571 C1570 1.386 . S
C1571 C1575 1.393 . S
C1572 H1561 0.950 . S
C1572 C1570 1.391 . S
C1572 C1573 1.400 . S
C1573 C1567 1.491 . S
C1573 C1572 1.400 . S
C1573 C1574 1.398 . S
C1574 H1562 0.950 . S
C1574 C1573 1.398 . S
C1574 C1575 1.391 . S
C1575 H1563 0.950 . S
C1575 C1571 1.393 . S
C1575 C1574 1.391 . S
H1576 C1584 0.950 . S
H1577 C1589 0.950 . S
H1578 C1586 0.950 . S
H1579 C1588 0.965 . S
H1580 C1590 0.950 . S
H1581 C1592 0.950 . S
H1582 C1594 0.951 1_556 S
H1583 C1595 0.950 . S
C1584 H1576 0.950 . S
C1584 C1585 1.386 . S
C1584 C1586 1.391 . S
C1585 C1584 1.386 . S
C1585 C1589 1.393 . S
C1586 H1578 0.950 . S
C1586 C1584 1.391 . S
C1586 C1587 1.400 . S
C1587 C1586 1.400 . S
C1587 C1588 1.393 1_556 S
C1587 C1593 1.491 1_556 S
C1588 H1579 0.965 . S
C1588 C1587 1.393 1_554 S
C1588 C1589 1.382 1_554 S
C1589 H1577 0.950 . S
C1589 C1585 1.393 . S
C1589 C1588 1.382 1_556 S
C1590 H1580 0.950 . S
C1590 C1591 1.386 . S
C1590 C1592 1.391 . S
C1591 C1590 1.386 . S
C1591 C1595 1.393 . S
C1592 H1581 0.950 . S
C1592 C1590 1.391 . S
C1592 C1593 1.400 . S
C1593 C1587 1.491 1_554 S
C1593 C1592 1.400 . S
C1593 C1594 1.398 . S
C1594 H1582 0.951 1_554 S
C1594 C1593 1.398 . S
C1594 C1595 1.390 . S
C1595 H1583 0.950 . S
C1595 C1591 1.393 . S
C1595 C1594 1.390 . S
H1596 C1604 0.950 . S
H1597 C1609 0.950 . S
H1598 C1606 0.950 . S
H1599 C1608 0.950 . S
H1600 C1610 0.950 . S
H1601 C1612 0.950 . S
H1602 C1614 0.950 . S
H1603 C1615 0.950 . S
C1604 H1596 0.950 . S
C1604 C1605 1.386 . S
C1604 C1606 1.391 . S
C1605 C1604 1.386 . S
C1605 C1609 1.393 . S
C1606 H1598 0.950 . S
C1606 C1604 1.391 . S
C1606 C1607 1.400 . S
C1607 C1606 1.400 . S
C1607 C1608 1.398 . S
C1607 C1613 1.491 . S
C1608 H1599 0.950 . S
C1608 C1607 1.398 . S
C1608 C1609 1.391 . S
C1609 H1597 0.950 . S
C1609 C1605 1.393 . S
C1609 C1608 1.391 . S
C1610 H1600 0.950 . S
C1610 C1611 1.386 . S
C1610 C1612 1.391 . S
C1611 C1610 1.386 . S
C1611 C1615 1.393 . S
C1612 H1601 0.950 . S
C1612 C1610 1.391 . S
C1612 C1613 1.400 . S
C1613 C1607 1.491 . S
C1613 C1612 1.400 . S
C1613 C1614 1.398 . S
C1614 H1602 0.950 . S
C1614 C1613 1.398 . S
C1614 C1615 1.391 . S
C1615 H1603 0.950 . S
C1615 C1611 1.393 . S
C1615 C1614 1.391 . S
H1616 C1624 0.950 . S
H1617 C1629 0.950 . S
H1618 C1626 0.950 . S
H1619 C1628 0.950 . S
H1620 C1630 0.950 . S
H1621 C1632 0.950 . S
H1622 C1634 0.950 . S
H1623 C1635 0.950 . S
C1624 H1616 0.950 . S
C1624 C1625 1.386 1_565 S
C1624 C1626 1.391 . S
C1625 C1624 1.386 1_545 S
C1625 C1629 1.393 . S
C1626 H1618 0.950 . S
C1626 C1624 1.391 . S
C1626 C1627 1.400 1_565 S
C1627 C1626 1.400 1_545 S
C1627 C1628 1.398 . S
C1627 C1633 1.491 . S
C1628 H1619 0.950 . S
C1628 C1627 1.398 . S
C1628 C1629 1.391 . S
C1629 H1617 0.950 . S
C1629 C1625 1.393 . S
C1629 C1628 1.391 . S
C1630 H1620 0.950 . S
C1630 C1631 1.386 . S
C1630 C1632 1.391 . S
C1631 C1630 1.386 . S
C1631 C1635 1.393 1_545 S
C1632 H1621 0.950 . S
C1632 C1630 1.391 . S
C1632 C1633 1.400 . S
C1633 C1627 1.491 . S
C1633 C1632 1.400 . S
C1633 C1634 1.398 1_545 S
C1634 H1622 0.950 . S
C1634 C1633 1.398 1_565 S
C1634 C1635 1.391 . S
C1635 H1623 0.950 . S
C1635 C1631 1.393 1_565 S
C1635 C1634 1.391 . S
H1636 C1644 0.950 . S
H1637 C1649 0.950 . S
H1638 C1646 0.950 . S
H1639 C1648 0.950 . S
H1640 C1650 0.950 . S
H1641 C1652 0.950 . S
H1642 C1654 0.950 . S
H1643 C1655 0.950 . S
C1644 H1636 0.950 . S
C1644 C1645 1.386 . S
C1644 C1646 1.391 . S
C1645 C1644 1.386 . S
C1645 C1649 1.393 . S
C1646 H1638 0.950 . S
C1646 C1644 1.391 . S
C1646 C1647 1.400 . S
C1647 C1646 1.400 . S
C1647 C1648 1.398 . S
C1647 C1653 1.491 . S
C1648 H1639 0.950 . S
C1648 C1647 1.398 . S
C1648 C1649 1.391 . S
C1649 H1637 0.950 . S
C1649 C1645 1.393 . S
C1649 C1648 1.391 . S
C1650 H1640 0.950 . S
C1650 C1651 1.386 . S
C1650 C1652 1.391 . S
C1651 C1650 1.386 . S
C1651 C1655 1.393 . S
C1652 H1641 0.950 . S
C1652 C1650 1.391 . S
C1652 C1653 1.400 . S
C1653 C1647 1.491 . S
C1653 C1652 1.400 . S
C1653 C1654 1.398 . S
C1654 H1642 0.950 . S
C1654 C1653 1.398 . S
C1654 C1655 1.391 . S
C1655 H1643 0.950 . S
C1655 C1651 1.393 . S
C1655 C1654 1.391 . S
H1656 C1664 0.950 . S
H1657 C1669 0.950 1_565 S
H1658 C1666 0.950 . S
H1659 C1668 0.950 1_565 S
H1660 C1670 0.950 1_565 S
H1661 C1672 0.950 1_565 S
H1662 C1674 0.950 . S
H1663 C1675 0.950 . S
C1664 H1656 0.950 . S
C1664 C1665 1.386 . S
C1664 C1666 1.391 . S
C1665 C1664 1.386 . S
C1665 C1669 1.393 . S
C1666 H1658 0.950 . S
C1666 C1664 1.391 . S
C1666 C1667 1.400 . S
C1667 C1666 1.400 . S
C1667 C1668 1.398 . S
C1667 C1673 1.491 . S
C1668 H1659 0.950 1_545 S
C1668 C1667 1.398 . S
C1668 C1669 1.391 . S
C1669 H1657 0.950 1_545 S
C1669 C1665 1.393 . S
C1669 C1668 1.391 . S
C1670 H1660 0.950 1_545 S
C1670 C1671 1.386 . S
C1670 C1672 1.391 . S
C1671 C1670 1.386 . S
C1671 C1675 1.393 . S
C1672 H1661 0.950 1_545 S
C1672 C1670 1.391 . S
C1672 C1673 1.400 . S
C1673 C1667 1.491 . S
C1673 C1672 1.400 . S
C1673 C1674 1.398 . S
C1674 H1662 0.950 . S
C1674 C1673 1.398 . S
C1674 C1675 1.391 . S
C1675 H1663 0.950 . S
C1675 C1671 1.393 . S
C1675 C1674 1.391 . S
H1676 C1684 0.950 . S
H1677 C1689 0.950 . S
H1678 C1686 0.950 . S
H1679 C1688 0.950 . S
H1680 C1690 0.950 . S
H1681 C1692 0.950 . S
H1682 C1694 0.950 . S
H1683 C1695 0.950 . S
C1684 H1676 0.950 . S
C1684 C1685 1.386 . S
C1684 C1686 1.391 . S
C1685 C1684 1.386 . S
C1685 C1689 1.393 . S
C1686 H1678 0.950 . S
C1686 C1684 1.391 . S
C1686 C1687 1.400 . S
C1687 C1686 1.400 . S
C1687 C1688 1.398 . S
C1687 C1693 1.491 . S
C1688 H1679 0.950 . S
C1688 C1687 1.398 . S
C1688 C1689 1.391 . S
C1689 H1677 0.950 . S
C1689 C1685 1.393 . S
C1689 C1688 1.391 . S
C1690 H1680 0.950 . S
C1690 C1691 1.386 . S
C1690 C1692 1.391 . S
C1691 C1690 1.386 . S
C1691 C1695 1.393 . S
C1692 H1681 0.950 . S
C1692 C1690 1.391 . S
C1692 C1693 1.400 . S
C1693 C1687 1.491 . S
C1693 C1692 1.400 . S
C1693 C1694 1.398 . S
C1694 H1682 0.950 . S
C1694 C1693 1.398 . S
C1694 C1695 1.391 . S
C1695 H1683 0.950 . S
C1695 C1691 1.393 . S
C1695 C1694 1.391 . S
H1696 C1704 0.950 . S
H1697 C1709 0.945 . S
H1698 C1706 0.950 . S
H1699 C1708 0.950 . S
H1700 C1710 0.950 . S
H1701 C1712 0.950 . S
H1702 C1714 0.950 1_565 S
H1703 C1715 0.950 . S
C1704 H1696 0.950 . S
C1704 C1705 1.386 . S
C1704 C1706 1.391 . S
C1705 C1704 1.386 . S
C1705 C1709 1.384 1_565 S
C1706 H1698 0.950 . S
C1706 C1704 1.391 . S
C1706 C1707 1.400 1_565 S
C1707 C1706 1.400 1_545 S
C1707 C1708 1.398 . S
C1707 C1713 1.491 . S
C1708 H1699 0.950 . S
C1708 C1707 1.398 . S
C1708 C1709 1.407 . S
C1709 H1697 0.945 . S
C1709 C1705 1.384 1_545 S
C1709 C1708 1.407 . S
C1710 H1700 0.950 . S
C1710 C1711 1.386 . S
C1710 C1712 1.391 . S
C1711 C1710 1.386 . S
C1711 C1715 1.393 . S
C1712 H1701 0.950 . S
C1712 C1710 1.391 . S
C1712 C1713 1.400 . S
C1713 C1707 1.491 . S
C1713 C1712 1.400 . S
C1713 C1714 1.398 . S
C1714 H1702 0.950 1_545 S
C1714 C1713 1.398 . S
C1714 C1715 1.391 . S
C1715 H1703 0.950 . S
C1715 C1711 1.393 . S
C1715 C1714 1.391 . S
H1716 C1724 0.950 . S
H1717 C1729 0.950 . S
H1718 C1726 0.950 . S
H1719 C1728 0.950 . S
H1720 C1730 0.950 . S
H1721 C1732 0.950 . S
H1722 C1734 0.950 . S
H1723 C1735 0.950 . S
C1724 H1716 0.950 . S
C1724 C1725 1.386 . S
C1724 C1726 1.391 . S
C1725 C1724 1.386 . S
C1725 C1729 1.393 . S
C1726 H1718 0.950 . S
C1726 C1724 1.391 . S
C1726 C1727 1.400 . S
C1727 C1726 1.400 . S
C1727 C1728 1.398 . S
C1727 C1733 1.491 . S
C1728 H1719 0.950 . S
C1728 C1727 1.398 . S
C1728 C1729 1.391 . S
C1729 H1717 0.950 . S
C1729 C1725 1.393 . S
C1729 C1728 1.391 . S
C1730 H1720 0.950 . S
C1730 C1731 1.386 . S
C1730 C1732 1.391 . S
C1731 C1730 1.386 . S
C1731 C1735 1.393 . S
C1732 H1721 0.950 . S
C1732 C1730 1.391 . S
C1732 C1733 1.400 . S
C1733 C1727 1.491 . S
C1733 C1732 1.400 . S
C1733 C1734 1.398 . S
C1734 H1722 0.950 . S
C1734 C1733 1.398 . S
C1734 C1735 1.391 . S
C1735 H1723 0.950 . S
C1735 C1731 1.393 . S
C1735 C1734 1.391 . S
H1736 C1744 0.950 . S
H1737 C1749 0.950 . S
H1738 C1746 0.950 . S
H1739 C1748 0.950 . S
H1740 C1750 0.950 . S
H1741 C1752 0.950 . S
H1742 C1754 0.950 . S
H1743 C1755 0.950 . S
C1744 H1736 0.950 . S
C1744 C1745 1.386 . S
C1744 C1746 1.391 . S
C1745 C1744 1.386 . S
C1745 C1749 1.393 1_545 S
C1746 H1738 0.950 . S
C1746 C1744 1.391 . S
C1746 C1747 1.400 . S
C1747 C1746 1.400 . S
C1747 C1748 1.398 1_545 S
C1747 C1753 1.491 . S
C1748 H1739 0.950 . S
C1748 C1747 1.398 1_565 S
C1748 C1749 1.391 . S
C1749 H1737 0.950 . S
C1749 C1745 1.393 1_565 S
C1749 C1748 1.391 . S
C1750 H1740 0.950 . S
C1750 C1751 1.386 1_565 S
C1750 C1752 1.391 . S
C1751 C1750 1.386 1_545 S
C1751 C1755 1.393 . S
C1752 H1741 0.950 . S
C1752 C1750 1.391 . S
C1752 C1753 1.400 1_565 S
C1753 C1747 1.491 . S
C1753 C1752 1.400 1_545 S
C1753 C1754 1.398 . S
C1754 H1742 0.950 . S
C1754 C1753 1.398 . S
C1754 C1755 1.391 . S
C1755 H1743 0.950 . S
C1755 C1751 1.393 . S
C1755 C1754 1.391 . S
H1756 C1764 0.950 . S
H1757 C1769 0.950 . S
H1758 C1766 0.950 . S
H1759 C1768 0.950 . S
H1760 C1770 0.950 . S
H1761 C1772 0.950 . S
H1762 C1774 0.950 . S
H1763 C1775 0.950 . S
C1764 H1756 0.950 . S
C1764 C1765 1.386 . S
C1764 C1766 1.391 . S
C1765 C1764 1.386 . S
C1765 C1769 1.393 . S
C1766 H1758 0.950 . S
C1766 C1764 1.391 . S
C1766 C1767 1.400 . S
C1767 C1766 1.400 . S
C1767 C1768 1.398 . S
C1767 C1773 1.491 . S
C1768 H1759 0.950 . S
C1768 C1767 1.398 . S
C1768 C1769 1.391 . S
C1769 H1757 0.950 . S
C1769 C1765 1.393 . S
C1769 C1768 1.391 . S
C1770 H1760 0.950 . S
C1770 C1771 1.386 . S
C1770 C1772 1.391 . S
C1771 C1770 1.386 . S
C1771 C1775 1.393 . S
C1772 H1761 0.950 . S
C1772 C1770 1.391 . S
C1772 C1773 1.400 . S
C1773 C1767 1.491 . S
C1773 C1772 1.400 . S
C1773 C1774 1.398 . S
C1774 H1762 0.950 . S
C1774 C1773 1.398 . S
C1774 C1775 1.391 . S
C1775 H1763 0.950 . S
C1775 C1771 1.393 . S
C1775 C1774 1.391 . S
H1776 C1784 0.950 . S
H1777 C1789 0.950 . S
H1778 C1786 0.950 . S
H1779 C1788 0.950 . S
H1780 C1790 0.950 . S
H1781 C1792 0.950 . S
H1782 C1794 0.950 . S
H1783 C1795 0.959 . S
C1784 H1776 0.950 . S
C1784 C1785 1.386 . S
C1784 C1786 1.391 . S
C1785 C1784 1.386 . S
C1785 C1789 1.393 . S
C1786 H1778 0.950 . S
C1786 C1784 1.391 . S
C1786 C1787 1.400 . S
C1787 C1786 1.400 . S
C1787 C1788 1.398 . S
C1787 C1793 1.491 . S
C1788 H1779 0.950 . S
C1788 C1787 1.398 . S
C1788 C1789 1.391 . S
C1789 H1777 0.950 . S
C1789 C1785 1.393 . S
C1789 C1788 1.391 . S
C1790 H1780 0.950 . S
C1790 C1791 1.386 . S
C1790 C1792 1.391 . S
C1791 C1790 1.386 . S
C1791 C1795 1.393 . S
C1792 H1781 0.950 . S
C1792 C1790 1.391 . S
C1792 C1793 1.400 . S
C1793 C1787 1.491 . S
C1793 C1792 1.400 . S
C1793 C1794 1.398 . S
C1794 H1782 0.950 . S
C1794 C1793 1.398 . S
C1794 C1795 1.391 . S
C1795 H1783 0.959 . S
C1795 C1791 1.393 . S
C1795 C1794 1.391 . S
H1796 C1804 0.950 . S
H1797 C1809 0.950 . S
H1798 C1806 0.950 . S
H1799 C1808 0.950 . S
H1800 C1810 0.950 . S
H1801 C1812 0.950 . S
H1802 C1814 0.950 . S
H1803 C1815 0.950 . S
C1804 H1796 0.950 . S
C1804 C1805 1.386 . S
C1804 C1806 1.391 . S
C1805 C1804 1.386 . S
C1805 C1809 1.393 . S
C1806 H1798 0.950 . S
C1806 C1804 1.391 . S
C1806 C1807 1.400 . S
C1807 C1806 1.400 . S
C1807 C1808 1.398 . S
C1807 C1813 1.491 . S
C1808 H1799 0.950 . S
C1808 C1807 1.398 . S
C1808 C1809 1.391 . S
C1809 H1797 0.950 . S
C1809 C1805 1.393 . S
C1809 C1808 1.391 . S
C1810 H1800 0.950 . S
C1810 C1811 1.386 . S
C1810 C1812 1.391 . S
C1811 C1810 1.386 . S
C1811 C1815 1.393 . S
C1812 H1801 0.950 . S
C1812 C1810 1.391 . S
C1812 C1813 1.400 . S
C1813 C1807 1.491 . S
C1813 C1812 1.400 . S
C1813 C1814 1.398 . S
C1814 H1802 0.950 . S
C1814 C1813 1.398 . S
C1814 C1815 1.391 . S
C1815 H1803 0.950 . S
C1815 C1811 1.393 . S
C1815 C1814 1.391 . S
H1816 C1824 0.950 . S
H1817 C1829 0.950 . S
H1818 C1826 0.950 . S
H1819 C1828 0.950 . S
H1820 C1830 0.950 . S
H1821 C1832 0.950 . S
H1822 C1834 0.950 . S
H1823 C1835 0.950 . S
C1824 H1816 0.950 . S
C1824 C1825 1.386 . S
C1824 C1826 1.391 . S
C1825 C1824 1.386 . S
C1825 C1829 1.393 . S
C1826 H1818 0.950 . S
C1826 C1824 1.391 . S
C1826 C1827 1.400 . S
C1827 C1826 1.400 . S
C1827 C1828 1.398 . S
C1827 C1833 1.491 . S
C1828 H1819 0.950 . S
C1828 C1827 1.398 . S
C1828 C1829 1.391 . S
C1829 H1817 0.950 . S
C1829 C1825 1.393 . S
C1829 C1828 1.391 . S
C1830 H1820 0.950 . S
C1830 C1831 1.386 . S
C1830 C1832 1.391 . S
C1831 C1830 1.386 . S
C1831 C1835 1.393 . S
C1832 H1821 0.950 . S
C1832 C1830 1.391 . S
C1832 C1833 1.400 . S
C1833 C1827 1.491 . S
C1833 C1832 1.400 . S
C1833 C1834 1.398 . S
C1834 H1822 0.950 . S
C1834 C1833 1.398 . S
C1834 C1835 1.391 . S
C1835 H1823 0.950 . S
C1835 C1831 1.393 . S
C1835 C1834 1.391 . S
H1836 C1844 0.950 . S
H1837 C1849 0.950 . S
H1838 C1846 0.950 . S
H1839 C1848 0.950 . S
H1840 C1850 0.950 . S
H1841 C1852 0.950 . S
H1842 C1854 0.950 . S
H1843 C1855 0.950 . S
C1844 H1836 0.950 . S
C1844 C1845 1.386 . S
C1844 C1846 1.391 . S
C1845 C1844 1.386 . S
C1845 C1849 1.393 . S
C1846 H1838 0.950 . S
C1846 C1844 1.391 . S
C1846 C1847 1.400 . S
C1847 C1846 1.400 . S
C1847 C1848 1.398 . S
C1847 C1853 1.491 . S
C1848 H1839 0.950 . S
C1848 C1847 1.398 . S
C1848 C1849 1.391 . S
C1849 H1837 0.950 . S
C1849 C1845 1.393 . S
C1849 C1848 1.391 . S
C1850 H1840 0.950 . S
C1850 C1851 1.386 . S
C1850 C1852 1.391 . S
C1851 C1850 1.386 . S
C1851 C1855 1.393 . S
C1852 H1841 0.950 . S
C1852 C1850 1.391 . S
C1852 C1853 1.400 . S
C1853 C1847 1.491 . S
C1853 C1852 1.400 . S
C1853 C1854 1.398 . S
C1854 H1842 0.950 . S
C1854 C1853 1.398 . S
C1854 C1855 1.391 . S
C1855 H1843 0.950 . S
C1855 C1851 1.393 . S
C1855 C1854 1.391 . S
H1856 C1864 0.950 . S
H1857 C1869 0.950 . S
H1858 C1866 0.950 . S
H1859 C1868 0.950 . S
H1860 C1870 0.950 . S
H1861 C1872 0.950 . S
H1862 C1874 0.950 . S
H1863 C1875 0.950 . S
C1864 H1856 0.950 . S
C1864 C1865 1.386 . S
C1864 C1866 1.391 . S
C1865 C1864 1.386 . S
C1865 C1869 1.393 . S
C1866 H1858 0.950 . S
C1866 C1864 1.391 . S
C1866 C1867 1.400 . S
C1867 C1866 1.400 . S
C1867 C1868 1.398 . S
C1867 C1873 1.491 . S
C1868 H1859 0.950 . S
C1868 C1867 1.398 . S
C1868 C1869 1.391 . S
C1869 H1857 0.950 . S
C1869 C1865 1.393 . S
C1869 C1868 1.391 . S
C1870 H1860 0.950 . S
C1870 C1871 1.386 . S
C1870 C1872 1.391 . S
C1871 C1870 1.386 . S
C1871 C1875 1.393 . S
C1872 H1861 0.950 . S
C1872 C1870 1.391 . S
C1872 C1873 1.400 . S
C1873 C1867 1.491 . S
C1873 C1872 1.400 . S
C1873 C1874 1.398 . S
C1874 H1862 0.950 . S
C1874 C1873 1.398 . S
C1874 C1875 1.391 . S
C1875 H1863 0.950 . S
C1875 C1871 1.393 . S
C1875 C1874 1.391 . S
H1876 C1884 0.950 . S
H1877 C1889 0.950 . S
H1878 C1886 0.950 . S
H1879 C1888 0.950 . S
H1880 C1890 0.950 . S
H1881 C1892 0.950 . S
H1882 C1894 0.950 . S
H1883 C1895 0.950 . S
C1884 H1876 0.950 . S
C1884 C1885 1.386 . S
C1884 C1886 1.391 . S
C1885 C1884 1.386 . S
C1885 C1889 1.393 . S
C1886 H1878 0.950 . S
C1886 C1884 1.391 . S
C1886 C1887 1.400 . S
C1887 C1886 1.400 . S
C1887 C1888 1.398 . S
C1887 C1893 1.491 . S
C1888 H1879 0.950 . S
C1888 C1887 1.398 . S
C1888 C1889 1.391 . S
C1889 H1877 0.950 . S
C1889 C1885 1.393 . S
C1889 C1888 1.391 . S
C1890 H1880 0.950 . S
C1890 C1891 1.386 . S
C1890 C1892 1.391 . S
C1891 C1890 1.386 . S
C1891 C1895 1.393 . S
C1892 H1881 0.950 . S
C1892 C1890 1.391 . S
C1892 C1893 1.400 . S
C1893 C1887 1.491 . S
C1893 C1892 1.400 . S
C1893 C1894 1.398 . S
C1894 H1882 0.950 . S
C1894 C1893 1.398 . S
C1894 C1895 1.391 . S
C1895 H1883 0.950 . S
C1895 C1891 1.393 . S
C1895 C1894 1.391 . S
H1896 C1904 0.950 . S
H1897 C1909 0.950 . S
H1898 C1906 0.950 . S
H1899 C1908 0.950 . S
H1900 C1910 0.950 . S
H1901 C1912 0.950 . S
H1902 C1914 0.950 . S
H1903 C1915 0.950 . S
C1904 H1896 0.950 . S
C1904 C1905 1.386 . S
C1904 C1906 1.391 . S
C1905 C1904 1.386 . S
C1905 C1909 1.393 . S
C1906 H1898 0.950 . S
C1906 C1904 1.391 . S
C1906 C1907 1.400 . S
C1907 C1906 1.400 . S
C1907 C1908 1.398 . S
C1907 C1913 1.491 . S
C1908 H1899 0.950 . S
C1908 C1907 1.398 . S
C1908 C1909 1.391 . S
C1909 H1897 0.950 . S
C1909 C1905 1.393 . S
C1909 C1908 1.391 . S
C1910 H1900 0.950 . S
C1910 C1911 1.386 . S
C1910 C1912 1.391 . S
C1911 C1910 1.386 . S
C1911 C1915 1.393 . S
C1912 H1901 0.950 . S
C1912 C1910 1.391 . S
C1912 C1913 1.400 . S
C1913 C1907 1.491 . S
C1913 C1912 1.400 . S
C1913 C1914 1.398 . S
C1914 H1902 0.950 . S
C1914 C1913 1.398 . S
C1914 C1915 1.391 . S
C1915 H1903 0.950 . S
C1915 C1911 1.393 . S
C1915 C1914 1.391 . S
H1916 C1924 0.950 . S
H1917 C1929 0.950 . S
H1918 C1926 0.950 . S
H1919 C1928 0.950 . S
H1920 C1930 0.950 . S
H1921 C1932 0.950 . S
H1922 C1934 0.950 . S
H1923 C1935 0.950 . S
C1924 H1916 0.950 . S
C1924 C1925 1.386 . S
C1924 C1926 1.391 . S
C1925 C1924 1.386 . S
C1925 C1929 1.393 . S
C1926 H1918 0.950 . S
C1926 C1924 1.391 . S
C1926 C1927 1.400 . S
C1927 C1926 1.400 . S
C1927 C1928 1.398 . S
C1927 C1933 1.491 . S
C1928 H1919 0.950 . S
C1928 C1927 1.398 . S
C1928 C1929 1.391 . S
C1929 H1917 0.950 . S
C1929 C1925 1.393 . S
C1929 C1928 1.391 . S
C1930 H1920 0.950 . S
C1930 C1931 1.386 . S
C1930 C1932 1.391 . S
C1931 C1930 1.386 . S
C1931 C1935 1.393 . S
C1932 H1921 0.950 . S
C1932 C1930 1.391 . S
C1932 C1933 1.400 . S
C1933 C1927 1.491 . S
C1933 C1932 1.400 . S
C1933 C1934 1.398 . S
C1934 H1922 0.950 . S
C1934 C1933 1.398 . S
C1934 C1935 1.391 . S
C1935 H1923 0.950 . S
C1935 C1931 1.393 . S
C1935 C1934 1.391 . S
H1936 C1944 0.950 . S
H1937 C1949 0.950 . S
H1938 C1946 0.950 . S
H1939 C1948 0.950 . S
H1940 C1950 0.950 . S
H1941 C1952 0.950 . S
H1942 C1954 0.950 . S
H1943 C1955 0.950 . S
C1944 H1936 0.950 . S
C1944 C1945 1.386 . S
C1944 C1946 1.391 . S
C1945 C1944 1.386 . S
C1945 C1949 1.393 . S
C1946 H1938 0.950 . S
C1946 C1944 1.391 . S
C1946 C1947 1.400 . S
C1947 C1946 1.400 . S
C1947 C1948 1.398 . S
C1947 C1953 1.491 . S
C1948 H1939 0.950 . S
C1948 C1947 1.398 . S
C1948 C1949 1.391 . S
C1949 H1937 0.950 . S
C1949 C1945 1.393 . S
C1949 C1948 1.391 . S
C1950 H1940 0.950 . S
C1950 C1951 1.386 . S
C1950 C1952 1.391 . S
C1951 C1950 1.386 . S
C1951 C1955 1.393 . S
C1952 H1941 0.950 . S
C1952 C1950 1.391 . S
C1952 C1953 1.400 . S
C1953 C1947 1.491 . S
C1953 C1952 1.400 . S
C1953 C1954 1.398 . S
C1954 H1942 0.950 . S
C1954 C1953 1.398 . S
C1954 C1955 1.391 . S
C1955 H1943 0.950 . S
C1955 C1951 1.393 . S
C1955 C1954 1.391 . S
H1956 C1964 0.950 . S
H1957 C1969 0.950 . S
H1958 C1966 0.950 . S
H1959 C1968 0.950 . S
H1960 C1970 0.950 . S
H1961 C1972 0.950 . S
H1962 C1974 0.950 . S
H1963 C1975 0.950 . S
C1964 H1956 0.950 . S
C1964 C1965 1.386 . S
C1964 C1966 1.391 . S
C1965 C1964 1.386 . S
C1965 C1969 1.393 . S
C1966 H1958 0.950 . S
C1966 C1964 1.391 . S
C1966 C1967 1.400 . S
C1967 C1966 1.400 . S
C1967 C1968 1.398 . S
C1967 C1973 1.491 . S
C1968 H1959 0.950 . S
C1968 C1967 1.398 . S
C1968 C1969 1.391 . S
C1969 H1957 0.950 . S
C1969 C1965 1.393 . S
C1969 C1968 1.391 . S
C1970 H1960 0.950 . S
C1970 C1971 1.386 . S
C1970 C1972 1.391 . S
C1971 C1970 1.386 . S
C1971 C1975 1.393 . S
C1972 H1961 0.950 . S
C1972 C1970 1.391 . S
C1972 C1973 1.400 . S
C1973 C1967 1.491 . S
C1973 C1972 1.400 . S
C1973 C1974 1.398 . S
C1974 H1962 0.950 . S
C1974 C1973 1.398 . S
C1974 C1975 1.391 . S
C1975 H1963 0.950 . S
C1975 C1971 1.393 . S
C1975 C1974 1.391 . S
H1976 C1984 0.950 . S
H1977 C1989 0.950 . S
H1978 C1986 0.950 . S
H1979 C1988 0.950 . S
H1980 C1990 0.950 . S
H1981 C1992 0.950 . S
H1982 C1994 0.950 1_655 S
H1983 C1995 0.950 1_655 S
C1984 H1976 0.950 . S
C1984 C1985 1.386 1_655 S
C1984 C1986 1.391 . S
C1985 C1984 1.386 1_455 S
C1985 C1989 1.393 . S
C1986 H1978 0.950 . S
C1986 C1984 1.391 . S
C1986 C1987 1.400 1_655 S
C1987 C1986 1.400 1_455 S
C1987 C1988 1.398 . S
C1987 C1993 1.491 . S
C1988 H1979 0.950 . S
C1988 C1987 1.398 . S
C1988 C1989 1.391 . S
C1989 H1977 0.950 . S
C1989 C1985 1.393 . S
C1989 C1988 1.391 . S
C1990 H1980 0.950 . S
C1990 C1991 1.386 . S
C1990 C1992 1.391 1_554 S
C1991 C1990 1.386 . S
C1991 C1995 1.393 . S
C1992 H1981 0.950 . S
C1992 C1990 1.391 1_556 S
C1992 C1993 1.400 . S
C1993 C1987 1.491 . S
C1993 C1992 1.400 . S
C1993 C1994 1.398 1_556 S
C1994 H1982 0.950 1_455 S
C1994 C1993 1.398 1_554 S
C1994 C1995 1.391 . S
C1995 H1983 0.950 1_455 S
C1995 C1991 1.393 . S
C1995 C1994 1.391 . S
H1996 C2004 0.950 1_455 S
H1997 C2009 0.950 . S
H1998 C2006 0.950 . S
H1999 C2008 0.950 . S
H2000 C2010 0.950 . S
H2001 C2012 0.950 . S
H2002 C2014 0.950 . S
H2003 C2015 0.950 . S
C2004 H1996 0.950 1_655 S
C2004 C2005 1.386 . S
C2004 C2006 1.391 . S
C2005 C2004 1.386 . S
C2005 C2009 1.393 . S
C2006 H1998 0.950 . S
C2006 C2004 1.391 . S
C2006 C2007 1.400 . S
C2007 C2006 1.400 . S
C2007 C2008 1.398 . S
C2007 C2013 1.491 . S
C2008 H1999 0.950 . S
C2008 C2007 1.398 . S
C2008 C2009 1.391 . S
C2009 H1997 0.950 . S
C2009 C2005 1.393 . S
C2009 C2008 1.391 . S
C2010 H2000 0.950 . S
C2010 C2011 1.386 . S
C2010 C2012 1.391 . S
C2011 C2010 1.386 . S
C2011 C2015 1.393 . S
C2012 H2001 0.950 . S
C2012 C2010 1.391 . S
C2012 C2013 1.400 . S
C2013 C2007 1.491 . S
C2013 C2012 1.400 . S
C2013 C2014 1.398 . S
C2014 H2002 0.950 . S
C2014 C2013 1.398 . S
C2014 C2015 1.391 . S
C2015 H2003 0.950 . S
C2015 C2011 1.393 . S
C2015 C2014 1.391 . S
H2016 C2024 0.950 . S
H2017 C2029 0.950 . S
H2018 C2026 0.950 . S
H2019 C2028 0.950 . S
H2020 C2030 0.950 . S
H2021 C2032 0.950 . S
H2022 C2034 0.950 . S
H2023 C2035 0.950 . S
C2024 H2016 0.950 . S
C2024 C2025 1.386 . S
C2024 C2026 1.391 . S
C2025 C2024 1.386 . S
C2025 C2029 1.393 . S
C2026 H2018 0.950 . S
C2026 C2024 1.391 . S
C2026 C2027 1.400 . S
C2027 C2026 1.400 . S
C2027 C2028 1.398 . S
C2027 C2033 1.491 . S
C2028 H2019 0.950 . S
C2028 C2027 1.398 . S
C2028 C2029 1.391 . S
C2029 H2017 0.950 . S
C2029 C2025 1.393 . S
C2029 C2028 1.391 . S
C2030 H2020 0.950 . S
C2030 C2031 1.386 . S
C2030 C2032 1.391 . S
C2031 C2030 1.386 . S
C2031 C2035 1.393 . S
C2032 H2021 0.950 . S
C2032 C2030 1.391 . S
C2032 C2033 1.400 . S
C2033 C2027 1.491 . S
C2033 C2032 1.400 . S
C2033 C2034 1.398 . S
C2034 H2022 0.950 . S
C2034 C2033 1.398 . S
C2034 C2035 1.391 . S
C2035 H2023 0.950 . S
C2035 C2031 1.393 . S
C2035 C2034 1.391 . S
H2036 C2044 0.950 . S
H2037 C2049 0.950 1_455 S
H2038 C2046 0.950 . S
H2039 C2048 0.950 . S
H2040 C2050 0.950 . S
H2041 C2052 0.950 . S
H2042 C2054 0.950 . S
H2043 C2055 0.950 . S
C2044 H2036 0.950 . S
C2044 C2045 1.338 1_655 S
C2044 C2046 1.391 . S
C2045 C2044 1.338 1_455 S
C2045 C2049 1.399 1_455 S
C2046 H2038 0.950 . S
C2046 C2044 1.391 . S
C2046 C2047 1.400 . S
C2047 C2046 1.400 . S
C2047 C2048 1.398 . S
C2047 C2053 1.491 . S
C2048 H2039 0.950 . S
C2048 C2047 1.398 . S
C2048 C2049 1.391 . S
C2049 H2037 0.950 1_655 S
C2049 C2045 1.399 1_655 S
C2049 C2048 1.391 . S
C2050 H2040 0.950 . S
C2050 C2051 1.386 . S
C2050 C2052 1.391 . S
C2051 C2050 1.386 . S
C2051 C2055 1.393 . S
C2052 H2041 0.950 . S
C2052 C2050 1.391 . S
C2052 C2053 1.400 . S
C2053 C2047 1.491 . S
C2053 C2052 1.400 . S
C2053 C2054 1.398 . S
C2054 H2042 0.950 . S
C2054 C2053 1.398 . S
C2054 C2055 1.391 . S
C2055 H2043 0.950 . S
C2055 C2051 1.393 . S
C2055 C2054 1.391 . S
H2056 C2064 0.950 . S
H2057 C2069 0.950 . S
H2058 C2066 0.950 . S
H2059 C2068 0.950 1_655 S
H2060 C2070 0.950 . S
H2061 C2072 0.950 . S
H2062 C2074 0.950 . S
H2063 C2075 0.950 . S
C2064 H2056 0.950 . S
C2064 C2065 1.386 . S
C2064 C2066 1.391 . S
C2065 C2064 1.386 . S
C2065 C2069 1.393 1_455 S
C2066 H2058 0.950 . S
C2066 C2064 1.391 . S
C2066 C2067 1.400 . S
C2067 C2066 1.400 . S
C2067 C2068 1.398 . S
C2067 C2073 1.491 . S
C2068 H2059 0.950 1_455 S
C2068 C2067 1.398 . S
C2068 C2069 1.391 1_455 S
C2069 H2057 0.950 . S
C2069 C2065 1.393 1_655 S
C2069 C2068 1.391 1_655 S
C2070 H2060 0.950 . S
C2070 C2071 1.386 . S
C2070 C2072 1.391 . S
C2071 C2070 1.386 . S
C2071 C2075 1.393 . S
C2072 H2061 0.950 . S
C2072 C2070 1.391 . S
C2072 C2073 1.400 . S
C2073 C2067 1.491 . S
C2073 C2072 1.400 . S
C2073 C2074 1.398 . S
C2074 H2062 0.950 . S
C2074 C2073 1.398 . S
C2074 C2075 1.391 . S
C2075 H2063 0.950 . S
C2075 C2071 1.393 . S
C2075 C2074 1.391 . S
H2076 C2084 0.950 . S
H2077 C2089 0.950 . S
H2078 C2086 0.950 . S
H2079 C2088 0.950 . S
H2080 C2090 0.950 . S
H2081 C2092 0.950 . S
H2082 C2094 0.950 . S
H2083 C2095 0.950 . S
C2084 H2076 0.950 . S
C2084 C2085 1.386 . S
C2084 C2086 1.391 . S
C2085 C2084 1.386 . S
C2085 C2089 1.393 . S
C2086 H2078 0.950 . S
C2086 C2084 1.391 . S
C2086 C2087 1.400 . S
C2087 C2086 1.400 . S
C2087 C2088 1.398 . S
C2087 C2093 1.491 . S
C2088 H2079 0.950 . S
C2088 C2087 1.398 . S
C2088 C2089 1.391 . S
C2089 H2077 0.950 . S
C2089 C2085 1.393 . S
C2089 C2088 1.391 . S
C2090 H2080 0.950 . S
C2090 C2091 1.386 . S
C2090 C2092 1.391 . S
C2091 C2090 1.386 . S
C2091 C2095 1.393 . S
C2092 H2081 0.950 . S
C2092 C2090 1.391 . S
C2092 C2093 1.400 . S
C2093 C2087 1.491 . S
C2093 C2092 1.400 . S
C2093 C2094 1.398 . S
C2094 H2082 0.950 . S
C2094 C2093 1.398 . S
C2094 C2095 1.391 . S
C2095 H2083 0.950 . S
C2095 C2091 1.393 . S
C2095 C2094 1.391 . S
H2096 C2104 0.950 . S
H2097 C2109 0.950 . S
H2098 C2106 0.950 . S
H2099 C2108 0.950 . S
H2100 C2110 0.950 . S
H2101 C2112 0.950 . S
H2102 C2114 0.950 . S
H2103 C2115 0.950 . S
C2104 H2096 0.950 . S
C2104 C2105 1.386 . S
C2104 C2106 1.391 . S
C2105 C2104 1.386 . S
C2105 C2109 1.393 . S
C2106 H2098 0.950 . S
C2106 C2104 1.391 . S
C2106 C2107 1.400 . S
C2107 C2106 1.400 . S
C2107 C2108 1.398 . S
C2107 C2113 1.491 . S
C2108 H2099 0.950 . S
C2108 C2107 1.398 . S
C2108 C2109 1.391 . S
C2109 H2097 0.950 . S
C2109 C2105 1.393 . S
C2109 C2108 1.391 . S
C2110 H2100 0.950 . S
C2110 C2111 1.386 . S
C2110 C2112 1.391 . S
C2111 C2110 1.386 . S
C2111 C2115 1.393 . S
C2112 H2101 0.950 . S
C2112 C2110 1.391 . S
C2112 C2113 1.400 . S
C2113 C2107 1.491 . S
C2113 C2112 1.400 . S
C2113 C2114 1.398 . S
C2114 H2102 0.950 . S
C2114 C2113 1.398 . S
C2114 C2115 1.391 . S
C2115 H2103 0.950 . S
C2115 C2111 1.393 . S
C2115 C2114 1.391 . S
H2116 C2124 0.950 . S
H2117 C2129 0.950 . S
H2118 C2126 0.950 . S
H2119 C2128 0.950 . S
H2120 C2130 0.950 . S
H2121 C2132 0.950 . S
H2122 C2134 0.950 . S
H2123 C2135 0.950 . S
C2124 H2116 0.950 . S
C2124 C2125 1.386 . S
C2124 C2126 1.391 1_554 S
C2125 C2124 1.386 . S
C2125 C2129 1.393 . S
C2126 H2118 0.950 . S
C2126 C2124 1.391 1_556 S
C2126 C2127 1.400 . S
C2127 C2126 1.400 . S
C2127 C2128 1.398 1_556 S
C2127 C2133 1.491 . S
C2128 H2119 0.950 . S
C2128 C2127 1.398 1_554 S
C2128 C2129 1.391 . S
C2129 H2117 0.950 . S
C2129 C2125 1.393 . S
C2129 C2128 1.391 . S
C2130 H2120 0.950 . S
C2130 C2131 1.386 . S
C2130 C2132 1.391 . S
C2131 C2130 1.386 . S
C2131 C2135 1.393 . S
C2132 H2121 0.950 . S
C2132 C2130 1.391 . S
C2132 C2133 1.400 . S
C2133 C2127 1.491 . S
C2133 C2132 1.400 . S
C2133 C2134 1.398 . S
C2134 H2122 0.950 . S
C2134 C2133 1.398 . S
C2134 C2135 1.391 . S
C2135 H2123 0.950 . S
C2135 C2131 1.393 . S
C2135 C2134 1.391 . S
H2136 C2144 0.950 . S
H2137 C2149 0.950 . S
H2138 C2146 0.950 . S
H2139 C2148 0.950 . S
H2140 C2150 0.950 . S
H2141 C2152 0.950 . S
H2142 C2154 0.950 . S
H2143 C2155 0.950 . S
C2144 H2136 0.950 . S
C2144 C2145 1.386 . S
C2144 C2146 1.391 . S
C2145 C2144 1.386 . S
C2145 C2149 1.393 . S
C2146 H2138 0.950 . S
C2146 C2144 1.391 . S
C2146 C2147 1.400 . S
C2147 C2146 1.400 . S
C2147 C2148 1.398 . S
C2147 C2153 1.491 . S
C2148 H2139 0.950 . S
C2148 C2147 1.398 . S
C2148 C2149 1.391 . S
C2149 H2137 0.950 . S
C2149 C2145 1.393 . S
C2149 C2148 1.391 . S
C2150 H2140 0.950 . S
C2150 C2151 1.386 . S
C2150 C2152 1.391 . S
C2151 C2150 1.386 . S
C2151 C2155 1.393 . S
C2152 H2141 0.950 . S
C2152 C2150 1.391 . S
C2152 C2153 1.400 . S
C2153 C2147 1.491 . S
C2153 C2152 1.400 . S
C2153 C2154 1.398 . S
C2154 H2142 0.950 . S
C2154 C2153 1.398 . S
C2154 C2155 1.391 . S
C2155 H2143 0.950 . S
C2155 C2151 1.393 . S
C2155 C2154 1.391 . S
H2156 C2164 0.950 . S
H2157 C2169 0.950 . S
H2158 C2166 0.950 . S
H2159 C2168 0.950 . S
H2160 C2170 0.950 . S
H2161 C2172 0.950 . S
H2162 C2174 0.950 . S
H2163 C2175 0.950 . S
C2164 H2156 0.950 . S
C2164 C2165 1.386 . S
C2164 C2166 1.391 . S
C2165 C2164 1.386 . S
C2165 C2169 1.393 . S
C2166 H2158 0.950 . S
C2166 C2164 1.391 . S
C2166 C2167 1.400 . S
C2167 C2166 1.400 . S
C2167 C2168 1.398 . S
C2167 C2173 1.491 . S
C2168 H2159 0.950 . S
C2168 C2167 1.398 . S
C2168 C2169 1.391 . S
C2169 H2157 0.950 . S
C2169 C2165 1.393 . S
C2169 C2168 1.391 . S
C2170 H2160 0.950 . S
C2170 C2171 1.386 . S
C2170 C2172 1.391 . S
C2171 C2170 1.386 . S
C2171 C2175 1.393 . S
C2172 H2161 0.950 . S
C2172 C2170 1.391 . S
C2172 C2173 1.400 . S
C2173 C2167 1.491 . S
C2173 C2172 1.400 . S
C2173 C2174 1.398 . S
C2174 H2162 0.950 . S
C2174 C2173 1.398 . S
C2174 C2175 1.391 . S
C2175 H2163 0.950 . S
C2175 C2171 1.393 . S
C2175 C2174 1.391 . S
H2176 C2184 0.950 . S
H2177 C2189 0.950 . S
H2178 C2186 0.950 . S
H2179 C2188 0.950 . S
H2180 C2190 0.950 . S
H2181 C2192 0.950 . S
H2182 C2194 0.950 . S
H2183 C2195 0.950 . S
C2184 H2176 0.950 . S
C2184 C2185 1.386 . S
C2184 C2186 1.391 . S
C2185 C2184 1.386 . S
C2185 C2189 1.393 . S
C2186 H2178 0.950 . S
C2186 C2184 1.391 . S
C2186 C2187 1.400 . S
C2187 C2186 1.400 . S
C2187 C2188 1.398 . S
C2187 C2193 1.491 . S
C2188 H2179 0.950 . S
C2188 C2187 1.398 . S
C2188 C2189 1.391 . S
C2189 H2177 0.950 . S
C2189 C2185 1.393 . S
C2189 C2188 1.391 . S
C2190 H2180 0.950 . S
C2190 C2191 1.386 . S
C2190 C2192 1.391 . S
C2191 C2190 1.386 . S
C2191 C2195 1.393 . S
C2192 H2181 0.950 . S
C2192 C2190 1.391 . S
C2192 C2193 1.400 . S
C2193 C2187 1.491 . S
C2193 C2192 1.400 . S
C2193 C2194 1.398 . S
C2194 H2182 0.950 . S
C2194 C2193 1.398 . S
C2194 C2195 1.391 . S
C2195 H2183 0.950 . S
C2195 C2191 1.393 . S
C2195 C2194 1.391 . S
H2196 C2204 0.950 . S
H2197 C2209 0.950 . S
H2198 C2206 0.950 . S
H2199 C2208 0.950 . S
H2200 C2210 0.950 . S
H2201 C2212 0.950 . S
H2202 C2214 0.950 . S
H2203 C2215 0.950 . S
C2204 H2196 0.950 . S
C2204 C2205 1.386 . S
C2204 C2206 1.391 . S
C2205 C2204 1.386 . S
C2205 C2209 1.393 . S
C2206 H2198 0.950 . S
C2206 C2204 1.391 . S
C2206 C2207 1.400 . S
C2207 C2206 1.400 . S
C2207 C2208 1.398 . S
C2207 C2213 1.491 . S
C2208 H2199 0.950 . S
C2208 C2207 1.398 . S
C2208 C2209 1.391 . S
C2209 H2197 0.950 . S
C2209 C2205 1.393 . S
C2209 C2208 1.391 . S
C2210 H2200 0.950 . S
C2210 C2211 1.386 . S
C2210 C2212 1.391 . S
C2211 C2210 1.386 . S
C2211 C2215 1.393 . S
C2212 H2201 0.950 . S
C2212 C2210 1.391 . S
C2212 C2213 1.400 . S
C2213 C2207 1.491 . S
C2213 C2212 1.400 . S
C2213 C2214 1.398 . S
C2214 H2202 0.950 . S
C2214 C2213 1.398 . S
C2214 C2215 1.391 . S
C2215 H2203 0.950 . S
C2215 C2211 1.393 . S
C2215 C2214 1.391 . S
H2216 C2224 0.950 . S
H2217 C2229 0.950 . S
H2218 C2226 0.950 . S
H2219 C2228 0.950 . S
H2220 C2230 0.950 . S
H2221 C2232 0.950 . S
H2222 C2234 0.950 . S
H2223 C2235 0.950 . S
C2224 H2216 0.950 . S
C2224 C2225 1.386 . S
C2224 C2226 1.391 . S
C2225 C2224 1.386 . S
C2225 C2229 1.393 . S
C2226 H2218 0.950 . S
C2226 C2224 1.391 . S
C2226 C2227 1.400 . S
C2227 C2226 1.400 . S
C2227 C2228 1.398 . S
C2227 C2233 1.491 . S
C2228 H2219 0.950 . S
C2228 C2227 1.398 . S
C2228 C2229 1.391 . S
C2229 H2217 0.950 . S
C2229 C2225 1.393 . S
C2229 C2228 1.391 . S
C2230 H2220 0.950 . S
C2230 C2231 1.386 . S
C2230 C2232 1.391 . S
C2231 C2230 1.386 . S
C2231 C2235 1.393 . S
C2232 H2221 0.950 . S
C2232 C2230 1.391 . S
C2232 C2233 1.400 . S
C2233 C2227 1.491 . S
C2233 C2232 1.400 . S
C2233 C2234 1.398 . S
C2234 H2222 0.950 . S
C2234 C2233 1.398 . S
C2234 C2235 1.391 . S
C2235 H2223 0.950 . S
C2235 C2231 1.393 . S
C2235 C2234 1.391 . S
H2236 C2244 0.950 . S
H2237 C2249 0.950 . S
H2238 C2246 0.950 . S
H2239 C2248 0.950 . S
H2240 C2250 0.950 . S
H2241 C2252 0.950 . S
H2242 C2254 0.950 . S
H2243 C2255 0.950 . S
C2244 H2236 0.950 . S
C2244 C2245 1.386 . S
C2244 C2246 1.391 . S
C2245 C2244 1.386 . S
C2245 C2249 1.393 . S
C2246 H2238 0.950 . S
C2246 C2244 1.391 . S
C2246 C2247 1.400 . S
C2247 C2246 1.400 . S
C2247 C2248 1.398 . S
C2247 C2253 1.491 . S
C2248 H2239 0.950 . S
C2248 C2247 1.398 . S
C2248 C2249 1.391 . S
C2249 H2237 0.950 . S
C2249 C2245 1.393 . S
C2249 C2248 1.391 . S
C2250 H2240 0.950 . S
C2250 C2251 1.386 . S
C2250 C2252 1.391 . S
C2251 C2250 1.386 . S
C2251 C2255 1.393 . S
C2252 H2241 0.950 . S
C2252 C2250 1.391 . S
C2252 C2253 1.400 . S
C2253 C2247 1.491 . S
C2253 C2252 1.400 . S
C2253 C2254 1.398 . S
C2254 H2242 0.950 . S
C2254 C2253 1.398 . S
C2254 C2255 1.391 . S
C2255 H2243 0.950 . S
C2255 C2251 1.393 . S
C2255 C2254 1.391 . S
H2256 C2264 0.950 . S
H2257 C2269 0.950 . S
H2258 C2266 0.950 . S
H2259 C2268 0.950 . S
H2260 C2270 0.950 . S
H2261 C2272 0.950 . S
H2262 C2274 0.950 . S
H2263 C2275 0.950 . S
C2264 H2256 0.950 . S
C2264 C2265 1.386 . S
C2264 C2266 1.391 . S
C2265 C2264 1.386 . S
C2265 C2269 1.393 . S
C2266 H2258 0.950 . S
C2266 C2264 1.391 . S
C2266 C2267 1.400 . S
C2267 C2266 1.400 . S
C2267 C2268 1.398 . S
C2267 C2273 1.491 . S
C2268 H2259 0.950 . S
C2268 C2267 1.398 . S
C2268 C2269 1.391 . S
C2269 H2257 0.950 . S
C2269 C2265 1.393 . S
C2269 C2268 1.391 . S
C2270 H2260 0.950 . S
C2270 C2271 1.386 . S
C2270 C2272 1.391 . S
C2271 C2270 1.386 . S
C2271 C2275 1.393 . S
C2272 H2261 0.950 . S
C2272 C2270 1.391 . S
C2272 C2273 1.400 . S
C2273 C2267 1.491 . S
C2273 C2272 1.400 . S
C2273 C2274 1.398 . S
C2274 H2262 0.950 . S
C2274 C2273 1.398 . S
C2274 C2275 1.391 . S
C2275 H2263 0.950 . S
C2275 C2271 1.393 . S
C2275 C2274 1.391 . S
H2276 C2284 0.950 . S
H2277 C2289 0.950 . S
H2278 C2286 0.950 . S
H2279 C2288 0.950 . S
H2280 C2290 0.950 . S
H2281 C2292 0.950 . S
H2282 C2294 0.950 . S
H2283 C2295 0.950 . S
C2284 H2276 0.950 . S
C2284 C2285 1.386 . S
C2284 C2286 1.391 . S
C2285 C2284 1.386 . S
C2285 C2289 1.393 . S
C2286 H2278 0.950 . S
C2286 C2284 1.391 . S
C2286 C2287 1.400 . S
C2287 C2286 1.400 . S
C2287 C2288 1.398 . S
C2287 C2293 1.491 . S
C2288 H2279 0.950 . S
C2288 C2287 1.398 . S
C2288 C2289 1.391 . S
C2289 H2277 0.950 . S
C2289 C2285 1.393 . S
C2289 C2288 1.391 . S
C2290 H2280 0.950 . S
C2290 C2291 1.386 . S
C2290 C2292 1.391 . S
C2291 C2290 1.386 . S
C2291 C2295 1.393 . S
C2292 H2281 0.950 . S
C2292 C2290 1.391 . S
C2292 C2293 1.400 . S
C2293 C2287 1.491 . S
C2293 C2292 1.400 . S
C2293 C2294 1.398 . S
C2294 H2282 0.950 . S
C2294 C2293 1.398 . S
C2294 C2295 1.391 . S
C2295 H2283 0.950 . S
C2295 C2291 1.393 . S
C2295 C2294 1.391 . S
H2296 C2304 0.950 . S
H2297 C2309 0.950 . S
H2298 C2306 0.950 . S
H2299 C2308 0.950 . S
H2300 C2310 0.950 . S
H2301 C2312 0.950 . S
H2302 C2314 0.950 . S
H2303 C2315 0.950 . S
C2304 H2296 0.950 . S
C2304 C2305 1.386 . S
C2304 C2306 1.391 . S
C2305 C2304 1.386 . S
C2305 C2309 1.393 . S
C2306 H2298 0.950 . S
C2306 C2304 1.391 . S
C2306 C2307 1.400 . S
C2307 C2306 1.400 . S
C2307 C2308 1.398 . S
C2307 C2313 1.491 . S
C2308 H2299 0.950 . S
C2308 C2307 1.398 . S
C2308 C2309 1.391 . S
C2309 H2297 0.950 . S
C2309 C2305 1.393 . S
C2309 C2308 1.391 . S
C2310 H2300 0.950 . S
C2310 C2311 1.386 . S
C2310 C2312 1.391 . S
C2311 C2310 1.386 . S
C2311 C2315 1.393 . S
C2312 H2301 0.950 . S
C2312 C2310 1.391 . S
C2312 C2313 1.400 . S
C2313 C2307 1.491 . S
C2313 C2312 1.400 . S
C2313 C2314 1.398 . S
C2314 H2302 0.950 . S
C2314 C2313 1.398 . S
C2314 C2315 1.391 . S
C2315 H2303 0.950 . S
C2315 C2311 1.393 . S
C2315 C2314 1.391 . S
H2316 C2324 0.950 . S
H2317 C2329 0.950 . S
H2318 C2326 0.950 . S
H2319 C2328 0.950 . S
H2320 C2330 0.929 1_556 S
H2321 C2332 0.950 1_556 S
H2322 C2334 0.950 . S
H2323 C2335 0.950 . S
C2324 H2316 0.950 . S
C2324 C2325 1.386 . S
C2324 C2326 1.391 . S
C2325 C2324 1.386 . S
C2325 C2329 1.393 1_554 S
C2326 H2318 0.950 . S
C2326 C2324 1.391 . S
C2326 C2327 1.400 . S
C2327 C2326 1.400 . S
C2327 C2328 1.398 1_554 S
C2327 C2333 1.491 . S
C2328 H2319 0.950 . S
C2328 C2327 1.398 1_556 S
C2328 C2329 1.391 . S
C2329 H2317 0.950 . S
C2329 C2325 1.393 1_556 S
C2329 C2328 1.391 . S
C2330 H2320 0.929 1_554 S
C2330 C2331 1.386 . S
C2330 C2332 1.391 . S
C2331 C2330 1.386 . S
C2331 C2335 1.393 . S
C2332 H2321 0.950 1_554 S
C2332 C2330 1.391 . S
C2332 C2333 1.400 . S
C2333 C2327 1.491 . S
C2333 C2332 1.400 . S
C2333 C2334 1.398 . S
C2334 H2322 0.950 . S
C2334 C2333 1.398 . S
C2334 C2335 1.391 . S
C2335 H2323 0.950 . S
C2335 C2331 1.393 . S
C2335 C2334 1.391 . S
H2336 C2344 0.950 . S
H2337 C2349 0.950 . S
H2338 C2346 0.950 . S
H2339 C2348 0.950 . S
H2340 C2350 0.950 . S
H2341 C2352 0.950 . S
H2342 C2354 0.950 . S
H2343 C2355 0.950 . S
C2344 H2336 0.950 . S
C2344 C2345 1.386 . S
C2344 C2346 1.391 . S
C2345 C2344 1.386 . S
C2345 C2349 1.393 . S
C2346 H2338 0.950 . S
C2346 C2344 1.391 . S
C2346 C2347 1.400 . S
C2347 C2346 1.400 . S
C2347 C2348 1.398 . S
C2347 C2353 1.491 . S
C2348 H2339 0.950 . S
C2348 C2347 1.398 . S
C2348 C2349 1.391 . S
C2349 H2337 0.950 . S
C2349 C2345 1.393 . S
C2349 C2348 1.391 . S
C2350 H2340 0.950 . S
C2350 C2351 1.386 . S
C2350 C2352 1.391 . S
C2351 C2350 1.386 . S
C2351 C2355 1.393 . S
C2352 H2341 0.950 . S
C2352 C2350 1.391 . S
C2352 C2353 1.400 . S
C2353 C2347 1.491 . S
C2353 C2352 1.400 . S
C2353 C2354 1.398 . S
C2354 H2342 0.950 . S
C2354 C2353 1.398 . S
C2354 C2355 1.391 . S
C2355 H2343 0.950 . S
C2355 C2351 1.393 . S
C2355 C2354 1.391 . S
H2356 C2364 0.950 . S
H2357 C2369 0.950 . S
H2358 C2366 0.950 . S
H2359 C2368 0.950 . S
H2360 C2370 0.950 . S
H2361 C2372 0.950 . S
H2362 C2374 0.950 . S
H2363 C2375 0.950 . S
C2364 H2356 0.950 . S
C2364 C2365 1.386 . S
C2364 C2366 1.391 . S
C2365 C2364 1.386 . S
C2365 C2369 1.393 . S
C2366 H2358 0.950 . S
C2366 C2364 1.391 . S
C2366 C2367 1.400 . S
C2367 C2366 1.400 . S
C2367 C2368 1.398 . S
C2367 C2373 1.491 . S
C2368 H2359 0.950 . S
C2368 C2367 1.398 . S
C2368 C2369 1.391 . S
C2369 H2357 0.950 . S
C2369 C2365 1.393 . S
C2369 C2368 1.391 . S
C2370 H2360 0.950 . S
C2370 C2371 1.386 . S
C2370 C2372 1.391 . S
C2371 C2370 1.386 . S
C2371 C2375 1.393 . S
C2372 H2361 0.950 . S
C2372 C2370 1.391 . S
C2372 C2373 1.400 . S
C2373 C2367 1.491 . S
C2373 C2372 1.400 . S
C2373 C2374 1.398 . S
C2374 H2362 0.950 . S
C2374 C2373 1.398 . S
C2374 C2375 1.391 . S
C2375 H2363 0.950 . S
C2375 C2371 1.393 . S
C2375 C2374 1.391 . S
H2376 C2384 0.950 . S
H2377 C2389 0.950 . S
H2378 C2386 0.950 . S
H2379 C2388 0.950 . S
H2380 C2390 0.950 . S
H2381 C2392 0.950 . S
H2382 C2394 0.950 . S
H2383 C2395 0.950 . S
C2384 H2376 0.950 . S
C2384 C2385 1.386 . S
C2384 C2386 1.391 . S
C2385 C2384 1.386 . S
C2385 C2389 1.393 . S
C2386 H2378 0.950 . S
C2386 C2384 1.391 . S
C2386 C2387 1.400 . S
C2387 C2386 1.400 . S
C2387 C2388 1.398 . S
C2387 C2393 1.491 . S
C2388 H2379 0.950 . S
C2388 C2387 1.398 . S
C2388 C2389 1.391 . S
C2389 H2377 0.950 . S
C2389 C2385 1.393 . S
C2389 C2388 1.391 . S
C2390 H2380 0.950 . S
C2390 C2391 1.386 . S
C2390 C2392 1.391 . S
C2391 C2390 1.386 . S
C2391 C2395 1.393 . S
C2392 H2381 0.950 . S
C2392 C2390 1.391 . S
C2392 C2393 1.400 . S
C2393 C2387 1.491 . S
C2393 C2392 1.400 . S
C2393 C2394 1.398 . S
C2394 H2382 0.950 . S
C2394 C2393 1.398 . S
C2394 C2395 1.391 . S
C2395 H2383 0.950 . S
C2395 C2391 1.393 . S
C2395 C2394 1.391 . S
H2396 C2404 0.950 . S
H2397 C2409 0.950 . S
H2398 C2406 0.950 . S
H2399 C2408 0.950 . S
H2400 C2410 0.950 . S
H2401 C2412 0.950 . S
H2402 C2414 0.950 . S
H2403 C2415 0.950 . S
C2404 H2396 0.950 . S
C2404 C2405 1.386 . S
C2404 C2406 1.391 . S
C2405 C2404 1.386 . S
C2405 C2409 1.393 . S
C2406 H2398 0.950 . S
C2406 C2404 1.391 . S
C2406 C2407 1.400 . S
C2407 C2406 1.400 . S
C2407 C2408 1.398 . S
C2407 C2413 1.491 . S
C2408 H2399 0.950 . S
C2408 C2407 1.398 . S
C2408 C2409 1.391 . S
C2409 H2397 0.950 . S
C2409 C2405 1.393 . S
C2409 C2408 1.391 . S
C2410 H2400 0.950 . S
C2410 C2411 1.386 . S
C2410 C2412 1.391 . S
C2411 C2410 1.386 . S
C2411 C2415 1.393 . S
C2412 H2401 0.950 . S
C2412 C2410 1.391 . S
C2412 C2413 1.400 . S
C2413 C2407 1.491 . S
C2413 C2412 1.400 . S
C2413 C2414 1.398 . S
C2414 H2402 0.950 . S
C2414 C2413 1.398 . S
C2414 C2415 1.391 . S
C2415 H2403 0.950 . S
C2415 C2411 1.393 . S
C2415 C2414 1.391 . S
H2416 C2424 0.950 . S
H2417 C2429 0.950 . S
H2418 C2426 0.950 . S
H2419 C2428 0.950 . S
H2420 C2430 0.950 . S
H2421 C2432 0.950 . S
H2422 C2434 0.950 . S
H2423 C2435 0.950 . S
C2424 H2416 0.950 . S
C2424 C2425 1.386 . S
C2424 C2426 1.391 . S
C2425 C2424 1.386 . S
C2425 C2429 1.393 . S
C2426 H2418 0.950 . S
C2426 C2424 1.391 . S
C2426 C2427 1.400 . S
C2427 C2426 1.400 . S
C2427 C2428 1.398 . S
C2427 C2433 1.491 . S
C2428 H2419 0.950 . S
C2428 C2427 1.398 . S
C2428 C2429 1.391 . S
C2429 H2417 0.950 . S
C2429 C2425 1.393 . S
C2429 C2428 1.391 . S
C2430 H2420 0.950 . S
C2430 C2431 1.386 . S
C2430 C2432 1.391 . S
C2431 C2430 1.386 . S
C2431 C2435 1.393 . S
C2432 H2421 0.950 . S
C2432 C2430 1.391 . S
C2432 C2433 1.400 . S
C2433 C2427 1.491 . S
C2433 C2432 1.400 . S
C2433 C2434 1.398 . S
C2434 H2422 0.950 . S
C2434 C2433 1.398 . S
C2434 C2435 1.391 . S
C2435 H2423 0.950 . S
C2435 C2431 1.393 . S
C2435 C2434 1.391 . S
H2436 C2444 0.950 . S
H2437 C2449 0.950 . S
H2438 C2446 0.950 . S
H2439 C2448 0.950 . S
H2440 C2450 0.950 . S
H2441 C2452 0.950 . S
H2442 C2454 0.950 . S
H2443 C2455 0.950 . S
C2444 H2436 0.950 . S
C2444 C2445 1.386 . S
C2444 C2446 1.391 . S
C2445 C2444 1.386 . S
C2445 C2449 1.393 . S
C2446 H2438 0.950 . S
C2446 C2444 1.391 . S
C2446 C2447 1.400 . S
C2447 C2446 1.400 . S
C2447 C2448 1.398 . S
C2447 C2453 1.491 . S
C2448 H2439 0.950 . S
C2448 C2447 1.398 . S
C2448 C2449 1.391 . S
C2449 H2437 0.950 . S
C2449 C2445 1.393 . S
C2449 C2448 1.391 . S
C2450 H2440 0.950 . S
C2450 C2451 1.386 . S
C2450 C2452 1.391 . S
C2451 C2450 1.386 . S
C2451 C2455 1.393 . S
C2452 H2441 0.950 . S
C2452 C2450 1.391 . S
C2452 C2453 1.400 . S
C2453 C2447 1.491 . S
C2453 C2452 1.400 . S
C2453 C2454 1.398 . S
C2454 H2442 0.950 . S
C2454 C2453 1.398 . S
C2454 C2455 1.391 . S
C2455 H2443 0.950 . S
C2455 C2451 1.393 . S
C2455 C2454 1.391 . S
H2456 C2464 0.950 . S
H2457 C2469 0.950 . S
H2458 C2466 0.950 . S
H2459 C2468 0.950 . S
H2460 C2470 0.950 . S
H2461 C2472 0.950 . S
H2462 C2474 0.950 . S
H2463 C2475 0.950 . S
C2464 H2456 0.950 . S
C2464 C2465 1.386 . S
C2464 C2466 1.391 . S
C2465 C2464 1.386 . S
C2465 C2469 1.393 . S
C2466 H2458 0.950 . S
C2466 C2464 1.391 . S
C2466 C2467 1.400 . S
C2467 C2466 1.400 . S
C2467 C2468 1.398 . S
C2467 C2473 1.491 . S
C2468 H2459 0.950 . S
C2468 C2467 1.398 . S
C2468 C2469 1.391 . S
C2469 H2457 0.950 . S
C2469 C2465 1.393 . S
C2469 C2468 1.391 . S
C2470 H2460 0.950 . S
C2470 C2471 1.386 . S
C2470 C2472 1.391 . S
C2471 C2470 1.386 . S
C2471 C2475 1.393 . S
C2472 H2461 0.950 . S
C2472 C2470 1.391 . S
C2472 C2473 1.400 . S
C2473 C2467 1.491 . S
C2473 C2472 1.400 . S
C2473 C2474 1.398 . S
C2474 H2462 0.950 . S
C2474 C2473 1.398 . S
C2474 C2475 1.391 . S
C2475 H2463 0.950 . S
C2475 C2471 1.393 . S
C2475 C2474 1.391 . S
H2476 C2484 0.950 . S
H2477 C2489 0.950 . S
H2478 C2486 0.950 . S
H2479 C2488 0.950 . S
H2480 C2490 0.950 . S
H2481 C2492 0.950 . S
H2482 C2494 0.950 . S
H2483 C2495 0.950 . S
C2484 H2476 0.950 . S
C2484 C2485 1.386 . S
C2484 C2486 1.391 . S
C2485 C2484 1.386 . S
C2485 C2489 1.393 . S
C2486 H2478 0.950 . S
C2486 C2484 1.391 . S
C2486 C2487 1.400 . S
C2487 C2486 1.400 . S
C2487 C2488 1.398 . S
C2487 C2493 1.491 . S
C2488 H2479 0.950 . S
C2488 C2487 1.398 . S
C2488 C2489 1.391 . S
C2489 H2477 0.950 . S
C2489 C2485 1.393 . S
C2489 C2488 1.391 . S
C2490 H2480 0.950 . S
C2490 C2491 1.386 . S
C2490 C2492 1.391 . S
C2491 C2490 1.386 . S
C2491 C2495 1.393 . S
C2492 H2481 0.950 . S
C2492 C2490 1.391 . S
C2492 C2493 1.400 . S
C2493 C2487 1.491 . S
C2493 C2492 1.400 . S
C2493 C2494 1.398 . S
C2494 H2482 0.950 . S
C2494 C2493 1.398 . S
C2494 C2495 1.391 . S
C2495 H2483 0.950 . S
C2495 C2491 1.393 . S
C2495 C2494 1.391 . S
H2496 C2504 0.950 . S
H2497 C2509 0.950 . S
H2498 C2506 0.950 . S
H2499 C2508 0.950 1_554 S
H2500 C2510 0.950 . S
H2501 C2512 0.950 . S
H2502 C2514 0.950 . S
H2503 C2515 0.950 . S
C2504 H2496 0.950 . S
C2504 C2505 1.386 . S
C2504 C2506 1.391 . S
C2505 C2504 1.386 . S
C2505 C2509 1.393 . S
C2506 H2498 0.950 . S
C2506 C2504 1.391 . S
C2506 C2507 1.400 . S
C2507 C2506 1.400 . S
C2507 C2508 1.398 . S
C2507 C2513 1.491 . S
C2508 H2499 0.950 1_556 S
C2508 C2507 1.398 . S
C2508 C2509 1.391 . S
C2509 H2497 0.950 . S
C2509 C2505 1.393 . S
C2509 C2508 1.391 . S
C2510 H2500 0.950 . S
C2510 C2511 1.386 . S
C2510 C2512 1.391 . S
C2511 C2510 1.386 . S
C2511 C2515 1.393 1_554 S
C2512 H2501 0.950 . S
C2512 C2510 1.391 . S
C2512 C2513 1.400 1_554 S
C2513 C2507 1.491 . S
C2513 C2512 1.400 1_556 S
C2513 C2514 1.398 . S
C2514 H2502 0.950 . S
C2514 C2513 1.398 . S
C2514 C2515 1.391 . S
C2515 H2503 0.950 . S
C2515 C2511 1.393 1_556 S
C2515 C2514 1.391 . S
H2516 C2524 0.950 . S
H2517 C2529 0.950 . S
H2518 C2526 0.950 . S
H2519 C2528 0.950 . S
H2520 C2530 0.950 . S
H2521 C2532 0.950 . S
H2522 C2534 0.950 . S
H2523 C2535 0.950 . S
C2524 H2516 0.950 . S
C2524 C2525 1.386 . S
C2524 C2526 1.391 . S
C2525 C2524 1.386 . S
C2525 C2529 1.393 . S
C2526 H2518 0.950 . S
C2526 C2524 1.391 . S
C2526 C2527 1.400 . S
C2527 C2526 1.400 . S
C2527 C2528 1.398 . S
C2527 C2533 1.491 . S
C2528 H2519 0.950 . S
C2528 C2527 1.398 . S
C2528 C2529 1.391 . S
C2529 H2517 0.950 . S
C2529 C2525 1.393 . S
C2529 C2528 1.391 . S
C2530 H2520 0.950 . S
C2530 C2531 1.386 . S
C2530 C2532 1.391 . S
C2531 C2530 1.386 . S
C2531 C2535 1.393 . S
C2532 H2521 0.950 . S
C2532 C2530 1.391 . S
C2532 C2533 1.400 . S
C2533 C2527 1.491 . S
C2533 C2532 1.400 . S
C2533 C2534 1.398 . S
C2534 H2522 0.950 . S
C2534 C2533 1.398 . S
C2534 C2535 1.391 . S
C2535 H2523 0.950 . S
C2535 C2531 1.393 . S
C2535 C2534 1.391 . S
H2536 C2544 0.950 . S
H2537 C2549 0.950 . S
H2538 C2546 0.950 . S
H2539 C2548 0.950 . S
H2540 C2550 0.950 . S
H2541 C2552 0.950 . S
H2542 C2554 0.950 . S
H2543 C2555 0.950 . S
C2544 H2536 0.950 . S
C2544 C2545 1.386 . S
C2544 C2546 1.391 . S
C2545 C2544 1.386 . S
C2545 C2549 1.393 . S
C2546 H2538 0.950 . S
C2546 C2544 1.391 . S
C2546 C2547 1.400 . S
C2547 C2546 1.400 . S
C2547 C2548 1.398 . S
C2547 C2553 1.491 . S
C2548 H2539 0.950 . S
C2548 C2547 1.398 . S
C2548 C2549 1.391 . S
C2549 H2537 0.950 . S
C2549 C2545 1.393 . S
C2549 C2548 1.391 . S
C2550 H2540 0.950 . S
C2550 C2551 1.386 . S
C2550 C2552 1.391 . S
C2551 C2550 1.386 . S
C2551 C2555 1.393 . S
C2552 H2541 0.950 . S
C2552 C2550 1.391 . S
C2552 C2553 1.400 . S
C2553 C2547 1.491 . S
C2553 C2552 1.400 . S
C2553 C2554 1.398 . S
C2554 H2542 0.950 . S
C2554 C2553 1.398 . S
C2554 C2555 1.391 . S
C2555 H2543 0.950 . S
C2555 C2551 1.393 . S
C2555 C2554 1.391 . S
H2556 C2564 0.950 . S
H2557 C2569 0.950 . S
H2558 C2566 0.950 . S
H2559 C2568 0.950 . S
H2560 C2570 0.950 . S
H2561 C2572 0.950 . S
H2562 C2574 0.950 . S
H2563 C2575 0.950 . S
C2564 H2556 0.950 . S
C2564 C2565 1.386 . S
C2564 C2566 1.391 . S
C2565 C2564 1.386 . S
C2565 C2569 1.393 . S
C2566 H2558 0.950 . S
C2566 C2564 1.391 . S
C2566 C2567 1.400 . S
C2567 C2566 1.400 . S
C2567 C2568 1.398 . S
C2567 C2573 1.491 . S
C2568 H2559 0.950 . S
C2568 C2567 1.398 . S
C2568 C2569 1.391 . S
C2569 H2557 0.950 . S
C2569 C2565 1.393 . S
C2569 C2568 1.391 . S
C2570 H2560 0.950 . S
C2570 C2571 1.386 . S
C2570 C2572 1.391 . S
C2571 C2570 1.386 . S
C2571 C2575 1.393 . S
C2572 H2561 0.950 . S
C2572 C2570 1.391 . S
C2572 C2573 1.400 . S
C2573 C2567 1.491 . S
C2573 C2572 1.400 . S
C2573 C2574 1.398 . S
C2574 H2562 0.950 . S
C2574 C2573 1.398 . S
C2574 C2575 1.391 . S
C2575 H2563 0.950 . S
C2575 C2571 1.393 . S
C2575 C2574 1.391 . S
H2576 C2584 0.950 . S
H2577 C2589 0.950 . S
H2578 C2586 0.950 . S
H2579 C2588 0.950 . S
H2580 C2590 0.950 . S
H2581 C2592 0.950 . S
H2582 C2594 0.950 . S
H2583 C2595 0.950 . S
C2584 H2576 0.950 . S
C2584 C2585 1.386 . S
C2584 C2586 1.391 . S
C2585 C2584 1.386 . S
C2585 C2589 1.393 . S
C2586 H2578 0.950 . S
C2586 C2584 1.391 . S
C2586 C2587 1.400 . S
C2587 C2586 1.400 . S
C2587 C2588 1.398 . S
C2587 C2593 1.491 . S
C2588 H2579 0.950 . S
C2588 C2587 1.398 . S
C2588 C2589 1.391 . S
C2589 H2577 0.950 . S
C2589 C2585 1.393 . S
C2589 C2588 1.391 . S
C2590 H2580 0.950 . S
C2590 C2591 1.386 . S
C2590 C2592 1.391 . S
C2591 C2590 1.386 . S
C2591 C2595 1.393 . S
C2592 H2581 0.950 . S
C2592 C2590 1.391 . S
C2592 C2593 1.400 . S
C2593 C2587 1.491 . S
C2593 C2592 1.400 . S
C2593 C2594 1.398 . S
C2594 H2582 0.950 . S
C2594 C2593 1.398 . S
C2594 C2595 1.391 . S
C2595 H2583 0.950 . S
C2595 C2591 1.393 . S
C2595 C2594 1.391 . S
H2596 C2604 0.950 . S
H2597 C2609 0.950 . S
H2598 C2606 0.950 . S
H2599 C2608 0.950 . S
H2600 C2610 0.950 . S
H2601 C2612 0.950 . S
H2602 C2614 0.950 . S
H2603 C2615 0.950 . S
C2604 H2596 0.950 . S
C2604 C2605 1.386 . S
C2604 C2606 1.391 . S
C2605 C2604 1.386 . S
C2605 C2609 1.393 . S
C2606 H2598 0.950 . S
C2606 C2604 1.391 . S
C2606 C2607 1.400 . S
C2607 C2606 1.400 . S
C2607 C2608 1.398 . S
C2607 C2613 1.491 . S
C2608 H2599 0.950 . S
C2608 C2607 1.398 . S
C2608 C2609 1.391 . S
C2609 H2597 0.950 . S
C2609 C2605 1.393 . S
C2609 C2608 1.391 . S
C2610 H2600 0.950 . S
C2610 C2611 1.386 . S
C2610 C2612 1.391 . S
C2611 C2610 1.386 . S
C2611 C2615 1.393 . S
C2612 H2601 0.950 . S
C2612 C2610 1.391 . S
C2612 C2613 1.400 . S
C2613 C2607 1.491 . S
C2613 C2612 1.400 . S
C2613 C2614 1.398 . S
C2614 H2602 0.950 . S
C2614 C2613 1.398 . S
C2614 C2615 1.391 . S
C2615 H2603 0.950 . S
C2615 C2611 1.393 . S
C2615 C2614 1.391 . S
H2616 C2624 0.950 . S
H2617 C2629 0.950 . S
H2618 C2626 0.950 . S
H2619 C2628 0.950 . S
H2620 C2630 0.950 . S
H2621 C2632 0.950 . S
H2622 C2634 0.950 1_455 S
H2623 C2635 0.950 . S
C2624 H2616 0.950 . S
C2624 C2625 1.386 . S
C2624 C2626 1.391 . S
C2625 C2624 1.386 . S
C2625 C2629 1.393 . S
C2626 H2618 0.950 . S
C2626 C2624 1.391 . S
C2626 C2627 1.400 . S
C2627 C2626 1.400 . S
C2627 C2628 1.398 . S
C2627 C2633 1.491 . S
C2628 H2619 0.950 . S
C2628 C2627 1.398 . S
C2628 C2629 1.391 . S
C2629 H2617 0.950 . S
C2629 C2625 1.393 . S
C2629 C2628 1.391 . S
C2630 H2620 0.950 . S
C2630 C2631 1.437 . S
C2630 C2632 1.391 . S
C2631 C2630 1.437 . S
C2631 C2635 1.365 1_655 S
C2632 H2621 0.950 . S
C2632 C2630 1.391 . S
C2632 C2633 1.400 . S
C2633 C2627 1.491 . S
C2633 C2632 1.400 . S
C2633 C2634 1.398 . S
C2634 H2622 0.950 1_655 S
C2634 C2633 1.398 . S
C2634 C2635 1.391 1_655 S
C2635 H2623 0.950 . S
C2635 C2631 1.365 1_455 S
C2635 C2634 1.391 1_455 S
H2636 C2644 0.950 . S
H2637 C2649 0.950 . S
H2638 C2646 0.950 . S
H2639 C2648 0.950 . S
H2640 C2650 0.950 . S
H2641 C2652 0.950 . S
H2642 C2654 0.950 . S
H2643 C2655 0.950 . S
C2644 H2636 0.950 . S
C2644 C2645 1.386 . S
C2644 C2646 1.391 . S
C2645 C2644 1.386 . S
C2645 C2649 1.393 . S
C2646 H2638 0.950 . S
C2646 C2644 1.391 . S
C2646 C2647 1.400 . S
C2647 C2646 1.400 . S
C2647 C2648 1.398 . S
C2647 C2653 1.491 . S
C2648 H2639 0.950 . S
C2648 C2647 1.398 . S
C2648 C2649 1.391 . S
C2649 H2637 0.950 . S
C2649 C2645 1.393 . S
C2649 C2648 1.391 . S
C2650 H2640 0.950 . S
C2650 C2651 1.386 . S
C2650 C2652 1.391 . S
C2651 C2650 1.386 . S
C2651 C2655 1.393 . S
C2652 H2641 0.950 . S
C2652 C2650 1.391 . S
C2652 C2653 1.400 . S
C2653 C2647 1.491 . S
C2653 C2652 1.400 . S
C2653 C2654 1.398 . S
C2654 H2642 0.950 . S
C2654 C2653 1.398 . S
C2654 C2655 1.391 . S
C2655 H2643 0.950 . S
C2655 C2651 1.393 . S
C2655 C2654 1.391 . S
H2656 C2664 0.950 . S
H2657 C2669 0.950 . S
H2658 C2666 0.950 . S
H2659 C2668 0.950 . S
H2660 C2670 0.950 . S
H2661 C2672 0.950 . S
H2662 C2674 0.950 . S
H2663 C2675 0.950 . S
C2664 H2656 0.950 . S
C2664 C2665 1.386 . S
C2664 C2666 1.391 . S
C2665 C2664 1.386 . S
C2665 C2669 1.393 . S
C2666 H2658 0.950 . S
C2666 C2664 1.391 . S
C2666 C2667 1.400 . S
C2667 C2666 1.400 . S
C2667 C2668 1.398 . S
C2667 C2673 1.491 . S
C2668 H2659 0.950 . S
C2668 C2667 1.398 . S
C2668 C2669 1.391 . S
C2669 H2657 0.950 . S
C2669 C2665 1.393 . S
C2669 C2668 1.391 . S
C2670 H2660 0.950 . S
C2670 C2671 1.386 . S
C2670 C2672 1.391 . S
C2671 C2670 1.386 . S
C2671 C2675 1.393 . S
C2672 H2661 0.950 . S
C2672 C2670 1.391 . S
C2672 C2673 1.400 . S
C2673 C2667 1.491 . S
C2673 C2672 1.400 . S
C2673 C2674 1.398 . S
C2674 H2662 0.950 . S
C2674 C2673 1.398 . S
C2674 C2675 1.391 . S
C2675 H2663 0.950 . S
C2675 C2671 1.393 . S
C2675 C2674 1.391 . S
H2676 C2684 0.950 . S
H2677 C2689 0.950 . S
H2678 C2686 0.950 . S
H2679 C2688 0.950 . S
H2680 C2690 0.950 . S
H2681 C2692 0.950 . S
H2682 C2694 0.950 . S
H2683 C2695 0.950 . S
C2684 H2676 0.950 . S
C2684 C2685 1.386 . S
C2684 C2686 1.391 . S
C2685 C2684 1.386 . S
C2685 C2689 1.393 . S
C2686 H2678 0.950 . S
C2686 C2684 1.391 . S
C2686 C2687 1.400 . S
C2687 C2686 1.400 . S
C2687 C2688 1.398 . S
C2687 C2693 1.491 . S
C2688 H2679 0.950 . S
C2688 C2687 1.398 . S
C2688 C2689 1.391 . S
C2689 H2677 0.950 . S
C2689 C2685 1.393 . S
C2689 C2688 1.391 . S
C2690 H2680 0.950 . S
C2690 C2691 1.386 . S
C2690 C2692 1.391 . S
C2691 C2690 1.386 . S
C2691 C2695 1.393 . S
C2692 H2681 0.950 . S
C2692 C2690 1.391 . S
C2692 C2693 1.400 . S
C2693 C2687 1.491 . S
C2693 C2692 1.400 . S
C2693 C2694 1.398 . S
C2694 H2682 0.950 . S
C2694 C2693 1.398 . S
C2694 C2695 1.391 . S
C2695 H2683 0.950 . S
C2695 C2691 1.393 . S
C2695 C2694 1.391 . S
H2696 C2704 0.950 . S
H2697 C2709 0.950 . S
H2698 C2706 0.950 . S
H2699 C2708 0.950 . S
H2700 C2710 0.950 . S
H2701 C2712 0.950 . S
H2702 C2714 0.950 . S
H2703 C2715 0.950 . S
C2704 H2696 0.950 . S
C2704 C2705 1.386 . S
C2704 C2706 1.391 . S
C2705 C2704 1.386 . S
C2705 C2709 1.393 . S
C2706 H2698 0.950 . S
C2706 C2704 1.391 . S
C2706 C2707 1.400 . S
C2707 C2706 1.400 . S
C2707 C2708 1.398 . S
C2707 C2713 1.491 . S
C2708 H2699 0.950 . S
C2708 C2707 1.398 . S
C2708 C2709 1.391 . S
C2709 H2697 0.950 . S
C2709 C2705 1.393 . S
C2709 C2708 1.391 . S
C2710 H2700 0.950 . S
C2710 C2711 1.386 . S
C2710 C2712 1.391 . S
C2711 C2710 1.386 . S
C2711 C2715 1.393 1_655 S
C2712 H2701 0.950 . S
C2712 C2710 1.391 . S
C2712 C2713 1.400 . S
C2713 C2707 1.491 . S
C2713 C2712 1.400 . S
C2713 C2714 1.398 . S
C2714 H2702 0.950 . S
C2714 C2713 1.398 . S
C2714 C2715 1.391 1_655 S
C2715 H2703 0.950 . S
C2715 C2711 1.393 1_455 S
C2715 C2714 1.391 1_455 S
H2716 C2724 0.950 . S
H2717 C2729 0.950 . S
H2718 C2726 0.950 . S
H2719 C2728 0.950 . S
H2720 C2730 0.950 . S
H2721 C2732 0.950 . S
H2722 C2734 0.950 . S
H2723 C2735 0.950 . S
C2724 H2716 0.950 . S
C2724 C2725 1.386 . S
C2724 C2726 1.391 . S
C2725 C2724 1.386 . S
C2725 C2729 1.393 . S
C2726 H2718 0.950 . S
C2726 C2724 1.391 . S
C2726 C2727 1.400 . S
C2727 C2726 1.400 . S
C2727 C2728 1.398 . S
C2727 C2733 1.491 . S
C2728 H2719 0.950 . S
C2728 C2727 1.398 . S
C2728 C2729 1.391 . S
C2729 H2717 0.950 . S
C2729 C2725 1.393 . S
C2729 C2728 1.391 . S
C2730 H2720 0.950 . S
C2730 C2731 1.386 . S
C2730 C2732 1.391 . S
C2731 C2730 1.386 . S
C2731 C2735 1.393 . S
C2732 H2721 0.950 . S
C2732 C2730 1.391 . S
C2732 C2733 1.400 . S
C2733 C2727 1.491 . S
C2733 C2732 1.400 . S
C2733 C2734 1.398 . S
C2734 H2722 0.950 . S
C2734 C2733 1.398 . S
C2734 C2735 1.391 . S
C2735 H2723 0.950 . S
C2735 C2731 1.393 . S
C2735 C2734 1.391 . S
H2736 C2744 0.950 . S
H2737 C2749 0.950 . S
H2738 C2746 0.950 . S
H2739 C2748 0.950 . S
H2740 C2750 0.950 . S
H2741 C2752 0.950 . S
H2742 C2754 0.950 . S
H2743 C2755 0.950 . S
C2744 H2736 0.950 . S
C2744 C2745 1.386 . S
C2744 C2746 1.391 . S
C2745 C2744 1.386 . S
C2745 C2749 1.393 . S
C2746 H2738 0.950 . S
C2746 C2744 1.391 . S
C2746 C2747 1.400 . S
C2747 C2746 1.400 . S
C2747 C2748 1.398 . S
C2747 C2753 1.491 . S
C2748 H2739 0.950 . S
C2748 C2747 1.398 . S
C2748 C2749 1.391 . S
C2749 H2737 0.950 . S
C2749 C2745 1.393 . S
C2749 C2748 1.391 . S
C2750 H2740 0.950 . S
C2750 C2751 1.386 . S
C2750 C2752 1.391 . S
C2751 C2750 1.386 . S
C2751 C2755 1.393 . S
C2752 H2741 0.950 . S
C2752 C2750 1.391 . S
C2752 C2753 1.400 . S
C2753 C2747 1.491 . S
C2753 C2752 1.400 . S
C2753 C2754 1.398 . S
C2754 H2742 0.950 . S
C2754 C2753 1.398 . S
C2754 C2755 1.391 . S
C2755 H2743 0.950 . S
C2755 C2751 1.393 . S
C2755 C2754 1.391 . S
H2756 C2764 0.950 . S
H2757 C2769 0.950 . S
H2758 C2766 0.950 . S
H2759 C2768 0.950 . S
H2760 C2770 0.950 . S
H2761 C2772 0.950 . S
H2762 C2774 0.950 . S
H2763 C2775 0.950 1_545 S
C2764 H2756 0.950 . S
C2764 C2765 1.386 . S
C2764 C2766 1.391 . S
C2765 C2764 1.386 . S
C2765 C2769 1.393 . S
C2766 H2758 0.950 . S
C2766 C2764 1.391 . S
C2766 C2767 1.400 . S
C2767 C2766 1.400 . S
C2767 C2768 1.398 . S
C2767 C2773 1.491 . S
C2768 H2759 0.950 . S
C2768 C2767 1.398 . S
C2768 C2769 1.391 . S
C2769 H2757 0.950 . S
C2769 C2765 1.393 . S
C2769 C2768 1.391 . S
C2770 H2760 0.950 . S
C2770 C2771 1.386 . S
C2770 C2772 1.391 . S
C2771 C2770 1.386 . S
C2771 C2775 1.393 . S
C2772 H2761 0.950 . S
C2772 C2770 1.391 . S
C2772 C2773 1.400 . S
C2773 C2767 1.491 . S
C2773 C2772 1.400 . S
C2773 C2774 1.398 . S
C2774 H2762 0.950 . S
C2774 C2773 1.398 . S
C2774 C2775 1.391 . S
C2775 H2763 0.950 1_565 S
C2775 C2771 1.393 . S
C2775 C2774 1.391 . S
H2776 C2784 0.950 . S
H2777 C2789 0.950 . S
H2778 C2786 0.950 . S
H2779 C2788 0.950 . S
H2780 C2790 0.950 . S
H2781 C2792 0.950 . S
H2782 C2794 0.950 . S
H2783 C2795 0.950 . S
C2784 H2776 0.950 . S
C2784 C2785 1.386 . S
C2784 C2786 1.391 . S
C2785 C2784 1.386 . S
C2785 C2789 1.393 . S
C2786 H2778 0.950 . S
C2786 C2784 1.391 . S
C2786 C2787 1.400 . S
C2787 C2786 1.400 . S
C2787 C2788 1.398 . S
C2787 C2793 1.491 . S
C2788 H2779 0.950 . S
C2788 C2787 1.398 . S
C2788 C2789 1.391 . S
C2789 H2777 0.950 . S
C2789 C2785 1.393 . S
C2789 C2788 1.391 . S
C2790 H2780 0.950 . S
C2790 C2791 1.386 . S
C2790 C2792 1.391 . S
C2791 C2790 1.386 . S
C2791 C2795 1.393 . S
C2792 H2781 0.950 . S
C2792 C2790 1.391 . S
C2792 C2793 1.400 . S
C2793 C2787 1.491 . S
C2793 C2792 1.400 . S
C2793 C2794 1.398 . S
C2794 H2782 0.950 . S
C2794 C2793 1.398 . S
C2794 C2795 1.391 . S
C2795 H2783 0.950 . S
C2795 C2791 1.393 . S
C2795 C2794 1.391 . S
H2796 C2804 0.950 . S
H2797 C2809 0.950 . S
H2798 C2806 0.950 . S
H2799 C2808 0.950 . S
H2800 C2810 0.950 . S
H2801 C2812 0.950 . S
H2802 C2814 0.950 . S
H2803 C2815 0.950 . S
C2804 H2796 0.950 . S
C2804 C2805 1.386 . S
C2804 C2806 1.391 . S
C2805 C2804 1.386 . S
C2805 C2809 1.393 . S
C2806 H2798 0.950 . S
C2806 C2804 1.391 . S
C2806 C2807 1.400 . S
C2807 C2806 1.400 . S
C2807 C2808 1.398 . S
C2807 C2813 1.491 . S
C2808 H2799 0.950 . S
C2808 C2807 1.398 . S
C2808 C2809 1.391 . S
C2809 H2797 0.950 . S
C2809 C2805 1.393 . S
C2809 C2808 1.391 . S
C2810 H2800 0.950 . S
C2810 C2811 1.386 . S
C2810 C2812 1.391 . S
C2811 C2810 1.386 . S
C2811 C2815 1.393 . S
C2812 H2801 0.950 . S
C2812 C2810 1.391 . S
C2812 C2813 1.400 . S
C2813 C2807 1.491 . S
C2813 C2812 1.400 . S
C2813 C2814 1.398 . S
C2814 H2802 0.950 . S
C2814 C2813 1.398 . S
C2814 C2815 1.391 . S
C2815 H2803 0.950 . S
C2815 C2811 1.393 . S
C2815 C2814 1.391 . S
H2816 C2824 0.950 . S
H2817 C2829 0.950 . S
H2818 C2826 0.950 . S
H2819 C2828 0.950 . S
H2820 C2830 0.950 . S
H2821 C2832 0.950 . S
H2822 C2834 0.950 . S
H2823 C2835 0.950 . S
C2824 H2816 0.950 . S
C2824 C2825 1.386 . S
C2824 C2826 1.391 . S
C2825 C2824 1.386 . S
C2825 C2829 1.393 . S
C2826 H2818 0.950 . S
C2826 C2824 1.391 . S
C2826 C2827 1.400 . S
C2827 C2826 1.400 . S
C2827 C2828 1.398 . S
C2827 C2833 1.491 . S
C2828 H2819 0.950 . S
C2828 C2827 1.398 . S
C2828 C2829 1.391 . S
C2829 H2817 0.950 . S
C2829 C2825 1.393 . S
C2829 C2828 1.391 . S
C2830 H2820 0.950 . S
C2830 C2831 1.386 . S
C2830 C2832 1.391 . S
C2831 C2830 1.386 . S
C2831 C2835 1.393 . S
C2832 H2821 0.950 . S
C2832 C2830 1.391 . S
C2832 C2833 1.400 . S
C2833 C2827 1.491 . S
C2833 C2832 1.400 . S
C2833 C2834 1.398 . S
C2834 H2822 0.950 . S
C2834 C2833 1.398 . S
C2834 C2835 1.391 . S
C2835 H2823 0.950 . S
C2835 C2831 1.393 . S
C2835 C2834 1.391 . S
H2836 C2844 0.950 . S
H2837 C2849 0.950 . S
H2838 C2846 0.950 . S
H2839 C2848 0.950 . S
H2840 C2850 0.950 . S
H2841 C2852 0.950 . S
H2842 C2854 0.950 . S
H2843 C2855 0.950 1_556 S
C2844 H2836 0.950 . S
C2844 C2845 1.386 . S
C2844 C2846 1.391 . S
C2845 C2844 1.386 . S
C2845 C2849 1.393 . S
C2846 H2838 0.950 . S
C2846 C2844 1.391 . S
C2846 C2847 1.400 . S
C2847 C2846 1.400 . S
C2847 C2848 1.398 . S
C2847 C2853 1.491 . S
C2848 H2839 0.950 . S
C2848 C2847 1.398 . S
C2848 C2849 1.391 . S
C2849 H2837 0.950 . S
C2849 C2845 1.393 . S
C2849 C2848 1.391 . S
C2850 H2840 0.950 . S
C2850 C2851 1.386 . S
C2850 C2852 1.391 . S
C2851 C2850 1.386 . S
C2851 C2855 1.393 . S
C2852 H2841 0.950 . S
C2852 C2850 1.391 . S
C2852 C2853 1.400 . S
C2853 C2847 1.491 . S
C2853 C2852 1.400 . S
C2853 C2854 1.398 . S
C2854 H2842 0.950 . S
C2854 C2853 1.398 . S
C2854 C2855 1.391 . S
C2855 H2843 0.950 1_554 S
C2855 C2851 1.393 . S
C2855 C2854 1.391 . S
H2856 C2864 0.950 . S
H2857 C2869 0.950 . S
H2858 C2866 0.950 . S
H2859 C2868 0.950 . S
H2860 C2870 0.950 . S
H2861 C2872 0.950 . S
H2862 C2874 0.950 . S
H2863 C2875 0.950 . S
C2864 H2856 0.950 . S
C2864 C2865 1.386 . S
C2864 C2866 1.391 . S
C2865 C2864 1.386 . S
C2865 C2869 1.393 . S
C2866 H2858 0.950 . S
C2866 C2864 1.391 . S
C2866 C2867 1.400 . S
C2867 C2866 1.400 . S
C2867 C2868 1.398 . S
C2867 C2873 1.491 . S
C2868 H2859 0.950 . S
C2868 C2867 1.398 . S
C2868 C2869 1.391 . S
C2869 H2857 0.950 . S
C2869 C2865 1.393 . S
C2869 C2868 1.391 . S
C2870 H2860 0.950 . S
C2870 C2871 1.386 . S
C2870 C2872 1.391 . S
C2871 C2870 1.386 . S
C2871 C2875 1.393 . S
C2872 H2861 0.950 . S
C2872 C2870 1.391 . S
C2872 C2873 1.400 . S
C2873 C2867 1.491 . S
C2873 C2872 1.400 . S
C2873 C2874 1.398 . S
C2874 H2862 0.950 . S
C2874 C2873 1.398 . S
C2874 C2875 1.391 . S
C2875 H2863 0.950 . S
C2875 C2871 1.393 . S
C2875 C2874 1.391 . S
H2876 C2884 0.950 . S
H2877 C2889 0.950 . S
H2878 C2886 0.950 . S
H2879 C2888 0.950 . S
H2880 C2890 0.950 . S
H2881 C2892 0.950 . S
H2882 C2894 0.950 . S
H2883 C2895 0.950 . S
C2884 H2876 0.950 . S
C2884 C2885 1.386 . S
C2884 C2886 1.391 . S
C2885 C2884 1.386 . S
C2885 C2889 1.393 . S
C2886 H2878 0.950 . S
C2886 C2884 1.391 . S
C2886 C2887 1.400 . S
C2887 C2886 1.400 . S
C2887 C2888 1.398 . S
C2887 C2893 1.491 . S
C2888 H2879 0.950 . S
C2888 C2887 1.398 . S
C2888 C2889 1.391 . S
C2889 H2877 0.950 . S
C2889 C2885 1.393 . S
C2889 C2888 1.391 . S
C2890 H2880 0.950 . S
C2890 C2891 1.386 . S
C2890 C2892 1.391 . S
C2891 C2890 1.386 . S
C2891 C2895 1.393 . S
C2892 H2881 0.950 . S
C2892 C2890 1.391 . S
C2892 C2893 1.400 . S
C2893 C2887 1.491 . S
C2893 C2892 1.400 . S
C2893 C2894 1.398 . S
C2894 H2882 0.950 . S
C2894 C2893 1.398 . S
C2894 C2895 1.391 . S
C2895 H2883 0.950 . S
C2895 C2891 1.393 . S
C2895 C2894 1.391 . S
C985 C109 2.102 . S
C991 C355 2.044 . S
C1005 C65 2.242 . S
C1011 C384 2.231 . S
C1025 C75 1.210 . S
C1031 C435 1.189 . S
C1051 C461 1.539 . S
C1045 C84 1.542 . S
C1065 C25 0.538 . S
C1071 C501 0.542 . S
C1091 C551 0.262 . S
C1085 C28 0.271 . S
C1111 C594 0.435 . S
C1105 C47 0.304 . S
C1125 C9 1.175 . S
C1131 C631 1.159 . S
C1151 C344 2.484 . S
C1145 C233 2.486 . S
C1165 C249 0.440 . S
C1171 C381 0.492 . S
C1191 C424 2.429 . S
C1185 C275 2.448 . S
C1211 C475 1.258 . S
C1205 C173 1.279 1_556 S
C1225 C224 1.904 . S
C1231 C515 1.893 . S
C1251 C554 0.417 . S
C1245 C243 0.331 . S
C1271 C585 1.925 1_556 S
C1265 C266 1.975 . S
C1291 C634 1.970 . S
C1285 C179 1.958 . S
C1311 C341 1.420 . S
C1305 C163 1.444 . S
C1325 C289 2.323 . S
C1331 C664 2.300 . S
C1351 C705 2.364 . S
C1345 C333 2.390 . S
C1371 C751 0.462 . S
C1365 C308 0.477 . S
C1385 C123 2.589 . S
C1391 C625 2.534 . S
C1405 C126 1.494 . S
C1411 C421 1.494 . S
C1425 C327 2.278 . S
C1431 C784 2.270 . S
C1451 C835 1.954 . S
C1445 C299 1.980 . S
C1471 C345 2.042 . S
C1465 C67 2.105 . S
C1491 C834 2.265 . S
C1485 C98 2.257 . S
C1505 C89 1.235 . S
C1511 C425 1.225 . S
C1525 C79 1.602 . S
C1531 C791 1.591 . S
C1551 C511 0.559 . S
C1545 C11 0.548 . S
C1565 C51 0.304 . S
C1571 C701 0.282 . S
C1591 C584 0.390 . S
C1585 C33 0.240 . S
C1611 C861 1.106 . S
C1605 C14 1.122 . S
C1631 C354 2.460 . S
C1625 C140 2.451 . S
C1651 C831 0.483 . S
C1645 C319 0.378 . S
C1665 C112 2.439 . S
C1671 C434 2.440 . S
C1685 C285 1.299 . S
C1691 C785 1.282 . S
C1705 C149 1.958 . S
C1711 C505 1.928 . S
C1731 C704 0.430 . S
C1725 C313 0.349 . S
C1745 C121 2.075 . S
C1751 C595 2.008 . S
C1765 C291 1.967 . S
C1771 C864 1.971 . S
C1785 C182 1.398 . S
C1791 C351 1.352 . S
C1805 C168 2.344 . S
C1811 C674 2.338 . S
C1825 C263 2.443 . S
C1831 C555 2.407 . S
C1845 C247 0.493 . S
C1851 C741 0.495 . S
C1871 C875 2.552 . S
C1865 C277 2.601 . S
C1885 C219 1.552 . S
C1891 C431 1.527 . S
C1911 C474 2.308 . S
C1905 C257 2.324 . S
C1931 C385 1.955 . S
C1925 C201 1.976 . S
C1945 C81 2.106 . S
C1951 C915 2.056 . S
C1971 C824 2.231 . S
C1965 C93 2.242 . S
C1985 C103 1.212 . S
C1991 C955 1.174 . S
C2005 C56 1.551 1_655 S
C2011 C781 1.547 . S
C2025 C53 0.573 . S
C2031 C661 0.586 . S
C2051 C711 0.272 . S
C2045 C0 0.331 . S
C2071 C754 0.444 . S
C2065 C19 0.324 . S
C2091 C871 1.188 . S
C2085 C37 1.198 . S
C2111 C904 2.486 . S
C2105 C261 2.483 . S
C2125 C193 0.392 . S
C2131 C821 0.449 . S
C2151 C944 2.430 . S
C2145 C205 2.448 . S
C2171 C795 1.244 . S
C2165 C215 1.282 . S
C2191 C675 1.901 . S
C2185 C252 1.899 . S
C2205 C187 0.318 . S
C2211 C714 0.400 . S
C2231 C745 1.926 . S
C2225 C196 1.975 . S
C2245 C221 1.954 . S
C2251 C874 1.970 . S
C2271 C901 1.392 . S
C2265 C317 1.421 . S
C2285 C135 2.325 . S
C2291 C504 2.308 . S
C2311 C545 2.362 . S
C2305 C151 2.391 . S
C2331 C591 0.487 . S
C2325 C154 0.505 . S
C2351 C865 2.549 . S
C2345 C305 2.594 . S
C2365 C280 1.494 . S
C2371 C941 1.493 . S
C2391 C464 2.264 . S
C2385 C145 2.273 . S
C2411 C395 1.945 . S
C2405 C117 1.986 . S
C2425 C95 2.106 . S
C2431 C905 2.044 . S
C2451 C394 2.264 . S
C2445 C70 2.255 . S
C2465 C61 1.237 . S
C2471 C945 1.220 . S
C2485 C107 1.604 . S
C2491 C471 1.588 . S
C2505 C39 0.564 . S
C2511 C671 0.587 . S
C2531 C541 0.299 . S
C2525 C23 0.322 . S
C2545 C5 0.215 . S
C2551 C744 0.353 . S
C2565 C42 1.132 . S
C2571 C621 1.118 . S
C2591 C914 2.461 . S
C2585 C322 2.450 . S
C2605 C165 0.353 . S
C2611 C391 0.452 . S
C2631 C954 2.419 1_655 S
C2625 C294 2.441 . S
C2645 C131 1.297 . S
C2651 C465 1.287 . S
C2665 C331 1.963 . S
C2671 C665 1.924 . S
C2691 C544 0.358 . S
C2685 C159 0.293 . S
C2705 C303 2.076 . S
C2711 C755 2.000 1_655 S
C2731 C624 1.970 . S
C2725 C137 1.967 . S
C2751 C911 1.366 . S
C2745 C238 1.398 . S
C2771 C514 2.341 1_565 S
C2765 C210 2.344 . S
C2785 C235 2.445 . S
C2791 C715 2.420 . S
C2811 C581 0.520 . S
C2805 C191 0.515 . S
C2825 C207 2.601 . S
C2831 C635 2.539 . S
C2845 C177 1.550 . S
C2851 C951 1.529 . S
C2871 C794 2.307 . S
C2865 C229 2.323 . S
C2891 C825 1.940 . S
C2885 C271 1.979 . S
