# Generated by pormake.
# Topology scu, (8,4)-cn, num edge types: 1
# Building blocks:
#     Node 0, Type 0, BuildingBlock: GIZVER_clean_sbu_0, # of connection points: 8
#     Node 1, Type 1, BuildingBlock: ESEHIV_clean_sbu_0, # of connection points: 4
#     Node 2, Type 1, BuildingBlock: ESEHIV_clean_sbu_0, # of connection points: 4
#     Edge 3, Type (0, 1), BuildingBlock: MIFKUJ_clean_linker_0, # of connection points: 2
#     Edge 4, Type (0, 1), BuildingBlock: MIFKUJ_clean_linker_0, # of connection points: 2
#     Edge 5, Type (0, 1), BuildingBlock: MIFKUJ_clean_linker_0, # of connection points: 2
#     Edge 6, Type (0, 1), BuildingBlock: MIFKUJ_clean_linker_0, # of connection points: 2
#     Edge 7, Type (0, 1), BuildingBlock: MIFKUJ_clean_linker_0, # of connection points: 2
#     Edge 8, Type (0, 1), BuildingBlock: MIFKUJ_clean_linker_0, # of connection points: 2
#     Edge 9, Type (0, 1), BuildingBlock: MIFKUJ_clean_linker_0, # of connection points: 2
#     Edge 10, Type (0, 1), BuildingBlock: MIFKUJ_clean_linker_0, # of connection points: 2
# Relax obj value: 0.032
# Max RMSD: 0.137
# Mean RMSD: 0.117
data_MOF--net-scu--node1-GIZVER_clean_sbu_0--node2-ESEHIV_clean_sbu_0--edge1-MIFKUJ_clean_linker_0
_symmetry_space_group_name_H-M    P1
_symmetry_Int_Tables_number       1
_symmetry_cell_setting            triclinic
loop_
_symmetry_equiv_pos_as_xyz
'x, y, z'
_cell_length_a     31.15749
_cell_length_b     32.310901
_cell_length_c     28.161471
_cell_angle_alpha  100.29889
_cell_angle_beta   87.171721
_cell_angle_gamma 111.67465
loop_
_atom_site_label
_atom_site_type_symbol
_atom_site_fract_x
_atom_site_fract_y
_atom_site_fract_z
_atom_type_partial_charge
Co0 Co 0.02487 0.96477 0.13092 0.0
Co1 Co 0.09139 0.03697 0.11853 0.0
Co2 Co 1.01016 0.02068 0.04204 0.0
O3 O 0.04665 0.99473 0.07625 0.0
H4 H 0.06095 0.97802 0.05329 0.0
O5 O 0.97476 0.04696 1.00722 0.0
Co6 Co 0.99339 0.06278 0.9448 0.0
Co7 Co 0.92343 1.00305 0.97644 0.0
H8 H 0.96604 0.06962 0.02822 0.0
O9 O 0.14519 0.02868 0.12698 0.0
O10 O 0.08025 1.0075 0.17074 0.0
O11 O 0.08659 0.09461 0.13816 0.0
O12 O 0.0289 0.08137 0.08702 0.0
O13 O 0.06438 0.04266 0.99985 0.0
O14 O 1.00979 0.08174 0.88906 0.0
O15 O 0.97155 0.1084 0.94914 0.0
O16 O 0.022 0.01939 0.93275 0.0
O17 O 0.99003 0.95984 0.99708 0.0
O18 O 0.91771 0.94126 0.97166 0.0
O19 O 0.93314 0.01791 0.91507 0.0
O20 O 0.87367 1.0167 0.96515 0.0
C21 C 0.0322 0.91221 0.15733 0.0
C22 C 0.95799 1.00565 0.12983 0.0
C23 C 0.05655 0.1064 0.12175 0.0
C24 C 0.12329 1.0113 0.16346 0.0
C25 C 0.99144 0.11115 0.90718 0.0
C26 C 0.06086 0.03069 0.95405 0.0
C27 C 0.95285 0.93115 0.97558 0.0
C28 C 0.89215 0.02002 0.9229 0.0
O29 O 1.0068 0.93382 0.1788 0.0
O30 O 0.05303 0.92366 0.11754 0.0
O31 O 0.95567 0.99917 0.08385 0.0
O32 O 0.99111 1.00283 0.15219 0.0
Cu33 Cu 0.03643 0.53207 0.54263 0.0
N34 N 0.06772 0.50831 0.57899 0.0
N35 N 0.0763 0.46279 0.62594 0.0
C36 C 0.04699 0.47918 0.60932 0.0
C37 C 0.11717 0.48257 0.60541 0.0
C38 C 0.11181 0.51072 0.57655 0.0
O39 O 1.00171 0.48097 0.49362 0.0
C40 C 0.02799 0.58972 0.62172 0.0
O41 O 0.07192 0.59526 0.62213 0.0
H42 H 1.0105 0.46847 0.61703 0.0
H43 H 0.13771 0.52995 0.5538 0.0
N44 N 0.07599 0.5775 0.51043 0.0
N45 N 0.09714 0.62777 0.46021 0.0
C46 C 0.06364 0.59066 0.47213 0.0
C47 C 0.11894 0.60716 0.523 0.0
C48 C 0.13202 0.63828 0.49216 0.0
C49 C 0.02889 0.46572 0.46724 0.0
O50 O 0.07362 0.48748 0.4736 0.0
H51 H 0.02981 0.57465 0.45491 0.0
H52 H 0.13872 0.6073 0.55355 0.0
O53 O 1.00196 0.56055 0.58821 0.0
H54 H 0.14846 0.47646 0.61017 0.0
H55 H 0.16432 0.66689 0.4937 0.0
Cu56 Cu 0.52193 0.05466 0.53837 0.0
N57 N 0.494 0.08818 0.5811 0.0
N58 N 0.44604 0.10258 0.63749 0.0
C59 C 0.46069 0.07093 0.61223 0.0
C60 C 0.47115 0.1415 0.62214 0.0
C61 C 0.50055 0.13243 0.58696 0.0
O62 O 0.47632 1.01663 0.48851 0.0
C63 C 0.57564 1.00573 0.56081 0.0
O64 O 0.58473 1.00145 0.51458 0.0
H65 H 0.44746 0.03585 0.61657 0.0
H66 H 0.52421 0.15628 0.56647 0.0
N67 N 0.57222 0.0918 0.50747 0.0
N68 N 0.63068 0.10853 0.45607 0.0
C69 C 0.5899 0.07758 0.46597 0.0
C70 C 0.6028 0.1335 0.52427 0.0
C71 C 0.63879 0.14407 0.49233 0.0
C72 C 0.43681 0.98799 0.49608 0.0
O73 O 0.42726 0.97762 0.53936 0.0
H74 H 0.57448 0.04402 0.44489 0.0
H75 H 0.6008 0.15352 0.55884 0.0
O76 O 0.54603 0.02321 0.57658 0.0
H77 H 0.46739 0.17369 0.63434 0.0
H78 H 0.67009 0.17394 0.49727 0.0
H79 H 0.10468 0.16529 0.2004 0.0
H80 H 0.08235 0.22178 0.25386 0.0
H81 H 0.96702 0.19532 0.15941 0.0
H82 H 0.98923 0.13859 0.10514 0.0
H83 H 1.01284 0.28894 0.1999 0.0
H84 H 0.94955 0.14566 0.24926 0.0
H85 H 0.94949 0.07552 0.27184 0.0
H86 H 0.03694 0.15194 0.39463 0.0
H87 H 0.03881 0.22284 0.37222 0.0
H88 H 0.95438 0.42913 0.4031 0.0
H89 H 0.93866 0.36138 0.33971 0.0
H90 H 0.05306 0.3375 0.39398 0.0
H91 H 0.06851 0.40399 0.45618 0.0
H92 H 0.98169 0.2593 0.36752 0.0
H93 H 0.06627 0.39782 0.3025 0.0
H94 H 0.07372 0.47087 0.28093 0.0
H95 H 0.95209 0.40486 0.19043 0.0
H96 H 0.94365 0.33147 0.21202 0.0
C97 C 0.07507 0.17194 0.19027 0.0
C98 C 0.04846 0.14682 0.14862 0.0
C99 C 0.06222 0.20418 0.22109 0.0
C100 C 0.02248 0.21205 0.21111 0.0
C101 C 0.99763 0.18951 0.16793 0.0
C102 C 1.01044 0.15707 0.13697 0.0
C103 C 1.00583 0.24172 0.24759 0.0
C104 C 1.00503 0.28202 0.2363 0.0
C105 C 0.9956 0.23262 0.29513 0.0
C106 C 0.99426 0.18979 0.30895 0.0
C107 C 0.96898 0.14767 0.28096 0.0
C108 C 0.96861 0.1077 0.29373 0.0
C109 C 0.99299 0.10921 0.33469 0.0
C110 C 0.01795 0.15078 0.36295 0.0
C111 C 0.01868 0.19091 0.35021 0.0
C112 C 0.97528 0.40863 0.40188 0.0
C113 C 1.01287 0.42186 0.43412 0.0
C114 C 0.96652 0.3702 0.36563 0.0
C115 C 0.99501 0.34459 0.36182 0.0
C116 C 0.03057 0.35654 0.39608 0.0
C117 C 0.03954 0.39478 0.43153 0.0
C118 C 0.99158 0.3076 0.32057 0.0
C119 C 0.98827 0.2656 0.33079 0.0
C120 C 0.9988 0.31541 0.27239 0.0
C121 C 1.00398 0.35937 0.25934 0.0
C122 C 0.04094 0.39899 0.27829 0.0
C123 C 0.04537 0.44042 0.26603 0.0
C124 C 1.0133 0.44253 0.23446 0.0
C125 C 0.97682 0.40319 0.21498 0.0
C126 C 0.97219 0.36168 0.22722 0.0
H127 H 0.01679 0.47463 0.22499 0.0
H128 H 0.9926 0.07817 0.34448 0.0
H129 H 0.91454 0.97081 0.20759 0.0
H130 H 0.85535 0.99101 0.25625 0.0
H131 H 0.86258 0.08819 0.16627 0.0
H132 H 0.92021 0.06637 0.11595 0.0
H133 H 0.87069 0.11887 0.27486 0.0
H134 H 0.77397 1.00682 0.1494 0.0
H135 H 0.74574 0.93249 0.09606 0.0
H136 H 0.70604 0.86654 0.21953 0.0
H137 H 0.73471 0.9405 0.27367 0.0
H138 H 0.68443 0.16737 0.40055 0.0
H139 H 0.73891 0.15387 0.33923 0.0
H140 H 0.70605 0.02035 0.3729 0.0
H141 H 0.65028 0.03316 0.43182 0.0
H142 H 0.70952 1.01233 0.28357 0.0
H143 H 0.81029 0.11903 0.41016 0.0
H144 H 0.84638 0.19032 0.46704 0.0
H145 H 0.88593 0.26328 0.34871 0.0
H146 H 0.84962 0.19251 0.29114 0.0
C147 C 0.90308 0.99613 0.19799 0.0
C148 C 0.92163 1.01702 0.15812 0.0
C149 C 0.86933 1.00755 0.22565 0.0
C150 C 0.85467 0.041 0.2147 0.0
C151 C 0.87347 0.06224 0.17513 0.0
C152 C 0.90617 0.04974 0.14646 0.0
C153 C 0.82036 0.05413 0.24555 0.0
C154 C 0.83524 0.09605 0.27642 0.0
C155 C 0.7745 0.02371 0.24807 0.0
C156 C 0.75686 0.9792 0.21559 0.0
C157 C 0.75959 0.97646 0.1652 0.0
C158 C 0.74343 0.93439 0.13481 0.0
C159 C 0.7242 0.89481 0.15439 0.0
C160 C 0.72098 0.89723 0.20441 0.0
C161 C 0.73713 0.93922 0.23496 0.0
C162 C 0.68901 0.13522 0.3945 0.0
C163 C 0.66295 0.10114 0.42038 0.0
C164 C 0.72033 0.12757 0.35979 0.0
C165 C 0.72716 0.08617 0.35153 0.0
C166 C 0.70133 0.05243 0.37804 0.0
C167 C 0.66938 0.05969 0.41173 0.0
C168 C 0.76012 0.07698 0.31472 0.0
C169 C 0.74491 0.03563 0.28228 0.0
C170 C 0.80616 0.10768 0.31162 0.0
C171 C 0.82641 0.15052 0.34638 0.0
C172 C 0.82607 0.15035 0.3963 0.0
C173 C 0.84677 0.19066 0.42865 0.0
C174 C 0.86829 0.23133 0.41151 0.0
C175 C 0.86913 0.23178 0.36196 0.0
C176 C 0.84847 0.19159 0.32946 0.0
H177 H 0.88445 0.26247 0.43659 0.0
H178 H 0.71171 0.86227 0.13081 0.0
H179 H 0.08893 0.86386 0.1297 0.0
H180 H 0.10168 0.80901 0.17223 0.0
H181 H 1.00672 0.82993 0.28184 0.0
H182 H 0.99269 0.88298 0.23941 0.0
H183 H 0.13645 0.81914 0.26139 0.0
H184 H 0.94836 0.73475 0.32396 0.0
H185 H 0.8688 0.71422 0.29408 0.0
H186 H 0.91588 0.70796 0.14803 0.0
H187 H 0.99559 0.72782 0.17696 0.0
H188 H 0.1337 0.71861 0.46542 0.0
H189 H 0.12547 0.76182 0.4059 0.0
H190 H 0.04653 0.63755 0.3127 0.0
H191 H 0.05339 0.59441 0.37324 0.0
H192 H 1.00618 0.69248 0.31272 0.0
H193 H 0.16367 0.70708 0.2898 0.0
H194 H 0.24424 0.72407 0.31395 0.0
H195 H 0.26041 0.86171 0.3693 0.0
H196 H 0.18006 0.84579 0.34532 0.0
C197 C 0.07034 0.85626 0.1625 0.0
C198 C 0.03937 0.87748 0.18074 0.0
C199 C 0.07798 0.82526 0.18697 0.0
C200 C 0.05488 0.81503 0.23 0.0
C201 C 0.02431 0.8365 0.24828 0.0
C202 C 0.01644 0.86705 0.22388 0.0
C203 C 0.06299 0.78274 0.25683 0.0
C204 C 0.10805 0.79127 0.2723 0.0
C205 C 0.02605 0.74575 0.27048 0.0
C206 C 0.97803 0.7331 0.25271 0.0
C207 C 0.9417 0.72875 0.28546 0.0
C208 C 0.89658 0.71728 0.26869 0.0
C209 C 0.88731 0.7099 0.2192 0.0
C210 C 0.92313 0.71383 0.18636 0.0
C211 C 0.9683 0.72525 0.20294 0.0
C212 C 0.1151 0.70053 0.43198 0.0
C213 C 0.09431 0.6531 0.42392 0.0
C214 C 0.11052 0.72526 0.39778 0.0
C215 C 0.08601 0.70309 0.35416 0.0
C216 C 0.06562 0.6556 0.34593 0.0
C217 C 0.06952 0.63092 0.38052 0.0
C218 C 0.07971 0.72946 0.31833 0.0
C219 C 0.03483 0.71996 0.30134 0.0
C220 C 0.117 0.76497 0.30246 0.0
C221 C 0.16566 0.77506 0.31616 0.0
C222 C 0.18438 0.74096 0.30725 0.0
C223 C 0.23007 0.75048 0.32076 0.0
C224 C 0.25744 0.79401 0.34309 0.0
C225 C 0.23924 0.82816 0.35176 0.0
C226 C 0.19366 0.81893 0.3381 0.0
H227 H 0.29276 0.8013 0.35369 0.0
H228 H 0.85237 0.70107 0.2063 0.0
H229 H 0.21387 0.02072 0.1606 0.0
H230 H 0.25709 1.00134 0.21673 0.0
H231 H 0.13428 0.95125 0.29968 0.0
H232 H 0.09076 0.97245 0.2442 0.0
H233 H 0.20569 1.00178 0.35772 0.0
H234 H 0.17984 0.88201 0.22547 0.0
H235 H 0.1785 0.84386 0.14123 0.0
H236 H 0.32627 0.90371 0.13735 0.0
H237 H 0.32865 0.94289 0.2212 0.0
H238 H 0.34406 0.94183 0.50569 0.0
H239 H 0.28186 0.92961 0.44883 0.0
H240 H 0.38255 0.99025 0.34636 0.0
H241 H 0.44484 1.00215 0.4026 0.0
H242 H 0.31005 0.9191 0.30155 0.0
H243 H 0.33256 0.05237 0.42389 0.0
H244 H 0.33639 0.09183 0.508 0.0
H245 H 0.19596 1.00707 0.52844 0.0
H246 H 0.19157 0.96661 0.44461 0.0
C247 C 0.19576 1.00546 0.19062 0.0
C248 C 0.14864 0.99801 0.19766 0.0
C249 C 0.22058 0.99402 0.2226 0.0
C250 C 0.19888 0.97401 0.26205 0.0
C251 C 0.15178 0.96643 0.26935 0.0
C252 C 0.12689 0.97842 0.23751 0.0
C253 C 0.22645 0.96336 0.29656 0.0
C254 C 0.22765 0.98274 0.34551 0.0
C255 C 0.25572 0.93901 0.28067 0.0
C256 C 0.25437 0.91537 0.22997 0.0
C257 C 0.21207 0.88709 0.20676 0.0
C258 C 0.21111 0.86532 0.15901 0.0
C259 C 0.25223 0.87125 0.13406 0.0
C260 C 0.29443 0.89905 0.15677 0.0
C261 C 0.2956 0.92102 0.20446 0.0
C262 C 0.35305 0.95174 0.47067 0.0
C263 C 0.39951 0.97344 0.45894 0.0
C264 C 0.31738 0.94495 0.43831 0.0
C265 C 0.3275 0.95976 0.39366 0.0
C266 C 0.37387 0.9787 0.38065 0.0
C267 C 0.40949 0.98559 0.41296 0.0
C268 C 0.29033 0.95893 0.36184 0.0
C269 C 0.28733 0.93734 0.31358 0.0
C270 C 0.25955 0.98133 0.37816 0.0
C271 C 0.26191 1.00614 0.42822 0.0
C272 C 0.3026 0.04197 0.44644 0.0
C273 C 0.30487 0.06453 0.49403 0.0
C274 C 0.26649 0.05187 0.5236 0.0
C275 C 0.2257 1.01676 0.50554 0.0
C276 C 0.22329 0.99401 0.45799 0.0
H277 H 0.26833 0.06933 0.56046 0.0
H278 H 0.25138 0.85435 0.09709 0.0
H279 H 0.02789 0.90756 0.95126 0.0
H280 H 0.03044 0.8436 0.89168 0.0
H281 H 0.8824 0.79383 0.87347 0.0
H282 H 0.87938 0.85788 0.93309 0.0
H283 H 0.91653 0.72402 0.87094 0.0
H284 H 0.94166 0.85032 0.79454 0.0
H285 H 0.97559 0.92877 0.77967 0.0
H286 H 0.10913 0.91834 0.76281 0.0
H287 H 0.07612 0.83996 0.77836 0.0
H288 H 0.93869 0.58713 0.6395 0.0
H289 H 0.91501 0.63919 0.70062 0.0
H290 H 0.05705 0.71078 0.74731 0.0
H291 H 0.08068 0.65975 0.68768 0.0
H292 H 1.01333 0.76738 0.72946 0.0
H293 H 0.98552 0.64051 0.81299 0.0
H294 H 0.94789 0.56079 0.82291 0.0
H295 H 0.81478 0.57181 0.8216 0.0
H296 H 0.85164 0.65149 0.81099 0.0
C297 C 0.99569 0.88254 0.93551 0.0
C298 C 0.95344 0.88811 0.9468 0.0
C299 C 0.99726 0.84612 0.90117 0.0
C300 C 0.95667 0.81437 0.8776 0.0
C301 C 0.91412 0.81805 0.89108 0.0
C302 C 0.91252 0.85473 0.92515 0.0
C303 C 0.95938 0.77942 0.83667 0.0
C304 C 0.93714 0.73343 0.83965 0.0
C305 C 0.98599 0.79168 0.7957 0.0
C306 C 1.00643 0.83933 0.78796 0.0
C307 C 0.97836 0.8649 0.78823 0.0
C308 C 0.99739 0.9093 0.7795 0.0
C309 C 0.04441 0.92841 0.77006 0.0
C310 C 0.07265 0.90338 0.76991 0.0
C311 C 0.0538 0.85896 0.77869 0.0
C312 C 0.96469 0.61389 0.66299 0.0
C313 C 1.01155 0.61924 0.65856 0.0
C314 C 0.95115 0.64349 0.69789 0.0
C315 C 0.98437 0.6789 0.72843 0.0
C316 C 0.03088 0.68388 0.72405 0.0
C317 C 0.04427 0.65441 0.68984 0.0
C318 C 0.97203 0.71205 0.76452 0.0
C319 C 0.99235 0.7579 0.76052 0.0
C320 C 0.94334 0.69954 0.80413 0.0
C321 C 0.92128 0.65174 0.81056 0.0
C322 C 0.9482 0.6258 0.81434 0.0
C323 C 0.92702 0.58066 0.8202 0.0
C324 C 0.87896 0.5612 0.82271 0.0
C325 C 0.85199 0.58689 0.81953 0.0
C326 C 0.87301 0.63204 0.81362 0.0
H327 H 0.86263 0.52625 0.82726 0.0
H328 H 0.05892 0.96264 0.76284 0.0
H329 H 0.15157 0.06933 0.98403 0.0
H330 H 0.22004 0.07859 0.93405 0.0
H331 H 0.13296 1.00684 0.80879 0.0
H332 H 0.06419 0.99758 0.85828 0.0
H333 H 0.21424 0.98304 0.81883 0.0
H334 H 0.17018 0.11455 0.82274 0.0
H335 H 0.15043 0.17657 0.8709 0.0
H336 H 0.28363 0.23061 0.94148 0.0
H337 H 0.30391 0.16855 0.89414 0.0
H338 H 0.36131 0.03806 0.62401 0.0
H339 H 0.29782 0.02466 0.68105 0.0
H340 H 0.38479 0.13569 0.78529 0.0
H341 H 0.44716 0.1508 0.7264 0.0
H342 H 0.30631 0.13911 0.79264 0.0
H343 H 0.35647 1.01666 0.78988 0.0
H344 H 0.37817 0.95156 0.75541 0.0
H345 H 0.24101 0.87872 0.69641 0.0
H346 H 0.21863 0.94364 0.72995 0.0
C347 C 0.14693 0.05502 0.94595 0.0
C348 C 0.1024 0.03297 0.92502 0.0
C349 C 0.18608 0.06035 0.9175 0.0
C350 C 0.18138 0.04344 0.86775 0.0
C351 C 0.13712 0.01984 0.84716 0.0
C352 C 0.09796 1.01485 0.87544 0.0
C353 C 0.22228 0.05303 0.83638 0.0
C354 C 0.23429 1.01701 0.81261 0.0
C355 C 0.24919 0.09757 0.82985 0.0
C356 C 0.2384 0.13677 0.85524 0.0
C357 C 0.19525 0.13971 0.8485 0.0
C358 C 0.18391 0.17476 0.87574 0.0
C359 C 0.21561 0.20722 0.90956 0.0
C360 C 0.25904 0.20526 0.91547 0.0
C361 C 0.27051 0.17023 0.88837 0.0
C362 C 0.3666 0.05947 0.65917 0.0
C363 C 0.40894 0.0952 0.6712 0.0
C364 C 0.33052 0.05165 0.69197 0.0
C365 C 0.33664 0.07829 0.7383 0.0
C366 C 0.37902 0.11445 0.75001 0.0
C367 C 0.41468 0.12309 0.71654 0.0
C368 C 0.29861 0.06886 0.77398 0.0
C369 C 0.28685 0.10497 0.79869 0.0
C370 C 0.27271 0.02437 0.7824 0.0
C371 C 0.28602 0.98523 0.76205 0.0
C372 C 0.33103 0.9869 0.76924 0.0
C373 C 0.34344 0.95 0.74991 0.0
C374 C 0.31103 0.91108 0.72363 0.0
C375 C 0.2661 0.90892 0.71672 0.0
C376 C 0.25352 0.94575 0.73591 0.0
H377 H 0.3207 0.88254 0.70871 0.0
H378 H 0.20658 0.234 0.9311 0.0
H379 H 0.0338 0.12562 0.82152 0.0
H380 H 0.04486 0.18772 0.77871 0.0
H381 H 0.96855 0.24237 0.88732 0.0
H382 H 0.95712 0.17966 0.93098 0.0
H383 H 0.94502 0.2433 0.79184 0.0
H384 H 0.08309 0.29114 0.88929 0.0
H385 H 0.15413 0.28908 0.92208 0.0
H386 H 0.20704 0.27412 0.77898 0.0
H387 H 0.13614 0.27544 0.74524 0.0
H388 H 0.01499 0.44997 0.69857 0.0
H389 H 0.99644 0.39186 0.74958 0.0
H390 H 0.0924 0.3386 0.67044 0.0
H391 H 0.11195 0.39749 0.62074 0.0
H392 H 0.10451 0.34159 0.75912 0.0
H393 H 0.96908 0.28556 0.65815 0.0
H394 H 0.90039 0.28705 0.61966 0.0
H395 H 0.84265 0.31033 0.75895 0.0
H396 H 0.91131 0.30955 0.79832 0.0
C397 C 0.01907 0.1506 0.83648 0.0
C398 C 0.99477 0.1477 0.88004 0.0
C399 C 0.02572 0.18633 0.81195 0.0
C400 C 1.0083 0.22018 0.8302 0.0
C401 C 0.98264 0.21678 0.8728 0.0
C402 C 0.97611 0.18094 0.89768 0.0
C403 C 0.01731 0.25886 0.80436 0.0
C404 C 0.97987 0.26515 0.78518 0.0
C405 C 0.0628 0.2868 0.79461 0.0
C406 C 0.10417 0.28321 0.81473 0.0
C407 C 0.10959 0.28679 0.86476 0.0
C408 C 0.14992 0.28594 0.88352 0.0
C409 C 0.18515 0.28175 0.85262 0.0
C410 C 0.17981 0.27757 0.80286 0.0
C411 C 0.13957 0.27837 0.78391 0.0
C412 C 0.03191 0.42569 0.69205 0.0
C413 C 0.06508 0.42841 0.65582 0.0
C414 C 0.02112 0.39229 0.72104 0.0
C415 C 0.04254 0.36026 0.71367 0.0
C416 C 0.07546 0.36289 0.67717 0.0
C417 C 0.08676 0.39668 0.64879 0.0
C418 C 0.03227 0.32502 0.74488 0.0
C419 C 0.06956 0.31962 0.76549 0.0
C420 C 0.98668 0.29708 0.75469 0.0
C421 C 0.94562 0.29811 0.73119 0.0
C422 C 0.94195 0.29145 0.68059 0.0
C423 C 0.90297 0.29206 0.65861 0.0
C424 C 0.86726 0.29894 0.68685 0.0
C425 C 0.8704 0.30512 0.73713 0.0
C426 C 0.90932 0.30457 0.75929 0.0
H427 H 0.83709 0.29937 0.66976 0.0
H428 H 0.21673 0.28201 0.86718 0.0
H429 H 0.9096 1.01038 0.82551 0.0
H430 H 0.85766 1.00469 0.75985 0.0
H431 H 0.75898 0.02696 0.86433 0.0
H432 H 0.80994 0.032 0.92959 0.0
H433 H 0.71719 0.95683 0.79634 0.0
H434 H 0.82606 0.10783 0.80267 0.0
H435 H 0.90371 0.16602 0.8018 0.0
H436 H 0.92161 0.10722 0.6565 0.0
H437 H 0.84436 0.04751 0.65711 0.0
H438 H 0.56839 1.01341 0.6591 0.0
H439 H 0.62401 1.01199 0.71638 0.0
H440 H 0.70753 0.98201 0.59845 0.0
H441 H 0.6522 0.98364 0.5408 0.0
H442 H 0.75922 0.05117 0.66797 0.0
H443 H 0.64683 0.90107 0.66266 0.0
H444 H 0.56883 0.84362 0.66668 0.0
H445 H 0.55684 0.90465 0.81273 0.0
H446 H 0.63455 0.96285 0.80938 0.0
C447 C 0.87702 1.01449 0.83442 0.0
C448 C 0.86379 0.02128 0.8828 0.0
C449 C 0.84737 1.01122 0.79688 0.0
C450 C 0.80426 1.01519 0.80716 0.0
C451 C 0.79178 0.02331 0.85546 0.0
C452 C 0.82115 0.02638 0.89279 0.0
C453 C 0.77131 1.00994 0.76804 0.0
C454 C 0.72632 0.97775 0.76852 0.0
C455 C 0.78347 0.03649 0.73105 0.0
C456 C 0.8296 0.07282 0.73016 0.0
C457 C 0.84668 0.107 0.77066 0.0
C458 C 0.89067 0.14033 0.7702 0.0
C459 C 0.91768 0.14042 0.7291 0.0
C460 C 0.90069 0.10709 0.68836 0.0
C461 C 0.85682 0.07341 0.68878 0.0
C462 C 0.59818 1.0058 0.64523 0.0
C463 C 0.60572 0.99857 0.59529 0.0
C464 C 0.63 1.00501 0.67807 0.0
C465 C 0.66995 0.99682 0.66172 0.0
C466 C 0.67703 0.98851 0.61189 0.0
C467 C 0.64513 0.98912 0.57898 0.0
C468 C 0.70496 0.99851 0.6968 0.0
C469 C 0.75029 0.02998 0.69554 0.0
C470 C 0.69306 0.97163 0.73343 0.0
C471 C 0.64639 0.93653 0.73562 0.0
C472 C 0.62743 0.90244 0.69551 0.0
C473 C 0.58329 0.8697 0.6977 0.0
C474 C 0.55785 0.87054 0.7399 0.0
C475 C 0.57656 0.90406 0.78005 0.0
C476 C 0.62068 0.93689 0.77805 0.0
H477 H 0.52368 0.84517 0.74151 0.0
H478 H 0.95172 0.16631 0.72876 0.0
loop_
_geom_bond_atom_site_label_1
_geom_bond_atom_site_label_2
_geom_bond_distance
_geom_bond_site_symmetry_2
_ccdc_geom_bond_type
Co0 O3 2.042 . S
Co0 O10 2.264 1_565 S
Co0 O29 2.286 1_455 S
Co0 O30 2.069 . S
Co0 O32 2.015 1_455 S
Co1 O3 2.122 1_545 S
Co1 O9 2.073 . S
Co1 O10 2.327 . S
Co1 O11 1.976 . S
Co2 O3 2.087 1_545 S
Co2 O5 2.087 1_454 S
Co2 O12 2.111 . S
Co2 O13 2.143 1_554 S
Co2 O17 2.111 1_444 S
Co2 O31 2.143 1_445 S
O3 Co0 2.042 . S
O3 Co1 2.122 1_565 S
O3 Co2 2.087 1_565 S
O3 H4 0.980 . S
H4 O3 0.980 . S
O5 Co2 2.087 1_656 S
O5 Co6 2.037 1_655 S
O5 Co7 2.122 1_545 S
O5 H8 0.980 . S
Co6 O5 2.037 1_455 S
Co6 O14 2.287 . S
Co6 O15 2.055 1_455 S
Co6 O16 2.034 . S
Co6 O19 2.251 1_455 S
Co7 O5 2.122 1_565 S
Co7 O18 1.976 . S
Co7 O19 2.327 1_565 S
Co7 O20 2.073 . S
H8 O5 0.980 . S
O9 Co1 2.073 . S
O9 C24 1.245 . S
O10 Co0 2.264 1_545 S
O10 Co1 2.327 . S
O10 C24 1.257 . S
O11 Co1 1.976 . S
O11 C23 1.251 . S
O12 Co2 2.111 . S
O12 C23 1.274 . S
O13 Co2 2.143 1_556 S
O13 C26 1.246 . S
O14 Co6 2.287 . S
O14 C25 1.259 1_455 S
O15 Co6 2.055 1_655 S
O15 C25 1.289 . S
O16 Co6 2.034 . S
O16 C26 1.257 . S
O17 Co2 2.111 1_666 S
O17 C27 1.274 . S
O18 Co7 1.976 . S
O18 C27 1.251 . S
O19 Co6 2.251 1_655 S
O19 Co7 2.327 1_545 S
O19 C28 1.257 . S
O20 Co7 2.073 . S
O20 C28 1.245 1_565 S
C21 O29 1.259 1_455 S
C21 O30 1.289 . S
C22 O31 1.246 . S
C22 O32 1.257 . S
C23 O11 1.251 . S
C23 O12 1.274 . S
C24 O9 1.245 . S
C24 O10 1.257 . S
C25 O14 1.259 1_655 S
C25 O15 1.289 . S
C26 O13 1.246 . S
C26 O16 1.257 . S
C27 O17 1.274 . S
C27 O18 1.251 . S
C28 O19 1.257 . S
C28 O20 1.245 1_545 S
O29 Co0 2.286 1_655 S
O29 C21 1.259 1_655 S
O30 Co0 2.069 . S
O30 C21 1.289 . S
O31 Co2 2.143 1_665 S
O31 C22 1.246 . S
O32 Co0 2.015 1_655 S
O32 C22 1.257 . S
Cu33 N34 1.999 . S
Cu33 O39 1.974 . S
Cu33 N44 1.985 . S
Cu33 O53 1.959 . S
N34 Cu33 1.999 . S
N34 C36 1.263 . S
N34 C38 1.389 . S
N35 C36 1.358 . S
N35 C37 1.400 . S
C36 N34 1.263 . S
C36 N35 1.358 . S
C36 H42 0.930 1_655 S
C37 N35 1.400 . S
C37 C38 1.351 . S
C37 H54 0.930 . S
C38 N34 1.389 . S
C38 C37 1.351 . S
C38 H43 0.930 . S
O39 Cu33 1.974 . S
O39 C49 1.282 1_655 S
C40 O41 1.261 . S
C40 O53 1.251 1_455 S
O41 C40 1.261 . S
H42 C36 0.930 1_455 S
H43 C38 0.930 . S
N44 Cu33 1.985 . S
N44 C46 1.335 . S
N44 C47 1.390 1_655 S
N45 C46 1.345 . S
N45 C48 1.336 1_655 S
C46 N44 1.335 . S
C46 N45 1.345 . S
C46 H51 0.930 . S
C47 N44 1.390 1_455 S
C47 C48 1.346 . S
C47 H52 0.930 . S
C48 N45 1.336 1_455 S
C48 C47 1.346 . S
C48 H55 0.929 . S
C49 O39 1.282 1_455 S
C49 O50 1.216 . S
O50 C49 1.216 . S
H51 C46 0.930 . S
H52 C47 0.930 . S
O53 Cu33 1.959 . S
O53 C40 1.251 1_655 S
H54 C37 0.930 . S
H55 C48 0.929 . S
Cu56 N57 1.999 . S
Cu56 O62 1.974 . S
Cu56 N67 1.985 . S
Cu56 O76 1.959 . S
N57 Cu56 1.999 . S
N57 C59 1.263 . S
N57 C61 1.389 . S
N58 C59 1.358 . S
N58 C60 1.400 . S
C59 N57 1.263 . S
C59 N58 1.358 . S
C59 H65 0.930 1_545 S
C60 N58 1.400 . S
C60 C61 1.351 . S
C60 H77 0.930 . S
C61 N57 1.389 . S
C61 C60 1.351 . S
C61 H66 0.930 . S
O62 Cu56 1.974 . S
O62 C72 1.282 1_545 S
C63 O64 1.261 . S
C63 O76 1.251 1_565 S
O64 C63 1.261 . S
H65 C59 0.930 1_565 S
H66 C61 0.930 . S
N67 Cu56 1.985 . S
N67 C69 1.335 . S
N67 C70 1.391 . S
N68 C69 1.345 . S
N68 C71 1.337 1_545 S
C69 N67 1.335 . S
C69 N68 1.345 . S
C69 H74 0.930 . S
C70 N67 1.391 . S
C70 C71 1.339 1_545 S
C70 H75 0.934 1_545 S
C71 N68 1.337 1_565 S
C71 C70 1.339 1_565 S
C71 H78 0.931 . S
C72 O62 1.282 1_565 S
C72 O73 1.216 . S
O73 C72 1.216 . S
H74 C69 0.930 . S
H75 C70 0.934 1_565 S
O76 Cu56 1.959 . S
O76 C63 1.251 1_545 S
H77 C60 0.930 . S
H78 C71 0.931 . S
H79 C97 0.951 . S
H80 C99 0.951 . S
H81 C101 0.950 . S
H82 C102 0.950 . S
H83 C104 0.951 1_655 S
H84 C107 0.950 . S
H85 C108 0.950 . S
H86 C110 0.950 . S
H87 C111 0.950 . S
H88 C112 0.951 . S
H89 C114 0.951 . S
H90 C116 0.950 . S
H91 C117 0.950 . S
H92 C119 0.950 . S
H93 C122 0.950 . S
H94 C123 0.950 . S
H95 C125 0.950 . S
H96 C126 0.950 . S
C97 H79 0.951 . S
C97 C98 1.366 . S
C97 C99 1.388 . S
C98 C97 1.366 . S
C98 C102 1.385 1_455 S
C99 H80 0.951 . S
C99 C97 1.388 . S
C99 C100 1.366 . S
C100 C99 1.366 . S
C100 C101 1.414 1_455 S
C100 C103 1.499 . S
C101 H81 0.950 . S
C101 C100 1.414 1_655 S
C101 C102 1.374 . S
C102 H82 0.950 . S
C102 C98 1.385 1_655 S
C102 C101 1.374 . S
C103 C100 1.499 . S
C103 C104 1.373 . S
C103 C105 1.389 . S
C104 H83 0.951 1_455 S
C104 C103 1.373 . S
C104 C120 1.377 . S
C105 C103 1.389 . S
C105 C106 1.524 . S
C105 C119 1.377 . S
C106 C105 1.524 . S
C106 C107 1.397 1_455 S
C106 C111 1.363 . S
C107 H84 0.950 . S
C107 C106 1.397 1_655 S
C107 C108 1.334 . S
C108 H85 0.950 . S
C108 C107 1.334 . S
C108 C109 1.287 1_655 S
C109 C108 1.287 1_455 S
C109 C110 1.524 . S
C109 H128 0.913 . S
C110 H86 0.950 . S
C110 C109 1.524 . S
C110 C111 1.415 . S
C111 H87 0.950 . S
C111 C106 1.363 . S
C111 C110 1.415 . S
C112 H88 0.951 . S
C112 C113 1.366 1_655 S
C112 C114 1.388 . S
C113 C112 1.366 1_455 S
C113 C117 1.385 . S
C114 H89 0.951 . S
C114 C112 1.388 . S
C114 C115 1.366 1_655 S
C115 C114 1.366 1_455 S
C115 C116 1.414 . S
C115 C118 1.499 . S
C116 H90 0.950 . S
C116 C115 1.414 . S
C116 C117 1.374 . S
C117 H91 0.950 . S
C117 C113 1.385 . S
C117 C116 1.374 . S
C118 C115 1.499 . S
C118 C119 1.373 . S
C118 C120 1.389 . S
C119 H92 0.950 . S
C119 C105 1.377 . S
C119 C118 1.373 . S
C120 C104 1.377 . S
C120 C118 1.389 . S
C120 C121 1.524 1_455 S
C121 C120 1.524 1_655 S
C121 C122 1.397 1_655 S
C121 C126 1.363 . S
C122 H93 0.950 . S
C122 C121 1.397 1_455 S
C122 C123 1.334 . S
C123 H94 0.950 . S
C123 C122 1.334 . S
C123 C124 1.287 1_455 S
C124 C123 1.287 1_655 S
C124 C125 1.524 . S
C124 H127 0.999 . S
C125 H95 0.950 . S
C125 C124 1.524 . S
C125 C126 1.415 . S
C126 H96 0.950 . S
C126 C121 1.363 . S
C126 C125 1.415 . S
H127 C124 0.999 . S
H128 C109 0.913 . S
H129 C147 0.951 . S
H130 C149 0.951 . S
H131 C151 0.950 . S
H132 C152 0.950 . S
H133 C154 0.950 . S
H134 C157 0.950 . S
H135 C158 0.950 . S
H136 C160 0.950 . S
H137 C161 0.950 . S
H138 C162 0.951 . S
H139 C164 0.951 . S
H140 C166 0.950 . S
H141 C167 0.950 . S
H142 C169 0.950 . S
H143 C172 0.950 . S
H144 C173 0.950 . S
H145 C175 0.950 . S
H146 C176 0.950 . S
C147 H129 0.951 . S
C147 C148 1.366 1_565 S
C147 C149 1.388 . S
C148 C147 1.366 1_545 S
C148 C152 1.385 . S
C149 H130 0.951 . S
C149 C147 1.388 . S
C149 C150 1.366 1_565 S
C150 C149 1.366 1_545 S
C150 C151 1.414 . S
C150 C153 1.499 . S
C151 H131 0.950 . S
C151 C150 1.414 . S
C151 C152 1.374 . S
C152 H132 0.950 . S
C152 C148 1.385 . S
C152 C151 1.374 . S
C153 C150 1.499 . S
C153 C154 1.373 . S
C153 C155 1.389 1_545 S
C154 H133 0.950 . S
C154 C153 1.373 . S
C154 C170 1.377 . S
C155 C153 1.389 1_565 S
C155 C156 1.524 . S
C155 C169 1.377 . S
C156 C155 1.524 . S
C156 C157 1.397 . S
C156 C161 1.363 . S
C157 H134 0.950 . S
C157 C156 1.397 . S
C157 C158 1.334 . S
C158 H135 0.950 . S
C158 C157 1.334 . S
C158 C159 1.287 . S
C159 C158 1.287 . S
C159 C160 1.524 . S
C159 H178 0.913 . S
C160 H136 0.950 . S
C160 C159 1.524 . S
C160 C161 1.415 . S
C161 H137 0.950 . S
C161 C156 1.363 . S
C161 C160 1.415 . S
C162 H138 0.951 . S
C162 C163 1.366 . S
C162 C164 1.388 . S
C163 C162 1.366 . S
C163 C167 1.385 1_545 S
C164 H139 0.951 . S
C164 C162 1.388 . S
C164 C165 1.366 . S
C165 C164 1.366 . S
C165 C166 1.414 1_545 S
C165 C168 1.499 . S
C166 H140 0.950 . S
C166 C165 1.414 1_565 S
C166 C167 1.374 . S
C167 H141 0.950 . S
C167 C163 1.385 1_565 S
C167 C166 1.374 . S
C168 C165 1.499 . S
C168 C169 1.373 1_545 S
C168 C170 1.389 . S
C169 H142 0.950 . S
C169 C155 1.377 . S
C169 C168 1.373 1_565 S
C170 C154 1.377 . S
C170 C168 1.389 . S
C170 C171 1.524 . S
C171 C170 1.524 . S
C171 C172 1.397 . S
C171 C176 1.363 . S
C172 H143 0.950 . S
C172 C171 1.397 . S
C172 C173 1.334 . S
C173 H144 0.950 . S
C173 C172 1.334 . S
C173 C174 1.287 . S
C174 C173 1.287 . S
C174 C175 1.524 . S
C174 H177 0.999 . S
C175 H145 0.950 . S
C175 C174 1.524 . S
C175 C176 1.415 . S
C176 H146 0.950 . S
C176 C171 1.363 . S
C176 C175 1.415 . S
H177 C174 0.999 . S
H178 C159 0.913 . S
H179 C197 0.951 1_655 S
H180 C199 0.951 . S
H181 C201 0.950 . S
H182 C202 0.950 . S
H183 C204 0.950 . S
H184 C207 0.950 . S
H185 C208 0.950 . S
H186 C210 0.950 . S
H187 C211 0.950 . S
H188 C212 0.951 . S
H189 C214 0.951 . S
H190 C216 0.950 . S
H191 C217 0.950 . S
H192 C219 0.950 . S
H193 C222 0.950 . S
H194 C223 0.950 . S
H195 C225 0.950 . S
H196 C226 0.950 . S
C197 H179 0.951 1_455 S
C197 C198 1.366 . S
C197 C199 1.388 1_455 S
C198 C197 1.366 . S
C198 C202 1.385 . S
C199 H180 0.951 . S
C199 C197 1.388 1_655 S
C199 C200 1.366 1_655 S
C200 C199 1.366 1_455 S
C200 C201 1.414 . S
C200 C203 1.499 . S
C201 H181 0.950 . S
C201 C200 1.414 . S
C201 C202 1.374 . S
C202 H182 0.950 . S
C202 C198 1.385 . S
C202 C201 1.374 . S
C203 C200 1.499 . S
C203 C204 1.373 . S
C203 C205 1.389 1_455 S
C204 H183 0.950 . S
C204 C203 1.373 . S
C204 C220 1.377 . S
C205 C203 1.389 1_655 S
C205 C206 1.524 . S
C205 C219 1.377 . S
C206 C205 1.524 . S
C206 C207 1.397 . S
C206 C211 1.363 . S
C207 H184 0.950 . S
C207 C206 1.397 . S
C207 C208 1.334 . S
C208 H185 0.950 . S
C208 C207 1.334 . S
C208 C209 1.287 . S
C209 C208 1.287 . S
C209 C210 1.524 . S
C209 H228 0.913 . S
C210 H186 0.950 . S
C210 C209 1.524 . S
C210 C211 1.415 . S
C211 H187 0.950 . S
C211 C206 1.363 . S
C211 C210 1.415 . S
C212 H188 0.951 . S
C212 C213 1.366 1_455 S
C212 C214 1.388 . S
C213 C212 1.366 1_655 S
C213 C217 1.385 . S
C214 H189 0.951 . S
C214 C212 1.388 . S
C214 C215 1.366 . S
C215 C214 1.366 . S
C215 C216 1.414 1_455 S
C215 C218 1.499 . S
C216 H190 0.950 . S
C216 C215 1.414 1_655 S
C216 C217 1.374 . S
C217 H191 0.950 . S
C217 C213 1.385 . S
C217 C216 1.374 . S
C218 C215 1.499 . S
C218 C219 1.373 1_455 S
C218 C220 1.389 . S
C219 H192 0.950 . S
C219 C205 1.377 . S
C219 C218 1.373 1_655 S
C220 C204 1.377 . S
C220 C218 1.389 . S
C220 C221 1.524 . S
C221 C220 1.524 . S
C221 C222 1.397 . S
C221 C226 1.363 . S
C222 H193 0.950 . S
C222 C221 1.397 . S
C222 C223 1.334 . S
C223 H194 0.950 . S
C223 C222 1.334 . S
C223 C224 1.287 . S
C224 C223 1.287 . S
C224 C225 1.524 . S
C224 H227 0.999 . S
C225 H195 0.950 . S
C225 C224 1.524 . S
C225 C226 1.415 . S
C226 H196 0.950 . S
C226 C221 1.363 . S
C226 C225 1.415 . S
H227 C224 0.999 . S
H228 C209 0.913 . S
H229 C247 0.951 . S
H230 C249 0.951 . S
H231 C251 0.950 . S
H232 C252 0.950 . S
H233 C254 0.950 . S
H234 C257 0.950 . S
H235 C258 0.950 . S
H236 C260 0.950 . S
H237 C261 0.950 . S
H238 C262 0.951 . S
H239 C264 0.951 . S
H240 C266 0.950 . S
H241 C267 0.950 . S
H242 C269 0.950 . S
H243 C272 0.950 . S
H244 C273 0.950 . S
H245 C275 0.950 . S
H246 C276 0.950 1_565 S
C247 H229 0.951 . S
C247 C248 1.366 1_545 S
C247 C249 1.388 . S
C248 C247 1.366 1_565 S
C248 C252 1.385 . S
C249 H230 0.951 . S
C249 C247 1.388 . S
C249 C250 1.366 1_545 S
C250 C249 1.366 1_565 S
C250 C251 1.414 . S
C250 C253 1.499 . S
C251 H231 0.950 . S
C251 C250 1.414 . S
C251 C252 1.374 . S
C252 H232 0.950 . S
C252 C248 1.385 . S
C252 C251 1.374 . S
C253 C250 1.499 . S
C253 C254 1.373 1_565 S
C253 C255 1.389 . S
C254 H233 0.950 . S
C254 C253 1.373 1_545 S
C254 C270 1.377 . S
C255 C253 1.389 . S
C255 C256 1.524 . S
C255 C269 1.377 . S
C256 C255 1.524 . S
C256 C257 1.397 . S
C256 C261 1.363 . S
C257 H234 0.950 . S
C257 C256 1.397 . S
C257 C258 1.334 . S
C258 H235 0.950 . S
C258 C257 1.334 . S
C258 C259 1.287 . S
C259 C258 1.287 . S
C259 C260 1.524 . S
C259 H278 0.913 . S
C260 H236 0.950 . S
C260 C259 1.524 . S
C260 C261 1.415 . S
C261 H237 0.950 . S
C261 C256 1.363 . S
C261 C260 1.415 . S
C262 H238 0.951 . S
C262 C263 1.366 . S
C262 C264 1.388 . S
C263 C262 1.366 . S
C263 C267 1.385 1_565 S
C264 H239 0.951 . S
C264 C262 1.388 . S
C264 C265 1.366 . S
C265 C264 1.366 . S
C265 C266 1.414 1_565 S
C265 C268 1.499 . S
C266 H240 0.950 . S
C266 C265 1.414 1_545 S
C266 C267 1.374 . S
C267 H241 0.950 . S
C267 C263 1.385 1_545 S
C267 C266 1.374 . S
C268 C265 1.499 . S
C268 C269 1.373 . S
C268 C270 1.389 1_565 S
C269 H242 0.950 . S
C269 C255 1.377 . S
C269 C268 1.373 . S
C270 C254 1.377 . S
C270 C268 1.389 1_545 S
C270 C271 1.524 . S
C271 C270 1.524 . S
C271 C272 1.397 . S
C271 C276 1.363 . S
C272 H243 0.950 . S
C272 C271 1.397 . S
C272 C273 1.334 . S
C273 H244 0.950 . S
C273 C272 1.334 . S
C273 C274 1.287 . S
C274 C273 1.287 . S
C274 C275 1.524 . S
C274 H277 0.999 . S
C275 H245 0.950 . S
C275 C274 1.524 . S
C275 C276 1.415 . S
C276 H246 0.950 1_545 S
C276 C271 1.363 . S
C276 C275 1.415 . S
H277 C274 0.999 . S
H278 C259 0.913 . S
H279 C297 0.951 . S
H280 C299 0.951 . S
H281 C301 0.950 . S
H282 C302 0.950 . S
H283 C304 0.950 . S
H284 C307 0.950 . S
H285 C308 0.950 1_655 S
H286 C310 0.950 . S
H287 C311 0.950 . S
H288 C312 0.951 . S
H289 C314 0.951 . S
H290 C316 0.950 . S
H291 C317 0.950 . S
H292 C319 0.950 . S
H293 C322 0.950 . S
H294 C323 0.950 . S
H295 C325 0.950 . S
H296 C326 0.950 . S
C297 H279 0.951 . S
C297 C298 1.366 . S
C297 C299 1.388 . S
C298 C297 1.366 . S
C298 C302 1.385 1_455 S
C299 H280 0.951 . S
C299 C297 1.388 . S
C299 C300 1.366 . S
C300 C299 1.366 . S
C300 C301 1.414 1_455 S
C300 C303 1.499 . S
C301 H281 0.950 . S
C301 C300 1.414 1_655 S
C301 C302 1.374 . S
C302 H282 0.950 . S
C302 C298 1.385 1_655 S
C302 C301 1.374 . S
C303 C300 1.499 . S
C303 C304 1.373 1_455 S
C303 C305 1.389 . S
C304 H283 0.950 . S
C304 C303 1.373 1_655 S
C304 C320 1.377 . S
C305 C303 1.389 . S
C305 C306 1.524 . S
C305 C319 1.377 . S
C306 C305 1.524 . S
C306 C307 1.397 1_455 S
C306 C311 1.363 . S
C307 H284 0.950 . S
C307 C306 1.397 1_655 S
C307 C308 1.334 1_655 S
C308 H285 0.950 1_455 S
C308 C307 1.334 1_455 S
C308 C309 1.287 . S
C309 C308 1.287 . S
C309 C310 1.524 . S
C309 H328 0.913 . S
C310 H286 0.950 . S
C310 C309 1.524 . S
C310 C311 1.415 . S
C311 H287 0.950 . S
C311 C306 1.363 . S
C311 C310 1.415 . S
C312 H288 0.951 . S
C312 C313 1.366 1_655 S
C312 C314 1.388 . S
C313 C312 1.366 1_455 S
C313 C317 1.385 . S
C314 H289 0.951 . S
C314 C312 1.388 . S
C314 C315 1.366 1_655 S
C315 C314 1.366 1_455 S
C315 C316 1.414 . S
C315 C318 1.499 . S
C316 H290 0.950 . S
C316 C315 1.414 . S
C316 C317 1.374 . S
C317 H291 0.950 . S
C317 C313 1.385 . S
C317 C316 1.374 . S
C318 C315 1.499 . S
C318 C319 1.373 . S
C318 C320 1.389 1_455 S
C319 H292 0.950 . S
C319 C305 1.377 . S
C319 C318 1.373 . S
C320 C304 1.377 . S
C320 C318 1.389 1_655 S
C320 C321 1.524 . S
C321 C320 1.524 . S
C321 C322 1.397 1_655 S
C321 C326 1.363 . S
C322 H293 0.950 . S
C322 C321 1.397 1_455 S
C322 C323 1.334 . S
C323 H294 0.950 . S
C323 C322 1.334 . S
C323 C324 1.287 1_455 S
C324 C323 1.287 1_655 S
C324 C325 1.524 . S
C324 H327 0.999 . S
C325 H295 0.950 . S
C325 C324 1.524 . S
C325 C326 1.415 . S
C326 H296 0.950 . S
C326 C321 1.363 . S
C326 C325 1.415 . S
H327 C324 0.999 . S
H328 C309 0.913 . S
H329 C347 0.951 . S
H330 C349 0.951 . S
H331 C351 0.950 . S
H332 C352 0.950 . S
H333 C354 0.950 . S
H334 C357 0.950 . S
H335 C358 0.950 . S
H336 C360 0.950 . S
H337 C361 0.950 . S
H338 C362 0.951 . S
H339 C364 0.951 . S
H340 C366 0.950 . S
H341 C367 0.950 . S
H342 C369 0.950 . S
H343 C372 0.950 . S
H344 C373 0.950 . S
H345 C375 0.950 . S
H346 C376 0.950 . S
C347 H329 0.951 . S
C347 C348 1.366 . S
C347 C349 1.388 . S
C348 C347 1.366 . S
C348 C352 1.385 1_545 S
C349 H330 0.951 . S
C349 C347 1.388 . S
C349 C350 1.366 . S
C350 C349 1.366 . S
C350 C351 1.414 1_545 S
C350 C353 1.499 . S
C351 H331 0.950 . S
C351 C350 1.414 1_565 S
C351 C352 1.374 . S
C352 H332 0.950 . S
C352 C348 1.385 1_565 S
C352 C351 1.374 . S
C353 C350 1.499 . S
C353 C354 1.373 1_545 S
C353 C355 1.389 . S
C354 H333 0.950 . S
C354 C353 1.373 1_565 S
C354 C370 1.377 . S
C355 C353 1.389 . S
C355 C356 1.524 . S
C355 C369 1.377 . S
C356 C355 1.524 . S
C356 C357 1.397 . S
C356 C361 1.363 . S
C357 H334 0.950 . S
C357 C356 1.397 . S
C357 C358 1.334 . S
C358 H335 0.950 . S
C358 C357 1.334 . S
C358 C359 1.287 . S
C359 C358 1.287 . S
C359 C360 1.524 . S
C359 H378 0.913 . S
C360 H336 0.950 . S
C360 C359 1.524 . S
C360 C361 1.415 . S
C361 H337 0.950 . S
C361 C356 1.363 . S
C361 C360 1.415 . S
C362 H338 0.951 . S
C362 C363 1.366 1_565 S
C362 C364 1.388 . S
C363 C362 1.366 1_545 S
C363 C367 1.385 . S
C364 H339 0.951 . S
C364 C362 1.388 . S
C364 C365 1.366 1_565 S
C365 C364 1.366 1_545 S
C365 C366 1.414 . S
C365 C368 1.499 . S
C366 H340 0.950 . S
C366 C365 1.414 . S
C366 C367 1.374 . S
C367 H341 0.950 . S
C367 C363 1.385 . S
C367 C366 1.374 . S
C368 C365 1.499 . S
C368 C369 1.373 . S
C368 C370 1.389 1_545 S
C369 H342 0.950 . S
C369 C355 1.377 . S
C369 C368 1.373 . S
C370 C354 1.377 . S
C370 C368 1.389 1_565 S
C370 C371 1.524 . S
C371 C370 1.524 . S
C371 C372 1.397 . S
C371 C376 1.363 . S
C372 H343 0.950 . S
C372 C371 1.397 . S
C372 C373 1.334 . S
C373 H344 0.950 . S
C373 C372 1.334 . S
C373 C374 1.287 . S
C374 C373 1.287 . S
C374 C375 1.524 . S
C374 H377 0.999 . S
C375 H345 0.950 . S
C375 C374 1.524 . S
C375 C376 1.415 . S
C376 H346 0.950 . S
C376 C371 1.363 . S
C376 C375 1.415 . S
H377 C374 0.999 . S
H378 C359 0.913 . S
H379 C397 0.951 . S
H380 C399 0.951 . S
H381 C401 0.950 . S
H382 C402 0.950 . S
H383 C404 0.950 . S
H384 C407 0.950 . S
H385 C408 0.950 . S
H386 C410 0.950 . S
H387 C411 0.950 . S
H388 C412 0.951 . S
H389 C414 0.951 . S
H390 C416 0.950 . S
H391 C417 0.950 . S
H392 C419 0.950 . S
H393 C422 0.950 . S
H394 C423 0.950 . S
H395 C425 0.950 . S
H396 C426 0.950 . S
C397 H379 0.951 . S
C397 C398 1.366 1_455 S
C397 C399 1.388 . S
C398 C397 1.366 1_655 S
C398 C402 1.385 . S
C399 H380 0.951 . S
C399 C397 1.388 . S
C399 C400 1.366 1_455 S
C400 C399 1.366 1_655 S
C400 C401 1.414 . S
C400 C403 1.499 . S
C401 H381 0.950 . S
C401 C400 1.414 . S
C401 C402 1.374 . S
C402 H382 0.950 . S
C402 C398 1.385 . S
C402 C401 1.374 . S
C403 C400 1.499 . S
C403 C404 1.373 . S
C403 C405 1.389 1_655 S
C404 H383 0.950 . S
C404 C403 1.373 . S
C404 C420 1.377 . S
C405 C403 1.389 1_455 S
C405 C406 1.524 . S
C405 C419 1.377 . S
C406 C405 1.524 . S
C406 C407 1.397 . S
C406 C411 1.363 . S
C407 H384 0.950 . S
C407 C406 1.397 . S
C407 C408 1.334 . S
C408 H385 0.950 . S
C408 C407 1.334 . S
C408 C409 1.287 . S
C409 C408 1.287 . S
C409 C410 1.524 . S
C409 H428 0.913 . S
C410 H386 0.950 . S
C410 C409 1.524 . S
C410 C411 1.415 . S
C411 H387 0.950 . S
C411 C406 1.363 . S
C411 C410 1.415 . S
C412 H388 0.951 . S
C412 C413 1.366 . S
C412 C414 1.388 . S
C413 C412 1.366 . S
C413 C417 1.385 1_655 S
C414 H389 0.951 . S
C414 C412 1.388 . S
C414 C415 1.366 . S
C415 C414 1.366 . S
C415 C416 1.414 1_655 S
C415 C418 1.499 . S
C416 H390 0.950 . S
C416 C415 1.414 1_455 S
C416 C417 1.374 . S
C417 H391 0.950 . S
C417 C413 1.385 1_455 S
C417 C416 1.374 . S
C418 C415 1.499 . S
C418 C419 1.373 1_655 S
C418 C420 1.389 . S
C419 H392 0.950 . S
C419 C405 1.377 . S
C419 C418 1.373 1_455 S
C420 C404 1.377 . S
C420 C418 1.389 . S
C420 C421 1.524 . S
C421 C420 1.524 . S
C421 C422 1.397 . S
C421 C426 1.363 . S
C422 H393 0.950 . S
C422 C421 1.397 . S
C422 C423 1.334 . S
C423 H394 0.950 . S
C423 C422 1.334 . S
C423 C424 1.287 . S
C424 C423 1.287 . S
C424 C425 1.524 . S
C424 H427 0.999 . S
C425 H395 0.950 . S
C425 C424 1.524 . S
C425 C426 1.415 . S
C426 H396 0.950 . S
C426 C421 1.363 . S
C426 C425 1.415 . S
H427 C424 0.999 . S
H428 C409 0.913 . S
H429 C447 0.951 . S
H430 C449 0.951 . S
H431 C451 0.950 . S
H432 C452 0.950 . S
H433 C454 0.950 1_565 S
H434 C457 0.950 . S
H435 C458 0.950 . S
H436 C460 0.950 . S
H437 C461 0.950 1_565 S
H438 C462 0.951 . S
H439 C464 0.951 . S
H440 C466 0.950 . S
H441 C467 0.950 . S
H442 C469 0.950 . S
H443 C472 0.950 . S
H444 C473 0.950 . S
H445 C475 0.950 . S
H446 C476 0.950 1_545 S
C447 H429 0.951 . S
C447 C448 1.366 1_565 S
C447 C449 1.388 . S
C448 C447 1.366 1_545 S
C448 C452 1.385 . S
C449 H430 0.951 . S
C449 C447 1.388 . S
C449 C450 1.366 1_565 S
C450 C449 1.366 1_545 S
C450 C451 1.414 . S
C450 C453 1.499 . S
C451 H431 0.950 . S
C451 C450 1.414 . S
C451 C452 1.374 . S
C452 H432 0.950 . S
C452 C448 1.385 . S
C452 C451 1.374 . S
C453 C450 1.499 . S
C453 C454 1.373 . S
C453 C455 1.389 . S
C454 H433 0.950 1_545 S
C454 C453 1.373 . S
C454 C470 1.377 1_545 S
C455 C453 1.389 . S
C455 C456 1.524 . S
C455 C469 1.377 . S
C456 C455 1.524 . S
C456 C457 1.397 . S
C456 C461 1.363 . S
C457 H434 0.950 . S
C457 C456 1.397 . S
C457 C458 1.334 . S
C458 H435 0.950 . S
C458 C457 1.334 . S
C458 C459 1.287 . S
C459 C458 1.287 . S
C459 C460 1.524 . S
C459 H478 0.913 . S
C460 H436 0.950 . S
C460 C459 1.524 . S
C460 C461 1.415 . S
C461 H437 0.950 1_545 S
C461 C456 1.363 . S
C461 C460 1.415 . S
C462 H438 0.951 . S
C462 C463 1.366 1_545 S
C462 C464 1.388 . S
C463 C462 1.366 1_565 S
C463 C467 1.385 . S
C464 H439 0.951 . S
C464 C462 1.388 . S
C464 C465 1.386 . S
C465 C464 1.386 . S
C465 C466 1.406 1_545 S
C465 C468 1.488 . S
C466 H440 0.950 . S
C466 C465 1.406 1_565 S
C466 C467 1.374 . S
C467 H441 0.950 . S
C467 C463 1.385 . S
C467 C466 1.374 . S
C468 C465 1.488 . S
C468 C469 1.373 . S
C468 C470 1.389 1_545 S
C469 H442 0.950 . S
C469 C455 1.377 . S
C469 C468 1.373 . S
C470 C454 1.377 1_565 S
C470 C468 1.389 1_565 S
C470 C471 1.524 . S
C471 C470 1.524 . S
C471 C472 1.397 . S
C471 C476 1.363 . S
C472 H443 0.950 . S
C472 C471 1.397 . S
C472 C473 1.334 . S
C473 H444 0.950 . S
C473 C472 1.334 . S
C473 C474 1.287 . S
C474 C473 1.287 . S
C474 C475 1.524 . S
C474 H477 0.999 . S
C475 H445 0.950 . S
C475 C474 1.524 . S
C475 C476 1.415 . S
C476 H446 0.950 1_565 S
C476 C471 1.363 . S
C476 C475 1.415 . S
H477 C474 0.999 . S
H478 C459 0.913 . S
C98 C23 1.336 . S
C113 C49 1.410 . S
C148 C22 1.378 1_545 S
C163 N68 1.373 . S
C198 C21 1.773 . S
C213 N45 1.738 . S
C248 C24 1.573 1_565 S
C263 C72 1.619 . S
C298 C27 1.396 1_455 S
C313 C40 1.466 . S
C348 C26 1.400 . S
C363 N58 1.407 . S
C413 N35 1.763 . S
C398 C25 1.799 . S
C448 C28 1.613 . S
C463 C63 1.683 . S
