# Generated by pormake.
# Topology ibd, (4,6)-cn, num edge types: 1
# Building blocks:
#     Node 0, Type 0, BuildingBlock: NAHDIM_clean_sbu_0, # of connection points: 4
#     Node 1, Type 0, BuildingBlock: NAHDIM_clean_sbu_0, # of connection points: 4
#     Node 2, Type 0, BuildingBlock: NAHDIM_clean_sbu_0, # of connection points: 4
#     Node 3, Type 0, BuildingBlock: NAHDIM_clean_sbu_0, # of connection points: 4
#     Node 4, Type 0, BuildingBlock: NAHDIM_clean_sbu_0, # of connection points: 4
#     Node 5, Type 0, BuildingBlock: NAHDIM_clean_sbu_0, # of connection points: 4
#     Node 6, Type 0, BuildingBlock: NAHDIM_clean_sbu_0, # of connection points: 4
#     Node 7, Type 0, BuildingBlock: NAHDIM_clean_sbu_0, # of connection points: 4
#     Node 8, Type 0, BuildingBlock: NAHDIM_clean_sbu_0, # of connection points: 4
#     Node 9, Type 0, BuildingBlock: NAHDIM_clean_sbu_0, # of connection points: 4
#     Node 10, Type 0, BuildingBlock: NAHDIM_clean_sbu_0, # of connection points: 4
#     Node 11, Type 0, BuildingBlock: NAHDIM_clean_sbu_0, # of connection points: 4
#     Node 12, Type 0, BuildingBlock: NAHDIM_clean_sbu_0, # of connection points: 4
#     Node 13, Type 0, BuildingBlock: NAHDIM_clean_sbu_0, # of connection points: 4
#     Node 14, Type 0, BuildingBlock: NAHDIM_clean_sbu_0, # of connection points: 4
#     Node 15, Type 0, BuildingBlock: NAHDIM_clean_sbu_0, # of connection points: 4
#     Node 16, Type 0, BuildingBlock: NAHDIM_clean_sbu_0, # of connection points: 4
#     Node 17, Type 0, BuildingBlock: NAHDIM_clean_sbu_0, # of connection points: 4
#     Node 18, Type 0, BuildingBlock: NAHDIM_clean_sbu_0, # of connection points: 4
#     Node 19, Type 0, BuildingBlock: NAHDIM_clean_sbu_0, # of connection points: 4
#     Node 20, Type 0, BuildingBlock: NAHDIM_clean_sbu_0, # of connection points: 4
#     Node 21, Type 0, BuildingBlock: NAHDIM_clean_sbu_0, # of connection points: 4
#     Node 22, Type 0, BuildingBlock: NAHDIM_clean_sbu_0, # of connection points: 4
#     Node 23, Type 0, BuildingBlock: NAHDIM_clean_sbu_0, # of connection points: 4
#     Node 24, Type 1, BuildingBlock: CIFDUS_clean_sbu_1, # of connection points: 6
#     Node 25, Type 1, BuildingBlock: CIFDUS_clean_sbu_1, # of connection points: 6
#     Node 26, Type 1, BuildingBlock: CIFDUS_clean_sbu_1, # of connection points: 6
#     Node 27, Type 1, BuildingBlock: CIFDUS_clean_sbu_1, # of connection points: 6
#     Node 28, Type 1, BuildingBlock: CIFDUS_clean_sbu_1, # of connection points: 6
#     Node 29, Type 1, BuildingBlock: CIFDUS_clean_sbu_1, # of connection points: 6
#     Node 30, Type 1, BuildingBlock: CIFDUS_clean_sbu_1, # of connection points: 6
#     Node 31, Type 1, BuildingBlock: CIFDUS_clean_sbu_1, # of connection points: 6
#     Node 32, Type 1, BuildingBlock: CIFDUS_clean_sbu_1, # of connection points: 6
#     Node 33, Type 1, BuildingBlock: CIFDUS_clean_sbu_1, # of connection points: 6
#     Node 34, Type 1, BuildingBlock: CIFDUS_clean_sbu_1, # of connection points: 6
#     Node 35, Type 1, BuildingBlock: CIFDUS_clean_sbu_1, # of connection points: 6
#     Node 36, Type 1, BuildingBlock: CIFDUS_clean_sbu_1, # of connection points: 6
#     Node 37, Type 1, BuildingBlock: CIFDUS_clean_sbu_1, # of connection points: 6
#     Node 38, Type 1, BuildingBlock: CIFDUS_clean_sbu_1, # of connection points: 6
#     Node 39, Type 1, BuildingBlock: CIFDUS_clean_sbu_1, # of connection points: 6
#     Edge 40, Type (0, 1), None
#     Edge 41, Type (0, 1), None
#     Edge 42, Type (0, 1), None
#     Edge 43, Type (0, 1), None
#     Edge 44, Type (0, 1), None
#     Edge 45, Type (0, 1), None
#     Edge 46, Type (0, 1), None
#     Edge 47, Type (0, 1), None
#     Edge 48, Type (0, 1), None
#     Edge 49, Type (0, 1), None
#     Edge 50, Type (0, 1), None
#     Edge 51, Type (0, 1), None
#     Edge 52, Type (0, 1), None
#     Edge 53, Type (0, 1), None
#     Edge 54, Type (0, 1), None
#     Edge 55, Type (0, 1), None
#     Edge 56, Type (0, 1), None
#     Edge 57, Type (0, 1), None
#     Edge 58, Type (0, 1), None
#     Edge 59, Type (0, 1), None
#     Edge 60, Type (0, 1), None
#     Edge 61, Type (0, 1), None
#     Edge 62, Type (0, 1), None
#     Edge 63, Type (0, 1), None
#     Edge 64, Type (0, 1), None
#     Edge 65, Type (0, 1), None
#     Edge 66, Type (0, 1), None
#     Edge 67, Type (0, 1), None
#     Edge 68, Type (0, 1), None
#     Edge 69, Type (0, 1), None
#     Edge 70, Type (0, 1), None
#     Edge 71, Type (0, 1), None
#     Edge 72, Type (0, 1), None
#     Edge 73, Type (0, 1), None
#     Edge 74, Type (0, 1), None
#     Edge 75, Type (0, 1), None
#     Edge 76, Type (0, 1), None
#     Edge 77, Type (0, 1), None
#     Edge 78, Type (0, 1), None
#     Edge 79, Type (0, 1), None
#     Edge 80, Type (0, 1), None
#     Edge 81, Type (0, 1), None
#     Edge 82, Type (0, 1), None
#     Edge 83, Type (0, 1), None
#     Edge 84, Type (0, 1), None
#     Edge 85, Type (0, 1), None
#     Edge 86, Type (0, 1), None
#     Edge 87, Type (0, 1), None
#     Edge 88, Type (0, 1), None
#     Edge 89, Type (0, 1), None
#     Edge 90, Type (0, 1), None
#     Edge 91, Type (0, 1), None
#     Edge 92, Type (0, 1), None
#     Edge 93, Type (0, 1), None
#     Edge 94, Type (0, 1), None
#     Edge 95, Type (0, 1), None
#     Edge 96, Type (0, 1), None
#     Edge 97, Type (0, 1), None
#     Edge 98, Type (0, 1), None
#     Edge 99, Type (0, 1), None
#     Edge 100, Type (0, 1), None
#     Edge 101, Type (0, 1), None
#     Edge 102, Type (0, 1), None
#     Edge 103, Type (0, 1), None
#     Edge 104, Type (0, 1), None
#     Edge 105, Type (0, 1), None
#     Edge 106, Type (0, 1), None
#     Edge 107, Type (0, 1), None
#     Edge 108, Type (0, 1), None
#     Edge 109, Type (0, 1), None
#     Edge 110, Type (0, 1), None
#     Edge 111, Type (0, 1), None
#     Edge 112, Type (0, 1), None
#     Edge 113, Type (0, 1), None
#     Edge 114, Type (0, 1), None
#     Edge 115, Type (0, 1), None
#     Edge 116, Type (0, 1), None
#     Edge 117, Type (0, 1), None
#     Edge 118, Type (0, 1), None
#     Edge 119, Type (0, 1), None
#     Edge 120, Type (0, 1), None
#     Edge 121, Type (0, 1), None
#     Edge 122, Type (0, 1), None
#     Edge 123, Type (0, 1), None
#     Edge 124, Type (0, 1), None
#     Edge 125, Type (0, 1), None
#     Edge 126, Type (0, 1), None
#     Edge 127, Type (0, 1), None
#     Edge 128, Type (0, 1), None
#     Edge 129, Type (0, 1), None
#     Edge 130, Type (0, 1), None
#     Edge 131, Type (0, 1), None
#     Edge 132, Type (0, 1), None
#     Edge 133, Type (0, 1), None
#     Edge 134, Type (0, 1), None
#     Edge 135, Type (0, 1), None
# Relax obj value: 0.365
# Max RMSD: 0.324
# Mean RMSD: 0.286
data_MOF--net-ibd--node1-NAHDIM_clean_sbu_0--node2-CIFDUS_clean_sbu_1--edge1-none
_symmetry_space_group_name_H-M    P1
_symmetry_Int_Tables_number       1
_symmetry_cell_setting            triclinic
loop_
_symmetry_equiv_pos_as_xyz
'x, y, z'
_cell_length_a     22.105936
_cell_length_b     22.690129
_cell_length_c     22.851162
_cell_angle_alpha  91.264679
_cell_angle_beta   91.060727
_cell_angle_gamma 90.470733
loop_
_atom_site_label
_atom_site_type_symbol
_atom_site_fract_x
_atom_site_fract_y
_atom_site_fract_z
_atom_type_partial_charge
C0 C 0.0808 0.26384 0.28624 0.0
O1 O 0.06224 0.31356 0.26436 0.0
O2 O 0.05952 0.33505 0.45058 0.0
Zn3 Zn 0.00991 0.29531 0.38678 0.0
O4 O 0.9677 0.35949 0.33946 0.0
C5 C 0.94846 0.24864 0.48657 0.0
O6 O 0.9538 0.3023 0.50843 0.0
O7 O 0.06544 0.2489 0.33698 0.0
C8 C 0.94517 0.36923 0.28895 0.0
O9 O 0.92346 0.42181 0.27924 0.0
C10 C 0.03755 0.38345 0.4683 0.0
O11 O -0.00913 0.40572 0.44059 0.0
O12 O 0.95991 0.23802 0.43283 0.0
C13 C 0.06023 0.72545 0.72786 0.0
O14 O 0.00343 0.70967 0.73382 0.0
O15 O 0.97662 0.71917 0.57906 0.0
Zn16 Zn 0.01613 0.78318 0.6246 0.0
O17 O 0.95063 0.81815 0.67219 0.0
C18 C 0.01969 0.87602 0.54084 0.0
O19 O 0.97598 0.89698 0.57325 0.0
O20 O 0.0769 0.75225 0.68223 0.0
C21 C 0.95542 0.82837 0.72705 0.0
O22 O 0.00862 0.83243 0.75319 0.0
C23 C 0.93968 0.73605 0.53964 0.0
O24 O 0.92396 0.79144 0.53717 0.0
O25 O 0.04965 0.83216 0.55856 0.0
C26 C 0.58079 0.7639 0.78623 0.0
O27 O 0.5623 0.81367 0.76441 0.0
O28 O 0.55941 0.835 0.9505 0.0
Zn29 Zn 0.5098 0.79523 0.88673 0.0
O30 O 0.46755 0.85939 0.83942 0.0
C31 C 0.4484 0.74854 0.98655 0.0
O32 O 0.45373 0.80221 0.0084 0.0
O33 O 0.56535 0.74886 0.83691 0.0
C34 C 0.44508 0.86913 0.78889 0.0
O35 O 0.42332 0.92168 0.77917 0.0
C36 C 0.53742 0.88338 0.96822 0.0
O37 O 0.4907 0.90562 0.94053 0.0
O38 O 0.45985 0.73791 0.93281 0.0
C39 C 0.56033 0.22552 0.22782 0.0
O40 O 0.50354 0.20968 0.23374 0.0
O41 O 0.47673 0.21921 0.07908 0.0
Zn42 Zn 0.51617 0.28326 0.12461 0.0
O43 O 0.45064 0.31816 0.17221 0.0
C44 C 0.51963 0.37607 0.0408 0.0
O45 O 0.47589 0.39701 0.07318 0.0
O46 O 0.57698 0.25237 0.18223 0.0
C47 C 0.4554 0.32834 0.22709 0.0
O48 O 0.5086 0.33241 0.25324 0.0
C49 C 0.43976 0.23604 0.03968 0.0
O50 O 0.42397 0.29142 0.0372 0.0
O51 O 0.54964 0.33226 0.05855 0.0
C52 C 0.04871 0.73312 0.02268 0.0
O53 O 0.04087 0.78004 -0.00887 0.0
O54 O 0.01874 0.87568 0.15403 0.0
Zn55 Zn -0.00809 0.79357 0.12551 0.0
O56 O 0.91287 0.8011 0.07795 0.0
C57 C 0.92835 0.78171 0.22661 0.0
O58 O 0.9102 0.83179 0.20479 0.0
O59 O 0.04407 0.73685 0.07824 0.0
C60 C 0.89483 0.82259 0.02953 0.0
O61 O 0.83673 0.82109 0.0177 0.0
C62 C 0.03208 0.89438 0.20603 0.0
O63 O 0.03502 0.95157 0.21579 0.0
O64 O 0.9679 0.75232 0.1993 0.0
C65 C 0.63148 0.69226 0.4849 0.0
O66 O 0.68228 0.66758 0.50124 0.0
O67 O 0.51255 0.70853 0.32317 0.0
Zn68 Zn 0.56267 0.75486 0.38684 0.0
O69 O 0.51193 0.80318 0.44307 0.0
C70 C 0.58377 0.83456 0.29272 0.0
O71 O 0.52475 0.83496 0.28677 0.0
O72 O 0.62702 0.71028 0.43248 0.0
C73 C 0.52731 0.82132 0.49435 0.0
O74 O 0.58239 0.8128 0.5145 0.0
C75 C 0.46113 0.73169 0.3141 0.0
O76 O 0.44231 0.77162 0.35187 0.0
O77 O 0.60877 0.80927 0.33587 0.0
C78 C 0.54868 0.23313 0.52264 0.0
O79 O 0.54087 0.28007 0.4911 0.0
O80 O 0.51868 0.37564 0.65399 0.0
Zn81 Zn 0.49186 0.29352 0.62549 0.0
O82 O 0.4128 0.30104 0.57798 0.0
C83 C 0.42836 0.28163 0.72662 0.0
O84 O 0.41018 0.33171 0.70481 0.0
O85 O 0.54402 0.23683 0.5782 0.0
C86 C 0.39476 0.32253 0.52956 0.0
O87 O 0.33666 0.32107 0.51773 0.0
C88 C 0.53203 0.39435 0.70598 0.0
O89 O 0.53497 0.45154 0.71574 0.0
O90 O 0.46791 0.25226 0.69929 0.0
C91 C 0.1314 0.19218 0.98492 0.0
O92 O 0.1822 0.16748 0.00126 0.0
O93 O 0.0125 0.20853 0.8232 0.0
Zn94 Zn 0.0626 0.25483 0.8869 0.0
O95 O 0.01186 0.30315 0.94313 0.0
C96 C 0.08374 0.33456 0.79282 0.0
O97 O 0.02472 0.33496 0.78685 0.0
O98 O 0.12694 0.21022 0.93252 0.0
C99 C 0.02724 0.32127 -0.00559 0.0
O100 O 0.0823 0.3127 0.01458 0.0
C101 C 0.96108 0.23169 0.81412 0.0
O102 O 0.94225 0.27161 0.8519 0.0
O103 O 0.10872 0.30925 0.83597 0.0
C104 C 0.47024 0.91606 0.17034 0.0
O105 O 0.48773 0.86463 0.14989 0.0
O106 O 0.30552 0.95847 0.2606 0.0
Zn107 Zn 0.3785 -0.00664 0.22469 0.0
O108 O 0.43565 0.02806 0.2873 0.0
C109 C 0.2888 0.06233 0.16657 0.0
O110 O 0.25417 0.01554 0.1591 0.0
O111 O 0.41703 0.92068 0.18954 0.0
C112 C 0.48679 0.0543 0.28397 0.0
O113 O 0.50885 0.06803 0.23322 0.0
C114 C 0.25599 0.97621 0.28192 0.0
O115 O 0.24588 0.03233 0.29192 0.0
O116 O 0.346 0.05568 0.17081 0.0
C117 C 0.32779 0.0481 0.5727 0.0
O118 O 0.2773 0.02052 0.58494 0.0
O119 O 0.29633 0.21082 0.46631 0.0
Zn120 Zn 0.26045 0.15202 0.52106 0.0
O121 O 0.19922 0.09928 0.48111 0.0
C122 C 0.20376 0.2564 0.57447 0.0
O123 O 0.19323 0.27465 0.5212 0.0
O124 O 0.32681 0.09986 0.55177 0.0
C125 C 0.20709 0.04769 0.4594 0.0
O126 O 0.26086 0.02365 0.4594 0.0
C127 C 0.26719 0.22635 0.421 0.0
O128 O 0.21686 0.19861 0.40557 0.0
O129 O 0.22522 0.205 0.58288 0.0
C130 C 0.23894 0.91793 0.72897 0.0
O131 O 0.24011 0.93103 0.78523 0.0
O132 O 0.07634 0.96468 0.78976 0.0
Zn133 Zn 0.13706 -0.00411 0.73116 0.0
O134 O 0.18876 0.05804 0.76927 0.0
C135 C 0.05126 0.07511 0.67582 0.0
O136 O 0.03837 0.09427 0.72873 0.0
O137 O 0.19584 0.93646 0.69678 0.0
C138 C 0.2443 0.06824 0.75927 0.0
O139 O 0.27346 0.03754 0.71977 0.0
C140 C 0.01855 0.9628 0.78489 0.0
O141 O -0.00851 0.97654 0.73553 0.0
O142 O 0.09087 0.03539 0.66824 0.0
C143 C 0.3086 0.81048 0.08435 0.0
O144 O 0.31851 0.78426 0.03373 0.0
O145 O 0.30574 0.96685 0.98516 0.0
Zn146 Zn 0.24876 0.91346 0.0244 0.0
O147 O 0.2103 0.86191 0.96354 0.0
C148 C 0.1447 -0.01159 0.04299 0.0
O149 O 0.11941 0.96207 -0.00312 0.0
O150 O 0.28549 0.86183 0.08658 0.0
C151 C 0.18737 0.81281 0.97709 0.0
O152 O 0.18065 0.79997 0.03235 0.0
C153 C 0.2891 0.015 0.962 0.0
O154 O 0.23211 0.03044 0.96089 0.0
O155 O 0.19456 0.97034 0.06328 0.0
C156 C 0.17215 0.48982 0.97577 0.0
O157 O 0.22612 0.48779 0.95313 0.0
O158 O 0.24875 0.35283 0.95474 0.0
Zn159 Zn 0.22873 0.40053 0.02763 0.0
O160 O 0.29456 0.46125 0.05034 0.0
C161 C 0.25164 0.30666 0.10483 0.0
O162 O 0.3079 0.32557 0.10419 0.0
O163 O 0.15623 0.4496 0.01014 0.0
C164 C 0.28725 0.51571 0.06481 0.0
O165 O 0.23356 0.53585 0.07787 0.0
C166 C 0.27533 0.30323 0.94914 0.0
O167 O 0.3008 0.27782 -0.00602 0.0
O168 O 0.20964 0.33738 0.08309 0.0
C169 C 0.67385 0.24715 0.92586 0.0
O170 O 0.66452 0.26959 0.97833 0.0
O171 O 0.78889 0.07702 0.93778 0.0
Zn172 Zn 0.75095 0.15039 0.97558 0.0
O173 O 0.80676 0.19677 0.02958 0.0
C174 C 0.70837 0.0721 0.05532 0.0
O175 O 0.765 0.05592 0.05613 0.0
O176 O 0.70688 0.2017 0.91885 0.0
C177 C 0.81904 0.25142 0.02746 0.0
O178 O 0.79894 0.28254 0.98356 0.0
C179 C 0.8388 0.06013 0.95984 0.0
O180 O 0.86801 0.09529 -0.00274 0.0
O181 O 0.69119 0.11587 0.02599 0.0
C182 C 0.04322 0.60726 0.32706 0.0
O183 O 0.02129 0.60336 0.27337 0.0
O184 O 0.20317 0.48887 0.33914 0.0
Zn185 Zn 0.14138 0.53046 0.29039 0.0
O186 O 0.07935 0.47945 0.24467 0.0
C187 C 0.24868 0.56341 0.22909 0.0
O188 O 0.27329 0.51373 0.24505 0.0
O189 O 0.09496 0.58607 0.3394 0.0
C190 C 0.06278 0.5016 0.19643 0.0
O191 O 0.09003 0.54954 0.17892 0.0
C192 C 0.19362 0.43464 0.34431 0.0
O193 O 0.13709 0.41699 0.34801 0.0
O194 O 0.1936 0.57476 0.23952 0.0
C195 C 0.67214 -0.01015 0.47576 0.0
O196 O 0.72609 -0.01221 0.45311 0.0
O197 O 0.74874 0.85289 0.45474 0.0
Zn198 Zn 0.72875 0.9006 0.52763 0.0
O199 O 0.79458 0.96134 0.5503 0.0
C200 C 0.7517 0.80675 0.60484 0.0
O201 O 0.80797 0.82564 0.60415 0.0
O202 O 0.65622 0.94965 0.51017 0.0
C203 C 0.78727 0.0158 0.56476 0.0
O204 O 0.73359 0.03595 0.57781 0.0
C205 C 0.77531 0.80328 0.44913 0.0
O206 O 0.80076 0.77785 0.49396 0.0
O207 O 0.70969 0.83747 0.58312 0.0
C208 C 0.79246 0.09601 0.3691 0.0
O209 O 0.76379 0.04544 0.36285 0.0
O210 O 0.89009 0.96529 0.30125 0.0
Zn211 Zn 0.86697 0.04975 0.28668 0.0
O212 O 0.78433 0.0412 0.24979 0.0
C213 C 0.98253 0.09421 0.23405 0.0
O214 O 0.01108 0.08026 0.28247 0.0
O215 O 0.84888 0.09767 0.3585 0.0
C216 C 0.78177 0.02195 0.19785 0.0
O217 O 0.82996 0.02867 0.16583 0.0
C218 C 0.93746 0.94458 0.32493 0.0
O219 O 0.93901 0.88793 0.33481 0.0
O220 O 0.92525 0.08781 0.22946 0.0
C221 C 0.17383 0.7471 0.42587 0.0
O222 O 0.16457 0.76955 0.47834 0.0
O223 O 0.28881 0.57692 0.43777 0.0
Zn224 Zn 0.25092 0.65032 0.47556 0.0
O225 O 0.30679 0.69671 0.52948 0.0
C226 C 0.20846 0.57211 0.55544 0.0
O227 O 0.2651 0.55596 0.55624 0.0
O228 O 0.20682 0.70161 0.41885 0.0
C229 C 0.31909 0.75136 0.52735 0.0
O230 O 0.29898 0.78248 0.48346 0.0
C231 C 0.33873 0.56004 0.4598 0.0
O232 O 0.36797 0.59524 0.49717 0.0
O233 O 0.19122 0.61583 0.52606 0.0
C234 C 0.29244 0.59598 0.86909 0.0
O235 O 0.2638 0.5454 0.8628 0.0
O236 O 0.39006 0.46542 0.80104 0.0
Zn237 Zn 0.36695 0.54991 0.7866 0.0
O238 O 0.28432 0.54145 0.74967 0.0
C239 C 0.48255 0.59437 0.73403 0.0
O240 O 0.51109 0.58031 0.78241 0.0
O241 O 0.34886 0.59767 0.85852 0.0
C242 C 0.2819 0.52189 0.69783 0.0
O243 O 0.33018 0.52839 0.66591 0.0
C244 C 0.43741 0.44466 0.82474 0.0
O245 O 0.43892 0.388 0.83454 0.0
O246 O 0.42526 0.58805 0.72944 0.0
C247 C 0.54322 0.1073 0.82701 0.0
O248 O 0.52121 0.10334 0.77335 0.0
O249 O 0.7032 -0.01099 0.83913 0.0
Zn250 Zn 0.64139 0.03051 0.79032 0.0
O251 O 0.57936 0.97943 0.74467 0.0
C252 C 0.74867 0.06343 0.72898 0.0
O253 O 0.7733 0.01377 0.745 0.0
O254 O 0.59499 0.08617 0.8393 0.0
C255 C 0.56273 0.00159 0.69644 0.0
O256 O 0.58993 0.04955 0.67893 0.0
C257 C 0.6937 0.93478 0.84437 0.0
O258 O 0.63719 0.91709 0.84815 0.0
O259 O 0.69359 0.07476 0.73939 0.0
C260 C 0.82776 0.54812 0.07263 0.0
O261 O 0.77728 0.52053 0.08488 0.0
O262 O 0.79635 0.71085 0.96622 0.0
Zn263 Zn 0.76043 0.65204 0.02095 0.0
O264 O 0.69918 0.59934 0.98098 0.0
C265 C 0.70372 0.75641 0.07435 0.0
O266 O 0.69313 0.77464 0.02109 0.0
O267 O 0.82678 0.59986 0.05167 0.0
C268 C 0.70703 0.54773 0.9593 0.0
O269 O 0.76079 0.52367 0.95934 0.0
C270 C 0.76718 0.72646 0.92095 0.0
O271 O 0.71679 0.69879 0.90555 0.0
O272 O 0.72521 0.70503 0.08276 0.0
C273 C 0.97028 0.4161 0.67041 0.0
O274 O -0.01222 0.36467 0.64997 0.0
O275 O 0.80547 0.45848 0.76056 0.0
Zn276 Zn 0.87849 0.49339 0.72472 0.0
O277 O 0.93558 0.52805 0.78739 0.0
C278 C 0.78884 0.56243 0.66659 0.0
O279 O 0.7542 0.51565 0.65907 0.0
O280 O 0.91705 0.42073 0.68957 0.0
C281 C -0.01328 0.5543 0.78406 0.0
O282 O 0.00874 0.56808 0.73331 0.0
C283 C 0.75592 0.47622 0.78185 0.0
O284 O 0.74581 0.53234 0.79185 0.0
O285 O 0.84604 0.55575 0.67087 0.0
C286 C 0.80861 0.31056 0.58433 0.0
O287 O 0.81853 0.28435 0.53371 0.0
O288 O 0.80566 0.46692 0.48512 0.0
Zn289 Zn 0.74871 0.41352 0.5244 0.0
O290 O 0.71023 0.36195 0.46357 0.0
C291 C 0.64468 0.4885 0.54302 0.0
O292 O 0.61938 0.46217 0.49691 0.0
O293 O 0.78548 0.36189 0.58657 0.0
C294 C 0.68734 0.31284 0.47712 0.0
O295 O 0.68065 0.29998 0.53237 0.0
C296 C 0.78901 0.51505 0.46194 0.0
O297 O 0.73202 0.53049 0.46084 0.0
O298 O 0.69454 0.47041 0.5633 0.0
C299 C 0.739 0.41811 0.22908 0.0
O300 O 0.74028 0.4314 0.2853 0.0
O301 O 0.57628 0.46471 0.28983 0.0
Zn302 Zn 0.63701 0.49593 0.23126 0.0
O303 O 0.68871 0.5581 0.26934 0.0
C304 C 0.55123 0.5751 0.17586 0.0
O305 O 0.53832 0.59426 0.22876 0.0
O306 O 0.69579 0.43647 0.19692 0.0
C307 C 0.7442 0.56837 0.2592 0.0
O308 O 0.77327 0.53777 0.21955 0.0
C309 C 0.5185 0.46279 0.28494 0.0
O310 O 0.49145 0.47651 0.23556 0.0
O311 O 0.59085 0.53538 0.1683 0.0
O312 O 0.20668 0.21157 0.10644 0.0
Mn313 Mn 0.14299 0.15514 0.14094 0.0
O314 O 0.24658 0.25293 0.18935 0.0
Mn315 Mn 0.23358 0.191 0.23948 0.0
O316 O 0.07518 0.10676 0.18339 0.0
O317 O 0.08309 0.18006 0.07902 0.0
Mn318 Mn 0.02558 0.12657 0.0679 0.0
O319 O 0.16008 0.08226 0.08812 0.0
O320 O -0.01235 0.13191 0.13906 0.0
O321 O 0.11841 0.22455 0.19763 0.0
O322 O 0.16555 0.2037 0.28248 0.0
O323 O 0.02743 0.17039 0.00026 0.0
O324 O 0.06548 0.0546 0.05785 0.0
C325 C 0.26395 0.11284 0.19895 0.0
C326 C 0.23615 0.2529 0.13451 0.0
C327 C 0.01713 0.11389 0.18367 0.0
C328 C 0.07845 0.18831 0.02315 0.0
C329 C 0.12201 0.04477 0.0648 0.0
C330 C 0.12228 0.22706 0.25397 0.0
O331 O 0.20754 0.12842 0.1982 0.0
O332 O 0.29749 0.14021 0.23795 0.0
O333 O 0.04594 0.86356 0.3046 0.0
Mn334 Mn 0.09911 0.90724 0.36828 0.0
O335 O 0.11091 0.83711 0.23777 0.0
Mn336 Mn 0.1704 0.82289 0.29398 0.0
O337 O 0.154 0.95987 0.42625 0.0
O338 O 0.03784 0.97203 0.36344 0.0
Mn339 Mn 0.03369 0.01486 0.42755 0.0
O340 O 0.05239 0.87625 0.44082 0.0
O341 O 0.10848 0.04888 0.42515 0.0
O342 O 0.15528 0.94462 0.30469 0.0
O343 O 0.22919 0.87838 0.29121 0.0
O344 O 0.96226 0.02762 0.38613 0.0
O345 O 0.02748 0.96161 0.48797 0.0
C346 C 0.15592 0.77824 0.37303 0.0
C347 C 0.05941 0.85612 0.25062 0.0
C348 C 0.15474 0.01683 0.43361 0.0
C349 C 0.98144 -0.01587 0.35433 0.0
C350 C 0.03477 0.90584 0.48656 0.0
C351 C 0.21122 0.93142 0.29492 0.0
O352 O 0.15631 0.83587 0.37135 0.0
O353 O 0.16862 0.75084 0.32464 0.0
O354 O 0.46951 0.94855 0.67788 0.0
Mn355 Mn 0.40783 0.89406 0.6317 0.0
O356 O 0.52348 0.98158 0.60333 0.0
Mn357 Mn 0.46421 0.97258 0.54511 0.0
O358 O 0.35124 0.83705 0.58145 0.0
O359 O 0.42242 0.83132 0.69112 0.0
Mn360 Mn 0.36018 0.78331 0.69576 0.0
O361 O 0.33339 0.92015 0.68061 0.0
O362 O 0.36073 0.74828 0.62219 0.0
O363 O 0.47926 0.85969 0.57991 0.0
O364 O 0.47494 0.90913 0.49654 0.0
O365 O 0.40662 0.77396 0.76359 0.0
O366 O 0.29348 0.83251 0.70781 0.0
C367 C 0.38449 0.01594 0.56588 0.0
C368 C 0.51655 0.97405 0.65767 0.0
C369 C 0.34794 0.78033 0.57856 0.0
C370 C 0.43262 0.82141 0.74589 0.0
C371 C 0.29105 0.88853 0.70298 0.0
C372 C 0.48873 0.86341 0.52441 0.0
O373 O 0.39068 0.95923 0.57287 0.0
O374 O 0.42515 0.04076 0.53435 0.0
O375 O 0.41007 0.215 0.94161 0.0
Mn376 Mn 0.37089 0.16841 0.87199 0.0
O377 O 0.43087 0.14172 0.00126 0.0
Mn378 Mn 0.44467 0.08776 0.942 0.0
O379 O 0.32752 0.12037 0.80336 0.0
O380 O 0.30278 0.22818 0.87586 0.0
Mn381 Mn 0.27019 0.2376 0.80648 0.0
O382 O 0.41244 0.22255 0.81086 0.0
O383 O 0.23785 0.16494 0.79009 0.0
O384 O 0.32497 0.10838 0.9277 0.0
O385 O 0.3876 0.0315 0.93703 0.0
O386 O 0.23298 0.2918 0.8537 0.0
O387 O 0.3334 0.26199 0.76101 0.0
C388 C 0.50234 0.11193 0.87597 0.0
C389 C 0.42341 0.19569 -0.00778 0.0
C390 C 0.27177 0.12037 0.78591 0.0
C391 C 0.26963 0.27191 0.89311 0.0
C392 C 0.38984 0.25359 0.7692 0.0
C393 C 0.33506 0.05308 0.93809 0.0
O394 O 0.4435 0.11256 0.86815 0.0
O395 O 0.52248 0.08837 0.92362 0.0
O396 O 0.54589 0.36354 0.80457 0.0
Mn397 Mn 0.59906 0.40725 0.86822 0.0
O398 O 0.61085 0.33707 0.73773 0.0
Mn399 Mn 0.67035 0.32288 0.79394 0.0
O400 O 0.65394 0.45991 0.92617 0.0
O401 O 0.53777 0.47203 0.86337 0.0
Mn402 Mn 0.53362 0.51489 0.92746 0.0
O403 O 0.55234 0.37628 0.94077 0.0
O404 O 0.60841 0.54891 0.92507 0.0
O405 O 0.65521 0.44463 0.80461 0.0
O406 O 0.72913 0.37839 0.79114 0.0
O407 O 0.4622 0.52766 0.88602 0.0
O408 O 0.52739 0.46165 0.98789 0.0
C409 C 0.65591 0.27827 0.87301 0.0
C410 C 0.55935 0.35609 0.75059 0.0
C411 C 0.65467 0.51687 0.93353 0.0
C412 C 0.48138 0.48416 0.85422 0.0
C413 C 0.5347 0.40588 0.9865 0.0
C414 C 0.71115 0.43143 0.79484 0.0
O415 O 0.65627 0.3359 0.87131 0.0
O416 O 0.6686 0.25085 0.82462 0.0
O417 O 0.96954 0.4486 0.17789 0.0
Mn418 Mn 0.90782 0.39413 0.13176 0.0
O419 O 0.02349 0.48163 0.10333 0.0
Mn420 Mn 0.96421 0.4726 0.04511 0.0
O421 O 0.85119 0.33712 0.08155 0.0
O422 O 0.9224 0.3314 0.1912 0.0
Mn423 Mn 0.86014 0.28342 0.19587 0.0
O424 O 0.83342 0.42027 0.18069 0.0
O425 O 0.86066 0.24836 0.12231 0.0
O426 O 0.97922 0.35969 0.07996 0.0
O427 O 0.97492 0.40911 -0.00342 0.0
O428 O 0.90659 0.27409 0.26371 0.0
O429 O 0.79347 0.33265 0.20791 0.0
C430 C 0.88447 0.51596 0.06585 0.0
C431 C 0.01657 0.47409 0.15767 0.0
C432 C 0.84788 0.28039 0.07867 0.0
C433 C 0.93261 0.32151 0.24597 0.0
C434 C 0.79107 0.38868 0.20308 0.0
C435 C -0.01131 0.36339 0.02447 0.0
O436 O 0.89068 0.45927 0.07289 0.0
O437 O 0.92513 0.54077 0.03431 0.0
O438 O 0.91002 0.71504 0.44156 0.0
Mn439 Mn 0.87083 0.66847 0.37194 0.0
O440 O 0.93072 0.64173 0.5012 0.0
Mn441 Mn 0.94453 0.58781 0.44192 0.0
O442 O 0.82745 0.62046 0.30329 0.0
O443 O 0.80273 0.72825 0.37582 0.0
Mn444 Mn 0.77016 0.73771 0.30644 0.0
O445 O 0.91239 0.72261 0.31082 0.0
O446 O 0.7378 0.66507 0.29001 0.0
O447 O 0.82489 0.60842 0.42763 0.0
O448 O 0.8875 0.53153 0.43692 0.0
O449 O 0.73296 0.79191 0.35368 0.0
O450 O 0.83338 0.76211 0.26099 0.0
C451 C 0.00228 0.61194 0.37597 0.0
C452 C 0.92331 0.69571 0.49217 0.0
C453 C 0.7717 0.62049 0.28583 0.0
C454 C 0.7696 0.77199 0.39309 0.0
C455 C 0.88982 0.75368 0.26918 0.0
C456 C 0.83496 0.55311 0.438 0.0
O457 O 0.94345 0.61261 0.36807 0.0
O458 O 0.02236 0.58838 0.42364 0.0
O459 O 0.80727 0.82355 0.91038 0.0
Mn460 Mn 0.86221 0.88738 0.87443 0.0
O461 O 0.78616 0.76762 0.83039 0.0
Mn462 Mn 0.78501 0.82894 0.77745 0.0
O463 O 0.9239 0.94476 0.83268 0.0
O464 O 0.92373 0.87279 0.93939 0.0
Mn465 Mn 0.97248 0.93321 0.95086 0.0
O466 O 0.83172 0.95933 0.92406 0.0
O467 O 0.01231 0.93079 0.8811 0.0
O468 O 0.90165 0.82591 0.8171 0.0
O469 O 0.85107 0.83426 0.73221 0.0
O470 O 0.98007 0.88674 0.01678 0.0
O471 O 0.92157 -0.00181 0.95676 0.0
C472 C 0.73415 0.89583 0.81241 0.0
C473 C 0.78918 0.77491 0.88566 0.0
C474 C 0.98272 0.94416 0.83494 0.0
C475 C 0.93514 0.85782 -0.00705 0.0
C476 C 0.86484 0.00229 0.94551 0.0
C477 C 0.9006 0.83151 0.76082 0.0
O478 O 0.79331 0.89888 0.81477 0.0
O479 O 0.71024 0.85994 0.77345 0.0
O480 O 0.94095 0.19559 0.7141 0.0
Mn481 Mn 0.8914 0.1587 0.6414 0.0
O482 O 0.8664 0.23269 0.77053 0.0
Mn483 Mn 0.80228 0.23018 0.71754 0.0
O484 O 0.83635 0.11161 0.57811 0.0
O485 O 0.95493 0.09524 0.63006 0.0
Mn486 Mn 0.95334 0.08211 0.55164 0.0
O487 O 0.93404 0.21057 0.58115 0.0
O488 O 0.88967 0.03188 0.55155 0.0
O489 O 0.84185 0.10703 0.69901 0.0
O490 O 0.7592 0.16195 0.71434 0.0
O491 O 0.03125 0.07136 0.57486 0.0
O492 O 0.94091 0.14784 0.50566 0.0
C493 C 0.80617 0.27659 0.63802 0.0
C494 C 0.92116 0.21737 0.76313 0.0
C495 C 0.84001 0.05537 0.56564 0.0
C496 C 0.01309 0.08923 0.62564 0.0
C497 C 0.93863 0.19996 0.52629 0.0
C498 C 0.78535 0.11251 0.71093 0.0
O499 O 0.83371 0.22753 0.64822 0.0
O500 O 0.77463 0.29638 0.6812 0.0
O501 O 0.662 0.21608 0.44511 0.0
Mn502 Mn 0.62258 0.15222 0.39145 0.0
O503 O 0.69337 0.28005 0.37982 0.0
Mn504 Mn 0.71245 0.22348 0.32303 0.0
O505 O 0.57414 0.08986 0.33807 0.0
O506 O 0.55007 0.15919 0.44246 0.0
Mn507 Mn 0.51763 0.08906 0.45631 0.0
O508 O 0.65696 0.0862 0.44285 0.0
O509 O 0.48383 0.07858 0.38302 0.0
O510 O 0.58727 0.21168 0.32919 0.0
O511 O 0.65946 0.22094 0.26171 0.0
O512 O 0.50148 0.13798 0.52015 0.0
O513 O 0.57656 0.03301 0.47038 0.0
C514 C 0.75841 0.14895 0.35507 0.0
C515 C 0.67847 0.26773 0.43144 0.0
C516 C 0.517 0.07542 0.33784 0.0
C517 C 0.53652 0.17501 0.49512 0.0
C518 C 0.63297 0.03943 0.46307 0.0
C519 C 0.60415 0.21702 0.27525 0.0
O520 O 0.7002 0.14867 0.34492 0.0
O521 O 0.78758 0.19322 0.3343 0.0
O522 O 0.58165 0.88232 0.06409 0.0
Mn523 Mn 0.63221 0.91741 0.1337 0.0
O524 O 0.54694 0.96737 0.02557 0.0
Mn525 Mn 0.54679 0.01685 0.09148 0.0
O526 O 0.68944 0.96419 0.19463 0.0
O527 O 0.69892 0.8556 0.11838 0.0
Mn528 Mn 0.73141 0.857 0.19174 0.0
O529 O 0.59689 0.86292 0.19498 0.0
O530 O 0.77874 0.9214 0.18535 0.0
O531 O 0.66879 0.9791 0.07768 0.0
O532 O 0.6154 0.0614 0.09721 0.0
O533 O 0.74202 0.78276 0.1671 0.0
O534 O 0.67749 0.85961 0.25358 0.0
C535 C 0.50432 0.96922 0.15674 0.0
C536 C 0.55826 0.9123 0.02207 0.0
C537 C 0.7475 0.96769 0.18851 0.0
C538 C 0.70843 0.79877 0.12336 0.0
C539 C 0.62088 0.85512 0.24525 0.0
C540 C 0.66362 0.03578 0.08149 0.0
O541 O 0.56229 0.97078 0.15 0.0
O542 O 0.47558 0.01162 0.13194 0.0
O543 O 0.44096 0.69556 0.2141 0.0
Mn544 Mn 0.39138 0.65864 0.14143 0.0
O545 O 0.36644 0.73268 0.27054 0.0
Mn546 Mn 0.30229 0.73016 0.21759 0.0
O547 O 0.33632 0.61153 0.07817 0.0
O548 O 0.4549 0.59518 0.13008 0.0
Mn549 Mn 0.45331 0.58203 0.05167 0.0
O550 O 0.434 0.71049 0.08115 0.0
O551 O 0.38964 0.5318 0.05161 0.0
O552 O 0.34185 0.60699 0.19907 0.0
O553 O 0.25921 0.66193 0.21443 0.0
O554 O 0.53123 0.57129 0.0749 0.0
O555 O 0.44088 0.64774 0.00567 0.0
C556 C 0.30617 0.77653 0.13804 0.0
C557 C 0.42119 0.71736 0.26313 0.0
C558 C 0.33998 0.55529 0.0657 0.0
C559 C 0.51306 0.58918 0.12568 0.0
C560 C 0.43859 0.69987 0.02629 0.0
C561 C 0.28536 0.61249 0.21102 0.0
O562 O 0.33369 0.72747 0.14825 0.0
O563 O 0.27464 0.79634 0.18123 0.0
O564 O 0.162 0.71605 0.94511 0.0
Mn565 Mn 0.12256 0.65218 0.89148 0.0
O566 O 0.19335 0.78 0.87979 0.0
Mn567 Mn 0.21239 0.72342 0.823 0.0
O568 O 0.07409 0.58982 0.83814 0.0
O569 O 0.05007 0.65917 0.94252 0.0
Mn570 Mn 0.01764 0.58903 0.95639 0.0
O571 O 0.15696 0.58618 0.94288 0.0
O572 O 0.98379 0.57856 0.88312 0.0
O573 O 0.08722 0.71163 0.82923 0.0
O574 O 0.15938 0.72087 0.76171 0.0
O575 O 0.00154 0.63795 0.02025 0.0
O576 O 0.07657 0.53298 0.97042 0.0
C577 C 0.25837 0.64891 0.85504 0.0
C578 C 0.17848 0.7677 0.93143 0.0
C579 C 0.01695 0.57539 0.83792 0.0
C580 C 0.03657 0.67499 -0.00481 0.0
C581 C 0.13298 0.5394 0.9631 0.0
C582 C 0.10407 0.71696 0.77527 0.0
O583 O 0.20015 0.64862 0.84492 0.0
O584 O 0.28753 0.69317 0.83425 0.0
O585 O 0.08173 0.38235 0.5642 0.0
Mn586 Mn 0.13228 0.41741 0.63383 0.0
O587 O 0.04708 0.46742 0.52569 0.0
Mn588 Mn 0.04691 0.51688 0.5916 0.0
O589 O 0.18952 0.46416 0.69477 0.0
O590 O 0.19897 0.35558 0.61853 0.0
Mn591 Mn 0.23142 0.35694 0.69191 0.0
O592 O 0.09692 0.36292 0.69509 0.0
O593 O 0.2788 0.4213 0.68555 0.0
O594 O 0.1689 0.47911 0.57783 0.0
O595 O 0.11552 0.56141 0.59739 0.0
O596 O 0.24199 0.28269 0.66726 0.0
O597 O 0.17748 0.35958 0.75373 0.0
C598 C 0.00439 0.46925 0.65684 0.0
C599 C 0.05838 0.41235 0.52217 0.0
C600 C 0.24759 0.46761 0.68867 0.0
C601 C 0.20845 0.29874 0.6235 0.0
C602 C 0.12088 0.35512 0.74537 0.0
C603 C 0.16374 0.53579 0.58166 0.0
O604 O 0.06236 0.47079 0.65012 0.0
O605 O 0.97567 0.51166 0.63203 0.0
O606 O 0.70676 0.71166 0.60644 0.0
Mn607 Mn 0.64304 0.65525 0.64093 0.0
O608 O 0.74663 0.75302 0.68936 0.0
Mn609 Mn 0.73361 0.6911 0.73949 0.0
O610 O 0.57521 0.6069 0.68338 0.0
O611 O 0.58316 0.68018 0.579 0.0
Mn612 Mn 0.52563 0.62672 0.5679 0.0
O613 O 0.66011 0.58236 0.58812 0.0
O614 O 0.48769 0.6321 0.63905 0.0
O615 O 0.61847 0.72467 0.69762 0.0
O616 O 0.66558 0.70379 0.78247 0.0
O617 O 0.52751 0.67051 0.50024 0.0
O618 O 0.56549 0.55473 0.55788 0.0
C619 C 0.76399 0.61293 0.69897 0.0
C620 C 0.73622 0.75298 0.63452 0.0
C621 C 0.51717 0.61406 0.68366 0.0
C622 C 0.57853 0.68842 0.52312 0.0
C623 C 0.62202 0.54487 0.56482 0.0
C624 C 0.62231 0.72715 0.75395 0.0
O625 O 0.70758 0.62851 0.6982 0.0
O626 O 0.79752 0.6403 0.73798 0.0
O627 O 0.30724 0.32345 0.4104 0.0
Mn628 Mn 0.36216 0.38729 0.37444 0.0
O629 O 0.28617 0.26749 0.33042 0.0
Mn630 Mn 0.28499 0.3288 0.27747 0.0
O631 O 0.42384 0.44467 0.3327 0.0
O632 O 0.42367 0.37271 0.43941 0.0
Mn633 Mn 0.47242 0.43314 0.45088 0.0
O634 O 0.33165 0.45924 0.42406 0.0
O635 O 0.51225 0.43073 0.38112 0.0
O636 O 0.40162 0.32582 0.31712 0.0
O637 O 0.35105 0.33413 0.23223 0.0
O638 O 0.48 0.38669 0.5168 0.0
O639 O 0.42149 0.49811 0.45676 0.0
C640 C 0.2341 0.39568 0.3124 0.0
C641 C 0.28917 0.2748 0.3857 0.0
C642 C 0.48266 0.4441 0.33496 0.0
C643 C 0.43508 0.35776 0.49297 0.0
C644 C 0.36477 0.50221 0.44551 0.0
C645 C 0.40058 0.33142 0.26084 0.0
O646 O 0.29326 0.39876 0.31477 0.0
O647 O 0.21021 0.35976 0.27346 0.0
loop_
_geom_bond_atom_site_label_1
_geom_bond_atom_site_label_2
_geom_bond_distance
_geom_bond_site_symmetry_2
_ccdc_geom_bond_type
C0 O1 1.160 . S
C0 O7 1.185 . S
O1 C0 1.160 . S
O2 Zn3 1.899 . S
O2 C10 1.284 . S
Zn3 O2 1.899 . S
Zn3 O4 2.032 . S
Zn3 O7 2.086 . S
Zn3 O12 1.977 1_455 S
O4 Zn3 2.032 . S
O4 C8 1.278 1_455 S
C5 O6 1.203 . S
C5 O12 1.267 . S
O6 C5 1.203 . S
O7 C0 1.185 . S
O7 Zn3 2.086 . S
C8 O4 1.278 1_655 S
C8 O9 1.211 . S
O9 C8 1.211 . S
C10 O2 1.284 . S
C10 O11 1.273 . S
O11 C10 1.273 . S
O12 Zn3 1.977 1_655 S
O12 C5 1.267 . S
C13 O14 1.160 . S
C13 O20 1.185 . S
O14 C13 1.160 . S
O15 Zn16 1.899 1_655 S
O15 C23 1.284 . S
Zn16 O15 1.899 1_455 S
Zn16 O17 2.032 1_455 S
Zn16 O20 2.086 . S
Zn16 O25 1.977 . S
O17 Zn16 2.032 1_655 S
O17 C21 1.278 . S
C18 O19 1.203 . S
C18 O25 1.267 . S
O19 C18 1.203 . S
O20 C13 1.185 . S
O20 Zn16 2.086 . S
C21 O17 1.278 . S
C21 O22 1.211 . S
O22 C21 1.211 . S
C23 O15 1.284 . S
C23 O24 1.273 . S
O24 C23 1.273 . S
O25 Zn16 1.977 . S
O25 C18 1.267 . S
C26 O27 1.160 . S
C26 O33 1.185 . S
O27 C26 1.160 . S
O28 Zn29 1.899 . S
O28 C36 1.284 . S
Zn29 O28 1.899 . S
Zn29 O30 2.032 . S
Zn29 O33 2.086 . S
Zn29 O38 1.977 . S
O30 Zn29 2.032 . S
O30 C34 1.278 . S
C31 O32 1.203 . S
C31 O38 1.267 . S
O32 C31 1.203 . S
O33 C26 1.185 . S
O33 Zn29 2.086 . S
C34 O30 1.278 . S
C34 O35 1.211 . S
O35 C34 1.211 . S
C36 O28 1.284 . S
C36 O37 1.273 . S
O37 C36 1.273 . S
O38 Zn29 1.977 . S
O38 C31 1.267 . S
C39 O40 1.160 . S
C39 O46 1.185 . S
O40 C39 1.160 . S
O41 Zn42 1.899 . S
O41 C49 1.284 . S
Zn42 O41 1.899 . S
Zn42 O43 2.032 . S
Zn42 O46 2.086 . S
Zn42 O51 1.977 . S
O43 Zn42 2.032 . S
O43 C47 1.278 . S
C44 O45 1.203 . S
C44 O51 1.267 . S
O45 C44 1.203 . S
O46 C39 1.185 . S
O46 Zn42 2.086 . S
C47 O43 1.278 . S
C47 O48 1.211 . S
O48 C47 1.211 . S
C49 O41 1.284 . S
C49 O50 1.273 . S
O50 C49 1.273 . S
O51 Zn42 1.977 . S
O51 C44 1.267 . S
C52 O53 1.160 . S
C52 O59 1.185 . S
O53 C52 1.160 . S
O54 Zn55 1.899 . S
O54 C62 1.284 . S
Zn55 O54 1.899 . S
Zn55 O56 2.032 1_455 S
Zn55 O59 2.086 . S
Zn55 O64 1.977 1_455 S
O56 Zn55 2.032 1_655 S
O56 C60 1.278 . S
C57 O58 1.203 . S
C57 O64 1.267 . S
O58 C57 1.203 . S
O59 C52 1.185 . S
O59 Zn55 2.086 . S
C60 O56 1.278 . S
C60 O61 1.211 . S
O61 C60 1.211 . S
C62 O54 1.284 . S
C62 O63 1.273 . S
O63 C62 1.273 . S
O64 Zn55 1.977 1_655 S
O64 C57 1.267 . S
C65 O66 1.160 . S
C65 O72 1.185 . S
O66 C65 1.160 . S
O67 Zn68 1.899 . S
O67 C75 1.284 . S
Zn68 O67 1.899 . S
Zn68 O69 2.032 . S
Zn68 O72 2.086 . S
Zn68 O77 1.977 . S
O69 Zn68 2.032 . S
O69 C73 1.278 . S
C70 O71 1.203 . S
C70 O77 1.267 . S
O71 C70 1.203 . S
O72 C65 1.185 . S
O72 Zn68 2.086 . S
C73 O69 1.278 . S
C73 O74 1.211 . S
O74 C73 1.211 . S
C75 O67 1.284 . S
C75 O76 1.273 . S
O76 C75 1.273 . S
O77 Zn68 1.977 . S
O77 C70 1.267 . S
C78 O79 1.160 . S
C78 O85 1.185 . S
O79 C78 1.160 . S
O80 Zn81 1.899 . S
O80 C88 1.284 . S
Zn81 O80 1.899 . S
Zn81 O82 2.032 . S
Zn81 O85 2.086 . S
Zn81 O90 1.977 . S
O82 Zn81 2.032 . S
O82 C86 1.278 . S
C83 O84 1.203 . S
C83 O90 1.267 . S
O84 C83 1.203 . S
O85 C78 1.185 . S
O85 Zn81 2.086 . S
C86 O82 1.278 . S
C86 O87 1.211 . S
O87 C86 1.211 . S
C88 O80 1.284 . S
C88 O89 1.273 . S
O89 C88 1.273 . S
O90 Zn81 1.977 . S
O90 C83 1.267 . S
C91 O92 1.160 . S
C91 O98 1.185 . S
O92 C91 1.160 . S
O93 Zn94 1.899 . S
O93 C101 1.284 1_455 S
Zn94 O93 1.899 . S
Zn94 O95 2.032 . S
Zn94 O98 2.086 . S
Zn94 O103 1.977 . S
O95 Zn94 2.032 . S
O95 C99 1.278 1_455 S
C96 O97 1.203 . S
C96 O103 1.267 . S
O97 C96 1.203 . S
O98 C91 1.185 . S
O98 Zn94 2.086 . S
C99 O95 1.278 1_655 S
C99 O100 1.211 1_655 S
O100 C99 1.211 1_455 S
C101 O93 1.284 1_655 S
C101 O102 1.273 . S
O102 C101 1.273 . S
O103 Zn94 1.977 . S
O103 C96 1.267 . S
C104 O105 1.160 . S
C104 O111 1.185 . S
O105 C104 1.160 . S
O106 Zn107 1.899 . S
O106 C114 1.284 . S
Zn107 O106 1.899 . S
Zn107 O108 2.032 1_565 S
Zn107 O111 2.086 . S
Zn107 O116 1.977 1_565 S
O108 Zn107 2.032 1_545 S
O108 C112 1.278 . S
C109 O110 1.203 . S
C109 O116 1.267 . S
O110 C109 1.203 . S
O111 C104 1.185 . S
O111 Zn107 2.086 . S
C112 O108 1.278 . S
C112 O113 1.211 . S
O113 C112 1.211 . S
C114 O106 1.284 . S
C114 O115 1.273 . S
O115 C114 1.273 . S
O116 Zn107 1.977 1_545 S
O116 C109 1.267 . S
C117 O118 1.160 . S
C117 O124 1.185 . S
O118 C117 1.160 . S
O119 Zn120 1.899 . S
O119 C127 1.284 . S
Zn120 O119 1.899 . S
Zn120 O121 2.032 . S
Zn120 O124 2.086 . S
Zn120 O129 1.977 . S
O121 Zn120 2.032 . S
O121 C125 1.278 . S
C122 O123 1.203 . S
C122 O129 1.267 . S
O123 C122 1.203 . S
O124 C117 1.185 . S
O124 Zn120 2.086 . S
C125 O121 1.278 . S
C125 O126 1.211 . S
O126 C125 1.211 . S
C127 O119 1.284 . S
C127 O128 1.273 . S
O128 C127 1.273 . S
O129 Zn120 1.977 . S
O129 C122 1.267 . S
C130 O131 1.160 . S
C130 O137 1.185 1_565 S
O131 C130 1.160 . S
O132 Zn133 1.899 1_565 S
O132 C140 1.284 1_565 S
Zn133 O132 1.899 1_545 S
Zn133 O134 2.032 . S
Zn133 O137 2.086 . S
Zn133 O142 1.977 . S
O134 Zn133 2.032 . S
O134 C138 1.278 . S
C135 O136 1.203 . S
C135 O142 1.267 . S
O136 C135 1.203 . S
O137 C130 1.185 1_545 S
O137 Zn133 2.086 . S
C138 O134 1.278 . S
C138 O139 1.211 . S
O139 C138 1.211 . S
C140 O132 1.284 1_545 S
C140 O141 1.273 . S
O141 C140 1.273 . S
O142 Zn133 1.977 . S
O142 C135 1.267 . S
C143 O144 1.160 . S
C143 O150 1.185 . S
O144 C143 1.160 . S
O145 Zn146 1.899 . S
O145 C153 1.284 1_554 S
Zn146 O145 1.899 . S
Zn146 O147 2.032 1_554 S
Zn146 O150 2.086 . S
Zn146 O155 1.977 . S
O147 Zn146 2.032 1_556 S
O147 C151 1.278 . S
C148 O149 1.203 . S
C148 O155 1.267 1_545 S
O149 C148 1.203 . S
O150 C143 1.185 . S
O150 Zn146 2.086 . S
C151 O147 1.278 . S
C151 O152 1.211 . S
O152 C151 1.211 . S
C153 O145 1.284 1_556 S
C153 O154 1.273 . S
O154 C153 1.273 . S
O155 Zn146 1.977 . S
O155 C148 1.267 1_565 S
C156 O157 1.160 . S
C156 O163 1.185 . S
O157 C156 1.160 . S
O158 Zn159 1.899 1_556 S
O158 C166 1.284 . S
Zn159 O158 1.899 1_554 S
Zn159 O160 2.032 . S
Zn159 O163 2.086 1_554 S
Zn159 O168 1.977 . S
O160 Zn159 2.032 . S
O160 C164 1.278 . S
C161 O162 1.203 . S
C161 O168 1.267 . S
O162 C161 1.203 . S
O163 C156 1.185 . S
O163 Zn159 2.086 1_556 S
C164 O160 1.278 . S
C164 O165 1.211 . S
O165 C164 1.211 . S
C166 O158 1.284 . S
C166 O167 1.273 . S
O167 C166 1.273 . S
O168 Zn159 1.977 . S
O168 C161 1.267 . S
C169 O170 1.160 . S
C169 O176 1.185 . S
O170 C169 1.160 . S
O171 Zn172 1.899 . S
O171 C179 1.284 . S
Zn172 O171 1.899 . S
Zn172 O173 2.032 1_556 S
Zn172 O176 2.086 . S
Zn172 O181 1.977 1_556 S
O173 Zn172 2.032 1_554 S
O173 C177 1.278 . S
C174 O175 1.203 . S
C174 O181 1.267 . S
O175 C174 1.203 . S
O176 C169 1.185 . S
O176 Zn172 2.086 . S
C177 O173 1.278 . S
C177 O178 1.211 . S
O178 C177 1.211 . S
C179 O171 1.284 . S
C179 O180 1.273 . S
O180 C179 1.273 . S
O181 Zn172 1.977 1_554 S
O181 C174 1.267 . S
C182 O183 1.160 . S
C182 O189 1.185 . S
O183 C182 1.160 . S
O184 Zn185 1.899 . S
O184 C192 1.284 . S
Zn185 O184 1.899 . S
Zn185 O186 2.032 . S
Zn185 O189 2.086 . S
Zn185 O194 1.977 . S
O186 Zn185 2.032 . S
O186 C190 1.278 . S
C187 O188 1.203 . S
C187 O194 1.267 . S
O188 C187 1.203 . S
O189 C182 1.185 . S
O189 Zn185 2.086 . S
C190 O186 1.278 . S
C190 O191 1.211 . S
O191 C190 1.211 . S
C192 O184 1.284 . S
C192 O193 1.273 . S
O193 C192 1.273 . S
O194 Zn185 1.977 . S
O194 C187 1.267 . S
C195 O196 1.160 . S
C195 O202 1.185 . S
O196 C195 1.160 . S
O197 Zn198 1.899 . S
O197 C205 1.284 . S
Zn198 O197 1.899 . S
Zn198 O199 2.032 . S
Zn198 O202 2.086 . S
Zn198 O207 1.977 . S
O199 Zn198 2.032 . S
O199 C203 1.278 . S
C200 O201 1.203 . S
C200 O207 1.267 . S
O201 C200 1.203 . S
O202 C195 1.185 . S
O202 Zn198 2.086 . S
C203 O199 1.278 . S
C203 O204 1.211 . S
O204 C203 1.211 . S
C205 O197 1.284 . S
C205 O206 1.273 . S
O206 C205 1.273 . S
O207 Zn198 1.977 . S
O207 C200 1.267 . S
C208 O209 1.160 . S
C208 O215 1.185 . S
O209 C208 1.160 . S
O210 Zn211 1.899 1_565 S
O210 C218 1.284 . S
Zn211 O210 1.899 1_545 S
Zn211 O212 2.032 1_545 S
Zn211 O215 2.086 . S
Zn211 O220 1.977 . S
O212 Zn211 2.032 1_565 S
O212 C216 1.278 . S
C213 O214 1.203 1_655 S
C213 O220 1.267 . S
O214 C213 1.203 1_455 S
O215 C208 1.185 . S
O215 Zn211 2.086 . S
C216 O212 1.278 . S
C216 O217 1.211 . S
O217 C216 1.211 . S
C218 O210 1.284 . S
C218 O219 1.273 . S
O219 C218 1.273 . S
O220 Zn211 1.977 . S
O220 C213 1.267 . S
C221 O222 1.160 . S
C221 O228 1.185 . S
O222 C221 1.160 . S
O223 Zn224 1.899 . S
O223 C231 1.284 . S
Zn224 O223 1.899 . S
Zn224 O225 2.032 . S
Zn224 O228 2.086 . S
Zn224 O233 1.977 . S
O225 Zn224 2.032 . S
O225 C229 1.278 . S
C226 O227 1.203 . S
C226 O233 1.267 . S
O227 C226 1.203 . S
O228 C221 1.185 . S
O228 Zn224 2.086 . S
C229 O225 1.278 . S
C229 O230 1.211 . S
O230 C229 1.211 . S
C231 O223 1.284 . S
C231 O232 1.273 . S
O232 C231 1.273 . S
O233 Zn224 1.977 . S
O233 C226 1.267 . S
C234 O235 1.160 . S
C234 O241 1.185 . S
O235 C234 1.160 . S
O236 Zn237 1.899 . S
O236 C244 1.284 . S
Zn237 O236 1.899 . S
Zn237 O238 2.032 . S
Zn237 O241 2.086 . S
Zn237 O246 1.977 . S
O238 Zn237 2.032 . S
O238 C242 1.278 . S
C239 O240 1.203 . S
C239 O246 1.267 . S
O240 C239 1.203 . S
O241 C234 1.185 . S
O241 Zn237 2.086 . S
C242 O238 1.278 . S
C242 O243 1.211 . S
O243 C242 1.211 . S
C244 O236 1.284 . S
C244 O245 1.273 . S
O245 C244 1.273 . S
O246 Zn237 1.977 . S
O246 C239 1.267 . S
C247 O248 1.160 . S
C247 O254 1.185 . S
O248 C247 1.160 . S
O249 Zn250 1.899 . S
O249 C257 1.284 1_545 S
Zn250 O249 1.899 . S
Zn250 O251 2.032 . S
Zn250 O254 2.086 . S
Zn250 O259 1.977 . S
O251 Zn250 2.032 . S
O251 C255 1.278 1_545 S
C252 O253 1.203 . S
C252 O259 1.267 . S
O253 C252 1.203 . S
O254 C247 1.185 . S
O254 Zn250 2.086 . S
C255 O251 1.278 1_565 S
C255 O256 1.211 . S
O256 C255 1.211 . S
C257 O249 1.284 1_565 S
C257 O258 1.273 . S
O258 C257 1.273 . S
O259 Zn250 1.977 . S
O259 C252 1.267 . S
C260 O261 1.160 . S
C260 O267 1.185 . S
O261 C260 1.160 . S
O262 Zn263 1.899 1_556 S
O262 C270 1.284 . S
Zn263 O262 1.899 1_554 S
Zn263 O264 2.032 1_554 S
Zn263 O267 2.086 . S
Zn263 O272 1.977 . S
O264 Zn263 2.032 1_556 S
O264 C268 1.278 . S
C265 O266 1.203 . S
C265 O272 1.267 . S
O266 C265 1.203 . S
O267 C260 1.185 . S
O267 Zn263 2.086 . S
C268 O264 1.278 . S
C268 O269 1.211 . S
O269 C268 1.211 . S
C270 O262 1.284 . S
C270 O271 1.273 . S
O271 C270 1.273 . S
O272 Zn263 1.977 . S
O272 C265 1.267 . S
C273 O274 1.160 . S
C273 O280 1.185 . S
O274 C273 1.160 . S
O275 Zn276 1.899 . S
O275 C283 1.284 . S
Zn276 O275 1.899 . S
Zn276 O277 2.032 . S
Zn276 O280 2.086 . S
Zn276 O285 1.977 . S
O277 Zn276 2.032 . S
O277 C281 1.278 . S
C278 O279 1.203 . S
C278 O285 1.267 . S
O279 C278 1.203 . S
O280 C273 1.185 . S
O280 Zn276 2.086 . S
C281 O277 1.278 . S
C281 O282 1.211 . S
O282 C281 1.211 . S
C283 O275 1.284 . S
C283 O284 1.273 . S
O284 C283 1.273 . S
O285 Zn276 1.977 . S
O285 C278 1.267 . S
C286 O287 1.160 . S
C286 O293 1.185 . S
O287 C286 1.160 . S
O288 Zn289 1.899 . S
O288 C296 1.284 . S
Zn289 O288 1.899 . S
Zn289 O290 2.032 . S
Zn289 O293 2.086 . S
Zn289 O298 1.977 . S
O290 Zn289 2.032 . S
O290 C294 1.278 . S
C291 O292 1.203 . S
C291 O298 1.267 . S
O292 C291 1.203 . S
O293 C286 1.185 . S
O293 Zn289 2.086 . S
C294 O290 1.278 . S
C294 O295 1.211 . S
O295 C294 1.211 . S
C296 O288 1.284 . S
C296 O297 1.273 . S
O297 C296 1.273 . S
O298 Zn289 1.977 . S
O298 C291 1.267 . S
C299 O300 1.160 . S
C299 O306 1.185 . S
O300 C299 1.160 . S
O301 Zn302 1.899 . S
O301 C309 1.284 . S
Zn302 O301 1.899 . S
Zn302 O303 2.032 . S
Zn302 O306 2.086 . S
Zn302 O311 1.977 . S
O303 Zn302 2.032 . S
O303 C307 1.278 . S
C304 O305 1.203 . S
C304 O311 1.267 . S
O305 C304 1.203 . S
O306 C299 1.185 . S
O306 Zn302 2.086 . S
C307 O303 1.278 . S
C307 O308 1.211 . S
O308 C307 1.211 . S
C309 O301 1.284 . S
C309 O310 1.273 . S
O310 C309 1.273 . S
O311 Zn302 1.977 . S
O311 C304 1.267 . S
O312 Mn313 2.163 . S
O312 C326 1.244 . S
Mn313 O312 2.163 . S
Mn313 O316 2.160 . S
Mn313 O317 2.221 . S
Mn313 O319 2.163 . S
Mn313 O321 2.160 . S
Mn313 O331 2.221 . S
O314 Mn315 2.087 . S
O314 C326 1.256 . S
Mn315 O314 2.087 . S
Mn315 O322 2.089 . S
Mn315 O331 2.290 . S
Mn315 O332 2.251 . S
O316 Mn313 2.160 . S
O316 C327 1.239 . S
O317 Mn313 2.221 . S
O317 Mn318 2.290 . S
O317 C328 1.278 . S
Mn318 O317 2.290 . S
Mn318 O320 2.089 . S
Mn318 O323 2.251 1_554 S
Mn318 O324 2.087 . S
O319 Mn313 2.163 . S
O319 C329 1.244 . S
O320 Mn318 2.089 . S
O320 C327 1.256 . S
O321 Mn313 2.160 . S
O321 C330 1.239 . S
O322 Mn315 2.089 . S
O322 C330 1.256 . S
O323 Mn318 2.251 1_556 S
O323 C328 1.241 1_556 S
O324 Mn318 2.087 . S
O324 C329 1.256 . S
C325 O331 1.278 . S
C325 O332 1.241 . S
C326 O312 1.244 . S
C326 O314 1.256 . S
C327 O316 1.239 . S
C327 O320 1.256 . S
C328 O317 1.278 . S
C328 O323 1.241 1_554 S
C329 O319 1.244 . S
C329 O324 1.256 . S
C330 O321 1.239 . S
C330 O322 1.256 . S
O331 Mn313 2.221 . S
O331 Mn315 2.290 . S
O331 C325 1.278 . S
O332 Mn315 2.251 . S
O332 C325 1.241 . S
O333 Mn334 2.163 . S
O333 C347 1.244 . S
Mn334 O333 2.163 . S
Mn334 O337 2.160 . S
Mn334 O338 2.221 . S
Mn334 O340 2.163 . S
Mn334 O342 2.160 . S
Mn334 O352 2.221 . S
O335 Mn336 2.087 . S
O335 C347 1.256 . S
Mn336 O335 2.087 . S
Mn336 O343 2.089 . S
Mn336 O352 2.290 . S
Mn336 O353 2.251 . S
O337 Mn334 2.160 . S
O337 C348 1.239 1_565 S
O338 Mn334 2.221 . S
O338 Mn339 2.290 1_565 S
O338 C349 1.278 1_565 S
Mn339 O338 2.290 1_545 S
Mn339 O341 2.089 . S
Mn339 O344 2.251 1_455 S
Mn339 O345 2.087 1_545 S
O340 Mn334 2.163 . S
O340 C350 1.244 . S
O341 Mn339 2.089 . S
O341 C348 1.256 . S
O342 Mn334 2.160 . S
O342 C351 1.239 . S
O343 Mn336 2.089 . S
O343 C351 1.256 . S
O344 Mn339 2.251 1_655 S
O344 C349 1.241 1_655 S
O345 Mn339 2.087 1_565 S
O345 C350 1.256 . S
C346 O352 1.278 . S
C346 O353 1.241 . S
C347 O333 1.244 . S
C347 O335 1.256 . S
C348 O337 1.239 1_545 S
C348 O341 1.256 . S
C349 O338 1.278 1_545 S
C349 O344 1.241 1_455 S
C350 O340 1.244 . S
C350 O345 1.256 . S
C351 O342 1.239 . S
C351 O343 1.256 . S
O352 Mn334 2.221 . S
O352 Mn336 2.290 . S
O352 C346 1.278 . S
O353 Mn336 2.251 . S
O353 C346 1.241 . S
O354 Mn355 2.163 . S
O354 C368 1.244 1_565 S
Mn355 O354 2.163 . S
Mn355 O358 2.160 . S
Mn355 O359 2.221 . S
Mn355 O361 2.163 . S
Mn355 O363 2.160 . S
Mn355 O373 2.221 . S
O356 Mn357 2.087 . S
O356 C368 1.256 . S
Mn357 O356 2.087 . S
Mn357 O364 2.089 1_545 S
Mn357 O373 2.290 1_545 S
Mn357 O374 2.251 . S
O358 Mn355 2.160 . S
O358 C369 1.239 . S
O359 Mn355 2.221 . S
O359 Mn360 2.290 . S
O359 C370 1.278 . S
Mn360 O359 2.290 . S
Mn360 O362 2.089 . S
Mn360 O365 2.251 . S
Mn360 O366 2.087 . S
O361 Mn355 2.163 . S
O361 C371 1.244 . S
O362 Mn360 2.089 . S
O362 C369 1.256 . S
O363 Mn355 2.160 . S
O363 C372 1.239 . S
O364 Mn357 2.089 1_565 S
O364 C372 1.256 . S
O365 Mn360 2.251 . S
O365 C370 1.241 . S
O366 Mn360 2.087 . S
O366 C371 1.256 . S
C367 O373 1.278 1_545 S
C367 O374 1.241 . S
C368 O354 1.244 1_545 S
C368 O356 1.256 . S
C369 O358 1.239 . S
C369 O362 1.256 . S
C370 O359 1.278 . S
C370 O365 1.241 . S
C371 O361 1.244 . S
C371 O366 1.256 . S
C372 O363 1.239 . S
C372 O364 1.256 . S
O373 Mn355 2.221 . S
O373 Mn357 2.290 1_565 S
O373 C367 1.278 1_565 S
O374 Mn357 2.251 . S
O374 C367 1.241 . S
O375 Mn376 2.163 . S
O375 C389 1.244 1_556 S
Mn376 O375 2.163 . S
Mn376 O379 2.160 . S
Mn376 O380 2.221 . S
Mn376 O382 2.163 . S
Mn376 O384 2.160 . S
Mn376 O394 2.221 . S
O377 Mn378 2.087 1_554 S
O377 C389 1.256 . S
Mn378 O377 2.087 1_556 S
Mn378 O385 2.089 1_556 S
Mn378 O394 2.290 . S
Mn378 O395 2.251 . S
O379 Mn376 2.160 . S
O379 C390 1.239 . S
O380 Mn376 2.221 . S
O380 Mn381 2.290 . S
O380 C391 1.278 . S
Mn381 O380 2.290 . S
Mn381 O383 2.089 . S
Mn381 O386 2.251 . S
Mn381 O387 2.087 . S
O382 Mn376 2.163 . S
O382 C392 1.244 . S
O383 Mn381 2.089 . S
O383 C390 1.256 . S
O384 Mn376 2.160 . S
O384 C393 1.239 1_556 S
O385 Mn378 2.089 1_554 S
O385 C393 1.256 . S
O386 Mn381 2.251 . S
O386 C391 1.241 . S
O387 Mn381 2.087 . S
O387 C392 1.256 . S
C388 O394 1.278 . S
C388 O395 1.241 . S
C389 O375 1.244 1_554 S
C389 O377 1.256 . S
C390 O379 1.239 . S
C390 O383 1.256 . S
C391 O380 1.278 . S
C391 O386 1.241 . S
C392 O382 1.244 . S
C392 O387 1.256 . S
C393 O384 1.239 1_554 S
C393 O385 1.256 . S
O394 Mn376 2.221 . S
O394 Mn378 2.290 . S
O394 C388 1.278 . S
O395 Mn378 2.251 . S
O395 C388 1.241 . S
O396 Mn397 2.163 . S
O396 C410 1.244 . S
Mn397 O396 2.163 . S
Mn397 O400 2.160 . S
Mn397 O401 2.221 . S
Mn397 O403 2.163 . S
Mn397 O405 2.160 . S
Mn397 O415 2.221 . S
O398 Mn399 2.087 . S
O398 C410 1.256 . S
Mn399 O398 2.087 . S
Mn399 O406 2.089 . S
Mn399 O415 2.290 . S
Mn399 O416 2.251 . S
O400 Mn397 2.160 . S
O400 C411 1.239 . S
O401 Mn397 2.221 . S
O401 Mn402 2.290 . S
O401 C412 1.278 . S
Mn402 O401 2.290 . S
Mn402 O404 2.089 1_556 S
Mn402 O407 2.251 . S
Mn402 O408 2.087 . S
O403 Mn397 2.163 . S
O403 C413 1.244 . S
O404 Mn402 2.089 1_554 S
O404 C411 1.256 1_554 S
O405 Mn397 2.160 . S
O405 C414 1.239 . S
O406 Mn399 2.089 . S
O406 C414 1.256 . S
O407 Mn402 2.251 . S
O407 C412 1.241 . S
O408 Mn402 2.087 . S
O408 C413 1.256 . S
C409 O415 1.278 . S
C409 O416 1.241 . S
C410 O396 1.244 . S
C410 O398 1.256 . S
C411 O400 1.239 . S
C411 O404 1.256 1_556 S
C412 O401 1.278 . S
C412 O407 1.241 . S
C413 O403 1.244 . S
C413 O408 1.256 . S
C414 O405 1.239 . S
C414 O406 1.256 . S
O415 Mn397 2.221 . S
O415 Mn399 2.290 . S
O415 C409 1.278 . S
O416 Mn399 2.251 . S
O416 C409 1.241 . S
O417 Mn418 2.163 . S
O417 C431 1.244 1_655 S
Mn418 O417 2.163 . S
Mn418 O421 2.160 . S
Mn418 O422 2.221 . S
Mn418 O424 2.163 . S
Mn418 O426 2.160 . S
Mn418 O436 2.221 . S
O419 Mn420 2.087 . S
O419 C431 1.256 . S
Mn420 O419 2.087 . S
Mn420 O427 2.089 . S
Mn420 O436 2.290 1_455 S
Mn420 O437 2.251 1_455 S
O421 Mn418 2.160 . S
O421 C432 1.239 . S
O422 Mn418 2.221 . S
O422 Mn423 2.290 . S
O422 C433 1.278 . S
Mn423 O422 2.290 . S
Mn423 O425 2.089 . S
Mn423 O428 2.251 . S
Mn423 O429 2.087 . S
O424 Mn418 2.163 . S
O424 C434 1.244 . S
O425 Mn423 2.089 . S
O425 C432 1.256 . S
O426 Mn418 2.160 . S
O426 C435 1.239 1_655 S
O427 Mn420 2.089 . S
O427 C435 1.256 . S
O428 Mn423 2.251 . S
O428 C433 1.241 . S
O429 Mn423 2.087 . S
O429 C434 1.256 . S
C430 O436 1.278 . S
C430 O437 1.241 . S
C431 O417 1.244 1_455 S
C431 O419 1.256 . S
C432 O421 1.239 . S
C432 O425 1.256 . S
C433 O422 1.278 . S
C433 O428 1.241 . S
C434 O424 1.244 . S
C434 O429 1.256 . S
C435 O426 1.239 1_455 S
C435 O427 1.256 . S
O436 Mn418 2.221 . S
O436 Mn420 2.290 1_655 S
O436 C430 1.278 . S
O437 Mn420 2.251 1_655 S
O437 C430 1.241 . S
O438 Mn439 2.163 . S
O438 C452 1.244 . S
Mn439 O438 2.163 . S
Mn439 O442 2.160 . S
Mn439 O443 2.221 . S
Mn439 O445 2.163 . S
Mn439 O447 2.160 . S
Mn439 O457 2.221 . S
O440 Mn441 2.087 1_455 S
O440 C452 1.256 1_455 S
Mn441 O440 2.087 1_655 S
Mn441 O448 2.089 . S
Mn441 O457 2.290 . S
Mn441 O458 2.251 1_655 S
O442 Mn439 2.160 . S
O442 C453 1.239 . S
O443 Mn439 2.221 . S
O443 Mn444 2.290 . S
O443 C454 1.278 . S
Mn444 O443 2.290 . S
Mn444 O446 2.089 . S
Mn444 O449 2.251 . S
Mn444 O450 2.087 . S
O445 Mn439 2.163 . S
O445 C455 1.244 . S
O446 Mn444 2.089 . S
O446 C453 1.256 . S
O447 Mn439 2.160 . S
O447 C456 1.239 . S
O448 Mn441 2.089 . S
O448 C456 1.256 . S
O449 Mn444 2.251 . S
O449 C454 1.241 . S
O450 Mn444 2.087 . S
O450 C455 1.256 . S
C451 O457 1.272 1_455 S
C451 O458 1.246 . S
C452 O438 1.244 . S
C452 O440 1.256 1_655 S
C453 O442 1.239 . S
C453 O446 1.256 . S
C454 O443 1.278 . S
C454 O449 1.241 . S
C455 O445 1.244 . S
C455 O450 1.256 . S
C456 O447 1.239 . S
C456 O448 1.256 . S
O457 Mn439 2.221 . S
O457 Mn441 2.290 . S
O457 C451 1.272 1_655 S
O458 Mn441 2.251 1_455 S
O458 C451 1.246 . S
O459 Mn460 2.163 . S
O459 C473 1.244 . S
Mn460 O459 2.163 . S
Mn460 O463 2.147 1_565 S
Mn460 O464 2.221 . S
Mn460 O466 2.163 1_565 S
Mn460 O468 2.160 . S
Mn460 O478 2.221 . S
O461 Mn462 2.087 . S
O461 C473 1.256 . S
Mn462 O461 2.087 . S
Mn462 O469 2.089 . S
Mn462 O478 2.290 . S
Mn462 O479 2.251 . S
O463 Mn460 2.147 1_545 S
O463 C474 1.254 . S
O464 Mn460 2.221 . S
O464 Mn465 2.290 1_665 S
O464 C475 1.278 1_556 S
Mn465 O464 2.290 1_445 S
Mn465 O467 2.089 . S
Mn465 O470 2.251 1_446 S
Mn465 O471 2.087 1_456 S
O466 Mn460 2.163 1_545 S
O466 C476 1.244 . S
O467 Mn465 2.089 . S
O467 C474 1.256 1_455 S
O468 Mn460 2.160 . S
O468 C477 1.239 . S
O469 Mn462 2.089 . S
O469 C477 1.256 . S
O470 Mn465 2.251 1_664 S
O470 C475 1.241 . S
O471 Mn465 2.087 1_654 S
O471 C476 1.256 1_554 S
C472 O478 1.278 . S
C472 O479 1.241 . S
C473 O459 1.244 . S
C473 O461 1.256 . S
C474 O463 1.254 . S
C474 O467 1.256 1_655 S
C475 O464 1.278 1_554 S
C475 O470 1.241 . S
C476 O466 1.244 . S
C476 O471 1.256 1_556 S
C477 O468 1.239 . S
C477 O469 1.256 . S
O478 Mn460 2.221 . S
O478 Mn462 2.290 . S
O478 C472 1.278 . S
O479 Mn462 2.251 . S
O479 C472 1.241 . S
O480 Mn481 2.163 . S
O480 C494 1.244 . S
Mn481 O480 2.163 . S
Mn481 O484 2.160 . S
Mn481 O485 2.221 . S
Mn481 O487 2.163 . S
Mn481 O489 2.160 . S
Mn481 O499 2.221 . S
O482 Mn483 2.087 . S
O482 C494 1.256 . S
Mn483 O482 2.087 . S
Mn483 O490 2.089 . S
Mn483 O499 2.290 . S
Mn483 O500 2.251 . S
O484 Mn481 2.160 . S
O484 C495 1.239 . S
O485 Mn481 2.221 . S
O485 Mn486 2.290 1_655 S
O485 C496 1.278 1_655 S
Mn486 O485 2.290 1_455 S
Mn486 O488 2.089 1_455 S
Mn486 O491 2.251 . S
Mn486 O492 2.087 . S
O487 Mn481 2.163 . S
O487 C497 1.244 . S
O488 Mn486 2.089 1_655 S
O488 C495 1.256 . S
O489 Mn481 2.160 . S
O489 C498 1.239 . S
O490 Mn483 2.089 . S
O490 C498 1.256 . S
O491 Mn486 2.251 . S
O491 C496 1.241 . S
O492 Mn486 2.087 . S
O492 C497 1.256 1_455 S
C493 O499 1.278 . S
C493 O500 1.241 . S
C494 O480 1.244 . S
C494 O482 1.256 . S
C495 O484 1.239 . S
C495 O488 1.256 . S
C496 O485 1.278 1_455 S
C496 O491 1.241 . S
C497 O487 1.244 . S
C497 O492 1.256 1_655 S
C498 O489 1.239 . S
C498 O490 1.256 . S
O499 Mn481 2.221 . S
O499 Mn483 2.290 . S
O499 C493 1.278 . S
O500 Mn483 2.251 . S
O500 C493 1.241 . S
O501 Mn502 2.163 . S
O501 C515 1.244 . S
Mn502 O501 2.163 . S
Mn502 O505 2.160 . S
Mn502 O506 2.221 . S
Mn502 O508 2.163 . S
Mn502 O510 2.160 . S
Mn502 O520 2.221 . S
O503 Mn504 2.087 . S
O503 C515 1.256 . S
Mn504 O503 2.087 . S
Mn504 O511 2.089 . S
Mn504 O520 2.290 . S
Mn504 O521 2.251 . S
O505 Mn502 2.160 . S
O505 C516 1.239 . S
O506 Mn502 2.221 . S
O506 Mn507 2.290 . S
O506 C517 1.278 . S
Mn507 O506 2.290 . S
Mn507 O509 2.089 . S
Mn507 O512 2.251 . S
Mn507 O513 2.087 . S
O508 Mn502 2.163 . S
O508 C518 1.244 . S
O509 Mn507 2.089 . S
O509 C516 1.256 . S
O510 Mn502 2.160 . S
O510 C519 1.239 . S
O511 Mn504 2.089 . S
O511 C519 1.256 . S
O512 Mn507 2.251 . S
O512 C517 1.241 . S
O513 Mn507 2.087 . S
O513 C518 1.256 . S
C514 O520 1.278 . S
C514 O521 1.241 . S
C515 O501 1.244 . S
C515 O503 1.256 . S
C516 O505 1.239 . S
C516 O509 1.256 . S
C517 O506 1.278 . S
C517 O512 1.241 . S
C518 O508 1.244 . S
C518 O513 1.256 . S
C519 O510 1.239 . S
C519 O511 1.256 . S
O520 Mn502 2.221 . S
O520 Mn504 2.290 . S
O520 C514 1.278 . S
O521 Mn504 2.251 . S
O521 C514 1.241 . S
O522 Mn523 2.163 . S
O522 C536 1.244 . S
Mn523 O522 2.163 . S
Mn523 O526 2.160 . S
Mn523 O527 2.221 . S
Mn523 O529 2.163 . S
Mn523 O531 2.160 . S
Mn523 O541 2.221 . S
O524 Mn525 2.087 1_565 S
O524 C536 1.256 . S
Mn525 O524 2.087 1_545 S
Mn525 O532 2.089 . S
Mn525 O541 2.290 1_545 S
Mn525 O542 2.251 1_545 S
O526 Mn523 2.160 . S
O526 C537 1.239 . S
O527 Mn523 2.221 . S
O527 Mn528 2.290 . S
O527 C538 1.278 . S
Mn528 O527 2.290 . S
Mn528 O530 2.089 . S
Mn528 O533 2.251 . S
Mn528 O534 2.087 . S
O529 Mn523 2.163 . S
O529 C539 1.244 . S
O530 Mn528 2.089 . S
O530 C537 1.256 . S
O531 Mn523 2.160 . S
O531 C540 1.239 1_565 S
O532 Mn525 2.089 . S
O532 C540 1.256 . S
O533 Mn528 2.251 . S
O533 C538 1.241 . S
O534 Mn528 2.087 . S
O534 C539 1.256 . S
C535 O541 1.278 . S
C535 O542 1.242 . S
C536 O522 1.244 . S
C536 O524 1.256 . S
C537 O526 1.239 . S
C537 O530 1.256 . S
C538 O527 1.278 . S
C538 O533 1.241 . S
C539 O529 1.244 . S
C539 O534 1.256 . S
C540 O531 1.239 1_545 S
C540 O532 1.256 . S
O541 Mn523 2.221 . S
O541 Mn525 2.290 1_565 S
O541 C535 1.278 . S
O542 Mn525 2.251 1_565 S
O542 C535 1.242 . S
O543 Mn544 2.163 . S
O543 C557 1.244 . S
Mn544 O543 2.163 . S
Mn544 O547 2.160 . S
Mn544 O548 2.221 . S
Mn544 O550 2.163 . S
Mn544 O552 2.160 . S
Mn544 O562 2.221 . S
O545 Mn546 2.087 . S
O545 C557 1.256 . S
Mn546 O545 2.087 . S
Mn546 O553 2.089 . S
Mn546 O562 2.290 . S
Mn546 O563 2.251 . S
O547 Mn544 2.160 . S
O547 C558 1.239 . S
O548 Mn544 2.221 . S
O548 Mn549 2.290 . S
O548 C559 1.278 . S
Mn549 O548 2.290 . S
Mn549 O551 2.089 . S
Mn549 O554 2.251 . S
Mn549 O555 2.087 . S
O550 Mn544 2.163 . S
O550 C560 1.244 . S
O551 Mn549 2.089 . S
O551 C558 1.256 . S
O552 Mn544 2.160 . S
O552 C561 1.239 . S
O553 Mn546 2.089 . S
O553 C561 1.256 . S
O554 Mn549 2.251 . S
O554 C559 1.241 . S
O555 Mn549 2.087 . S
O555 C560 1.256 . S
C556 O562 1.278 . S
C556 O563 1.241 . S
C557 O543 1.244 . S
C557 O545 1.256 . S
C558 O547 1.239 . S
C558 O551 1.256 . S
C559 O548 1.278 . S
C559 O554 1.241 . S
C560 O550 1.244 . S
C560 O555 1.256 . S
C561 O552 1.239 . S
C561 O553 1.256 . S
O562 Mn544 2.221 . S
O562 Mn546 2.290 . S
O562 C556 1.278 . S
O563 Mn546 2.251 . S
O563 C556 1.241 . S
O564 Mn565 2.163 . S
O564 C578 1.244 . S
Mn565 O564 2.163 . S
Mn565 O568 2.160 . S
Mn565 O569 2.221 . S
Mn565 O571 2.163 . S
Mn565 O573 2.160 . S
Mn565 O583 2.221 . S
O566 Mn567 2.087 . S
O566 C578 1.256 . S
Mn567 O566 2.087 . S
Mn567 O574 2.089 . S
Mn567 O583 2.290 . S
Mn567 O584 2.251 . S
O568 Mn565 2.160 . S
O568 C579 1.239 . S
O569 Mn565 2.221 . S
O569 Mn570 2.290 . S
O569 C580 1.278 1_556 S
Mn570 O569 2.290 . S
Mn570 O572 2.089 . S
Mn570 O575 2.251 1_556 S
Mn570 O576 2.087 1_556 S
O571 Mn565 2.163 . S
O571 C581 1.244 . S
O572 Mn570 2.089 . S
O572 C579 1.256 . S
O573 Mn565 2.160 . S
O573 C582 1.239 . S
O574 Mn567 2.089 . S
O574 C582 1.256 . S
O575 Mn570 2.251 1_554 S
O575 C580 1.241 . S
O576 Mn570 2.087 1_554 S
O576 C581 1.256 1_554 S
C577 O583 1.278 . S
C577 O584 1.241 . S
C578 O564 1.244 . S
C578 O566 1.256 . S
C579 O568 1.239 . S
C579 O572 1.256 . S
C580 O569 1.278 1_554 S
C580 O575 1.241 . S
C581 O571 1.244 . S
C581 O576 1.256 1_556 S
C582 O573 1.239 . S
C582 O574 1.256 . S
O583 Mn565 2.221 . S
O583 Mn567 2.290 . S
O583 C577 1.278 . S
O584 Mn567 2.251 . S
O584 C577 1.241 . S
O585 Mn586 2.163 . S
O585 C599 1.244 . S
Mn586 O585 2.163 . S
Mn586 O589 2.160 . S
Mn586 O590 2.221 . S
Mn586 O592 2.163 . S
Mn586 O594 2.160 . S
Mn586 O604 2.221 . S
O587 Mn588 2.087 . S
O587 C599 1.256 . S
Mn588 O587 2.087 . S
Mn588 O595 2.089 . S
Mn588 O604 2.290 . S
Mn588 O605 2.251 1_455 S
O589 Mn586 2.160 . S
O589 C600 1.239 . S
O590 Mn586 2.221 . S
O590 Mn591 2.290 . S
O590 C601 1.278 . S
Mn591 O590 2.290 . S
Mn591 O593 2.089 . S
Mn591 O596 2.251 . S
Mn591 O597 2.087 . S
O592 Mn586 2.163 . S
O592 C602 1.244 . S
O593 Mn591 2.089 . S
O593 C600 1.256 . S
O594 Mn586 2.160 . S
O594 C603 1.239 . S
O595 Mn588 2.089 . S
O595 C603 1.256 . S
O596 Mn591 2.251 . S
O596 C601 1.241 . S
O597 Mn591 2.087 . S
O597 C602 1.256 . S
C598 O604 1.278 . S
C598 O605 1.241 1_455 S
C599 O585 1.244 . S
C599 O587 1.256 . S
C600 O589 1.239 . S
C600 O593 1.256 . S
C601 O590 1.278 . S
C601 O596 1.241 . S
C602 O592 1.244 . S
C602 O597 1.256 . S
C603 O594 1.239 . S
C603 O595 1.256 . S
O604 Mn586 2.221 . S
O604 Mn588 2.290 . S
O604 C598 1.278 . S
O605 Mn588 2.251 1_655 S
O605 C598 1.241 1_655 S
O606 Mn607 2.163 . S
O606 C620 1.244 . S
Mn607 O606 2.163 . S
Mn607 O610 2.160 . S
Mn607 O611 2.221 . S
Mn607 O613 2.163 . S
Mn607 O615 2.160 . S
Mn607 O625 2.221 . S
O608 Mn609 2.087 . S
O608 C620 1.256 . S
Mn609 O608 2.087 . S
Mn609 O616 2.089 . S
Mn609 O625 2.290 . S
Mn609 O626 2.251 . S
O610 Mn607 2.160 . S
O610 C621 1.239 . S
O611 Mn607 2.221 . S
O611 Mn612 2.290 . S
O611 C622 1.278 . S
Mn612 O611 2.290 . S
Mn612 O614 2.089 . S
Mn612 O617 2.251 . S
Mn612 O618 2.087 . S
O613 Mn607 2.163 . S
O613 C623 1.244 . S
O614 Mn612 2.089 . S
O614 C621 1.256 . S
O615 Mn607 2.160 . S
O615 C624 1.239 . S
O616 Mn609 2.089 . S
O616 C624 1.256 . S
O617 Mn612 2.251 . S
O617 C622 1.241 . S
O618 Mn612 2.087 . S
O618 C623 1.256 . S
C619 O625 1.278 . S
C619 O626 1.241 . S
C620 O606 1.244 . S
C620 O608 1.256 . S
C621 O610 1.239 . S
C621 O614 1.256 . S
C622 O611 1.278 . S
C622 O617 1.241 . S
C623 O613 1.244 . S
C623 O618 1.256 . S
C624 O615 1.239 . S
C624 O616 1.256 . S
O625 Mn607 2.221 . S
O625 Mn609 2.290 . S
O625 C619 1.278 . S
O626 Mn609 2.251 . S
O626 C619 1.241 . S
O627 Mn628 2.163 . S
O627 C641 1.244 . S
Mn628 O627 2.163 . S
Mn628 O631 2.160 . S
Mn628 O632 2.221 . S
Mn628 O634 2.163 . S
Mn628 O636 2.160 . S
Mn628 O646 2.221 . S
O629 Mn630 2.087 . S
O629 C641 1.256 . S
Mn630 O629 2.087 . S
Mn630 O637 2.089 . S
Mn630 O646 2.290 . S
Mn630 O647 2.251 . S
O631 Mn628 2.160 . S
O631 C642 1.239 . S
O632 Mn628 2.221 . S
O632 Mn633 2.290 . S
O632 C643 1.278 . S
Mn633 O632 2.290 . S
Mn633 O635 2.089 . S
Mn633 O638 2.251 . S
Mn633 O639 2.087 . S
O634 Mn628 2.163 . S
O634 C644 1.244 . S
O635 Mn633 2.089 . S
O635 C642 1.256 . S
O636 Mn628 2.160 . S
O636 C645 1.239 . S
O637 Mn630 2.089 . S
O637 C645 1.256 . S
O638 Mn633 2.251 . S
O638 C643 1.241 . S
O639 Mn633 2.087 . S
O639 C644 1.256 . S
C640 O646 1.278 . S
C640 O647 1.241 . S
C641 O627 1.244 . S
C641 O629 1.256 . S
C642 O631 1.239 . S
C642 O635 1.256 . S
C643 O632 1.278 . S
C643 O638 1.241 . S
C644 O634 1.244 . S
C644 O639 1.256 . S
C645 O636 1.239 . S
C645 O637 1.256 . S
O646 Mn628 2.221 . S
O646 Mn630 2.290 . S
O646 C640 1.278 . S
O647 Mn630 2.251 . S
O647 C640 1.241 . S
C330 C0 1.423 . S
C18 C350 1.828 . S
C370 C34 1.817 . S
C389 C49 2.197 . S
C347 C62 2.284 . S
C73 C372 2.069 . S
C392 C83 1.815 . S
C91 C328 1.689 1_556 S
C109 C325 1.524 . S
C348 C125 2.103 . S
C371 C130 1.955 . S
C393 C153 2.456 1_544 S
C351 C114 2.170 . S
C367 C117 1.399 . S
C138 C390 1.816 . S
C329 C148 1.321 . S
C161 C326 1.838 . S
C169 C409 1.282 . S
C431 C190 1.800 . S
C454 C205 1.684 . S
C213 C327 1.611 1_655 S
C229 C369 2.054 . S
C451 C182 1.684 . S
C412 C244 1.916 . S
C477 C21 2.385 . S
C497 C5 2.164 . S
C39 C519 1.944 . S
C36 C536 2.170 1_556 S
C101 C494 2.152 . S
C78 C517 1.717 . S
C539 C70 2.299 . S
C60 C475 2.100 . S
C257 C472 1.581 . S
C495 C203 2.573 1_545 S
C514 C208 2.236 . S
C540 C174 1.938 . S
C498 C252 1.676 . S
C518 C195 2.010 1_545 S
C537 C216 1.923 . S
C179 C476 2.136 . S
C473 C270 2.103 . S
C143 C556 1.445 . S
C579 C281 2.140 1_455 S
C122 C601 1.494 . S
C474 C140 2.231 1_655 S
C515 C294 2.299 . S
C598 C273 2.273 1_455 S
C304 C559 1.186 . S
C26 C624 1.422 . S
C44 C413 1.828 1_554 S
C433 C8 1.817 . S
C23 C452 2.197 . S
C88 C410 2.284 . S
C99 C435 2.068 1_656 S
C455 C57 1.815 . S
C622 C65 1.689 . S
C619 C278 1.526 . S
C411 C268 2.103 . S
C434 C299 1.955 . S
C296 C456 2.456 . S
C414 C283 2.170 . S
C260 C430 1.398 . S
C453 C307 1.816 . S
C291 C623 1.321 . S
C620 C200 1.838 . S
C221 C346 1.282 . S
C368 C255 1.800 1_545 S
C166 C391 1.684 . S
C621 C239 1.612 . S
C432 C177 2.054 . S
C388 C247 1.678 . S
C349 C218 1.916 1_445 S
C47 C645 2.385 . S
C31 C560 2.164 1_556 S
C13 C582 1.944 . S
C599 C10 2.170 . S
C557 C75 2.152 . S
C52 C580 1.718 . S
C602 C96 2.299 . S
C86 C643 2.101 . S
C640 C192 1.580 . S
C164 C558 2.573 . S
C234 C577 2.236 . S
C603 C226 1.938 . S
C561 C187 1.676 . S
C156 C581 2.010 . S
C600 C242 1.923 . S
C644 C231 2.136 . S
C641 C127 2.103 . S
C493 C286 1.445 . S
C112 C516 2.141 . S
C265 C538 1.494 . S
C642 C309 2.231 . S
C578 C151 2.299 . S
C535 C104 2.271 . S
C496 C135 1.185 . S
