# Generated by pormake.
# Topology nia, (6,6)-cn, num edge types: 1
# Building blocks:
#     Node 0, Type 0, BuildingBlock: HISSIN_clean_sbu_0, # of connection points: 6
#     Node 1, Type 0, BuildingBlock: HISSIN_clean_sbu_0, # of connection points: 6
#     Node 2, Type 1, BuildingBlock: MIDCAF_clean_sbu_0, # of connection points: 6
#     Node 3, Type 1, BuildingBlock: MIDCAF_clean_sbu_0, # of connection points: 6
#     Edge 4, Type (0, 1), BuildingBlock: KIFKEQ_clean_linker_1, # of connection points: 2
#     Edge 5, Type (0, 1), BuildingBlock: KIFKEQ_clean_linker_1, # of connection points: 2
#     Edge 6, Type (0, 1), BuildingBlock: KIFKEQ_clean_linker_1, # of connection points: 2
#     Edge 7, Type (0, 1), BuildingBlock: KIFKEQ_clean_linker_1, # of connection points: 2
#     Edge 8, Type (0, 1), BuildingBlock: KIFKEQ_clean_linker_1, # of connection points: 2
#     Edge 9, Type (0, 1), BuildingBlock: KIFKEQ_clean_linker_1, # of connection points: 2
#     Edge 10, Type (0, 1), BuildingBlock: KIFKEQ_clean_linker_1, # of connection points: 2
#     Edge 11, Type (0, 1), BuildingBlock: KIFKEQ_clean_linker_1, # of connection points: 2
#     Edge 12, Type (0, 1), BuildingBlock: KIFKEQ_clean_linker_1, # of connection points: 2
#     Edge 13, Type (0, 1), BuildingBlock: KIFKEQ_clean_linker_1, # of connection points: 2
#     Edge 14, Type (0, 1), BuildingBlock: KIFKEQ_clean_linker_1, # of connection points: 2
#     Edge 15, Type (0, 1), BuildingBlock: KIFKEQ_clean_linker_1, # of connection points: 2
# Relax obj value: 0.352
# Max RMSD: 0.264
# Mean RMSD: 0.253
data_MOF--net-nia--node1-HISSIN_clean_sbu_0--node2-MIDCAF_clean_sbu_0--edge1-KIFKEQ_clean_linker_1
_symmetry_space_group_name_H-M    P1
_symmetry_Int_Tables_number       1
_symmetry_cell_setting            triclinic
loop_
_symmetry_equiv_pos_as_xyz
'x, y, z'
_cell_length_a     26.075372
_cell_length_b     25.913069
_cell_length_c     33.333068
_cell_angle_alpha  79.12557
_cell_angle_beta   78.641189
_cell_angle_gamma 116.35244
loop_
_atom_site_label
_atom_site_type_symbol
_atom_site_fract_x
_atom_site_fract_y
_atom_site_fract_z
_atom_type_partial_charge
Eu0 Eu 0.02109 0.07159 0.06898 0.0
Eu1 Eu 0.9735 0.95156 0.03656 0.0
C2 C 0.10786 0.06668 0.98908 0.0
C3 C 0.04579 0.18685 0.1318 0.0
C4 C 0.04886 0.24334 0.12318 0.0
C5 C 0.03307 0.18119 0.20702 0.0
C6 C 0.04627 0.26961 0.15584 0.0
C7 C 0.03513 0.15465 0.17438 0.0
C8 C 0.04112 0.23996 0.19761 0.0
C9 C 0.06174 0.16646 0.09537 0.0
O10 O -0.01017 0.92279 0.09892 0.0
O11 O 0.06267 0.01747 0.0927 0.0
C12 C 0.03569 0.95848 0.10957 0.0
O13 O 0.93273 0.00518 0.12178 0.0
O14 O 0.904 0.88377 1.01851 0.0
O15 O 0.98612 0.88083 1.01748 0.0
O16 O 0.89178 0.9351 0.08721 0.0
C17 C 0.88678 0.95797 0.11882 0.0
O18 O 0.95364 0.07154 0.03649 0.0
O19 O 0.96971 0.02361 0.9888 0.0
O20 O 0.07402 0.00732 1.00267 0.0
O21 O 0.07593 0.12418 0.10316 0.0
O22 O 0.02984 0.1597 0.06919 0.0
O23 O 0.08893 0.10093 1.00374 0.0
C24 C 0.93634 0.84263 0.96792 0.0
C25 C 0.98826 0.84783 0.94081 0.0
C26 C 0.87863 0.79329 0.92417 0.0
C27 C 0.98486 0.82435 0.90627 0.0
C28 C 0.88202 0.81658 0.95854 0.0
C29 C 0.9295 0.79518 0.89838 0.0
C30 C 0.93579 0.85827 1.00828 0.0
C31 C 0.94969 0.05856 1.00072 0.0
H32 H 0.05709 0.26888 0.0906 0.0
H33 H 0.02866 0.15728 0.23902 0.0
H34 H 0.05333 0.31527 0.14745 0.0
H35 H 0.0319 0.11057 0.18202 0.0
H36 H 0.03091 0.86787 0.94717 0.0
H37 H 0.83492 0.77013 0.91975 0.0
H38 H 0.02494 0.82688 0.88682 0.0
H39 H 0.84122 0.81156 0.9791 0.0
Eu40 Eu 0.93786 -0.00605 0.52872 0.0
Eu41 Eu 0.04901 0.03177 0.56888 0.0
C42 C 0.93901 0.89307 0.60264 0.0
C43 C 0.83824 0.97094 0.45418 0.0
C44 C 0.84263 0.0248 0.4309 0.0
C45 C 0.79537 0.92186 0.40444 0.0
C46 C 0.82164 0.02643 0.39539 0.0
C47 C 0.8163 0.92029 0.43971 0.0
C48 C 0.79554 0.97415 0.38284 0.0
C49 C 0.84968 0.964 0.49593 0.0
O50 O 0.05987 0.97564 0.52794 0.0
O51 O 0.01439 -0.00295 0.4802 0.0
C52 C 0.05007 0.97731 0.49068 0.0
O53 O -0.00547 0.09549 0.49978 0.0
O54 O 0.07861 0.0551 0.62268 0.0
O55 O 0.14231 0.0609 0.56639 0.0
O56 O 0.08475 0.11059 0.50838 0.0
C57 C 0.05287 0.13028 0.49127 0.0
O58 O 0.90322 -0.00093 0.59491 0.0
O59 O -0.00511 0.0746 0.58934 0.0
O60 O 0.98067 0.93581 0.61267 0.0
O61 O 0.87391 0.93055 0.50456 0.0
O62 O 0.87028 0.01129 0.50926 0.0
O63 O 0.92211 0.90558 0.56928 0.0
C64 C 0.16118 0.04582 0.63387 0.0
C65 C 0.19111 0.01418 0.62346 0.0
C66 C 0.19913 0.05702 0.6943 0.0
C67 C 0.22671 0.006 0.64756 0.0
C68 C 0.16358 0.06497 0.67038 0.0
C69 C 0.23321 0.02981 0.68206 0.0
C70 C 0.13319 0.06609 0.60506 0.0
C71 C 0.93649 0.04366 0.60782 0.0
H72 H 0.85964 0.06475 0.4412 0.0
H73 H 0.77466 0.88027 0.39645 0.0
H74 H 0.82295 0.06758 0.37919 0.0
H75 H 0.81209 0.87809 0.45717 0.0
H76 H 0.18946 -0.00156 0.59561 0.0
H77 H 0.20352 0.07669 0.72022 0.0
H78 H 0.25176 0.98405 0.63774 0.0
H79 H 0.14086 0.08956 0.67893 0.0
Zn80 Zn 0.339 0.73853 0.21319 0.0
Zn81 Zn 0.28385 0.69278 0.38848 0.0
Zn82 Zn 0.30504 0.71726 0.30111 0.0
C83 C 0.40787 0.77072 0.34624 0.0
C84 C 0.23913 0.58151 0.37381 0.0
O85 O 0.25999 0.76476 0.27655 0.0
O86 O 0.29515 0.78447 0.20594 0.0
C87 C 0.44524 0.78935 0.23196 0.0
O88 O 0.39 0.76493 0.31321 0.0
O89 O 0.37102 0.74224 0.38402 0.0
O90 O 0.24411 0.60291 0.40477 0.0
O91 O 0.25852 0.61722 0.33492 0.0
O92 O 0.42845 0.78436 0.1992 0.0
O93 O 0.40574 0.76773 0.26969 0.0
O94 O 0.26496 0.62984 0.2907 0.0
O95 O 0.29594 0.64933 0.21984 0.0
C96 C 0.26555 0.61183 0.25731 0.0
O97 O 0.25008 0.75837 0.32118 0.0
O98 O 0.2315 0.73035 0.39191 0.0
C99 C 0.26288 0.78797 0.23787 0.0
C100 C 0.22468 0.75672 0.35904 0.0
Zn101 Zn 0.65697 0.28821 0.88469 0.0
Zn102 Zn 0.73296 0.33291 0.71633 0.0
Zn103 Zn 0.69364 0.3075 0.79896 0.0
C104 C 0.7657 0.44371 0.72586 0.0
C105 C 0.60727 0.24998 0.74687 0.0
O106 O 0.73092 0.25365 0.8283 0.0
O107 O 0.69226 0.23545 0.89813 0.0
C108 C 0.73527 0.41327 0.84313 0.0
O109 O 0.74459 0.40873 0.76523 0.0
O110 O 0.76334 0.421 0.69549 0.0
O111 O 0.65328 0.27269 0.71405 0.0
O112 O 0.61224 0.2627 0.78187 0.0
O113 O 0.70325 0.37582 0.88035 0.0
O114 O 0.7358 0.39548 0.80957 0.0
O115 O 0.59206 0.26161 0.82443 0.0
O116 O 0.56882 0.24939 0.8945 0.0
C117 C 0.55252 0.24357 0.86165 0.0
O118 O 0.74494 0.26037 0.78323 0.0
O119 O 0.79284 0.30583 0.7133 0.0
C120 C 0.72401 0.22891 0.86776 0.0
C121 C 0.78254 0.26798 0.74804 0.0
H122 H 0.13091 0.02116 0.13613 0.0
H123 H -0.00089 0.83842 0.14799 0.0
H124 H 0.18132 0.98183 0.17601 0.0
H125 H 0.05022 0.79912 0.18838 0.0
H126 H 0.30002 0.88866 0.17267 0.0
H127 H 0.23918 0.93002 0.14983 0.0
H128 H 0.08445 0.79462 0.25887 0.0
H129 H 0.14642 0.75346 0.28236 0.0
C130 C 0.11212 0.97248 0.14765 0.0
C131 C 0.06142 0.93298 0.13817 0.0
C132 C 0.14108 0.95005 0.17063 0.0
C133 C 0.11989 0.88755 0.18504 0.0
C134 C 0.06721 0.84755 0.17786 0.0
C135 C 0.03827 0.87008 0.15448 0.0
C136 C 0.25336 0.86852 0.19231 0.0
C137 C 0.22786 0.81803 0.22926 0.0
C138 C 0.21855 0.89222 0.17928 0.0
C139 C 0.15707 0.86536 0.2025 0.0
C140 C 0.13173 0.81592 0.24034 0.0
C141 C 0.16716 0.7928 0.25394 0.0
H142 H 0.23241 0.01894 0.76596 0.0
H143 H 0.3473 0.05981 0.63817 0.0
H144 H 0.32133 0.05975 0.78964 0.0
H145 H 0.435 0.09935 0.6618 0.0
H146 H 0.49717 0.23987 0.7765 0.0
H147 H 0.40171 0.16671 0.77049 0.0
H148 H 0.49277 0.08542 0.70697 0.0
H149 H 0.58765 0.15866 0.7133 0.0
C150 C 0.27635 0.03514 0.74325 0.0
C151 C 0.28282 0.03698 0.7 0.0
C152 C 0.32715 0.05858 0.75679 0.0
C153 C 0.38514 0.08361 0.72741 0.0
C154 C 0.39093 0.07997 0.68538 0.0
C155 C 0.34036 0.05694 0.67182 0.0
C156 C 0.49594 0.20507 0.76263 0.0
C157 C 0.5491 0.20445 0.7456 0.0
C158 C 0.44155 0.1632 0.75907 0.0
C159 C 0.43979 0.12027 0.7382 0.0
C160 C 0.49285 0.11834 0.72278 0.0
C161 C 0.54707 0.16031 0.72622 0.0
H162 H -0.00115 0.31391 0.2194 0.0
H163 H 0.1194 0.24758 0.24228 0.0
H164 H 0.04821 0.3951 0.24936 0.0
H165 H 0.16839 0.32855 0.27221 0.0
H166 H 0.1512 0.53381 0.31137 0.0
H167 H 0.08544 0.4289 0.31439 0.0
H168 H 0.23124 0.44069 0.21806 0.0
H169 H 0.29625 0.54541 0.21452 0.0
C170 C 0.03426 0.31532 0.23236 0.0
C171 C 0.05594 0.27514 0.2279 0.0
C172 C 0.06224 0.36148 0.24971 0.0
C173 C 0.11254 0.36828 0.2624 0.0
C174 C 0.12987 0.32423 0.26233 0.0
C175 C 0.10153 0.27774 0.24543 0.0
C176 C 0.16922 0.51335 0.29145 0.0
C177 C 0.22844 0.54726 0.26254 0.0
C178 C 0.13178 0.45361 0.29327 0.0
C179 C 0.15358 0.42689 0.26673 0.0
C180 C 0.21374 0.46006 0.23936 0.0
C181 C 0.25068 0.52 0.23695 0.0
H182 H 0.81902 0.01901 0.63772 0.0
H183 H -0.006 0.11091 0.65451 0.0
H184 H 0.78153 0.06454 0.68566 0.0
H185 H 0.95653 0.15523 0.70246 0.0
H186 H 0.89664 0.30136 0.70402 0.0
H187 H 0.93159 0.23563 0.68116 0.0
H188 H 0.76023 0.07826 0.76018 0.0
H189 H 0.72547 0.145 0.7836 0.0
C190 C 0.84898 0.04774 0.65235 0.0
C191 C 0.90976 0.06254 0.64154 0.0
C192 C 0.82747 0.07346 0.68002 0.0
C193 C 0.8664 0.11404 0.6974 0.0
C194 C 0.92578 0.12495 0.68904 0.0
C195 C 0.94722 0.09965 0.6614 0.0
C196 C 0.86733 0.25265 0.71777 0.0
C197 C 0.80853 0.22813 0.7455 0.0
C198 C 0.88722 0.21488 0.70468 0.0
C199 C 0.84837 0.15172 0.71852 0.0
C200 C 0.79088 0.12681 0.74873 0.0
C201 C 0.7713 0.16483 0.76251 0.0
H202 H 0.79509 0.84096 0.14669 0.0
H203 H 0.83902 0.01781 0.15815 0.0
H204 H 0.68883 0.80241 0.18479 0.0
H205 H 0.7319 0.97927 0.19558 0.0
H206 H 0.53449 0.89811 0.17529 0.0
H207 H 0.64367 0.94076 0.15956 0.0
H208 H 0.61245 0.78663 0.25876 0.0
H209 H 0.50286 0.74465 0.27518 0.0
C210 C 0.78219 0.87124 0.15823 0.0
C211 C 0.82536 0.93245 0.14929 0.0
C212 C 0.72138 0.84908 0.1802 0.0
C213 C 0.70212 0.88795 0.19291 0.0
C214 C 0.74562 0.94843 0.18601 0.0
C215 C 0.80686 0.97033 0.16483 0.0
C216 C 0.55107 0.87409 0.1943 0.0
C217 C 0.51051 0.81828 0.22645 0.0
C218 C 0.61342 0.89862 0.18554 0.0
C219 C 0.63648 0.86701 0.20798 0.0
C220 C 0.59583 0.81191 0.24102 0.0
C221 C 0.53332 0.788 0.25043 0.0
H222 H 0.94432 0.84171 0.68167 0.0
H223 H 0.87321 0.79606 0.5787 0.0
H224 H 0.90302 0.73281 0.71828 0.0
H225 H 0.83389 0.68944 0.61457 0.0
H226 H 0.86153 0.527 0.65658 0.0
H227 H 0.90431 0.6368 0.63283 0.0
H228 H 0.77866 0.62245 0.74585 0.0
H229 H 0.73363 0.51129 0.76896 0.0
C230 C 0.91982 0.80879 0.66698 0.0
C231 C 0.91233 0.82788 0.62713 0.0
C232 C 0.89608 0.74667 0.68799 0.0
C233 C 0.86562 0.70311 0.66899 0.0
C234 C 0.85738 0.7222 0.62976 0.0
C235 C 0.87998 0.78352 0.60929 0.0
C236 C 0.84333 0.54717 0.67667 0.0
C237 C 0.79467 0.51058 0.71492 0.0
C238 C 0.86809 0.60999 0.66319 0.0
C239 C 0.84504 0.63792 0.68769 0.0
C240 C 0.79775 0.60192 0.72677 0.0
C241 C 0.77226 0.53852 0.74005 0.0
H242 H 0.12893 0.9385 0.50207 0.0
H243 H 0.03259 0.95936 0.41408 0.0
H244 H 0.16506 0.88696 0.46057 0.0
H245 H 0.07013 0.90744 0.37199 0.0
H246 H 0.24463 0.86589 0.30935 0.0
H247 H 0.19925 0.92515 0.33307 0.0
H248 H 0.07992 0.7748 0.44887 0.0
H249 H 0.12455 0.71613 0.42559 0.0
C250 C 0.11595 0.93287 0.47357 0.0
C251 C 0.07716 0.95256 0.46177 0.0
C252 C 0.13689 0.90342 0.44977 0.0
C253 C 0.12009 0.89318 0.41335 0.0
C254 C 0.08376 0.91517 0.39995 0.0
C255 C 0.06228 0.94464 0.4241 0.0
C256 C 0.20716 0.84491 0.33901 0.0
C257 C 0.18852 0.78679 0.36595 0.0
C258 C 0.18134 0.87874 0.35254 0.0
C259 C 0.13661 0.85442 0.3929 0.0
C260 C 0.11449 0.79445 0.4177 0.0
C261 C 0.14015 0.76102 0.40439 0.0
H262 H 0.16024 0.01183 0.9477 0.0
H263 H 0.19871 0.18515 0.96451 0.0
H264 H 0.26631 0.05445 0.90742 0.0
H265 H 0.305 0.22733 0.92516 0.0
H266 H 0.49229 0.29985 0.83618 0.0
H267 H 0.38255 0.25797 0.85829 0.0
H268 H 0.35727 0.08464 0.92628 0.0
H269 H 0.46649 0.1266 0.90328 0.0
C270 C 0.19116 0.05921 0.94251 0.0
C271 C 0.17082 0.09484 0.95979 0.0
C272 C 0.25217 0.08359 0.91954 0.0
C273 C 0.29462 0.14422 0.91336 0.0
C274 C 0.27372 0.18065 0.92884 0.0
C275 C 0.21262 0.15631 0.95168 0.0
C276 C 0.46286 0.25236 0.85478 0.0
C277 C 0.48741 0.21598 0.8674 0.0
C278 C 0.40013 0.22848 0.86787 0.0
C279 C 0.36077 0.16788 0.8943 0.0
C280 C 0.3858 0.13113 0.90544 0.0
C281 C 0.4484 0.15507 0.89237 0.0
H282 H -0.00226 0.19078 0.46171 0.0
H283 H 0.1736 0.2169 0.46112 0.0
H284 H 0.04265 0.29916 0.42643 0.0
H285 H 0.21845 0.32577 0.42528 0.0
H286 H 0.27877 0.51709 0.33326 0.0
H287 H 0.23439 0.4061 0.3546 0.0
H288 H 0.09111 0.3864 0.4578 0.0
H289 H 0.13563 0.4965 0.43685 0.0
C290 C 0.04612 0.21934 0.4535 0.0
C291 C 0.08191 0.19498 0.46479 0.0
C292 C 0.07176 0.28154 0.43332 0.0
C293 C 0.13392 0.32092 0.42338 0.0
C294 C 0.17041 0.29638 0.43238 0.0
C295 C 0.14462 0.23407 0.45312 0.0
C296 C 0.23733 0.48872 0.36007 0.0
C297 C 0.21026 0.51505 0.3833 0.0
C298 C 0.21224 0.42547 0.37243 0.0
C299 C 0.15926 0.38768 0.40781 0.0
C300 C 0.13156 0.41428 0.43014 0.0
C301 C 0.15713 0.47724 0.4183 0.0
H302 H 0.88753 0.11406 1.02519 0.0
H303 H 0.9412 0.05466 0.91972 0.0
H304 H 0.83271 0.14842 0.98722 0.0
H305 H 0.88562 0.09025 0.88113 0.0
H306 H 0.83393 0.2457 0.82291 0.0
H307 H 0.88932 0.19867 0.85001 0.0
H308 H 0.73735 0.08842 0.96634 0.0
H309 H 0.68219 0.13431 0.93935 0.0
C310 C 0.88796 0.10849 0.99374 0.0
C311 C 0.91865 0.08122 0.97564 0.0
C312 C 0.85616 0.12801 0.97208 0.0
C313 C 0.85436 0.12135 0.9315 0.0
C314 C 0.88628 0.09572 0.91248 0.0
C315 C 0.91782 0.07527 0.93459 0.0
C316 C 0.81169 0.20983 0.85349 0.0
C317 C 0.75387 0.19384 0.8791 0.0
C318 C 0.84346 0.18317 0.86906 0.0
C319 C 0.81781 0.14059 0.9105 0.0
C320 C 0.75845 0.12172 0.93454 0.0
C321 C 0.72693 0.14805 0.91908 0.0
H322 H 0.72114 0.02164 0.37822 0.0
H323 H 0.78348 0.9136 0.32272 0.0
H324 H 0.63435 0.9823 0.35297 0.0
H325 H 0.69434 0.87215 0.29933 0.0
H326 H 0.47831 0.74171 0.38399 0.0
H327 H 0.58595 0.8062 0.37263 0.0
H328 H 0.58921 0.95219 0.28279 0.0
H329 H 0.4814 0.88662 0.29312 0.0
C330 C 0.71811 -0.0082 0.3589 0.0
C331 C 0.75829 0.96921 0.35375 0.0
C332 C 0.66812 0.96917 0.34453 0.0
C333 C 0.65749 0.92346 0.32519 0.0
C334 C 0.70166 0.907 0.3147 0.0
C335 C 0.75228 0.93043 0.32837 0.0
C336 C 0.50223 0.7874 0.36165 0.0
C337 C 0.47214 0.80967 0.33962 0.0
C338 C 0.56367 0.82386 0.35468 0.0
C339 C 0.5955 0.88355 0.32638 0.0
C340 C 0.56545 0.906 0.30431 0.0
C341 C 0.50412 0.86888 0.31049 0.0
H342 H 0.8609 0.78201 0.8442 0.0
H343 H 0.97841 0.72318 0.8861 0.0
H344 H 0.82116 0.69657 0.81617 0.0
H345 H 0.94007 0.63953 0.85679 0.0
H346 H 0.69788 0.47953 0.88066 0.0
H347 H 0.75768 0.586 0.87538 0.0
H348 H 0.91373 0.59853 0.79026 0.0
H349 H 0.85288 0.49166 0.79466 0.0
C350 C 0.87974 0.75219 0.84612 0.0
C351 C 0.92146 0.75831 0.86856 0.0
C352 C 0.85723 0.70363 0.82986 0.0
C353 C 0.87691 0.66118 0.83514 0.0
C354 C 0.92434 0.67185 0.85229 0.0
C355 C 0.94635 0.71996 0.86904 0.0
C356 C 0.74474 0.50532 0.86047 0.0
C357 C 0.77113 0.47786 0.83827 0.0
C358 C 0.77869 0.56625 0.85695 0.0
C359 C 0.84001 0.60037 0.83201 0.0
C360 C 0.86639 0.57311 0.80935 0.0
C361 C 0.83187 0.51226 0.81207 0.0
loop_
_geom_bond_atom_site_label_1
_geom_bond_atom_site_label_2
_geom_bond_distance
_geom_bond_site_symmetry_2
_ccdc_geom_bond_type
Eu0 C9 2.828 . S
Eu0 O11 2.392 1_545 S
Eu0 O13 2.418 1_455 S
Eu0 O18 2.373 1_455 S
Eu0 O21 2.488 . S
Eu0 O22 2.471 . S
Eu0 O23 2.349 1_554 S
Eu1 O10 2.373 1_656 S
Eu1 O14 2.488 1_655 S
Eu1 O15 2.471 . S
Eu1 O16 2.349 1_556 S
Eu1 O19 2.392 1_565 S
Eu1 O20 2.418 1_665 S
Eu1 C30 2.828 . S
C2 O20 1.244 . S
C2 O23 1.265 . S
C3 C4 1.379 . S
C3 C7 1.373 . S
C3 C9 1.505 . S
C4 C3 1.379 . S
C4 C6 1.369 . S
C4 H32 0.930 . S
C5 C7 1.383 . S
C5 C8 1.382 . S
C5 H33 0.930 . S
C6 C4 1.369 . S
C6 C8 1.392 . S
C6 H34 0.930 . S
C7 C3 1.373 . S
C7 C5 1.383 . S
C7 H35 0.931 . S
C8 C5 1.382 . S
C8 C6 1.392 . S
C9 Eu0 2.828 . S
C9 C3 1.505 . S
C9 O21 1.249 . S
C9 O22 1.244 . S
O10 Eu1 2.373 1_454 S
O10 C12 1.258 . S
O11 Eu0 2.392 1_565 S
O11 C12 1.242 . S
C12 O10 1.258 . S
C12 O11 1.242 . S
O13 Eu0 2.418 1_655 S
O13 C17 1.244 1_545 S
O14 Eu1 2.488 1_455 S
O14 C30 1.249 1_455 S
O15 Eu1 2.471 . S
O15 C30 1.244 . S
O16 Eu1 2.349 1_554 S
O16 C17 1.265 . S
C17 O13 1.244 1_565 S
C17 O16 1.265 . S
O18 Eu0 2.373 1_655 S
O18 C31 1.258 1_554 S
O19 Eu1 2.392 1_545 S
O19 C31 1.242 . S
O20 Eu1 2.418 1_445 S
O20 C2 1.244 . S
O21 Eu0 2.488 . S
O21 C9 1.249 . S
O22 Eu0 2.471 . S
O22 C9 1.244 . S
O23 Eu0 2.349 1_556 S
O23 C2 1.265 . S
C24 C25 1.379 . S
C24 C28 1.373 . S
C24 C30 1.505 . S
C25 C24 1.379 . S
C25 C27 1.369 . S
C25 H36 0.930 1_556 S
C26 C28 1.383 . S
C26 C29 1.382 . S
C26 H37 0.930 . S
C27 C25 1.369 . S
C27 C29 1.392 . S
C27 H38 0.930 1_556 S
C28 C24 1.373 . S
C28 C26 1.383 . S
C28 H39 0.931 1_655 S
C29 C26 1.382 . S
C29 C27 1.392 . S
C30 Eu1 2.828 . S
C30 O14 1.249 1_655 S
C30 O15 1.244 . S
C30 C24 1.505 . S
C31 O18 1.258 1_556 S
C31 O19 1.242 . S
H32 C4 0.930 . S
H33 C5 0.930 . S
H34 C6 0.930 . S
H35 C7 0.931 . S
H36 C25 0.930 1_554 S
H37 C26 0.930 . S
H38 C27 0.930 1_554 S
H39 C28 0.931 1_455 S
Eu40 C49 2.828 . S
Eu40 O51 2.392 1_655 S
Eu40 O53 2.418 1_665 S
Eu40 O58 2.373 1_565 S
Eu40 O61 2.488 1_565 S
Eu40 O62 2.471 . S
Eu40 O63 2.349 . S
Eu41 O50 2.373 1_545 S
Eu41 O54 2.488 . S
Eu41 O55 2.471 . S
Eu41 O56 2.349 . S
Eu41 O59 2.392 1_455 S
Eu41 O60 2.418 1_445 S
Eu41 C70 2.828 . S
C42 O60 1.244 . S
C42 O63 1.265 . S
C43 C44 1.379 . S
C43 C47 1.373 . S
C43 C49 1.505 . S
C44 C43 1.379 . S
C44 C46 1.369 . S
C44 H72 0.930 . S
C45 C47 1.383 . S
C45 C48 1.382 . S
C45 H73 0.930 . S
C46 C44 1.369 . S
C46 C48 1.392 . S
C46 H74 0.930 . S
C47 C43 1.373 . S
C47 C45 1.383 . S
C47 H75 0.931 1_565 S
C48 C45 1.382 . S
C48 C46 1.392 . S
C49 Eu40 2.828 . S
C49 C43 1.505 . S
C49 O61 1.249 1_565 S
C49 O62 1.244 . S
O50 Eu41 2.373 1_565 S
O50 C52 1.258 . S
O51 Eu40 2.392 1_455 S
O51 C52 1.242 . S
C52 O50 1.258 . S
C52 O51 1.242 . S
O53 Eu40 2.418 1_445 S
O53 C57 1.244 . S
O54 Eu41 2.488 . S
O54 C70 1.249 . S
O55 Eu41 2.471 . S
O55 C70 1.244 . S
O56 Eu41 2.349 . S
O56 C57 1.265 . S
C57 O53 1.244 . S
C57 O56 1.265 . S
O58 Eu40 2.373 1_545 S
O58 C71 1.258 . S
O59 Eu41 2.392 1_655 S
O59 C71 1.242 . S
O60 Eu41 2.418 1_665 S
O60 C42 1.244 . S
O61 Eu40 2.488 1_545 S
O61 C49 1.249 1_545 S
O62 Eu40 2.471 . S
O62 C49 1.244 . S
O63 Eu40 2.349 . S
O63 C42 1.265 . S
C64 C65 1.379 . S
C64 C68 1.373 . S
C64 C70 1.505 . S
C65 C64 1.379 . S
C65 C67 1.369 . S
C65 H76 0.930 . S
C66 C68 1.383 . S
C66 C69 1.382 . S
C66 H77 0.930 . S
C67 C65 1.369 . S
C67 C69 1.392 . S
C67 H78 0.930 . S
C68 C64 1.373 . S
C68 C66 1.383 . S
C68 H79 0.931 . S
C69 C66 1.382 . S
C69 C67 1.392 . S
C70 Eu41 2.828 . S
C70 O54 1.249 . S
C70 O55 1.244 . S
C70 C64 1.505 . S
C71 O58 1.258 . S
C71 O59 1.242 . S
H72 C44 0.930 . S
H73 C45 0.930 . S
H74 C46 0.930 . S
H75 C47 0.931 1_545 S
H76 C65 0.930 . S
H77 C66 0.930 . S
H78 C67 0.930 . S
H79 C68 0.931 . S
Zn80 O86 1.920 . S
Zn80 O92 1.898 . S
Zn80 O95 1.905 . S
Zn81 O89 1.905 . S
Zn81 O90 1.898 . S
Zn81 O98 1.920 . S
Zn82 O85 2.080 . S
Zn82 O88 2.114 . S
Zn82 O91 2.120 . S
Zn82 O93 2.120 . S
Zn82 O94 2.114 . S
Zn82 O97 2.080 . S
C83 O88 1.166 . S
C83 O89 1.182 . S
C84 O90 1.167 . S
C84 O91 1.299 . S
O85 Zn82 2.080 . S
O85 C99 1.305 . S
O86 Zn80 1.920 . S
O86 C99 1.234 . S
C87 O92 1.167 . S
C87 O93 1.299 . S
O88 Zn82 2.114 . S
O88 C83 1.166 . S
O89 Zn81 1.905 . S
O89 C83 1.182 . S
O90 Zn81 1.898 . S
O90 C84 1.167 . S
O91 Zn82 2.120 . S
O91 C84 1.299 . S
O92 Zn80 1.898 . S
O92 C87 1.167 . S
O93 Zn82 2.120 . S
O93 C87 1.299 . S
O94 Zn82 2.114 . S
O94 C96 1.166 . S
O95 Zn80 1.905 . S
O95 C96 1.182 . S
C96 O94 1.166 . S
C96 O95 1.182 . S
O97 Zn82 2.080 . S
O97 C100 1.305 . S
O98 Zn81 1.920 . S
O98 C100 1.234 . S
C99 O85 1.305 . S
C99 O86 1.234 . S
C100 O97 1.305 . S
C100 O98 1.234 . S
Zn101 O107 1.920 . S
Zn101 O113 1.898 . S
Zn101 O116 1.905 . S
Zn102 O110 1.905 . S
Zn102 O111 1.898 . S
Zn102 O119 1.920 . S
Zn103 O106 2.080 . S
Zn103 O109 2.114 . S
Zn103 O112 2.120 . S
Zn103 O114 2.120 . S
Zn103 O115 2.114 . S
Zn103 O118 2.080 . S
C104 O109 1.166 . S
C104 O110 1.182 . S
C105 O111 1.167 . S
C105 O112 1.299 . S
O106 Zn103 2.080 . S
O106 C120 1.305 . S
O107 Zn101 1.920 . S
O107 C120 1.234 . S
C108 O113 1.167 . S
C108 O114 1.299 . S
O109 Zn103 2.114 . S
O109 C104 1.166 . S
O110 Zn102 1.905 . S
O110 C104 1.182 . S
O111 Zn102 1.898 . S
O111 C105 1.167 . S
O112 Zn103 2.120 . S
O112 C105 1.299 . S
O113 Zn101 1.898 . S
O113 C108 1.167 . S
O114 Zn103 2.120 . S
O114 C108 1.299 . S
O115 Zn103 2.114 . S
O115 C117 1.166 . S
O116 Zn101 1.905 . S
O116 C117 1.182 . S
C117 O115 1.166 . S
C117 O116 1.182 . S
O118 Zn103 2.080 . S
O118 C121 1.305 . S
O119 Zn102 1.920 . S
O119 C121 1.234 . S
C120 O106 1.305 . S
C120 O107 1.234 . S
C121 O118 1.305 . S
C121 O119 1.234 . S
H122 C130 0.950 1_655 S
H123 C135 0.950 . S
H124 C132 0.950 . S
H125 C134 0.950 . S
H126 C136 0.950 . S
H127 C138 0.950 . S
H128 C140 0.950 . S
H129 C141 0.950 . S
C130 H122 0.950 1_455 S
C130 C131 1.386 . S
C130 C132 1.391 . S
C131 C130 1.386 . S
C131 C135 1.393 . S
C132 H124 0.950 . S
C132 C130 1.391 . S
C132 C133 1.400 . S
C133 C132 1.400 . S
C133 C134 1.398 . S
C133 C139 1.491 . S
C134 H125 0.950 . S
C134 C133 1.398 . S
C134 C135 1.391 . S
C135 H123 0.950 . S
C135 C131 1.393 . S
C135 C134 1.391 . S
C136 H126 0.950 . S
C136 C137 1.386 . S
C136 C138 1.391 . S
C137 C136 1.386 . S
C137 C141 1.393 . S
C138 H127 0.950 . S
C138 C136 1.391 . S
C138 C139 1.400 . S
C139 C133 1.491 . S
C139 C138 1.400 . S
C139 C140 1.398 . S
C140 H128 0.950 . S
C140 C139 1.398 . S
C140 C141 1.391 . S
C141 H129 0.950 . S
C141 C137 1.393 . S
C141 C140 1.391 . S
H142 C150 0.950 . S
H143 C155 0.950 . S
H144 C152 0.950 . S
H145 C154 0.950 . S
H146 C156 0.950 . S
H147 C158 0.950 . S
H148 C160 0.950 . S
H149 C161 0.950 . S
C150 H142 0.950 . S
C150 C151 1.386 . S
C150 C152 1.391 . S
C151 C150 1.386 . S
C151 C155 1.393 . S
C152 H144 0.950 . S
C152 C150 1.391 . S
C152 C153 1.400 . S
C153 C152 1.400 . S
C153 C154 1.398 . S
C153 C159 1.491 . S
C154 H145 0.950 . S
C154 C153 1.398 . S
C154 C155 1.391 . S
C155 H143 0.950 . S
C155 C151 1.393 . S
C155 C154 1.391 . S
C156 H146 0.950 . S
C156 C157 1.386 . S
C156 C158 1.391 . S
C157 C156 1.386 . S
C157 C161 1.393 . S
C158 H147 0.950 . S
C158 C156 1.391 . S
C158 C159 1.400 . S
C159 C153 1.491 . S
C159 C158 1.400 . S
C159 C160 1.398 . S
C160 H148 0.950 . S
C160 C159 1.398 . S
C160 C161 1.391 . S
C161 H149 0.950 . S
C161 C157 1.393 . S
C161 C160 1.391 . S
H162 C170 0.950 . S
H163 C175 0.950 . S
H164 C172 0.950 . S
H165 C174 0.950 . S
H166 C176 0.950 . S
H167 C178 0.950 . S
H168 C180 0.950 . S
H169 C181 0.950 . S
C170 H162 0.950 . S
C170 C171 1.386 . S
C170 C172 1.391 . S
C171 C170 1.386 . S
C171 C175 1.393 . S
C172 H164 0.950 . S
C172 C170 1.391 . S
C172 C173 1.400 . S
C173 C172 1.400 . S
C173 C174 1.398 . S
C173 C179 1.491 . S
C174 H165 0.950 . S
C174 C173 1.398 . S
C174 C175 1.391 . S
C175 H163 0.950 . S
C175 C171 1.393 . S
C175 C174 1.391 . S
C176 H166 0.950 . S
C176 C177 1.386 . S
C176 C178 1.391 . S
C177 C176 1.386 . S
C177 C181 1.393 . S
C178 H167 0.950 . S
C178 C176 1.391 . S
C178 C179 1.400 . S
C179 C173 1.491 . S
C179 C178 1.400 . S
C179 C180 1.398 . S
C180 H168 0.950 . S
C180 C179 1.398 . S
C180 C181 1.391 . S
C181 H169 0.950 . S
C181 C177 1.393 . S
C181 C180 1.391 . S
H182 C190 0.950 . S
H183 C195 0.950 . S
H184 C192 0.950 . S
H185 C194 0.950 . S
H186 C196 0.950 . S
H187 C198 0.950 . S
H188 C200 0.950 . S
H189 C201 0.950 . S
C190 H182 0.950 . S
C190 C191 1.386 . S
C190 C192 1.391 . S
C191 C190 1.386 . S
C191 C195 1.393 . S
C192 H184 0.950 . S
C192 C190 1.391 . S
C192 C193 1.400 . S
C193 C192 1.400 . S
C193 C194 1.398 . S
C193 C199 1.491 . S
C194 H185 0.950 . S
C194 C193 1.398 . S
C194 C195 1.391 . S
C195 H183 0.950 . S
C195 C191 1.393 . S
C195 C194 1.391 . S
C196 H186 0.950 . S
C196 C197 1.386 . S
C196 C198 1.391 . S
C197 C196 1.386 . S
C197 C201 1.393 . S
C198 H187 0.950 . S
C198 C196 1.391 . S
C198 C199 1.400 . S
C199 C193 1.491 . S
C199 C198 1.400 . S
C199 C200 1.398 . S
C200 H188 0.950 . S
C200 C199 1.398 . S
C200 C201 1.391 . S
C201 H189 0.950 . S
C201 C197 1.393 . S
C201 C200 1.391 . S
H202 C210 0.950 . S
H203 C215 0.950 . S
H204 C212 0.950 . S
H205 C214 0.950 . S
H206 C216 0.950 . S
H207 C218 0.950 . S
H208 C220 0.950 . S
H209 C221 0.950 . S
C210 H202 0.950 . S
C210 C211 1.386 . S
C210 C212 1.391 . S
C211 C210 1.386 . S
C211 C215 1.393 . S
C212 H204 0.950 . S
C212 C210 1.391 . S
C212 C213 1.400 . S
C213 C212 1.400 . S
C213 C214 1.398 . S
C213 C219 1.491 . S
C214 H205 0.950 . S
C214 C213 1.398 . S
C214 C215 1.391 . S
C215 H203 0.950 . S
C215 C211 1.393 . S
C215 C214 1.391 . S
C216 H206 0.950 . S
C216 C217 1.386 . S
C216 C218 1.391 . S
C217 C216 1.386 . S
C217 C221 1.393 . S
C218 H207 0.950 . S
C218 C216 1.391 . S
C218 C219 1.400 . S
C219 C213 1.491 . S
C219 C218 1.400 . S
C219 C220 1.398 . S
C220 H208 0.950 . S
C220 C219 1.398 . S
C220 C221 1.391 . S
C221 H209 0.950 . S
C221 C217 1.393 . S
C221 C220 1.391 . S
H222 C230 0.950 . S
H223 C235 0.950 . S
H224 C232 0.950 . S
H225 C234 0.950 . S
H226 C236 0.950 . S
H227 C238 0.950 . S
H228 C240 0.950 . S
H229 C241 0.950 . S
C230 H222 0.950 . S
C230 C231 1.386 . S
C230 C232 1.391 . S
C231 C230 1.386 . S
C231 C235 1.393 . S
C232 H224 0.950 . S
C232 C230 1.391 . S
C232 C233 1.400 . S
C233 C232 1.400 . S
C233 C234 1.398 . S
C233 C239 1.491 . S
C234 H225 0.950 . S
C234 C233 1.398 . S
C234 C235 1.391 . S
C235 H223 0.950 . S
C235 C231 1.393 . S
C235 C234 1.391 . S
C236 H226 0.950 . S
C236 C237 1.386 . S
C236 C238 1.391 . S
C237 C236 1.386 . S
C237 C241 1.393 . S
C238 H227 0.950 . S
C238 C236 1.391 . S
C238 C239 1.400 . S
C239 C233 1.491 . S
C239 C238 1.400 . S
C239 C240 1.398 . S
C240 H228 0.950 . S
C240 C239 1.398 . S
C240 C241 1.391 . S
C241 H229 0.950 . S
C241 C237 1.393 . S
C241 C240 1.391 . S
H242 C250 0.950 . S
H243 C255 0.950 . S
H244 C252 0.950 . S
H245 C254 0.950 . S
H246 C256 0.950 . S
H247 C258 0.950 . S
H248 C260 0.950 . S
H249 C261 0.950 . S
C250 H242 0.950 . S
C250 C251 1.386 . S
C250 C252 1.391 . S
C251 C250 1.386 . S
C251 C255 1.393 . S
C252 H244 0.950 . S
C252 C250 1.391 . S
C252 C253 1.400 . S
C253 C252 1.400 . S
C253 C254 1.398 . S
C253 C259 1.491 . S
C254 H245 0.950 . S
C254 C253 1.398 . S
C254 C255 1.391 . S
C255 H243 0.950 . S
C255 C251 1.393 . S
C255 C254 1.391 . S
C256 H246 0.950 . S
C256 C257 1.386 . S
C256 C258 1.391 . S
C257 C256 1.386 . S
C257 C261 1.393 . S
C258 H247 0.950 . S
C258 C256 1.391 . S
C258 C259 1.400 . S
C259 C253 1.491 . S
C259 C258 1.400 . S
C259 C260 1.398 . S
C260 H248 0.950 . S
C260 C259 1.398 . S
C260 C261 1.391 . S
C261 H249 0.950 . S
C261 C257 1.393 . S
C261 C260 1.391 . S
H262 C270 0.950 . S
H263 C275 0.950 . S
H264 C272 0.950 . S
H265 C274 0.950 . S
H266 C276 0.950 . S
H267 C278 0.950 . S
H268 C280 0.950 . S
H269 C281 0.950 . S
C270 H262 0.950 . S
C270 C271 1.386 . S
C270 C272 1.391 . S
C271 C270 1.386 . S
C271 C275 1.393 . S
C272 H264 0.950 . S
C272 C270 1.391 . S
C272 C273 1.400 . S
C273 C272 1.400 . S
C273 C274 1.398 . S
C273 C279 1.491 . S
C274 H265 0.950 . S
C274 C273 1.398 . S
C274 C275 1.391 . S
C275 H263 0.950 . S
C275 C271 1.393 . S
C275 C274 1.391 . S
C276 H266 0.950 . S
C276 C277 1.386 . S
C276 C278 1.391 . S
C277 C276 1.386 . S
C277 C281 1.393 . S
C278 H267 0.950 . S
C278 C276 1.391 . S
C278 C279 1.400 . S
C279 C273 1.491 . S
C279 C278 1.400 . S
C279 C280 1.398 . S
C280 H268 0.950 . S
C280 C279 1.398 . S
C280 C281 1.391 . S
C281 H269 0.950 . S
C281 C277 1.393 . S
C281 C280 1.391 . S
H282 C290 0.950 . S
H283 C295 0.950 . S
H284 C292 0.950 . S
H285 C294 0.950 . S
H286 C296 0.950 . S
H287 C298 0.950 . S
H288 C300 0.950 . S
H289 C301 0.950 . S
C290 H282 0.950 . S
C290 C291 1.386 . S
C290 C292 1.391 . S
C291 C290 1.386 . S
C291 C295 1.393 . S
C292 H284 0.950 . S
C292 C290 1.391 . S
C292 C293 1.400 . S
C293 C292 1.400 . S
C293 C294 1.398 . S
C293 C299 1.491 . S
C294 H285 0.950 . S
C294 C293 1.398 . S
C294 C295 1.391 . S
C295 H283 0.950 . S
C295 C291 1.393 . S
C295 C294 1.391 . S
C296 H286 0.950 . S
C296 C297 1.386 . S
C296 C298 1.391 . S
C297 C296 1.386 . S
C297 C301 1.393 . S
C298 H287 0.950 . S
C298 C296 1.391 . S
C298 C299 1.400 . S
C299 C293 1.491 . S
C299 C298 1.400 . S
C299 C300 1.398 . S
C300 H288 0.950 . S
C300 C299 1.398 . S
C300 C301 1.391 . S
C301 H289 0.950 . S
C301 C297 1.393 . S
C301 C300 1.391 . S
H302 C310 0.950 . S
H303 C315 0.950 . S
H304 C312 0.950 . S
H305 C314 0.950 . S
H306 C316 0.950 . S
H307 C318 0.950 . S
H308 C320 0.950 . S
H309 C321 0.950 . S
C310 H302 0.950 . S
C310 C311 1.386 . S
C310 C312 1.391 . S
C311 C310 1.386 . S
C311 C315 1.393 . S
C312 H304 0.950 . S
C312 C310 1.391 . S
C312 C313 1.400 . S
C313 C312 1.400 . S
C313 C314 1.398 . S
C313 C319 1.491 . S
C314 H305 0.950 . S
C314 C313 1.398 . S
C314 C315 1.391 . S
C315 H303 0.950 . S
C315 C311 1.393 . S
C315 C314 1.391 . S
C316 H306 0.950 . S
C316 C317 1.386 . S
C316 C318 1.391 . S
C317 C316 1.386 . S
C317 C321 1.393 . S
C318 H307 0.950 . S
C318 C316 1.391 . S
C318 C319 1.400 . S
C319 C313 1.491 . S
C319 C318 1.400 . S
C319 C320 1.398 . S
C320 H308 0.950 . S
C320 C319 1.398 . S
C320 C321 1.391 . S
C321 H309 0.950 . S
C321 C317 1.393 . S
C321 C320 1.391 . S
H322 C330 0.950 . S
H323 C335 0.950 . S
H324 C332 0.950 . S
H325 C334 0.950 . S
H326 C336 0.950 . S
H327 C338 0.950 . S
H328 C340 0.950 . S
H329 C341 0.950 . S
C330 H322 0.950 . S
C330 C331 1.386 . S
C330 C332 1.391 . S
C331 C330 1.386 . S
C331 C335 1.393 . S
C332 H324 0.950 . S
C332 C330 1.391 . S
C332 C333 1.400 . S
C333 C332 1.400 . S
C333 C334 1.398 . S
C333 C339 1.491 . S
C334 H325 0.950 . S
C334 C333 1.398 . S
C334 C335 1.391 . S
C335 H323 0.950 . S
C335 C331 1.393 . S
C335 C334 1.391 . S
C336 H326 0.950 . S
C336 C337 1.386 . S
C336 C338 1.391 . S
C337 C336 1.386 . S
C337 C341 1.393 . S
C338 H327 0.950 . S
C338 C336 1.391 . S
C338 C339 1.400 . S
C339 C333 1.491 . S
C339 C338 1.400 . S
C339 C340 1.398 . S
C340 H328 0.950 . S
C340 C339 1.398 . S
C340 C341 1.391 . S
C341 H329 0.950 . S
C341 C337 1.393 . S
C341 C340 1.391 . S
H342 C350 0.950 . S
H343 C355 0.950 . S
H344 C352 0.950 . S
H345 C354 0.950 . S
H346 C356 0.950 . S
H347 C358 0.950 . S
H348 C360 0.950 . S
H349 C361 0.950 . S
C350 H342 0.950 . S
C350 C351 1.386 . S
C350 C352 1.391 . S
C351 C350 1.386 . S
C351 C355 1.393 . S
C352 H344 0.950 . S
C352 C350 1.391 . S
C352 C353 1.400 . S
C353 C352 1.400 . S
C353 C354 1.398 . S
C353 C359 1.491 . S
C354 H345 0.950 . S
C354 C353 1.398 . S
C354 C355 1.391 . S
C355 H343 0.950 . S
C355 C351 1.393 . S
C355 C354 1.391 . S
C356 H346 0.950 . S
C356 C357 1.386 . S
C356 C358 1.391 . S
C357 C356 1.386 . S
C357 C361 1.393 . S
C358 H347 0.950 . S
C358 C356 1.391 . S
C358 C359 1.400 . S
C359 C353 1.491 . S
C359 C358 1.400 . S
C359 C360 1.398 . S
C360 H348 0.950 . S
C360 C359 1.398 . S
C360 C361 1.391 . S
C361 H349 0.950 . S
C361 C357 1.393 . S
C361 C360 1.391 . S
C131 C12 1.623 . S
C137 C99 1.512 . S
C151 C69 0.998 . S
C157 C105 0.964 . S
C171 C8 1.084 . S
C177 C96 1.016 . S
C191 C71 1.898 . S
C197 C121 1.738 . S
C211 C17 2.344 . S
C217 C87 2.259 . S
C237 C104 2.076 . S
C231 C42 2.128 . S
C251 C52 1.611 . S
C257 C100 1.516 . S
C277 C117 2.061 . S
C271 C2 2.116 . S
C297 C84 2.271 . S
C291 C57 2.344 . S
C317 C120 1.759 . S
C311 C31 1.912 . S
C337 C83 1.036 . S
C331 C48 1.095 . S
C357 C108 0.956 . S
C351 C29 1.004 . S
