# Generated by pormake.
# Topology ocu, (6,8)-cn, num edge types: 1
# Building blocks:
#     Node 0, Type 0, BuildingBlock: KUMBOL_clean_sbu_1, # of connection points: 6
#     Node 1, Type 0, BuildingBlock: KUMBOL_clean_sbu_1, # of connection points: 6
#     Node 2, Type 0, BuildingBlock: KUMBOL_clean_sbu_1, # of connection points: 6
#     Node 3, Type 0, BuildingBlock: KUMBOL_clean_sbu_1, # of connection points: 6
#     Node 4, Type 0, BuildingBlock: KUMBOL_clean_sbu_1, # of connection points: 6
#     Node 5, Type 0, BuildingBlock: KUMBOL_clean_sbu_1, # of connection points: 6
#     Node 6, Type 0, BuildingBlock: KUMBOL_clean_sbu_1, # of connection points: 6
#     Node 7, Type 0, BuildingBlock: KUMBOL_clean_sbu_1, # of connection points: 6
#     Node 8, Type 1, BuildingBlock: VETTIZ_charged_sbu_0, # of connection points: 8
#     Node 9, Type 1, BuildingBlock: VETTIZ_charged_sbu_0, # of connection points: 8
#     Node 10, Type 1, BuildingBlock: VETTIZ_charged_sbu_0, # of connection points: 8
#     Node 11, Type 1, BuildingBlock: VETTIZ_charged_sbu_0, # of connection points: 8
#     Node 12, Type 1, BuildingBlock: VETTIZ_charged_sbu_0, # of connection points: 8
#     Node 13, Type 1, BuildingBlock: VETTIZ_charged_sbu_0, # of connection points: 8
#     Edge 14, Type (0, 1), BuildingBlock: ZUJKAS_clean_linker_0, # of connection points: 2
#     Edge 15, Type (0, 1), BuildingBlock: ZUJKAS_clean_linker_0, # of connection points: 2
#     Edge 16, Type (0, 1), BuildingBlock: ZUJKAS_clean_linker_0, # of connection points: 2
#     Edge 17, Type (0, 1), BuildingBlock: ZUJKAS_clean_linker_0, # of connection points: 2
#     Edge 18, Type (0, 1), BuildingBlock: ZUJKAS_clean_linker_0, # of connection points: 2
#     Edge 19, Type (0, 1), BuildingBlock: ZUJKAS_clean_linker_0, # of connection points: 2
#     Edge 20, Type (0, 1), BuildingBlock: ZUJKAS_clean_linker_0, # of connection points: 2
#     Edge 21, Type (0, 1), BuildingBlock: ZUJKAS_clean_linker_0, # of connection points: 2
#     Edge 22, Type (0, 1), BuildingBlock: ZUJKAS_clean_linker_0, # of connection points: 2
#     Edge 23, Type (0, 1), BuildingBlock: ZUJKAS_clean_linker_0, # of connection points: 2
#     Edge 24, Type (0, 1), BuildingBlock: ZUJKAS_clean_linker_0, # of connection points: 2
#     Edge 25, Type (0, 1), BuildingBlock: ZUJKAS_clean_linker_0, # of connection points: 2
#     Edge 26, Type (0, 1), BuildingBlock: ZUJKAS_clean_linker_0, # of connection points: 2
#     Edge 27, Type (0, 1), BuildingBlock: ZUJKAS_clean_linker_0, # of connection points: 2
#     Edge 28, Type (0, 1), BuildingBlock: ZUJKAS_clean_linker_0, # of connection points: 2
#     Edge 29, Type (0, 1), BuildingBlock: ZUJKAS_clean_linker_0, # of connection points: 2
#     Edge 30, Type (0, 1), BuildingBlock: ZUJKAS_clean_linker_0, # of connection points: 2
#     Edge 31, Type (0, 1), BuildingBlock: ZUJKAS_clean_linker_0, # of connection points: 2
#     Edge 32, Type (0, 1), BuildingBlock: ZUJKAS_clean_linker_0, # of connection points: 2
#     Edge 33, Type (0, 1), BuildingBlock: ZUJKAS_clean_linker_0, # of connection points: 2
#     Edge 34, Type (0, 1), BuildingBlock: ZUJKAS_clean_linker_0, # of connection points: 2
#     Edge 35, Type (0, 1), BuildingBlock: ZUJKAS_clean_linker_0, # of connection points: 2
#     Edge 36, Type (0, 1), BuildingBlock: ZUJKAS_clean_linker_0, # of connection points: 2
#     Edge 37, Type (0, 1), BuildingBlock: ZUJKAS_clean_linker_0, # of connection points: 2
#     Edge 38, Type (0, 1), BuildingBlock: ZUJKAS_clean_linker_0, # of connection points: 2
#     Edge 39, Type (0, 1), BuildingBlock: ZUJKAS_clean_linker_0, # of connection points: 2
#     Edge 40, Type (0, 1), BuildingBlock: ZUJKAS_clean_linker_0, # of connection points: 2
#     Edge 41, Type (0, 1), BuildingBlock: ZUJKAS_clean_linker_0, # of connection points: 2
#     Edge 42, Type (0, 1), BuildingBlock: ZUJKAS_clean_linker_0, # of connection points: 2
#     Edge 43, Type (0, 1), BuildingBlock: ZUJKAS_clean_linker_0, # of connection points: 2
#     Edge 44, Type (0, 1), BuildingBlock: ZUJKAS_clean_linker_0, # of connection points: 2
#     Edge 45, Type (0, 1), BuildingBlock: ZUJKAS_clean_linker_0, # of connection points: 2
#     Edge 46, Type (0, 1), BuildingBlock: ZUJKAS_clean_linker_0, # of connection points: 2
#     Edge 47, Type (0, 1), BuildingBlock: ZUJKAS_clean_linker_0, # of connection points: 2
#     Edge 48, Type (0, 1), BuildingBlock: ZUJKAS_clean_linker_0, # of connection points: 2
#     Edge 49, Type (0, 1), BuildingBlock: ZUJKAS_clean_linker_0, # of connection points: 2
#     Edge 50, Type (0, 1), BuildingBlock: ZUJKAS_clean_linker_0, # of connection points: 2
#     Edge 51, Type (0, 1), BuildingBlock: ZUJKAS_clean_linker_0, # of connection points: 2
#     Edge 52, Type (0, 1), BuildingBlock: ZUJKAS_clean_linker_0, # of connection points: 2
#     Edge 53, Type (0, 1), BuildingBlock: ZUJKAS_clean_linker_0, # of connection points: 2
#     Edge 54, Type (0, 1), BuildingBlock: ZUJKAS_clean_linker_0, # of connection points: 2
#     Edge 55, Type (0, 1), BuildingBlock: ZUJKAS_clean_linker_0, # of connection points: 2
#     Edge 56, Type (0, 1), BuildingBlock: ZUJKAS_clean_linker_0, # of connection points: 2
#     Edge 57, Type (0, 1), BuildingBlock: ZUJKAS_clean_linker_0, # of connection points: 2
#     Edge 58, Type (0, 1), BuildingBlock: ZUJKAS_clean_linker_0, # of connection points: 2
#     Edge 59, Type (0, 1), BuildingBlock: ZUJKAS_clean_linker_0, # of connection points: 2
#     Edge 60, Type (0, 1), BuildingBlock: ZUJKAS_clean_linker_0, # of connection points: 2
#     Edge 61, Type (0, 1), BuildingBlock: ZUJKAS_clean_linker_0, # of connection points: 2
# Relax obj value: 0.058
# Max RMSD: 0.138
# Mean RMSD: 0.098
data_MOF--net-ocu--node1-KUMBOL_clean_sbu_1--node2-VETTIZ_charged_sbu_0--edge1-ZUJKAS_clean_linker_0
_symmetry_space_group_name_H-M    P1
_symmetry_Int_Tables_number       1
_symmetry_cell_setting            triclinic
loop_
_symmetry_equiv_pos_as_xyz
'x, y, z'
_cell_length_a     49.549889
_cell_length_b     50.015942
_cell_length_c     51.687648
_cell_angle_alpha  98.33974
_cell_angle_beta   82.059685
_cell_angle_gamma 101.55072
loop_
_atom_site_label
_atom_site_type_symbol
_atom_site_fract_x
_atom_site_fract_y
_atom_site_fract_z
_atom_type_partial_charge
C0 C 0.31059 0.31948 0.32559 0.0
C1 C 0.28159 0.3179 0.3674 0.0
C2 C 0.28863 0.30622 0.34144 0.0
C3 C 0.29586 0.344 0.37658 0.0
C4 C 0.3258 0.34514 0.33514 0.0
C5 C 0.31785 0.35764 0.36044 0.0
N6 N 0.31836 0.30636 0.30164 0.0
C7 C 0.34219 0.31694 0.28701 0.0
C8 C 0.34919 0.35695 0.3194 0.0
C9 C 0.35762 0.3426 0.29538 0.0
Gd10 Gd 0.23694 0.25243 0.2342 0.0
Gd11 Gd 0.2905 0.26376 0.28909 0.0
N12 N 0.27525 0.28104 0.33201 0.0
C13 C 0.26118 0.30249 0.38365 0.0
C14 C 0.2567 0.26517 0.34822 0.0
C15 C 0.24902 0.2758 0.37415 0.0
H16 H 0.24769 0.24442 0.34094 0.0
H17 H 0.23384 0.26342 0.38678 0.0
H18 H 0.28264 0.28126 0.18687 0.0
H19 H 0.34963 0.30549 0.26898 0.0
H20 H 0.30688 0.26624 0.14389 0.0
H21 H 0.25528 0.31067 0.40376 0.0
H22 H 0.29057 0.35346 0.39637 0.0
H23 H 0.19411 0.19569 0.25386 0.0
H24 H 0.36142 0.37663 0.32602 0.0
H25 H 0.37625 0.35108 0.28349 0.0
H26 H 0.26998 0.16992 0.12804 0.0
H27 H 0.32917 0.37743 0.36804 0.0
H28 H 0.20337 0.12874 0.19388 0.0
H29 H 0.18181 0.14673 0.23725 0.0
N30 N 0.22377 0.20527 0.22104 0.0
C31 C 0.2349 0.19611 0.19652 0.0
C32 C 0.20443 0.18808 0.23533 0.0
C33 C 0.2091 0.15029 0.20118 0.0
C34 C 0.19702 0.16032 0.22575 0.0
C35 C 0.22821 0.16821 0.18619 0.0
H36 H 0.23606 0.13764 0.1532 0.0
N37 N 0.26049 0.24129 0.19271 0.0
C38 C 0.25384 0.21455 0.18205 0.0
C39 C 0.28629 0.22406 0.14363 0.0
C40 C 0.26678 0.20523 0.15727 0.0
C41 C 0.27873 0.25991 0.17909 0.0
C42 C 0.29215 0.25151 0.15453 0.0
O43 O 0.25212 0.28354 0.30176 0.0
O44 O 0.23667 0.29123 0.26361 0.0
O45 O 0.22098 0.27056 0.20489 0.0
O46 O 0.19282 0.24532 0.23123 0.0
O47 O 0.25649 0.2269 0.28214 0.0
O48 O 0.21781 0.24007 0.27373 0.0
O49 O 0.26993 0.22489 0.23204 0.0
O50 O 0.3088 0.25198 0.2475 0.0
O51 O 0.29203 0.22545 0.3033 0.0
O52 O 0.32761 0.25831 0.30449 0.0
O53 O 0.26681 0.29283 0.23571 0.0
O54 O 0.30563 0.28586 0.25258 0.0
C55 C 0.23766 0.29612 0.28933 0.0
C56 C 0.23008 0.22761 0.288 0.0
C57 C 0.17795 0.2841 0.22044 0.0
C58 C 0.1585 0.32082 0.20739 0.0
C59 C 0.15086 0.31127 0.25291 0.0
C60 C 0.16624 0.29029 0.24648 0.0
C61 C 0.14711 0.32652 0.23361 0.0
C62 C 0.17376 0.29931 0.20084 0.0
C63 C 0.19523 0.26252 0.21399 0.0
C64 C 0.26018 0.17743 0.14703 0.0
C65 C 0.24089 0.15902 0.16139 0.0
H66 H 0.2968 0.21765 0.12461 0.0
C67 C 0.29723 0.23208 0.23074 0.0
C68 C 0.29337 0.29914 0.23863 0.0
C69 C 0.3354 0.21265 0.30171 0.0
C70 C 0.35936 0.17921 0.31469 0.0
C71 C 0.35876 0.18327 0.26836 0.0
C72 C 0.34316 0.20408 0.27519 0.0
C73 C 0.36686 0.17092 0.28788 0.0
C74 C 0.34361 0.2003 0.32141 0.0
C75 C 0.31734 0.23319 0.30917 0.0
H76 H 0.14199 0.31588 0.27303 0.0
H77 H 0.16922 0.27918 0.26204 0.0
H78 H 0.135 0.34267 0.23915 0.0
H79 H 0.18283 0.29482 0.18075 0.0
H80 H 0.36445 0.17654 0.24785 0.0
H81 H 0.33689 0.21325 0.25984 0.0
H82 H 0.37921 0.15502 0.28196 0.0
H83 H 0.33714 0.20664 0.34191 0.0
C84 C 0.84537 0.23777 0.20996 0.0
C85 C 0.88616 0.27106 0.22118 0.0
C86 C 0.85899 0.25715 0.22826 0.0
C87 C 0.89898 0.26587 0.19544 0.0
C88 C 0.85834 0.23222 0.18422 0.0
C89 C 0.88514 0.24646 0.17705 0.0
N90 N 0.81897 0.22511 0.21706 0.0
C91 C 0.80471 0.206 0.19985 0.0
C92 C 0.84373 0.21288 0.1663 0.0
C93 C 0.81685 0.19966 0.17419 0.0
Gd94 Gd 0.75348 0.29496 0.26576 0.0
Gd95 Gd 0.80056 0.23685 0.26042 0.0
N96 N 0.84587 0.26217 0.25296 0.0
C97 C 0.89986 0.2894 0.24035 0.0
C98 C 0.86019 0.27798 0.27221 0.0
C99 C 0.88702 0.29243 0.2661 0.0
H100 H 0.85163 0.27869 0.29249 0.0
H101 H 0.898 0.30541 0.28141 0.0
H102 H 0.69561 0.2468 0.25975 0.0
H103 H 0.78399 0.19566 0.20594 0.0
H104 H 0.64924 0.23504 0.28387 0.0
H105 H 0.92073 0.30048 0.23571 0.0
H106 H 0.91973 0.27656 0.18964 0.0
H107 H 0.78334 0.35479 0.29645 0.0
H108 H 0.85297 0.20808 0.14634 0.0
H109 H 0.80545 0.18462 0.1605 0.0
H110 H 0.64765 0.30602 0.35702 0.0
H111 H 0.89535 0.24266 0.15729 0.0
H112 H 0.7281 0.37705 0.3639 0.0
H113 H 0.77321 0.38648 0.33645 0.0
N114 N 0.74514 0.32712 0.30219 0.0
C115 C 0.72003 0.32182 0.31666 0.0
C116 C 0.76399 0.35016 0.30879 0.0
C117 C 0.73263 0.36292 0.34661 0.0
C118 C 0.75814 0.36829 0.33119 0.0
C119 C 0.7131 0.33958 0.33931 0.0
H120 H 0.68127 0.34697 0.37134 0.0
N121 N 0.7086 0.28171 0.28691 0.0
C122 C 0.70106 0.29867 0.30862 0.0
C123 C 0.65601 0.26944 0.31405 0.0
C124 C 0.67468 0.29277 0.32296 0.0
C125 C 0.6901 0.25952 0.27756 0.0
C126 C 0.66369 0.25289 0.29113 0.0
O127 O 0.7993 0.26106 0.2267 0.0
O128 O 0.79803 0.3033 0.24884 0.0
O129 O 0.74168 0.29876 0.22769 0.0
O130 O 0.74454 0.33365 0.25786 0.0
O131 O 0.80063 0.26838 0.29699 0.0
O132 O 0.79523 0.30741 0.28117 0.0
O133 O 0.74228 0.26733 0.29824 0.0
O134 O 0.75967 0.22689 0.28532 0.0
O135 O 0.82433 0.22105 0.28554 0.0
O136 O 0.80273 0.1934 0.25505 0.0
O137 O 0.7434 0.2569 0.23631 0.0
O138 O 0.75839 0.21916 0.2474 0.0
C139 C 0.8067 0.28782 0.22805 0.0
C140 C 0.80312 0.29533 0.29908 0.0
C141 C 0.71167 0.32991 0.22795 0.0
C142 C 0.68699 0.34941 0.1996 0.0
C143 C 0.66171 0.32595 0.2362 0.0
C144 C 0.68643 0.32093 0.24281 0.0
C145 C 0.66192 0.34001 0.21473 0.0
C146 C 0.71192 0.34434 0.20644 0.0
C147 C 0.73769 0.32394 0.23444 0.0
C148 C 0.66778 0.31028 0.34568 0.0
C149 C 0.68694 0.3336 0.35384 0.0
H150 H 0.63555 0.26418 0.32455 0.0
C151 C 0.74333 0.24173 0.30074 0.0
C152 C 0.74273 0.23016 0.23485 0.0
C153 C 0.82831 0.17254 0.28117 0.0
C154 C 0.85247 0.15285 0.30984 0.0
C155 C 0.82886 0.12354 0.2749 0.0
C156 C 0.82075 0.14623 0.26754 0.0
C157 C 0.84445 0.12675 0.29598 0.0
C158 C 0.84455 0.17582 0.30218 0.0
C159 C 0.81837 0.19609 0.27383 0.0
H160 H 0.64232 0.31896 0.2478 0.0
H161 H 0.68578 0.31006 0.25951 0.0
H162 H 0.64245 0.34389 0.21019 0.0
H163 H 0.7314 0.35122 0.19486 0.0
H164 H 0.82288 0.10335 0.26432 0.0
H165 H 0.80836 0.14309 0.25128 0.0
H166 H 0.85044 0.1088 0.3014 0.0
H167 H 0.85042 0.19595 0.31298 0.0
C168 C 0.82927 0.81397 0.20136 0.0
C169 C 0.82995 0.78302 0.16052 0.0
C170 C 0.81726 0.79064 0.18592 0.0
C171 C 0.85501 0.79898 0.15095 0.0
C172 C 0.85432 0.83015 0.1917 0.0
C173 C 0.86717 0.82246 0.1665 0.0
N174 N 0.81639 0.82096 0.22567 0.0
C175 C 0.82694 0.84427 0.24101 0.0
C176 C 0.86564 0.85371 0.20761 0.0
C177 C 0.85181 0.86085 0.23231 0.0
Gd178 Gd 0.76641 0.73379 0.28623 0.0
Gd179 Gd 0.77489 0.79168 0.23803 0.0
N180 N 0.79344 0.77505 0.19601 0.0
C181 C 0.81709 0.7595 0.14553 0.0
C182 C 0.78015 0.75287 0.18108 0.0
C183 C 0.79197 0.7445 0.15579 0.0
H184 H 0.76055 0.74156 0.18872 0.0
H185 H 0.78163 0.72657 0.14417 0.0
H186 H 0.78439 0.78154 0.33638 0.0
H187 H 0.81595 0.85041 0.25978 0.0
H188 H 0.76421 0.79777 0.38091 0.0
H189 H 0.82622 0.75292 0.12595 0.0
H190 H 0.86514 0.79337 0.13152 0.0
H191 H 0.72179 0.67761 0.26423 0.0
H192 H 0.88486 0.86667 0.2009 0.0
H193 H 0.86018 0.87926 0.24457 0.0
H194 H 0.67605 0.73745 0.39254 0.0
H195 H 0.88646 0.83461 0.15879 0.0
H196 H 0.65187 0.66592 0.32278 0.0
H197 H 0.67582 0.65178 0.27919 0.0
N198 N 0.72322 0.70704 0.29841 0.0
C199 C 0.71071 0.71481 0.32272 0.0
C200 C 0.71124 0.68448 0.28298 0.0
C201 C 0.6719 0.67759 0.31618 0.0
C202 C 0.68533 0.66958 0.29153 0.0
C203 C 0.68465 0.70031 0.33221 0.0
H204 H 0.65217 0.69792 0.36497 0.0
N205 N 0.74919 0.75099 0.32856 0.0
C206 C 0.72417 0.73719 0.33835 0.0
C207 C 0.72641 0.76782 0.37902 0.0
C208 C 0.71196 0.74549 0.36376 0.0
C209 C 0.76396 0.77185 0.34376 0.0
C210 C 0.75264 0.78087 0.36906 0.0
O211 O 0.80615 0.76222 0.22924 0.0
O212 O 0.78439 0.72126 0.24459 0.0
O213 O 0.80152 0.72863 0.30464 0.0
O214 O 0.76911 0.69364 0.29592 0.0
O215 O 0.73622 0.75889 0.24252 0.0
O216 O 0.74943 0.71901 0.24757 0.0
O217 O 0.73634 0.76457 0.29549 0.0
O218 O 0.75818 0.80536 0.27978 0.0
O219 O 0.74097 0.7937 0.21645 0.0
O220 O 0.76946 0.83094 0.22816 0.0
O221 O 0.80516 0.76626 0.28221 0.0
O222 O 0.79349 0.8067 0.27614 0.0
C223 C 0.80447 0.73561 0.23 0.0
C224 C 0.73463 0.7323 0.23664 0.0
C225 C 0.794 0.69317 0.33169 0.0
C226 C 0.81864 0.67102 0.35774 0.0
C227 C 0.77704 0.68844 0.37739 0.0
C228 C 0.77451 0.69723 0.35357 0.0
C229 C 0.79893 0.67542 0.37953 0.0
C230 C 0.81599 0.68008 0.33383 0.0
C231 C 0.7921 0.70264 0.30651 0.0
C232 C 0.68584 0.73128 0.37312 0.0
C233 C 0.67223 0.70877 0.3574 0.0
H234 H 0.71768 0.77489 0.39861 0.0
C235 C 0.73908 0.79144 0.2956 0.0
C236 C 0.80761 0.79297 0.28749 0.0
C237 C 0.72311 0.83453 0.22611 0.0
C238 C 0.69001 0.86054 0.21585 0.0
C239 C 0.68731 0.84745 0.25983 0.0
C240 C 0.70998 0.83441 0.2519 0.0
C241 C 0.67735 0.86047 0.24197 0.0
C242 C 0.71309 0.84754 0.20812 0.0
C243 C 0.74671 0.82041 0.21758 0.0
H244 H 0.7619 0.6916 0.39422 0.0
H245 H 0.75737 0.70706 0.3523 0.0
H246 H 0.80015 0.66839 0.39812 0.0
H247 H 0.83119 0.67722 0.31693 0.0
H248 H 0.67739 0.84741 0.27985 0.0
H249 H 0.71717 0.82408 0.26578 0.0
H250 H 0.65987 0.87066 0.24867 0.0
H251 H 0.72293 0.84703 0.18802 0.0
C252 C 0.34001 0.73229 0.31994 0.0
C253 C 0.31424 0.69939 0.34838 0.0
C254 C 0.31836 0.71095 0.32453 0.0
C255 C 0.33083 0.71151 0.36848 0.0
C256 C 0.35824 0.74309 0.3391 0.0
C257 C 0.35282 0.73341 0.36385 0.0
N258 N 0.34498 0.74031 0.29557 0.0
C259 C 0.36936 0.75697 0.28803 0.0
C260 C 0.38212 0.7621 0.33224 0.0
C261 C 0.38803 0.76856 0.30639 0.0
Gd262 Gd 0.25241 0.76891 0.26657 0.0
Gd263 Gd 0.31043 0.72339 0.26721 0.0
N264 N 0.3035 0.69941 0.30435 0.0
C265 C 0.2948 0.67507 0.35059 0.0
C266 C 0.28672 0.67427 0.30539 0.0
C267 C 0.28153 0.66205 0.32872 0.0
H268 H 0.27663 0.66409 0.28839 0.0
H269 H 0.26738 0.64262 0.32979 0.0
H270 H 0.22954 0.78646 0.32949 0.0
H271 H 0.37373 0.76221 0.26811 0.0
H272 H 0.2212 0.82819 0.35897 0.0
H273 H 0.29098 0.66547 0.36857 0.0
H274 H 0.3277 0.70325 0.38715 0.0
H275 H 0.25259 0.78338 0.20581 0.0
H276 H 0.39668 0.77093 0.34638 0.0
H277 H 0.40686 0.78256 0.30063 0.0
H278 H 0.23801 0.89855 0.3014 0.0
H279 H 0.36629 0.74176 0.37904 0.0
H280 H 0.25297 0.86958 0.20867 0.0
H281 H 0.25441 0.82401 0.18285 0.0
N282 N 0.25175 0.80614 0.2438 0.0
C283 C 0.24944 0.83055 0.25829 0.0
C284 C 0.25229 0.80331 0.21709 0.0
C285 C 0.25249 0.85191 0.21873 0.0
C286 C 0.25323 0.82621 0.20409 0.0
C287 C 0.24991 0.8542 0.24624 0.0
H288 H 0.24724 0.89746 0.2532 0.0
N289 N 0.24181 0.80728 0.29548 0.0
C290 C 0.24425 0.83114 0.28517 0.0
C291 C 0.23163 0.85443 0.3281 0.0
C292 C 0.23939 0.85544 0.30112 0.0
C293 C 0.23278 0.8058 0.32151 0.0
C294 C 0.22793 0.82938 0.33827 0.0
O295 O 0.26558 0.71083 0.28309 0.0
O296 O 0.25418 0.75066 0.30368 0.0
O297 O 0.20978 0.76841 0.26088 0.0
O298 O 0.22242 0.73056 0.26469 0.0
O299 O 0.27136 0.70508 0.24817 0.0
O300 O 0.26739 0.74245 0.23029 0.0
O301 O 0.28995 0.77909 0.23618 0.0
O302 O 0.32684 0.75921 0.24351 0.0
O303 O 0.32423 0.70823 0.22705 0.0
O304 O 0.33679 0.69267 0.25945 0.0
O305 O 0.27911 0.78152 0.30023 0.0
O306 O 0.32025 0.76911 0.28108 0.0
C307 C 0.25331 0.72434 0.30342 0.0
C308 C 0.2636 0.71566 0.22922 0.0
C309 C 0.17681 0.73465 0.28198 0.0
C310 C 0.1372 0.74754 0.31099 0.0
C311 C 0.14625 0.70117 0.30755 0.0
C312 C 0.16934 0.70789 0.28923 0.0
C313 C 0.13027 0.72095 0.31857 0.0
C314 C 0.16047 0.75416 0.29278 0.0
C315 C 0.20174 0.74239 0.26353 0.0
C316 C 0.24139 0.87957 0.28947 0.0
C317 C 0.24665 0.87895 0.26203 0.0
H318 H 0.22762 0.87262 0.34106 0.0
C319 C 0.31621 0.77586 0.23173 0.0
C320 C 0.30621 0.78421 0.29877 0.0
C321 C 0.31949 0.6602 0.22489 0.0
C322 C 0.29391 0.62912 0.19171 0.0
C323 C 0.29917 0.61337 0.23291 0.0
C324 C 0.3146 0.63895 0.24097 0.0
C325 C 0.28902 0.60838 0.2085 0.0
C326 C 0.30876 0.6552 0.20046 0.0
C327 C 0.33322 0.68821 0.2346 0.0
H328 H 0.14084 0.68064 0.31333 0.0
H329 H 0.18148 0.69229 0.28097 0.0
H330 H 0.11259 0.71553 0.33289 0.0
H331 H 0.16633 0.77497 0.28765 0.0
H332 H 0.29548 0.59715 0.24545 0.0
H333 H 0.32227 0.64215 0.26002 0.0
H334 H 0.27849 0.58775 0.20244 0.0
H335 H 0.3121 0.67169 0.18826 0.0
C336 C 0.32356 0.7033 0.71261 0.0
C337 C 0.3701 0.73018 0.70682 0.0
C338 C 0.3435 0.72543 0.72099 0.0
C339 C 0.37627 0.7125 0.684 0.0
C340 C 0.32981 0.68529 0.68992 0.0
C341 C 0.35619 0.69012 0.67558 0.0
N342 N 0.29821 0.69916 0.72684 0.0
C343 C 0.27856 0.67683 0.72017 0.0
C344 C 0.30941 0.66282 0.68244 0.0
C345 C 0.28374 0.65847 0.69775 0.0
Gd346 Gd 0.24682 0.79186 0.76662 0.0
Gd347 Gd 0.29119 0.73172 0.76332 0.0
N348 N 0.33666 0.74265 0.74275 0.0
C349 C 0.38967 0.7526 0.716 0.0
C350 C 0.356 0.76386 0.7524 0.0
C351 C 0.38264 0.76936 0.739 0.0
H352 H 0.35094 0.77674 0.77027 0.0
H353 H 0.39777 0.78649 0.74646 0.0
H354 H 0.19488 0.75144 0.73467 0.0
H355 H 0.25909 0.6729 0.73246 0.0
H356 H 0.14769 0.72647 0.74578 0.0
H357 H 0.41031 0.75698 0.70563 0.0
H358 H 0.39656 0.71589 0.67279 0.0
H359 H 0.26423 0.83341 0.82064 0.0
H360 H 0.3134 0.64851 0.66513 0.0
H361 H 0.26803 0.64087 0.69242 0.0
H362 H 0.12595 0.75807 0.83689 0.0
H363 H 0.36134 0.67656 0.65803 0.0
H364 H 0.19448 0.82465 0.87984 0.0
H365 H 0.24277 0.8461 0.86575 0.0
N366 N 0.2285 0.80498 0.80969 0.0
C367 C 0.20171 0.79343 0.81674 0.0
C368 C 0.24317 0.82393 0.82673 0.0
C369 C 0.20374 0.81912 0.86003 0.0
C370 C 0.23105 0.83121 0.85218 0.0
C371 C 0.1887 0.79998 0.84227 0.0
H372 H 0.15113 0.79155 0.86899 0.0
N373 N 0.20078 0.76824 0.7741 0.0
C374 C 0.18764 0.7742 0.79862 0.0
C375 C 0.14594 0.74327 0.78664 0.0
C376 C 0.16001 0.76149 0.80565 0.0
C377 C 0.18617 0.75269 0.75492 0.0
C378 C 0.1589 0.7393 0.76101 0.0
O379 O 0.30454 0.75887 0.73059 0.0
O380 O 0.28756 0.79979 0.74126 0.0
O381 O 0.22396 0.80825 0.74124 0.0
O382 O 0.2467 0.83575 0.7711 0.0
O383 O 0.30226 0.77014 0.79212 0.0
O384 O 0.28926 0.80823 0.77948 0.0
O385 O 0.24722 0.76869 0.80117 0.0
O386 O 0.24657 0.72558 0.78049 0.0
O387 O 0.30338 0.72743 0.80113 0.0
O388 O 0.29946 0.69269 0.77084 0.0
O389 O 0.24587 0.75932 0.73079 0.0
O390 O 0.24933 0.72055 0.74818 0.0
C391 C 0.30406 0.7843 0.72702 0.0
C392 C 0.30414 0.79696 0.79264 0.0
C393 C 0.22198 0.85706 0.74457 0.0
C394 C 0.19798 0.87668 0.71571 0.0
C395 C 0.22131 0.90599 0.7509 0.0
C396 C 0.22946 0.88333 0.75825 0.0
C397 C 0.20571 0.90276 0.72981 0.0
C398 C 0.2061 0.85382 0.72334 0.0
C399 C 0.23092 0.83327 0.75246 0.0
C400 C 0.14711 0.76774 0.83116 0.0
C401 C 0.16139 0.78694 0.8494 0.0
H402 H 0.12472 0.73305 0.79127 0.0
C403 C 0.23843 0.74218 0.80065 0.0
C404 C 0.24218 0.73233 0.72967 0.0
C405 C 0.2882 0.68337 0.81475 0.0
C406 C 0.28817 0.65622 0.85048 0.0
C407 C 0.24479 0.65911 0.83487 0.0
C408 C 0.25928 0.67575 0.81616 0.0
C409 C 0.25906 0.6494 0.85194 0.0
C410 C 0.30259 0.67355 0.83187 0.0
C411 C 0.30348 0.7012 0.79524 0.0
H412 H 0.22708 0.92615 0.76162 0.0
H413 H 0.2416 0.8864 0.77469 0.0
H414 H 0.1994 0.92068 0.72473 0.0
H415 H 0.20044 0.83366 0.71252 0.0
H416 H 0.22243 0.65355 0.83602 0.0
H417 H 0.24799 0.68248 0.80265 0.0
H418 H 0.24729 0.63658 0.86633 0.0
H419 H 0.32501 0.67893 0.83024 0.0
C420 C 0.33678 0.31235 0.70436 0.0
C421 C 0.33336 0.28257 0.66292 0.0
C422 C 0.32185 0.29119 0.68854 0.0
C423 C 0.36003 0.29543 0.65345 0.0
C424 C 0.36351 0.32538 0.69481 0.0
C425 C 0.37505 0.31676 0.66933 0.0
N426 N 0.32521 0.3202 0.72904 0.0
C427 C 0.33881 0.34145 0.74481 0.0
C428 C 0.37784 0.34677 0.71114 0.0
C429 C 0.36538 0.35491 0.73619 0.0
Gd430 Gd 0.26666 0.23722 0.78824 0.0
Gd431 Gd 0.28056 0.2963 0.74111 0.0
N432 N 0.29639 0.27849 0.69851 0.0
C433 C 0.31778 0.26114 0.64764 0.0
C434 C 0.28064 0.25846 0.68332 0.0
C435 C 0.29122 0.24919 0.65783 0.0
H436 H 0.25988 0.24976 0.69065 0.0
H437 H 0.2788 0.23298 0.64598 0.0
H438 H 0.28343 0.28483 0.83911 0.0
H439 H 0.32899 0.34855 0.7638 0.0
H440 H 0.26131 0.30262 0.88216 0.0
H441 H 0.32593 0.25387 0.6279 0.0
H442 H 0.36924 0.28902 0.63384 0.0
H443 H 0.2221 0.18181 0.76536 0.0
H444 H 0.39841 0.3573 0.70451 0.0
H445 H 0.37612 0.37173 0.74878 0.0
H446 H 0.17098 0.24553 0.89003 0.0
H447 H 0.39558 0.3265 0.6617 0.0
H448 H 0.14889 0.17308 0.82044 0.0
H449 H 0.17479 0.15739 0.7784 0.0
N450 N 0.22245 0.2117 0.79911 0.0
C451 C 0.20879 0.22039 0.82253 0.0
C452 C 0.21073 0.18922 0.78344 0.0
C453 C 0.16952 0.18407 0.81468 0.0
C454 C 0.18405 0.17517 0.79091 0.0
C455 C 0.18191 0.20682 0.83092 0.0
H456 H 0.14764 0.20607 0.86197 0.0
N457 N 0.24786 0.25549 0.82967 0.0
C458 C 0.22191 0.24277 0.83838 0.0
C459 C 0.2228 0.27404 0.87865 0.0
C460 C 0.20857 0.25194 0.86299 0.0
C461 C 0.26234 0.27606 0.84539 0.0
C462 C 0.24991 0.28595 0.86992 0.0
O463 O 0.30988 0.26477 0.73305 0.0
O464 O 0.28514 0.22411 0.74693 0.0
O465 O 0.30044 0.22986 0.80728 0.0
O466 O 0.26628 0.19667 0.79906 0.0
O467 O 0.2407 0.26481 0.74094 0.0
O468 O 0.25065 0.22391 0.7488 0.0
O469 O 0.23657 0.26765 0.79428 0.0
O470 O 0.26193 0.30873 0.78261 0.0
O471 O 0.24699 0.30605 0.7232 0.0
O472 O 0.28328 0.33707 0.73016 0.0
O473 O 0.30652 0.26898 0.78822 0.0
O474 O 0.29627 0.30965 0.78056 0.0
C475 C 0.30594 0.23773 0.73249 0.0
C476 C 0.2365 0.23782 0.73767 0.0
C477 C 0.28853 0.19664 0.83681 0.0
C478 C 0.3112 0.17975 0.86853 0.0
C479 C 0.26761 0.19561 0.8821 0.0
C480 C 0.26692 0.20118 0.85656 0.0
C481 C 0.28971 0.18515 0.88815 0.0
C482 C 0.31053 0.18553 0.84279 0.0
C483 C 0.28897 0.20453 0.81035 0.0
C484 C 0.18164 0.23869 0.87123 0.0
C485 C 0.16834 0.2162 0.85524 0.0
H486 H 0.21324 0.28174 0.89767 0.0
C487 C 0.24039 0.29466 0.7957 0.0
C488 C 0.3099 0.2959 0.79238 0.0
C489 C 0.2403 0.35172 0.7358 0.0
C490 C 0.20385 0.37746 0.73324 0.0
C491 C 0.22493 0.3818 0.77382 0.0
C492 C 0.2422 0.36359 0.76195 0.0
C493 C 0.20585 0.3887 0.75965 0.0
C494 C 0.22113 0.35873 0.72148 0.0
C495 C 0.25819 0.332 0.72353 0.0
H496 H 0.25091 0.19937 0.89723 0.0
H497 H 0.24954 0.209 0.85234 0.0
H498 H 0.28977 0.18074 0.90805 0.0
H499 H 0.32725 0.18179 0.82763 0.0
H500 H 0.22658 0.39088 0.79399 0.0
H501 H 0.25721 0.35892 0.77312 0.0
H502 H 0.19318 0.40342 0.76917 0.0
H503 H 0.21965 0.34955 0.70128 0.0
C504 C 0.76225 0.19879 0.79503 0.0
C505 C 0.7448 0.16054 0.76379 0.0
C506 C 0.75719 0.18832 0.76969 0.0
C507 C 0.73622 0.14397 0.78426 0.0
C508 C 0.75558 0.18183 0.81538 0.0
C509 C 0.74177 0.15456 0.81002 0.0
N510 N 0.77598 0.225 0.79925 0.0
C511 C 0.78623 0.23481 0.82274 0.0
C512 C 0.76424 0.1924 0.8401 0.0
C513 C 0.78015 0.21883 0.84363 0.0
Gd514 Gd 0.73509 0.30673 0.76955 0.0
Gd515 Gd 0.78463 0.25127 0.76364 0.0
N516 N 0.76689 0.20466 0.75044 0.0
C517 C 0.74274 0.14997 0.7374 0.0
C518 C 0.7672 0.19379 0.72464 0.0
C519 C 0.75451 0.16655 0.7177 0.0
H520 H 0.77724 0.20624 0.70939 0.0
H521 H 0.75411 0.15828 0.69718 0.0
H522 H 0.7749 0.36388 0.79412 0.0
H523 H 0.79822 0.2554 0.82554 0.0
H524 H 0.79933 0.40849 0.78 0.0
H525 H 0.7333 0.12875 0.732 0.0
H526 H 0.72641 0.12264 0.7802 0.0
H527 H 0.68974 0.28021 0.72455 0.0
H528 H 0.75958 0.18004 0.85627 0.0
H529 H 0.78758 0.22696 0.86245 0.0
H530 H 0.77786 0.40396 0.69145 0.0
H531 H 0.73622 0.14123 0.82542 0.0
H532 H 0.71139 0.32713 0.65956 0.0
H533 H 0.68289 0.28757 0.68012 0.0
N534 N 0.72444 0.31294 0.72796 0.0
C535 C 0.73892 0.33593 0.7178 0.0
C536 C 0.70353 0.29652 0.71529 0.0
C537 C 0.71515 0.32345 0.67878 0.0
C538 C 0.69909 0.30106 0.69029 0.0
C539 C 0.73481 0.34169 0.69285 0.0
H540 H 0.74689 0.37053 0.66397 0.0
N541 N 0.75965 0.34894 0.7573 0.0
C542 C 0.75654 0.35477 0.73315 0.0
C543 C 0.78616 0.39913 0.74113 0.0
C544 C 0.77025 0.37982 0.72417 0.0
C545 C 0.77398 0.36816 0.77442 0.0
C546 C 0.78767 0.39344 0.76652 0.0
O547 O 0.75259 0.2572 0.79903 0.0
O548 O 0.71523 0.26554 0.78248 0.0
O549 O 0.71684 0.3223 0.80782 0.0
O550 O 0.69961 0.32701 0.77295 0.0
O551 O 0.75837 0.24824 0.73002 0.0
O552 O 0.71886 0.26412 0.74951 0.0
O553 O 0.77972 0.3157 0.75178 0.0
O554 O 0.78723 0.27498 0.72892 0.0
O555 O 0.81956 0.23454 0.74119 0.0
O556 O 0.82531 0.26254 0.77663 0.0
O557 O 0.76198 0.31226 0.80304 0.0
O558 O 0.79993 0.29348 0.78382 0.0
C559 C 0.72569 0.25355 0.79863 0.0
C560 C 0.73153 0.2479 0.73152 0.0
C561 C 0.70858 0.3661 0.80435 0.0
C562 C 0.73135 0.40509 0.83261 0.0
C563 C 0.7191 0.41174 0.79033 0.0
C564 C 0.70781 0.38383 0.78577 0.0
C565 C 0.73095 0.42234 0.8135 0.0
C566 C 0.72005 0.37705 0.82787 0.0
C567 C 0.70206 0.33599 0.7976 0.0
C568 C 0.76719 0.385 0.69886 0.0
C569 C 0.7496 0.36593 0.6832 0.0
H570 H 0.79688 0.41868 0.735 0.0
C571 C 0.79066 0.30185 0.73091 0.0
C572 C 0.78817 0.30994 0.8021 0.0
C573 C 0.86116 0.26757 0.74248 0.0
C574 C 0.90826 0.27256 0.7205 0.0
C575 C 0.88504 0.31182 0.72947 0.0
C576 C 0.86156 0.29555 0.7412 0.0
C577 C 0.90835 0.30041 0.71905 0.0
C578 C 0.8844 0.25628 0.73206 0.0
C579 C 0.83731 0.25023 0.75576 0.0
H580 H 0.71873 0.42519 0.77581 0.0
H581 H 0.69946 0.37602 0.76728 0.0
H582 H 0.73883 0.44422 0.81687 0.0
H583 H 0.72078 0.36359 0.84233 0.0
H584 H 0.88518 0.33333 0.72857 0.0
H585 H 0.84394 0.30491 0.74947 0.0
H586 H 0.92637 0.31327 0.70997 0.0
H587 H 0.88365 0.23456 0.73269 0.0
C588 C 0.79771 0.81765 0.84574 0.0
C589 C 0.76993 0.79536 0.88174 0.0
C590 C 0.78325 0.79392 0.85576 0.0
C591 C 0.77057 0.82106 0.89704 0.0
C592 C 0.799 0.84339 0.8612 0.0
C593 C 0.78508 0.84501 0.88681 0.0
N594 N 0.81021 0.81552 0.82057 0.0
C595 C 0.82627 0.83792 0.8104 0.0
C596 C 0.8144 0.8667 0.85048 0.0
C597 C 0.82834 0.86389 0.82508 0.0
Gd598 Gd 0.75423 0.76485 0.74132 0.0
Gd599 Gd 0.80548 0.77119 0.79744 0.0
N600 N 0.78283 0.76938 0.84038 0.0
C601 C 0.75672 0.77087 0.89166 0.0
C602 C 0.77178 0.74541 0.85063 0.0
C603 C 0.75802 0.74575 0.87615 0.0
H604 H 0.77429 0.72601 0.83939 0.0
H605 H 0.74881 0.72665 0.88398 0.0
H606 H 0.79699 0.78928 0.6916 0.0
H607 H 0.83724 0.83576 0.79088 0.0
H608 H 0.81583 0.77253 0.64649 0.0
H609 H 0.74621 0.77109 0.91149 0.0
H610 H 0.76022 0.8226 0.91695 0.0
H611 H 0.69951 0.71513 0.75866 0.0
H612 H 0.81598 0.88687 0.86177 0.0
H613 H 0.84069 0.88172 0.81683 0.0
H614 H 0.77263 0.67723 0.63469 0.0
H615 H 0.78564 0.86465 0.89895 0.0
H616 H 0.70235 0.64434 0.70192 0.0
H617 H 0.68124 0.66694 0.74336 0.0
N618 N 0.73305 0.71923 0.72791 0.0
C619 C 0.74384 0.70769 0.70425 0.0
C620 C 0.71001 0.70529 0.74129 0.0
C621 C 0.71107 0.66536 0.70895 0.0
C622 C 0.69914 0.67802 0.73238 0.0
C623 C 0.73322 0.6804 0.6942 0.0
H624 H 0.73657 0.64836 0.66146 0.0
N625 N 0.77367 0.75017 0.69911 0.0
C626 C 0.76433 0.7238 0.68917 0.0
C627 C 0.79358 0.73099 0.64837 0.0
C628 C 0.7745 0.7133 0.66368 0.0
C629 C 0.79107 0.76795 0.68386 0.0
C630 C 0.80158 0.75855 0.65838 0.0
O631 O 0.77651 0.80244 0.79943 0.0
O632 O 0.73655 0.7794 0.78255 0.0
O633 O 0.74823 0.80143 0.72632 0.0
O634 O 0.71688 0.76478 0.72353 0.0
O635 O 0.7736 0.732 0.79226 0.0
O636 O 0.73621 0.74499 0.77848 0.0
O637 O 0.79504 0.74851 0.73031 0.0
O638 O 0.80081 0.73256 0.7681 0.0
O639 O 0.82836 0.75473 0.82288 0.0
O640 O 0.85055 0.77818 0.79129 0.0
O641 O 0.78665 0.80317 0.74861 0.0
O642 O 0.82451 0.78954 0.76012 0.0
C643 C 0.74928 0.79771 0.79994 0.0
C644 C 0.74673 0.72988 0.79202 0.0
C645 C 0.7022 0.80748 0.72678 0.0
C646 C 0.67504 0.83888 0.71473 0.0
C647 C 0.66825 0.8258 0.75921 0.0
C648 C 0.68851 0.80947 0.75239 0.0
C649 C 0.66146 0.84029 0.74059 0.0
C650 C 0.69549 0.82223 0.70803 0.0
C651 C 0.72379 0.79046 0.71946 0.0
C652 C 0.76483 0.6858 0.65411 0.0
C653 C 0.74432 0.66935 0.66937 0.0
H654 H 0.8018 0.72373 0.62865 0.0
C655 C 0.80549 0.73209 0.74238 0.0
C656 C 0.81352 0.80418 0.74666 0.0
C657 C 0.87894 0.76108 0.81786 0.0
C658 C 0.90671 0.73582 0.83785 0.0
C659 C 0.9287 0.77648 0.81678 0.0
C660 C 0.90314 0.77951 0.81042 0.0
C661 C 0.93053 0.75489 0.83035 0.0
C662 C 0.88076 0.73931 0.83179 0.0
C663 C 0.85214 0.76457 0.81054 0.0
H664 H 0.65767 0.82716 0.779 0.0
H665 H 0.69346 0.79837 0.76708 0.0
H666 H 0.64526 0.85232 0.74644 0.0
H667 H 0.70651 0.82099 0.68839 0.0
H668 H 0.94722 0.79095 0.81114 0.0
H669 H 0.9023 0.79642 0.79979 0.0
H670 H 0.95068 0.7533 0.8352 0.0
H671 H 0.86221 0.72475 0.83723 0.0
Fe672 Fe 0.02635 0.04373 0.51643 0.0
O673 O 0.99882 1.0116 0.50261 0.0
Fe674 Fe 0.08536 0.01696 0.51676 0.0
Fe675 Fe 0.95839 1.00875 0.51377 0.0
O676 O 0.04563 0.01533 0.52475 0.0
O677 O 0.04485 1.01283 0.52573 0.0
O678 O 0.99807 1.00885 0.50342 0.0
Fe679 Fe 1.01736 0.98049 0.51244 0.0
C680 C 0.9817 0.04847 0.55942 0.0
O681 O 1.00203 0.06967 0.50527 0.0
O682 O 0.96404 0.0396 0.49025 0.0
O683 O 0.03898 0.97976 0.47583 0.0
O684 O 0.08299 0.98716 0.48472 0.0
O685 O 0.09047 0.0469 0.49189 0.0
O686 O 0.04875 0.04576 0.47979 0.0
O687 O 0.955 0.97538 0.48542 0.0
O688 O 0.98584 0.95033 0.49576 0.0
C689 C 0.07505 0.05247 0.47638 0.0
O690 O 0.04132 0.95482 0.52427 0.0
O691 O 0.07896 0.9853 0.5396 0.0
O692 O 1.00543 0.04248 0.55298 0.0
O693 O 0.96249 0.04033 0.54457 0.0
C694 C 0.98022 0.06351 0.49241 0.0
C695 C 0.96501 0.953 0.48386 0.0
C696 C 0.96943 0.9738 0.55418 0.0
O697 O 0.95354 0.97988 0.53954 0.0
O698 O 0.99566 0.97966 0.54958 0.0
C699 C 0.06429 0.97787 0.46943 0.0
O700 O 0.08616 0.04878 0.54674 0.0
O701 O 0.05693 0.07397 0.53409 0.0
C702 C 0.06237 0.96161 0.53807 0.0
C703 C 0.07544 0.07073 0.54851 0.0
Fe704 Fe 0.5232 0.98205 1.01125 0.0
O705 O 0.54371 0.01567 0.9956 0.0
Fe706 Fe 0.46001 1.00097 0.03692 0.0
Fe707 Fe 0.58442 0.02583 0.99186 0.0
O708 O 0.5006 1.00851 0.03234 0.0
O709 O 0.50069 1.01159 0.03328 0.0
O710 O 0.54376 0.01877 0.99649 0.0
Fe711 Fe 0.52128 0.04532 0.01777 0.0
C712 C 0.57468 0.99087 0.03774 0.0
O713 O 0.55098 0.9588 0.9863 0.0
O714 O 0.58111 0.99143 0.96396 0.0
O715 O 0.49582 0.03882 0.98847 0.0
O716 O 0.45443 0.02657 1.01088 0.0
O717 O 0.45687 0.96869 1.00698 0.0
O718 O 0.49731 0.97341 0.98172 0.0
O719 O 0.57792 0.05411 0.96927 0.0
O720 O 0.54639 0.07673 0.99685 0.0
C721 C 0.47125 0.9645 0.98489 0.0
O722 O 0.49341 0.0685 0.04294 0.0
O723 O 0.46298 0.03549 0.06454 0.0
O724 O 0.54854 0.98913 0.04057 0.0
O725 O 0.58987 0.99983 0.01771 0.0
C726 C 0.5706 0.96606 0.96746 0.0
C727 C 0.56468 0.07447 0.97614 0.0
C728 C 0.57345 0.06239 0.04405 0.0
O729 O 0.58783 0.05792 0.02199 0.0
O730 O 0.54732 0.05373 0.04725 0.0
C731 C 0.4696 0.03642 0.99124 0.0
O732 O 0.46668 0.97306 0.05984 0.0
O733 O 0.49826 0.95061 0.03221 0.0
C734 C 0.47314 0.06096 0.06118 0.0
C735 C 0.47998 0.95277 0.05291 0.0
Fe736 Fe 0.02733 0.54837 0.01997 0.0
O737 O 1.00274 0.51534 0.03348 0.0
Fe738 Fe 0.08693 0.52184 0.99381 0.0
Fe739 Fe 0.96206 0.51023 0.03682 0.0
O740 O 0.0467 0.51991 0.99771 0.0
O741 O 0.04621 0.51677 0.99652 0.0
O742 O 1.00228 0.51217 0.03234 0.0
Fe743 Fe 0.02132 0.48367 1.00968 0.0
C744 C 0.98204 0.56717 0.06429 0.0
O745 O 1.00295 0.54673 0.9904 0.0
O746 O 0.96115 0.54024 1.01317 0.0
O747 O 0.04623 0.45842 0.98328 0.0
O748 O 0.08027 0.49024 0.96379 0.0
O749 O 0.08593 0.55416 0.97373 0.0
O750 O 0.05618 0.57886 1.00117 0.0
O751 O 0.95562 0.48093 1.00497 0.0
O752 O 0.9961 0.48051 0.98001 0.0
C753 C 0.07565 0.57632 0.9816 0.0
O754 O 0.04542 0.48452 0.0392 0.0
O755 O 0.08753 0.49167 0.01718 0.0
O756 O 1.00239 0.57369 0.04588 0.0
O757 O 0.969 0.54222 0.06656 0.0
C758 C 0.97754 0.54897 0.99365 0.0
C759 C 0.96961 0.47576 0.98287 0.0
C760 C 0.97438 0.45614 0.04907 0.0
O761 O 0.96375 0.47809 0.05714 0.0
O762 O 0.99246 0.4532 0.02837 0.0
C763 C 0.06711 0.46522 0.96538 0.0
O764 O 0.09311 0.55081 0.02599 0.0
O765 O 0.05227 0.55216 0.04998 0.0
C766 C 0.07087 0.48262 0.03634 0.0
C767 C 0.07872 0.5565 0.04771 0.0
Fe768 Fe 0.51987 0.5383 0.96238 0.0
O769 O 0.51901 0.53592 1.00036 0.0
Fe770 Fe 0.48639 0.50773 0.01754 0.0
Fe771 Fe 0.55029 0.52527 1.0147 0.0
O772 O 0.51633 0.53421 0.99974 0.0
O773 O 0.51759 0.49728 0.03211 0.0
O774 O 0.52028 0.49885 0.0326 0.0
Fe775 Fe 0.51617 0.49487 0.07009 0.0
C776 C 0.56333 0.50224 0.96137 0.0
O777 O 0.54837 0.57304 0.97221 0.0
O778 O 0.57766 0.55527 0.99343 0.0
O779 O 0.4814 0.51295 0.08076 0.0
O780 O 0.48397 0.53789 0.04846 0.0
O781 O 0.45723 0.52323 1.00042 0.0
O782 O 0.48426 0.55425 0.97394 0.0
O783 O 0.54911 0.55582 0.04569 0.0
O784 O 0.54155 0.53191 0.0801 0.0
C785 C 0.46089 0.54373 0.9865 0.0
O786 O 0.48803 0.46002 0.06007 0.0
O787 O 0.45892 0.47787 0.0388 0.0
O788 O 0.55437 0.5201 0.95136 0.0
O789 O 0.55249 0.49532 0.98357 0.0
C790 C 0.57214 0.57392 0.98057 0.0
C791 C 0.54994 0.5542 0.06987 0.0
C792 C 0.57551 0.48926 0.0461 0.0
O793 O 0.57935 0.50946 0.03174 0.0
O794 O 0.55209 0.4792 0.05893 0.0
C795 C 0.47332 0.53145 0.07087 0.0
O796 O 0.48801 0.47712 0.98653 0.0
O797 O 0.49405 0.50141 0.9526 0.0
C798 C 0.46426 0.45927 0.05181 0.0
C799 C 0.48627 0.47886 0.96254 0.0
Fe800 Fe 0.03201 0.45403 0.51669 0.0
O801 O 0.0351 0.49403 0.51871 0.0
Fe802 Fe 0.02649 0.50947 0.4855 0.0
Fe803 Fe 1.01516 0.51669 0.54774 0.0
O804 O 0.03637 0.4939 0.51566 0.0
O805 O 1.00642 0.532 0.51452 0.0
O806 O 1.00515 0.53213 0.51756 0.0
Fe807 Fe 1.0092 0.5719 0.51645 0.0
C808 C 0.97718 0.46217 0.55067 0.0
O809 O 0.05415 0.46598 0.54867 0.0
O810 O 0.03012 0.49711 0.57506 0.0
O811 O 0.04385 0.57664 0.4895 0.0
O812 O 0.06238 0.53883 0.48527 0.0
O813 O 0.04991 0.48269 0.45913 0.0
O814 O 0.06467 0.45815 0.48719 0.0
O815 O 0.05086 0.54572 0.54962 0.0
O816 O 0.03471 0.58336 0.54638 0.0
C817 C 0.06565 0.46628 0.46427 0.0
O818 O 0.98707 0.55971 0.48447 0.0
O819 O 1.01164 0.52897 0.45816 0.0
O820 O 0.99728 0.4494 0.54367 0.0
O821 O 0.9792 0.48748 0.54807 0.0
C822 C 0.04817 0.48068 0.57086 0.0
C823 C 0.05244 0.57163 0.55378 0.0
C824 C 0.9759 0.55982 0.56893 0.0
O825 O 0.99181 0.54357 0.5741 0.0
O826 O 0.97659 0.56763 0.54592 0.0
C827 C 0.06412 0.56409 0.4826 0.0
O828 O 0.99078 0.48059 0.48342 0.0
O829 O 1.00648 0.44275 0.48675 0.0
C830 C 0.99328 0.54504 0.46232 0.0
C831 C 0.98902 0.45469 0.4792 0.0
Fe832 Fe 0.52161 0.98128 0.51085 0.0
O833 O 0.50249 1.00923 0.53428 0.0
Fe834 Fe 0.54557 1.01401 0.45506 0.0
Fe835 Fe 0.49788 1.01178 0.57289 0.0
O836 O 0.54134 1.01412 0.49344 0.0
O837 O 0.54105 0.01723 0.49375 0.0
O838 O 0.50225 1.01223 0.53461 0.0
Fe839 Fe 0.52132 0.04503 0.51682 0.0
C840 C 0.47625 0.95258 0.5513 0.0
O841 O 0.55251 0.98628 0.53517 0.0
O842 O 0.52675 0.98753 0.57413 0.0
O843 O 0.54501 0.07541 0.49423 0.0
O844 O 0.57164 0.05138 0.46224 0.0
O845 O 0.57247 0.98771 0.45677 0.0
O846 O 0.54572 0.95658 0.48314 0.0
O847 O 0.52838 0.04601 0.57991 0.0
O848 O 0.55247 0.05373 0.54101 0.0
C849 C 0.56667 0.96384 0.46549 0.0
O850 O 0.49027 0.03888 0.4925 0.0
O851 O 0.51589 0.03712 0.45349 0.0
O852 O 0.49711 0.95085 0.533 0.0
O853 O 0.47077 0.97528 0.56487 0.0
C854 C 0.5487 0.98311 0.55953 0.0
C855 C 0.55001 0.0568 0.56604 0.0
C856 C 0.4769 0.06271 0.56276 0.0
O857 O 0.47161 0.03907 0.57188 0.0
O858 O 0.4971 0.06966 0.54434 0.0
C859 C 0.56535 0.07394 0.47538 0.0
O860 O 0.51628 0.97873 0.44827 0.0
O861 O 0.49035 0.97381 0.48652 0.0
C862 C 0.49399 0.04173 0.46807 0.0
C863 C 0.49364 0.96921 0.46151 0.0
H864 H 0.23678 0.17649 0.29479 0.0
H865 H 0.20777 0.14516 0.32393 0.0
H866 H 0.15691 0.20638 0.35248 0.0
H867 H 0.18481 0.23688 0.32181 0.0
H868 H 0.19948 0.14655 0.37258 0.0
H869 H 0.0967 0.14341 0.34127 0.0
H870 H 0.12824 0.15947 0.32349 0.0
H871 H 0.11219 0.17801 0.35214 0.0
C872 C 0.21922 0.18309 0.30714 0.0
C873 C 0.21283 0.20895 0.30598 0.0
C874 C 0.20261 0.16518 0.32381 0.0
C875 C 0.17961 0.17299 0.34016 0.0
C876 C 0.17373 0.19925 0.33943 0.0
H877 H 0.11576 0.09698 0.48194 0.0
H878 H 0.13961 0.12599 0.44863 0.0
C879 C 0.18986 0.21683 0.32211 0.0
C880 C 0.16289 0.15418 0.35884 0.0
H881 H 0.09671 0.12702 0.38269 0.0
C882 C 0.177 0.14209 0.37448 0.0
C883 C 0.1335 0.14772 0.36118 0.0
C884 C 0.11683 0.1576 0.34339 0.0
C885 C 0.16275 0.12426 0.39252 0.0
C886 C 0.13337 0.11946 0.39629 0.0
C887 C 0.11919 0.13101 0.38026 0.0
C888 C 0.11713 0.10288 0.41696 0.0
C889 C 0.17958 0.11029 0.4068 0.0
C890 C 0.09504 0.08129 0.41091 0.0
C891 C 0.08058 0.06522 0.43034 0.0
C892 C 0.08835 0.07021 0.45596 0.0
C893 C 0.10979 0.0923 0.46215 0.0
C894 C 0.12362 0.10876 0.44303 0.0
H895 H 0.1997 0.10794 0.39506 0.0
H896 H 0.18429 0.12312 0.42559 0.0
H897 H 0.16831 0.08963 0.41115 0.0
H898 H 0.08934 0.07649 0.39104 0.0
H899 H 0.06401 0.04838 0.42515 0.0
H900 H 0.83946 0.12438 0.35209 0.0
H901 H 0.86809 0.1245 0.38705 0.0
H902 H 0.93102 0.18659 0.35335 0.0
H903 H 0.90208 0.18674 0.31824 0.0
H904 H 0.94881 0.13641 0.36285 0.0
H905 H 0.88984 0.18299 0.45082 0.0
H906 H 0.86843 0.1577 0.43037 0.0
H907 H 0.88666 0.18882 0.41773 0.0
C908 C 0.85921 0.13837 0.35238 0.0
C909 C 0.86861 0.15552 0.3325 0.0
C910 C 0.87547 0.13855 0.37243 0.0
C911 C 0.90155 0.15574 0.37294 0.0
C912 C 0.91083 0.17337 0.35342 0.0
H913 H 1.01382 0.10843 0.4718 0.0
H914 H 1.00004 0.13907 0.44471 0.0
C915 C 0.89431 0.17349 0.33348 0.0
C916 C 0.91973 0.15302 0.39257 0.0
H917 H 0.91917 0.15251 0.45857 0.0
C918 C 0.94293 0.14064 0.38383 0.0
C919 C 0.91202 0.15867 0.41987 0.0
C920 C 0.88802 0.17303 0.43031 0.0
C921 C 0.95701 0.13136 0.40163 0.0
C922 C 0.94789 0.13508 0.4289 0.0
C923 C 0.92615 0.1496 0.43769 0.0
C924 C 0.95672 0.11964 0.44778 0.0
C925 C 0.97995 0.11559 0.39096 0.0
C926 C 0.93685 0.09945 0.45937 0.0
C927 C 0.94456 0.08225 0.47478 0.0
C928 C 0.97241 0.08476 0.47913 0.0
C929 C 0.99222 0.10599 0.46877 0.0
C930 C 0.98441 0.12331 0.45312 0.0
H931 H 0.98225 0.11173 0.36912 0.0
H932 H 0.99989 0.12748 0.39721 0.0
H933 H 0.97596 0.09553 0.39892 0.0
H934 H 0.91537 0.09624 0.45563 0.0
H935 H 0.92866 0.06639 0.48274 0.0
H936 H 0.84671 0.77253 0.30702 0.0
H937 H 0.877 0.79555 0.34013 0.0
H938 H 0.84452 0.86976 0.34255 0.0
H939 H 0.81386 0.84684 0.3094 0.0
H940 H 0.90494 0.87646 0.34098 0.0
H941 H 0.84611 0.81444 0.41863 0.0
H942 H 0.85711 0.79547 0.38801 0.0
H943 H 0.8319 0.81693 0.3889 0.0
C944 C 0.84604 0.7938 0.31445 0.0
C945 C 0.82775 0.80784 0.30564 0.0
C946 C 0.86335 0.80687 0.33341 0.0
C947 C 0.86269 0.83418 0.34397 0.0
C948 C 0.84523 0.84861 0.33461 0.0
H949 H 0.91016 0.93936 0.47924 0.0
H950 H 0.88744 0.90656 0.44563 0.0
C951 C 0.82781 0.83552 0.31564 0.0
C952 C 0.87964 0.84744 0.36533 0.0
H953 H 0.88575 0.84645 0.43018 0.0
C954 C 0.90097 0.86979 0.36042 0.0
C955 C 0.87421 0.83866 0.39066 0.0
C956 C 0.85098 0.8152 0.39708 0.0
C957 C 0.91685 0.88389 0.38037 0.0
C958 C 0.91127 0.87525 0.40574 0.0
C959 C 0.89019 0.85267 0.41056 0.0
C960 C 0.92471 0.89165 0.42821 0.0
C961 C 0.93875 0.90861 0.37453 0.0
C962 C 0.95297 0.89318 0.43022 0.0
C963 C 0.96598 0.91173 0.44977 0.0
C964 C 0.95098 0.92926 0.46709 0.0
C965 C 0.92234 0.92634 0.46593 0.0
C966 C 0.90931 0.9076 0.44678 0.0
H967 H 0.93834 0.91445 0.35467 0.0
H968 H 0.93586 0.92647 0.38943 0.0
H969 H 0.95953 0.90399 0.37561 0.0
H970 H 0.96511 0.88079 0.41614 0.0
H971 H 0.98792 0.91338 0.45032 0.0
H972 H 0.11948 0.78416 0.28623 0.0
H973 H 0.10679 0.82779 0.30657 0.0
H974 H 0.10758 0.8042 0.38349 0.0
H975 H 0.1217 0.76105 0.36318 0.0
H976 H 0.06656 0.84514 0.34027 0.0
H977 H 0.1657 0.87384 0.38384 0.0
H978 H 0.15833 0.84408 0.3599 0.0
H979 H 0.14589 0.8423 0.39416 0.0
C980 C 0.11654 0.78816 0.30751 0.0
C981 C 0.1221 0.7696 0.32319 0.0
C982 C 0.1093 0.81303 0.31906 0.0
C983 C 0.10727 0.81953 0.34644 0.0
C984 C 0.10998 0.79983 0.36224 0.0
H985 H 0.0328 0.93076 0.45191 0.0
H986 H 0.04459 0.89675 0.41591 0.0
C987 C 0.11755 0.77503 0.35068 0.0
C988 C 0.10373 0.84738 0.3584 0.0
H989 H 0.13075 0.90068 0.40174 0.0
C990 C 0.08076 0.85749 0.35346 0.0
C991 C 0.12302 0.864 0.37453 0.0
C992 C 0.14979 0.85564 0.37815 0.0
C993 C 0.07538 0.88295 0.36595 0.0
C994 C 0.0929 0.89805 0.38451 0.0
C995 C 0.11705 0.88892 0.38782 0.0
C996 C 0.08454 0.92081 0.40345 0.0
C997 C 0.05069 0.89308 0.35946 0.0
C998 C 0.1033 0.94548 0.40894 0.0
C999 C 0.09658 0.96484 0.43002 0.0
C1000 C 0.07092 0.95977 0.44548 0.0
C1001 C 0.05207 0.93551 0.43948 0.0
C1002 C 0.05886 0.91611 0.41886 0.0
H1003 H 0.04731 0.88653 0.3385 0.0
H1004 H 0.03178 0.8839 0.37162 0.0
H1005 H 0.05325 0.91583 0.36326 0.0
H1006 H 0.12342 0.9493 0.39752 0.0
H1007 H 0.11152 0.98339 0.43455 0.0
H1008 H 0.20537 0.90984 0.67687 0.0
H1009 H 0.17528 0.90836 0.64292 0.0
H1010 H 0.12342 0.83489 0.66887 0.0
H1011 H 0.15314 0.83673 0.70361 0.0
H1012 H 0.15768 0.86848 0.60125 0.0
H1013 H 0.06995 0.88941 0.67653 0.0
H1014 H 0.10475 0.89321 0.68498 0.0
H1015 H 0.08447 0.85955 0.67803 0.0
C1016 C 0.18758 0.89334 0.67539 0.0
C1017 C 0.18137 0.87369 0.69324 0.0
C1018 C 0.17054 0.89236 0.6558 0.0
C1019 C 0.1469 0.87173 0.65358 0.0
C1020 C 0.14135 0.85121 0.67047 0.0
H1021 H 0.05545 0.9049 0.52808 0.0
H1022 H 0.07031 0.87408 0.55441 0.0
C1023 C 0.15846 0.85218 0.69017 0.0
C1024 C 0.12739 0.87346 0.6348 0.0
H1025 H 0.06619 0.89428 0.63301 0.0
C1026 C 0.13731 0.87334 0.60799 0.0
C1027 C 0.10082 0.87981 0.64373 0.0
C1028 C 0.08926 0.8807 0.67237 0.0
C1029 C 0.12234 0.88152 0.59027 0.0
C1030 C 0.09673 0.8898 0.59962 0.0
C1031 C 0.08576 0.8877 0.62592 0.0
C1032 C 0.08468 0.90664 0.58453 0.0
C1033 C 0.13509 0.88361 0.56222 0.0
C1034 C 0.08718 0.93479 0.59313 0.0
C1035 C 0.07899 0.95216 0.57828 0.0
C1036 C 0.06788 0.94183 0.55445 0.0
C1037 C 0.064 0.91336 0.54635 0.0
C1038 C 0.07257 0.89583 0.56127 0.0
H1039 H 0.1556 0.87715 0.55828 0.0
H1040 H 0.12107 0.87042 0.54858 0.0
H1041 H 0.1377 0.90512 0.5578 0.0
H1042 H 0.09643 0.94355 0.61101 0.0
H1043 H 0.08186 0.97393 0.58527 0.0
H1044 H 0.19624 0.25807 0.71969 0.0
H1045 H 0.1642 0.23457 0.68811 0.0
H1046 H 0.1978 0.16075 0.68403 0.0
H1047 H 0.23015 0.18413 0.71548 0.0
H1048 H 0.1946 0.18008 0.63378 0.0
H1049 H 0.09521 0.17165 0.6998 0.0
H1050 H 0.11772 0.20477 0.70096 0.0
H1051 H 0.12845 0.17667 0.7122 0.0
C1052 C 0.19666 0.23674 0.71229 0.0
C1053 C 0.21565 0.22289 0.72022 0.0
C1054 C 0.17826 0.22335 0.69432 0.0
C1055 C 0.17852 0.19591 0.68394 0.0
C1056 C 0.19723 0.18193 0.69197 0.0
H1057 H 0.08432 0.06472 0.59736 0.0
H1058 H 0.10617 0.09962 0.62993 0.0
C1059 C 0.21556 0.19525 0.71005 0.0
C1060 C 0.16015 0.18205 0.66383 0.0
H1061 H 0.09271 0.15439 0.65509 0.0
C1062 C 0.17229 0.17472 0.6383 0.0
C1063 C 0.13108 0.17519 0.66992 0.0
C1064 C 0.11719 0.18226 0.69722 0.0
C1065 C 0.15617 0.16001 0.61879 0.0
C1066 C 0.12718 0.15261 0.625 0.0
C1067 C 0.11492 0.16052 0.65036 0.0
C1068 C 0.11015 0.1331 0.60667 0.0
C1069 C 0.17033 0.1513 0.59201 0.0
C1070 C 0.10431 0.14063 0.58315 0.0
C1071 C 0.09148 0.12063 0.56448 0.0
C1072 C 0.08492 0.09295 0.56907 0.0
C1073 C 0.08956 0.08588 0.59321 0.0
C1074 C 0.10188 0.10579 0.61188 0.0
H1075 H 0.19328 0.15681 0.59105 0.0
H1076 H 0.16442 0.12872 0.58684 0.0
H1077 H 0.16346 0.1614 0.57697 0.0
H1078 H 0.1105 0.1617 0.5789 0.0
H1079 H 0.08806 0.12652 0.54601 0.0
H1080 H 0.93831 0.2787 0.67245 0.0
H1081 H 0.96425 0.24505 0.64694 0.0
H1082 H 0.95462 0.20132 0.71472 0.0
H1083 H 0.93104 0.2361 0.7408 0.0
H1084 H 0.99758 0.19004 0.68339 0.0
H1085 H 0.90861 0.1788 0.62537 0.0
H1086 H 0.93197 0.21104 0.62394 0.0
H1087 H 0.91242 0.20273 0.65473 0.0
C1088 C 0.943 0.26272 0.68224 0.0
C1089 C 0.93167 0.2592 0.70824 0.0
C1090 C 0.9575 0.24331 0.66757 0.0
C1091 C 0.95986 0.21993 0.67859 0.0
C1092 C 0.9524 0.21885 0.70563 0.0
H1093 H 0.93425 0.05869 0.58998 0.0
H1094 H 0.92996 0.09861 0.62294 0.0
C1095 C 0.93869 0.23861 0.72046 0.0
C1096 C 0.96494 0.19456 0.66173 0.0
H1097 H 0.93857 0.14746 0.61281 0.0
C1098 C 0.98478 0.18071 0.66787 0.0
C1099 C 0.94744 0.18197 0.64217 0.0
C1100 C 0.92373 0.19421 0.63631 0.0
C1101 C 0.98752 0.15453 0.6551 0.0
C1102 C 0.97082 0.14254 0.63478 0.0
C1103 C 0.95126 0.15657 0.62847 0.0
C1104 C 0.97388 0.11611 0.61879 0.0
C1105 C 1.00753 0.13975 0.66427 0.0
C1106 C 0.99994 0.11234 0.60615 0.0
C1107 C 1.00244 0.08926 0.58817 0.0
C1108 C 0.9788 0.07 0.58162 0.0
C1109 C 0.95273 0.07329 0.59468 0.0
C1110 C 0.95034 0.09606 0.61341 0.0
H1111 H 1.01004 0.1463 0.68542 0.0
H1112 H 1.00059 0.1171 0.66145 0.0
H1113 H 0.02822 0.14499 0.65298 0.0
H1114 H 1.01825 0.12786 0.60912 0.0
H1115 H 0.02279 0.08749 0.5782 0.0
H1116 H 0.85937 0.79459 0.71387 0.0
H1117 H 0.88783 0.82461 0.68312 0.0
H1118 H 0.83825 0.88698 0.7113 0.0
H1119 H 0.80856 0.85604 0.7405 0.0
H1120 H 0.84596 0.88512 0.66283 0.0
H1121 H 0.94921 0.88655 0.69207 0.0
H1122 H 0.93303 0.852 0.68189 0.0
H1123 H 0.91782 0.87122 0.71058 0.0
C1124 C 0.85484 0.81487 0.71363 0.0
C1125 C 0.83196 0.82315 0.72964 0.0
C1126 C 0.87127 0.83216 0.6962 0.0
C1127 C 0.86584 0.85855 0.6952 0.0
C1128 C 0.84309 0.86685 0.7116 0.0
H1129 H 0.98235 0.97857 0.60494 0.0
H1130 H 0.95739 0.95189 0.64026 0.0
C1131 C 0.82614 0.84922 0.72837 0.0
C1132 C 0.88257 0.87682 0.67597 0.0
H1133 H 0.94869 0.90181 0.65013 0.0
C1134 C 0.86845 0.88898 0.6604 0.0
C1135 C 0.912 0.88252 0.67286 0.0
C1136 C 0.92884 0.87263 0.69048 0.0
C1137 C 0.88266 0.90606 0.64168 0.0
C1138 C 0.912 0.91001 0.63714 0.0
C1139 C 0.92623 0.89846 0.65313 0.0
C1140 C 0.92811 0.92566 0.61569 0.0
C1141 C 0.86586 0.92017 0.6275 0.0
C1142 C 0.92069 0.91938 0.58994 0.0
C1143 C 0.93432 0.93506 0.57014 0.0
C1144 C 0.9565 0.95673 0.57529 0.0
C1145 C 0.96521 0.96206 0.60055 0.0
C1146 C 0.95095 0.94679 0.62068 0.0
H1147 H 0.8462 0.92339 0.63967 0.0
H1148 H 0.87755 0.94044 0.62242 0.0
H1149 H 0.86027 0.90697 0.60913 0.0
H1150 H 0.9041 0.90245 0.58512 0.0
H1151 H 0.92759 0.93013 0.55065 0.0
H1152 H 0.28627 0.17825 0.20723 0.0
H1153 H 0.31807 0.15266 0.1777 0.0
H1154 H 0.38212 0.22508 0.18066 0.0
H1155 H 0.35073 0.25032 0.21066 0.0
H1156 H 0.34419 0.15601 0.13058 0.0
H1157 H 0.42581 0.17332 0.19728 0.0
H1158 H 0.39282 0.18363 0.20758 0.0
H1159 H 0.41988 0.20506 0.18895 0.0
C1160 C 0.3071 0.18875 0.20152 0.0
C1161 C 0.31584 0.21641 0.21153 0.0
C1162 C 0.32542 0.17403 0.18462 0.0
C1163 C 0.35308 0.18648 0.17721 0.0
C1164 C 0.36143 0.2144 0.18658 0.0
H1165 H 0.4851 0.1186 0.06561 0.0
H1166 H 0.45767 0.15103 0.09246 0.0
C1167 C 0.34326 0.22899 0.20366 0.0
C1168 C 0.37287 0.17043 0.1595 0.0
H1169 H 0.43732 0.15288 0.15366 0.0
C1170 C 0.36451 0.15542 0.13579 0.0
C1171 C 0.3997 0.1694 0.16584 0.0
C1172 C 0.40999 0.18349 0.19141 0.0
C1173 C 0.38184 0.13969 0.11862 0.0
C1174 C 0.40847 0.13864 0.12505 0.0
C1175 C 0.41712 0.1539 0.14844 0.0
C1176 C 0.42621 0.11958 0.10909 0.0
C1177 C 0.37148 0.12404 0.09363 0.0
C1178 C 0.41819 0.09117 0.10978 0.0
C1179 C 0.43391 0.07276 0.09488 0.0
C1180 C 0.45831 0.08193 0.07841 0.0
C1181 C 0.46662 0.11057 0.07795 0.0
C1182 C 0.45086 0.12917 0.09329 0.0
H1183 H 0.35323 0.13124 0.08868 0.0
H1184 H 0.38812 0.12609 0.0769 0.0
H1185 H 0.36531 0.10189 0.09611 0.0
H1186 H 0.39951 0.08312 0.12188 0.0
H1187 H 0.42639 0.05105 0.09604 0.0
H1188 H 0.84073 0.33787 0.23201 0.0
H1189 H 0.87347 0.35883 0.1975 0.0
H1190 H 0.85064 0.28692 0.14242 0.0
H1191 H 0.81688 0.26637 0.17665 0.0
H1192 H 0.91891 0.34161 0.16814 0.0
H1193 H 0.84018 0.34812 0.10335 0.0
H1194 H 0.83082 0.34034 0.13678 0.0
H1195 H 0.84018 0.31431 0.11122 0.0
C1196 C 0.84247 0.32665 0.21247 0.0
C1197 C 0.82627 0.30047 0.20701 0.0
C1198 C 0.86135 0.33854 0.19282 0.0
C1199 C 0.86434 0.32459 0.16728 0.0
C1200 C 0.84836 0.2983 0.16183 0.0
H1201 H 0.964 0.4007 0.03207 0.0
H1202 H 0.94087 0.36372 0.05869 0.0
C1203 C 0.82928 0.28647 0.18146 0.0
C1204 C 0.88392 0.33802 0.1465 0.0
H1205 H 0.88665 0.36565 0.08928 0.0
C1206 C 0.91191 0.34659 0.15074 0.0
C1207 C 0.87482 0.34437 0.1237 0.0
C1208 C 0.84484 0.33654 0.11847 0.0
C1209 C 0.93076 0.36223 0.13335 0.0
C1210 C 0.92137 0.36958 0.11123 0.0
C1211 C 0.8938 0.3598 0.10619 0.0
C1212 C 0.93849 0.39062 0.0954 0.0
C1213 C 0.96043 0.37148 0.13917 0.0
C1214 C 0.94495 0.41778 0.10727 0.0
C1215 C 0.95769 0.43875 0.0922 0.0
C1216 C 0.96444 0.43302 0.0649 0.0
C1217 C 0.95918 0.40562 0.0531 0.0
C1218 C 0.94593 0.38457 0.06824 0.0
H1219 H 0.96631 0.35787 0.15179 0.0
H1220 H 0.97488 0.37189 0.12073 0.0
H1221 H 0.96294 0.39259 0.14983 0.0
H1222 H 0.93903 0.42298 0.1281 0.0
H1223 H 0.96162 0.45966 0.10185 0.0
H1224 H 0.63573 0.85931 0.20982 0.0
H1225 H 0.61767 0.88258 0.17933 0.0
H1226 H 0.70109 0.91525 0.14803 0.0
H1227 H 0.71941 0.89237 0.17873 0.0
H1228 H 0.62861 0.94024 0.17566 0.0
H1229 H 0.66239 0.8797 0.08207 0.0
H1230 H 0.6606 0.8679 0.11378 0.0
H1231 H 0.68901 0.89383 0.10319 0.0
C1232 C 0.65027 0.87156 0.19656 0.0
C1233 C 0.67904 0.87402 0.19676 0.0
C1234 C 0.6399 0.8847 0.17906 0.0
C1235 C 0.65804 0.90038 0.16128 0.0
C1236 C 0.68674 0.90282 0.16129 0.0
H1237 H 0.62995 0.99312 0.04052 0.0
H1238 H 0.65071 0.97283 0.07144 0.0
C1239 C 0.69716 0.88972 0.17883 0.0
C1240 C 0.64685 0.91492 0.14338 0.0
H1241 H 0.64245 0.91803 0.0786 0.0
C1242 C 0.63158 0.9354 0.15443 0.0
C1243 C 0.65091 0.90859 0.11572 0.0
C1244 C 0.66642 0.88617 0.10289 0.0
C1245 C 0.62042 0.94993 0.13853 0.0
C1246 C 0.62417 0.94338 0.11087 0.0
C1247 C 0.63965 0.92304 0.09981 0.0
C1248 C 0.61161 0.95685 0.09304 0.0
C1249 C 0.6051 0.97245 0.1515 0.0
C1250 C 0.58274 0.95458 0.09495 0.0
C1251 C 0.57081 0.96626 0.07743 0.0
C1252 C 0.58751 0.98019 0.05742 0.0
C1253 C 0.61647 0.98257 0.05568 0.0
C1254 C 0.62838 0.97095 0.0733 0.0
H1255 H 0.61096 0.98022 0.17159 0.0
H1256 H 0.60924 0.98997 0.13965 0.0
H1257 H 0.58249 0.96421 0.15331 0.0
H1258 H 0.56936 0.94325 0.10965 0.0
H1259 H 0.54842 0.96379 0.07924 0.0
H1260 H 0.24731 0.65947 0.22353 0.0
H1261 H 0.21446 0.63135 0.19453 0.0
H1262 H 0.2023 0.7045 0.16614 0.0
H1263 H 0.23543 0.73258 0.19445 0.0
H1264 H 0.15795 0.63294 0.19229 0.0
H1265 H 0.22165 0.65566 0.09833 0.0
H1266 H 0.23577 0.66276 0.1295 0.0
H1267 H 0.21602 0.68573 0.12039 0.0
C1268 C 0.23779 0.66956 0.21097 0.0
C1269 C 0.24423 0.69832 0.21122 0.0
C1270 C 0.21889 0.65345 0.1945 0.0
C1271 C 0.20605 0.66575 0.17794 0.0
C1272 C 0.21227 0.69445 0.17836 0.0
H1273 H 0.06245 0.59136 0.09123 0.0
H1274 H 0.09171 0.6174 0.12465 0.0
C1275 C 0.23123 0.71052 0.19466 0.0
C1276 C 0.18619 0.64872 0.16016 0.0
H1277 H 0.17534 0.63252 0.09544 0.0
C1278 C 0.16175 0.63276 0.1711 0.0
C1279 C 0.19123 0.64829 0.13249 0.0
C1280 C 0.21769 0.66381 0.1194 0.0
C1281 C 0.14216 0.61662 0.15512 0.0
C1282 C 0.14694 0.61671 0.12748 0.0
C1283 C 0.17147 0.63258 0.11662 0.0
C1284 C 0.12781 0.59938 0.10911 0.0
C1285 C 0.11687 0.59911 0.16791 0.0
C1286 C 0.13815 0.5805 0.08935 0.0
C1287 C 0.12166 0.56592 0.07026 0.0
C1288 C 0.09426 0.56974 0.07032 0.0
C1289 C 0.08339 0.58781 0.09073 0.0
C1290 C 0.10011 0.60266 0.10986 0.0
H1291 H 0.11948 0.59628 0.1883 0.0
H1292 H 0.09875 0.60927 0.16885 0.0
H1293 H 0.11224 0.57857 0.15629 0.0
H1294 H 0.15933 0.57743 0.08835 0.0
H1295 H 0.13067 0.55196 0.05504 0.0
H1296 H 0.33068 0.78294 0.8304 0.0
H1297 H 0.36112 0.81326 0.85993 0.0
H1298 H 0.35285 0.88301 0.82342 0.0
H1299 H 0.32166 0.85288 0.79422 0.0
H1300 H 0.41039 0.8464 0.85166 0.0
H1301 H 0.33258 0.90907 0.89957 0.0
H1302 H 0.32346 0.8777 0.87806 0.0
H1303 H 0.33893 0.90916 0.86456 0.0
C1304 C 0.33525 0.80473 0.8286 0.0
C1305 C 0.32343 0.81544 0.81002 0.0
C1306 C 0.35277 0.82208 0.84552 0.0
C1307 C 0.35899 0.85055 0.84429 0.0
C1308 C 0.34784 0.86124 0.82528 0.0
H1309 H 0.49013 0.95767 0.93191 0.0
H1310 H 0.46459 0.9313 0.8961 0.0
C1311 C 0.33009 0.84392 0.80847 0.0
C1312 C 0.37696 0.86885 0.86308 0.0
H1313 H 0.37806 0.92332 0.91147 0.0
C1314 C 0.40335 0.86327 0.8647 0.0
C1315 C 0.36771 0.89072 0.88032 0.0
C1316 C 0.33904 0.89691 0.88079 0.0
C1317 C 0.42055 0.87868 0.88321 0.0
C1318 C 0.41143 0.90076 0.90022 0.0
C1319 C 0.38521 0.90657 0.89832 0.0
C1320 C 0.4276 0.91678 0.92154 0.0
C1321 C 0.44783 0.87042 0.88505 0.0
C1322 C 0.41526 0.91794 0.94769 0.0
C1323 C 0.42959 0.93322 0.96803 0.0
C1324 C 0.45681 0.94777 0.96285 0.0
C1325 C 0.46932 0.94654 0.93664 0.0
C1326 C 0.45477 0.93134 0.91616 0.0
H1327 H 0.4486 0.84922 0.87533 0.0
H1328 H 0.46488 0.88466 0.8751 0.0
H1329 H 0.45163 0.87158 0.90589 0.0
H1330 H 0.39439 0.90691 0.95244 0.0
H1331 H 0.41922 0.93354 0.98791 0.0
H1332 H 0.18708 0.27429 0.81592 0.0
H1333 H 0.15433 0.29904 0.84507 0.0
H1334 H 0.21532 0.37368 0.84542 0.0
H1335 H 0.2486 0.34884 0.81733 0.0
H1336 H 0.16407 0.33595 0.89861 0.0
H1337 H 0.14122 0.3882 0.81849 0.0
H1338 H 0.15587 0.35726 0.812 0.0
H1339 H 0.17721 0.38966 0.82163 0.0
C1340 C 0.19368 0.29593 0.82237 0.0
C1341 C 0.22046 0.30962 0.81379 0.0
C1342 C 0.17484 0.31007 0.83903 0.0
C1343 C 0.18217 0.33834 0.84726 0.0
C1344 C 0.20902 0.35196 0.83913 0.0
H1345 H 0.10935 0.47352 0.92574 0.0
H1346 H 0.13399 0.44068 0.89868 0.0
C1347 C 0.22798 0.33775 0.82279 0.0
C1348 C 0.16169 0.35385 0.86382 0.0
H1349 H 0.12269 0.40252 0.86174 0.0
C1350 C 0.1548 0.35039 0.89058 0.0
C1351 C 0.14963 0.37269 0.85338 0.0
C1352 C 0.1561 0.37716 0.82476 0.0
C1353 C 0.13717 0.36611 0.9074 0.0
C1354 C 0.12521 0.38527 0.89702 0.0
C1355 C 0.13157 0.38794 0.86996 0.0
C1356 C 0.10849 0.40476 0.91398 0.0
C1357 C 0.13276 0.36296 0.93635 0.0
C1358 C 0.08512 0.39597 0.93179 0.0
C1359 C 0.07084 0.41517 0.94805 0.0
C1360 C 0.07931 0.44361 0.94659 0.0
C1361 C 0.10194 0.45198 0.92789 0.0
C1362 C 0.11626 0.43303 0.9121 0.0
H1363 H 0.14877 0.35295 0.94209 0.0
H1364 H 0.13318 0.38321 0.94852 0.0
H1365 H 0.11224 0.34987 0.94094 0.0
H1366 H 0.07795 0.37429 0.93325 0.0
H1367 H 0.05356 0.40778 0.96204 0.0
H1368 H 0.73511 0.24789 0.84819 0.0
H1369 H 0.70459 0.22072 0.8801 0.0
H1370 H 0.64218 0.19879 0.82643 0.0
H1371 H 0.67299 0.22552 0.79414 0.0
H1372 H 0.62186 0.21498 0.8812 0.0
H1373 H 0.68781 0.13524 0.86984 0.0
H1374 H 0.70539 0.17021 0.87644 0.0
H1375 H 0.69054 0.15901 0.84604 0.0
C1376 C 0.71511 0.23688 0.84301 0.0
C1377 C 0.70674 0.2382 0.81841 0.0
C1378 C 0.69756 0.22161 0.86136 0.0
C1379 C 0.67123 0.20749 0.85553 0.0
C1380 C 0.66243 0.20951 0.83131 0.0
H1381 H 0.5731 0.06839 0.92315 0.0
H1382 H 0.59612 0.10309 0.89478 0.0
C1383 C 0.68004 0.22474 0.8129 0.0
C1384 C 0.65329 0.18983 0.87428 0.0
H1385 H 0.64925 0.13117 0.9022 0.0
C1386 C 0.6278 0.19667 0.88589 0.0
C1387 C 0.66103 0.16588 0.88017 0.0
C1388 C 0.68757 0.15689 0.86738 0.0
C1389 C 0.60986 0.1801 0.90328 0.0
C1390 C 0.61774 0.15624 0.90927 0.0
C1391 C 0.64329 0.14956 0.89771 0.0
C1392 C 0.59939 0.13681 0.92621 0.0
C1393 C 0.58234 0.18779 0.91458 0.0
C1394 C 0.59254 0.1444 0.95327 0.0
C1395 C 0.57897 0.12447 0.96961 0.0
C1396 C 0.5725 0.09674 0.95908 0.0
C1397 C 0.57794 0.08962 0.9318 0.0
C1398 C 0.59117 0.10942 0.91557 0.0
H1399 H 0.57707 0.20366 0.90416 0.0
H1400 H 0.56551 0.16943 0.91353 0.0
H1401 H 0.58321 0.19613 0.93561 0.0
H1402 H 0.59901 0.16535 0.96198 0.0
H1403 H 0.57534 0.13041 0.99062 0.0
H1404 H 0.94695 0.70422 0.82752 0.0
H1405 H 0.95497 0.66987 0.85322 0.0
H1406 H 0.88102 0.67977 0.90548 0.0
H1407 H 0.87302 0.71473 0.88003 0.0
H1408 H 0.96204 0.68165 0.90847 0.0
H1409 H 0.87545 0.59452 0.88786 0.0
H1410 H 0.88702 0.62123 0.8666 0.0
H1411 H 0.86655 0.62801 0.89744 0.0
C1412 C 0.93229 0.69912 0.84445 0.0
C1413 C 0.9095 0.71257 0.85187 0.0
C1414 C 0.93685 0.67933 0.85903 0.0
C1415 C 0.91859 0.67217 0.88123 0.0
C1416 C 0.89521 0.68472 0.88822 0.0
H1417 H 0.9268 0.56441 0.99772 0.0
H1418 H 0.91198 0.59371 0.97048 0.0
C1419 C 0.89065 0.70469 0.87363 0.0
C1420 C 0.92542 0.65317 0.89797 0.0
H1421 H 0.9049 0.58944 0.91839 0.0
C1422 C 0.94956 0.66147 0.91063 0.0
C1423 C 0.90898 0.62698 0.90095 0.0
C1424 C 0.88312 0.61692 0.88741 0.0
C1425 C 0.95772 0.64438 0.92624 0.0
C1426 C 0.94172 0.61782 0.9287 0.0
C1427 C 0.91729 0.60967 0.91636 0.0
C1428 C 0.95007 0.5984 0.94411 0.0
C1429 C 0.98313 0.65524 0.94038 0.0
C1430 C 0.97611 0.59054 0.93794 0.0
C1431 C 0.98476 0.57394 0.95359 0.0
C1432 C 0.96739 0.56447 0.97561 0.0
C1433 C 0.9408 0.57135 0.98101 0.0
C1434 C 0.93224 0.58812 0.96542 0.0
H1435 H 0.98799 0.67808 0.94282 0.0
H1436 H 0.98041 0.64813 0.96011 0.0
H1437 H 1.00122 0.64771 0.92867 0.0
H1438 H 0.98997 0.59757 0.92118 0.0
H1439 H 1.00527 0.56891 0.94864 0.0
H1440 H 0.16615 0.37664 0.21073 0.0
H1441 H 0.15347 0.40419 0.1805 0.0
H1442 H 0.12728 0.33047 0.1288 0.0
H1443 H 0.14059 0.30278 0.15885 0.0
H1444 H 0.15372 0.37231 0.10122 0.0
H1445 H 0.07404 0.40921 0.1763 0.0
H1446 H 0.10794 0.41738 0.18708 0.0
H1447 H 0.09131 0.38198 0.18076 0.0
C1448 C 0.15784 0.36632 0.19282 0.0
C1449 C 0.15401 0.33752 0.18732 0.0
C1450 C 0.15046 0.38207 0.17563 0.0
C1451 C 0.13861 0.36937 0.15275 0.0
C1452 C 0.1361 0.34073 0.14648 0.0
H1453 H 0.04004 0.44653 0.06892 0.0
H1454 H 0.05685 0.41885 0.09631 0.0
C1455 C 0.14379 0.32492 0.16359 0.0
C1456 C 0.12822 0.38595 0.13586 0.0
H1457 H 0.08465 0.43135 0.13745 0.0
C1458 C 0.13854 0.38515 0.10911 0.0
C1459 C 0.10799 0.40232 0.14599 0.0
C1460 C 0.09444 0.4026 0.17403 0.0
C1461 C 0.1296 0.40062 0.09237 0.0
C1462 C 0.11033 0.41798 0.10281 0.0
C1463 C 0.09968 0.41839 0.12946 0.0
C1464 C 0.10032 0.43535 0.08638 0.0
C1465 C 0.14042 0.39763 0.06353 0.0
C1466 C 0.11905 0.4544 0.07209 0.0
C1467 C 0.1095 0.47006 0.05615 0.0
C1468 C 0.08095 0.46743 0.05457 0.0
C1469 C 0.06217 0.44913 0.06969 0.0
C1470 C 0.07177 0.43321 0.08534 0.0
H1471 H 0.14795 0.37793 0.0574 0.0
H1472 H 0.12419 0.39857 0.05104 0.0
H1473 H 0.15814 0.4146 0.0598 0.0
H1474 H 0.14111 0.45715 0.07322 0.0
H1475 H 0.12449 0.48423 0.04503 0.0
H1476 H 0.2005 0.69448 0.7977 0.0
H1477 H 0.16745 0.67586 0.83315 0.0
H1478 H 0.19589 0.74743 0.88666 0.0
H1479 H 0.23034 0.76516 0.8516 0.0
H1480 H 0.1928 0.70443 0.90897 0.0
H1481 H 0.09458 0.69212 0.86637 0.0
H1482 H 0.11788 0.67421 0.84413 0.0
H1483 H 0.12657 0.71105 0.85172 0.0
C1484 C 0.19972 0.70619 0.81706 0.0
C1485 C 0.21795 0.73127 0.82193 0.0
C1486 C 0.18043 0.6958 0.8372 0.0
C1487 C 0.17855 0.71056 0.86249 0.0
C1488 C 0.19669 0.73575 0.86729 0.0
H1489 H 0.05591 0.62418 0.98009 0.0
H1490 H 0.07838 0.66273 0.95506 0.0
C1491 C 0.21632 0.74591 0.84725 0.0
C1492 C 0.15971 0.6983 0.88441 0.0
H1493 H 0.09485 0.66138 0.89932 0.0
C1494 C 0.17119 0.69568 0.90708 0.0
C1495 C 0.13127 0.68733 0.88246 0.0
C1496 C 0.11684 0.69164 0.85996 0.0
C1497 C 0.15574 0.6805 0.92667 0.0
C1498 C 0.12833 0.66694 0.92322 0.0
C1499 C 0.11602 0.67145 0.90176 0.0
C1500 C 0.11425 0.64461 0.93903 0.0
C1501 C 0.16939 0.67809 0.95037 0.0
C1502 C 0.12673 0.62167 0.9379 0.0
C1503 C 0.11413 0.59994 0.95192 0.0
C1504 C 0.08847 0.60034 0.96741 0.0
C1505 C 0.07575 0.62333 0.96852 0.0
C1506 C 0.0885 0.64527 0.95421 0.0
H1507 H 0.18533 0.69663 0.95497 0.0
H1508 H 0.15397 0.67523 0.96796 0.0
H1509 H 0.17997 0.66011 0.9461 0.0
H1510 H 0.14628 0.62043 0.92588 0.0
H1511 H 0.12474 0.58275 0.95053 0.0
H1512 H 0.34561 0.20007 0.90619 0.0
H1513 H 0.37834 0.17687 0.92162 0.0
H1514 H 0.35841 0.10759 0.86276 0.0
H1515 H 0.32662 0.13144 0.84659 0.0
H1516 H 0.36451 0.13223 0.9436 0.0
H1517 H 0.44029 0.11269 0.85718 0.0
H1518 H 0.41664 0.13603 0.85801 0.0
H1519 H 0.40535 0.09957 0.85008 0.0
C1520 C 0.34883 0.18019 0.89617 0.0
C1521 C 0.33376 0.1675 0.8752 0.0
C1522 C 0.36746 0.16691 0.90499 0.0
C1523 C 0.37109 0.14052 0.89326 0.0
C1524 C 0.35662 0.1282 0.87172 0.0
H1525 H 0.41529 0.02469 0.98204 0.0
H1526 H 0.39236 0.04866 0.95601 0.0
C1527 C 0.33833 0.14174 0.86257 0.0
C1528 C 0.38746 0.12485 0.9055 0.0
H1529 H 0.43844 0.08614 0.89281 0.0
C1530 C 0.38085 0.1224 0.93247 0.0
C1531 C 0.40899 0.11217 0.89113 0.0
C1532 C 0.41844 0.11548 0.86257 0.0
C1533 C 0.39476 0.1074 0.94537 0.0
C1534 C 0.41524 0.09349 0.93074 0.0
C1535 C 0.42236 0.09637 0.90389 0.0
C1536 C 0.42974 0.0764 0.94329 0.0
C1537 C 0.38769 0.10708 0.97472 0.0
C1538 C 0.45863 0.08284 0.9434 0.0
C1539 C 0.4719 0.06881 0.95788 0.0
C1540 C 0.45641 0.04822 0.97265 0.0
C1541 C 0.42771 0.04075 0.97122 0.0
C1542 C 0.41456 0.05452 0.95646 0.0
H1543 H 0.37799 0.12488 0.98392 0.0
H1544 H 0.37263 0.08805 0.97856 0.0
H1545 H 0.40641 0.10748 0.98445 0.0
H1546 H 0.47078 0.09951 0.9332 0.0
H1547 H 0.49405 0.07503 0.95853 0.0
H1548 H 0.7746 0.34899 0.843 0.0
H1549 H 0.80615 0.37969 0.87189 0.0
H1550 H 0.87461 0.34352 0.83125 0.0
H1551 H 0.84381 0.31328 0.80247 0.0
H1552 H 0.84053 0.36471 0.90541 0.0
H1553 H 0.90395 0.426 0.82982 0.0
H1554 H 0.8705 0.40507 0.82465 0.0
H1555 H 0.90072 0.3895 0.82119 0.0
C1556 C 0.79637 0.34762 0.84019 0.0
C1557 C 0.80652 0.32858 0.82029 0.0
C1558 C 0.81439 0.36521 0.85669 0.0
C1559 C 0.84287 0.36424 0.85343 0.0
C1560 C 0.85289 0.34511 0.8338 0.0
H1561 H 0.98574 0.44201 0.93841 0.0
H1562 H 0.95568 0.41518 0.90588 0.0
C1563 C 0.83503 0.3276 0.81743 0.0
C1564 C 0.86217 0.38231 0.87106 0.0
H1565 H 0.92161 0.43095 0.87122 0.0
C1566 C 0.8581 0.37937 0.89798 0.0
C1567 C 0.88535 0.40118 0.86129 0.0
C1568 C 0.89034 0.40587 0.8327 0.0
C1569 C 0.87676 0.39444 0.91529 0.0
C1570 C 0.89987 0.41342 0.90557 0.0
C1571 C 0.904 0.41634 0.87864 0.0
C1572 C 0.91904 0.43127 0.92346 0.0
C1573 C 0.87185 0.38949 0.94383 0.0
C1574 C 0.90875 0.44995 0.9434 0.0
C1575 C 0.92571 0.46514 0.96182 0.0
C1576 C 0.95356 0.46223 0.96073 0.0
C1577 C 0.96441 0.4447 0.93982 0.0
C1578 C 0.94723 0.42931 0.9213 0.0
H1579 H 0.85814 0.36938 0.94661 0.0
H1580 H 0.89171 0.39004 0.95173 0.0
H1581 H 0.86163 0.40586 0.95553 0.0
H1582 H 0.8873 0.45237 0.94508 0.0
H1583 H 0.91675 0.4788 0.97737 0.0
H1584 H 0.73488 0.84581 0.79261 0.0
H1585 H 0.70328 0.87213 0.82183 0.0
H1586 H 0.69202 0.81376 0.87791 0.0
H1587 H 0.72329 0.78739 0.8485 0.0
H1588 H 0.64835 0.85647 0.83966 0.0
H1589 H 0.70841 0.88572 0.92552 0.0
H1590 H 0.72332 0.87225 0.89363 0.0
H1591 H 0.70164 0.84942 0.91506 0.0
C1592 C 0.72604 0.83896 0.81143 0.0
C1593 C 0.73222 0.81502 0.81865 0.0
C1594 C 0.70782 0.85391 0.82809 0.0
C1595 C 0.69546 0.84543 0.85253 0.0
C1596 C 0.70167 0.82136 0.85964 0.0
H1597 H 0.57657 0.91435 0.97688 0.0
H1598 H 0.60498 0.88338 0.94938 0.0
C1599 C 0.71966 0.80627 0.84283 0.0
C1600 C 0.67528 0.86108 0.86992 0.0
H1601 H 0.66282 0.89548 0.9316 0.0
C1602 C 0.65163 0.86501 0.85974 0.0
C1603 C 0.67917 0.87224 0.89631 0.0
C1604 C 0.70461 0.86997 0.90827 0.0
C1605 C 0.63195 0.87946 0.87501 0.0
C1606 C 0.63597 0.8909 0.90128 0.0
C1607 C 0.65943 0.88668 0.91161 0.0
C1608 C 0.61708 0.9087 0.91763 0.0
C1609 C 0.60672 0.88203 0.8629 0.0
C1610 C 0.61403 0.93328 0.90914 0.0
C1611 C 0.59788 0.95094 0.92479 0.0
C1612 C 0.58405 0.94471 0.94955 0.0
C1613 C 0.58646 0.91972 0.95783 0.0
C1614 C 0.60297 0.90208 0.94217 0.0
H1615 H 0.60236 0.86571 0.8462 0.0
H1616 H 0.58812 0.88089 0.87767 0.0
H1617 H 0.61041 0.90221 0.85522 0.0
H1618 H 0.62489 0.9393 0.89062 0.0
H1619 H 0.59678 0.96998 0.91766 0.0
H1620 H 0.80418 0.68 0.22084 0.0
H1621 H 0.83752 0.65581 0.19241 0.0
H1622 H 0.88387 0.73299 0.16958 0.0
H1623 H 0.8516 0.75742 0.19926 0.0
H1624 H 0.85134 0.65025 0.14143 0.0
H1625 H 0.94607 0.70212 0.18698 0.0
H1626 H 0.91186 0.70646 0.20185 0.0
H1627 H 0.92886 0.72556 0.1753 0.0
C1628 C 0.82158 0.69195 0.20997 0.0
C1629 C 0.82488 0.72081 0.21234 0.0
C1630 C 0.84068 0.678 0.19355 0.0
C1631 C 0.86371 0.69241 0.17894 0.0
C1632 C 0.86685 0.72122 0.18101 0.0
H1633 H 0.98627 0.62245 0.05896 0.0
H1634 H 0.9593 0.65511 0.08586 0.0
C1635 C 0.84796 0.73523 0.19773 0.0
C1636 C 0.88384 0.67707 0.16128 0.0
H1637 H 0.95255 0.67176 0.14781 0.0
C1638 C 0.87344 0.65509 0.14291 0.0
C1639 C 0.91289 0.68316 0.16292 0.0
C1640 C 0.92559 0.70542 0.18298 0.0
C1641 C 0.89097 0.63911 0.12652 0.0
C1642 C 0.91985 0.64506 0.12835 0.0
C1643 C 0.93046 0.66733 0.14622 0.0
C1644 C 0.93871 0.62677 0.1134 0.0
C1645 C 0.87842 0.61567 0.10745 0.0
C1646 C 0.93694 0.60039 0.12041 0.0
C1647 C 0.95243 0.58191 0.10535 0.0
C1648 C 0.97018 0.58914 0.08263 0.0
C1649 C 0.97305 0.61615 0.07635 0.0
C1650 C 0.95748 0.6348 0.09163 0.0
H1651 H 0.857 0.61714 0.10448 0.0
H1652 H 0.89134 0.61514 0.0881 0.0
H1653 H 0.87761 0.59595 0.11526 0.0
H1654 H 0.92291 0.59377 0.13724 0.0
H1655 H 0.94968 0.56147 0.1111 0.0
H1656 H 0.30263 0.79486 0.18909 0.0
H1657 H 0.33351 0.82113 0.15691 0.0
H1658 H 0.40335 0.81885 0.19744 0.0
H1659 H 0.37246 0.79235 0.22964 0.0
H1660 H 0.36514 0.87065 0.16388 0.0
H1661 H 0.43245 0.79521 0.12254 0.0
H1662 H 0.40037 0.78616 0.14323 0.0
H1663 H 0.43139 0.80296 0.15763 0.0
C1664 C 0.32448 0.80013 0.19133 0.0
C1665 C 0.33499 0.79172 0.2121 0.0
C1666 C 0.34221 0.81495 0.17273 0.0
C1667 C 0.37088 0.82164 0.17443 0.0
C1668 C 0.38144 0.81334 0.19524 0.0
H1669 H 0.47762 0.95779 0.10578 0.0
H1670 H 0.45346 0.9239 0.13475 0.0
C1671 C 0.36372 0.79834 0.21376 0.0
C1672 C 0.38937 0.83855 0.15524 0.0
H1673 H 0.44805 0.84101 0.11139 0.0
C1674 C 0.38317 0.86405 0.15233 0.0
C1675 C 0.4127 0.82982 0.13979 0.0
C1676 C 0.4195 0.80192 0.14071 0.0
C1677 C 0.39987 0.88128 0.13494 0.0
C1678 C 0.42397 0.8732 0.12047 0.0
C1679 C 0.42984 0.84739 0.12279 0.0
C1680 C 0.44317 0.89161 0.10309 0.0
C1681 C 0.39129 0.90791 0.13201 0.0
C1682 C 0.44724 0.88407 0.07572 0.0
C1683 C 0.46167 0.90335 0.05909 0.0
C1684 C 0.47203 0.93034 0.0697 0.0
C1685 C 0.46975 0.9371 0.09715 0.0
C1686 C 0.45575 0.91784 0.11369 0.0
H1687 H 0.36886 0.90736 0.1384 0.0
H1688 H 0.40307 0.92498 0.14451 0.0
H1689 H 0.39573 0.91251 0.1113 0.0
H1690 H 0.43786 0.86386 0.06714 0.0
H1691 H 0.46288 0.89778 0.03797 0.0
H1692 H 0.72673 0.17398 0.23221 0.0
H1693 H 0.69522 0.14376 0.20336 0.0
H1694 H 0.68399 0.21378 0.16896 0.0
H1695 H 0.71466 0.24416 0.19823 0.0
H1696 H 0.63561 0.17995 0.17736 0.0
H1697 H 0.71367 0.1188 0.12689 0.0
H1698 H 0.70811 0.11804 0.16182 0.0
H1699 H 0.72284 0.14989 0.14873 0.0
C1700 C 0.7176 0.18297 0.21848 0.0
C1701 C 0.72348 0.21155 0.21747 0.0
C1702 C 0.69966 0.1656 0.20186 0.0
C1703 C 0.68756 0.17634 0.18353 0.0
C1704 C 0.69306 0.2049 0.18282 0.0
H1705 H 0.62521 0.09383 0.0406 0.0
H1706 H 0.65043 0.12041 0.07582 0.0
C1707 C 0.71073 0.22229 0.19959 0.0
C1708 C 0.66931 0.15802 0.16493 0.0
H1709 H 0.66785 0.10402 0.11599 0.0
C1710 C 0.64265 0.1633 0.16398 0.0
C1711 C 0.67851 0.13642 0.14722 0.0
C1712 C 0.70742 0.13056 0.14596 0.0
C1713 C 0.62515 0.14791 0.14569 0.0
C1714 C 0.63423 0.12609 0.12823 0.0
C1715 C 0.66072 0.12056 0.12948 0.0
C1716 C 0.61774 0.11013 0.10706 0.0
C1717 C 0.59759 0.15591 0.14458 0.0
C1718 C 0.5907 0.09535 0.11268 0.0
C1719 C 0.5759 0.08018 0.09232 0.0
C1720 C 0.58805 0.07916 0.066 0.0
C1721 C 0.61512 0.09395 0.06058 0.0
C1722 C 0.62968 0.10922 0.08078 0.0
H1723 H 0.59675 0.17701 0.15454 0.0
H1724 H 0.59327 0.15488 0.1239 0.0
H1725 H 0.58089 0.14145 0.15468 0.0
H1726 H 0.58117 0.09518 0.13282 0.0
H1727 H 0.55522 0.06885 0.09724 0.0
H1728 H 0.75493 0.68206 0.8065 0.0
H1729 H 0.72722 0.65601 0.84085 0.0
H1730 H 0.66877 0.71113 0.85213 0.0
H1731 H 0.6965 0.73736 0.81795 0.0
H1732 H 0.71365 0.67894 0.89508 0.0
H1733 H 0.62053 0.6327 0.84424 0.0
H1734 H 0.65351 0.64604 0.82676 0.0
H1735 H 0.63162 0.66913 0.84374 0.0
C1736 C 0.73592 0.68833 0.81604 0.0
C1737 C 0.72787 0.71175 0.80962 0.0
C1738 C 0.72023 0.67355 0.83573 0.0
C1739 C 0.69597 0.68164 0.84903 0.0
C1740 C 0.68731 0.70439 0.84193 0.0
H1741 H 0.56762 0.62326 0.96709 0.0
H1742 H 0.60082 0.65122 0.93806 0.0
C1743 C 0.70306 0.71926 0.82231 0.0
C1744 C 0.68016 0.66683 0.87088 0.0
H1745 H 0.6173 0.62853 0.88961 0.0
C1746 C 0.69261 0.66779 0.89392 0.0
C1747 C 0.65281 0.65226 0.86923 0.0
C1748 C 0.63882 0.64968 0.84461 0.0
C1749 C 0.67804 0.65526 0.91574 0.0
C1750 C 0.65048 0.64101 0.91423 0.0
C1751 C 0.63833 0.63965 0.89091 0.0
C1752 C 0.63329 0.62767 0.93649 0.0
C1753 C 0.69197 0.65811 0.9404 0.0
C1754 C 0.64107 0.60611 0.94675 0.0
C1755 C 0.62217 0.59036 0.96404 0.0
C1756 C 0.59494 0.5953 0.97046 0.0
C1757 C 0.58824 0.6185 0.96211 0.0
C1758 C 0.60719 0.63447 0.94537 0.0
H1759 H 0.70982 0.67555 0.94092 0.0
H1760 H 0.67714 0.66122 0.95826 0.0
H1761 H 0.6999 0.63902 0.94107 0.0
H1762 H 0.66102 0.6003 0.94013 0.0
H1763 H 0.62814 0.57298 0.97053 0.0
H1764 H 0.33309 0.68236 0.87591 0.0
H1765 H 0.35869 0.66288 0.90351 0.0
H1766 H 0.3032 0.58493 0.89248 0.0
H1767 H 0.27767 0.60407 0.8646 0.0
H1768 H 0.31523 0.60231 0.94581 0.0
H1769 H 0.41016 0.60737 0.87427 0.0
H1770 H 0.39796 0.63932 0.88297 0.0
H1771 H 0.37713 0.61072 0.86537 0.0
C1772 C 0.32643 0.66102 0.87918 0.0
C1773 C 0.30338 0.64476 0.86791 0.0
C1774 C 0.34103 0.64995 0.89504 0.0
C1775 C 0.33298 0.62239 0.89983 0.0
C1776 C 0.3097 0.60626 0.88907 0.0
H1777 H 0.40833 0.51672 0.97801 0.0
H1778 H 0.37364 0.53568 0.96013 0.0
C1779 C 0.2951 0.61728 0.8732 0.0
C1780 C 0.34928 0.61022 0.9155 0.0
H1781 H 0.41345 0.59551 0.91624 0.0
C1782 C 0.33667 0.60068 0.93935 0.0
C1783 C 0.37717 0.60797 0.9069 0.0
C1784 C 0.3914 0.61664 0.88087 0.0
C1785 C 0.35158 0.5897 0.95523 0.0
C1786 C 0.3796 0.58793 0.94679 0.0
C1787 C 0.39199 0.59706 0.92275 0.0
C1788 C 0.39703 0.5773 0.96259 0.0
C1789 C 0.33763 0.58082 0.9812 0.0
C1790 C 0.42112 0.59454 0.97067 0.0
C1791 C 0.44084 0.58377 0.98064 0.0
C1792 C 0.43687 0.55553 0.98279 0.0
C1793 C 0.41173 0.5386 0.97678 0.0
C1794 C 0.39196 0.54941 0.96654 0.0
H1795 H 0.3178 0.58837 0.98721 0.0
H1796 H 0.33313 0.55803 0.97956 0.0
H1797 H 0.35151 0.58843 0.99688 0.0
H1798 H 0.42539 0.61611 0.96787 0.0
H1799 H 0.45999 0.59731 0.98528 0.0
H1800 H 0.34785 0.27652 0.81517 0.0
H1801 H 0.37896 0.30209 0.84694 0.0
H1802 H 0.3473 0.37558 0.84333 0.0
H1803 H 0.31579 0.35018 0.81222 0.0
H1804 H 0.4205 0.34776 0.84141 0.0
H1805 H 0.33995 0.37148 0.92221 0.0
H1806 H 0.33247 0.3459 0.89442 0.0
H1807 H 0.33477 0.38178 0.8917 0.0
C1808 C 0.34747 0.29811 0.82118 0.0
C1809 C 0.32944 0.31133 0.81099 0.0
C1810 C 0.36526 0.31268 0.83933 0.0
C1811 C 0.36515 0.34063 0.84781 0.0
C1812 C 0.34736 0.3539 0.83748 0.0
H1813 H 0.48398 0.47285 0.90947 0.0
H1814 H 0.45632 0.43587 0.88307 0.0
C1815 C 0.32959 0.33939 0.8194 0.0
C1816 C 0.38417 0.35632 0.8668 0.0
H1817 H 0.38556 0.39853 0.92498 0.0
C1818 C 0.41287 0.35857 0.85985 0.0
C1819 C 0.37423 0.37001 0.8911 0.0
C1820 C 0.34367 0.36697 0.90046 0.0
C1821 C 0.43188 0.37532 0.87589 0.0
C1822 C 0.4219 0.3905 0.89929 0.0
C1823 C 0.39322 0.38711 0.90691 0.0
C1824 C 0.44065 0.41152 0.91511 0.0
C1825 C 0.46248 0.37678 0.8675 0.0
C1826 C 0.44097 0.41027 0.94204 0.0
C1827 C 0.45678 0.43154 0.95733 0.0
C1828 C 0.47229 0.45463 0.94601 0.0
C1829 C 0.47238 0.45541 0.91888 0.0
C1830 C 0.45669 0.43415 0.90366 0.0
H1831 H 0.46661 0.35795 0.85453 0.0
H1832 H 0.47033 0.39457 0.85623 0.0
H1833 H 0.47426 0.37953 0.88477 0.0
H1834 H 0.42857 0.39308 0.95132 0.0
H1835 H 0.45605 0.43033 0.97818 0.0
H1836 H 0.70524 0.3923 0.8802 0.0
H1837 H 0.70544 0.4241 0.91984 0.0
H1838 H 0.77699 0.47696 0.88541 0.0
H1839 H 0.77653 0.44499 0.84472 0.0
H1840 H 0.72808 0.46545 0.95742 0.0
H1841 H 0.71586 0.51142 0.86842 0.0
H1842 H 0.72165 0.47668 0.86343 0.0
H1843 H 0.74878 0.50464 0.87346 0.0
C1844 C 0.72199 0.4099 0.88131 0.0
C1845 C 0.73978 0.41711 0.85882 0.0
C1846 C 0.72227 0.42814 0.90431 0.0
C1847 C 0.74 0.45386 0.9048 0.0
C1848 C 0.76216 0.45782 0.88481 0.0
H1849 H 0.60395 0.53711 0.93574 0.0
H1850 H 0.65339 0.53773 0.93131 0.0
C1851 C 0.76173 0.43967 0.8615 0.0
C1852 C 0.72792 0.47737 0.91902 0.0
H1853 H 0.68104 0.51131 0.90278 0.0
C1854 C 0.71858 0.47675 0.9459 0.0
C1855 C 0.71616 0.49316 0.90438 0.0
C1856 C 0.72614 0.49673 0.87588 0.0
C1857 C 0.69468 0.48709 0.95709 0.0
C1858 C 0.67961 0.49746 0.94065 0.0
C1859 C 0.69189 0.50254 0.91531 0.0
C1860 C 0.6498 0.49919 0.94726 0.0
C1861 C 0.68518 0.48534 0.9859 0.0
C1862 C 0.63087 0.47729 0.95756 0.0
C1863 C 0.60247 0.4776 0.96125 0.0
C1864 C 0.59234 0.49911 0.95349 0.0
C1865 C 0.61109 0.52019 0.94189 0.0
C1866 C 0.63949 0.52063 0.9395 0.0
H1867 H 0.70328 0.4904 0.9974 0.0
H1868 H 0.67059 0.49949 0.99395 0.0
H1869 H 0.67489 0.46394 0.9887 0.0
H1870 H 0.63787 0.45966 0.96239 0.0
H1871 H 0.58844 0.46108 0.97026 0.0
H1872 H 0.65224 0.33596 0.16127 0.0
H1873 H 0.64808 0.36328 0.12701 0.0
H1874 H 0.71667 0.42473 0.1524 0.0
H1875 H 0.72074 0.39745 0.18712 0.0
H1876 H 0.66944 0.44574 0.14897 0.0
H1877 H 0.69431 0.37928 0.05725 0.0
H1878 H 0.6696 0.36082 0.08017 0.0
H1879 H 0.70412 0.37485 0.08855 0.0
C1880 C 0.66666 0.35513 0.15938 0.0
C1881 C 0.68674 0.36461 0.17696 0.0
C1882 C 0.66447 0.3706 0.13959 0.0
C1883 C 0.68234 0.39587 0.13685 0.0
C1884 C 0.70288 0.40514 0.15396 0.0
H1885 H 0.62942 0.51488 0.05182 0.0
H1886 H 0.66424 0.49529 0.06896 0.0
C1887 C 0.70523 0.38951 0.17372 0.0
C1888 C 0.67729 0.41364 0.11799 0.0
H1889 H 0.66474 0.41176 0.05436 0.0
C1890 C 0.66915 0.43877 0.12812 0.0
C1891 C 0.67704 0.40454 0.09079 0.0
C1892 C 0.68702 0.37852 0.0785 0.0
C1893 C 0.6584 0.45378 0.11229 0.0
C1894 C 0.65627 0.44364 0.08544 0.0
C1895 C 0.66639 0.41957 0.0749 0.0
C1896 C 0.63898 0.45464 0.06969 0.0
C1897 C 0.6473 0.47915 0.12496 0.0
C1898 C 0.61417 0.43788 0.06275 0.0
C1899 C 0.59454 0.4489 0.05293 0.0
C1900 C 0.5993 0.47694 0.04968 0.0
C1901 C 0.62522 0.49322 0.05419 0.0
C1902 C 0.64497 0.48211 0.06422 0.0
H1903 H 0.64737 0.4822 0.14667 0.0
H1904 H 0.66029 0.49752 0.11694 0.0
H1905 H 0.62575 0.47782 0.12047 0.0
H1906 H 0.60912 0.41661 0.0666 0.0
H1907 H 0.57487 0.43578 0.0493 0.0
H1908 H 0.68803 0.74728 0.22461 0.0
H1909 H 0.65357 0.71999 0.19689 0.0
H1910 H 0.70158 0.65517 0.18067 0.0
H1911 H 0.73529 0.68175 0.2092 0.0
H1912 H 0.65542 0.70056 0.14668 0.0
H1913 H 0.62795 0.6123 0.20442 0.0
H1914 H 0.64921 0.64424 0.21611 0.0
H1915 H 0.66429 0.61886 0.19343 0.0
C1916 C 0.69109 0.72712 0.21525 0.0
C1917 C 0.71406 0.71641 0.21942 0.0
C1918 C 0.67143 0.71157 0.19937 0.0
C1919 C 0.67457 0.68519 0.1872 0.0
C1920 C 0.69813 0.675 0.19058 0.0
H1921 H 0.59515 0.59171 0.05465 0.0
H1922 H 0.62372 0.62577 0.08323 0.0
C1923 C 0.71747 0.69028 0.2068 0.0
C1924 C 0.65342 0.66837 0.17081 0.0
H1925 H 0.61353 0.60452 0.16128 0.0
C1926 C 0.646 0.67965 0.15003 0.0
C1927 C 0.64066 0.64127 0.17547 0.0
C1928 C 0.64571 0.62859 0.19875 0.0
C1929 C 0.62679 0.66434 0.13338 0.0
C1930 C 0.61537 0.63664 0.13704 0.0
C1931 C 0.62235 0.62565 0.15822 0.0
C1932 C 0.59655 0.61832 0.11911 0.0
C1933 C 0.61869 0.67826 0.11237 0.0
C1934 C 0.57184 0.60243 0.12961 0.0
C1935 C 0.55597 0.58235 0.11339 0.0
C1936 C 0.56416 0.57813 0.08623 0.0
C1937 C 0.58809 0.5949 0.07547 0.0
C1938 C 0.60437 0.61451 0.09182 0.0
H1939 H 0.62103 0.70082 0.11809 0.0
H1940 H 0.63257 0.67483 0.09391 0.0
H1941 H 0.59693 0.67004 0.10839 0.0
H1942 H 0.56528 0.60492 0.15056 0.0
H1943 H 0.53763 0.56964 0.12217 0.0
H1944 H 0.32284 0.65082 0.14769 0.0
H1945 H 0.32826 0.62414 0.10561 0.0
H1946 H 0.25788 0.5633 0.12907 0.0
H1947 H 0.25071 0.59127 0.17123 0.0
H1948 H 0.30821 0.5546 0.14079 0.0
H1949 H 0.3194 0.57142 0.03754 0.0
H1950 H 0.32983 0.60419 0.05603 0.0
H1951 H 0.29456 0.58601 0.0616 0.0
C1952 C 0.30713 0.63283 0.14365 0.0
C1953 C 0.28777 0.62193 0.16381 0.0
C1954 C 0.31013 0.6175 0.11903 0.0
C1955 C 0.29471 0.59077 0.11493 0.0
C1956 C 0.27076 0.58345 0.13226 0.0
H1957 H 0.42917 0.49741 0.09287 0.0
H1958 H 0.3808 0.5025 0.09757 0.0
C1959 C 0.2672 0.59917 0.15673 0.0
C1960 C 0.31102 0.56938 0.10318 0.0
H1961 H 0.362 0.56079 0.05303 0.0
C1962 C 0.31937 0.55502 0.12122 0.0
C1963 C 0.32552 0.56986 0.07775 0.0
C1964 C 0.31657 0.58359 0.05714 0.0
C1965 C 0.34445 0.54543 0.11625 0.0
C1966 C 0.36058 0.54842 0.09164 0.0
C1967 C 0.35004 0.5591 0.07215 0.0
C1968 C 0.38968 0.54401 0.08698 0.0
C1969 C 0.35463 0.53525 0.13865 0.0
C1970 C 0.41087 0.56516 0.07848 0.0
C1971 C 0.43844 0.5617 0.07452 0.0
C1972 C 0.44541 0.53735 0.07976 0.0
C1973 C 0.42438 0.51656 0.08908 0.0
C1974 C 0.39669 0.5195 0.09185 0.0
H1975 H 0.34295 0.54091 0.15795 0.0
H1976 H 0.35179 0.51249 0.13537 0.0
H1977 H 0.37692 0.54379 0.14004 0.0
H1978 H 0.40607 0.58436 0.07473 0.0
H1979 H 0.45427 0.57784 0.06693 0.0
H1980 H 0.27693 0.33982 0.21826 0.0
H1981 H 0.30237 0.36674 0.18374 0.0
H1982 H 0.37372 0.33006 0.18519 0.0
H1983 H 0.3483 0.30275 0.21956 0.0
H1984 H 0.3543 0.40434 0.18064 0.0
H1985 H 0.35514 0.31104 0.10796 0.0
H1986 H 0.33208 0.31164 0.13822 0.0
H1987 H 0.36775 0.30937 0.13857 0.0
C1988 C 0.29821 0.33779 0.21154 0.0
C1989 C 0.31056 0.31904 0.2216 0.0
C1990 C 0.31268 0.35316 0.19177 0.0
C1991 C 0.33971 0.34998 0.18152 0.0
C1992 C 0.35267 0.33244 0.19251 0.0
H1993 H 0.46838 0.41126 0.06848 0.0
H1994 H 0.43407 0.38406 0.09719 0.0
C1995 C 0.33824 0.31711 0.2124 0.0
C1996 C 0.35396 0.3643 0.15877 0.0
H1997 H 0.38204 0.3527 0.09489 0.0
C1998 C 0.36019 0.39313 0.1618 0.0
C1999 C 0.36125 0.34959 0.13413 0.0
C2000 C 0.35356 0.31869 0.12929 0.0
C2001 C 0.37479 0.40761 0.14123 0.0
C2002 C 0.38285 0.39283 0.1168 0.0
C2003 C 0.37578 0.36402 0.11356 0.0
C2004 C 0.40148 0.40661 0.09562 0.0
C2005 C 0.3826 0.43853 0.14626 0.0
C2006 C 0.39408 0.42728 0.08374 0.0
C2007 C 0.4138 0.44295 0.06701 0.0
C2008 C 0.44124 0.43832 0.06225 0.0
C2009 C 0.44761 0.41579 0.07212 0.0
C2010 C 0.42798 0.40016 0.08861 0.0
H2011 H 0.37931 0.44623 0.16751 0.0
H2012 H 0.40466 0.44556 0.1389 0.0
H2013 H 0.36964 0.44797 0.13563 0.0
H2014 H 0.37346 0.4321 0.08829 0.0
H2015 H 0.40806 0.45985 0.05942 0.0
H2016 H 0.82662 0.73 0.69011 0.0
H2017 H 0.85428 0.69807 0.66436 0.0
H2018 H 0.85555 0.66038 0.73398 0.0
H2019 H 0.82625 0.69121 0.75939 0.0
H2020 H 0.90419 0.69033 0.66563 0.0
H2021 H 0.83505 0.59222 0.68579 0.0
H2022 H 0.82416 0.62494 0.69483 0.0
H2023 H 0.84514 0.61338 0.71521 0.0
C2024 C 0.83202 0.71445 0.69984 0.0
C2025 C 0.82325 0.71286 0.72676 0.0
C2026 C 0.8483 0.69628 0.68509 0.0
C2027 C 0.85673 0.67603 0.69682 0.0
C2028 C 0.84872 0.67495 0.72396 0.0
H2029 H 0.97475 0.5647 0.62372 0.0
H2030 H 0.94666 0.59162 0.6569 0.0
C2031 C 0.83209 0.69292 0.73864 0.0
C2032 C 0.87456 0.65691 0.68075 0.0
H2033 H 0.87946 0.58892 0.66295 0.0
C2034 C 0.89866 0.66818 0.66521 0.0
C2035 C 0.86772 0.62778 0.67985 0.0
C2036 C 0.84148 0.61382 0.69459 0.0
C2037 C 0.91569 0.65148 0.64899 0.0
C2038 C 0.9088 0.6225 0.64808 0.0
C2039 C 0.88507 0.61111 0.66387 0.0
C2040 C 0.92447 0.60399 0.62876 0.0
C2041 C 0.94089 0.66493 0.63249 0.0
C2042 C 0.92091 0.6012 0.60202 0.0
C2043 C 0.93661 0.58574 0.5832 0.0
C2044 C 0.9567 0.57252 0.59032 0.0
C2045 C 0.95953 0.57437 0.61734 0.0
C2046 C 0.94354 0.58991 0.63636 0.0
H2047 H 0.94635 0.68736 0.63881 0.0
H2048 H 0.95897 0.65527 0.63353 0.0
H2049 H 0.93668 0.66196 0.61162 0.0
H2050 H 0.90625 0.61155 0.59556 0.0
H2051 H 0.93336 0.58481 0.56276 0.0
H2052 H 0.32217 0.83881 0.72237 0.0
H2053 H 0.35398 0.85939 0.6871 0.0
H2054 H 0.36282 0.77871 0.64851 0.0
H2055 H 0.33054 0.75782 0.68355 0.0
H2056 H 0.41085 0.85099 0.6691 0.0
H2057 H 0.33864 0.8193 0.59196 0.0
H2058 H 0.3266 0.82017 0.62663 0.0
H2059 H 0.34411 0.79324 0.61032 0.0
C2060 C 0.33077 0.82538 0.70637 0.0
C2061 C 0.3238 0.79664 0.70582 0.0
C2062 C 0.34906 0.83719 0.6863 0.0
C2063 C 0.36058 0.82057 0.66514 0.0
C2064 C 0.35396 0.79188 0.66458 0.0
H2065 H 0.49186 0.90362 0.5543 0.0
H2066 H 0.46497 0.86603 0.5782 0.0
C2067 C 0.3357 0.78001 0.68474 0.0
C2068 C 0.37926 0.83361 0.64368 0.0
H2069 H 0.38148 0.84737 0.58049 0.0
C2070 C 0.40472 0.84985 0.64956 0.0
C2071 C 0.37101 0.83216 0.61831 0.0
C2072 C 0.34355 0.81544 0.61127 0.0
C2073 C 0.42177 0.86546 0.631 0.0
C2074 C 0.4132 0.8646 0.60584 0.0
C2075 C 0.38813 0.84768 0.59968 0.0
C2076 C 0.42804 0.88407 0.58728 0.0
C2077 C 0.4481 0.88395 0.63892 0.0
C2078 C 0.41571 0.90586 0.58341 0.0
C2079 C 0.43093 0.92721 0.5699 0.0
C2080 C 0.45872 0.92706 0.55972 0.0
C2081 C 0.47042 0.90416 0.56176 0.0
C2082 C 0.45518 0.88283 0.57559 0.0
H2083 H 0.44995 0.88481 0.66022 0.0
H2084 H 0.46625 0.87621 0.62756 0.0
H2085 H 0.44896 0.90515 0.63435 0.0
H2086 H 0.39478 0.90717 0.5922 0.0
H2087 H 0.42136 0.94455 0.56852 0.0
H2088 H 0.15062 0.38547 0.74935 0.0
H2089 H 0.1204 0.4034 0.72509 0.0
H2090 H 0.18334 0.40777 0.65852 0.0
H2091 H 0.21369 0.39005 0.68262 0.0
H2092 H 0.13082 0.45381 0.70479 0.0
H2093 H 0.11413 0.36705 0.62541 0.0
H2094 H 0.12785 0.36411 0.65526 0.0
H2095 H 0.15011 0.37981 0.6289 0.0
C2096 C 0.158 0.39018 0.72951 0.0
C2097 C 0.18458 0.38627 0.7179 0.0
C2098 C 0.14068 0.40036 0.71567 0.0
C2099 C 0.14949 0.40664 0.68992 0.0
C2100 C 0.17587 0.40251 0.67818 0.0
H2101 H 0.10205 0.47714 0.56799 0.0
H2102 H 0.12486 0.4614 0.60031 0.0
C2103 C 0.1932 0.39233 0.69197 0.0
C2104 C 0.13167 0.4185 0.67557 0.0
H2105 H 0.1026 0.4093 0.61808 0.0
C2106 C 0.1243 0.44395 0.68599 0.0
C2107 C 0.12303 0.40549 0.65115 0.0
C2108 C 0.12893 0.37747 0.63962 0.0
C2109 C 0.10974 0.45739 0.67195 0.0
C2110 C 0.10218 0.44487 0.64705 0.0
C2111 C 0.10862 0.41896 0.63713 0.0
C2112 C 0.08931 0.45883 0.62987 0.0
C2113 C 0.10355 0.48533 0.68324 0.0
C2114 C 0.06202 0.46363 0.63619 0.0
C2115 C 0.04893 0.47297 0.61771 0.0
C2116 C 0.06296 0.47718 0.59267 0.0
C2117 C 0.09074 0.47388 0.58711 0.0
C2118 C 0.10377 0.46485 0.60552 0.0
H2119 H 0.11441 0.49398 0.70087 0.0
H2120 H 0.10972 0.49988 0.66824 0.0
H2121 H 0.08092 0.48365 0.68902 0.0
H2122 H 0.0504 0.45881 0.65479 0.0
H2123 H 0.02741 0.47508 0.62232 0.0
H2124 H 0.6752 0.23149 0.73623 0.0
H2125 H 0.64716 0.19924 0.70614 0.0
H2126 H 0.72117 0.18589 0.65526 0.0
H2127 H 0.74904 0.22066 0.68385 0.0
H2128 H 0.68481 0.1854 0.62611 0.0
H2129 H 0.63252 0.11919 0.70141 0.0
H2130 H 0.62546 0.15319 0.71073 0.0
H2131 H 0.66056 0.14729 0.70828 0.0
C2132 C 0.68557 0.2219 0.71852 0.0
C2133 C 0.71457 0.22824 0.71287 0.0
C2134 C 0.66946 0.20299 0.70148 0.0
C2135 C 0.68195 0.18905 0.67882 0.0
C2136 C 0.71088 0.19588 0.67278 0.0
H2137 H 0.57944 0.04383 0.60158 0.0
H2138 H 0.61429 0.07478 0.62654 0.0
C2139 C 0.72694 0.21551 0.68941 0.0
C2140 C 0.66478 0.16795 0.66117 0.0
H2141 H 0.61107 0.11316 0.66158 0.0
C2142 C 0.66893 0.16939 0.63389 0.0
C2143 C 0.64443 0.14644 0.67094 0.0
C2144 C 0.64074 0.14124 0.69939 0.0
C2145 C 0.65301 0.15054 0.61636 0.0
C2146 C 0.63111 0.13046 0.62642 0.0
C2147 C 0.62744 0.12866 0.65363 0.0
C2148 C 0.6117 0.11115 0.60936 0.0
C2149 C 0.66054 0.15206 0.58724 0.0
C2150 C 0.59862 0.12088 0.59102 0.0
C2151 C 0.57954 0.10289 0.57601 0.0
C2152 C 0.57224 0.07504 0.5798 0.0
C2153 C 0.5849 0.06525 0.59826 0.0
C2154 C 0.6047 0.08301 0.61261 0.0
H2155 H 0.68295 0.1605 0.58268 0.0
H2156 H 0.65578 0.13156 0.5756 0.0
H2157 H 0.64877 0.16613 0.58082 0.0
H2158 H 0.60254 0.14252 0.58873 0.0
H2159 H 0.56959 0.11098 0.56223 0.0
H2160 H 0.81503 0.27961 0.34417 0.0
H2161 H 0.84441 0.30683 0.37668 0.0
H2162 H 0.85725 0.37663 0.33348 0.0
H2163 H 0.82878 0.34941 0.30044 0.0
H2164 H 0.90434 0.33761 0.36061 0.0
H2165 H 0.83101 0.40271 0.41521 0.0
H2166 H 0.81917 0.36915 0.398 0.0
H2167 H 0.83338 0.39759 0.37978 0.0
C2168 C 0.82391 0.30082 0.34168 0.0
C2169 C 0.81915 0.31242 0.31987 0.0
C2170 C 0.84068 0.31633 0.36028 0.0
C2171 C 0.85273 0.3438 0.35761 0.0
C2172 C 0.84778 0.35558 0.33609 0.0
H2173 H 0.95807 0.47319 0.44793 0.0
H2174 H 0.92499 0.44583 0.41905 0.0
C2175 C 0.83128 0.34002 0.31734 0.0
C2176 C 0.87164 0.35978 0.37655 0.0
H2177 H 0.8766 0.41217 0.42702 0.0
C2178 C 0.8983 0.35382 0.37526 0.0
C2179 C 0.86375 0.38111 0.39533 0.0
C2180 C 0.83524 0.38811 0.39743 0.0
C2181 C 0.91752 0.36895 0.39201 0.0
C2182 C 0.90952 0.39004 0.41123 0.0
C2183 C 0.88274 0.39594 0.41246 0.0
C2184 C 0.92882 0.40661 0.42979 0.0
C2185 C 0.9465 0.36275 0.38823 0.0
C2186 C 0.94157 0.39384 0.44604 0.0
C2187 C 0.9608 0.40942 0.46238 0.0
C2188 C 0.96729 0.43822 0.46324 0.0
C2189 C 0.9536 0.45106 0.44779 0.0
C2190 C 0.93465 0.43542 0.43122 0.0
H2191 H 0.95158 0.35233 0.36816 0.0
H2192 H 0.96218 0.3818 0.39147 0.0
H2193 H 0.94812 0.34879 0.40254 0.0
H2194 H 0.9368 0.37174 0.44599 0.0
H2195 H 0.97066 0.39889 0.47427 0.0
H2196 H 0.74591 0.84711 0.31066 0.0
H2197 H 0.7153 0.87279 0.34126 0.0
H2198 H 0.65921 0.79715 0.35501 0.0
H2199 H 0.68951 0.77132 0.32397 0.0
H2200 H 0.66023 0.87562 0.33843 0.0
H2201 H 0.66897 0.83396 0.43023 0.0
H2202 H 0.69288 0.82982 0.40086 0.0
H2203 H 0.65899 0.80867 0.40315 0.0
C2204 C 0.72713 0.83582 0.32023 0.0
C2205 C 0.7205 0.80696 0.31494 0.0
C2206 C 0.70958 0.85061 0.33782 0.0
C2207 C 0.68501 0.83704 0.35095 0.0
C2208 C 0.67828 0.80821 0.34573 0.0
H2209 H 0.55543 0.90668 0.46183 0.0
H2210 H 0.58281 0.87449 0.43482 0.0
C2211 C 0.69574 0.79339 0.32792 0.0
C2212 C 0.66612 0.8533 0.36916 0.0
H2213 H 0.63751 0.86454 0.43326 0.0
C2214 C 0.6553 0.87313 0.35915 0.0
C2215 C 0.65929 0.85003 0.39624 0.0
C2216 C 0.67076 0.82965 0.40842 0.0
C2217 C 0.63813 0.88969 0.37528 0.0
C2218 C 0.63192 0.88704 0.40254 0.0
C2219 C 0.64219 0.86676 0.41248 0.0
C2220 C 0.61603 0.90613 0.42097 0.0
C2221 C 0.62651 0.90974 0.36276 0.0
C2222 C 0.6259 0.93462 0.4232 0.0
C2223 C 0.61038 0.95295 0.43855 0.0
C2224 C 0.58447 0.94349 0.45249 0.0
C2225 C 0.57522 0.91483 0.45147 0.0
C2226 C 0.59086 0.89637 0.4359 0.0
H2227 H 0.62584 0.90347 0.34131 0.0
H2228 H 0.60527 0.91162 0.37202 0.0
H2229 H 0.64002 0.93029 0.36534 0.0
H2230 H 0.64555 0.94282 0.41262 0.0
H2231 H 0.61857 0.97476 0.43901 0.0
H2232 H 0.23388 0.74296 0.35368 0.0
H2233 H 0.20323 0.7159 0.38599 0.0
H2234 H 0.19735 0.64403 0.32844 0.0
H2235 H 0.2272 0.67088 0.29605 0.0
H2236 H 0.14588 0.67968 0.37808 0.0
H2237 H 0.22689 0.62416 0.39628 0.0
H2238 H 0.23526 0.65699 0.38353 0.0
H2239 H 0.22316 0.62634 0.36253 0.0
C2240 C 0.22585 0.72145 0.34791 0.0
C2241 C 0.23344 0.70889 0.32255 0.0
C2242 C 0.20847 0.70603 0.36636 0.0
C2243 C 0.19855 0.67786 0.35969 0.0
C2244 C 0.20526 0.66559 0.3341 0.0
H2245 H 0.09803 0.54441 0.44059 0.0
H2246 H 0.13227 0.57217 0.41133 0.0
C2247 C 0.2224 0.68098 0.31567 0.0
C2248 C 0.18113 0.6611 0.37935 0.0
H2249 H 0.18132 0.60966 0.41621 0.0
C2250 C 0.15362 0.66452 0.38662 0.0
C2251 C 0.19127 0.64108 0.39006 0.0
C2252 C 0.22081 0.63688 0.38291 0.0
C2253 C 0.13578 0.64815 0.40412 0.0
C2254 C 0.14599 0.62834 0.41524 0.0
C2255 C 0.17355 0.6249 0.40783 0.0
C2256 C 0.12823 0.61113 0.43455 0.0
C2257 C 0.1059 0.6517 0.4099 0.0
C2258 C 0.11576 0.62364 0.45798 0.0
C2259 C 0.0962 0.60791 0.47451 0.0
C2260 C 0.08908 0.57926 0.46826 0.0
C2261 C 0.10324 0.56643 0.44596 0.0
C2262 C 0.12264 0.58229 0.42917 0.0
H2263 H 0.09959 0.66159 0.39435 0.0
H2264 H 0.09177 0.63163 0.41163 0.0
H2265 H 0.10322 0.66511 0.42879 0.0
H2266 H 0.12038 0.64573 0.463 0.0
H2267 H 0.08581 0.61832 0.49174 0.0
H2268 H 0.3592 0.12443 0.3149 0.0
H2269 H 0.37645 0.10268 0.34704 0.0
H2270 H 0.39582 0.18131 0.39375 0.0
H2271 H 0.37919 0.20341 0.36123 0.0
H2272 H 0.43924 0.15363 0.38473 0.0
H2273 H 0.34406 0.08422 0.42045 0.0
H2274 H 0.35068 0.0803 0.38522 0.0
H2275 H 0.34328 0.11241 0.40249 0.0
C2276 C 0.36705 0.13714 0.33203 0.0
C2277 C 0.36793 0.16573 0.33538 0.0
C2278 C 0.37657 0.12458 0.35061 0.0
C2279 C 0.38704 0.14025 0.37307 0.0
C2280 C 0.38757 0.16874 0.37671 0.0
H2281 H 0.45097 0.06693 0.49311 0.0
H2282 H 0.42283 0.09182 0.47291 0.0
C2283 C 0.37796 0.18133 0.35815 0.0
C2284 C 0.39957 0.12717 0.39142 0.0
H2285 H 0.38737 0.0734 0.42814 0.0
C2286 C 0.42775 0.13638 0.39454 0.0
C2287 C 0.38457 0.10483 0.40453 0.0
C2288 C 0.3539 0.09502 0.40325 0.0
C2289 C 0.44163 0.12298 0.4092 0.0
C2290 C 0.42706 0.09955 0.42085 0.0
C2291 C 0.39856 0.09118 0.41896 0.0
C2292 C 0.44179 0.08247 0.4332 0.0
C2293 C 0.47201 0.13362 0.41165 0.0
C2294 C 0.46097 0.06822 0.41747 0.0
C2295 C 0.47686 0.05397 0.42882 0.0
C2296 C 0.47399 0.05359 0.45626 0.0
C2297 C 0.45371 0.06676 0.47194 0.0
C2298 C 0.43769 0.08107 0.46045 0.0
H2299 H 0.47832 0.15535 0.40759 0.0
H2300 H 0.47699 0.1321 0.43162 0.0
H2301 H 0.4845 0.12101 0.39718 0.0
H2302 H 0.46413 0.06867 0.39636 0.0
H2303 H 0.492 0.04386 0.41603 0.0
H2304 H 0.67124 0.82332 0.66169 0.0
H2305 H 0.65726 0.84876 0.63028 0.0
H2306 H 0.64644 0.91492 0.69199 0.0
H2307 H 0.66173 0.89044 0.72305 0.0
H2308 H 0.60896 0.86414 0.62975 0.0
H2309 H 0.68951 0.95799 0.63563 0.0
H2310 H 0.69238 0.92753 0.64919 0.0
H2311 H 0.67236 0.95178 0.66763 0.0
C2312 C 0.6665 0.84356 0.66849 0.0
C2313 C 0.66766 0.85471 0.69505 0.0
C2314 C 0.65829 0.85802 0.65049 0.0
C2315 C 0.65119 0.88405 0.65855 0.0
C2316 C 0.65245 0.89524 0.685 0.0
H2317 H 0.5571 0.98894 0.61114 0.0
H2318 H 0.58519 0.96493 0.63179 0.0
C2319 C 0.66079 0.88092 0.70292 0.0
C2320 C 0.64078 0.89882 0.63992 0.0
H2321 H 0.64755 0.9618 0.61864 0.0
C2322 C 0.61777 0.88532 0.62694 0.0
C2323 C 0.65227 0.92648 0.63602 0.0
C2324 C 0.67818 0.94167 0.64764 0.0
C2325 C 0.60514 0.8991 0.61141 0.0
C2326 C 0.61578 0.9271 0.6087 0.0
C2327 C 0.63935 0.94035 0.62084 0.0
C2328 C 0.60115 0.94346 0.59534 0.0
C2329 C 0.5797 0.88406 0.59892 0.0
C2330 C 0.60141 0.93997 0.56783 0.0
C2331 C 0.58553 0.95397 0.55584 0.0
C2332 C 0.56887 0.97141 0.57125 0.0
C2333 C 0.56954 0.97555 0.5987 0.0
C2334 C 0.58562 0.96187 0.61056 0.0
H2335 H 0.57272 0.86295 0.60457 0.0
H2336 H 0.56247 0.89567 0.60473 0.0
H2337 H 0.58426 0.88258 0.57718 0.0
H2338 H 0.61338 0.92593 0.55571 0.0
H2339 H 0.58535 0.95021 0.53469 0.0
H2340 H 0.71695 0.26675 0.34514 0.0
H2341 H 0.68655 0.24474 0.38055 0.0
H2342 H 0.69665 0.16504 0.34013 0.0
H2343 H 0.72714 0.18681 0.30481 0.0
H2344 H 0.63748 0.20901 0.38057 0.0
H2345 H 0.71567 0.15975 0.41249 0.0
H2346 H 0.72487 0.1859 0.39051 0.0
H2347 H 0.71244 0.15067 0.37805 0.0
C2348 C 0.71261 0.24453 0.34371 0.0
C2349 C 0.72457 0.22856 0.32214 0.0
C2350 C 0.69531 0.23198 0.36405 0.0
C2351 C 0.68978 0.20324 0.36332 0.0
C2352 C 0.70125 0.18727 0.34154 0.0
H2353 H 0.55831 0.08959 0.42981 0.0
H2354 H 0.58776 0.12591 0.40657 0.0
C2355 C 0.7186 0.19977 0.32127 0.0
C2356 C 0.67153 0.18978 0.38493 0.0
H2357 H 0.66803 0.14188 0.42671 0.0
C2358 C 0.64428 0.19463 0.39093 0.0
C2359 C 0.68052 0.17147 0.39894 0.0
C2360 C 0.71007 0.16686 0.39488 0.0
C2361 C 0.62535 0.18048 0.40943 0.0
C2362 C 0.63376 0.16059 0.42192 0.0
C2363 C 0.66145 0.15693 0.41702 0.0
C2364 C 0.61369 0.14142 0.43792 0.0
C2365 C 0.59644 0.18676 0.41516 0.0
C2366 C 0.61836 0.13791 0.46338 0.0
C2367 C 0.60143 0.117 0.47673 0.0
C2368 C 0.57982 0.09929 0.46463 0.0
C2369 C 0.57463 0.10337 0.43963 0.0
C2370 C 0.59138 0.1242 0.4264 0.0
H2371 H 0.59624 0.20822 0.41198 0.0
H2372 H 0.5829 0.17284 0.40154 0.0
H2373 H 0.58753 0.18375 0.43568 0.0
H2374 H 0.63565 0.15075 0.47253 0.0
H2375 H 0.60604 0.11381 0.49583 0.0
H2376 H 0.85029 0.67791 0.39839 0.0
H2377 H 0.88576 0.6521 0.4034 0.0
H2378 H 0.87502 0.60626 0.32699 0.0
H2379 H 0.83876 0.63147 0.32217 0.0
H2380 H 0.8736 0.57296 0.36438 0.0
H2381 H 0.96536 0.65592 0.37062 0.0
H2382 H 0.93671 0.66467 0.39323 0.0
H2383 H 0.93426 0.66019 0.35835 0.0
C2384 C 0.8555 0.66239 0.3826 0.0
C2385 C 0.84163 0.65669 0.35992 0.0
C2386 C 0.87609 0.64792 0.38532 0.0
C2387 C 0.88343 0.6276 0.36534 0.0
C2388 C 0.86991 0.62208 0.3425 0.0
H2389 H 1.01418 0.55431 0.4118 0.0
H2390 H 0.9895 0.5692 0.37974 0.0
C2391 C 0.84928 0.63659 0.33975 0.0
C2392 C 0.90339 0.61061 0.3696 0.0
H2393 H 0.96609 0.61578 0.39191 0.0
C2394 C 0.89411 0.5822 0.36976 0.0
C2395 C 0.93039 0.62249 0.37603 0.0
C2396 C 0.94237 0.65245 0.37426 0.0
C2397 C 0.91014 0.56586 0.37849 0.0
C2398 C 0.93587 0.57834 0.38762 0.0
C2399 C 0.94623 0.60622 0.38516 0.0
C2400 C 0.94987 0.5644 0.40385 0.0
C2401 C 0.89883 0.53558 0.37894 0.0
C2402 C 0.93566 0.5563 0.42767 0.0
C2403 C 0.94965 0.54808 0.44584 0.0
C2404 C 0.97812 0.54771 0.44057 0.0
C2405 C 0.99212 0.55412 0.41609 0.0
C2406 C 0.9781 0.56273 0.3979 0.0
H2407 H 0.88546 0.52751 0.36292 0.0
H2408 H 0.91574 0.52356 0.37686 0.0
H2409 H 0.88585 0.53239 0.39792 0.0
H2410 H 0.91409 0.558 0.433 0.0
H2411 H 0.93847 0.54332 0.46466 0.0
H2412 H 0.35859 0.81299 0.28927 0.0
H2413 H 0.38603 0.84528 0.32021 0.0
H2414 H 0.31679 0.83593 0.3807 0.0
H2415 H 0.28915 0.80327 0.3497 0.0
H2416 H 0.37182 0.8965 0.35069 0.0
H2417 H 0.38488 0.81883 0.41279 0.0
H2418 H 0.3755 0.80941 0.37969 0.0
H2419 H 0.35031 0.81914 0.40586 0.0
C2420 C 0.34921 0.81771 0.30919 0.0
C2421 C 0.32185 0.8053 0.31716 0.0
C2422 C 0.36489 0.83627 0.32682 0.0
C2423 C 0.35361 0.84277 0.35287 0.0
C2424 C 0.32603 0.83094 0.36078 0.0
H2425 H 0.44189 0.94328 0.48149 0.0
H2426 H 0.40578 0.91372 0.4568 0.0
C2427 C 0.31021 0.81247 0.34302 0.0
C2428 C 0.37093 0.86202 0.37148 0.0
H2429 H 0.40666 0.86463 0.42417 0.0
C2430 C 0.37927 0.88959 0.36688 0.0
C2431 C 0.38053 0.85302 0.39268 0.0
C2432 C 0.37258 0.82347 0.39813 0.0
C2433 C 0.39719 0.90834 0.38268 0.0
C2434 C 0.40772 0.89915 0.40329 0.0
C2435 C 0.39869 0.87172 0.40839 0.0
C2436 C 0.42938 0.91723 0.41857 0.0
C2437 C 0.40461 0.93788 0.37713 0.0
C2438 C 0.45484 0.92874 0.40544 0.0
C2439 C 0.47539 0.94565 0.41941 0.0
C2440 C 0.47123 0.95135 0.44702 0.0
C2441 C 0.44582 0.93951 0.46026 0.0
C2442 C 0.42515 0.92254 0.44617 0.0
H2443 H 0.3884 0.94349 0.36717 0.0
H2444 H 0.40744 0.95218 0.39551 0.0
H2445 H 0.42429 0.94079 0.36384 0.0
H2446 H 0.45898 0.92444 0.38427 0.0
H2447 H 0.49468 0.95412 0.40843 0.0
H2448 H 0.20867 0.33058 0.27169 0.0
H2449 H 0.18005 0.36189 0.29781 0.0
H2450 H 0.20004 0.33911 0.36913 0.0
H2451 H 0.22768 0.30733 0.34325 0.0
H2452 H 0.13283 0.35082 0.33737 0.0
H2453 H 0.21982 0.42397 0.37962 0.0
H2454 H 0.2251 0.39912 0.35124 0.0
H2455 H 0.2188 0.38871 0.38372 0.0
C2456 C 0.20691 0.33207 0.29293 0.0
C2457 C 0.22085 0.3162 0.30519 0.0
C2458 C 0.19052 0.35014 0.30791 0.0
C2459 C 0.18799 0.35333 0.33561 0.0
C2460 C 0.20187 0.33757 0.34786 0.0
H2461 H 0.10853 0.4418 0.4705 0.0
H2462 H 0.13678 0.4164 0.43773 0.0
C2463 C 0.2179 0.3193 0.33292 0.0
C2464 C 0.17076 0.37281 0.3518 0.0
H2465 H 0.17442 0.42898 0.39873 0.0
C2466 C 0.14196 0.36809 0.35058 0.0
C2467 C 0.18246 0.39542 0.3692 0.0
C2468 C 0.21327 0.40235 0.37095 0.0
C2469 C 0.12457 0.38448 0.36695 0.0
C2470 C 0.13623 0.40693 0.38466 0.0
C2471 C 0.16518 0.41198 0.3853 0.0
C2472 C 0.11886 0.42396 0.40425 0.0
C2473 C 0.09367 0.37667 0.36597 0.0
C2474 C 0.09938 0.43772 0.39679 0.0
C2475 C 0.08273 0.4525 0.41587 0.0
C2476 C 0.08521 0.45401 0.44292 0.0
C2477 C 0.10555 0.44111 0.45003 0.0
C2478 C 0.12197 0.42645 0.43114 0.0
H2479 H 0.08758 0.35529 0.35649 0.0
H2480 H 0.08232 0.37857 0.38604 0.0
H2481 H 0.08703 0.39066 0.35431 0.0
H2482 H 0.09688 0.43695 0.37621 0.0
H2483 H 0.06743 0.46206 0.40948 0.0
H2484 H 0.35516 0.25676 0.7027 0.0
H2485 H 0.38385 0.23015 0.67063 0.0
H2486 H 0.32894 0.1552 0.68885 0.0
H2487 H 0.29946 0.18168 0.71971 0.0
H2488 H 0.41346 0.19233 0.67476 0.0
H2489 H 0.33262 0.14236 0.61072 0.0
H2490 H 0.32759 0.17039 0.63599 0.0
H2491 H 0.32236 0.13575 0.64415 0.0
C2492 C 0.34879 0.23467 0.6995 0.0
C2493 C 0.32442 0.22162 0.71352 0.0
C2494 C 0.36547 0.21935 0.68124 0.0
C2495 C 0.35841 0.19048 0.67656 0.0
C2496 C 0.33457 0.1774 0.69119 0.0
H2497 H 0.42732 0.05255 0.59371 0.0
H2498 H 0.40043 0.08511 0.61911 0.0
C2499 C 0.31777 0.19268 0.70919 0.0
C2500 C 0.37622 0.17396 0.65705 0.0
H2501 H 0.3736 0.1227 0.60507 0.0
C2502 C 0.40475 0.17736 0.65933 0.0
C2503 C 0.36519 0.15436 0.63663 0.0
C2504 C 0.33533 0.15068 0.63152 0.0
C2505 C 0.42205 0.16109 0.64275 0.0
C2506 C 0.41078 0.14092 0.6229 0.0
C2507 C 0.38242 0.13799 0.62022 0.0
C2508 C 0.42742 0.12136 0.60599 0.0
C2509 C 0.45205 0.1649 0.64737 0.0
C2510 C 0.45154 0.13049 0.58928 0.0
C2511 C 0.46721 0.11165 0.57441 0.0
C2512 C 0.45917 0.08317 0.57588 0.0
C2513 C 0.43452 0.07421 0.592 0.0
C2514 C 0.41894 0.09292 0.60666 0.0
H2515 H 0.45604 0.17679 0.66678 0.0
H2516 H 0.45852 0.14473 0.64631 0.0
H2517 H 0.46519 0.17632 0.63187 0.0
H2518 H 0.45837 0.15223 0.58782 0.0
H2519 H 0.48597 0.11947 0.56232 0.0
H2520 H 0.80428 0.28479 0.67861 0.0
H2521 H 0.83433 0.31191 0.64599 0.0
H2522 H 0.84897 0.38083 0.70621 0.0
H2523 H 0.82061 0.3535 0.73877 0.0
H2524 H 0.82905 0.36013 0.62935 0.0
H2525 H 0.92689 0.37625 0.67481 0.0
H2526 H 0.89723 0.35054 0.6837 0.0
H2527 H 0.89871 0.38591 0.69755 0.0
C2528 C 0.81427 0.3056 0.68485 0.0
C2529 C 0.80975 0.31718 0.71116 0.0
C2530 C 0.83126 0.32114 0.66622 0.0
C2531 C 0.84417 0.34837 0.67367 0.0
C2532 C 0.83974 0.35976 0.69999 0.0
H2533 H 0.94287 0.48254 0.5919 0.0
H2534 H 0.90743 0.45546 0.6208 0.0
C2535 C 0.82308 0.34423 0.71855 0.0
C2536 C 0.86183 0.36524 0.65402 0.0
H2537 H 0.92609 0.40449 0.64173 0.0
C2538 C 0.85031 0.36967 0.63197 0.0
C2539 C 0.88967 0.37766 0.65736 0.0
C2540 C 0.90397 0.37216 0.67948 0.0
C2541 C 0.86574 0.38656 0.6135 0.0
C2542 C 0.8932 0.39947 0.61732 0.0
C2543 C 0.9048 0.39494 0.63919 0.0
C2544 C 0.91108 0.41629 0.59793 0.0
C2545 C 0.85272 0.39067 0.59005 0.0
C2546 C 0.92434 0.40324 0.57531 0.0
C2547 C 0.94465 0.41854 0.55902 0.0
C2548 C 0.95195 0.44724 0.56491 0.0
C2549 C 0.93746 0.46051 0.58672 0.0
C2550 C 0.91735 0.44507 0.60329 0.0
H2551 H 0.83028 0.38154 0.59126 0.0
H2552 H 0.85538 0.41296 0.58835 0.0
H2553 H 0.86339 0.38098 0.57184 0.0
H2554 H 0.91989 0.38105 0.57095 0.0
H2555 H 0.95545 0.40777 0.54232 0.0
H2556 H 0.23173 0.74627 0.68316 0.0
H2557 H 0.20063 0.71916 0.65209 0.0
H2558 H 0.18359 0.65228 0.69954 0.0
H2559 H 0.21339 0.67967 0.73124 0.0
H2560 H 0.20055 0.66976 0.62179 0.0
H2561 H 0.10639 0.66328 0.69397 0.0
H2562 H 0.13851 0.68598 0.7006 0.0
H2563 H 0.13363 0.65007 0.70445 0.0
C2564 C 0.22139 0.72576 0.68693 0.0
C2565 C 0.22524 0.7151 0.70962 0.0
C2566 C 0.20365 0.71026 0.66913 0.0
C2567 C 0.18935 0.68382 0.67367 0.0
C2568 C 0.19388 0.67282 0.69586 0.0
H2569 H 0.0887 0.55353 0.57985 0.0
H2570 H 0.12273 0.58122 0.60775 0.0
C2571 C 0.21139 0.68837 0.71377 0.0
C2572 C 0.16951 0.66787 0.65539 0.0
H2573 H 0.10217 0.63498 0.65292 0.0
C2574 C 0.17903 0.66228 0.6286 0.0
C2575 C 0.14129 0.65828 0.66418 0.0
C2576 C 0.12924 0.66493 0.69231 0.0
C2577 C 0.16127 0.64688 0.6106 0.0
C2578 C 0.13337 0.63679 0.61958 0.0
C2579 C 0.1237 0.6426 0.6462 0.0
C2580 C 0.11381 0.62023 0.60155 0.0
C2581 C 0.17226 0.64132 0.58204 0.0
C2582 C 0.09767 0.63307 0.58875 0.0
C2583 C 0.07815 0.61735 0.57278 0.0
C2584 C 0.07439 0.58844 0.56934 0.0
C2585 C 0.09105 0.57571 0.58191 0.0
C2586 C 0.1105 0.59148 0.59792 0.0
H2587 H 0.19453 0.65057 0.57809 0.0
H2588 H 0.16957 0.6188 0.57606 0.0
H2589 H 0.16016 0.64975 0.56965 0.0
H2590 H 0.09996 0.65527 0.59137 0.0
H2591 H 0.0658 0.62787 0.56339 0.0
loop_
_geom_bond_atom_site_label_1
_geom_bond_atom_site_label_2
_geom_bond_distance
_geom_bond_site_symmetry_2
_ccdc_geom_bond_type
C0 C2 1.422 . S
C0 C4 1.415 . S
C0 N6 1.369 . S
C1 C2 1.421 . S
C1 C3 1.417 . S
C1 C13 1.422 . S
C2 C0 1.422 . S
C2 C1 1.421 . S
C2 N12 1.359 . S
C3 C1 1.417 . S
C3 C5 1.329 . S
C3 H22 0.930 . S
C4 C0 1.415 . S
C4 C5 1.437 . S
C4 C8 1.413 . S
C5 C3 1.329 . S
C5 C4 1.437 . S
C5 H27 0.929 . S
N6 C0 1.369 . S
N6 C7 1.338 . S
N6 Gd11 2.622 . S
C7 N6 1.338 . S
C7 C9 1.378 . S
C7 H19 0.929 . S
C8 C4 1.413 . S
C8 C9 1.348 . S
C8 H24 0.931 . S
C9 C7 1.378 . S
C9 C8 1.348 . S
C9 H25 0.930 . S
Gd10 N30 2.622 . S
Gd10 N37 2.570 . S
Gd10 O44 2.353 . S
Gd10 O45 2.468 . S
Gd10 O46 2.427 . S
Gd10 O48 2.388 . S
Gd10 O49 2.386 . S
Gd10 O53 2.307 . S
Gd10 C63 2.805 . S
Gd11 N6 2.622 . S
Gd11 N12 2.570 . S
Gd11 O43 2.386 . S
Gd11 O47 2.307 . S
Gd11 O50 2.353 . S
Gd11 O51 2.468 . S
Gd11 O52 2.427 . S
Gd11 O54 2.388 . S
Gd11 C75 2.805 . S
N12 C2 1.359 . S
N12 Gd11 2.570 . S
N12 C14 1.343 . S
C13 C1 1.422 . S
C13 C15 1.321 . S
C13 H21 0.931 . S
C14 N12 1.343 . S
C14 C15 1.390 . S
C14 H16 0.931 . S
C15 C13 1.321 . S
C15 C14 1.390 . S
C15 H17 0.930 . S
H16 C14 0.931 . S
H17 C15 0.930 . S
H18 C41 0.931 . S
H19 C7 0.929 . S
H20 C42 0.930 . S
H21 C13 0.931 . S
H22 C3 0.930 . S
H23 C32 0.929 . S
H24 C8 0.931 . S
H25 C9 0.930 . S
H26 C64 0.930 . S
H27 C5 0.929 . S
H28 C33 0.931 . S
H29 C34 0.930 . S
N30 Gd10 2.622 . S
N30 C31 1.369 . S
N30 C32 1.338 . S
C31 N30 1.369 . S
C31 C35 1.415 . S
C31 C38 1.422 . S
C32 H23 0.929 . S
C32 N30 1.338 . S
C32 C34 1.378 . S
C33 H28 0.931 . S
C33 C34 1.348 . S
C33 C35 1.413 . S
C34 H29 0.930 . S
C34 C32 1.378 . S
C34 C33 1.348 . S
C35 C31 1.415 . S
C35 C33 1.413 . S
C35 C65 1.437 . S
H36 C65 0.929 . S
N37 Gd10 2.570 . S
N37 C38 1.359 . S
N37 C41 1.343 . S
C38 C31 1.422 . S
C38 N37 1.359 . S
C38 C40 1.421 . S
C39 C40 1.422 . S
C39 C42 1.321 . S
C39 H66 0.931 . S
C40 C38 1.421 . S
C40 C39 1.422 . S
C40 C64 1.417 . S
C41 H18 0.931 . S
C41 N37 1.343 . S
C41 C42 1.390 . S
C42 H20 0.930 . S
C42 C39 1.321 . S
C42 C41 1.390 . S
O43 Gd11 2.386 . S
O43 C55 1.265 . S
O44 Gd10 2.353 . S
O44 C55 1.242 . S
O45 Gd10 2.468 . S
O45 C63 1.263 . S
O46 Gd10 2.427 . S
O46 C63 1.252 . S
O47 Gd11 2.307 . S
O47 C56 1.261 . S
O48 Gd10 2.388 . S
O48 C56 1.252 . S
O49 Gd10 2.386 . S
O49 C67 1.265 . S
O50 Gd11 2.353 . S
O50 C67 1.242 . S
O51 Gd11 2.468 . S
O51 C75 1.263 . S
O52 Gd11 2.427 . S
O52 C75 1.252 . S
O53 Gd10 2.307 . S
O53 C68 1.261 . S
O54 Gd11 2.388 . S
O54 C68 1.252 . S
C55 O43 1.265 . S
C55 O44 1.242 . S
C56 O47 1.261 . S
C56 O48 1.252 . S
C57 C60 1.394 . S
C57 C62 1.370 . S
C57 C63 1.500 . S
C58 C61 1.383 . S
C58 C62 1.395 . S
C59 C60 1.396 . S
C59 C61 1.365 . S
C59 H76 0.929 . S
C60 C57 1.394 . S
C60 C59 1.396 . S
C60 H77 0.930 . S
C61 C58 1.383 . S
C61 C59 1.365 . S
C61 H78 0.931 . S
C62 C57 1.370 . S
C62 C58 1.395 . S
C62 H79 0.930 . S
C63 Gd10 2.805 . S
C63 O45 1.263 . S
C63 O46 1.252 . S
C63 C57 1.500 . S
C64 H26 0.930 . S
C64 C40 1.417 . S
C64 C65 1.329 . S
C65 C35 1.437 . S
C65 H36 0.929 . S
C65 C64 1.329 . S
H66 C39 0.931 . S
C67 O49 1.265 . S
C67 O50 1.242 . S
C68 O53 1.261 . S
C68 O54 1.252 . S
C69 C72 1.394 . S
C69 C74 1.370 . S
C69 C75 1.500 . S
C70 C73 1.383 . S
C70 C74 1.395 . S
C71 C72 1.396 . S
C71 C73 1.365 . S
C71 H80 0.929 . S
C72 C69 1.394 . S
C72 C71 1.396 . S
C72 H81 0.930 . S
C73 C70 1.383 . S
C73 C71 1.365 . S
C73 H82 0.931 . S
C74 C69 1.370 . S
C74 C70 1.395 . S
C74 H83 0.930 . S
C75 Gd11 2.805 . S
C75 O51 1.263 . S
C75 O52 1.252 . S
C75 C69 1.500 . S
H76 C59 0.929 . S
H77 C60 0.930 . S
H78 C61 0.931 . S
H79 C62 0.930 . S
H80 C71 0.929 . S
H81 C72 0.930 . S
H82 C73 0.931 . S
H83 C74 0.930 . S
C84 C86 1.422 . S
C84 C88 1.415 . S
C84 N90 1.369 . S
C85 C86 1.421 . S
C85 C87 1.417 . S
C85 C97 1.422 . S
C86 C84 1.422 . S
C86 C85 1.421 . S
C86 N96 1.359 . S
C87 C85 1.417 . S
C87 C89 1.329 . S
C87 H106 0.930 . S
C88 C84 1.415 . S
C88 C89 1.437 . S
C88 C92 1.413 . S
C89 C87 1.329 . S
C89 C88 1.437 . S
C89 H111 0.929 . S
N90 C84 1.369 . S
N90 C91 1.338 . S
N90 Gd95 2.622 . S
C91 N90 1.338 . S
C91 C93 1.378 . S
C91 H103 0.929 . S
C92 C88 1.413 . S
C92 C93 1.348 . S
C92 H108 0.931 . S
C93 C91 1.378 . S
C93 C92 1.348 . S
C93 H109 0.930 . S
Gd94 N114 2.622 . S
Gd94 N121 2.570 . S
Gd94 O128 2.353 . S
Gd94 O129 2.468 . S
Gd94 O130 2.427 . S
Gd94 O132 2.388 . S
Gd94 O133 2.386 . S
Gd94 O137 2.307 . S
Gd94 C147 2.805 . S
Gd95 N90 2.622 . S
Gd95 N96 2.570 . S
Gd95 O127 2.386 . S
Gd95 O131 2.307 . S
Gd95 O134 2.353 . S
Gd95 O135 2.468 . S
Gd95 O136 2.427 . S
Gd95 O138 2.388 . S
Gd95 C159 2.805 . S
N96 C86 1.359 . S
N96 Gd95 2.570 . S
N96 C98 1.343 . S
C97 C85 1.422 . S
C97 C99 1.321 . S
C97 H105 0.931 . S
C98 N96 1.343 . S
C98 C99 1.390 . S
C98 H100 0.931 . S
C99 C97 1.321 . S
C99 C98 1.390 . S
C99 H101 0.930 . S
H100 C98 0.931 . S
H101 C99 0.930 . S
H102 C125 0.931 . S
H103 C91 0.929 . S
H104 C126 0.930 . S
H105 C97 0.931 . S
H106 C87 0.930 . S
H107 C116 0.929 . S
H108 C92 0.931 . S
H109 C93 0.930 . S
H110 C148 0.930 . S
H111 C89 0.929 . S
H112 C117 0.931 . S
H113 C118 0.930 . S
N114 Gd94 2.622 . S
N114 C115 1.369 . S
N114 C116 1.338 . S
C115 N114 1.369 . S
C115 C119 1.415 . S
C115 C122 1.422 . S
C116 H107 0.929 . S
C116 N114 1.338 . S
C116 C118 1.378 . S
C117 H112 0.931 . S
C117 C118 1.348 . S
C117 C119 1.413 . S
C118 H113 0.930 . S
C118 C116 1.378 . S
C118 C117 1.348 . S
C119 C115 1.415 . S
C119 C117 1.413 . S
C119 C149 1.437 . S
H120 C149 0.929 . S
N121 Gd94 2.570 . S
N121 C122 1.359 . S
N121 C125 1.343 . S
C122 C115 1.422 . S
C122 N121 1.359 . S
C122 C124 1.421 . S
C123 C124 1.422 . S
C123 C126 1.321 . S
C123 H150 0.931 . S
C124 C122 1.421 . S
C124 C123 1.422 . S
C124 C148 1.417 . S
C125 H102 0.931 . S
C125 N121 1.343 . S
C125 C126 1.390 . S
C126 H104 0.930 . S
C126 C123 1.321 . S
C126 C125 1.390 . S
O127 Gd95 2.386 . S
O127 C139 1.265 . S
O128 Gd94 2.353 . S
O128 C139 1.242 . S
O129 Gd94 2.468 . S
O129 C147 1.263 . S
O130 Gd94 2.427 . S
O130 C147 1.252 . S
O131 Gd95 2.307 . S
O131 C140 1.261 . S
O132 Gd94 2.388 . S
O132 C140 1.252 . S
O133 Gd94 2.386 . S
O133 C151 1.265 . S
O134 Gd95 2.353 . S
O134 C151 1.242 . S
O135 Gd95 2.468 . S
O135 C159 1.263 . S
O136 Gd95 2.427 . S
O136 C159 1.252 . S
O137 Gd94 2.307 . S
O137 C152 1.261 . S
O138 Gd95 2.388 . S
O138 C152 1.252 . S
C139 O127 1.265 . S
C139 O128 1.242 . S
C140 O131 1.261 . S
C140 O132 1.252 . S
C141 C144 1.394 . S
C141 C146 1.370 . S
C141 C147 1.500 . S
C142 C145 1.383 . S
C142 C146 1.395 . S
C143 C144 1.396 . S
C143 C145 1.365 . S
C143 H160 0.929 . S
C144 C141 1.394 . S
C144 C143 1.396 . S
C144 H161 0.930 . S
C145 C142 1.383 . S
C145 C143 1.365 . S
C145 H162 0.931 . S
C146 C141 1.370 . S
C146 C142 1.395 . S
C146 H163 0.930 . S
C147 Gd94 2.805 . S
C147 O129 1.263 . S
C147 O130 1.252 . S
C147 C141 1.500 . S
C148 H110 0.930 . S
C148 C124 1.417 . S
C148 C149 1.329 . S
C149 C119 1.437 . S
C149 H120 0.929 . S
C149 C148 1.329 . S
H150 C123 0.931 . S
C151 O133 1.265 . S
C151 O134 1.242 . S
C152 O137 1.261 . S
C152 O138 1.252 . S
C153 C156 1.394 . S
C153 C158 1.370 . S
C153 C159 1.500 . S
C154 C157 1.383 . S
C154 C158 1.395 . S
C155 C156 1.396 . S
C155 C157 1.365 . S
C155 H164 0.929 . S
C156 C153 1.394 . S
C156 C155 1.396 . S
C156 H165 0.930 . S
C157 C154 1.383 . S
C157 C155 1.365 . S
C157 H166 0.931 . S
C158 C153 1.370 . S
C158 C154 1.395 . S
C158 H167 0.930 . S
C159 Gd95 2.805 . S
C159 O135 1.263 . S
C159 O136 1.252 . S
C159 C153 1.500 . S
H160 C143 0.929 . S
H161 C144 0.930 . S
H162 C145 0.931 . S
H163 C146 0.930 . S
H164 C155 0.929 . S
H165 C156 0.930 . S
H166 C157 0.931 . S
H167 C158 0.930 . S
C168 C170 1.422 . S
C168 C172 1.415 . S
C168 N174 1.369 . S
C169 C170 1.421 . S
C169 C171 1.417 . S
C169 C181 1.422 . S
C170 C168 1.422 . S
C170 C169 1.421 . S
C170 N180 1.359 . S
C171 C169 1.417 . S
C171 C173 1.329 . S
C171 H190 0.930 . S
C172 C168 1.415 . S
C172 C173 1.437 . S
C172 C176 1.413 . S
C173 C171 1.329 . S
C173 C172 1.437 . S
C173 H195 0.929 . S
N174 C168 1.369 . S
N174 C175 1.338 . S
N174 Gd179 2.622 . S
C175 N174 1.338 . S
C175 C177 1.378 . S
C175 H187 0.929 . S
C176 C172 1.413 . S
C176 C177 1.348 . S
C176 H192 0.931 . S
C177 C175 1.378 . S
C177 C176 1.348 . S
C177 H193 0.930 . S
Gd178 N198 2.622 . S
Gd178 N205 2.570 . S
Gd178 O212 2.353 . S
Gd178 O213 2.468 . S
Gd178 O214 2.427 . S
Gd178 O216 2.388 . S
Gd178 O217 2.386 . S
Gd178 O221 2.307 . S
Gd178 C231 2.805 . S
Gd179 N174 2.622 . S
Gd179 N180 2.570 . S
Gd179 O211 2.386 . S
Gd179 O215 2.307 . S
Gd179 O218 2.353 . S
Gd179 O219 2.468 . S
Gd179 O220 2.427 . S
Gd179 O222 2.388 . S
Gd179 C243 2.805 . S
N180 C170 1.359 . S
N180 Gd179 2.570 . S
N180 C182 1.343 . S
C181 C169 1.422 . S
C181 C183 1.321 . S
C181 H189 0.931 . S
C182 N180 1.343 . S
C182 C183 1.390 . S
C182 H184 0.931 . S
C183 C181 1.321 . S
C183 C182 1.390 . S
C183 H185 0.930 . S
H184 C182 0.931 . S
H185 C183 0.930 . S
H186 C209 0.931 . S
H187 C175 0.929 . S
H188 C210 0.930 . S
H189 C181 0.931 . S
H190 C171 0.930 . S
H191 C200 0.929 . S
H192 C176 0.931 . S
H193 C177 0.930 . S
H194 C232 0.930 . S
H195 C173 0.929 . S
H196 C201 0.931 . S
H197 C202 0.930 . S
N198 Gd178 2.622 . S
N198 C199 1.369 . S
N198 C200 1.338 . S
C199 N198 1.369 . S
C199 C203 1.415 . S
C199 C206 1.422 . S
C200 H191 0.929 . S
C200 N198 1.338 . S
C200 C202 1.378 . S
C201 H196 0.931 . S
C201 C202 1.348 . S
C201 C203 1.413 . S
C202 H197 0.930 . S
C202 C200 1.378 . S
C202 C201 1.348 . S
C203 C199 1.415 . S
C203 C201 1.413 . S
C203 C233 1.437 . S
H204 C233 0.929 . S
N205 Gd178 2.570 . S
N205 C206 1.359 . S
N205 C209 1.343 . S
C206 C199 1.422 . S
C206 N205 1.359 . S
C206 C208 1.421 . S
C207 C208 1.422 . S
C207 C210 1.321 . S
C207 H234 0.931 . S
C208 C206 1.421 . S
C208 C207 1.422 . S
C208 C232 1.417 . S
C209 H186 0.931 . S
C209 N205 1.343 . S
C209 C210 1.390 . S
C210 H188 0.930 . S
C210 C207 1.321 . S
C210 C209 1.390 . S
O211 Gd179 2.386 . S
O211 C223 1.265 . S
O212 Gd178 2.353 . S
O212 C223 1.242 . S
O213 Gd178 2.468 . S
O213 C231 1.263 . S
O214 Gd178 2.427 . S
O214 C231 1.252 . S
O215 Gd179 2.307 . S
O215 C224 1.261 . S
O216 Gd178 2.388 . S
O216 C224 1.252 . S
O217 Gd178 2.386 . S
O217 C235 1.265 . S
O218 Gd179 2.353 . S
O218 C235 1.242 . S
O219 Gd179 2.468 . S
O219 C243 1.263 . S
O220 Gd179 2.427 . S
O220 C243 1.252 . S
O221 Gd178 2.307 . S
O221 C236 1.261 . S
O222 Gd179 2.388 . S
O222 C236 1.252 . S
C223 O211 1.265 . S
C223 O212 1.242 . S
C224 O215 1.261 . S
C224 O216 1.252 . S
C225 C228 1.394 . S
C225 C230 1.370 . S
C225 C231 1.500 . S
C226 C229 1.383 . S
C226 C230 1.395 . S
C227 C228 1.396 . S
C227 C229 1.365 . S
C227 H244 0.929 . S
C228 C225 1.394 . S
C228 C227 1.396 . S
C228 H245 0.930 . S
C229 C226 1.383 . S
C229 C227 1.365 . S
C229 H246 0.931 . S
C230 C225 1.370 . S
C230 C226 1.395 . S
C230 H247 0.930 . S
C231 Gd178 2.805 . S
C231 O213 1.263 . S
C231 O214 1.252 . S
C231 C225 1.500 . S
C232 H194 0.930 . S
C232 C208 1.417 . S
C232 C233 1.329 . S
C233 C203 1.437 . S
C233 H204 0.929 . S
C233 C232 1.329 . S
H234 C207 0.931 . S
C235 O217 1.265 . S
C235 O218 1.242 . S
C236 O221 1.261 . S
C236 O222 1.252 . S
C237 C240 1.394 . S
C237 C242 1.370 . S
C237 C243 1.500 . S
C238 C241 1.383 . S
C238 C242 1.395 . S
C239 C240 1.396 . S
C239 C241 1.365 . S
C239 H248 0.929 . S
C240 C237 1.394 . S
C240 C239 1.396 . S
C240 H249 0.930 . S
C241 C238 1.383 . S
C241 C239 1.365 . S
C241 H250 0.931 . S
C242 C237 1.370 . S
C242 C238 1.395 . S
C242 H251 0.930 . S
C243 Gd179 2.805 . S
C243 O219 1.263 . S
C243 O220 1.252 . S
C243 C237 1.500 . S
H244 C227 0.929 . S
H245 C228 0.930 . S
H246 C229 0.931 . S
H247 C230 0.930 . S
H248 C239 0.929 . S
H249 C240 0.930 . S
H250 C241 0.931 . S
H251 C242 0.930 . S
C252 C254 1.422 . S
C252 C256 1.415 . S
C252 N258 1.369 . S
C253 C254 1.421 . S
C253 C255 1.417 . S
C253 C265 1.422 . S
C254 C252 1.422 . S
C254 C253 1.421 . S
C254 N264 1.359 . S
C255 C253 1.417 . S
C255 C257 1.329 . S
C255 H274 0.930 . S
C256 C252 1.415 . S
C256 C257 1.437 . S
C256 C260 1.413 . S
C257 C255 1.329 . S
C257 C256 1.437 . S
C257 H279 0.929 . S
N258 C252 1.369 . S
N258 C259 1.338 . S
N258 Gd263 2.622 . S
C259 N258 1.338 . S
C259 C261 1.378 . S
C259 H271 0.929 . S
C260 C256 1.413 . S
C260 C261 1.348 . S
C260 H276 0.931 . S
C261 C259 1.378 . S
C261 C260 1.348 . S
C261 H277 0.930 . S
Gd262 N282 2.622 . S
Gd262 N289 2.570 . S
Gd262 O296 2.353 . S
Gd262 O297 2.468 . S
Gd262 O298 2.427 . S
Gd262 O300 2.388 . S
Gd262 O301 2.386 . S
Gd262 O305 2.307 . S
Gd262 C315 2.805 . S
Gd263 N258 2.622 . S
Gd263 N264 2.570 . S
Gd263 O295 2.386 . S
Gd263 O299 2.307 . S
Gd263 O302 2.353 . S
Gd263 O303 2.468 . S
Gd263 O304 2.427 . S
Gd263 O306 2.388 . S
Gd263 C327 2.805 . S
N264 C254 1.359 . S
N264 Gd263 2.570 . S
N264 C266 1.343 . S
C265 C253 1.422 . S
C265 C267 1.321 . S
C265 H273 0.931 . S
C266 N264 1.343 . S
C266 C267 1.390 . S
C266 H268 0.931 . S
C267 C265 1.321 . S
C267 C266 1.390 . S
C267 H269 0.930 . S
H268 C266 0.931 . S
H269 C267 0.930 . S
H270 C293 0.931 . S
H271 C259 0.929 . S
H272 C294 0.930 . S
H273 C265 0.931 . S
H274 C255 0.930 . S
H275 C284 0.929 . S
H276 C260 0.931 . S
H277 C261 0.930 . S
H278 C316 0.930 . S
H279 C257 0.929 . S
H280 C285 0.931 . S
H281 C286 0.930 . S
N282 Gd262 2.622 . S
N282 C283 1.369 . S
N282 C284 1.338 . S
C283 N282 1.369 . S
C283 C287 1.415 . S
C283 C290 1.422 . S
C284 H275 0.929 . S
C284 N282 1.338 . S
C284 C286 1.378 . S
C285 H280 0.931 . S
C285 C286 1.348 . S
C285 C287 1.413 . S
C286 H281 0.930 . S
C286 C284 1.378 . S
C286 C285 1.348 . S
C287 C283 1.415 . S
C287 C285 1.413 . S
C287 C317 1.437 . S
H288 C317 0.929 . S
N289 Gd262 2.570 . S
N289 C290 1.359 . S
N289 C293 1.343 . S
C290 C283 1.422 . S
C290 N289 1.359 . S
C290 C292 1.421 . S
C291 C292 1.422 . S
C291 C294 1.321 . S
C291 H318 0.931 . S
C292 C290 1.421 . S
C292 C291 1.422 . S
C292 C316 1.417 . S
C293 H270 0.931 . S
C293 N289 1.343 . S
C293 C294 1.390 . S
C294 H272 0.930 . S
C294 C291 1.321 . S
C294 C293 1.390 . S
O295 Gd263 2.386 . S
O295 C307 1.265 . S
O296 Gd262 2.353 . S
O296 C307 1.242 . S
O297 Gd262 2.468 . S
O297 C315 1.263 . S
O298 Gd262 2.427 . S
O298 C315 1.252 . S
O299 Gd263 2.307 . S
O299 C308 1.261 . S
O300 Gd262 2.388 . S
O300 C308 1.252 . S
O301 Gd262 2.386 . S
O301 C319 1.265 . S
O302 Gd263 2.353 . S
O302 C319 1.242 . S
O303 Gd263 2.468 . S
O303 C327 1.263 . S
O304 Gd263 2.427 . S
O304 C327 1.252 . S
O305 Gd262 2.307 . S
O305 C320 1.261 . S
O306 Gd263 2.388 . S
O306 C320 1.252 . S
C307 O295 1.265 . S
C307 O296 1.242 . S
C308 O299 1.261 . S
C308 O300 1.252 . S
C309 C312 1.394 . S
C309 C314 1.370 . S
C309 C315 1.500 . S
C310 C313 1.383 . S
C310 C314 1.395 . S
C311 C312 1.396 . S
C311 C313 1.365 . S
C311 H328 0.929 . S
C312 C309 1.394 . S
C312 C311 1.396 . S
C312 H329 0.930 . S
C313 C310 1.383 . S
C313 C311 1.365 . S
C313 H330 0.931 . S
C314 C309 1.370 . S
C314 C310 1.395 . S
C314 H331 0.930 . S
C315 Gd262 2.805 . S
C315 O297 1.263 . S
C315 O298 1.252 . S
C315 C309 1.500 . S
C316 H278 0.930 . S
C316 C292 1.417 . S
C316 C317 1.329 . S
C317 C287 1.437 . S
C317 H288 0.929 . S
C317 C316 1.329 . S
H318 C291 0.931 . S
C319 O301 1.265 . S
C319 O302 1.242 . S
C320 O305 1.261 . S
C320 O306 1.252 . S
C321 C324 1.394 . S
C321 C326 1.370 . S
C321 C327 1.500 . S
C322 C325 1.383 . S
C322 C326 1.395 . S
C323 C324 1.396 . S
C323 C325 1.365 . S
C323 H332 0.929 . S
C324 C321 1.394 . S
C324 C323 1.396 . S
C324 H333 0.930 . S
C325 C322 1.383 . S
C325 C323 1.365 . S
C325 H334 0.931 . S
C326 C321 1.370 . S
C326 C322 1.395 . S
C326 H335 0.930 . S
C327 Gd263 2.805 . S
C327 O303 1.263 . S
C327 O304 1.252 . S
C327 C321 1.500 . S
H328 C311 0.929 . S
H329 C312 0.930 . S
H330 C313 0.931 . S
H331 C314 0.930 . S
H332 C323 0.929 . S
H333 C324 0.930 . S
H334 C325 0.931 . S
H335 C326 0.930 . S
C336 C338 1.422 . S
C336 C340 1.415 . S
C336 N342 1.369 . S
C337 C338 1.421 . S
C337 C339 1.417 . S
C337 C349 1.422 . S
C338 C336 1.422 . S
C338 C337 1.421 . S
C338 N348 1.359 . S
C339 C337 1.417 . S
C339 C341 1.329 . S
C339 H358 0.930 . S
C340 C336 1.415 . S
C340 C341 1.437 . S
C340 C344 1.413 . S
C341 C339 1.329 . S
C341 C340 1.437 . S
C341 H363 0.929 . S
N342 C336 1.369 . S
N342 C343 1.338 . S
N342 Gd347 2.622 . S
C343 N342 1.338 . S
C343 C345 1.378 . S
C343 H355 0.929 . S
C344 C340 1.413 . S
C344 C345 1.348 . S
C344 H360 0.931 . S
C345 C343 1.378 . S
C345 C344 1.348 . S
C345 H361 0.930 . S
Gd346 N366 2.622 . S
Gd346 N373 2.570 . S
Gd346 O380 2.353 . S
Gd346 O381 2.468 . S
Gd346 O382 2.427 . S
Gd346 O384 2.388 . S
Gd346 O385 2.386 . S
Gd346 O389 2.307 . S
Gd346 C399 2.805 . S
Gd347 N342 2.622 . S
Gd347 N348 2.570 . S
Gd347 O379 2.386 . S
Gd347 O383 2.307 . S
Gd347 O386 2.353 . S
Gd347 O387 2.468 . S
Gd347 O388 2.427 . S
Gd347 O390 2.388 . S
Gd347 C411 2.805 . S
N348 C338 1.359 . S
N348 Gd347 2.570 . S
N348 C350 1.343 . S
C349 C337 1.422 . S
C349 C351 1.321 . S
C349 H357 0.931 . S
C350 N348 1.343 . S
C350 C351 1.390 . S
C350 H352 0.931 . S
C351 C349 1.321 . S
C351 C350 1.390 . S
C351 H353 0.930 . S
H352 C350 0.931 . S
H353 C351 0.930 . S
H354 C377 0.931 . S
H355 C343 0.929 . S
H356 C378 0.930 . S
H357 C349 0.931 . S
H358 C339 0.930 . S
H359 C368 0.929 . S
H360 C344 0.931 . S
H361 C345 0.930 . S
H362 C400 0.930 . S
H363 C341 0.929 . S
H364 C369 0.931 . S
H365 C370 0.930 . S
N366 Gd346 2.622 . S
N366 C367 1.369 . S
N366 C368 1.338 . S
C367 N366 1.369 . S
C367 C371 1.415 . S
C367 C374 1.422 . S
C368 H359 0.929 . S
C368 N366 1.338 . S
C368 C370 1.378 . S
C369 H364 0.931 . S
C369 C370 1.348 . S
C369 C371 1.413 . S
C370 H365 0.930 . S
C370 C368 1.378 . S
C370 C369 1.348 . S
C371 C367 1.415 . S
C371 C369 1.413 . S
C371 C401 1.437 . S
H372 C401 0.929 . S
N373 Gd346 2.570 . S
N373 C374 1.359 . S
N373 C377 1.343 . S
C374 C367 1.422 . S
C374 N373 1.359 . S
C374 C376 1.421 . S
C375 C376 1.422 . S
C375 C378 1.321 . S
C375 H402 0.931 . S
C376 C374 1.421 . S
C376 C375 1.422 . S
C376 C400 1.417 . S
C377 H354 0.931 . S
C377 N373 1.343 . S
C377 C378 1.390 . S
C378 H356 0.930 . S
C378 C375 1.321 . S
C378 C377 1.390 . S
O379 Gd347 2.386 . S
O379 C391 1.265 . S
O380 Gd346 2.353 . S
O380 C391 1.242 . S
O381 Gd346 2.468 . S
O381 C399 1.263 . S
O382 Gd346 2.427 . S
O382 C399 1.252 . S
O383 Gd347 2.307 . S
O383 C392 1.261 . S
O384 Gd346 2.388 . S
O384 C392 1.252 . S
O385 Gd346 2.386 . S
O385 C403 1.265 . S
O386 Gd347 2.353 . S
O386 C403 1.242 . S
O387 Gd347 2.468 . S
O387 C411 1.263 . S
O388 Gd347 2.427 . S
O388 C411 1.252 . S
O389 Gd346 2.307 . S
O389 C404 1.261 . S
O390 Gd347 2.388 . S
O390 C404 1.252 . S
C391 O379 1.265 . S
C391 O380 1.242 . S
C392 O383 1.261 . S
C392 O384 1.252 . S
C393 C396 1.394 . S
C393 C398 1.370 . S
C393 C399 1.500 . S
C394 C397 1.383 . S
C394 C398 1.395 . S
C395 C396 1.396 . S
C395 C397 1.365 . S
C395 H412 0.929 . S
C396 C393 1.394 . S
C396 C395 1.396 . S
C396 H413 0.930 . S
C397 C394 1.383 . S
C397 C395 1.365 . S
C397 H414 0.931 . S
C398 C393 1.370 . S
C398 C394 1.395 . S
C398 H415 0.930 . S
C399 Gd346 2.805 . S
C399 O381 1.263 . S
C399 O382 1.252 . S
C399 C393 1.500 . S
C400 H362 0.930 . S
C400 C376 1.417 . S
C400 C401 1.329 . S
C401 C371 1.437 . S
C401 H372 0.929 . S
C401 C400 1.329 . S
H402 C375 0.931 . S
C403 O385 1.265 . S
C403 O386 1.242 . S
C404 O389 1.261 . S
C404 O390 1.252 . S
C405 C408 1.394 . S
C405 C410 1.370 . S
C405 C411 1.500 . S
C406 C409 1.383 . S
C406 C410 1.395 . S
C407 C408 1.396 . S
C407 C409 1.365 . S
C407 H416 0.929 . S
C408 C405 1.394 . S
C408 C407 1.396 . S
C408 H417 0.930 . S
C409 C406 1.383 . S
C409 C407 1.365 . S
C409 H418 0.931 . S
C410 C405 1.370 . S
C410 C406 1.395 . S
C410 H419 0.930 . S
C411 Gd347 2.805 . S
C411 O387 1.263 . S
C411 O388 1.252 . S
C411 C405 1.500 . S
H412 C395 0.929 . S
H413 C396 0.930 . S
H414 C397 0.931 . S
H415 C398 0.930 . S
H416 C407 0.929 . S
H417 C408 0.930 . S
H418 C409 0.931 . S
H419 C410 0.930 . S
C420 C422 1.422 . S
C420 C424 1.415 . S
C420 N426 1.369 . S
C421 C422 1.421 . S
C421 C423 1.417 . S
C421 C433 1.422 . S
C422 C420 1.422 . S
C422 C421 1.421 . S
C422 N432 1.359 . S
C423 C421 1.417 . S
C423 C425 1.329 . S
C423 H442 0.930 . S
C424 C420 1.415 . S
C424 C425 1.437 . S
C424 C428 1.413 . S
C425 C423 1.329 . S
C425 C424 1.437 . S
C425 H447 0.929 . S
N426 C420 1.369 . S
N426 C427 1.338 . S
N426 Gd431 2.622 . S
C427 N426 1.338 . S
C427 C429 1.378 . S
C427 H439 0.929 . S
C428 C424 1.413 . S
C428 C429 1.348 . S
C428 H444 0.931 . S
C429 C427 1.378 . S
C429 C428 1.348 . S
C429 H445 0.930 . S
Gd430 N450 2.622 . S
Gd430 N457 2.570 . S
Gd430 O464 2.353 . S
Gd430 O465 2.468 . S
Gd430 O466 2.427 . S
Gd430 O468 2.388 . S
Gd430 O469 2.386 . S
Gd430 O473 2.307 . S
Gd430 C483 2.805 . S
Gd431 N426 2.622 . S
Gd431 N432 2.570 . S
Gd431 O463 2.386 . S
Gd431 O467 2.307 . S
Gd431 O470 2.353 . S
Gd431 O471 2.468 . S
Gd431 O472 2.427 . S
Gd431 O474 2.388 . S
Gd431 C495 2.805 . S
N432 C422 1.359 . S
N432 Gd431 2.570 . S
N432 C434 1.343 . S
C433 C421 1.422 . S
C433 C435 1.321 . S
C433 H441 0.931 . S
C434 N432 1.343 . S
C434 C435 1.390 . S
C434 H436 0.931 . S
C435 C433 1.321 . S
C435 C434 1.390 . S
C435 H437 0.930 . S
H436 C434 0.931 . S
H437 C435 0.930 . S
H438 C461 0.931 . S
H439 C427 0.929 . S
H440 C462 0.930 . S
H441 C433 0.931 . S
H442 C423 0.930 . S
H443 C452 0.929 . S
H444 C428 0.931 . S
H445 C429 0.930 . S
H446 C484 0.930 . S
H447 C425 0.929 . S
H448 C453 0.931 . S
H449 C454 0.930 . S
N450 Gd430 2.622 . S
N450 C451 1.369 . S
N450 C452 1.338 . S
C451 N450 1.369 . S
C451 C455 1.415 . S
C451 C458 1.422 . S
C452 H443 0.929 . S
C452 N450 1.338 . S
C452 C454 1.378 . S
C453 H448 0.931 . S
C453 C454 1.348 . S
C453 C455 1.413 . S
C454 H449 0.930 . S
C454 C452 1.378 . S
C454 C453 1.348 . S
C455 C451 1.415 . S
C455 C453 1.413 . S
C455 C485 1.437 . S
H456 C485 0.929 . S
N457 Gd430 2.570 . S
N457 C458 1.359 . S
N457 C461 1.343 . S
C458 C451 1.422 . S
C458 N457 1.359 . S
C458 C460 1.421 . S
C459 C460 1.422 . S
C459 C462 1.321 . S
C459 H486 0.931 . S
C460 C458 1.421 . S
C460 C459 1.422 . S
C460 C484 1.417 . S
C461 H438 0.931 . S
C461 N457 1.343 . S
C461 C462 1.390 . S
C462 H440 0.930 . S
C462 C459 1.321 . S
C462 C461 1.390 . S
O463 Gd431 2.386 . S
O463 C475 1.265 . S
O464 Gd430 2.353 . S
O464 C475 1.242 . S
O465 Gd430 2.468 . S
O465 C483 1.263 . S
O466 Gd430 2.427 . S
O466 C483 1.252 . S
O467 Gd431 2.307 . S
O467 C476 1.261 . S
O468 Gd430 2.388 . S
O468 C476 1.252 . S
O469 Gd430 2.386 . S
O469 C487 1.265 . S
O470 Gd431 2.353 . S
O470 C487 1.242 . S
O471 Gd431 2.468 . S
O471 C495 1.263 . S
O472 Gd431 2.427 . S
O472 C495 1.252 . S
O473 Gd430 2.307 . S
O473 C488 1.261 . S
O474 Gd431 2.388 . S
O474 C488 1.252 . S
C475 O463 1.265 . S
C475 O464 1.242 . S
C476 O467 1.261 . S
C476 O468 1.252 . S
C477 C480 1.394 . S
C477 C482 1.370 . S
C477 C483 1.500 . S
C478 C481 1.383 . S
C478 C482 1.395 . S
C479 C480 1.396 . S
C479 C481 1.365 . S
C479 H496 0.929 . S
C480 C477 1.394 . S
C480 C479 1.396 . S
C480 H497 0.930 . S
C481 C478 1.383 . S
C481 C479 1.365 . S
C481 H498 0.931 . S
C482 C477 1.370 . S
C482 C478 1.395 . S
C482 H499 0.930 . S
C483 Gd430 2.805 . S
C483 O465 1.263 . S
C483 O466 1.252 . S
C483 C477 1.500 . S
C484 H446 0.930 . S
C484 C460 1.417 . S
C484 C485 1.329 . S
C485 C455 1.437 . S
C485 H456 0.929 . S
C485 C484 1.329 . S
H486 C459 0.931 . S
C487 O469 1.265 . S
C487 O470 1.242 . S
C488 O473 1.261 . S
C488 O474 1.252 . S
C489 C492 1.394 . S
C489 C494 1.370 . S
C489 C495 1.500 . S
C490 C493 1.383 . S
C490 C494 1.395 . S
C491 C492 1.396 . S
C491 C493 1.365 . S
C491 H500 0.929 . S
C492 C489 1.394 . S
C492 C491 1.396 . S
C492 H501 0.930 . S
C493 C490 1.383 . S
C493 C491 1.365 . S
C493 H502 0.931 . S
C494 C489 1.370 . S
C494 C490 1.395 . S
C494 H503 0.930 . S
C495 Gd431 2.805 . S
C495 O471 1.263 . S
C495 O472 1.252 . S
C495 C489 1.500 . S
H496 C479 0.929 . S
H497 C480 0.930 . S
H498 C481 0.931 . S
H499 C482 0.930 . S
H500 C491 0.929 . S
H501 C492 0.930 . S
H502 C493 0.931 . S
H503 C494 0.930 . S
C504 C506 1.422 . S
C504 C508 1.415 . S
C504 N510 1.369 . S
C505 C506 1.421 . S
C505 C507 1.417 . S
C505 C517 1.422 . S
C506 C504 1.422 . S
C506 C505 1.421 . S
C506 N516 1.359 . S
C507 C505 1.417 . S
C507 C509 1.329 . S
C507 H526 0.930 . S
C508 C504 1.415 . S
C508 C509 1.437 . S
C508 C512 1.413 . S
C509 C507 1.329 . S
C509 C508 1.437 . S
C509 H531 0.929 . S
N510 C504 1.369 . S
N510 C511 1.338 . S
N510 Gd515 2.622 . S
C511 N510 1.338 . S
C511 C513 1.378 . S
C511 H523 0.929 . S
C512 C508 1.413 . S
C512 C513 1.348 . S
C512 H528 0.931 . S
C513 C511 1.378 . S
C513 C512 1.348 . S
C513 H529 0.930 . S
Gd514 N534 2.622 . S
Gd514 N541 2.570 . S
Gd514 O548 2.353 . S
Gd514 O549 2.468 . S
Gd514 O550 2.427 . S
Gd514 O552 2.388 . S
Gd514 O553 2.386 . S
Gd514 O557 2.307 . S
Gd514 C567 2.805 . S
Gd515 N510 2.622 . S
Gd515 N516 2.570 . S
Gd515 O547 2.386 . S
Gd515 O551 2.307 . S
Gd515 O554 2.353 . S
Gd515 O555 2.468 . S
Gd515 O556 2.427 . S
Gd515 O558 2.388 . S
Gd515 C579 2.805 . S
N516 C506 1.359 . S
N516 Gd515 2.570 . S
N516 C518 1.343 . S
C517 C505 1.422 . S
C517 C519 1.321 . S
C517 H525 0.931 . S
C518 N516 1.343 . S
C518 C519 1.390 . S
C518 H520 0.931 . S
C519 C517 1.321 . S
C519 C518 1.390 . S
C519 H521 0.930 . S
H520 C518 0.931 . S
H521 C519 0.930 . S
H522 C545 0.931 . S
H523 C511 0.929 . S
H524 C546 0.930 . S
H525 C517 0.931 . S
H526 C507 0.930 . S
H527 C536 0.929 . S
H528 C512 0.931 . S
H529 C513 0.930 . S
H530 C568 0.930 . S
H531 C509 0.929 . S
H532 C537 0.931 . S
H533 C538 0.930 . S
N534 Gd514 2.622 . S
N534 C535 1.369 . S
N534 C536 1.338 . S
C535 N534 1.369 . S
C535 C539 1.415 . S
C535 C542 1.422 . S
C536 H527 0.929 . S
C536 N534 1.338 . S
C536 C538 1.378 . S
C537 H532 0.931 . S
C537 C538 1.348 . S
C537 C539 1.413 . S
C538 H533 0.930 . S
C538 C536 1.378 . S
C538 C537 1.348 . S
C539 C535 1.415 . S
C539 C537 1.413 . S
C539 C569 1.437 . S
H540 C569 0.929 . S
N541 Gd514 2.570 . S
N541 C542 1.359 . S
N541 C545 1.343 . S
C542 C535 1.422 . S
C542 N541 1.359 . S
C542 C544 1.421 . S
C543 C544 1.422 . S
C543 C546 1.321 . S
C543 H570 0.931 . S
C544 C542 1.421 . S
C544 C543 1.422 . S
C544 C568 1.417 . S
C545 H522 0.931 . S
C545 N541 1.343 . S
C545 C546 1.390 . S
C546 H524 0.930 . S
C546 C543 1.321 . S
C546 C545 1.390 . S
O547 Gd515 2.386 . S
O547 C559 1.265 . S
O548 Gd514 2.353 . S
O548 C559 1.242 . S
O549 Gd514 2.468 . S
O549 C567 1.263 . S
O550 Gd514 2.427 . S
O550 C567 1.252 . S
O551 Gd515 2.307 . S
O551 C560 1.261 . S
O552 Gd514 2.388 . S
O552 C560 1.252 . S
O553 Gd514 2.386 . S
O553 C571 1.265 . S
O554 Gd515 2.353 . S
O554 C571 1.242 . S
O555 Gd515 2.468 . S
O555 C579 1.263 . S
O556 Gd515 2.427 . S
O556 C579 1.252 . S
O557 Gd514 2.307 . S
O557 C572 1.261 . S
O558 Gd515 2.388 . S
O558 C572 1.252 . S
C559 O547 1.265 . S
C559 O548 1.242 . S
C560 O551 1.261 . S
C560 O552 1.252 . S
C561 C564 1.394 . S
C561 C566 1.370 . S
C561 C567 1.500 . S
C562 C565 1.383 . S
C562 C566 1.395 . S
C563 C564 1.396 . S
C563 C565 1.365 . S
C563 H580 0.929 . S
C564 C561 1.394 . S
C564 C563 1.396 . S
C564 H581 0.930 . S
C565 C562 1.383 . S
C565 C563 1.365 . S
C565 H582 0.931 . S
C566 C561 1.370 . S
C566 C562 1.395 . S
C566 H583 0.930 . S
C567 Gd514 2.805 . S
C567 O549 1.263 . S
C567 O550 1.252 . S
C567 C561 1.500 . S
C568 H530 0.930 . S
C568 C544 1.417 . S
C568 C569 1.329 . S
C569 C539 1.437 . S
C569 H540 0.929 . S
C569 C568 1.329 . S
H570 C543 0.931 . S
C571 O553 1.265 . S
C571 O554 1.242 . S
C572 O557 1.261 . S
C572 O558 1.252 . S
C573 C576 1.394 . S
C573 C578 1.370 . S
C573 C579 1.500 . S
C574 C577 1.383 . S
C574 C578 1.395 . S
C575 C576 1.396 . S
C575 C577 1.365 . S
C575 H584 0.929 . S
C576 C573 1.394 . S
C576 C575 1.396 . S
C576 H585 0.930 . S
C577 C574 1.383 . S
C577 C575 1.365 . S
C577 H586 0.931 . S
C578 C573 1.370 . S
C578 C574 1.395 . S
C578 H587 0.930 . S
C579 Gd515 2.805 . S
C579 O555 1.263 . S
C579 O556 1.252 . S
C579 C573 1.500 . S
H580 C563 0.929 . S
H581 C564 0.930 . S
H582 C565 0.931 . S
H583 C566 0.930 . S
H584 C575 0.929 . S
H585 C576 0.930 . S
H586 C577 0.931 . S
H587 C578 0.930 . S
C588 C590 1.422 . S
C588 C592 1.415 . S
C588 N594 1.369 . S
C589 C590 1.421 . S
C589 C591 1.417 . S
C589 C601 1.422 . S
C590 C588 1.422 . S
C590 C589 1.421 . S
C590 N600 1.359 . S
C591 C589 1.417 . S
C591 C593 1.329 . S
C591 H610 0.930 . S
C592 C588 1.415 . S
C592 C593 1.437 . S
C592 C596 1.413 . S
C593 C591 1.329 . S
C593 C592 1.437 . S
C593 H615 0.929 . S
N594 C588 1.369 . S
N594 C595 1.338 . S
N594 Gd599 2.622 . S
C595 N594 1.338 . S
C595 C597 1.378 . S
C595 H607 0.929 . S
C596 C592 1.413 . S
C596 C597 1.348 . S
C596 H612 0.931 . S
C597 C595 1.378 . S
C597 C596 1.348 . S
C597 H613 0.930 . S
Gd598 N618 2.622 . S
Gd598 N625 2.570 . S
Gd598 O632 2.353 . S
Gd598 O633 2.468 . S
Gd598 O634 2.427 . S
Gd598 O636 2.388 . S
Gd598 O637 2.386 . S
Gd598 O641 2.307 . S
Gd598 C651 2.805 . S
Gd599 N594 2.622 . S
Gd599 N600 2.570 . S
Gd599 O631 2.386 . S
Gd599 O635 2.307 . S
Gd599 O638 2.353 . S
Gd599 O639 2.468 . S
Gd599 O640 2.427 . S
Gd599 O642 2.388 . S
Gd599 C663 2.805 . S
N600 C590 1.359 . S
N600 Gd599 2.570 . S
N600 C602 1.343 . S
C601 C589 1.422 . S
C601 C603 1.321 . S
C601 H609 0.931 . S
C602 N600 1.343 . S
C602 C603 1.390 . S
C602 H604 0.931 . S
C603 C601 1.321 . S
C603 C602 1.390 . S
C603 H605 0.930 . S
H604 C602 0.931 . S
H605 C603 0.930 . S
H606 C629 0.931 . S
H607 C595 0.929 . S
H608 C630 0.930 . S
H609 C601 0.931 . S
H610 C591 0.930 . S
H611 C620 0.929 . S
H612 C596 0.931 . S
H613 C597 0.930 . S
H614 C652 0.930 . S
H615 C593 0.929 . S
H616 C621 0.931 . S
H617 C622 0.930 . S
N618 Gd598 2.622 . S
N618 C619 1.369 . S
N618 C620 1.338 . S
C619 N618 1.369 . S
C619 C623 1.415 . S
C619 C626 1.422 . S
C620 H611 0.929 . S
C620 N618 1.338 . S
C620 C622 1.378 . S
C621 H616 0.931 . S
C621 C622 1.348 . S
C621 C623 1.413 . S
C622 H617 0.930 . S
C622 C620 1.378 . S
C622 C621 1.348 . S
C623 C619 1.415 . S
C623 C621 1.413 . S
C623 C653 1.437 . S
H624 C653 0.929 . S
N625 Gd598 2.570 . S
N625 C626 1.359 . S
N625 C629 1.343 . S
C626 C619 1.422 . S
C626 N625 1.359 . S
C626 C628 1.421 . S
C627 C628 1.422 . S
C627 C630 1.321 . S
C627 H654 0.931 . S
C628 C626 1.421 . S
C628 C627 1.422 . S
C628 C652 1.417 . S
C629 H606 0.931 . S
C629 N625 1.343 . S
C629 C630 1.390 . S
C630 H608 0.930 . S
C630 C627 1.321 . S
C630 C629 1.390 . S
O631 Gd599 2.386 . S
O631 C643 1.265 . S
O632 Gd598 2.353 . S
O632 C643 1.242 . S
O633 Gd598 2.468 . S
O633 C651 1.263 . S
O634 Gd598 2.427 . S
O634 C651 1.252 . S
O635 Gd599 2.307 . S
O635 C644 1.261 . S
O636 Gd598 2.388 . S
O636 C644 1.252 . S
O637 Gd598 2.386 . S
O637 C655 1.265 . S
O638 Gd599 2.353 . S
O638 C655 1.242 . S
O639 Gd599 2.468 . S
O639 C663 1.263 . S
O640 Gd599 2.427 . S
O640 C663 1.252 . S
O641 Gd598 2.307 . S
O641 C656 1.261 . S
O642 Gd599 2.388 . S
O642 C656 1.252 . S
C643 O631 1.265 . S
C643 O632 1.242 . S
C644 O635 1.261 . S
C644 O636 1.252 . S
C645 C648 1.394 . S
C645 C650 1.370 . S
C645 C651 1.500 . S
C646 C649 1.383 . S
C646 C650 1.395 . S
C647 C648 1.396 . S
C647 C649 1.365 . S
C647 H664 0.929 . S
C648 C645 1.394 . S
C648 C647 1.396 . S
C648 H665 0.930 . S
C649 C646 1.383 . S
C649 C647 1.365 . S
C649 H666 0.931 . S
C650 C645 1.370 . S
C650 C646 1.395 . S
C650 H667 0.930 . S
C651 Gd598 2.805 . S
C651 O633 1.263 . S
C651 O634 1.252 . S
C651 C645 1.500 . S
C652 H614 0.930 . S
C652 C628 1.417 . S
C652 C653 1.329 . S
C653 C623 1.437 . S
C653 H624 0.929 . S
C653 C652 1.329 . S
H654 C627 0.931 . S
C655 O637 1.265 . S
C655 O638 1.242 . S
C656 O641 1.261 . S
C656 O642 1.252 . S
C657 C660 1.394 . S
C657 C662 1.370 . S
C657 C663 1.500 . S
C658 C661 1.383 . S
C658 C662 1.395 . S
C659 C660 1.396 . S
C659 C661 1.365 . S
C659 H668 0.929 . S
C660 C657 1.394 . S
C660 C659 1.396 . S
C660 H669 0.930 . S
C661 C658 1.383 . S
C661 C659 1.365 . S
C661 H670 0.931 . S
C662 C657 1.370 . S
C662 C658 1.395 . S
C662 H671 0.930 . S
C663 Gd599 2.805 . S
C663 O639 1.263 . S
C663 O640 1.252 . S
C663 C657 1.500 . S
H664 C647 0.929 . S
H665 C648 0.930 . S
H666 C649 0.931 . S
H667 C650 0.930 . S
H668 C659 0.929 . S
H669 C660 0.930 . S
H670 C661 0.931 . S
H671 C662 0.930 . S
Fe672 O673 1.886 1_455 S
Fe672 O676 1.715 . S
Fe672 O681 2.077 1_455 S
Fe672 O686 1.935 . S
Fe672 O692 2.077 1_455 S
Fe672 O701 1.935 . S
O673 Fe672 1.886 1_655 S
O673 Fe675 1.715 1_545 S
Fe674 O676 1.886 . S
Fe674 O677 1.715 1_545 S
Fe674 O684 1.935 1_545 S
Fe674 O685 2.077 . S
Fe674 O691 1.935 1_545 S
Fe674 O700 2.077 . S
Fe675 O673 1.715 1_565 S
Fe675 O678 1.886 . S
Fe675 O682 1.935 1_565 S
Fe675 O687 2.077 . S
Fe675 O693 1.935 1_565 S
Fe675 O697 2.077 . S
O676 Fe672 1.715 . S
O676 Fe674 1.886 . S
O677 Fe674 1.715 1_565 S
O677 Fe679 1.886 1_455 S
O678 Fe675 1.886 . S
O678 Fe679 1.715 . S
Fe679 O677 1.886 1_655 S
Fe679 O678 1.715 . S
Fe679 O683 2.077 1_655 S
Fe679 O688 1.935 . S
Fe679 O690 2.077 1_655 S
Fe679 O698 1.935 . S
C680 O692 1.381 . S
C680 O693 1.421 . S
O681 Fe672 2.077 1_655 S
O681 C694 1.381 . S
O682 Fe675 1.935 1_545 S
O682 C694 1.421 . S
O683 Fe679 2.077 1_455 S
O683 C699 1.381 . S
O684 Fe674 1.935 1_565 S
O684 C699 1.421 . S
O685 Fe674 2.077 . S
O685 C689 1.381 . S
O686 Fe672 1.935 . S
O686 C689 1.421 . S
O687 Fe675 2.077 . S
O687 C695 1.381 . S
O688 Fe679 1.935 . S
O688 C695 1.421 . S
C689 O685 1.381 . S
C689 O686 1.421 . S
O690 Fe679 2.077 1_455 S
O690 C702 1.381 . S
O691 Fe674 1.935 1_565 S
O691 C702 1.421 . S
O692 Fe672 2.077 1_655 S
O692 C680 1.381 . S
O693 Fe675 1.935 1_545 S
O693 C680 1.421 . S
C694 O681 1.381 . S
C694 O682 1.421 . S
C695 O687 1.381 . S
C695 O688 1.421 . S
C696 O697 1.381 . S
C696 O698 1.421 . S
O697 Fe675 2.077 . S
O697 C696 1.381 . S
O698 Fe679 1.935 . S
O698 C696 1.421 . S
C699 O683 1.381 . S
C699 O684 1.421 . S
O700 Fe674 2.077 . S
O700 C703 1.381 . S
O701 Fe672 1.935 . S
O701 C703 1.421 . S
C702 O690 1.381 . S
C702 O691 1.421 . S
C703 O700 1.381 . S
C703 O701 1.421 . S
Fe704 O705 1.886 . S
Fe704 O708 1.715 . S
Fe704 O713 2.077 . S
Fe704 O718 1.935 . S
Fe704 O724 2.077 1_556 S
Fe704 O733 1.935 1_556 S
O705 Fe704 1.886 . S
O705 Fe707 1.715 1_565 S
Fe706 O708 1.886 1_554 S
Fe706 O709 1.715 1_565 S
Fe706 O716 1.935 1_564 S
Fe706 O717 2.077 1_554 S
Fe706 O723 1.935 1_565 S
Fe706 O732 2.077 . S
Fe707 O705 1.715 1_545 S
Fe707 O710 1.887 1_556 S
Fe707 O714 1.935 1_545 S
Fe707 O719 2.077 . S
Fe707 O725 1.935 1_546 S
Fe707 O729 2.077 1_556 S
O708 Fe704 1.715 . S
O708 Fe706 1.886 1_556 S
O709 Fe706 1.715 1_545 S
O709 Fe711 1.886 . S
O710 Fe707 1.887 1_554 S
O710 Fe711 1.714 . S
Fe711 O709 1.886 . S
Fe711 O710 1.714 . S
Fe711 O715 2.077 1_554 S
Fe711 O720 1.935 1_554 S
Fe711 O722 2.077 . S
Fe711 O730 1.935 . S
C712 O724 1.381 . S
C712 O725 1.421 . S
O713 Fe704 2.077 . S
O713 C726 1.381 . S
O714 Fe707 1.935 1_565 S
O714 C726 1.421 . S
O715 Fe711 2.077 1_556 S
O715 C731 1.381 . S
O716 Fe706 1.935 1_546 S
O716 C731 1.421 . S
O717 Fe706 2.077 1_556 S
O717 C721 1.381 . S
O718 Fe704 1.935 . S
O718 C721 1.421 . S
O719 Fe707 2.077 . S
O719 C727 1.381 . S
O720 Fe711 1.935 1_556 S
O720 C727 1.421 . S
C721 O717 1.381 . S
C721 O718 1.421 . S
O722 Fe711 2.077 . S
O722 C734 1.381 . S
O723 Fe706 1.935 1_545 S
O723 C734 1.421 . S
O724 Fe704 2.077 1_554 S
O724 C712 1.381 . S
O725 Fe707 1.935 1_564 S
O725 C712 1.421 . S
C726 O713 1.381 . S
C726 O714 1.421 . S
C727 O719 1.381 . S
C727 O720 1.421 . S
C728 O729 1.381 . S
C728 O730 1.421 . S
O729 Fe707 2.077 1_554 S
O729 C728 1.381 . S
O730 Fe711 1.935 . S
O730 C728 1.421 . S
C731 O715 1.381 . S
C731 O716 1.421 . S
O732 Fe706 2.077 . S
O732 C735 1.381 . S
O733 Fe704 1.935 1_554 S
O733 C735 1.421 . S
C734 O722 1.381 . S
C734 O723 1.421 . S
C735 O732 1.381 . S
C735 O733 1.421 . S
Fe736 O737 1.886 1_455 S
Fe736 O740 1.714 . S
Fe736 O745 2.077 1_454 S
Fe736 O750 1.935 1_554 S
Fe736 O756 2.077 1_455 S
Fe736 O765 1.935 . S
O737 Fe736 1.886 1_655 S
O737 Fe739 1.715 . S
Fe738 O740 1.886 1_556 S
Fe738 O741 1.715 . S
Fe738 O748 1.935 . S
Fe738 O749 2.077 . S
Fe738 O755 1.935 1_556 S
Fe738 O764 2.077 1_556 S
Fe739 O737 1.715 . S
Fe739 O742 1.886 1_554 S
Fe739 O746 1.935 1_554 S
Fe739 O751 2.077 1_554 S
Fe739 O757 1.935 . S
Fe739 O761 2.077 . S
O740 Fe736 1.714 . S
O740 Fe738 1.886 1_554 S
O741 Fe738 1.715 . S
O741 Fe743 1.886 1_455 S
O742 Fe739 1.886 1_556 S
O742 Fe743 1.715 . S
Fe743 O741 1.886 1_655 S
Fe743 O742 1.715 . S
Fe743 O747 2.077 1_655 S
Fe743 O752 1.935 . S
Fe743 O754 2.077 1_656 S
Fe743 O762 1.935 1_556 S
C744 O756 1.381 . S
C744 O757 1.421 . S
O745 Fe736 2.077 1_656 S
O745 C758 1.381 . S
O746 Fe739 1.935 1_556 S
O746 C758 1.421 . S
O747 Fe743 2.077 1_455 S
O747 C763 1.381 . S
O748 Fe738 1.935 . S
O748 C763 1.421 . S
O749 Fe738 2.077 . S
O749 C753 1.381 . S
O750 Fe736 1.935 1_556 S
O750 C753 1.421 . S
O751 Fe739 2.077 1_556 S
O751 C759 1.381 . S
O752 Fe743 1.935 . S
O752 C759 1.421 . S
C753 O749 1.381 . S
C753 O750 1.421 . S
O754 Fe743 2.077 1_454 S
O754 C766 1.381 . S
O755 Fe738 1.935 1_554 S
O755 C766 1.421 . S
O756 Fe736 2.077 1_655 S
O756 C744 1.381 . S
O757 Fe739 1.935 . S
O757 C744 1.421 . S
C758 O745 1.381 . S
C758 O746 1.421 . S
C759 O751 1.381 . S
C759 O752 1.421 . S
C760 O761 1.381 . S
C760 O762 1.421 . S
O761 Fe739 2.077 . S
O761 C760 1.381 . S
O762 Fe743 1.935 1_554 S
O762 C760 1.421 . S
C763 O747 1.381 . S
C763 O748 1.421 . S
O764 Fe738 2.077 1_554 S
O764 C767 1.381 . S
O765 Fe736 1.935 . S
O765 C767 1.421 . S
C766 O754 1.381 . S
C766 O755 1.421 . S
C767 O764 1.381 . S
C767 O765 1.421 . S
Fe768 O769 1.886 . S
Fe768 O772 1.715 . S
Fe768 O777 2.077 . S
Fe768 O782 1.935 . S
Fe768 O788 2.077 . S
Fe768 O797 1.935 . S
O769 Fe768 1.886 . S
O769 Fe771 1.715 . S
Fe770 O772 1.886 1_554 S
Fe770 O773 1.715 . S
Fe770 O780 1.935 . S
Fe770 O781 2.077 1_554 S
Fe770 O787 1.935 . S
Fe770 O796 2.077 1_554 S
Fe771 O769 1.715 . S
Fe771 O774 1.886 1_556 S
Fe771 O778 1.935 . S
Fe771 O783 2.077 1_556 S
Fe771 O789 1.935 . S
Fe771 O793 2.077 1_556 S
O772 Fe768 1.715 . S
O772 Fe770 1.886 1_556 S
O773 Fe770 1.715 . S
O773 Fe775 1.886 . S
O774 Fe771 1.886 1_554 S
O774 Fe775 1.715 . S
Fe775 O773 1.886 . S
Fe775 O774 1.715 . S
Fe775 O779 2.077 . S
Fe775 O784 1.935 . S
Fe775 O786 2.077 . S
Fe775 O794 1.935 . S
C776 O788 1.381 . S
C776 O789 1.421 . S
O777 Fe768 2.077 . S
O777 C790 1.381 . S
O778 Fe771 1.935 . S
O778 C790 1.421 . S
O779 Fe775 2.077 . S
O779 C795 1.381 . S
O780 Fe770 1.935 . S
O780 C795 1.421 . S
O781 Fe770 2.077 1_556 S
O781 C785 1.381 . S
O782 Fe768 1.935 . S
O782 C785 1.421 . S
O783 Fe771 2.077 1_554 S
O783 C791 1.381 . S
O784 Fe775 1.935 . S
O784 C791 1.421 . S
C785 O781 1.381 . S
C785 O782 1.421 . S
O786 Fe775 2.077 . S
O786 C798 1.381 . S
O787 Fe770 1.935 . S
O787 C798 1.421 . S
O788 Fe768 2.077 . S
O788 C776 1.381 . S
O789 Fe771 1.935 . S
O789 C776 1.421 . S
C790 O777 1.381 . S
C790 O778 1.421 . S
C791 O783 1.381 . S
C791 O784 1.421 . S
C792 O793 1.381 . S
C792 O794 1.421 . S
O793 Fe771 2.077 1_554 S
O793 C792 1.381 . S
O794 Fe775 1.935 . S
O794 C792 1.421 . S
C795 O779 1.381 . S
C795 O780 1.421 . S
O796 Fe770 2.077 1_556 S
O796 C799 1.381 . S
O797 Fe768 1.935 . S
O797 C799 1.421 . S
C798 O786 1.381 . S
C798 O787 1.421 . S
C799 O796 1.381 . S
C799 O797 1.421 . S
Fe800 O801 1.886 . S
Fe800 O804 1.715 . S
Fe800 O809 2.077 1_655 S
Fe800 O814 1.935 1_655 S
Fe800 O820 2.077 . S
Fe800 O829 1.935 . S
O801 Fe800 1.886 . S
O801 Fe803 1.715 . S
Fe802 O804 1.886 1_455 S
Fe802 O805 1.715 . S
Fe802 O812 1.935 . S
Fe802 O813 2.077 . S
Fe802 O819 1.935 1_455 S
Fe802 O828 2.077 1_455 S
Fe803 O801 1.715 . S
Fe803 O806 1.886 1_655 S
Fe803 O810 1.935 1_655 S
Fe803 O815 2.077 1_655 S
Fe803 O821 1.935 . S
Fe803 O825 2.077 . S
O804 Fe800 1.715 . S
O804 Fe802 1.886 1_655 S
O805 Fe802 1.715 . S
O805 Fe807 1.886 . S
O806 Fe803 1.886 1_455 S
O806 Fe807 1.715 . S
Fe807 O805 1.886 . S
Fe807 O806 1.715 . S
Fe807 O811 2.077 . S
Fe807 O816 1.935 . S
Fe807 O818 2.077 1_455 S
Fe807 O826 1.935 1_455 S
C808 O820 1.381 . S
C808 O821 1.421 . S
O809 Fe800 2.077 1_455 S
O809 C822 1.381 . S
O810 Fe803 1.935 1_455 S
O810 C822 1.421 . S
O811 Fe807 2.077 . S
O811 C827 1.381 . S
O812 Fe802 1.935 . S
O812 C827 1.421 . S
O813 Fe802 2.077 . S
O813 C817 1.381 . S
O814 Fe800 1.935 1_455 S
O814 C817 1.421 . S
O815 Fe803 2.077 1_455 S
O815 C823 1.381 . S
O816 Fe807 1.935 . S
O816 C823 1.421 . S
C817 O813 1.381 . S
C817 O814 1.421 . S
O818 Fe807 2.077 1_655 S
O818 C830 1.381 . S
O819 Fe802 1.935 1_655 S
O819 C830 1.421 . S
O820 Fe800 2.077 . S
O820 C808 1.381 . S
O821 Fe803 1.935 . S
O821 C808 1.421 . S
C822 O809 1.381 . S
C822 O810 1.421 . S
C823 O815 1.381 . S
C823 O816 1.421 . S
C824 O825 1.381 . S
C824 O826 1.421 . S
O825 Fe803 2.077 . S
O825 C824 1.381 . S
O826 Fe807 1.935 1_655 S
O826 C824 1.421 . S
C827 O811 1.381 . S
C827 O812 1.421 . S
O828 Fe802 2.077 1_655 S
O828 C831 1.381 . S
O829 Fe800 1.935 . S
O829 C831 1.421 . S
C830 O818 1.381 . S
C830 O819 1.421 . S
C831 O828 1.381 . S
C831 O829 1.421 . S
Fe832 O833 1.886 . S
Fe832 O836 1.715 . S
Fe832 O841 2.077 . S
Fe832 O846 1.935 . S
Fe832 O852 2.077 . S
Fe832 O861 1.935 . S
O833 Fe832 1.886 . S
O833 Fe835 1.715 1_565 S
Fe834 O836 1.886 . S
Fe834 O837 1.715 1_565 S
Fe834 O844 1.935 1_565 S
Fe834 O845 2.077 . S
Fe834 O851 1.935 1_565 S
Fe834 O860 2.077 . S
Fe835 O833 1.715 1_545 S
Fe835 O838 1.886 . S
Fe835 O842 1.935 1_545 S
Fe835 O847 2.077 . S
Fe835 O853 1.935 1_545 S
Fe835 O857 2.077 . S
O836 Fe832 1.715 . S
O836 Fe834 1.886 . S
O837 Fe834 1.715 1_545 S
O837 Fe839 1.886 . S
O838 Fe835 1.886 . S
O838 Fe839 1.715 . S
Fe839 O837 1.886 . S
Fe839 O838 1.715 . S
Fe839 O843 2.077 . S
Fe839 O848 1.935 . S
Fe839 O850 2.077 . S
Fe839 O858 1.935 . S
C840 O852 1.381 . S
C840 O853 1.421 . S
O841 Fe832 2.077 . S
O841 C854 1.381 . S
O842 Fe835 1.935 1_565 S
O842 C854 1.421 . S
O843 Fe839 2.077 . S
O843 C859 1.381 . S
O844 Fe834 1.935 1_545 S
O844 C859 1.421 . S
O845 Fe834 2.077 . S
O845 C849 1.381 . S
O846 Fe832 1.935 . S
O846 C849 1.421 . S
O847 Fe835 2.077 . S
O847 C855 1.381 . S
O848 Fe839 1.935 . S
O848 C855 1.421 . S
C849 O845 1.381 . S
C849 O846 1.421 . S
O850 Fe839 2.077 . S
O850 C862 1.381 . S
O851 Fe834 1.935 1_545 S
O851 C862 1.421 . S
O852 Fe832 2.077 . S
O852 C840 1.381 . S
O853 Fe835 1.935 1_565 S
O853 C840 1.421 . S
C854 O841 1.381 . S
C854 O842 1.421 . S
C855 O847 1.381 . S
C855 O848 1.421 . S
C856 O857 1.381 . S
C856 O858 1.421 . S
O857 Fe835 2.077 . S
O857 C856 1.381 . S
O858 Fe839 1.935 . S
O858 C856 1.421 . S
C859 O843 1.381 . S
C859 O844 1.421 . S
O860 Fe834 2.077 . S
O860 C863 1.381 . S
O861 Fe832 1.935 . S
O861 C863 1.421 . S
C862 O850 1.381 . S
C862 O851 1.421 . S
C863 O860 1.381 . S
C863 O861 1.421 . S
H864 C872 0.929 . S
H865 C874 0.930 . S
H866 C876 0.930 . S
H867 C879 0.929 . S
H868 C882 0.930 . S
H869 C884 0.960 . S
H870 C884 0.960 . S
H871 C884 0.960 . S
C872 H864 0.929 . S
C872 C873 1.377 . S
C872 C874 1.384 . S
C873 C872 1.377 . S
C873 C879 1.390 . S
C874 H865 0.930 . S
C874 C872 1.384 . S
C874 C875 1.372 . S
C875 C874 1.372 . S
C875 C876 1.400 . S
C875 C880 1.490 . S
C876 H866 0.930 . S
C876 C875 1.400 . S
C876 C879 1.386 . S
H877 C893 0.930 . S
H878 C894 0.931 . S
C879 H867 0.929 . S
C879 C873 1.390 . S
C879 C876 1.386 . S
C880 C875 1.490 . S
C880 C882 1.395 . S
C880 C883 1.403 . S
H881 C887 0.930 . S
C882 H868 0.930 . S
C882 C880 1.395 . S
C882 C885 1.403 . S
C883 C880 1.403 . S
C883 C884 1.524 . S
C883 C887 1.400 . S
C884 H869 0.960 . S
C884 H870 0.960 . S
C884 H871 0.960 . S
C884 C883 1.524 . S
C885 C882 1.403 . S
C885 C886 1.392 . S
C885 C889 1.495 . S
C886 C885 1.392 . S
C886 C887 1.385 . S
C886 C888 1.478 . S
C887 H881 0.930 . S
C887 C883 1.400 . S
C887 C886 1.385 . S
C888 C886 1.478 . S
C888 C890 1.381 . S
C888 C894 1.383 . S
C889 C885 1.495 . S
C889 H895 0.959 . S
C889 H896 0.961 . S
C889 H897 0.960 . S
C890 C888 1.381 . S
C890 C891 1.394 . S
C890 H898 0.930 . S
C891 C890 1.394 . S
C891 C892 1.383 . S
C891 H899 0.929 . S
C892 C891 1.383 . S
C892 C893 1.377 . S
C893 H877 0.930 . S
C893 C892 1.377 . S
C893 C894 1.379 . S
C894 H878 0.931 . S
C894 C888 1.383 . S
C894 C893 1.379 . S
H895 C889 0.959 . S
H896 C889 0.961 . S
H897 C889 0.960 . S
H898 C890 0.930 . S
H899 C891 0.929 . S
H900 C908 0.929 . S
H901 C910 0.930 . S
H902 C912 0.930 . S
H903 C915 0.929 . S
H904 C918 0.930 . S
H905 C920 0.960 . S
H906 C920 0.960 . S
H907 C920 0.960 . S
C908 H900 0.929 . S
C908 C909 1.377 . S
C908 C910 1.384 . S
C909 C908 1.377 . S
C909 C915 1.390 . S
C910 H901 0.930 . S
C910 C908 1.384 . S
C910 C911 1.372 . S
C911 C910 1.372 . S
C911 C912 1.400 . S
C911 C916 1.490 . S
C912 H902 0.930 . S
C912 C911 1.400 . S
C912 C915 1.386 . S
H913 C929 0.930 . S
H914 C930 0.931 . S
C915 H903 0.929 . S
C915 C909 1.390 . S
C915 C912 1.386 . S
C916 C911 1.490 . S
C916 C918 1.395 . S
C916 C919 1.403 . S
H917 C923 0.930 . S
C918 H904 0.930 . S
C918 C916 1.395 . S
C918 C921 1.403 . S
C919 C916 1.403 . S
C919 C920 1.524 . S
C919 C923 1.400 . S
C920 H905 0.960 . S
C920 H906 0.960 . S
C920 H907 0.960 . S
C920 C919 1.524 . S
C921 C918 1.403 . S
C921 C922 1.392 . S
C921 C925 1.495 . S
C922 C921 1.392 . S
C922 C923 1.385 . S
C922 C924 1.478 . S
C923 H917 0.930 . S
C923 C919 1.400 . S
C923 C922 1.385 . S
C924 C922 1.478 . S
C924 C926 1.381 . S
C924 C930 1.383 . S
C925 C921 1.495 . S
C925 H931 0.959 . S
C925 H932 0.961 . S
C925 H933 0.960 . S
C926 C924 1.381 . S
C926 C927 1.394 . S
C926 H934 0.930 . S
C927 C926 1.394 . S
C927 C928 1.383 . S
C927 H935 0.929 . S
C928 C927 1.383 . S
C928 C929 1.377 . S
C929 H913 0.930 . S
C929 C928 1.377 . S
C929 C930 1.379 . S
C930 H914 0.931 . S
C930 C924 1.383 . S
C930 C929 1.379 . S
H931 C925 0.959 . S
H932 C925 0.961 . S
H933 C925 0.960 . S
H934 C926 0.930 . S
H935 C927 0.929 . S
H936 C944 0.929 . S
H937 C946 0.930 . S
H938 C948 0.930 . S
H939 C951 0.929 . S
H940 C954 0.930 . S
H941 C956 0.960 . S
H942 C956 0.960 . S
H943 C956 0.960 . S
C944 H936 0.929 . S
C944 C945 1.377 . S
C944 C946 1.384 . S
C945 C944 1.377 . S
C945 C951 1.390 . S
C946 H937 0.930 . S
C946 C944 1.384 . S
C946 C947 1.372 . S
C947 C946 1.372 . S
C947 C948 1.400 . S
C947 C952 1.490 . S
C948 H938 0.930 . S
C948 C947 1.400 . S
C948 C951 1.386 . S
H949 C965 0.930 . S
H950 C966 0.931 . S
C951 H939 0.929 . S
C951 C945 1.390 . S
C951 C948 1.386 . S
C952 C947 1.490 . S
C952 C954 1.395 . S
C952 C955 1.403 . S
H953 C959 0.930 . S
C954 H940 0.930 . S
C954 C952 1.395 . S
C954 C957 1.403 . S
C955 C952 1.403 . S
C955 C956 1.524 . S
C955 C959 1.400 . S
C956 H941 0.960 . S
C956 H942 0.960 . S
C956 H943 0.960 . S
C956 C955 1.524 . S
C957 C954 1.403 . S
C957 C958 1.392 . S
C957 C961 1.495 . S
C958 C957 1.392 . S
C958 C959 1.385 . S
C958 C960 1.478 . S
C959 H953 0.930 . S
C959 C955 1.400 . S
C959 C958 1.385 . S
C960 C958 1.478 . S
C960 C962 1.381 . S
C960 C966 1.383 . S
C961 C957 1.495 . S
C961 H967 0.959 . S
C961 H968 0.961 . S
C961 H969 0.960 . S
C962 C960 1.381 . S
C962 C963 1.394 . S
C962 H970 0.930 . S
C963 C962 1.394 . S
C963 C964 1.383 . S
C963 H971 0.929 . S
C964 C963 1.383 . S
C964 C965 1.377 . S
C965 H949 0.930 . S
C965 C964 1.377 . S
C965 C966 1.379 . S
C966 H950 0.931 . S
C966 C960 1.383 . S
C966 C965 1.379 . S
H967 C961 0.959 . S
H968 C961 0.961 . S
H969 C961 0.960 . S
H970 C962 0.930 . S
H971 C963 0.929 . S
H972 C980 0.929 . S
H973 C982 0.930 . S
H974 C984 0.930 . S
H975 C987 0.929 . S
H976 C990 0.930 . S
H977 C992 0.960 . S
H978 C992 0.960 . S
H979 C992 0.960 . S
C980 H972 0.929 . S
C980 C981 1.377 . S
C980 C982 1.384 . S
C981 C980 1.377 . S
C981 C987 1.390 . S
C982 H973 0.930 . S
C982 C980 1.384 . S
C982 C983 1.372 . S
C983 C982 1.372 . S
C983 C984 1.400 . S
C983 C988 1.490 . S
C984 H974 0.930 . S
C984 C983 1.400 . S
C984 C987 1.386 . S
H985 C1001 0.930 . S
H986 C1002 0.931 . S
C987 H975 0.929 . S
C987 C981 1.390 . S
C987 C984 1.386 . S
C988 C983 1.490 . S
C988 C990 1.395 . S
C988 C991 1.403 . S
H989 C995 0.930 . S
C990 H976 0.930 . S
C990 C988 1.395 . S
C990 C993 1.403 . S
C991 C988 1.403 . S
C991 C992 1.524 . S
C991 C995 1.400 . S
C992 H977 0.960 . S
C992 H978 0.960 . S
C992 H979 0.960 . S
C992 C991 1.524 . S
C993 C990 1.403 . S
C993 C994 1.392 . S
C993 C997 1.495 . S
C994 C993 1.392 . S
C994 C995 1.385 . S
C994 C996 1.478 . S
C995 H989 0.930 . S
C995 C991 1.400 . S
C995 C994 1.385 . S
C996 C994 1.478 . S
C996 C998 1.381 . S
C996 C1002 1.383 . S
C997 C993 1.495 . S
C997 H1003 0.959 . S
C997 H1004 0.961 . S
C997 H1005 0.960 . S
C998 C996 1.381 . S
C998 C999 1.394 . S
C998 H1006 0.930 . S
C999 C998 1.394 . S
C999 C1000 1.383 . S
C999 H1007 0.929 . S
C1000 C999 1.383 . S
C1000 C1001 1.377 . S
C1001 H985 0.930 . S
C1001 C1000 1.377 . S
C1001 C1002 1.379 . S
C1002 H986 0.931 . S
C1002 C996 1.383 . S
C1002 C1001 1.379 . S
H1003 C997 0.959 . S
H1004 C997 0.961 . S
H1005 C997 0.960 . S
H1006 C998 0.930 . S
H1007 C999 0.929 . S
H1008 C1016 0.929 . S
H1009 C1018 0.930 . S
H1010 C1020 0.930 . S
H1011 C1023 0.929 . S
H1012 C1026 0.930 . S
H1013 C1028 0.960 . S
H1014 C1028 0.960 . S
H1015 C1028 0.960 . S
C1016 H1008 0.929 . S
C1016 C1017 1.377 . S
C1016 C1018 1.384 . S
C1017 C1016 1.377 . S
C1017 C1023 1.390 . S
C1018 H1009 0.930 . S
C1018 C1016 1.384 . S
C1018 C1019 1.372 . S
C1019 C1018 1.372 . S
C1019 C1020 1.400 . S
C1019 C1024 1.490 . S
C1020 H1010 0.930 . S
C1020 C1019 1.400 . S
C1020 C1023 1.386 . S
H1021 C1037 0.930 . S
H1022 C1038 0.931 . S
C1023 H1011 0.929 . S
C1023 C1017 1.390 . S
C1023 C1020 1.386 . S
C1024 C1019 1.490 . S
C1024 C1026 1.395 . S
C1024 C1027 1.403 . S
H1025 C1031 0.930 . S
C1026 H1012 0.930 . S
C1026 C1024 1.395 . S
C1026 C1029 1.403 . S
C1027 C1024 1.403 . S
C1027 C1028 1.524 . S
C1027 C1031 1.400 . S
C1028 H1013 0.960 . S
C1028 H1014 0.960 . S
C1028 H1015 0.960 . S
C1028 C1027 1.524 . S
C1029 C1026 1.403 . S
C1029 C1030 1.392 . S
C1029 C1033 1.495 . S
C1030 C1029 1.392 . S
C1030 C1031 1.385 . S
C1030 C1032 1.478 . S
C1031 H1025 0.930 . S
C1031 C1027 1.400 . S
C1031 C1030 1.385 . S
C1032 C1030 1.478 . S
C1032 C1034 1.381 . S
C1032 C1038 1.383 . S
C1033 C1029 1.495 . S
C1033 H1039 0.959 . S
C1033 H1040 0.961 . S
C1033 H1041 0.960 . S
C1034 C1032 1.381 . S
C1034 C1035 1.394 . S
C1034 H1042 0.930 . S
C1035 C1034 1.394 . S
C1035 C1036 1.383 . S
C1035 H1043 0.929 . S
C1036 C1035 1.383 . S
C1036 C1037 1.377 . S
C1037 H1021 0.930 . S
C1037 C1036 1.377 . S
C1037 C1038 1.379 . S
C1038 H1022 0.931 . S
C1038 C1032 1.383 . S
C1038 C1037 1.379 . S
H1039 C1033 0.959 . S
H1040 C1033 0.961 . S
H1041 C1033 0.960 . S
H1042 C1034 0.930 . S
H1043 C1035 0.929 . S
H1044 C1052 0.929 . S
H1045 C1054 0.930 . S
H1046 C1056 0.930 . S
H1047 C1059 0.929 . S
H1048 C1062 0.930 . S
H1049 C1064 0.960 . S
H1050 C1064 0.960 . S
H1051 C1064 0.960 . S
C1052 H1044 0.929 . S
C1052 C1053 1.377 . S
C1052 C1054 1.384 . S
C1053 C1052 1.377 . S
C1053 C1059 1.390 . S
C1054 H1045 0.930 . S
C1054 C1052 1.384 . S
C1054 C1055 1.372 . S
C1055 C1054 1.372 . S
C1055 C1056 1.400 . S
C1055 C1060 1.490 . S
C1056 H1046 0.930 . S
C1056 C1055 1.400 . S
C1056 C1059 1.386 . S
H1057 C1073 0.930 . S
H1058 C1074 0.931 . S
C1059 H1047 0.929 . S
C1059 C1053 1.390 . S
C1059 C1056 1.386 . S
C1060 C1055 1.490 . S
C1060 C1062 1.395 . S
C1060 C1063 1.403 . S
H1061 C1067 0.930 . S
C1062 H1048 0.930 . S
C1062 C1060 1.395 . S
C1062 C1065 1.403 . S
C1063 C1060 1.403 . S
C1063 C1064 1.524 . S
C1063 C1067 1.400 . S
C1064 H1049 0.960 . S
C1064 H1050 0.960 . S
C1064 H1051 0.960 . S
C1064 C1063 1.524 . S
C1065 C1062 1.403 . S
C1065 C1066 1.392 . S
C1065 C1069 1.495 . S
C1066 C1065 1.392 . S
C1066 C1067 1.385 . S
C1066 C1068 1.478 . S
C1067 H1061 0.930 . S
C1067 C1063 1.400 . S
C1067 C1066 1.385 . S
C1068 C1066 1.478 . S
C1068 C1070 1.381 . S
C1068 C1074 1.383 . S
C1069 C1065 1.495 . S
C1069 H1075 0.959 . S
C1069 H1076 0.961 . S
C1069 H1077 0.960 . S
C1070 C1068 1.381 . S
C1070 C1071 1.394 . S
C1070 H1078 0.930 . S
C1071 C1070 1.394 . S
C1071 C1072 1.383 . S
C1071 H1079 0.929 . S
C1072 C1071 1.383 . S
C1072 C1073 1.377 . S
C1073 H1057 0.930 . S
C1073 C1072 1.377 . S
C1073 C1074 1.379 . S
C1074 H1058 0.931 . S
C1074 C1068 1.383 . S
C1074 C1073 1.379 . S
H1075 C1069 0.959 . S
H1076 C1069 0.961 . S
H1077 C1069 0.960 . S
H1078 C1070 0.930 . S
H1079 C1071 0.929 . S
H1080 C1088 0.929 . S
H1081 C1090 0.930 . S
H1082 C1092 0.930 . S
H1083 C1095 0.929 . S
H1084 C1098 0.930 . S
H1085 C1100 0.960 . S
H1086 C1100 0.960 . S
H1087 C1100 0.960 . S
C1088 H1080 0.929 . S
C1088 C1089 1.377 . S
C1088 C1090 1.384 . S
C1089 C1088 1.377 . S
C1089 C1095 1.390 . S
C1090 H1081 0.930 . S
C1090 C1088 1.384 . S
C1090 C1091 1.372 . S
C1091 C1090 1.372 . S
C1091 C1092 1.400 . S
C1091 C1096 1.490 . S
C1092 H1082 0.930 . S
C1092 C1091 1.400 . S
C1092 C1095 1.386 . S
H1093 C1109 0.930 . S
H1094 C1110 0.931 . S
C1095 H1083 0.929 . S
C1095 C1089 1.390 . S
C1095 C1092 1.386 . S
C1096 C1091 1.490 . S
C1096 C1098 1.395 . S
C1096 C1099 1.403 . S
H1097 C1103 0.930 . S
C1098 H1084 0.930 . S
C1098 C1096 1.395 . S
C1098 C1101 1.403 . S
C1099 C1096 1.403 . S
C1099 C1100 1.524 . S
C1099 C1103 1.400 . S
C1100 H1085 0.960 . S
C1100 H1086 0.960 . S
C1100 H1087 0.960 . S
C1100 C1099 1.524 . S
C1101 C1098 1.403 . S
C1101 C1102 1.392 . S
C1101 C1105 1.495 . S
C1102 C1101 1.392 . S
C1102 C1103 1.385 . S
C1102 C1104 1.478 . S
C1103 H1097 0.930 . S
C1103 C1099 1.400 . S
C1103 C1102 1.385 . S
C1104 C1102 1.478 . S
C1104 C1106 1.381 . S
C1104 C1110 1.383 . S
C1105 C1101 1.495 . S
C1105 H1111 0.959 . S
C1105 H1112 0.961 . S
C1105 H1113 0.960 . S
C1106 C1104 1.381 . S
C1106 C1107 1.394 . S
C1106 H1114 0.930 . S
C1107 C1106 1.394 . S
C1107 C1108 1.383 . S
C1107 H1115 0.929 . S
C1108 C1107 1.383 . S
C1108 C1109 1.377 . S
C1109 H1093 0.930 . S
C1109 C1108 1.377 . S
C1109 C1110 1.379 . S
C1110 H1094 0.931 . S
C1110 C1104 1.383 . S
C1110 C1109 1.379 . S
H1111 C1105 0.959 . S
H1112 C1105 0.961 . S
H1113 C1105 0.960 . S
H1114 C1106 0.930 . S
H1115 C1107 0.929 . S
H1116 C1124 0.929 . S
H1117 C1126 0.930 . S
H1118 C1128 0.930 . S
H1119 C1131 0.929 . S
H1120 C1134 0.930 . S
H1121 C1136 0.960 . S
H1122 C1136 0.960 . S
H1123 C1136 0.960 . S
C1124 H1116 0.929 . S
C1124 C1125 1.377 . S
C1124 C1126 1.384 . S
C1125 C1124 1.377 . S
C1125 C1131 1.390 . S
C1126 H1117 0.930 . S
C1126 C1124 1.384 . S
C1126 C1127 1.372 . S
C1127 C1126 1.372 . S
C1127 C1128 1.400 . S
C1127 C1132 1.490 . S
C1128 H1118 0.930 . S
C1128 C1127 1.400 . S
C1128 C1131 1.386 . S
H1129 C1145 0.930 . S
H1130 C1146 0.931 . S
C1131 H1119 0.929 . S
C1131 C1125 1.390 . S
C1131 C1128 1.386 . S
C1132 C1127 1.490 . S
C1132 C1134 1.395 . S
C1132 C1135 1.403 . S
H1133 C1139 0.930 . S
C1134 H1120 0.930 . S
C1134 C1132 1.395 . S
C1134 C1137 1.403 . S
C1135 C1132 1.403 . S
C1135 C1136 1.524 . S
C1135 C1139 1.400 . S
C1136 H1121 0.960 . S
C1136 H1122 0.960 . S
C1136 H1123 0.960 . S
C1136 C1135 1.524 . S
C1137 C1134 1.403 . S
C1137 C1138 1.392 . S
C1137 C1141 1.495 . S
C1138 C1137 1.392 . S
C1138 C1139 1.385 . S
C1138 C1140 1.478 . S
C1139 H1133 0.930 . S
C1139 C1135 1.400 . S
C1139 C1138 1.385 . S
C1140 C1138 1.478 . S
C1140 C1142 1.381 . S
C1140 C1146 1.383 . S
C1141 C1137 1.495 . S
C1141 H1147 0.959 . S
C1141 H1148 0.961 . S
C1141 H1149 0.960 . S
C1142 C1140 1.381 . S
C1142 C1143 1.394 . S
C1142 H1150 0.930 . S
C1143 C1142 1.394 . S
C1143 C1144 1.383 . S
C1143 H1151 0.929 . S
C1144 C1143 1.383 . S
C1144 C1145 1.377 . S
C1145 H1129 0.930 . S
C1145 C1144 1.377 . S
C1145 C1146 1.379 . S
C1146 H1130 0.931 . S
C1146 C1140 1.383 . S
C1146 C1145 1.379 . S
H1147 C1141 0.959 . S
H1148 C1141 0.961 . S
H1149 C1141 0.960 . S
H1150 C1142 0.930 . S
H1151 C1143 0.929 . S
H1152 C1160 0.929 . S
H1153 C1162 0.930 . S
H1154 C1164 0.930 . S
H1155 C1167 0.929 . S
H1156 C1170 0.930 . S
H1157 C1172 0.960 . S
H1158 C1172 0.960 . S
H1159 C1172 0.960 . S
C1160 H1152 0.929 . S
C1160 C1161 1.377 . S
C1160 C1162 1.384 . S
C1161 C1160 1.377 . S
C1161 C1167 1.390 . S
C1162 H1153 0.930 . S
C1162 C1160 1.384 . S
C1162 C1163 1.372 . S
C1163 C1162 1.372 . S
C1163 C1164 1.400 . S
C1163 C1168 1.490 . S
C1164 H1154 0.930 . S
C1164 C1163 1.400 . S
C1164 C1167 1.386 . S
H1165 C1181 0.930 . S
H1166 C1182 0.931 . S
C1167 H1155 0.929 . S
C1167 C1161 1.390 . S
C1167 C1164 1.386 . S
C1168 C1163 1.490 . S
C1168 C1170 1.395 . S
C1168 C1171 1.403 . S
H1169 C1175 0.930 . S
C1170 H1156 0.930 . S
C1170 C1168 1.395 . S
C1170 C1173 1.403 . S
C1171 C1168 1.403 . S
C1171 C1172 1.524 . S
C1171 C1175 1.400 . S
C1172 H1157 0.960 . S
C1172 H1158 0.960 . S
C1172 H1159 0.960 . S
C1172 C1171 1.524 . S
C1173 C1170 1.403 . S
C1173 C1174 1.392 . S
C1173 C1177 1.495 . S
C1174 C1173 1.392 . S
C1174 C1175 1.385 . S
C1174 C1176 1.478 . S
C1175 H1169 0.930 . S
C1175 C1171 1.400 . S
C1175 C1174 1.385 . S
C1176 C1174 1.478 . S
C1176 C1178 1.381 . S
C1176 C1182 1.383 . S
C1177 C1173 1.495 . S
C1177 H1183 0.959 . S
C1177 H1184 0.961 . S
C1177 H1185 0.960 . S
C1178 C1176 1.381 . S
C1178 C1179 1.394 . S
C1178 H1186 0.930 . S
C1179 C1178 1.394 . S
C1179 C1180 1.383 . S
C1179 H1187 0.929 . S
C1180 C1179 1.383 . S
C1180 C1181 1.377 . S
C1181 H1165 0.930 . S
C1181 C1180 1.377 . S
C1181 C1182 1.379 . S
C1182 H1166 0.931 . S
C1182 C1176 1.383 . S
C1182 C1181 1.379 . S
H1183 C1177 0.959 . S
H1184 C1177 0.961 . S
H1185 C1177 0.960 . S
H1186 C1178 0.930 . S
H1187 C1179 0.929 . S
H1188 C1196 0.929 . S
H1189 C1198 0.930 . S
H1190 C1200 0.930 . S
H1191 C1203 0.929 . S
H1192 C1206 0.930 . S
H1193 C1208 0.960 . S
H1194 C1208 0.960 . S
H1195 C1208 0.960 . S
C1196 H1188 0.929 . S
C1196 C1197 1.377 . S
C1196 C1198 1.384 . S
C1197 C1196 1.377 . S
C1197 C1203 1.390 . S
C1198 H1189 0.930 . S
C1198 C1196 1.384 . S
C1198 C1199 1.372 . S
C1199 C1198 1.372 . S
C1199 C1200 1.400 . S
C1199 C1204 1.490 . S
C1200 H1190 0.930 . S
C1200 C1199 1.400 . S
C1200 C1203 1.386 . S
H1201 C1217 0.930 . S
H1202 C1218 0.931 . S
C1203 H1191 0.929 . S
C1203 C1197 1.390 . S
C1203 C1200 1.386 . S
C1204 C1199 1.490 . S
C1204 C1206 1.395 . S
C1204 C1207 1.403 . S
H1205 C1211 0.930 . S
C1206 H1192 0.930 . S
C1206 C1204 1.395 . S
C1206 C1209 1.403 . S
C1207 C1204 1.403 . S
C1207 C1208 1.524 . S
C1207 C1211 1.400 . S
C1208 H1193 0.960 . S
C1208 H1194 0.960 . S
C1208 H1195 0.960 . S
C1208 C1207 1.524 . S
C1209 C1206 1.403 . S
C1209 C1210 1.392 . S
C1209 C1213 1.495 . S
C1210 C1209 1.392 . S
C1210 C1211 1.385 . S
C1210 C1212 1.478 . S
C1211 H1205 0.930 . S
C1211 C1207 1.400 . S
C1211 C1210 1.385 . S
C1212 C1210 1.478 . S
C1212 C1214 1.381 . S
C1212 C1218 1.383 . S
C1213 C1209 1.495 . S
C1213 H1219 0.959 . S
C1213 H1220 0.961 . S
C1213 H1221 0.960 . S
C1214 C1212 1.381 . S
C1214 C1215 1.394 . S
C1214 H1222 0.930 . S
C1215 C1214 1.394 . S
C1215 C1216 1.383 . S
C1215 H1223 0.929 . S
C1216 C1215 1.383 . S
C1216 C1217 1.377 . S
C1217 H1201 0.930 . S
C1217 C1216 1.377 . S
C1217 C1218 1.379 . S
C1218 H1202 0.931 . S
C1218 C1212 1.383 . S
C1218 C1217 1.379 . S
H1219 C1213 0.959 . S
H1220 C1213 0.961 . S
H1221 C1213 0.960 . S
H1222 C1214 0.930 . S
H1223 C1215 0.929 . S
H1224 C1232 0.929 . S
H1225 C1234 0.930 . S
H1226 C1236 0.930 . S
H1227 C1239 0.929 . S
H1228 C1242 0.930 . S
H1229 C1244 0.960 . S
H1230 C1244 0.960 . S
H1231 C1244 0.960 . S
C1232 H1224 0.929 . S
C1232 C1233 1.377 . S
C1232 C1234 1.384 . S
C1233 C1232 1.377 . S
C1233 C1239 1.390 . S
C1234 H1225 0.930 . S
C1234 C1232 1.384 . S
C1234 C1235 1.372 . S
C1235 C1234 1.372 . S
C1235 C1236 1.400 . S
C1235 C1240 1.490 . S
C1236 H1226 0.930 . S
C1236 C1235 1.400 . S
C1236 C1239 1.386 . S
H1237 C1253 0.930 . S
H1238 C1254 0.931 . S
C1239 H1227 0.929 . S
C1239 C1233 1.390 . S
C1239 C1236 1.386 . S
C1240 C1235 1.490 . S
C1240 C1242 1.395 . S
C1240 C1243 1.403 . S
H1241 C1247 0.930 . S
C1242 H1228 0.930 . S
C1242 C1240 1.395 . S
C1242 C1245 1.403 . S
C1243 C1240 1.403 . S
C1243 C1244 1.524 . S
C1243 C1247 1.400 . S
C1244 H1229 0.960 . S
C1244 H1230 0.960 . S
C1244 H1231 0.960 . S
C1244 C1243 1.524 . S
C1245 C1242 1.403 . S
C1245 C1246 1.392 . S
C1245 C1249 1.495 . S
C1246 C1245 1.392 . S
C1246 C1247 1.385 . S
C1246 C1248 1.478 . S
C1247 H1241 0.930 . S
C1247 C1243 1.400 . S
C1247 C1246 1.385 . S
C1248 C1246 1.478 . S
C1248 C1250 1.381 . S
C1248 C1254 1.383 . S
C1249 C1245 1.495 . S
C1249 H1255 0.959 . S
C1249 H1256 0.961 . S
C1249 H1257 0.960 . S
C1250 C1248 1.381 . S
C1250 C1251 1.394 . S
C1250 H1258 0.930 . S
C1251 C1250 1.394 . S
C1251 C1252 1.383 . S
C1251 H1259 0.929 . S
C1252 C1251 1.383 . S
C1252 C1253 1.377 . S
C1253 H1237 0.930 . S
C1253 C1252 1.377 . S
C1253 C1254 1.379 . S
C1254 H1238 0.931 . S
C1254 C1248 1.383 . S
C1254 C1253 1.379 . S
H1255 C1249 0.959 . S
H1256 C1249 0.961 . S
H1257 C1249 0.960 . S
H1258 C1250 0.930 . S
H1259 C1251 0.929 . S
H1260 C1268 0.929 . S
H1261 C1270 0.930 . S
H1262 C1272 0.930 . S
H1263 C1275 0.929 . S
H1264 C1278 0.930 . S
H1265 C1280 0.960 . S
H1266 C1280 0.960 . S
H1267 C1280 0.960 . S
C1268 H1260 0.929 . S
C1268 C1269 1.377 . S
C1268 C1270 1.384 . S
C1269 C1268 1.377 . S
C1269 C1275 1.390 . S
C1270 H1261 0.930 . S
C1270 C1268 1.384 . S
C1270 C1271 1.372 . S
C1271 C1270 1.372 . S
C1271 C1272 1.400 . S
C1271 C1276 1.490 . S
C1272 H1262 0.930 . S
C1272 C1271 1.400 . S
C1272 C1275 1.386 . S
H1273 C1289 0.930 . S
H1274 C1290 0.931 . S
C1275 H1263 0.929 . S
C1275 C1269 1.390 . S
C1275 C1272 1.386 . S
C1276 C1271 1.490 . S
C1276 C1278 1.395 . S
C1276 C1279 1.403 . S
H1277 C1283 0.930 . S
C1278 H1264 0.930 . S
C1278 C1276 1.395 . S
C1278 C1281 1.403 . S
C1279 C1276 1.403 . S
C1279 C1280 1.524 . S
C1279 C1283 1.400 . S
C1280 H1265 0.960 . S
C1280 H1266 0.960 . S
C1280 H1267 0.960 . S
C1280 C1279 1.524 . S
C1281 C1278 1.403 . S
C1281 C1282 1.392 . S
C1281 C1285 1.495 . S
C1282 C1281 1.392 . S
C1282 C1283 1.385 . S
C1282 C1284 1.478 . S
C1283 H1277 0.930 . S
C1283 C1279 1.400 . S
C1283 C1282 1.385 . S
C1284 C1282 1.478 . S
C1284 C1286 1.381 . S
C1284 C1290 1.383 . S
C1285 C1281 1.495 . S
C1285 H1291 0.959 . S
C1285 H1292 0.961 . S
C1285 H1293 0.960 . S
C1286 C1284 1.381 . S
C1286 C1287 1.394 . S
C1286 H1294 0.930 . S
C1287 C1286 1.394 . S
C1287 C1288 1.383 . S
C1287 H1295 0.929 . S
C1288 C1287 1.383 . S
C1288 C1289 1.377 . S
C1289 H1273 0.930 . S
C1289 C1288 1.377 . S
C1289 C1290 1.379 . S
C1290 H1274 0.931 . S
C1290 C1284 1.383 . S
C1290 C1289 1.379 . S
H1291 C1285 0.959 . S
H1292 C1285 0.961 . S
H1293 C1285 0.960 . S
H1294 C1286 0.930 . S
H1295 C1287 0.929 . S
H1296 C1304 0.929 . S
H1297 C1306 0.930 . S
H1298 C1308 0.930 . S
H1299 C1311 0.929 . S
H1300 C1314 0.930 . S
H1301 C1316 0.960 . S
H1302 C1316 0.960 . S
H1303 C1316 0.960 . S
C1304 H1296 0.929 . S
C1304 C1305 1.377 . S
C1304 C1306 1.384 . S
C1305 C1304 1.377 . S
C1305 C1311 1.390 . S
C1306 H1297 0.930 . S
C1306 C1304 1.384 . S
C1306 C1307 1.372 . S
C1307 C1306 1.372 . S
C1307 C1308 1.400 . S
C1307 C1312 1.490 . S
C1308 H1298 0.930 . S
C1308 C1307 1.400 . S
C1308 C1311 1.386 . S
H1309 C1325 0.930 . S
H1310 C1326 0.931 . S
C1311 H1299 0.929 . S
C1311 C1305 1.390 . S
C1311 C1308 1.386 . S
C1312 C1307 1.490 . S
C1312 C1314 1.395 . S
C1312 C1315 1.403 . S
H1313 C1319 0.930 . S
C1314 H1300 0.930 . S
C1314 C1312 1.395 . S
C1314 C1317 1.403 . S
C1315 C1312 1.403 . S
C1315 C1316 1.524 . S
C1315 C1319 1.400 . S
C1316 H1301 0.960 . S
C1316 H1302 0.960 . S
C1316 H1303 0.960 . S
C1316 C1315 1.524 . S
C1317 C1314 1.403 . S
C1317 C1318 1.392 . S
C1317 C1321 1.495 . S
C1318 C1317 1.392 . S
C1318 C1319 1.385 . S
C1318 C1320 1.478 . S
C1319 H1313 0.930 . S
C1319 C1315 1.400 . S
C1319 C1318 1.385 . S
C1320 C1318 1.478 . S
C1320 C1322 1.381 . S
C1320 C1326 1.383 . S
C1321 C1317 1.495 . S
C1321 H1327 0.959 . S
C1321 H1328 0.961 . S
C1321 H1329 0.960 . S
C1322 C1320 1.381 . S
C1322 C1323 1.394 . S
C1322 H1330 0.930 . S
C1323 C1322 1.394 . S
C1323 C1324 1.383 . S
C1323 H1331 0.929 . S
C1324 C1323 1.383 . S
C1324 C1325 1.377 . S
C1325 H1309 0.930 . S
C1325 C1324 1.377 . S
C1325 C1326 1.379 . S
C1326 H1310 0.931 . S
C1326 C1320 1.383 . S
C1326 C1325 1.379 . S
H1327 C1321 0.959 . S
H1328 C1321 0.961 . S
H1329 C1321 0.960 . S
H1330 C1322 0.930 . S
H1331 C1323 0.929 . S
H1332 C1340 0.929 . S
H1333 C1342 0.930 . S
H1334 C1344 0.930 . S
H1335 C1347 0.929 . S
H1336 C1350 0.930 . S
H1337 C1352 0.960 . S
H1338 C1352 0.960 . S
H1339 C1352 0.960 . S
C1340 H1332 0.929 . S
C1340 C1341 1.377 . S
C1340 C1342 1.384 . S
C1341 C1340 1.377 . S
C1341 C1347 1.390 . S
C1342 H1333 0.930 . S
C1342 C1340 1.384 . S
C1342 C1343 1.372 . S
C1343 C1342 1.372 . S
C1343 C1344 1.400 . S
C1343 C1348 1.490 . S
C1344 H1334 0.930 . S
C1344 C1343 1.400 . S
C1344 C1347 1.386 . S
H1345 C1361 0.930 . S
H1346 C1362 0.931 . S
C1347 H1335 0.929 . S
C1347 C1341 1.390 . S
C1347 C1344 1.386 . S
C1348 C1343 1.490 . S
C1348 C1350 1.395 . S
C1348 C1351 1.403 . S
H1349 C1355 0.930 . S
C1350 H1336 0.930 . S
C1350 C1348 1.395 . S
C1350 C1353 1.403 . S
C1351 C1348 1.403 . S
C1351 C1352 1.524 . S
C1351 C1355 1.400 . S
C1352 H1337 0.960 . S
C1352 H1338 0.960 . S
C1352 H1339 0.960 . S
C1352 C1351 1.524 . S
C1353 C1350 1.403 . S
C1353 C1354 1.392 . S
C1353 C1357 1.495 . S
C1354 C1353 1.392 . S
C1354 C1355 1.385 . S
C1354 C1356 1.478 . S
C1355 H1349 0.930 . S
C1355 C1351 1.400 . S
C1355 C1354 1.385 . S
C1356 C1354 1.478 . S
C1356 C1358 1.381 . S
C1356 C1362 1.383 . S
C1357 C1353 1.495 . S
C1357 H1363 0.959 . S
C1357 H1364 0.961 . S
C1357 H1365 0.960 . S
C1358 C1356 1.381 . S
C1358 C1359 1.394 . S
C1358 H1366 0.930 . S
C1359 C1358 1.394 . S
C1359 C1360 1.383 . S
C1359 H1367 0.929 . S
C1360 C1359 1.383 . S
C1360 C1361 1.377 . S
C1361 H1345 0.930 . S
C1361 C1360 1.377 . S
C1361 C1362 1.379 . S
C1362 H1346 0.931 . S
C1362 C1356 1.383 . S
C1362 C1361 1.379 . S
H1363 C1357 0.959 . S
H1364 C1357 0.961 . S
H1365 C1357 0.960 . S
H1366 C1358 0.930 . S
H1367 C1359 0.929 . S
H1368 C1376 0.929 . S
H1369 C1378 0.930 . S
H1370 C1380 0.930 . S
H1371 C1383 0.929 . S
H1372 C1386 0.930 . S
H1373 C1388 0.960 . S
H1374 C1388 0.960 . S
H1375 C1388 0.960 . S
C1376 H1368 0.929 . S
C1376 C1377 1.377 . S
C1376 C1378 1.384 . S
C1377 C1376 1.377 . S
C1377 C1383 1.390 . S
C1378 H1369 0.930 . S
C1378 C1376 1.384 . S
C1378 C1379 1.372 . S
C1379 C1378 1.372 . S
C1379 C1380 1.400 . S
C1379 C1384 1.490 . S
C1380 H1370 0.930 . S
C1380 C1379 1.400 . S
C1380 C1383 1.386 . S
H1381 C1397 0.930 . S
H1382 C1398 0.931 . S
C1383 H1371 0.929 . S
C1383 C1377 1.390 . S
C1383 C1380 1.386 . S
C1384 C1379 1.490 . S
C1384 C1386 1.395 . S
C1384 C1387 1.403 . S
H1385 C1391 0.930 . S
C1386 H1372 0.930 . S
C1386 C1384 1.395 . S
C1386 C1389 1.403 . S
C1387 C1384 1.403 . S
C1387 C1388 1.524 . S
C1387 C1391 1.400 . S
C1388 H1373 0.960 . S
C1388 H1374 0.960 . S
C1388 H1375 0.960 . S
C1388 C1387 1.524 . S
C1389 C1386 1.403 . S
C1389 C1390 1.392 . S
C1389 C1393 1.495 . S
C1390 C1389 1.392 . S
C1390 C1391 1.385 . S
C1390 C1392 1.478 . S
C1391 H1385 0.930 . S
C1391 C1387 1.400 . S
C1391 C1390 1.385 . S
C1392 C1390 1.478 . S
C1392 C1394 1.381 . S
C1392 C1398 1.383 . S
C1393 C1389 1.495 . S
C1393 H1399 0.959 . S
C1393 H1400 0.961 . S
C1393 H1401 0.960 . S
C1394 C1392 1.381 . S
C1394 C1395 1.394 . S
C1394 H1402 0.930 . S
C1395 C1394 1.394 . S
C1395 C1396 1.383 . S
C1395 H1403 0.929 . S
C1396 C1395 1.383 . S
C1396 C1397 1.377 . S
C1397 H1381 0.930 . S
C1397 C1396 1.377 . S
C1397 C1398 1.379 . S
C1398 H1382 0.931 . S
C1398 C1392 1.383 . S
C1398 C1397 1.379 . S
H1399 C1393 0.959 . S
H1400 C1393 0.961 . S
H1401 C1393 0.960 . S
H1402 C1394 0.930 . S
H1403 C1395 0.929 . S
H1404 C1412 0.929 . S
H1405 C1414 0.930 . S
H1406 C1416 0.930 . S
H1407 C1419 0.929 . S
H1408 C1422 0.930 . S
H1409 C1424 0.960 . S
H1410 C1424 0.960 . S
H1411 C1424 0.960 . S
C1412 H1404 0.929 . S
C1412 C1413 1.377 . S
C1412 C1414 1.384 . S
C1413 C1412 1.377 . S
C1413 C1419 1.390 . S
C1414 H1405 0.930 . S
C1414 C1412 1.384 . S
C1414 C1415 1.372 . S
C1415 C1414 1.372 . S
C1415 C1416 1.400 . S
C1415 C1420 1.490 . S
C1416 H1406 0.930 . S
C1416 C1415 1.400 . S
C1416 C1419 1.386 . S
H1417 C1433 0.930 . S
H1418 C1434 0.931 . S
C1419 H1407 0.929 . S
C1419 C1413 1.390 . S
C1419 C1416 1.386 . S
C1420 C1415 1.490 . S
C1420 C1422 1.395 . S
C1420 C1423 1.403 . S
H1421 C1427 0.930 . S
C1422 H1408 0.930 . S
C1422 C1420 1.395 . S
C1422 C1425 1.403 . S
C1423 C1420 1.403 . S
C1423 C1424 1.524 . S
C1423 C1427 1.400 . S
C1424 H1409 0.960 . S
C1424 H1410 0.960 . S
C1424 H1411 0.960 . S
C1424 C1423 1.524 . S
C1425 C1422 1.403 . S
C1425 C1426 1.392 . S
C1425 C1429 1.495 . S
C1426 C1425 1.392 . S
C1426 C1427 1.385 . S
C1426 C1428 1.478 . S
C1427 H1421 0.930 . S
C1427 C1423 1.400 . S
C1427 C1426 1.385 . S
C1428 C1426 1.478 . S
C1428 C1430 1.381 . S
C1428 C1434 1.383 . S
C1429 C1425 1.495 . S
C1429 H1435 0.959 . S
C1429 H1436 0.961 . S
C1429 H1437 0.960 . S
C1430 C1428 1.381 . S
C1430 C1431 1.394 . S
C1430 H1438 0.930 . S
C1431 C1430 1.394 . S
C1431 C1432 1.383 . S
C1431 H1439 0.929 . S
C1432 C1431 1.383 . S
C1432 C1433 1.377 . S
C1433 H1417 0.930 . S
C1433 C1432 1.377 . S
C1433 C1434 1.379 . S
C1434 H1418 0.931 . S
C1434 C1428 1.383 . S
C1434 C1433 1.379 . S
H1435 C1429 0.959 . S
H1436 C1429 0.961 . S
H1437 C1429 0.960 . S
H1438 C1430 0.930 . S
H1439 C1431 0.929 . S
H1440 C1448 0.929 . S
H1441 C1450 0.930 . S
H1442 C1452 0.930 . S
H1443 C1455 0.929 . S
H1444 C1458 0.930 . S
H1445 C1460 0.960 . S
H1446 C1460 0.960 . S
H1447 C1460 0.960 . S
C1448 H1440 0.929 . S
C1448 C1449 1.377 . S
C1448 C1450 1.384 . S
C1449 C1448 1.377 . S
C1449 C1455 1.390 . S
C1450 H1441 0.930 . S
C1450 C1448 1.384 . S
C1450 C1451 1.372 . S
C1451 C1450 1.372 . S
C1451 C1452 1.400 . S
C1451 C1456 1.490 . S
C1452 H1442 0.930 . S
C1452 C1451 1.400 . S
C1452 C1455 1.386 . S
H1453 C1469 0.930 . S
H1454 C1470 0.931 . S
C1455 H1443 0.929 . S
C1455 C1449 1.390 . S
C1455 C1452 1.386 . S
C1456 C1451 1.490 . S
C1456 C1458 1.395 . S
C1456 C1459 1.403 . S
H1457 C1463 0.930 . S
C1458 H1444 0.930 . S
C1458 C1456 1.395 . S
C1458 C1461 1.403 . S
C1459 C1456 1.403 . S
C1459 C1460 1.524 . S
C1459 C1463 1.400 . S
C1460 H1445 0.960 . S
C1460 H1446 0.960 . S
C1460 H1447 0.960 . S
C1460 C1459 1.524 . S
C1461 C1458 1.403 . S
C1461 C1462 1.392 . S
C1461 C1465 1.495 . S
C1462 C1461 1.392 . S
C1462 C1463 1.385 . S
C1462 C1464 1.478 . S
C1463 H1457 0.930 . S
C1463 C1459 1.400 . S
C1463 C1462 1.385 . S
C1464 C1462 1.478 . S
C1464 C1466 1.381 . S
C1464 C1470 1.383 . S
C1465 C1461 1.495 . S
C1465 H1471 0.959 . S
C1465 H1472 0.961 . S
C1465 H1473 0.960 . S
C1466 C1464 1.381 . S
C1466 C1467 1.394 . S
C1466 H1474 0.930 . S
C1467 C1466 1.394 . S
C1467 C1468 1.383 . S
C1467 H1475 0.929 . S
C1468 C1467 1.383 . S
C1468 C1469 1.377 . S
C1469 H1453 0.930 . S
C1469 C1468 1.377 . S
C1469 C1470 1.379 . S
C1470 H1454 0.931 . S
C1470 C1464 1.383 . S
C1470 C1469 1.379 . S
H1471 C1465 0.959 . S
H1472 C1465 0.961 . S
H1473 C1465 0.960 . S
H1474 C1466 0.930 . S
H1475 C1467 0.929 . S
H1476 C1484 0.929 . S
H1477 C1486 0.930 . S
H1478 C1488 0.930 . S
H1479 C1491 0.929 . S
H1480 C1494 0.930 . S
H1481 C1496 0.960 . S
H1482 C1496 0.960 . S
H1483 C1496 0.960 . S
C1484 H1476 0.929 . S
C1484 C1485 1.377 . S
C1484 C1486 1.384 . S
C1485 C1484 1.377 . S
C1485 C1491 1.390 . S
C1486 H1477 0.930 . S
C1486 C1484 1.384 . S
C1486 C1487 1.372 . S
C1487 C1486 1.372 . S
C1487 C1488 1.400 . S
C1487 C1492 1.490 . S
C1488 H1478 0.930 . S
C1488 C1487 1.400 . S
C1488 C1491 1.386 . S
H1489 C1505 0.930 . S
H1490 C1506 0.931 . S
C1491 H1479 0.929 . S
C1491 C1485 1.390 . S
C1491 C1488 1.386 . S
C1492 C1487 1.490 . S
C1492 C1494 1.395 . S
C1492 C1495 1.403 . S
H1493 C1499 0.930 . S
C1494 H1480 0.930 . S
C1494 C1492 1.395 . S
C1494 C1497 1.403 . S
C1495 C1492 1.403 . S
C1495 C1496 1.524 . S
C1495 C1499 1.400 . S
C1496 H1481 0.960 . S
C1496 H1482 0.960 . S
C1496 H1483 0.960 . S
C1496 C1495 1.524 . S
C1497 C1494 1.403 . S
C1497 C1498 1.392 . S
C1497 C1501 1.495 . S
C1498 C1497 1.392 . S
C1498 C1499 1.385 . S
C1498 C1500 1.478 . S
C1499 H1493 0.930 . S
C1499 C1495 1.400 . S
C1499 C1498 1.385 . S
C1500 C1498 1.478 . S
C1500 C1502 1.381 . S
C1500 C1506 1.383 . S
C1501 C1497 1.495 . S
C1501 H1507 0.959 . S
C1501 H1508 0.961 . S
C1501 H1509 0.960 . S
C1502 C1500 1.381 . S
C1502 C1503 1.394 . S
C1502 H1510 0.930 . S
C1503 C1502 1.394 . S
C1503 C1504 1.383 . S
C1503 H1511 0.929 . S
C1504 C1503 1.383 . S
C1504 C1505 1.377 . S
C1505 H1489 0.930 . S
C1505 C1504 1.377 . S
C1505 C1506 1.379 . S
C1506 H1490 0.931 . S
C1506 C1500 1.383 . S
C1506 C1505 1.379 . S
H1507 C1501 0.959 . S
H1508 C1501 0.961 . S
H1509 C1501 0.960 . S
H1510 C1502 0.930 . S
H1511 C1503 0.929 . S
H1512 C1520 0.929 . S
H1513 C1522 0.930 . S
H1514 C1524 0.930 . S
H1515 C1527 0.929 . S
H1516 C1530 0.930 . S
H1517 C1532 0.960 . S
H1518 C1532 0.960 . S
H1519 C1532 0.960 . S
C1520 H1512 0.929 . S
C1520 C1521 1.377 . S
C1520 C1522 1.384 . S
C1521 C1520 1.377 . S
C1521 C1527 1.390 . S
C1522 H1513 0.930 . S
C1522 C1520 1.384 . S
C1522 C1523 1.372 . S
C1523 C1522 1.372 . S
C1523 C1524 1.400 . S
C1523 C1528 1.490 . S
C1524 H1514 0.930 . S
C1524 C1523 1.400 . S
C1524 C1527 1.386 . S
H1525 C1541 0.930 . S
H1526 C1542 0.931 . S
C1527 H1515 0.929 . S
C1527 C1521 1.390 . S
C1527 C1524 1.386 . S
C1528 C1523 1.490 . S
C1528 C1530 1.395 . S
C1528 C1531 1.403 . S
H1529 C1535 0.930 . S
C1530 H1516 0.930 . S
C1530 C1528 1.395 . S
C1530 C1533 1.403 . S
C1531 C1528 1.403 . S
C1531 C1532 1.524 . S
C1531 C1535 1.400 . S
C1532 H1517 0.960 . S
C1532 H1518 0.960 . S
C1532 H1519 0.960 . S
C1532 C1531 1.524 . S
C1533 C1530 1.403 . S
C1533 C1534 1.392 . S
C1533 C1537 1.495 . S
C1534 C1533 1.392 . S
C1534 C1535 1.385 . S
C1534 C1536 1.478 . S
C1535 H1529 0.930 . S
C1535 C1531 1.400 . S
C1535 C1534 1.385 . S
C1536 C1534 1.478 . S
C1536 C1538 1.381 . S
C1536 C1542 1.383 . S
C1537 C1533 1.495 . S
C1537 H1543 0.959 . S
C1537 H1544 0.961 . S
C1537 H1545 0.960 . S
C1538 C1536 1.381 . S
C1538 C1539 1.394 . S
C1538 H1546 0.930 . S
C1539 C1538 1.394 . S
C1539 C1540 1.383 . S
C1539 H1547 0.929 . S
C1540 C1539 1.383 . S
C1540 C1541 1.377 . S
C1541 H1525 0.930 . S
C1541 C1540 1.377 . S
C1541 C1542 1.379 . S
C1542 H1526 0.931 . S
C1542 C1536 1.383 . S
C1542 C1541 1.379 . S
H1543 C1537 0.959 . S
H1544 C1537 0.961 . S
H1545 C1537 0.960 . S
H1546 C1538 0.930 . S
H1547 C1539 0.929 . S
H1548 C1556 0.929 . S
H1549 C1558 0.930 . S
H1550 C1560 0.930 . S
H1551 C1563 0.929 . S
H1552 C1566 0.930 . S
H1553 C1568 0.960 . S
H1554 C1568 0.960 . S
H1555 C1568 0.960 . S
C1556 H1548 0.929 . S
C1556 C1557 1.377 . S
C1556 C1558 1.384 . S
C1557 C1556 1.377 . S
C1557 C1563 1.390 . S
C1558 H1549 0.930 . S
C1558 C1556 1.384 . S
C1558 C1559 1.372 . S
C1559 C1558 1.372 . S
C1559 C1560 1.400 . S
C1559 C1564 1.490 . S
C1560 H1550 0.930 . S
C1560 C1559 1.400 . S
C1560 C1563 1.386 . S
H1561 C1577 0.930 . S
H1562 C1578 0.931 . S
C1563 H1551 0.929 . S
C1563 C1557 1.390 . S
C1563 C1560 1.386 . S
C1564 C1559 1.490 . S
C1564 C1566 1.395 . S
C1564 C1567 1.403 . S
H1565 C1571 0.930 . S
C1566 H1552 0.930 . S
C1566 C1564 1.395 . S
C1566 C1569 1.403 . S
C1567 C1564 1.403 . S
C1567 C1568 1.524 . S
C1567 C1571 1.400 . S
C1568 H1553 0.960 . S
C1568 H1554 0.960 . S
C1568 H1555 0.960 . S
C1568 C1567 1.524 . S
C1569 C1566 1.403 . S
C1569 C1570 1.392 . S
C1569 C1573 1.495 . S
C1570 C1569 1.392 . S
C1570 C1571 1.385 . S
C1570 C1572 1.478 . S
C1571 H1565 0.930 . S
C1571 C1567 1.400 . S
C1571 C1570 1.385 . S
C1572 C1570 1.478 . S
C1572 C1574 1.381 . S
C1572 C1578 1.383 . S
C1573 C1569 1.495 . S
C1573 H1579 0.959 . S
C1573 H1580 0.961 . S
C1573 H1581 0.960 . S
C1574 C1572 1.381 . S
C1574 C1575 1.394 . S
C1574 H1582 0.930 . S
C1575 C1574 1.394 . S
C1575 C1576 1.383 . S
C1575 H1583 0.929 . S
C1576 C1575 1.383 . S
C1576 C1577 1.377 . S
C1577 H1561 0.930 . S
C1577 C1576 1.377 . S
C1577 C1578 1.379 . S
C1578 H1562 0.931 . S
C1578 C1572 1.383 . S
C1578 C1577 1.379 . S
H1579 C1573 0.959 . S
H1580 C1573 0.961 . S
H1581 C1573 0.960 . S
H1582 C1574 0.930 . S
H1583 C1575 0.929 . S
H1584 C1592 0.929 . S
H1585 C1594 0.930 . S
H1586 C1596 0.930 . S
H1587 C1599 0.929 . S
H1588 C1602 0.930 . S
H1589 C1604 0.960 . S
H1590 C1604 0.960 . S
H1591 C1604 0.960 . S
C1592 H1584 0.929 . S
C1592 C1593 1.377 . S
C1592 C1594 1.384 . S
C1593 C1592 1.377 . S
C1593 C1599 1.390 . S
C1594 H1585 0.930 . S
C1594 C1592 1.384 . S
C1594 C1595 1.372 . S
C1595 C1594 1.372 . S
C1595 C1596 1.400 . S
C1595 C1600 1.490 . S
C1596 H1586 0.930 . S
C1596 C1595 1.400 . S
C1596 C1599 1.386 . S
H1597 C1613 0.930 . S
H1598 C1614 0.931 . S
C1599 H1587 0.929 . S
C1599 C1593 1.390 . S
C1599 C1596 1.386 . S
C1600 C1595 1.490 . S
C1600 C1602 1.395 . S
C1600 C1603 1.403 . S
H1601 C1607 0.930 . S
C1602 H1588 0.930 . S
C1602 C1600 1.395 . S
C1602 C1605 1.403 . S
C1603 C1600 1.403 . S
C1603 C1604 1.524 . S
C1603 C1607 1.400 . S
C1604 H1589 0.960 . S
C1604 H1590 0.960 . S
C1604 H1591 0.960 . S
C1604 C1603 1.524 . S
C1605 C1602 1.403 . S
C1605 C1606 1.392 . S
C1605 C1609 1.495 . S
C1606 C1605 1.392 . S
C1606 C1607 1.385 . S
C1606 C1608 1.478 . S
C1607 H1601 0.930 . S
C1607 C1603 1.400 . S
C1607 C1606 1.385 . S
C1608 C1606 1.478 . S
C1608 C1610 1.381 . S
C1608 C1614 1.383 . S
C1609 C1605 1.495 . S
C1609 H1615 0.959 . S
C1609 H1616 0.961 . S
C1609 H1617 0.960 . S
C1610 C1608 1.381 . S
C1610 C1611 1.394 . S
C1610 H1618 0.930 . S
C1611 C1610 1.394 . S
C1611 C1612 1.383 . S
C1611 H1619 0.929 . S
C1612 C1611 1.383 . S
C1612 C1613 1.377 . S
C1613 H1597 0.930 . S
C1613 C1612 1.377 . S
C1613 C1614 1.379 . S
C1614 H1598 0.931 . S
C1614 C1608 1.383 . S
C1614 C1613 1.379 . S
H1615 C1609 0.959 . S
H1616 C1609 0.961 . S
H1617 C1609 0.960 . S
H1618 C1610 0.930 . S
H1619 C1611 0.929 . S
H1620 C1628 0.929 . S
H1621 C1630 0.930 . S
H1622 C1632 0.930 . S
H1623 C1635 0.929 . S
H1624 C1638 0.930 . S
H1625 C1640 0.960 . S
H1626 C1640 0.960 . S
H1627 C1640 0.960 . S
C1628 H1620 0.929 . S
C1628 C1629 1.377 . S
C1628 C1630 1.384 . S
C1629 C1628 1.377 . S
C1629 C1635 1.390 . S
C1630 H1621 0.930 . S
C1630 C1628 1.384 . S
C1630 C1631 1.372 . S
C1631 C1630 1.372 . S
C1631 C1632 1.400 . S
C1631 C1636 1.490 . S
C1632 H1622 0.930 . S
C1632 C1631 1.400 . S
C1632 C1635 1.386 . S
H1633 C1649 0.930 . S
H1634 C1650 0.931 . S
C1635 H1623 0.929 . S
C1635 C1629 1.390 . S
C1635 C1632 1.386 . S
C1636 C1631 1.490 . S
C1636 C1638 1.395 . S
C1636 C1639 1.403 . S
H1637 C1643 0.930 . S
C1638 H1624 0.930 . S
C1638 C1636 1.395 . S
C1638 C1641 1.403 . S
C1639 C1636 1.403 . S
C1639 C1640 1.524 . S
C1639 C1643 1.400 . S
C1640 H1625 0.960 . S
C1640 H1626 0.960 . S
C1640 H1627 0.960 . S
C1640 C1639 1.524 . S
C1641 C1638 1.403 . S
C1641 C1642 1.392 . S
C1641 C1645 1.495 . S
C1642 C1641 1.392 . S
C1642 C1643 1.385 . S
C1642 C1644 1.478 . S
C1643 H1637 0.930 . S
C1643 C1639 1.400 . S
C1643 C1642 1.385 . S
C1644 C1642 1.478 . S
C1644 C1646 1.381 . S
C1644 C1650 1.383 . S
C1645 C1641 1.495 . S
C1645 H1651 0.959 . S
C1645 H1652 0.961 . S
C1645 H1653 0.960 . S
C1646 C1644 1.381 . S
C1646 C1647 1.394 . S
C1646 H1654 0.930 . S
C1647 C1646 1.394 . S
C1647 C1648 1.383 . S
C1647 H1655 0.929 . S
C1648 C1647 1.383 . S
C1648 C1649 1.377 . S
C1649 H1633 0.930 . S
C1649 C1648 1.377 . S
C1649 C1650 1.379 . S
C1650 H1634 0.931 . S
C1650 C1644 1.383 . S
C1650 C1649 1.379 . S
H1651 C1645 0.959 . S
H1652 C1645 0.961 . S
H1653 C1645 0.960 . S
H1654 C1646 0.930 . S
H1655 C1647 0.929 . S
H1656 C1664 0.929 . S
H1657 C1666 0.930 . S
H1658 C1668 0.930 . S
H1659 C1671 0.929 . S
H1660 C1674 0.930 . S
H1661 C1676 0.960 . S
H1662 C1676 0.960 . S
H1663 C1676 0.960 . S
C1664 H1656 0.929 . S
C1664 C1665 1.377 . S
C1664 C1666 1.384 . S
C1665 C1664 1.377 . S
C1665 C1671 1.390 . S
C1666 H1657 0.930 . S
C1666 C1664 1.384 . S
C1666 C1667 1.372 . S
C1667 C1666 1.372 . S
C1667 C1668 1.400 . S
C1667 C1672 1.490 . S
C1668 H1658 0.930 . S
C1668 C1667 1.400 . S
C1668 C1671 1.386 . S
H1669 C1685 0.930 . S
H1670 C1686 0.931 . S
C1671 H1659 0.929 . S
C1671 C1665 1.390 . S
C1671 C1668 1.386 . S
C1672 C1667 1.490 . S
C1672 C1674 1.395 . S
C1672 C1675 1.403 . S
H1673 C1679 0.930 . S
C1674 H1660 0.930 . S
C1674 C1672 1.395 . S
C1674 C1677 1.403 . S
C1675 C1672 1.403 . S
C1675 C1676 1.524 . S
C1675 C1679 1.400 . S
C1676 H1661 0.960 . S
C1676 H1662 0.960 . S
C1676 H1663 0.960 . S
C1676 C1675 1.524 . S
C1677 C1674 1.403 . S
C1677 C1678 1.392 . S
C1677 C1681 1.495 . S
C1678 C1677 1.392 . S
C1678 C1679 1.385 . S
C1678 C1680 1.478 . S
C1679 H1673 0.930 . S
C1679 C1675 1.400 . S
C1679 C1678 1.385 . S
C1680 C1678 1.478 . S
C1680 C1682 1.381 . S
C1680 C1686 1.383 . S
C1681 C1677 1.495 . S
C1681 H1687 0.959 . S
C1681 H1688 0.961 . S
C1681 H1689 0.960 . S
C1682 C1680 1.381 . S
C1682 C1683 1.394 . S
C1682 H1690 0.930 . S
C1683 C1682 1.394 . S
C1683 C1684 1.383 . S
C1683 H1691 0.929 . S
C1684 C1683 1.383 . S
C1684 C1685 1.377 . S
C1685 H1669 0.930 . S
C1685 C1684 1.377 . S
C1685 C1686 1.379 . S
C1686 H1670 0.931 . S
C1686 C1680 1.383 . S
C1686 C1685 1.379 . S
H1687 C1681 0.959 . S
H1688 C1681 0.961 . S
H1689 C1681 0.960 . S
H1690 C1682 0.930 . S
H1691 C1683 0.929 . S
H1692 C1700 0.929 . S
H1693 C1702 0.930 . S
H1694 C1704 0.930 . S
H1695 C1707 0.929 . S
H1696 C1710 0.930 . S
H1697 C1712 0.960 . S
H1698 C1712 0.960 . S
H1699 C1712 0.960 . S
C1700 H1692 0.929 . S
C1700 C1701 1.377 . S
C1700 C1702 1.384 . S
C1701 C1700 1.377 . S
C1701 C1707 1.390 . S
C1702 H1693 0.930 . S
C1702 C1700 1.384 . S
C1702 C1703 1.372 . S
C1703 C1702 1.372 . S
C1703 C1704 1.400 . S
C1703 C1708 1.490 . S
C1704 H1694 0.930 . S
C1704 C1703 1.400 . S
C1704 C1707 1.386 . S
H1705 C1721 0.930 . S
H1706 C1722 0.931 . S
C1707 H1695 0.929 . S
C1707 C1701 1.390 . S
C1707 C1704 1.386 . S
C1708 C1703 1.490 . S
C1708 C1710 1.395 . S
C1708 C1711 1.403 . S
H1709 C1715 0.930 . S
C1710 H1696 0.930 . S
C1710 C1708 1.395 . S
C1710 C1713 1.403 . S
C1711 C1708 1.403 . S
C1711 C1712 1.524 . S
C1711 C1715 1.400 . S
C1712 H1697 0.960 . S
C1712 H1698 0.960 . S
C1712 H1699 0.960 . S
C1712 C1711 1.524 . S
C1713 C1710 1.403 . S
C1713 C1714 1.392 . S
C1713 C1717 1.495 . S
C1714 C1713 1.392 . S
C1714 C1715 1.385 . S
C1714 C1716 1.478 . S
C1715 H1709 0.930 . S
C1715 C1711 1.400 . S
C1715 C1714 1.385 . S
C1716 C1714 1.478 . S
C1716 C1718 1.381 . S
C1716 C1722 1.383 . S
C1717 C1713 1.495 . S
C1717 H1723 0.959 . S
C1717 H1724 0.961 . S
C1717 H1725 0.960 . S
C1718 C1716 1.381 . S
C1718 C1719 1.394 . S
C1718 H1726 0.930 . S
C1719 C1718 1.394 . S
C1719 C1720 1.383 . S
C1719 H1727 0.929 . S
C1720 C1719 1.383 . S
C1720 C1721 1.377 . S
C1721 H1705 0.930 . S
C1721 C1720 1.377 . S
C1721 C1722 1.379 . S
C1722 H1706 0.931 . S
C1722 C1716 1.383 . S
C1722 C1721 1.379 . S
H1723 C1717 0.959 . S
H1724 C1717 0.961 . S
H1725 C1717 0.960 . S
H1726 C1718 0.930 . S
H1727 C1719 0.929 . S
H1728 C1736 0.929 . S
H1729 C1738 0.930 . S
H1730 C1740 0.930 . S
H1731 C1743 0.929 . S
H1732 C1746 0.930 . S
H1733 C1748 0.960 . S
H1734 C1748 0.960 . S
H1735 C1748 0.960 . S
C1736 H1728 0.929 . S
C1736 C1737 1.377 . S
C1736 C1738 1.384 . S
C1737 C1736 1.377 . S
C1737 C1743 1.390 . S
C1738 H1729 0.930 . S
C1738 C1736 1.384 . S
C1738 C1739 1.372 . S
C1739 C1738 1.372 . S
C1739 C1740 1.400 . S
C1739 C1744 1.490 . S
C1740 H1730 0.930 . S
C1740 C1739 1.400 . S
C1740 C1743 1.386 . S
H1741 C1757 0.930 . S
H1742 C1758 0.931 . S
C1743 H1731 0.929 . S
C1743 C1737 1.390 . S
C1743 C1740 1.386 . S
C1744 C1739 1.490 . S
C1744 C1746 1.395 . S
C1744 C1747 1.403 . S
H1745 C1751 0.930 . S
C1746 H1732 0.930 . S
C1746 C1744 1.395 . S
C1746 C1749 1.403 . S
C1747 C1744 1.403 . S
C1747 C1748 1.524 . S
C1747 C1751 1.400 . S
C1748 H1733 0.960 . S
C1748 H1734 0.960 . S
C1748 H1735 0.960 . S
C1748 C1747 1.524 . S
C1749 C1746 1.403 . S
C1749 C1750 1.392 . S
C1749 C1753 1.495 . S
C1750 C1749 1.392 . S
C1750 C1751 1.385 . S
C1750 C1752 1.478 . S
C1751 H1745 0.930 . S
C1751 C1747 1.400 . S
C1751 C1750 1.385 . S
C1752 C1750 1.478 . S
C1752 C1754 1.381 . S
C1752 C1758 1.383 . S
C1753 C1749 1.495 . S
C1753 H1759 0.959 . S
C1753 H1760 0.961 . S
C1753 H1761 0.960 . S
C1754 C1752 1.381 . S
C1754 C1755 1.394 . S
C1754 H1762 0.930 . S
C1755 C1754 1.394 . S
C1755 C1756 1.383 . S
C1755 H1763 0.929 . S
C1756 C1755 1.383 . S
C1756 C1757 1.377 . S
C1757 H1741 0.930 . S
C1757 C1756 1.377 . S
C1757 C1758 1.379 . S
C1758 H1742 0.931 . S
C1758 C1752 1.383 . S
C1758 C1757 1.379 . S
H1759 C1753 0.959 . S
H1760 C1753 0.961 . S
H1761 C1753 0.960 . S
H1762 C1754 0.930 . S
H1763 C1755 0.929 . S
H1764 C1772 0.929 . S
H1765 C1774 0.930 . S
H1766 C1776 0.930 . S
H1767 C1779 0.929 . S
H1768 C1782 0.930 . S
H1769 C1784 0.960 . S
H1770 C1784 0.960 . S
H1771 C1784 0.960 . S
C1772 H1764 0.929 . S
C1772 C1773 1.377 . S
C1772 C1774 1.384 . S
C1773 C1772 1.377 . S
C1773 C1779 1.390 . S
C1774 H1765 0.930 . S
C1774 C1772 1.384 . S
C1774 C1775 1.372 . S
C1775 C1774 1.372 . S
C1775 C1776 1.400 . S
C1775 C1780 1.490 . S
C1776 H1766 0.930 . S
C1776 C1775 1.400 . S
C1776 C1779 1.386 . S
H1777 C1793 0.930 . S
H1778 C1794 0.931 . S
C1779 H1767 0.929 . S
C1779 C1773 1.390 . S
C1779 C1776 1.386 . S
C1780 C1775 1.490 . S
C1780 C1782 1.395 . S
C1780 C1783 1.403 . S
H1781 C1787 0.930 . S
C1782 H1768 0.930 . S
C1782 C1780 1.395 . S
C1782 C1785 1.403 . S
C1783 C1780 1.403 . S
C1783 C1784 1.524 . S
C1783 C1787 1.400 . S
C1784 H1769 0.960 . S
C1784 H1770 0.960 . S
C1784 H1771 0.960 . S
C1784 C1783 1.524 . S
C1785 C1782 1.403 . S
C1785 C1786 1.392 . S
C1785 C1789 1.495 . S
C1786 C1785 1.392 . S
C1786 C1787 1.385 . S
C1786 C1788 1.478 . S
C1787 H1781 0.930 . S
C1787 C1783 1.400 . S
C1787 C1786 1.385 . S
C1788 C1786 1.478 . S
C1788 C1790 1.381 . S
C1788 C1794 1.383 . S
C1789 C1785 1.495 . S
C1789 H1795 0.959 . S
C1789 H1796 0.961 . S
C1789 H1797 0.960 . S
C1790 C1788 1.381 . S
C1790 C1791 1.394 . S
C1790 H1798 0.930 . S
C1791 C1790 1.394 . S
C1791 C1792 1.383 . S
C1791 H1799 0.929 . S
C1792 C1791 1.383 . S
C1792 C1793 1.377 . S
C1793 H1777 0.930 . S
C1793 C1792 1.377 . S
C1793 C1794 1.379 . S
C1794 H1778 0.931 . S
C1794 C1788 1.383 . S
C1794 C1793 1.379 . S
H1795 C1789 0.959 . S
H1796 C1789 0.961 . S
H1797 C1789 0.960 . S
H1798 C1790 0.930 . S
H1799 C1791 0.929 . S
H1800 C1808 0.929 . S
H1801 C1810 0.930 . S
H1802 C1812 0.930 . S
H1803 C1815 0.929 . S
H1804 C1818 0.930 . S
H1805 C1820 0.960 . S
H1806 C1820 0.960 . S
H1807 C1820 0.960 . S
C1808 H1800 0.929 . S
C1808 C1809 1.377 . S
C1808 C1810 1.384 . S
C1809 C1808 1.377 . S
C1809 C1815 1.390 . S
C1810 H1801 0.930 . S
C1810 C1808 1.384 . S
C1810 C1811 1.372 . S
C1811 C1810 1.372 . S
C1811 C1812 1.400 . S
C1811 C1816 1.490 . S
C1812 H1802 0.930 . S
C1812 C1811 1.400 . S
C1812 C1815 1.386 . S
H1813 C1829 0.930 . S
H1814 C1830 0.931 . S
C1815 H1803 0.929 . S
C1815 C1809 1.390 . S
C1815 C1812 1.386 . S
C1816 C1811 1.490 . S
C1816 C1818 1.395 . S
C1816 C1819 1.403 . S
H1817 C1823 0.930 . S
C1818 H1804 0.930 . S
C1818 C1816 1.395 . S
C1818 C1821 1.403 . S
C1819 C1816 1.403 . S
C1819 C1820 1.524 . S
C1819 C1823 1.400 . S
C1820 H1805 0.960 . S
C1820 H1806 0.960 . S
C1820 H1807 0.960 . S
C1820 C1819 1.524 . S
C1821 C1818 1.403 . S
C1821 C1822 1.392 . S
C1821 C1825 1.495 . S
C1822 C1821 1.392 . S
C1822 C1823 1.385 . S
C1822 C1824 1.478 . S
C1823 H1817 0.930 . S
C1823 C1819 1.400 . S
C1823 C1822 1.385 . S
C1824 C1822 1.478 . S
C1824 C1826 1.381 . S
C1824 C1830 1.383 . S
C1825 C1821 1.495 . S
C1825 H1831 0.959 . S
C1825 H1832 0.961 . S
C1825 H1833 0.960 . S
C1826 C1824 1.381 . S
C1826 C1827 1.394 . S
C1826 H1834 0.930 . S
C1827 C1826 1.394 . S
C1827 C1828 1.383 . S
C1827 H1835 0.929 . S
C1828 C1827 1.383 . S
C1828 C1829 1.377 . S
C1829 H1813 0.930 . S
C1829 C1828 1.377 . S
C1829 C1830 1.379 . S
C1830 H1814 0.931 . S
C1830 C1824 1.383 . S
C1830 C1829 1.379 . S
H1831 C1825 0.959 . S
H1832 C1825 0.961 . S
H1833 C1825 0.960 . S
H1834 C1826 0.930 . S
H1835 C1827 0.929 . S
H1836 C1844 0.929 . S
H1837 C1846 0.930 . S
H1838 C1848 0.930 . S
H1839 C1851 0.929 . S
H1840 C1854 0.930 . S
H1841 C1856 0.960 . S
H1842 C1856 0.960 . S
H1843 C1856 0.960 . S
C1844 H1836 0.929 . S
C1844 C1845 1.377 . S
C1844 C1846 1.384 . S
C1845 C1844 1.377 . S
C1845 C1851 1.390 . S
C1846 H1837 0.930 . S
C1846 C1844 1.384 . S
C1846 C1847 1.372 . S
C1847 C1846 1.372 . S
C1847 C1848 1.400 . S
C1847 C1852 1.490 . S
C1848 H1838 0.930 . S
C1848 C1847 1.400 . S
C1848 C1851 1.386 . S
H1849 C1865 0.930 . S
H1850 C1866 0.931 . S
C1851 H1839 0.929 . S
C1851 C1845 1.390 . S
C1851 C1848 1.386 . S
C1852 C1847 1.490 . S
C1852 C1854 1.395 . S
C1852 C1855 1.403 . S
H1853 C1859 0.930 . S
C1854 H1840 0.930 . S
C1854 C1852 1.395 . S
C1854 C1857 1.403 . S
C1855 C1852 1.403 . S
C1855 C1856 1.524 . S
C1855 C1859 1.400 . S
C1856 H1841 0.960 . S
C1856 H1842 0.960 . S
C1856 H1843 0.960 . S
C1856 C1855 1.524 . S
C1857 C1854 1.403 . S
C1857 C1858 1.392 . S
C1857 C1861 1.495 . S
C1858 C1857 1.392 . S
C1858 C1859 1.385 . S
C1858 C1860 1.478 . S
C1859 H1853 0.930 . S
C1859 C1855 1.400 . S
C1859 C1858 1.385 . S
C1860 C1858 1.478 . S
C1860 C1862 1.381 . S
C1860 C1866 1.383 . S
C1861 C1857 1.495 . S
C1861 H1867 0.959 . S
C1861 H1868 0.961 . S
C1861 H1869 0.960 . S
C1862 C1860 1.381 . S
C1862 C1863 1.394 . S
C1862 H1870 0.930 . S
C1863 C1862 1.394 . S
C1863 C1864 1.383 . S
C1863 H1871 0.929 . S
C1864 C1863 1.383 . S
C1864 C1865 1.377 . S
C1865 H1849 0.930 . S
C1865 C1864 1.377 . S
C1865 C1866 1.379 . S
C1866 H1850 0.931 . S
C1866 C1860 1.383 . S
C1866 C1865 1.379 . S
H1867 C1861 0.959 . S
H1868 C1861 0.961 . S
H1869 C1861 0.960 . S
H1870 C1862 0.930 . S
H1871 C1863 0.929 . S
H1872 C1880 0.929 . S
H1873 C1882 0.930 . S
H1874 C1884 0.930 . S
H1875 C1887 0.929 . S
H1876 C1890 0.930 . S
H1877 C1892 0.960 . S
H1878 C1892 0.960 . S
H1879 C1892 0.960 . S
C1880 H1872 0.929 . S
C1880 C1881 1.377 . S
C1880 C1882 1.384 . S
C1881 C1880 1.377 . S
C1881 C1887 1.390 . S
C1882 H1873 0.930 . S
C1882 C1880 1.384 . S
C1882 C1883 1.372 . S
C1883 C1882 1.372 . S
C1883 C1884 1.400 . S
C1883 C1888 1.490 . S
C1884 H1874 0.930 . S
C1884 C1883 1.400 . S
C1884 C1887 1.386 . S
H1885 C1901 0.930 . S
H1886 C1902 0.931 . S
C1887 H1875 0.929 . S
C1887 C1881 1.390 . S
C1887 C1884 1.386 . S
C1888 C1883 1.490 . S
C1888 C1890 1.395 . S
C1888 C1891 1.403 . S
H1889 C1895 0.930 . S
C1890 H1876 0.930 . S
C1890 C1888 1.395 . S
C1890 C1893 1.403 . S
C1891 C1888 1.403 . S
C1891 C1892 1.524 . S
C1891 C1895 1.400 . S
C1892 H1877 0.960 . S
C1892 H1878 0.960 . S
C1892 H1879 0.960 . S
C1892 C1891 1.524 . S
C1893 C1890 1.403 . S
C1893 C1894 1.392 . S
C1893 C1897 1.495 . S
C1894 C1893 1.392 . S
C1894 C1895 1.385 . S
C1894 C1896 1.478 . S
C1895 H1889 0.930 . S
C1895 C1891 1.400 . S
C1895 C1894 1.385 . S
C1896 C1894 1.478 . S
C1896 C1898 1.381 . S
C1896 C1902 1.383 . S
C1897 C1893 1.495 . S
C1897 H1903 0.959 . S
C1897 H1904 0.961 . S
C1897 H1905 0.960 . S
C1898 C1896 1.381 . S
C1898 C1899 1.394 . S
C1898 H1906 0.930 . S
C1899 C1898 1.394 . S
C1899 C1900 1.383 . S
C1899 H1907 0.929 . S
C1900 C1899 1.383 . S
C1900 C1901 1.377 . S
C1901 H1885 0.930 . S
C1901 C1900 1.377 . S
C1901 C1902 1.379 . S
C1902 H1886 0.931 . S
C1902 C1896 1.383 . S
C1902 C1901 1.379 . S
H1903 C1897 0.959 . S
H1904 C1897 0.961 . S
H1905 C1897 0.960 . S
H1906 C1898 0.930 . S
H1907 C1899 0.929 . S
H1908 C1916 0.929 . S
H1909 C1918 0.930 . S
H1910 C1920 0.930 . S
H1911 C1923 0.929 . S
H1912 C1926 0.930 . S
H1913 C1928 0.960 . S
H1914 C1928 0.960 . S
H1915 C1928 0.960 . S
C1916 H1908 0.929 . S
C1916 C1917 1.377 . S
C1916 C1918 1.384 . S
C1917 C1916 1.377 . S
C1917 C1923 1.390 . S
C1918 H1909 0.930 . S
C1918 C1916 1.384 . S
C1918 C1919 1.372 . S
C1919 C1918 1.372 . S
C1919 C1920 1.400 . S
C1919 C1924 1.490 . S
C1920 H1910 0.930 . S
C1920 C1919 1.400 . S
C1920 C1923 1.386 . S
H1921 C1937 0.930 . S
H1922 C1938 0.931 . S
C1923 H1911 0.929 . S
C1923 C1917 1.390 . S
C1923 C1920 1.386 . S
C1924 C1919 1.490 . S
C1924 C1926 1.395 . S
C1924 C1927 1.403 . S
H1925 C1931 0.930 . S
C1926 H1912 0.930 . S
C1926 C1924 1.395 . S
C1926 C1929 1.403 . S
C1927 C1924 1.403 . S
C1927 C1928 1.524 . S
C1927 C1931 1.400 . S
C1928 H1913 0.960 . S
C1928 H1914 0.960 . S
C1928 H1915 0.960 . S
C1928 C1927 1.524 . S
C1929 C1926 1.403 . S
C1929 C1930 1.392 . S
C1929 C1933 1.495 . S
C1930 C1929 1.392 . S
C1930 C1931 1.385 . S
C1930 C1932 1.478 . S
C1931 H1925 0.930 . S
C1931 C1927 1.400 . S
C1931 C1930 1.385 . S
C1932 C1930 1.478 . S
C1932 C1934 1.381 . S
C1932 C1938 1.383 . S
C1933 C1929 1.495 . S
C1933 H1939 0.959 . S
C1933 H1940 0.961 . S
C1933 H1941 0.960 . S
C1934 C1932 1.381 . S
C1934 C1935 1.394 . S
C1934 H1942 0.930 . S
C1935 C1934 1.394 . S
C1935 C1936 1.383 . S
C1935 H1943 0.929 . S
C1936 C1935 1.383 . S
C1936 C1937 1.377 . S
C1937 H1921 0.930 . S
C1937 C1936 1.377 . S
C1937 C1938 1.379 . S
C1938 H1922 0.931 . S
C1938 C1932 1.383 . S
C1938 C1937 1.379 . S
H1939 C1933 0.959 . S
H1940 C1933 0.961 . S
H1941 C1933 0.960 . S
H1942 C1934 0.930 . S
H1943 C1935 0.929 . S
H1944 C1952 0.929 . S
H1945 C1954 0.930 . S
H1946 C1956 0.930 . S
H1947 C1959 0.929 . S
H1948 C1962 0.930 . S
H1949 C1964 0.960 . S
H1950 C1964 0.960 . S
H1951 C1964 0.960 . S
C1952 H1944 0.929 . S
C1952 C1953 1.377 . S
C1952 C1954 1.384 . S
C1953 C1952 1.377 . S
C1953 C1959 1.390 . S
C1954 H1945 0.930 . S
C1954 C1952 1.384 . S
C1954 C1955 1.372 . S
C1955 C1954 1.372 . S
C1955 C1956 1.400 . S
C1955 C1960 1.490 . S
C1956 H1946 0.930 . S
C1956 C1955 1.400 . S
C1956 C1959 1.386 . S
H1957 C1973 0.930 . S
H1958 C1974 0.931 . S
C1959 H1947 0.929 . S
C1959 C1953 1.390 . S
C1959 C1956 1.386 . S
C1960 C1955 1.490 . S
C1960 C1962 1.395 . S
C1960 C1963 1.403 . S
H1961 C1967 0.930 . S
C1962 H1948 0.930 . S
C1962 C1960 1.395 . S
C1962 C1965 1.403 . S
C1963 C1960 1.403 . S
C1963 C1964 1.524 . S
C1963 C1967 1.400 . S
C1964 H1949 0.960 . S
C1964 H1950 0.960 . S
C1964 H1951 0.960 . S
C1964 C1963 1.524 . S
C1965 C1962 1.403 . S
C1965 C1966 1.392 . S
C1965 C1969 1.495 . S
C1966 C1965 1.392 . S
C1966 C1967 1.385 . S
C1966 C1968 1.478 . S
C1967 H1961 0.930 . S
C1967 C1963 1.400 . S
C1967 C1966 1.385 . S
C1968 C1966 1.478 . S
C1968 C1970 1.381 . S
C1968 C1974 1.383 . S
C1969 C1965 1.495 . S
C1969 H1975 0.959 . S
C1969 H1976 0.961 . S
C1969 H1977 0.960 . S
C1970 C1968 1.381 . S
C1970 C1971 1.394 . S
C1970 H1978 0.930 . S
C1971 C1970 1.394 . S
C1971 C1972 1.383 . S
C1971 H1979 0.929 . S
C1972 C1971 1.383 . S
C1972 C1973 1.377 . S
C1973 H1957 0.930 . S
C1973 C1972 1.377 . S
C1973 C1974 1.379 . S
C1974 H1958 0.931 . S
C1974 C1968 1.383 . S
C1974 C1973 1.379 . S
H1975 C1969 0.959 . S
H1976 C1969 0.961 . S
H1977 C1969 0.960 . S
H1978 C1970 0.930 . S
H1979 C1971 0.929 . S
H1980 C1988 0.929 . S
H1981 C1990 0.930 . S
H1982 C1992 0.930 . S
H1983 C1995 0.929 . S
H1984 C1998 0.930 . S
H1985 C2000 0.960 . S
H1986 C2000 0.960 . S
H1987 C2000 0.960 . S
C1988 H1980 0.929 . S
C1988 C1989 1.377 . S
C1988 C1990 1.384 . S
C1989 C1988 1.377 . S
C1989 C1995 1.390 . S
C1990 H1981 0.930 . S
C1990 C1988 1.384 . S
C1990 C1991 1.372 . S
C1991 C1990 1.372 . S
C1991 C1992 1.400 . S
C1991 C1996 1.490 . S
C1992 H1982 0.930 . S
C1992 C1991 1.400 . S
C1992 C1995 1.386 . S
H1993 C2009 0.930 . S
H1994 C2010 0.931 . S
C1995 H1983 0.929 . S
C1995 C1989 1.390 . S
C1995 C1992 1.386 . S
C1996 C1991 1.490 . S
C1996 C1998 1.395 . S
C1996 C1999 1.403 . S
H1997 C2003 0.930 . S
C1998 H1984 0.930 . S
C1998 C1996 1.395 . S
C1998 C2001 1.403 . S
C1999 C1996 1.403 . S
C1999 C2000 1.524 . S
C1999 C2003 1.400 . S
C2000 H1985 0.960 . S
C2000 H1986 0.960 . S
C2000 H1987 0.960 . S
C2000 C1999 1.524 . S
C2001 C1998 1.403 . S
C2001 C2002 1.392 . S
C2001 C2005 1.495 . S
C2002 C2001 1.392 . S
C2002 C2003 1.385 . S
C2002 C2004 1.478 . S
C2003 H1997 0.930 . S
C2003 C1999 1.400 . S
C2003 C2002 1.385 . S
C2004 C2002 1.478 . S
C2004 C2006 1.381 . S
C2004 C2010 1.383 . S
C2005 C2001 1.495 . S
C2005 H2011 0.959 . S
C2005 H2012 0.961 . S
C2005 H2013 0.960 . S
C2006 C2004 1.381 . S
C2006 C2007 1.394 . S
C2006 H2014 0.930 . S
C2007 C2006 1.394 . S
C2007 C2008 1.383 . S
C2007 H2015 0.929 . S
C2008 C2007 1.383 . S
C2008 C2009 1.377 . S
C2009 H1993 0.930 . S
C2009 C2008 1.377 . S
C2009 C2010 1.379 . S
C2010 H1994 0.931 . S
C2010 C2004 1.383 . S
C2010 C2009 1.379 . S
H2011 C2005 0.959 . S
H2012 C2005 0.961 . S
H2013 C2005 0.960 . S
H2014 C2006 0.930 . S
H2015 C2007 0.929 . S
H2016 C2024 0.929 . S
H2017 C2026 0.930 . S
H2018 C2028 0.930 . S
H2019 C2031 0.929 . S
H2020 C2034 0.930 . S
H2021 C2036 0.960 . S
H2022 C2036 0.960 . S
H2023 C2036 0.960 . S
C2024 H2016 0.929 . S
C2024 C2025 1.377 . S
C2024 C2026 1.384 . S
C2025 C2024 1.377 . S
C2025 C2031 1.390 . S
C2026 H2017 0.930 . S
C2026 C2024 1.384 . S
C2026 C2027 1.372 . S
C2027 C2026 1.372 . S
C2027 C2028 1.400 . S
C2027 C2032 1.490 . S
C2028 H2018 0.930 . S
C2028 C2027 1.400 . S
C2028 C2031 1.386 . S
H2029 C2045 0.930 . S
H2030 C2046 0.931 . S
C2031 H2019 0.929 . S
C2031 C2025 1.390 . S
C2031 C2028 1.386 . S
C2032 C2027 1.490 . S
C2032 C2034 1.395 . S
C2032 C2035 1.403 . S
H2033 C2039 0.930 . S
C2034 H2020 0.930 . S
C2034 C2032 1.395 . S
C2034 C2037 1.403 . S
C2035 C2032 1.403 . S
C2035 C2036 1.524 . S
C2035 C2039 1.400 . S
C2036 H2021 0.960 . S
C2036 H2022 0.960 . S
C2036 H2023 0.960 . S
C2036 C2035 1.524 . S
C2037 C2034 1.403 . S
C2037 C2038 1.392 . S
C2037 C2041 1.495 . S
C2038 C2037 1.392 . S
C2038 C2039 1.385 . S
C2038 C2040 1.478 . S
C2039 H2033 0.930 . S
C2039 C2035 1.400 . S
C2039 C2038 1.385 . S
C2040 C2038 1.478 . S
C2040 C2042 1.381 . S
C2040 C2046 1.383 . S
C2041 C2037 1.495 . S
C2041 H2047 0.959 . S
C2041 H2048 0.961 . S
C2041 H2049 0.960 . S
C2042 C2040 1.381 . S
C2042 C2043 1.394 . S
C2042 H2050 0.930 . S
C2043 C2042 1.394 . S
C2043 C2044 1.383 . S
C2043 H2051 0.929 . S
C2044 C2043 1.383 . S
C2044 C2045 1.377 . S
C2045 H2029 0.930 . S
C2045 C2044 1.377 . S
C2045 C2046 1.379 . S
C2046 H2030 0.931 . S
C2046 C2040 1.383 . S
C2046 C2045 1.379 . S
H2047 C2041 0.959 . S
H2048 C2041 0.961 . S
H2049 C2041 0.960 . S
H2050 C2042 0.930 . S
H2051 C2043 0.929 . S
H2052 C2060 0.929 . S
H2053 C2062 0.930 . S
H2054 C2064 0.930 . S
H2055 C2067 0.929 . S
H2056 C2070 0.930 . S
H2057 C2072 0.960 . S
H2058 C2072 0.960 . S
H2059 C2072 0.960 . S
C2060 H2052 0.929 . S
C2060 C2061 1.377 . S
C2060 C2062 1.384 . S
C2061 C2060 1.377 . S
C2061 C2067 1.390 . S
C2062 H2053 0.930 . S
C2062 C2060 1.384 . S
C2062 C2063 1.372 . S
C2063 C2062 1.372 . S
C2063 C2064 1.400 . S
C2063 C2068 1.490 . S
C2064 H2054 0.930 . S
C2064 C2063 1.400 . S
C2064 C2067 1.386 . S
H2065 C2081 0.930 . S
H2066 C2082 0.931 . S
C2067 H2055 0.929 . S
C2067 C2061 1.390 . S
C2067 C2064 1.386 . S
C2068 C2063 1.490 . S
C2068 C2070 1.395 . S
C2068 C2071 1.403 . S
H2069 C2075 0.930 . S
C2070 H2056 0.930 . S
C2070 C2068 1.395 . S
C2070 C2073 1.403 . S
C2071 C2068 1.403 . S
C2071 C2072 1.524 . S
C2071 C2075 1.400 . S
C2072 H2057 0.960 . S
C2072 H2058 0.960 . S
C2072 H2059 0.960 . S
C2072 C2071 1.524 . S
C2073 C2070 1.403 . S
C2073 C2074 1.392 . S
C2073 C2077 1.495 . S
C2074 C2073 1.392 . S
C2074 C2075 1.385 . S
C2074 C2076 1.478 . S
C2075 H2069 0.930 . S
C2075 C2071 1.400 . S
C2075 C2074 1.385 . S
C2076 C2074 1.478 . S
C2076 C2078 1.381 . S
C2076 C2082 1.383 . S
C2077 C2073 1.495 . S
C2077 H2083 0.959 . S
C2077 H2084 0.961 . S
C2077 H2085 0.960 . S
C2078 C2076 1.381 . S
C2078 C2079 1.394 . S
C2078 H2086 0.930 . S
C2079 C2078 1.394 . S
C2079 C2080 1.383 . S
C2079 H2087 0.929 . S
C2080 C2079 1.383 . S
C2080 C2081 1.377 . S
C2081 H2065 0.930 . S
C2081 C2080 1.377 . S
C2081 C2082 1.379 . S
C2082 H2066 0.931 . S
C2082 C2076 1.383 . S
C2082 C2081 1.379 . S
H2083 C2077 0.959 . S
H2084 C2077 0.961 . S
H2085 C2077 0.960 . S
H2086 C2078 0.930 . S
H2087 C2079 0.929 . S
H2088 C2096 0.929 . S
H2089 C2098 0.930 . S
H2090 C2100 0.930 . S
H2091 C2103 0.929 . S
H2092 C2106 0.930 . S
H2093 C2108 0.960 . S
H2094 C2108 0.960 . S
H2095 C2108 0.960 . S
C2096 H2088 0.929 . S
C2096 C2097 1.377 . S
C2096 C2098 1.384 . S
C2097 C2096 1.377 . S
C2097 C2103 1.390 . S
C2098 H2089 0.930 . S
C2098 C2096 1.384 . S
C2098 C2099 1.372 . S
C2099 C2098 1.372 . S
C2099 C2100 1.400 . S
C2099 C2104 1.490 . S
C2100 H2090 0.930 . S
C2100 C2099 1.400 . S
C2100 C2103 1.386 . S
H2101 C2117 0.930 . S
H2102 C2118 0.931 . S
C2103 H2091 0.929 . S
C2103 C2097 1.390 . S
C2103 C2100 1.386 . S
C2104 C2099 1.490 . S
C2104 C2106 1.395 . S
C2104 C2107 1.403 . S
H2105 C2111 0.930 . S
C2106 H2092 0.930 . S
C2106 C2104 1.395 . S
C2106 C2109 1.403 . S
C2107 C2104 1.403 . S
C2107 C2108 1.524 . S
C2107 C2111 1.400 . S
C2108 H2093 0.960 . S
C2108 H2094 0.960 . S
C2108 H2095 0.960 . S
C2108 C2107 1.524 . S
C2109 C2106 1.403 . S
C2109 C2110 1.392 . S
C2109 C2113 1.495 . S
C2110 C2109 1.392 . S
C2110 C2111 1.385 . S
C2110 C2112 1.478 . S
C2111 H2105 0.930 . S
C2111 C2107 1.400 . S
C2111 C2110 1.385 . S
C2112 C2110 1.478 . S
C2112 C2114 1.381 . S
C2112 C2118 1.383 . S
C2113 C2109 1.495 . S
C2113 H2119 0.959 . S
C2113 H2120 0.961 . S
C2113 H2121 0.960 . S
C2114 C2112 1.381 . S
C2114 C2115 1.394 . S
C2114 H2122 0.930 . S
C2115 C2114 1.394 . S
C2115 C2116 1.383 . S
C2115 H2123 0.929 . S
C2116 C2115 1.383 . S
C2116 C2117 1.377 . S
C2117 H2101 0.930 . S
C2117 C2116 1.377 . S
C2117 C2118 1.379 . S
C2118 H2102 0.931 . S
C2118 C2112 1.383 . S
C2118 C2117 1.379 . S
H2119 C2113 0.959 . S
H2120 C2113 0.961 . S
H2121 C2113 0.960 . S
H2122 C2114 0.930 . S
H2123 C2115 0.929 . S
H2124 C2132 0.929 . S
H2125 C2134 0.930 . S
H2126 C2136 0.930 . S
H2127 C2139 0.929 . S
H2128 C2142 0.930 . S
H2129 C2144 0.960 . S
H2130 C2144 0.960 . S
H2131 C2144 0.960 . S
C2132 H2124 0.929 . S
C2132 C2133 1.377 . S
C2132 C2134 1.384 . S
C2133 C2132 1.377 . S
C2133 C2139 1.390 . S
C2134 H2125 0.930 . S
C2134 C2132 1.384 . S
C2134 C2135 1.372 . S
C2135 C2134 1.372 . S
C2135 C2136 1.400 . S
C2135 C2140 1.490 . S
C2136 H2126 0.930 . S
C2136 C2135 1.400 . S
C2136 C2139 1.386 . S
H2137 C2153 0.930 . S
H2138 C2154 0.931 . S
C2139 H2127 0.929 . S
C2139 C2133 1.390 . S
C2139 C2136 1.386 . S
C2140 C2135 1.490 . S
C2140 C2142 1.395 . S
C2140 C2143 1.403 . S
H2141 C2147 0.930 . S
C2142 H2128 0.930 . S
C2142 C2140 1.395 . S
C2142 C2145 1.403 . S
C2143 C2140 1.403 . S
C2143 C2144 1.524 . S
C2143 C2147 1.400 . S
C2144 H2129 0.960 . S
C2144 H2130 0.960 . S
C2144 H2131 0.960 . S
C2144 C2143 1.524 . S
C2145 C2142 1.403 . S
C2145 C2146 1.392 . S
C2145 C2149 1.495 . S
C2146 C2145 1.392 . S
C2146 C2147 1.385 . S
C2146 C2148 1.478 . S
C2147 H2141 0.930 . S
C2147 C2143 1.400 . S
C2147 C2146 1.385 . S
C2148 C2146 1.478 . S
C2148 C2150 1.381 . S
C2148 C2154 1.383 . S
C2149 C2145 1.495 . S
C2149 H2155 0.959 . S
C2149 H2156 0.961 . S
C2149 H2157 0.960 . S
C2150 C2148 1.381 . S
C2150 C2151 1.394 . S
C2150 H2158 0.930 . S
C2151 C2150 1.394 . S
C2151 C2152 1.383 . S
C2151 H2159 0.929 . S
C2152 C2151 1.383 . S
C2152 C2153 1.377 . S
C2153 H2137 0.930 . S
C2153 C2152 1.377 . S
C2153 C2154 1.379 . S
C2154 H2138 0.931 . S
C2154 C2148 1.383 . S
C2154 C2153 1.379 . S
H2155 C2149 0.959 . S
H2156 C2149 0.961 . S
H2157 C2149 0.960 . S
H2158 C2150 0.930 . S
H2159 C2151 0.929 . S
H2160 C2168 0.929 . S
H2161 C2170 0.930 . S
H2162 C2172 0.930 . S
H2163 C2175 0.929 . S
H2164 C2178 0.930 . S
H2165 C2180 0.960 . S
H2166 C2180 0.960 . S
H2167 C2180 0.960 . S
C2168 H2160 0.929 . S
C2168 C2169 1.377 . S
C2168 C2170 1.384 . S
C2169 C2168 1.377 . S
C2169 C2175 1.390 . S
C2170 H2161 0.930 . S
C2170 C2168 1.384 . S
C2170 C2171 1.372 . S
C2171 C2170 1.372 . S
C2171 C2172 1.400 . S
C2171 C2176 1.490 . S
C2172 H2162 0.930 . S
C2172 C2171 1.400 . S
C2172 C2175 1.386 . S
H2173 C2189 0.930 . S
H2174 C2190 0.931 . S
C2175 H2163 0.929 . S
C2175 C2169 1.390 . S
C2175 C2172 1.386 . S
C2176 C2171 1.490 . S
C2176 C2178 1.395 . S
C2176 C2179 1.403 . S
H2177 C2183 0.930 . S
C2178 H2164 0.930 . S
C2178 C2176 1.395 . S
C2178 C2181 1.403 . S
C2179 C2176 1.403 . S
C2179 C2180 1.524 . S
C2179 C2183 1.400 . S
C2180 H2165 0.960 . S
C2180 H2166 0.960 . S
C2180 H2167 0.960 . S
C2180 C2179 1.524 . S
C2181 C2178 1.403 . S
C2181 C2182 1.392 . S
C2181 C2185 1.495 . S
C2182 C2181 1.392 . S
C2182 C2183 1.385 . S
C2182 C2184 1.478 . S
C2183 H2177 0.930 . S
C2183 C2179 1.400 . S
C2183 C2182 1.385 . S
C2184 C2182 1.478 . S
C2184 C2186 1.381 . S
C2184 C2190 1.383 . S
C2185 C2181 1.495 . S
C2185 H2191 0.959 . S
C2185 H2192 0.961 . S
C2185 H2193 0.960 . S
C2186 C2184 1.381 . S
C2186 C2187 1.394 . S
C2186 H2194 0.930 . S
C2187 C2186 1.394 . S
C2187 C2188 1.383 . S
C2187 H2195 0.929 . S
C2188 C2187 1.383 . S
C2188 C2189 1.377 . S
C2189 H2173 0.930 . S
C2189 C2188 1.377 . S
C2189 C2190 1.379 . S
C2190 H2174 0.931 . S
C2190 C2184 1.383 . S
C2190 C2189 1.379 . S
H2191 C2185 0.959 . S
H2192 C2185 0.961 . S
H2193 C2185 0.960 . S
H2194 C2186 0.930 . S
H2195 C2187 0.929 . S
H2196 C2204 0.929 . S
H2197 C2206 0.930 . S
H2198 C2208 0.930 . S
H2199 C2211 0.929 . S
H2200 C2214 0.930 . S
H2201 C2216 0.960 . S
H2202 C2216 0.960 . S
H2203 C2216 0.960 . S
C2204 H2196 0.929 . S
C2204 C2205 1.377 . S
C2204 C2206 1.384 . S
C2205 C2204 1.377 . S
C2205 C2211 1.390 . S
C2206 H2197 0.930 . S
C2206 C2204 1.384 . S
C2206 C2207 1.372 . S
C2207 C2206 1.372 . S
C2207 C2208 1.400 . S
C2207 C2212 1.490 . S
C2208 H2198 0.930 . S
C2208 C2207 1.400 . S
C2208 C2211 1.386 . S
H2209 C2225 0.930 . S
H2210 C2226 0.931 . S
C2211 H2199 0.929 . S
C2211 C2205 1.390 . S
C2211 C2208 1.386 . S
C2212 C2207 1.490 . S
C2212 C2214 1.395 . S
C2212 C2215 1.403 . S
H2213 C2219 0.930 . S
C2214 H2200 0.930 . S
C2214 C2212 1.395 . S
C2214 C2217 1.403 . S
C2215 C2212 1.403 . S
C2215 C2216 1.524 . S
C2215 C2219 1.400 . S
C2216 H2201 0.960 . S
C2216 H2202 0.960 . S
C2216 H2203 0.960 . S
C2216 C2215 1.524 . S
C2217 C2214 1.403 . S
C2217 C2218 1.392 . S
C2217 C2221 1.495 . S
C2218 C2217 1.392 . S
C2218 C2219 1.385 . S
C2218 C2220 1.478 . S
C2219 H2213 0.930 . S
C2219 C2215 1.400 . S
C2219 C2218 1.385 . S
C2220 C2218 1.478 . S
C2220 C2222 1.381 . S
C2220 C2226 1.383 . S
C2221 C2217 1.495 . S
C2221 H2227 0.959 . S
C2221 H2228 0.961 . S
C2221 H2229 0.960 . S
C2222 C2220 1.381 . S
C2222 C2223 1.394 . S
C2222 H2230 0.930 . S
C2223 C2222 1.394 . S
C2223 C2224 1.383 . S
C2223 H2231 0.929 . S
C2224 C2223 1.383 . S
C2224 C2225 1.377 . S
C2225 H2209 0.930 . S
C2225 C2224 1.377 . S
C2225 C2226 1.379 . S
C2226 H2210 0.931 . S
C2226 C2220 1.383 . S
C2226 C2225 1.379 . S
H2227 C2221 0.959 . S
H2228 C2221 0.961 . S
H2229 C2221 0.960 . S
H2230 C2222 0.930 . S
H2231 C2223 0.929 . S
H2232 C2240 0.929 . S
H2233 C2242 0.930 . S
H2234 C2244 0.930 . S
H2235 C2247 0.929 . S
H2236 C2250 0.930 . S
H2237 C2252 0.960 . S
H2238 C2252 0.960 . S
H2239 C2252 0.960 . S
C2240 H2232 0.929 . S
C2240 C2241 1.377 . S
C2240 C2242 1.384 . S
C2241 C2240 1.377 . S
C2241 C2247 1.390 . S
C2242 H2233 0.930 . S
C2242 C2240 1.384 . S
C2242 C2243 1.372 . S
C2243 C2242 1.372 . S
C2243 C2244 1.400 . S
C2243 C2248 1.490 . S
C2244 H2234 0.930 . S
C2244 C2243 1.400 . S
C2244 C2247 1.386 . S
H2245 C2261 0.930 . S
H2246 C2262 0.931 . S
C2247 H2235 0.929 . S
C2247 C2241 1.390 . S
C2247 C2244 1.386 . S
C2248 C2243 1.490 . S
C2248 C2250 1.395 . S
C2248 C2251 1.403 . S
H2249 C2255 0.930 . S
C2250 H2236 0.930 . S
C2250 C2248 1.395 . S
C2250 C2253 1.403 . S
C2251 C2248 1.403 . S
C2251 C2252 1.524 . S
C2251 C2255 1.400 . S
C2252 H2237 0.960 . S
C2252 H2238 0.960 . S
C2252 H2239 0.960 . S
C2252 C2251 1.524 . S
C2253 C2250 1.403 . S
C2253 C2254 1.392 . S
C2253 C2257 1.495 . S
C2254 C2253 1.392 . S
C2254 C2255 1.385 . S
C2254 C2256 1.478 . S
C2255 H2249 0.930 . S
C2255 C2251 1.400 . S
C2255 C2254 1.385 . S
C2256 C2254 1.478 . S
C2256 C2258 1.381 . S
C2256 C2262 1.383 . S
C2257 C2253 1.495 . S
C2257 H2263 0.959 . S
C2257 H2264 0.961 . S
C2257 H2265 0.960 . S
C2258 C2256 1.381 . S
C2258 C2259 1.394 . S
C2258 H2266 0.930 . S
C2259 C2258 1.394 . S
C2259 C2260 1.383 . S
C2259 H2267 0.929 . S
C2260 C2259 1.383 . S
C2260 C2261 1.377 . S
C2261 H2245 0.930 . S
C2261 C2260 1.377 . S
C2261 C2262 1.379 . S
C2262 H2246 0.931 . S
C2262 C2256 1.383 . S
C2262 C2261 1.379 . S
H2263 C2257 0.959 . S
H2264 C2257 0.961 . S
H2265 C2257 0.960 . S
H2266 C2258 0.930 . S
H2267 C2259 0.929 . S
H2268 C2276 0.929 . S
H2269 C2278 0.930 . S
H2270 C2280 0.930 . S
H2271 C2283 0.929 . S
H2272 C2286 0.930 . S
H2273 C2288 0.960 . S
H2274 C2288 0.960 . S
H2275 C2288 0.960 . S
C2276 H2268 0.929 . S
C2276 C2277 1.377 . S
C2276 C2278 1.384 . S
C2277 C2276 1.377 . S
C2277 C2283 1.390 . S
C2278 H2269 0.930 . S
C2278 C2276 1.384 . S
C2278 C2279 1.372 . S
C2279 C2278 1.372 . S
C2279 C2280 1.400 . S
C2279 C2284 1.490 . S
C2280 H2270 0.930 . S
C2280 C2279 1.400 . S
C2280 C2283 1.386 . S
H2281 C2297 0.930 . S
H2282 C2298 0.931 . S
C2283 H2271 0.929 . S
C2283 C2277 1.390 . S
C2283 C2280 1.386 . S
C2284 C2279 1.490 . S
C2284 C2286 1.395 . S
C2284 C2287 1.403 . S
H2285 C2291 0.930 . S
C2286 H2272 0.930 . S
C2286 C2284 1.395 . S
C2286 C2289 1.403 . S
C2287 C2284 1.403 . S
C2287 C2288 1.524 . S
C2287 C2291 1.400 . S
C2288 H2273 0.960 . S
C2288 H2274 0.960 . S
C2288 H2275 0.960 . S
C2288 C2287 1.524 . S
C2289 C2286 1.403 . S
C2289 C2290 1.392 . S
C2289 C2293 1.495 . S
C2290 C2289 1.392 . S
C2290 C2291 1.385 . S
C2290 C2292 1.478 . S
C2291 H2285 0.930 . S
C2291 C2287 1.400 . S
C2291 C2290 1.385 . S
C2292 C2290 1.478 . S
C2292 C2294 1.381 . S
C2292 C2298 1.383 . S
C2293 C2289 1.495 . S
C2293 H2299 0.959 . S
C2293 H2300 0.961 . S
C2293 H2301 0.960 . S
C2294 C2292 1.381 . S
C2294 C2295 1.394 . S
C2294 H2302 0.930 . S
C2295 C2294 1.394 . S
C2295 C2296 1.383 . S
C2295 H2303 0.929 . S
C2296 C2295 1.383 . S
C2296 C2297 1.377 . S
C2297 H2281 0.930 . S
C2297 C2296 1.377 . S
C2297 C2298 1.379 . S
C2298 H2282 0.931 . S
C2298 C2292 1.383 . S
C2298 C2297 1.379 . S
H2299 C2293 0.959 . S
H2300 C2293 0.961 . S
H2301 C2293 0.960 . S
H2302 C2294 0.930 . S
H2303 C2295 0.929 . S
H2304 C2312 0.929 . S
H2305 C2314 0.930 . S
H2306 C2316 0.930 . S
H2307 C2319 0.929 . S
H2308 C2322 0.930 . S
H2309 C2324 0.960 . S
H2310 C2324 0.960 . S
H2311 C2324 0.960 . S
C2312 H2304 0.929 . S
C2312 C2313 1.377 . S
C2312 C2314 1.384 . S
C2313 C2312 1.377 . S
C2313 C2319 1.390 . S
C2314 H2305 0.930 . S
C2314 C2312 1.384 . S
C2314 C2315 1.372 . S
C2315 C2314 1.372 . S
C2315 C2316 1.400 . S
C2315 C2320 1.490 . S
C2316 H2306 0.930 . S
C2316 C2315 1.400 . S
C2316 C2319 1.386 . S
H2317 C2333 0.930 . S
H2318 C2334 0.931 . S
C2319 H2307 0.929 . S
C2319 C2313 1.390 . S
C2319 C2316 1.386 . S
C2320 C2315 1.490 . S
C2320 C2322 1.395 . S
C2320 C2323 1.403 . S
H2321 C2327 0.930 . S
C2322 H2308 0.930 . S
C2322 C2320 1.395 . S
C2322 C2325 1.403 . S
C2323 C2320 1.403 . S
C2323 C2324 1.524 . S
C2323 C2327 1.400 . S
C2324 H2309 0.960 . S
C2324 H2310 0.960 . S
C2324 H2311 0.960 . S
C2324 C2323 1.524 . S
C2325 C2322 1.403 . S
C2325 C2326 1.392 . S
C2325 C2329 1.495 . S
C2326 C2325 1.392 . S
C2326 C2327 1.385 . S
C2326 C2328 1.478 . S
C2327 H2321 0.930 . S
C2327 C2323 1.400 . S
C2327 C2326 1.385 . S
C2328 C2326 1.478 . S
C2328 C2330 1.381 . S
C2328 C2334 1.383 . S
C2329 C2325 1.495 . S
C2329 H2335 0.959 . S
C2329 H2336 0.961 . S
C2329 H2337 0.960 . S
C2330 C2328 1.381 . S
C2330 C2331 1.394 . S
C2330 H2338 0.930 . S
C2331 C2330 1.394 . S
C2331 C2332 1.383 . S
C2331 H2339 0.929 . S
C2332 C2331 1.383 . S
C2332 C2333 1.377 . S
C2333 H2317 0.930 . S
C2333 C2332 1.377 . S
C2333 C2334 1.379 . S
C2334 H2318 0.931 . S
C2334 C2328 1.383 . S
C2334 C2333 1.379 . S
H2335 C2329 0.959 . S
H2336 C2329 0.961 . S
H2337 C2329 0.960 . S
H2338 C2330 0.930 . S
H2339 C2331 0.929 . S
H2340 C2348 0.929 . S
H2341 C2350 0.930 . S
H2342 C2352 0.930 . S
H2343 C2355 0.929 . S
H2344 C2358 0.930 . S
H2345 C2360 0.960 . S
H2346 C2360 0.960 . S
H2347 C2360 0.960 . S
C2348 H2340 0.929 . S
C2348 C2349 1.377 . S
C2348 C2350 1.384 . S
C2349 C2348 1.377 . S
C2349 C2355 1.390 . S
C2350 H2341 0.930 . S
C2350 C2348 1.384 . S
C2350 C2351 1.372 . S
C2351 C2350 1.372 . S
C2351 C2352 1.400 . S
C2351 C2356 1.490 . S
C2352 H2342 0.930 . S
C2352 C2351 1.400 . S
C2352 C2355 1.386 . S
H2353 C2369 0.930 . S
H2354 C2370 0.931 . S
C2355 H2343 0.929 . S
C2355 C2349 1.390 . S
C2355 C2352 1.386 . S
C2356 C2351 1.490 . S
C2356 C2358 1.395 . S
C2356 C2359 1.403 . S
H2357 C2363 0.930 . S
C2358 H2344 0.930 . S
C2358 C2356 1.395 . S
C2358 C2361 1.403 . S
C2359 C2356 1.403 . S
C2359 C2360 1.524 . S
C2359 C2363 1.400 . S
C2360 H2345 0.960 . S
C2360 H2346 0.960 . S
C2360 H2347 0.960 . S
C2360 C2359 1.524 . S
C2361 C2358 1.403 . S
C2361 C2362 1.392 . S
C2361 C2365 1.495 . S
C2362 C2361 1.392 . S
C2362 C2363 1.385 . S
C2362 C2364 1.478 . S
C2363 H2357 0.930 . S
C2363 C2359 1.400 . S
C2363 C2362 1.385 . S
C2364 C2362 1.478 . S
C2364 C2366 1.381 . S
C2364 C2370 1.383 . S
C2365 C2361 1.495 . S
C2365 H2371 0.959 . S
C2365 H2372 0.961 . S
C2365 H2373 0.960 . S
C2366 C2364 1.381 . S
C2366 C2367 1.394 . S
C2366 H2374 0.930 . S
C2367 C2366 1.394 . S
C2367 C2368 1.383 . S
C2367 H2375 0.929 . S
C2368 C2367 1.383 . S
C2368 C2369 1.377 . S
C2369 H2353 0.930 . S
C2369 C2368 1.377 . S
C2369 C2370 1.379 . S
C2370 H2354 0.931 . S
C2370 C2364 1.383 . S
C2370 C2369 1.379 . S
H2371 C2365 0.959 . S
H2372 C2365 0.961 . S
H2373 C2365 0.960 . S
H2374 C2366 0.930 . S
H2375 C2367 0.929 . S
H2376 C2384 0.929 . S
H2377 C2386 0.930 . S
H2378 C2388 0.930 . S
H2379 C2391 0.929 . S
H2380 C2394 0.930 . S
H2381 C2396 0.960 . S
H2382 C2396 0.960 . S
H2383 C2396 0.960 . S
C2384 H2376 0.929 . S
C2384 C2385 1.377 . S
C2384 C2386 1.384 . S
C2385 C2384 1.377 . S
C2385 C2391 1.390 . S
C2386 H2377 0.930 . S
C2386 C2384 1.384 . S
C2386 C2387 1.372 . S
C2387 C2386 1.372 . S
C2387 C2388 1.400 . S
C2387 C2392 1.490 . S
C2388 H2378 0.930 . S
C2388 C2387 1.400 . S
C2388 C2391 1.386 . S
H2389 C2405 0.930 . S
H2390 C2406 0.931 . S
C2391 H2379 0.929 . S
C2391 C2385 1.390 . S
C2391 C2388 1.386 . S
C2392 C2387 1.490 . S
C2392 C2394 1.395 . S
C2392 C2395 1.403 . S
H2393 C2399 0.930 . S
C2394 H2380 0.930 . S
C2394 C2392 1.395 . S
C2394 C2397 1.403 . S
C2395 C2392 1.403 . S
C2395 C2396 1.524 . S
C2395 C2399 1.400 . S
C2396 H2381 0.960 . S
C2396 H2382 0.960 . S
C2396 H2383 0.960 . S
C2396 C2395 1.524 . S
C2397 C2394 1.403 . S
C2397 C2398 1.392 . S
C2397 C2401 1.495 . S
C2398 C2397 1.392 . S
C2398 C2399 1.385 . S
C2398 C2400 1.478 . S
C2399 H2393 0.930 . S
C2399 C2395 1.400 . S
C2399 C2398 1.385 . S
C2400 C2398 1.478 . S
C2400 C2402 1.381 . S
C2400 C2406 1.383 . S
C2401 C2397 1.495 . S
C2401 H2407 0.959 . S
C2401 H2408 0.961 . S
C2401 H2409 0.960 . S
C2402 C2400 1.381 . S
C2402 C2403 1.394 . S
C2402 H2410 0.930 . S
C2403 C2402 1.394 . S
C2403 C2404 1.383 . S
C2403 H2411 0.929 . S
C2404 C2403 1.383 . S
C2404 C2405 1.377 . S
C2405 H2389 0.930 . S
C2405 C2404 1.377 . S
C2405 C2406 1.379 . S
C2406 H2390 0.931 . S
C2406 C2400 1.383 . S
C2406 C2405 1.379 . S
H2407 C2401 0.959 . S
H2408 C2401 0.961 . S
H2409 C2401 0.960 . S
H2410 C2402 0.930 . S
H2411 C2403 0.929 . S
H2412 C2420 0.929 . S
H2413 C2422 0.930 . S
H2414 C2424 0.930 . S
H2415 C2427 0.929 . S
H2416 C2430 0.930 . S
H2417 C2432 0.960 . S
H2418 C2432 0.960 . S
H2419 C2432 0.960 . S
C2420 H2412 0.929 . S
C2420 C2421 1.377 . S
C2420 C2422 1.384 . S
C2421 C2420 1.377 . S
C2421 C2427 1.390 . S
C2422 H2413 0.930 . S
C2422 C2420 1.384 . S
C2422 C2423 1.372 . S
C2423 C2422 1.372 . S
C2423 C2424 1.400 . S
C2423 C2428 1.490 . S
C2424 H2414 0.930 . S
C2424 C2423 1.400 . S
C2424 C2427 1.386 . S
H2425 C2441 0.930 . S
H2426 C2442 0.931 . S
C2427 H2415 0.929 . S
C2427 C2421 1.390 . S
C2427 C2424 1.386 . S
C2428 C2423 1.490 . S
C2428 C2430 1.395 . S
C2428 C2431 1.403 . S
H2429 C2435 0.930 . S
C2430 H2416 0.930 . S
C2430 C2428 1.395 . S
C2430 C2433 1.403 . S
C2431 C2428 1.403 . S
C2431 C2432 1.524 . S
C2431 C2435 1.400 . S
C2432 H2417 0.960 . S
C2432 H2418 0.960 . S
C2432 H2419 0.960 . S
C2432 C2431 1.524 . S
C2433 C2430 1.403 . S
C2433 C2434 1.392 . S
C2433 C2437 1.495 . S
C2434 C2433 1.392 . S
C2434 C2435 1.385 . S
C2434 C2436 1.478 . S
C2435 H2429 0.930 . S
C2435 C2431 1.400 . S
C2435 C2434 1.385 . S
C2436 C2434 1.478 . S
C2436 C2438 1.381 . S
C2436 C2442 1.383 . S
C2437 C2433 1.495 . S
C2437 H2443 0.959 . S
C2437 H2444 0.961 . S
C2437 H2445 0.960 . S
C2438 C2436 1.381 . S
C2438 C2439 1.394 . S
C2438 H2446 0.930 . S
C2439 C2438 1.394 . S
C2439 C2440 1.383 . S
C2439 H2447 0.929 . S
C2440 C2439 1.383 . S
C2440 C2441 1.377 . S
C2441 H2425 0.930 . S
C2441 C2440 1.377 . S
C2441 C2442 1.379 . S
C2442 H2426 0.931 . S
C2442 C2436 1.383 . S
C2442 C2441 1.379 . S
H2443 C2437 0.959 . S
H2444 C2437 0.961 . S
H2445 C2437 0.960 . S
H2446 C2438 0.930 . S
H2447 C2439 0.929 . S
H2448 C2456 0.929 . S
H2449 C2458 0.930 . S
H2450 C2460 0.930 . S
H2451 C2463 0.929 . S
H2452 C2466 0.930 . S
H2453 C2468 0.960 . S
H2454 C2468 0.960 . S
H2455 C2468 0.960 . S
C2456 H2448 0.929 . S
C2456 C2457 1.377 . S
C2456 C2458 1.384 . S
C2457 C2456 1.377 . S
C2457 C2463 1.390 . S
C2458 H2449 0.930 . S
C2458 C2456 1.384 . S
C2458 C2459 1.372 . S
C2459 C2458 1.372 . S
C2459 C2460 1.400 . S
C2459 C2464 1.490 . S
C2460 H2450 0.930 . S
C2460 C2459 1.400 . S
C2460 C2463 1.386 . S
H2461 C2477 0.930 . S
H2462 C2478 0.931 . S
C2463 H2451 0.929 . S
C2463 C2457 1.390 . S
C2463 C2460 1.386 . S
C2464 C2459 1.490 . S
C2464 C2466 1.395 . S
C2464 C2467 1.403 . S
H2465 C2471 0.930 . S
C2466 H2452 0.930 . S
C2466 C2464 1.395 . S
C2466 C2469 1.403 . S
C2467 C2464 1.403 . S
C2467 C2468 1.524 . S
C2467 C2471 1.400 . S
C2468 H2453 0.960 . S
C2468 H2454 0.960 . S
C2468 H2455 0.960 . S
C2468 C2467 1.524 . S
C2469 C2466 1.403 . S
C2469 C2470 1.392 . S
C2469 C2473 1.495 . S
C2470 C2469 1.392 . S
C2470 C2471 1.385 . S
C2470 C2472 1.478 . S
C2471 H2465 0.930 . S
C2471 C2467 1.400 . S
C2471 C2470 1.385 . S
C2472 C2470 1.478 . S
C2472 C2474 1.381 . S
C2472 C2478 1.383 . S
C2473 C2469 1.495 . S
C2473 H2479 0.959 . S
C2473 H2480 0.961 . S
C2473 H2481 0.960 . S
C2474 C2472 1.381 . S
C2474 C2475 1.394 . S
C2474 H2482 0.930 . S
C2475 C2474 1.394 . S
C2475 C2476 1.383 . S
C2475 H2483 0.929 . S
C2476 C2475 1.383 . S
C2476 C2477 1.377 . S
C2477 H2461 0.930 . S
C2477 C2476 1.377 . S
C2477 C2478 1.379 . S
C2478 H2462 0.931 . S
C2478 C2472 1.383 . S
C2478 C2477 1.379 . S
H2479 C2473 0.959 . S
H2480 C2473 0.961 . S
H2481 C2473 0.960 . S
H2482 C2474 0.930 . S
H2483 C2475 0.929 . S
H2484 C2492 0.929 . S
H2485 C2494 0.930 . S
H2486 C2496 0.930 . S
H2487 C2499 0.929 . S
H2488 C2502 0.930 . S
H2489 C2504 0.960 . S
H2490 C2504 0.960 . S
H2491 C2504 0.960 . S
C2492 H2484 0.929 . S
C2492 C2493 1.377 . S
C2492 C2494 1.384 . S
C2493 C2492 1.377 . S
C2493 C2499 1.390 . S
C2494 H2485 0.930 . S
C2494 C2492 1.384 . S
C2494 C2495 1.372 . S
C2495 C2494 1.372 . S
C2495 C2496 1.400 . S
C2495 C2500 1.490 . S
C2496 H2486 0.930 . S
C2496 C2495 1.400 . S
C2496 C2499 1.386 . S
H2497 C2513 0.930 . S
H2498 C2514 0.931 . S
C2499 H2487 0.929 . S
C2499 C2493 1.390 . S
C2499 C2496 1.386 . S
C2500 C2495 1.490 . S
C2500 C2502 1.395 . S
C2500 C2503 1.403 . S
H2501 C2507 0.930 . S
C2502 H2488 0.930 . S
C2502 C2500 1.395 . S
C2502 C2505 1.403 . S
C2503 C2500 1.403 . S
C2503 C2504 1.524 . S
C2503 C2507 1.400 . S
C2504 H2489 0.960 . S
C2504 H2490 0.960 . S
C2504 H2491 0.960 . S
C2504 C2503 1.524 . S
C2505 C2502 1.403 . S
C2505 C2506 1.392 . S
C2505 C2509 1.495 . S
C2506 C2505 1.392 . S
C2506 C2507 1.385 . S
C2506 C2508 1.478 . S
C2507 H2501 0.930 . S
C2507 C2503 1.400 . S
C2507 C2506 1.385 . S
C2508 C2506 1.478 . S
C2508 C2510 1.381 . S
C2508 C2514 1.383 . S
C2509 C2505 1.495 . S
C2509 H2515 0.959 . S
C2509 H2516 0.961 . S
C2509 H2517 0.960 . S
C2510 C2508 1.381 . S
C2510 C2511 1.394 . S
C2510 H2518 0.930 . S
C2511 C2510 1.394 . S
C2511 C2512 1.383 . S
C2511 H2519 0.929 . S
C2512 C2511 1.383 . S
C2512 C2513 1.377 . S
C2513 H2497 0.930 . S
C2513 C2512 1.377 . S
C2513 C2514 1.379 . S
C2514 H2498 0.931 . S
C2514 C2508 1.383 . S
C2514 C2513 1.379 . S
H2515 C2509 0.959 . S
H2516 C2509 0.961 . S
H2517 C2509 0.960 . S
H2518 C2510 0.930 . S
H2519 C2511 0.929 . S
H2520 C2528 0.929 . S
H2521 C2530 0.930 . S
H2522 C2532 0.930 . S
H2523 C2535 0.929 . S
H2524 C2538 0.930 . S
H2525 C2540 0.960 . S
H2526 C2540 0.960 . S
H2527 C2540 0.960 . S
C2528 H2520 0.929 . S
C2528 C2529 1.377 . S
C2528 C2530 1.384 . S
C2529 C2528 1.377 . S
C2529 C2535 1.390 . S
C2530 H2521 0.930 . S
C2530 C2528 1.384 . S
C2530 C2531 1.372 . S
C2531 C2530 1.372 . S
C2531 C2532 1.400 . S
C2531 C2536 1.490 . S
C2532 H2522 0.930 . S
C2532 C2531 1.400 . S
C2532 C2535 1.386 . S
H2533 C2549 0.930 . S
H2534 C2550 0.931 . S
C2535 H2523 0.929 . S
C2535 C2529 1.390 . S
C2535 C2532 1.386 . S
C2536 C2531 1.490 . S
C2536 C2538 1.395 . S
C2536 C2539 1.403 . S
H2537 C2543 0.930 . S
C2538 H2524 0.930 . S
C2538 C2536 1.395 . S
C2538 C2541 1.403 . S
C2539 C2536 1.403 . S
C2539 C2540 1.524 . S
C2539 C2543 1.400 . S
C2540 H2525 0.960 . S
C2540 H2526 0.960 . S
C2540 H2527 0.960 . S
C2540 C2539 1.524 . S
C2541 C2538 1.403 . S
C2541 C2542 1.392 . S
C2541 C2545 1.495 . S
C2542 C2541 1.392 . S
C2542 C2543 1.385 . S
C2542 C2544 1.478 . S
C2543 H2537 0.930 . S
C2543 C2539 1.400 . S
C2543 C2542 1.385 . S
C2544 C2542 1.478 . S
C2544 C2546 1.381 . S
C2544 C2550 1.383 . S
C2545 C2541 1.495 . S
C2545 H2551 0.959 . S
C2545 H2552 0.961 . S
C2545 H2553 0.960 . S
C2546 C2544 1.381 . S
C2546 C2547 1.394 . S
C2546 H2554 0.930 . S
C2547 C2546 1.394 . S
C2547 C2548 1.383 . S
C2547 H2555 0.929 . S
C2548 C2547 1.383 . S
C2548 C2549 1.377 . S
C2549 H2533 0.930 . S
C2549 C2548 1.377 . S
C2549 C2550 1.379 . S
C2550 H2534 0.931 . S
C2550 C2544 1.383 . S
C2550 C2549 1.379 . S
H2551 C2545 0.959 . S
H2552 C2545 0.961 . S
H2553 C2545 0.960 . S
H2554 C2546 0.930 . S
H2555 C2547 0.929 . S
H2556 C2564 0.929 . S
H2557 C2566 0.930 . S
H2558 C2568 0.930 . S
H2559 C2571 0.929 . S
H2560 C2574 0.930 . S
H2561 C2576 0.960 . S
H2562 C2576 0.960 . S
H2563 C2576 0.960 . S
C2564 H2556 0.929 . S
C2564 C2565 1.377 . S
C2564 C2566 1.384 . S
C2565 C2564 1.377 . S
C2565 C2571 1.390 . S
C2566 H2557 0.930 . S
C2566 C2564 1.384 . S
C2566 C2567 1.372 . S
C2567 C2566 1.372 . S
C2567 C2568 1.400 . S
C2567 C2572 1.490 . S
C2568 H2558 0.930 . S
C2568 C2567 1.400 . S
C2568 C2571 1.386 . S
H2569 C2585 0.930 . S
H2570 C2586 0.931 . S
C2571 H2559 0.929 . S
C2571 C2565 1.390 . S
C2571 C2568 1.386 . S
C2572 C2567 1.490 . S
C2572 C2574 1.395 . S
C2572 C2575 1.403 . S
H2573 C2579 0.930 . S
C2574 H2560 0.930 . S
C2574 C2572 1.395 . S
C2574 C2577 1.403 . S
C2575 C2572 1.403 . S
C2575 C2576 1.524 . S
C2575 C2579 1.400 . S
C2576 H2561 0.960 . S
C2576 H2562 0.960 . S
C2576 H2563 0.960 . S
C2576 C2575 1.524 . S
C2577 C2574 1.403 . S
C2577 C2578 1.392 . S
C2577 C2581 1.495 . S
C2578 C2577 1.392 . S
C2578 C2579 1.385 . S
C2578 C2580 1.478 . S
C2579 H2573 0.930 . S
C2579 C2575 1.400 . S
C2579 C2578 1.385 . S
C2580 C2578 1.478 . S
C2580 C2582 1.381 . S
C2580 C2586 1.383 . S
C2581 C2577 1.495 . S
C2581 H2587 0.959 . S
C2581 H2588 0.961 . S
C2581 H2589 0.960 . S
C2582 C2580 1.381 . S
C2582 C2583 1.394 . S
C2582 H2590 0.930 . S
C2583 C2582 1.394 . S
C2583 C2584 1.383 . S
C2583 H2591 0.929 . S
C2584 C2583 1.383 . S
C2584 C2585 1.377 . S
C2585 H2569 0.930 . S
C2585 C2584 1.377 . S
C2585 C2586 1.379 . S
C2586 H2570 0.931 . S
C2586 C2580 1.383 . S
C2586 C2585 1.379 . S
H2587 C2581 0.959 . S
H2588 C2581 0.961 . S
H2589 C2581 0.960 . S
H2590 C2582 0.930 . S
H2591 C2583 0.929 . S
C892 C689 1.599 . S
C873 C56 1.573 . S
C928 C694 1.332 . S
C909 C154 1.237 . S
C964 C695 1.547 . S
C945 C236 1.525 . S
C981 C310 0.815 . S
C1000 C699 0.640 . S
C1017 C394 1.224 . S
C1036 C702 1.282 . S
C1072 C703 1.514 . S
C1053 C476 1.519 . S
C1089 C574 0.814 . S
C1108 C680 0.601 . S
C1125 C656 1.575 . S
C1144 C696 1.582 . S
C1180 C734 2.322 . S
C1161 C67 2.422 . S
C1197 C139 1.524 . S
C1216 C760 1.501 . S
C1252 C712 1.321 . S
C1233 C238 1.236 . S
C1288 C767 1.486 . S
C1269 C308 1.476 . S
C1305 C392 1.507 . S
C1324 C721 1.505 . S
C1360 C763 2.308 . S
C1341 C487 2.409 . S
C1377 C559 1.544 . S
C1396 C727 1.498 . S
C1413 C658 1.230 . S
C1432 C758 1.309 . S
C1449 C58 1.224 . S
C1468 C766 1.252 . S
C1485 C403 1.524 . S
C1504 C753 1.469 . S
C1540 C731 1.262 . S
C1521 C478 1.241 . S
C1576 C759 1.462 . S
C1557 C572 1.482 . S
C1593 C643 2.426 . S
C1612 C726 2.353 . S
C1629 C223 2.409 . S
C1648 C744 2.328 . S
C1684 C735 1.496 . S
C1665 C319 1.545 . S
C1701 C152 1.501 . S
C1720 C728 1.496 . S
C1737 C644 1.546 . S
C1756 C790 1.516 . S
C1773 C406 1.211 . S
C1792 C785 1.278 . S
C1828 C799 1.445 . S
C1809 C488 1.498 . S
C1864 C776 0.496 . S
C1845 C562 0.808 . S
C1881 C142 1.211 . S
C1900 C792 1.283 . S
C1936 C791 1.484 . S
C1917 C224 1.490 . S
C1953 C322 0.813 . S
C1972 C795 0.405 . S
C1989 C68 1.547 . S
C2008 C798 1.501 . S
C2025 C655 2.432 . S
C2044 C824 2.366 . S
C2080 C840 1.463 . S
C2061 C391 1.541 . S
C2097 C490 1.246 . S
C2116 C822 1.289 . S
C2133 C560 1.496 . S
C2152 C855 1.504 . S
C2188 C831 1.449 . S
C2169 C140 1.494 . S
C2205 C235 2.446 . S
C2224 C849 2.359 . S
C2260 C827 1.429 . S
C2241 C307 1.527 . S
C2296 C862 1.287 . S
C2277 C70 1.249 . S
C2332 C854 1.287 . S
C2313 C646 1.256 . S
C2349 C151 1.539 . S
C2368 C859 1.441 . S
C2385 C226 1.246 . S
C2404 C830 1.336 . S
C2440 C863 1.496 . S
C2421 C320 1.498 . S
C2457 C55 2.432 . S
C2476 C817 2.367 . S
C2493 C475 2.447 . S
C2512 C856 2.355 . S
C2548 C808 1.460 . S
C2529 C571 1.531 . S
C2584 C823 1.492 . S
C2565 C404 1.489 . S
