# Generated by pormake.
# Topology zzz, (3,6)-cn, num edge types: 1
# Building blocks:
#     Node 0, Type 0, BuildingBlock: OLANEW_clean_sbu_2, # of connection points: 3
#     Node 1, Type 0, BuildingBlock: OLANEW_clean_sbu_2, # of connection points: 3
#     Node 2, Type 0, BuildingBlock: OLANEW_clean_sbu_2, # of connection points: 3
#     Node 3, Type 0, BuildingBlock: OLANEW_clean_sbu_2, # of connection points: 3
#     Node 4, Type 0, BuildingBlock: OLANEW_clean_sbu_2, # of connection points: 3
#     Node 5, Type 0, BuildingBlock: OLANEW_clean_sbu_2, # of connection points: 3
#     Node 6, Type 0, BuildingBlock: OLANEW_clean_sbu_2, # of connection points: 3
#     Node 7, Type 0, BuildingBlock: OLANEW_clean_sbu_2, # of connection points: 3
#     Node 8, Type 1, BuildingBlock: NUHQIS_clean_sbu_0, # of connection points: 6
#     Node 9, Type 1, BuildingBlock: NUHQIS_clean_sbu_0, # of connection points: 6
#     Node 10, Type 1, BuildingBlock: NUHQIS_clean_sbu_0, # of connection points: 6
#     Node 11, Type 1, BuildingBlock: NUHQIS_clean_sbu_0, # of connection points: 6
#     Edge 12, Type (0, 1), BuildingBlock: AJUNOK_clean_linker_0, # of connection points: 2
#     Edge 13, Type (0, 1), BuildingBlock: AJUNOK_clean_linker_0, # of connection points: 2
#     Edge 14, Type (0, 1), BuildingBlock: AJUNOK_clean_linker_0, # of connection points: 2
#     Edge 15, Type (0, 1), BuildingBlock: AJUNOK_clean_linker_0, # of connection points: 2
#     Edge 16, Type (0, 1), BuildingBlock: AJUNOK_clean_linker_0, # of connection points: 2
#     Edge 17, Type (0, 1), BuildingBlock: AJUNOK_clean_linker_0, # of connection points: 2
#     Edge 18, Type (0, 1), BuildingBlock: AJUNOK_clean_linker_0, # of connection points: 2
#     Edge 19, Type (0, 1), BuildingBlock: AJUNOK_clean_linker_0, # of connection points: 2
#     Edge 20, Type (0, 1), BuildingBlock: AJUNOK_clean_linker_0, # of connection points: 2
#     Edge 21, Type (0, 1), BuildingBlock: AJUNOK_clean_linker_0, # of connection points: 2
#     Edge 22, Type (0, 1), BuildingBlock: AJUNOK_clean_linker_0, # of connection points: 2
#     Edge 23, Type (0, 1), BuildingBlock: AJUNOK_clean_linker_0, # of connection points: 2
#     Edge 24, Type (0, 1), BuildingBlock: AJUNOK_clean_linker_0, # of connection points: 2
#     Edge 25, Type (0, 1), BuildingBlock: AJUNOK_clean_linker_0, # of connection points: 2
#     Edge 26, Type (0, 1), BuildingBlock: AJUNOK_clean_linker_0, # of connection points: 2
#     Edge 27, Type (0, 1), BuildingBlock: AJUNOK_clean_linker_0, # of connection points: 2
#     Edge 28, Type (0, 1), BuildingBlock: AJUNOK_clean_linker_0, # of connection points: 2
#     Edge 29, Type (0, 1), BuildingBlock: AJUNOK_clean_linker_0, # of connection points: 2
#     Edge 30, Type (0, 1), BuildingBlock: AJUNOK_clean_linker_0, # of connection points: 2
#     Edge 31, Type (0, 1), BuildingBlock: AJUNOK_clean_linker_0, # of connection points: 2
#     Edge 32, Type (0, 1), BuildingBlock: AJUNOK_clean_linker_0, # of connection points: 2
#     Edge 33, Type (0, 1), BuildingBlock: AJUNOK_clean_linker_0, # of connection points: 2
#     Edge 34, Type (0, 1), BuildingBlock: AJUNOK_clean_linker_0, # of connection points: 2
#     Edge 35, Type (0, 1), BuildingBlock: AJUNOK_clean_linker_0, # of connection points: 2
# Relax obj value: 0.280
# Max RMSD: 0.175
# Mean RMSD: 0.150
data_MOF--net-zzz--node1-OLANEW_clean_sbu_2--node2-NUHQIS_clean_sbu_0--edge1-AJUNOK_clean_linker_0
_symmetry_space_group_name_H-M    P1
_symmetry_Int_Tables_number       1
_symmetry_cell_setting            triclinic
loop_
_symmetry_equiv_pos_as_xyz
'x, y, z'
_cell_length_a     42.763829
_cell_length_b     42.712382
_cell_length_c     12.183899
_cell_angle_alpha  89.654913
_cell_angle_beta   90.038207
_cell_angle_gamma 89.985977
loop_
_atom_site_label
_atom_site_type_symbol
_atom_site_fract_x
_atom_site_fract_y
_atom_site_fract_z
_atom_type_partial_charge
O0 O 0.71853 0.48653 0.29425 0.0
Cd1 Cd 0.66826 0.48948 0.3876 0.0
O2 O 0.73095 0.45118 0.41798 0.0
Cd3 Cd 0.76971 0.42638 0.49306 0.0
O4 O 0.81643 0.4432 0.52872 0.0
C5 C 0.81833 0.46754 0.58776 0.0
O6 O 0.79275 0.47946 0.63011 0.0
C7 C 0.73805 0.46706 0.33314 0.0
C8 C 0.62147 0.4915 0.23017 0.0
O9 O 0.63169 0.51673 0.27393 0.0
O10 O 0.63278 0.46533 0.26341 0.0
O11 O 0.97519 0.73815 0.32394 0.0
Cd12 Cd 0.95891 0.68693 0.39062 0.0
O13 O 0.01697 0.73669 0.42928 0.0
Cd14 Cd 0.05401 0.76578 0.49579 0.0
O15 O 0.05056 0.81471 0.54253 0.0
C16 C 0.02602 0.82175 0.59581 0.0
O17 O 0.00655 0.79932 0.6241 0.0
C18 C 0.00027 0.75063 0.35794 0.0
C19 C 0.9724 0.6429 0.23052 0.0
O20 O 0.94682 0.65852 0.22847 0.0
O21 O 0.9914 0.64756 0.31015 0.0
O22 O 0.75427 0.97041 0.25829 0.0
Cd23 Cd 0.80313 0.94505 0.3115 0.0
O24 O 0.75871 0.00252 0.3973 0.0
Cd25 Cd 0.73405 0.03322 0.50867 0.0
O26 O 0.6865 0.02928 0.5678 0.0
C27 C 0.6807 0.00929 0.64261 0.0
O28 O 0.70389 0.99375 0.68806 0.0
C29 C 0.74338 0.99273 0.31498 0.0
C30 C 0.85383 0.9661 0.18893 0.0
O31 O 0.83569 0.9446 0.1529 0.0
O32 O 0.84786 0.9779 0.28308 0.0
O33 O 0.45772 0.76311 0.35765 0.0
Cd34 Cd 0.47151 0.8152 0.42398 0.0
O35 O 0.49068 0.74383 0.47646 0.0
Cd36 Cd 0.52243 0.71648 0.58158 0.0
O37 O 0.57054 0.70663 0.65565 0.0
C38 C 0.58226 0.67942 0.67202 0.0
O39 O 0.57135 0.70763 0.65691 0.0
C40 C 0.47136 0.73926 0.39839 0.0
C41 C 0.47497 0.85917 0.25377 0.0
O42 O 0.49815 0.84125 0.27643 0.0
O43 O 0.4501 0.85635 0.31171 0.0
O44 O 0.26075 0.55011 0.10738 0.0
Cd45 Cd 0.31395 0.55072 0.03869 0.0
O46 O 0.26277 0.4991 0.13178 0.0
Cd47 Cd 0.23622 0.4563 0.16161 0.0
O48 O 0.1883 0.44771 0.11071 0.0
C49 C 0.18235 0.46066 0.01893 0.0
O50 O 0.20528 0.47471 0.96642 0.0
C51 C 0.24793 0.52483 0.13898 0.0
C52 C 0.35519 0.5348 0.20662 0.0
O53 O 0.34391 0.56249 0.19768 0.0
O54 O 0.34669 0.51436 0.13608 0.0
O55 O 0.96998 0.27319 0.15255 0.0
Cd56 Cd 0.97302 0.32699 0.08675 0.0
O57 O 0.00354 0.25537 0.03183 0.0
Cd58 Cd 0.03772 0.22116 0.9734 0.0
O59 O 0.08875 0.20744 0.94663 0.0
C60 C 0.10007 0.17972 0.94178 0.0
O61 O 0.08959 0.20833 0.9462 0.0
C62 C 0.9857 0.25063 0.11362 0.0
C63 C 0.9812 0.36616 0.26734 0.0
O64 O 0.954 0.3571 0.23707 0.0
O65 O 0.00474 0.35694 0.21102 0.0
O66 O 0.22903 0.96187 0.14085 0.0
Cd67 Cd 0.17364 0.965 0.09577 0.0
O68 O 0.23018 0.01298 0.15786 0.0
Cd69 Cd 0.258 0.05543 0.17229 0.0
O70 O 0.30439 0.06445 0.10772 0.0
C71 C 0.30947 0.05015 0.01839 0.0
O72 O 0.2864 0.0343 0.97401 0.0
C73 C 0.24413 0.98668 0.16232 0.0
C74 C 0.14019 0.97997 0.28415 0.0
O75 O 0.14758 0.95162 0.26229 0.0
O76 O 0.14815 0.00138 0.21551 0.0
O77 O 0.55442 0.22569 0.17445 0.0
Cd78 Cd 0.55201 0.17183 0.1081 0.0
O79 O 0.50875 0.23555 0.09919 0.0
Cd80 Cd 0.47278 0.26933 0.05048 0.0
O81 O 0.45579 0.3157 0.00464 0.0
C82 C 0.44963 0.32135 0.90451 0.0
O83 O 0.45133 0.29825 0.83409 0.0
C84 C 0.53206 0.24458 0.15575 0.0
C85 C 0.53675 0.13158 0.28114 0.0
O86 O 0.56529 0.138 0.25839 0.0
O87 O 0.51546 0.1438 0.22039 0.0
Tb88 Tb 0.03273 0.9908 0.89421 0.0
Eu89 Eu 0.99109 0.02351 0.69748 0.0
C90 C 0.06192 0.00736 0.66128 0.0
C91 C 0.03399 0.06369 0.86227 0.0
C92 C 0.05271 0.93168 0.09856 0.0
C93 C 0.06783 0.88396 0.19353 0.0
C94 C 0.07561 0.91327 0.14964 0.0
C95 C 0.0219 0.92056 0.09193 0.0
C96 C 0.01413 0.89127 0.13532 0.0
C97 C 0.03701 0.87248 0.18624 0.0
C98 C 0.06139 0.9609 0.04242 0.0
O99 O 0.98838 0.00555 0.96532 0.0
O100 O 0.95737 0.00099 0.81406 0.0
O101 O 0.99948 0.97307 0.6533 0.0
O102 O 0.00284 0.95445 0.82861 0.0
C103 C 0.96076 0.00124 0.92082 0.0
O104 O 0.95379 0.05525 0.64626 0.0
O105 O 0.97872 0.02805 0.52493 0.0
O106 O 0.04112 0.02959 0.6479 0.0
O107 O 0.05961 0.98713 0.74264 0.0
O108 O 0.05013 0.03841 0.88693 0.0
O109 O 0.00723 0.06223 0.80931 0.0
C110 C 0.0001 0.94959 0.72313 0.0
O111 O 0.06691 0.95779 0.93813 0.0
O112 O 0.04367 0.98511 0.06157 0.0
C113 C 0.96388 0.0789 0.47573 0.0
C114 C 0.97385 0.13301 0.34853 0.0
C115 C 0.94706 0.11455 0.33193 0.0
C116 C 0.94209 0.08766 0.39543 0.0
C117 C 0.99073 0.09714 0.49209 0.0
C118 C 0.99559 0.12412 0.42932 0.0
C119 C 0.95886 0.05066 0.54195 0.0
H120 H 0.08587 0.87062 0.23504 0.0
H121 H 0.09955 0.9214 0.15449 0.0
H122 H 0.00397 0.93426 0.05105 0.0
H123 H 0.99029 0.88306 0.12684 0.0
H124 H 0.9297 0.12128 0.27145 0.0
H125 H 0.92121 0.07382 0.38223 0.0
H126 H 0.00784 0.09051 0.55361 0.0
H127 H 0.01637 0.13803 0.44362 0.0
Tb128 Tb 0.50492 0.02734 0.89526 0.0
Eu129 Eu 0.47735 0.98576 0.68816 0.0
C130 C 0.50038 0.05418 0.65505 0.0
C131 C 0.43371 0.02896 0.84348 0.0
C132 C 0.56085 0.05264 0.10841 0.0
C133 C 0.61763 0.0547 0.09614 0.0
C134 C 0.58819 0.06121 0.05149 0.0
C135 C 0.56363 0.03884 0.21308 0.0
C136 C 0.59308 0.03188 0.25684 0.0
C137 C 0.62027 0.03927 0.19778 0.0
C138 C 0.52965 0.05517 0.05626 0.0
O139 O 0.48034 0.98629 0.95826 0.0
O140 O 0.49171 0.95206 0.82121 0.0
O141 O 0.52969 0.98836 0.66886 0.0
O142 O 0.5421 0.99546 0.84988 0.0
C143 C 0.48506 0.95759 0.92425 0.0
O144 O 0.44642 0.94931 0.62517 0.0
O145 O 0.47626 0.97522 0.51328 0.0
O146 O 0.47581 0.03643 0.64083 0.0
O147 O 0.5184 0.0504 0.74164 0.0
O148 O 0.45816 0.04565 0.87209 0.0
O149 O 0.43632 0.00293 0.78694 0.0
C150 C 0.55039 0.98939 0.74858 0.0
O151 O 0.52825 0.06691 0.95738 0.0
O152 O 0.5121 0.03043 0.06538 0.0
C153 C 0.42575 0.9613 0.45068 0.0
C154 C 0.37057 0.97174 0.32866 0.0
C155 C 0.37966 0.94118 0.3582 0.0
C156 C 0.407 0.93604 0.41877 0.0
C157 C 0.41711 0.99183 0.41928 0.0
C158 C 0.38978 0.99698 0.35867 0.0
C159 C 0.4529 0.95572 0.52282 0.0
H160 H 0.63833 0.06033 0.04877 0.0
H161 H 0.58695 0.07185 0.97071 0.0
H162 H 0.54296 0.03224 0.25913 0.0
H163 H 0.59462 0.02006 0.33557 0.0
H164 H 0.365 0.92133 0.33835 0.0
H165 H 0.41312 0.91236 0.44297 0.0
H166 H 0.43106 0.01177 0.44383 0.0
H167 H 0.38331 0.02076 0.33707 0.0
Tb168 Tb 0.46308 0.52205 0.8036 0.0
Eu169 Eu 0.51236 0.48966 0.62369 0.0
C170 C 0.44387 0.50993 0.55931 0.0
C171 C 0.46366 0.44911 0.76692 0.0
C172 C 0.43377 0.57412 0.01781 0.0
C173 C 0.41502 0.6113 0.15222 0.0
C174 C 0.40919 0.58743 0.07687 0.0
C175 C 0.46432 0.5851 0.03349 0.0
C176 C 0.47011 0.60956 0.10622 0.0
C177 C 0.44554 0.62293 0.16701 0.0
C178 C 0.42737 0.55008 0.93536 0.0
O179 O 0.50216 0.50674 0.90387 0.0
O180 O 0.54098 0.49781 0.77536 0.0
O181 O 0.51711 0.54189 0.60465 0.0
O182 O 0.49978 0.55618 0.77599 0.0
C183 C 0.53129 0.50081 0.87706 0.0
O184 O 0.55355 0.46206 0.58328 0.0
O185 O 0.5248 0.48082 0.45231 0.0
O186 O 0.46381 0.48677 0.55494 0.0
O187 O 0.44501 0.53025 0.63933 0.0
O188 O 0.44658 0.474 0.78752 0.0
O189 O 0.49131 0.45048 0.72076 0.0
C190 C 0.51408 0.56259 0.68326 0.0
O191 O 0.43193 0.5589 0.83417 0.0
O192 O 0.43942 0.52259 0.95482 0.0
C193 C 0.54546 0.43013 0.42894 0.0
C194 C 0.54035 0.37047 0.33262 0.0
C195 C 0.55278 0.39579 0.27254 0.0
C196 C 0.55521 0.42545 0.32038 0.0
C197 C 0.53326 0.4048 0.48914 0.0
C198 C 0.531 0.37524 0.44179 0.0
C199 C 0.5472 0.46145 0.47859 0.0
H200 H 0.39553 0.62111 0.19717 0.0
H201 H 0.38545 0.57984 0.06244 0.0
H202 H 0.48357 0.57539 0.98701 0.0
H203 H 0.49367 0.61867 0.11158 0.0
H204 H 0.56019 0.39274 0.18826 0.0
H205 H 0.56444 0.44475 0.27247 0.0
H206 H 0.52544 0.40784 0.57297 0.0
H207 H 0.5221 0.35601 0.49099 0.0
Tb208 Tb 0.98463 0.47674 0.87363 0.0
Eu209 Eu 0.01518 0.52003 0.67385 0.0
C210 C -7e-05 0.44925 0.6395 0.0
C211 C 0.05725 0.47981 0.84659 0.0
C212 C 0.9241 0.44877 0.06523 0.0
C213 C 0.88233 0.42851 0.18022 0.0
C214 C 0.91296 0.42656 0.14043 0.0
C215 C 0.90425 0.47293 0.02987 0.0
C216 C 0.8736 0.47483 0.0687 0.0
C217 C 0.86225 0.45273 0.14486 0.0
C218 C 0.95639 0.44699 0.02424 0.0
O219 O 0.0034 0.51967 0.94272 0.0
O220 O 0.99448 0.55262 0.79822 0.0
O221 O 0.96462 0.51168 0.6343 0.0
O222 O 0.94753 0.5065 0.81049 0.0
C223 C 0.99744 0.54776 0.90405 0.0
O224 O 0.0467 0.55696 0.61676 0.0
O225 O 0.01717 0.53265 0.50052 0.0
O226 O 0.02249 0.46978 0.62945 0.0
O227 O 0.9794 0.45141 0.7194 0.0
O228 O 0.0332 0.46217 0.87331 0.0
O229 O 0.0546 0.5051 0.78494 0.0
C230 C 0.94173 0.50997 0.70554 0.0
O231 O 0.95958 0.43679 0.92449 0.0
O232 O 0.97343 0.47173 0.0407 0.0
C233 C 0.06793 0.54617 0.44313 0.0
C234 C 0.12361 0.53585 0.32551 0.0
C235 C 0.11201 0.56639 0.33937 0.0
C236 C 0.08437 0.5715 0.39792 0.0
C237 C 0.07881 0.51556 0.42591 0.0
C238 C 0.1063 0.51044 0.3669 0.0
C239 C 0.04062 0.5518 0.51342 0.0
H240 H 0.87485 0.41172 0.24171 0.0
H241 H 0.92811 0.40807 0.16974 0.0
H242 H 0.91259 0.49052 0.97305 0.0
H243 H 0.8588 0.49367 0.03916 0.0
H244 H 0.12495 0.5864 0.30859 0.0
H245 H 0.0763 0.59526 0.4105 0.0
H246 H 0.06642 0.49565 0.46012 0.0
H247 H 0.11439 0.48664 0.35561 0.0
C248 C 0.10502 0.01548 0.39008 0.0
C249 C 0.12256 0.98769 0.38496 0.0
C250 C 0.08653 0.02233 0.48183 0.0
C251 C 0.08511 0.0018 0.57269 0.0
H252 H 0.10474 0.03165 0.32124 0.0
H253 H 0.0726 0.04351 0.47989 0.0
S254 S 0.12947 0.92738 0.60427 0.0
N255 N 0.13921 0.94055 0.48137 0.0
N256 N 0.10497 0.95349 0.65442 0.0
C257 C 0.10383 0.97463 0.57062 0.0
C258 C 0.12235 0.96751 0.47656 0.0
C259 C 0.49672 0.10474 0.39841 0.0
C260 C 0.52836 0.11153 0.37673 0.0
C261 C 0.4879 0.08666 0.48961 0.0
C262 C 0.51029 0.07498 0.56382 0.0
H263 H 0.47849 0.1134 0.34442 0.0
H264 H 0.46328 0.08184 0.50211 0.0
S265 S 0.59639 0.08429 0.54147 0.0
N266 N 0.58232 0.10375 0.43491 0.0
N267 N 0.56564 0.07033 0.6073 0.0
C268 C 0.54204 0.08138 0.54308 0.0
C269 C 0.55109 0.09944 0.44925 0.0
C270 C 0.38167 0.54835 0.38225 0.0
C271 C 0.37756 0.52713 0.29567 0.0
C272 C 0.40277 0.54224 0.46739 0.0
C273 C 0.42094 0.51476 0.46936 0.0
H274 H 0.36845 0.56997 0.38472 0.0
H275 H 0.405 0.55954 0.53157 0.0
S276 S 0.41952 0.4517 0.26056 0.0
N277 N 0.39364 0.47752 0.21614 0.0
N278 N 0.43349 0.46604 0.37617 0.0
C279 C 0.41713 0.49325 0.38312 0.0
C280 C 0.39542 0.49943 0.29638 0.0
C281 C 0.01495 0.3996 0.38731 0.0
C282 C 0.98541 0.3866 0.36454 0.0
C283 C 0.01957 0.41925 0.47765 0.0
C284 C 0.99495 0.42641 0.54987 0.0
H285 H 0.03468 0.39491 0.33418 0.0
H286 H 0.04264 0.42906 0.4905 0.0
S287 S 0.91291 0.39849 0.52712 0.0
N288 N 0.93101 0.38249 0.42187 0.0
N289 N 0.93978 0.419 0.59211 0.0
C290 C 0.96533 0.41331 0.52889 0.0
C291 C 0.96053 0.39358 0.43609 0.0
C292 C 0.88043 0.9731 0.00856 0.0
C293 C 0.88089 0.97672 0.1231 0.0
C294 C 0.90602 0.98194 0.94394 0.0
C295 C 0.93335 0.99433 0.99139 0.0
H296 H 0.8601 0.96331 0.96823 0.0
H297 H 0.90451 0.97833 0.85618 0.0
S298 S 0.94651 0.00812 0.28832 0.0
N299 N 0.91079 0.99362 0.28181 0.0
N300 N 0.95919 0.00987 0.16057 0.0
C301 C 0.93405 0.99827 0.10602 0.0
C302 C 0.90776 0.98959 0.17177 0.0
C303 C 0.45811 0.90998 0.16999 0.0
C304 C 0.47711 0.88313 0.16562 0.0
C305 C 0.46075 0.93387 0.09121 0.0
C306 C 0.48192 0.93143 0.00338 0.0
H307 H 0.44154 0.91294 0.23618 0.0
H308 H 0.44601 0.95438 0.0991 0.0
S309 S 0.53613 0.86539 0.95148 0.0
N310 N 0.51746 0.85525 0.06486 0.0
N311 N 0.52178 0.89983 0.91509 0.0
C312 C 0.50049 0.90438 0.9962 0.0
C313 C 0.49828 0.88033 0.07779 0.0
C314 C 0.57734 0.51836 0.13407 0.0
C315 C 0.59797 0.49277 0.14141 0.0
C316 C 0.55547 0.52059 0.04873 0.0
C317 C 0.55416 0.49778 0.96636 0.0
H318 H 0.57796 0.53672 0.19503 0.0
H319 H 0.53987 0.54059 0.04601 0.0
S320 S 0.60203 0.42572 0.94944 0.0
N321 N 0.61477 0.44351 0.06086 0.0
N322 N 0.57426 0.44843 0.89845 0.0
C323 C 0.57443 0.47204 0.97272 0.0
C324 C 0.59618 0.46933 0.06095 0.0
C325 C 0.00012 0.59488 0.16644 0.0
C326 C 0.97965 0.61989 0.14398 0.0
C327 C 0.0062 0.57196 0.08748 0.0
C328 C 0.99256 0.57357 0.98242 0.0
H329 H 0.01095 0.59252 0.24651 0.0
H330 H 0.02158 0.55273 0.10927 0.0
S331 S 0.93862 0.63529 0.88052 0.0
N332 N 0.94656 0.64552 0.00799 0.0
N333 N 0.95842 0.60271 0.85906 0.0
C334 C 0.97281 0.59896 0.95777 0.0
C335 C 0.9662 0.62202 0.03877 0.0
C336 C 0.98603 0.21895 0.285 0.0
C337 C 0.98471 0.22005 0.16978 0.0
C338 C 0.98327 0.19054 0.3419 0.0
C339 C 0.97843 0.16234 0.28556 0.0
H340 H 0.98911 0.24027 0.33157 0.0
H341 H 0.98412 0.19074 0.43079 0.0
S342 S 0.97241 0.15279 0.98427 0.0
N343 N 0.97807 0.19072 0.00118 0.0
N344 N 0.97256 0.13713 0.1085 0.0
C345 C 0.97717 0.16308 0.17032 0.0
C346 C 0.98046 0.19201 0.11224 0.0
C347 C 0.28843 0.00285 0.28276 0.0
C348 C 0.27741 0.98472 0.19493 0.0
C349 C 0.31901 0.99935 0.32245 0.0
C350 C 0.33968 0.97745 0.27621 0.0
H351 H 0.27292 0.01895 0.32427 0.0
H352 H 0.32607 0.01299 0.39294 0.0
S353 S 0.32328 0.92675 0.03694 0.0
N354 N 0.29016 0.94574 0.05768 0.0
N355 N 0.3478 0.93928 0.13183 0.0
C356 C 0.32933 0.96003 0.18562 0.0
C357 C 0.29814 0.96357 0.14531 0.0
C358 C 0.56127 0.29432 0.18976 0.0
C359 C 0.53348 0.27687 0.19828 0.0
C360 C 0.5631 0.32495 0.23063 0.0
C361 C 0.53732 0.33897 0.28268 0.0
H362 H 0.58169 0.28427 0.15095 0.0
H363 H 0.58505 0.33747 0.2237 0.0
S364 S 0.4595 0.30273 0.32776 0.0
N365 N 0.48011 0.27528 0.2662 0.0
N366 N 0.48302 0.33321 0.33813 0.0
C367 C 0.50938 0.32174 0.29094 0.0
C368 C 0.50761 0.29058 0.25009 0.0
C369 C 0.19259 0.5434 0.13051 0.0
C370 C 0.21585 0.52555 0.18322 0.0
C371 C 0.16247 0.54589 0.17517 0.0
C372 C 0.1547 0.53082 0.27452 0.0
H373 H 0.19777 0.55561 0.05448 0.0
H374 H 0.14522 0.55996 0.13229 0.0
S375 S 0.20815 0.48332 0.44846 0.0
N376 N 0.22969 0.49386 0.34209 0.0
N377 N 0.17318 0.49848 0.42622 0.0
C378 C 0.17783 0.51289 0.3278 0.0
C379 C 0.20841 0.51033 0.28221 0.0
C380 C 0.99074 0.80771 0.32857 0.0
C381 C 0.01 0.78143 0.3155 0.0
C382 C -5e-05 0.83714 0.28845 0.0
C383 C 0.02843 0.84115 0.2316 0.0
H384 H 0.96865 0.80558 0.37148 0.0
H385 H 0.98467 0.85694 0.30262 0.0
S386 S 0.08599 0.77847 0.17057 0.0
N387 N 0.05828 0.76063 0.24149 0.0
N388 N 0.075 0.81544 0.16048 0.0
C389 C 0.04765 0.8147 0.21718 0.0
C390 C 0.03853 0.78496 0.26026 0.0
C391 C 0.68681 0.9847 0.27368 0.0
C392 C 0.71194 0.00532 0.2906 0.0
C393 C 0.65685 0.99603 0.24843 0.0
C394 C 0.65123 0.02831 0.23653 0.0
H395 H 0.69033 0.95964 0.28018 0.0
H396 H 0.63816 0.97938 0.23469 0.0
S397 S 0.70904 0.09195 0.27314 0.0
N398 N 0.72918 0.0595 0.29548 0.0
N399 N 0.67292 0.08073 0.24565 0.0
C400 C 0.67606 0.04916 0.2541 0.0
C401 C 0.70643 0.03767 0.28172 0.0
C402 C 0.43715 0.70421 0.28797 0.0
C403 C 0.46451 0.70785 0.35123 0.0
C404 C 0.43076 0.67641 0.23211 0.0
C405 C 0.45128 0.65073 0.2376 0.0
H406 H 0.4207 0.72335 0.27897 0.0
H407 H 0.41008 0.67556 0.18085 0.0
S408 S 0.52517 0.64683 0.39674 0.0
N409 N 0.51215 0.68273 0.41633 0.0
N410 N 0.4989 0.62968 0.31833 0.0
C411 C 0.47802 0.65337 0.30434 0.0
C412 C 0.4849 0.68204 0.35956 0.0
C413 C 0.78855 0.48929 0.26494 0.0
C414 C 0.76913 0.46328 0.28262 0.0
C415 C 0.8186 0.48565 0.22055 0.0
C416 C 0.83007 0.45592 0.1905 0.0
H417 H 0.78074 0.51248 0.2879 0.0
H418 H 0.83315 0.50626 0.21152 0.0
S419 S 0.78654 0.38092 0.21121 0.0
N420 N 0.76242 0.40722 0.26257 0.0
N421 N 0.81833 0.40036 0.17524 0.0
C422 C 0.81034 0.42987 0.20543 0.0
C423 C 0.77999 0.43358 0.25219 0.0
C424 C 0.08874 0.12437 0.98206 0.0
C425 C 0.07963 0.15219 0.92956 0.0
C426 C 0.07291 0.09624 0.96331 0.0
C427 C 0.04767 0.09467 0.88925 0.0
H428 H 0.10871 0.12421 0.03688 0.0
H429 H 0.08114 0.07538 0.00532 0.0
S430 S 0.01597 0.16104 0.72472 0.0
N431 N 0.04437 0.1767 0.79812 0.0
N432 N 0.01478 0.12373 0.7608 0.0
C433 C 0.03809 0.12258 0.83661 0.0
C434 C 0.05406 0.15139 0.85704 0.0
C435 C 0.34571 0.03159 0.87233 0.0
C436 C 0.34123 0.04836 0.97019 0.0
C437 C 0.37563 0.0265 0.82987 0.0
C438 C 0.40235 0.03813 0.88304 0.0
H439 H 0.32601 0.02152 0.82917 0.0
H440 H 0.37784 0.01276 0.75579 0.0
S441 S 0.40356 0.08453 0.13985 0.0
N442 N 0.36614 0.0775 0.11749 0.0
N443 N 0.42245 0.068 0.0373 0.0
C444 C 0.39824 0.05593 0.97886 0.0
C445 C 0.36769 0.061 0.02257 0.0
C446 C 0.44573 0.37883 0.94306 0.0
C447 C 0.44632 0.35426 0.86609 0.0
C448 C 0.44858 0.41019 0.90963 0.0
C449 C 0.45232 0.41792 0.7984 0.0
H450 H 0.44465 0.37378 0.03022 0.0
H451 H 0.45002 0.42824 0.9716 0.0
S452 S 0.45034 0.36368 0.56307 0.0
N453 N 0.4468 0.34074 0.6719 0.0
N454 N 0.453 0.39967 0.61063 0.0
C455 C 0.45071 0.39408 0.72027 0.0
C456 C 0.44739 0.36222 0.75371 0.0
C457 C 0.14526 0.47559 0.86985 0.0
C458 C 0.1501 0.46244 0.97473 0.0
C459 C 0.11515 0.48031 0.82826 0.0
C460 C 0.08859 0.47181 0.88929 0.0
H461 H 0.16487 0.48293 0.81973 0.0
H462 H 0.11268 0.49104 0.74788 0.0
S463 S 0.08808 0.43641 0.16815 0.0
N464 N 0.12553 0.4408 0.13879 0.0
N465 N 0.06881 0.4494 0.05956 0.0
C466 C 0.09292 0.45789 0.99311 0.0
C467 C 0.1237 0.45329 0.03613 0.0
C468 C 0.99939 0.86108 0.71426 0.0
C469 C 0.01881 0.85459 0.62393 0.0
C470 C 0.99257 0.89196 0.74429 0.0
C471 C 0.00408 0.91739 0.68287 0.0
H472 H 0.99004 0.84218 0.76402 0.0
H473 H 0.97845 0.89598 0.81669 0.0
S474 S 0.05542 0.91324 0.4387 0.0
N475 N 0.04944 0.87631 0.47349 0.0
N476 N 0.03556 0.93427 0.52768 0.0
C477 C 0.02281 0.91127 0.59082 0.0
C478 C 0.03048 0.87989 0.56196 0.0
C479 C 0.62481 0.00392 0.58952 0.0
C480 C 0.64804 0.00178 0.67085 0.0
C481 C 0.59346 0.99768 0.61394 0.0
C482 C 0.58408 0.98969 0.72124 0.0
H483 H 0.63086 0.01072 0.50636 0.0
H484 H 0.57635 0.00066 0.54911 0.0
S485 S 0.63637 0.97918 0.96217 0.0
N486 N 0.66006 0.98939 0.86114 0.0
N487 N 0.60095 0.97829 0.90825 0.0
C488 C 0.6073 0.98645 0.80258 0.0
C489 C 0.63933 0.99235 0.77709 0.0
C490 C 0.57554 0.62391 0.62154 0.0
C491 C 0.56257 0.65119 0.66635 0.0
C492 C 0.55903 0.59557 0.62233 0.0
C493 C 0.52943 0.59335 0.67174 0.0
H494 H 0.59879 0.62445 0.58619 0.0
H495 H 0.57007 0.57498 0.58812 0.0
S496 S 0.48543 0.65783 0.80352 0.0
N497 N 0.51833 0.6743 0.76185 0.0
N498 N 0.4876 0.62081 0.76595 0.0
C499 C 0.51609 0.62052 0.71658 0.0
C500 C 0.53259 0.64953 0.71343 0.0
C501 C 0.85454 0.49567 0.71353 0.0
C502 C 0.84896 0.48185 0.61103 0.0
C503 C 0.88429 0.50684 0.74114 0.0
C504 C 0.90937 0.50488 0.66674 0.0
H505 H 0.83617 0.49667 0.77463 0.0
H506 H 0.88786 0.51618 0.82256 0.0
S507 S 0.90509 0.47618 0.38038 0.0
N508 N 0.86961 0.47043 0.42995 0.0
N509 N 0.92543 0.49189 0.48087 0.0
C510 C 0.90334 0.49343 0.56078 0.0
C511 C 0.87318 0.48163 0.53334 0.0
loop_
_geom_bond_atom_site_label_1
_geom_bond_atom_site_label_2
_geom_bond_distance
_geom_bond_site_symmetry_2
_ccdc_geom_bond_type
O0 Cd1 2.300 . S
O0 C7 1.275 . S
Cd1 O0 2.300 . S
Cd1 O9 2.381 . S
Cd1 O10 2.378 . S
O2 Cd3 2.385 . S
O2 C7 1.255 . S
Cd3 O2 2.385 . S
Cd3 O4 2.317 . S
O4 Cd3 2.317 . S
O4 C5 1.232 . S
C5 O4 1.232 . S
C5 O6 1.218 . S
O6 C5 1.218 . S
C7 O0 1.275 . S
C7 O2 1.255 . S
C8 O9 1.258 . S
C8 O10 1.256 . S
O9 Cd1 2.381 . S
O9 C8 1.258 . S
O10 Cd1 2.378 . S
O10 C8 1.256 . S
O11 Cd12 2.300 1_655 S
O11 C18 1.275 1_655 S
Cd12 O11 2.300 1_455 S
Cd12 O20 2.381 1_455 S
Cd12 O21 2.378 . S
O13 Cd14 2.385 . S
O13 C18 1.255 . S
Cd14 O13 2.385 . S
Cd14 O15 2.317 . S
O15 Cd14 2.317 . S
O15 C16 1.232 . S
C16 O15 1.232 . S
C16 O17 1.218 . S
O17 C16 1.218 . S
C18 O11 1.275 1_455 S
C18 O13 1.255 . S
C19 O20 1.258 1_455 S
C19 O21 1.256 . S
O20 Cd12 2.381 1_655 S
O20 C19 1.258 1_655 S
O21 Cd12 2.378 . S
O21 C19 1.256 . S
O22 Cd23 2.300 1_565 S
O22 C29 1.275 1_565 S
Cd23 O22 2.300 1_545 S
Cd23 O31 2.381 1_545 S
Cd23 O32 2.378 . S
O24 Cd25 2.385 . S
O24 C29 1.255 . S
Cd25 O24 2.385 . S
Cd25 O26 2.317 . S
O26 Cd25 2.317 . S
O26 C27 1.232 . S
C27 O26 1.232 . S
C27 O28 1.218 . S
O28 C27 1.218 . S
C29 O22 1.275 1_545 S
C29 O24 1.255 . S
C30 O31 1.258 1_545 S
C30 O32 1.256 . S
O31 Cd23 2.381 1_565 S
O31 C30 1.258 1_565 S
O32 Cd23 2.378 . S
O32 C30 1.256 . S
O33 Cd34 2.300 . S
O33 C40 1.275 . S
Cd34 O33 2.300 . S
Cd34 O42 2.381 . S
Cd34 O43 2.378 . S
O35 Cd36 2.385 . S
O35 C40 1.255 . S
Cd36 O35 2.385 . S
Cd36 O37 2.317 . S
O37 Cd36 2.317 . S
O37 C38 1.232 . S
C38 O37 1.232 . S
C38 O39 1.218 . S
O39 C38 1.218 . S
C40 O33 1.275 . S
C40 O35 1.255 . S
C41 O42 1.258 . S
C41 O43 1.256 . S
O42 Cd34 2.381 . S
O42 C41 1.258 . S
O43 Cd34 2.378 . S
O43 C41 1.256 . S
O44 Cd45 2.300 . S
O44 C51 1.275 . S
Cd45 O44 2.300 . S
Cd45 O53 2.381 . S
Cd45 O54 2.378 . S
O46 Cd47 2.385 1_554 S
O46 C51 1.255 . S
Cd47 O46 2.385 1_556 S
Cd47 O48 2.317 . S
O48 Cd47 2.317 . S
O48 C49 1.232 . S
C49 O48 1.232 . S
C49 O50 1.218 . S
O50 C49 1.218 . S
C51 O44 1.275 . S
C51 O46 1.255 . S
C52 O53 1.258 . S
C52 O54 1.256 . S
O53 Cd45 2.381 . S
O53 C52 1.258 . S
O54 Cd45 2.378 . S
O54 C52 1.256 . S
O55 Cd56 2.300 1_655 S
O55 C62 1.275 1_655 S
Cd56 O55 2.300 1_455 S
Cd56 O64 2.381 1_455 S
Cd56 O65 2.378 . S
O57 Cd58 2.385 1_554 S
O57 C62 1.255 . S
Cd58 O57 2.385 1_556 S
Cd58 O59 2.317 . S
O59 Cd58 2.317 . S
O59 C60 1.232 . S
C60 O59 1.232 . S
C60 O61 1.218 . S
O61 C60 1.218 . S
C62 O55 1.275 1_455 S
C62 O57 1.255 . S
C63 O64 1.258 1_455 S
C63 O65 1.256 . S
O64 Cd56 2.381 1_655 S
O64 C63 1.258 1_655 S
O65 Cd56 2.378 . S
O65 C63 1.256 . S
O66 Cd67 2.300 1_565 S
O66 C73 1.275 1_565 S
Cd67 O66 2.300 1_545 S
Cd67 O75 2.381 1_545 S
Cd67 O76 2.378 . S
O68 Cd69 2.385 1_554 S
O68 C73 1.255 . S
Cd69 O68 2.385 1_556 S
Cd69 O70 2.317 . S
O70 Cd69 2.317 . S
O70 C71 1.232 . S
C71 O70 1.232 . S
C71 O72 1.218 . S
O72 C71 1.218 . S
C73 O66 1.275 1_545 S
C73 O68 1.255 . S
C74 O75 1.258 1_545 S
C74 O76 1.256 . S
O75 Cd67 2.381 1_565 S
O75 C74 1.258 1_565 S
O76 Cd67 2.378 . S
O76 C74 1.256 . S
O77 Cd78 2.300 . S
O77 C84 1.275 . S
Cd78 O77 2.300 . S
Cd78 O86 2.381 . S
Cd78 O87 2.378 . S
O79 Cd80 2.385 1_554 S
O79 C84 1.255 . S
Cd80 O79 2.385 1_556 S
Cd80 O81 2.317 . S
O81 Cd80 2.317 . S
O81 C82 1.232 . S
C82 O81 1.232 . S
C82 O83 1.218 . S
O83 C82 1.218 . S
C84 O77 1.275 . S
C84 O79 1.255 . S
C85 O86 1.258 . S
C85 O87 1.256 . S
O86 Cd78 2.381 . S
O86 C85 1.258 . S
O87 Cd78 2.378 . S
O87 C85 1.256 . S
Tb88 C98 2.825 1_556 S
Tb88 O99 2.347 1_455 S
Tb88 O102 2.366 . S
Tb88 O107 2.418 . S
Tb88 O108 2.384 1_565 S
Tb88 O111 2.479 . S
Tb88 O112 2.471 1_556 S
Eu89 O100 2.418 . S
Eu89 O101 2.384 1_545 S
Eu89 O104 2.479 . S
Eu89 O105 2.471 . S
Eu89 O106 2.347 1_655 S
Eu89 O109 2.366 . S
Eu89 C119 2.825 . S
C90 O106 1.259 1_565 S
C90 O107 1.265 . S
C91 O108 1.255 . S
C91 O109 1.265 1_455 S
C92 C94 1.380 . S
C92 C95 1.374 . S
C92 C98 1.507 . S
C93 C94 1.384 . S
C93 C97 1.387 . S
C93 H120 0.930 . S
C94 C92 1.380 . S
C94 C93 1.384 . S
C94 H121 0.931 . S
C95 C92 1.374 . S
C95 C96 1.390 . S
C95 H122 0.930 1_455 S
C96 C95 1.390 . S
C96 C97 1.391 . S
C96 H123 0.930 1_455 S
C97 C93 1.387 . S
C97 C96 1.391 . S
C98 Tb88 2.825 1_554 S
C98 C92 1.507 . S
C98 O111 1.238 1_554 S
C98 O112 1.247 . S
O99 Tb88 2.347 1_655 S
O99 C103 1.259 1_565 S
O100 Eu89 2.418 . S
O100 C103 1.265 . S
O101 Eu89 2.384 1_565 S
O101 C110 1.255 . S
O102 Tb88 2.366 . S
O102 C110 1.265 1_455 S
C103 O99 1.259 1_545 S
C103 O100 1.265 . S
O104 Eu89 2.479 . S
O104 C119 1.238 . S
O105 Eu89 2.471 . S
O105 C119 1.247 . S
O106 Eu89 2.347 1_455 S
O106 C90 1.259 1_545 S
O107 Tb88 2.418 . S
O107 C90 1.265 . S
O108 Tb88 2.384 1_545 S
O108 C91 1.255 . S
O109 Eu89 2.366 . S
O109 C91 1.265 1_655 S
C110 O101 1.255 . S
C110 O102 1.265 1_655 S
O111 Tb88 2.479 . S
O111 C98 1.238 1_556 S
O112 Tb88 2.471 1_554 S
O112 C98 1.247 . S
C113 C116 1.380 . S
C113 C117 1.374 . S
C113 C119 1.507 . S
C114 C115 1.387 . S
C114 C118 1.391 . S
C115 C114 1.387 . S
C115 C116 1.384 . S
C115 H124 0.930 . S
C116 C113 1.380 . S
C116 C115 1.384 . S
C116 H125 0.931 . S
C117 C113 1.374 . S
C117 C118 1.390 . S
C117 H126 0.930 1_655 S
C118 C114 1.391 . S
C118 C117 1.390 . S
C118 H127 0.930 1_655 S
C119 Eu89 2.825 . S
C119 O104 1.238 . S
C119 O105 1.247 . S
C119 C113 1.507 . S
H120 C93 0.930 . S
H121 C94 0.931 . S
H122 C95 0.930 1_655 S
H123 C96 0.930 1_655 S
H124 C115 0.930 . S
H125 C116 0.931 . S
H126 C117 0.930 1_455 S
H127 C118 0.930 1_455 S
Tb128 C138 2.825 1_556 S
Tb128 O139 2.347 1_545 S
Tb128 O142 2.366 . S
Tb128 O147 2.418 . S
Tb128 O148 2.384 . S
Tb128 O151 2.479 . S
Tb128 O152 2.471 1_556 S
Eu129 O140 2.418 . S
Eu129 O141 2.384 . S
Eu129 O144 2.479 . S
Eu129 O145 2.471 . S
Eu129 O146 2.347 1_565 S
Eu129 O149 2.366 . S
Eu129 C159 2.825 . S
C130 O146 1.259 . S
C130 O147 1.265 . S
C131 O148 1.255 . S
C131 O149 1.265 1_545 S
C132 C134 1.380 . S
C132 C135 1.374 . S
C132 C138 1.507 . S
C133 C134 1.384 . S
C133 C137 1.387 . S
C133 H160 0.930 . S
C134 C132 1.380 . S
C134 C133 1.384 . S
C134 H161 0.931 . S
C135 C132 1.374 . S
C135 C136 1.390 . S
C135 H162 0.930 1_545 S
C136 C135 1.390 . S
C136 C137 1.391 . S
C136 H163 0.930 1_545 S
C137 C133 1.387 . S
C137 C136 1.391 . S
C138 Tb128 2.825 1_554 S
C138 C132 1.507 . S
C138 O151 1.238 1_554 S
C138 O152 1.247 . S
O139 Tb128 2.347 1_565 S
O139 C143 1.259 . S
O140 Eu129 2.418 . S
O140 C143 1.265 . S
O141 Eu129 2.384 . S
O141 C150 1.255 . S
O142 Tb128 2.366 . S
O142 C150 1.265 1_545 S
C143 O139 1.259 . S
C143 O140 1.265 . S
O144 Eu129 2.479 . S
O144 C159 1.238 . S
O145 Eu129 2.471 . S
O145 C159 1.247 . S
O146 Eu129 2.347 1_545 S
O146 C130 1.259 . S
O147 Tb128 2.418 . S
O147 C130 1.265 . S
O148 Tb128 2.384 . S
O148 C131 1.255 . S
O149 Eu129 2.366 . S
O149 C131 1.265 1_565 S
C150 O141 1.255 . S
C150 O142 1.265 1_565 S
O151 Tb128 2.479 . S
O151 C138 1.238 1_556 S
O152 Tb128 2.471 1_554 S
O152 C138 1.247 . S
C153 C156 1.380 . S
C153 C157 1.374 . S
C153 C159 1.507 . S
C154 C155 1.387 . S
C154 C158 1.391 . S
C155 C154 1.387 . S
C155 C156 1.384 . S
C155 H164 0.930 . S
C156 C153 1.380 . S
C156 C155 1.384 . S
C156 H165 0.931 . S
C157 C153 1.374 . S
C157 C158 1.390 . S
C157 H166 0.930 1_565 S
C158 C154 1.391 . S
C158 C157 1.390 . S
C158 H167 0.930 1_565 S
C159 Eu129 2.825 . S
C159 O144 1.238 . S
C159 O145 1.247 . S
C159 C153 1.507 . S
H160 C133 0.930 . S
H161 C134 0.931 . S
H162 C135 0.930 1_565 S
H163 C136 0.930 1_565 S
H164 C155 0.930 . S
H165 C156 0.931 . S
H166 C157 0.930 1_545 S
H167 C158 0.930 1_545 S
Tb168 C178 2.825 1_556 S
Tb168 O179 2.347 . S
Tb168 O182 2.366 . S
Tb168 O187 2.418 . S
Tb168 O188 2.384 . S
Tb168 O191 2.479 . S
Tb168 O192 2.471 1_556 S
Eu169 O180 2.418 . S
Eu169 O181 2.384 . S
Eu169 O184 2.479 . S
Eu169 O185 2.471 . S
Eu169 O186 2.347 . S
Eu169 O189 2.366 . S
Eu169 C199 2.825 . S
C170 O186 1.259 . S
C170 O187 1.265 . S
C171 O188 1.255 . S
C171 O189 1.265 . S
C172 C174 1.380 . S
C172 C175 1.374 . S
C172 C178 1.507 . S
C173 C174 1.384 . S
C173 C177 1.387 . S
C173 H200 0.930 . S
C174 C172 1.380 . S
C174 C173 1.384 . S
C174 H201 0.931 . S
C175 C172 1.374 . S
C175 C176 1.390 . S
C175 H202 0.930 . S
C176 C175 1.390 . S
C176 C177 1.391 . S
C176 H203 0.930 . S
C177 C173 1.387 . S
C177 C176 1.391 . S
C178 Tb168 2.825 1_554 S
C178 C172 1.507 . S
C178 O191 1.238 1_554 S
C178 O192 1.247 . S
O179 Tb168 2.347 . S
O179 C183 1.259 . S
O180 Eu169 2.418 . S
O180 C183 1.265 . S
O181 Eu169 2.384 . S
O181 C190 1.255 . S
O182 Tb168 2.366 . S
O182 C190 1.265 . S
C183 O179 1.259 . S
C183 O180 1.265 . S
O184 Eu169 2.479 . S
O184 C199 1.238 . S
O185 Eu169 2.471 . S
O185 C199 1.247 . S
O186 Eu169 2.347 . S
O186 C170 1.259 . S
O187 Tb168 2.418 . S
O187 C170 1.265 . S
O188 Tb168 2.384 . S
O188 C171 1.255 . S
O189 Eu169 2.366 . S
O189 C171 1.265 . S
C190 O181 1.255 . S
C190 O182 1.265 . S
O191 Tb168 2.479 . S
O191 C178 1.238 1_556 S
O192 Tb168 2.471 1_554 S
O192 C178 1.247 . S
C193 C196 1.380 . S
C193 C197 1.374 . S
C193 C199 1.507 . S
C194 C195 1.387 . S
C194 C198 1.391 . S
C195 C194 1.387 . S
C195 C196 1.384 . S
C195 H204 0.930 . S
C196 C193 1.380 . S
C196 C195 1.384 . S
C196 H205 0.931 . S
C197 C193 1.374 . S
C197 C198 1.390 . S
C197 H206 0.930 . S
C198 C194 1.391 . S
C198 C197 1.390 . S
C198 H207 0.930 . S
C199 Eu169 2.825 . S
C199 O184 1.238 . S
C199 O185 1.247 . S
C199 C193 1.507 . S
H200 C173 0.930 . S
H201 C174 0.931 . S
H202 C175 0.930 . S
H203 C176 0.930 . S
H204 C195 0.930 . S
H205 C196 0.931 . S
H206 C197 0.930 . S
H207 C198 0.930 . S
Tb208 C218 2.825 1_556 S
Tb208 O219 2.347 . S
Tb208 O222 2.366 . S
Tb208 O227 2.418 . S
Tb208 O228 2.384 1_655 S
Tb208 O231 2.479 . S
Tb208 O232 2.471 1_556 S
Eu209 O220 2.418 . S
Eu209 O221 2.384 1_455 S
Eu209 O224 2.479 . S
Eu209 O225 2.471 . S
Eu209 O226 2.347 . S
Eu209 O229 2.366 . S
Eu209 C239 2.825 . S
C210 O226 1.259 1_655 S
C210 O227 1.265 . S
C211 O228 1.255 . S
C211 O229 1.265 . S
C212 C214 1.380 . S
C212 C215 1.374 . S
C212 C218 1.507 . S
C213 C214 1.384 . S
C213 C217 1.387 . S
C213 H240 0.930 . S
C214 C212 1.380 . S
C214 C213 1.384 . S
C214 H241 0.931 . S
C215 C212 1.374 . S
C215 C216 1.390 . S
C215 H242 0.930 . S
C216 C215 1.390 . S
C216 C217 1.391 . S
C216 H243 0.930 . S
C217 C213 1.387 . S
C217 C216 1.391 . S
C218 Tb208 2.825 1_554 S
C218 C212 1.507 . S
C218 O231 1.238 1_554 S
C218 O232 1.247 . S
O219 Tb208 2.347 . S
O219 C223 1.259 1_655 S
O220 Eu209 2.418 . S
O220 C223 1.265 . S
O221 Eu209 2.384 1_655 S
O221 C230 1.255 . S
O222 Tb208 2.366 . S
O222 C230 1.265 . S
C223 O219 1.259 1_455 S
C223 O220 1.265 . S
O224 Eu209 2.479 . S
O224 C239 1.238 . S
O225 Eu209 2.471 . S
O225 C239 1.247 . S
O226 Eu209 2.347 . S
O226 C210 1.259 1_455 S
O227 Tb208 2.418 . S
O227 C210 1.265 . S
O228 Tb208 2.384 1_455 S
O228 C211 1.255 . S
O229 Eu209 2.366 . S
O229 C211 1.265 . S
C230 O221 1.255 . S
C230 O222 1.265 . S
O231 Tb208 2.479 . S
O231 C218 1.238 1_556 S
O232 Tb208 2.471 1_554 S
O232 C218 1.247 . S
C233 C236 1.380 . S
C233 C237 1.374 . S
C233 C239 1.507 . S
C234 C235 1.387 . S
C234 C238 1.391 . S
C235 C234 1.387 . S
C235 C236 1.384 . S
C235 H244 0.930 . S
C236 C233 1.380 . S
C236 C235 1.384 . S
C236 H245 0.931 . S
C237 C233 1.374 . S
C237 C238 1.390 . S
C237 H246 0.930 . S
C238 C234 1.391 . S
C238 C237 1.390 . S
C238 H247 0.930 . S
C239 Eu209 2.825 . S
C239 O224 1.238 . S
C239 O225 1.247 . S
C239 C233 1.507 . S
H240 C213 0.930 . S
H241 C214 0.931 . S
H242 C215 0.930 . S
H243 C216 0.930 . S
H244 C235 0.930 . S
H245 C236 0.931 . S
H246 C237 0.930 . S
H247 C238 0.930 . S
C248 C249 1.369 1_545 S
C248 C250 1.419 . S
C248 H252 0.930 . S
C249 C248 1.369 1_565 S
C249 C258 1.429 . S
C250 C248 1.419 . S
C250 C251 1.364 1_545 S
C250 H253 0.929 . S
C251 C250 1.364 1_565 S
C251 C257 1.428 . S
H252 C248 0.930 . S
H253 C250 0.929 . S
S254 N255 1.613 . S
S254 N256 1.610 . S
N255 S254 1.613 . S
N255 C258 1.350 . S
N256 S254 1.610 . S
N256 C257 1.351 . S
C257 C251 1.428 . S
C257 N256 1.351 . S
C257 C258 1.434 . S
C258 C249 1.429 . S
C258 N255 1.350 . S
C258 C257 1.434 . S
C259 C260 1.369 . S
C259 C261 1.419 . S
C259 H263 0.930 . S
C260 C259 1.369 . S
C260 C269 1.429 . S
C261 C259 1.419 . S
C261 C262 1.363 . S
C261 H264 0.929 . S
C262 C261 1.363 . S
C262 C268 1.428 . S
H263 C259 0.930 . S
H264 C261 0.929 . S
S265 N266 1.613 . S
S265 N267 1.610 . S
N266 S265 1.613 . S
N266 C269 1.350 . S
N267 S265 1.610 . S
N267 C268 1.351 . S
C268 C262 1.428 . S
C268 N267 1.351 . S
C268 C269 1.434 . S
C269 C260 1.429 . S
C269 N266 1.350 . S
C269 C268 1.434 . S
C270 C271 1.369 . S
C270 C272 1.419 . S
C270 H274 0.930 . S
C271 C270 1.369 . S
C271 C280 1.429 . S
C272 C270 1.419 . S
C272 C273 1.363 . S
C272 H275 0.929 . S
C273 C272 1.363 . S
C273 C279 1.428 . S
H274 C270 0.930 . S
H275 C272 0.929 . S
S276 N277 1.613 . S
S276 N278 1.610 . S
N277 S276 1.613 . S
N277 C280 1.350 . S
N278 S276 1.610 . S
N278 C279 1.351 . S
C279 C273 1.428 . S
C279 N278 1.351 . S
C279 C280 1.434 . S
C280 C271 1.429 . S
C280 N277 1.350 . S
C280 C279 1.434 . S
C281 C282 1.369 . S
C281 C283 1.419 . S
C281 H285 0.930 . S
C282 C281 1.369 . S
C282 C291 1.429 1_455 S
C283 C281 1.419 . S
C283 C284 1.391 . S
C283 H286 0.929 . S
C284 C283 1.391 . S
C284 C290 1.400 1_455 S
H285 C281 0.930 . S
H286 C283 0.929 . S
S287 N288 1.613 . S
S287 N289 1.610 . S
N288 S287 1.613 . S
N288 C291 1.350 . S
N289 S287 1.610 . S
N289 C290 1.351 . S
C290 C284 1.400 1_655 S
C290 N289 1.351 . S
C290 C291 1.434 . S
C291 C282 1.429 1_655 S
C291 N288 1.350 . S
C291 C290 1.434 . S
C292 C293 1.358 1_565 S
C292 C294 1.419 . S
C292 H296 0.930 . S
C293 C292 1.358 1_545 S
C293 C302 1.440 . S
C294 C292 1.419 . S
C294 C295 1.356 1_565 S
C294 H297 0.929 . S
C295 C294 1.356 1_545 S
C295 C301 1.436 . S
H296 C292 0.930 . S
H297 C294 0.929 . S
S298 N299 1.613 . S
S298 N300 1.610 . S
N299 S298 1.613 . S
N299 C302 1.350 . S
N300 S298 1.610 . S
N300 C301 1.351 . S
C301 C295 1.436 . S
C301 N300 1.351 . S
C301 C302 1.434 . S
C302 C293 1.440 . S
C302 N299 1.350 . S
C302 C301 1.434 . S
C303 C304 1.369 . S
C303 C305 1.419 . S
C303 H307 0.930 . S
C304 C303 1.369 . S
C304 C313 1.429 . S
C305 C303 1.419 . S
C305 C306 1.363 . S
C305 H308 0.929 . S
C306 C305 1.363 . S
C306 C312 1.428 . S
H307 C303 0.930 . S
H308 C305 0.929 . S
S309 N310 1.613 . S
S309 N311 1.610 . S
N310 S309 1.613 . S
N310 C313 1.350 . S
N311 S309 1.610 . S
N311 C312 1.351 . S
C312 C306 1.428 . S
C312 N311 1.351 . S
C312 C313 1.434 . S
C313 C304 1.429 . S
C313 N310 1.350 . S
C313 C312 1.434 . S
C314 C315 1.369 . S
C314 C316 1.419 . S
C314 H318 0.930 . S
C315 C314 1.369 . S
C315 C324 1.429 . S
C316 C314 1.419 . S
C316 C317 1.363 . S
C316 H319 0.929 . S
C317 C316 1.363 . S
C317 C323 1.428 . S
H318 C314 0.930 . S
H319 C316 0.929 . S
S320 N321 1.613 . S
S320 N322 1.610 . S
N321 S320 1.613 . S
N321 C324 1.350 . S
N322 S320 1.610 . S
N322 C323 1.351 . S
C323 C317 1.428 . S
C323 N322 1.351 . S
C323 C324 1.434 . S
C324 C315 1.429 . S
C324 N321 1.350 . S
C324 C323 1.434 . S
C325 C326 1.370 . S
C325 C327 1.419 . S
C325 H329 0.930 . S
C326 C325 1.370 . S
C326 C335 1.429 . S
C327 C325 1.419 . S
C327 C328 1.363 . S
C327 H330 0.929 . S
C328 C327 1.363 . S
C328 C334 1.429 . S
H329 C325 0.930 . S
H330 C327 0.929 . S
S331 N332 1.613 . S
S331 N333 1.610 1_554 S
N332 S331 1.613 . S
N332 C335 1.351 . S
N333 S331 1.610 1_556 S
N333 C334 1.353 1_556 S
C334 C328 1.429 . S
C334 N333 1.353 1_554 S
C334 C335 1.434 . S
C335 C326 1.429 . S
C335 N332 1.351 . S
C335 C334 1.434 . S
C336 C337 1.369 . S
C336 C338 1.419 . S
C336 H340 0.930 . S
C337 C336 1.369 . S
C337 C346 1.429 . S
C338 C336 1.419 . S
C338 C339 1.363 . S
C338 H341 0.929 . S
C339 C338 1.363 . S
C339 C345 1.428 . S
H340 C336 0.930 . S
H341 C338 0.929 . S
S342 N343 1.613 . S
S342 N344 1.610 . S
N343 S342 1.613 . S
N343 C346 1.350 . S
N344 S342 1.610 . S
N344 C345 1.351 . S
C345 C339 1.428 . S
C345 N344 1.351 . S
C345 C346 1.434 . S
C346 C337 1.429 . S
C346 N343 1.350 . S
C346 C345 1.434 . S
C347 C348 1.369 1_545 S
C347 C349 1.419 1_545 S
C347 H351 0.930 . S
C348 C347 1.369 1_565 S
C348 C357 1.429 . S
C349 C347 1.419 1_565 S
C349 C350 1.363 . S
C349 H352 0.929 . S
C350 C349 1.363 . S
C350 C356 1.428 . S
H351 C347 0.930 . S
H352 C349 0.929 . S
S353 N354 1.613 . S
S353 N355 1.610 . S
N354 S353 1.613 . S
N354 C357 1.350 . S
N355 S353 1.610 . S
N355 C356 1.351 . S
C356 C350 1.428 . S
C356 N355 1.351 . S
C356 C357 1.434 . S
C357 C348 1.429 . S
C357 N354 1.350 . S
C357 C356 1.434 . S
C358 C359 1.369 . S
C358 C360 1.419 . S
C358 H362 0.930 . S
C359 C358 1.369 . S
C359 C368 1.429 . S
C360 C358 1.419 . S
C360 C361 1.363 . S
C360 H363 0.929 . S
C361 C360 1.363 . S
C361 C367 1.428 . S
H362 C358 0.930 . S
H363 C360 0.929 . S
S364 N365 1.613 . S
S364 N366 1.610 . S
N365 S364 1.613 . S
N365 C368 1.350 . S
N366 S364 1.610 . S
N366 C367 1.351 . S
C367 C361 1.428 . S
C367 N366 1.351 . S
C367 C368 1.434 . S
C368 C359 1.429 . S
C368 N365 1.350 . S
C368 C367 1.434 . S
C369 C370 1.369 . S
C369 C371 1.419 . S
C369 H373 0.930 . S
C370 C369 1.369 . S
C370 C379 1.429 . S
C371 C369 1.419 . S
C371 C372 1.363 . S
C371 H374 0.929 . S
C372 C371 1.363 . S
C372 C378 1.428 . S
H373 C369 0.930 . S
H374 C371 0.929 . S
S375 N376 1.613 . S
S375 N377 1.610 . S
N376 S375 1.613 . S
N376 C379 1.350 . S
N377 S375 1.610 . S
N377 C378 1.351 . S
C378 C372 1.428 . S
C378 N377 1.351 . S
C378 C379 1.434 . S
C379 C370 1.429 . S
C379 N376 1.350 . S
C379 C378 1.434 . S
C380 C381 1.369 1_655 S
C380 C382 1.419 1_655 S
C380 H384 0.930 . S
C381 C380 1.369 1_455 S
C381 C390 1.429 . S
C382 C380 1.419 1_455 S
C382 C383 1.363 . S
C382 H385 0.929 . S
C383 C382 1.363 . S
C383 C389 1.428 . S
H384 C380 0.930 . S
H385 C382 0.929 . S
S386 N387 1.613 . S
S386 N388 1.610 . S
N387 S386 1.613 . S
N387 C390 1.350 . S
N388 S386 1.610 . S
N388 C389 1.351 . S
C389 C383 1.428 . S
C389 N388 1.351 . S
C389 C390 1.434 . S
C390 C381 1.429 . S
C390 N387 1.350 . S
C390 C389 1.434 . S
C391 C392 1.369 1_565 S
C391 C393 1.419 1_565 S
C391 H395 0.930 . S
C392 C391 1.369 1_545 S
C392 C401 1.429 . S
C393 C391 1.419 1_545 S
C393 C394 1.363 . S
C393 H396 0.929 1_545 S
C394 C393 1.363 . S
C394 C400 1.428 . S
H395 C391 0.930 . S
H396 C393 0.929 1_565 S
S397 N398 1.613 . S
S397 N399 1.610 . S
N398 S397 1.613 . S
N398 C401 1.350 . S
N399 S397 1.610 . S
N399 C400 1.351 . S
C400 C394 1.428 . S
C400 N399 1.351 . S
C400 C401 1.434 . S
C401 C392 1.429 . S
C401 N398 1.350 . S
C401 C400 1.434 . S
C402 C403 1.369 . S
C402 C404 1.419 . S
C402 H406 0.930 . S
C403 C402 1.369 . S
C403 C412 1.429 . S
C404 C402 1.419 . S
C404 C405 1.363 . S
C404 H407 0.929 . S
C405 C404 1.363 . S
C405 C411 1.428 . S
H406 C402 0.930 . S
H407 C404 0.929 . S
S408 N409 1.613 . S
S408 N410 1.610 . S
N409 S408 1.613 . S
N409 C412 1.350 . S
N410 S408 1.610 . S
N410 C411 1.351 . S
C411 C405 1.428 . S
C411 N410 1.351 . S
C411 C412 1.434 . S
C412 C403 1.429 . S
C412 N409 1.350 . S
C412 C411 1.434 . S
C413 C414 1.369 . S
C413 C415 1.419 . S
C413 H417 0.930 . S
C414 C413 1.369 . S
C414 C423 1.429 . S
C415 C413 1.419 . S
C415 C416 1.363 . S
C415 H418 0.929 . S
C416 C415 1.363 . S
C416 C422 1.428 . S
H417 C413 0.930 . S
H418 C415 0.929 . S
S419 N420 1.613 . S
S419 N421 1.610 . S
N420 S419 1.613 . S
N420 C423 1.350 . S
N421 S419 1.610 . S
N421 C422 1.351 . S
C422 C416 1.428 . S
C422 N421 1.351 . S
C422 C423 1.434 . S
C423 C414 1.429 . S
C423 N420 1.350 . S
C423 C422 1.434 . S
C424 C425 1.369 . S
C424 C426 1.419 . S
C424 H428 0.930 . S
C425 C424 1.369 . S
C425 C434 1.429 1_455 S
C426 C424 1.419 . S
C426 C427 1.363 . S
C426 H429 0.929 . S
C427 C426 1.363 . S
C427 C433 1.428 1_455 S
H428 C424 0.930 . S
H429 C426 0.929 . S
S430 N431 1.613 . S
S430 N432 1.610 . S
N431 S430 1.613 . S
N431 C434 1.350 . S
N432 S430 1.610 . S
N432 C433 1.351 . S
C433 C427 1.428 1_655 S
C433 N432 1.351 . S
C433 C434 1.434 . S
C434 C425 1.429 1_655 S
C434 N431 1.350 . S
C434 C433 1.434 . S
C435 C436 1.369 1_565 S
C435 C437 1.419 . S
C435 H439 0.930 . S
C436 C435 1.369 1_545 S
C436 C445 1.429 . S
C437 C435 1.419 . S
C437 C438 1.363 1_565 S
C437 H440 0.929 . S
C438 C437 1.363 1_545 S
C438 C444 1.428 . S
H439 C435 0.930 . S
H440 C437 0.929 . S
S441 N442 1.613 . S
S441 N443 1.610 . S
N442 S441 1.613 . S
N442 C445 1.350 . S
N443 S441 1.610 . S
N443 C444 1.351 . S
C444 C438 1.428 . S
C444 N443 1.351 . S
C444 C445 1.434 . S
C445 C436 1.429 . S
C445 N442 1.350 . S
C445 C444 1.434 . S
C446 C447 1.369 . S
C446 C448 1.419 . S
C446 H450 0.930 . S
C447 C446 1.369 . S
C447 C456 1.429 . S
C448 C446 1.419 . S
C448 C449 1.363 . S
C448 H451 0.929 . S
C449 C448 1.363 . S
C449 C455 1.428 . S
H450 C446 0.930 . S
H451 C448 0.929 . S
S452 N453 1.613 . S
S452 N454 1.610 . S
N453 S452 1.613 . S
N453 C456 1.350 . S
N454 S452 1.610 . S
N454 C455 1.351 . S
C455 C449 1.428 . S
C455 N454 1.351 . S
C455 C456 1.434 . S
C456 C447 1.429 . S
C456 N453 1.350 . S
C456 C455 1.434 . S
C457 C458 1.369 . S
C457 C459 1.419 . S
C457 H461 0.930 . S
C458 C457 1.369 . S
C458 C467 1.429 . S
C459 C457 1.419 . S
C459 C460 1.363 . S
C459 H462 0.929 . S
C460 C459 1.363 . S
C460 C466 1.428 . S
H461 C457 0.930 . S
H462 C459 0.929 . S
S463 N464 1.613 . S
S463 N465 1.610 . S
N464 S463 1.613 . S
N464 C467 1.350 . S
N465 S463 1.610 . S
N465 C466 1.351 . S
C466 C460 1.428 . S
C466 N465 1.351 . S
C466 C467 1.434 . S
C467 C458 1.429 . S
C467 N464 1.350 . S
C467 C466 1.434 . S
C468 C469 1.369 . S
C468 C470 1.419 . S
C468 H472 0.930 . S
C469 C468 1.369 . S
C469 C478 1.429 1_655 S
C470 C468 1.419 . S
C470 C471 1.363 . S
C470 H473 0.929 . S
C471 C470 1.363 . S
C471 C477 1.428 1_655 S
H472 C468 0.930 . S
H473 C470 0.929 . S
S474 N475 1.613 . S
S474 N476 1.610 . S
N475 S474 1.613 . S
N475 C478 1.350 . S
N476 S474 1.610 . S
N476 C477 1.351 . S
C477 C471 1.428 1_455 S
C477 N476 1.351 . S
C477 C478 1.434 . S
C478 C469 1.429 1_455 S
C478 N475 1.350 . S
C478 C477 1.434 . S
C479 C480 1.369 1_545 S
C479 C481 1.419 . S
C479 H483 0.930 . S
C480 C479 1.369 1_565 S
C480 C489 1.429 . S
C481 C479 1.419 . S
C481 C482 1.363 1_545 S
C481 H484 0.929 . S
C482 C481 1.363 1_565 S
C482 C488 1.428 . S
H483 C479 0.930 . S
H484 C481 0.929 . S
S485 N486 1.613 . S
S485 N487 1.610 . S
N486 S485 1.613 . S
N486 C489 1.350 . S
N487 S485 1.610 . S
N487 C488 1.351 . S
C488 C482 1.428 . S
C488 N487 1.351 . S
C488 C489 1.434 . S
C489 C480 1.429 . S
C489 N486 1.350 . S
C489 C488 1.434 . S
C490 C491 1.369 . S
C490 C492 1.419 . S
C490 H494 0.930 . S
C491 C490 1.369 . S
C491 C500 1.429 . S
C492 C490 1.419 . S
C492 C493 1.363 . S
C492 H495 0.929 . S
C493 C492 1.363 . S
C493 C499 1.428 . S
H494 C490 0.930 . S
H495 C492 0.929 . S
S496 N497 1.613 . S
S496 N498 1.610 . S
N497 S496 1.613 . S
N497 C500 1.350 . S
N498 S496 1.610 . S
N498 C499 1.351 . S
C499 C493 1.428 . S
C499 N498 1.351 . S
C499 C500 1.434 . S
C500 C491 1.429 . S
C500 N497 1.350 . S
C500 C499 1.434 . S
C501 C502 1.369 . S
C501 C503 1.419 . S
C501 H505 0.930 . S
C502 C501 1.369 . S
C502 C511 1.429 . S
C503 C501 1.419 . S
C503 C504 1.363 . S
C503 H506 0.929 . S
C504 C503 1.363 . S
C504 C510 1.428 . S
H505 C501 0.930 . S
H506 C503 0.929 . S
S507 N508 1.613 . S
S507 N509 1.610 . S
N508 S507 1.613 . S
N508 C511 1.350 . S
N509 S507 1.610 . S
N509 C510 1.351 . S
C510 C504 1.428 . S
C510 N509 1.351 . S
C510 C511 1.434 . S
C511 C502 1.429 . S
C511 N508 1.350 . S
C511 C510 1.434 . S
C249 C74 1.929 1_565 S
C251 C90 2.125 . S
C262 C130 2.138 . S
C260 C85 1.942 . S
C273 C170 2.148 . S
C271 C52 1.945 . S
C284 C210 2.131 1_455 S
C282 C63 1.944 . S
C295 C103 2.127 1_554 S
C293 C30 1.936 . S
C304 C41 1.956 . S
C306 C143 2.144 1_554 S
C315 C8 1.962 . S
C317 C183 2.145 1_554 S
C326 C19 1.936 1_655 S
C328 C223 2.135 1_654 S
C339 C114 0.821 . S
C337 C62 0.831 1_655 S
C350 C154 0.829 . S
C348 C73 0.831 1_565 S
C361 C194 0.810 . S
C359 C84 0.827 . S
C370 C51 0.822 . S
C372 C234 0.801 . S
C381 C18 0.790 . S
C383 C97 0.831 . S
C394 C137 0.828 . S
C392 C29 0.794 . S
C405 C177 0.810 . S
C403 C40 0.811 . S
C414 C7 0.786 . S
C416 C217 0.820 . S
C425 C60 1.924 . S
C427 C91 2.545 . S
C436 C71 1.879 . S
C438 C131 2.521 . S
C449 C171 2.508 . S
C447 C82 1.849 . S
C460 C211 2.542 . S
C458 C49 1.868 . S
C469 C16 2.011 1_655 S
C471 C110 2.554 . S
C482 C150 2.520 . S
C480 C27 1.993 1_565 S
C493 C190 2.509 . S
C491 C38 2.008 . S
C502 C5 2.031 . S
C504 C230 2.544 . S
