# Generated by pormake.
# Topology iac, (4,6)-cn, num edge types: 1
# Building blocks:
#     Node 0, Type 0, BuildingBlock: QUQFOY_clean_sbu_3, # of connection points: 4
#     Node 1, Type 0, BuildingBlock: QUQFOY_clean_sbu_3, # of connection points: 4
#     Node 2, Type 0, BuildingBlock: QUQFOY_clean_sbu_3, # of connection points: 4
#     Node 3, Type 0, BuildingBlock: QUQFOY_clean_sbu_3, # of connection points: 4
#     Node 4, Type 0, BuildingBlock: QUQFOY_clean_sbu_3, # of connection points: 4
#     Node 5, Type 0, BuildingBlock: QUQFOY_clean_sbu_3, # of connection points: 4
#     Node 6, Type 0, BuildingBlock: QUQFOY_clean_sbu_3, # of connection points: 4
#     Node 7, Type 0, BuildingBlock: QUQFOY_clean_sbu_3, # of connection points: 4
#     Node 8, Type 0, BuildingBlock: QUQFOY_clean_sbu_3, # of connection points: 4
#     Node 9, Type 0, BuildingBlock: QUQFOY_clean_sbu_3, # of connection points: 4
#     Node 10, Type 0, BuildingBlock: QUQFOY_clean_sbu_3, # of connection points: 4
#     Node 11, Type 0, BuildingBlock: QUQFOY_clean_sbu_3, # of connection points: 4
#     Node 12, Type 0, BuildingBlock: QUQFOY_clean_sbu_3, # of connection points: 4
#     Node 13, Type 0, BuildingBlock: QUQFOY_clean_sbu_3, # of connection points: 4
#     Node 14, Type 0, BuildingBlock: QUQFOY_clean_sbu_3, # of connection points: 4
#     Node 15, Type 0, BuildingBlock: QUQFOY_clean_sbu_3, # of connection points: 4
#     Node 16, Type 0, BuildingBlock: QUQFOY_clean_sbu_3, # of connection points: 4
#     Node 17, Type 0, BuildingBlock: QUQFOY_clean_sbu_3, # of connection points: 4
#     Node 18, Type 0, BuildingBlock: QUQFOY_clean_sbu_3, # of connection points: 4
#     Node 19, Type 0, BuildingBlock: QUQFOY_clean_sbu_3, # of connection points: 4
#     Node 20, Type 0, BuildingBlock: QUQFOY_clean_sbu_3, # of connection points: 4
#     Node 21, Type 0, BuildingBlock: QUQFOY_clean_sbu_3, # of connection points: 4
#     Node 22, Type 0, BuildingBlock: QUQFOY_clean_sbu_3, # of connection points: 4
#     Node 23, Type 0, BuildingBlock: QUQFOY_clean_sbu_3, # of connection points: 4
#     Node 24, Type 1, BuildingBlock: VOLQOD_clean_sbu_1, # of connection points: 6
#     Node 25, Type 1, BuildingBlock: VOLQOD_clean_sbu_1, # of connection points: 6
#     Node 26, Type 1, BuildingBlock: VOLQOD_clean_sbu_1, # of connection points: 6
#     Node 27, Type 1, BuildingBlock: VOLQOD_clean_sbu_1, # of connection points: 6
#     Node 28, Type 1, BuildingBlock: VOLQOD_clean_sbu_1, # of connection points: 6
#     Node 29, Type 1, BuildingBlock: VOLQOD_clean_sbu_1, # of connection points: 6
#     Node 30, Type 1, BuildingBlock: VOLQOD_clean_sbu_1, # of connection points: 6
#     Node 31, Type 1, BuildingBlock: VOLQOD_clean_sbu_1, # of connection points: 6
#     Node 32, Type 1, BuildingBlock: VOLQOD_clean_sbu_1, # of connection points: 6
#     Node 33, Type 1, BuildingBlock: VOLQOD_clean_sbu_1, # of connection points: 6
#     Node 34, Type 1, BuildingBlock: VOLQOD_clean_sbu_1, # of connection points: 6
#     Node 35, Type 1, BuildingBlock: VOLQOD_clean_sbu_1, # of connection points: 6
#     Node 36, Type 1, BuildingBlock: VOLQOD_clean_sbu_1, # of connection points: 6
#     Node 37, Type 1, BuildingBlock: VOLQOD_clean_sbu_1, # of connection points: 6
#     Node 38, Type 1, BuildingBlock: VOLQOD_clean_sbu_1, # of connection points: 6
#     Node 39, Type 1, BuildingBlock: VOLQOD_clean_sbu_1, # of connection points: 6
#     Edge 40, Type (0, 1), None
#     Edge 41, Type (0, 1), None
#     Edge 42, Type (0, 1), None
#     Edge 43, Type (0, 1), None
#     Edge 44, Type (0, 1), None
#     Edge 45, Type (0, 1), None
#     Edge 46, Type (0, 1), None
#     Edge 47, Type (0, 1), None
#     Edge 48, Type (0, 1), None
#     Edge 49, Type (0, 1), None
#     Edge 50, Type (0, 1), None
#     Edge 51, Type (0, 1), None
#     Edge 52, Type (0, 1), None
#     Edge 53, Type (0, 1), None
#     Edge 54, Type (0, 1), None
#     Edge 55, Type (0, 1), None
#     Edge 56, Type (0, 1), None
#     Edge 57, Type (0, 1), None
#     Edge 58, Type (0, 1), None
#     Edge 59, Type (0, 1), None
#     Edge 60, Type (0, 1), None
#     Edge 61, Type (0, 1), None
#     Edge 62, Type (0, 1), None
#     Edge 63, Type (0, 1), None
#     Edge 64, Type (0, 1), None
#     Edge 65, Type (0, 1), None
#     Edge 66, Type (0, 1), None
#     Edge 67, Type (0, 1), None
#     Edge 68, Type (0, 1), None
#     Edge 69, Type (0, 1), None
#     Edge 70, Type (0, 1), None
#     Edge 71, Type (0, 1), None
#     Edge 72, Type (0, 1), None
#     Edge 73, Type (0, 1), None
#     Edge 74, Type (0, 1), None
#     Edge 75, Type (0, 1), None
#     Edge 76, Type (0, 1), None
#     Edge 77, Type (0, 1), None
#     Edge 78, Type (0, 1), None
#     Edge 79, Type (0, 1), None
#     Edge 80, Type (0, 1), None
#     Edge 81, Type (0, 1), None
#     Edge 82, Type (0, 1), None
#     Edge 83, Type (0, 1), None
#     Edge 84, Type (0, 1), None
#     Edge 85, Type (0, 1), None
#     Edge 86, Type (0, 1), None
#     Edge 87, Type (0, 1), None
#     Edge 88, Type (0, 1), None
#     Edge 89, Type (0, 1), None
#     Edge 90, Type (0, 1), None
#     Edge 91, Type (0, 1), None
#     Edge 92, Type (0, 1), None
#     Edge 93, Type (0, 1), None
#     Edge 94, Type (0, 1), None
#     Edge 95, Type (0, 1), None
#     Edge 96, Type (0, 1), None
#     Edge 97, Type (0, 1), None
#     Edge 98, Type (0, 1), None
#     Edge 99, Type (0, 1), None
#     Edge 100, Type (0, 1), None
#     Edge 101, Type (0, 1), None
#     Edge 102, Type (0, 1), None
#     Edge 103, Type (0, 1), None
#     Edge 104, Type (0, 1), None
#     Edge 105, Type (0, 1), None
#     Edge 106, Type (0, 1), None
#     Edge 107, Type (0, 1), None
#     Edge 108, Type (0, 1), None
#     Edge 109, Type (0, 1), None
#     Edge 110, Type (0, 1), None
#     Edge 111, Type (0, 1), None
#     Edge 112, Type (0, 1), None
#     Edge 113, Type (0, 1), None
#     Edge 114, Type (0, 1), None
#     Edge 115, Type (0, 1), None
#     Edge 116, Type (0, 1), None
#     Edge 117, Type (0, 1), None
#     Edge 118, Type (0, 1), None
#     Edge 119, Type (0, 1), None
#     Edge 120, Type (0, 1), None
#     Edge 121, Type (0, 1), None
#     Edge 122, Type (0, 1), None
#     Edge 123, Type (0, 1), None
#     Edge 124, Type (0, 1), None
#     Edge 125, Type (0, 1), None
#     Edge 126, Type (0, 1), None
#     Edge 127, Type (0, 1), None
#     Edge 128, Type (0, 1), None
#     Edge 129, Type (0, 1), None
#     Edge 130, Type (0, 1), None
#     Edge 131, Type (0, 1), None
#     Edge 132, Type (0, 1), None
#     Edge 133, Type (0, 1), None
#     Edge 134, Type (0, 1), None
#     Edge 135, Type (0, 1), None
# Relax obj value: 0.304
# Max RMSD: 0.291
# Mean RMSD: 0.139
data_MOF--net-iac--node1-QUQFOY_clean_sbu_3--node2-VOLQOD_clean_sbu_1--edge1-none
_symmetry_space_group_name_H-M    P1
_symmetry_Int_Tables_number       1
_symmetry_cell_setting            triclinic
loop_
_symmetry_equiv_pos_as_xyz
'x, y, z'
_cell_length_a     28.252565
_cell_length_b     28.671528
_cell_length_c     28.566622
_cell_angle_alpha  91.053609
_cell_angle_beta   90.638286
_cell_angle_gamma 90.279097
loop_
_atom_site_label
_atom_site_type_symbol
_atom_site_fract_x
_atom_site_fract_y
_atom_site_fract_z
_atom_type_partial_charge
C0 C 0.87355 0.19382 0.17974 0.0
O1 O 0.90451 0.17346 0.20431 0.0
Cd2 Cd -0.01921 0.16472 0.17402 0.0
O3 O 0.88522 0.21667 0.14313 0.0
Cd4 Cd -0.03778 0.23717 0.09788 0.0
C5 C 0.94594 0.12803 0.06141 0.0
O6 O 0.01047 0.24361 0.17014 0.0
O7 O 0.04929 0.23686 0.10618 0.0
O8 O -0.04388 0.32036 0.08293 0.0
C9 C 0.04936 0.24835 0.14927 0.0
O10 O -0.04248 0.11994 0.10366 0.0
C11 C -0.03186 0.31755 0.04015 0.0
O12 O 0.94738 0.16924 0.04626 0.0
O13 O -0.02839 0.277 0.0222 0.0
C14 C 0.88694 0.76233 0.26655 0.0
O15 O 0.91781 0.78161 0.24144 0.0
Cd16 Cd -0.00702 0.78743 0.27511 0.0
O17 O 0.89866 0.74037 0.30379 0.0
Cd18 Cd -0.02637 0.7166 0.35033 0.0
C19 C -0.04333 0.82078 0.38894 0.0
O20 O 0.01332 0.70627 0.27588 0.0
O21 O 0.05906 0.71292 0.33586 0.0
O22 O 0.94319 0.6412 0.36753 0.0
C23 C 0.05385 0.69999 0.29343 0.0
O24 O -0.03307 0.82813 0.34643 0.0
C25 C -0.02919 0.63372 0.40211 0.0
O26 O -0.03946 0.7804 0.40544 0.0
O27 O -0.0012 0.66618 0.41488 0.0
C28 C 0.37355 0.69382 0.67974 0.0
O29 O 0.40451 0.67346 0.70431 0.0
Cd30 Cd 0.48079 0.66472 0.67402 0.0
O31 O 0.38522 0.71667 0.64313 0.0
Cd32 Cd 0.46222 0.73717 0.59788 0.0
C33 C 0.44594 0.62803 0.56141 0.0
O34 O 0.51047 0.74361 0.67014 0.0
O35 O 0.54929 0.73686 0.60618 0.0
O36 O 0.45612 0.82036 0.58293 0.0
C37 C 0.54936 0.74835 0.64927 0.0
O38 O 0.45752 0.61994 0.60366 0.0
C39 C 0.46814 0.81755 0.54015 0.0
O40 O 0.44738 0.66924 0.54626 0.0
O41 O 0.47161 0.777 0.5222 0.0
C42 C 0.38694 0.26233 0.76655 0.0
O43 O 0.41781 0.28161 0.74144 0.0
Cd44 Cd 0.49298 0.28743 0.77511 0.0
O45 O 0.39866 0.24037 0.80379 0.0
Cd46 Cd 0.47363 0.2166 0.85033 0.0
C47 C 0.45667 0.32078 0.88894 0.0
O48 O 0.51332 0.20627 0.77588 0.0
O49 O 0.55906 0.21292 0.83586 0.0
O50 O 0.44319 0.1412 0.86753 0.0
C51 C 0.55385 0.19999 0.79343 0.0
O52 O 0.46693 0.32813 0.84643 0.0
C53 C 0.47081 0.13372 0.90211 0.0
O54 O 0.46054 0.2804 0.90544 0.0
O55 O 0.4988 0.16618 0.91488 0.0
C56 C 0.01195 0.00896 0.30321 0.0
O57 O -0.01367 0.0292 0.2732 0.0
Cd58 Cd 0.01988 0.03901 0.19966 0.0
O59 O 0.05009 -0.01245 0.29086 0.0
Cd60 Cd 0.09929 -0.03276 0.21503 0.0
C61 C 0.13222 0.07777 0.23791 0.0
O62 O 0.02336 0.9593 0.16971 0.0
O63 O 0.08623 0.96345 0.12885 0.0
O64 O 0.1228 0.89098 0.24467 0.0
C65 C 0.04237 0.95406 0.13007 0.0
O66 O 0.08886 0.08484 0.22793 0.0
C67 C 0.15763 0.88354 0.21759 0.0
O68 O 0.14965 0.03732 0.23191 0.0
O69 O 0.16763 0.91583 0.1897 0.0
C70 C 0.28567 0.92569 0.44231 0.0
O71 O 0.25672 0.94301 0.41334 0.0
Cd72 Cd 0.18111 0.90957 0.40344 0.0
O73 O 0.27363 0.89271 0.46967 0.0
Cd74 Cd 0.19964 0.84655 0.4892 0.0
C75 C 0.21496 0.79418 0.38577 0.0
O76 O 0.15344 0.91755 0.48233 0.0
O77 O 0.11312 0.85398 0.48586 0.0
O78 O 0.20398 0.83859 0.57362 0.0
C79 C 0.11424 0.89809 0.48972 0.0
O80 O 0.1995 0.83225 0.36936 0.0
C81 C 0.19255 0.79553 0.57302 0.0
O82 O 0.21859 0.78875 0.42943 0.0
O83 O 0.18947 0.77499 0.5335 0.0
C84 C 0.40721 0.94119 0.79651 0.0
O85 O 0.43195 0.91493 0.77043 0.0
Cd86 Cd 0.40169 0.905 0.69419 0.0
O87 O 0.3729 0.96529 0.77981 0.0
Cd88 Cd 0.32713 -0.01627 0.70548 0.0
C89 C 0.28782 0.87945 0.73453 0.0
O90 O 0.40136 -0.01693 0.66273 0.0
O91 O 0.33738 -0.0214 0.62085 0.0
O92 O 0.32051 0.06803 0.7133 0.0
C93 C 0.38129 -0.01184 0.62338 0.0
O94 O 0.33006 0.86867 0.72409 0.0
C95 C 0.27775 0.07009 0.69908 0.0
O96 O 0.27254 0.92013 0.72668 0.0
O97 O 0.25585 0.03175 0.69282 0.0
C98 C 0.28055 0.02921 0.00246 0.0
O99 O 0.25271 0.00961 0.03056 0.0
Cd100 Cd 0.17614 0.04008 0.03676 0.0
O101 O 0.2671 0.0634 -0.02304 0.0
Cd102 Cd 0.1974 0.11646 0.95817 0.0
C103 C 0.21477 0.15313 0.06754 0.0
O104 O 0.15202 0.04514 0.95604 0.0
O105 O 0.11077 0.10803 0.95547 0.0
O106 O 0.20717 0.12622 0.87459 0.0
C107 C 0.11254 0.06419 0.94886 0.0
O108 O 0.20169 0.11166 0.07598 0.0
C109 C 0.19777 0.16955 0.87464 0.0
O110 O 0.21438 0.16802 0.02606 0.0
O111 O 0.19307 0.18977 0.91409 0.0
C112 C 0.78567 0.42569 0.94231 0.0
O113 O 0.75672 0.44301 0.91334 0.0
Cd114 Cd 0.68111 0.40957 0.90344 0.0
O115 O 0.77363 0.39271 -0.03033 0.0
Cd116 Cd 0.69964 0.34655 -0.0108 0.0
C117 C 0.71496 0.29418 0.88577 0.0
O118 O 0.65344 0.41755 -0.01767 0.0
O119 O 0.61312 0.35398 -0.01414 0.0
O120 O 0.70398 0.33859 0.07362 0.0
C121 C 0.61424 0.39809 -0.01028 0.0
O122 O 0.69951 0.33225 0.86936 0.0
C123 C 0.69255 0.29553 0.07302 0.0
O124 O 0.71859 0.28875 0.92943 0.0
O125 O 0.68948 0.27499 0.0335 0.0
C126 C 0.90721 0.44119 0.29651 0.0
O127 O 0.93195 0.41493 0.27043 0.0
Cd128 Cd 0.90169 0.405 0.19419 0.0
O129 O 0.8729 0.46529 0.27981 0.0
Cd130 Cd 0.82713 0.48373 0.20548 0.0
C131 C 0.78782 0.37945 0.23453 0.0
O132 O 0.90136 0.48307 0.16273 0.0
O133 O 0.83738 0.4786 0.12085 0.0
O134 O 0.82051 0.56803 0.2133 0.0
C135 C 0.88129 0.48816 0.12338 0.0
O136 O 0.83006 0.36867 0.22409 0.0
C137 C 0.77775 0.57009 0.19908 0.0
O138 O 0.77254 0.42013 0.22668 0.0
O139 O 0.75585 0.53175 0.19282 0.0
C140 C 0.78055 0.52921 0.50246 0.0
O141 O 0.75271 0.50961 0.53056 0.0
Cd142 Cd 0.67614 0.54008 0.53676 0.0
O143 O 0.76711 0.5634 0.47696 0.0
Cd144 Cd 0.6974 0.61646 0.45818 0.0
C145 C 0.71477 0.65313 0.56754 0.0
O146 O 0.65202 0.54514 0.45605 0.0
O147 O 0.61078 0.60803 0.45547 0.0
O148 O 0.70717 0.62622 0.37459 0.0
C149 C 0.61253 0.5642 0.44886 0.0
O150 O 0.70169 0.61166 0.57598 0.0
C151 C 0.69777 0.66955 0.37464 0.0
O152 O 0.71438 0.66803 0.52606 0.0
O153 O 0.69307 0.68977 0.41409 0.0
C154 C 0.51195 0.50896 0.80321 0.0
O155 O 0.48633 0.5292 0.7732 0.0
Cd156 Cd 0.51988 0.539 0.69966 0.0
O157 O 0.55009 0.48755 0.79086 0.0
Cd158 Cd 0.59929 0.46724 0.71503 0.0
C159 C 0.63222 0.57777 0.73791 0.0
O160 O 0.52336 0.45929 0.66971 0.0
O161 O 0.58623 0.46345 0.62885 0.0
O162 O 0.6228 0.39098 0.74467 0.0
C163 C 0.54237 0.45406 0.63007 0.0
O164 O 0.58886 0.58484 0.72793 0.0
C165 C 0.65764 0.38354 0.7176 0.0
O166 O 0.64965 0.53732 0.73191 0.0
O167 O 0.66763 0.41583 0.6897 0.0
C168 C 0.87307 0.72314 0.77948 0.0
O169 O 0.88819 0.75949 0.75952 0.0
Cd170 Cd -0.03632 0.79829 0.78067 0.0
O171 O 0.89534 0.70696 0.814 0.0
Cd172 Cd -0.03039 0.71823 0.85535 0.0
C173 C -0.02514 0.82585 0.8994 0.0
O174 O 0.01957 0.73838 0.78707 0.0
O175 O 0.05374 0.73451 0.85511 0.0
O176 O -0.02689 0.63459 0.8565 0.0
C177 C 0.05637 0.74524 0.81225 0.0
O178 O -0.02399 0.83852 0.85688 0.0
C179 C 0.95399 0.63054 0.89629 0.0
O180 O -0.03523 0.7841 0.90983 0.0
O181 O 0.94767 0.66761 0.92034 0.0
C182 C 0.88674 0.22212 0.67944 0.0
O183 O 0.91202 0.19227 0.70065 0.0
Cd184 Cd -0.01107 0.15977 0.67853 0.0
O185 O 0.89964 0.23797 0.6403 0.0
Cd186 Cd -0.02856 0.23506 0.59061 0.0
C187 C -0.01096 0.12172 0.5614 0.0
O188 O 0.02598 0.22814 0.65673 0.0
O189 O 0.05918 0.23896 0.59046 0.0
O190 O 0.94669 0.31449 0.58092 0.0
C191 C 0.06333 0.22718 0.63292 0.0
O192 O -0.00568 0.11362 0.60492 0.0
C193 C 0.94085 0.31223 0.5368 0.0
O194 O -0.02577 0.16109 0.54768 0.0
O195 O 0.95311 0.27461 0.51616 0.0
C196 C 0.37307 0.22315 0.27948 0.0
O197 O 0.38819 0.25949 0.25952 0.0
Cd198 Cd 0.46368 0.29829 0.28067 0.0
O199 O 0.39534 0.20696 0.314 0.0
Cd200 Cd 0.46962 0.21823 0.35535 0.0
C201 C 0.47486 0.32585 0.3994 0.0
O202 O 0.51957 0.23838 0.28707 0.0
O203 O 0.55374 0.2345 0.35511 0.0
O204 O 0.47311 0.13458 0.3565 0.0
C205 C 0.55637 0.24524 0.31225 0.0
O206 O 0.47601 0.33852 0.35688 0.0
C207 C 0.45399 0.13054 0.39629 0.0
O208 O 0.46478 0.2841 0.40983 0.0
O209 O 0.44767 0.16761 0.42034 0.0
C210 C 0.38674 0.72212 0.17944 0.0
O211 O 0.41202 0.69227 0.20065 0.0
Cd212 Cd 0.48893 0.65977 0.17853 0.0
O213 O 0.39964 0.73797 0.1403 0.0
Cd214 Cd 0.47144 0.73506 0.09061 0.0
C215 C 0.48904 0.62172 0.0614 0.0
O216 O 0.52598 0.72814 0.15673 0.0
O217 O 0.55918 0.73895 0.09046 0.0
O218 O 0.44669 0.81449 0.08092 0.0
C219 C 0.56333 0.72718 0.13292 0.0
O220 O 0.49432 0.61362 0.10492 0.0
C221 C 0.44085 0.81223 0.0368 0.0
O222 O 0.47423 0.66109 0.04768 0.0
O223 O 0.45311 0.77461 0.01616 0.0
C224 C 0.90337 -0.01448 0.80621 0.0
O225 O 0.89347 0.02168 0.78412 0.0
Cd226 Cd 0.85135 -0.02405 0.72033 0.0
O227 O 0.88759 0.94727 0.78878 0.0
Cd228 Cd 0.83793 -0.02395 0.71668 0.0
C229 C 0.79556 0.88367 0.70575 0.0
O230 O 0.90495 -0.03115 0.65853 0.0
O231 O 0.83439 -0.03414 0.62974 0.0
O232 O 0.83093 0.06237 0.73161 0.0
C233 C 0.87845 0.9614 0.62308 0.0
O234 O 0.83567 0.88922 0.72553 0.0
C235 C 0.79055 0.05974 0.75068 0.0
O236 O 0.7734 0.92017 0.69584 0.0
O237 O 0.77097 0.0199 0.75058 0.0
C238 C 0.79324 0.0229 0.46403 0.0
O239 O 0.77823 -0.00267 0.49656 0.0
Cd240 Cd 0.70761 0.0191 0.54073 0.0
O241 O 0.77277 0.06084 0.45505 0.0
Cd242 Cd 0.70107 0.10383 0.47092 0.0
C243 C 0.70005 0.13618 0.58108 0.0
O244 O 0.65184 0.03245 0.48171 0.0
O245 O 0.61639 0.09871 0.48716 0.0
O246 O 0.69421 0.11361 0.38802 0.0
C247 C 0.61455 0.05471 0.49168 0.0
O248 O 0.69952 0.09216 0.5871 0.0
C249 C 0.71593 0.15243 0.38652 0.0
O250 O 0.70745 0.15286 0.54097 0.0
O251 O 0.72602 0.17252 0.4253 0.0
C252 C 0.50193 0.96322 0.30591 0.0
O253 O 0.47399 -0.00611 0.29017 0.0
Cd254 Cd 0.49325 0.03548 0.2191 0.0
O255 O 0.5408 0.95513 0.28558 0.0
Cd256 Cd 0.58379 -0.03075 0.21253 0.0
C257 C 0.60853 0.08316 0.20799 0.0
O258 O 0.50905 -0.02664 0.16689 0.0
O259 O 0.57333 -0.01406 0.12874 0.0
O260 O 0.6008 0.88773 0.20295 0.0
C261 C 0.52834 -0.01496 0.12903 0.0
O262 O 0.56384 0.08757 0.21303 0.0
C263 C 0.63853 0.88678 0.22756 0.0
O264 O 0.62783 0.04323 0.20989 0.0
O265 O 0.65536 0.92581 0.2414 0.0
C266 C 0.78831 0.94521 -0.02783 0.0
O267 O 0.76682 0.96463 0.93839 0.0
Cd268 Cd 0.68801 0.94717 0.90894 0.0
O269 O 0.77144 0.90888 -0.0096 0.0
Cd270 Cd 0.70044 0.8597 -0.01602 0.0
C271 C 0.68409 0.83102 0.86926 0.0
O272 O 0.65042 0.92754 -0.02193 0.0
O273 O 0.61395 0.86111 -0.02252 0.0
O274 O 0.70583 0.8485 0.0661 0.0
C275 C 0.61223 0.90501 -0.02776 0.0
O276 O 0.68155 0.87467 0.86172 0.0
C277 C 0.7267 0.80937 0.06467 0.0
O278 O 0.69557 0.81598 0.90949 0.0
O279 O 0.7315 0.78988 0.02476 0.0
C280 C 0.29324 0.5229 -0.03597 0.0
O281 O 0.27823 0.49733 -0.00344 0.0
Cd282 Cd 0.20761 0.5191 0.04073 0.0
O283 O 0.27277 0.56084 0.95505 0.0
Cd284 Cd 0.20107 0.60383 -0.02908 0.0
C285 C 0.20005 0.63618 0.08108 0.0
O286 O 0.15184 0.53244 -0.01829 0.0
O287 O 0.11639 0.59871 -0.01284 0.0
O288 O 0.19421 0.61361 0.88802 0.0
C289 C 0.11455 0.55471 -0.00832 0.0
O290 O 0.19952 0.59216 0.0871 0.0
C291 C 0.21593 0.65243 0.88652 0.0
O292 O 0.20745 0.65287 0.04097 0.0
O293 O 0.22602 0.67252 0.9253 0.0
C294 C 0.00193 0.46322 0.80591 0.0
O295 O -0.02601 0.49389 0.79017 0.0
Cd296 Cd -0.00675 0.53548 0.7191 0.0
O297 O 0.0408 0.45513 0.78558 0.0
Cd298 Cd 0.08379 0.46925 0.71253 0.0
C299 C 0.10853 0.58316 0.70799 0.0
O300 O 0.00905 0.47336 0.66689 0.0
O301 O 0.07333 0.48594 0.62874 0.0
O302 O 0.1008 0.38773 0.70295 0.0
C303 C 0.02834 0.48504 0.62903 0.0
O304 O 0.06384 0.58757 0.71303 0.0
C305 C 0.13853 0.38678 0.72755 0.0
O306 O 0.12783 0.54323 0.70989 0.0
O307 O 0.15536 0.42581 0.7414 0.0
C308 C 0.28831 0.44521 0.47218 0.0
O309 O 0.26682 0.46463 0.43839 0.0
Cd310 Cd 0.18801 0.44717 0.40894 0.0
O311 O 0.27144 0.40888 0.4904 0.0
Cd312 Cd 0.20044 0.3597 0.48398 0.0
C313 C 0.18409 0.33102 0.36926 0.0
O314 O 0.15042 0.42754 0.47807 0.0
O315 O 0.11395 0.36111 0.47747 0.0
O316 O 0.20583 0.3485 0.5661 0.0
C317 C 0.11223 0.40501 0.47224 0.0
O318 O 0.18155 0.37467 0.36172 0.0
C319 C 0.2267 0.30937 0.56467 0.0
O320 O 0.19557 0.31598 0.40949 0.0
O321 O 0.2315 0.28988 0.52476 0.0
C322 C 0.40337 0.48552 0.30621 0.0
O323 O 0.39347 0.52168 0.28412 0.0
Cd324 Cd 0.35135 0.47595 0.22033 0.0
O325 O 0.38759 0.44727 0.28878 0.0
Cd326 Cd 0.33793 0.47605 0.21668 0.0
C327 C 0.29556 0.38367 0.20575 0.0
O328 O 0.40495 0.46885 0.15853 0.0
O329 O 0.33439 0.46586 0.12974 0.0
O330 O 0.33093 0.56237 0.23161 0.0
C331 C 0.37845 0.4614 0.12308 0.0
O332 O 0.33567 0.38922 0.22553 0.0
C333 C 0.29055 0.55975 0.25068 0.0
O334 O 0.2734 0.42017 0.19584 0.0
O335 O 0.27098 0.5199 0.25058 0.0
O336 O 0.94094 0.0905 -0.01404 0.0
Zn337 Zn -0.0371 0.03793 0.9417 0.0
O338 O -0.0371 -0.01919 -0.0245 0.0
Zn339 Zn 0.02128 0.94903 -0.02081 0.0
Zn340 Zn 0.92825 -0.01794 0.03246 0.0
Zn341 Zn 0.92799 0.94128 0.93672 0.0
O342 O 0.0148 0.88822 0.9389 0.0
O343 O 0.93912 0.87599 0.95207 0.0
O344 O 0.0307 0.0563 0.93586 0.0
O345 O 0.07133 -0.00639 0.95792 0.0
O346 O 0.03704 0.94314 0.04805 0.0
O347 O -0.03033 0.95663 0.08609 0.0
O348 O 0.85848 0.95824 0.02009 0.0
O349 O 0.92942 0.02647 0.8763 0.0
O350 O 0.86222 0.95549 0.94252 0.0
O351 O 0.93982 0.94992 0.87013 0.0
C352 C 0.93539 0.0878 0.03025 0.0
C353 C -0.02191 0.86185 0.93609 0.0
C354 C 0.01425 0.94837 0.08611 0.0
C355 C 0.06951 0.03596 0.9451 0.0
C356 C 0.83841 0.95579 -0.02051 0.0
C357 C 0.92751 -0.0119 0.8522 0.0
O358 O 0.92945 0.04899 0.05022 0.0
O359 O 0.17844 0.64772 0.15877 0.0
Zn360 Zn 0.18403 0.65974 0.22681 0.0
O361 O 0.22014 0.71635 0.23368 0.0
Zn362 Zn 0.27299 0.70691 0.27496 0.0
Zn363 Zn 0.23439 0.75081 0.17824 0.0
Zn364 Zn 0.17556 0.75124 0.26706 0.0
O365 O 0.26142 0.74785 0.33434 0.0
O366 O 0.18363 0.73968 0.334 0.0
O367 O 0.22296 0.60533 0.24426 0.0
O368 O 0.28576 0.63747 0.2798 0.0
O369 O 0.33179 0.72255 0.24056 0.0
O370 O 0.30706 0.74922 0.17163 0.0
O371 O 0.20111 0.81803 0.18324 0.0
O372 O 0.12188 0.66208 0.26347 0.0
O373 O 0.17991 0.81785 0.25797 0.0
O374 O 0.11025 0.73591 0.24872 0.0
C375 C 0.19499 0.66678 0.12246 0.0
C376 C 0.22123 0.75455 0.35363 0.0
C377 C 0.33997 0.73453 0.19874 0.0
C378 C 0.26391 0.60205 0.26245 0.0
C379 C 0.1835 0.8387 0.21958 0.0
C380 C 0.09497 0.69757 0.26335 0.0
O381 O 0.21406 0.70744 0.12352 0.0
O382 O 0.45974 0.86145 0.47073 0.0
Zn383 Zn 0.43686 0.91807 0.43497 0.0
O384 O 0.45472 -0.02648 0.46885 0.0
Zn385 Zn 0.4022 0.01408 0.47696 0.0
Zn386 Zn 0.49135 0.96533 0.52446 0.0
Zn387 Zn 0.49325 0.00391 0.4261 0.0
O388 O 0.42175 0.07887 0.45304 0.0
O389 O 0.45715 0.04942 0.39048 0.0
O390 O 0.36708 0.91233 0.44055 0.0
O391 O 0.34315 -0.01391 0.44662 0.0
O392 O 0.386 0.01004 0.54471 0.0
O393 O 0.45212 -0.01408 0.57992 0.0
O394 O 0.55748 -0.00123 0.51894 0.0
O395 O 0.45471 0.92878 0.3653 0.0
O396 O 0.54295 0.04037 0.45553 0.0
O397 O 0.52381 0.95914 0.38381 0.0
C398 C 0.47538 0.85997 0.51288 0.0
C399 C 0.44241 0.08429 0.41384 0.0
C400 C 0.40852 -0.00272 0.58108 0.0
C401 C 0.33441 0.94245 0.44282 0.0
C402 C 0.56876 0.03088 0.49025 0.0
C403 C 0.49488 0.94477 0.35288 0.0
O404 O 0.49026 0.89625 0.53515 0.0
O405 O 0.21176 0.23553 0.82757 0.0
Zn406 Zn 0.23296 0.27134 0.77034 0.0
O407 O 0.22054 0.23094 0.71741 0.0
Zn408 Zn 0.27182 0.21862 0.67681 0.0
Zn409 Zn 0.17863 0.18012 0.72541 0.0
Zn410 Zn 0.18551 0.26823 0.67924 0.0
O411 O 0.25671 0.24605 0.61093 0.0
O412 O 0.22773 0.30844 0.64552 0.0
O413 O 0.30463 0.27278 0.77694 0.0
O414 O 0.33038 0.24484 0.70809 0.0
O415 O 0.28102 0.14944 0.68041 0.0
O416 O 0.21161 0.1207 0.70363 0.0
O417 O 0.11363 0.19633 0.6935 0.0
O418 O 0.20084 0.33707 0.75849 0.0
O419 O 0.14576 0.23312 0.6345 0.0
O420 O 0.14314 0.3071 0.71475 0.0
C421 C 0.19393 0.19459 0.83049 0.0
C422 C 0.24078 0.28766 0.60865 0.0
C423 C 0.25486 0.11532 0.69214 0.0
C424 C 0.33802 0.261 0.74942 0.0
C425 C 0.10967 0.2162 0.65376 0.0
C426 C 0.16168 0.3417 0.73582 0.0
O427 O 0.17842 0.17161 0.79482 0.0
O428 O 0.95098 -0.00494 0.35729 0.0
Zn429 Zn 0.92149 0.96263 0.4122 0.0
O430 O -0.04164 -0.02586 0.46701 0.0
Zn431 Zn -0.03485 0.91844 0.50291 0.0
Zn432 Zn 0.01574 0.00819 0.45738 0.0
Zn433 Zn 0.9143 0.01238 0.49769 0.0
O434 O 0.93421 0.931 0.56763 0.0
O435 O 0.87708 -0.02176 0.54379 0.0
O436 O 0.93313 0.89767 0.3959 0.0
O437 O 0.94653 0.86092 0.46263 0.0
O438 O 0.034 0.90514 0.50826 0.0
O439 O 0.06945 0.96546 0.47468 0.0
O440 O 0.01484 0.06935 0.49955 0.0
O441 O 0.8513 -0.02583 0.42807 0.0
O442 O 0.94488 0.06039 0.53353 0.0
O443 O 0.8716 0.04345 0.45386 0.0
C444 C -0.00567 0.00654 0.35154 0.0
C445 C 0.89697 0.95507 0.5757 0.0
C446 C 0.07075 0.9252 0.49289 0.0
C447 C 0.94255 0.86092 0.41796 0.0
C448 C -0.01638 0.08169 0.52972 0.0
C449 C 0.8395 0.01444 0.44322 0.0
O450 O 0.02285 0.01333 0.38613 0.0
O451 O 0.31871 0.7095 0.73926 0.0
Zn452 Zn 0.26208 0.73804 0.7706 0.0
O453 O 0.20936 0.72966 0.72971 0.0
Zn454 Zn 0.17287 0.78484 0.72083 0.0
Zn455 Zn 0.21819 0.69011 0.6763 0.0
Zn456 Zn 0.17093 0.69591 0.76803 0.0
O457 O 0.10675 0.77474 0.75178 0.0
O458 O 0.13793 0.73749 0.81119 0.0
O459 O 0.27768 0.80553 0.76566 0.0
O460 O 0.21294 0.84153 0.73968 0.0
O461 O 0.1717 0.79401 0.65198 0.0
O462 O 0.20057 0.72857 0.61971 0.0
O463 O 0.17744 0.62826 0.68533 0.0
O464 O 0.24692 0.71241 0.83689 0.0
O465 O 0.12411 0.65928 0.73287 0.0
O466 O 0.20716 0.65317 0.80568 0.0
C467 C 0.3248 0.69512 0.69721 0.0
C468 C 0.10252 0.75592 0.79188 0.0
C469 C 0.18589 0.77051 0.61666 0.0
C470 C 0.25681 0.84184 0.75101 0.0
C471 C 0.13789 0.62578 0.70719 0.0
C472 C 0.22566 0.67319 0.84112 0.0
O473 O 0.29013 0.68499 0.66961 0.0
O474 O 0.52124 0.00919 0.05081 0.0
Zn475 Zn 0.50693 0.0086 -0.01819 0.0
O476 O 0.44934 -0.02849 -0.02993 0.0
Zn477 Zn 0.46463 0.91411 0.93657 0.0
Zn478 Zn 0.41669 0.95902 0.0278 0.0
Zn479 Zn 0.40757 0.00482 0.93043 0.0
O480 O 0.44771 0.91785 0.86636 0.0
O481 O 0.39677 -0.02347 0.86918 0.0
O482 O 0.565 -0.02763 -0.0369 0.0
O483 O 0.53272 0.90269 0.94848 0.0
O484 O 0.43919 0.85728 -0.03169 0.0
O485 O 0.41787 0.89022 0.03595 0.0
O486 O 0.34928 -0.01257 0.02817 0.0
O487 O 0.50236 0.07402 0.95179 0.0
O488 O 0.34714 0.01858 0.95754 0.0
O489 O 0.43277 0.06464 0.9159 0.0
C490 C 0.50026 -0.00702 0.08622 0.0
C491 C 0.41793 0.94484 0.84658 0.0
C492 C 0.42835 0.85444 0.01132 0.0
C493 C 0.5682 0.92817 0.95893 0.0
C494 C 0.32811 0.0106 -0.00372 0.0
C495 C 0.46885 0.08901 0.92557 0.0
O496 O 0.45808 -0.02288 0.08353 0.0
O497 O 0.09686 0.24359 0.21768 0.0
Zn498 Zn 0.15282 0.22565 0.25829 0.0
O499 O 0.20882 0.23144 0.22183 0.0
Zn500 Zn 0.24309 0.17478 0.21242 0.0
Zn501 Zn 0.20092 0.2664 0.16523 0.0
Zn502 Zn 0.25254 0.26501 0.25904 0.0
O503 O 0.31323 0.18646 0.23164 0.0
O504 O 0.29307 0.22421 0.29567 0.0
O505 O 0.1405 0.15634 0.26149 0.0
O506 O 0.20543 0.11948 0.2369 0.0
O507 O 0.2372 0.16138 0.14529 0.0
O508 O 0.2203 0.22681 0.10808 0.0
O509 O 0.23513 0.33068 0.17661 0.0
O510 O 0.15837 0.26577 0.3205 0.0
O511 O 0.29328 0.30438 0.22154 0.0
O512 O 0.22241 0.30693 0.30273 0.0
C513 C 0.09408 0.25632 0.1752 0.0
C514 C 0.32477 0.20645 0.27041 0.0
C515 C 0.22785 0.18292 0.10798 0.0
C516 C 0.1622 0.11897 0.24973 0.0
C517 C 0.27428 0.33713 0.19918 0.0
C518 C 0.18736 0.2997 0.32858 0.0
O519 O 0.13052 0.26846 0.15237 0.0
O520 O 0.45098 0.49506 0.85729 0.0
Zn521 Zn 0.42149 0.46263 0.9122 0.0
O522 O 0.45836 0.47414 -0.03299 0.0
Zn523 Zn 0.46515 0.41844 0.00291 0.0
Zn524 Zn 0.51574 0.50819 0.95738 0.0
Zn525 Zn 0.4143 0.51238 -0.00231 0.0
O526 O 0.43421 0.431 0.06763 0.0
O527 O 0.37708 0.47824 0.04379 0.0
O528 O 0.43313 0.39767 0.8959 0.0
O529 O 0.44653 0.36092 -0.03737 0.0
O530 O 0.534 0.40514 0.00826 0.0
O531 O 0.56945 0.46546 -0.02532 0.0
O532 O 0.51484 0.56935 -0.00045 0.0
O533 O 0.3513 0.47417 0.92807 0.0
O534 O 0.44488 0.56039 0.03353 0.0
O535 O 0.37161 0.54345 0.95387 0.0
C536 C 0.49433 0.50654 0.85154 0.0
C537 C 0.39697 0.45506 0.0757 0.0
C538 C 0.57075 0.4252 -0.0071 0.0
C539 C 0.44255 0.36092 0.91796 0.0
C540 C 0.48362 0.58168 0.02972 0.0
C541 C 0.33951 0.51444 0.94322 0.0
O542 O 0.52285 0.51333 0.88613 0.0
O543 O 0.81871 0.2095 0.23926 0.0
Zn544 Zn 0.76208 0.23804 0.2706 0.0
O545 O 0.70936 0.22966 0.22971 0.0
Zn546 Zn 0.67287 0.28484 0.22083 0.0
Zn547 Zn 0.71819 0.19011 0.1763 0.0
Zn548 Zn 0.67093 0.19591 0.26803 0.0
O549 O 0.60675 0.27474 0.25178 0.0
O550 O 0.63793 0.23749 0.31119 0.0
O551 O 0.77768 0.30553 0.26566 0.0
O552 O 0.71294 0.34153 0.23968 0.0
O553 O 0.6717 0.29401 0.15198 0.0
O554 O 0.70058 0.22857 0.11971 0.0
O555 O 0.67744 0.12826 0.18533 0.0
O556 O 0.74692 0.21241 0.33689 0.0
O557 O 0.62411 0.15928 0.23287 0.0
O558 O 0.70716 0.15317 0.30568 0.0
C559 C 0.8248 0.19512 0.19721 0.0
C560 C 0.60252 0.25592 0.29188 0.0
C561 C 0.68589 0.27051 0.11666 0.0
C562 C 0.75681 0.34184 0.25101 0.0
C563 C 0.63789 0.12578 0.20719 0.0
C564 C 0.72566 0.17319 0.34112 0.0
O565 O 0.79013 0.18499 0.16961 0.0
O566 O 0.02124 0.50919 0.55081 0.0
Zn567 Zn 0.00693 0.5086 0.48181 0.0
O568 O 0.94935 0.47151 0.47007 0.0
Zn569 Zn -0.03537 0.41411 0.43657 0.0
Zn570 Zn 0.91669 0.45902 0.5278 0.0
Zn571 Zn 0.90757 0.50482 0.43043 0.0
O572 O 0.94771 0.41785 0.36636 0.0
O573 O 0.89678 0.47653 0.36918 0.0
O574 O 0.065 0.47237 0.4631 0.0
O575 O 0.03272 0.40269 0.44848 0.0
O576 O 0.93919 0.35728 0.46831 0.0
O577 O 0.91787 0.39022 0.53595 0.0
O578 O 0.84928 0.48743 0.52817 0.0
O579 O 0.00236 0.57402 0.45179 0.0
O580 O 0.84714 0.51858 0.45754 0.0
O581 O 0.93278 0.56464 0.4159 0.0
C582 C 0.00026 0.49298 0.58622 0.0
C583 C 0.91793 0.44484 0.34658 0.0
C584 C 0.92835 0.35444 0.51132 0.0
C585 C 0.0682 0.42817 0.45893 0.0
C586 C 0.82811 0.5106 0.49628 0.0
C587 C -0.03115 0.58901 0.42557 0.0
O588 O -0.04192 0.47712 0.58353 0.0
O589 O 0.71176 0.73553 0.32757 0.0
Zn590 Zn 0.73296 0.77134 0.27034 0.0
O591 O 0.72054 0.73094 0.21741 0.0
Zn592 Zn 0.77182 0.71862 0.17681 0.0
Zn593 Zn 0.67863 0.68012 0.22541 0.0
Zn594 Zn 0.68551 0.76823 0.17924 0.0
O595 O 0.75671 0.74605 0.11093 0.0
O596 O 0.72773 0.80844 0.14552 0.0
O597 O 0.80463 0.77278 0.27694 0.0
O598 O 0.83038 0.74484 0.20809 0.0
O599 O 0.78102 0.64944 0.18041 0.0
O600 O 0.71161 0.6207 0.20363 0.0
O601 O 0.61363 0.69633 0.1935 0.0
O602 O 0.70084 0.83707 0.25849 0.0
O603 O 0.64576 0.73312 0.1345 0.0
O604 O 0.64314 0.8071 0.21475 0.0
C605 C 0.69393 0.69459 0.33049 0.0
C606 C 0.74078 0.78766 0.10865 0.0
C607 C 0.75486 0.61532 0.19214 0.0
C608 C 0.83802 0.761 0.24942 0.0
C609 C 0.60967 0.7162 0.15376 0.0
C610 C 0.66168 0.8417 0.23582 0.0
O611 O 0.67842 0.67161 0.29482 0.0
O612 O 0.67844 0.14772 0.65877 0.0
Zn613 Zn 0.68403 0.15974 0.72681 0.0
O614 O 0.72014 0.21635 0.73368 0.0
Zn615 Zn 0.77299 0.20691 0.77496 0.0
Zn616 Zn 0.73439 0.25081 0.67824 0.0
Zn617 Zn 0.67556 0.25124 0.76706 0.0
O618 O 0.76142 0.24785 0.83434 0.0
O619 O 0.68363 0.23968 0.834 0.0
O620 O 0.72296 0.10533 0.74426 0.0
O621 O 0.78576 0.13747 0.7798 0.0
O622 O 0.83179 0.22255 0.74056 0.0
O623 O 0.80706 0.24922 0.67163 0.0
O624 O 0.70111 0.31803 0.68324 0.0
O625 O 0.62188 0.16208 0.76347 0.0
O626 O 0.67991 0.31785 0.75797 0.0
O627 O 0.61025 0.23591 0.74873 0.0
C628 C 0.69499 0.16678 0.62246 0.0
C629 C 0.72123 0.25455 0.85363 0.0
C630 C 0.83997 0.23453 0.69874 0.0
C631 C 0.76391 0.10205 0.76245 0.0
C632 C 0.6835 0.3387 0.71958 0.0
C633 C 0.59497 0.19757 0.76335 0.0
O634 O 0.71406 0.20744 0.62352 0.0
O635 O 0.59686 0.74359 0.71768 0.0
Zn636 Zn 0.65282 0.72565 0.75829 0.0
O637 O 0.70882 0.73144 0.72183 0.0
Zn638 Zn 0.74309 0.67478 0.71242 0.0
Zn639 Zn 0.70092 0.7664 0.66523 0.0
Zn640 Zn 0.75254 0.76501 0.75904 0.0
O641 O 0.81323 0.68646 0.73164 0.0
O642 O 0.79307 0.72421 0.79567 0.0
O643 O 0.6405 0.65634 0.76149 0.0
O644 O 0.70543 0.61948 0.7369 0.0
O645 O 0.7372 0.66137 0.64529 0.0
O646 O 0.7203 0.72681 0.60808 0.0
O647 O 0.73513 0.83068 0.67661 0.0
O648 O 0.65837 0.76577 0.8205 0.0
O649 O 0.79327 0.80438 0.72154 0.0
O650 O 0.72241 0.80693 0.80273 0.0
C651 C 0.59408 0.75632 0.6752 0.0
C652 C 0.82477 0.70645 0.77041 0.0
C653 C 0.72785 0.68292 0.60798 0.0
C654 C 0.6622 0.61897 0.74973 0.0
C655 C 0.77428 0.83713 0.69918 0.0
C656 C 0.68736 0.7997 0.82858 0.0
O657 O 0.63052 0.76846 0.65237 0.0
O658 O 0.44094 0.5905 0.48596 0.0
Zn659 Zn 0.4629 0.53793 0.4417 0.0
O660 O 0.4629 0.48081 0.4755 0.0
Zn661 Zn 0.52128 0.44903 0.47919 0.0
Zn662 Zn 0.42825 0.48206 0.53246 0.0
Zn663 Zn 0.42799 0.44128 0.43672 0.0
O664 O 0.5148 0.38822 0.4389 0.0
O665 O 0.43912 0.37599 0.45207 0.0
O666 O 0.5307 0.5563 0.43586 0.0
O667 O 0.57133 0.49361 0.45792 0.0
O668 O 0.53704 0.44315 0.54805 0.0
O669 O 0.46967 0.45663 0.58609 0.0
O670 O 0.35848 0.45824 0.52009 0.0
O671 O 0.42942 0.52647 0.3763 0.0
O672 O 0.36222 0.45549 0.44252 0.0
O673 O 0.43982 0.44992 0.37013 0.0
C674 C 0.43539 0.5878 0.53025 0.0
C675 C 0.47809 0.36184 0.43609 0.0
C676 C 0.51425 0.44837 0.58611 0.0
C677 C 0.56953 0.53594 0.4451 0.0
C678 C 0.33841 0.45579 0.4795 0.0
C679 C 0.42751 0.4881 0.3522 0.0
O680 O 0.42945 0.54898 0.55022 0.0
O681 O -0.04026 0.36145 -0.02927 0.0
Zn682 Zn 0.93686 0.41807 0.93497 0.0
O683 O -0.04528 0.47352 -0.03115 0.0
Zn684 Zn 0.9022 0.51408 -0.02304 0.0
Zn685 Zn -0.00865 0.46533 0.02446 0.0
Zn686 Zn -0.00675 0.50391 0.9261 0.0
O687 O 0.92175 0.57887 0.95304 0.0
O688 O -0.04285 0.54942 0.89048 0.0
O689 O 0.86708 0.41233 0.94055 0.0
O690 O 0.84315 0.48609 0.94662 0.0
O691 O 0.886 0.51004 0.04471 0.0
O692 O 0.95212 0.48592 0.07992 0.0
O693 O 0.05748 0.49877 0.01894 0.0
O694 O -0.04529 0.42878 0.8653 0.0
O695 O 0.04295 0.54036 0.95553 0.0
O696 O 0.02381 0.45914 0.88381 0.0
C697 C -0.02462 0.35997 0.01288 0.0
C698 C 0.94241 0.58429 0.91384 0.0
C699 C 0.90852 0.49728 0.08108 0.0
C700 C 0.83441 0.44245 0.94282 0.0
C701 C 0.06876 0.53088 -0.00975 0.0
C702 C -0.00512 0.44477 0.85288 0.0
O703 O -0.00974 0.39625 0.03515 0.0
loop_
_geom_bond_atom_site_label_1
_geom_bond_atom_site_label_2
_geom_bond_distance
_geom_bond_site_symmetry_2
_ccdc_geom_bond_type
C0 O1 1.306 . S
C0 O3 1.160 . S
O1 C0 1.306 . S
O1 Cd2 2.228 1_655 S
Cd2 O1 2.228 1_455 S
Cd2 O6 2.273 . S
Cd2 O10 2.277 . S
O3 C0 1.160 . S
O3 Cd4 2.203 1_655 S
Cd4 O3 2.203 1_455 S
Cd4 O6 2.411 . S
Cd4 O7 2.333 . S
Cd4 O8 2.352 . S
Cd4 O12 2.277 . S
Cd4 O13 2.356 . S
C5 O10 1.209 . S
C5 O12 1.226 . S
O6 Cd2 2.273 . S
O6 Cd4 2.411 . S
O6 C9 1.320 . S
O7 Cd4 2.333 . S
O7 C9 1.214 . S
O8 Cd4 2.352 . S
O8 C11 1.258 . S
C9 O6 1.320 . S
C9 O7 1.214 . S
O10 Cd2 2.277 . S
O10 C5 1.209 . S
C11 O8 1.258 . S
C11 O13 1.282 . S
O12 Cd4 2.277 . S
O12 C5 1.226 . S
O13 Cd4 2.356 . S
O13 C11 1.282 . S
C14 O15 1.306 . S
C14 O17 1.160 . S
O15 C14 1.306 . S
O15 Cd16 2.228 1_655 S
Cd16 O15 2.228 1_455 S
Cd16 O20 2.273 . S
Cd16 O24 2.277 . S
O17 C14 1.160 . S
O17 Cd18 2.203 1_655 S
Cd18 O17 2.203 1_455 S
Cd18 O20 2.411 . S
Cd18 O21 2.333 . S
Cd18 O22 2.352 . S
Cd18 O26 2.277 . S
Cd18 O27 2.356 . S
C19 O24 1.209 . S
C19 O26 1.226 . S
O20 Cd16 2.273 . S
O20 Cd18 2.411 . S
O20 C23 1.320 . S
O21 Cd18 2.333 . S
O21 C23 1.214 . S
O22 Cd18 2.352 . S
O22 C25 1.258 . S
C23 O20 1.320 . S
C23 O21 1.214 . S
O24 Cd16 2.277 . S
O24 C19 1.209 . S
C25 O22 1.258 . S
C25 O27 1.282 . S
O26 Cd18 2.277 . S
O26 C19 1.226 . S
O27 Cd18 2.356 . S
O27 C25 1.282 . S
C28 O29 1.306 . S
C28 O31 1.160 . S
O29 C28 1.306 . S
O29 Cd30 2.228 . S
Cd30 O29 2.228 . S
Cd30 O34 2.273 . S
Cd30 O38 2.277 . S
O31 C28 1.160 . S
O31 Cd32 2.203 . S
Cd32 O31 2.203 . S
Cd32 O34 2.411 . S
Cd32 O35 2.333 . S
Cd32 O36 2.352 . S
Cd32 O40 2.277 . S
Cd32 O41 2.356 . S
C33 O38 1.209 . S
C33 O40 1.226 . S
O34 Cd30 2.273 . S
O34 Cd32 2.411 . S
O34 C37 1.320 . S
O35 Cd32 2.333 . S
O35 C37 1.214 . S
O36 Cd32 2.352 . S
O36 C39 1.258 . S
C37 O34 1.320 . S
C37 O35 1.214 . S
O38 Cd30 2.277 . S
O38 C33 1.209 . S
C39 O36 1.258 . S
C39 O41 1.282 . S
O40 Cd32 2.277 . S
O40 C33 1.226 . S
O41 Cd32 2.356 . S
O41 C39 1.282 . S
C42 O43 1.306 . S
C42 O45 1.160 . S
O43 C42 1.306 . S
O43 Cd44 2.228 . S
Cd44 O43 2.228 . S
Cd44 O48 2.273 . S
Cd44 O52 2.277 . S
O45 C42 1.160 . S
O45 Cd46 2.203 . S
Cd46 O45 2.203 . S
Cd46 O48 2.411 . S
Cd46 O49 2.333 . S
Cd46 O50 2.352 . S
Cd46 O54 2.277 . S
Cd46 O55 2.356 . S
C47 O52 1.209 . S
C47 O54 1.226 . S
O48 Cd44 2.273 . S
O48 Cd46 2.411 . S
O48 C51 1.320 . S
O49 Cd46 2.333 . S
O49 C51 1.214 . S
O50 Cd46 2.352 . S
O50 C53 1.258 . S
C51 O48 1.320 . S
C51 O49 1.214 . S
O52 Cd44 2.277 . S
O52 C47 1.209 . S
C53 O50 1.258 . S
C53 O55 1.282 . S
O54 Cd46 2.277 . S
O54 C47 1.226 . S
O55 Cd46 2.356 . S
O55 C53 1.282 . S
C56 O57 1.306 . S
C56 O59 1.160 . S
O57 C56 1.306 . S
O57 Cd58 2.228 . S
Cd58 O57 2.228 . S
Cd58 O62 2.273 . S
Cd58 O66 2.277 . S
O59 C56 1.160 . S
O59 Cd60 2.203 . S
Cd60 O59 2.203 . S
Cd60 O62 2.411 . S
Cd60 O63 2.333 . S
Cd60 O64 2.352 1_545 S
Cd60 O68 2.277 . S
Cd60 O69 2.356 1_545 S
C61 O66 1.209 . S
C61 O68 1.226 . S
O62 Cd58 2.273 . S
O62 Cd60 2.411 . S
O62 C65 1.320 . S
O63 Cd60 2.333 . S
O63 C65 1.214 . S
O64 Cd60 2.352 1_565 S
O64 C67 1.258 . S
C65 O62 1.320 . S
C65 O63 1.214 . S
O66 Cd58 2.277 . S
O66 C61 1.209 . S
C67 O64 1.258 . S
C67 O69 1.282 . S
O68 Cd60 2.277 . S
O68 C61 1.226 . S
O69 Cd60 2.356 1_565 S
O69 C67 1.282 . S
C70 O71 1.306 . S
C70 O73 1.160 . S
O71 C70 1.306 . S
O71 Cd72 2.228 . S
Cd72 O71 2.228 . S
Cd72 O76 2.273 . S
Cd72 O80 2.277 . S
O73 C70 1.160 . S
O73 Cd74 2.203 . S
Cd74 O73 2.203 . S
Cd74 O76 2.411 . S
Cd74 O77 2.333 . S
Cd74 O78 2.352 . S
Cd74 O82 2.277 . S
Cd74 O83 2.356 . S
C75 O80 1.209 . S
C75 O82 1.226 . S
O76 Cd72 2.273 . S
O76 Cd74 2.411 . S
O76 C79 1.320 . S
O77 Cd74 2.333 . S
O77 C79 1.214 . S
O78 Cd74 2.352 . S
O78 C81 1.258 . S
C79 O76 1.320 . S
C79 O77 1.214 . S
O80 Cd72 2.277 . S
O80 C75 1.209 . S
C81 O78 1.258 . S
C81 O83 1.282 . S
O82 Cd74 2.277 . S
O82 C75 1.226 . S
O83 Cd74 2.356 . S
O83 C81 1.282 . S
C84 O85 1.306 . S
C84 O87 1.160 1_565 S
O85 C84 1.306 . S
O85 Cd86 2.228 . S
Cd86 O85 2.228 . S
Cd86 O90 2.273 . S
Cd86 O94 2.277 . S
O87 C84 1.160 1_545 S
O87 Cd88 2.203 . S
Cd88 O87 2.203 . S
Cd88 O90 2.411 1_545 S
Cd88 O91 2.333 . S
Cd88 O92 2.352 . S
Cd88 O96 2.277 1_545 S
Cd88 O97 2.356 . S
C89 O94 1.209 . S
C89 O96 1.226 . S
O90 Cd86 2.273 . S
O90 Cd88 2.411 1_565 S
O90 C93 1.320 1_565 S
O91 Cd88 2.333 . S
O91 C93 1.214 . S
O92 Cd88 2.352 . S
O92 C95 1.258 . S
C93 O90 1.320 1_545 S
C93 O91 1.214 . S
O94 Cd86 2.277 . S
O94 C89 1.209 . S
C95 O92 1.258 . S
C95 O97 1.282 . S
O96 Cd88 2.277 1_565 S
O96 C89 1.226 . S
O97 Cd88 2.356 . S
O97 C95 1.282 . S
C98 O99 1.306 . S
C98 O101 1.160 . S
O99 C98 1.306 . S
O99 Cd100 2.228 . S
Cd100 O99 2.228 . S
Cd100 O104 2.273 . S
Cd100 O108 2.277 . S
O101 C98 1.160 . S
O101 Cd102 2.203 . S
Cd102 O101 2.203 . S
Cd102 O104 2.411 . S
Cd102 O105 2.333 . S
Cd102 O106 2.352 1_554 S
Cd102 O110 2.277 . S
Cd102 O111 2.356 1_554 S
C103 O108 1.209 . S
C103 O110 1.226 . S
O104 Cd100 2.273 . S
O104 Cd102 2.411 . S
O104 C107 1.320 . S
O105 Cd102 2.333 . S
O105 C107 1.214 . S
O106 Cd102 2.352 1_556 S
O106 C109 1.258 . S
C107 O104 1.320 . S
C107 O105 1.214 . S
O108 Cd100 2.277 . S
O108 C103 1.209 . S
C109 O106 1.258 . S
C109 O111 1.282 . S
O110 Cd102 2.277 . S
O110 C103 1.226 . S
O111 Cd102 2.356 1_556 S
O111 C109 1.282 . S
C112 O113 1.306 1_554 S
C112 O115 1.160 . S
O113 C112 1.306 1_556 S
O113 Cd114 2.228 . S
Cd114 O113 2.228 . S
Cd114 O118 2.273 1_556 S
Cd114 O122 2.277 . S
O115 C112 1.160 . S
O115 Cd116 2.203 . S
Cd116 O115 2.203 . S
Cd116 O118 2.411 . S
Cd116 O119 2.333 . S
Cd116 O120 2.352 . S
Cd116 O124 2.277 1_554 S
Cd116 O125 2.356 . S
C117 O122 1.209 . S
C117 O124 1.226 . S
O118 Cd114 2.273 1_554 S
O118 Cd116 2.411 . S
O118 C121 1.320 . S
O119 Cd116 2.333 . S
O119 C121 1.214 . S
O120 Cd116 2.352 . S
O120 C123 1.258 . S
C121 O118 1.320 . S
C121 O119 1.214 . S
O122 Cd114 2.277 . S
O122 C117 1.209 . S
C123 O120 1.258 . S
C123 O125 1.282 . S
O124 Cd116 2.277 1_556 S
O124 C117 1.226 . S
O125 Cd116 2.356 . S
O125 C123 1.282 . S
C126 O127 1.306 . S
C126 O129 1.160 . S
O127 C126 1.306 . S
O127 Cd128 2.228 . S
Cd128 O127 2.228 . S
Cd128 O132 2.273 . S
Cd128 O136 2.277 . S
O129 C126 1.160 . S
O129 Cd130 2.203 . S
Cd130 O129 2.203 . S
Cd130 O132 2.411 . S
Cd130 O133 2.333 . S
Cd130 O134 2.352 . S
Cd130 O138 2.277 . S
Cd130 O139 2.356 . S
C131 O136 1.209 . S
C131 O138 1.226 . S
O132 Cd128 2.273 . S
O132 Cd130 2.411 . S
O132 C135 1.320 . S
O133 Cd130 2.333 . S
O133 C135 1.214 . S
O134 Cd130 2.352 . S
O134 C137 1.258 . S
C135 O132 1.320 . S
C135 O133 1.214 . S
O136 Cd128 2.277 . S
O136 C131 1.209 . S
C137 O134 1.258 . S
C137 O139 1.282 . S
O138 Cd130 2.277 . S
O138 C131 1.226 . S
O139 Cd130 2.356 . S
O139 C137 1.282 . S
C140 O141 1.306 . S
C140 O143 1.160 . S
O141 C140 1.306 . S
O141 Cd142 2.228 . S
Cd142 O141 2.228 . S
Cd142 O146 2.273 . S
Cd142 O150 2.277 . S
O143 C140 1.160 . S
O143 Cd144 2.203 . S
Cd144 O143 2.203 . S
Cd144 O146 2.411 . S
Cd144 O147 2.333 . S
Cd144 O148 2.352 . S
Cd144 O152 2.277 . S
Cd144 O153 2.356 . S
C145 O150 1.209 . S
C145 O152 1.226 . S
O146 Cd142 2.273 . S
O146 Cd144 2.411 . S
O146 C149 1.320 . S
O147 Cd144 2.333 . S
O147 C149 1.214 . S
O148 Cd144 2.352 . S
O148 C151 1.258 . S
C149 O146 1.320 . S
C149 O147 1.214 . S
O150 Cd142 2.277 . S
O150 C145 1.209 . S
C151 O148 1.258 . S
C151 O153 1.282 . S
O152 Cd144 2.277 . S
O152 C145 1.226 . S
O153 Cd144 2.356 . S
O153 C151 1.282 . S
C154 O155 1.306 . S
C154 O157 1.160 . S
O155 C154 1.306 . S
O155 Cd156 2.228 . S
Cd156 O155 2.228 . S
Cd156 O160 2.273 . S
Cd156 O164 2.277 . S
O157 C154 1.160 . S
O157 Cd158 2.203 . S
Cd158 O157 2.203 . S
Cd158 O160 2.411 . S
Cd158 O161 2.333 . S
Cd158 O162 2.352 . S
Cd158 O166 2.277 . S
Cd158 O167 2.356 . S
C159 O164 1.209 . S
C159 O166 1.226 . S
O160 Cd156 2.273 . S
O160 Cd158 2.411 . S
O160 C163 1.320 . S
O161 Cd158 2.333 . S
O161 C163 1.214 . S
O162 Cd158 2.352 . S
O162 C165 1.258 . S
C163 O160 1.320 . S
C163 O161 1.214 . S
O164 Cd156 2.277 . S
O164 C159 1.209 . S
C165 O162 1.258 . S
C165 O167 1.282 . S
O166 Cd158 2.277 . S
O166 C159 1.226 . S
O167 Cd158 2.356 . S
O167 C165 1.282 . S
C168 O169 1.306 . S
C168 O171 1.160 . S
O169 C168 1.306 . S
O169 Cd170 2.228 1_655 S
Cd170 O169 2.228 1_455 S
Cd170 O174 2.273 . S
Cd170 O178 2.277 . S
O171 C168 1.160 . S
O171 Cd172 2.203 1_655 S
Cd172 O171 2.203 1_455 S
Cd172 O174 2.411 . S
Cd172 O175 2.333 . S
Cd172 O176 2.352 . S
Cd172 O180 2.277 . S
Cd172 O181 2.356 . S
C173 O178 1.209 . S
C173 O180 1.226 . S
O174 Cd170 2.273 . S
O174 Cd172 2.411 . S
O174 C177 1.320 . S
O175 Cd172 2.333 . S
O175 C177 1.214 . S
O176 Cd172 2.352 . S
O176 C179 1.258 . S
C177 O174 1.320 . S
C177 O175 1.214 . S
O178 Cd170 2.277 . S
O178 C173 1.209 . S
C179 O176 1.258 . S
C179 O181 1.282 . S
O180 Cd172 2.277 . S
O180 C173 1.226 . S
O181 Cd172 2.356 . S
O181 C179 1.282 . S
C182 O183 1.306 . S
C182 O185 1.160 . S
O183 C182 1.306 . S
O183 Cd184 2.228 1_655 S
Cd184 O183 2.228 1_455 S
Cd184 O188 2.273 . S
Cd184 O192 2.277 . S
O185 C182 1.160 . S
O185 Cd186 2.203 1_655 S
Cd186 O185 2.203 1_455 S
Cd186 O188 2.411 . S
Cd186 O189 2.333 . S
Cd186 O190 2.352 . S
Cd186 O194 2.277 . S
Cd186 O195 2.356 . S
C187 O192 1.209 . S
C187 O194 1.226 . S
O188 Cd184 2.273 . S
O188 Cd186 2.411 . S
O188 C191 1.320 . S
O189 Cd186 2.333 . S
O189 C191 1.214 . S
O190 Cd186 2.352 . S
O190 C193 1.258 . S
C191 O188 1.320 . S
C191 O189 1.214 . S
O192 Cd184 2.277 . S
O192 C187 1.209 . S
C193 O190 1.258 . S
C193 O195 1.282 . S
O194 Cd186 2.277 . S
O194 C187 1.226 . S
O195 Cd186 2.356 . S
O195 C193 1.282 . S
C196 O197 1.306 . S
C196 O199 1.160 . S
O197 C196 1.306 . S
O197 Cd198 2.228 . S
Cd198 O197 2.228 . S
Cd198 O202 2.273 . S
Cd198 O206 2.277 . S
O199 C196 1.160 . S
O199 Cd200 2.203 . S
Cd200 O199 2.203 . S
Cd200 O202 2.411 . S
Cd200 O203 2.333 . S
Cd200 O204 2.352 . S
Cd200 O208 2.277 . S
Cd200 O209 2.356 . S
C201 O206 1.209 . S
C201 O208 1.226 . S
O202 Cd198 2.273 . S
O202 Cd200 2.411 . S
O202 C205 1.320 . S
O203 Cd200 2.333 . S
O203 C205 1.214 . S
O204 Cd200 2.352 . S
O204 C207 1.258 . S
C205 O202 1.320 . S
C205 O203 1.214 . S
O206 Cd198 2.277 . S
O206 C201 1.209 . S
C207 O204 1.258 . S
C207 O209 1.282 . S
O208 Cd200 2.277 . S
O208 C201 1.226 . S
O209 Cd200 2.356 . S
O209 C207 1.282 . S
C210 O211 1.306 . S
C210 O213 1.160 . S
O211 C210 1.306 . S
O211 Cd212 2.228 . S
Cd212 O211 2.228 . S
Cd212 O216 2.273 . S
Cd212 O220 2.277 . S
O213 C210 1.160 . S
O213 Cd214 2.203 . S
Cd214 O213 2.203 . S
Cd214 O216 2.411 . S
Cd214 O217 2.333 . S
Cd214 O218 2.352 . S
Cd214 O222 2.277 . S
Cd214 O223 2.356 . S
C215 O220 1.209 . S
C215 O222 1.226 . S
O216 Cd212 2.273 . S
O216 Cd214 2.411 . S
O216 C219 1.320 . S
O217 Cd214 2.333 . S
O217 C219 1.214 . S
O218 Cd214 2.352 . S
O218 C221 1.258 . S
C219 O216 1.320 . S
C219 O217 1.214 . S
O220 Cd212 2.277 . S
O220 C215 1.209 . S
C221 O218 1.258 . S
C221 O223 1.282 . S
O222 Cd214 2.277 . S
O222 C215 1.226 . S
O223 Cd214 2.356 . S
O223 C221 1.282 . S
C224 O225 1.306 1_545 S
C224 O227 1.160 . S
O225 C224 1.306 1_565 S
O225 Cd226 2.228 . S
Cd226 O225 2.228 . S
Cd226 O230 2.273 1_565 S
Cd226 O234 2.277 . S
O227 C224 1.160 . S
O227 Cd228 2.203 . S
Cd228 O227 2.203 . S
Cd228 O230 2.411 . S
Cd228 O231 2.333 . S
Cd228 O232 2.352 . S
Cd228 O236 2.277 1_545 S
Cd228 O237 2.356 . S
C229 O234 1.209 . S
C229 O236 1.226 . S
O230 Cd226 2.273 1_545 S
O230 Cd228 2.411 . S
O230 C233 1.320 . S
O231 Cd228 2.333 . S
O231 C233 1.214 . S
O232 Cd228 2.352 . S
O232 C235 1.258 . S
C233 O230 1.320 . S
C233 O231 1.214 . S
O234 Cd226 2.277 . S
O234 C229 1.209 . S
C235 O232 1.258 . S
C235 O237 1.282 . S
O236 Cd228 2.277 1_565 S
O236 C229 1.226 . S
O237 Cd228 2.356 . S
O237 C235 1.282 . S
C238 O239 1.306 . S
C238 O241 1.160 . S
O239 C238 1.306 . S
O239 Cd240 2.228 . S
Cd240 O239 2.228 . S
Cd240 O244 2.273 . S
Cd240 O248 2.277 . S
O241 C238 1.160 . S
O241 Cd242 2.203 . S
Cd242 O241 2.203 . S
Cd242 O244 2.411 . S
Cd242 O245 2.333 . S
Cd242 O246 2.352 . S
Cd242 O250 2.277 . S
Cd242 O251 2.356 . S
C243 O248 1.209 . S
C243 O250 1.226 . S
O244 Cd240 2.273 . S
O244 Cd242 2.411 . S
O244 C247 1.320 . S
O245 Cd242 2.333 . S
O245 C247 1.214 . S
O246 Cd242 2.352 . S
O246 C249 1.258 . S
C247 O244 1.320 . S
C247 O245 1.214 . S
O248 Cd240 2.277 . S
O248 C243 1.209 . S
C249 O246 1.258 . S
C249 O251 1.282 . S
O250 Cd242 2.277 . S
O250 C243 1.226 . S
O251 Cd242 2.356 . S
O251 C249 1.282 . S
C252 O253 1.306 . S
C252 O255 1.156 1_545 S
O253 C252 1.306 . S
O253 Cd254 2.228 . S
Cd254 O253 2.228 . S
Cd254 O258 2.273 . S
Cd254 O262 2.277 . S
O255 C252 1.156 1_565 S
O255 Cd256 2.204 . S
Cd256 O255 2.204 . S
Cd256 O258 2.411 1_565 S
Cd256 O259 2.333 . S
Cd256 O260 2.352 . S
Cd256 O264 2.277 1_565 S
Cd256 O265 2.356 . S
C257 O262 1.209 . S
C257 O264 1.226 . S
O258 Cd254 2.273 . S
O258 Cd256 2.411 1_545 S
O258 C261 1.320 . S
O259 Cd256 2.333 . S
O259 C261 1.213 1_565 S
O260 Cd256 2.352 . S
O260 C263 1.258 . S
C261 O258 1.320 . S
C261 O259 1.213 1_545 S
O262 Cd254 2.277 . S
O262 C257 1.209 . S
C263 O260 1.258 . S
C263 O265 1.282 . S
O264 Cd256 2.277 1_545 S
O264 C257 1.226 . S
O265 Cd256 2.356 . S
O265 C263 1.282 . S
C266 O267 1.306 . S
C266 O269 1.160 1_556 S
O267 C266 1.306 . S
O267 Cd268 2.228 . S
Cd268 O267 2.228 . S
Cd268 O272 2.291 . S
Cd268 O276 2.277 . S
O269 C266 1.160 1_554 S
O269 Cd270 2.203 . S
Cd270 O269 2.203 . S
Cd270 O272 2.409 1_554 S
Cd270 O273 2.333 . S
Cd270 O274 2.352 . S
Cd270 O278 2.277 1_554 S
Cd270 O279 2.356 . S
C271 O276 1.209 . S
C271 O278 1.226 . S
O272 Cd268 2.291 . S
O272 Cd270 2.409 1_556 S
O272 C275 1.319 1_556 S
O273 Cd270 2.333 . S
O273 C275 1.214 . S
O274 Cd270 2.352 . S
O274 C277 1.258 . S
C275 O272 1.319 1_554 S
C275 O273 1.214 . S
O276 Cd268 2.277 . S
O276 C271 1.209 . S
C277 O274 1.258 . S
C277 O279 1.282 . S
O278 Cd270 2.277 1_556 S
O278 C271 1.226 . S
O279 Cd270 2.356 . S
O279 C277 1.282 . S
C280 O281 1.306 . S
C280 O283 1.160 1_554 S
O281 C280 1.306 . S
O281 Cd282 2.228 . S
Cd282 O281 2.228 . S
Cd282 O286 2.273 . S
Cd282 O290 2.277 . S
O283 C280 1.160 1_556 S
O283 Cd284 2.203 . S
Cd284 O283 2.203 . S
Cd284 O286 2.411 1_556 S
Cd284 O287 2.333 . S
Cd284 O288 2.352 . S
Cd284 O292 2.277 1_556 S
Cd284 O293 2.356 . S
C285 O290 1.209 . S
C285 O292 1.226 . S
O286 Cd282 2.273 . S
O286 Cd284 2.411 1_554 S
O286 C289 1.320 . S
O287 Cd284 2.333 . S
O287 C289 1.214 1_556 S
O288 Cd284 2.352 . S
O288 C291 1.258 . S
C289 O286 1.320 . S
C289 O287 1.214 1_554 S
O290 Cd282 2.277 . S
O290 C285 1.209 . S
C291 O288 1.258 . S
C291 O293 1.282 . S
O292 Cd284 2.277 1_554 S
O292 C285 1.226 . S
O293 Cd284 2.356 . S
O293 C291 1.282 . S
C294 O295 1.306 . S
C294 O297 1.160 . S
O295 C294 1.306 . S
O295 Cd296 2.228 . S
Cd296 O295 2.228 . S
Cd296 O300 2.273 . S
Cd296 O304 2.277 . S
O297 C294 1.160 . S
O297 Cd298 2.203 . S
Cd298 O297 2.203 . S
Cd298 O300 2.411 . S
Cd298 O301 2.333 . S
Cd298 O302 2.352 . S
Cd298 O306 2.277 . S
Cd298 O307 2.356 . S
C299 O304 1.209 . S
C299 O306 1.226 . S
O300 Cd296 2.273 . S
O300 Cd298 2.411 . S
O300 C303 1.320 . S
O301 Cd298 2.333 . S
O301 C303 1.214 . S
O302 Cd298 2.352 . S
O302 C305 1.258 . S
C303 O300 1.320 . S
C303 O301 1.214 . S
O304 Cd296 2.277 . S
O304 C299 1.209 . S
C305 O302 1.258 . S
C305 O307 1.282 . S
O306 Cd298 2.277 . S
O306 C299 1.226 . S
O307 Cd298 2.356 . S
O307 C305 1.282 . S
C308 O309 1.306 . S
C308 O311 1.160 . S
O309 C308 1.306 . S
O309 Cd310 2.228 . S
Cd310 O309 2.228 . S
Cd310 O314 2.273 . S
Cd310 O318 2.277 . S
O311 C308 1.160 . S
O311 Cd312 2.203 . S
Cd312 O311 2.203 . S
Cd312 O314 2.411 . S
Cd312 O315 2.333 . S
Cd312 O316 2.352 . S
Cd312 O320 2.277 . S
Cd312 O321 2.356 . S
C313 O318 1.209 . S
C313 O320 1.226 . S
O314 Cd310 2.273 . S
O314 Cd312 2.411 . S
O314 C317 1.320 . S
O315 Cd312 2.333 . S
O315 C317 1.214 . S
O316 Cd312 2.352 . S
O316 C319 1.258 . S
C317 O314 1.320 . S
C317 O315 1.214 . S
O318 Cd310 2.277 . S
O318 C313 1.209 . S
C319 O316 1.258 . S
C319 O321 1.282 . S
O320 Cd312 2.277 . S
O320 C313 1.226 . S
O321 Cd312 2.356 . S
O321 C319 1.282 . S
C322 O323 1.306 . S
C322 O325 1.160 . S
O323 C322 1.306 . S
O323 Cd324 2.228 . S
Cd324 O323 2.228 . S
Cd324 O328 2.273 . S
Cd324 O332 2.277 . S
O325 C322 1.160 . S
O325 Cd326 2.203 . S
Cd326 O325 2.203 . S
Cd326 O328 2.411 . S
Cd326 O329 2.333 . S
Cd326 O330 2.352 . S
Cd326 O334 2.277 . S
Cd326 O335 2.356 . S
C327 O332 1.209 . S
C327 O334 1.226 . S
O328 Cd324 2.273 . S
O328 Cd326 2.411 . S
O328 C331 1.320 . S
O329 Cd326 2.333 . S
O329 C331 1.214 . S
O330 Cd326 2.352 . S
O330 C333 1.258 . S
C331 O328 1.320 . S
C331 O329 1.214 . S
O332 Cd324 2.277 . S
O332 C327 1.209 . S
C333 O330 1.258 . S
C333 O335 1.282 . S
O334 Cd326 2.277 . S
O334 C327 1.226 . S
O335 Cd326 2.356 . S
O335 C333 1.282 . S
O336 Zn337 1.953 1_554 S
O336 C352 1.225 1_455 S
Zn337 O336 1.953 1_556 S
Zn337 O338 1.949 1_556 S
Zn337 O344 1.919 . S
Zn337 O349 1.924 1_455 S
O338 Zn337 1.949 1_554 S
O338 Zn339 1.923 1_545 S
O338 Zn340 1.950 1_455 S
O338 Zn341 1.945 1_444 S
Zn339 O338 1.923 1_565 S
Zn339 O342 1.933 . S
Zn339 O345 1.941 1_565 S
Zn339 O346 1.965 . S
Zn340 O338 1.950 1_655 S
Zn340 O347 1.938 . S
Zn340 O348 1.906 1_545 S
Zn340 O358 1.953 . S
Zn341 O338 1.945 1_666 S
Zn341 O343 1.932 . S
Zn341 O350 1.977 . S
Zn341 O351 1.910 1_565 S
O342 Zn339 1.933 . S
O342 C353 1.226 1_554 S
O343 Zn341 1.932 . S
O343 C353 1.307 1_655 S
O344 Zn337 1.919 . S
O344 C355 1.253 . S
O345 Zn339 1.941 1_545 S
O345 C355 1.283 1_554 S
O346 Zn339 1.965 . S
O346 C354 1.303 . S
O347 Zn340 1.938 . S
O347 C354 1.247 1_645 S
O348 Zn340 1.906 1_565 S
O348 C356 1.304 . S
O349 Zn337 1.924 1_655 S
O349 C357 1.311 . S
O350 Zn341 1.977 . S
O350 C356 1.272 1_556 S
O351 Zn341 1.910 1_545 S
O351 C357 1.231 . S
C352 O336 1.225 1_655 S
C352 O358 1.298 . S
C353 O342 1.226 1_556 S
C353 O343 1.307 1_455 S
C354 O346 1.303 . S
C354 O347 1.247 1_465 S
C355 O344 1.253 . S
C355 O345 1.283 1_556 S
C356 O348 1.304 . S
C356 O350 1.272 1_554 S
C357 O349 1.311 . S
C357 O351 1.231 . S
O358 Zn340 1.953 . S
O358 C352 1.298 . S
O359 Zn360 1.953 . S
O359 C375 1.225 . S
Zn360 O359 1.953 . S
Zn360 O361 1.949 . S
Zn360 O367 1.919 . S
Zn360 O372 1.924 . S
O361 Zn360 1.949 . S
O361 Zn362 1.923 . S
O361 Zn363 1.950 . S
O361 Zn364 1.945 . S
Zn362 O361 1.923 . S
Zn362 O365 1.933 . S
Zn362 O368 1.941 . S
Zn362 O369 1.965 . S
Zn363 O361 1.950 . S
Zn363 O370 1.938 . S
Zn363 O371 1.906 . S
Zn363 O381 1.953 . S
Zn364 O361 1.945 . S
Zn364 O366 1.932 . S
Zn364 O373 1.977 . S
Zn364 O374 1.910 . S
O365 Zn362 1.933 . S
O365 C376 1.226 . S
O366 Zn364 1.932 . S
O366 C376 1.307 . S
O367 Zn360 1.919 . S
O367 C378 1.253 . S
O368 Zn362 1.941 . S
O368 C378 1.283 . S
O369 Zn362 1.965 . S
O369 C377 1.303 . S
O370 Zn363 1.938 . S
O370 C377 1.247 . S
O371 Zn363 1.906 . S
O371 C379 1.304 . S
O372 Zn360 1.924 . S
O372 C380 1.311 . S
O373 Zn364 1.977 . S
O373 C379 1.272 . S
O374 Zn364 1.910 . S
O374 C380 1.231 . S
C375 O359 1.225 . S
C375 O381 1.298 . S
C376 O365 1.226 . S
C376 O366 1.307 . S
C377 O369 1.303 . S
C377 O370 1.247 . S
C378 O367 1.253 . S
C378 O368 1.283 . S
C379 O371 1.304 . S
C379 O373 1.272 . S
C380 O372 1.311 . S
C380 O374 1.231 . S
O381 Zn363 1.953 . S
O381 C375 1.298 . S
O382 Zn383 1.953 . S
O382 C398 1.225 . S
Zn383 O382 1.953 . S
Zn383 O384 1.949 1_565 S
Zn383 O390 1.919 . S
Zn383 O395 1.924 . S
O384 Zn383 1.949 1_545 S
O384 Zn385 1.923 . S
O384 Zn386 1.949 1_545 S
O384 Zn387 1.945 . S
Zn385 O384 1.923 . S
Zn385 O388 1.933 . S
Zn385 O391 1.941 . S
Zn385 O392 1.965 . S
Zn386 O384 1.949 1_565 S
Zn386 O393 1.937 1_565 S
Zn386 O394 1.903 1_565 S
Zn386 O404 1.958 . S
Zn387 O384 1.945 . S
Zn387 O389 1.932 . S
Zn387 O396 1.977 . S
Zn387 O397 1.910 . S
O388 Zn385 1.933 . S
O388 C399 1.226 . S
O389 Zn387 1.932 . S
O389 C399 1.307 . S
O390 Zn383 1.919 . S
O390 C401 1.253 . S
O391 Zn385 1.941 . S
O391 C401 1.283 1_545 S
O392 Zn385 1.965 . S
O392 C400 1.303 . S
O393 Zn386 1.937 1_545 S
O393 C400 1.247 . S
O394 Zn386 1.903 1_545 S
O394 C402 1.304 . S
O395 Zn383 1.924 . S
O395 C403 1.311 . S
O396 Zn387 1.977 . S
O396 C402 1.272 . S
O397 Zn387 1.910 . S
O397 C403 1.231 1_545 S
C398 O382 1.225 . S
C398 O404 1.298 . S
C399 O388 1.226 . S
C399 O389 1.307 . S
C400 O392 1.303 . S
C400 O393 1.247 . S
C401 O390 1.253 . S
C401 O391 1.283 1_565 S
C402 O394 1.304 . S
C402 O396 1.272 . S
C403 O395 1.311 . S
C403 O397 1.231 1_565 S
O404 Zn386 1.958 . S
O404 C398 1.298 . S
O405 Zn406 1.953 . S
O405 C421 1.225 . S
Zn406 O405 1.953 . S
Zn406 O407 1.949 . S
Zn406 O413 1.919 . S
Zn406 O418 1.924 . S
O407 Zn406 1.949 . S
O407 Zn408 1.923 . S
O407 Zn409 1.950 . S
O407 Zn410 1.945 . S
Zn408 O407 1.923 . S
Zn408 O411 1.933 . S
Zn408 O414 1.941 . S
Zn408 O415 1.965 . S
Zn409 O407 1.950 . S
Zn409 O416 1.938 . S
Zn409 O417 1.906 . S
Zn409 O427 1.953 . S
Zn410 O407 1.945 . S
Zn410 O412 1.932 . S
Zn410 O419 1.977 . S
Zn410 O420 1.910 . S
O411 Zn408 1.933 . S
O411 C422 1.226 . S
O412 Zn410 1.932 . S
O412 C422 1.307 . S
O413 Zn406 1.919 . S
O413 C424 1.253 . S
O414 Zn408 1.941 . S
O414 C424 1.283 . S
O415 Zn408 1.965 . S
O415 C423 1.303 . S
O416 Zn409 1.938 . S
O416 C423 1.247 . S
O417 Zn409 1.906 . S
O417 C425 1.304 . S
O418 Zn406 1.924 . S
O418 C426 1.311 . S
O419 Zn410 1.977 . S
O419 C425 1.272 . S
O420 Zn410 1.910 . S
O420 C426 1.231 . S
C421 O405 1.225 . S
C421 O427 1.298 . S
C422 O411 1.226 . S
C422 O412 1.307 . S
C423 O415 1.303 . S
C423 O416 1.247 . S
C424 O413 1.253 . S
C424 O414 1.283 . S
C425 O417 1.304 . S
C425 O419 1.272 . S
C426 O418 1.311 . S
C426 O420 1.231 . S
O427 Zn409 1.953 . S
O427 C421 1.298 . S
O428 Zn429 1.953 1_445 S
O428 C444 1.225 . S
Zn429 O428 1.953 1_665 S
Zn429 O430 1.949 1_665 S
Zn429 O436 1.919 . S
Zn429 O441 1.924 1_565 S
O430 Zn429 1.949 1_445 S
O430 Zn431 1.923 1_545 S
O430 Zn432 1.950 . S
O430 Zn433 1.945 1_455 S
Zn431 O430 1.923 1_565 S
Zn431 O434 1.933 1_455 S
Zn431 O437 1.941 . S
Zn431 O438 1.965 . S
Zn432 O430 1.950 . S
Zn432 O439 1.938 . S
Zn432 O440 1.906 . S
Zn432 O450 1.953 . S
Zn433 O430 1.945 1_655 S
Zn433 O435 1.932 . S
Zn433 O442 1.977 . S
Zn433 O443 1.910 . S
O434 Zn431 1.933 1_655 S
O434 C445 1.226 . S
O435 Zn433 1.932 . S
O435 C445 1.307 1_545 S
O436 Zn429 1.919 . S
O436 C447 1.253 . S
O437 Zn431 1.941 . S
O437 C447 1.283 1_455 S
O438 Zn431 1.965 . S
O438 C446 1.303 . S
O439 Zn432 1.938 . S
O439 C446 1.247 1_545 S
O440 Zn432 1.906 . S
O440 C448 1.304 . S
O441 Zn429 1.924 1_545 S
O441 C449 1.311 . S
O442 Zn433 1.977 . S
O442 C448 1.272 1_655 S
O443 Zn433 1.910 . S
O443 C449 1.231 . S
C444 O428 1.225 . S
C444 O450 1.298 . S
C445 O434 1.226 . S
C445 O435 1.307 1_565 S
C446 O438 1.303 . S
C446 O439 1.247 1_565 S
C447 O436 1.253 . S
C447 O437 1.283 1_655 S
C448 O440 1.304 . S
C448 O442 1.272 1_455 S
C449 O441 1.311 . S
C449 O443 1.231 . S
O450 Zn432 1.953 . S
O450 C444 1.298 . S
O451 Zn452 1.953 . S
O451 C467 1.225 . S
Zn452 O451 1.953 . S
Zn452 O453 1.949 . S
Zn452 O459 1.919 . S
Zn452 O464 1.924 . S
O453 Zn452 1.949 . S
O453 Zn454 1.923 . S
O453 Zn455 1.950 . S
O453 Zn456 1.945 . S
Zn454 O453 1.923 . S
Zn454 O457 1.933 . S
Zn454 O460 1.941 . S
Zn454 O461 1.965 . S
Zn455 O453 1.950 . S
Zn455 O462 1.938 . S
Zn455 O463 1.906 . S
Zn455 O473 1.953 . S
Zn456 O453 1.945 . S
Zn456 O458 1.932 . S
Zn456 O465 1.977 . S
Zn456 O466 1.910 . S
O457 Zn454 1.933 . S
O457 C468 1.226 . S
O458 Zn456 1.932 . S
O458 C468 1.307 . S
O459 Zn452 1.919 . S
O459 C470 1.253 . S
O460 Zn454 1.941 . S
O460 C470 1.283 . S
O461 Zn454 1.965 . S
O461 C469 1.303 . S
O462 Zn455 1.938 . S
O462 C469 1.247 . S
O463 Zn455 1.906 . S
O463 C471 1.304 . S
O464 Zn452 1.924 . S
O464 C472 1.311 . S
O465 Zn456 1.977 . S
O465 C471 1.272 . S
O466 Zn456 1.910 . S
O466 C472 1.231 . S
C467 O451 1.225 . S
C467 O473 1.298 . S
C468 O457 1.226 . S
C468 O458 1.307 . S
C469 O461 1.303 . S
C469 O462 1.247 . S
C470 O459 1.253 . S
C470 O460 1.283 . S
C471 O463 1.304 . S
C471 O465 1.272 . S
C472 O464 1.311 . S
C472 O466 1.231 . S
O473 Zn455 1.953 . S
O473 C467 1.298 . S
O474 Zn475 1.953 . S
O474 C490 1.225 . S
Zn475 O474 1.953 . S
Zn475 O476 1.949 . S
Zn475 O482 1.919 1_544 S
Zn475 O487 1.924 . S
O476 Zn475 1.949 . S
O476 Zn477 1.923 1_544 S
O476 Zn478 1.950 . S
O476 Zn479 1.945 1_554 S
Zn477 O476 1.923 1_566 S
Zn477 O480 1.933 . S
Zn477 O483 1.941 . S
Zn477 O484 1.965 1_556 S
Zn478 O476 1.950 . S
Zn478 O485 1.938 1_545 S
Zn478 O486 1.906 . S
Zn478 O496 1.953 . S
Zn479 O476 1.945 1_556 S
Zn479 O481 1.932 . S
Zn479 O488 1.977 . S
Zn479 O489 1.910 . S
O480 Zn477 1.933 . S
O480 C491 1.226 . S
O481 Zn479 1.932 . S
O481 C491 1.307 1_545 S
O482 Zn475 1.919 1_566 S
O482 C493 1.253 . S
O483 Zn477 1.941 . S
O483 C493 1.283 . S
O484 Zn477 1.965 1_554 S
O484 C492 1.303 . S
O485 Zn478 1.938 1_565 S
O485 C492 1.247 . S
O486 Zn478 1.906 . S
O486 C494 1.304 . S
O487 Zn475 1.924 . S
O487 C495 1.311 1_554 S
O488 Zn479 1.977 . S
O488 C494 1.272 1_556 S
O489 Zn479 1.910 . S
O489 C495 1.231 . S
C490 O474 1.225 . S
C490 O496 1.298 . S
C491 O480 1.226 . S
C491 O481 1.307 1_565 S
C492 O484 1.303 . S
C492 O485 1.247 . S
C493 O482 1.253 . S
C493 O483 1.283 . S
C494 O486 1.304 . S
C494 O488 1.272 1_554 S
C495 O487 1.311 1_556 S
C495 O489 1.231 . S
O496 Zn478 1.953 . S
O496 C490 1.298 . S
O497 Zn498 1.953 . S
O497 C513 1.225 . S
Zn498 O497 1.953 . S
Zn498 O499 1.949 . S
Zn498 O505 1.919 . S
Zn498 O510 1.924 . S
O499 Zn498 1.949 . S
O499 Zn500 1.923 . S
O499 Zn501 1.950 . S
O499 Zn502 1.945 . S
Zn500 O499 1.923 . S
Zn500 O503 1.933 . S
Zn500 O506 1.941 . S
Zn500 O507 1.965 . S
Zn501 O499 1.950 . S
Zn501 O508 1.938 . S
Zn501 O509 1.906 . S
Zn501 O519 1.953 . S
Zn502 O499 1.945 . S
Zn502 O504 1.932 . S
Zn502 O511 1.977 . S
Zn502 O512 1.910 . S
O503 Zn500 1.933 . S
O503 C514 1.226 . S
O504 Zn502 1.932 . S
O504 C514 1.307 . S
O505 Zn498 1.919 . S
O505 C516 1.253 . S
O506 Zn500 1.941 . S
O506 C516 1.283 . S
O507 Zn500 1.965 . S
O507 C515 1.303 . S
O508 Zn501 1.938 . S
O508 C515 1.247 . S
O509 Zn501 1.906 . S
O509 C517 1.304 . S
O510 Zn498 1.924 . S
O510 C518 1.311 . S
O511 Zn502 1.977 . S
O511 C517 1.272 . S
O512 Zn502 1.910 . S
O512 C518 1.231 . S
C513 O497 1.225 . S
C513 O519 1.298 . S
C514 O503 1.226 . S
C514 O504 1.307 . S
C515 O507 1.303 . S
C515 O508 1.247 . S
C516 O505 1.253 . S
C516 O506 1.283 . S
C517 O509 1.304 . S
C517 O511 1.272 . S
C518 O510 1.311 . S
C518 O512 1.231 . S
O519 Zn501 1.953 . S
O519 C513 1.298 . S
O520 Zn521 1.953 . S
O520 C536 1.225 . S
Zn521 O520 1.953 . S
Zn521 O522 1.949 1_556 S
Zn521 O528 1.919 . S
Zn521 O533 1.924 . S
O522 Zn521 1.949 1_554 S
O522 Zn523 1.923 . S
O522 Zn524 1.954 . S
O522 Zn525 1.945 . S
Zn523 O522 1.923 . S
Zn523 O526 1.933 . S
Zn523 O529 1.941 . S
Zn523 O530 1.965 . S
Zn524 O522 1.954 . S
Zn524 O531 1.942 . S
Zn524 O532 1.917 . S
Zn524 O542 1.934 1_554 S
Zn525 O522 1.945 . S
Zn525 O527 1.932 . S
Zn525 O534 1.977 . S
Zn525 O535 1.910 . S
O526 Zn523 1.933 . S
O526 C537 1.226 . S
O527 Zn525 1.932 . S
O527 C537 1.307 . S
O528 Zn521 1.919 . S
O528 C539 1.253 . S
O529 Zn523 1.941 . S
O529 C539 1.283 1_554 S
O530 Zn523 1.965 . S
O530 C538 1.303 . S
O531 Zn524 1.942 . S
O531 C538 1.247 . S
O532 Zn524 1.917 . S
O532 C540 1.304 . S
O533 Zn521 1.924 . S
O533 C541 1.311 . S
O534 Zn525 1.977 . S
O534 C540 1.272 . S
O535 Zn525 1.910 . S
O535 C541 1.231 1_554 S
C536 O520 1.225 . S
C536 O542 1.298 . S
C537 O526 1.226 . S
C537 O527 1.307 . S
C538 O530 1.303 . S
C538 O531 1.247 . S
C539 O528 1.253 . S
C539 O529 1.283 1_556 S
C540 O532 1.304 . S
C540 O534 1.272 . S
C541 O533 1.311 . S
C541 O535 1.231 1_556 S
O542 Zn524 1.934 1_556 S
O542 C536 1.298 . S
O543 Zn544 1.953 . S
O543 C559 1.225 . S
Zn544 O543 1.953 . S
Zn544 O545 1.949 . S
Zn544 O551 1.919 . S
Zn544 O556 1.924 . S
O545 Zn544 1.949 . S
O545 Zn546 1.923 . S
O545 Zn547 1.950 . S
O545 Zn548 1.945 . S
Zn546 O545 1.923 . S
Zn546 O549 1.933 . S
Zn546 O552 1.941 . S
Zn546 O553 1.965 . S
Zn547 O545 1.950 . S
Zn547 O554 1.938 . S
Zn547 O555 1.906 . S
Zn547 O565 1.953 . S
Zn548 O545 1.945 . S
Zn548 O550 1.932 . S
Zn548 O557 1.977 . S
Zn548 O558 1.910 . S
O549 Zn546 1.933 . S
O549 C560 1.226 . S
O550 Zn548 1.932 . S
O550 C560 1.307 . S
O551 Zn544 1.919 . S
O551 C562 1.253 . S
O552 Zn546 1.941 . S
O552 C562 1.283 . S
O553 Zn546 1.965 . S
O553 C561 1.303 . S
O554 Zn547 1.938 . S
O554 C561 1.247 . S
O555 Zn547 1.906 . S
O555 C563 1.304 . S
O556 Zn544 1.924 . S
O556 C564 1.311 . S
O557 Zn548 1.977 . S
O557 C563 1.272 . S
O558 Zn548 1.910 . S
O558 C564 1.231 . S
C559 O543 1.225 . S
C559 O565 1.298 . S
C560 O549 1.226 . S
C560 O550 1.307 . S
C561 O553 1.303 . S
C561 O554 1.247 . S
C562 O551 1.253 . S
C562 O552 1.283 . S
C563 O555 1.304 . S
C563 O557 1.272 . S
C564 O556 1.311 . S
C564 O558 1.231 . S
O565 Zn547 1.953 . S
O565 C559 1.298 . S
O566 Zn567 1.953 . S
O566 C582 1.225 . S
Zn567 O566 1.953 . S
Zn567 O568 1.966 . S
Zn567 O574 1.919 . S
Zn567 O579 1.924 . S
O568 Zn567 1.966 . S
O568 Zn569 1.924 . S
O568 Zn570 1.940 1_455 S
O568 Zn571 1.936 1_455 S
Zn569 O568 1.924 . S
Zn569 O572 1.933 1_455 S
Zn569 O575 1.941 . S
Zn569 O576 1.965 1_455 S
Zn570 O568 1.940 1_655 S
Zn570 O577 1.938 . S
Zn570 O578 1.906 . S
Zn570 O588 1.953 1_655 S
Zn571 O568 1.936 1_655 S
Zn571 O573 1.932 . S
Zn571 O580 1.977 . S
Zn571 O581 1.910 1_655 S
O572 Zn569 1.933 1_655 S
O572 C583 1.226 . S
O573 Zn571 1.932 . S
O573 C583 1.307 . S
O574 Zn567 1.919 . S
O574 C585 1.253 . S
O575 Zn569 1.941 . S
O575 C585 1.283 . S
O576 Zn569 1.965 1_655 S
O576 C584 1.303 . S
O577 Zn570 1.938 . S
O577 C584 1.247 . S
O578 Zn570 1.906 . S
O578 C586 1.304 . S
O579 Zn567 1.924 . S
O579 C587 1.311 . S
O580 Zn571 1.977 . S
O580 C586 1.272 . S
O581 Zn571 1.910 1_455 S
O581 C587 1.231 . S
C582 O566 1.225 . S
C582 O588 1.298 . S
C583 O572 1.226 . S
C583 O573 1.307 . S
C584 O576 1.303 . S
C584 O577 1.247 . S
C585 O574 1.253 . S
C585 O575 1.283 . S
C586 O578 1.304 . S
C586 O580 1.272 . S
C587 O579 1.311 . S
C587 O581 1.231 . S
O588 Zn570 1.953 1_455 S
O588 C582 1.298 . S
O589 Zn590 1.953 . S
O589 C605 1.225 . S
Zn590 O589 1.953 . S
Zn590 O591 1.949 . S
Zn590 O597 1.919 . S
Zn590 O602 1.924 . S
O591 Zn590 1.949 . S
O591 Zn592 1.923 . S
O591 Zn593 1.950 . S
O591 Zn594 1.945 . S
Zn592 O591 1.923 . S
Zn592 O595 1.933 . S
Zn592 O598 1.941 . S
Zn592 O599 1.965 . S
Zn593 O591 1.950 . S
Zn593 O600 1.938 . S
Zn593 O601 1.906 . S
Zn593 O611 1.953 . S
Zn594 O591 1.945 . S
Zn594 O596 1.932 . S
Zn594 O603 1.977 . S
Zn594 O604 1.910 . S
O595 Zn592 1.933 . S
O595 C606 1.226 . S
O596 Zn594 1.932 . S
O596 C606 1.307 . S
O597 Zn590 1.919 . S
O597 C608 1.253 . S
O598 Zn592 1.941 . S
O598 C608 1.283 . S
O599 Zn592 1.965 . S
O599 C607 1.303 . S
O600 Zn593 1.938 . S
O600 C607 1.247 . S
O601 Zn593 1.906 . S
O601 C609 1.304 . S
O602 Zn590 1.924 . S
O602 C610 1.311 . S
O603 Zn594 1.977 . S
O603 C609 1.272 . S
O604 Zn594 1.910 . S
O604 C610 1.231 . S
C605 O589 1.225 . S
C605 O611 1.298 . S
C606 O595 1.226 . S
C606 O596 1.307 . S
C607 O599 1.303 . S
C607 O600 1.247 . S
C608 O597 1.253 . S
C608 O598 1.283 . S
C609 O601 1.304 . S
C609 O603 1.272 . S
C610 O602 1.311 . S
C610 O604 1.231 . S
O611 Zn593 1.953 . S
O611 C605 1.298 . S
O612 Zn613 1.953 . S
O612 C628 1.225 . S
Zn613 O612 1.953 . S
Zn613 O614 1.949 . S
Zn613 O620 1.919 . S
Zn613 O625 1.924 . S
O614 Zn613 1.949 . S
O614 Zn615 1.923 . S
O614 Zn616 1.950 . S
O614 Zn617 1.945 . S
Zn615 O614 1.923 . S
Zn615 O618 1.933 . S
Zn615 O621 1.941 . S
Zn615 O622 1.965 . S
Zn616 O614 1.950 . S
Zn616 O623 1.938 . S
Zn616 O624 1.906 . S
Zn616 O634 1.953 . S
Zn617 O614 1.945 . S
Zn617 O619 1.932 . S
Zn617 O626 1.977 . S
Zn617 O627 1.910 . S
O618 Zn615 1.933 . S
O618 C629 1.226 . S
O619 Zn617 1.932 . S
O619 C629 1.307 . S
O620 Zn613 1.919 . S
O620 C631 1.253 . S
O621 Zn615 1.941 . S
O621 C631 1.283 . S
O622 Zn615 1.965 . S
O622 C630 1.303 . S
O623 Zn616 1.938 . S
O623 C630 1.247 . S
O624 Zn616 1.906 . S
O624 C632 1.304 . S
O625 Zn613 1.924 . S
O625 C633 1.311 . S
O626 Zn617 1.977 . S
O626 C632 1.272 . S
O627 Zn617 1.910 . S
O627 C633 1.231 . S
C628 O612 1.225 . S
C628 O634 1.298 . S
C629 O618 1.226 . S
C629 O619 1.307 . S
C630 O622 1.303 . S
C630 O623 1.247 . S
C631 O620 1.253 . S
C631 O621 1.283 . S
C632 O624 1.304 . S
C632 O626 1.272 . S
C633 O625 1.311 . S
C633 O627 1.231 . S
O634 Zn616 1.953 . S
O634 C628 1.298 . S
O635 Zn636 1.953 . S
O635 C651 1.225 . S
Zn636 O635 1.953 . S
Zn636 O637 1.949 . S
Zn636 O643 1.919 . S
Zn636 O648 1.924 . S
O637 Zn636 1.949 . S
O637 Zn638 1.923 . S
O637 Zn639 1.950 . S
O637 Zn640 1.945 . S
Zn638 O637 1.923 . S
Zn638 O641 1.933 . S
Zn638 O644 1.941 . S
Zn638 O645 1.965 . S
Zn639 O637 1.950 . S
Zn639 O646 1.938 . S
Zn639 O647 1.906 . S
Zn639 O657 1.953 . S
Zn640 O637 1.945 . S
Zn640 O642 1.932 . S
Zn640 O649 1.977 . S
Zn640 O650 1.910 . S
O641 Zn638 1.933 . S
O641 C652 1.226 . S
O642 Zn640 1.932 . S
O642 C652 1.307 . S
O643 Zn636 1.919 . S
O643 C654 1.253 . S
O644 Zn638 1.941 . S
O644 C654 1.283 . S
O645 Zn638 1.965 . S
O645 C653 1.303 . S
O646 Zn639 1.938 . S
O646 C653 1.247 . S
O647 Zn639 1.906 . S
O647 C655 1.304 . S
O648 Zn636 1.924 . S
O648 C656 1.311 . S
O649 Zn640 1.977 . S
O649 C655 1.272 . S
O650 Zn640 1.910 . S
O650 C656 1.231 . S
C651 O635 1.225 . S
C651 O657 1.298 . S
C652 O641 1.226 . S
C652 O642 1.307 . S
C653 O645 1.303 . S
C653 O646 1.247 . S
C654 O643 1.253 . S
C654 O644 1.283 . S
C655 O647 1.304 . S
C655 O649 1.272 . S
C656 O648 1.311 . S
C656 O650 1.231 . S
O657 Zn639 1.953 . S
O657 C651 1.298 . S
O658 Zn659 1.953 . S
O658 C674 1.225 . S
Zn659 O658 1.953 . S
Zn659 O660 1.949 . S
Zn659 O666 1.919 . S
Zn659 O671 1.924 . S
O660 Zn659 1.949 . S
O660 Zn661 1.923 . S
O660 Zn662 1.950 . S
O660 Zn663 1.945 . S
Zn661 O660 1.923 . S
Zn661 O664 1.933 . S
Zn661 O667 1.941 . S
Zn661 O668 1.965 . S
Zn662 O660 1.950 . S
Zn662 O669 1.938 . S
Zn662 O670 1.906 . S
Zn662 O680 1.953 . S
Zn663 O660 1.945 . S
Zn663 O665 1.932 . S
Zn663 O672 1.977 . S
Zn663 O673 1.910 . S
O664 Zn661 1.933 . S
O664 C675 1.226 . S
O665 Zn663 1.932 . S
O665 C675 1.307 . S
O666 Zn659 1.919 . S
O666 C677 1.253 . S
O667 Zn661 1.941 . S
O667 C677 1.283 . S
O668 Zn661 1.965 . S
O668 C676 1.303 . S
O669 Zn662 1.938 . S
O669 C676 1.247 . S
O670 Zn662 1.906 . S
O670 C678 1.304 . S
O671 Zn659 1.924 . S
O671 C679 1.311 . S
O672 Zn663 1.977 . S
O672 C678 1.272 . S
O673 Zn663 1.910 . S
O673 C679 1.231 . S
C674 O658 1.225 . S
C674 O680 1.298 . S
C675 O664 1.226 . S
C675 O665 1.307 . S
C676 O668 1.303 . S
C676 O669 1.247 . S
C677 O666 1.253 . S
C677 O667 1.283 . S
C678 O670 1.304 . S
C678 O672 1.272 . S
C679 O671 1.311 . S
C679 O673 1.231 . S
O680 Zn662 1.953 . S
O680 C674 1.298 . S
O681 Zn682 1.953 1_454 S
O681 C697 1.225 . S
Zn682 O681 1.953 1_656 S
Zn682 O683 1.949 1_656 S
Zn682 O689 1.919 . S
Zn682 O694 1.924 1_655 S
O683 Zn682 1.949 1_454 S
O683 Zn684 1.923 1_455 S
O683 Zn685 1.950 . S
O683 Zn686 1.945 1_554 S
Zn684 O683 1.923 1_655 S
Zn684 O687 1.933 . S
Zn684 O690 1.941 . S
Zn684 O691 1.965 . S
Zn685 O683 1.950 . S
Zn685 O692 1.938 . S
Zn685 O693 1.906 . S
Zn685 O703 1.953 . S
Zn686 O683 1.945 1_556 S
Zn686 O688 1.932 . S
Zn686 O695 1.977 . S
Zn686 O696 1.910 . S
O687 Zn684 1.933 . S
O687 C698 1.226 1_554 S
O688 Zn686 1.932 . S
O688 C698 1.307 1_455 S
O689 Zn682 1.919 . S
O689 C700 1.253 . S
O690 Zn684 1.941 . S
O690 C700 1.283 1_554 S
O691 Zn684 1.965 . S
O691 C699 1.303 . S
O692 Zn685 1.938 . S
O692 C699 1.247 1_455 S
O693 Zn685 1.906 . S
O693 C701 1.304 . S
O694 Zn682 1.924 1_455 S
O694 C702 1.311 . S
O695 Zn686 1.977 . S
O695 C701 1.272 1_556 S
O696 Zn686 1.910 . S
O696 C702 1.231 . S
C697 O681 1.225 . S
C697 O703 1.298 . S
C698 O687 1.226 1_556 S
C698 O688 1.307 1_655 S
C699 O691 1.303 . S
C699 O692 1.247 1_655 S
C700 O689 1.253 . S
C700 O690 1.283 1_556 S
C701 O693 1.304 . S
C701 O695 1.272 1_554 S
C702 O694 1.311 . S
C702 O696 1.231 . S
O703 Zn685 1.953 . S
O703 C697 1.298 . S
C352 C5 1.483 1_655 S
C23 C380 1.938 . S
C39 C398 1.363 . S
C424 C42 1.673 . S
C19 C447 1.854 1_455 S
C467 C28 1.323 . S
C495 C53 1.829 . S
C9 C513 1.464 . S
C65 C354 1.864 1_545 S
C75 C376 1.585 . S
C400 C93 1.933 . S
C421 C109 1.433 . S
C56 C444 1.333 . S
C469 C81 1.758 . S
C491 C84 1.390 . S
C515 C103 1.926 . S
C355 C107 1.411 1_556 S
C538 C121 1.553 . S
C131 C562 1.533 . S
C586 C140 1.256 . S
C61 C516 1.406 . S
C401 C70 1.263 . S
C137 C607 1.400 . S
C632 C165 1.176 . S
C173 C353 1.521 . S
C630 C182 1.548 . S
C207 C399 1.462 . S
C219 C609 1.239 . S
C448 C187 1.272 . S
C560 C205 1.523 . S
C492 C221 1.475 . S
C652 C168 1.522 . S
C357 C224 1.571 . S
C243 C628 1.721 . S
C403 C252 1.635 1_565 S
C277 C606 1.709 . S
C233 C445 1.736 1_545 S
C249 C564 1.446 . S
C490 C261 1.775 . S
C271 C656 1.488 . S
C266 C356 1.663 1_556 S
C280 C541 1.762 1_554 S
C299 C471 1.672 . S
C317 C585 1.542 . S
C655 C229 1.611 . S
C402 C247 1.619 . S
C426 C305 1.679 . S
C378 C333 1.455 . S
C33 C674 1.484 . S
C633 C51 1.938 . S
C697 C11 1.363 . S
C14 C608 1.673 . S
C47 C539 1.854 . S
C559 C0 1.324 . S
C587 C25 1.829 . S
C651 C37 1.464 . S
C676 C163 1.864 . S
C117 C629 1.585 . S
C135 C699 1.935 . S
C605 C151 1.433 . S
C536 C154 1.333 . S
C123 C561 1.758 . S
C583 C126 1.389 . S
C145 C653 1.926 . S
C677 C149 1.411 . S
C446 C79 1.553 . S
C470 C89 1.534 . S
C98 C494 1.256 . S
C654 C159 1.406 . S
C112 C700 1.263 1_554 S
C423 C95 1.398 . S
C379 C67 1.176 . S
C201 C675 1.521 . S
C377 C210 1.548 . S
C698 C179 1.463 1_655 S
C191 C425 1.239 . S
C215 C540 1.272 . S
C177 C468 1.523 . S
C193 C584 1.475 1_455 S
C196 C514 1.522 . S
C679 C322 1.571 . S
C285 C375 1.721 . S
C702 C294 1.635 . S
C319 C422 1.708 . S
C331 C537 1.736 . S
C472 C291 1.446 . S
C303 C582 1.773 . S
C518 C313 1.488 . S
C678 C308 1.663 . S
C449 C238 1.762 . S
C257 C563 1.672 . S
C493 C275 1.543 1_556 S
C517 C327 1.611 . S
C289 C701 1.619 . S
C610 C263 1.679 . S
C631 C235 1.455 . S
