# Generated by pormake.
# Topology ocu, (6,8)-cn, num edge types: 1
# Building blocks:
#     Node 0, Type 0, BuildingBlock: KUMBUR_clean_sbu_1, # of connection points: 6
#     Node 1, Type 0, BuildingBlock: KUMBUR_clean_sbu_1, # of connection points: 6
#     Node 2, Type 0, BuildingBlock: KUMBUR_clean_sbu_1, # of connection points: 6
#     Node 3, Type 0, BuildingBlock: KUMBUR_clean_sbu_1, # of connection points: 6
#     Node 4, Type 0, BuildingBlock: KUMBUR_clean_sbu_1, # of connection points: 6
#     Node 5, Type 0, BuildingBlock: KUMBUR_clean_sbu_1, # of connection points: 6
#     Node 6, Type 0, BuildingBlock: KUMBUR_clean_sbu_1, # of connection points: 6
#     Node 7, Type 0, BuildingBlock: KUMBUR_clean_sbu_1, # of connection points: 6
#     Node 8, Type 1, BuildingBlock: AJUNOK_clean_sbu_0, # of connection points: 8
#     Node 9, Type 1, BuildingBlock: AJUNOK_clean_sbu_0, # of connection points: 8
#     Node 10, Type 1, BuildingBlock: AJUNOK_clean_sbu_0, # of connection points: 8
#     Node 11, Type 1, BuildingBlock: AJUNOK_clean_sbu_0, # of connection points: 8
#     Node 12, Type 1, BuildingBlock: AJUNOK_clean_sbu_0, # of connection points: 8
#     Node 13, Type 1, BuildingBlock: AJUNOK_clean_sbu_0, # of connection points: 8
#     Edge 14, Type (0, 1), BuildingBlock: KIFKEQ_clean_linker_1, # of connection points: 2
#     Edge 15, Type (0, 1), BuildingBlock: KIFKEQ_clean_linker_1, # of connection points: 2
#     Edge 16, Type (0, 1), BuildingBlock: KIFKEQ_clean_linker_1, # of connection points: 2
#     Edge 17, Type (0, 1), BuildingBlock: KIFKEQ_clean_linker_1, # of connection points: 2
#     Edge 18, Type (0, 1), BuildingBlock: KIFKEQ_clean_linker_1, # of connection points: 2
#     Edge 19, Type (0, 1), BuildingBlock: KIFKEQ_clean_linker_1, # of connection points: 2
#     Edge 20, Type (0, 1), BuildingBlock: KIFKEQ_clean_linker_1, # of connection points: 2
#     Edge 21, Type (0, 1), BuildingBlock: KIFKEQ_clean_linker_1, # of connection points: 2
#     Edge 22, Type (0, 1), BuildingBlock: KIFKEQ_clean_linker_1, # of connection points: 2
#     Edge 23, Type (0, 1), BuildingBlock: KIFKEQ_clean_linker_1, # of connection points: 2
#     Edge 24, Type (0, 1), BuildingBlock: KIFKEQ_clean_linker_1, # of connection points: 2
#     Edge 25, Type (0, 1), BuildingBlock: KIFKEQ_clean_linker_1, # of connection points: 2
#     Edge 26, Type (0, 1), BuildingBlock: KIFKEQ_clean_linker_1, # of connection points: 2
#     Edge 27, Type (0, 1), BuildingBlock: KIFKEQ_clean_linker_1, # of connection points: 2
#     Edge 28, Type (0, 1), BuildingBlock: KIFKEQ_clean_linker_1, # of connection points: 2
#     Edge 29, Type (0, 1), BuildingBlock: KIFKEQ_clean_linker_1, # of connection points: 2
#     Edge 30, Type (0, 1), BuildingBlock: KIFKEQ_clean_linker_1, # of connection points: 2
#     Edge 31, Type (0, 1), BuildingBlock: KIFKEQ_clean_linker_1, # of connection points: 2
#     Edge 32, Type (0, 1), BuildingBlock: KIFKEQ_clean_linker_1, # of connection points: 2
#     Edge 33, Type (0, 1), BuildingBlock: KIFKEQ_clean_linker_1, # of connection points: 2
#     Edge 34, Type (0, 1), BuildingBlock: KIFKEQ_clean_linker_1, # of connection points: 2
#     Edge 35, Type (0, 1), BuildingBlock: KIFKEQ_clean_linker_1, # of connection points: 2
#     Edge 36, Type (0, 1), BuildingBlock: KIFKEQ_clean_linker_1, # of connection points: 2
#     Edge 37, Type (0, 1), BuildingBlock: KIFKEQ_clean_linker_1, # of connection points: 2
#     Edge 38, Type (0, 1), BuildingBlock: KIFKEQ_clean_linker_1, # of connection points: 2
#     Edge 39, Type (0, 1), BuildingBlock: KIFKEQ_clean_linker_1, # of connection points: 2
#     Edge 40, Type (0, 1), BuildingBlock: KIFKEQ_clean_linker_1, # of connection points: 2
#     Edge 41, Type (0, 1), BuildingBlock: KIFKEQ_clean_linker_1, # of connection points: 2
#     Edge 42, Type (0, 1), BuildingBlock: KIFKEQ_clean_linker_1, # of connection points: 2
#     Edge 43, Type (0, 1), BuildingBlock: KIFKEQ_clean_linker_1, # of connection points: 2
#     Edge 44, Type (0, 1), BuildingBlock: KIFKEQ_clean_linker_1, # of connection points: 2
#     Edge 45, Type (0, 1), BuildingBlock: KIFKEQ_clean_linker_1, # of connection points: 2
#     Edge 46, Type (0, 1), BuildingBlock: KIFKEQ_clean_linker_1, # of connection points: 2
#     Edge 47, Type (0, 1), BuildingBlock: KIFKEQ_clean_linker_1, # of connection points: 2
#     Edge 48, Type (0, 1), BuildingBlock: KIFKEQ_clean_linker_1, # of connection points: 2
#     Edge 49, Type (0, 1), BuildingBlock: KIFKEQ_clean_linker_1, # of connection points: 2
#     Edge 50, Type (0, 1), BuildingBlock: KIFKEQ_clean_linker_1, # of connection points: 2
#     Edge 51, Type (0, 1), BuildingBlock: KIFKEQ_clean_linker_1, # of connection points: 2
#     Edge 52, Type (0, 1), BuildingBlock: KIFKEQ_clean_linker_1, # of connection points: 2
#     Edge 53, Type (0, 1), BuildingBlock: KIFKEQ_clean_linker_1, # of connection points: 2
#     Edge 54, Type (0, 1), BuildingBlock: KIFKEQ_clean_linker_1, # of connection points: 2
#     Edge 55, Type (0, 1), BuildingBlock: KIFKEQ_clean_linker_1, # of connection points: 2
#     Edge 56, Type (0, 1), BuildingBlock: KIFKEQ_clean_linker_1, # of connection points: 2
#     Edge 57, Type (0, 1), BuildingBlock: KIFKEQ_clean_linker_1, # of connection points: 2
#     Edge 58, Type (0, 1), BuildingBlock: KIFKEQ_clean_linker_1, # of connection points: 2
#     Edge 59, Type (0, 1), BuildingBlock: KIFKEQ_clean_linker_1, # of connection points: 2
#     Edge 60, Type (0, 1), BuildingBlock: KIFKEQ_clean_linker_1, # of connection points: 2
#     Edge 61, Type (0, 1), BuildingBlock: KIFKEQ_clean_linker_1, # of connection points: 2
# Relax obj value: 0.130
# Max RMSD: 0.183
# Mean RMSD: 0.157
data_MOF--net-ocu--node1-KUMBUR_clean_sbu_1--node2-AJUNOK_clean_sbu_0--edge1-KIFKEQ_clean_linker_1
_symmetry_space_group_name_H-M    P1
_symmetry_Int_Tables_number       1
_symmetry_cell_setting            triclinic
loop_
_symmetry_equiv_pos_as_xyz
'x, y, z'
_cell_length_a     44.457084
_cell_length_b     45.119981
_cell_length_c     39.745254
_cell_angle_alpha  104.44056
_cell_angle_beta   88.127761
_cell_angle_gamma 112.28227
loop_
_atom_site_label
_atom_site_type_symbol
_atom_site_fract_x
_atom_site_fract_y
_atom_site_fract_z
_atom_type_partial_charge
Tb0 Tb 0.2319 0.23572 0.21361 0.0
C1 C 0.32648 0.33559 0.34267 0.0
N2 N 0.33507 0.32023 0.31214 0.0
C3 C 0.38054 0.37046 0.3119 0.0
C4 C 0.3443 0.36934 0.35868 0.0
C5 C 0.36216 0.3369 0.29703 0.0
C6 C 0.37144 0.38683 0.3427 0.0
C7 C 0.29033 0.33212 0.38995 0.0
C8 C 0.29988 0.31723 0.35818 0.0
C9 C 0.30771 0.36588 0.40574 0.0
C10 C 0.33462 0.38443 0.39015 0.0
Tb11 Tb 0.30226 0.26584 0.29028 0.0
N12 N 0.28295 0.28485 0.34159 0.0
C13 C 0.26367 0.31255 0.40491 0.0
C14 C 0.25825 0.26525 0.35705 0.0
C15 C 0.24784 0.27887 0.38859 0.0
H16 H 0.37014 0.32422 0.27399 0.0
H17 H 0.22779 0.26331 0.40044 0.0
H18 H 0.16413 0.17865 0.23236 0.0
H19 H 0.30371 0.23506 0.1015 0.0
H20 H 0.24678 0.23921 0.34539 0.0
H21 H 0.25554 0.32303 0.42932 0.0
H22 H 0.28681 0.26035 0.15744 0.0
H23 H 0.40189 0.3836 0.29975 0.0
H24 H 0.30067 0.37782 0.4301 0.0
H25 H 0.34793 0.41039 0.40278 0.0
H26 H 0.13097 0.1195 0.2074 0.0
H27 H 0.38579 0.4128 0.35419 0.0
H28 H 0.2742 0.17547 0.07321 0.0
N29 N 0.19801 0.1815 0.19289 0.0
C30 C 0.20557 0.16548 0.16208 0.0
C31 C 0.15206 0.13208 0.19455 0.0
C32 C 0.18691 0.13182 0.14658 0.0
C33 C 0.17122 0.16554 0.20889 0.0
C34 C 0.16005 0.11507 0.16341 0.0
N35 N 0.24966 0.21541 0.16186 0.0
C36 C 0.27434 0.23436 0.14578 0.0
C37 C 0.24039 0.16759 0.11364 0.0
C38 C 0.23191 0.18311 0.14574 0.0
C39 C 0.26688 0.18646 0.0979 0.0
C40 C 0.28369 0.22008 0.11386 0.0
H41 H 0.14508 0.08919 0.15234 0.0
H42 H 0.18151 0.09018 0.1025 0.0
H43 H 0.22835 0.12149 0.07371 0.0
O44 O 0.22687 0.27253 0.19284 0.0
O45 O 0.26636 0.20962 0.20776 0.0
O46 O 0.31564 0.24485 0.23876 0.0
O47 O 0.18687 0.22623 0.18897 0.0
O48 O 0.27118 0.28522 0.22426 0.0
O49 O 0.31842 0.28337 0.24398 0.0
O50 O 0.30752 0.22975 0.31221 0.0
O51 O 0.2685 0.29267 0.29464 0.0
O52 O 0.21899 0.25632 0.26542 0.0
O53 O 0.34746 0.27584 0.31484 0.0
O54 O 0.26401 0.21588 0.27725 0.0
O55 O 0.21643 0.21833 0.26027 0.0
C56 C 0.2979 0.21809 0.21472 0.0
C57 C 0.17409 0.27366 0.1977 0.0
C58 C 0.14925 0.31291 0.19359 0.0
C59 C 0.13293 0.30711 0.22369 0.0
C60 C 0.15714 0.2682 0.22742 0.0
C61 C 0.13681 0.28489 0.24031 0.0
C62 C 0.16992 0.29594 0.18063 0.0
C63 C 0.3029 0.2938 0.22488 0.0
C64 C 0.19583 0.25591 0.18463 0.0
C65 C 0.19549 0.11608 0.11475 0.0
C66 C 0.22215 0.13391 0.09833 0.0
C67 C 0.23683 0.28385 0.28834 0.0
C68 C 0.36018 0.22838 0.3057 0.0
C69 C 0.38378 0.18761 0.30721 0.0
C70 C 0.40006 0.19409 0.27732 0.0
C71 C 0.37722 0.23459 0.27617 0.0
C72 C 0.36382 0.20503 0.32149 0.0
C73 C 0.39695 0.21754 0.26214 0.0
C74 C 0.23241 0.20711 0.27779 0.0
C75 C 0.33871 0.2463 0.31952 0.0
H76 H 0.11645 0.31919 0.23398 0.0
H77 H 0.15942 0.25076 0.24055 0.0
H78 H 0.12373 0.28034 0.26314 0.0
H79 H 0.18282 0.30015 0.15758 0.0
H80 H 0.41588 0.18148 0.26607 0.0
H81 H 0.37541 0.25284 0.26397 0.0
H82 H 0.35102 0.20023 0.34445 0.0
H83 H 0.41006 0.22266 0.23949 0.0
Tb84 Tb 0.73735 0.26811 0.25203 0.0
C85 C 0.84885 0.23742 0.17123 0.0
N86 N 0.81982 0.21507 0.17711 0.0
C87 C 0.81351 0.18366 0.11759 0.0
C88 C 0.86108 0.23406 0.13793 0.0
C89 C 0.80225 0.18818 0.15102 0.0
C90 C 0.84298 0.20677 0.11096 0.0
C91 C 0.8956 0.28851 0.19332 0.0
C92 C 0.86571 0.26443 0.19855 0.0
C93 C 0.90787 0.28534 0.16016 0.0
C94 C 0.89066 0.2582 0.13253 0.0
Tb95 Tb 0.80335 0.22563 0.23227 0.0
N96 N 0.85251 0.26728 0.23005 0.0
C97 C 0.91235 0.31492 0.22165 0.0
C98 C 0.87004 0.29166 0.25824 0.0
C99 C 0.89976 0.31617 0.25436 0.0
H100 H 0.77989 0.1698 0.15611 0.0
H101 H 0.91321 0.33573 0.27676 0.0
H102 H 0.75796 0.31834 0.33136 0.0
H103 H 0.62757 0.16106 0.19738 0.0
H104 H 0.86211 0.29197 0.28402 0.0
H105 H 0.9354 0.33393 0.21875 0.0
H106 H 0.67869 0.20712 0.19501 0.0
H107 H 0.79949 0.16231 0.09699 0.0
H108 H 0.93071 0.3037 0.15563 0.0
H109 H 0.9004 0.25612 0.10709 0.0
H110 H 0.73638 0.32059 0.38958 0.0
H111 H 0.85155 0.20328 0.08499 0.0
H112 H 0.60436 0.15615 0.25411 0.0
N113 N 0.71879 0.2738 0.30656 0.0
C114 C 0.68961 0.25026 0.31011 0.0
C115 C 0.72307 0.30057 0.36747 0.0
C116 C 0.67633 0.25054 0.3428 0.0
C117 C 0.73542 0.29906 0.33453 0.0
C118 C 0.69348 0.27612 0.37168 0.0
N119 N 0.68786 0.2254 0.24996 0.0
C120 C 0.67057 0.20396 0.22003 0.0
C121 C 0.64371 0.19988 0.28355 0.0
C122 C 0.67381 0.22504 0.28092 0.0
C123 C 0.62756 0.17588 0.25325 0.0
C124 C 0.64073 0.17838 0.22124 0.0
H125 H 0.6841 0.27723 0.39727 0.0
H126 H 0.6362 0.22476 0.37063 0.0
H127 H 0.60748 0.18055 0.31869 0.0
O128 O 0.71116 0.27905 0.21684 0.0
O129 O 0.74093 0.23622 0.28416 0.0
O130 O 0.75543 0.19662 0.24717 0.0
O131 O 0.72524 0.30994 0.26887 0.0
O132 O 0.73707 0.23734 0.19924 0.0
O133 O 0.75499 0.19698 0.20575 0.0
O134 O 0.82915 0.2168 0.26973 0.0
O135 O 0.80144 0.25859 0.2007 0.0
O136 O 0.78501 0.2974 0.23671 0.0
O137 O 0.81682 0.18454 0.21816 0.0
O138 O 0.80498 0.25762 0.28468 0.0
O139 O 0.78545 0.29726 0.27903 0.0
C140 C 0.74074 0.20618 0.27447 0.0
C141 C 0.72533 0.33622 0.22446 0.0
C142 C 0.71643 0.36881 0.18786 0.0
C143 C 0.7487 0.39176 0.19698 0.0
C144 C 0.75731 0.35962 0.23343 0.0
C145 C 0.76894 0.38709 0.21954 0.0
C146 C 0.70504 0.34086 0.20163 0.0
C147 C 0.73911 0.2081 0.18784 0.0
C148 C 0.713 0.30671 0.23834 0.0
C149 C 0.64673 0.2251 0.34569 0.0
C150 C 0.63045 0.19984 0.31613 0.0
C151 C 0.80046 0.2882 0.20992 0.0
C152 C 0.81717 0.16018 0.26395 0.0
C153 C 0.8286 0.12669 0.29774 0.0
C154 C 0.79582 0.10442 0.29103 0.0
C155 C 0.78472 0.13753 0.25746 0.0
C156 C 0.83892 0.15484 0.28427 0.0
C157 C 0.77409 0.10997 0.27119 0.0
C158 C 0.80217 0.28649 0.29637 0.0
C159 C 0.82871 0.18917 0.24928 0.0
H160 H 0.75814 0.41378 0.18734 0.0
H161 H 0.77323 0.35671 0.25127 0.0
H162 H 0.79364 0.40502 0.22657 0.0
H163 H 0.68046 0.32258 0.19453 0.0
H164 H 0.78705 0.08222 0.30034 0.0
H165 H 0.76775 0.14097 0.24142 0.0
H166 H 0.86386 0.17265 0.28949 0.0
H167 H 0.74902 0.09255 0.26599 0.0
Tb168 Tb 0.76838 0.72168 0.27984 0.0
C169 C 0.8371 0.79337 0.16759 0.0
N170 N 0.83026 0.80638 0.20025 0.0
C171 C 0.88456 0.84813 0.21028 0.0
C172 C 0.86834 0.80656 0.15544 0.0
C173 C 0.85302 0.83457 0.22087 0.0
C174 C 0.89242 0.83376 0.17763 0.0
C175 C 0.81733 0.75526 0.11065 0.0
C176 C 0.81209 0.76804 0.14544 0.0
C177 C 0.8487 0.76742 0.09882 0.0
C178 C 0.87417 0.79295 0.1212 0.0
Tb179 Tb 0.77784 0.78096 0.21436 0.0
N180 N 0.78219 0.75654 0.15794 0.0
C181 C 0.79071 0.73116 0.08869 0.0
C182 C 0.75578 0.73449 0.13624 0.0
C183 C 0.75972 0.72105 0.10145 0.0
H184 H 0.847 0.84734 0.24525 0.0
H185 H 0.73885 0.70309 0.08445 0.0
H186 H 0.69332 0.66613 0.25561 0.0
H187 H 0.82469 0.80595 0.40405 0.0
H188 H 0.73177 0.72731 0.1459 0.0
H189 H 0.79369 0.72076 0.06172 0.0
H190 H 0.82423 0.77644 0.34306 0.0
H191 H 0.90262 0.87007 0.22704 0.0
H192 H 0.85335 0.75773 0.07224 0.0
H193 H 0.89808 0.80262 0.1115 0.0
H194 H 0.64077 0.64802 0.28222 0.0
H195 H 0.91674 0.84462 0.16932 0.0
H196 H 0.77359 0.79331 0.43439 0.0
N197 N 0.71836 0.70325 0.30121 0.0
C198 C 0.71681 0.71697 0.33547 0.0
C199 C 0.66191 0.66766 0.29739 0.0
C200 C 0.68732 0.7072 0.35182 0.0
C201 C 0.6917 0.67831 0.28224 0.0
C202 C 0.65964 0.68229 0.33227 0.0
N203 N 0.77282 0.75017 0.33701 0.0
C204 C 0.80146 0.77213 0.35502 0.0
C205 C 0.74414 0.7569 0.38921 0.0
C206 C 0.74485 0.74156 0.35382 0.0
C207 C 0.77309 0.78093 0.40716 0.0
C208 C 0.80194 0.78828 0.39007 0.0
H209 H 0.63651 0.67402 0.34389 0.0
H210 H 0.66395 0.71559 0.40001 0.0
H211 H 0.7137 0.75907 0.43277 0.0
O212 O 0.79332 0.70519 0.31021 0.0
O213 O 0.73742 0.75167 0.28656 0.0
O214 O 0.76929 0.79821 0.26924 0.0
O215 O 0.75884 0.67043 0.2684 0.0
O216 O 0.81615 0.76124 0.27987 0.0
O217 O 0.80727 0.80374 0.26427 0.0
O218 O 0.73624 0.78681 0.19783 0.0
O219 O 0.78835 0.73519 0.1945 0.0
O220 O 0.80781 0.7307 0.2445 0.0
O221 O 0.7835 0.82543 0.20201 0.0
O222 O 0.73152 0.74253 0.21943 0.0
O223 O 0.741 0.69839 0.22898 0.0
C224 C 0.74469 0.78287 0.28613 0.0
C225 C 0.77049 0.65022 0.31467 0.0
C226 C 0.78752 0.61725 0.34473 0.0
C227 C 0.75695 0.60772 0.35896 0.0
C228 C 0.74022 0.64041 0.32913 0.0
C229 C 0.7335 0.61911 0.35105 0.0
C230 C 0.79394 0.63841 0.32233 0.0
C231 C 0.8248 0.79263 0.28005 0.0
C232 C 0.77941 0.67431 0.29333 0.0
C233 C 0.68641 0.72267 0.38698 0.0
C234 C 0.71474 0.74749 0.40561 0.0
C235 C 0.80474 0.72305 0.21045 0.0
C236 C 0.74508 0.82147 0.15957 0.0
C237 C 0.71306 0.83963 0.12619 0.0
C238 C 0.73021 0.83259 0.09688 0.0
C239 C 0.76207 0.81512 0.13005 0.0
C240 C 0.72069 0.83392 0.15759 0.0
C241 C 0.75451 0.82047 0.09889 0.0
C242 C 0.72482 0.71073 0.21308 0.0
C243 C 0.75285 0.81578 0.19267 0.0
H244 H 0.7511 0.59128 0.37606 0.0
H245 H 0.72197 0.64938 0.3238 0.0
H246 H 0.71008 0.6116 0.36219 0.0
H247 H 0.81758 0.64653 0.31163 0.0
H248 H 0.72533 0.83709 0.0725 0.0
H249 H 0.7814 0.80637 0.13109 0.0
H250 H 0.70758 0.83894 0.18039 0.0
H251 H 0.76776 0.8155 0.07625 0.0
Tb252 Tb 0.23237 0.77423 0.25295 0.0
C253 C 0.28419 0.68162 0.29583 0.0
N254 N 0.30277 0.71247 0.29259 0.0
C255 C 0.33059 0.72562 0.34826 0.0
C256 C 0.28749 0.67186 0.32607 0.0
C257 C 0.32612 0.73433 0.31795 0.0
C258 C 0.31106 0.69432 0.35245 0.0
C259 C 0.24049 0.62853 0.27205 0.0
C260 C 0.26069 0.66051 0.26933 0.0
C261 C 0.24342 0.61872 0.30228 0.0
C262 C 0.26685 0.64034 0.32923 0.0
Tb263 Tb 0.29235 0.72484 0.24314 0.0
N264 N 0.25782 0.67128 0.24091 0.0
C265 C 0.21825 0.6072 0.24412 0.0
C266 C 0.23838 0.64932 0.21237 0.0
C267 C 0.21772 0.61741 0.21386 0.0
H268 H 0.3413 0.75845 0.31473 0.0
H269 H 0.20184 0.60048 0.19139 0.0
H270 H 0.16305 0.72866 0.20545 0.0
H271 H 0.32236 0.89633 0.25744 0.0
H272 H 0.23934 0.65549 0.18782 0.0
H273 H 0.20229 0.58242 0.24515 0.0
H274 H 0.29698 0.84532 0.27717 0.0
H275 H 0.34898 0.7431 0.36843 0.0
H276 H 0.22785 0.59438 0.30497 0.0
H277 H 0.26881 0.63244 0.35238 0.0
H278 H 0.13354 0.731 0.15509 0.0
H279 H 0.31436 0.68777 0.37611 0.0
H280 H 0.2966 0.90376 0.20757 0.0
N281 N 0.20165 0.77504 0.20863 0.0
C282 C 0.21358 0.80249 0.1963 0.0
C283 C 0.15612 0.75122 0.16633 0.0
C284 C 0.19743 0.80524 0.16802 0.0
C285 C 0.17307 0.74972 0.19449 0.0
C286 C 0.16842 0.77905 0.15291 0.0
N287 N 0.25774 0.82334 0.2382 0.0
C288 C 0.28558 0.84799 0.25527 0.0
C289 C 0.25599 0.85651 0.19974 0.0
C290 C 0.24239 0.82774 0.2119 0.0
C291 C 0.28528 0.88128 0.21617 0.0
C292 C 0.29996 0.87711 0.24426 0.0
H293 H 0.15527 0.78015 0.13107 0.0
H294 H 0.19887 0.83642 0.13388 0.0
H295 H 0.25018 0.88131 0.16166 0.0
O296 O 0.22979 0.80447 0.3015 0.0
O297 O 0.26429 0.77903 0.20962 0.0
O298 O 0.30945 0.77043 0.22549 0.0
O299 O 0.18675 0.77572 0.26662 0.0
O300 O 0.27148 0.79094 0.29408 0.0
O301 O 0.31406 0.77726 0.26949 0.0
O302 O 0.30852 0.69672 0.2017 0.0
O303 O 0.26396 0.72898 0.28935 0.0
O304 O 0.21692 0.72662 0.26569 0.0
O305 O 0.34115 0.72929 0.2458 0.0
O306 O 0.25884 0.71446 0.1984 0.0
O307 O 0.21477 0.72202 0.22516 0.0
C308 C 0.29473 0.78197 0.20685 0.0
C309 C 0.18091 0.78277 0.32726 0.0
C310 C 0.16636 0.79753 0.38718 0.0
C311 C 0.14906 0.76365 0.38503 0.0
C312 C 0.16361 0.7491 0.32553 0.0
C313 C 0.14802 0.73965 0.35447 0.0
C314 C 0.18287 0.80657 0.35822 0.0
C315 C 0.30222 0.79425 0.29426 0.0
C316 C 0.19818 0.79407 0.29783 0.0
C317 C 0.21085 0.83385 0.15567 0.0
C318 C 0.24007 0.85943 0.1715 0.0
C319 C 0.23236 0.72051 0.28892 0.0
C320 C 0.36117 0.72846 0.18979 0.0
C321 C 0.38007 0.72506 0.13118 0.0
C322 C 0.39901 0.75919 0.1408 0.0
C323 C 0.38005 0.76272 0.199 0.0
C324 C 0.36141 0.70991 0.1559 0.0
C325 C 0.39886 0.7779 0.17458 0.0
C326 C 0.22799 0.71053 0.19753 0.0
C327 C 0.33876 0.71213 0.2138 0.0
H328 H 0.13572 0.75564 0.40653 0.0
H329 H 0.16219 0.7302 0.30197 0.0
H330 H 0.13467 0.71365 0.35304 0.0
H331 H 0.19743 0.83233 0.3595 0.0
H332 H 0.41382 0.77131 0.12223 0.0
H333 H 0.37995 0.77787 0.22483 0.0
H334 H 0.34708 0.68346 0.14884 0.0
H335 H 0.41326 0.80427 0.18181 0.0
Tb336 Tb 0.23564 0.77091 0.75191 0.0
C337 C 0.36224 0.76021 0.69311 0.0
N338 N 0.33168 0.73655 0.68796 0.0
C339 C 0.33794 0.72189 0.62662 0.0
C340 C 0.38147 0.76684 0.66497 0.0
C341 C 0.31972 0.71646 0.65549 0.0
C342 C 0.36876 0.74754 0.63131 0.0
C343 C 0.40661 0.80053 0.73384 0.0
C344 C 0.37446 0.77675 0.72692 0.0
C345 C 0.42545 0.80871 0.70593 0.0
C346 C 0.4129 0.79183 0.67151 0.0
Tb347 Tb 0.30337 0.72993 0.73622 0.0
N348 N 0.35568 0.76745 0.753 0.0
C349 C 0.41927 0.81419 0.7685 0.0
C350 C 0.36914 0.77814 0.7864 0.0
C351 C 0.40066 0.80239 0.79484 0.0
H352 H 0.29589 0.6967 0.65187 0.0
H353 H 0.4108 0.81146 0.82155 0.0
H354 H 0.26157 0.82568 0.8301 0.0
H355 H 0.1184 0.67323 0.70853 0.0
H356 H 0.35591 0.76755 0.80653 0.0
H357 H 0.44386 0.83259 0.775 0.0
H358 H 0.17269 0.71405 0.7016 0.0
H359 H 0.32817 0.7064 0.60081 0.0
H360 H 0.45009 0.82721 0.71068 0.0
H361 H 0.428 0.79766 0.65024 0.0
H362 H 0.2479 0.82812 0.89083 0.0
H363 H 0.38277 0.75176 0.60894 0.0
H364 H 0.10046 0.66981 0.7676 0.0
N365 N 0.22404 0.77821 0.8095 0.0
C366 C 0.19571 0.75543 0.81629 0.0
C367 C 0.23334 0.80712 0.87018 0.0
C368 C 0.18591 0.75666 0.85054 0.0
C369 C 0.24161 0.80514 0.83565 0.0
C370 C 0.20572 0.78239 0.87777 0.0
N371 N 0.18553 0.73232 0.75596 0.0
C372 C 0.1651 0.71236 0.72735 0.0
C373 C 0.14474 0.7094 0.79383 0.0
C374 C 0.17538 0.73214 0.7885 0.0
C375 C 0.12426 0.68764 0.76465 0.0
C376 C 0.13433 0.68944 0.73125 0.0
H377 H 0.19911 0.78425 0.90447 0.0
H378 H 0.14831 0.73335 0.88246 0.0
H379 H 0.11221 0.69192 0.83271 0.0
O380 O 0.21461 0.78312 0.7132 0.0
O381 O 0.22521 0.71991 0.75489 0.0
O382 O 0.27259 0.72437 0.77975 0.0
O383 O 0.21879 0.80961 0.76682 0.0
O384 O 0.23679 0.74298 0.69856 0.0
O385 O 0.25782 0.70371 0.70261 0.0
O386 O 0.33318 0.70647 0.74805 0.0
O387 O 0.30077 0.76152 0.70327 0.0
O388 O 0.28453 0.80027 0.73944 0.0
O389 O 0.28704 0.67816 0.71912 0.0
O390 O 0.30149 0.76004 0.78875 0.0
O391 O 0.28332 0.7998 0.781 0.0
C392 C 0.2408 0.71153 0.77592 0.0
C393 C 0.17241 0.80132 0.73279 0.0
C394 C 0.1295 0.80871 0.70302 0.0
C395 C 0.10773 0.79596 0.7272 0.0
C396 C 0.15028 0.78896 0.75674 0.0
C397 C 0.11809 0.78606 0.75372 0.0
C398 C 0.16187 0.81099 0.7059 0.0
C399 C 0.23964 0.71417 0.68661 0.0
C400 C 0.20657 0.8047 0.73575 0.0
C401 C 0.1561 0.73301 0.85629 0.0
C402 C 0.13549 0.70949 0.82797 0.0
C403 C 0.30016 0.7913 0.7127 0.0
C404 C 0.30171 0.65528 0.76041 0.0
C405 C 0.3177 0.63341 0.80441 0.0
C406 C 0.28455 0.61459 0.80683 0.0
C407 C 0.26882 0.63624 0.76351 0.0
C408 C 0.32599 0.65378 0.78103 0.0
C409 C 0.2604 0.61618 0.78665 0.0
C410 C 0.30068 0.78988 0.79859 0.0
C411 C 0.31085 0.67706 0.73625 0.0
H412 H 0.08287 0.79445 0.72629 0.0
H413 H 0.15787 0.78188 0.77804 0.0
H414 H 0.10122 0.7766 0.77236 0.0
H415 H 0.17896 0.82035 0.68735 0.0
H416 H 0.27715 0.59808 0.82385 0.0
H417 H 0.24947 0.63687 0.74818 0.0
H418 H 0.35129 0.66883 0.77907 0.0
H419 H 0.23501 0.60163 0.78882 0.0
Tb420 Tb 0.25283 0.21482 0.78166 0.0
C421 C 0.33486 0.31012 0.68186 0.0
N422 N 0.32041 0.317 0.71182 0.0
C423 C 0.3631 0.37091 0.72964 0.0
C424 C 0.36476 0.33309 0.6751 0.0
C425 C 0.33324 0.34741 0.73499 0.0
C426 C 0.37923 0.36349 0.69987 0.0
C427 C 0.33024 0.27502 0.6235 0.0
C428 C 0.3179 0.2814 0.65645 0.0
C429 C 0.36109 0.29672 0.61742 0.0
C430 C 0.37834 0.32568 0.6432 0.0
Tb431 Tb 0.27256 0.27635 0.71784 0.0
N432 N 0.28792 0.26133 0.66305 0.0
C433 C 0.31047 0.24805 0.59717 0.0
C434 C 0.26749 0.23675 0.63675 0.0
C435 C 0.27868 0.22929 0.60361 0.0
H436 H 0.3208 0.35318 0.75802 0.0
H437 H 0.26281 0.20914 0.58308 0.0
H438 H 0.1794 0.16155 0.74607 0.0
H439 H 0.29153 0.31022 0.90334 0.0
H440 H 0.24295 0.22247 0.6417 0.0
H441 H 0.31901 0.24236 0.57143 0.0
H442 H 0.29914 0.27987 0.84559 0.0
H443 H 0.37365 0.39468 0.74846 0.0
H444 H 0.37121 0.29203 0.59241 0.0
H445 H 0.4015 0.34284 0.63765 0.0
H446 H 0.12287 0.14539 0.76316 0.0
H447 H 0.40222 0.38183 0.69565 0.0
H448 H 0.23685 0.29475 0.92623 0.0
N449 N 0.19935 0.1984 0.79343 0.0
C450 C 0.19341 0.21284 0.82593 0.0
C451 C 0.14246 0.16459 0.78095 0.0
C452 C 0.16142 0.2042 0.83687 0.0
C453 C 0.17455 0.17416 0.77113 0.0
C454 C 0.13583 0.17971 0.81391 0.0
N455 N 0.24974 0.24651 0.83546 0.0
C456 C 0.27539 0.27226 0.85509 0.0
C457 C 0.21378 0.25483 0.8805 0.0
C458 C 0.21939 0.23774 0.84758 0.0
C459 C 0.24016 0.28094 0.90083 0.0
C460 C 0.27104 0.28977 0.88798 0.0
H461 H 0.11091 0.17235 0.82136 0.0
H462 H 0.1315 0.2143 0.87885 0.0
H463 H 0.17729 0.25872 0.91696 0.0
O464 O 0.27407 0.19957 0.81768 0.0
O465 O 0.22739 0.24838 0.77971 0.0
O466 O 0.26748 0.29551 0.77297 0.0
O467 O 0.23474 0.16444 0.78124 0.0
O468 O 0.30319 0.24965 0.7869 0.0
O469 O 0.3075 0.29364 0.76322 0.0
O470 O 0.22725 0.28093 0.71399 0.0
O471 O 0.28831 0.23436 0.69836 0.0
O472 O 0.29049 0.2119 0.74487 0.0
O473 O 0.26925 0.3114 0.69332 0.0
O474 O 0.22724 0.23276 0.71228 0.0
O475 O 0.23449 0.19017 0.72792 0.0
C476 C 0.24072 0.281 0.78731 0.0
C477 C 0.27773 0.14801 0.79024 0.0
C478 C 0.31804 0.12553 0.8002 0.0
C479 C 0.31742 0.11271 0.76408 0.0
C480 C 0.27764 0.13462 0.75418 0.0
C481 C 0.29717 0.11699 0.74135 0.0
C482 C 0.29784 0.14301 0.81334 0.0
C483 C 0.31979 0.27827 0.77984 0.0
C484 C 0.25799 0.1683 0.80297 0.0
C485 C 0.15592 0.22062 0.86999 0.0
C486 C 0.18201 0.24589 0.89172 0.0
C487 C 0.29879 0.2169 0.71383 0.0
C488 C 0.23192 0.33534 0.71557 0.0
C489 C 0.20519 0.37322 0.71244 0.0
C490 C 0.22137 0.39368 0.74471 0.0
C491 C 0.2484 0.35673 0.74712 0.0
C492 C 0.21021 0.34358 0.69823 0.0
C493 C 0.24279 0.38546 0.76183 0.0
C494 C 0.22284 0.20142 0.70615 0.0
C495 C 0.23908 0.30569 0.69977 0.0
H496 H 0.33258 0.09912 0.75343 0.0
H497 H 0.26283 0.13816 0.73563 0.0
H498 H 0.29695 0.10699 0.71357 0.0
H499 H 0.29837 0.15327 0.84114 0.0
H500 H 0.21757 0.41623 0.75668 0.0
H501 H 0.2659 0.35134 0.76016 0.0
H502 H 0.19818 0.3276 0.67328 0.0
H503 H 0.25542 0.40165 0.78641 0.0
Tb504 Tb 0.74809 0.274 0.75057 0.0
C505 C 0.81702 0.18964 0.80019 0.0
N506 N 0.83108 0.21602 0.78645 0.0
C507 C 0.87718 0.23741 0.8277 0.0
C508 C 0.8323 0.18633 0.82874 0.0
C509 C 0.86099 0.23955 0.79934 0.0
C510 C 0.8627 0.21076 0.84259 0.0
C511 C 0.77117 0.1385 0.79936 0.0
C512 C 0.78694 0.16608 0.78573 0.0
C513 C 0.78619 0.13507 0.82792 0.0
C514 C 0.81669 0.15892 0.84258 0.0
Tb515 Tb 0.8015 0.21824 0.74203 0.0
N516 N 0.77261 0.17103 0.75905 0.0
C517 C 0.7407 0.11541 0.78402 0.0
C518 C 0.74355 0.14788 0.74304 0.0
C519 C 0.727 0.11998 0.75553 0.0
H520 H 0.87262 0.25963 0.78726 0.0
H521 H 0.70366 0.10201 0.74318 0.0
H522 H 0.68858 0.23875 0.68844 0.0
H523 H 0.85205 0.3915 0.77772 0.0
H524 H 0.73285 0.15084 0.72085 0.0
H525 H 0.7277 0.09391 0.79379 0.0
H526 H 0.81364 0.34113 0.79121 0.0
H527 H 0.90084 0.25623 0.83794 0.0
H528 H 0.77441 0.11411 0.8389 0.0
H529 H 0.82798 0.15598 0.86462 0.0
H530 H 0.674 0.24975 0.63465 0.0
H531 H 0.87526 0.20917 0.86459 0.0
H532 H 0.84305 0.4054 0.72352 0.0
N533 N 0.73142 0.28258 0.70153 0.0
C534 C 0.75042 0.3111 0.69327 0.0
C535 C 0.69565 0.26714 0.65082 0.0
C536 C 0.74306 0.31848 0.66288 0.0
C537 C 0.70411 0.26079 0.68111 0.0
C538 C 0.71526 0.29606 0.64158 0.0
N539 N 0.78496 0.32352 0.74316 0.0
C540 C 0.81027 0.34531 0.76648 0.0
C541 C 0.799 0.36159 0.70646 0.0
C542 C 0.77816 0.33218 0.71468 0.0
C543 C 0.82639 0.38262 0.72894 0.0
C544 C 0.83171 0.37469 0.75938 0.0
H545 H 0.70877 0.30081 0.61798 0.0
H546 H 0.75877 0.35364 0.63112 0.0
H547 H 0.80771 0.39144 0.66932 0.0
O548 O 0.74148 0.30916 0.79255 0.0
O549 O 0.77447 0.26619 0.70358 0.0
O550 O 0.82014 0.26448 0.72594 0.0
O551 O 0.70157 0.27602 0.75535 0.0
O552 O 0.78233 0.28383 0.79438 0.0
O553 O 0.82379 0.27086 0.76741 0.0
O554 O 0.80061 0.18469 0.6946 0.0
O555 O 0.77068 0.21839 0.78641 0.0
O556 O 0.72742 0.22948 0.76979 0.0
O557 O 0.84514 0.21214 0.72749 0.0
O558 O 0.76245 0.20361 0.70165 0.0
O559 O 0.7221 0.2215 0.72577 0.0
C560 C 0.80531 0.27071 0.70221 0.0
C561 C 0.69066 0.28779 0.81498 0.0
C562 C 0.67966 0.30375 0.87617 0.0
C563 C 0.65495 0.27195 0.87191 0.0
C564 C 0.66614 0.25619 0.81144 0.0
C565 C 0.64863 0.24831 0.83992 0.0
C566 C 0.69786 0.3109 0.8475 0.0
C567 C 0.81225 0.28486 0.79491 0.0
C568 C 0.7101 0.29702 0.78575 0.0
C569 C 0.76391 0.3476 0.65446 0.0
C570 C 0.79181 0.3691 0.67618 0.0
C571 C 0.7409 0.21765 0.78934 0.0
C572 C 0.84843 0.20364 0.66635 0.0
C573 C 0.85498 0.18863 0.60384 0.0
C574 C 0.87786 0.22113 0.60691 0.0
C575 C 0.87115 0.23592 0.66881 0.0
C576 C 0.83979 0.18063 0.63382 0.0
C577 C 0.8855 0.24463 0.6391 0.0
C578 C 0.73247 0.20259 0.70142 0.0
C579 C 0.83212 0.19354 0.69679 0.0
H580 H 0.63971 0.26543 0.89281 0.0
H581 H 0.66055 0.23755 0.78683 0.0
H582 H 0.62964 0.22398 0.83702 0.0
H583 H 0.7178 0.3346 0.85014 0.0
H584 H 0.89068 0.22832 0.58481 0.0
H585 H 0.8777 0.25442 0.69355 0.0
H586 H 0.82115 0.15631 0.63218 0.0
H587 H 0.90309 0.26952 0.64113 0.0
Tb588 Tb 0.731 0.73531 0.70482 0.0
C589 C 0.83512 0.83498 0.83098 0.0
N590 N 0.84055 0.81814 0.79951 0.0
C591 C 0.88849 0.86526 0.79644 0.0
C592 C 0.85612 0.8679 0.84637 0.0
C593 C 0.86708 0.83253 0.78232 0.0
C594 C 0.88291 0.8831 0.82851 0.0
C595 C 0.80276 0.83498 0.88135 0.0
C596 C 0.80876 0.81882 0.8482 0.0
C597 C 0.82332 0.86798 0.8966 0.0
C598 C 0.84991 0.88442 0.87913 0.0
Tb599 Tb 0.80328 0.76547 0.77896 0.0
N600 N 0.78904 0.78708 0.83236 0.0
C601 C 0.77653 0.81731 0.89829 0.0
C602 C 0.76454 0.7692 0.84951 0.0
C603 C 0.75757 0.78416 0.88245 0.0
H604 H 0.87207 0.81865 0.75797 0.0
H605 H 0.73772 0.77006 0.89569 0.0
H606 H 0.66721 0.67247 0.72105 0.0
H607 H 0.80505 0.74565 0.59457 0.0
H608 H 0.75032 0.74358 0.83784 0.0
H609 H 0.7711 0.82882 0.92382 0.0
H610 H 0.78563 0.76638 0.65076 0.0
H611 H 0.90941 0.87663 0.7827 0.0
H612 H 0.81904 0.8809 0.92201 0.0
H613 H 0.86571 0.90977 0.89135 0.0
H614 H 0.63806 0.61309 0.6933 0.0
H615 H 0.89963 0.90839 0.83944 0.0
H616 H 0.77916 0.68637 0.56325 0.0
N617 N 0.70105 0.68029 0.68185 0.0
C618 C 0.70973 0.66687 0.65034 0.0
C619 C 0.65837 0.62788 0.6811 0.0
C620 C 0.69331 0.63313 0.63323 0.0
C621 C 0.67534 0.66149 0.69709 0.0
C622 C 0.66749 0.61358 0.64914 0.0
N623 N 0.75123 0.71933 0.65299 0.0
C624 C 0.77513 0.74049 0.6382 0.0
C625 C 0.74511 0.67411 0.60264 0.0
C626 C 0.73533 0.6871 0.6352 0.0
C627 C 0.77089 0.69537 0.58823 0.0
C628 C 0.78571 0.72879 0.60593 0.0
H629 H 0.65424 0.58754 0.63682 0.0
H630 H 0.69084 0.59412 0.58736 0.0
H631 H 0.73617 0.62999 0.5606 0.0
O632 O 0.72264 0.76845 0.68058 0.0
O633 O 0.76472 0.70836 0.7002 0.0
O634 O 0.81418 0.74731 0.72567 0.0
O635 O 0.68394 0.72301 0.6834 0.0
O636 O 0.76764 0.78625 0.71694 0.0
O637 O 0.81604 0.78444 0.73271 0.0
O638 O 0.80673 0.72492 0.79309 0.0
O639 O 0.76873 0.79155 0.78851 0.0
O640 O 0.71929 0.75798 0.75656 0.0
O641 O 0.84845 0.77049 0.80016 0.0
O642 O 0.76312 0.71668 0.76983 0.0
O643 O 0.71535 0.71818 0.75156 0.0
C644 C 0.79667 0.71823 0.70517 0.0
C645 C 0.67028 0.76973 0.69 0.0
C646 C 0.64678 0.81032 0.68732 0.0
C647 C 0.63109 0.80497 0.71785 0.0
C648 C 0.65397 0.76475 0.72023 0.0
C649 C 0.63461 0.78231 0.73402 0.0
C650 C 0.66645 0.79246 0.67344 0.0
C651 C 0.79952 0.79714 0.71788 0.0
C652 C 0.69133 0.75138 0.67614 0.0
C653 C 0.70312 0.62002 0.60086 0.0
C654 C 0.72894 0.64045 0.5856 0.0
C655 C 0.73737 0.78398 0.78125 0.0
C656 C 0.84588 0.73651 0.83811 0.0
C657 C 0.86707 0.70774 0.8701 0.0
C658 C 0.86 0.72591 0.9014 0.0
C659 C 0.83935 0.75446 0.86971 0.0
C660 C 0.85995 0.71332 0.83842 0.0
C661 C 0.84637 0.74912 0.90113 0.0
C662 C 0.73161 0.70882 0.77106 0.0
C663 C 0.83714 0.74069 0.80458 0.0
H664 H 0.61536 0.81776 0.72885 0.0
H665 H 0.65606 0.74709 0.73316 0.0
H666 H 0.62204 0.77813 0.75722 0.0
H667 H 0.67888 0.79637 0.65005 0.0
H668 H 0.8655 0.72256 0.92621 0.0
H669 H 0.8288 0.77251 0.87015 0.0
H670 H 0.86482 0.69926 0.81399 0.0
H671 H 0.84124 0.76307 0.92543 0.0
Cd672 Cd 0.96856 0.9728 0.52486 0.0
Cd673 Cd 0.06254 0.02652 0.47009 0.0
C674 C 1.00825 0.95541 0.57635 0.0
N675 N 0.99858 0.94583 0.54194 0.0
C676 C 0.02149 0.90449 0.53195 0.0
C677 C 0.03214 0.91414 0.56738 0.0
C678 C 0.02509 0.93987 0.58967 0.0
C679 C 1.00441 0.92058 0.51977 0.0
H680 H 1.00248 0.97491 0.59359 0.0
H681 H 0.99559 0.91267 0.49274 0.0
C682 C 1.00966 0.95546 0.44612 0.0
C683 C 1.00468 0.02049 0.41849 0.0
C684 C 0.98348 0.02996 0.40269 0.0
C685 C 0.98186 0.06103 0.41685 0.0
C686 C 1.00143 0.08165 0.44727 0.0
C687 C 0.02201 0.07095 0.46255 0.0
N688 N 0.02327 0.04084 0.44798 0.0
H689 H 1.00692 0.99729 0.4064 0.0
H690 H 0.03745 0.0869 0.48566 0.0
C691 C 0.12437 0.01456 0.49074 0.0
N692 N 0.09471 0.01173 0.50269 0.0
C693 C 0.0999 0.98028 0.54085 0.0
C694 C 0.12879 0.97951 0.52603 0.0
C695 C 0.1419 -0.00144 0.50204 0.0
C696 C 0.08282 0.9961 0.52826 0.0
H697 H 0.13323 0.02691 0.47026 0.0
H698 H 0.0591 0.99377 0.53716 0.0
C699 C 0.0282 0.03796 0.55192 0.0
C700 C 0.91396 0.93446 0.55488 0.0
N701 N 0.94546 0.99765 0.49404 0.0
C702 C 0.95628 0.03109 0.50588 0.0
C703 C 0.94104 0.04866 0.49402 0.0
C704 C 0.91412 0.03182 0.4696 0.0
C705 C 0.90425 0.99732 0.45644 0.0
C706 C 0.92033 0.98056 0.46924 0.0
C707 C 0.1115 0.0687 0.43765 0.0
O708 O 1.00376 0.96951 0.47596 0.0
O709 O 0.03636 0.97028 0.43394 0.0
O710 O 0.0284 0.02656 0.51946 0.0
O711 O 1.00303 0.02385 0.56676 0.0
O712 O 0.92188 0.922 0.52517 0.0
O713 O 0.92991 0.96506 0.56867 0.0
O714 O 0.10297 0.08043 0.46731 0.0
O715 O 0.0982 0.03762 0.42457 0.0
H716 H 0.97562 0.04416 0.52613 0.0
H717 H 0.91162 0.95386 0.46074 0.0
H718 H 0.02648 0.88491 0.51375 0.0
H719 H 0.03206 0.94766 0.61729 0.0
H720 H 0.9693 0.01353 0.37895 0.0
H721 H 1.00065 0.10566 0.4593 0.0
H722 H 0.08938 0.96662 0.55996 0.0
H723 H 0.16385 -0.00144 0.48943 0.0
H724 H 0.94908 0.07502 0.50581 0.0
H725 H 0.88346 0.98333 0.43777 0.0
Cd726 Cd 0.47953 0.99292 0.04851 0.0
Cd727 Cd 0.55224 0.00737 0.94513 0.0
C728 C 0.5353 0.98811 0.09774 0.0
N729 N 0.51742 0.97406 0.06663 0.0
C730 C 0.53962 0.93207 0.05316 0.0
C731 C 0.55821 0.94572 0.08521 0.0
C732 C 0.55608 0.97436 0.10751 0.0
C733 C 0.51933 0.94663 0.04442 0.0
H734 H 0.53308 0.00969 0.11518 0.0
H735 H 0.5047 0.93579 0.01997 0.0
C736 C 0.48031 0.95527 0.95627 0.0
C737 C 0.49353 0.00755 0.89599 0.0
C738 C 0.47097 0.01903 0.88573 0.0
C739 C 0.46842 0.04816 0.90632 0.0
C740 C 0.48856 0.06472 0.93723 0.0
C741 C 0.51046 0.05216 0.94671 0.0
N742 N 0.51265 0.02412 0.92613 0.0
H743 H 0.49593 0.98555 0.87976 0.0
H744 H 0.52602 0.06499 0.97045 0.0
C745 C 0.56321 0.93604 0.91195 0.0
N746 N 0.57942 0.96902 0.92686 0.0
C747 C 0.63072 0.9628 0.917 0.0
C748 C 0.61478 0.92875 0.90097 0.0
C749 C 0.58041 0.91546 0.899 0.0
C750 C 0.61263 0.98239 0.92975 0.0
H751 H 0.53689 0.92562 0.90932 0.0
H752 H 0.62525 0.00859 0.94151 0.0
C753 C 0.55224 0.04427 0.03794 0.0
C754 C 0.43353 0.9428 0.0751 0.0
N755 N 0.45347 0.03202 0.06618 0.0
C756 C 0.47015 0.06489 0.08124 0.0
C757 C 0.45342 0.08582 0.09451 0.0
C758 C 0.41908 0.07297 0.09273 0.0
C759 C 0.40263 0.03908 0.07639 0.0
C760 C 0.42027 0.01912 0.0633 0.0
C761 C 0.59804 0.05898 0.92039 0.0
O762 O 0.48829 0.97535 0.98625 0.0
O763 O 0.50071 0.95913 0.93291 0.0
O764 O 0.54393 0.02471 0.00769 0.0
O765 O 0.53191 0.04024 0.06138 0.0
O766 O 0.42975 0.94298 0.0435 0.0
O767 O 0.45767 0.96613 0.09371 0.0
O768 O 0.60154 0.05782 0.95167 0.0
O769 O 0.57408 0.03601 0.90115 0.0
H770 H 0.49647 0.07487 0.08387 0.0
H771 H 0.40731 0.99299 0.05146 0.0
H772 H 0.54079 0.91035 0.03486 0.0
H773 H 0.56971 0.98558 0.1326 0.0
H774 H 0.45624 0.00569 0.86148 0.0
H775 H 0.4873 0.08709 0.95404 0.0
H776 H 0.65707 0.97433 0.91975 0.0
H777 H 0.5668 0.88954 0.8866 0.0
H778 H 0.46734 0.11162 0.10712 0.0
H779 H 0.37627 0.02794 0.07381 0.0
Cd780 Cd 0.98519 0.49591 0.04622 0.0
Cd781 Cd 0.05555 0.50631 0.93958 0.0
C782 C 0.03538 0.48801 0.09915 0.0
N783 N 0.02253 0.47697 0.06564 0.0
C784 C 0.04749 0.43713 0.05312 0.0
C785 C 0.06022 0.44713 0.08788 0.0
C786 C 0.05441 0.47342 0.11085 0.0
C787 C 0.0286 0.45235 0.04258 0.0
H788 H 0.02999 0.50742 0.1171 0.0
H789 H 0.01799 0.44385 0.01613 0.0
C790 C 0.98429 0.45557 0.95461 0.0
C791 C 0.99599 0.51362 0.89759 0.0
C792 C 0.97758 0.53029 0.88884 0.0
C793 C 0.9849 0.56374 0.90617 0.0
C794 C 1.01028 0.57929 0.93254 0.0
C795 C 0.02774 0.56166 0.94068 0.0
N796 N 0.02055 0.52952 0.92317 0.0
H797 H 0.99092 0.48818 0.88365 0.0
H798 H 0.04744 0.57376 0.96081 0.0
C799 C 0.0823 0.45533 0.88703 0.0
N800 N 0.07846 0.46433 0.92177 0.0
C801 C 0.10646 0.43067 0.93231 0.0
C802 C 0.11192 0.42213 0.89667 0.0
C803 C 0.09909 0.43454 0.87402 0.0
C804 C 0.0899 0.45211 0.9444 0.0
H805 H 0.07296 0.46494 0.86926 0.0
H806 H 0.08695 0.45961 0.97196 0.0
C807 C 0.05769 0.54565 0.03192 0.0
C808 C 0.9385 0.45107 0.07869 0.0
N809 N 0.96027 0.53641 0.06066 0.0
C810 C 0.97783 0.56935 0.07436 0.0
C811 C 0.96207 0.59132 0.08713 0.0
C812 C 0.92774 0.57955 0.08627 0.0
C813 C 0.91037 0.54553 0.07109 0.0
C814 C 0.92708 0.52447 0.05853 0.0
C815 C 0.10389 0.55005 0.90786 0.0
O816 O 0.99244 0.47703 0.98373 0.0
O817 O 1.00363 0.45902 0.9302 0.0
O818 O 0.04923 0.52511 0.00225 0.0
O819 O 0.03815 0.54195 0.05614 0.0
O820 O 0.93718 0.44536 0.04555 0.0
O821 O 0.96079 0.47763 0.09575 0.0
O822 O 0.10654 0.55393 0.94072 0.0
O823 O 0.07913 0.52618 0.89083 0.0
H824 H 1.00413 0.57862 0.0764 0.0
H825 H 0.91342 0.49821 0.04816 0.0
H826 H 0.05169 0.41739 0.03429 0.0
H827 H 0.06335 0.48179 0.13795 0.0
H828 H 0.95838 0.5174 0.86818 0.0
H829 H 0.01653 0.60486 0.94691 0.0
H830 H 0.11592 0.42184 0.95085 0.0
H831 H 0.10212 0.42834 0.84633 0.0
H832 H 0.97682 0.61727 0.09795 0.0
H833 H 0.88402 0.53482 0.07011 0.0
Cd834 Cd 0.48241 0.4749 0.03371 0.0
Cd835 Cd 0.5535 0.52973 0.96224 0.0
C836 C 0.55077 0.48187 0.06789 0.0
N837 N 0.52689 0.46168 0.04254 0.0
C838 C 0.54574 0.41777 0.03726 0.0
C839 C 0.57049 0.43794 0.06361 0.0
C840 C 0.57308 0.47056 0.07862 0.0
C841 C 0.52424 0.43027 0.02694 0.0
H842 H 0.55167 0.50619 0.08114 0.0
H843 H 0.50428 0.41432 0.00781 0.0
C844 C 0.49334 0.45034 0.94023 0.0
C845 C 0.49702 0.53305 0.91731 0.0
C846 C 0.47652 0.54549 0.905 0.0
C847 C 0.47744 0.577 0.92223 0.0
C848 C 0.49936 0.59548 0.95152 0.0
C849 C 0.51885 0.58161 0.96358 0.0
N850 N 0.51709 0.55078 0.94654 0.0
H851 H 0.49722 0.50941 0.90319 0.0
H852 H 0.53583 0.59562 0.9861 0.0
C853 C 0.57934 0.47202 0.95506 0.0
N854 N 0.58239 0.50108 0.97795 0.0
C855 C 0.6188 0.49467 0.01606 0.0
C856 C 0.61475 0.46389 0.9935 0.0
C857 C 0.59492 0.45274 0.9626 0.0
C858 C 0.60183 0.51283 0.00795 0.0
H859 H 0.56507 0.46382 0.93065 0.0
H860 H 0.60424 0.53623 0.0255 0.0
C861 C 0.53511 0.54996 0.05251 0.0
C862 C 0.43825 0.43606 0.07424 0.0
N863 N 0.45327 0.50375 0.02041 0.0
C864 C 0.43805 0.51541 0.04759 0.0
C865 C 0.42032 0.53409 0.04367 0.0
C866 C 0.4182 0.54079 0.01138 0.0
C867 C 0.43331 0.52754 0.9834 0.0
C868 C 0.45083 0.50882 0.98849 0.0
C869 C 0.60176 0.56635 0.92431 0.0
O870 O 0.48367 0.45035 0.9708 0.0
O871 O 0.51522 0.47543 0.93312 0.0
O872 O 0.53756 0.53891 0.0205 0.0
O873 O 0.5131 0.53144 0.0675 0.0
O874 O 0.43383 0.42766 0.04129 0.0
O875 O 0.46258 0.46218 0.0876 0.0
O876 O 0.60168 0.57787 0.95704 0.0
O877 O 0.58061 0.53771 0.91057 0.0
H878 H 0.44032 0.51071 0.07259 0.0
H879 H 0.46272 0.4987 0.96721 0.0
H880 H 0.54256 0.39236 0.0252 0.0
H881 H 0.59127 0.48675 0.09955 0.0
H882 H 0.46038 0.53081 0.88193 0.0
H883 H 0.50087 0.62002 0.96527 0.0
H884 H 0.63437 0.50424 0.03986 0.0
H885 H 0.59214 0.42964 0.94394 0.0
H886 H 0.40953 0.54431 0.06611 0.0
H887 H 0.43182 0.53191 0.95812 0.0
Cd888 Cd 0.97781 0.49046 0.54928 0.0
Cd889 Cd 0.05075 0.50693 0.44708 0.0
C890 C 0.02191 0.48434 0.60959 0.0
N891 N 0.01624 0.47651 0.57443 0.0
C892 C 0.05234 0.44751 0.56625 0.0
C893 C 0.05831 0.45466 0.60252 0.0
C894 C 0.04289 0.47362 0.62422 0.0
C895 C 0.03109 0.45862 0.55275 0.0
H896 H 1.00966 0.49842 0.62631 0.0
H897 H 0.0261 0.45263 0.52488 0.0
C898 C 0.97956 0.45337 0.45681 0.0
C899 C 0.99848 0.51333 0.39506 0.0
C900 C 0.97433 0.52288 0.38496 0.0
C901 C 0.95961 0.53992 0.4103 0.0
C902 C 0.96975 0.54646 0.44551 0.0
C903 C 0.99425 0.53684 0.4544 0.0
N904 N 1.00823 0.52072 0.4293 0.0
H905 H 1.00975 0.50035 0.37547 0.0
H906 H 1.00215 0.54233 0.48147 0.0
C907 C 0.06234 0.43557 0.41817 0.0
N908 N 0.07832 0.46894 0.43084 0.0
C909 C 0.12972 0.46333 0.41968 0.0
C910 C 0.11396 0.42888 0.40577 0.0
C911 C 0.07969 0.4151 0.40565 0.0
C912 C 0.11147 0.48283 0.43204 0.0
H913 H 0.03604 0.4247 0.41688 0.0
H914 H 0.12386 0.50935 0.44199 0.0
C915 C 0.0514 0.54233 0.54079 0.0
C916 C 0.93016 0.44067 0.57527 0.0
N917 N 0.95187 0.52967 0.56261 0.0
C918 C 0.96818 0.56128 0.58197 0.0
C919 C 0.95161 0.58251 0.59427 0.0
C920 C 0.91772 0.57122 0.58705 0.0
C921 C 0.90173 0.53868 0.56625 0.0
C922 C 0.91927 0.51834 0.55433 0.0
C923 C 0.09535 0.55732 0.41931 0.0
O924 O 0.98704 0.47313 0.48704 0.0
O925 O 0.99995 0.45832 0.43357 0.0
O926 O 0.0438 0.52397 0.50992 0.0
O927 O 0.0306 0.53681 0.56359 0.0
O928 O 0.93451 0.43543 0.5428 0.0
O929 O 0.94693 0.46919 0.59447 0.0
O930 O 0.0983 0.55897 0.45156 0.0
O931 O 0.07259 0.53228 0.40073 0.0
H932 H 0.99388 0.56978 0.58909 0.0
H933 H 0.90658 0.49302 0.5394 0.0
H934 H 0.06399 0.43349 0.5484 0.0
H935 H 0.04632 0.47945 0.6523 0.0
H936 H 0.96781 0.51751 0.35748 0.0
H937 H 0.95882 0.55878 0.46619 0.0
H938 H 0.15602 0.47527 0.42097 0.0
H939 H 0.06622 0.38883 0.39491 0.0
H940 H 0.9651 0.60711 0.61053 0.0
H941 H 0.87578 0.52881 0.55952 0.0
Cd942 Cd 0.48252 0.99598 0.54589 0.0
Cd943 Cd 0.55397 0.00184 0.44025 0.0
C944 C 0.53255 0.98716 0.59817 0.0
N945 N 0.51873 0.97582 0.56505 0.0
C946 C 0.5426 0.93515 0.55181 0.0
C947 C 0.55647 0.94558 0.58613 0.0
C948 C 0.55166 0.97237 0.60929 0.0
C949 C 0.52369 0.95059 0.54186 0.0
H950 H 0.52805 0.00712 0.61621 0.0
H951 H 0.51233 0.9419 0.51573 0.0
C952 C 0.48093 0.95544 0.45493 0.0
C953 C 0.50144 0.00793 0.38878 0.0
C954 C 0.48171 0.02181 0.37717 0.0
C955 C 0.47786 0.04978 0.39905 0.0
C956 C 0.49349 0.06237 0.43271 0.0
C957 C 0.51298 0.04773 0.44323 0.0
N958 N 0.51686 0.02123 0.4212 0.0
H959 H 0.50499 0.98692 0.37168 0.0
H960 H 0.52575 0.05809 0.46875 0.0
C961 C 0.56518 0.93468 0.39677 0.0
N962 N 0.57713 0.9601 0.42594 0.0
C963 C 0.62185 0.94373 0.43225 0.0
C964 C 0.6107 0.91778 0.40155 0.0
C965 C 0.58146 0.91317 0.38424 0.0
C966 C 0.60478 0.96463 0.44389 0.0
H967 H 0.54364 0.93185 0.38231 0.0
H968 H 0.61431 0.98527 0.46666 0.0
C969 C 0.55678 0.04314 0.53306 0.0
C970 C 0.43488 0.95237 0.57863 0.0
N971 N 0.45967 0.03776 0.56085 0.0
C972 C 0.47744 0.06927 0.57955 0.0
C973 C 0.46218 0.09143 0.59341 0.0
C974 C 0.4281 0.08124 0.58848 0.0
C975 C 0.41064 0.04881 0.56813 0.0
C976 C 0.42688 0.02751 0.55466 0.0
C977 C 0.60091 0.04524 0.40656 0.0
O978 O 0.4904 0.97691 0.4839 0.0
O979 O 0.50044 0.95667 0.43064 0.0
O980 O 0.54855 0.02347 0.50287 0.0
O981 O 0.53631 0.04017 0.55643 0.0
O982 O 0.43352 0.94643 0.54546 0.0
O983 O 0.45774 0.97852 0.59551 0.0
O984 O 0.60322 0.05074 0.43965 0.0
O985 O 0.57747 0.01947 0.39 0.0
H986 H 0.50335 0.07698 0.5849 0.0
H987 H 0.413 0.00219 0.54049 0.0
H988 H 0.546 0.91499 0.53288 0.0
H989 H 0.56153 0.98105 0.63608 0.0
H990 H 0.46985 0.01092 0.35119 0.0
H991 H 0.4917 0.0841 0.45037 0.0
H992 H 0.6439 0.94825 0.44699 0.0
H993 H 0.5719 0.89403 0.36028 0.0
H994 H 0.47699 0.11619 0.60837 0.0
H995 H 0.3844 0.03931 0.56386 0.0
H996 H 0.25239 0.16582 0.30231 0.0
H997 H 0.17265 0.19849 0.30268 0.0
H998 H 0.22565 0.13343 0.34335 0.0
H999 H 0.14591 0.16595 0.34371 0.0
H1000 H 0.1282 0.13511 0.44656 0.0
H1001 H 0.1583 0.1684 0.40726 0.0
H1002 H 0.17384 0.08349 0.34332 0.0
H1003 H 0.14381 0.05027 0.38236 0.0
C1004 C 0.229 0.1658 0.31089 0.0
C1005 C 0.21451 0.18454 0.29923 0.0
C1006 C 0.21376 0.1473 0.33436 0.0
C1007 C 0.18395 0.14753 0.34689 0.0
C1008 C 0.16914 0.16578 0.33476 0.0
C1009 C 0.1842 0.18397 0.31095 0.0
C1010 C 0.13856 0.12379 0.42446 0.0
C1011 C 0.13364 0.09014 0.4174 0.0
C1012 C 0.15545 0.14269 0.40183 0.0
C1013 C 0.16803 0.12833 0.37215 0.0
C1014 C 0.16443 0.09514 0.36607 0.0
C1015 C 0.14723 0.07616 0.38839 0.0
H1016 H 0.89295 0.13833 0.28673 0.0
H1017 H 0.81757 0.09925 0.35374 0.0
H1018 H 0.93044 0.12442 0.31718 0.0
H1019 H 0.85493 0.08418 0.38311 0.0
H1020 H 0.99459 0.12235 0.4065 0.0
H1021 H 0.95787 0.14018 0.37967 0.0
H1022 H 0.883 0.04197 0.36198 0.0
H1023 H 0.91956 0.02401 0.3886 0.0
C1024 C 0.88441 0.1272 0.30819 0.0
C1025 C 0.85206 0.11983 0.31759 0.0
C1026 C 0.90591 0.1191 0.3255 0.0
C1027 C 0.89546 0.10304 0.35226 0.0
C1028 C 0.86341 0.09615 0.36218 0.0
C1029 C 0.84202 0.10466 0.34522 0.0
C1030 C 0.97027 0.10459 0.39698 0.0
C1031 C 0.95998 0.07178 0.39977 0.0
C1032 C 0.94935 0.11477 0.38151 0.0
C1033 C 0.91761 0.09247 0.36895 0.0
C1034 C 0.90729 0.05971 0.3717 0.0
C1035 C 0.92836 0.04936 0.38658 0.0
H1036 H 0.83491 0.85466 0.31904 0.0
H1037 H 0.87999 0.78311 0.29025 0.0
H1038 H 0.88096 0.89089 0.36127 0.0
H1039 H 0.92614 0.81947 0.33222 0.0
H1040 H 0.947 0.92403 0.46048 0.0
H1041 H 0.90256 0.88338 0.41873 0.0
H1042 H 0.97126 0.8792 0.34013 0.0
H1043 H 1.01561 0.92039 0.38149 0.0
C1044 C 0.85497 0.84706 0.32136 0.0
C1045 C 0.85418 0.81633 0.30159 0.0
C1046 C 0.88096 0.86746 0.34571 0.0
C1047 C 0.90663 0.85755 0.35009 0.0
C1048 C 0.90647 0.82744 0.32926 0.0
C1049 C 0.88025 0.80681 0.30533 0.0
C1050 C 0.95263 0.91411 0.43444 0.0
C1051 C 0.98454 0.92581 0.42397 0.0
C1052 C 0.92727 0.89104 0.41061 0.0
C1053 C 0.93366 0.87886 0.37625 0.0
C1054 C 0.96587 0.88849 0.36653 0.0
C1055 C 0.99116 0.91195 0.3902 0.0
H1056 H 0.16418 0.79609 0.4567 0.0
H1057 H 0.16669 0.85853 0.38881 0.0
H1058 H 0.16114 0.83941 0.50685 0.0
H1059 H 0.16643 0.90175 0.43864 0.0
H1060 H 0.19215 0.98359 0.5279 0.0
H1061 H 0.20793 0.93643 0.50547 0.0
H1062 H 0.10895 0.86932 0.50798 0.0
H1063 H 0.09262 0.91585 0.52805 0.0
C1064 C 0.16456 0.81898 0.45237 0.0
C1065 C 0.16612 0.82378 0.41849 0.0
C1066 C 0.16331 0.84382 0.48114 0.0
C1067 C 0.16457 0.87404 0.47645 0.0
C1068 C 0.16654 0.87897 0.44292 0.0
C1069 C 0.16684 0.8541 0.41432 0.0
C1070 C 0.17398 0.95882 0.52504 0.0
C1071 C 0.1409 0.95357 0.52869 0.0
C1072 C 0.18316 0.93187 0.51267 0.0
C1073 C 0.15949 0.89946 0.5047 0.0
C1074 C 0.12762 0.89414 0.5142 0.0
C1075 C 0.1183 0.92102 0.52586 0.0
H1076 H 0.07034 0.78213 0.66578 0.0
H1077 H 0.16407 0.86344 0.6793 0.0
H1078 H 0.05005 0.80661 0.62847 0.0
H1079 H 0.14446 0.88672 0.63993 0.0
H1080 H 0.08328 0.9427 0.6167 0.0
H1081 H 0.1093 0.91534 0.64403 0.0
H1082 H 0.05042 0.82096 0.57508 0.0
H1083 H 0.02278 0.84821 0.54923 0.0
C1084 C 0.08678 0.80502 0.66045 0.0
C1085 C 0.11868 0.82108 0.67614 0.0
C1086 C 0.07528 0.81883 0.63852 0.0
C1087 C 0.09549 0.84889 0.63137 0.0
C1088 C 0.12799 0.8639 0.64539 0.0
C1089 C 0.1394 0.85027 0.66764 0.0
C1090 C 0.07565 0.91606 0.60752 0.0
C1091 C 0.05036 0.8976 0.58132 0.0
C1092 C 0.09105 0.90038 0.62278 0.0
C1093 C 0.08184 0.86581 0.61201 0.0
C1094 C 0.05773 0.84754 0.58451 0.0
C1095 C 0.0421 0.86323 0.56941 0.0
H1096 H 0.1855 0.21398 0.66262 0.0
H1097 H 0.20336 0.13399 0.6882 0.0
H1098 H 0.14044 0.17366 0.62173 0.0
H1099 H 0.1576 0.09387 0.64788 0.0
H1100 H 0.04417 0.04668 0.61987 0.0
H1101 H 0.09473 0.08554 0.65353 0.0
H1102 H 0.12973 0.12323 0.56394 0.0
H1103 H 0.07906 0.08387 0.52992 0.0
C1104 C 0.18008 0.18786 0.65931 0.0
C1105 C 0.19772 0.17716 0.67902 0.0
C1106 C 0.15441 0.16489 0.63581 0.0
C1107 C 0.14569 0.13092 0.63207 0.0
C1108 C 0.16394 0.12009 0.65068 0.0
C1109 C 0.19001 0.14304 0.67373 0.0
C1110 C 0.06257 0.06339 0.60743 0.0
C1111 C 0.05782 0.0626 0.57245 0.0
C1112 C 0.09154 0.08526 0.62652 0.0
C1113 C 0.11593 0.10698 0.61106 0.0
C1114 C 0.11112 0.10653 0.57621 0.0
C1115 C 0.08231 0.08418 0.55688 0.0
H1116 H 0.85776 0.19463 0.53581 0.0
H1117 H 0.8395 0.12225 0.59586 0.0
H1118 H 0.85925 0.15301 0.48356 0.0
H1119 H 0.8385 0.08118 0.54413 0.0
H1120 H 0.84759 0.01039 0.46598 0.0
H1121 H 0.81783 0.0467 0.48234 0.0
H1122 H 0.90492 0.13071 0.47706 0.0
H1123 H 0.93462 0.09481 0.46109 0.0
C1124 C 0.85325 0.16988 0.53795 0.0
C1125 C 0.84912 0.1623 0.57058 0.0
C1126 C 0.85349 0.14593 0.50783 0.0
C1127 C 0.84874 0.11378 0.50965 0.0
C1128 C 0.84147 0.10546 0.54153 0.0
C1129 C 0.84211 0.12939 0.57156 0.0
C1130 C 0.85999 0.03626 0.4663 0.0
C1131 C 0.89383 0.04987 0.46346 0.0
C1132 C 0.84283 0.05709 0.47564 0.0
C1133 C 0.85941 0.09162 0.4823 0.0
C1134 C 0.89152 0.10424 0.4726 0.0
C1135 C 0.90871 0.08356 0.46365 0.0
H1136 H 0.778 0.83918 0.69668 0.0
H1137 H 0.85893 0.80769 0.69117 0.0
H1138 H 0.80238 0.87207 0.65519 0.0
H1139 H 0.88306 0.8404 0.64957 0.0
H1140 H 0.89376 0.86766 0.5453 0.0
H1141 H 0.86525 0.8356 0.58615 0.0
H1142 H 0.85475 0.92251 0.65196 0.0
H1143 H 0.88353 0.95472 0.61138 0.0
C1144 C 0.8012 0.83967 0.687 0.0
C1145 C 0.81661 0.82094 0.69724 0.0
C1146 C 0.81506 0.8584 0.66323 0.0
C1147 C 0.8443 0.85832 0.64887 0.0
C1148 C 0.86021 0.84044 0.6599 0.0
C1149 C 0.84664 0.82213 0.68408 0.0
C1150 C 0.88469 0.87972 0.56805 0.0
C1151 C 0.89091 0.91369 0.57521 0.0
C1152 C 0.86874 0.86148 0.59159 0.0
C1153 C 0.8583 0.87678 0.62239 0.0
C1154 C 0.86262 0.91018 0.62843 0.0
C1155 C 0.87902 0.92855 0.60518 0.0
H1156 H 0.36257 0.23664 0.20193 0.0
H1157 H 0.27122 0.15235 0.17865 0.0
H1158 H 0.39098 0.202 0.17205 0.0
H1159 H 0.29933 0.11778 0.14707 0.0
H1160 H 0.36368 0.05671 0.12885 0.0
H1161 H 0.33417 0.09131 0.1556 0.0
H1162 H 0.40243 0.17255 0.11923 0.0
H1163 H 0.43226 0.13797 0.09298 0.0
C1164 C 0.34848 0.21063 0.19043 0.0
C1165 C 0.31465 0.19723 0.19356 0.0
C1166 C 0.36478 0.19072 0.17272 0.0
C1167 C 0.34776 0.15669 0.15721 0.0
C1168 C 0.31362 0.14358 0.15925 0.0
C1169 C 0.29733 0.16355 0.17711 0.0
C1170 C 0.37229 0.08185 0.1262 0.0
C1171 C 0.40053 0.09434 0.10859 0.0
C1172 C 0.3552 0.10182 0.14157 0.0
C1173 C 0.36562 0.13502 0.13978 0.0
C1174 C 0.39375 0.14742 0.12188 0.0
C1175 C 0.41095 0.12747 0.10667 0.0
H1176 H 0.82394 0.35572 0.23154 0.0
H1177 H 0.81833 0.27495 0.14329 0.0
H1178 H 0.854 0.39529 0.19863 0.0
H1179 H 0.85055 0.31442 0.11121 0.0
H1180 H 0.94146 0.45489 0.14786 0.0
H1181 H 0.90693 0.41569 0.17862 0.0
H1182 H 0.84971 0.35512 0.08251 0.0
H1183 H 0.88527 0.39414 0.0513 0.0
C1184 C 0.8289 0.34642 0.20501 0.0
C1185 C 0.81852 0.31225 0.18994 0.0
C1186 C 0.84662 0.36909 0.18629 0.0
C1187 C 0.85483 0.35809 0.15224 0.0
C1188 C 0.84428 0.32382 0.13714 0.0
C1189 C 0.8262 0.30117 0.15573 0.0
C1190 C 0.92142 0.43331 0.13323 0.0
C1191 C 0.91609 0.42762 0.09711 0.0
C1192 C 0.90144 0.41089 0.15097 0.0
C1193 C 0.8754 0.38227 0.13313 0.0
C1194 C 0.86979 0.37672 0.09699 0.0
C1195 C 0.89001 0.39915 0.07913 0.0
H1196 H 0.70291 0.89067 0.17294 0.0
H1197 H 0.66622 0.82004 0.07348 0.0
H1198 H 0.66405 0.91574 0.16626 0.0
H1199 H 0.62824 0.84552 0.06633 0.0
H1200 H 0.54436 0.8795 0.07538 0.0
H1201 H 0.57975 0.85314 0.08831 0.0
H1202 H 0.65544 0.94938 0.13062 0.0
H1203 H 0.6199 0.97582 0.1177 0.0
C1204 C 0.68635 0.88029 0.14983 0.0
C1205 C 0.6878 0.85343 0.12367 0.0
C1206 C 0.66433 0.89489 0.14581 0.0
C1207 C 0.64305 0.88278 0.11568 0.0
C1208 C 0.64398 0.85536 0.09003 0.0
C1209 C 0.66603 0.84092 0.09396 0.0
C1210 C 0.5686 0.89509 0.08732 0.0
C1211 C 0.57937 0.92983 0.09512 0.0
C1212 C 0.58891 0.87995 0.09478 0.0
C1213 C 0.6206 0.89908 0.11026 0.0
C1214 C 0.63107 0.93384 0.11903 0.0
C1215 C 0.6107 0.94903 0.11156 0.0
H1216 H 0.1633 0.67431 0.19461 0.0
H1217 H 0.245 0.69689 0.13018 0.0
H1218 H 0.12708 0.6404 0.14329 0.0
H1219 H 0.20833 0.66128 0.07829 0.0
H1220 H 0.11958 0.54789 0.02763 0.0
H1221 H 0.16718 0.59371 0.06134 0.0
H1222 H 0.11042 0.65457 0.08643 0.0
H1223 H 0.06304 0.60883 0.05348 0.0
C1224 C 0.17343 0.67242 0.16936 0.0
C1225 C 0.20672 0.68902 0.1662 0.0
C1226 C 0.15272 0.65295 0.14002 0.0
C1227 C 0.16493 0.64904 0.1069 0.0
C1228 C 0.19844 0.66447 0.1036 0.0
C1229 C 0.21926 0.6846 0.13316 0.0
C1230 C 0.11797 0.57169 0.03884 0.0
C1231 C 0.0879 0.57506 0.03855 0.0
C1232 C 0.14509 0.59781 0.05808 0.0
C1233 C 0.14204 0.62724 0.07681 0.0
C1234 C 0.11313 0.63193 0.07237 0.0
C1235 C 0.08612 0.60587 0.05353 0.0
H1236 H 0.31944 0.77409 0.85421 0.0
H1237 H 0.32431 0.8574 0.81613 0.0
H1238 H 0.35766 0.81197 0.90346 0.0
H1239 H 0.36148 0.8952 0.86608 0.0
H1240 H 0.42028 0.95699 0.9665 0.0
H1241 H 0.36902 0.91449 0.93604 0.0
H1242 H 0.41906 0.84899 0.89569 0.0
H1243 H 0.47009 0.89163 0.92504 0.0
C1244 C 0.3283 0.80051 0.85667 0.0
C1245 C 0.31968 0.81282 0.83089 0.0
C1246 C 0.34983 0.82209 0.88499 0.0
C1247 C 0.36237 0.85637 0.88847 0.0
C1248 C 0.35179 0.86884 0.86416 0.0
C1249 C 0.33073 0.84723 0.83549 0.0
C1250 C 0.41985 0.93298 0.95222 0.0
C1251 C 0.44883 0.92732 0.94792 0.0
C1252 C 0.39072 0.90887 0.93469 0.0
C1253 C 0.39027 0.87864 0.91354 0.0
C1254 C 0.41872 0.87196 0.91212 0.0
C1255 C 0.44788 0.89629 0.92884 0.0
H1256 H 0.26442 0.34747 0.82007 0.0
H1257 H 0.17548 0.26023 0.79938 0.0
H1258 H 0.23392 0.38124 0.84758 0.0
H1259 H 0.14522 0.29378 0.82822 0.0
H1260 H 0.10854 0.36426 0.91143 0.0
H1261 H 0.1397 0.32991 0.88738 0.0
H1262 H 0.19111 0.39871 0.82698 0.0
H1263 H 0.15994 0.43276 0.85069 0.0
C1264 C 0.23836 0.33544 0.82136 0.0
C1265 C 0.22243 0.30115 0.80672 0.0
C1266 C 0.22085 0.35482 0.83728 0.0
C1267 C 0.18696 0.34039 0.8399 0.0
C1268 C 0.17126 0.30582 0.82676 0.0
C1269 C 0.18869 0.28653 0.81022 0.0
C1270 C 0.12661 0.37214 0.89316 0.0
C1271 C 0.13154 0.40133 0.883 0.0
C1272 C 0.14434 0.35231 0.87918 0.0
C1273 C 0.16804 0.36148 0.85522 0.0
C1274 C 0.17331 0.39094 0.84554 0.0
C1275 C 0.1552 0.41038 0.85898 0.0
H1276 H 0.75949 0.20939 0.84988 0.0
H1277 H 0.67591 0.18116 0.77925 0.0
H1278 H 0.72559 0.17483 0.88587 0.0
H1279 H 0.64242 0.14487 0.81337 0.0
H1280 H 0.58074 0.09742 0.8896 0.0
H1281 H 0.61564 0.13986 0.86242 0.0
H1282 H 0.69922 0.12144 0.8901 0.0
H1283 H 0.66415 0.08109 0.92005 0.0
C1284 C 0.7338 0.1957 0.84212 0.0
C1285 C 0.72019 0.19811 0.81204 0.0
C1286 C 0.71437 0.17559 0.86251 0.0
C1287 C 0.68103 0.15685 0.85279 0.0
C1288 C 0.66764 0.15948 0.82252 0.0
C1289 C 0.68689 0.18018 0.80268 0.0
C1290 C 0.60672 0.10302 0.89026 0.0
C1291 C 0.61996 0.08623 0.90673 0.0
C1292 C 0.62676 0.12703 0.87431 0.0
C1293 C 0.66039 0.13388 0.87327 0.0
C1294 C 0.67363 0.11738 0.89064 0.0
C1295 C 0.65361 0.09409 0.90766 0.0
H1296 H 0.91826 0.69907 0.83436 0.0
H1297 H 0.85017 0.66155 0.90811 0.0
H1298 H 0.94554 0.66221 0.83953 0.0
H1299 H 0.8776 0.62508 0.9136 0.0
H1300 H 0.9188 0.54373 0.89385 0.0
H1301 H 0.88895 0.57604 0.88142 0.0
H1302 H 0.97986 0.65898 0.88544 0.0
H1303 H 1.00961 0.62664 0.89741 0.0
C1304 C 0.90888 0.68269 0.85135 0.0
C1305 C 0.88215 0.68343 0.87097 0.0
C1306 C 0.92468 0.66177 0.85456 0.0
C1307 C 0.91389 0.64077 0.87712 0.0
C1308 C 0.88646 0.64072 0.89581 0.0
C1309 C 0.8709 0.66186 0.89289 0.0
C1310 C 0.9324 0.56873 0.89168 0.0
C1311 C 0.96659 0.58264 0.89684 0.0
C1312 C 0.91529 0.58734 0.88482 0.0
C1313 C 0.93198 0.62017 0.88249 0.0
C1314 C 0.96622 0.63372 0.88675 0.0
C1315 C 0.98326 0.61527 0.89398 0.0
H1316 H 0.13776 0.30402 0.12353 0.0
H1317 H 0.1467 0.37343 0.2232 0.0
H1318 H 0.12068 0.33817 0.09553 0.0
H1319 H 0.12865 0.40685 0.19562 0.0
H1320 H 0.114 0.47286 0.1343 0.0
H1321 H 0.14046 0.44274 0.15723 0.0
H1322 H 0.07245 0.3503 0.09322 0.0
H1323 H 0.04615 0.38031 0.07033 0.0
C1324 C 0.13657 0.32681 0.13939 0.0
C1325 C 0.14331 0.33579 0.17566 0.0
C1326 C 0.12639 0.34621 0.12341 0.0
C1327 C 0.12287 0.37516 0.14331 0.0
C1328 C 0.13122 0.38492 0.17934 0.0
C1329 C 0.14129 0.36554 0.19525 0.0
C1330 C 0.1047 0.44611 0.1251 0.0
C1331 C 0.07783 0.4291 0.10047 0.0
C1332 C 0.11991 0.4288 0.13824 0.0
C1333 C 0.10864 0.39399 0.12717 0.0
C1334 C 0.08225 0.37709 0.10196 0.0
C1335 C 0.06708 0.39437 0.08881 0.0
H1336 H 0.18004 0.66359 0.75897 0.0
H1337 H 0.26097 0.70392 0.83611 0.0
H1338 H 0.14886 0.62488 0.79221 0.0
H1339 H 0.23049 0.66381 0.86859 0.0
H1340 H 0.14908 0.61262 0.93588 0.0
H1341 H 0.18393 0.65148 0.90404 0.0
H1342 H 0.14748 0.57637 0.8071 0.0
H1343 H 0.11212 0.53827 0.83865 0.0
C1344 C 0.19109 0.66419 0.78312 0.0
C1345 C 0.22258 0.68715 0.79533 0.0
C1346 C 0.17346 0.64167 0.80193 0.0
C1347 C 0.1872 0.6412 0.83309 0.0
C1348 C 0.21902 0.66385 0.84499 0.0
C1349 C 0.23656 0.6866 0.82625 0.0
C1350 C 0.14883 0.60445 0.90781 0.0
C1351 C 0.12766 0.57261 0.8897 0.0
C1352 C 0.16883 0.62661 0.88957 0.0
C1353 C 0.16814 0.61716 0.85296 0.0
C1354 C 0.14799 0.58475 0.83517 0.0
C1355 C 0.12787 0.56283 0.85329 0.0
H1356 H 0.30206 0.09157 0.85071 0.0
H1357 H 0.38379 0.14598 0.79969 0.0
H1358 H 0.33795 0.07439 0.88032 0.0
H1359 H 0.41964 0.1292 0.82921 0.0
H1360 H 0.4803 0.1126 0.90752 0.0
H1361 H 0.44373 0.13461 0.88742 0.0
H1362 H 0.36834 0.03639 0.85949 0.0
H1363 H 0.40488 0.01437 0.87985 0.0
C1364 C 0.32784 0.10052 0.84658 0.0
C1365 C 0.34024 0.12025 0.82314 0.0
C1366 C 0.34831 0.09042 0.86317 0.0
C1367 C 0.38166 0.10028 0.857 0.0
C1368 C 0.3942 0.12137 0.83481 0.0
C1369 C 0.3737 0.131 0.8179 0.0
C1370 C 0.4558 0.09574 0.89748 0.0
C1371 C 0.44558 0.06168 0.89521 0.0
C1372 C 0.4349 0.10834 0.88577 0.0
C1373 C 0.40307 0.08729 0.87186 0.0
C1374 C 0.39257 0.05335 0.87037 0.0
C1375 C 0.41362 0.04067 0.88169 0.0
H1376 H 0.79677 0.30386 0.8619 0.0
H1377 H 0.87793 0.31531 0.79657 0.0
H1378 H 0.83464 0.34046 0.91239 0.0
H1379 H 0.91532 0.3504 0.8466 0.0
H1380 H 0.9811 0.393 0.93539 0.0
H1381 H 0.93422 0.34524 0.90434 0.0
H1382 H 0.87472 0.40349 0.92682 0.0
H1383 H 0.92173 0.45117 0.95888 0.0
C1384 C 0.82267 0.31382 0.85847 0.0
C1385 C 0.83459 0.30615 0.82556 0.0
C1386 C 0.84419 0.33453 0.88727 0.0
C1387 C 0.87785 0.34742 0.88348 0.0
C1388 C 0.88955 0.33985 0.8505 0.0
C1389 C 0.86815 0.31971 0.82183 0.0
C1390 C 0.95757 0.39499 0.93515 0.0
C1391 C 0.95477 0.42551 0.94897 0.0
C1392 C 0.93086 0.36781 0.91732 0.0
C1393 C 0.90124 0.37109 0.91252 0.0
C1394 C 0.89735 0.40042 0.9302 0.0
C1395 C 0.92415 0.42763 0.94852 0.0
H1396 H 0.67273 0.76567 0.79379 0.0
H1397 H 0.76433 0.84949 0.81866 0.0
H1398 H 0.64428 0.80034 0.82327 0.0
H1399 H 0.73603 0.88423 0.84976 0.0
H1400 H 0.67119 0.94538 0.86621 0.0
H1401 H 0.70135 0.91104 0.84062 0.0
H1402 H 0.6322 0.82953 0.87584 0.0
H1403 H 0.60184 0.86382 0.90104 0.0
C1404 C 0.68687 0.7916 0.80555 0.0
C1405 C 0.72081 0.80484 0.80292 0.0
C1406 C 0.67052 0.81154 0.82304 0.0
C1407 C 0.68753 0.84551 0.83884 0.0
C1408 C 0.72177 0.85847 0.83738 0.0
C1409 C 0.73815 0.83842 0.8198 0.0
C1410 C 0.66251 0.92024 0.86889 0.0
C1411 C 0.63381 0.9076 0.88583 0.0
C1412 C 0.67998 0.90042 0.85417 0.0
C1413 C 0.66949 0.86719 0.8559 0.0
C1414 C 0.64097 0.85468 0.87321 0.0
C1415 C 0.62342 0.87447 0.8878 0.0
H1416 H 0.84596 0.70095 0.23673 0.0
H1417 H 0.80365 0.69756 0.13902 0.0
H1418 H 0.87487 0.6675 0.20603 0.0
H1419 H 0.83395 0.66497 0.10779 0.0
H1420 H 0.86803 0.57794 0.06538 0.0
H1421 H 0.8386 0.61223 0.09388 0.0
H1422 H 0.91878 0.66792 0.1717 0.0
H1423 H 0.94733 0.63269 0.14441 0.0
C1424 C 0.84302 0.69342 0.20855 0.0
C1425 C 0.8226 0.7026 0.19049 0.0
C1426 C 0.86 0.67429 0.19077 0.0
C1427 C 0.85737 0.66356 0.15413 0.0
C1428 C 0.83668 0.67247 0.13596 0.0
C1429 C 0.81951 0.69161 0.15388 0.0
C1430 C 0.87937 0.5973 0.08875 0.0
C1431 C 0.91027 0.6021 0.10244 0.0
C1432 C 0.86254 0.61738 0.10494 0.0
C1433 C 0.87595 0.64301 0.13547 0.0
C1434 C 0.90712 0.64821 0.14868 0.0
C1435 C 0.92389 0.62815 0.13257 0.0
H1436 H 0.27578 0.78847 0.14551 0.0
H1437 H 0.35782 0.8244 0.22039 0.0
H1438 H 0.30869 0.82442 0.11011 0.0
H1439 H 0.39014 0.86189 0.18676 0.0
H1440 H 0.45228 0.90815 0.11002 0.0
H1441 H 0.41831 0.86631 0.13835 0.0
H1442 H 0.3327 0.87778 0.10427 0.0
H1443 H 0.36706 0.91768 0.07332 0.0
C1444 C 0.3009 0.80421 0.15435 0.0
C1445 C 0.31454 0.80334 0.18525 0.0
C1446 C 0.31973 0.82507 0.13428 0.0
C1447 C 0.35237 0.84608 0.1452 0.0
C1448 C 0.36557 0.84543 0.17666 0.0
C1449 C 0.347 0.82404 0.19618 0.0
C1450 C 0.4261 0.90125 0.10829 0.0
C1451 C 0.41212 0.91598 0.08973 0.0
C1452 C 0.40658 0.87756 0.12488 0.0
C1453 C 0.37262 0.86895 0.12442 0.0
C1454 C 0.35862 0.88333 0.10499 0.0
C1455 C 0.37822 0.90634 0.08738 0.0
H1456 H 0.71978 0.14072 0.16565 0.0
H1457 H 0.71443 0.22492 0.13676 0.0
H1458 H 0.68004 0.10345 0.11771 0.0
H1459 H 0.67404 0.18744 0.08934 0.0
H1460 H 0.56369 0.10688 0.07452 0.0
H1461 H 0.61596 0.14905 0.10105 0.0
H1462 H 0.66462 0.08524 0.04958 0.0
H1463 H 0.61191 0.0431 0.02208 0.0
C1464 C 0.71085 0.1513 0.14851 0.0
C1465 C 0.71985 0.18575 0.15531 0.0
C1466 C 0.68819 0.12994 0.12096 0.0
C1467 C 0.67394 0.14265 0.1 0.0
C1468 C 0.68465 0.17709 0.10524 0.0
C1469 C 0.70762 0.19846 0.13246 0.0
C1470 C 0.58571 0.1024 0.06791 0.0
C1471 C 0.584 0.07195 0.04639 0.0
C1472 C 0.6156 0.12653 0.08296 0.0
C1473 C 0.64423 0.12029 0.07739 0.0
C1474 C 0.64281 0.09056 0.05417 0.0
C1475 C 0.61283 0.06664 0.03836 0.0
H1476 H 0.75518 0.67888 0.8099 0.0
H1477 H 0.66694 0.68968 0.78324 0.0
H1478 H 0.72545 0.64477 0.84842 0.0
H1479 H 0.63722 0.6543 0.82055 0.0
H1480 H 0.59433 0.55507 0.85432 0.0
H1481 H 0.62678 0.58957 0.81755 0.0
H1482 H 0.69058 0.65662 0.90694 0.0
H1483 H 0.65749 0.62239 0.9444 0.0
C1484 C 0.72946 0.6738 0.8119 0.0
C1485 C 0.71337 0.6867 0.79302 0.0
C1486 C 0.71258 0.6544 0.83409 0.0
C1487 C 0.6792 0.64702 0.8372 0.0
C1488 C 0.66298 0.65958 0.81825 0.0
C1489 C 0.67997 0.67956 0.79668 0.0
C1490 C 0.61543 0.57699 0.8662 0.0
C1491 C 0.62341 0.58609 0.90225 0.0
C1492 C 0.63383 0.59675 0.84515 0.0
C1493 C 0.66093 0.62562 0.85958 0.0
C1494 C 0.66972 0.63431 0.89538 0.0
C1495 C 0.65084 0.61484 0.9167 0.0
H1496 H 0.37849 0.63532 0.78591 0.0
H1497 H 0.31541 0.62594 0.87118 0.0
H1498 H 0.41863 0.62715 0.81901 0.0
H1499 H 0.35503 0.61602 0.90323 0.0
H1500 H 0.41168 0.54662 0.91076 0.0
H1501 H 0.37453 0.56549 0.88648 0.0
H1502 H 0.45536 0.6545 0.87991 0.0
H1503 H 0.49264 0.63595 0.90533 0.0
C1504 C 0.37329 0.63208 0.81185 0.0
C1505 C 0.3434 0.63099 0.8256 0.0
C1506 C 0.39632 0.6273 0.83074 0.0
C1507 C 0.38978 0.62084 0.86353 0.0
C1508 C 0.36047 0.6207 0.87782 0.0
C1509 C 0.33769 0.62607 0.85925 0.0
C1510 C 0.42145 0.5704 0.90453 0.0
C1511 C 0.45498 0.58982 0.90978 0.0
C1512 C 0.4002 0.58125 0.89084 0.0
C1513 C 0.41216 0.61139 0.88133 0.0
C1514 C 0.44563 0.63113 0.88702 0.0
C1515 C 0.46685 0.62061 0.9016 0.0
H1516 H 0.34515 0.27143 0.83805 0.0
H1517 H 0.37214 0.32162 0.75611 0.0
H1518 H 0.39429 0.30975 0.87221 0.0
H1519 H 0.42357 0.35862 0.78867 0.0
H1520 H 0.47104 0.45101 0.87846 0.0
H1521 H 0.43694 0.40424 0.83357 0.0
H1522 H 0.44683 0.33768 0.89062 0.0
H1523 H 0.47859 0.38547 0.93733 0.0
C1524 C 0.36162 0.29093 0.82733 0.0
C1525 C 0.35315 0.29623 0.79625 0.0
C1526 C 0.39056 0.31252 0.8466 0.0
C1527 C 0.41251 0.33876 0.83421 0.0
C1528 C 0.40632 0.34028 0.80027 0.0
C1529 C 0.37671 0.31939 0.78166 0.0
C1530 C 0.46608 0.42632 0.88113 0.0
C1531 C 0.47662 0.42159 0.91143 0.0
C1532 C 0.44683 0.39927 0.85509 0.0
C1533 C 0.4385 0.36676 0.85834 0.0
C1534 C 0.45162 0.36221 0.8876 0.0
C1535 C 0.46995 0.38946 0.91431 0.0
H1536 H 0.66853 0.2978 0.94383 0.0
H1537 H 0.70118 0.37101 0.88374 0.0
H1538 H 0.66299 0.33987 0.9931 0.0
H1539 H 0.69844 0.41248 0.93324 0.0
H1540 H 0.67995 0.48324 0.00869 0.0
H1541 H 0.70942 0.44599 -0.00142 0.0
H1542 H 0.61789 0.36187 0.98343 0.0
H1543 H 0.58888 0.39857 0.99153 0.0
C1544 C 0.67543 0.32278 0.94117 0.0
C1545 C 0.68433 0.33037 0.90901 0.0
C1546 C 0.67297 0.347 0.96977 0.0
C1547 C 0.6803 0.37939 0.96698 0.0
C1548 C 0.69313 0.38787 0.93646 0.0
C1549 C 0.69461 0.36366 0.9077 0.0
C1550 C 0.66631 0.45689 0.00481 0.0
C1551 C 0.63218 0.44363 0.0002 0.0
C1552 C 0.68316 0.43563 -0.00068 0.0
C1553 C 0.66589 0.40108 0.98967 0.0
C1554 C 0.6319 0.38835 0.99091 0.0
C1555 C 0.61517 0.40941 0.99532 0.0
H1556 H 0.65185 0.35803 0.19426 0.0
H1557 H 0.73128 0.39341 0.13012 0.0
H1558 H 0.61689 0.3714 0.15975 0.0
H1559 H 0.69627 0.4073 0.09593 0.0
H1560 H 0.636 0.46933 0.08174 0.0
H1561 H 0.67106 0.44928 0.10757 0.0
H1562 H 0.59 0.35648 0.10075 0.0
H1563 H 0.55472 0.37671 0.07543 0.0
C1564 C 0.66173 0.36812 0.17244 0.0
C1565 C 0.69447 0.37477 0.16513 0.0
C1566 C 0.64166 0.37582 0.15266 0.0
C1567 C 0.65386 0.39051 0.12519 0.0
C1568 C 0.68632 0.39641 0.11725 0.0
C1569 C 0.70637 0.38853 0.13692 0.0
C1570 C 0.62564 0.44463 0.08569 0.0
C1571 C 0.59247 0.42474 0.07675 0.0
C1572 C 0.64584 0.433 0.10012 0.0
C1573 C 0.63324 0.40136 0.10638 0.0
C1574 C 0.60032 0.3811 0.09655 0.0
C1575 C 0.58019 0.3926 0.08177 0.0
H1576 H 0.66972 0.72101 0.20507 0.0
H1577 H 0.71563 0.651 0.16835 0.0
H1578 H 0.62287 0.6861 0.16371 0.0
H1579 H 0.66872 0.61624 0.12633 0.0
H1580 H 0.59424 0.58615 0.03248 0.0
H1581 H 0.64099 0.62701 0.07138 0.0
H1582 H 0.58018 0.62325 0.15835 0.0
H1583 H 0.53376 0.58159 0.12002 0.0
C1584 C 0.6697 0.6981 0.18812 0.0
C1585 C 0.69601 0.6884 0.18984 0.0
C1586 C 0.64303 0.67831 0.16452 0.0
C1587 C 0.64261 0.64891 0.14184 0.0
C1588 C 0.6689 0.63914 0.14346 0.0
C1589 C 0.69537 0.65866 0.16763 0.0
C1590 C 0.59077 0.59435 0.05981 0.0
C1591 C 0.56064 0.58014 0.07345 0.0
C1592 C 0.61748 0.61755 0.08195 0.0
C1593 C 0.61401 0.62756 0.11771 0.0
C1594 C 0.58329 0.61561 0.13081 0.0
C1595 C 0.55681 0.59189 0.10887 0.0
H1596 H 0.43406 0.72358 0.09806 0.0
H1597 H 0.32902 0.679 0.08667 0.0
H1598 H 0.43679 0.67862 0.05129 0.0
H1599 H 0.33153 0.63403 0.03895 0.0
H1600 H 0.36033 0.54235 0.03482 0.0
H1601 H 0.34579 0.59047 0.04805 0.0
H1602 H 0.42807 0.64132 0.99465 0.0
H1603 H 0.44346 0.59362 0.98348 0.0
C1604 C 0.41155 0.70489 0.08442 0.0
C1605 C 0.38137 0.70418 0.09647 0.0
C1606 C 0.41303 0.67907 0.05738 0.0
C1607 C 0.3843 0.65221 0.04187 0.0
C1608 C 0.35407 0.65392 0.05095 0.0
C1609 C 0.35262 0.67962 0.07821 0.0
C1610 C 0.37471 0.56346 0.02503 0.0
C1611 C 0.40346 0.5646 0.00877 0.0
C1612 C 0.36619 0.59102 0.03223 0.0
C1613 C 0.38628 0.62018 0.02315 0.0
C1614 C 0.4125 0.61952 0.00267 0.0
C1615 C 0.42115 0.59203 0.99583 0.0
H1616 H 0.36693 0.30945 0.21186 0.0
H1617 H 0.28214 0.32798 0.18903 0.0
H1618 H 0.39844 0.34497 0.17571 0.0
H1619 H 0.31377 0.36272 0.15172 0.0
H1620 H 0.37818 0.38583 0.0561 0.0
H1621 H 0.34402 0.35231 0.09342 0.0
H1622 H 0.41656 0.40799 0.17918 0.0
H1623 H 0.4504 0.44159 0.1424 0.0
C1624 C 0.3551 0.32147 0.19963 0.0
C1625 C 0.32215 0.31637 0.20391 0.0
C1626 C 0.37312 0.34158 0.1787 0.0
C1627 C 0.35845 0.35652 0.16113 0.0
C1628 C 0.32548 0.35127 0.16498 0.0
C1629 C 0.30752 0.33154 0.18643 0.0
C1630 C 0.38667 0.39094 0.08296 0.0
C1631 C 0.41692 0.41621 0.09636 0.0
C1632 C 0.36711 0.37195 0.10427 0.0
C1633 C 0.37785 0.37766 0.13901 0.0
C1634 C 0.40792 0.40305 0.15239 0.0
C1635 C 0.42718 0.42229 0.13135 0.0
H1636 H 0.86242 0.73253 0.705 0.0
H1637 H 0.77 0.6545 0.66276 0.0
H1638 H 0.89059 0.69742 0.67595 0.0
H1639 H 0.79826 0.6198 0.63224 0.0
H1640 H 0.85695 0.55284 0.61308 0.0
H1641 H 0.8277 0.58773 0.63993 0.0
H1642 H 0.90669 0.67347 0.6225 0.0
H1643 H 0.93609 0.63856 0.59606 0.0
C1644 C 0.848 0.70799 0.68917 0.0
C1645 C 0.81376 0.69665 0.68617 0.0
C1646 C 0.8643 0.68781 0.67215 0.0
C1647 C 0.84697 0.65553 0.65136 0.0
C1648 C 0.81266 0.64425 0.64822 0.0
C1649 C 0.79634 0.66441 0.66547 0.0
C1650 C 0.86799 0.57908 0.61455 0.0
C1651 C 0.89909 0.59268 0.60228 0.0
C1652 C 0.8511 0.59923 0.63003 0.0
C1653 C 0.86462 0.63372 0.6337 0.0
C1654 C 0.89554 0.64723 0.62094 0.0
C1655 C 0.91249 0.6271 0.60561 0.0
H1656 H 0.31824 0.85852 0.73173 0.0
H1657 H 0.31858 0.77793 0.64631 0.0
H1658 H 0.34726 0.89789 0.69807 0.0
H1659 H 0.34928 0.81721 0.61348 0.0
H1660 H 0.38248 0.89463 0.55131 0.0
H1661 H 0.34673 0.85614 0.58295 0.0
H1662 H 0.40108 0.91987 0.67958 0.0
H1663 H 0.43585 0.95846 0.64835 0.0
C1664 C 0.32463 0.8492 0.70582 0.0
C1665 C 0.31678 0.81515 0.69196 0.0
C1666 C 0.34147 0.87177 0.68661 0.0
C1667 C 0.35091 0.86077 0.65316 0.0
C1668 C 0.34223 0.82659 0.63901 0.0
C1669 C 0.32517 0.80406 0.65811 0.0
C1670 C 0.38651 0.90047 0.57934 0.0
C1671 C 0.41197 0.92955 0.5973 0.0
C1672 C 0.36619 0.87837 0.59745 0.0
C1673 C 0.37104 0.88491 0.63384 0.0
C1674 C 0.39624 0.91428 0.6517 0.0
C1675 C 0.41636 0.93634 0.63369 0.0
H1676 H 0.14427 0.33584 0.6793 0.0
H1677 H 0.21865 0.43464 0.70288 0.0
H1678 H 0.10876 0.35485 0.65212 0.0
H1679 H 0.18372 0.45351 0.67535 0.0
H1680 H 0.10158 0.48615 0.66009 0.0
H1681 H 0.13608 0.46534 0.68541 0.0
H1682 H 0.10027 0.37438 0.60369 0.0
H1683 H 0.06442 0.39454 0.57934 0.0
C1684 C 0.15318 0.3615 0.67829 0.0
C1685 C 0.18414 0.38379 0.69361 0.0
C1686 C 0.13286 0.37244 0.66268 0.0
C1687 C 0.14314 0.40589 0.66182 0.0
C1688 C 0.17454 0.42782 0.67625 0.0
C1689 C 0.19467 0.41695 0.69197 0.0
C1690 C 0.10072 0.46155 0.64767 0.0
C1691 C 0.08008 0.44211 0.61759 0.0
C1692 C 0.12091 0.44974 0.66197 0.0
C1693 C 0.12122 0.41817 0.64656 0.0
C1694 C 0.10055 0.39867 0.6165 0.0
C1695 C 0.08026 0.41046 0.60224 0.0
H1696 H 0.74732 0.17414 0.63727 0.0
H1697 H 0.66636 0.18017 0.69798 0.0
H1698 H 0.70935 0.13932 0.58668 0.0
H1699 H 0.6288 0.14584 0.6477 0.0
H1700 H 0.56733 0.10776 0.554 0.0
H1701 H 0.61517 0.15046 0.58935 0.0
H1702 H 0.66391 0.08182 0.57029 0.0
H1703 H 0.61612 0.03939 0.53387 0.0
C1704 C 0.72145 0.16796 0.63984 0.0
C1705 C 0.70974 0.18013 0.67146 0.0
C1706 C 0.69985 0.14823 0.61087 0.0
C1707 C 0.6663 0.1406 0.61309 0.0
C1708 C 0.65467 0.15221 0.64493 0.0
C1709 C 0.67613 0.17165 0.67382 0.0
C1710 C 0.58894 0.10247 0.55601 0.0
C1711 C 0.58836 0.07059 0.54156 0.0
C1712 C 0.6161 0.12667 0.57648 0.0
C1713 C 0.64273 0.11902 0.5833 0.0
C1714 C 0.64363 0.08828 0.56546 0.0
C1715 C 0.61645 0.06409 0.54453 0.0
H1716 H 0.81805 0.35328 0.32111 0.0
H1717 H 0.82828 0.2696 0.34632 0.0
H1718 H 0.85498 0.39045 0.37131 0.0
H1719 H 0.86532 0.30689 0.39641 0.0
H1720 H 0.97175 0.39102 0.42333 0.0
H1721 H 0.92182 0.34746 0.39325 0.0
H1722 H 0.8678 0.40821 0.43733 0.0
H1723 H 0.91831 0.45194 0.46812 0.0
C1724 C 0.82755 0.34273 0.33781 0.0
C1725 C 0.82066 0.30856 0.32942 0.0
C1726 C 0.84851 0.36402 0.36673 0.0
C1727 C 0.8631 0.35154 0.38767 0.0
C1728 C 0.85456 0.31717 0.38056 0.0
C1729 C 0.8335 0.29588 0.35178 0.0
C1730 C 0.94897 0.39448 0.42766 0.0
C1731 C 0.94865 0.42462 0.44788 0.0
C1732 C 0.92035 0.36955 0.41052 0.0
C1733 C 0.89096 0.37456 0.41274 0.0
C1734 C 0.8902 0.40383 0.4351 0.0
C1735 C 0.91891 0.42864 0.4529 0.0
H1736 H 0.75611 0.84848 0.29462 0.0
H1737 H 0.68789 0.76044 0.31975 0.0
H1738 H 0.72397 0.87949 0.32293 0.0
H1739 H 0.65598 0.79192 0.34927 0.0
H1740 H 0.58845 0.85113 0.36666 0.0
H1741 H 0.62013 0.81848 0.34019 0.0
H1742 H 0.70906 0.90377 0.37733 0.0
H1743 H 0.67752 0.93665 0.40242 0.0
C1744 C 0.73438 0.83566 0.30649 0.0
C1745 C 0.72494 0.80176 0.30492 0.0
C1746 C 0.71592 0.85368 0.32309 0.0
C1747 C 0.68721 0.83856 0.33884 0.0
C1748 C 0.6777 0.80458 0.33731 0.0
C1749 C 0.69626 0.78649 0.32063 0.0
C1750 C 0.61476 0.86307 0.36906 0.0
C1751 C 0.63014 0.89685 0.38682 0.0
C1752 C 0.63305 0.84411 0.35414 0.0
C1753 C 0.66741 0.85825 0.35627 0.0
C1754 C 0.68275 0.89186 0.3745 0.0
C1755 C 0.6645 0.91076 0.38945 0.0
H1756 H 0.17652 0.66702 0.26764 0.0
H1757 H 0.24625 0.72218 0.35582 0.0
H1758 H 0.14517 0.62814 0.30034 0.0
H1759 H 0.2136 0.68457 0.39002 0.0
H1760 H 0.16121 0.59219 0.4311 0.0
H1761 H 0.19578 0.632 0.40002 0.0
H1762 H 0.10978 0.6229 0.34346 0.0
H1763 H 0.07622 0.58152 0.37238 0.0
C1764 C 0.1847 0.67111 0.29442 0.0
C1765 C 0.21342 0.6977 0.3095 0.0
C1766 C 0.16664 0.64896 0.31335 0.0
C1767 C 0.17632 0.65344 0.34826 0.0
C1768 C 0.20541 0.68008 0.36321 0.0
C1769 C 0.22398 0.70182 0.34383 0.0
C1770 C 0.14999 0.59894 0.412 0.0
C1771 C 0.11627 0.58368 0.40369 0.0
C1772 C 0.16967 0.62184 0.3943 0.0
C1773 C 0.15575 0.63043 0.36867 0.0
C1774 C 0.12168 0.61615 0.36195 0.0
C1775 C 0.1023 0.59266 0.37878 0.0
H1776 H 0.40187 0.19593 0.37534 0.0
H1777 H 0.37867 0.12492 0.27509 0.0
H1778 H 0.42093 0.16019 0.39856 0.0
H1779 H 0.39688 0.08888 0.29822 0.0
H1780 H 0.47668 0.06059 0.33441 0.0
H1781 H 0.44901 0.09074 0.31414 0.0
H1782 H 0.40935 0.10853 0.41443 0.0
H1783 H 0.43724 0.07819 0.43484 0.0
C1784 C 0.40001 0.17226 0.35857 0.0
C1785 C 0.38911 0.16338 0.32333 0.0
C1786 C 0.41096 0.15174 0.37181 0.0
C1787 C 0.41107 0.12184 0.35011 0.0
C1788 C 0.39804 0.11208 0.31548 0.0
C1789 C 0.38734 0.13262 0.30226 0.0
C1790 C 0.46161 0.07036 0.35203 0.0
C1791 C 0.45921 0.06678 0.38628 0.0
C1792 C 0.44566 0.08773 0.34037 0.0
C1793 C 0.42672 0.10205 0.36255 0.0
C1794 C 0.42398 0.09819 0.39672 0.0
C1795 C 0.43999 0.08077 0.40843 0.0
H1796 H 0.63359 0.80129 0.61769 0.0
H1797 H 0.64657 0.87171 0.71748 0.0
H1798 H 0.61647 0.83593 0.59057 0.0
H1799 H 0.62846 0.90567 0.69079 0.0
H1800 H 0.61199 0.97131 0.62999 0.0
H1801 H 0.63917 0.94106 0.65164 0.0
H1802 H 0.56819 0.84856 0.59117 0.0
H1803 H 0.54118 0.87865 0.5696 0.0
C1804 C 0.63332 0.82442 0.63373 0.0
C1805 C 0.64111 0.83354 0.6698 0.0
C1806 C 0.62312 0.8441 0.61828 0.0
C1807 C 0.62063 0.87344 0.63853 0.0
C1808 C 0.63019 0.8834 0.67428 0.0
C1809 C 0.6403 0.86374 0.68969 0.0
C1810 C 0.6022 0.94452 0.62132 0.0
C1811 C 0.57433 0.92749 0.59805 0.0
C1812 C 0.61782 0.92715 0.63369 0.0
C1813 C 0.60594 0.8923 0.62317 0.0
C1814 C 0.57847 0.87537 0.59936 0.0
C1815 C 0.56289 0.8927 0.587 0.0
H1816 H 0.71376 0.13877 0.25167 0.0
H1817 H 0.72614 0.21966 0.34226 0.0
H1818 H 0.683 0.09937 0.28451 0.0
H1819 H 0.6933 0.18053 0.37444 0.0
H1820 H 0.65664 0.09971 0.43269 0.0
H1821 H 0.69258 0.13808 0.40111 0.0
H1822 H 0.6308 0.08147 0.30682 0.0
H1823 H 0.59583 0.0428 0.33791 0.0
C1824 C 0.71008 0.1481 0.27869 0.0
C1825 C 0.72249 0.18224 0.29445 0.0
C1826 C 0.692 0.12558 0.29739 0.0
C1827 C 0.68552 0.13675 0.33214 0.0
C1828 C 0.69818 0.17098 0.34793 0.0
C1829 C 0.71661 0.19345 0.32933 0.0
C1830 C 0.65096 0.09542 0.40516 0.0
C1831 C 0.62348 0.0682 0.38779 0.0
C1832 C 0.67141 0.11748 0.3871 0.0
C1833 C 0.66464 0.11286 0.35136 0.0
C1834 C 0.63718 0.0855 0.33411 0.0
C1835 C 0.61696 0.06339 0.35204 0.0
H1836 H 0.82682 0.59311 0.30116 0.0
H1837 H 0.80561 0.6155 0.40916 0.0
H1838 H 0.86832 0.5744 0.31652 0.0
H1839 H 0.84689 0.59668 0.42446 0.0
H1840 H 0.94903 0.59652 0.44186 0.0
H1841 H 0.90759 0.61457 0.42598 0.0
H1842 H 0.8718 0.5281 0.3391 0.0
H1843 H 0.91253 0.50924 0.35552 0.0
C1844 C 0.83107 0.59412 0.32818 0.0
C1845 C 0.81284 0.60576 0.35391 0.0
C1846 C 0.85466 0.58315 0.33694 0.0
C1847 C 0.86095 0.58403 0.37173 0.0
C1848 C 0.84285 0.59589 0.39746 0.0
C1849 C 0.81899 0.60642 0.38865 0.0
C1850 C 0.93209 0.58095 0.41967 0.0
C1851 C 0.93429 0.5512 0.40018 0.0
C1852 C 0.90836 0.59146 0.41047 0.0
C1853 C 0.88633 0.5728 0.38128 0.0
C1854 C 0.88863 0.54328 0.36151 0.0
C1855 C 0.91214 0.53252 0.37093 0.0
H1856 H 0.3682 0.81796 0.29721 0.0
H1857 H 0.28733 0.82326 0.35854 0.0
H1858 H 0.40589 0.8527 0.34692 0.0
H1859 H 0.32576 0.85879 0.40886 0.0
H1860 H 0.42203 0.96029 0.45679 0.0
H1861 H 0.37255 0.91737 0.42367 0.0
H1862 H 0.41937 0.84714 0.40553 0.0
H1863 H 0.46894 0.8903 0.43736 0.0
C1864 C 0.35843 0.82647 0.32139 0.0
C1865 C 0.32477 0.81755 0.32406 0.0
C1866 C 0.38004 0.84613 0.34999 0.0
C1867 C 0.36862 0.85762 0.38198 0.0
C1868 C 0.33505 0.84981 0.38456 0.0
C1869 C 0.3132 0.82974 0.35577 0.0
C1870 C 0.42099 0.93522 0.44712 0.0
C1871 C 0.44902 0.92834 0.44903 0.0
C1872 C 0.39279 0.91072 0.42816 0.0
C1873 C 0.39263 0.87932 0.41134 0.0
C1874 C 0.41923 0.87142 0.41768 0.0
C1875 C 0.44743 0.89593 0.43605 0.0
H1876 H 0.2632 0.35031 0.32203 0.0
H1877 H 0.17247 0.26519 0.30233 0.0
H1878 H 0.23482 0.38515 0.35249 0.0
H1879 H 0.14384 0.29996 0.33123 0.0
H1880 H 0.10306 0.36525 0.40926 0.0
H1881 H 0.13341 0.33092 0.38407 0.0
H1882 H 0.19847 0.40994 0.34234 0.0
H1883 H 0.16831 0.4443 0.36779 0.0
C1884 C 0.23718 0.33899 0.32414 0.0
C1885 C 0.22009 0.30497 0.30899 0.0
C1886 C 0.22075 0.35908 0.34136 0.0
C1887 C 0.18671 0.34572 0.34413 0.0
C1888 C 0.16995 0.31141 0.32997 0.0
C1889 C 0.18638 0.29141 0.31283 0.0
C1890 C 0.12374 0.37533 0.39459 0.0
C1891 C 0.13303 0.40777 0.39075 0.0
C1892 C 0.14125 0.35552 0.38002 0.0
C1893 C 0.16863 0.36738 0.36093 0.0
C1894 C 0.17802 0.39992 0.3573 0.0
C1895 C 0.16057 0.41974 0.37196 0.0
H1896 H 0.30965 0.20376 0.64366 0.0
H1897 H 0.33584 0.19054 0.7408 0.0
H1898 H 0.34201 0.17354 0.61309 0.0
H1899 H 0.36686 0.15912 0.71034 0.0
H1900 H 0.44308 0.12665 0.65272 0.0
H1901 H 0.41428 0.16124 0.68146 0.0
H1902 H 0.3434 0.11986 0.59349 0.0
H1903 H 0.37322 0.08648 0.56391 0.0
C1904 C 0.32228 0.19452 0.65858 0.0
C1905 C 0.31969 0.19958 0.69478 0.0
C1906 C 0.34068 0.17674 0.64094 0.0
C1907 C 0.35719 0.16346 0.65896 0.0
C1908 C 0.35503 0.16912 0.69531 0.0
C1909 C 0.33675 0.18694 0.71286 0.0
C1910 C 0.42171 0.12524 0.63908 0.0
C1911 C 0.41074 0.10348 0.60572 0.0
C1912 C 0.40477 0.14487 0.65592 0.0
C1913 C 0.37613 0.14345 0.64015 0.0
C1914 C 0.36542 0.12208 0.60657 0.0
C1915 C 0.38241 0.10248 0.58968 0.0
H1916 H 0.78521 0.27341 0.63952 0.0
H1917 H 0.86857 0.31395 0.71369 0.0
H1918 H 0.81433 0.3133 0.6061 0.0
H1919 H 0.89772 0.35348 0.68018 0.0
H1920 H 0.91779 0.44639 0.64345 0.0
H1921 H 0.88779 0.40243 0.67109 0.0
H1922 H 0.8645 0.33107 0.5709 0.0
H1923 H 0.89461 0.37538 0.54284 0.0
C1924 C 0.80997 0.29047 0.64826 0.0
C1925 C 0.8246 0.29088 0.67927 0.0
C1926 C 0.82662 0.31314 0.62911 0.0
C1927 C 0.85806 0.33669 0.64085 0.0
C1928 C 0.87327 0.33589 0.67089 0.0
C1929 C 0.85674 0.31308 0.68985 0.0
C1930 C 0.90609 0.42141 0.62716 0.0
C1931 C 0.90876 0.41431 0.59096 0.0
C1932 C 0.88915 0.39621 0.64308 0.0
C1933 C 0.8744 0.36331 0.62319 0.0
C1934 C 0.87579 0.35627 0.58681 0.0
C1935 C 0.89296 0.38158 0.57079 0.0
H1936 H 0.20489 0.72852 0.64197 0.0
H1937 H 0.22795 0.64835 0.65929 0.0
H1938 H 0.16364 0.68937 0.59646 0.0
H1939 H 0.18653 0.60925 0.61359 0.0
H1940 H 0.11232 0.54644 0.52196 0.0
H1941 H 0.16423 0.59087 0.54877 0.0
H1942 H 0.11112 0.64638 0.60871 0.0
H1943 H 0.05995 0.60223 0.58263 0.0
C1944 C 0.20163 0.70266 0.63568 0.0
C1945 C 0.21916 0.69144 0.6549 0.0
C1946 C 0.17807 0.6803 0.6095 0.0
C1947 C 0.1717 0.64629 0.60179 0.0
C1948 C 0.19111 0.63539 0.61887 0.0
C1949 C 0.21466 0.65778 0.64523 0.0
C1950 C 0.11203 0.56863 0.54015 0.0
C1951 C 0.08237 0.57105 0.55048 0.0
C1952 C 0.14157 0.59385 0.55558 0.0
C1953 C 0.14163 0.62201 0.58078 0.0
C1954 C 0.11188 0.6252 0.58908 0.0
C1955 C 0.08258 0.59986 0.57432 0.0
loop_
_geom_bond_atom_site_label_1
_geom_bond_atom_site_label_2
_geom_bond_distance
_geom_bond_site_symmetry_2
_ccdc_geom_bond_type
Tb0 N29 2.617 . S
Tb0 N35 2.572 . S
Tb0 O44 2.465 . S
Tb0 O45 2.387 . S
Tb0 O47 2.428 . S
Tb0 O48 2.308 . S
Tb0 O52 2.349 . S
Tb0 O55 2.393 . S
Tb0 C64 2.802 . S
C1 N2 1.379 . S
C1 C4 1.416 . S
C1 C8 1.424 . S
N2 C1 1.379 . S
N2 C5 1.334 . S
N2 Tb11 2.617 . S
C3 C5 1.390 . S
C3 C6 1.339 . S
C3 H23 0.930 . S
C4 C1 1.416 . S
C4 C6 1.416 . S
C4 C10 1.448 . S
C5 N2 1.334 . S
C5 C3 1.390 . S
C5 H16 0.930 . S
C6 C3 1.339 . S
C6 C4 1.416 . S
C6 H27 0.930 . S
C7 C8 1.413 . S
C7 C9 1.427 . S
C7 C13 1.416 . S
C8 C1 1.424 . S
C8 C7 1.413 . S
C8 N12 1.361 . S
C9 C7 1.427 . S
C9 C10 1.328 . S
C9 H24 0.929 . S
C10 C4 1.448 . S
C10 C9 1.328 . S
C10 H25 0.930 . S
Tb11 N2 2.617 . S
Tb11 N12 2.572 . S
Tb11 O46 2.349 . S
Tb11 O49 2.393 . S
Tb11 O50 2.465 . S
Tb11 O51 2.387 . S
Tb11 O53 2.428 . S
Tb11 O54 2.308 . S
Tb11 C75 2.802 . S
N12 C8 1.361 . S
N12 Tb11 2.572 . S
N12 C14 1.340 . S
C13 C7 1.416 . S
C13 C15 1.332 . S
C13 H21 0.931 . S
C14 N12 1.340 . S
C14 C15 1.407 . S
C14 H20 0.930 . S
C15 C13 1.332 . S
C15 C14 1.407 . S
C15 H17 0.929 . S
H16 C5 0.930 . S
H17 C15 0.929 . S
H18 C33 0.930 . S
H19 C40 0.929 . S
H20 C14 0.930 . S
H21 C13 0.931 . S
H22 C36 0.930 . S
H23 C3 0.930 . S
H24 C9 0.929 . S
H25 C10 0.930 . S
H26 C31 0.930 . S
H27 C6 0.930 . S
H28 C39 0.931 . S
N29 Tb0 2.617 . S
N29 C30 1.379 . S
N29 C33 1.334 . S
C30 N29 1.379 . S
C30 C32 1.416 . S
C30 C38 1.424 . S
C31 H26 0.930 . S
C31 C33 1.390 . S
C31 C34 1.339 . S
C32 C30 1.416 . S
C32 C34 1.416 . S
C32 C65 1.448 . S
C33 H18 0.930 . S
C33 N29 1.334 . S
C33 C31 1.390 . S
C34 C31 1.339 . S
C34 C32 1.416 . S
C34 H41 0.930 . S
N35 Tb0 2.572 . S
N35 C36 1.340 . S
N35 C38 1.361 . S
C36 H22 0.930 . S
C36 N35 1.340 . S
C36 C40 1.407 . S
C37 C38 1.413 . S
C37 C39 1.416 . S
C37 C66 1.427 . S
C38 C30 1.424 . S
C38 N35 1.361 . S
C38 C37 1.413 . S
C39 H28 0.931 . S
C39 C37 1.416 . S
C39 C40 1.332 . S
C40 H19 0.929 . S
C40 C36 1.407 . S
C40 C39 1.332 . S
H41 C34 0.930 . S
H42 C65 0.930 . S
H43 C66 0.929 . S
O44 Tb0 2.465 . S
O44 C64 1.264 . S
O45 Tb0 2.387 . S
O45 C56 1.264 . S
O46 Tb11 2.349 . S
O46 C56 1.243 . S
O47 Tb0 2.428 . S
O47 C64 1.256 . S
O48 Tb0 2.308 . S
O48 C63 1.266 . S
O49 Tb11 2.393 . S
O49 C63 1.248 . S
O50 Tb11 2.465 . S
O50 C75 1.264 . S
O51 Tb11 2.387 . S
O51 C67 1.264 . S
O52 Tb0 2.349 . S
O52 C67 1.243 . S
O53 Tb11 2.428 . S
O53 C75 1.256 . S
O54 Tb11 2.308 . S
O54 C74 1.266 . S
O55 Tb0 2.393 . S
O55 C74 1.248 . S
C56 O45 1.264 . S
C56 O46 1.243 . S
C57 C60 1.399 . S
C57 C62 1.383 . S
C57 C64 1.496 . S
C58 C59 1.399 . S
C58 C62 1.389 . S
C59 C58 1.399 . S
C59 C61 1.380 . S
C59 H76 0.929 . S
C60 C57 1.399 . S
C60 C61 1.392 . S
C60 H77 0.929 . S
C61 C59 1.380 . S
C61 C60 1.392 . S
C61 H78 0.929 . S
C62 C57 1.383 . S
C62 C58 1.389 . S
C62 H79 0.931 . S
C63 O48 1.266 . S
C63 O49 1.248 . S
C64 Tb0 2.802 . S
C64 O44 1.264 . S
C64 O47 1.256 . S
C64 C57 1.496 . S
C65 C32 1.448 . S
C65 H42 0.930 . S
C65 C66 1.328 . S
C66 C37 1.427 . S
C66 H43 0.929 . S
C66 C65 1.328 . S
C67 O51 1.264 . S
C67 O52 1.243 . S
C68 C71 1.399 . S
C68 C72 1.383 . S
C68 C75 1.496 . S
C69 C70 1.399 . S
C69 C72 1.389 . S
C70 C69 1.399 . S
C70 C73 1.380 . S
C70 H80 0.929 . S
C71 C68 1.399 . S
C71 C73 1.392 . S
C71 H81 0.929 . S
C72 C68 1.383 . S
C72 C69 1.389 . S
C72 H82 0.931 . S
C73 C70 1.380 . S
C73 C71 1.392 . S
C73 H83 0.929 . S
C74 O54 1.266 . S
C74 O55 1.248 . S
C75 Tb11 2.802 . S
C75 O50 1.264 . S
C75 O53 1.256 . S
C75 C68 1.496 . S
H76 C59 0.929 . S
H77 C60 0.929 . S
H78 C61 0.929 . S
H79 C62 0.931 . S
H80 C70 0.929 . S
H81 C71 0.929 . S
H82 C72 0.931 . S
H83 C73 0.929 . S
Tb84 N113 2.617 . S
Tb84 N119 2.572 . S
Tb84 O128 2.465 . S
Tb84 O129 2.387 . S
Tb84 O131 2.428 . S
Tb84 O132 2.308 . S
Tb84 O136 2.349 . S
Tb84 O139 2.393 . S
Tb84 C148 2.802 . S
C85 N86 1.379 . S
C85 C88 1.416 . S
C85 C92 1.424 . S
N86 C85 1.379 . S
N86 C89 1.334 . S
N86 Tb95 2.617 . S
C87 C89 1.390 . S
C87 C90 1.339 . S
C87 H107 0.930 . S
C88 C85 1.416 . S
C88 C90 1.416 . S
C88 C94 1.448 . S
C89 N86 1.334 . S
C89 C87 1.390 . S
C89 H100 0.930 . S
C90 C87 1.339 . S
C90 C88 1.416 . S
C90 H111 0.930 . S
C91 C92 1.413 . S
C91 C93 1.427 . S
C91 C97 1.416 . S
C92 C85 1.424 . S
C92 C91 1.413 . S
C92 N96 1.361 . S
C93 C91 1.427 . S
C93 C94 1.328 . S
C93 H108 0.929 . S
C94 C88 1.448 . S
C94 C93 1.328 . S
C94 H109 0.930 . S
Tb95 N86 2.617 . S
Tb95 N96 2.572 . S
Tb95 O130 2.349 . S
Tb95 O133 2.393 . S
Tb95 O134 2.465 . S
Tb95 O135 2.387 . S
Tb95 O137 2.428 . S
Tb95 O138 2.308 . S
Tb95 C159 2.802 . S
N96 C92 1.361 . S
N96 Tb95 2.572 . S
N96 C98 1.340 . S
C97 C91 1.416 . S
C97 C99 1.332 . S
C97 H105 0.931 . S
C98 N96 1.340 . S
C98 C99 1.407 . S
C98 H104 0.930 . S
C99 C97 1.332 . S
C99 C98 1.407 . S
C99 H101 0.929 . S
H100 C89 0.930 . S
H101 C99 0.929 . S
H102 C117 0.930 . S
H103 C124 0.929 . S
H104 C98 0.930 . S
H105 C97 0.931 . S
H106 C120 0.930 . S
H107 C87 0.930 . S
H108 C93 0.929 . S
H109 C94 0.930 . S
H110 C115 0.930 . S
H111 C90 0.930 . S
H112 C123 0.931 . S
N113 Tb84 2.617 . S
N113 C114 1.379 . S
N113 C117 1.334 . S
C114 N113 1.379 . S
C114 C116 1.416 . S
C114 C122 1.424 . S
C115 H110 0.930 . S
C115 C117 1.390 . S
C115 C118 1.339 . S
C116 C114 1.416 . S
C116 C118 1.416 . S
C116 C149 1.448 . S
C117 H102 0.930 . S
C117 N113 1.334 . S
C117 C115 1.390 . S
C118 C115 1.339 . S
C118 C116 1.416 . S
C118 H125 0.930 . S
N119 Tb84 2.572 . S
N119 C120 1.340 . S
N119 C122 1.361 . S
C120 H106 0.930 . S
C120 N119 1.340 . S
C120 C124 1.407 . S
C121 C122 1.413 . S
C121 C123 1.416 . S
C121 C150 1.427 . S
C122 C114 1.424 . S
C122 N119 1.361 . S
C122 C121 1.413 . S
C123 H112 0.931 . S
C123 C121 1.416 . S
C123 C124 1.332 . S
C124 H103 0.929 . S
C124 C120 1.407 . S
C124 C123 1.332 . S
H125 C118 0.930 . S
H126 C149 0.930 . S
H127 C150 0.929 . S
O128 Tb84 2.465 . S
O128 C148 1.264 . S
O129 Tb84 2.387 . S
O129 C140 1.264 . S
O130 Tb95 2.349 . S
O130 C140 1.243 . S
O131 Tb84 2.428 . S
O131 C148 1.256 . S
O132 Tb84 2.308 . S
O132 C147 1.266 . S
O133 Tb95 2.393 . S
O133 C147 1.248 . S
O134 Tb95 2.465 . S
O134 C159 1.264 . S
O135 Tb95 2.387 . S
O135 C151 1.264 . S
O136 Tb84 2.349 . S
O136 C151 1.243 . S
O137 Tb95 2.428 . S
O137 C159 1.256 . S
O138 Tb95 2.308 . S
O138 C158 1.266 . S
O139 Tb84 2.393 . S
O139 C158 1.248 . S
C140 O129 1.264 . S
C140 O130 1.243 . S
C141 C144 1.399 . S
C141 C146 1.383 . S
C141 C148 1.496 . S
C142 C143 1.399 . S
C142 C146 1.389 . S
C143 C142 1.399 . S
C143 C145 1.380 . S
C143 H160 0.929 . S
C144 C141 1.399 . S
C144 C145 1.392 . S
C144 H161 0.929 . S
C145 C143 1.380 . S
C145 C144 1.392 . S
C145 H162 0.929 . S
C146 C141 1.383 . S
C146 C142 1.389 . S
C146 H163 0.931 . S
C147 O132 1.266 . S
C147 O133 1.248 . S
C148 Tb84 2.802 . S
C148 O128 1.264 . S
C148 O131 1.256 . S
C148 C141 1.496 . S
C149 C116 1.448 . S
C149 H126 0.930 . S
C149 C150 1.328 . S
C150 C121 1.427 . S
C150 H127 0.929 . S
C150 C149 1.328 . S
C151 O135 1.264 . S
C151 O136 1.243 . S
C152 C155 1.399 . S
C152 C156 1.383 . S
C152 C159 1.496 . S
C153 C154 1.399 . S
C153 C156 1.389 . S
C154 C153 1.399 . S
C154 C157 1.380 . S
C154 H164 0.929 . S
C155 C152 1.399 . S
C155 C157 1.392 . S
C155 H165 0.929 . S
C156 C152 1.383 . S
C156 C153 1.389 . S
C156 H166 0.931 . S
C157 C154 1.380 . S
C157 C155 1.392 . S
C157 H167 0.929 . S
C158 O138 1.266 . S
C158 O139 1.248 . S
C159 Tb95 2.802 . S
C159 O134 1.264 . S
C159 O137 1.256 . S
C159 C152 1.496 . S
H160 C143 0.929 . S
H161 C144 0.929 . S
H162 C145 0.929 . S
H163 C146 0.931 . S
H164 C154 0.929 . S
H165 C155 0.929 . S
H166 C156 0.931 . S
H167 C157 0.929 . S
Tb168 N197 2.617 . S
Tb168 N203 2.572 . S
Tb168 O212 2.465 . S
Tb168 O213 2.387 . S
Tb168 O215 2.428 . S
Tb168 O216 2.308 . S
Tb168 O220 2.349 . S
Tb168 O223 2.393 . S
Tb168 C232 2.802 . S
C169 N170 1.379 . S
C169 C172 1.416 . S
C169 C176 1.424 . S
N170 C169 1.379 . S
N170 C173 1.334 . S
N170 Tb179 2.617 . S
C171 C173 1.390 . S
C171 C174 1.339 . S
C171 H191 0.930 . S
C172 C169 1.416 . S
C172 C174 1.416 . S
C172 C178 1.448 . S
C173 N170 1.334 . S
C173 C171 1.390 . S
C173 H184 0.930 . S
C174 C171 1.339 . S
C174 C172 1.416 . S
C174 H195 0.930 . S
C175 C176 1.413 . S
C175 C177 1.427 . S
C175 C181 1.416 . S
C176 C169 1.424 . S
C176 C175 1.413 . S
C176 N180 1.361 . S
C177 C175 1.427 . S
C177 C178 1.328 . S
C177 H192 0.929 . S
C178 C172 1.448 . S
C178 C177 1.328 . S
C178 H193 0.930 . S
Tb179 N170 2.617 . S
Tb179 N180 2.572 . S
Tb179 O214 2.349 . S
Tb179 O217 2.393 . S
Tb179 O218 2.465 . S
Tb179 O219 2.387 . S
Tb179 O221 2.428 . S
Tb179 O222 2.308 . S
Tb179 C243 2.802 . S
N180 C176 1.361 . S
N180 Tb179 2.572 . S
N180 C182 1.340 . S
C181 C175 1.416 . S
C181 C183 1.332 . S
C181 H189 0.931 . S
C182 N180 1.340 . S
C182 C183 1.407 . S
C182 H188 0.930 . S
C183 C181 1.332 . S
C183 C182 1.407 . S
C183 H185 0.929 . S
H184 C173 0.930 . S
H185 C183 0.929 . S
H186 C201 0.930 . S
H187 C208 0.929 . S
H188 C182 0.930 . S
H189 C181 0.931 . S
H190 C204 0.930 . S
H191 C171 0.930 . S
H192 C177 0.929 . S
H193 C178 0.930 . S
H194 C199 0.930 . S
H195 C174 0.930 . S
H196 C207 0.931 . S
N197 Tb168 2.617 . S
N197 C198 1.379 . S
N197 C201 1.334 . S
C198 N197 1.379 . S
C198 C200 1.416 . S
C198 C206 1.424 . S
C199 H194 0.930 . S
C199 C201 1.390 . S
C199 C202 1.339 . S
C200 C198 1.416 . S
C200 C202 1.416 . S
C200 C233 1.448 . S
C201 H186 0.930 . S
C201 N197 1.334 . S
C201 C199 1.390 . S
C202 C199 1.339 . S
C202 C200 1.416 . S
C202 H209 0.930 . S
N203 Tb168 2.572 . S
N203 C204 1.340 . S
N203 C206 1.361 . S
C204 H190 0.930 . S
C204 N203 1.340 . S
C204 C208 1.407 . S
C205 C206 1.413 . S
C205 C207 1.416 . S
C205 C234 1.427 . S
C206 C198 1.424 . S
C206 N203 1.361 . S
C206 C205 1.413 . S
C207 H196 0.931 . S
C207 C205 1.416 . S
C207 C208 1.332 . S
C208 H187 0.929 . S
C208 C204 1.407 . S
C208 C207 1.332 . S
H209 C202 0.930 . S
H210 C233 0.930 . S
H211 C234 0.929 . S
O212 Tb168 2.465 . S
O212 C232 1.264 . S
O213 Tb168 2.387 . S
O213 C224 1.264 . S
O214 Tb179 2.349 . S
O214 C224 1.243 . S
O215 Tb168 2.428 . S
O215 C232 1.256 . S
O216 Tb168 2.308 . S
O216 C231 1.266 . S
O217 Tb179 2.393 . S
O217 C231 1.248 . S
O218 Tb179 2.465 . S
O218 C243 1.264 . S
O219 Tb179 2.387 . S
O219 C235 1.264 . S
O220 Tb168 2.349 . S
O220 C235 1.243 . S
O221 Tb179 2.428 . S
O221 C243 1.256 . S
O222 Tb179 2.308 . S
O222 C242 1.266 . S
O223 Tb168 2.393 . S
O223 C242 1.248 . S
C224 O213 1.264 . S
C224 O214 1.243 . S
C225 C228 1.399 . S
C225 C230 1.383 . S
C225 C232 1.496 . S
C226 C227 1.399 . S
C226 C230 1.389 . S
C227 C226 1.399 . S
C227 C229 1.380 . S
C227 H244 0.929 . S
C228 C225 1.399 . S
C228 C229 1.392 . S
C228 H245 0.929 . S
C229 C227 1.380 . S
C229 C228 1.392 . S
C229 H246 0.929 . S
C230 C225 1.383 . S
C230 C226 1.389 . S
C230 H247 0.931 . S
C231 O216 1.266 . S
C231 O217 1.248 . S
C232 Tb168 2.802 . S
C232 O212 1.264 . S
C232 O215 1.256 . S
C232 C225 1.496 . S
C233 C200 1.448 . S
C233 H210 0.930 . S
C233 C234 1.328 . S
C234 C205 1.427 . S
C234 H211 0.929 . S
C234 C233 1.328 . S
C235 O219 1.264 . S
C235 O220 1.243 . S
C236 C239 1.399 . S
C236 C240 1.383 . S
C236 C243 1.496 . S
C237 C238 1.399 . S
C237 C240 1.389 . S
C238 C237 1.399 . S
C238 C241 1.380 . S
C238 H248 0.929 . S
C239 C236 1.399 . S
C239 C241 1.392 . S
C239 H249 0.929 . S
C240 C236 1.383 . S
C240 C237 1.389 . S
C240 H250 0.931 . S
C241 C238 1.380 . S
C241 C239 1.392 . S
C241 H251 0.929 . S
C242 O222 1.266 . S
C242 O223 1.248 . S
C243 Tb179 2.802 . S
C243 O218 1.264 . S
C243 O221 1.256 . S
C243 C236 1.496 . S
H244 C227 0.929 . S
H245 C228 0.929 . S
H246 C229 0.929 . S
H247 C230 0.931 . S
H248 C238 0.929 . S
H249 C239 0.929 . S
H250 C240 0.931 . S
H251 C241 0.929 . S
Tb252 N281 2.617 . S
Tb252 N287 2.572 . S
Tb252 O296 2.465 . S
Tb252 O297 2.387 . S
Tb252 O299 2.428 . S
Tb252 O300 2.308 . S
Tb252 O304 2.349 . S
Tb252 O307 2.393 . S
Tb252 C316 2.802 . S
C253 N254 1.379 . S
C253 C256 1.416 . S
C253 C260 1.424 . S
N254 C253 1.379 . S
N254 C257 1.334 . S
N254 Tb263 2.617 . S
C255 C257 1.390 . S
C255 C258 1.339 . S
C255 H275 0.930 . S
C256 C253 1.416 . S
C256 C258 1.416 . S
C256 C262 1.448 . S
C257 N254 1.334 . S
C257 C255 1.390 . S
C257 H268 0.930 . S
C258 C255 1.339 . S
C258 C256 1.416 . S
C258 H279 0.930 . S
C259 C260 1.413 . S
C259 C261 1.427 . S
C259 C265 1.416 . S
C260 C253 1.424 . S
C260 C259 1.413 . S
C260 N264 1.361 . S
C261 C259 1.427 . S
C261 C262 1.328 . S
C261 H276 0.929 . S
C262 C256 1.448 . S
C262 C261 1.328 . S
C262 H277 0.930 . S
Tb263 N254 2.617 . S
Tb263 N264 2.572 . S
Tb263 O298 2.349 . S
Tb263 O301 2.393 . S
Tb263 O302 2.465 . S
Tb263 O303 2.387 . S
Tb263 O305 2.428 . S
Tb263 O306 2.308 . S
Tb263 C327 2.802 . S
N264 C260 1.361 . S
N264 Tb263 2.572 . S
N264 C266 1.340 . S
C265 C259 1.416 . S
C265 C267 1.332 . S
C265 H273 0.931 . S
C266 N264 1.340 . S
C266 C267 1.407 . S
C266 H272 0.930 . S
C267 C265 1.332 . S
C267 C266 1.407 . S
C267 H269 0.929 . S
H268 C257 0.930 . S
H269 C267 0.929 . S
H270 C285 0.930 . S
H271 C292 0.929 . S
H272 C266 0.930 . S
H273 C265 0.931 . S
H274 C288 0.930 . S
H275 C255 0.930 . S
H276 C261 0.929 . S
H277 C262 0.930 . S
H278 C283 0.930 . S
H279 C258 0.930 . S
H280 C291 0.931 . S
N281 Tb252 2.617 . S
N281 C282 1.379 . S
N281 C285 1.334 . S
C282 N281 1.379 . S
C282 C284 1.416 . S
C282 C290 1.424 . S
C283 H278 0.930 . S
C283 C285 1.390 . S
C283 C286 1.339 . S
C284 C282 1.416 . S
C284 C286 1.416 . S
C284 C317 1.448 . S
C285 H270 0.930 . S
C285 N281 1.334 . S
C285 C283 1.390 . S
C286 C283 1.339 . S
C286 C284 1.416 . S
C286 H293 0.930 . S
N287 Tb252 2.572 . S
N287 C288 1.340 . S
N287 C290 1.361 . S
C288 H274 0.930 . S
C288 N287 1.340 . S
C288 C292 1.407 . S
C289 C290 1.413 . S
C289 C291 1.416 . S
C289 C318 1.427 . S
C290 C282 1.424 . S
C290 N287 1.361 . S
C290 C289 1.413 . S
C291 H280 0.931 . S
C291 C289 1.416 . S
C291 C292 1.332 . S
C292 H271 0.929 . S
C292 C288 1.407 . S
C292 C291 1.332 . S
H293 C286 0.930 . S
H294 C317 0.930 . S
H295 C318 0.929 . S
O296 Tb252 2.465 . S
O296 C316 1.264 . S
O297 Tb252 2.387 . S
O297 C308 1.264 . S
O298 Tb263 2.349 . S
O298 C308 1.243 . S
O299 Tb252 2.428 . S
O299 C316 1.256 . S
O300 Tb252 2.308 . S
O300 C315 1.266 . S
O301 Tb263 2.393 . S
O301 C315 1.248 . S
O302 Tb263 2.465 . S
O302 C327 1.264 . S
O303 Tb263 2.387 . S
O303 C319 1.264 . S
O304 Tb252 2.349 . S
O304 C319 1.243 . S
O305 Tb263 2.428 . S
O305 C327 1.256 . S
O306 Tb263 2.308 . S
O306 C326 1.266 . S
O307 Tb252 2.393 . S
O307 C326 1.248 . S
C308 O297 1.264 . S
C308 O298 1.243 . S
C309 C312 1.399 . S
C309 C314 1.383 . S
C309 C316 1.496 . S
C310 C311 1.399 . S
C310 C314 1.389 . S
C311 C310 1.399 . S
C311 C313 1.380 . S
C311 H328 0.929 . S
C312 C309 1.399 . S
C312 C313 1.392 . S
C312 H329 0.929 . S
C313 C311 1.380 . S
C313 C312 1.392 . S
C313 H330 0.929 . S
C314 C309 1.383 . S
C314 C310 1.389 . S
C314 H331 0.931 . S
C315 O300 1.266 . S
C315 O301 1.248 . S
C316 Tb252 2.802 . S
C316 O296 1.264 . S
C316 O299 1.256 . S
C316 C309 1.496 . S
C317 C284 1.448 . S
C317 H294 0.930 . S
C317 C318 1.328 . S
C318 C289 1.427 . S
C318 H295 0.929 . S
C318 C317 1.328 . S
C319 O303 1.264 . S
C319 O304 1.243 . S
C320 C323 1.399 . S
C320 C324 1.383 . S
C320 C327 1.496 . S
C321 C322 1.399 . S
C321 C324 1.389 . S
C322 C321 1.399 . S
C322 C325 1.380 . S
C322 H332 0.929 . S
C323 C320 1.399 . S
C323 C325 1.392 . S
C323 H333 0.929 . S
C324 C320 1.383 . S
C324 C321 1.389 . S
C324 H334 0.931 . S
C325 C322 1.380 . S
C325 C323 1.392 . S
C325 H335 0.929 . S
C326 O306 1.266 . S
C326 O307 1.248 . S
C327 Tb263 2.802 . S
C327 O302 1.264 . S
C327 O305 1.256 . S
C327 C320 1.496 . S
H328 C311 0.929 . S
H329 C312 0.929 . S
H330 C313 0.929 . S
H331 C314 0.931 . S
H332 C322 0.929 . S
H333 C323 0.929 . S
H334 C324 0.931 . S
H335 C325 0.929 . S
Tb336 N365 2.617 . S
Tb336 N371 2.572 . S
Tb336 O380 2.465 . S
Tb336 O381 2.387 . S
Tb336 O383 2.428 . S
Tb336 O384 2.308 . S
Tb336 O388 2.349 . S
Tb336 O391 2.393 . S
Tb336 C400 2.802 . S
C337 N338 1.379 . S
C337 C340 1.416 . S
C337 C344 1.424 . S
N338 C337 1.379 . S
N338 C341 1.334 . S
N338 Tb347 2.617 . S
C339 C341 1.390 . S
C339 C342 1.339 . S
C339 H359 0.930 . S
C340 C337 1.416 . S
C340 C342 1.416 . S
C340 C346 1.448 . S
C341 N338 1.334 . S
C341 C339 1.390 . S
C341 H352 0.930 . S
C342 C339 1.339 . S
C342 C340 1.416 . S
C342 H363 0.930 . S
C343 C344 1.413 . S
C343 C345 1.427 . S
C343 C349 1.416 . S
C344 C337 1.424 . S
C344 C343 1.413 . S
C344 N348 1.361 . S
C345 C343 1.427 . S
C345 C346 1.328 . S
C345 H360 0.929 . S
C346 C340 1.448 . S
C346 C345 1.328 . S
C346 H361 0.930 . S
Tb347 N338 2.617 . S
Tb347 N348 2.572 . S
Tb347 O382 2.349 . S
Tb347 O385 2.393 . S
Tb347 O386 2.465 . S
Tb347 O387 2.387 . S
Tb347 O389 2.428 . S
Tb347 O390 2.308 . S
Tb347 C411 2.802 . S
N348 C344 1.361 . S
N348 Tb347 2.572 . S
N348 C350 1.340 . S
C349 C343 1.416 . S
C349 C351 1.332 . S
C349 H357 0.931 . S
C350 N348 1.340 . S
C350 C351 1.407 . S
C350 H356 0.930 . S
C351 C349 1.332 . S
C351 C350 1.407 . S
C351 H353 0.929 . S
H352 C341 0.930 . S
H353 C351 0.929 . S
H354 C369 0.930 . S
H355 C376 0.929 . S
H356 C350 0.930 . S
H357 C349 0.931 . S
H358 C372 0.930 . S
H359 C339 0.930 . S
H360 C345 0.929 . S
H361 C346 0.930 . S
H362 C367 0.930 . S
H363 C342 0.930 . S
H364 C375 0.931 . S
N365 Tb336 2.617 . S
N365 C366 1.379 . S
N365 C369 1.334 . S
C366 N365 1.379 . S
C366 C368 1.416 . S
C366 C374 1.424 . S
C367 H362 0.930 . S
C367 C369 1.390 . S
C367 C370 1.339 . S
C368 C366 1.416 . S
C368 C370 1.416 . S
C368 C401 1.448 . S
C369 H354 0.930 . S
C369 N365 1.334 . S
C369 C367 1.390 . S
C370 C367 1.339 . S
C370 C368 1.416 . S
C370 H377 0.930 . S
N371 Tb336 2.572 . S
N371 C372 1.340 . S
N371 C374 1.361 . S
C372 H358 0.930 . S
C372 N371 1.340 . S
C372 C376 1.407 . S
C373 C374 1.413 . S
C373 C375 1.416 . S
C373 C402 1.427 . S
C374 C366 1.424 . S
C374 N371 1.361 . S
C374 C373 1.413 . S
C375 H364 0.931 . S
C375 C373 1.416 . S
C375 C376 1.332 . S
C376 H355 0.929 . S
C376 C372 1.407 . S
C376 C375 1.332 . S
H377 C370 0.930 . S
H378 C401 0.930 . S
H379 C402 0.929 . S
O380 Tb336 2.465 . S
O380 C400 1.264 . S
O381 Tb336 2.387 . S
O381 C392 1.264 . S
O382 Tb347 2.349 . S
O382 C392 1.243 . S
O383 Tb336 2.428 . S
O383 C400 1.256 . S
O384 Tb336 2.308 . S
O384 C399 1.266 . S
O385 Tb347 2.393 . S
O385 C399 1.248 . S
O386 Tb347 2.465 . S
O386 C411 1.264 . S
O387 Tb347 2.387 . S
O387 C403 1.264 . S
O388 Tb336 2.349 . S
O388 C403 1.243 . S
O389 Tb347 2.428 . S
O389 C411 1.256 . S
O390 Tb347 2.308 . S
O390 C410 1.266 . S
O391 Tb336 2.393 . S
O391 C410 1.248 . S
C392 O381 1.264 . S
C392 O382 1.243 . S
C393 C396 1.399 . S
C393 C398 1.383 . S
C393 C400 1.496 . S
C394 C395 1.399 . S
C394 C398 1.389 . S
C395 C394 1.399 . S
C395 C397 1.380 . S
C395 H412 0.929 . S
C396 C393 1.399 . S
C396 C397 1.392 . S
C396 H413 0.929 . S
C397 C395 1.380 . S
C397 C396 1.392 . S
C397 H414 0.929 . S
C398 C393 1.383 . S
C398 C394 1.389 . S
C398 H415 0.931 . S
C399 O384 1.266 . S
C399 O385 1.248 . S
C400 Tb336 2.802 . S
C400 O380 1.264 . S
C400 O383 1.256 . S
C400 C393 1.496 . S
C401 C368 1.448 . S
C401 H378 0.930 . S
C401 C402 1.328 . S
C402 C373 1.427 . S
C402 H379 0.929 . S
C402 C401 1.328 . S
C403 O387 1.264 . S
C403 O388 1.243 . S
C404 C407 1.399 . S
C404 C408 1.383 . S
C404 C411 1.496 . S
C405 C406 1.399 . S
C405 C408 1.389 . S
C406 C405 1.399 . S
C406 C409 1.380 . S
C406 H416 0.929 . S
C407 C404 1.399 . S
C407 C409 1.392 . S
C407 H417 0.929 . S
C408 C404 1.383 . S
C408 C405 1.389 . S
C408 H418 0.931 . S
C409 C406 1.380 . S
C409 C407 1.392 . S
C409 H419 0.929 . S
C410 O390 1.266 . S
C410 O391 1.248 . S
C411 Tb347 2.802 . S
C411 O386 1.264 . S
C411 O389 1.256 . S
C411 C404 1.496 . S
H412 C395 0.929 . S
H413 C396 0.929 . S
H414 C397 0.929 . S
H415 C398 0.931 . S
H416 C406 0.929 . S
H417 C407 0.929 . S
H418 C408 0.931 . S
H419 C409 0.929 . S
Tb420 N449 2.617 . S
Tb420 N455 2.572 . S
Tb420 O464 2.465 . S
Tb420 O465 2.387 . S
Tb420 O467 2.428 . S
Tb420 O468 2.308 . S
Tb420 O472 2.349 . S
Tb420 O475 2.393 . S
Tb420 C484 2.802 . S
C421 N422 1.379 . S
C421 C424 1.416 . S
C421 C428 1.424 . S
N422 C421 1.379 . S
N422 C425 1.334 . S
N422 Tb431 2.617 . S
C423 C425 1.390 . S
C423 C426 1.339 . S
C423 H443 0.930 . S
C424 C421 1.416 . S
C424 C426 1.416 . S
C424 C430 1.448 . S
C425 N422 1.334 . S
C425 C423 1.390 . S
C425 H436 0.930 . S
C426 C423 1.339 . S
C426 C424 1.416 . S
C426 H447 0.930 . S
C427 C428 1.413 . S
C427 C429 1.427 . S
C427 C433 1.416 . S
C428 C421 1.424 . S
C428 C427 1.413 . S
C428 N432 1.361 . S
C429 C427 1.427 . S
C429 C430 1.328 . S
C429 H444 0.929 . S
C430 C424 1.448 . S
C430 C429 1.328 . S
C430 H445 0.930 . S
Tb431 N422 2.617 . S
Tb431 N432 2.572 . S
Tb431 O466 2.349 . S
Tb431 O469 2.393 . S
Tb431 O470 2.465 . S
Tb431 O471 2.387 . S
Tb431 O473 2.428 . S
Tb431 O474 2.308 . S
Tb431 C495 2.802 . S
N432 C428 1.361 . S
N432 Tb431 2.572 . S
N432 C434 1.340 . S
C433 C427 1.416 . S
C433 C435 1.332 . S
C433 H441 0.931 . S
C434 N432 1.340 . S
C434 C435 1.407 . S
C434 H440 0.930 . S
C435 C433 1.332 . S
C435 C434 1.407 . S
C435 H437 0.929 . S
H436 C425 0.930 . S
H437 C435 0.929 . S
H438 C453 0.930 . S
H439 C460 0.929 . S
H440 C434 0.930 . S
H441 C433 0.931 . S
H442 C456 0.930 . S
H443 C423 0.930 . S
H444 C429 0.929 . S
H445 C430 0.930 . S
H446 C451 0.930 . S
H447 C426 0.930 . S
H448 C459 0.931 . S
N449 Tb420 2.617 . S
N449 C450 1.379 . S
N449 C453 1.334 . S
C450 N449 1.379 . S
C450 C452 1.416 . S
C450 C458 1.424 . S
C451 H446 0.930 . S
C451 C453 1.390 . S
C451 C454 1.339 . S
C452 C450 1.416 . S
C452 C454 1.416 . S
C452 C485 1.448 . S
C453 H438 0.930 . S
C453 N449 1.334 . S
C453 C451 1.390 . S
C454 C451 1.339 . S
C454 C452 1.416 . S
C454 H461 0.930 . S
N455 Tb420 2.572 . S
N455 C456 1.340 . S
N455 C458 1.361 . S
C456 H442 0.930 . S
C456 N455 1.340 . S
C456 C460 1.407 . S
C457 C458 1.413 . S
C457 C459 1.416 . S
C457 C486 1.427 . S
C458 C450 1.424 . S
C458 N455 1.361 . S
C458 C457 1.413 . S
C459 H448 0.931 . S
C459 C457 1.416 . S
C459 C460 1.332 . S
C460 H439 0.929 . S
C460 C456 1.407 . S
C460 C459 1.332 . S
H461 C454 0.930 . S
H462 C485 0.930 . S
H463 C486 0.929 . S
O464 Tb420 2.465 . S
O464 C484 1.264 . S
O465 Tb420 2.387 . S
O465 C476 1.264 . S
O466 Tb431 2.349 . S
O466 C476 1.243 . S
O467 Tb420 2.428 . S
O467 C484 1.256 . S
O468 Tb420 2.308 . S
O468 C483 1.266 . S
O469 Tb431 2.393 . S
O469 C483 1.248 . S
O470 Tb431 2.465 . S
O470 C495 1.264 . S
O471 Tb431 2.387 . S
O471 C487 1.264 . S
O472 Tb420 2.349 . S
O472 C487 1.243 . S
O473 Tb431 2.428 . S
O473 C495 1.256 . S
O474 Tb431 2.308 . S
O474 C494 1.266 . S
O475 Tb420 2.393 . S
O475 C494 1.248 . S
C476 O465 1.264 . S
C476 O466 1.243 . S
C477 C480 1.399 . S
C477 C482 1.383 . S
C477 C484 1.496 . S
C478 C479 1.399 . S
C478 C482 1.389 . S
C479 C478 1.399 . S
C479 C481 1.380 . S
C479 H496 0.929 . S
C480 C477 1.399 . S
C480 C481 1.392 . S
C480 H497 0.929 . S
C481 C479 1.380 . S
C481 C480 1.392 . S
C481 H498 0.929 . S
C482 C477 1.383 . S
C482 C478 1.389 . S
C482 H499 0.931 . S
C483 O468 1.266 . S
C483 O469 1.248 . S
C484 Tb420 2.802 . S
C484 O464 1.264 . S
C484 O467 1.256 . S
C484 C477 1.496 . S
C485 C452 1.448 . S
C485 H462 0.930 . S
C485 C486 1.328 . S
C486 C457 1.427 . S
C486 H463 0.929 . S
C486 C485 1.328 . S
C487 O471 1.264 . S
C487 O472 1.243 . S
C488 C491 1.399 . S
C488 C492 1.383 . S
C488 C495 1.496 . S
C489 C490 1.399 . S
C489 C492 1.389 . S
C490 C489 1.399 . S
C490 C493 1.380 . S
C490 H500 0.929 . S
C491 C488 1.399 . S
C491 C493 1.392 . S
C491 H501 0.929 . S
C492 C488 1.383 . S
C492 C489 1.389 . S
C492 H502 0.931 . S
C493 C490 1.380 . S
C493 C491 1.392 . S
C493 H503 0.929 . S
C494 O474 1.266 . S
C494 O475 1.248 . S
C495 Tb431 2.802 . S
C495 O470 1.264 . S
C495 O473 1.256 . S
C495 C488 1.496 . S
H496 C479 0.929 . S
H497 C480 0.929 . S
H498 C481 0.929 . S
H499 C482 0.931 . S
H500 C490 0.929 . S
H501 C491 0.929 . S
H502 C492 0.931 . S
H503 C493 0.929 . S
Tb504 N533 2.617 . S
Tb504 N539 2.572 . S
Tb504 O548 2.465 . S
Tb504 O549 2.387 . S
Tb504 O551 2.428 . S
Tb504 O552 2.308 . S
Tb504 O556 2.349 . S
Tb504 O559 2.393 . S
Tb504 C568 2.802 . S
C505 N506 1.379 . S
C505 C508 1.416 . S
C505 C512 1.424 . S
N506 C505 1.379 . S
N506 C509 1.334 . S
N506 Tb515 2.617 . S
C507 C509 1.390 . S
C507 C510 1.339 . S
C507 H527 0.930 . S
C508 C505 1.416 . S
C508 C510 1.416 . S
C508 C514 1.448 . S
C509 N506 1.334 . S
C509 C507 1.390 . S
C509 H520 0.930 . S
C510 C507 1.339 . S
C510 C508 1.416 . S
C510 H531 0.930 . S
C511 C512 1.413 . S
C511 C513 1.427 . S
C511 C517 1.416 . S
C512 C505 1.424 . S
C512 C511 1.413 . S
C512 N516 1.361 . S
C513 C511 1.427 . S
C513 C514 1.328 . S
C513 H528 0.929 . S
C514 C508 1.448 . S
C514 C513 1.328 . S
C514 H529 0.930 . S
Tb515 N506 2.617 . S
Tb515 N516 2.572 . S
Tb515 O550 2.349 . S
Tb515 O553 2.393 . S
Tb515 O554 2.465 . S
Tb515 O555 2.387 . S
Tb515 O557 2.428 . S
Tb515 O558 2.308 . S
Tb515 C579 2.802 . S
N516 C512 1.361 . S
N516 Tb515 2.572 . S
N516 C518 1.340 . S
C517 C511 1.416 . S
C517 C519 1.332 . S
C517 H525 0.931 . S
C518 N516 1.340 . S
C518 C519 1.407 . S
C518 H524 0.930 . S
C519 C517 1.332 . S
C519 C518 1.407 . S
C519 H521 0.929 . S
H520 C509 0.930 . S
H521 C519 0.929 . S
H522 C537 0.930 . S
H523 C544 0.929 . S
H524 C518 0.930 . S
H525 C517 0.931 . S
H526 C540 0.930 . S
H527 C507 0.930 . S
H528 C513 0.929 . S
H529 C514 0.930 . S
H530 C535 0.930 . S
H531 C510 0.930 . S
H532 C543 0.931 . S
N533 Tb504 2.617 . S
N533 C534 1.379 . S
N533 C537 1.334 . S
C534 N533 1.379 . S
C534 C536 1.416 . S
C534 C542 1.424 . S
C535 H530 0.930 . S
C535 C537 1.390 . S
C535 C538 1.339 . S
C536 C534 1.416 . S
C536 C538 1.416 . S
C536 C569 1.448 . S
C537 H522 0.930 . S
C537 N533 1.334 . S
C537 C535 1.390 . S
C538 C535 1.339 . S
C538 C536 1.416 . S
C538 H545 0.930 . S
N539 Tb504 2.572 . S
N539 C540 1.340 . S
N539 C542 1.361 . S
C540 H526 0.930 . S
C540 N539 1.340 . S
C540 C544 1.407 . S
C541 C542 1.413 . S
C541 C543 1.416 . S
C541 C570 1.427 . S
C542 C534 1.424 . S
C542 N539 1.361 . S
C542 C541 1.413 . S
C543 H532 0.931 . S
C543 C541 1.416 . S
C543 C544 1.332 . S
C544 H523 0.929 . S
C544 C540 1.407 . S
C544 C543 1.332 . S
H545 C538 0.930 . S
H546 C569 0.930 . S
H547 C570 0.929 . S
O548 Tb504 2.465 . S
O548 C568 1.264 . S
O549 Tb504 2.387 . S
O549 C560 1.264 . S
O550 Tb515 2.349 . S
O550 C560 1.243 . S
O551 Tb504 2.428 . S
O551 C568 1.256 . S
O552 Tb504 2.308 . S
O552 C567 1.266 . S
O553 Tb515 2.393 . S
O553 C567 1.248 . S
O554 Tb515 2.465 . S
O554 C579 1.264 . S
O555 Tb515 2.387 . S
O555 C571 1.264 . S
O556 Tb504 2.349 . S
O556 C571 1.243 . S
O557 Tb515 2.428 . S
O557 C579 1.256 . S
O558 Tb515 2.308 . S
O558 C578 1.266 . S
O559 Tb504 2.393 . S
O559 C578 1.248 . S
C560 O549 1.264 . S
C560 O550 1.243 . S
C561 C564 1.399 . S
C561 C566 1.383 . S
C561 C568 1.496 . S
C562 C563 1.399 . S
C562 C566 1.389 . S
C563 C562 1.399 . S
C563 C565 1.380 . S
C563 H580 0.929 . S
C564 C561 1.399 . S
C564 C565 1.392 . S
C564 H581 0.929 . S
C565 C563 1.380 . S
C565 C564 1.392 . S
C565 H582 0.929 . S
C566 C561 1.383 . S
C566 C562 1.389 . S
C566 H583 0.931 . S
C567 O552 1.266 . S
C567 O553 1.248 . S
C568 Tb504 2.802 . S
C568 O548 1.264 . S
C568 O551 1.256 . S
C568 C561 1.496 . S
C569 C536 1.448 . S
C569 H546 0.930 . S
C569 C570 1.328 . S
C570 C541 1.427 . S
C570 H547 0.929 . S
C570 C569 1.328 . S
C571 O555 1.264 . S
C571 O556 1.243 . S
C572 C575 1.399 . S
C572 C576 1.383 . S
C572 C579 1.496 . S
C573 C574 1.399 . S
C573 C576 1.389 . S
C574 C573 1.399 . S
C574 C577 1.380 . S
C574 H584 0.929 . S
C575 C572 1.399 . S
C575 C577 1.392 . S
C575 H585 0.929 . S
C576 C572 1.383 . S
C576 C573 1.389 . S
C576 H586 0.931 . S
C577 C574 1.380 . S
C577 C575 1.392 . S
C577 H587 0.929 . S
C578 O558 1.266 . S
C578 O559 1.248 . S
C579 Tb515 2.802 . S
C579 O554 1.264 . S
C579 O557 1.256 . S
C579 C572 1.496 . S
H580 C563 0.929 . S
H581 C564 0.929 . S
H582 C565 0.929 . S
H583 C566 0.931 . S
H584 C574 0.929 . S
H585 C575 0.929 . S
H586 C576 0.931 . S
H587 C577 0.929 . S
Tb588 N617 2.617 . S
Tb588 N623 2.572 . S
Tb588 O632 2.465 . S
Tb588 O633 2.387 . S
Tb588 O635 2.428 . S
Tb588 O636 2.308 . S
Tb588 O640 2.349 . S
Tb588 O643 2.393 . S
Tb588 C652 2.802 . S
C589 N590 1.379 . S
C589 C592 1.416 . S
C589 C596 1.424 . S
N590 C589 1.379 . S
N590 C593 1.334 . S
N590 Tb599 2.617 . S
C591 C593 1.390 . S
C591 C594 1.339 . S
C591 H611 0.930 . S
C592 C589 1.416 . S
C592 C594 1.416 . S
C592 C598 1.448 . S
C593 N590 1.334 . S
C593 C591 1.390 . S
C593 H604 0.930 . S
C594 C591 1.339 . S
C594 C592 1.416 . S
C594 H615 0.930 . S
C595 C596 1.413 . S
C595 C597 1.427 . S
C595 C601 1.416 . S
C596 C589 1.424 . S
C596 C595 1.413 . S
C596 N600 1.361 . S
C597 C595 1.427 . S
C597 C598 1.328 . S
C597 H612 0.929 . S
C598 C592 1.448 . S
C598 C597 1.328 . S
C598 H613 0.930 . S
Tb599 N590 2.617 . S
Tb599 N600 2.572 . S
Tb599 O634 2.349 . S
Tb599 O637 2.393 . S
Tb599 O638 2.465 . S
Tb599 O639 2.387 . S
Tb599 O641 2.428 . S
Tb599 O642 2.308 . S
Tb599 C663 2.802 . S
N600 C596 1.361 . S
N600 Tb599 2.572 . S
N600 C602 1.340 . S
C601 C595 1.416 . S
C601 C603 1.332 . S
C601 H609 0.931 . S
C602 N600 1.340 . S
C602 C603 1.407 . S
C602 H608 0.930 . S
C603 C601 1.332 . S
C603 C602 1.407 . S
C603 H605 0.929 . S
H604 C593 0.930 . S
H605 C603 0.929 . S
H606 C621 0.930 . S
H607 C628 0.929 . S
H608 C602 0.930 . S
H609 C601 0.931 . S
H610 C624 0.930 . S
H611 C591 0.930 . S
H612 C597 0.929 . S
H613 C598 0.930 . S
H614 C619 0.930 . S
H615 C594 0.930 . S
H616 C627 0.931 . S
N617 Tb588 2.617 . S
N617 C618 1.379 . S
N617 C621 1.334 . S
C618 N617 1.379 . S
C618 C620 1.416 . S
C618 C626 1.424 . S
C619 H614 0.930 . S
C619 C621 1.390 . S
C619 C622 1.339 . S
C620 C618 1.416 . S
C620 C622 1.416 . S
C620 C653 1.448 . S
C621 H606 0.930 . S
C621 N617 1.334 . S
C621 C619 1.390 . S
C622 C619 1.339 . S
C622 C620 1.416 . S
C622 H629 0.930 . S
N623 Tb588 2.572 . S
N623 C624 1.340 . S
N623 C626 1.361 . S
C624 H610 0.930 . S
C624 N623 1.340 . S
C624 C628 1.407 . S
C625 C626 1.413 . S
C625 C627 1.416 . S
C625 C654 1.427 . S
C626 C618 1.424 . S
C626 N623 1.361 . S
C626 C625 1.413 . S
C627 H616 0.931 . S
C627 C625 1.416 . S
C627 C628 1.332 . S
C628 H607 0.929 . S
C628 C624 1.407 . S
C628 C627 1.332 . S
H629 C622 0.930 . S
H630 C653 0.930 . S
H631 C654 0.929 . S
O632 Tb588 2.465 . S
O632 C652 1.264 . S
O633 Tb588 2.387 . S
O633 C644 1.264 . S
O634 Tb599 2.349 . S
O634 C644 1.243 . S
O635 Tb588 2.428 . S
O635 C652 1.256 . S
O636 Tb588 2.308 . S
O636 C651 1.266 . S
O637 Tb599 2.393 . S
O637 C651 1.248 . S
O638 Tb599 2.465 . S
O638 C663 1.264 . S
O639 Tb599 2.387 . S
O639 C655 1.264 . S
O640 Tb588 2.349 . S
O640 C655 1.243 . S
O641 Tb599 2.428 . S
O641 C663 1.256 . S
O642 Tb599 2.308 . S
O642 C662 1.266 . S
O643 Tb588 2.393 . S
O643 C662 1.248 . S
C644 O633 1.264 . S
C644 O634 1.243 . S
C645 C648 1.399 . S
C645 C650 1.383 . S
C645 C652 1.496 . S
C646 C647 1.399 . S
C646 C650 1.389 . S
C647 C646 1.399 . S
C647 C649 1.380 . S
C647 H664 0.929 . S
C648 C645 1.399 . S
C648 C649 1.392 . S
C648 H665 0.929 . S
C649 C647 1.380 . S
C649 C648 1.392 . S
C649 H666 0.929 . S
C650 C645 1.383 . S
C650 C646 1.389 . S
C650 H667 0.931 . S
C651 O636 1.266 . S
C651 O637 1.248 . S
C652 Tb588 2.802 . S
C652 O632 1.264 . S
C652 O635 1.256 . S
C652 C645 1.496 . S
C653 C620 1.448 . S
C653 H630 0.930 . S
C653 C654 1.328 . S
C654 C625 1.427 . S
C654 H631 0.929 . S
C654 C653 1.328 . S
C655 O639 1.264 . S
C655 O640 1.243 . S
C656 C659 1.399 . S
C656 C660 1.383 . S
C656 C663 1.496 . S
C657 C658 1.399 . S
C657 C660 1.389 . S
C658 C657 1.399 . S
C658 C661 1.380 . S
C658 H668 0.929 . S
C659 C656 1.399 . S
C659 C661 1.392 . S
C659 H669 0.929 . S
C660 C656 1.383 . S
C660 C657 1.389 . S
C660 H670 0.931 . S
C661 C658 1.380 . S
C661 C659 1.392 . S
C661 H671 0.929 . S
C662 O642 1.266 . S
C662 O643 1.248 . S
C663 Tb599 2.802 . S
C663 O638 1.264 . S
C663 O641 1.256 . S
C663 C656 1.496 . S
H664 C647 0.929 . S
H665 C648 0.929 . S
H666 C649 0.929 . S
H667 C650 0.931 . S
H668 C658 0.929 . S
H669 C659 0.929 . S
H670 C660 0.931 . S
H671 C661 0.929 . S
Cd672 N675 2.334 1_655 S
Cd672 N701 2.304 1_565 S
Cd672 O708 2.268 . S
Cd672 O711 2.273 1_665 S
Cd672 O712 2.417 . S
Cd672 O713 2.330 . S
Cd673 N688 2.304 1_455 S
Cd673 N692 2.334 1_545 S
Cd673 O709 2.273 1_445 S
Cd673 O710 2.268 . S
Cd673 O714 2.417 . S
Cd673 O715 2.330 . S
C674 N675 1.332 . S
C674 C678 1.381 . S
C674 H680 0.931 . S
N675 Cd672 2.334 1_455 S
N675 C674 1.332 . S
N675 C679 1.328 . S
C676 C677 1.396 . S
C676 C679 1.378 . S
C676 H718 0.931 . S
C677 C676 1.396 . S
C677 C678 1.382 . S
C678 C674 1.381 . S
C678 C677 1.382 . S
C678 H719 0.930 . S
C679 N675 1.328 . S
C679 C676 1.378 . S
C679 H681 0.930 1_455 S
H680 C674 0.931 . S
H681 C679 0.930 1_655 S
C682 O708 1.238 . S
C682 O709 1.253 . S
C683 C684 1.379 . S
C683 N688 1.337 . S
C683 H689 0.929 . S
C684 C683 1.379 . S
C684 C685 1.380 . S
C684 H720 0.929 . S
C685 C684 1.380 . S
C685 C686 1.399 . S
C686 C685 1.399 . S
C686 C687 1.397 . S
C686 H721 0.931 . S
C687 C686 1.397 . S
C687 N688 1.334 . S
C687 H690 0.913 1_655 S
N688 Cd673 2.304 1_655 S
N688 C683 1.337 . S
N688 C687 1.334 . S
H689 C683 0.929 . S
H690 C687 0.913 1_455 S
C691 N692 1.332 . S
C691 C695 1.381 . S
C691 H697 0.931 . S
N692 Cd673 2.334 1_565 S
N692 C691 1.332 . S
N692 C696 1.328 . S
C693 C694 1.396 . S
C693 C696 1.378 . S
C693 H722 0.931 . S
C694 C693 1.396 . S
C694 C695 1.382 . S
C695 C691 1.381 . S
C695 C694 1.382 . S
C695 H723 0.930 . S
C696 N692 1.328 . S
C696 C693 1.378 . S
C696 H698 0.930 1_565 S
H697 C691 0.931 . S
H698 C696 0.930 1_545 S
C699 O710 1.238 . S
C699 O711 1.253 . S
C700 O712 1.239 . S
C700 O713 1.230 . S
N701 Cd672 2.304 1_545 S
N701 C702 1.337 . S
N701 C706 1.338 . S
C702 N701 1.337 . S
C702 C703 1.379 . S
C702 H716 0.929 . S
C703 C702 1.379 . S
C703 C704 1.380 . S
C703 H724 0.929 . S
C704 C703 1.380 . S
C704 C705 1.399 . S
C705 C704 1.399 . S
C705 C706 1.376 . S
C705 H725 0.931 . S
C706 N701 1.338 . S
C706 C705 1.376 . S
C706 H717 0.930 1_545 S
C707 O714 1.239 . S
C707 O715 1.230 . S
O708 Cd672 2.268 . S
O708 C682 1.238 . S
O709 Cd673 2.273 1_665 S
O709 C682 1.253 . S
O710 Cd673 2.268 . S
O710 C699 1.238 . S
O711 Cd672 2.273 1_445 S
O711 C699 1.253 . S
O712 Cd672 2.417 . S
O712 C700 1.239 . S
O713 Cd672 2.330 . S
O713 C700 1.230 . S
O714 Cd673 2.417 . S
O714 C707 1.239 . S
O715 Cd673 2.330 . S
O715 C707 1.230 . S
H716 C702 0.929 . S
H717 C706 0.930 1_565 S
H718 C676 0.931 . S
H719 C678 0.930 . S
H720 C684 0.929 . S
H721 C686 0.931 . S
H722 C693 0.931 . S
H723 C695 0.930 . S
H724 C703 0.929 . S
H725 C705 0.931 . S
Cd726 N729 2.334 . S
Cd726 N755 2.304 1_565 S
Cd726 O762 2.268 1_554 S
Cd726 O765 2.273 1_565 S
Cd726 O766 2.417 . S
Cd726 O767 2.330 . S
Cd727 N742 2.304 . S
Cd727 N746 2.334 1_545 S
Cd727 O763 2.273 1_545 S
Cd727 O764 2.268 1_556 S
Cd727 O768 2.417 . S
Cd727 O769 2.330 . S
C728 N729 1.332 . S
C728 C732 1.381 . S
C728 H734 0.931 . S
N729 Cd726 2.334 . S
N729 C728 1.332 . S
N729 C733 1.328 . S
C730 C731 1.396 . S
C730 C733 1.378 . S
C730 H772 0.931 1_554 S
C731 C730 1.396 . S
C731 C732 1.382 . S
C732 C728 1.381 . S
C732 C731 1.382 . S
C732 H773 0.930 . S
C733 N729 1.328 . S
C733 C730 1.378 . S
C733 H735 0.930 1_554 S
H734 C728 0.931 . S
H735 C733 0.930 1_556 S
C736 O762 1.238 . S
C736 O763 1.253 . S
C737 C738 1.379 . S
C737 N742 1.337 . S
C737 H743 0.929 . S
C738 C737 1.379 . S
C738 C739 1.380 . S
C738 H774 0.929 . S
C739 C738 1.380 . S
C739 C740 1.399 . S
C740 C739 1.399 . S
C740 C741 1.376 . S
C740 H775 0.931 1_556 S
C741 C740 1.376 . S
C741 N742 1.338 . S
C741 H744 0.930 1_556 S
N742 Cd727 2.304 . S
N742 C737 1.337 . S
N742 C741 1.338 . S
H743 C737 0.929 . S
H744 C741 0.930 1_554 S
C745 N746 1.332 . S
C745 C749 1.381 . S
C745 H751 0.931 . S
N746 Cd727 2.334 1_565 S
N746 C745 1.332 . S
N746 C750 1.328 . S
C747 C748 1.396 . S
C747 C750 1.378 . S
C747 H776 0.931 . S
C748 C747 1.396 . S
C748 C749 1.382 . S
C749 C745 1.381 . S
C749 C748 1.382 . S
C749 H777 0.930 . S
C750 N746 1.328 . S
C750 C747 1.378 . S
C750 H752 0.930 1_566 S
H751 C745 0.931 . S
H752 C750 0.930 1_544 S
C753 O764 1.238 . S
C753 O765 1.253 . S
C754 O766 1.239 . S
C754 O767 1.230 . S
N755 Cd726 2.304 1_545 S
N755 C756 1.337 . S
N755 C760 1.338 . S
C756 N755 1.337 . S
C756 C757 1.379 . S
C756 H770 0.929 . S
C757 C756 1.379 . S
C757 C758 1.380 . S
C757 H778 0.929 . S
C758 C757 1.380 . S
C758 C759 1.399 . S
C759 C758 1.399 . S
C759 C760 1.376 . S
C759 H779 0.931 . S
C760 N755 1.338 . S
C760 C759 1.376 . S
C760 H771 0.930 1_544 S
C761 O768 1.239 . S
C761 O769 1.230 . S
O762 Cd726 2.268 1_556 S
O762 C736 1.238 . S
O763 Cd727 2.273 1_565 S
O763 C736 1.253 . S
O764 Cd727 2.268 1_554 S
O764 C753 1.238 . S
O765 Cd726 2.273 1_545 S
O765 C753 1.253 . S
O766 Cd726 2.417 . S
O766 C754 1.239 . S
O767 Cd726 2.330 . S
O767 C754 1.230 . S
O768 Cd727 2.417 . S
O768 C761 1.239 . S
O769 Cd727 2.330 . S
O769 C761 1.230 . S
H770 C756 0.929 . S
H771 C760 0.930 1_566 S
H772 C730 0.931 1_556 S
H773 C732 0.930 . S
H774 C738 0.929 . S
H775 C740 0.931 1_554 S
H776 C747 0.931 . S
H777 C749 0.930 . S
H778 C757 0.929 . S
H779 C759 0.931 . S
Cd780 N783 2.334 1_655 S
Cd780 N809 2.304 . S
Cd780 O816 2.268 1_554 S
Cd780 O819 2.273 1_655 S
Cd780 O820 2.417 . S
Cd780 O821 2.330 . S
Cd781 N796 2.304 1_455 S
Cd781 N800 2.334 . S
Cd781 O817 2.273 1_455 S
Cd781 O818 2.268 1_556 S
Cd781 O822 2.417 . S
Cd781 O823 2.330 . S
C782 N783 1.332 . S
C782 C786 1.381 . S
C782 H788 0.931 . S
N783 Cd780 2.334 1_455 S
N783 C782 1.332 . S
N783 C787 1.328 . S
C784 C785 1.396 . S
C784 C787 1.378 . S
C784 H826 0.931 1_554 S
C785 C784 1.396 . S
C785 C786 1.382 . S
C786 C782 1.381 . S
C786 C785 1.382 . S
C786 H827 0.930 . S
C787 N783 1.328 . S
C787 C784 1.378 . S
C787 H789 0.930 1_454 S
H788 C782 0.931 . S
H789 C787 0.930 1_656 S
C790 O816 1.238 . S
C790 O817 1.253 . S
C791 C792 1.379 . S
C791 N796 1.337 . S
C791 H797 0.929 . S
C792 C791 1.379 . S
C792 C793 1.380 . S
C792 H828 0.929 . S
C793 C792 1.380 . S
C793 C794 1.399 . S
C794 C793 1.399 . S
C794 C795 1.402 . S
C794 H829 0.931 1_556 S
C795 C794 1.402 . S
C795 N796 1.333 . S
C795 H798 0.909 1_656 S
N796 Cd781 2.304 1_655 S
N796 C791 1.337 . S
N796 C795 1.333 . S
H797 C791 0.929 . S
H798 C795 0.909 1_454 S
C799 N800 1.332 . S
C799 C803 1.381 . S
C799 H805 0.931 . S
N800 Cd781 2.334 . S
N800 C799 1.332 . S
N800 C804 1.328 . S
C801 C802 1.396 . S
C801 C804 1.378 . S
C801 H830 0.931 . S
C802 C801 1.396 . S
C802 C803 1.382 . S
C803 C799 1.381 . S
C803 C802 1.382 . S
C803 H831 0.930 . S
C804 N800 1.328 . S
C804 C801 1.378 . S
C804 H806 0.930 1_556 S
H805 C799 0.931 . S
H806 C804 0.930 1_554 S
C807 O818 1.238 . S
C807 O819 1.253 . S
C808 O820 1.239 . S
C808 O821 1.230 . S
N809 Cd780 2.304 . S
N809 C810 1.337 . S
N809 C814 1.338 . S
C810 N809 1.337 . S
C810 C811 1.379 . S
C810 H824 0.929 . S
C811 C810 1.379 . S
C811 C812 1.380 . S
C811 H832 0.929 . S
C812 C811 1.380 . S
C812 C813 1.399 . S
C813 C812 1.399 . S
C813 C814 1.376 . S
C813 H833 0.931 . S
C814 N809 1.338 . S
C814 C813 1.376 . S
C814 H825 0.930 1_554 S
C815 O822 1.239 . S
C815 O823 1.230 . S
O816 Cd780 2.268 1_556 S
O816 C790 1.238 . S
O817 Cd781 2.273 1_655 S
O817 C790 1.253 . S
O818 Cd781 2.268 1_554 S
O818 C807 1.238 . S
O819 Cd780 2.273 1_455 S
O819 C807 1.253 . S
O820 Cd780 2.417 . S
O820 C808 1.239 . S
O821 Cd780 2.330 . S
O821 C808 1.230 . S
O822 Cd781 2.417 . S
O822 C815 1.239 . S
O823 Cd781 2.330 . S
O823 C815 1.230 . S
H824 C810 0.929 . S
H825 C814 0.930 1_556 S
H826 C784 0.931 1_556 S
H827 C786 0.930 . S
H828 C792 0.929 . S
H829 C794 0.931 1_554 S
H830 C801 0.931 . S
H831 C803 0.930 . S
H832 C811 0.929 . S
H833 C813 0.931 . S
Cd834 N837 2.334 . S
Cd834 N863 2.304 . S
Cd834 O870 2.268 1_554 S
Cd834 O873 2.273 . S
Cd834 O874 2.417 . S
Cd834 O875 2.330 . S
Cd835 N850 2.304 . S
Cd835 N854 2.334 . S
Cd835 O871 2.273 . S
Cd835 O872 2.268 1_556 S
Cd835 O876 2.417 . S
Cd835 O877 2.330 . S
C836 N837 1.332 . S
C836 C840 1.381 . S
C836 H842 0.931 . S
N837 Cd834 2.334 . S
N837 C836 1.332 . S
N837 C841 1.328 . S
C838 C839 1.396 . S
C838 C841 1.378 . S
C838 H880 0.931 1_554 S
C839 C838 1.396 . S
C839 C840 1.382 . S
C840 C836 1.381 . S
C840 C839 1.382 . S
C840 H881 0.930 . S
C841 N837 1.328 . S
C841 C838 1.378 . S
C841 H843 0.930 1_554 S
H842 C836 0.931 . S
H843 C841 0.930 1_556 S
C844 O870 1.238 . S
C844 O871 1.253 . S
C845 C846 1.379 . S
C845 N850 1.337 . S
C845 H851 0.929 . S
C846 C845 1.379 . S
C846 C847 1.380 . S
C846 H882 0.929 . S
C847 C846 1.380 . S
C847 C848 1.399 . S
C848 C847 1.399 . S
C848 C849 1.376 . S
C848 H883 0.931 1_556 S
C849 C848 1.376 . S
C849 N850 1.338 . S
C849 H852 0.930 1_556 S
N850 Cd835 2.304 . S
N850 C845 1.337 . S
N850 C849 1.338 . S
H851 C845 0.929 . S
H852 C849 0.930 1_554 S
C853 N854 1.332 . S
C853 C857 1.381 . S
C853 H859 0.931 . S
N854 Cd835 2.334 . S
N854 C853 1.332 . S
N854 C858 1.328 . S
C855 C856 1.396 . S
C855 C858 1.378 . S
C855 H884 0.931 . S
C856 C855 1.396 . S
C856 C857 1.382 . S
C857 C853 1.381 . S
C857 C856 1.382 . S
C857 H885 0.930 . S
C858 N854 1.328 . S
C858 C855 1.378 . S
C858 H860 0.930 1_556 S
H859 C853 0.931 . S
H860 C858 0.930 1_554 S
C861 O872 1.238 . S
C861 O873 1.253 . S
C862 O874 1.239 . S
C862 O875 1.230 . S
N863 Cd834 2.304 . S
N863 C864 1.337 . S
N863 C868 1.338 . S
C864 N863 1.337 . S
C864 C865 1.379 . S
C864 H878 0.929 . S
C865 C864 1.379 . S
C865 C866 1.380 . S
C865 H886 0.929 . S
C866 C865 1.380 . S
C866 C867 1.399 . S
C867 C866 1.399 . S
C867 C868 1.376 . S
C867 H887 0.931 . S
C868 N863 1.338 . S
C868 C867 1.376 . S
C868 H879 0.930 1_554 S
C869 O876 1.239 . S
C869 O877 1.230 . S
O870 Cd834 2.268 1_556 S
O870 C844 1.238 . S
O871 Cd835 2.273 . S
O871 C844 1.253 . S
O872 Cd835 2.268 1_554 S
O872 C861 1.238 . S
O873 Cd834 2.273 . S
O873 C861 1.253 . S
O874 Cd834 2.417 . S
O874 C862 1.239 . S
O875 Cd834 2.330 . S
O875 C862 1.230 . S
O876 Cd835 2.417 . S
O876 C869 1.239 . S
O877 Cd835 2.330 . S
O877 C869 1.230 . S
H878 C864 0.929 . S
H879 C868 0.930 1_556 S
H880 C838 0.931 1_556 S
H881 C840 0.930 . S
H882 C846 0.929 . S
H883 C848 0.931 1_554 S
H884 C855 0.931 . S
H885 C857 0.930 . S
H886 C865 0.929 . S
H887 C867 0.931 . S
Cd888 N891 2.334 1_655 S
Cd888 N917 2.304 . S
Cd888 O924 2.268 . S
Cd888 O927 2.273 1_655 S
Cd888 O928 2.417 . S
Cd888 O929 2.330 . S
Cd889 N904 2.304 1_455 S
Cd889 N908 2.334 . S
Cd889 O925 2.273 1_455 S
Cd889 O926 2.268 . S
Cd889 O930 2.417 . S
Cd889 O931 2.330 . S
C890 N891 1.332 . S
C890 C894 1.381 . S
C890 H896 0.931 . S
N891 Cd888 2.334 1_455 S
N891 C890 1.332 . S
N891 C895 1.328 . S
C892 C893 1.396 . S
C892 C895 1.378 . S
C892 H934 0.931 . S
C893 C892 1.396 . S
C893 C894 1.382 . S
C894 C890 1.381 . S
C894 C893 1.382 . S
C894 H935 0.930 . S
C895 N891 1.328 . S
C895 C892 1.378 . S
C895 H897 0.930 1_455 S
H896 C890 0.931 . S
H897 C895 0.930 1_655 S
C898 O924 1.238 . S
C898 O925 1.253 . S
C899 C900 1.379 . S
C899 N904 1.337 . S
C899 H905 0.929 . S
C900 C899 1.379 . S
C900 C901 1.380 . S
C900 H936 0.929 . S
C901 C900 1.380 . S
C901 C902 1.399 . S
C902 C901 1.399 . S
C902 C903 1.400 . S
C902 H937 0.931 . S
C903 C902 1.400 . S
C903 N904 1.333 . S
C903 H906 0.910 1_655 S
N904 Cd889 2.304 1_655 S
N904 C899 1.337 . S
N904 C903 1.333 . S
H905 C899 0.929 . S
H906 C903 0.910 1_455 S
C907 N908 1.332 . S
C907 C911 1.381 . S
C907 H913 0.931 . S
N908 Cd889 2.334 . S
N908 C907 1.332 . S
N908 C912 1.328 . S
C909 C910 1.396 . S
C909 C912 1.378 . S
C909 H938 0.931 . S
C910 C909 1.396 . S
C910 C911 1.382 . S
C911 C907 1.381 . S
C911 C910 1.382 . S
C911 H939 0.930 . S
C912 N908 1.328 . S
C912 C909 1.378 . S
C912 H914 0.930 . S
H913 C907 0.931 . S
H914 C912 0.930 . S
C915 O926 1.238 . S
C915 O927 1.253 . S
C916 O928 1.239 . S
C916 O929 1.230 . S
N917 Cd888 2.304 . S
N917 C918 1.337 . S
N917 C922 1.338 . S
C918 N917 1.337 . S
C918 C919 1.379 . S
C918 H932 0.929 . S
C919 C918 1.379 . S
C919 C920 1.380 . S
C919 H940 0.929 . S
C920 C919 1.380 . S
C920 C921 1.399 . S
C921 C920 1.399 . S
C921 C922 1.376 . S
C921 H941 0.931 . S
C922 N917 1.338 . S
C922 C921 1.376 . S
C922 H933 0.930 . S
C923 O930 1.239 . S
C923 O931 1.230 . S
O924 Cd888 2.268 . S
O924 C898 1.238 . S
O925 Cd889 2.273 1_655 S
O925 C898 1.253 . S
O926 Cd889 2.268 . S
O926 C915 1.238 . S
O927 Cd888 2.273 1_455 S
O927 C915 1.253 . S
O928 Cd888 2.417 . S
O928 C916 1.239 . S
O929 Cd888 2.330 . S
O929 C916 1.230 . S
O930 Cd889 2.417 . S
O930 C923 1.239 . S
O931 Cd889 2.330 . S
O931 C923 1.230 . S
H932 C918 0.929 . S
H933 C922 0.930 . S
H934 C892 0.931 . S
H935 C894 0.930 . S
H936 C900 0.929 . S
H937 C902 0.931 . S
H938 C909 0.931 . S
H939 C911 0.930 . S
H940 C919 0.929 . S
H941 C921 0.931 . S
Cd942 N945 2.334 . S
Cd942 N971 2.304 1_565 S
Cd942 O978 2.268 . S
Cd942 O981 2.273 1_565 S
Cd942 O982 2.417 . S
Cd942 O983 2.330 . S
Cd943 N958 2.304 . S
Cd943 N962 2.334 1_545 S
Cd943 O979 2.273 1_545 S
Cd943 O980 2.268 . S
Cd943 O984 2.417 . S
Cd943 O985 2.330 . S
C944 N945 1.332 . S
C944 C948 1.381 . S
C944 H950 0.931 . S
N945 Cd942 2.334 . S
N945 C944 1.332 . S
N945 C949 1.328 . S
C946 C947 1.396 . S
C946 C949 1.378 . S
C946 H988 0.931 . S
C947 C946 1.396 . S
C947 C948 1.382 . S
C948 C944 1.381 . S
C948 C947 1.382 . S
C948 H989 0.930 . S
C949 N945 1.328 . S
C949 C946 1.378 . S
C949 H951 0.930 . S
H950 C944 0.931 . S
H951 C949 0.930 . S
C952 O978 1.238 . S
C952 O979 1.253 . S
C953 C954 1.379 . S
C953 N958 1.337 . S
C953 H959 0.929 . S
C954 C953 1.379 . S
C954 C955 1.380 . S
C954 H990 0.929 . S
C955 C954 1.380 . S
C955 C956 1.399 . S
C956 C955 1.399 . S
C956 C957 1.376 . S
C956 H991 0.931 . S
C957 C956 1.376 . S
C957 N958 1.338 . S
C957 H960 0.930 . S
N958 Cd943 2.304 . S
N958 C953 1.337 . S
N958 C957 1.338 . S
H959 C953 0.929 . S
H960 C957 0.930 . S
C961 N962 1.332 . S
C961 C965 1.381 . S
C961 H967 0.931 . S
N962 Cd943 2.334 1_565 S
N962 C961 1.332 . S
N962 C966 1.328 . S
C963 C964 1.396 . S
C963 C966 1.378 . S
C963 H992 0.931 . S
C964 C963 1.396 . S
C964 C965 1.382 . S
C965 C961 1.381 . S
C965 C964 1.382 . S
C965 H993 0.930 . S
C966 N962 1.328 . S
C966 C963 1.378 . S
C966 H968 0.930 1_565 S
H967 C961 0.931 . S
H968 C966 0.930 1_545 S
C969 O980 1.238 . S
C969 O981 1.253 . S
C970 O982 1.239 . S
C970 O983 1.230 . S
N971 Cd942 2.304 1_545 S
N971 C972 1.337 . S
N971 C976 1.338 . S
C972 N971 1.337 . S
C972 C973 1.379 . S
C972 H986 0.929 . S
C973 C972 1.379 . S
C973 C974 1.380 . S
C973 H994 0.929 . S
C974 C973 1.380 . S
C974 C975 1.399 . S
C975 C974 1.399 . S
C975 C976 1.376 . S
C975 H995 0.931 . S
C976 N971 1.338 . S
C976 C975 1.376 . S
C976 H987 0.930 1_545 S
C977 O984 1.239 . S
C977 O985 1.230 . S
O978 Cd942 2.268 . S
O978 C952 1.238 . S
O979 Cd943 2.273 1_565 S
O979 C952 1.253 . S
O980 Cd943 2.268 . S
O980 C969 1.238 . S
O981 Cd942 2.273 1_545 S
O981 C969 1.253 . S
O982 Cd942 2.417 . S
O982 C970 1.239 . S
O983 Cd942 2.330 . S
O983 C970 1.230 . S
O984 Cd943 2.417 . S
O984 C977 1.239 . S
O985 Cd943 2.330 . S
O985 C977 1.230 . S
H986 C972 0.929 . S
H987 C976 0.930 1_565 S
H988 C946 0.931 . S
H989 C948 0.930 . S
H990 C954 0.929 . S
H991 C956 0.931 . S
H992 C963 0.931 . S
H993 C965 0.930 . S
H994 C973 0.929 . S
H995 C975 0.931 . S
H996 C1004 0.950 . S
H997 C1009 0.950 . S
H998 C1006 0.950 . S
H999 C1008 0.950 . S
H1000 C1010 0.950 . S
H1001 C1012 0.950 . S
H1002 C1014 0.950 . S
H1003 C1015 0.950 . S
C1004 H996 0.950 . S
C1004 C1005 1.386 . S
C1004 C1006 1.391 . S
C1005 C1004 1.386 . S
C1005 C1009 1.393 . S
C1006 H998 0.950 . S
C1006 C1004 1.391 . S
C1006 C1007 1.400 . S
C1007 C1006 1.400 . S
C1007 C1008 1.398 . S
C1007 C1013 1.491 . S
C1008 H999 0.950 . S
C1008 C1007 1.398 . S
C1008 C1009 1.391 . S
C1009 H997 0.950 . S
C1009 C1005 1.393 . S
C1009 C1008 1.391 . S
C1010 H1000 0.950 . S
C1010 C1011 1.386 . S
C1010 C1012 1.391 . S
C1011 C1010 1.386 . S
C1011 C1015 1.393 . S
C1012 H1001 0.950 . S
C1012 C1010 1.391 . S
C1012 C1013 1.400 . S
C1013 C1007 1.491 . S
C1013 C1012 1.400 . S
C1013 C1014 1.398 . S
C1014 H1002 0.950 . S
C1014 C1013 1.398 . S
C1014 C1015 1.391 . S
C1015 H1003 0.950 . S
C1015 C1011 1.393 . S
C1015 C1014 1.391 . S
H1016 C1024 0.950 . S
H1017 C1029 0.950 . S
H1018 C1026 0.950 . S
H1019 C1028 0.950 . S
H1020 C1030 0.950 . S
H1021 C1032 0.950 . S
H1022 C1034 0.950 . S
H1023 C1035 0.950 . S
C1024 H1016 0.950 . S
C1024 C1025 1.386 . S
C1024 C1026 1.391 . S
C1025 C1024 1.386 . S
C1025 C1029 1.393 . S
C1026 H1018 0.950 . S
C1026 C1024 1.391 . S
C1026 C1027 1.400 . S
C1027 C1026 1.400 . S
C1027 C1028 1.398 . S
C1027 C1033 1.491 . S
C1028 H1019 0.950 . S
C1028 C1027 1.398 . S
C1028 C1029 1.391 . S
C1029 H1017 0.950 . S
C1029 C1025 1.393 . S
C1029 C1028 1.391 . S
C1030 H1020 0.950 . S
C1030 C1031 1.386 . S
C1030 C1032 1.391 . S
C1031 C1030 1.386 . S
C1031 C1035 1.393 . S
C1032 H1021 0.950 . S
C1032 C1030 1.391 . S
C1032 C1033 1.400 . S
C1033 C1027 1.491 . S
C1033 C1032 1.400 . S
C1033 C1034 1.398 . S
C1034 H1022 0.950 . S
C1034 C1033 1.398 . S
C1034 C1035 1.391 . S
C1035 H1023 0.950 . S
C1035 C1031 1.393 . S
C1035 C1034 1.391 . S
H1036 C1044 0.950 . S
H1037 C1049 0.950 . S
H1038 C1046 0.950 . S
H1039 C1048 0.950 . S
H1040 C1050 0.950 . S
H1041 C1052 0.950 . S
H1042 C1054 0.950 . S
H1043 C1055 0.950 . S
C1044 H1036 0.950 . S
C1044 C1045 1.386 . S
C1044 C1046 1.391 . S
C1045 C1044 1.386 . S
C1045 C1049 1.393 . S
C1046 H1038 0.950 . S
C1046 C1044 1.391 . S
C1046 C1047 1.400 . S
C1047 C1046 1.400 . S
C1047 C1048 1.398 . S
C1047 C1053 1.491 . S
C1048 H1039 0.950 . S
C1048 C1047 1.398 . S
C1048 C1049 1.391 . S
C1049 H1037 0.950 . S
C1049 C1045 1.393 . S
C1049 C1048 1.391 . S
C1050 H1040 0.950 . S
C1050 C1051 1.386 . S
C1050 C1052 1.391 . S
C1051 C1050 1.386 . S
C1051 C1055 1.393 . S
C1052 H1041 0.950 . S
C1052 C1050 1.391 . S
C1052 C1053 1.400 . S
C1053 C1047 1.491 . S
C1053 C1052 1.400 . S
C1053 C1054 1.398 . S
C1054 H1042 0.950 . S
C1054 C1053 1.398 . S
C1054 C1055 1.391 . S
C1055 H1043 0.950 . S
C1055 C1051 1.393 . S
C1055 C1054 1.391 . S
H1056 C1064 0.950 . S
H1057 C1069 0.950 . S
H1058 C1066 0.950 . S
H1059 C1068 0.950 . S
H1060 C1070 0.950 . S
H1061 C1072 0.950 . S
H1062 C1074 0.950 . S
H1063 C1075 0.950 . S
C1064 H1056 0.950 . S
C1064 C1065 1.386 . S
C1064 C1066 1.391 . S
C1065 C1064 1.386 . S
C1065 C1069 1.393 . S
C1066 H1058 0.950 . S
C1066 C1064 1.391 . S
C1066 C1067 1.400 . S
C1067 C1066 1.400 . S
C1067 C1068 1.398 . S
C1067 C1073 1.491 . S
C1068 H1059 0.950 . S
C1068 C1067 1.398 . S
C1068 C1069 1.391 . S
C1069 H1057 0.950 . S
C1069 C1065 1.393 . S
C1069 C1068 1.391 . S
C1070 H1060 0.950 . S
C1070 C1071 1.386 . S
C1070 C1072 1.391 . S
C1071 C1070 1.386 . S
C1071 C1075 1.393 . S
C1072 H1061 0.950 . S
C1072 C1070 1.391 . S
C1072 C1073 1.400 . S
C1073 C1067 1.491 . S
C1073 C1072 1.400 . S
C1073 C1074 1.398 . S
C1074 H1062 0.950 . S
C1074 C1073 1.398 . S
C1074 C1075 1.391 . S
C1075 H1063 0.950 . S
C1075 C1071 1.393 . S
C1075 C1074 1.391 . S
H1076 C1084 0.950 . S
H1077 C1089 0.950 . S
H1078 C1086 0.950 . S
H1079 C1088 0.950 . S
H1080 C1090 0.950 . S
H1081 C1092 0.950 . S
H1082 C1094 0.950 . S
H1083 C1095 0.950 . S
C1084 H1076 0.950 . S
C1084 C1085 1.386 . S
C1084 C1086 1.391 . S
C1085 C1084 1.386 . S
C1085 C1089 1.393 . S
C1086 H1078 0.950 . S
C1086 C1084 1.391 . S
C1086 C1087 1.400 . S
C1087 C1086 1.400 . S
C1087 C1088 1.398 . S
C1087 C1093 1.491 . S
C1088 H1079 0.950 . S
C1088 C1087 1.398 . S
C1088 C1089 1.391 . S
C1089 H1077 0.950 . S
C1089 C1085 1.393 . S
C1089 C1088 1.391 . S
C1090 H1080 0.950 . S
C1090 C1091 1.386 . S
C1090 C1092 1.391 . S
C1091 C1090 1.386 . S
C1091 C1095 1.393 . S
C1092 H1081 0.950 . S
C1092 C1090 1.391 . S
C1092 C1093 1.400 . S
C1093 C1087 1.491 . S
C1093 C1092 1.400 . S
C1093 C1094 1.398 . S
C1094 H1082 0.950 . S
C1094 C1093 1.398 . S
C1094 C1095 1.391 . S
C1095 H1083 0.950 . S
C1095 C1091 1.393 . S
C1095 C1094 1.391 . S
H1096 C1104 0.950 . S
H1097 C1109 0.950 . S
H1098 C1106 0.950 . S
H1099 C1108 0.950 . S
H1100 C1110 0.950 . S
H1101 C1112 0.950 . S
H1102 C1114 0.950 . S
H1103 C1115 0.950 . S
C1104 H1096 0.950 . S
C1104 C1105 1.386 . S
C1104 C1106 1.391 . S
C1105 C1104 1.386 . S
C1105 C1109 1.393 . S
C1106 H1098 0.950 . S
C1106 C1104 1.391 . S
C1106 C1107 1.400 . S
C1107 C1106 1.400 . S
C1107 C1108 1.398 . S
C1107 C1113 1.491 . S
C1108 H1099 0.950 . S
C1108 C1107 1.398 . S
C1108 C1109 1.391 . S
C1109 H1097 0.950 . S
C1109 C1105 1.393 . S
C1109 C1108 1.391 . S
C1110 H1100 0.950 . S
C1110 C1111 1.386 . S
C1110 C1112 1.391 . S
C1111 C1110 1.386 . S
C1111 C1115 1.393 . S
C1112 H1101 0.950 . S
C1112 C1110 1.391 . S
C1112 C1113 1.400 . S
C1113 C1107 1.491 . S
C1113 C1112 1.400 . S
C1113 C1114 1.398 . S
C1114 H1102 0.950 . S
C1114 C1113 1.398 . S
C1114 C1115 1.391 . S
C1115 H1103 0.950 . S
C1115 C1111 1.393 . S
C1115 C1114 1.391 . S
H1116 C1124 0.950 . S
H1117 C1129 0.950 . S
H1118 C1126 0.950 . S
H1119 C1128 0.950 . S
H1120 C1130 0.950 . S
H1121 C1132 0.950 . S
H1122 C1134 0.950 . S
H1123 C1135 0.950 . S
C1124 H1116 0.950 . S
C1124 C1125 1.386 . S
C1124 C1126 1.391 . S
C1125 C1124 1.386 . S
C1125 C1129 1.393 . S
C1126 H1118 0.950 . S
C1126 C1124 1.391 . S
C1126 C1127 1.400 . S
C1127 C1126 1.400 . S
C1127 C1128 1.398 . S
C1127 C1133 1.491 . S
C1128 H1119 0.950 . S
C1128 C1127 1.398 . S
C1128 C1129 1.391 . S
C1129 H1117 0.950 . S
C1129 C1125 1.393 . S
C1129 C1128 1.391 . S
C1130 H1120 0.950 . S
C1130 C1131 1.386 . S
C1130 C1132 1.391 . S
C1131 C1130 1.386 . S
C1131 C1135 1.393 . S
C1132 H1121 0.950 . S
C1132 C1130 1.391 . S
C1132 C1133 1.400 . S
C1133 C1127 1.491 . S
C1133 C1132 1.400 . S
C1133 C1134 1.398 . S
C1134 H1122 0.950 . S
C1134 C1133 1.398 . S
C1134 C1135 1.391 . S
C1135 H1123 0.950 . S
C1135 C1131 1.393 . S
C1135 C1134 1.391 . S
H1136 C1144 0.950 . S
H1137 C1149 0.950 . S
H1138 C1146 0.950 . S
H1139 C1148 0.950 . S
H1140 C1150 0.950 . S
H1141 C1152 0.950 . S
H1142 C1154 0.950 . S
H1143 C1155 0.950 . S
C1144 H1136 0.950 . S
C1144 C1145 1.386 . S
C1144 C1146 1.391 . S
C1145 C1144 1.386 . S
C1145 C1149 1.393 . S
C1146 H1138 0.950 . S
C1146 C1144 1.391 . S
C1146 C1147 1.400 . S
C1147 C1146 1.400 . S
C1147 C1148 1.398 . S
C1147 C1153 1.491 . S
C1148 H1139 0.950 . S
C1148 C1147 1.398 . S
C1148 C1149 1.391 . S
C1149 H1137 0.950 . S
C1149 C1145 1.393 . S
C1149 C1148 1.391 . S
C1150 H1140 0.950 . S
C1150 C1151 1.386 . S
C1150 C1152 1.391 . S
C1151 C1150 1.386 . S
C1151 C1155 1.393 . S
C1152 H1141 0.950 . S
C1152 C1150 1.391 . S
C1152 C1153 1.400 . S
C1153 C1147 1.491 . S
C1153 C1152 1.400 . S
C1153 C1154 1.398 . S
C1154 H1142 0.950 . S
C1154 C1153 1.398 . S
C1154 C1155 1.391 . S
C1155 H1143 0.950 . S
C1155 C1151 1.393 . S
C1155 C1154 1.391 . S
H1156 C1164 0.950 . S
H1157 C1169 0.950 . S
H1158 C1166 0.950 . S
H1159 C1168 0.950 . S
H1160 C1170 0.950 . S
H1161 C1172 0.950 . S
H1162 C1174 0.950 . S
H1163 C1175 0.950 . S
C1164 H1156 0.950 . S
C1164 C1165 1.386 . S
C1164 C1166 1.391 . S
C1165 C1164 1.386 . S
C1165 C1169 1.393 . S
C1166 H1158 0.950 . S
C1166 C1164 1.391 . S
C1166 C1167 1.400 . S
C1167 C1166 1.400 . S
C1167 C1168 1.398 . S
C1167 C1173 1.491 . S
C1168 H1159 0.950 . S
C1168 C1167 1.398 . S
C1168 C1169 1.391 . S
C1169 H1157 0.950 . S
C1169 C1165 1.393 . S
C1169 C1168 1.391 . S
C1170 H1160 0.950 . S
C1170 C1171 1.386 . S
C1170 C1172 1.391 . S
C1171 C1170 1.386 . S
C1171 C1175 1.393 . S
C1172 H1161 0.950 . S
C1172 C1170 1.391 . S
C1172 C1173 1.400 . S
C1173 C1167 1.491 . S
C1173 C1172 1.400 . S
C1173 C1174 1.398 . S
C1174 H1162 0.950 . S
C1174 C1173 1.398 . S
C1174 C1175 1.391 . S
C1175 H1163 0.950 . S
C1175 C1171 1.393 . S
C1175 C1174 1.391 . S
H1176 C1184 0.950 . S
H1177 C1189 0.950 . S
H1178 C1186 0.950 . S
H1179 C1188 0.950 . S
H1180 C1190 0.950 . S
H1181 C1192 0.950 . S
H1182 C1194 0.950 . S
H1183 C1195 0.950 . S
C1184 H1176 0.950 . S
C1184 C1185 1.386 . S
C1184 C1186 1.391 . S
C1185 C1184 1.386 . S
C1185 C1189 1.393 . S
C1186 H1178 0.950 . S
C1186 C1184 1.391 . S
C1186 C1187 1.400 . S
C1187 C1186 1.400 . S
C1187 C1188 1.398 . S
C1187 C1193 1.491 . S
C1188 H1179 0.950 . S
C1188 C1187 1.398 . S
C1188 C1189 1.391 . S
C1189 H1177 0.950 . S
C1189 C1185 1.393 . S
C1189 C1188 1.391 . S
C1190 H1180 0.950 . S
C1190 C1191 1.386 . S
C1190 C1192 1.391 . S
C1191 C1190 1.386 . S
C1191 C1195 1.393 . S
C1192 H1181 0.950 . S
C1192 C1190 1.391 . S
C1192 C1193 1.400 . S
C1193 C1187 1.491 . S
C1193 C1192 1.400 . S
C1193 C1194 1.398 . S
C1194 H1182 0.950 . S
C1194 C1193 1.398 . S
C1194 C1195 1.391 . S
C1195 H1183 0.950 . S
C1195 C1191 1.393 . S
C1195 C1194 1.391 . S
H1196 C1204 0.950 . S
H1197 C1209 0.950 . S
H1198 C1206 0.950 . S
H1199 C1208 0.950 . S
H1200 C1210 0.950 . S
H1201 C1212 0.950 . S
H1202 C1214 0.950 . S
H1203 C1215 0.950 . S
C1204 H1196 0.950 . S
C1204 C1205 1.386 . S
C1204 C1206 1.391 . S
C1205 C1204 1.386 . S
C1205 C1209 1.393 . S
C1206 H1198 0.950 . S
C1206 C1204 1.391 . S
C1206 C1207 1.400 . S
C1207 C1206 1.400 . S
C1207 C1208 1.398 . S
C1207 C1213 1.491 . S
C1208 H1199 0.950 . S
C1208 C1207 1.398 . S
C1208 C1209 1.391 . S
C1209 H1197 0.950 . S
C1209 C1205 1.393 . S
C1209 C1208 1.391 . S
C1210 H1200 0.950 . S
C1210 C1211 1.386 . S
C1210 C1212 1.391 . S
C1211 C1210 1.386 . S
C1211 C1215 1.393 . S
C1212 H1201 0.950 . S
C1212 C1210 1.391 . S
C1212 C1213 1.400 . S
C1213 C1207 1.491 . S
C1213 C1212 1.400 . S
C1213 C1214 1.398 . S
C1214 H1202 0.950 . S
C1214 C1213 1.398 . S
C1214 C1215 1.391 . S
C1215 H1203 0.950 . S
C1215 C1211 1.393 . S
C1215 C1214 1.391 . S
H1216 C1224 0.950 . S
H1217 C1229 0.950 . S
H1218 C1226 0.950 . S
H1219 C1228 0.950 . S
H1220 C1230 0.950 . S
H1221 C1232 0.950 . S
H1222 C1234 0.950 . S
H1223 C1235 0.950 . S
C1224 H1216 0.950 . S
C1224 C1225 1.386 . S
C1224 C1226 1.391 . S
C1225 C1224 1.386 . S
C1225 C1229 1.393 . S
C1226 H1218 0.950 . S
C1226 C1224 1.391 . S
C1226 C1227 1.400 . S
C1227 C1226 1.400 . S
C1227 C1228 1.398 . S
C1227 C1233 1.491 . S
C1228 H1219 0.950 . S
C1228 C1227 1.398 . S
C1228 C1229 1.391 . S
C1229 H1217 0.950 . S
C1229 C1225 1.393 . S
C1229 C1228 1.391 . S
C1230 H1220 0.950 . S
C1230 C1231 1.386 . S
C1230 C1232 1.391 . S
C1231 C1230 1.386 . S
C1231 C1235 1.393 . S
C1232 H1221 0.950 . S
C1232 C1230 1.391 . S
C1232 C1233 1.400 . S
C1233 C1227 1.491 . S
C1233 C1232 1.400 . S
C1233 C1234 1.398 . S
C1234 H1222 0.950 . S
C1234 C1233 1.398 . S
C1234 C1235 1.391 . S
C1235 H1223 0.950 . S
C1235 C1231 1.393 . S
C1235 C1234 1.391 . S
H1236 C1244 0.950 . S
H1237 C1249 0.950 . S
H1238 C1246 0.950 . S
H1239 C1248 0.950 . S
H1240 C1250 0.950 . S
H1241 C1252 0.950 . S
H1242 C1254 0.950 . S
H1243 C1255 0.950 . S
C1244 H1236 0.950 . S
C1244 C1245 1.386 . S
C1244 C1246 1.391 . S
C1245 C1244 1.386 . S
C1245 C1249 1.393 . S
C1246 H1238 0.950 . S
C1246 C1244 1.391 . S
C1246 C1247 1.400 . S
C1247 C1246 1.400 . S
C1247 C1248 1.398 . S
C1247 C1253 1.491 . S
C1248 H1239 0.950 . S
C1248 C1247 1.398 . S
C1248 C1249 1.391 . S
C1249 H1237 0.950 . S
C1249 C1245 1.393 . S
C1249 C1248 1.391 . S
C1250 H1240 0.950 . S
C1250 C1251 1.386 . S
C1250 C1252 1.391 . S
C1251 C1250 1.386 . S
C1251 C1255 1.393 . S
C1252 H1241 0.950 . S
C1252 C1250 1.391 . S
C1252 C1253 1.400 . S
C1253 C1247 1.491 . S
C1253 C1252 1.400 . S
C1253 C1254 1.398 . S
C1254 H1242 0.950 . S
C1254 C1253 1.398 . S
C1254 C1255 1.391 . S
C1255 H1243 0.950 . S
C1255 C1251 1.393 . S
C1255 C1254 1.391 . S
H1256 C1264 0.950 . S
H1257 C1269 0.950 . S
H1258 C1266 0.950 . S
H1259 C1268 0.950 . S
H1260 C1270 0.950 . S
H1261 C1272 0.950 . S
H1262 C1274 0.950 . S
H1263 C1275 0.950 . S
C1264 H1256 0.950 . S
C1264 C1265 1.386 . S
C1264 C1266 1.391 . S
C1265 C1264 1.386 . S
C1265 C1269 1.393 . S
C1266 H1258 0.950 . S
C1266 C1264 1.391 . S
C1266 C1267 1.400 . S
C1267 C1266 1.400 . S
C1267 C1268 1.398 . S
C1267 C1273 1.491 . S
C1268 H1259 0.950 . S
C1268 C1267 1.398 . S
C1268 C1269 1.391 . S
C1269 H1257 0.950 . S
C1269 C1265 1.393 . S
C1269 C1268 1.391 . S
C1270 H1260 0.950 . S
C1270 C1271 1.386 . S
C1270 C1272 1.391 . S
C1271 C1270 1.386 . S
C1271 C1275 1.393 . S
C1272 H1261 0.950 . S
C1272 C1270 1.391 . S
C1272 C1273 1.400 . S
C1273 C1267 1.491 . S
C1273 C1272 1.400 . S
C1273 C1274 1.398 . S
C1274 H1262 0.950 . S
C1274 C1273 1.398 . S
C1274 C1275 1.391 . S
C1275 H1263 0.950 . S
C1275 C1271 1.393 . S
C1275 C1274 1.391 . S
H1276 C1284 0.950 . S
H1277 C1289 0.950 . S
H1278 C1286 0.950 . S
H1279 C1288 0.950 . S
H1280 C1290 0.950 . S
H1281 C1292 0.950 . S
H1282 C1294 0.950 . S
H1283 C1295 0.950 . S
C1284 H1276 0.950 . S
C1284 C1285 1.386 . S
C1284 C1286 1.391 . S
C1285 C1284 1.386 . S
C1285 C1289 1.393 . S
C1286 H1278 0.950 . S
C1286 C1284 1.391 . S
C1286 C1287 1.400 . S
C1287 C1286 1.400 . S
C1287 C1288 1.398 . S
C1287 C1293 1.491 . S
C1288 H1279 0.950 . S
C1288 C1287 1.398 . S
C1288 C1289 1.391 . S
C1289 H1277 0.950 . S
C1289 C1285 1.393 . S
C1289 C1288 1.391 . S
C1290 H1280 0.950 . S
C1290 C1291 1.386 . S
C1290 C1292 1.391 . S
C1291 C1290 1.386 . S
C1291 C1295 1.393 . S
C1292 H1281 0.950 . S
C1292 C1290 1.391 . S
C1292 C1293 1.400 . S
C1293 C1287 1.491 . S
C1293 C1292 1.400 . S
C1293 C1294 1.398 . S
C1294 H1282 0.950 . S
C1294 C1293 1.398 . S
C1294 C1295 1.391 . S
C1295 H1283 0.950 . S
C1295 C1291 1.393 . S
C1295 C1294 1.391 . S
H1296 C1304 0.950 . S
H1297 C1309 0.950 . S
H1298 C1306 0.950 . S
H1299 C1308 0.950 . S
H1300 C1310 0.950 . S
H1301 C1312 0.950 . S
H1302 C1314 0.950 . S
H1303 C1315 0.950 . S
C1304 H1296 0.950 . S
C1304 C1305 1.386 . S
C1304 C1306 1.391 . S
C1305 C1304 1.386 . S
C1305 C1309 1.393 . S
C1306 H1298 0.950 . S
C1306 C1304 1.391 . S
C1306 C1307 1.400 . S
C1307 C1306 1.400 . S
C1307 C1308 1.398 . S
C1307 C1313 1.491 . S
C1308 H1299 0.950 . S
C1308 C1307 1.398 . S
C1308 C1309 1.391 . S
C1309 H1297 0.950 . S
C1309 C1305 1.393 . S
C1309 C1308 1.391 . S
C1310 H1300 0.950 . S
C1310 C1311 1.386 . S
C1310 C1312 1.391 . S
C1311 C1310 1.386 . S
C1311 C1315 1.393 . S
C1312 H1301 0.950 . S
C1312 C1310 1.391 . S
C1312 C1313 1.400 . S
C1313 C1307 1.491 . S
C1313 C1312 1.400 . S
C1313 C1314 1.398 . S
C1314 H1302 0.950 . S
C1314 C1313 1.398 . S
C1314 C1315 1.391 . S
C1315 H1303 0.950 . S
C1315 C1311 1.393 . S
C1315 C1314 1.391 . S
H1316 C1324 0.950 . S
H1317 C1329 0.950 . S
H1318 C1326 0.950 . S
H1319 C1328 0.950 . S
H1320 C1330 0.950 . S
H1321 C1332 0.950 . S
H1322 C1334 0.950 . S
H1323 C1335 0.950 1_556 S
C1324 H1316 0.950 . S
C1324 C1325 1.386 . S
C1324 C1326 1.391 . S
C1325 C1324 1.386 . S
C1325 C1329 1.393 . S
C1326 H1318 0.950 . S
C1326 C1324 1.391 . S
C1326 C1327 1.400 . S
C1327 C1326 1.400 . S
C1327 C1328 1.398 . S
C1327 C1333 1.491 . S
C1328 H1319 0.950 . S
C1328 C1327 1.398 . S
C1328 C1329 1.391 . S
C1329 H1317 0.950 . S
C1329 C1325 1.393 . S
C1329 C1328 1.391 . S
C1330 H1320 0.950 . S
C1330 C1331 1.386 . S
C1330 C1332 1.391 . S
C1331 C1330 1.386 . S
C1331 C1335 1.393 . S
C1332 H1321 0.950 . S
C1332 C1330 1.391 . S
C1332 C1333 1.400 . S
C1333 C1327 1.491 . S
C1333 C1332 1.400 . S
C1333 C1334 1.398 . S
C1334 H1322 0.950 . S
C1334 C1333 1.398 . S
C1334 C1335 1.391 . S
C1335 H1323 0.950 1_554 S
C1335 C1331 1.393 . S
C1335 C1334 1.391 . S
H1336 C1344 0.950 . S
H1337 C1349 0.950 . S
H1338 C1346 0.950 . S
H1339 C1348 0.950 . S
H1340 C1350 0.950 . S
H1341 C1352 0.950 . S
H1342 C1354 0.950 . S
H1343 C1355 0.950 . S
C1344 H1336 0.950 . S
C1344 C1345 1.386 . S
C1344 C1346 1.391 . S
C1345 C1344 1.386 . S
C1345 C1349 1.393 . S
C1346 H1338 0.950 . S
C1346 C1344 1.391 . S
C1346 C1347 1.400 . S
C1347 C1346 1.400 . S
C1347 C1348 1.398 . S
C1347 C1353 1.491 . S
C1348 H1339 0.950 . S
C1348 C1347 1.398 . S
C1348 C1349 1.391 . S
C1349 H1337 0.950 . S
C1349 C1345 1.393 . S
C1349 C1348 1.391 . S
C1350 H1340 0.950 . S
C1350 C1351 1.386 . S
C1350 C1352 1.391 . S
C1351 C1350 1.386 . S
C1351 C1355 1.393 . S
C1352 H1341 0.950 . S
C1352 C1350 1.391 . S
C1352 C1353 1.400 . S
C1353 C1347 1.491 . S
C1353 C1352 1.400 . S
C1353 C1354 1.398 . S
C1354 H1342 0.950 . S
C1354 C1353 1.398 . S
C1354 C1355 1.391 . S
C1355 H1343 0.950 . S
C1355 C1351 1.393 . S
C1355 C1354 1.391 . S
H1356 C1364 0.950 . S
H1357 C1369 0.950 . S
H1358 C1366 0.950 . S
H1359 C1368 0.950 . S
H1360 C1370 0.950 . S
H1361 C1372 0.950 . S
H1362 C1374 0.950 . S
H1363 C1375 0.950 . S
C1364 H1356 0.950 . S
C1364 C1365 1.386 . S
C1364 C1366 1.391 . S
C1365 C1364 1.386 . S
C1365 C1369 1.393 . S
C1366 H1358 0.950 . S
C1366 C1364 1.391 . S
C1366 C1367 1.400 . S
C1367 C1366 1.400 . S
C1367 C1368 1.398 . S
C1367 C1373 1.491 . S
C1368 H1359 0.950 . S
C1368 C1367 1.398 . S
C1368 C1369 1.391 . S
C1369 H1357 0.950 . S
C1369 C1365 1.393 . S
C1369 C1368 1.391 . S
C1370 H1360 0.950 . S
C1370 C1371 1.386 . S
C1370 C1372 1.391 . S
C1371 C1370 1.386 . S
C1371 C1375 1.393 . S
C1372 H1361 0.950 . S
C1372 C1370 1.391 . S
C1372 C1373 1.400 . S
C1373 C1367 1.491 . S
C1373 C1372 1.400 . S
C1373 C1374 1.398 . S
C1374 H1362 0.950 . S
C1374 C1373 1.398 . S
C1374 C1375 1.391 . S
C1375 H1363 0.950 . S
C1375 C1371 1.393 . S
C1375 C1374 1.391 . S
H1376 C1384 0.950 . S
H1377 C1389 0.950 . S
H1378 C1386 0.950 . S
H1379 C1388 0.950 . S
H1380 C1390 0.950 . S
H1381 C1392 0.950 . S
H1382 C1394 0.950 . S
H1383 C1395 0.950 . S
C1384 H1376 0.950 . S
C1384 C1385 1.386 . S
C1384 C1386 1.391 . S
C1385 C1384 1.386 . S
C1385 C1389 1.393 . S
C1386 H1378 0.950 . S
C1386 C1384 1.391 . S
C1386 C1387 1.400 . S
C1387 C1386 1.400 . S
C1387 C1388 1.398 . S
C1387 C1393 1.491 . S
C1388 H1379 0.950 . S
C1388 C1387 1.398 . S
C1388 C1389 1.391 . S
C1389 H1377 0.950 . S
C1389 C1385 1.393 . S
C1389 C1388 1.391 . S
C1390 H1380 0.950 . S
C1390 C1391 1.386 . S
C1390 C1392 1.391 . S
C1391 C1390 1.386 . S
C1391 C1395 1.393 . S
C1392 H1381 0.950 . S
C1392 C1390 1.391 . S
C1392 C1393 1.400 . S
C1393 C1387 1.491 . S
C1393 C1392 1.400 . S
C1393 C1394 1.398 . S
C1394 H1382 0.950 . S
C1394 C1393 1.398 . S
C1394 C1395 1.391 . S
C1395 H1383 0.950 . S
C1395 C1391 1.393 . S
C1395 C1394 1.391 . S
H1396 C1404 0.950 . S
H1397 C1409 0.950 . S
H1398 C1406 0.950 . S
H1399 C1408 0.950 . S
H1400 C1410 0.950 . S
H1401 C1412 0.950 . S
H1402 C1414 0.950 . S
H1403 C1415 0.950 . S
C1404 H1396 0.950 . S
C1404 C1405 1.386 . S
C1404 C1406 1.391 . S
C1405 C1404 1.386 . S
C1405 C1409 1.393 . S
C1406 H1398 0.950 . S
C1406 C1404 1.391 . S
C1406 C1407 1.400 . S
C1407 C1406 1.400 . S
C1407 C1408 1.398 . S
C1407 C1413 1.491 . S
C1408 H1399 0.950 . S
C1408 C1407 1.398 . S
C1408 C1409 1.391 . S
C1409 H1397 0.950 . S
C1409 C1405 1.393 . S
C1409 C1408 1.391 . S
C1410 H1400 0.950 . S
C1410 C1411 1.386 . S
C1410 C1412 1.391 . S
C1411 C1410 1.386 . S
C1411 C1415 1.393 . S
C1412 H1401 0.950 . S
C1412 C1410 1.391 . S
C1412 C1413 1.400 . S
C1413 C1407 1.491 . S
C1413 C1412 1.400 . S
C1413 C1414 1.398 . S
C1414 H1402 0.950 . S
C1414 C1413 1.398 . S
C1414 C1415 1.391 . S
C1415 H1403 0.950 . S
C1415 C1411 1.393 . S
C1415 C1414 1.391 . S
H1416 C1424 0.950 . S
H1417 C1429 0.950 . S
H1418 C1426 0.950 . S
H1419 C1428 0.950 . S
H1420 C1430 0.950 . S
H1421 C1432 0.950 . S
H1422 C1434 0.950 . S
H1423 C1435 0.950 . S
C1424 H1416 0.950 . S
C1424 C1425 1.386 . S
C1424 C1426 1.391 . S
C1425 C1424 1.386 . S
C1425 C1429 1.393 . S
C1426 H1418 0.950 . S
C1426 C1424 1.391 . S
C1426 C1427 1.400 . S
C1427 C1426 1.400 . S
C1427 C1428 1.398 . S
C1427 C1433 1.491 . S
C1428 H1419 0.950 . S
C1428 C1427 1.398 . S
C1428 C1429 1.391 . S
C1429 H1417 0.950 . S
C1429 C1425 1.393 . S
C1429 C1428 1.391 . S
C1430 H1420 0.950 . S
C1430 C1431 1.386 . S
C1430 C1432 1.391 . S
C1431 C1430 1.386 . S
C1431 C1435 1.393 . S
C1432 H1421 0.950 . S
C1432 C1430 1.391 . S
C1432 C1433 1.400 . S
C1433 C1427 1.491 . S
C1433 C1432 1.400 . S
C1433 C1434 1.398 . S
C1434 H1422 0.950 . S
C1434 C1433 1.398 . S
C1434 C1435 1.391 . S
C1435 H1423 0.950 . S
C1435 C1431 1.393 . S
C1435 C1434 1.391 . S
H1436 C1444 0.950 . S
H1437 C1449 0.950 . S
H1438 C1446 0.950 . S
H1439 C1448 0.950 . S
H1440 C1450 0.950 . S
H1441 C1452 0.950 . S
H1442 C1454 0.950 . S
H1443 C1455 0.950 . S
C1444 H1436 0.950 . S
C1444 C1445 1.386 . S
C1444 C1446 1.391 . S
C1445 C1444 1.386 . S
C1445 C1449 1.393 . S
C1446 H1438 0.950 . S
C1446 C1444 1.391 . S
C1446 C1447 1.400 . S
C1447 C1446 1.400 . S
C1447 C1448 1.398 . S
C1447 C1453 1.491 . S
C1448 H1439 0.950 . S
C1448 C1447 1.398 . S
C1448 C1449 1.391 . S
C1449 H1437 0.950 . S
C1449 C1445 1.393 . S
C1449 C1448 1.391 . S
C1450 H1440 0.950 . S
C1450 C1451 1.386 . S
C1450 C1452 1.391 . S
C1451 C1450 1.386 . S
C1451 C1455 1.393 . S
C1452 H1441 0.950 . S
C1452 C1450 1.391 . S
C1452 C1453 1.400 . S
C1453 C1447 1.491 . S
C1453 C1452 1.400 . S
C1453 C1454 1.398 . S
C1454 H1442 0.950 . S
C1454 C1453 1.398 . S
C1454 C1455 1.391 . S
C1455 H1443 0.950 . S
C1455 C1451 1.393 . S
C1455 C1454 1.391 . S
H1456 C1464 0.950 . S
H1457 C1469 0.950 . S
H1458 C1466 0.950 . S
H1459 C1468 0.950 . S
H1460 C1470 0.950 . S
H1461 C1472 0.950 . S
H1462 C1474 0.950 . S
H1463 C1475 0.950 . S
C1464 H1456 0.950 . S
C1464 C1465 1.386 . S
C1464 C1466 1.391 . S
C1465 C1464 1.386 . S
C1465 C1469 1.393 . S
C1466 H1458 0.950 . S
C1466 C1464 1.391 . S
C1466 C1467 1.400 . S
C1467 C1466 1.400 . S
C1467 C1468 1.398 . S
C1467 C1473 1.491 . S
C1468 H1459 0.950 . S
C1468 C1467 1.398 . S
C1468 C1469 1.391 . S
C1469 H1457 0.950 . S
C1469 C1465 1.393 . S
C1469 C1468 1.391 . S
C1470 H1460 0.950 . S
C1470 C1471 1.386 . S
C1470 C1472 1.391 . S
C1471 C1470 1.386 . S
C1471 C1475 1.393 . S
C1472 H1461 0.950 . S
C1472 C1470 1.391 . S
C1472 C1473 1.400 . S
C1473 C1467 1.491 . S
C1473 C1472 1.400 . S
C1473 C1474 1.398 . S
C1474 H1462 0.950 . S
C1474 C1473 1.398 . S
C1474 C1475 1.391 . S
C1475 H1463 0.950 . S
C1475 C1471 1.393 . S
C1475 C1474 1.391 . S
H1476 C1484 0.950 . S
H1477 C1489 0.950 . S
H1478 C1486 0.950 . S
H1479 C1488 0.950 . S
H1480 C1490 0.950 . S
H1481 C1492 0.950 . S
H1482 C1494 0.950 . S
H1483 C1495 0.950 . S
C1484 H1476 0.950 . S
C1484 C1485 1.386 . S
C1484 C1486 1.391 . S
C1485 C1484 1.386 . S
C1485 C1489 1.393 . S
C1486 H1478 0.950 . S
C1486 C1484 1.391 . S
C1486 C1487 1.400 . S
C1487 C1486 1.400 . S
C1487 C1488 1.398 . S
C1487 C1493 1.491 . S
C1488 H1479 0.950 . S
C1488 C1487 1.398 . S
C1488 C1489 1.391 . S
C1489 H1477 0.950 . S
C1489 C1485 1.393 . S
C1489 C1488 1.391 . S
C1490 H1480 0.950 . S
C1490 C1491 1.386 . S
C1490 C1492 1.391 . S
C1491 C1490 1.386 . S
C1491 C1495 1.393 . S
C1492 H1481 0.950 . S
C1492 C1490 1.391 . S
C1492 C1493 1.400 . S
C1493 C1487 1.491 . S
C1493 C1492 1.400 . S
C1493 C1494 1.398 . S
C1494 H1482 0.950 . S
C1494 C1493 1.398 . S
C1494 C1495 1.391 . S
C1495 H1483 0.950 . S
C1495 C1491 1.393 . S
C1495 C1494 1.391 . S
H1496 C1504 0.950 . S
H1497 C1509 0.950 . S
H1498 C1506 0.950 . S
H1499 C1508 0.950 . S
H1500 C1510 0.950 . S
H1501 C1512 0.950 . S
H1502 C1514 0.950 . S
H1503 C1515 0.950 . S
C1504 H1496 0.950 . S
C1504 C1505 1.386 . S
C1504 C1506 1.391 . S
C1505 C1504 1.386 . S
C1505 C1509 1.393 . S
C1506 H1498 0.950 . S
C1506 C1504 1.391 . S
C1506 C1507 1.400 . S
C1507 C1506 1.400 . S
C1507 C1508 1.398 . S
C1507 C1513 1.491 . S
C1508 H1499 0.950 . S
C1508 C1507 1.398 . S
C1508 C1509 1.391 . S
C1509 H1497 0.950 . S
C1509 C1505 1.393 . S
C1509 C1508 1.391 . S
C1510 H1500 0.950 . S
C1510 C1511 1.386 . S
C1510 C1512 1.391 . S
C1511 C1510 1.386 . S
C1511 C1515 1.393 . S
C1512 H1501 0.950 . S
C1512 C1510 1.391 . S
C1512 C1513 1.400 . S
C1513 C1507 1.491 . S
C1513 C1512 1.400 . S
C1513 C1514 1.398 . S
C1514 H1502 0.950 . S
C1514 C1513 1.398 . S
C1514 C1515 1.391 . S
C1515 H1503 0.950 . S
C1515 C1511 1.393 . S
C1515 C1514 1.391 . S
H1516 C1524 0.950 . S
H1517 C1529 0.950 . S
H1518 C1526 0.950 . S
H1519 C1528 0.950 . S
H1520 C1530 0.950 . S
H1521 C1532 0.950 . S
H1522 C1534 0.950 . S
H1523 C1535 0.950 . S
C1524 H1516 0.950 . S
C1524 C1525 1.386 . S
C1524 C1526 1.391 . S
C1525 C1524 1.386 . S
C1525 C1529 1.393 . S
C1526 H1518 0.950 . S
C1526 C1524 1.391 . S
C1526 C1527 1.400 . S
C1527 C1526 1.400 . S
C1527 C1528 1.398 . S
C1527 C1533 1.491 . S
C1528 H1519 0.950 . S
C1528 C1527 1.398 . S
C1528 C1529 1.391 . S
C1529 H1517 0.950 . S
C1529 C1525 1.393 . S
C1529 C1528 1.391 . S
C1530 H1520 0.950 . S
C1530 C1531 1.386 . S
C1530 C1532 1.391 . S
C1531 C1530 1.386 . S
C1531 C1535 1.393 . S
C1532 H1521 0.950 . S
C1532 C1530 1.391 . S
C1532 C1533 1.400 . S
C1533 C1527 1.491 . S
C1533 C1532 1.400 . S
C1533 C1534 1.398 . S
C1534 H1522 0.950 . S
C1534 C1533 1.398 . S
C1534 C1535 1.391 . S
C1535 H1523 0.950 . S
C1535 C1531 1.393 . S
C1535 C1534 1.391 . S
H1536 C1544 0.950 . S
H1537 C1549 0.950 . S
H1538 C1546 0.950 . S
H1539 C1548 0.950 . S
H1540 C1550 0.950 . S
H1541 C1552 0.950 . S
H1542 C1554 0.950 . S
H1543 C1555 0.950 . S
C1544 H1536 0.950 . S
C1544 C1545 1.386 . S
C1544 C1546 1.391 . S
C1545 C1544 1.386 . S
C1545 C1549 1.393 . S
C1546 H1538 0.950 . S
C1546 C1544 1.391 . S
C1546 C1547 1.400 . S
C1547 C1546 1.400 . S
C1547 C1548 1.398 . S
C1547 C1553 1.491 . S
C1548 H1539 0.950 . S
C1548 C1547 1.398 . S
C1548 C1549 1.391 . S
C1549 H1537 0.950 . S
C1549 C1545 1.393 . S
C1549 C1548 1.391 . S
C1550 H1540 0.950 . S
C1550 C1551 1.386 . S
C1550 C1552 1.391 . S
C1551 C1550 1.386 . S
C1551 C1555 1.393 . S
C1552 H1541 0.950 . S
C1552 C1550 1.391 . S
C1552 C1553 1.400 . S
C1553 C1547 1.491 . S
C1553 C1552 1.400 . S
C1553 C1554 1.398 . S
C1554 H1542 0.950 . S
C1554 C1553 1.398 . S
C1554 C1555 1.391 . S
C1555 H1543 0.950 . S
C1555 C1551 1.393 . S
C1555 C1554 1.391 . S
H1556 C1564 0.950 . S
H1557 C1569 0.950 . S
H1558 C1566 0.950 . S
H1559 C1568 0.950 . S
H1560 C1570 0.950 . S
H1561 C1572 0.950 . S
H1562 C1574 0.950 . S
H1563 C1575 0.950 . S
C1564 H1556 0.950 . S
C1564 C1565 1.386 . S
C1564 C1566 1.391 . S
C1565 C1564 1.386 . S
C1565 C1569 1.393 . S
C1566 H1558 0.950 . S
C1566 C1564 1.391 . S
C1566 C1567 1.400 . S
C1567 C1566 1.400 . S
C1567 C1568 1.398 . S
C1567 C1573 1.491 . S
C1568 H1559 0.950 . S
C1568 C1567 1.398 . S
C1568 C1569 1.391 . S
C1569 H1557 0.950 . S
C1569 C1565 1.393 . S
C1569 C1568 1.391 . S
C1570 H1560 0.950 . S
C1570 C1571 1.386 . S
C1570 C1572 1.391 . S
C1571 C1570 1.386 . S
C1571 C1575 1.393 . S
C1572 H1561 0.950 . S
C1572 C1570 1.391 . S
C1572 C1573 1.400 . S
C1573 C1567 1.491 . S
C1573 C1572 1.400 . S
C1573 C1574 1.398 . S
C1574 H1562 0.950 . S
C1574 C1573 1.398 . S
C1574 C1575 1.391 . S
C1575 H1563 0.950 . S
C1575 C1571 1.393 . S
C1575 C1574 1.391 . S
H1576 C1584 0.950 . S
H1577 C1589 0.950 . S
H1578 C1586 0.950 . S
H1579 C1588 0.950 . S
H1580 C1590 0.950 . S
H1581 C1592 0.950 . S
H1582 C1594 0.950 . S
H1583 C1595 0.950 . S
C1584 H1576 0.950 . S
C1584 C1585 1.386 . S
C1584 C1586 1.391 . S
C1585 C1584 1.386 . S
C1585 C1589 1.393 . S
C1586 H1578 0.950 . S
C1586 C1584 1.391 . S
C1586 C1587 1.400 . S
C1587 C1586 1.400 . S
C1587 C1588 1.398 . S
C1587 C1593 1.491 . S
C1588 H1579 0.950 . S
C1588 C1587 1.398 . S
C1588 C1589 1.391 . S
C1589 H1577 0.950 . S
C1589 C1585 1.393 . S
C1589 C1588 1.391 . S
C1590 H1580 0.950 . S
C1590 C1591 1.386 . S
C1590 C1592 1.391 . S
C1591 C1590 1.386 . S
C1591 C1595 1.393 . S
C1592 H1581 0.950 . S
C1592 C1590 1.391 . S
C1592 C1593 1.400 . S
C1593 C1587 1.491 . S
C1593 C1592 1.400 . S
C1593 C1594 1.398 . S
C1594 H1582 0.950 . S
C1594 C1593 1.398 . S
C1594 C1595 1.391 . S
C1595 H1583 0.950 . S
C1595 C1591 1.393 . S
C1595 C1594 1.391 . S
H1596 C1604 0.950 . S
H1597 C1609 0.950 . S
H1598 C1606 0.950 . S
H1599 C1608 0.950 . S
H1600 C1610 0.950 . S
H1601 C1612 0.950 . S
H1602 C1614 0.950 . S
H1603 C1615 0.966 . S
C1604 H1596 0.950 . S
C1604 C1605 1.386 . S
C1604 C1606 1.391 . S
C1605 C1604 1.386 . S
C1605 C1609 1.393 . S
C1606 H1598 0.950 . S
C1606 C1604 1.391 . S
C1606 C1607 1.400 . S
C1607 C1606 1.400 . S
C1607 C1608 1.398 . S
C1607 C1613 1.491 . S
C1608 H1599 0.950 . S
C1608 C1607 1.398 . S
C1608 C1609 1.391 . S
C1609 H1597 0.950 . S
C1609 C1605 1.393 . S
C1609 C1608 1.391 . S
C1610 H1600 0.950 . S
C1610 C1611 1.386 . S
C1610 C1612 1.391 . S
C1611 C1610 1.386 . S
C1611 C1615 1.393 . S
C1612 H1601 0.950 . S
C1612 C1610 1.391 . S
C1612 C1613 1.400 . S
C1613 C1607 1.491 . S
C1613 C1612 1.400 . S
C1613 C1614 1.398 . S
C1614 H1602 0.950 . S
C1614 C1613 1.398 . S
C1614 C1615 1.391 . S
C1615 H1603 0.966 . S
C1615 C1611 1.393 . S
C1615 C1614 1.391 . S
H1616 C1624 0.950 . S
H1617 C1629 0.950 . S
H1618 C1626 0.950 . S
H1619 C1628 0.950 . S
H1620 C1630 0.950 . S
H1621 C1632 0.950 . S
H1622 C1634 0.950 . S
H1623 C1635 0.950 . S
C1624 H1616 0.950 . S
C1624 C1625 1.386 . S
C1624 C1626 1.391 . S
C1625 C1624 1.386 . S
C1625 C1629 1.393 . S
C1626 H1618 0.950 . S
C1626 C1624 1.391 . S
C1626 C1627 1.400 . S
C1627 C1626 1.400 . S
C1627 C1628 1.398 . S
C1627 C1633 1.491 . S
C1628 H1619 0.950 . S
C1628 C1627 1.398 . S
C1628 C1629 1.391 . S
C1629 H1617 0.950 . S
C1629 C1625 1.393 . S
C1629 C1628 1.391 . S
C1630 H1620 0.950 . S
C1630 C1631 1.386 . S
C1630 C1632 1.391 . S
C1631 C1630 1.386 . S
C1631 C1635 1.393 . S
C1632 H1621 0.950 . S
C1632 C1630 1.391 . S
C1632 C1633 1.400 . S
C1633 C1627 1.491 . S
C1633 C1632 1.400 . S
C1633 C1634 1.398 . S
C1634 H1622 0.950 . S
C1634 C1633 1.398 . S
C1634 C1635 1.391 . S
C1635 H1623 0.950 . S
C1635 C1631 1.393 . S
C1635 C1634 1.391 . S
H1636 C1644 0.950 . S
H1637 C1649 0.950 . S
H1638 C1646 0.950 . S
H1639 C1648 0.950 . S
H1640 C1650 0.950 . S
H1641 C1652 0.950 . S
H1642 C1654 0.950 . S
H1643 C1655 0.950 . S
C1644 H1636 0.950 . S
C1644 C1645 1.386 . S
C1644 C1646 1.391 . S
C1645 C1644 1.386 . S
C1645 C1649 1.393 . S
C1646 H1638 0.950 . S
C1646 C1644 1.391 . S
C1646 C1647 1.400 . S
C1647 C1646 1.400 . S
C1647 C1648 1.398 . S
C1647 C1653 1.491 . S
C1648 H1639 0.950 . S
C1648 C1647 1.398 . S
C1648 C1649 1.391 . S
C1649 H1637 0.950 . S
C1649 C1645 1.393 . S
C1649 C1648 1.391 . S
C1650 H1640 0.950 . S
C1650 C1651 1.386 . S
C1650 C1652 1.391 . S
C1651 C1650 1.386 . S
C1651 C1655 1.393 . S
C1652 H1641 0.950 . S
C1652 C1650 1.391 . S
C1652 C1653 1.400 . S
C1653 C1647 1.491 . S
C1653 C1652 1.400 . S
C1653 C1654 1.398 . S
C1654 H1642 0.950 . S
C1654 C1653 1.398 . S
C1654 C1655 1.391 . S
C1655 H1643 0.950 . S
C1655 C1651 1.393 . S
C1655 C1654 1.391 . S
H1656 C1664 0.950 . S
H1657 C1669 0.950 . S
H1658 C1666 0.950 . S
H1659 C1668 0.950 . S
H1660 C1670 0.950 . S
H1661 C1672 0.950 . S
H1662 C1674 0.950 . S
H1663 C1675 0.950 . S
C1664 H1656 0.950 . S
C1664 C1665 1.386 . S
C1664 C1666 1.391 . S
C1665 C1664 1.386 . S
C1665 C1669 1.393 . S
C1666 H1658 0.950 . S
C1666 C1664 1.391 . S
C1666 C1667 1.400 . S
C1667 C1666 1.400 . S
C1667 C1668 1.398 . S
C1667 C1673 1.491 . S
C1668 H1659 0.950 . S
C1668 C1667 1.398 . S
C1668 C1669 1.391 . S
C1669 H1657 0.950 . S
C1669 C1665 1.393 . S
C1669 C1668 1.391 . S
C1670 H1660 0.950 . S
C1670 C1671 1.386 . S
C1670 C1672 1.391 . S
C1671 C1670 1.386 . S
C1671 C1675 1.393 . S
C1672 H1661 0.950 . S
C1672 C1670 1.391 . S
C1672 C1673 1.400 . S
C1673 C1667 1.491 . S
C1673 C1672 1.400 . S
C1673 C1674 1.398 . S
C1674 H1662 0.950 . S
C1674 C1673 1.398 . S
C1674 C1675 1.391 . S
C1675 H1663 0.950 . S
C1675 C1671 1.393 . S
C1675 C1674 1.391 . S
H1676 C1684 0.950 . S
H1677 C1689 0.950 . S
H1678 C1686 0.950 . S
H1679 C1688 0.950 . S
H1680 C1690 0.950 . S
H1681 C1692 0.950 . S
H1682 C1694 0.950 . S
H1683 C1695 0.950 . S
C1684 H1676 0.950 . S
C1684 C1685 1.386 . S
C1684 C1686 1.391 . S
C1685 C1684 1.386 . S
C1685 C1689 1.393 . S
C1686 H1678 0.950 . S
C1686 C1684 1.391 . S
C1686 C1687 1.400 . S
C1687 C1686 1.400 . S
C1687 C1688 1.398 . S
C1687 C1693 1.491 . S
C1688 H1679 0.950 . S
C1688 C1687 1.398 . S
C1688 C1689 1.391 . S
C1689 H1677 0.950 . S
C1689 C1685 1.393 . S
C1689 C1688 1.391 . S
C1690 H1680 0.950 . S
C1690 C1691 1.386 . S
C1690 C1692 1.391 . S
C1691 C1690 1.386 . S
C1691 C1695 1.393 . S
C1692 H1681 0.950 . S
C1692 C1690 1.391 . S
C1692 C1693 1.400 . S
C1693 C1687 1.491 . S
C1693 C1692 1.400 . S
C1693 C1694 1.398 . S
C1694 H1682 0.950 . S
C1694 C1693 1.398 . S
C1694 C1695 1.391 . S
C1695 H1683 0.950 . S
C1695 C1691 1.393 . S
C1695 C1694 1.391 . S
H1696 C1704 0.950 . S
H1697 C1709 0.950 . S
H1698 C1706 0.950 . S
H1699 C1708 0.950 . S
H1700 C1710 0.950 . S
H1701 C1712 0.950 . S
H1702 C1714 0.950 . S
H1703 C1715 0.950 . S
C1704 H1696 0.950 . S
C1704 C1705 1.386 . S
C1704 C1706 1.391 . S
C1705 C1704 1.386 . S
C1705 C1709 1.393 . S
C1706 H1698 0.950 . S
C1706 C1704 1.391 . S
C1706 C1707 1.400 . S
C1707 C1706 1.400 . S
C1707 C1708 1.398 . S
C1707 C1713 1.491 . S
C1708 H1699 0.950 . S
C1708 C1707 1.398 . S
C1708 C1709 1.391 . S
C1709 H1697 0.950 . S
C1709 C1705 1.393 . S
C1709 C1708 1.391 . S
C1710 H1700 0.950 . S
C1710 C1711 1.386 . S
C1710 C1712 1.391 . S
C1711 C1710 1.386 . S
C1711 C1715 1.393 . S
C1712 H1701 0.950 . S
C1712 C1710 1.391 . S
C1712 C1713 1.400 . S
C1713 C1707 1.491 . S
C1713 C1712 1.400 . S
C1713 C1714 1.398 . S
C1714 H1702 0.950 . S
C1714 C1713 1.398 . S
C1714 C1715 1.391 . S
C1715 H1703 0.950 . S
C1715 C1711 1.393 . S
C1715 C1714 1.391 . S
H1716 C1724 0.950 . S
H1717 C1729 0.950 . S
H1718 C1726 0.950 . S
H1719 C1728 0.950 . S
H1720 C1730 0.950 . S
H1721 C1732 0.950 . S
H1722 C1734 0.950 . S
H1723 C1735 0.950 . S
C1724 H1716 0.950 . S
C1724 C1725 1.386 . S
C1724 C1726 1.391 . S
C1725 C1724 1.386 . S
C1725 C1729 1.393 . S
C1726 H1718 0.950 . S
C1726 C1724 1.391 . S
C1726 C1727 1.400 . S
C1727 C1726 1.400 . S
C1727 C1728 1.398 . S
C1727 C1733 1.491 . S
C1728 H1719 0.950 . S
C1728 C1727 1.398 . S
C1728 C1729 1.391 . S
C1729 H1717 0.950 . S
C1729 C1725 1.393 . S
C1729 C1728 1.391 . S
C1730 H1720 0.950 . S
C1730 C1731 1.386 . S
C1730 C1732 1.391 . S
C1731 C1730 1.386 . S
C1731 C1735 1.393 . S
C1732 H1721 0.950 . S
C1732 C1730 1.391 . S
C1732 C1733 1.400 . S
C1733 C1727 1.491 . S
C1733 C1732 1.400 . S
C1733 C1734 1.398 . S
C1734 H1722 0.950 . S
C1734 C1733 1.398 . S
C1734 C1735 1.391 . S
C1735 H1723 0.950 . S
C1735 C1731 1.393 . S
C1735 C1734 1.391 . S
H1736 C1744 0.950 . S
H1737 C1749 0.950 . S
H1738 C1746 0.950 . S
H1739 C1748 0.950 . S
H1740 C1750 0.950 . S
H1741 C1752 0.950 . S
H1742 C1754 0.950 . S
H1743 C1755 0.950 . S
C1744 H1736 0.950 . S
C1744 C1745 1.386 . S
C1744 C1746 1.391 . S
C1745 C1744 1.386 . S
C1745 C1749 1.393 . S
C1746 H1738 0.950 . S
C1746 C1744 1.391 . S
C1746 C1747 1.400 . S
C1747 C1746 1.400 . S
C1747 C1748 1.398 . S
C1747 C1753 1.491 . S
C1748 H1739 0.950 . S
C1748 C1747 1.398 . S
C1748 C1749 1.391 . S
C1749 H1737 0.950 . S
C1749 C1745 1.393 . S
C1749 C1748 1.391 . S
C1750 H1740 0.950 . S
C1750 C1751 1.386 . S
C1750 C1752 1.391 . S
C1751 C1750 1.386 . S
C1751 C1755 1.393 . S
C1752 H1741 0.950 . S
C1752 C1750 1.391 . S
C1752 C1753 1.400 . S
C1753 C1747 1.491 . S
C1753 C1752 1.400 . S
C1753 C1754 1.398 . S
C1754 H1742 0.950 . S
C1754 C1753 1.398 . S
C1754 C1755 1.391 . S
C1755 H1743 0.950 . S
C1755 C1751 1.393 . S
C1755 C1754 1.391 . S
H1756 C1764 0.950 . S
H1757 C1769 0.950 . S
H1758 C1766 0.950 . S
H1759 C1768 0.950 . S
H1760 C1770 0.950 . S
H1761 C1772 0.950 . S
H1762 C1774 0.950 . S
H1763 C1775 0.950 . S
C1764 H1756 0.950 . S
C1764 C1765 1.386 . S
C1764 C1766 1.391 . S
C1765 C1764 1.386 . S
C1765 C1769 1.393 . S
C1766 H1758 0.950 . S
C1766 C1764 1.391 . S
C1766 C1767 1.400 . S
C1767 C1766 1.400 . S
C1767 C1768 1.398 . S
C1767 C1773 1.491 . S
C1768 H1759 0.950 . S
C1768 C1767 1.398 . S
C1768 C1769 1.391 . S
C1769 H1757 0.950 . S
C1769 C1765 1.393 . S
C1769 C1768 1.391 . S
C1770 H1760 0.950 . S
C1770 C1771 1.386 . S
C1770 C1772 1.391 . S
C1771 C1770 1.386 . S
C1771 C1775 1.393 . S
C1772 H1761 0.950 . S
C1772 C1770 1.391 . S
C1772 C1773 1.400 . S
C1773 C1767 1.491 . S
C1773 C1772 1.400 . S
C1773 C1774 1.398 . S
C1774 H1762 0.950 . S
C1774 C1773 1.398 . S
C1774 C1775 1.391 . S
C1775 H1763 0.950 . S
C1775 C1771 1.393 . S
C1775 C1774 1.391 . S
H1776 C1784 0.950 . S
H1777 C1789 0.950 . S
H1778 C1786 0.950 . S
H1779 C1788 0.950 . S
H1780 C1790 0.950 . S
H1781 C1792 0.950 . S
H1782 C1794 0.950 . S
H1783 C1795 0.950 . S
C1784 H1776 0.950 . S
C1784 C1785 1.386 . S
C1784 C1786 1.391 . S
C1785 C1784 1.386 . S
C1785 C1789 1.393 . S
C1786 H1778 0.950 . S
C1786 C1784 1.391 . S
C1786 C1787 1.400 . S
C1787 C1786 1.400 . S
C1787 C1788 1.398 . S
C1787 C1793 1.491 . S
C1788 H1779 0.950 . S
C1788 C1787 1.398 . S
C1788 C1789 1.391 . S
C1789 H1777 0.950 . S
C1789 C1785 1.393 . S
C1789 C1788 1.391 . S
C1790 H1780 0.950 . S
C1790 C1791 1.386 . S
C1790 C1792 1.391 . S
C1791 C1790 1.386 . S
C1791 C1795 1.393 . S
C1792 H1781 0.950 . S
C1792 C1790 1.391 . S
C1792 C1793 1.400 . S
C1793 C1787 1.491 . S
C1793 C1792 1.400 . S
C1793 C1794 1.398 . S
C1794 H1782 0.950 . S
C1794 C1793 1.398 . S
C1794 C1795 1.391 . S
C1795 H1783 0.950 . S
C1795 C1791 1.393 . S
C1795 C1794 1.391 . S
H1796 C1804 0.950 . S
H1797 C1809 0.950 . S
H1798 C1806 0.950 . S
H1799 C1808 0.950 . S
H1800 C1810 0.950 . S
H1801 C1812 0.950 . S
H1802 C1814 0.950 . S
H1803 C1815 0.950 . S
C1804 H1796 0.950 . S
C1804 C1805 1.386 . S
C1804 C1806 1.391 . S
C1805 C1804 1.386 . S
C1805 C1809 1.393 . S
C1806 H1798 0.950 . S
C1806 C1804 1.391 . S
C1806 C1807 1.400 . S
C1807 C1806 1.400 . S
C1807 C1808 1.398 . S
C1807 C1813 1.491 . S
C1808 H1799 0.950 . S
C1808 C1807 1.398 . S
C1808 C1809 1.391 . S
C1809 H1797 0.950 . S
C1809 C1805 1.393 . S
C1809 C1808 1.391 . S
C1810 H1800 0.950 . S
C1810 C1811 1.386 . S
C1810 C1812 1.391 . S
C1811 C1810 1.386 . S
C1811 C1815 1.393 . S
C1812 H1801 0.950 . S
C1812 C1810 1.391 . S
C1812 C1813 1.400 . S
C1813 C1807 1.491 . S
C1813 C1812 1.400 . S
C1813 C1814 1.398 . S
C1814 H1802 0.950 . S
C1814 C1813 1.398 . S
C1814 C1815 1.391 . S
C1815 H1803 0.950 . S
C1815 C1811 1.393 . S
C1815 C1814 1.391 . S
H1816 C1824 0.950 . S
H1817 C1829 0.950 . S
H1818 C1826 0.950 . S
H1819 C1828 0.950 . S
H1820 C1830 0.950 . S
H1821 C1832 0.950 . S
H1822 C1834 0.950 . S
H1823 C1835 0.950 . S
C1824 H1816 0.950 . S
C1824 C1825 1.386 . S
C1824 C1826 1.391 . S
C1825 C1824 1.386 . S
C1825 C1829 1.393 . S
C1826 H1818 0.950 . S
C1826 C1824 1.391 . S
C1826 C1827 1.400 . S
C1827 C1826 1.400 . S
C1827 C1828 1.398 . S
C1827 C1833 1.491 . S
C1828 H1819 0.950 . S
C1828 C1827 1.398 . S
C1828 C1829 1.391 . S
C1829 H1817 0.950 . S
C1829 C1825 1.393 . S
C1829 C1828 1.391 . S
C1830 H1820 0.950 . S
C1830 C1831 1.386 . S
C1830 C1832 1.391 . S
C1831 C1830 1.386 . S
C1831 C1835 1.393 . S
C1832 H1821 0.950 . S
C1832 C1830 1.391 . S
C1832 C1833 1.400 . S
C1833 C1827 1.491 . S
C1833 C1832 1.400 . S
C1833 C1834 1.398 . S
C1834 H1822 0.950 . S
C1834 C1833 1.398 . S
C1834 C1835 1.391 . S
C1835 H1823 0.950 . S
C1835 C1831 1.393 . S
C1835 C1834 1.391 . S
H1836 C1844 0.950 . S
H1837 C1849 0.950 . S
H1838 C1846 0.950 . S
H1839 C1848 0.950 . S
H1840 C1850 0.950 . S
H1841 C1852 0.950 . S
H1842 C1854 0.950 . S
H1843 C1855 0.950 . S
C1844 H1836 0.950 . S
C1844 C1845 1.386 . S
C1844 C1846 1.391 . S
C1845 C1844 1.386 . S
C1845 C1849 1.393 . S
C1846 H1838 0.950 . S
C1846 C1844 1.391 . S
C1846 C1847 1.400 . S
C1847 C1846 1.400 . S
C1847 C1848 1.398 . S
C1847 C1853 1.491 . S
C1848 H1839 0.950 . S
C1848 C1847 1.398 . S
C1848 C1849 1.391 . S
C1849 H1837 0.950 . S
C1849 C1845 1.393 . S
C1849 C1848 1.391 . S
C1850 H1840 0.950 . S
C1850 C1851 1.386 . S
C1850 C1852 1.391 . S
C1851 C1850 1.386 . S
C1851 C1855 1.393 . S
C1852 H1841 0.950 . S
C1852 C1850 1.391 . S
C1852 C1853 1.400 . S
C1853 C1847 1.491 . S
C1853 C1852 1.400 . S
C1853 C1854 1.398 . S
C1854 H1842 0.950 . S
C1854 C1853 1.398 . S
C1854 C1855 1.391 . S
C1855 H1843 0.950 . S
C1855 C1851 1.393 . S
C1855 C1854 1.391 . S
H1856 C1864 0.950 . S
H1857 C1869 0.950 . S
H1858 C1866 0.950 . S
H1859 C1868 0.950 . S
H1860 C1870 0.950 . S
H1861 C1872 0.950 . S
H1862 C1874 0.950 . S
H1863 C1875 0.950 . S
C1864 H1856 0.950 . S
C1864 C1865 1.386 . S
C1864 C1866 1.391 . S
C1865 C1864 1.386 . S
C1865 C1869 1.393 . S
C1866 H1858 0.950 . S
C1866 C1864 1.391 . S
C1866 C1867 1.400 . S
C1867 C1866 1.400 . S
C1867 C1868 1.398 . S
C1867 C1873 1.491 . S
C1868 H1859 0.950 . S
C1868 C1867 1.398 . S
C1868 C1869 1.391 . S
C1869 H1857 0.950 . S
C1869 C1865 1.393 . S
C1869 C1868 1.391 . S
C1870 H1860 0.950 . S
C1870 C1871 1.386 . S
C1870 C1872 1.391 . S
C1871 C1870 1.386 . S
C1871 C1875 1.393 . S
C1872 H1861 0.950 . S
C1872 C1870 1.391 . S
C1872 C1873 1.400 . S
C1873 C1867 1.491 . S
C1873 C1872 1.400 . S
C1873 C1874 1.398 . S
C1874 H1862 0.950 . S
C1874 C1873 1.398 . S
C1874 C1875 1.391 . S
C1875 H1863 0.950 . S
C1875 C1871 1.393 . S
C1875 C1874 1.391 . S
H1876 C1884 0.950 . S
H1877 C1889 0.950 . S
H1878 C1886 0.950 . S
H1879 C1888 0.950 . S
H1880 C1890 0.950 . S
H1881 C1892 0.950 . S
H1882 C1894 0.950 . S
H1883 C1895 0.950 . S
C1884 H1876 0.950 . S
C1884 C1885 1.386 . S
C1884 C1886 1.391 . S
C1885 C1884 1.386 . S
C1885 C1889 1.393 . S
C1886 H1878 0.950 . S
C1886 C1884 1.391 . S
C1886 C1887 1.400 . S
C1887 C1886 1.400 . S
C1887 C1888 1.398 . S
C1887 C1893 1.491 . S
C1888 H1879 0.950 . S
C1888 C1887 1.398 . S
C1888 C1889 1.391 . S
C1889 H1877 0.950 . S
C1889 C1885 1.393 . S
C1889 C1888 1.391 . S
C1890 H1880 0.950 . S
C1890 C1891 1.386 . S
C1890 C1892 1.391 . S
C1891 C1890 1.386 . S
C1891 C1895 1.393 . S
C1892 H1881 0.950 . S
C1892 C1890 1.391 . S
C1892 C1893 1.400 . S
C1893 C1887 1.491 . S
C1893 C1892 1.400 . S
C1893 C1894 1.398 . S
C1894 H1882 0.950 . S
C1894 C1893 1.398 . S
C1894 C1895 1.391 . S
C1895 H1883 0.950 . S
C1895 C1891 1.393 . S
C1895 C1894 1.391 . S
H1896 C1904 0.950 . S
H1897 C1909 0.950 . S
H1898 C1906 0.950 . S
H1899 C1908 0.950 . S
H1900 C1910 0.950 . S
H1901 C1912 0.950 . S
H1902 C1914 0.950 . S
H1903 C1915 0.950 . S
C1904 H1896 0.950 . S
C1904 C1905 1.386 . S
C1904 C1906 1.391 . S
C1905 C1904 1.386 . S
C1905 C1909 1.393 . S
C1906 H1898 0.950 . S
C1906 C1904 1.391 . S
C1906 C1907 1.400 . S
C1907 C1906 1.400 . S
C1907 C1908 1.398 . S
C1907 C1913 1.491 . S
C1908 H1899 0.950 . S
C1908 C1907 1.398 . S
C1908 C1909 1.391 . S
C1909 H1897 0.950 . S
C1909 C1905 1.393 . S
C1909 C1908 1.391 . S
C1910 H1900 0.950 . S
C1910 C1911 1.386 . S
C1910 C1912 1.391 . S
C1911 C1910 1.386 . S
C1911 C1915 1.393 . S
C1912 H1901 0.950 . S
C1912 C1910 1.391 . S
C1912 C1913 1.400 . S
C1913 C1907 1.491 . S
C1913 C1912 1.400 . S
C1913 C1914 1.398 . S
C1914 H1902 0.950 . S
C1914 C1913 1.398 . S
C1914 C1915 1.391 . S
C1915 H1903 0.950 . S
C1915 C1911 1.393 . S
C1915 C1914 1.391 . S
H1916 C1924 0.950 . S
H1917 C1929 0.950 . S
H1918 C1926 0.950 . S
H1919 C1928 0.950 . S
H1920 C1930 0.950 . S
H1921 C1932 0.950 . S
H1922 C1934 0.950 . S
H1923 C1935 0.950 . S
C1924 H1916 0.950 . S
C1924 C1925 1.386 . S
C1924 C1926 1.391 . S
C1925 C1924 1.386 . S
C1925 C1929 1.393 . S
C1926 H1918 0.950 . S
C1926 C1924 1.391 . S
C1926 C1927 1.400 . S
C1927 C1926 1.400 . S
C1927 C1928 1.398 . S
C1927 C1933 1.491 . S
C1928 H1919 0.950 . S
C1928 C1927 1.398 . S
C1928 C1929 1.391 . S
C1929 H1917 0.950 . S
C1929 C1925 1.393 . S
C1929 C1928 1.391 . S
C1930 H1920 0.950 . S
C1930 C1931 1.386 . S
C1930 C1932 1.391 . S
C1931 C1930 1.386 . S
C1931 C1935 1.393 . S
C1932 H1921 0.950 . S
C1932 C1930 1.391 . S
C1932 C1933 1.400 . S
C1933 C1927 1.491 . S
C1933 C1932 1.400 . S
C1933 C1934 1.398 . S
C1934 H1922 0.950 . S
C1934 C1933 1.398 . S
C1934 C1935 1.391 . S
C1935 H1923 0.950 . S
C1935 C1931 1.393 . S
C1935 C1934 1.391 . S
H1936 C1944 0.950 . S
H1937 C1949 0.950 . S
H1938 C1946 0.950 . S
H1939 C1948 0.950 . S
H1940 C1950 0.950 . S
H1941 C1952 0.950 . S
H1942 C1954 0.950 . S
H1943 C1955 0.950 . S
C1944 H1936 0.950 . S
C1944 C1945 1.386 . S
C1944 C1946 1.391 . S
C1945 C1944 1.386 . S
C1945 C1949 1.393 . S
C1946 H1938 0.950 . S
C1946 C1944 1.391 . S
C1946 C1947 1.400 . S
C1947 C1946 1.400 . S
C1947 C1948 1.398 . S
C1947 C1953 1.491 . S
C1948 H1939 0.950 . S
C1948 C1947 1.398 . S
C1948 C1949 1.391 . S
C1949 H1937 0.950 . S
C1949 C1945 1.393 . S
C1949 C1948 1.391 . S
C1950 H1940 0.950 . S
C1950 C1951 1.386 . S
C1950 C1952 1.391 . S
C1951 C1950 1.386 . S
C1951 C1955 1.393 . S
C1952 H1941 0.950 . S
C1952 C1950 1.391 . S
C1952 C1953 1.400 . S
C1953 C1947 1.491 . S
C1953 C1952 1.400 . S
C1953 C1954 1.398 . S
C1954 H1942 0.950 . S
C1954 C1953 1.398 . S
C1954 C1955 1.391 . S
C1955 H1943 0.950 . S
C1955 C1951 1.393 . S
C1955 C1954 1.391 . S
C1011 C707 1.414 . S
C1005 C74 1.381 . S
C1031 C685 1.564 . S
C1025 C153 1.522 . S
C1051 C682 0.908 . S
C1045 C231 0.923 . S
C1065 C310 0.689 . S
C1071 C694 0.294 . S
C1085 C394 1.505 . S
C1091 C677 1.564 . S
C1111 C699 0.909 . S
C1105 C494 0.904 . S
C1125 C573 0.591 . S
C1131 C704 0.362 . S
C1145 C651 1.372 . S
C1151 C700 1.406 . S
C1171 C758 2.737 . S
C1165 C56 2.796 . S
C1185 C151 1.378 . S
C1191 C808 1.367 . S
C1211 C731 1.561 . S
C1205 C237 1.501 . S
C1231 C807 0.934 . S
C1225 C326 0.929 . S
C1245 C410 0.919 . S
C1251 C736 0.919 . S
C1271 C802 2.730 . S
C1265 C476 2.799 . S
C1285 C571 1.402 . S
C1291 C761 1.399 . S
C1305 C657 1.502 . S
C1311 C793 1.569 . S
C1325 C58 1.492 . S
C1331 C785 1.589 . S
C1345 C392 1.388 . S
C1351 C815 1.378 . S
C1371 C739 1.599 . S
C1365 C478 1.514 . S
C1391 C790 0.947 . S
C1385 C567 0.921 . S
C1405 C655 2.801 . S
C1411 C748 2.726 . S
C1425 C235 2.810 . S
C1431 C812 2.751 . S
C1451 C754 1.391 . S
C1445 C308 1.401 . S
C1465 C147 0.906 . S
C1471 C753 0.943 . S
C1485 C662 1.369 . S
C1491 C869 1.412 . S
C1505 C405 1.532 . S
C1511 C847 1.544 . S
C1531 C844 0.921 . S
C1525 C483 0.927 . S
C1551 C856 0.291 . S
C1545 C562 0.669 . S
C1565 C142 1.496 . S
C1571 C839 1.557 . S
C1591 C861 0.908 . S
C1585 C242 0.922 . S
C1605 C321 0.597 . S
C1611 C866 0.344 . S
C1625 C63 1.379 . S
C1631 C862 1.411 . S
C1645 C644 2.797 . S
C1651 C920 2.736 . S
C1671 C970 1.372 . S
C1665 C403 1.380 . S
C1685 C489 1.494 . S
C1691 C893 1.583 . S
C1705 C578 0.907 . S
C1711 C969 0.953 . S
C1731 C898 0.911 . S
C1725 C158 0.925 . S
C1745 C224 2.797 . S
C1751 C964 2.738 . S
C1771 C923 1.386 . S
C1765 C319 1.393 . S
C1791 C955 1.577 . S
C1785 C69 1.521 . S
C1811 C947 1.591 . S
C1805 C646 1.495 . S
C1825 C140 1.389 . S
C1831 C977 1.381 . S
C1845 C226 1.528 . S
C1851 C901 1.594 . S
C1871 C952 0.963 . S
C1865 C315 0.938 . S
C1885 C67 2.799 . S
C1891 C910 2.739 . S
C1905 C487 2.812 . S
C1911 C974 2.747 . S
C1931 C916 1.396 . S
C1925 C560 1.400 . S
C1951 C915 0.927 . S
C1945 C399 0.928 . S
