# Generated by pormake.
# Topology gar, (4,6)-cn, num edge types: 1
# Building blocks:
#     Node 0, Type 0, BuildingBlock: AZAVOO_clean_sbu_0, # of connection points: 4
#     Node 1, Type 0, BuildingBlock: AZAVOO_clean_sbu_0, # of connection points: 4
#     Node 2, Type 0, BuildingBlock: AZAVOO_clean_sbu_0, # of connection points: 4
#     Node 3, Type 0, BuildingBlock: AZAVOO_clean_sbu_0, # of connection points: 4
#     Node 4, Type 0, BuildingBlock: AZAVOO_clean_sbu_0, # of connection points: 4
#     Node 5, Type 0, BuildingBlock: AZAVOO_clean_sbu_0, # of connection points: 4
#     Node 6, Type 0, BuildingBlock: AZAVOO_clean_sbu_0, # of connection points: 4
#     Node 7, Type 0, BuildingBlock: AZAVOO_clean_sbu_0, # of connection points: 4
#     Node 8, Type 0, BuildingBlock: AZAVOO_clean_sbu_0, # of connection points: 4
#     Node 9, Type 0, BuildingBlock: AZAVOO_clean_sbu_0, # of connection points: 4
#     Node 10, Type 0, BuildingBlock: AZAVOO_clean_sbu_0, # of connection points: 4
#     Node 11, Type 0, BuildingBlock: AZAVOO_clean_sbu_0, # of connection points: 4
#     Node 12, Type 0, BuildingBlock: AZAVOO_clean_sbu_0, # of connection points: 4
#     Node 13, Type 0, BuildingBlock: AZAVOO_clean_sbu_0, # of connection points: 4
#     Node 14, Type 0, BuildingBlock: AZAVOO_clean_sbu_0, # of connection points: 4
#     Node 15, Type 0, BuildingBlock: AZAVOO_clean_sbu_0, # of connection points: 4
#     Node 16, Type 0, BuildingBlock: AZAVOO_clean_sbu_0, # of connection points: 4
#     Node 17, Type 0, BuildingBlock: AZAVOO_clean_sbu_0, # of connection points: 4
#     Node 18, Type 0, BuildingBlock: AZAVOO_clean_sbu_0, # of connection points: 4
#     Node 19, Type 0, BuildingBlock: AZAVOO_clean_sbu_0, # of connection points: 4
#     Node 20, Type 0, BuildingBlock: AZAVOO_clean_sbu_0, # of connection points: 4
#     Node 21, Type 0, BuildingBlock: AZAVOO_clean_sbu_0, # of connection points: 4
#     Node 22, Type 0, BuildingBlock: AZAVOO_clean_sbu_0, # of connection points: 4
#     Node 23, Type 0, BuildingBlock: AZAVOO_clean_sbu_0, # of connection points: 4
#     Node 24, Type 1, BuildingBlock: PAMTUU_clean_sbu_0, # of connection points: 6
#     Node 25, Type 1, BuildingBlock: PAMTUU_clean_sbu_0, # of connection points: 6
#     Node 26, Type 1, BuildingBlock: PAMTUU_clean_sbu_0, # of connection points: 6
#     Node 27, Type 1, BuildingBlock: PAMTUU_clean_sbu_0, # of connection points: 6
#     Node 28, Type 1, BuildingBlock: PAMTUU_clean_sbu_0, # of connection points: 6
#     Node 29, Type 1, BuildingBlock: PAMTUU_clean_sbu_0, # of connection points: 6
#     Node 30, Type 1, BuildingBlock: PAMTUU_clean_sbu_0, # of connection points: 6
#     Node 31, Type 1, BuildingBlock: PAMTUU_clean_sbu_0, # of connection points: 6
#     Node 32, Type 1, BuildingBlock: PAMTUU_clean_sbu_0, # of connection points: 6
#     Node 33, Type 1, BuildingBlock: PAMTUU_clean_sbu_0, # of connection points: 6
#     Node 34, Type 1, BuildingBlock: PAMTUU_clean_sbu_0, # of connection points: 6
#     Node 35, Type 1, BuildingBlock: PAMTUU_clean_sbu_0, # of connection points: 6
#     Node 36, Type 1, BuildingBlock: PAMTUU_clean_sbu_0, # of connection points: 6
#     Node 37, Type 1, BuildingBlock: PAMTUU_clean_sbu_0, # of connection points: 6
#     Node 38, Type 1, BuildingBlock: PAMTUU_clean_sbu_0, # of connection points: 6
#     Node 39, Type 1, BuildingBlock: PAMTUU_clean_sbu_0, # of connection points: 6
#     Edge 40, Type (0, 1), BuildingBlock: UVAHIK_clean_linker_0, # of connection points: 2
#     Edge 41, Type (0, 1), BuildingBlock: UVAHIK_clean_linker_0, # of connection points: 2
#     Edge 42, Type (0, 1), BuildingBlock: UVAHIK_clean_linker_0, # of connection points: 2
#     Edge 43, Type (0, 1), BuildingBlock: UVAHIK_clean_linker_0, # of connection points: 2
#     Edge 44, Type (0, 1), BuildingBlock: UVAHIK_clean_linker_0, # of connection points: 2
#     Edge 45, Type (0, 1), BuildingBlock: UVAHIK_clean_linker_0, # of connection points: 2
#     Edge 46, Type (0, 1), BuildingBlock: UVAHIK_clean_linker_0, # of connection points: 2
#     Edge 47, Type (0, 1), BuildingBlock: UVAHIK_clean_linker_0, # of connection points: 2
#     Edge 48, Type (0, 1), BuildingBlock: UVAHIK_clean_linker_0, # of connection points: 2
#     Edge 49, Type (0, 1), BuildingBlock: UVAHIK_clean_linker_0, # of connection points: 2
#     Edge 50, Type (0, 1), BuildingBlock: UVAHIK_clean_linker_0, # of connection points: 2
#     Edge 51, Type (0, 1), BuildingBlock: UVAHIK_clean_linker_0, # of connection points: 2
#     Edge 52, Type (0, 1), BuildingBlock: UVAHIK_clean_linker_0, # of connection points: 2
#     Edge 53, Type (0, 1), BuildingBlock: UVAHIK_clean_linker_0, # of connection points: 2
#     Edge 54, Type (0, 1), BuildingBlock: UVAHIK_clean_linker_0, # of connection points: 2
#     Edge 55, Type (0, 1), BuildingBlock: UVAHIK_clean_linker_0, # of connection points: 2
#     Edge 56, Type (0, 1), BuildingBlock: UVAHIK_clean_linker_0, # of connection points: 2
#     Edge 57, Type (0, 1), BuildingBlock: UVAHIK_clean_linker_0, # of connection points: 2
#     Edge 58, Type (0, 1), BuildingBlock: UVAHIK_clean_linker_0, # of connection points: 2
#     Edge 59, Type (0, 1), BuildingBlock: UVAHIK_clean_linker_0, # of connection points: 2
#     Edge 60, Type (0, 1), BuildingBlock: UVAHIK_clean_linker_0, # of connection points: 2
#     Edge 61, Type (0, 1), BuildingBlock: UVAHIK_clean_linker_0, # of connection points: 2
#     Edge 62, Type (0, 1), BuildingBlock: UVAHIK_clean_linker_0, # of connection points: 2
#     Edge 63, Type (0, 1), BuildingBlock: UVAHIK_clean_linker_0, # of connection points: 2
#     Edge 64, Type (0, 1), BuildingBlock: UVAHIK_clean_linker_0, # of connection points: 2
#     Edge 65, Type (0, 1), BuildingBlock: UVAHIK_clean_linker_0, # of connection points: 2
#     Edge 66, Type (0, 1), BuildingBlock: UVAHIK_clean_linker_0, # of connection points: 2
#     Edge 67, Type (0, 1), BuildingBlock: UVAHIK_clean_linker_0, # of connection points: 2
#     Edge 68, Type (0, 1), BuildingBlock: UVAHIK_clean_linker_0, # of connection points: 2
#     Edge 69, Type (0, 1), BuildingBlock: UVAHIK_clean_linker_0, # of connection points: 2
#     Edge 70, Type (0, 1), BuildingBlock: UVAHIK_clean_linker_0, # of connection points: 2
#     Edge 71, Type (0, 1), BuildingBlock: UVAHIK_clean_linker_0, # of connection points: 2
#     Edge 72, Type (0, 1), BuildingBlock: UVAHIK_clean_linker_0, # of connection points: 2
#     Edge 73, Type (0, 1), BuildingBlock: UVAHIK_clean_linker_0, # of connection points: 2
#     Edge 74, Type (0, 1), BuildingBlock: UVAHIK_clean_linker_0, # of connection points: 2
#     Edge 75, Type (0, 1), BuildingBlock: UVAHIK_clean_linker_0, # of connection points: 2
#     Edge 76, Type (0, 1), BuildingBlock: UVAHIK_clean_linker_0, # of connection points: 2
#     Edge 77, Type (0, 1), BuildingBlock: UVAHIK_clean_linker_0, # of connection points: 2
#     Edge 78, Type (0, 1), BuildingBlock: UVAHIK_clean_linker_0, # of connection points: 2
#     Edge 79, Type (0, 1), BuildingBlock: UVAHIK_clean_linker_0, # of connection points: 2
#     Edge 80, Type (0, 1), BuildingBlock: UVAHIK_clean_linker_0, # of connection points: 2
#     Edge 81, Type (0, 1), BuildingBlock: UVAHIK_clean_linker_0, # of connection points: 2
#     Edge 82, Type (0, 1), BuildingBlock: UVAHIK_clean_linker_0, # of connection points: 2
#     Edge 83, Type (0, 1), BuildingBlock: UVAHIK_clean_linker_0, # of connection points: 2
#     Edge 84, Type (0, 1), BuildingBlock: UVAHIK_clean_linker_0, # of connection points: 2
#     Edge 85, Type (0, 1), BuildingBlock: UVAHIK_clean_linker_0, # of connection points: 2
#     Edge 86, Type (0, 1), BuildingBlock: UVAHIK_clean_linker_0, # of connection points: 2
#     Edge 87, Type (0, 1), BuildingBlock: UVAHIK_clean_linker_0, # of connection points: 2
#     Edge 88, Type (0, 1), BuildingBlock: UVAHIK_clean_linker_0, # of connection points: 2
#     Edge 89, Type (0, 1), BuildingBlock: UVAHIK_clean_linker_0, # of connection points: 2
#     Edge 90, Type (0, 1), BuildingBlock: UVAHIK_clean_linker_0, # of connection points: 2
#     Edge 91, Type (0, 1), BuildingBlock: UVAHIK_clean_linker_0, # of connection points: 2
#     Edge 92, Type (0, 1), BuildingBlock: UVAHIK_clean_linker_0, # of connection points: 2
#     Edge 93, Type (0, 1), BuildingBlock: UVAHIK_clean_linker_0, # of connection points: 2
#     Edge 94, Type (0, 1), BuildingBlock: UVAHIK_clean_linker_0, # of connection points: 2
#     Edge 95, Type (0, 1), BuildingBlock: UVAHIK_clean_linker_0, # of connection points: 2
#     Edge 96, Type (0, 1), BuildingBlock: UVAHIK_clean_linker_0, # of connection points: 2
#     Edge 97, Type (0, 1), BuildingBlock: UVAHIK_clean_linker_0, # of connection points: 2
#     Edge 98, Type (0, 1), BuildingBlock: UVAHIK_clean_linker_0, # of connection points: 2
#     Edge 99, Type (0, 1), BuildingBlock: UVAHIK_clean_linker_0, # of connection points: 2
#     Edge 100, Type (0, 1), BuildingBlock: UVAHIK_clean_linker_0, # of connection points: 2
#     Edge 101, Type (0, 1), BuildingBlock: UVAHIK_clean_linker_0, # of connection points: 2
#     Edge 102, Type (0, 1), BuildingBlock: UVAHIK_clean_linker_0, # of connection points: 2
#     Edge 103, Type (0, 1), BuildingBlock: UVAHIK_clean_linker_0, # of connection points: 2
#     Edge 104, Type (0, 1), BuildingBlock: UVAHIK_clean_linker_0, # of connection points: 2
#     Edge 105, Type (0, 1), BuildingBlock: UVAHIK_clean_linker_0, # of connection points: 2
#     Edge 106, Type (0, 1), BuildingBlock: UVAHIK_clean_linker_0, # of connection points: 2
#     Edge 107, Type (0, 1), BuildingBlock: UVAHIK_clean_linker_0, # of connection points: 2
#     Edge 108, Type (0, 1), BuildingBlock: UVAHIK_clean_linker_0, # of connection points: 2
#     Edge 109, Type (0, 1), BuildingBlock: UVAHIK_clean_linker_0, # of connection points: 2
#     Edge 110, Type (0, 1), BuildingBlock: UVAHIK_clean_linker_0, # of connection points: 2
#     Edge 111, Type (0, 1), BuildingBlock: UVAHIK_clean_linker_0, # of connection points: 2
#     Edge 112, Type (0, 1), BuildingBlock: UVAHIK_clean_linker_0, # of connection points: 2
#     Edge 113, Type (0, 1), BuildingBlock: UVAHIK_clean_linker_0, # of connection points: 2
#     Edge 114, Type (0, 1), BuildingBlock: UVAHIK_clean_linker_0, # of connection points: 2
#     Edge 115, Type (0, 1), BuildingBlock: UVAHIK_clean_linker_0, # of connection points: 2
#     Edge 116, Type (0, 1), BuildingBlock: UVAHIK_clean_linker_0, # of connection points: 2
#     Edge 117, Type (0, 1), BuildingBlock: UVAHIK_clean_linker_0, # of connection points: 2
#     Edge 118, Type (0, 1), BuildingBlock: UVAHIK_clean_linker_0, # of connection points: 2
#     Edge 119, Type (0, 1), BuildingBlock: UVAHIK_clean_linker_0, # of connection points: 2
#     Edge 120, Type (0, 1), BuildingBlock: UVAHIK_clean_linker_0, # of connection points: 2
#     Edge 121, Type (0, 1), BuildingBlock: UVAHIK_clean_linker_0, # of connection points: 2
#     Edge 122, Type (0, 1), BuildingBlock: UVAHIK_clean_linker_0, # of connection points: 2
#     Edge 123, Type (0, 1), BuildingBlock: UVAHIK_clean_linker_0, # of connection points: 2
#     Edge 124, Type (0, 1), BuildingBlock: UVAHIK_clean_linker_0, # of connection points: 2
#     Edge 125, Type (0, 1), BuildingBlock: UVAHIK_clean_linker_0, # of connection points: 2
#     Edge 126, Type (0, 1), BuildingBlock: UVAHIK_clean_linker_0, # of connection points: 2
#     Edge 127, Type (0, 1), BuildingBlock: UVAHIK_clean_linker_0, # of connection points: 2
#     Edge 128, Type (0, 1), BuildingBlock: UVAHIK_clean_linker_0, # of connection points: 2
#     Edge 129, Type (0, 1), BuildingBlock: UVAHIK_clean_linker_0, # of connection points: 2
#     Edge 130, Type (0, 1), BuildingBlock: UVAHIK_clean_linker_0, # of connection points: 2
#     Edge 131, Type (0, 1), BuildingBlock: UVAHIK_clean_linker_0, # of connection points: 2
#     Edge 132, Type (0, 1), BuildingBlock: UVAHIK_clean_linker_0, # of connection points: 2
#     Edge 133, Type (0, 1), BuildingBlock: UVAHIK_clean_linker_0, # of connection points: 2
#     Edge 134, Type (0, 1), BuildingBlock: UVAHIK_clean_linker_0, # of connection points: 2
#     Edge 135, Type (0, 1), BuildingBlock: UVAHIK_clean_linker_0, # of connection points: 2
# Relax obj value: 0.179
# Max RMSD: 0.315
# Mean RMSD: 0.197
data_MOF--net-gar--node1-AZAVOO_clean_sbu_0--node2-PAMTUU_clean_sbu_0--edge1-UVAHIK_clean_linker_0
_symmetry_space_group_name_H-M    P1
_symmetry_Int_Tables_number       1
_symmetry_cell_setting            triclinic
loop_
_symmetry_equiv_pos_as_xyz
'x, y, z'
_cell_length_a     78.933197
_cell_length_b     71.116952
_cell_length_c     76.441868
_cell_angle_alpha  96.005407
_cell_angle_beta   92.991712
_cell_angle_gamma 106.50028
loop_
_atom_site_label
_atom_site_type_symbol
_atom_site_fract_x
_atom_site_fract_y
_atom_site_fract_z
_atom_type_partial_charge
Mg0 Mg 0.02282 0.25047 0.35708 0.0
O1 O 0.0263 0.281 0.37771 0.0
O2 O 0.00218 0.27501 0.39292 0.0
Mg3 Mg 0.98272 0.24375 0.38333 0.0
C4 C 0.01688 0.28672 0.38948 0.0
C5 C 0.06127 0.24817 0.3357 0.0
O6 O 0.04928 0.23327 0.32641 0.0
O7 O 0.02524 0.22738 0.37941 0.0
O8 O 0.00034 0.22434 0.39277 0.0
O9 O 0.00458 0.26104 0.33595 0.0
O10 O -0.0072 0.24536 0.3567 0.0
C11 C 0.01451 0.21926 0.3907 0.0
C12 C -0.00987 0.25388 0.3432 0.0
O13 O 0.05555 0.25784 0.3485 0.0
Mg14 Mg 0.02205 0.77865 0.66053 0.0
O15 O 0.02218 0.75183 0.63772 0.0
O16 O -0.00441 0.74373 0.62286 0.0
Mg17 Mg 0.97947 0.7661 0.63092 0.0
C18 C 0.01044 0.74022 0.62599 0.0
C19 C 0.06205 0.78241 0.68557 0.0
O20 O 0.05158 0.78091 0.69849 0.0
O21 O 0.02414 0.80585 0.64092 0.0
O22 O -0.00094 0.79512 0.62308 0.0
O23 O 0.00454 0.78903 0.68306 0.0
O24 O -0.00828 0.7736 0.6586 0.0
C25 C 0.01392 0.80831 0.62787 0.0
C26 C 0.98954 0.78118 0.67401 0.0
O27 O 0.05499 0.78322 0.66993 0.0
Mg28 Mg 0.52286 0.75201 0.85687 0.0
O29 O 0.52652 0.78227 0.8779 0.0
O30 O 0.50253 0.77607 0.89325 0.0
Mg31 Mg 0.48288 0.74503 0.88302 0.0
C32 C 0.51724 0.78782 0.88988 0.0
C33 C 0.56132 0.74909 0.83613 0.0
O34 O 0.54944 0.73355 0.82755 0.0
O35 O 0.52529 0.72865 0.87884 0.0
O36 O 0.50038 0.72544 0.89223 0.0
O37 O 0.5049 0.76353 0.83628 0.0
O38 O 0.49282 0.74661 0.85625 0.0
C39 C 0.51456 0.7204 0.89006 0.0
C40 C 0.49033 0.75578 0.84313 0.0
O41 O 0.55555 0.7594 0.84839 0.0
Mg42 Mg 0.52283 0.28092 0.16071 0.0
O43 O 0.51902 0.25041 0.14111 0.0
O44 O 0.49625 0.24618 0.12115 0.0
Mg45 Mg 0.48001 0.26844 0.12979 0.0
C46 C 0.50927 0.24063 0.12719 0.0
C47 C 0.56154 0.28124 0.18548 0.0
O48 O 0.55027 0.27785 0.19764 0.0
O49 O 0.5245 0.30791 0.14063 0.0
O50 O 0.4992 0.2978 0.12312 0.0
O51 O 0.50245 0.28124 0.18395 0.0
O52 O 0.49177 0.2756 0.15774 0.0
C53 C 0.5141 0.31081 0.12795 0.0
C54 C 0.4883 0.27769 0.17385 0.0
O55 O 0.55534 0.28395 0.17009 0.0
Mg56 Mg 0.06164 0.79643 0.12545 0.0
O57 O 0.05855 0.76707 0.10752 0.0
O58 O 0.03326 0.76009 0.09026 0.0
Mg59 Mg 0.01886 0.78301 0.09846 0.0
C60 C 0.04741 0.75615 0.09522 0.0
C61 C 0.09444 0.79938 0.15034 0.0
O62 O 0.082 0.80091 0.1607 0.0
O63 O 0.06739 0.81619 0.10247 0.0
O64 O 0.04012 0.80764 0.08848 0.0
O65 O 0.04647 0.7796 0.14592 0.0
O66 O 0.03391 0.79078 0.12457 0.0
C67 C 0.05631 0.81817 0.09036 0.0
C68 C 0.03217 0.78146 0.13818 0.0
O69 O 0.09093 0.79827 0.13371 0.0
Mg70 Mg 0.48808 0.7443 0.39245 0.0
O71 O 0.49151 0.77231 0.41201 0.0
O72 O 0.46795 0.76672 0.42782 0.0
Mg73 Mg 0.44898 0.73618 0.41702 0.0
C74 C 0.48275 0.77785 0.42409 0.0
C75 C 0.51982 0.75034 0.37133 0.0
O76 O 0.50593 0.74122 0.36022 0.0
O77 O 0.49323 0.72583 0.4137 0.0
O78 O 0.46817 0.71941 0.42724 0.0
O79 O 0.47536 0.75748 0.37266 0.0
O80 O 0.46029 0.73824 0.39094 0.0
C81 C 0.48347 0.71717 0.425 0.0
C82 C 0.46027 0.74927 0.37851 0.0
O83 O 0.51736 0.75438 0.38742 0.0
Mg84 Mg 0.56058 0.29526 0.62618 0.0
O85 O 0.5571 0.2659 0.60808 0.0
O86 O 0.53187 0.25946 0.59082 0.0
Mg87 Mg 0.51768 0.28245 0.59932 0.0
C88 C 0.54594 0.25527 0.59565 0.0
C89 C 0.5942 0.29961 0.65089 0.0
O90 O 0.58251 0.30296 0.66148 0.0
O91 O 0.56654 0.31475 0.60301 0.0
O92 O 0.5392 0.30659 0.58923 0.0
O93 O 0.54498 0.27894 0.6469 0.0
O94 O 0.5329 0.29016 0.6253 0.0
C95 C 0.55548 0.3168 0.59092 0.0
C96 C 0.53087 0.28116 0.63908 0.0
O97 O 0.58985 0.29663 0.6343 0.0
Mg98 Mg 0.98904 0.24303 0.88998 0.0
O99 O -0.00708 0.27181 0.90912 0.0
O100 O 0.96893 0.26639 0.92442 0.0
Mg101 Mg 0.9494 0.23614 0.91402 0.0
C102 C 0.98392 0.27743 0.92099 0.0
C103 C 0.02664 0.26621 0.87816 0.0
O104 O 0.01862 0.27977 0.87599 0.0
O105 O -0.00635 0.22563 0.91228 0.0
O106 O 0.96816 0.21944 0.92504 0.0
O107 O 0.97647 0.25551 0.86924 0.0
O108 O 0.96146 0.23792 0.88854 0.0
C109 C 0.98357 0.21726 0.9235 0.0
C110 C 0.96142 0.24813 0.87554 0.0
O111 O 0.0184 0.25066 0.88451 0.0
Mg112 Mg 0.42845 0.04711 0.28255 0.0
O113 O 0.41289 0.01522 0.28494 0.0
O114 O 0.40777 0.01382 0.31334 0.0
Mg115 Mg 0.42144 0.04399 0.32916 0.0
C116 C 0.40598 0.00575 0.29734 0.0
C117 C 0.42017 0.03278 0.24022 0.0
O118 O 0.41044 0.03208 0.22556 0.0
O119 O 0.40413 0.055 0.28772 0.0
O120 O 0.39956 0.05504 0.31633 0.0
O121 O 0.45396 0.0394 0.28756 0.0
O122 O 0.4393 0.05105 0.30782 0.0
C123 C 0.39501 0.05712 0.30055 0.0
C124 C 0.45214 0.04414 0.30403 0.0
O125 O 0.41769 0.04273 0.25401 0.0
Mg126 Mg 0.27542 0.17236 0.49857 0.0
O127 O 0.27713 0.19307 0.52515 0.0
O128 O 0.30488 0.21275 0.52905 0.0
Mg129 Mg 0.31966 0.20658 0.50449 0.0
C130 C 0.28952 0.20648 0.53458 0.0
C131 C 0.2385 0.1419 0.4952 0.0
O132 O 0.24919 0.13167 0.48989 0.0
O133 O 0.27422 0.19514 0.47864 0.0
O134 O 0.30237 0.21409 0.48176 0.0
O135 O 0.28602 0.15205 0.51385 0.0
O136 O 0.30312 0.17524 0.50039 0.0
C137 C 0.28679 0.20894 0.4737 0.0
C138 C 0.30175 0.16096 0.50982 0.0
O139 O 0.24502 0.16048 0.49954 0.0
Mg140 Mg 0.13202 0.00214 0.79754 0.0
O141 O 0.15067 0.03327 0.80008 0.0
O142 O 0.16364 0.04084 0.82769 0.0
Mg143 Mg 0.15295 0.01453 0.84279 0.0
C144 C 0.16124 0.04528 0.81216 0.0
C145 C 0.12977 0.00305 0.75253 0.0
O146 O 0.13579 -0.0053 0.73903 0.0
O147 O 0.15555 0.99049 0.79802 0.0
O148 O 0.16741 -0.00355 0.82597 0.0
O149 O 0.11019 0.01464 0.80574 0.0
O150 O 0.12888 0.00661 0.82406 0.0
C151 C 0.16704 0.9895 0.80986 0.0
C152 C 0.11642 0.01473 0.82179 0.0
O153 O 0.13295 -0.00136 0.76776 0.0
Mg154 Mg 0.28794 0.91852 -0.0062 0.0
O155 O 0.28557 0.89588 0.96953 0.0
O156 O 0.31198 0.8898 0.96917 0.0
Mg157 Mg 0.32955 0.90579 -0.0063 0.0
C158 C 0.29625 0.8874 0.96252 0.0
C159 C 0.25883 0.93025 0.00402 0.0
O160 O 0.27307 0.93865 0.0149 0.0
O161 O 0.2836 0.89454 0.01152 0.0
O162 O 0.30962 0.88781 0.01077 0.0
O163 O 0.29944 0.94262 0.97811 0.0
O164 O 0.31457 0.92712 -0.00613 0.0
C165 C 0.2941 0.88486 0.01605 0.0
C166 C 0.31431 0.93966 0.98303 0.0
O167 O 0.25948 0.91735 -0.00851 0.0
Mg168 Mg 0.27231 0.36344 0.01821 0.0
O169 O 0.2691 0.343 -0.00895 0.0
O170 O 0.29037 0.32805 -0.00759 0.0
Mg171 Mg 0.30808 0.34011 0.0187 0.0
C172 C 0.27731 0.33135 0.98396 0.0
C173 C 0.2453 0.38668 0.01598 0.0
O174 O 0.26068 0.39927 0.02204 0.0
O175 O 0.26356 0.33912 0.03766 0.0
O176 O 0.28771 0.32875 0.03887 0.0
O177 O 0.29023 0.38802 0.00569 0.0
O178 O 0.30011 0.36757 0.0201 0.0
C179 C 0.27289 0.32922 0.04468 0.0
C180 C 0.30356 0.38239 0.01118 0.0
O181 O 0.24449 0.36841 0.01304 0.0
Mg182 Mg 0.75579 0.10705 0.0268 0.0
O183 O 0.76042 0.13051 0.05113 0.0
O184 O 0.78763 0.151 0.05007 0.0
Mg185 Mg 0.79955 0.14241 0.02505 0.0
C186 C 0.77332 0.14542 0.05763 0.0
C187 C 0.73721 0.07144 -0.00113 0.0
O188 O 0.73517 0.05649 0.98653 0.0
O189 O 0.75071 0.12861 0.00886 0.0
O190 O 0.77778 0.14927 0.00768 0.0
O191 O 0.77011 0.08903 0.04126 0.0
O192 O 0.78311 0.11192 0.02551 0.0
C193 C 0.76113 0.14341 0.00311 0.0
C194 C 0.78438 0.09857 0.03498 0.0
O195 O 0.75233 0.08372 0.00301 0.0
Mg196 Mg 0.1236 0.49003 0.22523 0.0
O197 O 0.14282 0.52106 0.23205 0.0
O198 O 0.1551 0.52282 0.2594 0.0
Mg199 Mg 0.14488 0.49289 0.26901 0.0
C200 C 0.15319 0.53062 0.24541 0.0
C201 C 0.10262 0.48707 0.19502 0.0
O202 O 0.09481 0.47394 0.20517 0.0
O203 O 0.14591 0.47769 0.21887 0.0
O204 O 0.15787 0.48006 0.24652 0.0
O205 O 0.10294 0.50052 0.23729 0.0
O206 O 0.12097 0.48694 0.25128 0.0
C207 C 0.15766 0.47561 0.22987 0.0
C208 C 0.10877 0.49572 0.25177 0.0
O209 O 0.11899 0.49602 0.19825 0.0
Mg210 Mg 0.77269 0.86385 0.51852 0.0
O211 O 0.76953 0.84299 0.49162 0.0
O212 O 0.79072 0.82798 0.4934 0.0
Mg213 Mg 0.80801 0.84004 0.51992 0.0
C214 C 0.77776 0.83125 0.48474 0.0
C215 C 0.74515 0.88667 0.51738 0.0
O216 O 0.76 0.89912 0.52499 0.0
O217 O 0.76373 0.84003 0.53829 0.0
O218 O 0.78721 0.82843 0.53978 0.0
O219 O 0.79081 0.88801 0.50581 0.0
O220 O 0.80041 0.86781 0.52086 0.0
C221 C 0.77246 0.82953 0.54533 0.0
C222 C 0.80403 0.88243 0.51167 0.0
O223 O 0.74496 0.8688 0.51291 0.0
Mg224 Mg 0.91444 0.02738 0.21582 0.0
O225 O 0.89608 -0.00455 0.2144 0.0
O226 O 0.88625 0.99005 0.241 0.0
Mg227 Mg 0.88812 0.02108 0.25284 0.0
C228 C 0.88838 0.98396 0.22518 0.0
C229 C 0.92312 0.005 0.18327 0.0
O230 O 0.92375 0.99291 0.19499 0.0
O231 O 0.89229 0.04028 0.20835 0.0
O232 O 0.87641 0.02024 0.22484 0.0
O233 O 0.93443 0.0179 0.23063 0.0
O234 O 0.91498 0.03093 0.2434 0.0
C235 C 0.87832 0.03484 0.21624 0.0
C236 C 0.92744 0.02259 0.24478 0.0
O237 O 0.91922 0.02083 0.1878 0.0
Mg238 Mg 0.27341 0.61264 0.52403 0.0
O239 O 0.2706 0.63205 0.54875 0.0
O240 O 0.29304 0.65981 0.55153 0.0
Mg241 Mg 0.31104 0.65619 0.52971 0.0
C242 C 0.27873 0.64914 0.55663 0.0
C243 C 0.23844 0.5919 0.53837 0.0
O244 O 0.2485 0.59294 0.55288 0.0
O245 O 0.26563 0.63272 0.5063 0.0
O246 O 0.28962 0.65897 0.50921 0.0
O247 O 0.28762 0.59745 0.54 0.0
O248 O 0.30049 0.62335 0.52654 0.0
C249 C 0.27397 0.64962 0.50234 0.0
C250 C 0.30203 0.60984 0.53607 0.0
O251 O 0.24534 0.59655 0.52429 0.0
Mg252 Mg 0.41614 0.52978 0.71771 0.0
O253 O 0.4019 0.49671 0.70848 0.0
O254 O 0.3912 0.50011 0.7337 0.0
Mg255 Mg 0.39108 0.51821 0.75841 0.0
C256 C 0.39124 0.48964 0.71946 0.0
C257 C 0.43005 0.5184 0.68511 0.0
O258 O 0.43449 0.50822 0.69701 0.0
O259 O 0.39006 0.53705 0.71313 0.0
O260 O 0.3772 0.53203 0.73858 0.0
O261 O 0.4388 0.52267 0.73139 0.0
O262 O 0.41555 0.52634 0.74475 0.0
C263 C 0.37748 0.53717 0.723 0.0
C264 C 0.43015 0.52174 0.74532 0.0
O265 O 0.42251 0.53146 0.68971 0.0
Mg266 Mg 0.62696 0.99153 0.72445 0.0
O267 O 0.64376 0.02388 0.73334 0.0
O268 O 0.65336 0.02694 0.76198 0.0
Mg269 Mg 0.65306 -0.00416 0.76571 0.0
C270 C 0.6511 0.03444 0.74786 0.0
C271 C 0.60319 0.98977 0.69614 0.0
O272 O 0.59646 0.97574 0.70588 0.0
O273 O 0.64973 0.98132 0.71383 0.0
O274 O 0.66231 -0.00189 0.73843 0.0
O275 O 0.60641 -0.00158 0.73918 0.0
O276 O 0.62637 0.98588 0.75124 0.0
C277 C 0.66147 0.98413 0.72647 0.0
C278 C 0.61349 -0.00638 0.75297 0.0
O279 O 0.61943 -0.00053 0.69895 0.0
Mg280 Mg 0.77576 0.67156 -0.00116 0.0
O281 O 0.77732 0.69084 0.026 0.0
O282 O 0.80396 0.71291 0.03016 0.0
Mg283 Mg 0.81992 0.70569 0.00668 0.0
C284 C 0.78873 0.70522 0.03548 0.0
C285 C 0.73688 0.64391 -0.00924 0.0
O286 O 0.74555 0.63487 0.98025 0.0
O287 O 0.77531 0.69542 0.9796 0.0
O288 O 0.80384 0.71295 0.98289 0.0
O289 O 0.78508 0.64985 0.01301 0.0
O290 O 0.80348 0.67413 0.00179 0.0
C291 C 0.78843 0.70848 0.97456 0.0
C292 C 0.80122 0.65897 0.0103 0.0
O293 O 0.74532 0.66042 -0.00038 0.0
Mg294 Mg 0.92909 0.54792 0.78318 0.0
O295 O 0.91314 0.5158 0.78435 0.0
O296 O 0.90735 0.51378 0.81256 0.0
Mg297 Mg 0.92158 0.54306 0.8295 0.0
C298 C 0.90571 0.50617 0.79643 0.0
C299 C 0.92133 0.53558 0.74061 0.0
O300 O 0.91205 0.53584 0.72591 0.0
O301 O 0.90479 0.55572 0.78871 0.0
O302 O 0.9001 0.55508 0.81727 0.0
O303 O 0.95445 0.5398 0.78786 0.0
O304 O 0.93959 0.55063 0.80841 0.0
C305 C 0.89566 0.55758 0.80159 0.0
C306 C 0.95246 0.54387 0.8044 0.0
O307 O 0.91887 0.54519 0.75461 0.0
Mg308 Mg 0.78871 0.4228 0.49474 0.0
O309 O 0.78684 0.39857 0.47193 0.0
O310 O 0.81307 0.39206 0.4721 0.0
Mg311 Mg 0.83127 0.41188 0.49472 0.0
C312 C 0.7972 0.38919 0.46556 0.0
C313 C 0.75611 0.43404 0.48983 0.0
O314 O 0.76927 0.44945 0.48758 0.0
O315 O 0.78647 0.40071 0.5143 0.0
O316 O 0.81274 0.39465 0.51318 0.0
O317 O 0.79821 0.44475 0.47615 0.0
O318 O 0.81525 0.43228 0.49283 0.0
C319 C 0.79743 0.39166 0.51895 0.0
C320 C 0.81352 0.44262 0.48037 0.0
O321 O 0.75937 0.4182 0.49293 0.0
Mg322 Mg 0.63533 0.51056 0.30508 0.0
O323 O 0.65611 0.54017 0.3044 0.0
O324 O 0.67259 0.54947 0.33025 0.0
Mg325 Mg 0.6647 0.52319 0.34579 0.0
C326 C 0.66816 0.55269 0.31481 0.0
C327 C 0.62412 0.52488 0.2721 0.0
O328 O 0.62567 0.53966 0.2845 0.0
O329 O 0.65556 0.49481 0.29977 0.0
O330 O 0.67402 0.50359 0.32446 0.0
O331 O 0.61805 0.52616 0.31742 0.0
O332 O 0.63779 0.51559 0.33226 0.0
C333 C 0.66938 0.49441 0.30889 0.0
C334 C 0.62641 0.52553 0.33227 0.0
O335 O 0.62765 0.50946 0.27615 0.0
Tb336 Tb 0.04175 0.02908 0.01144 0.0
Tb337 Tb -0.00397 0.00128 -0.003 0.0
C338 C 0.01476 0.03017 0.03235 0.0
C339 C 0.0883 0.03193 0.01585 0.0
C340 C 0.11334 0.01102 0.01797 0.0
C341 C 0.1172 0.03039 0.02655 0.0
C342 C 0.10473 0.04082 0.02545 0.0
C343 C 0.08418 0.01232 0.00783 0.0
C344 C 0.09667 0.00198 0.00877 0.0
C345 C 0.07491 0.04243 0.01541 0.0
O346 O 0.03527 -0.0 0.02137 0.0
O347 O 0.00816 0.97972 0.00664 0.0
O348 O 0.00914 0.00133 0.9733 0.0
O349 O 0.03528 0.00504 -0.01042 0.0
O350 O 0.97296 -0.00473 0.01028 0.0
O351 O 0.97201 0.98704 0.98181 0.0
O352 O -0.00071 0.03162 -0.00876 0.0
O353 O 0.0299 0.04822 -0.00278 0.0
O354 O 0.0313 0.03948 0.03549 0.0
O355 O 0.01218 0.02203 0.01632 0.0
C356 C 0.0229 0.98266 0.01718 0.0
O357 O 0.06571 0.04038 0.00026 0.0
O358 O 0.06491 0.04014 0.02851 0.0
C359 C 0.02643 0.00489 0.97444 0.0
C360 C 0.94931 -0.00039 -0.00765 0.0
C361 C 0.92272 0.01831 0.9869 0.0
C362 C 0.92208 0.00051 0.97656 0.0
C363 C 0.93524 0.99123 0.97931 0.0
C364 C 0.95037 0.0178 0.00218 0.0
C365 C 0.93718 0.02699 -0.00045 0.0
C366 C 0.96294 0.98952 -0.00467 0.0
C367 C 0.0135 0.04711 -0.00882 0.0
H368 H 0.13002 0.03764 0.03369 0.0
H369 H 0.10788 0.05578 0.03208 0.0
H370 H 0.07128 0.00501 0.00088 0.0
H371 H 0.09333 0.98694 0.00228 0.0
H372 H 0.91125 -0.0064 0.96654 0.0
H373 H 0.93433 0.97738 0.97136 0.0
H374 H 0.96124 0.02481 0.01215 0.0
H375 H 0.938 0.04052 0.00795 0.0
Tb376 Tb 0.26902 0.76864 0.27577 0.0
Tb377 Tb 0.28913 0.76605 0.23918 0.0
C378 C 0.25243 0.77491 0.23889 0.0
C379 C 0.25007 0.75559 0.3179 0.0
C380 C 0.24533 0.73318 0.34646 0.0
C381 C 0.23699 0.74808 0.34527 0.0
C382 C 0.23932 0.75916 0.33108 0.0
C383 C 0.25814 0.74043 0.31877 0.0
C384 C 0.25573 0.72923 0.33295 0.0
C385 C 0.25247 0.76757 0.30322 0.0
O386 O 0.26833 0.73811 0.26856 0.0
O387 O 0.26871 0.73832 0.23872 0.0
O388 O 0.30329 0.75434 0.25852 0.0
O389 O 0.29577 0.76877 0.28419 0.0
O390 O 0.28855 0.75679 0.21214 0.0
O391 O 0.31327 0.77212 0.22749 0.0
O392 O 0.29996 0.7959 0.25197 0.0
O393 O 0.27857 0.79922 0.27042 0.0
O394 O 0.24981 0.76755 0.25392 0.0
O395 O 0.26806 0.77906 0.23253 0.0
C396 C 0.26456 0.72896 0.25244 0.0
O397 O 0.26836 0.77932 0.30236 0.0
O398 O 0.2455 0.75812 0.28784 0.0
C399 C 0.30605 0.76012 0.27559 0.0
C400 C 0.30954 0.78043 0.19916 0.0
C401 C 0.3169 0.80761 0.17445 0.0
C402 C 0.32808 0.79572 0.17726 0.0
C403 C 0.32436 0.78215 0.18951 0.0
C404 C 0.29896 0.79304 0.19715 0.0
C405 C 0.30252 0.80641 0.18482 0.0
C406 C 0.30535 0.76595 0.21172 0.0
C407 C 0.29247 0.80683 0.26191 0.0
H408 H 0.22879 0.75129 0.35543 0.0
H409 H 0.23284 0.77065 0.33048 0.0
H410 H 0.26642 0.73742 0.3086 0.0
H411 H 0.26244 0.71796 0.33365 0.0
H412 H 0.33945 0.79656 0.1697 0.0
H413 H 0.33289 0.77282 0.19125 0.0
H414 H 0.28765 0.7922 0.2048 0.0
H415 H 0.29349 0.81511 0.18289 0.0
Tb416 Tb 0.50087 0.01892 0.50817 0.0
Tb417 Tb 0.54341 0.02223 0.50004 0.0
C418 C 0.52817 0.01327 0.53518 0.0
C419 C 0.45822 0.03249 0.5153 0.0
C420 C 0.43401 0.05552 0.51719 0.0
C421 C 0.44002 0.04899 0.53244 0.0
C422 C 0.45187 0.03752 0.53147 0.0
C423 C 0.45256 0.03944 0.50012 0.0
C424 C 0.4406 0.05076 0.50106 0.0
C425 C 0.46958 0.0189 0.51436 0.0
O426 O 0.51753 0.04801 0.51965 0.0
O427 O 0.54213 0.05286 0.50344 0.0
O428 O 0.52707 0.01606 0.47542 0.0
O429 O 0.50752 0.03258 0.48455 0.0
O430 O 0.56846 0.02318 0.51131 0.0
O431 O 0.56416 0.02315 0.48327 0.0
O432 O 0.52986 0.99105 0.50064 0.0
O433 O 0.50059 0.99023 0.4943 0.0
O434 O 0.51195 0.00523 0.52803 0.0
O435 O 0.53966 0.02618 0.52755 0.0
C436 C 0.53209 0.05956 0.51437 0.0
O437 O 0.47411 0.01332 0.4989 0.0
O438 O 0.48268 0.02249 0.52654 0.0
C439 C 0.5145 0.02415 0.47194 0.0
C440 C 0.58527 0.00717 0.4934 0.0
C441 C 0.60815 0.9827 0.49127 0.0
C442 C 0.61009 -0.00189 0.48073 0.0
C443 C 0.59872 0.01016 0.48174 0.0
C444 C 0.58299 0.9913 0.50353 0.0
C445 C 0.59431 0.9792 0.50245 0.0
C446 C 0.57512 0.02187 0.49617 0.0
C447 C 0.51327 0.98149 0.49503 0.0
H448 H 0.43514 0.05221 0.54505 0.0
H449 H 0.45582 0.03224 0.54337 0.0
H450 H 0.45712 0.03588 0.48742 0.0
H451 H 0.43646 0.05576 0.48909 0.0
H452 H 0.62071 0.00115 0.47206 0.0
H453 H 0.60084 0.02229 0.47385 0.0
H454 H 0.57284 0.98861 0.51273 0.0
H455 H 0.59267 0.96755 0.51084 0.0
Tb456 Tb 0.29798 0.2623 0.76121 0.0
Tb457 Tb 0.25825 0.26955 0.75695 0.0
C458 C 0.26376 0.22995 0.76474 0.0
C459 C 0.34263 0.2577 0.75045 0.0
C460 C 0.37111 0.25889 0.72897 0.0
C461 C 0.36483 0.24311 0.73889 0.0
C462 C 0.35082 0.24256 0.74951 0.0
C463 C 0.34849 0.27327 0.74021 0.0
C464 C 0.36258 0.27386 0.7296 0.0
C465 C 0.32834 0.257 0.76244 0.0
O466 O 0.28696 0.25069 0.73387 0.0
O467 O 0.26572 0.26681 0.72964 0.0
O468 O 0.27825 0.29809 0.76036 0.0
O469 O 0.3004 0.28796 0.74806 0.0
O470 O 0.23065 0.25703 0.75301 0.0
O471 O 0.24198 0.28859 0.75717 0.0
O472 O 0.26394 0.26957 0.78531 0.0
O473 O 0.2945 0.27739 0.78699 0.0
O474 O 0.27953 0.2391 0.77248 0.0
O475 O 0.25593 0.23832 0.75371 0.0
C476 C 0.27615 0.25655 0.7233 0.0
O477 O 0.32541 0.2737 0.76801 0.0
O478 O 0.31359 0.24278 0.75826 0.0
C479 C 0.2932 0.30186 0.75286 0.0
C480 C 0.21414 0.27546 0.7685 0.0
C481 C 0.18655 0.27638 0.79062 0.0
C482 C 0.19 0.28855 0.77705 0.0
C483 C 0.20361 0.28805 0.76611 0.0
C484 C 0.21117 0.26377 0.78241 0.0
C485 C 0.19751 0.26419 0.79332 0.0
C486 C 0.22744 0.27401 0.75583 0.0
C487 C 0.27952 0.27607 0.79448 0.0
H488 H 0.37076 0.23109 0.73848 0.0
H489 H 0.34646 0.23032 0.75715 0.0
H490 H 0.34235 0.28511 0.74058 0.0
H491 H 0.36708 0.28632 0.72225 0.0
H492 H 0.18179 0.29799 0.77446 0.0
H493 H 0.20565 0.29721 0.75549 0.0
H494 H 0.21921 0.25404 0.78467 0.0
H495 H 0.19546 0.25487 0.80381 0.0
Tb496 Tb 0.01951 0.02956 0.52923 0.0
Tb497 Tb 0.02129 0.00292 0.49305 0.0
C498 C 0.98574 0.00104 0.50954 0.0
C499 C 0.02586 0.04605 0.57698 0.0
C500 C 0.04047 0.04307 0.6107 0.0
C501 C 0.02385 0.04657 0.6086 0.0
C502 C 0.01663 0.04807 0.59189 0.0
C503 C 0.04239 0.04239 0.57897 0.0
C504 C 0.04968 0.04102 0.59569 0.0
C505 C 0.01776 0.04684 0.55938 0.0
O506 O 0.02131 0.00067 0.53754 0.0
O507 O 0.0274 0.98394 0.51237 0.0
O508 O 0.04914 0.01771 0.50055 0.0
O509 O 0.04781 0.03735 0.52609 0.0
O510 O 0.00727 0.97914 0.47436 0.0
O511 O 0.03333 -0.00315 0.47001 0.0
O512 O 0.01619 0.03014 0.48408 0.0
O513 O 0.01931 0.05093 0.50994 0.0
O514 O -0.00736 0.01952 0.51621 0.0
O515 O -0.00397 0.99081 0.50362 0.0
C516 C 0.02494 0.98492 0.52945 0.0
O517 O 0.02859 0.0547 0.54807 0.0
O518 O 0.0061 0.03059 0.55222 0.0
C519 C 0.05673 0.03147 0.51367 0.0
C520 C 0.01212 0.98687 0.44563 0.0
C521 C -0.00081 0.99342 0.41248 0.0
C522 C 0.01379 0.98585 0.41398 0.0
C523 C 0.02016 0.98255 0.43044 0.0
C524 C -0.00219 -0.00515 0.44425 0.0
C525 C -0.00867 -0.00205 0.42783 0.0
C526 C 0.01895 0.98362 0.46294 0.0
C527 C 0.01747 0.04795 0.49242 0.0
H528 H 0.0165 0.04838 0.61992 0.0
H529 H 0.00379 0.0507 0.59059 0.0
H530 H 0.04962 0.04044 0.56758 0.0
H531 H 0.06239 0.03805 0.59684 0.0
H532 H 0.02036 0.98257 0.40246 0.0
H533 H 0.03139 0.97668 0.43131 0.0
H534 H -0.00846 -0.00143 0.45586 0.0
H535 H 0.97994 0.00357 0.42717 0.0
Tb536 Tb 0.28489 0.78664 0.75217 0.0
Tb537 Tb 0.26778 0.74444 0.76495 0.0
C538 C 0.27933 0.74745 0.72729 0.0
C539 C 0.28549 0.83539 0.74402 0.0
C540 C 0.26352 0.8604 0.74541 0.0
C541 C 0.27507 0.86076 0.73195 0.0
C542 C 0.28595 0.84824 0.73123 0.0
C543 C 0.27408 0.83518 0.75752 0.0
C544 C 0.2633 0.84761 0.75826 0.0
C545 C 0.295 0.82042 0.74231 0.0
O546 O 0.25597 0.78404 0.75222 0.0
O547 O 0.245 0.75038 0.75002 0.0
O548 O 0.26101 0.76497 0.78422 0.0
O549 O 0.28358 0.79205 0.78032 0.0
O550 O 0.25318 0.71451 0.75916 0.0
O551 O 0.26387 0.72706 0.78578 0.0
O552 O 0.29635 0.75273 0.77526 0.0
O553 O 0.30889 0.77671 0.75808 0.0
O554 O 0.27794 0.76537 0.72865 0.0
O555 O 0.28048 0.73883 0.74137 0.0
C556 C 0.24239 0.76779 0.74835 0.0
O557 O 0.30102 0.8161 0.75708 0.0
O558 O 0.28674 0.80456 0.73173 0.0
C559 C 0.27136 0.78269 0.7898 0.0
C560 C 0.2674 0.69662 0.77565 0.0
C561 C 0.28878 0.67127 0.7779 0.0
C562 C 0.27376 0.66884 0.78758 0.0
C563 C 0.26314 0.68152 0.78648 0.0
C564 C 0.28251 0.69922 0.76627 0.0
C565 C 0.29302 0.68664 0.76729 0.0
C566 C 0.25725 0.71086 0.77498 0.0
C567 C 0.31075 0.76441 0.76953 0.0
H568 H 0.27545 0.87042 0.72183 0.0
H569 H 0.29441 0.84827 0.72051 0.0
H570 H 0.27324 0.82512 0.76738 0.0
H571 H 0.25485 0.84725 0.76902 0.0
H572 H 0.27023 0.65716 0.79592 0.0
H573 H 0.2517 0.6796 0.79409 0.0
H574 H 0.28622 0.711 0.75807 0.0
H575 H 0.30421 0.68867 0.75932 0.0
Tb576 Tb 0.52571 0.00626 0.03023 0.0
Tb577 Tb 0.52662 0.0271 -0.00478 0.0
C578 C 0.56089 0.02844 0.01616 0.0
C579 C 0.51826 -0.0054 0.07515 0.0
C580 C 0.50809 0.0052 0.1084 0.0
C581 C 0.52321 -0.00132 0.10695 0.0
C582 C 0.52822 0.99333 0.09041 0.0
C583 C 0.50324 0.00139 0.07653 0.0
C584 C 0.49807 0.00647 0.0931 0.0
C585 C 0.52427 0.98987 0.05794 0.0
O586 O 0.5213 0.03507 0.03998 0.0
O587 O 0.53127 0.0521 0.0167 0.0
O588 O 0.50248 0.02754 0.00641 0.0
O589 O 0.49869 -0.00074 0.01867 0.0
O590 O 0.5389 0.04808 0.97905 0.0
O591 O 0.51241 0.02827 0.97168 0.0
O592 O 0.52013 -0.00509 0.98576 0.0
O593 O 0.53202 0.98518 0.00984 0.0
O594 O 0.55197 0.02628 0.03005 0.0
O595 O 0.55278 0.02409 0.0003 0.0
C596 C 0.52625 0.05199 0.03303 0.0
O597 O 0.51211 0.98418 0.04477 0.0
O598 O 0.53843 0.00271 0.05395 0.0
C599 C 0.49215 0.01224 0.01221 0.0
C600 C 0.5308 0.03577 0.94904 0.0
C601 C 0.53902 0.02374 0.91527 0.0
C602 C 0.52378 0.02993 0.91738 0.0
C603 C 0.51973 0.03595 0.93419 0.0
C604 C 0.54577 0.0291 0.94703 0.0
C605 C 0.54992 0.02327 0.93025 0.0
C606 C 0.52592 0.04125 0.9666 0.0
C607 C 0.52596 0.98152 -0.00702 0.0
H608 H 0.53095 -0.00265 0.11863 0.0
H609 H 0.53991 0.98828 0.08953 0.0
H610 H 0.49554 0.00281 0.06485 0.0
H611 H 0.48636 0.01149 0.09399 0.0
H612 H 0.51501 0.03013 0.90607 0.0
H613 H 0.5079 0.04064 0.93561 0.0
H614 H 0.5543 0.02846 0.95839 0.0
H615 H 0.56188 0.01882 0.92901 0.0
Tb616 Tb 0.27109 0.24798 0.2524 0.0
Tb617 Tb 0.28567 0.29324 0.2672 0.0
C618 C 0.27008 0.28049 0.22672 0.0
C619 C 0.27631 0.20024 0.2414 0.0
C620 C 0.30192 0.17989 0.2414 0.0
C621 C 0.28577 0.17188 0.23084 0.0
C622 C 0.27305 0.18215 0.23072 0.0
C623 C 0.29253 0.20832 0.25161 0.0
C624 C 0.30536 0.19853 0.25127 0.0
C625 C 0.26363 0.21168 0.24155 0.0
O626 O 0.30066 0.25508 0.25067 0.0
O627 O 0.30919 0.28879 0.25432 0.0
O628 O 0.29465 0.27796 0.28784 0.0
O629 O 0.2731 0.24887 0.28118 0.0
O630 O 0.2974 0.3232 0.26474 0.0
O631 O 0.29012 0.31397 0.28986 0.0
O632 O 0.25713 0.28489 0.27366 0.0
O633 O 0.2456 0.25415 0.25799 0.0
O634 O 0.26785 0.26192 0.2289 0.0
O635 O 0.27507 0.2946 0.2402 0.0
C636 C 0.31287 0.27207 0.24949 0.0
O637 O 0.26075 0.21852 0.2572 0.0
O638 O 0.26679 0.22536 0.23116 0.0
C639 C 0.28488 0.2614 0.29272 0.0
C640 C 0.28324 0.34173 0.28236 0.0
C641 C 0.25967 0.36452 0.28613 0.0
C642 C 0.27614 0.3704 0.29624 0.0
C643 C 0.28787 0.35897 0.29441 0.0
C644 C 0.26678 0.33577 0.27243 0.0
C645 C 0.25513 0.34707 0.27424 0.0
C646 C 0.29462 0.32882 0.28082 0.0
C647 C 0.24326 0.26919 0.26842 0.0
H648 H 0.2827 0.15744 0.22322 0.0
H649 H 0.26064 0.17587 0.22261 0.0
H650 H 0.29522 0.22213 0.26014 0.0
H651 H 0.31779 0.20531 0.25925 0.0
H652 H 0.27994 0.38384 0.30545 0.0
H653 H 0.30045 0.36352 0.30235 0.0
H654 H 0.26294 0.32236 0.26317 0.0
H655 H 0.24279 0.3424 0.26589 0.0
Tb656 Tb 0.5204 0.53079 0.02801 0.0
Tb657 Tb 0.52089 0.50377 -0.00841 0.0
C658 C 0.48492 0.50277 0.00737 0.0
C659 C 0.52787 0.54964 0.07424 0.0
C660 C 0.54036 0.54262 0.10722 0.0
C661 C 0.52717 0.55231 0.10603 0.0
C662 C 0.52089 0.55572 0.08957 0.0
C663 C 0.5411 0.54007 0.07545 0.0
C664 C 0.54732 0.53664 0.0918 0.0
C665 C 0.52047 0.55156 0.05682 0.0
O666 O 0.5234 0.50363 0.03827 0.0
O667 O 0.52423 0.48457 0.01228 0.0
O668 O 0.54818 0.52171 -0.00275 0.0
O669 O 0.5485 0.53379 0.02627 0.0
O670 O 0.50943 0.47694 0.97535 0.0
O671 O 0.53286 0.49812 0.96852 0.0
O672 O 0.5183 0.53115 0.98139 0.0
O673 O 0.51736 0.55011 0.0074 0.0
O674 O 0.49355 0.51117 0.02257 0.0
O675 O 0.49315 0.50244 -0.00703 0.0
C676 C 0.52429 0.48675 0.02978 0.0
O677 O 0.53199 0.55677 0.04534 0.0
O678 O 0.50713 0.53669 0.05013 0.0
C679 C 0.5567 0.53158 0.01205 0.0
C680 C 0.51114 0.48268 0.94555 0.0
C681 C 0.49622 0.48868 0.9132 0.0
C682 C 0.51395 0.4884 0.91499 0.0
C683 C 0.52133 0.48535 0.93104 0.0
C684 C 0.49332 0.48267 0.94369 0.0
C685 C 0.4859 0.48554 0.92761 0.0
C686 C 0.5198 0.48241 0.96295 0.0
C687 C 0.51747 0.54805 -0.01008 0.0
H688 H 0.52155 0.55694 0.11777 0.0
H689 H 0.51046 0.56282 0.08878 0.0
H690 H 0.5465 0.53504 0.06372 0.0
H691 H 0.55769 0.52942 0.09239 0.0
H692 H 0.52212 0.49061 0.90399 0.0
H693 H 0.53514 0.48565 0.93228 0.0
H694 H 0.48522 0.48102 0.95476 0.0
H695 H 0.47225 0.48588 0.92658 0.0
Tb696 Tb 0.78452 0.2874 0.25518 0.0
Tb697 Tb 0.76677 0.24498 0.26747 0.0
C698 C 0.77803 0.24971 0.22958 0.0
C699 C 0.78469 0.33546 0.24528 0.0
C700 C 0.76369 0.36151 0.24565 0.0
C701 C 0.77761 0.36351 0.23452 0.0
C702 C 0.78802 0.35046 0.23429 0.0
C703 C 0.77075 0.33346 0.25625 0.0
C704 C 0.76045 0.34637 0.25652 0.0
C705 C 0.79462 0.32084 0.24474 0.0
O706 O 0.75586 0.27949 0.24538 0.0
O707 O 0.74309 0.25569 0.26263 0.0
O708 O 0.77113 0.26505 0.29129 0.0
O709 O 0.77297 0.29367 0.27955 0.0
O710 O 0.75241 0.21514 0.26049 0.0
O711 O 0.76204 0.22634 0.28744 0.0
O712 O 0.79602 0.24815 0.2696 0.0
O713 O 0.80778 0.28151 0.26903 0.0
O714 O 0.79038 0.26582 0.23604 0.0
O715 O 0.76518 0.24175 0.23895 0.0
C716 C 0.74141 0.26818 0.25132 0.0
O717 O 0.79989 0.31713 0.26014 0.0
O718 O 0.7871 0.30463 0.2342 0.0
C719 C 0.7711 0.28344 0.29295 0.0
C720 C 0.76577 0.19617 0.27639 0.0
C721 C 0.78533 0.16902 0.27631 0.0
C722 C 0.7714 0.16749 0.28725 0.0
C723 C 0.76163 0.18113 0.28732 0.0
C724 C 0.78014 0.19798 0.26598 0.0
C725 C 0.78981 0.18447 0.26591 0.0
C726 C 0.75583 0.21063 0.27607 0.0
C727 C 0.80992 0.26429 0.27224 0.0
H728 H 0.78031 0.37501 0.22594 0.0
H729 H 0.79852 0.35198 0.22549 0.0
H730 H 0.76774 0.32182 0.26464 0.0
H731 H 0.75009 0.34464 0.26549 0.0
H732 H 0.76779 0.15548 0.29524 0.0
H733 H 0.75075 0.17978 0.29563 0.0
H734 H 0.78368 0.20963 0.2576 0.0
H735 H 0.80049 0.18572 0.25734 0.0
Tb736 Tb 0.01996 0.50323 0.52908 0.0
Tb737 Tb 0.02081 0.52438 0.49414 0.0
C738 C 0.05461 0.52547 0.51535 0.0
C739 C 0.0128 0.4932 0.57448 0.0
C740 C 0.0057 0.50493 0.60876 0.0
C741 C 0.01966 0.49667 0.60604 0.0
C742 C 0.02312 0.49074 0.589 0.0
C743 C -0.0009 0.50199 0.57715 0.0
C744 C -0.00454 0.50765 0.59422 0.0
C745 C 0.01656 0.48669 0.55667 0.0
O746 O 0.01633 0.53254 0.53887 0.0
O747 O 0.02631 0.54946 0.51555 0.0
O748 O -0.00357 0.52447 0.5053 0.0
O749 O -0.00576 0.49543 0.51534 0.0
O750 O 0.03363 0.54574 0.47858 0.0
O751 O 0.00727 0.52592 0.47031 0.0
O752 O 0.015 0.49226 0.48453 0.0
O753 O 0.02645 0.48222 0.5088 0.0
O754 O 0.04575 0.52369 0.52927 0.0
O755 O 0.04661 0.52057 0.49949 0.0
C756 C 0.02155 0.54948 0.53194 0.0
O757 O 0.00379 0.48403 0.54437 0.0
O758 O 0.03191 0.49601 0.55169 0.0
C759 C 0.98709 0.50907 0.51178 0.0
C760 C 0.02661 0.53373 0.44841 0.0
C761 C 0.03636 0.52311 0.41499 0.0
C762 C 0.01991 0.52671 0.41678 0.0
C763 C 0.01511 0.53207 0.43339 0.0
C764 C 0.04277 0.52938 0.44674 0.0
C765 C 0.04765 0.52419 0.43011 0.0
C766 C 0.02107 0.53895 0.46572 0.0
C767 C 0.02081 0.47885 0.49181 0.0
H768 H 0.02754 0.49421 0.61714 0.0
H769 H 0.03375 0.48406 0.58716 0.0
H770 H -0.00892 0.5043 0.56609 0.0
H771 H 0.98464 0.51401 0.59608 0.0
H772 H 0.01087 0.52562 0.4053 0.0
H773 H 0.00242 0.53495 0.43453 0.0
H774 H 0.0517 0.53017 0.45823 0.0
H775 H 0.06048 0.52165 0.42905 0.0
Tb776 Tb 0.80086 0.76363 0.26177 0.0
Tb777 Tb 0.75492 0.7691 0.25742 0.0
C778 C 0.77124 0.73212 0.26278 0.0
C779 C 0.84716 0.76905 0.24935 0.0
C780 C 0.87377 0.76376 0.22738 0.0
C781 C 0.86677 0.75 0.23903 0.0
C782 C 0.85371 0.75266 0.24991 0.0
C783 C 0.85387 0.78259 0.23744 0.0
C784 C 0.86697 0.77995 0.22657 0.0
C785 C 0.83417 0.77253 0.26176 0.0
O786 O 0.7906 0.75493 0.2337 0.0
O787 O 0.76225 0.76055 0.2305 0.0
O788 O 0.76726 0.79986 0.25434 0.0
O789 O 0.78719 0.78501 0.25789 0.0
O790 O 0.73194 0.74908 0.26441 0.0
O791 O 0.73042 0.77317 0.24972 0.0
O792 O 0.76595 0.77975 0.28502 0.0
O793 O 0.79294 0.77122 0.28868 0.0
O794 O 0.78771 0.73236 0.2636 0.0
O795 O 0.77004 0.74941 0.26044 0.0
C796 C 0.77609 0.75544 0.22406 0.0
O797 O 0.82484 0.78416 0.25754 0.0
O798 O 0.82457 0.75719 0.26844 0.0
C799 C 0.78404 0.8013 0.25456 0.0
C800 C 0.70944 0.76441 0.27102 0.0
C801 C 0.6838 0.77223 0.29278 0.0
C802 C 0.68975 0.7841 0.27952 0.0
C803 C 0.70251 0.78028 0.26876 0.0
C804 C 0.70369 0.75285 0.28464 0.0
C805 C 0.69103 0.75678 0.29545 0.0
C806 C 0.72184 0.75927 0.25869 0.0
C807 C 0.77979 0.77792 0.29485 0.0
H808 H 0.87148 0.7372 0.23984 0.0
H809 H 0.84894 0.74198 0.25897 0.0
H810 H 0.84925 0.79549 0.23675 0.0
H811 H 0.87218 0.791 0.21796 0.0
H812 H 0.68412 0.79592 0.27714 0.0
H813 H 0.70656 0.78942 0.25837 0.0
H814 H 0.70861 0.74042 0.28666 0.0
H815 H 0.68632 0.74724 0.30542 0.0
Tb816 Tb 0.76922 0.26917 0.77618 0.0
Tb817 Tb 0.78929 0.26642 0.73956 0.0
C818 C 0.75266 0.27581 0.73935 0.0
C819 C 0.75107 0.25617 0.81872 0.0
C820 C 0.74656 0.23352 0.84719 0.0
C821 C 0.73847 0.2487 0.84633 0.0
C822 C 0.74069 0.25988 0.8322 0.0
C823 C 0.75896 0.24082 0.81929 0.0
C824 C 0.75667 0.22952 0.83342 0.0
C825 C 0.7532 0.26815 0.804 0.0
O826 O 0.7679 0.23849 0.76855 0.0
O827 O 0.76866 0.23894 0.73874 0.0
O828 O 0.8027 0.25367 0.75867 0.0
O829 O 0.79598 0.26903 0.78425 0.0
O830 O 0.789 0.25729 0.71254 0.0
O831 O 0.81356 0.27266 0.72811 0.0
O832 O 0.80073 0.29577 0.75315 0.0
O833 O 0.77882 0.29968 0.77057 0.0
O834 O 0.75 0.26893 0.7546 0.0
O835 O 0.76821 0.27943 0.7328 0.0
C836 C 0.76428 0.22952 0.75234 0.0
O837 O 0.76903 0.2799 0.80286 0.0
O838 O 0.74595 0.25873 0.78868 0.0
C839 C 0.80578 0.25967 0.77569 0.0
C840 C 0.8101 0.28092 0.69974 0.0
C841 C 0.81743 0.30777 0.67477 0.0
C842 C 0.82853 0.29579 0.6776 0.0
C843 C 0.82483 0.28238 0.68997 0.0
C844 C 0.79964 0.29365 0.69774 0.0
C845 C 0.8032 0.30686 0.68528 0.0
C846 C 0.8058 0.26646 0.71228 0.0
C847 C 0.7931 0.30703 0.76248 0.0
H848 H 0.73046 0.25196 0.85665 0.0
H849 H 0.73436 0.27151 0.83185 0.0
H850 H 0.76697 0.23769 0.8089 0.0
H851 H 0.76317 0.21803 0.83383 0.0
H852 H 0.8398 0.29642 0.66993 0.0
H853 H 0.83326 0.27294 0.69171 0.0
H854 H 0.78841 0.293 0.70546 0.0
H855 H 0.79423 0.31564 0.68333 0.0
Tb856 Tb 0.77269 0.74811 0.75393 0.0
Tb857 Tb 0.78501 0.79396 0.76661 0.0
C858 C 0.77037 0.77928 0.72681 0.0
C859 C 0.77611 0.69974 0.74366 0.0
C860 C 0.80137 0.67899 0.74328 0.0
C861 C 0.78475 0.67069 0.73361 0.0
C862 C 0.77217 0.68115 0.73369 0.0
C863 C 0.79278 0.70806 0.753 0.0
C864 C 0.80539 0.69801 0.75252 0.0
C865 C 0.76385 0.71165 0.74367 0.0
O866 O 0.80148 0.75498 0.74956 0.0
O867 O 0.80972 0.78859 0.75639 0.0
O868 O 0.78362 0.77988 0.79101 0.0
O869 O 0.78558 0.7496 0.78044 0.0
O870 O 0.79663 0.82324 0.762 0.0
O871 O 0.79127 0.81636 0.78819 0.0
O872 O 0.75597 0.78741 0.76972 0.0
O873 O 0.7479 0.75364 0.76362 0.0
O874 O 0.77098 0.76154 0.72954 0.0
O875 O 0.77259 0.7933 0.74011 0.0
C876 C 0.81362 0.7723 0.75018 0.0
O877 O 0.76125 0.71902 0.75927 0.0
O878 O 0.76739 0.72505 0.73301 0.0
C879 C 0.78552 0.76269 0.79386 0.0
C880 C 0.78398 0.84348 0.77935 0.0
C881 C 0.76188 0.86785 0.78109 0.0
C882 C 0.77814 0.87366 0.79142 0.0
C883 C 0.78921 0.86139 0.79058 0.0
C884 C 0.76747 0.83758 0.76948 0.0
C885 C 0.75651 0.84969 0.77034 0.0
C886 C 0.79507 0.83025 0.77804 0.0
C887 C 0.74381 0.77003 0.76923 0.0
H888 H 0.78128 0.65595 0.72648 0.0
H889 H 0.75942 0.67471 0.7262 0.0
H890 H 0.79607 0.72237 0.76081 0.0
H891 H 0.81819 0.70498 0.7598 0.0
H892 H 0.78239 0.88779 0.79967 0.0
H893 H 0.80184 0.86592 0.79845 0.0
H894 H 0.76316 0.82373 0.76084 0.0
H895 H 0.744 0.84514 0.76223 0.0
Tb896 Tb 0.54292 0.5284 0.5113 0.0
Tb897 Tb 0.49726 0.50009 0.49757 0.0
C898 C 0.51646 0.52902 0.53265 0.0
C899 C 0.59037 0.53371 0.51686 0.0
C900 C 0.61703 0.51567 0.52236 0.0
C901 C 0.61773 0.53339 0.53262 0.0
C902 C 0.6044 0.54237 0.5299 0.0
C903 C 0.58949 0.51566 0.50692 0.0
C904 C 0.60284 0.50675 0.50959 0.0
C905 C 0.57601 0.54277 0.51491 0.0
O906 O 0.53715 0.49962 0.52176 0.0
O907 O 0.50961 0.47915 0.50803 0.0
O908 O 0.50992 0.49891 0.47381 0.0
O909 O 0.53639 0.50358 0.49005 0.0
O910 O 0.47449 0.49692 0.51108 0.0
O911 O 0.47314 0.48284 0.48402 0.0
O912 O 0.50058 0.52914 0.4886 0.0
O913 O 0.53014 0.54772 0.49836 0.0
O914 O 0.53296 0.53843 0.53573 0.0
O915 O 0.51375 0.52066 0.5167 0.0
C916 C 0.52463 0.48229 0.51817 0.0
O917 O 0.56673 0.53891 0.49959 0.0
O918 O 0.56604 0.54137 0.52803 0.0
C919 C 0.52714 0.50212 0.47483 0.0
C920 C 0.45045 0.49686 0.4915 0.0
C921 C 0.42381 0.51386 0.48184 0.0
C922 C 0.42157 0.49366 0.47683 0.0
C923 C 0.43485 0.48522 0.48162 0.0
C924 C 0.45293 0.51716 0.496 0.0
C925 C 0.43971 0.52556 0.49127 0.0
C926 C 0.46425 0.48793 0.49681 0.0
C927 C 0.5142 0.54553 0.49039 0.0
H928 H 0.62875 0.54044 0.54242 0.0
H929 H 0.60502 0.55606 0.53795 0.0
H930 H 0.57855 0.50847 0.49709 0.0
H931 H 0.60232 0.49313 0.50145 0.0
H932 H 0.40945 0.48436 0.46952 0.0
H933 H 0.43285 0.46959 0.47781 0.0
H934 H 0.46495 0.52653 0.50345 0.0
H935 H 0.44166 0.54107 0.49566 0.0
Tb936 Tb 2e-05 0.51726 0.00782 0.0
Tb937 Tb 0.0431 0.52214 0.00083 0.0
C938 C 0.02743 0.51321 0.03533 0.0
C939 C 0.95741 0.53049 0.01454 0.0
C940 C 0.93406 0.5545 0.01661 0.0
C941 C 0.94103 0.54913 0.032 0.0
C942 C 0.95244 0.53714 0.03095 0.0
C943 C 0.95075 0.53627 -0.00081 0.0
C944 C 0.93919 0.54805 0.00022 0.0
C945 C 0.96854 0.51664 0.0136 0.0
O946 O 0.01532 0.54727 0.01836 0.0
O947 O 0.04157 0.55267 0.00463 0.0
O948 O 0.02748 0.51564 0.97573 0.0
O949 O 0.00699 0.5311 0.98437 0.0
O950 O 0.06707 0.52082 0.01289 0.0
O951 O 0.06531 0.52592 0.98562 0.0
O952 O 0.02998 0.49074 0.00055 0.0
O953 O 0.00045 0.4887 -0.00584 0.0
O954 O 0.01145 0.5043 0.02799 0.0
O955 O 0.0382 0.52694 0.02791 0.0
C956 C 0.03017 0.55915 0.01391 0.0
O957 O 0.9733 0.51127 -0.00182 0.0
O958 O 0.98143 0.51993 0.02598 0.0
C959 C 0.01464 0.52326 0.97199 0.0
C960 C 0.08525 0.50779 -0.00567 0.0
C961 C 0.10819 0.4833 -0.00896 0.0
C962 C 0.1119 0.50125 0.98367 0.0
C963 C 0.1006 0.51332 0.98533 0.0
C964 C 0.08103 0.48943 0.001 0.0
C965 C 0.09234 0.47734 -0.00064 0.0
C966 C 0.07507 0.52222 -0.0016 0.0
C967 C 0.01357 0.48055 -0.00524 0.0
H968 H 0.93722 0.55369 0.0448 0.0
H969 H 0.95714 0.53278 0.04302 0.0
H970 H 0.95422 0.53145 0.98631 0.0
H971 H 0.93418 0.55209 0.98814 0.0
H972 H 0.12379 0.50621 0.97691 0.0
H973 H 0.1042 0.52736 0.98007 0.0
H974 H 0.06932 0.48472 0.00808 0.0
H975 H 0.08905 0.46374 0.00533 0.0
C976 C 0.97873 0.19373 0.94649 0.0
C977 C 0.9891 0.20285 0.93358 0.0
C978 C 0.98262 0.17823 0.95419 0.0
C979 C 0.00432 0.13923 0.94406 0.0
H980 H -0.00139 0.13075 -0.00703 0.0
C981 C 0.02357 0.07647 0.97493 0.0
C982 C 0.01087 0.06503 0.98474 0.0
C983 C 0.02143 0.0938 0.96927 0.0
C984 C 0.00013 0.13289 0.97925 0.0
H985 H 0.0123 0.20335 0.91935 0.0
H986 H 0.01908 0.17652 0.93281 0.0
H987 H -0.00531 0.16087 0.98272 0.0
H988 H 0.98618 0.06282 -0.00337 0.0
H989 H 0.98264 0.09346 0.98709 0.0
H990 H 0.00979 0.11131 0.9406 0.0
C991 C 0.00777 0.18114 0.9368 0.0
C992 C -0.00212 0.15012 0.97338 0.0
C993 C 0.00395 0.19668 0.92919 0.0
C994 C -0.00394 0.07129 -0.01108 0.0
C995 C -0.00587 0.08889 0.98361 0.0
C996 C 0.00666 0.12211 0.94996 0.0
C997 C -0.00309 0.17139 0.94907 0.0
C998 C -0.0001 0.15348 0.95568 0.0
C999 C 0.00676 0.10028 0.97365 0.0
C1000 C 0.00452 0.11869 0.96758 0.0
H1001 H 0.96724 0.19813 0.95027 0.0
H1002 H 0.97395 0.17105 0.96356 0.0
H1003 H 0.00561 0.14109 0.93027 0.0
H1004 H 0.03509 0.07192 0.97151 0.0
H1005 H 0.0314 0.1023 0.96167 0.0
C1006 C 0.12522 0.79536 0.1479 0.0
C1007 C 0.11158 0.79776 0.15827 0.0
C1008 C 0.14099 0.79325 0.1558 0.0
C1009 C 0.16715 0.80172 0.19973 0.0
H1010 H 0.19093 0.76613 0.17715 0.0
C1011 C 0.22154 0.77808 0.23729 0.0
C1012 C 0.23701 0.77818 0.22889 0.0
C1013 C 0.20678 0.78072 0.22806 0.0
C1014 C 0.18453 0.77628 0.18354 0.0
H1015 H 0.10392 0.79957 0.18512 0.0
H1016 H 0.13087 0.79556 0.19864 0.0
H1017 H 0.16426 0.77021 0.16217 0.0
H1018 H 0.24889 0.78091 0.204 0.0
H1019 H 0.22293 0.78534 0.18777 0.0
H1020 H 0.18714 0.80742 0.22126 0.0
C1021 C 0.12975 0.79576 0.18448 0.0
C1022 C 0.16924 0.77868 0.17493 0.0
C1023 C 0.11413 0.79794 0.17665 0.0
C1024 C 0.23725 0.78087 0.21092 0.0
C1025 C 0.22233 0.78326 0.20158 0.0
C1026 C 0.18228 0.79918 0.20837 0.0
C1027 C 0.1435 0.79347 0.17425 0.0
C1028 C 0.16024 0.79135 0.18296 0.0
C1029 C 0.20694 0.78334 0.21008 0.0
C1030 C 0.19113 0.78636 0.20046 0.0
H1031 H 0.12371 0.79507 0.13371 0.0
H1032 H 0.15129 0.79169 0.14745 0.0
H1033 H 0.16093 0.81196 0.20624 0.0
H1034 H 0.2208 0.77602 0.25111 0.0
H1035 H 0.1951 0.78048 0.23498 0.0
C1036 C 0.4859 0.80348 0.45021 0.0
C1037 C 0.4887 0.79863 0.43251 0.0
C1038 C 0.48965 0.8233 0.45749 0.0
C1039 C 0.48533 0.8686 0.44942 0.0
H1040 H 0.5266 0.8974 0.48106 0.0
C1041 C 0.49938 0.95226 0.47254 0.0
C1042 C 0.50907 0.96019 0.48884 0.0
C1043 C 0.49708 0.93252 0.46578 0.0
C1044 C 0.51478 0.88958 0.47254 0.0
H1045 H 0.4976 0.81065 0.40855 0.0
H1046 H 0.50354 0.84531 0.42117 0.0
H1047 H 0.52274 0.86298 0.46958 0.0
H1048 H 0.52342 0.95376 0.51121 0.0
H1049 H 0.51833 0.91904 0.50024 0.0
H1050 H 0.47673 0.89452 0.4528 0.0
C1051 C 0.49888 0.83374 0.42945 0.0
C1052 C 0.51274 0.86989 0.46583 0.0
C1053 C 0.49558 0.81397 0.42231 0.0
C1054 C 0.51594 0.94794 0.49855 0.0
C1055 C 0.51319 0.92807 0.49209 0.0
C1056 C 0.48714 0.88814 0.4564 0.0
C1057 C 0.49579 0.83853 0.44704 0.0
C1058 C 0.49804 0.85931 0.45418 0.0
C1059 C 0.50401 0.92007 0.47541 0.0
C1060 C 0.50193 0.89903 0.46806 0.0
H1061 H 0.48058 0.79195 0.45834 0.0
H1062 H 0.48719 0.82672 0.47109 0.0
H1063 H 0.47384 0.86061 0.44048 0.0
H1064 H 0.49423 0.96155 0.46466 0.0
H1065 H 0.49028 0.92728 0.45276 0.0
C1066 C 0.51124 0.26686 0.66227 0.0
C1067 C 0.51325 0.27502 0.64626 0.0
C1068 C 0.4951 0.26345 0.67004 0.0
C1069 C 0.45494 0.28061 0.67063 0.0
H1070 H 0.43639 0.23543 0.69561 0.0
C1071 C 0.38756 0.26674 0.70182 0.0
C1072 C 0.38677 0.25991 0.71848 0.0
C1073 C 0.40234 0.26764 0.69214 0.0
C1074 C 0.44146 0.24825 0.68883 0.0
H1075 H 0.4996 0.28541 0.62563 0.0
H1076 H 0.47155 0.27912 0.63894 0.0
H1077 H 0.46319 0.23817 0.68031 0.0
H1078 H 0.40127 0.24911 0.73809 0.0
H1079 H 0.42685 0.25068 0.72132 0.0
H1080 H 0.43337 0.29082 0.6793 0.0
C1081 C 0.48248 0.27564 0.64567 0.0
C1082 C 0.45685 0.2498 0.68004 0.0
C1083 C 0.49857 0.27905 0.63793 0.0
C1084 C 0.40118 0.25407 0.72517 0.0
C1085 C 0.41591 0.25496 0.71552 0.0
C1086 C 0.43957 0.27907 0.67944 0.0
C1087 C 0.4806 0.26816 0.662 0.0
C1088 C 0.46386 0.26606 0.6709 0.0
C1089 C 0.41673 0.26174 0.69886 0.0
C1090 C 0.43267 0.26294 0.68878 0.0
H1091 H 0.5223 0.2637 0.66909 0.0
H1092 H 0.4942 0.25781 0.68269 0.0
H1093 H 0.46009 0.29351 0.66398 0.0
H1094 H 0.37665 0.27115 0.69612 0.0
H1095 H 0.40238 0.27273 0.67927 0.0
C1096 C 0.03005 0.8457 0.62454 0.0
C1097 C 0.01805 0.82699 0.61794 0.0
C1098 C 0.03187 0.86284 0.61545 0.0
C1099 C 0.01892 0.87892 0.57055 0.0
H1100 H 0.03386 0.93173 0.59576 0.0
C1101 C 0.02709 0.94924 0.53153 0.0
C1102 C 0.02557 0.96739 0.53988 0.0
C1103 C 0.02694 0.93284 0.54098 0.0
C1104 C 0.02949 0.91719 0.58825 0.0
H1105 H -0.00118 0.8128 0.59575 0.0
H1106 H 0.0019 0.84157 0.58046 0.0
H1107 H 0.03239 0.90328 0.61164 0.0
H1108 H 0.02276 0.98149 0.56564 0.0
H1109 H 0.02251 0.95352 0.58185 0.0
H1110 H 0.01568 0.89261 0.54726 0.0
C1111 C 0.01021 0.8434 0.59258 0.0
C1112 C 0.02883 0.90052 0.59755 0.0
C1113 C 0.00832 0.8265 0.60164 0.0
C1114 C 0.02404 0.96813 0.55835 0.0
C1115 C 0.02398 0.95177 0.56784 0.0
C1116 C 0.01961 0.89553 0.56127 0.0
C1117 C 0.02193 0.86226 0.59914 0.0
C1118 C 0.02338 0.88074 0.58905 0.0
C1119 C 0.02532 0.93345 0.55948 0.0
C1120 C 0.02484 0.9153 0.56976 0.0
H1121 H 0.03781 0.8473 0.63699 0.0
H1122 H 0.04123 0.87662 0.62133 0.0
H1123 H 0.01492 0.86446 0.5629 0.0
H1124 H 0.02826 0.94753 0.51744 0.0
H1125 H 0.02831 0.91963 0.53355 0.0
C1126 C 0.47024 0.77074 0.82406 0.0
C1127 C 0.47193 0.75725 0.83601 0.0
C1128 C 0.45337 0.77169 0.81698 0.0
C1129 C 0.40349 0.74278 0.80985 0.0
H1130 H 0.39739 0.79239 0.79867 0.0
C1131 C 0.33166 0.74831 0.78612 0.0
C1132 C 0.32945 0.76356 0.77644 0.0
C1133 C 0.34868 0.74752 0.79285 0.0
C1134 C 0.39857 0.77817 0.80138 0.0
H1135 H 0.45592 0.73384 0.84923 0.0
H1136 H 0.42698 0.73517 0.83688 0.0
H1137 H 0.42622 0.79108 0.81074 0.0
H1138 H 0.34483 0.79009 0.76665 0.0
H1139 H 0.374 0.78883 0.77812 0.0
H1140 H 0.37602 0.72975 0.80026 0.0
C1141 C 0.43878 0.74532 0.83296 0.0
C1142 C 0.4155 0.77743 0.8085 0.0
C1143 C 0.45566 0.74463 0.8403 0.0
C1144 C 0.34545 0.77798 0.7739 0.0
C1145 C 0.36251 0.77728 0.78075 0.0
C1146 C 0.3866 0.74349 0.8026 0.0
C1147 C 0.43703 0.75892 0.82107 0.0
C1148 C 0.41855 0.75972 0.81309 0.0
C1149 C 0.36478 0.76202 0.79052 0.0
C1150 C 0.38344 0.76123 0.79817 0.0
H1151 H 0.48211 0.78075 0.82008 0.0
H1152 H 0.45324 0.78235 0.80789 0.0
H1153 H 0.40475 0.72861 0.81264 0.0
H1154 H 0.32007 0.73673 0.78857 0.0
H1155 H 0.34903 0.73547 0.80025 0.0
C1156 C 0.50686 0.21541 0.0998 0.0
C1157 C 0.51248 0.22186 0.11788 0.0
C1158 C 0.50898 0.19766 0.09111 0.0
C1159 C 0.51537 0.14818 0.09884 0.0
H1160 H 0.52798 0.1465 0.05068 0.0
C1161 C 0.52133 0.0729 0.06107 0.0
C1162 C 0.52523 0.07139 0.04325 0.0
C1163 C 0.52013 0.09091 0.07027 0.0
C1164 C 0.52427 0.14605 0.06403 0.0
H1165 H 0.52467 0.21361 0.14074 0.0
H1166 H 0.5279 0.18258 0.12583 0.0
H1167 H 0.52538 0.17685 0.06595 0.0
H1168 H 0.53073 0.0886 0.02139 0.0
H1169 H 0.5285 0.11909 0.03667 0.0
H1170 H 0.51392 0.11756 0.09716 0.0
C1171 C 0.52198 0.19148 0.11823 0.0
C1172 C 0.52275 0.164 0.07296 0.0
C1173 C 0.52026 0.20954 0.12685 0.0
C1174 C 0.52781 0.0888 0.03508 0.0
C1175 C 0.52649 0.10674 0.04417 0.0
C1176 C 0.51665 0.13011 0.08985 0.0
C1177 C 0.51643 0.18508 0.1001 0.0
C1178 C 0.51827 0.16559 0.0906 0.0
C1179 C 0.52262 0.10855 0.06214 0.0
C1180 C 0.52118 0.12834 0.07208 0.0
H1181 H 0.50077 0.22418 0.09223 0.0
H1182 H 0.50433 0.19357 0.07727 0.0
H1183 H 0.5117 0.14833 0.11229 0.0
H1184 H 0.51919 0.06005 0.06807 0.0
H1185 H 0.51722 0.09066 0.08388 0.0
C1186 C 0.08492 0.23848 0.31756 0.0
C1187 C 0.08082 0.25224 0.33033 0.0
C1188 C 0.10211 0.24105 0.31147 0.0
C1189 C 0.14857 0.27848 0.31019 0.0
H1190 H 0.16088 0.23157 0.29235 0.0
C1191 C 0.22135 0.28379 0.2862 0.0
C1192 C 0.22461 0.26815 0.27502 0.0
C1193 C 0.2044 0.28245 0.29285 0.0
C1194 C 0.15797 0.24512 0.29694 0.0
H1195 H 0.0934 0.28029 0.34623 0.0
H1196 H 0.12327 0.28485 0.33572 0.0
H1197 H 0.1323 0.22861 0.30379 0.0
H1198 H 0.21112 0.2386 0.26236 0.0
H1199 H 0.18223 0.23634 0.27336 0.0
H1200 H 0.17434 0.29498 0.3033 0.0
C1201 C 0.11282 0.27172 0.33031 0.0
C1202 C 0.14107 0.24337 0.30371 0.0
C1203 C 0.09541 0.26904 0.33657 0.0
C1204 C 0.20972 0.25117 0.27082 0.0
C1205 C 0.1928 0.24982 0.27745 0.0
C1206 C 0.16552 0.28025 0.30333 0.0
C1207 C 0.1168 0.25769 0.31757 0.0
C1208 C 0.13565 0.25995 0.31056 0.0
C1209 C 0.18946 0.26535 0.28883 0.0
C1210 C 0.17088 0.26361 0.29639 0.0
H1211 H 0.0746 0.22529 0.31197 0.0
H1212 H 0.10367 0.22981 0.30153 0.0
H1213 H 0.14553 0.29192 0.31496 0.0
H1214 H 0.23205 0.29724 0.29006 0.0
H1215 H 0.20325 0.29498 0.3015 0.0
C1216 C 0.93361 0.98433 0.16035 0.0
C1217 C 0.92932 0.0018 0.16581 0.0
C1218 C 0.94174 0.98261 0.14474 0.0
C1219 C 0.97402 0.00959 0.12191 0.0
H1220 H 0.95073 0.98825 0.07514 0.0
C1221 C 0.00305 0.03847 0.06034 0.0
C1222 C 0.00312 0.02447 0.04611 0.0
C1223 C -0.00648 0.03258 0.07459 0.0
C1224 C 0.95744 -0.00607 0.08816 0.0
H1225 H 0.92927 0.03069 0.15891 0.0
H1226 H 0.94363 0.02763 0.13184 0.0
H1227 H 0.93418 0.98142 0.10118 0.0
H1228 H -0.00574 -0.00652 0.03559 0.0
H1229 H 0.97721 0.98314 0.0604 0.0
H1230 H -0.00296 0.02282 0.10908 0.0
C1231 C 0.94061 0.01537 0.13961 0.0
C1232 C 0.94804 0.98996 0.10292 0.0
C1233 C 0.93243 0.01706 0.15505 0.0
C1234 C -0.00637 0.00459 0.04613 0.0
C1235 C 0.9841 -0.00134 0.06037 0.0
C1236 C 0.9834 0.01355 0.10722 0.0
C1237 C 0.94558 -0.00165 0.13464 0.0
C1238 C 0.95622 -0.00175 0.11973 0.0
C1239 C 0.98423 0.01258 0.07479 0.0
C1240 C 0.97498 0.0063 0.09024 0.0
H1241 H 0.93124 0.97232 0.16839 0.0
H1242 H 0.94562 0.96942 0.14092 0.0
H1243 H 0.98035 0.01619 0.13491 0.0
H1244 H 0.01054 0.05384 0.06052 0.0
H1245 H -0.00644 0.0436 0.08552 0.0
C1246 C 0.25368 0.64537 0.47502 0.0
C1247 C 0.26596 0.65791 0.48827 0.0
C1248 C 0.24836 0.65285 0.46014 0.0
C1249 C 0.26582 0.69506 0.43539 0.0
H1250 H 0.22054 0.67529 0.40737 0.0
C1251 C 0.24763 0.73418 0.37919 0.0
C1252 C 0.24429 0.72296 0.36247 0.0
C1253 C 0.2479 0.72506 0.39441 0.0
C1254 C 0.23325 0.68079 0.41509 0.0
H1255 H 0.2808 0.6883 0.49734 0.0
H1256 H 0.27095 0.70152 0.47187 0.0
H1257 H 0.22468 0.66242 0.4354 0.0
H1258 H 0.23797 0.69333 0.34855 0.0
H1259 H 0.23823 0.67723 0.37552 0.0
H1260 H 0.27423 0.7137 0.41538 0.0
C1261 C 0.26608 0.68577 0.47246 0.0
C1262 C 0.23565 0.67347 0.43108 0.0
C1263 C 0.27165 0.67825 0.48712 0.0
C1264 C 0.24066 0.7023 0.3613 0.0
C1265 C 0.24066 0.6931 0.37665 0.0
C1266 C 0.26333 0.70251 0.41965 0.0
C1267 C 0.25504 0.67306 0.4584 0.0
C1268 C 0.25195 0.68069 0.4415 0.0
C1269 C 0.24463 0.70452 0.39328 0.0
C1270 C 0.24704 0.69557 0.40944 0.0
H1271 H 0.24898 0.6296 0.47562 0.0
H1272 H 0.23983 0.64262 0.44962 0.0
H1273 H 0.27874 0.70048 0.44267 0.0
H1274 H 0.25063 0.75012 0.38047 0.0
H1275 H 0.25102 0.73412 0.40713 0.0
C1276 C 0.5975 0.01339 0.67668 0.0
C1277 C 0.59166 -0.00472 0.68345 0.0
C1278 C 0.58718 0.01769 0.66331 0.0
C1279 C 0.54631 0.00268 0.63475 0.0
H1280 H 0.57775 0.00098 0.59758 0.0
C1281 C 0.52263 -0.0053 0.56126 0.0
C1282 C 0.53386 0.00881 0.55228 0.0
C1283 C 0.5284 0.99149 0.57793 0.0
C1284 C 0.56886 0.00158 0.60782 0.0
H1285 H 0.56979 0.96861 0.6834 0.0
H1286 H 0.55206 0.97587 0.6594 0.0
H1287 H 0.58907 0.00386 0.62812 0.0
H1288 H 0.56011 0.02991 0.5531 0.0
H1289 H 0.56972 0.02483 0.58199 0.0
H1290 H 0.52619 0.00099 0.6143 0.0
C1291 C 0.5644 0.98676 0.66462 0.0
C1292 C 0.57536 0.00344 0.62522 0.0
C1293 C 0.57468 0.98247 0.67804 0.0
C1294 C 0.55103 0.01906 0.55976 0.0
C1295 C 0.55667 0.01598 0.57628 0.0
C1296 C 0.53984 0.00125 0.61723 0.0
C1297 C 0.57111 0.00382 0.6566 0.0
C1298 C 0.56418 0.00417 0.63873 0.0
C1299 C 0.54536 0.00239 0.58559 0.0
C1300 C 0.55118 0.00094 0.60371 0.0
H1301 H 0.61032 0.0238 0.68113 0.0
H1302 H 0.59241 0.03098 0.65717 0.0
H1303 H 0.53751 0.00279 0.64515 0.0
H1304 H 0.50944 0.98639 0.55556 0.0
H1305 H 0.51959 0.98073 0.5849 0.0
C1306 C 0.27694 0.30614 0.95775 0.0
C1307 C 0.27379 0.32393 0.96454 0.0
C1308 C 0.27632 0.30064 0.9394 0.0
C1309 C 0.28408 0.32177 0.89756 0.0
H1310 H 0.25843 0.26944 0.87472 0.0
C1311 C 0.28271 0.30155 0.82103 0.0
C1312 C 0.27996 0.28176 0.81395 0.0
C1313 C 0.28163 0.30672 0.83918 0.0
C1314 C 0.26605 0.28405 0.88076 0.0
H1315 H 0.26756 0.34989 0.95698 0.0
H1316 H 0.26702 0.3406 0.92506 0.0
H1317 H 0.25687 0.27793 0.90619 0.0
H1318 H 0.27404 0.25189 0.82046 0.0
H1319 H 0.27304 0.26073 0.85204 0.0
H1320 H 0.29398 0.32781 0.87256 0.0
C1321 C 0.26965 0.3307 0.93398 0.0
C1322 C 0.26497 0.28896 0.89895 0.0
C1323 C 0.26976 0.33592 0.95233 0.0
C1324 C 0.27632 0.26729 0.82552 0.0
C1325 C 0.27551 0.27245 0.84372 0.0
C1326 C 0.28549 0.31675 0.87945 0.0
C1327 C 0.27309 0.31305 0.92722 0.0
C1328 C 0.27393 0.30791 0.90765 0.0
C1329 C 0.27794 0.29228 0.85099 0.0
C1330 C 0.27649 0.29775 0.87058 0.0
H1331 H 0.28026 0.2966 0.96667 0.0
H1332 H 0.27909 0.28699 0.93476 0.0
H1333 H 0.29136 0.33645 0.9038 0.0
H1334 H 0.28528 0.31303 0.81241 0.0
H1335 H 0.2833 0.3221 0.84379 0.0
C1336 C 0.94153 0.00296 0.26274 0.0
C1337 C 0.933 0.0177 0.26192 0.0
C1338 C 0.94752 -0.00105 0.27902 0.0
C1339 C 0.94421 0.00817 0.32733 0.0
H1340 H -0.01004 -0.00202 0.33008 0.0
C1341 C 0.98531 0.01233 0.39301 0.0
C1342 C -0.00814 -0.00386 0.39496 0.0
C1343 C 0.97764 0.01433 0.37671 0.0
C1344 C 0.97711 0.00066 0.32945 0.0
H1345 H 0.92367 0.03956 0.27727 0.0
H1346 H 0.9348 0.03321 0.30568 0.0
H1347 H 0.97692 0.00217 0.30172 0.0
H1348 H -0.00453 0.96941 0.38126 0.0
H1349 H 0.98254 0.9733 0.35269 0.0
H1350 H 0.94481 0.00727 0.35527 0.0
C1351 C 0.93647 0.02434 0.29386 0.0
C1352 C 0.96957 0.00295 0.31321 0.0
C1353 C 0.9302 0.02809 0.27759 0.0
C1354 C -0.00915 0.98223 0.38016 0.0
C1355 C 0.98337 0.98437 0.36383 0.0
C1356 C 0.95188 0.00613 0.34362 0.0
C1357 C 0.94538 0.00987 0.29475 0.0
C1358 C 0.95304 0.00675 0.31196 0.0
C1359 C 0.97657 0.00034 0.36201 0.0
C1360 C 0.9684 0.00239 0.3448 0.0
H1361 H 0.94357 -0.00548 0.25081 0.0
H1362 H 0.95393 0.98738 0.27925 0.0
H1363 H 0.93132 0.01075 0.3268 0.0
H1364 H 0.98617 0.02352 0.40404 0.0
H1365 H 0.9727 0.02693 0.37554 0.0
C1366 C 0.27228 0.67627 0.57598 0.0
C1367 C 0.272 0.65639 0.57278 0.0
C1368 C 0.26832 0.68385 0.59235 0.0
C1369 C 0.27695 0.67854 0.63718 0.0
H1370 H 0.24786 0.71313 0.64839 0.0
C1371 C 0.27855 0.71661 0.70781 0.0
C1372 C 0.27776 0.73618 0.70962 0.0
C1373 C 0.27559 0.70545 0.6912 0.0
C1374 C 0.25618 0.70365 0.64542 0.0
H1375 H 0.26625 0.62846 0.58353 0.0
H1376 H 0.26019 0.64202 0.61258 0.0
H1377 H 0.24475 0.69537 0.6186 0.0
H1378 H 0.27347 0.75952 0.69535 0.0
H1379 H 0.26878 0.74024 0.66638 0.0
H1380 H 0.28918 0.68751 0.66345 0.0
C1381 C 0.26316 0.6516 0.60232 0.0
C1382 C 0.25425 0.69338 0.62845 0.0
C1383 C 0.26663 0.64388 0.58577 0.0
C1384 C 0.27423 0.74448 0.69443 0.0
C1385 C 0.27131 0.73334 0.67781 0.0
C1386 C 0.27908 0.68899 0.65401 0.0
C1387 C 0.26452 0.67178 0.60589 0.0
C1388 C 0.26473 0.68086 0.62419 0.0
C1389 C 0.27183 0.71364 0.67601 0.0
C1390 C 0.26885 0.70183 0.65831 0.0
H1391 H 0.27611 0.68607 0.566 0.0
H1392 H 0.26944 0.69946 0.59482 0.0
H1393 H 0.28544 0.66927 0.63407 0.0
H1394 H 0.28116 0.70974 0.71926 0.0
H1395 H 0.27594 0.69027 0.69032 0.0
C1396 C 0.61049 0.98843 0.78443 0.0
C1397 C 0.60769 -0.00155 0.77024 0.0
C1398 C 0.60337 0.9919 0.80032 0.0
C1399 C 0.56734 0.00953 0.81731 0.0
H1400 H 0.59167 0.01026 0.86288 0.0
C1401 C 0.54302 0.03086 0.88425 0.0
C1402 C 0.54422 0.01891 0.8975 0.0
C1403 C 0.54996 0.02786 0.86817 0.0
C1404 C 0.5847 0.00988 0.8502 0.0
H1405 H 0.59646 0.02085 0.76163 0.0
H1406 H 0.58448 0.02729 0.78951 0.0
H1407 H 0.60691 0.00762 0.8362 0.0
H1408 H 0.55246 -0.00636 0.90396 0.0
H1409 H 0.56486 0.98863 0.87586 0.0
H1410 H 0.54522 0.01209 0.83141 0.0
C1411 C 0.5916 0.01631 0.78824 0.0
C1412 C 0.59339 0.00839 0.83498 0.0
C1413 C 0.5985 0.01267 0.77234 0.0
C1414 C 0.55171 0.00332 0.8941 0.0
C1415 C 0.55876 0.00044 0.87808 0.0
C1416 C 0.5587 0.01117 0.83254 0.0
C1417 C 0.59359 0.00561 0.80222 0.0
C1418 C 0.58474 0.00806 0.81841 0.0
C1419 C 0.55828 0.01297 0.86519 0.0
C1420 C 0.56728 0.01118 0.84906 0.0
H1421 H 0.61755 0.97741 0.78303 0.0
H1422 H 0.60497 0.98334 0.81087 0.0
H1423 H 0.56025 0.009 0.80466 0.0
H1424 H 0.53749 0.04311 0.88657 0.0
H1425 H 0.54954 0.03775 0.8584 0.0
C1426 C 0.25609 0.32592 0.07257 0.0
C1427 C 0.26849 0.32075 0.06184 0.0
C1428 C 0.2546 0.32077 0.08997 0.0
C1429 C 0.26907 0.28898 0.1215 0.0
H1430 H 0.25766 0.32488 0.1575 0.0
C1431 C 0.26266 0.27009 0.19376 0.0
C1432 C 0.26771 0.28534 0.20807 0.0
C1433 C 0.2617 0.27419 0.17617 0.0
C1434 C 0.26106 0.3147 0.14774 0.0
H1435 H 0.28858 0.30531 0.06133 0.0
H1436 H 0.2862 0.29674 0.09109 0.0
H1437 H 0.25772 0.33177 0.12693 0.0
H1438 H 0.27557 0.31717 0.21453 0.0
H1439 H 0.27406 0.32438 0.18394 0.0
H1440 H 0.27314 0.27234 0.1423 0.0
C1441 C 0.27734 0.30453 0.08624 0.0
C1442 C 0.26082 0.31852 0.12995 0.0
C1443 C 0.27878 0.30959 0.06894 0.0
C1444 C 0.27151 0.30494 0.20403 0.0
C1445 C 0.27057 0.30907 0.18633 0.0
C1446 C 0.26942 0.28523 0.13925 0.0
C1447 C 0.26545 0.31028 0.09731 0.0
C1448 C 0.2649 0.30579 0.11641 0.0
C1449 C 0.26583 0.29376 0.17198 0.0
C1450 C 0.26542 0.29798 0.15282 0.0
H1451 H 0.24798 0.33461 0.06781 0.0
H1452 H 0.24499 0.32525 0.0977 0.0
H1453 H 0.27204 0.27847 0.11175 0.0
H1454 H 0.25961 0.25477 0.19608 0.0
H1455 H 0.2576 0.2618 0.16582 0.0
C1456 C 0.24078 0.94685 0.02191 0.0
C1457 C 0.24317 0.93719 0.00568 0.0
C1458 C 0.2265 0.9545 0.0235 0.0
C1459 C 0.18249 0.94993 0.00232 0.0
H1460 H 0.18842 0.00012 0.03093 0.0
C1461 C 0.13047 0.9919 0.00135 0.0
C1462 C 0.12708 0.00074 0.01754 0.0
C1463 C 0.14422 0.98331 0.0005 0.0
C1464 C 0.18656 0.98597 0.0231 0.0
H1465 H 0.23305 0.92844 0.97823 0.0
H1466 H 0.20816 0.94224 0.98089 0.0
H1467 H 0.2139 0.98757 0.02747 0.0
H1468 H 0.13485 0.00705 0.04565 0.0
H1469 H 0.15902 0.99178 0.0442 0.0
H1470 H 0.15521 0.94855 -0.0023 0.0
C1471 C 0.21701 0.94335 -0.00749 0.0
C1472 C 0.20111 0.9788 0.02109 0.0
C1473 C 0.2312 0.93545 -0.00902 0.0
C1474 C 0.13739 0.00048 0.03299 0.0
C1475 C 0.15116 0.99181 0.03216 0.0
C1476 C 0.16798 0.95716 0.00425 0.0
C1477 C 0.21449 0.95285 0.00883 0.0
C1478 C 0.1992 0.9607 0.01068 0.0
C1479 C 0.15477 0.98336 0.01586 0.0
C1480 C 0.16991 0.97524 0.01462 0.0
H1481 H 0.24992 0.94843 0.03342 0.0
H1482 H 0.22476 0.96148 0.0363 0.0
H1483 H 0.18057 0.93578 -0.00553 0.0
H1484 H 0.12286 0.9922 -0.01078 0.0
H1485 H 0.14694 0.97716 0.98775 0.0
C1486 C 0.70804 0.61798 0.98116 0.0
C1487 C 0.71807 0.63385 -0.00658 0.0
C1488 C 0.69087 0.60722 0.9842 0.0
C1489 C 0.65331 0.60796 0.01192 0.0
H1490 H 0.6388 0.55171 -0.00406 0.0
C1491 C 0.58555 0.55517 0.02651 0.0
C1492 C 0.57605 0.54168 0.01208 0.0
C1493 C 0.60327 0.56615 0.02554 0.0
C1494 C 0.64258 0.56741 0.00041 0.0
H1495 H 0.71776 0.65101 0.0185 0.0
H1496 H 0.68793 0.63195 0.02407 0.0
H1497 H 0.66851 0.57166 -0.00837 0.0
H1498 H 0.57806 0.52897 0.98544 0.0
H1499 H 0.60868 0.54794 0.98384 0.0
H1500 H 0.62727 0.6035 0.02081 0.0
C1501 C 0.69318 0.62802 0.01187 0.0
C1502 C 0.65965 0.57894 -0.00214 0.0
C1503 C 0.71034 0.63897 0.00869 0.0
C1504 C 0.58489 0.5391 -0.00311 0.0
C1505 C 0.60255 0.54997 -0.00404 0.0
C1506 C 0.63623 0.59636 0.01459 0.0
C1507 C 0.68326 0.6118 -0.00024 0.0
C1508 C 0.66522 0.59946 0.00331 0.0
C1509 C 0.61195 0.56381 0.01018 0.0
C1510 C 0.63055 0.57598 0.00863 0.0
H1511 H 0.71352 0.61372 0.96919 0.0
H1512 H 0.68357 0.59524 0.9743 0.0
H1513 H 0.65698 0.62369 0.01619 0.0
H1514 H 0.57918 0.55761 0.0384 0.0
H1515 H 0.61017 0.57653 0.03681 0.0
C1516 C 0.67019 0.46186 0.29492 0.0
C1517 C 0.67936 0.48144 0.30157 0.0
C1518 C 0.67928 0.44927 0.28756 0.0
C1519 C 0.718 0.44793 0.26488 0.0
H1520 H 0.71147 0.39712 0.28204 0.0
C1521 C 0.76121 0.39601 0.24827 0.0
C1522 C 0.75297 0.37556 0.24683 0.0
C1523 C 0.75159 0.40931 0.25265 0.0
C1524 C 0.71319 0.4111 0.27687 0.0
H1525 H 0.70496 0.50358 0.30569 0.0
H1526 H 0.72101 0.48151 0.29217 0.0
H1527 H 0.69644 0.41998 0.29511 0.0
H1528 H 0.72787 0.35298 0.24712 0.0
H1529 H 0.7111 0.37616 0.25472 0.0
H1530 H 0.73465 0.43895 0.24649 0.0
C1531 C 0.70682 0.47592 0.29291 0.0
C1532 C 0.7047 0.4242 0.28445 0.0
C1533 C 0.69774 0.48842 0.3007 0.0
C1534 C 0.73466 0.36867 0.24854 0.0
C1535 C 0.72507 0.38194 0.25292 0.0
C1536 C 0.72643 0.43472 0.25716 0.0
C1537 C 0.69763 0.45622 0.28639 0.0
C1538 C 0.70705 0.44271 0.27854 0.0
C1539 C 0.73358 0.40236 0.25566 0.0
C1540 C 0.7241 0.41617 0.2631 0.0
H1541 H 0.65598 0.45624 0.29556 0.0
H1542 H 0.67194 0.43416 0.28257 0.0
H1543 H 0.7198 0.46207 0.26 0.0
H1544 H 0.7753 0.40174 0.24709 0.0
H1545 H 0.75851 0.42497 0.25471 0.0
C1546 C 0.83533 0.43696 0.46063 0.0
C1547 C 0.82854 0.45041 0.47059 0.0
C1548 C 0.85343 0.44164 0.45888 0.0
C1549 C 0.88537 0.45793 0.49031 0.0
H1550 H 0.92367 0.48885 0.46635 0.0
C1551 C 0.95821 0.48818 0.51853 0.0
C1552 C 0.96804 0.50511 0.51173 0.0
C1553 C 0.94034 0.48024 0.51315 0.0
C1554 C 0.91301 0.48038 0.47323 0.0
H1555 H 0.83402 0.48007 0.48402 0.0
H1556 H 0.86563 0.4887 0.48024 0.0
H1557 H 0.89419 0.47528 0.45076 0.0
H1558 H 0.96669 0.52972 0.49768 0.0
H1559 H 0.93514 0.51633 0.48901 0.0
H1560 H 0.90342 0.4647 0.51338 0.0
C1561 C 0.85711 0.47457 0.47391 0.0
C1562 C 0.89642 0.47225 0.46415 0.0
C1563 C 0.83911 0.46971 0.47605 0.0
C1564 C 0.9594 0.51615 0.50244 0.0
C1565 C 0.94145 0.5084 0.49734 0.0
C1566 C 0.9018 0.46651 0.49956 0.0
C1567 C 0.86439 0.45997 0.46669 0.0
C1568 C 0.88246 0.46183 0.47297 0.0
C1569 C 0.9323 0.48952 0.5013 0.0
C1570 C 0.91546 0.47863 0.49131 0.0
H1571 H 0.8271 0.42208 0.45618 0.0
H1572 H 0.85902 0.43027 0.45341 0.0
H1573 H 0.87448 0.44992 0.49723 0.0
H1574 H 0.96462 0.47999 0.52649 0.0
H1575 H 0.93343 0.46596 0.51688 0.0
C1576 C 0.37036 0.05694 0.2796 0.0
C1577 C 0.37942 0.06347 0.29643 0.0
C1578 C 0.3606 0.06798 0.2722 0.0
C1579 C 0.36428 0.11998 0.27506 0.0
H1580 H 0.32177 0.10358 0.24272 0.0
C1581 C 0.32199 0.1686 0.26107 0.0
C1582 C 0.31427 0.1681 0.24399 0.0
C1583 C 0.33244 0.15648 0.26428 0.0
C1584 C 0.33393 0.10822 0.25135 0.0
H1585 H 0.38322 0.08452 0.31991 0.0
H1586 H 0.36545 0.10365 0.30717 0.0
H1587 H 0.33129 0.07883 0.25727 0.0
H1588 H 0.31197 0.15496 0.21671 0.0
H1589 H 0.32991 0.1328 0.22263 0.0
H1590 H 0.36655 0.14942 0.26965 0.0
C1591 C 0.36651 0.09042 0.29947 0.0
C1592 C 0.33921 0.09416 0.25986 0.0
C1593 C 0.37642 0.07937 0.30686 0.0
C1594 C 0.31762 0.15548 0.23003 0.0
C1595 C 0.32794 0.14299 0.23335 0.0
C1596 C 0.359 0.13399 0.26661 0.0
C1597 C 0.35966 0.08555 0.28166 0.0
C1598 C 0.35406 0.10007 0.27226 0.0
C1599 C 0.33517 0.14329 0.25057 0.0
C1600 C 0.34344 0.12828 0.25522 0.0
H1601 H 0.37238 0.04445 0.27145 0.0
H1602 H 0.35534 0.0638 0.25852 0.0
H1603 H 0.37623 0.1248 0.28401 0.0
H1604 H 0.3193 0.17769 0.27224 0.0
H1605 H 0.3375 0.15658 0.27776 0.0
C1606 C 0.3318 0.15753 0.50371 0.0
C1607 C 0.31702 0.15315 0.5137 0.0
C1608 C 0.34494 0.14791 0.50537 0.0
C1609 C 0.3639 0.11827 0.53396 0.0
H1610 H 0.37933 0.09916 0.49002 0.0
C1611 C 0.42175 0.08208 0.53159 0.0
C1612 C 0.42055 0.06673 0.51793 0.0
C1613 C 0.40924 0.09276 0.53193 0.0
C1614 C 0.37512 0.1042 0.50245 0.0
H1615 H 0.30497 0.13583 0.53392 0.0
H1616 H 0.32811 0.11937 0.53711 0.0
H1617 H 0.35779 0.1177 0.48945 0.0
H1618 H 0.40467 0.05009 0.49436 0.0
H1619 H 0.38281 0.06831 0.49507 0.0
H1620 H 0.38103 0.10441 0.54695 0.0
C1621 C 0.32947 0.13015 0.52787 0.0
C1622 C 0.36289 0.11513 0.50212 0.0
C1623 C 0.31617 0.13957 0.52601 0.0
C1624 C 0.40627 0.06209 0.50486 0.0
C1625 C 0.39371 0.07262 0.50527 0.0
C1626 C 0.37623 0.10737 0.5343 0.0
C1627 C 0.34383 0.13381 0.51724 0.0
C1628 C 0.3571 0.12236 0.51785 0.0
C1629 C 0.39508 0.0883 0.51868 0.0
C1630 C 0.382 0.10009 0.51853 0.0
H1631 H 0.33287 0.1678 0.49403 0.0
H1632 H 0.35591 0.15133 0.49714 0.0
H1633 H 0.35982 0.12366 0.54634 0.0
H1634 H 0.43261 0.08614 0.54183 0.0
H1635 H 0.41093 0.10482 0.54238 0.0
C1636 C 0.6806 0.58919 0.32114 0.0
C1637 C 0.67651 0.57197 0.30907 0.0
C1638 C 0.68786 0.60762 0.31556 0.0
C1639 C 0.69721 0.63264 0.2749 0.0
H1640 H 0.73257 0.6715 0.30735 0.0
C1641 C 0.75459 0.69664 0.25659 0.0
C1642 C 0.7566 0.7153 0.26587 0.0
C1643 C 0.74171 0.68017 0.26078 0.0
C1644 C 0.72254 0.66087 0.29826 0.0
H1645 H 0.67664 0.56024 0.28179 0.0
H1646 H 0.69049 0.59222 0.2722 0.0
H1647 H 0.71654 0.64045 0.31711 0.0
H1648 H 0.74735 0.73173 0.28683 0.0
H1649 H 0.72493 0.7027 0.29448 0.0
H1650 H 0.70441 0.65286 0.25571 0.0
C1651 C 0.68748 0.59176 0.28583 0.0
C1652 C 0.71325 0.64308 0.30384 0.0
C1653 C 0.67975 0.57339 0.29133 0.0
C1654 C 0.74558 0.71746 0.27924 0.0
C1655 C 0.73292 0.70094 0.28367 0.0
C1656 C 0.70683 0.6503 0.26921 0.0
C1657 C 0.69164 0.60914 0.29787 0.0
C1658 C 0.70059 0.62862 0.2922 0.0
C1659 C 0.73108 0.68217 0.27461 0.0
C1660 C 0.71963 0.66442 0.28084 0.0
H1661 H 0.67783 0.58845 0.33483 0.0
H1662 H 0.69041 0.62065 0.32513 0.0
H1663 H 0.68729 0.6221 0.26567 0.0
H1664 H 0.76318 0.69479 0.24635 0.0
H1665 H 0.74064 0.66574 0.25383 0.0
C1666 C 0.89541 0.47386 0.77659 0.0
C1667 C 0.89334 0.4862 0.79143 0.0
C1668 C 0.88332 0.45504 0.77206 0.0
C1669 C 0.85037 0.4173 0.79216 0.0
H1670 H 0.83387 0.39444 0.74385 0.0
C1671 C 0.79768 0.34176 0.777 0.0
C1672 C 0.80157 0.32859 0.76393 0.0
C1673 C 0.80721 0.36185 0.77904 0.0
C1674 C 0.8384 0.40063 0.75742 0.0
H1675 H 0.87651 0.48912 0.81245 0.0
H1676 H 0.85531 0.45677 0.80433 0.0
H1677 H 0.85461 0.42771 0.74977 0.0
H1678 H 0.81771 0.32639 0.74203 0.0
H1679 H 0.83437 0.36102 0.74584 0.0
H1680 H 0.8345 0.39028 0.79987 0.0
C1681 C 0.86658 0.46115 0.79659 0.0
C1682 C 0.85033 0.41964 0.76079 0.0
C1683 C 0.87874 0.4797 0.80126 0.0
C1684 C 0.81452 0.33606 0.75243 0.0
C1685 C 0.82398 0.35603 0.75446 0.0
C1686 C 0.83849 0.39839 0.78881 0.0
C1687 C 0.86886 0.44843 0.78216 0.0
C1688 C 0.85641 0.42819 0.77823 0.0
C1689 C 0.82073 0.3691 0.76802 0.0
C1690 C 0.83237 0.38979 0.77142 0.0
H1691 H 0.9065 0.47861 0.7687 0.0
H1692 H 0.8855 0.44555 0.7609 0.0
H1693 H 0.85509 0.42326 0.80573 0.0
H1694 H 0.7877 0.33648 0.78596 0.0
H1695 H 0.80422 0.37165 0.78946 0.0
C1696 C 0.05314 0.83254 0.06245 0.0
C1697 C 0.06071 0.83514 0.07993 0.0
C1698 C 0.05155 0.84872 0.05423 0.0
C1699 C 0.06384 0.90401 0.05843 0.0
H1700 H 0.01722 0.89369 0.03397 0.0
C1701 C 0.0372 0.96801 0.04022 0.0
C1702 C 0.02651 0.96535 0.02432 0.0
C1703 C 0.04184 0.95213 0.04643 0.0
C1704 C 0.03041 0.89689 0.0405 0.0
H1705 H 0.07358 0.85697 0.10206 0.0
H1706 H 0.07079 0.88531 0.08778 0.0
H1707 H 0.02612 0.86671 0.04479 0.0
H1708 H 0.01219 0.94373 0.00257 0.0
H1709 H 0.02067 0.91612 0.01306 0.0
H1710 H 0.06811 0.93422 0.05416 0.0
C1711 C 0.06624 0.87075 0.08029 0.0
C1712 C 0.03556 0.88131 0.04673 0.0
C1713 C 0.068 0.8545 0.08847 0.0
C1714 C 0.02031 0.94627 0.01494 0.0
C1715 C 0.02518 0.9304 0.02102 0.0
C1716 C 0.05872 0.9196 0.05212 0.0
C1717 C 0.05724 0.86798 0.06335 0.0
C1718 C 0.05233 0.88461 0.05588 0.0
C1719 C 0.03619 0.93312 0.0368 0.0
C1720 C 0.04185 0.91633 0.04316 0.0
H1721 H 0.04734 0.81779 0.05554 0.0
H1722 H 0.04504 0.84599 0.041 0.0
H1723 H 0.07691 0.90716 0.06523 0.0
H1724 H 0.04202 0.98245 0.04791 0.0
H1725 H 0.04987 0.95483 0.05886 0.0
C1726 C 0.92817 0.24098 0.87272 0.0
C1727 C 0.94486 0.25064 0.86737 0.0
C1728 C 0.91258 0.24194 0.86363 0.0
C1729 C 0.89616 0.26968 0.83077 0.0
H1730 H 0.85574 0.22266 0.82281 0.0
C1731 C 0.83749 0.25982 0.77863 0.0
C1732 C 0.82092 0.25617 0.78559 0.0
C1733 C 0.85228 0.25846 0.78878 0.0
C1734 C 0.86694 0.23589 0.82501 0.0
H1735 H 0.95825 0.26927 0.84855 0.0
H1736 H 0.93137 0.27061 0.83262 0.0
H1737 H 0.88216 0.22243 0.84092 0.0
H1738 H 0.80651 0.24734 0.80816 0.0
H1739 H 0.83228 0.24408 0.82564 0.0
H1740 H 0.88108 0.28283 0.81431 0.0
C1741 C 0.93013 0.26255 0.84397 0.0
C1742 C 0.88203 0.23586 0.8355 0.0
C1743 C 0.94563 0.26168 0.85308 0.0
C1744 C 0.8192 0.25031 0.80256 0.0
C1745 C 0.83388 0.24839 0.8125 0.0
C1746 C 0.88122 0.26957 0.82006 0.0
C1747 C 0.91336 0.25253 0.84896 0.0
C1748 C 0.8969 0.25275 0.83848 0.0
C1749 C 0.85063 0.25287 0.80586 0.0
C1750 C 0.86649 0.25269 0.81705 0.0
H1751 H 0.92711 0.23233 0.88368 0.0
H1752 H 0.89994 0.23429 0.86806 0.0
H1753 H 0.90712 0.28312 0.83305 0.0
H1754 H 0.83915 0.26448 0.76561 0.0
H1755 H 0.86506 0.26193 0.78335 0.0
C1756 C 0.55372 0.22367 0.59729 0.0
C1757 C 0.54874 0.23686 0.58708 0.0
C1758 C 0.55419 0.20514 0.58941 0.0
C1759 C 0.56035 0.17633 0.55 0.0
H1760 H 0.52425 0.1321 0.56364 0.0
C1761 C 0.54463 0.09626 0.51312 0.0
C1762 C 0.53772 0.08041 0.52269 0.0
C1763 C 0.54769 0.11586 0.52101 0.0
C1764 C 0.53472 0.14412 0.55988 0.0
H1765 H 0.54117 0.24147 0.56058 0.0
H1766 H 0.54287 0.20939 0.54668 0.0
H1767 H 0.52746 0.16536 0.57766 0.0
H1768 H 0.52983 0.07258 0.54832 0.0
H1769 H 0.53604 0.10628 0.56225 0.0
H1770 H 0.56809 0.15517 0.53262 0.0
C1771 C 0.54606 0.21328 0.56079 0.0
C1772 C 0.53642 0.16324 0.56788 0.0
C1773 C 0.54505 0.23156 0.56874 0.0
C1774 C 0.53487 0.08451 0.54049 0.0
C1775 C 0.53827 0.10393 0.54845 0.0
C1776 C 0.55894 0.1571 0.54224 0.0
C1777 C 0.55026 0.19975 0.57111 0.0
C1778 C 0.54918 0.17952 0.56299 0.0
C1779 C 0.5442 0.11997 0.53874 0.0
C1780 C 0.54606 0.14065 0.54703 0.0
H1781 H 0.55644 0.22732 0.61148 0.0
H1782 H 0.55737 0.19488 0.59763 0.0
H1783 H 0.5703 0.18872 0.54602 0.0
H1784 H 0.5469 0.09351 0.49936 0.0
H1785 H 0.55217 0.12769 0.51299 0.0
C1786 C 0.55292 0.76619 0.37615 0.0
C1787 C 0.53781 0.75521 0.36503 0.0
C1788 C 0.56984 0.77012 0.36993 0.0
C1789 C 0.59347 0.74951 0.33648 0.0
H1790 H 0.62809 0.80128 0.34155 0.0
C1791 C 0.65131 0.76493 0.29358 0.0
C1792 C 0.66829 0.77397 0.30203 0.0
C1793 C 0.63633 0.7645 0.30258 0.0
C1794 C 0.61861 0.78671 0.34024 0.0
H1795 H 0.52862 0.74021 0.33856 0.0
H1796 H 0.55788 0.74693 0.32788 0.0
H1797 H 0.59999 0.79688 0.35537 0.0
H1798 H 0.68319 0.79034 0.32613 0.0
H1799 H 0.6567 0.78985 0.34203 0.0
H1800 H 0.61173 0.73928 0.32125 0.0
C1801 C 0.55675 0.75236 0.34142 0.0
C1802 C 0.60258 0.7842 0.34814 0.0
C1803 C 0.53994 0.74858 0.34754 0.0
C1804 C 0.67013 0.78328 0.31944 0.0
C1805 C 0.65504 0.78305 0.32845 0.0
C1806 C 0.60936 0.752 0.32863 0.0
C1807 C 0.57191 0.76293 0.35257 0.0
C1808 C 0.58969 0.76563 0.34596 0.0
C1809 C 0.638 0.77317 0.32022 0.0
C1810 C 0.62192 0.77069 0.33004 0.0
H1811 H 0.55169 0.7716 0.38967 0.0
H1812 H 0.58132 0.77829 0.3788 0.0
H1813 H 0.58398 0.73493 0.33492 0.0
H1814 H 0.64967 0.75767 0.28016 0.0
H1815 H 0.62337 0.75705 0.29581 0.0
C1816 C 0.00693 0.1975 0.41588 0.0
C1817 C 0.01714 0.20261 0.40139 0.0
C1818 C 0.00747 0.18134 0.42524 0.0
C1819 C 0.02256 0.13387 0.42366 0.0
H1820 H 0.00961 0.13484 0.47179 0.0
C1821 C 0.01542 0.06331 0.46297 0.0
C1822 C 0.01702 0.06537 0.48172 0.0
C1823 C 0.0156 0.07954 0.45322 0.0
C1824 C 0.01345 0.13398 0.45843 0.0
H1825 H 0.03607 0.19317 0.38585 0.0
H1826 H 0.03716 0.16525 0.40207 0.0
H1827 H 0.01055 0.16279 0.45582 0.0
H1828 H 0.02008 0.08745 0.50433 0.0
H1829 H 0.02054 0.11513 0.48784 0.0
H1830 H 0.02579 0.10514 0.42644 0.0
C1831 C 0.02852 0.17394 0.40628 0.0
C1832 C 0.01376 0.15035 0.44892 0.0
C1833 C 0.02808 0.19037 0.39691 0.0
C1834 C 0.0187 0.08468 0.49005 0.0
C1835 C 0.01887 0.10088 0.48034 0.0
C1836 C 0.02222 0.11742 0.43318 0.0
C1837 C 0.01818 0.16885 0.4208 0.0
C1838 C 0.01828 0.15092 0.43117 0.0
C1839 C 0.01737 0.09896 0.46154 0.0
C1840 C 0.01767 0.11687 0.45095 0.0
H1841 H -0.00188 0.206 0.42004 0.0
H1842 H -0.00108 0.17843 0.43586 0.0
H1843 H 0.02601 0.13297 0.41015 0.0
H1844 H 0.01407 0.049 0.45565 0.0
H1845 H 0.01412 0.0766 0.43897 0.0
C1846 C 0.59332 0.27836 0.17877 0.0
C1847 C 0.5809 0.28134 0.19073 0.0
C1848 C 0.61044 0.27688 0.18473 0.0
C1849 C 0.63757 0.27065 0.22683 0.0
H1850 H 0.67719 0.28188 0.19802 0.0
C1851 C 0.70678 0.2581 0.25026 0.0
C1852 C 0.7229 0.26945 0.24453 0.0
C1853 C 0.68984 0.25932 0.24367 0.0
C1854 C 0.66647 0.27878 0.20653 0.0
H1855 H 0.57813 0.28551 0.21883 0.0
H1856 H 0.60709 0.28358 0.22887 0.0
H1857 H 0.64857 0.28471 0.18693 0.0
H1858 H 0.73276 0.29126 0.22688 0.0
H1859 H 0.70392 0.29341 0.21566 0.0
H1860 H 0.65549 0.265 0.24652 0.0
C1861 C 0.60376 0.28174 0.21477 0.0
C1862 C 0.64962 0.28022 0.19993 0.0
C1863 C 0.5868 0.28309 0.20886 0.0
C1864 C 0.72102 0.28208 0.23183 0.0
C1865 C 0.70413 0.28323 0.22518 0.0
C1866 C 0.65437 0.26916 0.23339 0.0
C1867 C 0.61617 0.27833 0.203 0.0
C1868 C 0.63457 0.27633 0.20989 0.0
C1869 C 0.68793 0.27189 0.23084 0.0
C1870 C 0.66946 0.27326 0.22352 0.0
H1871 H 0.58967 0.27667 0.16472 0.0
H1872 H 0.61904 0.27412 0.17483 0.0
H1873 H 0.6268 0.26705 0.23524 0.0
H1874 H 0.70718 0.24809 0.25991 0.0
H1875 H 0.67816 0.25001 0.24856 0.0
C1876 C 0.526 0.81284 0.91793 0.0
C1877 C 0.52216 0.80895 0.89941 0.0
C1878 C 0.52731 0.8316 0.92742 0.0
C1879 C 0.51365 0.87875 0.9244 0.0
H1880 H 0.54573 0.89882 0.96656 0.0
C1881 C 0.52 0.95776 0.96371 0.0
C1882 C 0.52571 0.96196 0.98195 0.0
C1883 C 0.51982 0.93967 0.95357 0.0
C1884 C 0.53638 0.89356 0.95502 0.0
H1885 H 0.51595 0.82236 0.87675 0.0
H1886 H 0.51813 0.85475 0.89304 0.0
H1887 H 0.54521 0.86765 0.94968 0.0
H1888 H 0.5356 0.94925 0.00338 0.0
H1889 H 0.53502 0.91816 0.98617 0.0
H1890 H 0.50462 0.90448 0.92982 0.0
C1891 C 0.5205 0.84339 0.90038 0.0
C1892 C 0.53613 0.87535 0.94513 0.0
C1893 C 0.51952 0.82471 0.89085 0.0
C1894 C 0.53116 0.94703 -0.01053 0.0
C1895 C 0.53094 0.92895 0.97936 0.0
C1896 C 0.5138 0.89692 0.93438 0.0
C1897 C 0.5243 0.84734 0.91898 0.0
C1898 C 0.52475 0.86736 0.92953 0.0
C1899 C 0.5253 0.92466 0.96106 0.0
C1900 C 0.52516 0.90491 0.95005 0.0
H1901 H 0.52759 0.80112 0.92523 0.0
H1902 H 0.53003 0.83344 0.94162 0.0
H1903 H 0.50442 0.87343 0.91276 0.0
H1904 H 0.5157 0.96858 0.95712 0.0
H1905 H 0.51556 0.9377 0.93965 0.0
C1906 C 0.96995 0.78533 0.69975 0.0
C1907 C 0.97133 0.7808 0.68142 0.0
C1908 C 0.95337 0.78427 0.70703 0.0
C1909 C 0.90434 0.78179 0.69519 0.0
H1910 H 0.89742 0.76822 0.74258 0.0
C1911 C 0.84005 0.78792 0.732 0.0
C1912 C 0.83206 0.77357 0.74301 0.0
C1913 C 0.8565 0.78856 0.72455 0.0
C1914 C 0.89885 0.77202 0.72928 0.0
H1915 H 0.95491 0.77153 0.65671 0.0
H1916 H 0.92648 0.77022 0.66908 0.0
H1917 H 0.92564 0.76972 0.72998 0.0
H1918 H 0.8365 0.74873 0.75464 0.0
H1919 H 0.86525 0.75051 0.74271 0.0
H1920 H 0.87762 0.78437 0.69464 0.0
C1921 C 0.93836 0.7746 0.67807 0.0
C1922 C 0.91544 0.77306 0.72193 0.0
C1923 C 0.95496 0.77531 0.67081 0.0
C1924 C 0.84179 0.76012 0.74637 0.0
C1925 C 0.85858 0.7612 0.73942 0.0
C1926 C 0.8879 0.78116 0.70268 0.0
C1927 C 0.93694 0.77893 0.69648 0.0
C1928 C 0.91878 0.77789 0.70457 0.0
C1929 C 0.86643 0.7753 0.72807 0.0
C1930 C 0.88452 0.77615 0.71996 0.0
H1931 H 0.98184 0.78953 0.70872 0.0
H1932 H 0.95357 0.78798 0.72115 0.0
H1933 H 0.90577 0.78572 0.68194 0.0
H1934 H 0.83331 0.79854 0.72871 0.0
H1935 H 0.86158 0.79981 0.7161 0.0
C1936 C 0.11913 0.0274 0.85373 0.0
C1937 C 0.10944 0.02341 0.83716 0.0
C1938 C 0.11121 0.03109 0.86897 0.0
C1939 C 0.07454 0.04115 0.89014 0.0
H1940 H 0.0739 -0.00533 0.91298 0.0
C1941 C 0.02816 0.01363 0.94389 0.0
C1942 C 0.03586 0.00768 0.9585 0.0
C1943 C 0.03772 0.01819 0.92933 0.0
C1944 C 0.07417 0.00785 0.90692 0.0
H1945 H 0.08464 0.02303 0.8233 0.0
H1946 H 0.07056 0.02938 0.85031 0.0
H1947 H 0.09034 0.00105 0.88715 0.0
H1948 H 0.0594 0.00162 0.96943 0.0
H1949 H 0.07606 0.00939 0.94389 0.0
H1950 H 0.05835 0.04795 0.91013 0.0
C1951 C 0.08432 0.02943 0.85132 0.0
C1952 C 0.08351 0.01147 0.89216 0.0
C1953 C 0.09231 0.02568 0.83594 0.0
C1954 C 0.05315 0.00611 0.95829 0.0
C1955 C 0.06266 0.01054 0.9437 0.0
C1956 C 0.06524 0.0376 0.9051 0.0
C1957 C 0.09346 0.03098 0.8679 0.0
C1958 C 0.08377 0.02811 0.8837 0.0
C1959 C 0.05505 0.0167 0.92914 0.0
C1960 C 0.065 0.02089 0.91356 0.0
H1961 H 0.13252 0.02664 0.85521 0.0
H1962 H 0.11852 0.03251 0.88169 0.0
H1963 H 0.07466 0.05406 0.88372 0.0
H1964 H 0.01491 0.01523 0.94386 0.0
H1965 H 0.03152 0.0227 0.91817 0.0
C1966 C 0.79967 0.36214 0.53223 0.0
C1967 C 0.79334 0.37869 0.53274 0.0
C1968 C 0.80015 0.35274 0.54723 0.0
C1969 C 0.78833 0.35187 0.59364 0.0
H1970 H 0.83447 0.34316 0.60059 0.0
C1971 C 0.81489 0.33722 0.66058 0.0
C1972 C 0.81915 0.31924 0.65955 0.0
C1973 C 0.81273 0.34572 0.6453 0.0
C1974 C 0.82156 0.34554 0.5988 0.0
H1975 H 0.78088 0.39729 0.54844 0.0
H1976 H 0.78233 0.38138 0.57499 0.0
H1977 H 0.82563 0.3526 0.57266 0.0
H1978 H 0.82579 0.29694 0.64183 0.0
H1979 H 0.82259 0.31214 0.61538 0.0
H1980 H 0.78455 0.34512 0.62006 0.0
C1981 C 0.78668 0.3754 0.56301 0.0
C1982 C 0.81637 0.35069 0.58275 0.0
C1983 C 0.78586 0.38454 0.54783 0.0
C1984 C 0.8227 0.31088 0.64317 0.0
C1985 C 0.82076 0.31951 0.62797 0.0
C1986 C 0.79362 0.34689 0.60979 0.0
C1987 C 0.79473 0.36011 0.56308 0.0
C1988 C 0.79963 0.35373 0.57993 0.0
C1989 C 0.8151 0.33655 0.62884 0.0
C1990 C 0.81023 0.34357 0.61241 0.0
H1991 H 0.8052 0.35719 0.52054 0.0
H1992 H 0.80581 0.34051 0.54672 0.0
H1993 H 0.77535 0.35404 0.59184 0.0
H1994 H 0.81247 0.34426 0.67308 0.0
H1995 H 0.80866 0.35909 0.64626 0.0
C1996 C 0.4659 0.021 0.31766 0.0
C1997 C 0.46225 0.03925 0.31855 0.0
C1998 C 0.47068 0.01422 0.3332 0.0
C1999 C 0.46267 0.01904 0.37936 0.0
H2000 H 0.50664 0.00703 0.39037 0.0
C2001 C 0.4963 0.03325 0.44864 0.0
C2002 C 0.50629 0.02107 0.4539 0.0
C2003 C 0.48826 0.03 0.43153 0.0
C2004 C 0.49406 0.00979 0.38738 0.0
H2005 H 0.46216 0.06551 0.33569 0.0
H2006 H 0.47071 0.05385 0.3626 0.0
H2007 H 0.49871 0.01169 0.36015 0.0
H2008 H 0.51486 -0.00476 0.44599 0.0
H2009 H 0.50066 0.9895 0.41605 0.0
H2010 H 0.45826 0.01797 0.40662 0.0
C2011 C 0.46951 0.04459 0.35013 0.0
C2012 C 0.4896 0.01249 0.37013 0.0
C2013 C 0.46484 0.05132 0.33475 0.0
C2014 C 0.50762 0.00518 0.44205 0.0
C2015 C 0.49941 0.0018 0.42499 0.0
C2016 C 0.46705 0.01622 0.39654 0.0
C2017 C 0.4717 0.02568 0.34954 0.0
C2018 C 0.47433 0.01809 0.36627 0.0
C2019 C 0.48991 0.01437 0.41949 0.0
C2020 C 0.48321 0.01257 0.40086 0.0
H2021 H 0.46376 0.01141 0.30527 0.0
H2022 H 0.47254 -0.00034 0.33258 0.0
H2023 H 0.45065 0.02306 0.37649 0.0
H2024 H 0.49499 0.04549 0.45763 0.0
H2025 H 0.48126 0.04016 0.42756 0.0
C2026 C 0.7947 0.72996 0.06337 0.0
C2027 C 0.78506 0.71151 0.05404 0.0
C2028 C 0.79237 0.73497 0.08127 0.0
C2029 C 0.77872 0.71216 0.12183 0.0
H2030 H 0.77597 0.76395 0.14046 0.0
C2031 C 0.78682 0.73915 0.19746 0.0
C2032 C 0.77559 0.74983 0.20439 0.0
C2033 C 0.78696 0.73434 0.17914 0.0
C2034 C 0.77663 0.74936 0.13551 0.0
H2035 H 0.76534 0.68389 0.05669 0.0
H2036 H 0.76163 0.6924 0.08781 0.0
H2037 H 0.77803 0.75622 0.10875 0.0
H2038 H 0.75567 0.76381 0.19693 0.0
H2039 H 0.75612 0.75568 0.16498 0.0
H2040 H 0.77763 0.70536 0.14856 0.0
C2041 C 0.77088 0.70314 0.08122 0.0
C2042 C 0.77797 0.74497 0.11728 0.0
C2043 C 0.77291 0.69832 0.06323 0.0
C2044 C 0.76446 0.75551 0.19224 0.0
C2045 C 0.76482 0.75096 0.17384 0.0
C2046 C 0.77771 0.71666 0.14008 0.0
C2047 C 0.78065 0.7215 0.09061 0.0
C2048 C 0.77902 0.72627 0.11011 0.0
C2049 C 0.77608 0.74025 0.16696 0.0
C2050 C 0.77666 0.73534 0.14728 0.0
H2051 H 0.80424 0.74052 0.05687 0.0
H2052 H 0.80022 0.7492 0.08798 0.0
H2053 H 0.77963 0.69765 0.11695 0.0
H2054 H 0.7956 0.73442 0.20622 0.0
H2055 H 0.79595 0.72627 0.1745 0.0
C2056 C 0.10149 0.01174 0.75097 0.0
C2057 C 0.11977 0.017 0.74918 0.0
C2058 C 0.09055 0.01962 0.74077 0.0
C2059 C 0.09061 0.05401 0.70674 0.0
H2060 H 0.05608 0.00795 0.68105 0.0
C2061 C 0.06617 0.05108 0.6338 0.0
C2062 C 0.04816 0.04168 0.62853 0.0
C2063 C 0.07324 0.05029 0.65078 0.0
C2064 C 0.06541 0.02108 0.6882 0.0
H2065 H 0.14134 0.0363 0.73749 0.0
H2066 H 0.12251 0.05024 0.71998 0.0
H2067 H 0.07043 0.00523 0.70914 0.0
H2068 H 0.02356 0.02356 0.63676 0.0
H2069 H 0.03583 0.02234 0.66642 0.0
H2070 H 0.08604 0.06962 0.68532 0.0
C2071 C 0.11639 0.04008 0.72901 0.0
C2072 C 0.07357 0.01956 0.70443 0.0
C2073 C 0.12724 0.03212 0.73907 0.0
C2074 C 0.03743 0.03121 0.64051 0.0
C2075 C 0.0445 0.03037 0.65746 0.0
C2076 C 0.08243 0.05553 0.69048 0.0
C2077 C 0.09784 0.03283 0.72876 0.0
C2078 C 0.08661 0.03586 0.71369 0.0
C2079 C 0.06246 0.04001 0.66285 0.0
C2080 C 0.07004 0.03895 0.68083 0.0
H2081 H 0.09547 -1e-05 0.75864 0.0
H2082 H 0.07632 0.01407 0.74114 0.0
H2083 H 0.10051 0.06688 0.71359 0.0
H2084 H 0.07477 0.05932 0.6249 0.0
H2085 H 0.0872 0.05756 0.65438 0.0
C2086 C 0.78119 0.38123 0.43573 0.0
C2087 C 0.79144 0.37611 0.44892 0.0
C2088 C 0.77738 0.37015 0.41912 0.0
C2089 C 0.79277 0.33406 0.39048 0.0
H2090 H 0.74883 0.32854 0.36238 0.0
C2091 C 0.77107 0.28278 0.32542 0.0
C2092 C 0.76992 0.29292 0.31076 0.0
C2093 C 0.77183 0.29212 0.34247 0.0
C2094 C 0.76113 0.33006 0.37015 0.0
H2095 H 0.80549 0.35534 0.45547 0.0
H2096 H 0.79793 0.33515 0.4268 0.0
H2097 H 0.75368 0.34558 0.39248 0.0
H2098 H 0.76756 0.3204 0.30245 0.0
H2099 H 0.76857 0.33668 0.33259 0.0
H2100 H 0.79981 0.31786 0.36823 0.0
C2101 C 0.79331 0.34809 0.42898 0.0
C2102 C 0.764 0.33988 0.3873 0.0
C2103 C 0.79748 0.35948 0.44546 0.0
C2104 C 0.76858 0.31228 0.31349 0.0
C2105 C 0.76907 0.32155 0.33065 0.0
C2106 C 0.78971 0.3239 0.3735 0.0
C2107 C 0.78343 0.35347 0.41552 0.0
C2108 C 0.77994 0.34217 0.39761 0.0
C2109 C 0.77115 0.31164 0.34519 0.0
C2110 C 0.77396 0.32201 0.3632 0.0
H2111 H 0.77677 0.39432 0.43801 0.0
H2112 H 0.77017 0.37507 0.40898 0.0
H2113 H 0.80535 0.33588 0.39783 0.0
H2114 H 0.77201 0.2678 0.32382 0.0
H2115 H 0.77331 0.28424 0.35358 0.0
C2116 C 0.4518 0.03445 0.24602 0.0
C2117 C 0.43443 0.02343 0.23979 0.0
C2118 C 0.46609 0.02895 0.23936 0.0
C2119 C 0.47561 -0.00544 0.20282 0.0
H2120 H 0.49715 0.04427 0.18508 0.0
C2121 C 0.48533 -0.0005 0.13003 0.0
C2122 C 0.5024 0.0095 0.12597 0.0
C2123 C 0.48096 0.00079 0.14745 0.0
C2124 C 0.49147 0.03031 0.19005 0.0
H2125 H 0.41804 -0.00347 0.22453 0.0
H2126 H 0.44254 0.98714 0.21258 0.0
H2127 H 0.48503 0.04451 0.21354 0.0
H2128 H 0.52782 0.0299 0.13627 0.0
H2129 H 0.51998 0.03256 0.16684 0.0
H2130 H 0.48073 0.98051 0.17832 0.0
C2131 C 0.4456 -8e-05 0.2225 0.0
C2132 C 0.48472 0.03038 0.20652 0.0
C2133 C 0.43142 0.00535 0.22921 0.0
C2134 C 0.51464 0.02189 0.13926 0.0
C2135 C 0.51019 0.0234 0.15665 0.0
C2136 C 0.48208 -0.00548 0.1862 0.0
C2137 C 0.46296 0.01272 0.22613 0.0
C2138 C 0.47578 0.01247 0.21265 0.0
C2139 C 0.49356 0.01229 0.16092 0.0
C2140 C 0.48932 0.0124 0.17942 0.0
H2141 H 0.45436 0.04849 0.25423 0.0
H2142 H 0.47937 0.03874 0.24288 0.0
H2143 H 0.4692 0.98053 0.20732 0.0
H2144 H 0.4757 0.9899 0.11992 0.0
H2145 H 0.46788 0.99251 0.15046 0.0
C2146 C 0.80166 0.72953 0.95088 0.0
C2147 C 0.78674 0.71659 0.95713 0.0
C2148 C 0.8012 0.73497 0.93366 0.0
C2149 C 0.77085 0.73632 0.89435 0.0
H2150 H 0.81263 0.73981 0.86889 0.0
C2151 C 0.77895 0.76747 0.82597 0.0
C2152 C 0.78625 0.75771 0.81264 0.0
C2153 C 0.77873 0.76246 0.84337 0.0
C2154 C 0.80078 0.73884 0.87569 0.0
H2155 H 0.75933 0.69981 0.94964 0.0
H2156 H 0.75843 0.7095 0.91983 0.0
H2157 H 0.81244 0.73156 0.89914 0.0
H2158 H 0.79929 0.73493 0.8077 0.0
H2159 H 0.79949 0.72665 0.83812 0.0
H2160 H 0.75924 0.74369 0.87085 0.0
C2161 C 0.7706 0.71548 0.92834 0.0
C2162 C 0.80072 0.73427 0.89325 0.0
C2163 C 0.7711 0.7099 0.94558 0.0
C2164 C 0.79357 0.74286 0.81748 0.0
C2165 C 0.79372 0.73815 0.83503 0.0
C2166 C 0.77101 0.74118 0.87686 0.0
C2167 C 0.78577 0.72782 0.92188 0.0
C2168 C 0.78574 0.73287 0.90298 0.0
C2169 C 0.78615 0.74773 0.84831 0.0
C2170 C 0.78596 0.74248 0.86713 0.0
H2171 H 0.81402 0.73513 0.95915 0.0
H2172 H 0.8131 0.74479 0.92957 0.0
H2173 H 0.75906 0.73556 0.90121 0.0
H2174 H 0.77303 0.77886 0.82288 0.0
H2175 H 0.77289 0.77037 0.85305 0.0
C2176 C 0.79756 0.07079 0.03332 0.0
C2177 C 0.79995 0.0912 0.03442 0.0
C2178 C 0.81081 0.06289 0.02741 0.0
C2179 C 0.84979 0.07568 0.00112 0.0
H2180 H 0.85722 0.02818 0.01645 0.0
C2181 C 0.91046 0.04739 -0.01148 0.0
C2182 C 0.90759 0.0268 0.98596 0.0
C2183 C 0.89634 0.0552 -0.0086 0.0
C2184 C 0.85509 0.04129 0.01183 0.0
H2185 H 0.81853 0.11956 0.03191 0.0
H2186 H 0.84217 0.10594 0.02266 0.0
H2187 H 0.83584 0.04231 0.03019 0.0
H2188 H 0.88737 -0.00163 0.98277 0.0
H2189 H 0.86278 0.01206 0.98743 0.0
H2190 H 0.86966 0.0749 0.98319 0.0
C2191 C 0.82977 0.09589 0.02549 0.0
C2192 C 0.84285 0.04943 0.01975 0.0
C2193 C 0.81636 0.10375 0.03107 0.0
C2194 C 0.8901 0.01428 0.98471 0.0
C2195 C 0.87601 0.0221 0.98756 0.0
C2196 C 0.86223 0.06765 -0.00664 0.0
C2197 C 0.82687 0.07531 0.02286 0.0
C2198 C 0.84009 0.06679 0.01457 0.0
C2199 C 0.87912 0.04255 -0.00826 0.0
C2200 C 0.86501 0.0504 -0.00131 0.0
H2201 H 0.7849 0.06076 0.03556 0.0
H2202 H 0.808 0.04697 0.02542 0.0
H2203 H 0.84769 0.08878 -0.00353 0.0
H2204 H 0.92374 0.05744 -0.01084 0.0
H2205 H 0.8991 0.07105 -0.00548 0.0
C2206 C 0.33646 0.38695 0.01386 0.0
C2207 C 0.32205 0.39352 0.00846 0.0
C2208 C 0.35394 0.39851 0.01284 0.0
C2209 C 0.381 0.44188 -0.00725 0.0
H2210 H 0.41617 0.44319 0.03053 0.0
C2211 C 0.45591 0.48243 -0.00914 0.0
C2212 C 0.46567 0.49202 0.00683 0.0
C2213 C 0.43826 0.47078 -0.00932 0.0
C2214 C 0.40651 0.44318 0.01994 0.0
H2215 H 0.31479 0.41738 -0.00246 0.0
H2216 H 0.34509 0.43764 -0.0039 0.0
H2217 H 0.38595 0.42211 0.03075 0.0
H2218 H 0.46421 0.49715 0.03514 0.0
H2219 H 0.43351 0.47717 0.03477 0.0
H2220 H 0.40147 0.46344 0.98226 0.0
C2221 C 0.343 0.42338 0.00079 0.0
C2222 C 0.38917 0.4308 0.01992 0.0
C2223 C 0.32555 0.41175 0.00167 0.0
C2224 C 0.45716 0.49003 0.02256 0.0
C2225 C 0.43955 0.47836 0.02238 0.0
C2226 C 0.39834 0.45432 -0.00719 0.0
C2227 C 0.35749 0.41705 0.00652 0.0
C2228 C 0.37613 0.42996 0.00632 0.0
C2229 C 0.4299 0.46835 0.00647 0.0
C2230 C 0.41135 0.45517 0.00641 0.0
H2231 H 0.33427 0.373 0.01916 0.0
H2232 H 0.36468 0.39292 0.01707 0.0
H2233 H 0.37146 0.44154 0.98193 0.0
H2234 H 0.462 0.48355 0.97849 0.0
H2235 H 0.43134 0.4632 0.97818 0.0
C2236 C 0.37146 0.56737 0.71551 0.0
C2237 C 0.36477 0.54757 0.7183 0.0
C2238 C 0.36173 0.58052 0.71974 0.0
C2239 C 0.32992 0.58347 0.75218 0.0
H2240 H 0.33417 0.63466 0.73671 0.0
C2241 C 0.2903 0.63653 0.7752 0.0
C2242 C 0.29913 0.65688 0.77723 0.0
C2243 C 0.2993 0.62293 0.76995 0.0
C2244 C 0.33313 0.62048 0.74127 0.0
H2245 H 0.34175 0.52495 0.72432 0.0
H2246 H 0.32408 0.54764 0.73033 0.0
H2247 H 0.34482 0.61062 0.71882 0.0
H2248 H 0.32477 0.6788 0.77771 0.0
H2249 H 0.34036 0.65494 0.76802 0.0
H2250 H 0.31782 0.59328 0.77441 0.0
C2251 C 0.33722 0.55334 0.72602 0.0
C2252 C 0.33908 0.60669 0.73097 0.0
C2253 C 0.34716 0.5403 0.72229 0.0
C2254 C 0.31752 0.66322 0.77574 0.0
C2255 C 0.32645 0.64963 0.77025 0.0
C2256 C 0.32376 0.59717 0.76233 0.0
C2257 C 0.34505 0.57378 0.72633 0.0
C2258 C 0.33745 0.58798 0.73627 0.0
C2259 C 0.31718 0.6295 0.76654 0.0
C2260 C 0.32528 0.61574 0.75692 0.0
H2261 H 0.38508 0.57322 0.71249 0.0
H2262 H 0.36815 0.59614 0.71969 0.0
H2263 H 0.32905 0.56948 0.75702 0.0
H2264 H 0.27614 0.63117 0.7762 0.0
H2265 H 0.29191 0.60742 0.76717 0.0
C2266 C 0.21247 0.60148 0.52811 0.0
C2267 C 0.21976 0.59057 0.53905 0.0
C2268 C 0.19458 0.5998 0.52754 0.0
C2269 C 0.1534 0.58004 0.54801 0.0
H2270 H 0.1333 0.56732 0.49925 0.0
C2271 C 0.07874 0.55328 0.53015 0.0
C2272 C 0.07316 0.53645 0.51762 0.0
C2273 C 0.0965 0.56398 0.53267 0.0
C2274 C 0.13876 0.57091 0.5129 0.0
H2275 H 0.21466 0.57054 0.5589 0.0
H2276 H 0.18271 0.56674 0.55729 0.0
H2277 H 0.16524 0.57916 0.50562 0.0
H2278 H 0.081 0.51745 0.49767 0.0
H2279 H 0.11251 0.53565 0.50267 0.0
H2280 H 0.12685 0.57048 0.55523 0.0
C2281 C 0.19103 0.57687 0.54943 0.0
C2282 C 0.15697 0.57791 0.51656 0.0
C2283 C 0.20914 0.57882 0.55023 0.0
C2284 C 0.08527 0.53048 0.50737 0.0
C2285 C 0.10314 0.54096 0.51014 0.0
C2286 C 0.13512 0.5729 0.54433 0.0
C2287 C 0.18363 0.58692 0.53766 0.0
C2288 C 0.16441 0.58209 0.53414 0.0
C2289 C 0.10884 0.5577 0.5229 0.0
C2290 C 0.12777 0.56779 0.52675 0.0
H2291 H 0.22056 0.61117 0.51975 0.0
H2292 H 0.18919 0.60798 0.51865 0.0
H2293 H 0.15893 0.58338 0.56164 0.0
H2294 H 0.06934 0.55823 0.5379 0.0
H2295 H 0.1006 0.57703 0.54235 0.0
C2296 C 0.67775 0.95938 0.72214 0.0
C2297 C 0.6657 0.96671 0.73138 0.0
C2298 C 0.68342 0.94419 0.72817 0.0
C2299 C 0.69275 0.92853 0.76942 0.0
H2300 H 0.70407 0.88681 0.73985 0.0
C2301 C 0.73818 0.88173 0.79149 0.0
C2302 C 0.751 0.88115 0.77961 0.0
C2303 C 0.72475 0.89016 0.7873 0.0
C2304 C 0.70084 0.89831 0.74827 0.0
H2305 H 0.64836 0.96274 0.75263 0.0
H2306 H 0.65878 0.93663 0.76361 0.0
H2307 H 0.68368 0.90335 0.72784 0.0
H2308 H 0.76069 0.88924 0.75468 0.0
H2309 H 0.73745 0.90425 0.74744 0.0
H2310 H 0.71076 0.92426 0.78951 0.0
C2311 C 0.66403 0.94276 0.75195 0.0
C2312 C 0.68919 0.90766 0.74143 0.0
C2313 C 0.6583 0.95782 0.74583 0.0
C2314 C 0.75096 0.88988 0.76405 0.0
C2315 C 0.73758 0.89812 0.75982 0.0
C2316 C 0.70445 0.91919 0.77625 0.0
C2317 C 0.67702 0.93628 0.74346 0.0
C2318 C 0.68567 0.92336 0.75174 0.0
C2319 C 0.72406 0.89768 0.7711 0.0
C2320 C 0.70914 0.90466 0.76543 0.0
H2321 H 0.68338 0.96601 0.71082 0.0
H2322 H 0.69358 0.93947 0.72151 0.0
H2323 H 0.6903 0.94076 0.77753 0.0
H2324 H 0.73795 0.87466 0.8034 0.0
H2325 H 0.71446 0.88985 0.79618 0.0
C2326 C 0.71434 0.88294 0.50287 0.0
C2327 C 0.72949 0.89407 0.51391 0.0
C2328 C 0.7002 0.89088 0.4994 0.0
C2329 C 0.68106 0.93031 0.51789 0.0
H2330 H 0.65765 0.92513 0.47104 0.0
C2331 C 0.638 0.98036 0.50158 0.0
C2332 C 0.62153 0.97158 0.49191 0.0
C2333 C 0.65037 0.96977 0.50329 0.0
C2334 C 0.66393 0.92656 0.48424 0.0
H2335 H 0.74146 0.92234 0.52987 0.0
H2336 H 0.71721 0.93592 0.52393 0.0
H2337 H 0.68028 0.90819 0.47602 0.0
H2338 H 0.60523 0.94502 0.476 0.0
H2339 H 0.62706 0.92645 0.47872 0.0
H2340 H 0.66504 0.9488 0.52614 0.0
C2341 C 0.716 0.92102 0.51804 0.0
C2342 C 0.67689 0.9168 0.48711 0.0
C2343 C 0.73005 0.91321 0.52138 0.0
C2344 C 0.61784 0.9521 0.48356 0.0
C2345 C 0.63037 0.94153 0.48507 0.0
C2346 C 0.66825 0.94007 0.51503 0.0
C2347 C 0.70081 0.91003 0.50707 0.0
C2348 C 0.68587 0.91883 0.50395 0.0
C2349 C 0.6467 0.95012 0.49524 0.0
C2350 C 0.65968 0.93864 0.49813 0.0
H2351 H 0.71349 0.86822 0.49678 0.0
H2352 H 0.68871 0.88194 0.49092 0.0
H2353 H 0.68729 0.93188 0.53114 0.0
H2354 H 0.64116 -0.00465 0.50813 0.0
H2355 H 0.66288 0.97699 0.511 0.0
C2356 C 0.36151 0.4693 0.72317 0.0
C2357 C 0.37771 0.47074 0.71591 0.0
C2358 C 0.34967 0.45101 0.72405 0.0
C2359 C 0.33947 0.39765 0.71066 0.0
H2360 H 0.3261 0.39501 0.75876 0.0
C2361 C 0.31776 0.3255 0.74061 0.0
C2362 C 0.30187 0.32186 0.74889 0.0
C2363 C 0.32561 0.34401 0.73572 0.0
C2364 C 0.32952 0.39564 0.74524 0.0
H2365 H 0.39381 0.45479 0.70239 0.0
H2366 H 0.37297 0.42218 0.70421 0.0
H2367 H 0.34169 0.42673 0.74975 0.0
H2368 H 0.28214 0.3349 0.75931 0.0
H2369 H 0.29613 0.36761 0.75078 0.0
H2370 H 0.32786 0.36631 0.70649 0.0
C2371 C 0.36943 0.4353 0.70909 0.0
C2372 C 0.33836 0.41372 0.74004 0.0
C2373 C 0.38133 0.45382 0.70804 0.0
C2374 C 0.29431 0.33728 0.75281 0.0
C2375 C 0.30227 0.35592 0.74798 0.0
C2376 C 0.33073 0.37952 0.71592 0.0
C2377 C 0.35395 0.43385 0.71788 0.0
C2378 C 0.34349 0.41484 0.72273 0.0
C2379 C 0.31777 0.35921 0.73911 0.0
C2380 C 0.32587 0.37843 0.73328 0.0
H2381 H 0.35842 0.48233 0.72911 0.0
H2382 H 0.33763 0.45029 0.7305 0.0
H2383 H 0.3432 0.39822 0.69724 0.0
H2384 H 0.32408 0.314 0.73764 0.0
H2385 H 0.33781 0.34645 0.72925 0.0
C2386 C 0.16014 0.56176 0.23097 0.0
C2387 C 0.1636 0.55131 0.24472 0.0
C2388 C 0.17018 0.58135 0.23054 0.0
C2389 C 0.19839 0.62447 0.25949 0.0
H2390 H 0.21982 0.6412 0.21705 0.0
C2391 C 0.25453 0.69598 0.26294 0.0
C2392 C 0.25417 0.70806 0.24967 0.0
C2393 C 0.24331 0.67671 0.26104 0.0
C2394 C 0.21376 0.63681 0.22894 0.0
H2395 H 0.18043 0.55313 0.26862 0.0
H2396 H 0.19789 0.58705 0.26775 0.0
H2397 H 0.19925 0.60803 0.21608 0.0
H2398 H 0.24225 0.70952 0.22381 0.0
H2399 H 0.22219 0.67601 0.22073 0.0
H2400 H 0.21272 0.65305 0.27241 0.0
C2401 C 0.18725 0.58026 0.2575 0.0
C2402 C 0.20198 0.61787 0.22836 0.0
C2403 C 0.17728 0.56079 0.25794 0.0
C2404 C 0.24284 0.7004 0.2342 0.0
C2405 C 0.23139 0.68122 0.23241 0.0
C2406 C 0.21003 0.64335 0.26005 0.0
C2407 C 0.18376 0.59076 0.24387 0.0
C2408 C 0.19454 0.61142 0.24375 0.0
C2409 C 0.23127 0.66932 0.24598 0.0
C2410 C 0.21817 0.64958 0.2449 0.0
H2411 H 0.14963 0.55487 0.22061 0.0
H2412 H 0.16719 0.58922 0.21995 0.0
H2413 H 0.19253 0.61997 0.27145 0.0
H2414 H 0.26333 0.7015 0.27489 0.0
H2415 H 0.24388 0.66769 0.2715 0.0
C2416 C 0.48289 0.69698 0.45033 0.0
C2417 C 0.48892 0.70195 0.43393 0.0
C2418 C 0.48644 0.68101 0.45759 0.0
C2419 C 0.48787 0.63273 0.44691 0.0
H2420 H 0.52354 0.6373 0.48515 0.0
C2421 C 0.50492 0.56332 0.46667 0.0
C2422 C 0.51114 0.56338 0.48419 0.0
C2423 C 0.50257 0.58058 0.46091 0.0
C2424 C 0.51325 0.63559 0.47469 0.0
H2425 H 0.50344 0.69408 0.4124 0.0
H2426 H 0.50907 0.66588 0.42486 0.0
H2427 H 0.51861 0.66708 0.47542 0.0
H2428 H 0.51939 0.58117 0.50957 0.0
H2429 H 0.51418 0.61079 0.50003 0.0
H2430 H 0.48181 0.60145 0.4464 0.0
C2431 C 0.50197 0.67463 0.4322 0.0
C2432 C 0.51057 0.65276 0.46906 0.0
C2433 C 0.49882 0.69083 0.42515 0.0
C2434 C 0.5147 0.58084 0.49592 0.0
C2435 C 0.51186 0.59791 0.49034 0.0
C2436 C 0.49024 0.61555 0.45275 0.0
C2437 C 0.49567 0.66948 0.44838 0.0
C2438 C 0.49797 0.65144 0.45503 0.0
C2439 C 0.50588 0.59818 0.47268 0.0
C2440 C 0.5031 0.61664 0.46665 0.0
H2441 H 0.47522 0.70524 0.45739 0.0
H2442 H 0.48147 0.67726 0.47011 0.0
H2443 H 0.47802 0.6314 0.43607 0.0
H2444 H 0.50229 0.55006 0.45734 0.0
H2445 H 0.4984 0.5801 0.44712 0.0
C2446 C 0.61574 0.3023 0.677 0.0
C2447 C 0.61154 0.29822 0.65862 0.0
C2448 C 0.63144 0.30021 0.68478 0.0
C2449 C 0.66748 0.27659 0.67681 0.0
H2450 H 0.69075 0.31258 0.71838 0.0
C2451 C 0.73648 0.27879 0.71082 0.0
C2452 C 0.73733 0.27922 0.7293 0.0
C2453 C 0.72148 0.28101 0.70146 0.0
C2454 C 0.68438 0.30233 0.70684 0.0
H2455 H 0.62084 0.28877 0.634 0.0
H2456 H 0.64853 0.28546 0.64755 0.0
H2457 H 0.66455 0.31705 0.70323 0.0
H2458 H 0.72311 0.28256 0.75239 0.0
H2459 H 0.69734 0.28697 0.73619 0.0
H2460 H 0.6877 0.26213 0.68044 0.0
C2461 C 0.63947 0.29005 0.65601 0.0
C2462 C 0.66925 0.30482 0.69814 0.0
C2463 C 0.62365 0.29212 0.64818 0.0
C2464 C 0.72294 0.28216 0.73818 0.0
C2465 C 0.70816 0.28476 0.72889 0.0
C2466 C 0.68279 0.27424 0.68543 0.0
C2467 C 0.64361 0.29407 0.67446 0.0
C2468 C 0.66039 0.29187 0.6831 0.0
C2469 C 0.70718 0.28414 0.71041 0.0
C2470 C 0.69133 0.28697 0.70067 0.0
H2471 H 0.60677 0.30693 0.68555 0.0
H2472 H 0.63383 0.30308 0.69902 0.0
H2473 H 0.66097 0.26612 0.66546 0.0
H2474 H 0.74725 0.27638 0.70355 0.0
H2475 H 0.72117 0.28053 0.68724 0.0
C2476 C -0.00082 0.31362 0.921 0.0
C2477 C -0.01005 0.29805 0.92995 0.0
C2478 C 0.00247 0.33333 0.92846 0.0
C2479 C 0.00578 0.36547 0.97039 0.0
H2480 H -0.00729 0.40135 0.94107 0.0
C2481 C 0.02317 0.4497 -0.00806 0.0
C2482 C 0.01016 0.45918 0.98844 0.0
C2483 C 0.02067 0.42996 0.98524 0.0
C2484 C -0.00367 0.39149 0.94946 0.0
H2485 H 0.97772 0.29093 0.95409 0.0
H2486 H 0.984 0.32526 0.96733 0.0
H2487 H 0.98951 0.36727 0.92862 0.0
H2488 H 0.98421 0.4551 0.97511 0.0
H2489 H 0.97985 0.42051 0.96334 0.0
H2490 H 0.01262 0.38964 -0.00877 0.0
C2491 C 0.98847 0.32226 0.95446 0.0
C2492 C -0.00531 0.37204 0.94227 0.0
C2493 C 0.98485 0.30259 0.94686 0.0
C2494 C -0.00553 0.44827 0.97816 0.0
C2495 C -0.00797 0.42849 0.97129 0.0
C2496 C 0.00763 0.38498 0.97752 0.0
C2497 C -0.00305 0.33788 0.94518 0.0
C2498 C -0.00065 0.35877 0.95267 0.0
C2499 C 0.00515 0.41912 0.97471 0.0
C2500 C 0.00288 0.39824 0.96716 0.0
H2501 H 0.00314 0.3106 0.90789 0.0
H2502 H 0.00917 0.34504 0.92105 0.0
H2503 H 0.00953 0.35564 0.97872 0.0
H2504 H 0.03545 0.45758 -0.00022 0.0
H2505 H 0.03112 0.4233 0.98798 0.0
C2506 C 0.01309 0.76582 0.1611 0.0
C2507 C 0.01467 0.77451 0.14535 0.0
C2508 C -0.00292 0.76168 0.16906 0.0
C2509 C 0.94893 0.75668 0.16143 0.0
H2510 H 0.95299 0.77271 0.21189 0.0
C2511 C 0.88976 0.76691 0.19956 0.0
C2512 C 0.88874 0.7618 0.21685 0.0
C2513 C 0.90442 0.76623 0.1902 0.0
C2514 C 0.95155 0.76783 0.19785 0.0
H2515 H 0.00043 0.78508 0.12534 0.0
H2516 H 0.97262 0.77788 0.13918 0.0
H2517 H 0.97964 0.77487 0.19669 0.0
H2518 H 0.90234 0.75164 0.23767 0.0
H2519 H 0.92753 0.74995 0.22124 0.0
H2520 H 0.92079 0.74987 0.16261 0.0
C2521 C 0.98367 0.77407 0.14532 0.0
C2522 C 0.96688 0.76907 0.18912 0.0
C2523 C -0.00033 0.77824 0.13739 0.0
C2524 C 0.90254 0.75551 0.22434 0.0
C2525 C 0.91715 0.7548 0.21499 0.0
C2526 C 0.93355 0.7554 0.17019 0.0
C2527 C 0.98227 0.76612 0.16145 0.0
C2528 C 0.9658 0.76362 0.17078 0.0
C2529 C 0.91844 0.76044 0.1979 0.0
C2530 C 0.93467 0.76106 0.18851 0.0
H2531 H 0.02438 0.76276 0.16758 0.0
H2532 H -0.00361 0.75529 0.18135 0.0
H2533 H 0.9476 0.75217 0.14733 0.0
H2534 H 0.87928 0.77156 0.19326 0.0
H2535 H 0.90499 0.7708 0.17711 0.0
C2536 C 0.5344 0.34382 0.11775 0.0
C2537 C 0.51758 0.33011 0.11895 0.0
C2538 C 0.53634 0.36087 0.1085 0.0
C2539 C 0.50954 0.39359 0.09042 0.0
H2540 H 0.54922 0.41348 0.06305 0.0
C2541 C 0.51835 0.46782 0.05722 0.0
C2542 C 0.52492 0.46936 0.04034 0.0
C2543 C 0.51815 0.45149 0.06674 0.0
C2544 C 0.53792 0.40826 0.07055 0.0
H2545 H 0.48969 0.32505 0.11093 0.0
H2546 H 0.49299 0.35388 0.09569 0.0
H2547 H 0.54806 0.38524 0.0795 0.0
H2548 H 0.53684 0.45392 0.02092 0.0
H2549 H 0.53711 0.4262 0.03758 0.0
H2550 H 0.49943 0.41655 0.08168 0.0
C2551 C 0.50488 0.35172 0.10176 0.0
C2552 C 0.53733 0.39189 0.08026 0.0
C2553 C 0.503 0.33472 0.11061 0.0
C2554 C 0.5316 0.45371 0.03373 0.0
C2555 C 0.53182 0.4376 0.04347 0.0
C2556 C 0.5103 0.4101 0.08102 0.0
C2557 C 0.52155 0.36539 0.1003 0.0
C2558 C 0.523 0.38389 0.09038 0.0
C2559 C 0.5249 0.43584 0.06023 0.0
C2560 C 0.52442 0.41793 0.07066 0.0
H2561 H 0.54616 0.34126 0.12373 0.0
H2562 H 0.54954 0.37069 0.10799 0.0
H2563 H 0.49825 0.38854 0.09796 0.0
H2564 H 0.51298 0.47918 0.06307 0.0
H2565 H 0.51279 0.45132 0.07949 0.0
C2566 C 0.96937 0.26371 0.32043 0.0
C2567 C 0.97172 0.25548 0.3362 0.0
C2568 C 0.95242 0.26463 0.31353 0.0
C2569 C 0.9016 0.24642 0.3194 0.0
H2570 H 0.89858 0.28209 0.28529 0.0
C2571 C 0.83107 0.24602 0.28559 0.0
C2572 C 0.82855 0.26306 0.279 0.0
C2573 C 0.84811 0.24509 0.29224 0.0
C2574 C 0.89883 0.27203 0.29491 0.0
H2575 H 0.95675 0.24178 0.35675 0.0
H2576 H 0.92787 0.24371 0.34532 0.0
H2577 H 0.92743 0.28097 0.29717 0.0
H2578 H 0.8434 0.29255 0.27452 0.0
H2579 H 0.87252 0.291 0.28573 0.0
H2580 H 0.87298 0.2378 0.31737 0.0
C2581 C 0.93906 0.24929 0.33782 0.0
C2582 C 0.91583 0.27118 0.30176 0.0
C2583 C 0.95601 0.24829 0.34466 0.0
C2584 C 0.84425 0.27904 0.27933 0.0
C2585 C 0.86131 0.27805 0.28582 0.0
C2586 C 0.88461 0.24727 0.31254 0.0
C2587 C 0.93657 0.25744 0.32194 0.0
C2588 C 0.9179 0.25836 0.31432 0.0
C2589 C 0.86388 0.26109 0.29263 0.0
C2590 C 0.88256 0.26011 0.30005 0.0
H2591 H 0.98074 0.26935 0.31313 0.0
H2592 H 0.95189 0.27081 0.30125 0.0
H2593 H 0.90175 0.23602 0.32871 0.0
H2594 H 0.81972 0.23321 0.28578 0.0
H2595 H 0.84881 0.23148 0.29693 0.0
C2596 C 0.02977 0.71804 0.61451 0.0
C2597 C 0.013 0.72113 0.61655 0.0
C2598 C 0.03144 0.7 0.6057 0.0
C2599 C 0.00535 0.64589 0.5914 0.0
H2600 H 0.04319 0.64522 0.56135 0.0
C2601 C 0.01488 0.57024 0.55919 0.0
C2602 C 0.02149 0.56916 0.54238 0.0
C2603 C 0.0144 0.58852 0.56844 0.0
C2604 C 0.0324 0.6449 0.56958 0.0
H2605 H 0.98485 0.70654 0.61078 0.0
H2606 H 0.9877 0.67564 0.59612 0.0
H2607 H 0.04147 0.6766 0.57653 0.0
H2608 H 0.03295 0.58751 0.52258 0.0
H2609 H 0.03213 0.61884 0.53842 0.0
H2610 H -0.00382 0.61431 0.58444 0.0
C2611 C -0.00028 0.68713 0.60114 0.0
C2612 C 0.03153 0.66315 0.57857 0.0
C2613 C -0.00193 0.7052 0.60955 0.0
C2614 C 0.02776 0.58733 0.53541 0.0
C2615 C 0.02737 0.60559 0.54469 0.0
C2616 C 0.00634 0.62765 0.58259 0.0
C2617 C 0.01641 0.68397 0.59891 0.0
C2618 C 0.01788 0.66418 0.58962 0.0
C2619 C 0.02059 0.60674 0.56144 0.0
C2620 C 0.01982 0.62659 0.57133 0.0
H2621 H 0.04168 0.72967 0.6196 0.0
H2622 H 0.04461 0.6985 0.60451 0.0
H2623 H -0.00532 0.64555 0.59981 0.0
H2624 H 0.00992 0.55686 0.56524 0.0
H2625 H 0.00926 0.5883 0.58129 0.0
C2626 C 0.59532 0.77017 0.83639 0.0
C2627 C 0.58081 0.75313 0.83062 0.0
C2628 C 0.6127 0.77271 0.8301 0.0
C2629 C 0.64057 0.74408 0.8027 0.0
H2630 H 0.67541 0.79522 0.80608 0.0
C2631 C 0.71238 0.75035 0.77715 0.0
C2632 C 0.72504 0.76869 0.77568 0.0
C2633 C 0.69544 0.74894 0.78374 0.0
C2634 C 0.66609 0.78062 0.80474 0.0
H2635 H 0.57469 0.72561 0.81305 0.0
H2636 H 0.60354 0.72997 0.80242 0.0
H2637 H 0.64652 0.7923 0.81713 0.0
H2638 H 0.72843 0.80013 0.78046 0.0
H2639 H 0.69946 0.79787 0.79133 0.0
H2640 H 0.65964 0.73231 0.79001 0.0
C2641 C 0.60208 0.74151 0.81207 0.0
C2642 C 0.64908 0.7789 0.81144 0.0
C2643 C 0.58494 0.73902 0.81825 0.0
C2644 C 0.71951 0.78557 0.78116 0.0
C2645 C 0.70248 0.78418 0.78766 0.0
C2646 C 0.65747 0.74579 0.79595 0.0
C2647 C 0.61674 0.75837 0.81772 0.0
C2648 C 0.63561 0.76054 0.81067 0.0
C2649 C 0.68973 0.76578 0.78931 0.0
C2650 C 0.67101 0.76411 0.79668 0.0
H2651 H 0.59328 0.7817 0.84571 0.0
H2652 H 0.62306 0.78605 0.83521 0.0
H2653 H 0.63145 0.72939 0.80174 0.0
H2654 H 0.71564 0.73678 0.77336 0.0
H2655 H 0.68697 0.73425 0.78458 0.0
C2656 C 0.433 0.52733 0.65461 0.0
C2657 C 0.43316 0.51388 0.66673 0.0
C2658 C 0.43798 0.52373 0.63769 0.0
C2659 C 0.44494 0.49889 0.60081 0.0
H2660 H 0.4959 0.52328 0.60852 0.0
C2661 C 0.49417 0.50487 0.54664 0.0
C2662 C 0.50458 0.52435 0.54632 0.0
C2663 C 0.48366 0.50017 0.56048 0.0
C2664 C 0.48172 0.5163 0.60626 0.0
H2665 H 0.43686 0.48536 0.67042 0.0
H2666 H 0.44599 0.47944 0.64087 0.0
H2667 H 0.47801 0.5197 0.63373 0.0
H2668 H 0.51306 0.55415 0.55992 0.0
H2669 H 0.49462 0.54599 0.58436 0.0
H2670 H 0.44867 0.49603 0.5732 0.0
C2671 C 0.4419 0.49254 0.64448 0.0
C2672 C 0.4716 0.5142 0.62055 0.0
C2673 C 0.43698 0.49613 0.66137 0.0
C2674 C 0.50481 0.5391 0.55997 0.0
C2675 C 0.49441 0.53442 0.57386 0.0
C2676 C 0.45514 0.50084 0.58642 0.0
C2677 C 0.44293 0.50662 0.63286 0.0
C2678 C 0.4532 0.50599 0.61779 0.0
C2679 C 0.48388 0.51493 0.57419 0.0
C2680 C 0.47347 0.51013 0.58913 0.0
H2681 H 0.43001 0.54106 0.65847 0.0
H2682 H 0.43914 0.53487 0.62881 0.0
H2683 H 0.43069 0.49251 0.59869 0.0
H2684 H 0.49464 0.49317 0.53659 0.0
H2685 H 0.47581 0.48501 0.56077 0.0
C2686 C 0.74282 0.14077 0.97489 0.0
C2687 C 0.75429 0.15262 -0.01096 0.0
C2688 C 0.73929 0.14893 0.95972 0.0
C2689 C 0.76049 0.19208 0.937 0.0
H2690 H 0.718 0.17331 0.90466 0.0
C2691 C 0.74824 0.23357 0.87989 0.0
C2692 C 0.74524 0.22282 0.86296 0.0
C2693 C 0.74761 0.22391 0.8949 0.0
C2694 C 0.72995 0.17854 0.91358 0.0
H2695 H 0.76965 0.18243 -0.00069 0.0
H2696 H 0.76263 0.19699 0.97344 0.0
H2697 H 0.71897 0.15942 0.93264 0.0
H2698 H 0.73881 0.19346 0.84846 0.0
H2699 H 0.73751 0.17643 0.87501 0.0
H2700 H 0.77124 0.21153 0.91823 0.0
C2701 C 0.75708 0.18123 0.97351 0.0
C2702 C 0.73054 0.17062 0.92958 0.0
C2703 C 0.76096 0.17298 0.98844 0.0
C2704 C 0.74126 0.2021 0.86137 0.0
C2705 C 0.74037 0.19237 0.87648 0.0
C2706 C 0.75977 0.20015 0.92125 0.0
C2707 C 0.74694 0.16917 0.95859 0.0
C2708 C 0.7458 0.17746 0.94159 0.0
C2709 C 0.74379 0.20328 0.89336 0.0
C2710 C 0.74449 0.19359 0.90947 0.0
H2711 H 0.7376 0.12496 0.975 0.0
H2712 H 0.73146 0.13915 0.94855 0.0
H2713 H 0.77271 0.19724 0.9455 0.0
H2714 H 0.75149 0.24954 0.88153 0.0
H2715 H 0.75027 0.23262 0.90778 0.0
C2716 C 0.09892 0.51144 0.17539 0.0
C2717 C 0.09192 0.49353 0.1822 0.0
C2718 C 0.0891 0.51681 0.16227 0.0
C2719 C 0.04772 0.50366 0.13406 0.0
H2720 H 0.07868 0.50065 0.09668 0.0
C2721 C 0.02291 0.49404 0.06106 0.0
C2722 C 0.03374 0.50837 0.05199 0.0
C2723 C 0.02915 0.49078 0.07751 0.0
C2724 C 0.06993 0.50159 0.10699 0.0
H2725 H 0.06859 0.46848 0.18254 0.0
H2726 H 0.05174 0.47747 0.1589 0.0
H2727 H 0.09027 0.5041 0.12718 0.0
H2728 H 0.05991 0.52945 0.05216 0.0
H2729 H 0.07036 0.52427 0.08072 0.0
H2730 H 0.02743 0.50155 0.11368 0.0
C2731 C 0.06463 0.48743 0.1639 0.0
C2732 C 0.0766 0.50385 0.12437 0.0
C2733 C 0.0744 0.4821 0.17708 0.0
C2734 C 0.0511 0.51854 0.05898 0.0
C2735 C 0.05723 0.51538 0.07528 0.0
C2736 C 0.04108 0.50178 0.11656 0.0
C2737 C 0.07238 0.50416 0.15578 0.0
C2738 C 0.06556 0.50495 0.13796 0.0
C2739 C 0.04619 0.50183 0.08483 0.0
C2740 C 0.05223 0.50088 0.10297 0.0
H2741 H 0.11219 0.52089 0.17969 0.0
H2742 H 0.09513 0.52989 0.15612 0.0
H2743 H 0.03901 0.50407 0.14451 0.0
H2744 H 0.0096 0.48574 0.05567 0.0
H2745 H 0.02059 0.48002 0.08466 0.0
C2746 C 0.76859 0.83449 0.4531 0.0
C2747 C 0.77433 0.82359 0.46534 0.0
C2748 C 0.76838 0.82925 0.43474 0.0
C2749 C 0.76973 0.78799 0.40019 0.0
H2750 H 0.78703 0.83017 0.37155 0.0
C2751 C 0.78545 0.77262 0.32677 0.0
C2752 C 0.78027 0.78374 0.31441 0.0
C2753 C 0.78444 0.77727 0.34504 0.0
C2754 C 0.78197 0.81815 0.37924 0.0
H2755 H 0.78371 0.79805 0.46747 0.0
H2756 H 0.78282 0.78857 0.43568 0.0
H2757 H 0.78479 0.83812 0.40306 0.0
H2758 H 0.77039 0.80886 0.31187 0.0
H2759 H 0.76918 0.81734 0.34353 0.0
H2760 H 0.76698 0.76802 0.37637 0.0
C2761 C 0.7786 0.80133 0.44021 0.0
C2762 C 0.78064 0.82274 0.39743 0.0
C2763 C 0.77911 0.80678 0.45855 0.0
C2764 C 0.77447 0.79993 0.32094 0.0
C2765 C 0.77385 0.80485 0.33919 0.0
C2766 C 0.77107 0.7834 0.382 0.0
C2767 C 0.77363 0.81271 0.42794 0.0
C2768 C 0.77453 0.80775 0.40828 0.0
C2769 C 0.7786 0.79348 0.3516 0.0
C2770 C 0.77726 0.79839 0.37117 0.0
H2771 H 0.76503 0.84768 0.4577 0.0
H2772 H 0.76426 0.83832 0.42585 0.0
H2773 H 0.76471 0.77597 0.4079 0.0
H2774 H 0.7898 0.75994 0.32228 0.0
H2775 H 0.78836 0.76819 0.35406 0.0
C2776 C 0.42535 0.50225 0.77071 0.0
C2777 C 0.43676 0.5157 0.76131 0.0
C2778 C 0.43157 0.49787 0.78676 0.0
C2779 C 0.4731 0.50415 0.81506 0.0
H2780 H 0.44141 0.49857 0.85254 0.0
C2781 C 0.49808 0.5077 0.88738 0.0
C2782 C 0.48857 0.49235 0.89635 0.0
C2783 C 0.49121 0.51059 0.87106 0.0
C2784 C 0.45034 0.50001 0.84215 0.0
H2785 H 0.46333 0.53493 0.76071 0.0
H2786 H 0.47403 0.52832 0.78915 0.0
H2787 H 0.43055 0.50237 0.82308 0.0
H2788 H 0.46432 0.46832 0.89565 0.0
H2789 H 0.4523 0.47336 0.867 0.0
H2790 H 0.49301 0.50236 0.83433 0.0
C2791 C 0.46054 0.52047 0.78403 0.0
C2792 C 0.44412 0.50203 0.82525 0.0
C2793 C 0.45444 0.52438 0.7678 0.0
C2794 C 0.47185 0.48032 0.889 0.0
C2795 C 0.46498 0.48321 0.87267 0.0
C2796 C 0.47936 0.5024 0.83199 0.0
C2797 C 0.44914 0.50732 0.79379 0.0
C2798 C 0.45546 0.50418 0.81152 0.0
C2799 C 0.47472 0.49818 0.86347 0.0
C2800 C 0.46805 0.50035 0.84566 0.0
H2801 H 0.41168 0.49517 0.76568 0.0
H2802 H 0.42259 0.48728 0.79371 0.0
H2803 H 0.48211 0.50539 0.80474 0.0
H2804 H 0.51084 0.51743 0.89298 0.0
H2805 H 0.49881 0.52247 0.86433 0.0
C2806 C 0.78772 0.16453 0.08624 0.0
C2807 C 0.77223 0.15624 0.07489 0.0
C2808 C 0.78724 0.17534 0.10238 0.0
C2809 C 0.75758 0.18507 0.13558 0.0
H2810 H 0.79758 0.23143 0.15043 0.0
C2811 C 0.76075 0.23452 0.20107 0.0
C2812 C 0.77722 0.24142 0.21104 0.0
C2813 C 0.75947 0.22563 0.18371 0.0
C2814 C 0.7864 0.21843 0.14658 0.0
H2815 H 0.74398 0.15241 0.07159 0.0
H2816 H 0.74319 0.17199 0.09979 0.0
H2817 H 0.79608 0.21273 0.12161 0.0
H2818 H 0.80529 0.24469 0.21092 0.0
H2819 H 0.80308 0.22833 0.18074 0.0
H2820 H 0.74802 0.19062 0.16069 0.0
C2821 C 0.75567 0.16981 0.09627 0.0
C2822 C 0.78551 0.20771 0.13003 0.0
C2823 C 0.75611 0.15866 0.08014 0.0
C2824 C 0.79249 0.2396 0.20336 0.0
C2825 C 0.79118 0.23032 0.18608 0.0
C2826 C 0.75848 0.1958 0.15219 0.0
C2827 C 0.77131 0.17844 0.10748 0.0
C2828 C 0.77128 0.19068 0.12446 0.0
C2829 C 0.77461 0.22309 0.17608 0.0
C2830 C 0.77306 0.21243 0.158 0.0
H2831 H 0.80026 0.16252 0.08269 0.0
H2832 H 0.79941 0.18122 0.11092 0.0
H2833 H 0.74649 0.17197 0.13175 0.0
H2834 H 0.74882 0.23606 0.2067 0.0
H2835 H 0.74659 0.2207 0.1763 0.0
C2836 C 0.10485 0.49138 0.283 0.0
C2837 C 0.10242 0.50114 0.26852 0.0
C2838 C 0.09836 0.49596 0.29888 0.0
C2839 C 0.06426 0.51526 0.31672 0.0
H2840 H 0.09079 0.51667 0.36129 0.0
C2841 C 0.04016 0.53207 0.38463 0.0
C2842 C 0.04239 0.51992 0.39737 0.0
C2843 C 0.04735 0.5306 0.36854 0.0
C2844 C 0.08324 0.51616 0.34891 0.0
H2845 H 0.09184 0.52364 0.25911 0.0
H2846 H 0.08066 0.53194 0.28721 0.0
H2847 H 0.10494 0.51468 0.33385 0.0
H2848 H 0.05316 0.49615 0.40313 0.0
H2849 H 0.06583 0.49358 0.37479 0.0
H2850 H 0.04251 0.5166 0.33182 0.0
C2851 C 0.08734 0.52055 0.28613 0.0
C2852 C 0.09132 0.51513 0.33329 0.0
C2853 C 0.09371 0.51583 0.27014 0.0
C2854 C 0.05147 0.50584 0.39357 0.0
C2855 C 0.05871 0.5044 0.37745 0.0
C2856 C 0.0562 0.5164 0.33237 0.0
C2857 C 0.08952 0.51052 0.30055 0.0
C2858 C 0.08177 0.51424 0.31708 0.0
C2859 C 0.05692 0.51701 0.36498 0.0
C2860 C 0.06554 0.51648 0.34851 0.0
H2861 H 0.11137 0.47985 0.28194 0.0
H2862 H 0.09985 0.48772 0.30971 0.0
H2863 H 0.05659 0.51438 0.30433 0.0
H2864 H 0.03346 0.54327 0.38736 0.0
H2865 H 0.04598 0.54058 0.35914 0.0
C2866 C 0.75995 0.83122 0.57531 0.0
C2867 C 0.76748 0.82124 0.5624 0.0
C2868 C 0.75888 0.82601 0.59267 0.0
C2869 C 0.77714 0.79607 0.62364 0.0
H2870 H 0.74474 0.8107 0.655 0.0
C2871 C 0.76914 0.76985 0.69364 0.0
C2872 C 0.76818 0.78365 0.70797 0.0
C2873 C 0.76834 0.77414 0.67607 0.0
C2874 C 0.75399 0.80659 0.6465 0.0
H2875 H 0.77897 0.79711 0.55778 0.0
H2876 H 0.77601 0.78714 0.5872 0.0
H2877 H 0.74374 0.81755 0.62445 0.0
H2878 H 0.76539 0.81295 0.71449 0.0
H2879 H 0.76361 0.82025 0.68387 0.0
H2880 H 0.78697 0.78459 0.6457 0.0
C2881 C 0.77163 0.7997 0.58444 0.0
C2882 C 0.7535 0.81062 0.62878 0.0
C2883 C 0.77306 0.80521 0.56725 0.0
C2884 C 0.76608 0.80182 0.70396 0.0
C2885 C 0.76502 0.80601 0.6863 0.0
C2886 C 0.77739 0.79173 0.64124 0.0
C2887 C 0.76503 0.81034 0.5978 0.0
C2888 C 0.76512 0.80554 0.61688 0.0
C2889 C 0.76633 0.79232 0.67201 0.0
C2890 C 0.76589 0.79697 0.65306 0.0
H2891 H 0.75582 0.8439 0.57232 0.0
H2892 H 0.75388 0.83496 0.60221 0.0
H2893 H 0.78676 0.79224 0.61551 0.0
H2894 H 0.77083 0.7557 0.69598 0.0
H2895 H 0.76921 0.76305 0.66558 0.0
C2896 C 0.72771 0.42714 0.50394 0.0
C2897 C 0.73861 0.43666 0.49164 0.0
C2898 C 0.71282 0.43291 0.50827 0.0
C2899 C 0.68206 0.45845 0.49271 0.0
H2900 H 0.68121 0.47804 0.54193 0.0
C2901 C 0.64512 0.51342 0.51141 0.0
C2902 C 0.63213 0.50771 0.52312 0.0
C2903 C 0.65804 0.50375 0.50962 0.0
C2904 C 0.6812 0.47235 0.52822 0.0
H2905 H 0.74223 0.4586 0.47344 0.0
H2906 H 0.71602 0.46833 0.48065 0.0
H2907 H 0.70273 0.46037 0.53349 0.0
H2908 H 0.62261 0.48849 0.54289 0.0
H2909 H 0.64563 0.4714 0.53985 0.0
H2910 H 0.66106 0.47093 0.48726 0.0
C2911 C 0.71897 0.45658 0.48703 0.0
C2912 C 0.69336 0.46221 0.52342 0.0
C2913 C 0.73393 0.45105 0.48293 0.0
C2914 C 0.63268 0.49302 0.53383 0.0
C2915 C 0.64576 0.48336 0.53212 0.0
C2916 C 0.67001 0.46855 0.49747 0.0
C2917 C 0.70858 0.44791 0.50004 0.0
C2918 C 0.69408 0.45562 0.50557 0.0
C2919 C 0.65807 0.48822 0.51951 0.0
C2920 C 0.6698 0.47601 0.51517 0.0
H2921 H 0.73127 0.41615 0.51095 0.0
H2922 H 0.70489 0.42606 0.51831 0.0
H2923 H 0.68235 0.45334 0.4789 0.0
H2924 H 0.64475 0.52474 0.50305 0.0
H2925 H 0.66759 0.50785 0.49998 0.0
C2926 C 0.21251 0.11137 0.49004 0.0
C2927 C 0.21949 0.13148 0.49674 0.0
C2928 C 0.1949 0.10104 0.49196 0.0
C2929 C 0.15793 0.10097 0.51942 0.0
H2930 H 0.12946 0.06488 0.48022 0.0
C2931 C 0.08324 0.06094 0.52297 0.0
C2932 C 0.07594 0.04197 0.51358 0.0
C2933 C 0.10075 0.07192 0.52125 0.0
C2934 C 0.13725 0.07461 0.49144 0.0
H2935 H 0.21327 0.15647 0.51073 0.0
H2936 H 0.18242 0.13833 0.51418 0.0
H2937 H 0.15957 0.08415 0.47633 0.0
H2938 H 0.08165 0.01945 0.49545 0.0
H2939 H 0.11232 0.03815 0.49303 0.0
H2940 H 0.13583 0.09116 0.53467 0.0
C2941 C 0.19069 0.13059 0.50745 0.0
C2942 C 0.15454 0.08579 0.48915 0.0
C2943 C 0.20833 0.14103 0.50537 0.0
C2944 C 0.0868 0.03403 0.50285 0.0
C2945 C 0.10439 0.04489 0.50132 0.0
C2946 C 0.14068 0.08963 0.52177 0.0
C2947 C 0.18377 0.11044 0.50077 0.0
C2948 C 0.16513 0.09908 0.50311 0.0
C2949 C 0.11157 0.06416 0.51025 0.0
C2950 C 0.13006 0.07623 0.50783 0.0
H2951 H 0.22069 0.10348 0.48336 0.0
H2952 H 0.19011 0.0855 0.48685 0.0
H2953 H 0.16579 0.11087 0.53052 0.0
H2954 H 0.07521 0.06767 0.53115 0.0
H2955 H 0.10558 0.08676 0.52814 0.0
C2956 C 0.19193 0.98593 0.79274 0.0
C2957 C 0.17954 0.97876 0.8047 0.0
C2958 C 0.20206 0.97424 0.78572 0.0
C2959 C 0.21384 0.92782 0.79085 0.0
H2960 H 0.22269 0.92932 0.74146 0.0
C2961 C 0.23492 0.86691 0.75219 0.0
C2962 C 0.25211 0.87371 0.74673 0.0
C2963 C 0.22548 0.88018 0.75699 0.0
C2964 C 0.22027 0.92883 0.75525 0.0
H2965 H 0.16772 0.95421 0.81886 0.0
H2966 H 0.18467 0.9333 0.80607 0.0
H2967 H 0.20841 0.95239 0.75588 0.0
H2968 H 0.27214 0.89943 0.74034 0.0
H2969 H 0.25527 0.92263 0.74836 0.0
H2970 H 0.22505 0.90371 0.78992 0.0
C2971 C 0.1873 0.94815 0.80256 0.0
C2972 C 0.21228 0.94213 0.7636 0.0
C2973 C 0.17753 0.96004 0.80988 0.0
C2974 C 0.25893 0.89377 0.7445 0.0
C2975 C 0.24934 0.90704 0.74911 0.0
C2976 C 0.22144 0.91432 0.78242 0.0
C2977 C 0.19952 0.95499 0.7902 0.0
C2978 C 0.2089 0.9417 0.7815 0.0
C2979 C 0.23292 0.90041 0.7561 0.0
C2980 C 0.22462 0.91467 0.76457 0.0
H2981 H 0.19351 0.0004 0.78858 0.0
H2982 H 0.2116 0.98016 0.77656 0.0
H2983 H 0.21188 0.92734 0.80473 0.0
H2984 H 0.2291 0.85144 0.75355 0.0
H2985 H 0.21268 0.87478 0.76213 0.0
C2986 C 0.33652 0.94434 0.96112 0.0
C2987 C 0.33087 0.95063 0.9772 0.0
C2988 C 0.35433 0.95145 0.95793 0.0
C2989 C 0.39457 0.95785 0.97491 0.0
H2990 H 0.41704 0.0143 0.97832 0.0
C2991 C 0.46104 0.99254 0.01471 0.0
C2992 C 0.47313 0.00798 0.00795 0.0
C2993 C 0.44348 0.986 0.00753 0.0
C2994 C 0.41125 -0.00157 0.97697 0.0
H2995 H 0.33848 0.9689 0.00242 0.0
H2996 H 0.36942 0.98175 -0.00328 0.0
H2997 H 0.38663 0.00069 0.96591 0.0
H2998 H 0.47619 0.03009 -0.01022 0.0
H2999 H 0.44625 0.01805 0.97668 0.0
H3000 H 0.41893 0.95552 0.98655 0.0
C3001 C 0.36022 0.97173 0.98649 0.0
C3002 C 0.3939 0.99068 0.96966 0.0
C3003 C 0.34265 0.96453 -0.01029 0.0
C3004 C 0.46719 0.01791 -0.00491 0.0
C3005 C 0.44991 0.01104 0.9876 0.0
C3006 C 0.41211 0.96553 0.98191 0.0
C3007 C 0.36618 0.96493 0.9708 0.0
C3008 C 0.38521 0.97061 0.96962 0.0
C3009 C 0.43804 -0.00544 -0.00675 0.0
C3010 C 0.42029 0.98605 0.98386 0.0
H3011 H 0.32748 0.93308 0.95165 0.0
H3012 H 0.35897 0.94592 0.94591 0.0
H3013 H 0.38785 0.94233 0.97526 0.0
H3014 H 0.46529 0.98504 0.02497 0.0
H3015 H 0.43437 0.97385 0.01276 0.0
C3016 C 0.87739 0.58014 0.80782 0.0
C3017 C 0.88005 0.5639 0.79761 0.0
C3018 C 0.86752 0.59114 0.80031 0.0
C3019 C 0.8396 0.59413 0.76093 0.0
H3020 H 0.86733 0.64934 0.76945 0.0
C3021 C 0.81672 0.65452 0.7314 0.0
C3022 C 0.81386 0.66732 0.74547 0.0
C3023 C 0.82738 0.64229 0.73436 0.0
C3024 C 0.85968 0.63391 0.76674 0.0
H3025 H 0.87248 0.54429 0.77299 0.0
H3026 H 0.85546 0.56354 0.75985 0.0
H3027 H 0.87724 0.62495 0.78395 0.0
H3028 H 0.82009 0.67763 0.77352 0.0
H3029 H 0.83878 0.65686 0.77846 0.0
H3030 H 0.8218 0.60331 0.74405 0.0
C3031 C 0.86096 0.56801 0.77343 0.0
C3032 C 0.8651 0.62005 0.77528 0.0
C3033 C 0.87069 0.55702 0.78096 0.0
C3034 C 0.82237 0.66832 0.76228 0.0
C3035 C 0.83312 0.65643 0.76514 0.0
C3036 C 0.83419 0.60803 0.75235 0.0
C3037 C 0.86036 0.58587 0.78261 0.0
C3038 C 0.85472 0.6002 0.77299 0.0
C3039 C 0.83538 0.64302 0.75135 0.0
C3040 C 0.84382 0.62809 0.75579 0.0
H3041 H 0.88445 0.58556 0.82073 0.0
H3042 H 0.86671 0.60462 0.80779 0.0
H3043 H 0.83157 0.57883 0.75874 0.0
H3044 H 0.81046 0.65366 0.71828 0.0
H3045 H 0.82897 0.63192 0.7236 0.0
C3046 C 0.8118 0.6293 0.01257 0.0
C3047 C 0.81575 0.65001 0.01394 0.0
C3048 C 0.82531 0.62023 0.01405 0.0
C3049 C 0.86819 0.62272 0.03316 0.0
H3050 H 0.87373 0.59149 -0.00966 0.0
C3051 C 0.92403 0.58352 0.02928 0.0
C3052 C 0.92095 0.56611 0.01748 0.0
C3053 C 0.9118 0.59458 0.02957 0.0
C3054 C 0.87226 0.59976 0.00259 0.0
H3055 H 0.83703 0.67746 0.01862 0.0
H3056 H 0.86077 0.66147 0.0221 0.0
H3057 H 0.85143 0.60906 -0.00968 0.0
H3058 H 0.90218 0.54616 -0.0026 0.0
H3059 H 0.88059 0.56461 -0.00158 0.0
H3060 H 0.88833 0.61271 0.04579 0.0
C3061 C 0.84712 0.65236 0.01952 0.0
C3062 C 0.85955 0.61006 0.00245 0.0
C3063 C 0.83358 0.66149 0.01751 0.0
C3064 C 0.90513 0.55972 0.00638 0.0
C3065 C 0.89277 0.57049 0.00691 0.0
C3066 C 0.8807 0.61203 0.03344 0.0
C3067 C 0.84312 0.63162 0.01745 0.0
C3068 C 0.85734 0.62161 0.0177 0.0
C3069 C 0.89597 0.58832 0.01829 0.0
C3070 C 0.8829 0.60023 0.01815 0.0
H3071 H 0.79825 0.62 0.00962 0.0
H3072 H 0.82187 0.60424 0.01233 0.0
H3073 H 0.86664 0.6314 0.04516 0.0
H3074 H 0.93612 0.58886 0.03799 0.0
H3075 H 0.91502 0.60824 0.03842 0.0
C3076 C 0.18314 0.07851 0.82075 0.0
C3077 C 0.17088 0.06508 0.80804 0.0
C3078 C 0.19261 0.097 0.81666 0.0
C3079 C 0.19307 0.13352 0.7863 0.0
H3080 H 0.24412 0.14816 0.79657 0.0
C3081 C 0.23977 0.19831 0.75796 0.0
C3082 C 0.25403 0.2106 0.76934 0.0
C3083 C 0.22957 0.1806 0.76292 0.0
C3084 C 0.22987 0.14442 0.79384 0.0
H3085 H 0.15848 0.06079 0.78127 0.0
H3086 H 0.17516 0.09311 0.77418 0.0
H3087 H 0.22564 0.1176 0.80548 0.0
H3088 H 0.26895 0.21421 0.79472 0.0
H3089 H 0.25087 0.18341 0.80359 0.0
H3090 H 0.19726 0.1604 0.77477 0.0
C3091 C 0.17735 0.08927 0.78729 0.0
C3092 C 0.21933 0.12695 0.79893 0.0
C3093 C 0.16792 0.07074 0.79133 0.0
C3094 C 0.25814 0.20482 0.78563 0.0
C3095 C 0.2478 0.18722 0.79069 0.0
C3096 C 0.20361 0.15109 0.78133 0.0
C3097 C 0.18993 0.10241 0.79984 0.0
C3098 C 0.20087 0.12133 0.79511 0.0
C3099 C 0.23334 0.17503 0.77943 0.0
C3100 C 0.22212 0.15661 0.78495 0.0
H3101 H 0.18559 0.07469 0.8338 0.0
H3102 H 0.20211 0.10705 0.82661 0.0
H3103 H 0.17882 0.12952 0.78337 0.0
H3104 H 0.23644 0.20243 0.74526 0.0
H3105 H 0.21873 0.17129 0.75383 0.0
C3106 C 0.3821 0.97697 0.30467 0.0
C3107 C 0.39428 0.98528 0.29285 0.0
C3108 C 0.37026 0.95816 0.30025 0.0
C3109 C 0.34912 0.92015 0.26276 0.0
H3110 H 0.33977 0.88616 0.29981 0.0
C3111 C 0.31176 0.83663 0.25088 0.0
C3112 C 0.30076 0.82842 0.26372 0.0
C3113 C 0.3216 0.85651 0.25336 0.0
C3114 C 0.34199 0.89558 0.28939 0.0
H3115 H 0.40361 0.98033 0.26704 0.0
H3116 H 0.38315 0.94702 0.25952 0.0
H3117 H 0.36107 0.91874 0.30603 0.0
H3118 H 0.29058 0.83486 0.28871 0.0
H3119 H 0.30783 0.8698 0.29309 0.0
H3120 H 0.33018 0.89664 0.24604 0.0
C3121 C 0.3826 0.95529 0.2721 0.0
C3122 C 0.35426 0.91425 0.29293 0.0
C3123 C 0.3944 0.97429 0.27646 0.0
C3124 C 0.29901 0.84076 0.27865 0.0
C3125 C 0.30898 0.8607 0.28119 0.0
C3126 C 0.33685 0.90136 0.25918 0.0
C3127 C 0.37041 0.94702 0.28399 0.0
C3128 C 0.35788 0.92684 0.27973 0.0
C3129 C 0.32073 0.86863 0.26878 0.0
C3130 C 0.33308 0.88893 0.27252 0.0
H3131 H 0.3814 0.98516 0.31724 0.0
H3132 H 0.36077 0.95245 0.30954 0.0
H3133 H 0.3515 0.92956 0.25233 0.0
H3134 H 0.3132 0.82754 0.23908 0.0
H3135 H 0.33055 0.86211 0.24358 0.0
C3136 C 0.55154 0.33077 0.563 0.0
C3137 C 0.56008 0.33341 0.58008 0.0
C3138 C 0.55023 0.34701 0.55474 0.0
C3139 C 0.56524 0.40189 0.55688 0.0
H3140 H 0.51681 0.39434 0.53822 0.0
C3141 C 0.54094 0.46794 0.53986 0.0
C3142 C 0.52841 0.46505 0.52531 0.0
C3143 C 0.54543 0.45193 0.54596 0.0
C3144 C 0.53048 0.39673 0.54307 0.0
H3145 H 0.5752 0.35528 0.60126 0.0
H3146 H 0.57309 0.38378 0.58676 0.0
H3147 H 0.52516 0.36685 0.54865 0.0
H3148 H 0.51068 0.44286 0.50586 0.0
H3149 H 0.51881 0.41503 0.51612 0.0
H3150 H 0.5706 0.43177 0.5512 0.0
C3151 C 0.56741 0.36909 0.57973 0.0
C3152 C 0.53529 0.38088 0.54909 0.0
C3153 C 0.56878 0.35275 0.588 0.0
C3154 C 0.52028 0.44565 0.51719 0.0
C3155 C 0.52494 0.42963 0.52315 0.0
C3156 C 0.56046 0.41775 0.5507 0.0
C3157 C 0.55735 0.36636 0.56337 0.0
C3158 C 0.55272 0.38322 0.55616 0.0
C3159 C 0.5377 0.43252 0.53756 0.0
C3160 C 0.54296 0.41547 0.54381 0.0
H3161 H 0.54471 0.31605 0.55654 0.0
H3162 H 0.54282 0.34434 0.54195 0.0
H3163 H 0.5788 0.40422 0.56209 0.0
H3164 H 0.54734 0.48265 0.54659 0.0
H3165 H 0.55494 0.45482 0.55736 0.0
C3166 C 0.44472 0.76394 0.35681 0.0
C3167 C 0.44371 0.75155 0.37012 0.0
C3168 C 0.42942 0.76465 0.34723 0.0
C3169 C 0.38225 0.73588 0.33508 0.0
H3170 H 0.38008 0.78445 0.3175 0.0
C3171 C 0.31911 0.74916 0.30175 0.0
C3172 C 0.32127 0.75691 0.28558 0.0
C3173 C 0.33375 0.74728 0.31181 0.0
C3174 C 0.38058 0.77076 0.32222 0.0
H3175 H 0.42568 0.73062 0.38422 0.0
H3176 H 0.39877 0.73224 0.36779 0.0
H3177 H 0.40562 0.78454 0.33688 0.0
H3178 H 0.34024 0.76873 0.26715 0.0
H3179 H 0.36604 0.76629 0.28518 0.0
H3180 H 0.35679 0.72239 0.32073 0.0
C3181 C 0.4115 0.74112 0.36449 0.0
C3182 C 0.39524 0.77075 0.33331 0.0
C3183 C 0.42691 0.74035 0.37406 0.0
C3184 C 0.33826 0.76259 0.27953 0.0
C3185 C 0.35298 0.76128 0.28985 0.0
C3186 C 0.36743 0.736 0.32421 0.0
C3187 C 0.41258 0.7531 0.35076 0.0
C3188 C 0.39639 0.75328 0.33977 0.0
C3189 C 0.35086 0.75371 0.30613 0.0
C3190 C 0.36654 0.7534 0.31757 0.0
H3191 H 0.45743 0.77276 0.35337 0.0
H3192 H 0.43091 0.77383 0.33664 0.0
H3193 H 0.38276 0.72206 0.33949 0.0
H3194 H 0.3061 0.74463 0.30662 0.0
H3195 H 0.33178 0.74144 0.32432 0.0
C3196 C 0.05242 0.72339 0.0981 0.0
C3197 C 0.05008 0.73743 0.08731 0.0
C3198 C 0.05256 0.70458 0.0906 0.0
C3199 C 0.05883 0.67584 0.04944 0.0
H3200 H 0.02706 0.63129 0.06759 0.0
C3201 C 0.05163 0.59334 0.0229 0.0
C3202 C 0.03425 0.58045 0.02099 0.0
C3203 C 0.05519 0.61282 0.03127 0.0
C3204 C 0.03599 0.64354 0.06232 0.0
H3205 H 0.04669 0.74318 0.06032 0.0
H3206 H 0.04767 0.7106 0.04714 0.0
H3207 H 0.03081 0.66473 0.08177 0.0
H3208 H 0.00693 0.57833 0.02583 0.0
H3209 H 0.01307 0.61195 0.04 0.0
H3210 H 0.06376 0.65463 0.02976 0.0
C3211 C 0.04919 0.714 0.06138 0.0
C3212 C 0.03828 0.66272 0.07059 0.0
C3213 C 0.04858 0.73262 0.0689 0.0
C3214 C 0.02053 0.58769 0.0272 0.0
C3215 C 0.02406 0.60702 0.03548 0.0
C3216 C 0.05668 0.6566 0.04125 0.0
C3217 C 0.05079 0.6996 0.07214 0.0
C3218 C 0.04953 0.67914 0.06411 0.0
C3219 C 0.04145 0.6198 0.0379 0.0
C3220 C 0.04497 0.64021 0.04738 0.0
H3221 H 0.05336 0.72667 0.11234 0.0
H3222 H 0.05384 0.69384 0.09925 0.0
H3223 H 0.06771 0.68818 0.04422 0.0
H3224 H 0.06253 0.58822 0.01842 0.0
H3225 H 0.06876 0.62224 0.03297 0.0
C3226 C 0.0545 0.28591 0.86643 0.0
C3227 C 0.04426 0.26794 0.8714 0.0
C3228 C 0.07049 0.28713 0.85882 0.0
C3229 C 0.09339 0.25642 0.83338 0.0
H3230 H 0.1356 0.30046 0.84708 0.0
C3231 C 0.16043 0.25772 0.80573 0.0
C3232 C 0.17114 0.27579 0.80137 0.0
C3233 C 0.14544 0.25695 0.81498 0.0
C3234 C 0.12389 0.28817 0.84292 0.0
H3235 H 0.04297 0.23719 0.87244 0.0
H3236 H 0.07075 0.2393 0.85905 0.0
H3237 H 0.10863 0.29889 0.86189 0.0
H3238 H 0.17462 0.30735 0.80387 0.0
H3239 H 0.14833 0.30597 0.81967 0.0
H3240 H 0.1084 0.24582 0.81421 0.0
C3241 C 0.0664 0.25245 0.86102 0.0
C3242 C 0.10843 0.28726 0.85146 0.0
C3243 C 0.05053 0.25129 0.86883 0.0
C3244 C 0.16659 0.29313 0.8068 0.0
C3245 C 0.15159 0.29236 0.81606 0.0
C3246 C 0.10878 0.25738 0.82476 0.0
C3247 C 0.0765 0.27034 0.85579 0.0
C3248 C 0.09301 0.27134 0.84682 0.0
C3249 C 0.14069 0.27423 0.82015 0.0
C3250 C 0.12429 0.27324 0.82943 0.0
H3251 H 0.05005 0.299 0.86821 0.0
H3252 H 0.0779 0.30109 0.85484 0.0
H3253 H 0.08165 0.24412 0.82927 0.0
H3254 H 0.16337 0.24402 0.80163 0.0
H3255 H 0.13757 0.24274 0.81809 0.0
C3256 C 0.52787 0.69125 0.89575 0.0
C3257 C 0.51722 0.70369 0.9006 0.0
C3258 C 0.52832 0.67474 0.90497 0.0
C3259 C 0.51416 0.6512 0.94774 0.0
H3260 H 0.52541 0.60584 0.92455 0.0
C3261 C 0.51792 0.58459 0.98804 0.0
C3262 C 0.51702 0.56561 0.97949 0.0
C3263 C 0.51816 0.60095 0.97854 0.0
C3264 C 0.52204 0.61814 0.93151 0.0
H3265 H 0.49873 0.70741 0.91972 0.0
H3266 H 0.49953 0.67969 0.93532 0.0
H3267 H 0.52554 0.63376 0.90854 0.0
H3268 H 0.51552 0.54995 0.95333 0.0
H3269 H 0.51549 0.57768 0.937 0.0
H3270 H 0.51019 0.63562 0.97051 0.0
C3271 C 0.50784 0.68249 0.92452 0.0
C3272 C 0.52235 0.63466 0.92213 0.0
C3273 C 0.5073 0.69873 0.9153 0.0
C3274 C 0.51625 0.56401 0.96078 0.0
C3275 C 0.51638 0.58034 0.95125 0.0
C3276 C 0.51382 0.63473 0.95708 0.0
C3277 C 0.51827 0.66979 0.9197 0.0
C3278 C 0.51837 0.65178 0.92991 0.0
C3279 C 0.51742 0.59949 0.95976 0.0
C3280 C 0.51775 0.61754 0.94936 0.0
H3281 H 0.53561 0.69394 0.8845 0.0
H3282 H 0.53672 0.66589 0.90048 0.0
H3283 H 0.51121 0.66371 0.95483 0.0
H3284 H 0.51867 0.58699 0.00231 0.0
H3285 H 0.51925 0.61495 0.98623 0.0
C3286 C 0.08886 0.78752 0.70813 0.0
C3287 C 0.08154 0.78255 0.6903 0.0
C3288 C 0.1059 0.78615 0.71383 0.0
C3289 C 0.14378 0.76448 0.70002 0.0
H3290 H 0.16869 0.79644 0.74286 0.0
C3291 C 0.21046 0.75293 0.73267 0.0
C3292 C 0.22382 0.76924 0.74193 0.0
C3293 C 0.19359 0.75447 0.72626 0.0
C3294 C 0.16219 0.78735 0.73078 0.0
H3295 H 0.08779 0.77184 0.66461 0.0
H3296 H 0.11734 0.76953 0.67434 0.0
H3297 H 0.14026 0.79968 0.73195 0.0
H3298 H 0.2287 0.80019 0.7516 0.0
H3299 H 0.19969 0.80277 0.74104 0.0
H3300 H 0.16595 0.75231 0.6989 0.0
C3301 C 0.10973 0.7746 0.68416 0.0
C3302 C 0.14538 0.78905 0.72446 0.0
C3303 C 0.09257 0.77616 0.67839 0.0
C3304 C 0.21916 0.78712 0.74461 0.0
C3305 C 0.20218 0.78857 0.73851 0.0
C3306 C 0.16056 0.76266 0.70645 0.0
C3307 C 0.11697 0.77951 0.70214 0.0
C3308 C 0.13553 0.77771 0.70883 0.0
C3309 C 0.18884 0.77235 0.72898 0.0
C3310 C 0.17039 0.77409 0.72202 0.0
H3311 H 0.0812 0.7924 0.71805 0.0
H3312 H 0.11012 0.78991 0.72776 0.0
H3313 H 0.13715 0.75514 0.68812 0.0
H3314 H 0.21312 0.73882 0.7301 0.0
H3315 H 0.18412 0.74137 0.71928 0.0
C3316 C 0.02807 0.31334 0.41625 0.0
C3317 C 0.02142 0.30806 0.39835 0.0
C3318 C 0.02888 0.33203 0.42561 0.0
C3319 C 0.00997 0.37614 0.42397 0.0
H3320 H 0.04481 0.39977 0.46352 0.0
C3321 C 0.01494 0.45514 0.46252 0.0
C3322 C 0.02101 0.45955 0.48068 0.0
C3323 C 0.01519 0.43727 0.45231 0.0
C3324 C 0.03472 0.39346 0.4527 0.0
H3325 H 0.0098 0.31883 0.37671 0.0
H3326 H 0.0114 0.35114 0.3926 0.0
H3327 H 0.04528 0.36899 0.4466 0.0
H3328 H 0.03209 0.44752 0.50186 0.0
H3329 H 0.03243 0.41684 0.48446 0.0
H3330 H -0.00057 0.40068 0.43009 0.0
C3331 C 0.0162 0.34097 0.39962 0.0
C3332 C 0.03501 0.37546 0.4428 0.0
C3333 C 0.01556 0.32235 0.39026 0.0
C3334 C 0.02733 0.4451 0.48803 0.0
C3335 C 0.02763 0.42729 0.47784 0.0
C3336 C 0.00969 0.39417 0.43387 0.0
C3337 C 0.02268 0.34631 0.41767 0.0
C3338 C 0.0226 0.36617 0.42817 0.0
C3339 C 0.0216 0.4228 0.45965 0.0
C3340 C 0.02201 0.40335 0.44862 0.0
H3341 H 0.03218 0.3027 0.42328 0.0
H3342 H 0.03376 0.33488 0.4394 0.0
H3343 H -0.00012 0.36982 0.41315 0.0
H3344 H 0.00997 0.46561 0.45607 0.0
H3345 H 0.01055 0.435 0.43846 0.0
C3346 C 0.45495 0.27791 0.17062 0.0
C3347 C 0.46982 0.27629 0.18097 0.0
C3348 C 0.43841 0.2775 0.17788 0.0
C3349 C 0.41115 0.26317 0.21779 0.0
H3350 H 0.38207 0.29393 0.20037 0.0
C3351 C 0.33782 0.25583 0.24095 0.0
C3352 C 0.33116 0.27247 0.2423 0.0
C3353 C 0.35448 0.25629 0.23397 0.0
C3354 C 0.38985 0.28517 0.20562 0.0
H3355 H 0.47772 0.27268 0.20767 0.0
H3356 H 0.44942 0.27139 0.21991 0.0
H3357 H 0.41007 0.29458 0.18767 0.0
H3358 H 0.33806 0.3028 0.23665 0.0
H3359 H 0.36626 0.30345 0.22434 0.0
H3360 H 0.39085 0.25361 0.23563 0.0
C3361 C 0.45039 0.27313 0.20606 0.0
C3362 C 0.40618 0.28542 0.19807 0.0
C3363 C 0.46697 0.27395 0.19892 0.0
C3364 C 0.34224 0.28953 0.23611 0.0
C3365 C 0.35867 0.28986 0.2288 0.0
C3366 C 0.39466 0.26263 0.22511 0.0
C3367 C 0.43552 0.27502 0.19586 0.0
C3368 C 0.41747 0.2745 0.20392 0.0
C3369 C 0.36542 0.27326 0.22746 0.0
C3370 C 0.38343 0.27368 0.21936 0.0
H3371 H 0.45615 0.27984 0.15683 0.0
H3372 H 0.42772 0.27892 0.16915 0.0
H3373 H 0.41888 0.25432 0.22297 0.0
H3374 H 0.33014 0.24226 0.24539 0.0
H3375 H 0.35858 0.24297 0.23337 0.0
C3376 C 0.60703 0.54172 0.34877 0.0
C3377 C 0.6218 0.53441 0.34883 0.0
C3378 C 0.59904 0.54407 0.36433 0.0
C3379 C 0.59152 0.51407 0.39858 0.0
H3380 H 0.56341 0.54684 0.41754 0.0
C3381 C 0.55274 0.49911 0.45876 0.0
C3382 C 0.53615 0.50258 0.45869 0.0
C3383 C 0.56303 0.5035 0.44475 0.0
C3384 C 0.57107 0.53751 0.41212 0.0
H3385 H 0.64182 0.52755 0.36547 0.0
H3386 H 0.62796 0.53191 0.39262 0.0
H3387 H 0.5851 0.55933 0.39653 0.0
H3388 H 0.51661 0.51204 0.4437 0.0
H3389 H 0.53472 0.51962 0.41893 0.0
H3390 H 0.57731 0.49207 0.41363 0.0
C3391 C 0.62231 0.53526 0.38052 0.0
C3392 C 0.58356 0.54474 0.40038 0.0
C3393 C 0.63018 0.53268 0.36497 0.0
C3394 C 0.52939 0.5092 0.44394 0.0
C3395 C 0.53977 0.51374 0.42993 0.0
C3396 C 0.57903 0.50684 0.41015 0.0
C3397 C 0.60589 0.53925 0.37996 0.0
C3398 C 0.59399 0.53311 0.39371 0.0
C3399 C 0.55685 0.51146 0.43054 0.0
C3400 C 0.56883 0.51854 0.4171 0.0
H3401 H 0.60055 0.54365 0.33653 0.0
H3402 H 0.58644 0.54735 0.36366 0.0
H3403 H 0.59893 0.50451 0.39305 0.0
H3404 H 0.55809 0.49381 0.46995 0.0
H3405 H 0.5762 0.50166 0.44549 0.0
C3406 C 0.28267 0.87945 0.0452 0.0
C3407 C 0.28983 0.87253 0.03029 0.0
C3408 C 0.28428 0.87189 0.06112 0.0
C3409 C 0.31545 0.8501 0.0824 0.0
H3410 H 0.28424 0.84548 0.12022 0.0
C3411 C 0.32259 0.81134 0.14302 0.0
C3412 C 0.31873 0.81936 0.1594 0.0
C3413 C 0.32077 0.82018 0.12792 0.0
C3414 C 0.29317 0.84706 0.10983 0.0
H3415 H 0.30194 0.85066 0.01938 0.0
H3416 H 0.30386 0.83664 0.04692 0.0
H3417 H 0.27432 0.85293 0.09163 0.0
H3418 H 0.31165 0.84404 0.17306 0.0
H3419 H 0.30803 0.85923 0.1464 0.0
H3420 H 0.33411 0.84377 0.10047 0.0
C3421 C 0.29783 0.84852 0.04662 0.0
C3422 C 0.28746 0.85117 0.09346 0.0
C3423 C 0.29654 0.85633 0.03084 0.0
C3424 C 0.31431 0.83725 0.16055 0.0
C3425 C 0.31227 0.84597 0.14536 0.0
C3426 C 0.32108 0.84585 0.09868 0.0
C3427 C 0.2928 0.85712 0.06216 0.0
C3428 C 0.29846 0.85244 0.07951 0.0
C3429 C 0.31493 0.8371 0.12887 0.0
C3430 C 0.30992 0.84407 0.11245 0.0
H3431 H 0.2775 0.89202 0.04506 0.0
H3432 H 0.28022 0.87877 0.07284 0.0
H3433 H 0.32449 0.85165 0.0721 0.0
H3434 H 0.32581 0.79747 0.14158 0.0
H3435 H 0.32279 0.813 0.11531 0.0
C3436 C 0.96584 0.55094 0.83483 0.0
C3437 C 0.96257 0.53867 0.81869 0.0
C3438 C 0.97042 0.54409 0.85017 0.0
C3439 C 0.9893 0.51096 0.86998 0.0
H3440 H 0.95913 0.51848 0.90702 0.0
C3441 C 0.00793 0.50437 0.94207 0.0
C3442 C 0.00692 0.52048 0.95381 0.0
C3443 C -0.0003 0.50103 0.92502 0.0
C3444 C 0.96759 0.51616 0.89679 0.0
H3445 H 0.96266 0.51025 0.80546 0.0
H3446 H 0.97128 0.49824 0.8327 0.0
H3447 H 0.95132 0.52346 0.87693 0.0
H3448 H -0.00357 0.54554 0.95733 0.0
H3449 H 0.98275 0.54033 0.92729 0.0
H3450 H 0.00629 0.5051 0.89002 0.0
C3451 C 0.97007 0.51308 0.83329 0.0
C3452 C 0.96309 0.51891 0.87963 0.0
C3453 C 0.96539 0.52 0.8178 0.0
C3454 C -0.00257 0.53308 0.94842 0.0
C3455 C 0.98941 0.5299 0.93132 0.0
C3456 C -0.00609 0.50836 0.88722 0.0
C3457 C 0.97181 0.52484 0.8496 0.0
C3458 C 0.97437 0.51724 0.86633 0.0
C3459 C -0.00946 0.5139 0.91944 0.0
C3460 C 0.98353 0.5119 0.90089 0.0
H3461 H 0.96373 0.56541 0.83576 0.0
H3462 H 0.97216 0.55354 0.86261 0.0
H3463 H -0.00189 0.50959 0.85983 0.0
H3464 H 0.01481 0.49415 0.94615 0.0
H3465 H 0.00057 0.48847 0.91618 0.0
C3466 C 0.30072 0.21543 0.56675 0.0
C3467 C 0.28695 0.2129 0.55342 0.0
C3468 C 0.29831 0.21988 0.58466 0.0
C3469 C 0.27345 0.24276 0.61556 0.0
H3470 H 0.28641 0.21048 0.64868 0.0
C3471 C 0.26415 0.25575 0.6914 0.0
C3472 C 0.27611 0.25142 0.7036 0.0
C3473 C 0.2644 0.25087 0.67302 0.0
C3474 C 0.283 0.21999 0.63981 0.0
H3475 H 0.25984 0.2135 0.54874 0.0
H3476 H 0.25594 0.22236 0.58004 0.0
H3477 H 0.28911 0.20308 0.61732 0.0
H3478 H 0.29796 0.23869 0.70552 0.0
H3479 H 0.29875 0.23081 0.67403 0.0
H3480 H 0.26797 0.26019 0.63804 0.0
C3481 C 0.26854 0.22051 0.57654 0.0
C3482 C 0.28444 0.21557 0.62166 0.0
C3483 C 0.27076 0.21541 0.55859 0.0
C3484 C 0.28838 0.24218 0.69674 0.0
C3485 C 0.28872 0.23745 0.67845 0.0
C3486 C 0.2723 0.24743 0.63381 0.0
C3487 C 0.28221 0.22252 0.58989 0.0
C3488 C 0.27981 0.22693 0.60922 0.0
C3489 C 0.2767 0.24157 0.66613 0.0
C3490 C 0.2772 0.23624 0.64637 0.0
H3491 H 0.31329 0.21337 0.56339 0.0
H3492 H 0.30916 0.22134 0.59447 0.0
H3493 H 0.26986 0.25193 0.60642 0.0
H3494 H 0.25448 0.26284 0.69604 0.0
H3495 H 0.25473 0.25419 0.66424 0.0
C3496 C 0.6146 0.54353 0.24968 0.0
C3497 C 0.61725 0.52585 0.25409 0.0
C3498 C 0.60701 0.54432 0.23305 0.0
C3499 C 0.57761 0.51311 0.19635 0.0
H3500 H 0.59477 0.55917 0.172 0.0
C3501 C 0.55003 0.52077 0.12661 0.0
C3502 C 0.54733 0.53912 0.12446 0.0
C3503 C 0.55831 0.51807 0.14231 0.0
C3504 C 0.58977 0.5463 0.17874 0.0
H3505 H 0.61443 0.49521 0.24447 0.0
H3506 H 0.60115 0.49664 0.21521 0.0
H3507 H 0.61105 0.55632 0.1991 0.0
H3508 H 0.5506 0.56881 0.13708 0.0
H3509 H 0.56499 0.56406 0.16466 0.0
H3510 H 0.55627 0.50316 0.17595 0.0
C3511 C 0.60485 0.50981 0.22474 0.0
C3512 C 0.59909 0.54465 0.19419 0.0
C3513 C 0.61253 0.50904 0.24141 0.0
C3514 C 0.55246 0.55451 0.13847 0.0
C3515 C 0.56084 0.55185 0.15413 0.0
C3516 C 0.56831 0.51473 0.18083 0.0
C3517 C 0.60191 0.52743 0.22049 0.0
C3518 C 0.59294 0.5282 0.20328 0.0
C3519 C 0.56411 0.53374 0.15604 0.0
C3520 C 0.57418 0.53151 0.17208 0.0
H3521 H 0.61812 0.55674 0.25918 0.0
H3522 H 0.60468 0.55802 0.2302 0.0
H3523 H 0.57249 0.50037 0.20323 0.0
H3524 H 0.54601 0.50861 0.11602 0.0
H3525 H 0.56072 0.50398 0.14349 0.0
C3526 C 0.27911 0.85662 0.94363 0.0
C3527 C 0.29099 0.87565 0.94531 0.0
C3528 C 0.27574 0.84476 0.92732 0.0
C3529 C 0.29559 0.84031 0.88493 0.0
H3530 H 0.24838 0.80753 0.86707 0.0
C3531 C 0.27842 0.81228 0.81219 0.0
C3532 C 0.27036 0.79193 0.80769 0.0
C3533 C 0.27964 0.82088 0.82957 0.0
C3534 C 0.26163 0.81647 0.87203 0.0
H3535 H 0.30835 0.89775 0.93181 0.0
H3536 H 0.30193 0.87752 0.90314 0.0
H3537 H 0.25311 0.82596 0.89669 0.0
H3538 H 0.25655 0.76469 0.81763 0.0
H3539 H 0.25866 0.77995 0.84827 0.0
H3540 H 0.30399 0.83136 0.86011 0.0
C3541 C 0.29559 0.87136 0.91433 0.0
C3542 C 0.26437 0.82696 0.88895 0.0
C3543 C 0.29912 0.88302 0.93062 0.0
C3544 C 0.26276 0.78045 0.82075 0.0
C3545 C 0.26398 0.78912 0.83823 0.0
C3546 C 0.29282 0.83002 0.86804 0.0
C3547 C 0.28414 0.85196 0.91257 0.0
C3548 C 0.28131 0.83936 0.89538 0.0
C3549 C 0.27283 0.8093 0.84279 0.0
C3550 C 0.27577 0.8184 0.86131 0.0
H3551 H 0.27294 0.85073 0.955 0.0
H3552 H 0.26699 0.82983 0.9264 0.0
H3553 H 0.3089 0.84923 0.8897 0.0
H3554 H 0.28418 0.82153 0.80236 0.0
H3555 H 0.2862 0.83657 0.83275 0.0
C3556 C 0.9525 0.53558 0.74671 0.0
C3557 C 0.93502 0.52543 0.74008 0.0
C3558 C 0.9665 0.52926 0.74035 0.0
C3559 C 0.97526 0.49406 0.70401 0.0
H3560 H -0.00064 0.5434 0.68694 0.0
C3561 C 0.98392 0.50033 0.63137 0.0
C3562 C 0.00111 0.50914 0.62683 0.0
C3563 C 0.98029 0.50138 0.64901 0.0
C3564 C -0.007 0.52952 0.69174 0.0
H3565 H 0.91803 0.49931 0.72422 0.0
H3566 H 0.94206 0.48854 0.71277 0.0
H3567 H 0.98704 0.54412 0.71528 0.0
H3568 H 0.02761 0.52713 0.63665 0.0
H3569 H 0.02104 0.52949 0.66768 0.0
H3570 H 0.9798 0.47974 0.67938 0.0
C3571 C 0.9454 0.5012 0.72284 0.0
C3572 C 0.9861 0.52984 0.70814 0.0
C3573 C 0.9315 0.50744 0.72925 0.0
C3574 C 0.01431 0.52008 0.63999 0.0
C3575 C 0.0106 0.52139 0.65763 0.0
C3576 C 0.98186 0.49379 0.68746 0.0
C3577 C 0.96304 0.5131 0.727 0.0
C3578 C 0.97614 0.51216 0.71395 0.0
C3579 C -0.00626 0.51147 0.66228 0.0
C3580 C -0.01003 0.51158 0.6809 0.0
H3581 H 0.95545 0.54957 0.75508 0.0
H3582 H 0.97996 0.53837 0.74425 0.0
H3583 H 0.96809 0.48017 0.70829 0.0
H3584 H 0.97356 0.49182 0.62139 0.0
H3585 H 0.96705 0.49406 0.65234 0.0
C3586 C 0.2717 0.20573 0.44279 0.0
C3587 C 0.28439 0.21695 0.45643 0.0
C3588 C 0.27155 0.2114 0.42562 0.0
C3589 C 0.28753 0.25363 0.39895 0.0
H3590 H 0.28204 0.21209 0.36022 0.0
C3591 C 0.29633 0.27093 0.32546 0.0
C3592 C 0.28612 0.25692 0.31164 0.0
C3593 C 0.29636 0.26674 0.34319 0.0
C3594 C 0.2833 0.22398 0.37071 0.0
H3595 H 0.30645 0.24361 0.46242 0.0
H3596 H 0.30579 0.2538 0.43282 0.0
H3597 H 0.28057 0.20404 0.39036 0.0
H3598 H 0.2679 0.22736 0.30618 0.0
H3599 H 0.26776 0.22025 0.33652 0.0
H3600 H 0.28998 0.27357 0.37929 0.0
C3601 C 0.29602 0.24043 0.43534 0.0
C3602 C 0.28249 0.21929 0.38819 0.0
C3603 C 0.29639 0.23456 0.45242 0.0
C3604 C 0.27608 0.23859 0.31624 0.0
C3605 C 0.2761 0.23442 0.33386 0.0
C3606 C 0.28814 0.25833 0.3814 0.0
C3607 C 0.28389 0.22871 0.42146 0.0
C3608 C 0.28455 0.23397 0.40268 0.0
C3609 C 0.28621 0.24835 0.3478 0.0
C3610 C 0.28598 0.24358 0.36684 0.0
H3611 H 0.26234 0.19199 0.44513 0.0
H3612 H 0.26183 0.20203 0.41549 0.0
H3613 H 0.28907 0.26543 0.40962 0.0
H3614 H 0.30416 0.28528 0.32263 0.0
H3615 H 0.30452 0.27796 0.35326 0.0
C3616 C 0.31808 0.58513 0.54026 0.0
C3617 C 0.31858 0.60425 0.53664 0.0
C3618 C 0.33044 0.57628 0.53364 0.0
C3619 C 0.37227 0.58386 0.51303 0.0
H3620 H 0.34771 0.53384 0.4849 0.0
C3621 C 0.41221 0.54176 0.47502 0.0
C3622 C 0.40899 0.52243 0.47942 0.0
C3623 C 0.39972 0.55198 0.4778 0.0
C3624 C 0.35474 0.54778 0.49267 0.0
H3625 H 0.33407 0.63031 0.52611 0.0
H3626 H 0.35593 0.61495 0.51494 0.0
H3627 H 0.33087 0.55189 0.50219 0.0
H3628 H 0.38944 0.49783 0.48811 0.0
H3629 H 0.36775 0.51565 0.49311 0.0
H3630 H 0.39618 0.57958 0.50405 0.0
C3631 C 0.34568 0.60663 0.52236 0.0
C3632 C 0.34515 0.55801 0.50266 0.0
C3633 C 0.33322 0.61544 0.52885 0.0
C3634 C 0.39228 0.51272 0.48462 0.0
C3635 C 0.37983 0.52297 0.48748 0.0
C3636 C 0.38188 0.57358 0.50315 0.0
C3637 C 0.34364 0.5866 0.52371 0.0
C3638 C 0.3539 0.57594 0.51317 0.0
C3639 C 0.3839 0.54306 0.48512 0.0
C3640 C 0.37326 0.55527 0.4931 0.0
H3641 H 0.30711 0.57621 0.5465 0.0
H3642 H 0.32896 0.56095 0.53526 0.0
H3643 H 0.37926 0.5977 0.52097 0.0
H3644 H 0.42488 0.54941 0.47061 0.0
H3645 H 0.40297 0.56729 0.47538 0.0
C3646 C 0.82619 0.91091 0.50101 0.0
C3647 C 0.82262 0.89361 0.50929 0.0
C3648 C 0.84363 0.9229 0.50067 0.0
C3649 C 0.88856 0.93362 0.52416 0.0
H3650 H 0.904 0.96264 0.48482 0.0
C3651 C 0.9621 0.97125 0.51524 0.0
C3652 C 0.96678 0.9906 0.5107 0.0
C3653 C 0.94433 0.96054 0.51561 0.0
C3654 C 0.8998 0.95481 0.49599 0.0
H3655 H 0.83474 0.87494 0.52307 0.0
H3656 H 0.86512 0.89545 0.52205 0.0
H3657 H 0.87369 0.94077 0.48342 0.0
H3658 H 0.95653 0.01394 0.50294 0.0
H3659 H 0.92513 -0.00516 0.503 0.0
H3660 H 0.91485 0.94727 0.53647 0.0
C3661 C 0.85443 0.90011 0.5162 0.0
C3662 C 0.88241 0.94224 0.49521 0.0
C3663 C 0.83698 0.88818 0.51662 0.0
C3664 C 0.95326 -0.0009 0.50659 0.0
C3665 C 0.93535 0.98813 0.50653 0.0
C3666 C 0.90596 0.94599 0.52484 0.0
C3667 C 0.85801 0.91787 0.50854 0.0
C3668 C 0.87655 0.93135 0.50925 0.0
C3669 C 0.93071 0.96872 0.51105 0.0
C3670 C 0.91183 0.95665 0.51073 0.0
H3671 H 0.81546 0.9156 0.49528 0.0
H3672 H 0.84573 0.93648 0.49478 0.0
H3673 H 0.8845 0.92595 0.53544 0.0
H3674 H 0.97226 0.96436 0.51854 0.0
H3675 H 0.94122 0.94561 0.51905 0.0
C3676 C 0.85772 0.05491 0.21243 0.0
C3677 C 0.87062 0.05017 0.22284 0.0
C3678 C 0.84967 0.06876 0.21948 0.0
C3679 C 0.84018 0.09109 0.26187 0.0
H3680 H 0.82928 0.12877 0.23331 0.0
C3681 C 0.80803 0.15293 0.2854 0.0
C3682 C 0.79393 0.1534 0.2737 0.0
C3683 C 0.81828 0.14033 0.2808 0.0
C3684 C 0.83227 0.11829 0.2414 0.0
H3685 H 0.88589 0.05609 0.2482 0.0
H3686 H 0.87205 0.08057 0.26051 0.0
H3687 H 0.84627 0.10732 0.2215 0.0
H3688 H 0.77884 0.14109 0.24862 0.0
H3689 H 0.79657 0.11896 0.24063 0.0
H3690 H 0.82601 0.10213 0.28173 0.0
C3691 C 0.86784 0.07345 0.24713 0.0
C3692 C 0.8419 0.10602 0.23464 0.0
C3693 C 0.87578 0.05957 0.24011 0.0
C3694 C 0.78963 0.14072 0.25781 0.0
C3695 C 0.79983 0.12828 0.25321 0.0
C3696 C 0.83061 0.10349 0.26868 0.0
C3697 C 0.85459 0.07802 0.23695 0.0
C3698 C 0.84561 0.09203 0.24466 0.0
C3699 C 0.81451 0.1284 0.26441 0.0
C3700 C 0.82624 0.11681 0.25829 0.0
H3701 H 0.85359 0.0476 0.19909 0.0
H3702 H 0.83931 0.07187 0.21144 0.0
H3703 H 0.84279 0.08031 0.26982 0.0
H3704 H 0.81161 0.16292 0.2976 0.0
H3705 H 0.82959 0.1406 0.28959 0.0
C3706 C 0.71657 0.09125 0.00426 0.0
C3707 C 0.72195 0.07466 0.00727 0.0
C3708 C 0.70128 0.0939 0.01104 0.0
C3709 C 0.66465 0.07283 0.0385 0.0
H3710 H 0.63544 0.07747 -0.00231 0.0
C3711 C 0.58781 0.05024 0.03409 0.0
C3712 C 0.58004 0.03787 0.01845 0.0
C3713 C 0.60588 0.06021 0.03587 0.0
C3714 C 0.64346 0.07638 0.00928 0.0
H3715 H 0.71652 0.04828 0.02028 0.0
H3716 H 0.68917 0.05232 0.03165 0.0
H3717 H 0.66735 0.0867 -0.00297 0.0
H3718 H 0.58489 0.0257 -0.00734 0.0
H3719 H 0.61658 0.04264 -0.00406 0.0
H3720 H 0.64036 0.06096 0.0501 0.0
C3721 C 0.69698 0.06364 0.02449 0.0
C3722 C 0.66177 0.08192 0.00903 0.0
C3723 C 0.71239 0.0611 0.01776 0.0
C3724 C 0.59058 0.03532 0.00476 0.0
C3725 C 0.60863 0.04513 0.00659 0.0
C3726 C 0.64622 0.06724 0.03874 0.0
C3727 C 0.69095 0.07969 0.02061 0.0
C3728 C 0.67248 0.07925 0.02326 0.0
C3729 C 0.61638 0.05785 0.02206 0.0
C3730 C 0.63553 0.06799 0.02371 0.0
H3731 H 0.72362 0.10157 -0.00418 0.0
H3732 H 0.69696 0.1064 0.00788 0.0
H3733 H 0.67267 0.07092 0.04974 0.0
H3734 H 0.57985 0.05259 0.04478 0.0
H3735 H 0.61159 0.06996 0.04789 0.0
C3736 C 0.18776 0.47307 0.22818 0.0
C3737 C 0.16954 0.46442 0.22412 0.0
C3738 C 0.19847 0.46129 0.23208 0.0
C3739 C 0.19834 0.41009 0.23828 0.0
H3740 H 0.22385 0.43685 0.28298 0.0
C3741 C 0.22943 0.36898 0.28416 0.0
C3742 C 0.24795 0.37737 0.28614 0.0
C3743 C 0.21852 0.37993 0.27866 0.0
C3744 C 0.21671 0.42923 0.27057 0.0
H3745 H 0.14844 0.43699 0.21819 0.0
H3746 H 0.16693 0.41637 0.22556 0.0
H3747 H 0.20961 0.45461 0.26431 0.0
H3748 H 0.26938 0.40439 0.28617 0.0
H3749 H 0.25026 0.42366 0.27709 0.0
H3750 H 0.20531 0.38459 0.24485 0.0
C3751 C 0.17317 0.43204 0.22556 0.0
C3752 C 0.20883 0.43943 0.25971 0.0
C3753 C 0.16257 0.44381 0.22122 0.0
C3754 C 0.25517 0.39755 0.28479 0.0
C3755 C 0.24423 0.40857 0.27951 0.0
C3756 C 0.20612 0.39983 0.24925 0.0
C3757 C 0.19083 0.44093 0.23247 0.0
C3758 C 0.19987 0.43009 0.2433 0.0
C3759 C 0.22599 0.39948 0.27544 0.0
C3760 C 0.21557 0.40944 0.26534 0.0
H3761 H 0.19327 0.48901 0.23045 0.0
H3762 H 0.21224 0.46839 0.23674 0.0
H3763 H 0.19138 0.40248 0.2258 0.0
H3764 H 0.22352 0.35353 0.28555 0.0
H3765 H 0.20441 0.3728 0.27588 0.0
C3766 C 0.23208 0.41477 0.01596 0.0
C3767 C 0.22981 0.39434 0.01242 0.0
C3768 C 0.2181 0.42271 0.01272 0.0
C3769 C 0.17354 0.41293 0.98851 0.0
H3770 H 0.17192 0.4575 0.02158 0.0
C3771 C 0.11594 0.45079 -0.01127 0.0
C3772 C 0.12137 0.47164 -0.00881 0.0
C3773 C 0.12839 0.44011 -0.00995 0.0
C3774 C 0.17222 0.44517 0.01212 0.0
H3775 H 0.21077 0.36626 0.00232 0.0
H3776 H 0.18605 0.38016 -0.00314 0.0
H3777 H 0.19428 0.44083 0.02678 0.0
H3778 H 0.14437 0.49742 -0.00319 0.0
H3779 H 0.16587 0.4789 -0.00084 0.0
H3780 H 0.15105 0.4173 0.97408 0.0
C3781 C 0.19886 0.39006 0.00208 0.0
C3782 C 0.18513 0.43558 0.01507 0.0
C3783 C 0.21301 0.38204 0.00532 0.0
C3784 C 0.13962 0.48143 -0.00534 0.0
C3785 C 0.15198 0.47079 -0.00381 0.0
C3786 C 0.16041 0.42247 0.98566 0.0
C3787 C 0.20118 0.41054 0.00591 0.0
C3788 C 0.18628 0.41955 0.00316 0.0
C3789 C 0.14655 0.44999 -0.00584 0.0
C3790 C 0.1598 0.43895 -0.0027 0.0
H3791 H 0.24479 0.42485 0.02126 0.0
H3792 H 0.22069 0.43856 0.01544 0.0
H3793 H 0.174 0.40075 0.97897 0.0
H3794 H 0.10204 0.44271 0.98587 0.0
H3795 H 0.12374 0.42411 0.98843 0.0
C3796 C 0.8899 0.94965 0.21873 0.0
C3797 C 0.88004 0.9632 0.21878 0.0
C3798 C 0.88113 0.92943 0.21707 0.0
C3799 C 0.84995 0.90336 0.23859 0.0
H3800 H 0.83164 0.85609 0.20499 0.0
C3801 C 0.79518 0.83728 0.25391 0.0
C3802 C 0.79716 0.81847 0.24961 0.0
C3803 C 0.8069 0.85367 0.2483 0.0
C3804 C 0.83693 0.86915 0.2145 0.0
H3805 H 0.85385 0.96691 0.21537 0.0
H3806 H 0.83848 0.93148 0.21249 0.0
H3807 H 0.84967 0.88682 0.19502 0.0
H3808 H 0.81204 0.80155 0.23528 0.0
H3809 H 0.83305 0.83046 0.22577 0.0
H3810 H 0.83706 0.88627 0.258 0.0
C3811 C 0.85285 0.93636 0.21353 0.0
C3812 C 0.84712 0.88659 0.20879 0.0
C3813 C 0.86158 0.95651 0.21534 0.0
C3814 C 0.81083 0.81611 0.23939 0.0
C3815 C 0.82256 0.83253 0.23366 0.0
C3816 C 0.8398 0.88611 0.24425 0.0
C3817 C 0.86255 0.92284 0.21534 0.0
C3818 C 0.85342 0.90376 0.22084 0.0
C3819 C 0.82069 0.85144 0.23812 0.0
C3820 C 0.83291 0.86897 0.23222 0.0
H3821 H 0.9042 0.95473 0.22142 0.0
H3822 H 0.88873 0.91913 0.21879 0.0
H3823 H 0.85475 0.91661 0.248 0.0
H3824 H 0.7845 0.8393 0.26156 0.0
H3825 H 0.80501 0.86808 0.25166 0.0
C3826 C 0.65612 0.06537 0.73337 0.0
C3827 C 0.65929 0.05579 0.74785 0.0
C3828 C 0.66575 0.08503 0.7326 0.0
C3829 C 0.69426 0.1294 0.76032 0.0
H3830 H 0.71762 0.14146 0.71771 0.0
C3831 C 0.75397 0.19647 0.76251 0.0
C3832 C 0.75384 0.2087 0.74933 0.0
C3833 C 0.74228 0.17748 0.76061 0.0
C3834 C 0.71105 0.13832 0.72962 0.0
H3835 H 0.67466 0.05941 0.77305 0.0
H3836 H 0.69146 0.09327 0.77156 0.0
H3837 H 0.69524 0.10959 0.71787 0.0
H3838 H 0.74223 0.21059 0.72344 0.0
H3839 H 0.72137 0.17748 0.72036 0.0
H3840 H 0.71018 0.15781 0.77221 0.0
C3841 C 0.68136 0.08585 0.76097 0.0
C3842 C 0.69819 0.12019 0.72968 0.0
C3843 C 0.67174 0.06638 0.76179 0.0
C3844 C 0.74256 0.20135 0.73379 0.0
C3845 C 0.73067 0.18243 0.73199 0.0
C3846 C 0.70708 0.14739 0.76027 0.0
C3847 C 0.67863 0.09529 0.74631 0.0
C3848 C 0.69005 0.11543 0.7452 0.0
C3849 C 0.73007 0.1706 0.74566 0.0
C3850 C 0.71591 0.15182 0.74509 0.0
H3851 H 0.64654 0.05758 0.72246 0.0
H3852 H 0.66332 0.09209 0.72124 0.0
H3853 H 0.68793 0.12623 0.77235 0.0
H3854 H 0.7628 0.20175 0.77447 0.0
H3855 H 0.7424 0.16838 0.77111 0.0
loop_
_geom_bond_atom_site_label_1
_geom_bond_atom_site_label_2
_geom_bond_distance
_geom_bond_site_symmetry_2
_ccdc_geom_bond_type
Mg0 O1 2.028 . S
Mg0 O7 1.986 . S
Mg0 O9 2.114 . S
Mg0 O10 2.251 1_455 S
Mg0 O13 2.010 . S
O1 Mg0 2.028 . S
O1 C4 1.250 . S
O2 Mg3 2.028 1_455 S
O2 C4 1.248 . S
Mg3 O2 2.028 1_655 S
Mg3 O8 2.032 1_655 S
Mg3 O10 2.079 . S
C4 O1 1.250 . S
C4 O2 1.248 . S
C5 O6 1.264 . S
C5 O13 1.249 . S
O6 C5 1.264 . S
O7 Mg0 1.986 . S
O7 C11 1.246 . S
O8 Mg3 2.032 1_455 S
O8 C11 1.259 . S
O9 Mg0 2.114 . S
O9 C12 1.252 1_455 S
O10 Mg0 2.251 1_655 S
O10 Mg3 2.079 . S
O10 C12 1.273 . S
C11 O7 1.246 . S
C11 O8 1.259 . S
C12 O9 1.252 1_655 S
C12 O10 1.273 . S
O13 Mg0 2.010 . S
O13 C5 1.249 . S
Mg14 O15 2.028 . S
Mg14 O21 1.986 . S
Mg14 O23 2.114 . S
Mg14 O24 2.251 . S
Mg14 O27 2.010 . S
O15 Mg14 2.028 . S
O15 C18 1.250 . S
O16 Mg17 2.028 . S
O16 C18 1.248 . S
Mg17 O16 2.028 . S
Mg17 O22 2.032 . S
Mg17 O24 2.079 . S
C18 O15 1.250 . S
C18 O16 1.248 . S
C19 O20 1.264 . S
C19 O27 1.249 . S
O20 C19 1.264 . S
O21 Mg14 1.986 . S
O21 C25 1.246 . S
O22 Mg17 2.032 . S
O22 C25 1.259 . S
O23 Mg14 2.114 . S
O23 C26 1.252 . S
O24 Mg14 2.251 . S
O24 Mg17 2.079 . S
O24 C26 1.273 . S
C25 O21 1.246 . S
C25 O22 1.259 . S
C26 O23 1.252 . S
C26 O24 1.273 . S
O27 Mg14 2.010 . S
O27 C19 1.249 . S
Mg28 O29 2.028 . S
Mg28 O35 1.986 . S
Mg28 O37 2.114 . S
Mg28 O38 2.251 . S
Mg28 O41 2.010 . S
O29 Mg28 2.028 . S
O29 C32 1.250 . S
O30 Mg31 2.028 . S
O30 C32 1.248 . S
Mg31 O30 2.028 . S
Mg31 O36 2.032 . S
Mg31 O38 2.079 . S
C32 O29 1.250 . S
C32 O30 1.248 . S
C33 O34 1.264 . S
C33 O41 1.249 . S
O34 C33 1.264 . S
O35 Mg28 1.986 . S
O35 C39 1.246 . S
O36 Mg31 2.032 . S
O36 C39 1.259 . S
O37 Mg28 2.114 . S
O37 C40 1.252 . S
O38 Mg28 2.251 . S
O38 Mg31 2.079 . S
O38 C40 1.273 . S
C39 O35 1.246 . S
C39 O36 1.259 . S
C40 O37 1.252 . S
C40 O38 1.273 . S
O41 Mg28 2.010 . S
O41 C33 1.249 . S
Mg42 O43 2.028 . S
Mg42 O49 1.986 . S
Mg42 O51 2.114 . S
Mg42 O52 2.251 . S
Mg42 O55 2.010 . S
O43 Mg42 2.028 . S
O43 C46 1.250 . S
O44 Mg45 2.028 . S
O44 C46 1.248 . S
Mg45 O44 2.028 . S
Mg45 O50 2.032 . S
Mg45 O52 2.079 . S
C46 O43 1.250 . S
C46 O44 1.248 . S
C47 O48 1.264 . S
C47 O55 1.249 . S
O48 C47 1.264 . S
O49 Mg42 1.986 . S
O49 C53 1.246 . S
O50 Mg45 2.032 . S
O50 C53 1.259 . S
O51 Mg42 2.114 . S
O51 C54 1.252 . S
O52 Mg42 2.251 . S
O52 Mg45 2.079 . S
O52 C54 1.273 . S
C53 O49 1.246 . S
C53 O50 1.259 . S
C54 O51 1.252 . S
C54 O52 1.273 . S
O55 Mg42 2.010 . S
O55 C47 1.249 . S
Mg56 O57 2.028 . S
Mg56 O63 1.986 . S
Mg56 O65 2.114 . S
Mg56 O66 2.251 . S
Mg56 O69 2.010 . S
O57 Mg56 2.028 . S
O57 C60 1.250 . S
O58 Mg59 2.028 . S
O58 C60 1.248 . S
Mg59 O58 2.028 . S
Mg59 O64 2.032 . S
Mg59 O66 2.079 . S
C60 O57 1.250 . S
C60 O58 1.248 . S
C61 O62 1.264 . S
C61 O69 1.249 . S
O62 C61 1.264 . S
O63 Mg56 1.986 . S
O63 C67 1.246 . S
O64 Mg59 2.032 . S
O64 C67 1.259 . S
O65 Mg56 2.114 . S
O65 C68 1.252 . S
O66 Mg56 2.251 . S
O66 Mg59 2.079 . S
O66 C68 1.273 . S
C67 O63 1.246 . S
C67 O64 1.259 . S
C68 O65 1.252 . S
C68 O66 1.273 . S
O69 Mg56 2.010 . S
O69 C61 1.249 . S
Mg70 O71 2.028 . S
Mg70 O77 1.986 . S
Mg70 O79 2.114 . S
Mg70 O80 2.251 . S
Mg70 O83 2.010 . S
O71 Mg70 2.028 . S
O71 C74 1.250 . S
O72 Mg73 2.028 . S
O72 C74 1.248 . S
Mg73 O72 2.028 . S
Mg73 O78 2.032 . S
Mg73 O80 2.079 . S
C74 O71 1.250 . S
C74 O72 1.248 . S
C75 O76 1.264 . S
C75 O83 1.249 . S
O76 C75 1.264 . S
O77 Mg70 1.986 . S
O77 C81 1.246 . S
O78 Mg73 2.032 . S
O78 C81 1.259 . S
O79 Mg70 2.114 . S
O79 C82 1.252 . S
O80 Mg70 2.251 . S
O80 Mg73 2.079 . S
O80 C82 1.273 . S
C81 O77 1.246 . S
C81 O78 1.259 . S
C82 O79 1.252 . S
C82 O80 1.273 . S
O83 Mg70 2.010 . S
O83 C75 1.249 . S
Mg84 O85 2.028 . S
Mg84 O91 1.986 . S
Mg84 O93 2.114 . S
Mg84 O94 2.251 . S
Mg84 O97 2.010 . S
O85 Mg84 2.028 . S
O85 C88 1.250 . S
O86 Mg87 2.028 . S
O86 C88 1.248 . S
Mg87 O86 2.028 . S
Mg87 O92 2.032 . S
Mg87 O94 2.079 . S
C88 O85 1.250 . S
C88 O86 1.248 . S
C89 O90 1.264 . S
C89 O97 1.249 . S
O90 C89 1.264 . S
O91 Mg84 1.986 . S
O91 C95 1.246 . S
O92 Mg87 2.032 . S
O92 C95 1.259 . S
O93 Mg84 2.114 . S
O93 C96 1.252 . S
O94 Mg84 2.251 . S
O94 Mg87 2.079 . S
O94 C96 1.273 . S
C95 O91 1.246 . S
C95 O92 1.259 . S
C96 O93 1.252 . S
C96 O94 1.273 . S
O97 Mg84 2.010 . S
O97 C89 1.249 . S
Mg98 O99 2.028 1_655 S
Mg98 O105 1.986 1_655 S
Mg98 O107 2.114 . S
Mg98 O108 2.251 . S
Mg98 O111 2.010 1_655 S
O99 Mg98 2.028 1_455 S
O99 C102 1.263 . S
O100 Mg101 2.028 . S
O100 C102 1.231 1_655 S
Mg101 O100 2.028 . S
Mg101 O106 2.032 . S
Mg101 O108 2.079 . S
C102 O99 1.263 . S
C102 O100 1.231 1_455 S
C103 O104 1.264 . S
C103 O111 1.249 . S
O104 C103 1.264 . S
O105 Mg98 1.986 1_455 S
O105 C109 1.246 1_455 S
O106 Mg101 2.032 . S
O106 C109 1.259 . S
O107 Mg98 2.114 . S
O107 C110 1.252 . S
O108 Mg98 2.251 . S
O108 Mg101 2.079 . S
O108 C110 1.273 . S
C109 O105 1.246 1_655 S
C109 O106 1.259 . S
C110 O107 1.252 . S
C110 O108 1.273 . S
O111 Mg98 2.010 1_455 S
O111 C103 1.249 . S
Mg112 O113 2.028 . S
Mg112 O119 1.986 . S
Mg112 O121 2.114 . S
Mg112 O122 2.251 . S
Mg112 O125 2.010 . S
O113 Mg112 2.028 . S
O113 C116 1.276 . S
O114 Mg115 2.028 . S
O114 C116 1.265 . S
Mg115 O114 2.028 . S
Mg115 O120 2.032 . S
Mg115 O122 2.079 . S
C116 O113 1.276 . S
C116 O114 1.265 . S
C117 O118 1.264 . S
C117 O125 1.249 . S
O118 C117 1.264 . S
O119 Mg112 1.986 . S
O119 C123 1.246 . S
O120 Mg115 2.032 . S
O120 C123 1.259 . S
O121 Mg112 2.114 . S
O121 C124 1.252 . S
O122 Mg112 2.251 . S
O122 Mg115 2.079 . S
O122 C124 1.273 . S
C123 O119 1.246 . S
C123 O120 1.259 . S
C124 O121 1.252 . S
C124 O122 1.273 . S
O125 Mg112 2.010 . S
O125 C117 1.249 . S
Mg126 O127 2.028 . S
Mg126 O133 1.986 . S
Mg126 O135 2.114 . S
Mg126 O136 2.251 . S
Mg126 O139 2.010 . S
O127 Mg126 2.028 . S
O127 C130 1.250 . S
O128 Mg129 2.028 . S
O128 C130 1.248 . S
Mg129 O128 2.028 . S
Mg129 O134 2.032 . S
Mg129 O136 2.079 . S
C130 O127 1.250 . S
C130 O128 1.248 . S
C131 O132 1.264 . S
C131 O139 1.249 . S
O132 C131 1.264 . S
O133 Mg126 1.986 . S
O133 C137 1.246 . S
O134 Mg129 2.032 . S
O134 C137 1.259 . S
O135 Mg126 2.114 . S
O135 C138 1.252 . S
O136 Mg126 2.251 . S
O136 Mg129 2.079 . S
O136 C138 1.273 . S
C137 O133 1.246 . S
C137 O134 1.259 . S
C138 O135 1.252 . S
C138 O136 1.273 . S
O139 Mg126 2.010 . S
O139 C131 1.249 . S
Mg140 O141 2.028 . S
Mg140 O147 1.986 . S
Mg140 O149 2.114 . S
Mg140 O150 2.251 . S
Mg140 O153 2.010 . S
O141 Mg140 2.028 . S
O141 C144 1.250 . S
O142 Mg143 2.028 . S
O142 C144 1.248 . S
Mg143 O142 2.028 . S
Mg143 O148 2.032 . S
Mg143 O150 2.079 . S
C144 O141 1.250 . S
C144 O142 1.248 . S
C145 O146 1.264 . S
C145 O153 1.249 . S
O146 C145 1.264 . S
O147 Mg140 1.986 . S
O147 C151 1.246 . S
O148 Mg143 2.032 . S
O148 C151 1.259 . S
O149 Mg140 2.114 . S
O149 C152 1.252 . S
O150 Mg140 2.251 . S
O150 Mg143 2.079 . S
O150 C152 1.273 . S
C151 O147 1.246 . S
C151 O148 1.259 . S
C152 O149 1.252 . S
C152 O150 1.273 . S
O153 Mg140 2.010 . S
O153 C145 1.249 . S
Mg154 O155 2.028 1_554 S
Mg154 O161 1.986 . S
Mg154 O163 2.114 1_554 S
Mg154 O164 2.251 . S
Mg154 O167 2.010 . S
O155 Mg154 2.028 1_556 S
O155 C158 1.250 . S
O156 Mg157 2.028 1_556 S
O156 C158 1.248 . S
Mg157 O156 2.028 1_554 S
Mg157 O162 2.032 . S
Mg157 O164 2.079 . S
C158 O155 1.250 . S
C158 O156 1.248 . S
C159 O160 1.264 . S
C159 O167 1.249 . S
O160 C159 1.264 . S
O161 Mg154 1.986 . S
O161 C165 1.246 . S
O162 Mg157 2.032 . S
O162 C165 1.259 . S
O163 Mg154 2.114 1_556 S
O163 C166 1.252 1_556 S
O164 Mg154 2.251 . S
O164 Mg157 2.079 . S
O164 C166 1.273 . S
C165 O161 1.246 . S
C165 O162 1.259 . S
C166 O163 1.252 1_554 S
C166 O164 1.273 . S
O167 Mg154 2.010 . S
O167 C159 1.249 . S
Mg168 O169 2.028 . S
Mg168 O175 1.986 . S
Mg168 O177 2.114 . S
Mg168 O178 2.251 . S
Mg168 O181 2.010 . S
O169 Mg168 2.028 . S
O169 C172 1.250 1_554 S
O170 Mg171 2.052 . S
O170 C172 1.239 1_554 S
Mg171 O170 2.052 . S
Mg171 O176 2.032 . S
Mg171 O178 2.079 . S
C172 O169 1.250 1_556 S
C172 O170 1.239 1_556 S
C173 O174 1.264 . S
C173 O181 1.249 . S
O174 C173 1.264 . S
O175 Mg168 1.986 . S
O175 C179 1.246 . S
O176 Mg171 2.032 . S
O176 C179 1.259 . S
O177 Mg168 2.114 . S
O177 C180 1.252 . S
O178 Mg168 2.251 . S
O178 Mg171 2.079 . S
O178 C180 1.273 . S
C179 O175 1.246 . S
C179 O176 1.259 . S
C180 O177 1.252 . S
C180 O178 1.273 . S
O181 Mg168 2.010 . S
O181 C173 1.249 . S
Mg182 O183 2.028 . S
Mg182 O189 1.986 . S
Mg182 O191 2.114 . S
Mg182 O192 2.251 . S
Mg182 O195 2.010 . S
O183 Mg182 2.028 . S
O183 C186 1.250 . S
O184 Mg185 2.028 . S
O184 C186 1.248 . S
Mg185 O184 2.028 . S
Mg185 O190 2.032 . S
Mg185 O192 2.079 . S
C186 O183 1.250 . S
C186 O184 1.248 . S
C187 O188 1.264 . S
C187 O195 1.249 . S
O188 C187 1.264 . S
O189 Mg182 1.986 . S
O189 C193 1.246 . S
O190 Mg185 2.032 . S
O190 C193 1.259 . S
O191 Mg182 2.114 . S
O191 C194 1.252 . S
O192 Mg182 2.251 . S
O192 Mg185 2.079 . S
O192 C194 1.273 . S
C193 O189 1.246 . S
C193 O190 1.259 . S
C194 O191 1.252 . S
C194 O192 1.273 . S
O195 Mg182 2.010 . S
O195 C187 1.249 . S
Mg196 O197 2.028 . S
Mg196 O203 1.986 . S
Mg196 O205 2.114 . S
Mg196 O206 2.251 . S
Mg196 O209 2.010 . S
O197 Mg196 2.028 . S
O197 C200 1.250 . S
O198 Mg199 2.028 . S
O198 C200 1.248 . S
Mg199 O198 2.028 . S
Mg199 O204 2.032 . S
Mg199 O206 2.079 . S
C200 O197 1.250 . S
C200 O198 1.248 . S
C201 O202 1.264 . S
C201 O209 1.249 . S
O202 C201 1.264 . S
O203 Mg196 1.986 . S
O203 C207 1.246 . S
O204 Mg199 2.032 . S
O204 C207 1.259 . S
O205 Mg196 2.114 . S
O205 C208 1.252 . S
O206 Mg196 2.251 . S
O206 Mg199 2.079 . S
O206 C208 1.273 . S
C207 O203 1.246 . S
C207 O204 1.259 . S
C208 O205 1.252 . S
C208 O206 1.273 . S
O209 Mg196 2.010 . S
O209 C201 1.249 . S
Mg210 O211 2.028 . S
Mg210 O217 1.986 . S
Mg210 O219 2.114 . S
Mg210 O220 2.251 . S
Mg210 O223 2.010 . S
O211 Mg210 2.028 . S
O211 C214 1.250 . S
O212 Mg213 2.028 . S
O212 C214 1.248 . S
Mg213 O212 2.028 . S
Mg213 O218 2.032 . S
Mg213 O220 2.079 . S
C214 O211 1.250 . S
C214 O212 1.248 . S
C215 O216 1.264 . S
C215 O223 1.249 . S
O216 C215 1.264 . S
O217 Mg210 1.986 . S
O217 C221 1.246 . S
O218 Mg213 2.032 . S
O218 C221 1.259 . S
O219 Mg210 2.114 . S
O219 C222 1.252 . S
O220 Mg210 2.251 . S
O220 Mg213 2.079 . S
O220 C222 1.273 . S
C221 O217 1.246 . S
C221 O218 1.259 . S
C222 O219 1.252 . S
C222 O220 1.273 . S
O223 Mg210 2.010 . S
O223 C215 1.249 . S
Mg224 O225 2.028 1_545 S
Mg224 O231 1.986 . S
Mg224 O233 2.114 . S
Mg224 O234 2.251 . S
Mg224 O237 2.010 . S
O225 Mg224 2.028 1_565 S
O225 C228 1.250 . S
O226 Mg227 2.028 1_565 S
O226 C228 1.248 . S
Mg227 O226 2.028 1_545 S
Mg227 O232 2.032 . S
Mg227 O234 2.079 . S
C228 O225 1.250 . S
C228 O226 1.248 . S
C229 O230 1.264 . S
C229 O237 1.249 . S
O230 C229 1.264 . S
O231 Mg224 1.986 . S
O231 C235 1.246 . S
O232 Mg227 2.032 . S
O232 C235 1.259 . S
O233 Mg224 2.114 . S
O233 C236 1.252 . S
O234 Mg224 2.251 . S
O234 Mg227 2.079 . S
O234 C236 1.273 . S
C235 O231 1.246 . S
C235 O232 1.259 . S
C236 O233 1.252 . S
C236 O234 1.273 . S
O237 Mg224 2.010 . S
O237 C229 1.249 . S
Mg238 O239 2.028 . S
Mg238 O245 1.986 . S
Mg238 O247 2.114 . S
Mg238 O248 2.251 . S
Mg238 O251 2.010 . S
O239 Mg238 2.028 . S
O239 C242 1.250 . S
O240 Mg241 2.028 . S
O240 C242 1.248 . S
Mg241 O240 2.028 . S
Mg241 O246 2.032 . S
Mg241 O248 2.079 . S
C242 O239 1.250 . S
C242 O240 1.248 . S
C243 O244 1.264 . S
C243 O251 1.249 . S
O244 C243 1.264 . S
O245 Mg238 1.986 . S
O245 C249 1.246 . S
O246 Mg241 2.032 . S
O246 C249 1.259 . S
O247 Mg238 2.114 . S
O247 C250 1.252 . S
O248 Mg238 2.251 . S
O248 Mg241 2.079 . S
O248 C250 1.273 . S
C249 O245 1.246 . S
C249 O246 1.259 . S
C250 O247 1.252 . S
C250 O248 1.273 . S
O251 Mg238 2.010 . S
O251 C243 1.249 . S
Mg252 O253 2.028 . S
Mg252 O259 1.986 . S
Mg252 O261 2.114 . S
Mg252 O262 2.251 . S
Mg252 O265 2.010 . S
O253 Mg252 2.028 . S
O253 C256 1.250 . S
O254 Mg255 2.028 . S
O254 C256 1.248 . S
Mg255 O254 2.028 . S
Mg255 O260 2.032 . S
Mg255 O262 2.079 . S
C256 O253 1.250 . S
C256 O254 1.248 . S
C257 O258 1.264 . S
C257 O265 1.249 . S
O258 C257 1.264 . S
O259 Mg252 1.986 . S
O259 C263 1.246 . S
O260 Mg255 2.032 . S
O260 C263 1.259 . S
O261 Mg252 2.114 . S
O261 C264 1.252 . S
O262 Mg252 2.251 . S
O262 Mg255 2.079 . S
O262 C264 1.273 . S
C263 O259 1.246 . S
C263 O260 1.259 . S
C264 O261 1.252 . S
C264 O262 1.273 . S
O265 Mg252 2.010 . S
O265 C257 1.249 . S
Mg266 O267 2.028 . S
Mg266 O273 1.986 1_545 S
Mg266 O275 2.114 . S
Mg266 O276 2.251 . S
Mg266 O279 2.010 . S
O267 Mg266 2.028 . S
O267 C270 1.250 . S
O268 Mg269 2.028 . S
O268 C270 1.248 . S
Mg269 O268 2.028 . S
Mg269 O274 2.032 . S
Mg269 O276 2.079 . S
C270 O267 1.250 . S
C270 O268 1.248 . S
C271 O272 1.264 1_545 S
C271 O279 1.249 . S
O272 C271 1.264 1_565 S
O273 Mg266 1.986 1_565 S
O273 C277 1.246 . S
O274 Mg269 2.032 . S
O274 C277 1.259 1_545 S
O275 Mg266 2.114 . S
O275 C278 1.252 . S
O276 Mg266 2.251 . S
O276 Mg269 2.079 . S
O276 C278 1.273 . S
C277 O273 1.246 . S
C277 O274 1.259 1_565 S
C278 O275 1.252 . S
C278 O276 1.273 . S
O279 Mg266 2.010 . S
O279 C271 1.249 . S
Mg280 O281 2.028 . S
Mg280 O287 1.986 1_554 S
Mg280 O289 2.114 . S
Mg280 O290 2.251 . S
Mg280 O293 2.010 . S
O281 Mg280 2.028 . S
O281 C284 1.250 . S
O282 Mg283 2.028 . S
O282 C284 1.248 . S
Mg283 O282 2.028 . S
Mg283 O288 2.032 . S
Mg283 O290 2.079 . S
C284 O281 1.250 . S
C284 O282 1.248 . S
C285 O286 1.301 . S
C285 O293 1.249 . S
O286 C285 1.301 . S
O287 Mg280 1.986 1_556 S
O287 C291 1.246 . S
O288 Mg283 2.032 . S
O288 C291 1.259 1_554 S
O289 Mg280 2.114 . S
O289 C292 1.252 . S
O290 Mg280 2.251 . S
O290 Mg283 2.079 . S
O290 C292 1.273 . S
C291 O287 1.246 . S
C291 O288 1.259 1_556 S
C292 O289 1.252 . S
C292 O290 1.273 . S
O293 Mg280 2.010 . S
O293 C285 1.249 . S
Mg294 O295 2.028 . S
Mg294 O301 1.986 . S
Mg294 O303 2.114 . S
Mg294 O304 2.251 . S
Mg294 O307 2.010 . S
O295 Mg294 2.028 . S
O295 C298 1.250 . S
O296 Mg297 2.028 . S
O296 C298 1.248 . S
Mg297 O296 2.028 . S
Mg297 O302 2.032 . S
Mg297 O304 2.079 . S
C298 O295 1.250 . S
C298 O296 1.248 . S
C299 O300 1.264 . S
C299 O307 1.249 . S
O300 C299 1.264 . S
O301 Mg294 1.986 . S
O301 C305 1.246 . S
O302 Mg297 2.032 . S
O302 C305 1.259 . S
O303 Mg294 2.114 . S
O303 C306 1.252 . S
O304 Mg294 2.251 . S
O304 Mg297 2.079 . S
O304 C306 1.273 . S
C305 O301 1.246 . S
C305 O302 1.259 . S
C306 O303 1.252 . S
C306 O304 1.273 . S
O307 Mg294 2.010 . S
O307 C299 1.249 . S
Mg308 O309 2.028 . S
Mg308 O315 1.986 . S
Mg308 O317 2.114 . S
Mg308 O318 2.251 . S
Mg308 O321 2.010 . S
O309 Mg308 2.028 . S
O309 C312 1.250 . S
O310 Mg311 2.028 . S
O310 C312 1.248 . S
Mg311 O310 2.028 . S
Mg311 O316 2.032 . S
Mg311 O318 2.079 . S
C312 O309 1.250 . S
C312 O310 1.248 . S
C313 O314 1.264 . S
C313 O321 1.249 . S
O314 C313 1.264 . S
O315 Mg308 1.986 . S
O315 C319 1.246 . S
O316 Mg311 2.032 . S
O316 C319 1.259 . S
O317 Mg308 2.114 . S
O317 C320 1.252 . S
O318 Mg308 2.251 . S
O318 Mg311 2.079 . S
O318 C320 1.273 . S
C319 O315 1.246 . S
C319 O316 1.259 . S
C320 O317 1.252 . S
C320 O318 1.273 . S
O321 Mg308 2.010 . S
O321 C313 1.249 . S
Mg322 O323 2.028 . S
Mg322 O329 1.986 . S
Mg322 O331 2.114 . S
Mg322 O332 2.251 . S
Mg322 O335 2.010 . S
O323 Mg322 2.028 . S
O323 C326 1.250 . S
O324 Mg325 2.028 . S
O324 C326 1.248 . S
Mg325 O324 2.028 . S
Mg325 O330 2.032 . S
Mg325 O332 2.079 . S
C326 O323 1.250 . S
C326 O324 1.248 . S
C327 O328 1.264 . S
C327 O335 1.249 . S
O328 C327 1.264 . S
O329 Mg322 1.986 . S
O329 C333 1.246 . S
O330 Mg325 2.032 . S
O330 C333 1.259 . S
O331 Mg322 2.114 . S
O331 C334 1.252 . S
O332 Mg322 2.251 . S
O332 Mg325 2.079 . S
O332 C334 1.273 . S
C333 O329 1.246 . S
C333 O330 1.259 . S
C334 O331 1.252 . S
C334 O332 1.273 . S
O335 Mg322 2.010 . S
O335 C327 1.249 . S
Tb336 C345 2.764 . S
Tb336 O346 2.325 1_545 S
Tb336 O349 2.303 1_554 S
Tb336 O353 2.322 . S
Tb336 O354 2.349 . S
Tb336 O357 2.415 . S
Tb336 O358 2.399 . S
Tb337 O347 2.322 1_545 S
Tb337 O348 2.349 1_554 S
Tb337 O350 2.415 1_455 S
Tb337 O351 2.399 1_454 S
Tb337 O352 2.325 . S
Tb337 O355 2.303 . S
Tb337 C366 2.764 1_454 S
C338 O354 1.261 . S
C338 O355 1.257 . S
C339 C342 1.358 . S
C339 C343 1.332 . S
C339 C345 1.504 . S
C340 C341 1.373 . S
C340 C344 1.313 . S
C341 C340 1.373 . S
C341 C342 1.429 . S
C341 H368 0.932 . S
C342 C339 1.358 . S
C342 C341 1.429 . S
C342 H369 0.930 . S
C343 C339 1.332 . S
C343 C344 1.420 . S
C343 H370 0.933 . S
C344 C340 1.313 . S
C344 C343 1.420 . S
C344 H371 0.900 1_545 S
C345 Tb336 2.764 . S
C345 C339 1.504 . S
C345 O357 1.239 . S
C345 O358 1.263 . S
O346 Tb336 2.325 1_565 S
O346 C356 1.236 . S
O347 Tb337 2.322 1_565 S
O347 C356 1.257 . S
O348 Tb337 2.349 1_556 S
O348 C359 1.261 . S
O349 Tb336 2.303 1_556 S
O349 C359 1.257 . S
O350 Tb337 2.415 1_655 S
O350 C366 1.239 1_554 S
O351 Tb337 2.399 1_656 S
O351 C366 1.263 . S
O352 Tb337 2.325 . S
O352 C367 1.236 . S
O353 Tb336 2.322 . S
O353 C367 1.257 . S
O354 Tb336 2.349 . S
O354 C338 1.261 . S
O355 Tb337 2.303 . S
O355 C338 1.257 . S
C356 O346 1.236 . S
C356 O347 1.257 . S
O357 Tb336 2.415 . S
O357 C345 1.239 . S
O358 Tb336 2.399 . S
O358 C345 1.263 . S
C359 O348 1.261 . S
C359 O349 1.257 . S
C360 C363 1.358 . S
C360 C364 1.332 1_556 S
C360 C366 1.504 . S
C361 C362 1.373 . S
C361 C365 1.308 1_556 S
C362 C361 1.373 . S
C362 C363 1.429 . S
C362 H372 0.932 . S
C363 C360 1.358 . S
C363 C362 1.429 . S
C363 H373 0.930 . S
C364 C360 1.332 1_554 S
C364 C365 1.394 . S
C364 H374 0.932 . S
C365 C361 1.308 1_554 S
C365 C364 1.394 . S
C365 H375 0.929 . S
C366 Tb337 2.764 1_656 S
C366 O350 1.239 1_556 S
C366 O351 1.263 . S
C366 C360 1.504 . S
C367 O352 1.236 . S
C367 O353 1.257 . S
H368 C341 0.932 . S
H369 C342 0.930 . S
H370 C343 0.933 . S
H371 C344 0.900 1_565 S
H372 C362 0.932 . S
H373 C363 0.930 . S
H374 C364 0.932 . S
H375 C365 0.929 . S
Tb376 C385 2.764 . S
Tb376 O386 2.325 . S
Tb376 O389 2.303 . S
Tb376 O393 2.322 . S
Tb376 O394 2.349 . S
Tb376 O397 2.415 . S
Tb376 O398 2.399 . S
Tb377 O387 2.322 . S
Tb377 O388 2.349 . S
Tb377 O390 2.415 . S
Tb377 O391 2.399 . S
Tb377 O392 2.325 . S
Tb377 O395 2.303 . S
Tb377 C406 2.764 . S
C378 O394 1.261 . S
C378 O395 1.257 . S
C379 C382 1.358 . S
C379 C383 1.332 . S
C379 C385 1.504 . S
C380 C381 1.373 . S
C380 C384 1.308 . S
C381 C380 1.373 . S
C381 C382 1.429 . S
C381 H408 0.932 . S
C382 C379 1.358 . S
C382 C381 1.429 . S
C382 H409 0.930 . S
C383 C379 1.332 . S
C383 C384 1.394 . S
C383 H410 0.932 . S
C384 C380 1.308 . S
C384 C383 1.394 . S
C384 H411 0.929 . S
C385 Tb376 2.764 . S
C385 C379 1.504 . S
C385 O397 1.239 . S
C385 O398 1.263 . S
O386 Tb376 2.325 . S
O386 C396 1.236 . S
O387 Tb377 2.322 . S
O387 C396 1.257 . S
O388 Tb377 2.349 . S
O388 C399 1.261 . S
O389 Tb376 2.303 . S
O389 C399 1.257 . S
O390 Tb377 2.415 . S
O390 C406 1.239 . S
O391 Tb377 2.399 . S
O391 C406 1.263 . S
O392 Tb377 2.325 . S
O392 C407 1.236 . S
O393 Tb376 2.322 . S
O393 C407 1.257 . S
O394 Tb376 2.349 . S
O394 C378 1.261 . S
O395 Tb377 2.303 . S
O395 C378 1.257 . S
C396 O386 1.236 . S
C396 O387 1.257 . S
O397 Tb376 2.415 . S
O397 C385 1.239 . S
O398 Tb376 2.399 . S
O398 C385 1.263 . S
C399 O388 1.261 . S
C399 O389 1.257 . S
C400 C403 1.358 . S
C400 C404 1.332 . S
C400 C406 1.504 . S
C401 C402 1.373 . S
C401 C405 1.308 . S
C402 C401 1.373 . S
C402 C403 1.429 . S
C402 H412 0.932 . S
C403 C400 1.358 . S
C403 C402 1.429 . S
C403 H413 0.930 . S
C404 C400 1.332 . S
C404 C405 1.394 . S
C404 H414 0.932 . S
C405 C401 1.308 . S
C405 C404 1.394 . S
C405 H415 0.929 . S
C406 Tb377 2.764 . S
C406 O390 1.239 . S
C406 O391 1.263 . S
C406 C400 1.504 . S
C407 O392 1.236 . S
C407 O393 1.257 . S
H408 C381 0.932 . S
H409 C382 0.930 . S
H410 C383 0.932 . S
H411 C384 0.929 . S
H412 C402 0.932 . S
H413 C403 0.930 . S
H414 C404 0.932 . S
H415 C405 0.929 . S
Tb416 C425 2.764 . S
Tb416 O426 2.325 . S
Tb416 O429 2.303 . S
Tb416 O433 2.322 1_545 S
Tb416 O434 2.349 . S
Tb416 O437 2.415 . S
Tb416 O438 2.399 . S
Tb417 O427 2.322 . S
Tb417 O428 2.349 . S
Tb417 O430 2.415 . S
Tb417 O431 2.399 . S
Tb417 O432 2.325 1_545 S
Tb417 O435 2.303 . S
Tb417 C446 2.764 . S
C418 O434 1.261 . S
C418 O435 1.257 . S
C419 C422 1.358 . S
C419 C423 1.332 . S
C419 C425 1.504 . S
C420 C421 1.373 . S
C420 C424 1.308 . S
C421 C420 1.373 . S
C421 C422 1.429 . S
C421 H448 0.932 . S
C422 C419 1.358 . S
C422 C421 1.429 . S
C422 H449 0.930 . S
C423 C419 1.332 . S
C423 C424 1.394 . S
C423 H450 0.932 . S
C424 C420 1.308 . S
C424 C423 1.394 . S
C424 H451 0.929 . S
C425 Tb416 2.764 . S
C425 C419 1.504 . S
C425 O437 1.239 . S
C425 O438 1.263 . S
O426 Tb416 2.325 . S
O426 C436 1.236 . S
O427 Tb417 2.322 . S
O427 C436 1.257 . S
O428 Tb417 2.349 . S
O428 C439 1.261 . S
O429 Tb416 2.303 . S
O429 C439 1.257 . S
O430 Tb417 2.415 . S
O430 C446 1.239 . S
O431 Tb417 2.399 . S
O431 C446 1.263 . S
O432 Tb417 2.325 1_565 S
O432 C447 1.236 . S
O433 Tb416 2.322 1_565 S
O433 C447 1.257 . S
O434 Tb416 2.349 . S
O434 C418 1.261 . S
O435 Tb417 2.303 . S
O435 C418 1.257 . S
C436 O426 1.236 . S
C436 O427 1.257 . S
O437 Tb416 2.415 . S
O437 C425 1.239 . S
O438 Tb416 2.399 . S
O438 C425 1.263 . S
C439 O428 1.261 . S
C439 O429 1.257 . S
C440 C443 1.357 1_565 S
C440 C444 1.332 . S
C440 C446 1.504 1_565 S
C441 C442 1.373 . S
C441 C445 1.308 . S
C442 C441 1.373 . S
C442 C443 1.391 1_565 S
C442 H452 0.932 . S
C443 C440 1.357 1_545 S
C443 C442 1.391 1_545 S
C443 H453 0.972 . S
C444 C440 1.332 . S
C444 C445 1.394 . S
C444 H454 0.932 . S
C445 C441 1.308 . S
C445 C444 1.394 . S
C445 H455 0.929 . S
C446 Tb417 2.764 . S
C446 O430 1.239 . S
C446 O431 1.263 . S
C446 C440 1.504 1_545 S
C447 O432 1.236 . S
C447 O433 1.257 . S
H448 C421 0.932 . S
H449 C422 0.930 . S
H450 C423 0.932 . S
H451 C424 0.929 . S
H452 C442 0.932 . S
H453 C443 0.972 . S
H454 C444 0.932 . S
H455 C445 0.929 . S
Tb456 C465 2.764 . S
Tb456 O466 2.325 . S
Tb456 O469 2.303 . S
Tb456 O473 2.322 . S
Tb456 O474 2.349 . S
Tb456 O477 2.415 . S
Tb456 O478 2.399 . S
Tb457 O467 2.322 . S
Tb457 O468 2.349 . S
Tb457 O470 2.415 . S
Tb457 O471 2.399 . S
Tb457 O472 2.325 . S
Tb457 O475 2.303 . S
Tb457 C486 2.764 . S
C458 O474 1.261 . S
C458 O475 1.257 . S
C459 C462 1.358 . S
C459 C463 1.332 . S
C459 C465 1.504 . S
C460 C461 1.373 . S
C460 C464 1.308 . S
C461 C460 1.373 . S
C461 C462 1.429 . S
C461 H488 0.932 . S
C462 C459 1.358 . S
C462 C461 1.429 . S
C462 H489 0.930 . S
C463 C459 1.332 . S
C463 C464 1.394 . S
C463 H490 0.932 . S
C464 C460 1.308 . S
C464 C463 1.394 . S
C464 H491 0.929 . S
C465 Tb456 2.764 . S
C465 C459 1.504 . S
C465 O477 1.239 . S
C465 O478 1.263 . S
O466 Tb456 2.325 . S
O466 C476 1.236 . S
O467 Tb457 2.322 . S
O467 C476 1.257 . S
O468 Tb457 2.349 . S
O468 C479 1.261 . S
O469 Tb456 2.303 . S
O469 C479 1.257 . S
O470 Tb457 2.415 . S
O470 C486 1.239 . S
O471 Tb457 2.399 . S
O471 C486 1.263 . S
O472 Tb457 2.325 . S
O472 C487 1.236 . S
O473 Tb456 2.322 . S
O473 C487 1.257 . S
O474 Tb456 2.349 . S
O474 C458 1.261 . S
O475 Tb457 2.303 . S
O475 C458 1.257 . S
C476 O466 1.236 . S
C476 O467 1.257 . S
O477 Tb456 2.415 . S
O477 C465 1.239 . S
O478 Tb456 2.399 . S
O478 C465 1.263 . S
C479 O468 1.261 . S
C479 O469 1.257 . S
C480 C483 1.358 . S
C480 C484 1.332 . S
C480 C486 1.504 . S
C481 C482 1.373 . S
C481 C485 1.308 . S
C482 C481 1.373 . S
C482 C483 1.429 . S
C482 H492 0.932 . S
C483 C480 1.358 . S
C483 C482 1.429 . S
C483 H493 0.930 . S
C484 C480 1.332 . S
C484 C485 1.394 . S
C484 H494 0.932 . S
C485 C481 1.308 . S
C485 C484 1.394 . S
C485 H495 0.929 . S
C486 Tb457 2.764 . S
C486 O470 1.239 . S
C486 O471 1.263 . S
C486 C480 1.504 . S
C487 O472 1.236 . S
C487 O473 1.257 . S
H488 C461 0.932 . S
H489 C462 0.930 . S
H490 C463 0.932 . S
H491 C464 0.929 . S
H492 C482 0.932 . S
H493 C483 0.930 . S
H494 C484 0.932 . S
H495 C485 0.929 . S
Tb496 C505 2.764 . S
Tb496 O506 2.325 . S
Tb496 O509 2.303 . S
Tb496 O513 2.322 . S
Tb496 O514 2.349 1_455 S
Tb496 O517 2.415 . S
Tb496 O518 2.399 . S
Tb497 O507 2.322 1_545 S
Tb497 O508 2.349 . S
Tb497 O510 2.415 . S
Tb497 O511 2.399 . S
Tb497 O512 2.325 . S
Tb497 O515 2.303 . S
Tb497 C526 2.764 . S
C498 O514 1.261 . S
C498 O515 1.257 1_655 S
C499 C502 1.358 . S
C499 C503 1.332 . S
C499 C505 1.504 . S
C500 C501 1.373 . S
C500 C504 1.308 . S
C501 C500 1.373 . S
C501 C502 1.429 . S
C501 H528 0.932 . S
C502 C499 1.358 . S
C502 C501 1.429 . S
C502 H529 0.930 . S
C503 C499 1.332 . S
C503 C504 1.394 . S
C503 H530 0.932 . S
C504 C500 1.308 . S
C504 C503 1.394 . S
C504 H531 0.929 . S
C505 Tb496 2.764 . S
C505 C499 1.504 . S
C505 O517 1.239 . S
C505 O518 1.263 . S
O506 Tb496 2.325 . S
O506 C516 1.236 1_545 S
O507 Tb497 2.322 1_565 S
O507 C516 1.257 . S
O508 Tb497 2.349 . S
O508 C519 1.261 . S
O509 Tb496 2.303 . S
O509 C519 1.257 . S
O510 Tb497 2.415 . S
O510 C526 1.239 . S
O511 Tb497 2.399 . S
O511 C526 1.263 . S
O512 Tb497 2.325 . S
O512 C527 1.236 . S
O513 Tb496 2.322 . S
O513 C527 1.257 . S
O514 Tb496 2.349 1_655 S
O514 C498 1.261 . S
O515 Tb497 2.303 . S
O515 C498 1.257 1_455 S
C516 O506 1.236 1_565 S
C516 O507 1.257 . S
O517 Tb496 2.415 . S
O517 C505 1.239 . S
O518 Tb496 2.399 . S
O518 C505 1.263 . S
C519 O508 1.261 . S
C519 O509 1.257 . S
C520 C523 1.358 . S
C520 C524 1.332 1_455 S
C520 C526 1.504 . S
C521 C522 1.373 1_655 S
C521 C525 1.308 . S
C522 C521 1.373 1_455 S
C522 C523 1.429 . S
C522 H532 0.932 . S
C523 C520 1.358 . S
C523 C522 1.429 . S
C523 H533 0.930 . S
C524 C520 1.332 1_655 S
C524 C525 1.394 . S
C524 H534 0.932 . S
C525 C521 1.308 . S
C525 C524 1.394 . S
C525 H535 0.929 . S
C526 Tb497 2.764 . S
C526 O510 1.239 . S
C526 O511 1.263 . S
C526 C520 1.504 . S
C527 O512 1.236 . S
C527 O513 1.257 . S
H528 C501 0.932 . S
H529 C502 0.930 . S
H530 C503 0.932 . S
H531 C504 0.929 . S
H532 C522 0.932 . S
H533 C523 0.930 . S
H534 C524 0.932 . S
H535 C525 0.929 . S
Tb536 C545 2.764 . S
Tb536 O546 2.325 . S
Tb536 O549 2.303 . S
Tb536 O553 2.322 . S
Tb536 O554 2.349 . S
Tb536 O557 2.415 . S
Tb536 O558 2.399 . S
Tb537 O547 2.322 . S
Tb537 O548 2.349 . S
Tb537 O550 2.415 . S
Tb537 O551 2.399 . S
Tb537 O552 2.325 . S
Tb537 O555 2.303 . S
Tb537 C566 2.764 . S
C538 O554 1.261 . S
C538 O555 1.257 . S
C539 C542 1.358 . S
C539 C543 1.332 . S
C539 C545 1.504 . S
C540 C541 1.373 . S
C540 C544 1.308 . S
C541 C540 1.373 . S
C541 C542 1.429 . S
C541 H568 0.932 . S
C542 C539 1.358 . S
C542 C541 1.429 . S
C542 H569 0.930 . S
C543 C539 1.332 . S
C543 C544 1.394 . S
C543 H570 0.932 . S
C544 C540 1.308 . S
C544 C543 1.394 . S
C544 H571 0.929 . S
C545 Tb536 2.764 . S
C545 C539 1.504 . S
C545 O557 1.239 . S
C545 O558 1.263 . S
O546 Tb536 2.325 . S
O546 C556 1.236 . S
O547 Tb537 2.322 . S
O547 C556 1.257 . S
O548 Tb537 2.349 . S
O548 C559 1.261 . S
O549 Tb536 2.303 . S
O549 C559 1.257 . S
O550 Tb537 2.415 . S
O550 C566 1.239 . S
O551 Tb537 2.399 . S
O551 C566 1.263 . S
O552 Tb537 2.325 . S
O552 C567 1.236 . S
O553 Tb536 2.322 . S
O553 C567 1.257 . S
O554 Tb536 2.349 . S
O554 C538 1.261 . S
O555 Tb537 2.303 . S
O555 C538 1.257 . S
C556 O546 1.236 . S
C556 O547 1.257 . S
O557 Tb536 2.415 . S
O557 C545 1.239 . S
O558 Tb536 2.399 . S
O558 C545 1.263 . S
C559 O548 1.261 . S
C559 O549 1.257 . S
C560 C563 1.358 . S
C560 C564 1.332 . S
C560 C566 1.504 . S
C561 C562 1.373 . S
C561 C565 1.308 . S
C562 C561 1.373 . S
C562 C563 1.429 . S
C562 H572 0.932 . S
C563 C560 1.358 . S
C563 C562 1.429 . S
C563 H573 0.930 . S
C564 C560 1.332 . S
C564 C565 1.394 . S
C564 H574 0.932 . S
C565 C561 1.308 . S
C565 C564 1.394 . S
C565 H575 0.929 . S
C566 Tb537 2.764 . S
C566 O550 1.239 . S
C566 O551 1.263 . S
C566 C560 1.504 . S
C567 O552 1.236 . S
C567 O553 1.257 . S
H568 C541 0.932 . S
H569 C542 0.930 . S
H570 C543 0.932 . S
H571 C544 0.929 . S
H572 C562 0.932 . S
H573 C563 0.930 . S
H574 C564 0.932 . S
H575 C565 0.929 . S
Tb576 C585 2.764 . S
Tb576 O586 2.325 . S
Tb576 O589 2.303 . S
Tb576 O593 2.322 1_545 S
Tb576 O594 2.349 . S
Tb576 O597 2.415 . S
Tb576 O598 2.399 . S
Tb577 O587 2.322 1_556 S
Tb577 O588 2.349 . S
Tb577 O590 2.415 . S
Tb577 O591 2.399 . S
Tb577 O592 2.325 1_545 S
Tb577 O595 2.303 1_556 S
Tb577 C606 2.764 . S
C578 O594 1.261 . S
C578 O595 1.257 . S
C579 C582 1.358 . S
C579 C583 1.332 . S
C579 C585 1.504 . S
C580 C581 1.373 . S
C580 C584 1.308 . S
C581 C580 1.373 . S
C581 C582 1.429 . S
C581 H608 0.932 . S
C582 C579 1.358 . S
C582 C581 1.429 . S
C582 H609 0.930 . S
C583 C579 1.332 . S
C583 C584 1.394 . S
C583 H610 0.932 . S
C584 C580 1.308 . S
C584 C583 1.394 . S
C584 H611 0.929 . S
C585 Tb576 2.764 . S
C585 C579 1.504 . S
C585 O597 1.239 . S
C585 O598 1.263 . S
O586 Tb576 2.325 . S
O586 C596 1.236 . S
O587 Tb577 2.322 1_554 S
O587 C596 1.257 . S
O588 Tb577 2.349 . S
O588 C599 1.261 1_556 S
O589 Tb576 2.303 . S
O589 C599 1.257 . S
O590 Tb577 2.415 . S
O590 C606 1.239 . S
O591 Tb577 2.399 . S
O591 C606 1.263 . S
O592 Tb577 2.325 1_565 S
O592 C607 1.236 1_556 S
O593 Tb576 2.322 1_565 S
O593 C607 1.257 . S
O594 Tb576 2.349 . S
O594 C578 1.261 . S
O595 Tb577 2.303 1_554 S
O595 C578 1.257 . S
C596 O586 1.236 . S
C596 O587 1.257 . S
O597 Tb576 2.415 . S
O597 C585 1.239 . S
O598 Tb576 2.399 . S
O598 C585 1.263 . S
C599 O588 1.261 1_554 S
C599 O589 1.257 . S
C600 C603 1.358 . S
C600 C604 1.332 . S
C600 C606 1.504 . S
C601 C602 1.373 . S
C601 C605 1.308 . S
C602 C601 1.373 . S
C602 C603 1.429 . S
C602 H612 0.932 . S
C603 C600 1.358 . S
C603 C602 1.429 . S
C603 H613 0.930 . S
C604 C600 1.332 . S
C604 C605 1.394 . S
C604 H614 0.932 . S
C605 C601 1.308 . S
C605 C604 1.394 . S
C605 H615 0.929 . S
C606 Tb577 2.764 . S
C606 O590 1.239 . S
C606 O591 1.263 . S
C606 C600 1.504 . S
C607 O592 1.236 1_554 S
C607 O593 1.257 . S
H608 C581 0.932 . S
H609 C582 0.930 . S
H610 C583 0.932 . S
H611 C584 0.929 . S
H612 C602 0.932 . S
H613 C603 0.930 . S
H614 C604 0.932 . S
H615 C605 0.929 . S
Tb616 C625 2.764 . S
Tb616 O626 2.325 . S
Tb616 O629 2.303 . S
Tb616 O633 2.322 . S
Tb616 O634 2.349 . S
Tb616 O637 2.415 . S
Tb616 O638 2.399 . S
Tb617 O627 2.322 . S
Tb617 O628 2.349 . S
Tb617 O630 2.415 . S
Tb617 O631 2.399 . S
Tb617 O632 2.325 . S
Tb617 O635 2.303 . S
Tb617 C646 2.764 . S
C618 O634 1.261 . S
C618 O635 1.257 . S
C619 C622 1.358 . S
C619 C623 1.332 . S
C619 C625 1.504 . S
C620 C621 1.373 . S
C620 C624 1.308 . S
C621 C620 1.373 . S
C621 C622 1.429 . S
C621 H648 0.932 . S
C622 C619 1.358 . S
C622 C621 1.429 . S
C622 H649 0.930 . S
C623 C619 1.332 . S
C623 C624 1.394 . S
C623 H650 0.932 . S
C624 C620 1.308 . S
C624 C623 1.394 . S
C624 H651 0.929 . S
C625 Tb616 2.764 . S
C625 C619 1.504 . S
C625 O637 1.239 . S
C625 O638 1.263 . S
O626 Tb616 2.325 . S
O626 C636 1.236 . S
O627 Tb617 2.322 . S
O627 C636 1.257 . S
O628 Tb617 2.349 . S
O628 C639 1.261 . S
O629 Tb616 2.303 . S
O629 C639 1.257 . S
O630 Tb617 2.415 . S
O630 C646 1.239 . S
O631 Tb617 2.399 . S
O631 C646 1.263 . S
O632 Tb617 2.325 . S
O632 C647 1.236 . S
O633 Tb616 2.322 . S
O633 C647 1.257 . S
O634 Tb616 2.349 . S
O634 C618 1.261 . S
O635 Tb617 2.303 . S
O635 C618 1.257 . S
C636 O626 1.236 . S
C636 O627 1.257 . S
O637 Tb616 2.415 . S
O637 C625 1.239 . S
O638 Tb616 2.399 . S
O638 C625 1.263 . S
C639 O628 1.261 . S
C639 O629 1.257 . S
C640 C643 1.358 . S
C640 C644 1.332 . S
C640 C646 1.504 . S
C641 C642 1.373 . S
C641 C645 1.308 . S
C642 C641 1.373 . S
C642 C643 1.429 . S
C642 H652 0.932 . S
C643 C640 1.358 . S
C643 C642 1.429 . S
C643 H653 0.930 . S
C644 C640 1.332 . S
C644 C645 1.394 . S
C644 H654 0.932 . S
C645 C641 1.308 . S
C645 C644 1.394 . S
C645 H655 0.929 . S
C646 Tb617 2.764 . S
C646 O630 1.239 . S
C646 O631 1.263 . S
C646 C640 1.504 . S
C647 O632 1.236 . S
C647 O633 1.257 . S
H648 C621 0.932 . S
H649 C622 0.930 . S
H650 C623 0.932 . S
H651 C624 0.929 . S
H652 C642 0.932 . S
H653 C643 0.930 . S
H654 C644 0.932 . S
H655 C645 0.929 . S
Tb656 C665 2.764 . S
Tb656 O666 2.325 . S
Tb656 O669 2.303 . S
Tb656 O673 2.322 . S
Tb656 O674 2.349 . S
Tb656 O677 2.415 . S
Tb656 O678 2.399 . S
Tb657 O667 2.322 1_556 S
Tb657 O668 2.350 . S
Tb657 O670 2.415 . S
Tb657 O671 2.399 . S
Tb657 O672 2.325 . S
Tb657 O675 2.303 1_556 S
Tb657 C686 2.764 . S
C658 O674 1.261 . S
C658 O675 1.257 . S
C659 C662 1.358 . S
C659 C663 1.332 . S
C659 C665 1.504 . S
C660 C661 1.373 . S
C660 C664 1.308 . S
C661 C660 1.373 . S
C661 C662 1.429 . S
C661 H688 0.932 . S
C662 C659 1.358 . S
C662 C661 1.429 . S
C662 H689 0.930 . S
C663 C659 1.332 . S
C663 C664 1.394 . S
C663 H690 0.932 . S
C664 C660 1.308 . S
C664 C663 1.394 . S
C664 H691 0.929 . S
C665 Tb656 2.764 . S
C665 C659 1.504 . S
C665 O677 1.239 . S
C665 O678 1.263 . S
O666 Tb656 2.325 . S
O666 C676 1.236 . S
O667 Tb657 2.322 1_554 S
O667 C676 1.257 . S
O668 Tb657 2.350 . S
O668 C679 1.256 1_556 S
O669 Tb656 2.303 . S
O669 C679 1.257 . S
O670 Tb657 2.415 . S
O670 C686 1.239 . S
O671 Tb657 2.399 . S
O671 C686 1.263 . S
O672 Tb657 2.325 . S
O672 C687 1.236 1_556 S
O673 Tb656 2.322 . S
O673 C687 1.257 . S
O674 Tb656 2.349 . S
O674 C658 1.261 . S
O675 Tb657 2.303 1_554 S
O675 C658 1.257 . S
C676 O666 1.236 . S
C676 O667 1.257 . S
O677 Tb656 2.415 . S
O677 C665 1.239 . S
O678 Tb656 2.399 . S
O678 C665 1.263 . S
C679 O668 1.256 1_554 S
C679 O669 1.257 . S
C680 C683 1.358 . S
C680 C684 1.332 . S
C680 C686 1.504 . S
C681 C682 1.373 . S
C681 C685 1.308 . S
C682 C681 1.373 . S
C682 C683 1.429 . S
C682 H692 0.932 . S
C683 C680 1.358 . S
C683 C682 1.429 . S
C683 H693 0.930 . S
C684 C680 1.332 . S
C684 C685 1.394 . S
C684 H694 0.932 . S
C685 C681 1.308 . S
C685 C684 1.394 . S
C685 H695 0.929 . S
C686 Tb657 2.764 . S
C686 O670 1.239 . S
C686 O671 1.263 . S
C686 C680 1.504 . S
C687 O672 1.236 1_554 S
C687 O673 1.257 . S
H688 C661 0.932 . S
H689 C662 0.930 . S
H690 C663 0.932 . S
H691 C664 0.929 . S
H692 C682 0.932 . S
H693 C683 0.930 . S
H694 C684 0.932 . S
H695 C685 0.929 . S
Tb696 C705 2.764 . S
Tb696 O706 2.325 . S
Tb696 O709 2.303 . S
Tb696 O713 2.322 . S
Tb696 O714 2.349 . S
Tb696 O717 2.415 . S
Tb696 O718 2.399 . S
Tb697 O707 2.322 . S
Tb697 O708 2.349 . S
Tb697 O710 2.415 . S
Tb697 O711 2.399 . S
Tb697 O712 2.325 . S
Tb697 O715 2.303 . S
Tb697 C726 2.764 . S
C698 O714 1.261 . S
C698 O715 1.257 . S
C699 C702 1.358 . S
C699 C703 1.332 . S
C699 C705 1.504 . S
C700 C701 1.373 . S
C700 C704 1.308 . S
C701 C700 1.373 . S
C701 C702 1.429 . S
C701 H728 0.932 . S
C702 C699 1.358 . S
C702 C701 1.429 . S
C702 H729 0.930 . S
C703 C699 1.332 . S
C703 C704 1.394 . S
C703 H730 0.932 . S
C704 C700 1.308 . S
C704 C703 1.394 . S
C704 H731 0.929 . S
C705 Tb696 2.764 . S
C705 C699 1.504 . S
C705 O717 1.239 . S
C705 O718 1.263 . S
O706 Tb696 2.325 . S
O706 C716 1.236 . S
O707 Tb697 2.322 . S
O707 C716 1.257 . S
O708 Tb697 2.349 . S
O708 C719 1.261 . S
O709 Tb696 2.303 . S
O709 C719 1.257 . S
O710 Tb697 2.415 . S
O710 C726 1.239 . S
O711 Tb697 2.399 . S
O711 C726 1.263 . S
O712 Tb697 2.325 . S
O712 C727 1.236 . S
O713 Tb696 2.322 . S
O713 C727 1.257 . S
O714 Tb696 2.349 . S
O714 C698 1.261 . S
O715 Tb697 2.303 . S
O715 C698 1.257 . S
C716 O706 1.236 . S
C716 O707 1.257 . S
O717 Tb696 2.415 . S
O717 C705 1.239 . S
O718 Tb696 2.399 . S
O718 C705 1.263 . S
C719 O708 1.261 . S
C719 O709 1.257 . S
C720 C723 1.358 . S
C720 C724 1.332 . S
C720 C726 1.504 . S
C721 C722 1.373 . S
C721 C725 1.308 . S
C722 C721 1.373 . S
C722 C723 1.429 . S
C722 H732 0.932 . S
C723 C720 1.358 . S
C723 C722 1.429 . S
C723 H733 0.930 . S
C724 C720 1.332 . S
C724 C725 1.394 . S
C724 H734 0.932 . S
C725 C721 1.308 . S
C725 C724 1.394 . S
C725 H735 0.929 . S
C726 Tb697 2.764 . S
C726 O710 1.239 . S
C726 O711 1.263 . S
C726 C720 1.504 . S
C727 O712 1.236 . S
C727 O713 1.257 . S
H728 C701 0.932 . S
H729 C702 0.930 . S
H730 C703 0.932 . S
H731 C704 0.929 . S
H732 C722 0.932 . S
H733 C723 0.930 . S
H734 C724 0.932 . S
H735 C725 0.929 . S
Tb736 C745 2.764 . S
Tb736 O746 2.325 . S
Tb736 O749 2.303 . S
Tb736 O753 2.322 . S
Tb736 O754 2.349 . S
Tb736 O757 2.415 . S
Tb736 O758 2.399 . S
Tb737 O747 2.322 . S
Tb737 O748 2.349 . S
Tb737 O750 2.415 . S
Tb737 O751 2.399 . S
Tb737 O752 2.325 . S
Tb737 O755 2.303 . S
Tb737 C766 2.764 . S
C738 O754 1.261 . S
C738 O755 1.257 . S
C739 C742 1.358 . S
C739 C743 1.332 . S
C739 C745 1.504 . S
C740 C741 1.373 . S
C740 C744 1.308 1_455 S
C741 C740 1.373 . S
C741 C742 1.429 . S
C741 H768 0.932 . S
C742 C739 1.358 . S
C742 C741 1.429 . S
C742 H769 0.930 . S
C743 C739 1.332 . S
C743 C744 1.394 1_455 S
C743 H770 0.932 1_455 S
C744 C740 1.308 1_655 S
C744 C743 1.394 1_655 S
C744 H771 0.929 . S
C745 Tb736 2.764 . S
C745 C739 1.504 . S
C745 O757 1.239 . S
C745 O758 1.263 . S
O746 Tb736 2.325 . S
O746 C756 1.236 . S
O747 Tb737 2.322 . S
O747 C756 1.257 . S
O748 Tb737 2.349 . S
O748 C759 1.261 1_455 S
O749 Tb736 2.303 . S
O749 C759 1.257 1_455 S
O750 Tb737 2.415 . S
O750 C766 1.239 . S
O751 Tb737 2.399 . S
O751 C766 1.263 . S
O752 Tb737 2.325 . S
O752 C767 1.236 . S
O753 Tb736 2.322 . S
O753 C767 1.257 . S
O754 Tb736 2.349 . S
O754 C738 1.261 . S
O755 Tb737 2.303 . S
O755 C738 1.257 . S
C756 O746 1.236 . S
C756 O747 1.257 . S
O757 Tb736 2.415 . S
O757 C745 1.239 . S
O758 Tb736 2.399 . S
O758 C745 1.263 . S
C759 O748 1.261 1_655 S
C759 O749 1.257 1_655 S
C760 C763 1.358 . S
C760 C764 1.332 . S
C760 C766 1.504 . S
C761 C762 1.373 . S
C761 C765 1.308 . S
C762 C761 1.373 . S
C762 C763 1.429 . S
C762 H772 0.932 . S
C763 C760 1.358 . S
C763 C762 1.429 . S
C763 H773 0.930 . S
C764 C760 1.332 . S
C764 C765 1.394 . S
C764 H774 0.932 . S
C765 C761 1.308 . S
C765 C764 1.394 . S
C765 H775 0.929 . S
C766 Tb737 2.764 . S
C766 O750 1.239 . S
C766 O751 1.263 . S
C766 C760 1.504 . S
C767 O752 1.236 . S
C767 O753 1.257 . S
H768 C741 0.932 . S
H769 C742 0.930 . S
H770 C743 0.932 1_655 S
H771 C744 0.929 . S
H772 C762 0.932 . S
H773 C763 0.930 . S
H774 C764 0.932 . S
H775 C765 0.929 . S
Tb776 C785 2.764 . S
Tb776 O786 2.325 . S
Tb776 O789 2.303 . S
Tb776 O793 2.322 . S
Tb776 O794 2.349 . S
Tb776 O797 2.415 . S
Tb776 O798 2.399 . S
Tb777 O787 2.322 . S
Tb777 O788 2.349 . S
Tb777 O790 2.415 . S
Tb777 O791 2.399 . S
Tb777 O792 2.325 . S
Tb777 O795 2.303 . S
Tb777 C806 2.764 . S
C778 O794 1.261 . S
C778 O795 1.257 . S
C779 C782 1.358 . S
C779 C783 1.332 . S
C779 C785 1.504 . S
C780 C781 1.373 . S
C780 C784 1.308 . S
C781 C780 1.373 . S
C781 C782 1.429 . S
C781 H808 0.932 . S
C782 C779 1.358 . S
C782 C781 1.429 . S
C782 H809 0.930 . S
C783 C779 1.332 . S
C783 C784 1.394 . S
C783 H810 0.932 . S
C784 C780 1.308 . S
C784 C783 1.394 . S
C784 H811 0.929 . S
C785 Tb776 2.764 . S
C785 C779 1.504 . S
C785 O797 1.239 . S
C785 O798 1.263 . S
O786 Tb776 2.325 . S
O786 C796 1.236 . S
O787 Tb777 2.322 . S
O787 C796 1.257 . S
O788 Tb777 2.349 . S
O788 C799 1.261 . S
O789 Tb776 2.303 . S
O789 C799 1.257 . S
O790 Tb777 2.415 . S
O790 C806 1.239 . S
O791 Tb777 2.399 . S
O791 C806 1.263 . S
O792 Tb777 2.325 . S
O792 C807 1.236 . S
O793 Tb776 2.322 . S
O793 C807 1.257 . S
O794 Tb776 2.349 . S
O794 C778 1.261 . S
O795 Tb777 2.303 . S
O795 C778 1.257 . S
C796 O786 1.236 . S
C796 O787 1.257 . S
O797 Tb776 2.415 . S
O797 C785 1.239 . S
O798 Tb776 2.399 . S
O798 C785 1.263 . S
C799 O788 1.261 . S
C799 O789 1.257 . S
C800 C803 1.358 . S
C800 C804 1.332 . S
C800 C806 1.504 . S
C801 C802 1.373 . S
C801 C805 1.308 . S
C802 C801 1.373 . S
C802 C803 1.429 . S
C802 H812 0.932 . S
C803 C800 1.358 . S
C803 C802 1.429 . S
C803 H813 0.930 . S
C804 C800 1.332 . S
C804 C805 1.394 . S
C804 H814 0.932 . S
C805 C801 1.308 . S
C805 C804 1.394 . S
C805 H815 0.929 . S
C806 Tb777 2.764 . S
C806 O790 1.239 . S
C806 O791 1.263 . S
C806 C800 1.504 . S
C807 O792 1.236 . S
C807 O793 1.257 . S
H808 C781 0.932 . S
H809 C782 0.930 . S
H810 C783 0.932 . S
H811 C784 0.929 . S
H812 C802 0.932 . S
H813 C803 0.930 . S
H814 C804 0.932 . S
H815 C805 0.929 . S
Tb816 C825 2.764 . S
Tb816 O826 2.325 . S
Tb816 O829 2.303 . S
Tb816 O833 2.322 . S
Tb816 O834 2.349 . S
Tb816 O837 2.415 . S
Tb816 O838 2.399 . S
Tb817 O827 2.322 . S
Tb817 O828 2.349 . S
Tb817 O830 2.415 . S
Tb817 O831 2.399 . S
Tb817 O832 2.325 . S
Tb817 O835 2.303 . S
Tb817 C846 2.764 . S
C818 O834 1.261 . S
C818 O835 1.257 . S
C819 C822 1.358 . S
C819 C823 1.332 . S
C819 C825 1.504 . S
C820 C821 1.373 . S
C820 C824 1.308 . S
C821 C820 1.373 . S
C821 C822 1.429 . S
C821 H848 0.932 . S
C822 C819 1.358 . S
C822 C821 1.429 . S
C822 H849 0.930 . S
C823 C819 1.332 . S
C823 C824 1.394 . S
C823 H850 0.932 . S
C824 C820 1.308 . S
C824 C823 1.394 . S
C824 H851 0.929 . S
C825 Tb816 2.764 . S
C825 C819 1.504 . S
C825 O837 1.239 . S
C825 O838 1.263 . S
O826 Tb816 2.325 . S
O826 C836 1.236 . S
O827 Tb817 2.322 . S
O827 C836 1.257 . S
O828 Tb817 2.349 . S
O828 C839 1.261 . S
O829 Tb816 2.303 . S
O829 C839 1.257 . S
O830 Tb817 2.415 . S
O830 C846 1.239 . S
O831 Tb817 2.399 . S
O831 C846 1.263 . S
O832 Tb817 2.325 . S
O832 C847 1.236 . S
O833 Tb816 2.322 . S
O833 C847 1.257 . S
O834 Tb816 2.349 . S
O834 C818 1.261 . S
O835 Tb817 2.303 . S
O835 C818 1.257 . S
C836 O826 1.236 . S
C836 O827 1.257 . S
O837 Tb816 2.415 . S
O837 C825 1.239 . S
O838 Tb816 2.399 . S
O838 C825 1.263 . S
C839 O828 1.261 . S
C839 O829 1.257 . S
C840 C843 1.358 . S
C840 C844 1.332 . S
C840 C846 1.504 . S
C841 C842 1.373 . S
C841 C845 1.308 . S
C842 C841 1.373 . S
C842 C843 1.429 . S
C842 H852 0.932 . S
C843 C840 1.358 . S
C843 C842 1.429 . S
C843 H853 0.930 . S
C844 C840 1.332 . S
C844 C845 1.394 . S
C844 H854 0.932 . S
C845 C841 1.308 . S
C845 C844 1.394 . S
C845 H855 0.929 . S
C846 Tb817 2.764 . S
C846 O830 1.239 . S
C846 O831 1.263 . S
C846 C840 1.504 . S
C847 O832 1.236 . S
C847 O833 1.257 . S
H848 C821 0.932 . S
H849 C822 0.930 . S
H850 C823 0.932 . S
H851 C824 0.929 . S
H852 C842 0.932 . S
H853 C843 0.930 . S
H854 C844 0.932 . S
H855 C845 0.929 . S
Tb856 C865 2.764 . S
Tb856 O866 2.325 . S
Tb856 O869 2.303 . S
Tb856 O873 2.322 . S
Tb856 O874 2.349 . S
Tb856 O877 2.415 . S
Tb856 O878 2.399 . S
Tb857 O867 2.322 . S
Tb857 O868 2.349 . S
Tb857 O870 2.415 . S
Tb857 O871 2.399 . S
Tb857 O872 2.325 . S
Tb857 O875 2.303 . S
Tb857 C886 2.764 . S
C858 O874 1.261 . S
C858 O875 1.257 . S
C859 C862 1.358 . S
C859 C863 1.332 . S
C859 C865 1.504 . S
C860 C861 1.373 . S
C860 C864 1.308 . S
C861 C860 1.373 . S
C861 C862 1.429 . S
C861 H888 0.932 . S
C862 C859 1.358 . S
C862 C861 1.429 . S
C862 H889 0.930 . S
C863 C859 1.332 . S
C863 C864 1.394 . S
C863 H890 0.932 . S
C864 C860 1.308 . S
C864 C863 1.394 . S
C864 H891 0.929 . S
C865 Tb856 2.764 . S
C865 C859 1.504 . S
C865 O877 1.239 . S
C865 O878 1.263 . S
O866 Tb856 2.325 . S
O866 C876 1.236 . S
O867 Tb857 2.322 . S
O867 C876 1.257 . S
O868 Tb857 2.349 . S
O868 C879 1.261 . S
O869 Tb856 2.303 . S
O869 C879 1.257 . S
O870 Tb857 2.415 . S
O870 C886 1.239 . S
O871 Tb857 2.399 . S
O871 C886 1.263 . S
O872 Tb857 2.325 . S
O872 C887 1.236 . S
O873 Tb856 2.322 . S
O873 C887 1.257 . S
O874 Tb856 2.349 . S
O874 C858 1.261 . S
O875 Tb857 2.303 . S
O875 C858 1.257 . S
C876 O866 1.236 . S
C876 O867 1.257 . S
O877 Tb856 2.415 . S
O877 C865 1.239 . S
O878 Tb856 2.399 . S
O878 C865 1.263 . S
C879 O868 1.261 . S
C879 O869 1.257 . S
C880 C883 1.358 . S
C880 C884 1.332 . S
C880 C886 1.504 . S
C881 C882 1.373 . S
C881 C885 1.308 . S
C882 C881 1.373 . S
C882 C883 1.429 . S
C882 H892 0.932 . S
C883 C880 1.358 . S
C883 C882 1.429 . S
C883 H893 0.930 . S
C884 C880 1.332 . S
C884 C885 1.394 . S
C884 H894 0.932 . S
C885 C881 1.308 . S
C885 C884 1.394 . S
C885 H895 0.929 . S
C886 Tb857 2.764 . S
C886 O870 1.239 . S
C886 O871 1.263 . S
C886 C880 1.504 . S
C887 O872 1.236 . S
C887 O873 1.257 . S
H888 C861 0.932 . S
H889 C862 0.930 . S
H890 C863 0.932 . S
H891 C864 0.929 . S
H892 C882 0.932 . S
H893 C883 0.930 . S
H894 C884 0.932 . S
H895 C885 0.929 . S
Tb896 C905 2.764 . S
Tb896 O906 2.325 . S
Tb896 O909 2.303 . S
Tb896 O913 2.322 . S
Tb896 O914 2.349 . S
Tb896 O917 2.415 . S
Tb896 O918 2.399 . S
Tb897 O907 2.322 . S
Tb897 O908 2.349 . S
Tb897 O910 2.415 . S
Tb897 O911 2.399 . S
Tb897 O912 2.325 . S
Tb897 O915 2.303 . S
Tb897 C926 2.764 . S
C898 O914 1.261 . S
C898 O915 1.257 . S
C899 C902 1.358 . S
C899 C903 1.332 . S
C899 C905 1.504 . S
C900 C901 1.373 . S
C900 C904 1.308 . S
C901 C900 1.373 . S
C901 C902 1.429 . S
C901 H928 0.932 . S
C902 C899 1.358 . S
C902 C901 1.429 . S
C902 H929 0.930 . S
C903 C899 1.332 . S
C903 C904 1.394 . S
C903 H930 0.932 . S
C904 C900 1.308 . S
C904 C903 1.394 . S
C904 H931 0.929 . S
C905 Tb896 2.764 . S
C905 C899 1.504 . S
C905 O917 1.239 . S
C905 O918 1.263 . S
O906 Tb896 2.325 . S
O906 C916 1.236 . S
O907 Tb897 2.322 . S
O907 C916 1.257 . S
O908 Tb897 2.349 . S
O908 C919 1.261 . S
O909 Tb896 2.303 . S
O909 C919 1.257 . S
O910 Tb897 2.415 . S
O910 C926 1.239 . S
O911 Tb897 2.399 . S
O911 C926 1.263 . S
O912 Tb897 2.325 . S
O912 C927 1.236 . S
O913 Tb896 2.322 . S
O913 C927 1.257 . S
O914 Tb896 2.349 . S
O914 C898 1.261 . S
O915 Tb897 2.303 . S
O915 C898 1.257 . S
C916 O906 1.236 . S
C916 O907 1.257 . S
O917 Tb896 2.415 . S
O917 C905 1.239 . S
O918 Tb896 2.399 . S
O918 C905 1.263 . S
C919 O908 1.261 . S
C919 O909 1.257 . S
C920 C923 1.358 . S
C920 C924 1.332 . S
C920 C926 1.504 . S
C921 C922 1.373 . S
C921 C925 1.308 . S
C922 C921 1.373 . S
C922 C923 1.429 . S
C922 H932 0.932 . S
C923 C920 1.358 . S
C923 C922 1.429 . S
C923 H933 0.930 . S
C924 C920 1.332 . S
C924 C925 1.394 . S
C924 H934 0.932 . S
C925 C921 1.308 . S
C925 C924 1.394 . S
C925 H935 0.929 . S
C926 Tb897 2.764 . S
C926 O910 1.239 . S
C926 O911 1.263 . S
C926 C920 1.504 . S
C927 O912 1.236 . S
C927 O913 1.257 . S
H928 C901 0.932 . S
H929 C902 0.930 . S
H930 C903 0.932 . S
H931 C904 0.929 . S
H932 C922 0.932 . S
H933 C923 0.930 . S
H934 C924 0.932 . S
H935 C925 0.929 . S
Tb936 C945 2.764 1_455 S
Tb936 O946 2.325 . S
Tb936 O949 2.270 1_554 S
Tb936 O953 2.322 . S
Tb936 O954 2.349 . S
Tb936 O957 2.415 1_455 S
Tb936 O958 2.399 1_455 S
Tb937 O947 2.322 . S
Tb937 O948 2.349 1_554 S
Tb937 O950 2.415 . S
Tb937 O951 2.399 1_554 S
Tb937 O952 2.325 . S
Tb937 O955 2.303 . S
Tb937 C966 2.764 . S
C938 O954 1.261 . S
C938 O955 1.257 . S
C939 C942 1.358 . S
C939 C943 1.332 . S
C939 C945 1.504 . S
C940 C941 1.373 . S
C940 C944 1.308 . S
C941 C940 1.373 . S
C941 C942 1.429 . S
C941 H968 0.932 . S
C942 C939 1.358 . S
C942 C941 1.429 . S
C942 H969 0.930 . S
C943 C939 1.332 . S
C943 C944 1.394 . S
C943 H970 0.932 . S
C944 C940 1.308 . S
C944 C943 1.394 . S
C944 H971 0.929 . S
C945 Tb936 2.764 1_655 S
C945 C939 1.504 . S
C945 O957 1.239 . S
C945 O958 1.263 . S
O946 Tb936 2.325 . S
O946 C956 1.236 . S
O947 Tb937 2.322 . S
O947 C956 1.257 . S
O948 Tb937 2.349 1_556 S
O948 C959 1.261 . S
O949 Tb936 2.270 1_556 S
O949 C959 1.291 . S
O950 Tb937 2.415 . S
O950 C966 1.239 . S
O951 Tb937 2.399 1_556 S
O951 C966 1.263 1_556 S
O952 Tb937 2.325 . S
O952 C967 1.236 . S
O953 Tb936 2.322 . S
O953 C967 1.257 . S
O954 Tb936 2.349 . S
O954 C938 1.261 . S
O955 Tb937 2.303 . S
O955 C938 1.257 . S
C956 O946 1.236 . S
C956 O947 1.257 . S
O957 Tb936 2.415 1_655 S
O957 C945 1.239 . S
O958 Tb936 2.399 1_655 S
O958 C945 1.263 . S
C959 O948 1.261 . S
C959 O949 1.291 . S
C960 C963 1.358 1_554 S
C960 C964 1.332 . S
C960 C966 1.504 . S
C961 C962 1.373 . S
C961 C965 1.308 1_556 S
C962 C961 1.373 . S
C962 C963 1.429 . S
C962 H972 0.932 . S
C963 C960 1.358 1_556 S
C963 C962 1.429 . S
C963 H973 0.930 . S
C964 C960 1.332 . S
C964 C965 1.394 . S
C964 H974 0.932 . S
C965 C961 1.308 1_554 S
C965 C964 1.394 . S
C965 H975 0.929 . S
C966 Tb937 2.764 . S
C966 O950 1.239 . S
C966 O951 1.263 1_554 S
C966 C960 1.504 . S
C967 O952 1.236 . S
C967 O953 1.257 . S
H968 C941 0.932 . S
H969 C942 0.930 . S
H970 C943 0.932 . S
H971 C944 0.929 . S
H972 C962 0.932 . S
H973 C963 0.930 . S
H974 C964 0.932 . S
H975 C965 0.929 . S
C976 C977 1.349 . S
C976 C978 1.327 . S
C976 H1001 0.950 . S
C977 C976 1.349 . S
C977 C993 1.349 1_655 S
C978 C976 1.327 . S
C978 C997 1.429 1_655 S
C978 H1002 0.950 . S
C979 C996 1.574 . S
C979 C998 1.368 . S
C979 H1003 0.949 . S
H980 C984 0.949 1_554 S
C981 C982 1.349 1_556 S
C981 C983 1.327 . S
C981 H1004 0.950 . S
C982 C981 1.349 1_554 S
C982 C994 1.349 . S
C983 C981 1.327 . S
C983 C999 1.429 . S
C983 H1005 0.950 . S
C984 H980 0.949 1_556 S
C984 C992 1.574 . S
C984 C1000 1.368 . S
H985 C993 0.950 . S
H986 C991 0.950 . S
H987 C992 0.949 1_655 S
H988 C994 0.950 . S
H989 C995 0.950 . S
H990 C996 0.949 . S
C991 H986 0.950 . S
C991 C993 1.327 . S
C991 C997 1.429 . S
C992 C984 1.574 . S
C992 H987 0.949 1_455 S
C992 C998 1.368 . S
C993 C977 1.349 1_455 S
C993 H985 0.950 . S
C993 C991 1.327 . S
C994 C982 1.349 . S
C994 H988 0.950 . S
C994 C995 1.327 . S
C995 H989 0.950 . S
C995 C994 1.327 . S
C995 C999 1.429 1_554 S
C996 C979 1.574 . S
C996 H990 0.949 . S
C996 C1000 1.368 . S
C997 C978 1.429 1_455 S
C997 C991 1.429 . S
C997 C998 1.523 . S
C998 C979 1.368 . S
C998 C992 1.368 . S
C998 C997 1.523 . S
C999 C983 1.429 . S
C999 C995 1.429 1_556 S
C999 C1000 1.523 . S
C1000 C984 1.368 . S
C1000 C996 1.368 . S
C1000 C999 1.523 . S
H1001 C976 0.950 . S
H1002 C978 0.950 . S
H1003 C979 0.949 . S
H1004 C981 0.950 . S
H1005 C983 0.950 . S
C1006 C1007 1.349 . S
C1006 C1008 1.327 . S
C1006 H1031 0.950 . S
C1007 C1006 1.349 . S
C1007 C1023 1.349 . S
C1008 C1006 1.327 . S
C1008 C1027 1.429 . S
C1008 H1032 0.950 . S
C1009 C1026 1.574 . S
C1009 C1028 1.368 . S
C1009 H1033 0.949 . S
H1010 C1014 0.949 . S
C1011 C1012 1.349 . S
C1011 C1013 1.327 . S
C1011 H1034 0.950 . S
C1012 C1011 1.349 . S
C1012 C1024 1.349 . S
C1013 C1011 1.327 . S
C1013 C1029 1.429 . S
C1013 H1035 0.950 . S
C1014 H1010 0.949 . S
C1014 C1022 1.574 . S
C1014 C1030 1.368 . S
H1015 C1023 0.950 . S
H1016 C1021 0.950 . S
H1017 C1022 0.949 . S
H1018 C1024 0.950 . S
H1019 C1025 0.950 . S
H1020 C1026 0.949 . S
C1021 H1016 0.950 . S
C1021 C1023 1.327 . S
C1021 C1027 1.429 . S
C1022 C1014 1.574 . S
C1022 H1017 0.949 . S
C1022 C1028 1.368 . S
C1023 C1007 1.349 . S
C1023 H1015 0.950 . S
C1023 C1021 1.327 . S
C1024 C1012 1.349 . S
C1024 H1018 0.950 . S
C1024 C1025 1.327 . S
C1025 H1019 0.950 . S
C1025 C1024 1.327 . S
C1025 C1029 1.429 . S
C1026 C1009 1.574 . S
C1026 H1020 0.949 . S
C1026 C1030 1.368 . S
C1027 C1008 1.429 . S
C1027 C1021 1.429 . S
C1027 C1028 1.523 . S
C1028 C1009 1.368 . S
C1028 C1022 1.368 . S
C1028 C1027 1.523 . S
C1029 C1013 1.429 . S
C1029 C1025 1.429 . S
C1029 C1030 1.523 . S
C1030 C1014 1.368 . S
C1030 C1026 1.368 . S
C1030 C1029 1.523 . S
H1031 C1006 0.950 . S
H1032 C1008 0.950 . S
H1033 C1009 0.949 . S
H1034 C1011 0.950 . S
H1035 C1013 0.950 . S
C1036 C1037 1.349 . S
C1036 C1038 1.327 . S
C1036 H1061 0.950 . S
C1037 C1036 1.349 . S
C1037 C1053 1.349 . S
C1038 C1036 1.327 . S
C1038 C1057 1.429 . S
C1038 H1062 0.950 . S
C1039 C1056 1.574 . S
C1039 C1058 1.368 . S
C1039 H1063 0.949 . S
H1040 C1044 0.949 . S
C1041 C1042 1.349 . S
C1041 C1043 1.327 . S
C1041 H1064 0.950 . S
C1042 C1041 1.349 . S
C1042 C1054 1.349 . S
C1043 C1041 1.327 . S
C1043 C1059 1.429 . S
C1043 H1065 0.950 . S
C1044 H1040 0.949 . S
C1044 C1052 1.574 . S
C1044 C1060 1.368 . S
H1045 C1053 0.950 . S
H1046 C1051 0.950 . S
H1047 C1052 0.949 . S
H1048 C1054 0.950 . S
H1049 C1055 0.950 . S
H1050 C1056 0.949 . S
C1051 H1046 0.950 . S
C1051 C1053 1.327 . S
C1051 C1057 1.429 . S
C1052 C1044 1.574 . S
C1052 H1047 0.949 . S
C1052 C1058 1.368 . S
C1053 C1037 1.349 . S
C1053 H1045 0.950 . S
C1053 C1051 1.327 . S
C1054 C1042 1.349 . S
C1054 H1048 0.950 . S
C1054 C1055 1.327 . S
C1055 H1049 0.950 . S
C1055 C1054 1.327 . S
C1055 C1059 1.429 . S
C1056 C1039 1.574 . S
C1056 H1050 0.949 . S
C1056 C1060 1.368 . S
C1057 C1038 1.429 . S
C1057 C1051 1.429 . S
C1057 C1058 1.523 . S
C1058 C1039 1.368 . S
C1058 C1052 1.368 . S
C1058 C1057 1.523 . S
C1059 C1043 1.429 . S
C1059 C1055 1.429 . S
C1059 C1060 1.523 . S
C1060 C1044 1.368 . S
C1060 C1056 1.368 . S
C1060 C1059 1.523 . S
H1061 C1036 0.950 . S
H1062 C1038 0.950 . S
H1063 C1039 0.949 . S
H1064 C1041 0.950 . S
H1065 C1043 0.950 . S
C1066 C1067 1.349 . S
C1066 C1068 1.327 . S
C1066 H1091 0.950 . S
C1067 C1066 1.349 . S
C1067 C1083 1.349 . S
C1068 C1066 1.327 . S
C1068 C1087 1.429 . S
C1068 H1092 0.950 . S
C1069 C1086 1.574 . S
C1069 C1088 1.368 . S
C1069 H1093 0.949 . S
H1070 C1074 0.949 . S
C1071 C1072 1.349 . S
C1071 C1073 1.327 . S
C1071 H1094 0.950 . S
C1072 C1071 1.349 . S
C1072 C1084 1.349 . S
C1073 C1071 1.327 . S
C1073 C1089 1.429 . S
C1073 H1095 0.950 . S
C1074 H1070 0.949 . S
C1074 C1082 1.574 . S
C1074 C1090 1.368 . S
H1075 C1083 0.950 . S
H1076 C1081 0.950 . S
H1077 C1082 0.949 . S
H1078 C1084 0.950 . S
H1079 C1085 0.950 . S
H1080 C1086 0.949 . S
C1081 H1076 0.950 . S
C1081 C1083 1.327 . S
C1081 C1087 1.429 . S
C1082 C1074 1.574 . S
C1082 H1077 0.949 . S
C1082 C1088 1.368 . S
C1083 C1067 1.349 . S
C1083 H1075 0.950 . S
C1083 C1081 1.327 . S
C1084 C1072 1.349 . S
C1084 H1078 0.950 . S
C1084 C1085 1.327 . S
C1085 H1079 0.950 . S
C1085 C1084 1.327 . S
C1085 C1089 1.429 . S
C1086 C1069 1.574 . S
C1086 H1080 0.949 . S
C1086 C1090 1.368 . S
C1087 C1068 1.429 . S
C1087 C1081 1.429 . S
C1087 C1088 1.523 . S
C1088 C1069 1.368 . S
C1088 C1082 1.368 . S
C1088 C1087 1.523 . S
C1089 C1073 1.429 . S
C1089 C1085 1.429 . S
C1089 C1090 1.523 . S
C1090 C1074 1.368 . S
C1090 C1086 1.368 . S
C1090 C1089 1.523 . S
H1091 C1066 0.950 . S
H1092 C1068 0.950 . S
H1093 C1069 0.949 . S
H1094 C1071 0.950 . S
H1095 C1073 0.950 . S
C1096 C1097 1.349 . S
C1096 C1098 1.327 . S
C1096 H1121 0.950 . S
C1097 C1096 1.349 . S
C1097 C1113 1.349 . S
C1098 C1096 1.327 . S
C1098 C1117 1.429 . S
C1098 H1122 0.950 . S
C1099 C1116 1.574 . S
C1099 C1118 1.368 . S
C1099 H1123 0.949 . S
H1100 C1104 0.949 . S
C1101 C1102 1.349 . S
C1101 C1103 1.327 . S
C1101 H1124 0.950 . S
C1102 C1101 1.349 . S
C1102 C1114 1.349 . S
C1103 C1101 1.327 . S
C1103 C1119 1.429 . S
C1103 H1125 0.950 . S
C1104 H1100 0.949 . S
C1104 C1112 1.574 . S
C1104 C1120 1.368 . S
H1105 C1113 0.950 . S
H1106 C1111 0.950 . S
H1107 C1112 0.949 . S
H1108 C1114 0.950 . S
H1109 C1115 0.950 . S
H1110 C1116 0.949 . S
C1111 H1106 0.950 . S
C1111 C1113 1.327 . S
C1111 C1117 1.429 . S
C1112 C1104 1.574 . S
C1112 H1107 0.949 . S
C1112 C1118 1.368 . S
C1113 C1097 1.349 . S
C1113 H1105 0.950 . S
C1113 C1111 1.327 . S
C1114 C1102 1.349 . S
C1114 H1108 0.950 . S
C1114 C1115 1.327 . S
C1115 H1109 0.950 . S
C1115 C1114 1.327 . S
C1115 C1119 1.429 . S
C1116 C1099 1.574 . S
C1116 H1110 0.949 . S
C1116 C1120 1.368 . S
C1117 C1098 1.429 . S
C1117 C1111 1.429 . S
C1117 C1118 1.523 . S
C1118 C1099 1.368 . S
C1118 C1112 1.368 . S
C1118 C1117 1.523 . S
C1119 C1103 1.429 . S
C1119 C1115 1.429 . S
C1119 C1120 1.523 . S
C1120 C1104 1.368 . S
C1120 C1116 1.368 . S
C1120 C1119 1.523 . S
H1121 C1096 0.950 . S
H1122 C1098 0.950 . S
H1123 C1099 0.949 . S
H1124 C1101 0.950 . S
H1125 C1103 0.950 . S
C1126 C1127 1.349 . S
C1126 C1128 1.327 . S
C1126 H1151 0.950 . S
C1127 C1126 1.349 . S
C1127 C1143 1.349 . S
C1128 C1126 1.327 . S
C1128 C1147 1.429 . S
C1128 H1152 0.950 . S
C1129 C1146 1.574 . S
C1129 C1148 1.368 . S
C1129 H1153 0.949 . S
H1130 C1134 0.949 . S
C1131 C1132 1.349 . S
C1131 C1133 1.327 . S
C1131 H1154 0.950 . S
C1132 C1131 1.349 . S
C1132 C1144 1.349 . S
C1133 C1131 1.327 . S
C1133 C1149 1.429 . S
C1133 H1155 0.950 . S
C1134 H1130 0.949 . S
C1134 C1142 1.574 . S
C1134 C1150 1.368 . S
H1135 C1143 0.950 . S
H1136 C1141 0.950 . S
H1137 C1142 0.949 . S
H1138 C1144 0.950 . S
H1139 C1145 0.950 . S
H1140 C1146 0.949 . S
C1141 H1136 0.950 . S
C1141 C1143 1.327 . S
C1141 C1147 1.429 . S
C1142 C1134 1.574 . S
C1142 H1137 0.949 . S
C1142 C1148 1.368 . S
C1143 C1127 1.349 . S
C1143 H1135 0.950 . S
C1143 C1141 1.327 . S
C1144 C1132 1.349 . S
C1144 H1138 0.950 . S
C1144 C1145 1.327 . S
C1145 H1139 0.950 . S
C1145 C1144 1.327 . S
C1145 C1149 1.429 . S
C1146 C1129 1.574 . S
C1146 H1140 0.949 . S
C1146 C1150 1.368 . S
C1147 C1128 1.429 . S
C1147 C1141 1.429 . S
C1147 C1148 1.523 . S
C1148 C1129 1.368 . S
C1148 C1142 1.368 . S
C1148 C1147 1.523 . S
C1149 C1133 1.429 . S
C1149 C1145 1.429 . S
C1149 C1150 1.523 . S
C1150 C1134 1.368 . S
C1150 C1146 1.368 . S
C1150 C1149 1.523 . S
H1151 C1126 0.950 . S
H1152 C1128 0.950 . S
H1153 C1129 0.949 . S
H1154 C1131 0.950 . S
H1155 C1133 0.950 . S
C1156 C1157 1.349 . S
C1156 C1158 1.327 . S
C1156 H1181 0.950 . S
C1157 C1156 1.349 . S
C1157 C1173 1.349 . S
C1158 C1156 1.327 . S
C1158 C1177 1.429 . S
C1158 H1182 0.950 . S
C1159 C1176 1.574 . S
C1159 C1178 1.368 . S
C1159 H1183 0.949 . S
H1160 C1164 0.949 . S
C1161 C1162 1.349 . S
C1161 C1163 1.327 . S
C1161 H1184 0.950 . S
C1162 C1161 1.349 . S
C1162 C1174 1.349 . S
C1163 C1161 1.327 . S
C1163 C1179 1.429 . S
C1163 H1185 0.950 . S
C1164 H1160 0.949 . S
C1164 C1172 1.574 . S
C1164 C1180 1.368 . S
H1165 C1173 0.950 . S
H1166 C1171 0.950 . S
H1167 C1172 0.949 . S
H1168 C1174 0.950 . S
H1169 C1175 0.950 . S
H1170 C1176 0.949 . S
C1171 H1166 0.950 . S
C1171 C1173 1.327 . S
C1171 C1177 1.429 . S
C1172 C1164 1.574 . S
C1172 H1167 0.949 . S
C1172 C1178 1.368 . S
C1173 C1157 1.349 . S
C1173 H1165 0.950 . S
C1173 C1171 1.327 . S
C1174 C1162 1.349 . S
C1174 H1168 0.950 . S
C1174 C1175 1.327 . S
C1175 H1169 0.950 . S
C1175 C1174 1.327 . S
C1175 C1179 1.429 . S
C1176 C1159 1.574 . S
C1176 H1170 0.949 . S
C1176 C1180 1.368 . S
C1177 C1158 1.429 . S
C1177 C1171 1.429 . S
C1177 C1178 1.523 . S
C1178 C1159 1.368 . S
C1178 C1172 1.368 . S
C1178 C1177 1.523 . S
C1179 C1163 1.429 . S
C1179 C1175 1.429 . S
C1179 C1180 1.523 . S
C1180 C1164 1.368 . S
C1180 C1176 1.368 . S
C1180 C1179 1.523 . S
H1181 C1156 0.950 . S
H1182 C1158 0.950 . S
H1183 C1159 0.949 . S
H1184 C1161 0.950 . S
H1185 C1163 0.950 . S
C1186 C1187 1.349 . S
C1186 C1188 1.327 . S
C1186 H1211 0.950 . S
C1187 C1186 1.349 . S
C1187 C1203 1.349 . S
C1188 C1186 1.327 . S
C1188 C1207 1.429 . S
C1188 H1212 0.950 . S
C1189 C1206 1.574 . S
C1189 C1208 1.368 . S
C1189 H1213 0.949 . S
H1190 C1194 0.949 . S
C1191 C1192 1.349 . S
C1191 C1193 1.327 . S
C1191 H1214 0.950 . S
C1192 C1191 1.349 . S
C1192 C1204 1.349 . S
C1193 C1191 1.327 . S
C1193 C1209 1.429 . S
C1193 H1215 0.950 . S
C1194 H1190 0.949 . S
C1194 C1202 1.574 . S
C1194 C1210 1.368 . S
H1195 C1203 0.950 . S
H1196 C1201 0.950 . S
H1197 C1202 0.949 . S
H1198 C1204 0.950 . S
H1199 C1205 0.950 . S
H1200 C1206 0.949 . S
C1201 H1196 0.950 . S
C1201 C1203 1.327 . S
C1201 C1207 1.429 . S
C1202 C1194 1.574 . S
C1202 H1197 0.949 . S
C1202 C1208 1.368 . S
C1203 C1187 1.349 . S
C1203 H1195 0.950 . S
C1203 C1201 1.327 . S
C1204 C1192 1.349 . S
C1204 H1198 0.950 . S
C1204 C1205 1.327 . S
C1205 H1199 0.950 . S
C1205 C1204 1.327 . S
C1205 C1209 1.429 . S
C1206 C1189 1.574 . S
C1206 H1200 0.949 . S
C1206 C1210 1.368 . S
C1207 C1188 1.429 . S
C1207 C1201 1.429 . S
C1207 C1208 1.523 . S
C1208 C1189 1.368 . S
C1208 C1202 1.368 . S
C1208 C1207 1.523 . S
C1209 C1193 1.429 . S
C1209 C1205 1.429 . S
C1209 C1210 1.523 . S
C1210 C1194 1.368 . S
C1210 C1206 1.368 . S
C1210 C1209 1.523 . S
H1211 C1186 0.950 . S
H1212 C1188 0.950 . S
H1213 C1189 0.949 . S
H1214 C1191 0.950 . S
H1215 C1193 0.950 . S
C1216 C1217 1.349 1_565 S
C1216 C1218 1.327 . S
C1216 H1241 0.950 . S
C1217 C1216 1.349 1_545 S
C1217 C1233 1.349 . S
C1218 C1216 1.327 . S
C1218 C1237 1.429 1_565 S
C1218 H1242 0.950 . S
C1219 C1236 1.574 . S
C1219 C1238 1.368 . S
C1219 H1243 0.949 . S
H1220 C1224 0.949 1_565 S
C1221 C1222 1.349 . S
C1221 C1223 1.327 . S
C1221 H1244 0.950 . S
C1222 C1221 1.349 . S
C1222 C1234 1.349 . S
C1223 C1221 1.327 . S
C1223 C1239 1.429 1_455 S
C1223 H1245 0.950 . S
C1224 H1220 0.949 1_545 S
C1224 C1232 1.574 . S
C1224 C1240 1.368 . S
H1225 C1233 0.950 . S
H1226 C1231 0.950 . S
H1227 C1232 0.939 1_565 S
H1228 C1234 0.950 . S
H1229 C1235 0.950 1_565 S
H1230 C1236 0.949 1_455 S
C1231 H1226 0.950 . S
C1231 C1233 1.327 . S
C1231 C1237 1.429 . S
C1232 C1224 1.574 . S
C1232 H1227 0.939 1_545 S
C1232 C1238 1.379 . S
C1233 C1217 1.349 . S
C1233 H1225 0.950 . S
C1233 C1231 1.327 . S
C1234 C1222 1.349 . S
C1234 H1228 0.950 . S
C1234 C1235 1.327 1_455 S
C1235 H1229 0.950 1_545 S
C1235 C1234 1.327 1_655 S
C1235 C1239 1.429 . S
C1236 C1219 1.574 . S
C1236 H1230 0.949 1_655 S
C1236 C1240 1.368 . S
C1237 C1218 1.429 1_545 S
C1237 C1231 1.429 . S
C1237 C1238 1.523 . S
C1238 C1219 1.368 . S
C1238 C1232 1.379 . S
C1238 C1237 1.523 . S
C1239 C1223 1.429 1_655 S
C1239 C1235 1.429 . S
C1239 C1240 1.523 . S
C1240 C1224 1.368 . S
C1240 C1236 1.368 . S
C1240 C1239 1.523 . S
H1241 C1216 0.950 . S
H1242 C1218 0.950 . S
H1243 C1219 0.949 . S
H1244 C1221 0.950 . S
H1245 C1223 0.950 . S
C1246 C1247 1.349 . S
C1246 C1248 1.327 . S
C1246 H1271 0.950 . S
C1247 C1246 1.349 . S
C1247 C1263 1.349 . S
C1248 C1246 1.327 . S
C1248 C1267 1.429 . S
C1248 H1272 0.950 . S
C1249 C1266 1.574 . S
C1249 C1268 1.368 . S
C1249 H1273 0.949 . S
H1250 C1254 0.949 . S
C1251 C1252 1.349 . S
C1251 C1253 1.327 . S
C1251 H1274 0.950 . S
C1252 C1251 1.349 . S
C1252 C1264 1.349 . S
C1253 C1251 1.327 . S
C1253 C1269 1.429 . S
C1253 H1275 0.950 . S
C1254 H1250 0.949 . S
C1254 C1262 1.574 . S
C1254 C1270 1.368 . S
H1255 C1263 0.950 . S
H1256 C1261 0.950 . S
H1257 C1262 0.949 . S
H1258 C1264 0.950 . S
H1259 C1265 0.950 . S
H1260 C1266 0.949 . S
C1261 H1256 0.950 . S
C1261 C1263 1.327 . S
C1261 C1267 1.429 . S
C1262 C1254 1.574 . S
C1262 H1257 0.949 . S
C1262 C1268 1.368 . S
C1263 C1247 1.349 . S
C1263 H1255 0.950 . S
C1263 C1261 1.327 . S
C1264 C1252 1.349 . S
C1264 H1258 0.950 . S
C1264 C1265 1.327 . S
C1265 H1259 0.950 . S
C1265 C1264 1.327 . S
C1265 C1269 1.429 . S
C1266 C1249 1.574 . S
C1266 H1260 0.949 . S
C1266 C1270 1.368 . S
C1267 C1248 1.429 . S
C1267 C1261 1.429 . S
C1267 C1268 1.523 . S
C1268 C1249 1.368 . S
C1268 C1262 1.368 . S
C1268 C1267 1.523 . S
C1269 C1253 1.429 . S
C1269 C1265 1.429 . S
C1269 C1270 1.523 . S
C1270 C1254 1.368 . S
C1270 C1266 1.368 . S
C1270 C1269 1.523 . S
H1271 C1246 0.950 . S
H1272 C1248 0.950 . S
H1273 C1249 0.949 . S
H1274 C1251 0.950 . S
H1275 C1253 0.950 . S
C1276 C1277 1.349 . S
C1276 C1278 1.327 . S
C1276 H1301 0.950 . S
C1277 C1276 1.349 . S
C1277 C1293 1.349 1_545 S
C1278 C1276 1.327 . S
C1278 C1297 1.429 . S
C1278 H1302 0.950 . S
C1279 C1296 1.574 . S
C1279 C1298 1.368 1_565 S
C1279 H1303 0.949 . S
H1280 C1284 0.949 . S
C1281 C1282 1.371 . S
C1281 C1283 1.317 1_545 S
C1281 H1304 0.936 1_545 S
C1282 C1281 1.371 . S
C1282 C1294 1.349 . S
C1283 C1281 1.317 1_565 S
C1283 C1299 1.423 1_565 S
C1283 H1305 0.959 . S
C1284 H1280 0.949 . S
C1284 C1292 1.574 . S
C1284 C1300 1.368 . S
H1285 C1293 0.950 . S
H1286 C1291 0.950 . S
H1287 C1292 0.949 . S
H1288 C1294 0.950 . S
H1289 C1295 0.950 . S
H1290 C1296 0.949 . S
C1291 H1286 0.950 . S
C1291 C1293 1.327 . S
C1291 C1297 1.429 1_565 S
C1292 C1284 1.574 . S
C1292 H1287 0.949 . S
C1292 C1298 1.368 . S
C1293 C1277 1.349 1_565 S
C1293 H1285 0.950 . S
C1293 C1291 1.327 . S
C1294 C1282 1.349 . S
C1294 H1288 0.950 . S
C1294 C1295 1.327 . S
C1295 H1289 0.950 . S
C1295 C1294 1.327 . S
C1295 C1299 1.429 . S
C1296 C1279 1.574 . S
C1296 H1290 0.949 . S
C1296 C1300 1.368 1_565 S
C1297 C1278 1.429 . S
C1297 C1291 1.429 1_545 S
C1297 C1298 1.523 . S
C1298 C1279 1.368 1_545 S
C1298 C1292 1.368 . S
C1298 C1297 1.523 . S
C1299 C1283 1.423 1_545 S
C1299 C1295 1.429 . S
C1299 C1300 1.523 . S
C1300 C1284 1.368 . S
C1300 C1296 1.368 1_545 S
C1300 C1299 1.523 . S
H1301 C1276 0.950 . S
H1302 C1278 0.950 . S
H1303 C1279 0.949 . S
H1304 C1281 0.936 1_565 S
H1305 C1283 0.959 . S
C1306 C1307 1.349 . S
C1306 C1308 1.327 . S
C1306 H1331 0.950 . S
C1307 C1306 1.349 . S
C1307 C1323 1.349 . S
C1308 C1306 1.327 . S
C1308 C1327 1.429 . S
C1308 H1332 0.950 . S
C1309 C1326 1.574 . S
C1309 C1328 1.368 . S
C1309 H1333 0.949 . S
H1310 C1314 0.949 . S
C1311 C1312 1.349 . S
C1311 C1313 1.327 . S
C1311 H1334 0.950 . S
C1312 C1311 1.349 . S
C1312 C1324 1.349 . S
C1313 C1311 1.327 . S
C1313 C1329 1.429 . S
C1313 H1335 0.950 . S
C1314 H1310 0.949 . S
C1314 C1322 1.574 . S
C1314 C1330 1.368 . S
H1315 C1323 0.950 . S
H1316 C1321 0.950 . S
H1317 C1322 0.949 . S
H1318 C1324 0.950 . S
H1319 C1325 0.950 . S
H1320 C1326 0.949 . S
C1321 H1316 0.950 . S
C1321 C1323 1.327 . S
C1321 C1327 1.429 . S
C1322 C1314 1.574 . S
C1322 H1317 0.949 . S
C1322 C1328 1.368 . S
C1323 C1307 1.349 . S
C1323 H1315 0.950 . S
C1323 C1321 1.327 . S
C1324 C1312 1.349 . S
C1324 H1318 0.950 . S
C1324 C1325 1.327 . S
C1325 H1319 0.950 . S
C1325 C1324 1.327 . S
C1325 C1329 1.429 . S
C1326 C1309 1.574 . S
C1326 H1320 0.949 . S
C1326 C1330 1.368 . S
C1327 C1308 1.429 . S
C1327 C1321 1.429 . S
C1327 C1328 1.523 . S
C1328 C1309 1.368 . S
C1328 C1322 1.368 . S
C1328 C1327 1.523 . S
C1329 C1313 1.429 . S
C1329 C1325 1.429 . S
C1329 C1330 1.523 . S
C1330 C1314 1.368 . S
C1330 C1326 1.368 . S
C1330 C1329 1.523 . S
H1331 C1306 0.950 . S
H1332 C1308 0.950 . S
H1333 C1309 0.949 . S
H1334 C1311 0.950 . S
H1335 C1313 0.950 . S
C1336 C1337 1.349 . S
C1336 C1338 1.327 1_545 S
C1336 H1361 0.950 1_545 S
C1337 C1336 1.349 . S
C1337 C1353 1.349 . S
C1338 C1336 1.327 1_565 S
C1338 C1357 1.429 1_565 S
C1338 H1362 0.949 . S
C1339 C1356 1.574 . S
C1339 C1358 1.368 . S
C1339 H1363 0.949 . S
H1340 C1344 0.949 . S
C1341 C1342 1.349 . S
C1341 C1343 1.327 . S
C1341 H1364 0.950 . S
C1342 C1341 1.349 . S
C1342 C1354 1.349 1_545 S
C1343 C1341 1.327 . S
C1343 C1359 1.429 . S
C1343 H1365 0.950 . S
C1344 H1340 0.949 . S
C1344 C1352 1.574 . S
C1344 C1360 1.368 1_565 S
H1345 C1353 0.950 . S
H1346 C1351 0.950 . S
H1347 C1352 0.949 . S
H1348 C1354 0.950 1_455 S
H1349 C1355 0.950 . S
H1350 C1356 0.949 . S
C1351 H1346 0.950 . S
C1351 C1353 1.327 . S
C1351 C1357 1.429 . S
C1352 C1344 1.574 . S
C1352 H1347 0.949 . S
C1352 C1358 1.368 1_565 S
C1353 C1337 1.349 . S
C1353 H1345 0.950 . S
C1353 C1351 1.327 . S
C1354 C1342 1.349 1_565 S
C1354 H1348 0.950 1_655 S
C1354 C1355 1.327 . S
C1355 H1349 0.950 . S
C1355 C1354 1.327 . S
C1355 C1359 1.429 1_565 S
C1356 C1339 1.574 . S
C1356 H1350 0.949 . S
C1356 C1360 1.368 . S
C1357 C1338 1.429 1_545 S
C1357 C1351 1.429 . S
C1357 C1358 1.523 . S
C1358 C1339 1.368 . S
C1358 C1352 1.368 1_545 S
C1358 C1357 1.523 . S
C1359 C1343 1.429 . S
C1359 C1355 1.429 1_545 S
C1359 C1360 1.523 . S
C1360 C1344 1.368 1_545 S
C1360 C1356 1.368 . S
C1360 C1359 1.523 . S
H1361 C1336 0.950 1_565 S
H1362 C1338 0.949 . S
H1363 C1339 0.949 . S
H1364 C1341 0.950 . S
H1365 C1343 0.950 . S
C1366 C1367 1.349 . S
C1366 C1368 1.327 . S
C1366 H1391 0.950 . S
C1367 C1366 1.349 . S
C1367 C1383 1.349 . S
C1368 C1366 1.327 . S
C1368 C1387 1.429 . S
C1368 H1392 0.950 . S
C1369 C1386 1.574 . S
C1369 C1388 1.368 . S
C1369 H1393 0.949 . S
H1370 C1374 0.949 . S
C1371 C1372 1.349 . S
C1371 C1373 1.327 . S
C1371 H1394 0.950 . S
C1372 C1371 1.349 . S
C1372 C1384 1.349 . S
C1373 C1371 1.327 . S
C1373 C1389 1.429 . S
C1373 H1395 0.950 . S
C1374 H1370 0.949 . S
C1374 C1382 1.574 . S
C1374 C1390 1.368 . S
H1375 C1383 0.950 . S
H1376 C1381 0.950 . S
H1377 C1382 0.949 . S
H1378 C1384 0.950 . S
H1379 C1385 0.950 . S
H1380 C1386 0.949 . S
C1381 H1376 0.950 . S
C1381 C1383 1.327 . S
C1381 C1387 1.429 . S
C1382 C1374 1.574 . S
C1382 H1377 0.949 . S
C1382 C1388 1.368 . S
C1383 C1367 1.349 . S
C1383 H1375 0.950 . S
C1383 C1381 1.327 . S
C1384 C1372 1.349 . S
C1384 H1378 0.950 . S
C1384 C1385 1.327 . S
C1385 H1379 0.950 . S
C1385 C1384 1.327 . S
C1385 C1389 1.429 . S
C1386 C1369 1.574 . S
C1386 H1380 0.949 . S
C1386 C1390 1.368 . S
C1387 C1368 1.429 . S
C1387 C1381 1.429 . S
C1387 C1388 1.523 . S
C1388 C1369 1.368 . S
C1388 C1382 1.368 . S
C1388 C1387 1.523 . S
C1389 C1373 1.429 . S
C1389 C1385 1.429 . S
C1389 C1390 1.523 . S
C1390 C1374 1.368 . S
C1390 C1386 1.368 . S
C1390 C1389 1.523 . S
H1391 C1366 0.950 . S
H1392 C1368 0.950 . S
H1393 C1369 0.949 . S
H1394 C1371 0.950 . S
H1395 C1373 0.950 . S
C1396 C1397 1.349 . S
C1396 C1398 1.327 . S
C1396 H1421 0.950 1_545 S
C1397 C1396 1.349 . S
C1397 C1413 1.349 . S
C1398 C1396 1.327 . S
C1398 C1417 1.429 . S
C1398 H1422 0.950 1_545 S
C1399 C1416 1.574 . S
C1399 C1418 1.368 . S
C1399 H1423 0.949 . S
H1400 C1404 0.949 1_565 S
C1401 C1402 1.349 . S
C1401 C1403 1.327 . S
C1401 H1424 0.950 . S
C1402 C1401 1.349 . S
C1402 C1414 1.349 . S
C1403 C1401 1.327 . S
C1403 C1419 1.429 . S
C1403 H1425 0.950 . S
C1404 H1400 0.949 1_545 S
C1404 C1412 1.574 . S
C1404 C1420 1.368 . S
H1405 C1413 0.950 . S
H1406 C1411 0.950 . S
H1407 C1412 0.949 1_565 S
H1408 C1414 0.950 1_565 S
H1409 C1415 0.950 1_565 S
H1410 C1416 0.949 . S
C1411 H1406 0.950 . S
C1411 C1413 1.327 . S
C1411 C1417 1.429 . S
C1412 C1404 1.574 . S
C1412 H1407 0.949 1_545 S
C1412 C1418 1.368 . S
C1413 C1397 1.349 . S
C1413 H1405 0.950 . S
C1413 C1411 1.327 . S
C1414 C1402 1.349 . S
C1414 H1408 0.950 1_545 S
C1414 C1415 1.327 . S
C1415 H1409 0.950 1_545 S
C1415 C1414 1.327 . S
C1415 C1419 1.429 . S
C1416 C1399 1.574 . S
C1416 H1410 0.949 . S
C1416 C1420 1.368 . S
C1417 C1398 1.429 . S
C1417 C1411 1.429 . S
C1417 C1418 1.523 . S
C1418 C1399 1.368 . S
C1418 C1412 1.368 . S
C1418 C1417 1.523 . S
C1419 C1403 1.429 . S
C1419 C1415 1.429 . S
C1419 C1420 1.523 . S
C1420 C1404 1.368 . S
C1420 C1416 1.368 . S
C1420 C1419 1.523 . S
H1421 C1396 0.950 1_565 S
H1422 C1398 0.950 1_565 S
H1423 C1399 0.949 . S
H1424 C1401 0.950 . S
H1425 C1403 0.950 . S
C1426 C1427 1.349 . S
C1426 C1428 1.327 . S
C1426 H1451 0.950 . S
C1427 C1426 1.349 . S
C1427 C1443 1.349 . S
C1428 C1426 1.327 . S
C1428 C1447 1.429 . S
C1428 H1452 0.950 . S
C1429 C1446 1.574 . S
C1429 C1448 1.368 . S
C1429 H1453 0.949 . S
H1430 C1434 0.949 . S
C1431 C1432 1.349 . S
C1431 C1433 1.327 . S
C1431 H1454 0.950 . S
C1432 C1431 1.349 . S
C1432 C1444 1.349 . S
C1433 C1431 1.327 . S
C1433 C1449 1.429 . S
C1433 H1455 0.950 . S
C1434 H1430 0.949 . S
C1434 C1442 1.574 . S
C1434 C1450 1.368 . S
H1435 C1443 0.950 . S
H1436 C1441 0.950 . S
H1437 C1442 0.949 . S
H1438 C1444 0.950 . S
H1439 C1445 0.950 . S
H1440 C1446 0.949 . S
C1441 H1436 0.950 . S
C1441 C1443 1.327 . S
C1441 C1447 1.429 . S
C1442 C1434 1.574 . S
C1442 H1437 0.949 . S
C1442 C1448 1.368 . S
C1443 C1427 1.349 . S
C1443 H1435 0.950 . S
C1443 C1441 1.327 . S
C1444 C1432 1.349 . S
C1444 H1438 0.950 . S
C1444 C1445 1.327 . S
C1445 H1439 0.950 . S
C1445 C1444 1.327 . S
C1445 C1449 1.429 . S
C1446 C1429 1.574 . S
C1446 H1440 0.949 . S
C1446 C1450 1.368 . S
C1447 C1428 1.429 . S
C1447 C1441 1.429 . S
C1447 C1448 1.523 . S
C1448 C1429 1.368 . S
C1448 C1442 1.368 . S
C1448 C1447 1.523 . S
C1449 C1433 1.429 . S
C1449 C1445 1.429 . S
C1449 C1450 1.523 . S
C1450 C1434 1.368 . S
C1450 C1446 1.368 . S
C1450 C1449 1.523 . S
H1451 C1426 0.950 . S
H1452 C1428 0.950 . S
H1453 C1429 0.949 . S
H1454 C1431 0.950 . S
H1455 C1433 0.950 . S
C1456 C1457 1.323 1_554 S
C1456 C1458 1.327 . S
C1456 H1481 0.950 . S
C1457 C1456 1.323 1_556 S
C1457 C1473 1.367 . S
C1458 C1456 1.327 . S
C1458 C1477 1.429 . S
C1458 H1482 0.950 . S
C1459 C1476 1.574 . S
C1459 C1478 1.368 . S
C1459 H1483 0.949 1_554 S
H1460 C1464 0.949 . S
C1461 C1462 1.349 1_565 S
C1461 C1463 1.327 . S
C1461 H1484 0.950 . S
C1462 C1461 1.349 1_545 S
C1462 C1474 1.349 . S
C1463 C1461 1.327 . S
C1463 C1479 1.429 . S
C1463 H1485 0.950 . S
C1464 H1460 0.949 . S
C1464 C1472 1.574 . S
C1464 C1480 1.368 . S
H1465 C1473 0.950 . S
H1466 C1471 0.950 . S
H1467 C1472 0.949 . S
H1468 C1474 0.950 . S
H1469 C1475 0.973 1_545 S
H1470 C1476 0.949 . S
C1471 H1466 0.950 . S
C1471 C1473 1.327 . S
C1471 C1477 1.429 1_556 S
C1472 C1464 1.574 . S
C1472 H1467 0.949 . S
C1472 C1478 1.368 . S
C1473 C1457 1.367 . S
C1473 H1465 0.950 . S
C1473 C1471 1.327 . S
C1474 C1462 1.349 . S
C1474 H1468 0.950 . S
C1474 C1475 1.305 1_545 S
C1475 H1469 0.973 1_565 S
C1475 C1474 1.305 1_565 S
C1475 C1479 1.444 . S
C1476 C1459 1.574 . S
C1476 H1470 0.949 . S
C1476 C1480 1.368 . S
C1477 C1458 1.429 . S
C1477 C1471 1.429 1_554 S
C1477 C1478 1.523 . S
C1478 C1459 1.368 . S
C1478 C1472 1.368 . S
C1478 C1477 1.523 . S
C1479 C1463 1.429 . S
C1479 C1475 1.444 . S
C1479 C1480 1.523 . S
C1480 C1464 1.368 . S
C1480 C1476 1.368 . S
C1480 C1479 1.523 . S
H1481 C1456 0.950 . S
H1482 C1458 0.950 . S
H1483 C1459 0.949 1_556 S
H1484 C1461 0.950 . S
H1485 C1463 0.950 . S
C1486 C1487 1.349 . S
C1486 C1488 1.327 . S
C1486 H1511 0.950 1_554 S
C1487 C1486 1.349 . S
C1487 C1503 1.349 . S
C1488 C1486 1.327 . S
C1488 C1507 1.429 . S
C1488 H1512 0.950 1_554 S
C1489 C1506 1.574 . S
C1489 C1508 1.368 . S
C1489 H1513 0.949 . S
H1490 C1494 0.949 1_556 S
C1491 C1492 1.349 . S
C1491 C1493 1.327 . S
C1491 H1514 0.950 . S
C1492 C1491 1.349 . S
C1492 C1504 1.349 . S
C1493 C1491 1.327 . S
C1493 C1509 1.429 . S
C1493 H1515 0.950 . S
C1494 H1490 0.949 1_554 S
C1494 C1502 1.574 . S
C1494 C1510 1.368 . S
H1495 C1503 0.950 . S
H1496 C1501 0.950 . S
H1497 C1502 0.949 1_556 S
H1498 C1504 0.950 1_556 S
H1499 C1505 0.950 1_556 S
H1500 C1506 0.949 . S
C1501 H1496 0.950 . S
C1501 C1503 1.327 . S
C1501 C1507 1.429 . S
C1502 C1494 1.574 . S
C1502 H1497 0.949 1_554 S
C1502 C1508 1.368 . S
C1503 C1487 1.349 . S
C1503 H1495 0.950 . S
C1503 C1501 1.327 . S
C1504 C1492 1.349 . S
C1504 H1498 0.950 1_554 S
C1504 C1505 1.327 . S
C1505 H1499 0.950 1_554 S
C1505 C1504 1.327 . S
C1505 C1509 1.429 . S
C1506 C1489 1.574 . S
C1506 H1500 0.949 . S
C1506 C1510 1.368 . S
C1507 C1488 1.429 . S
C1507 C1501 1.429 . S
C1507 C1508 1.523 . S
C1508 C1489 1.368 . S
C1508 C1502 1.368 . S
C1508 C1507 1.523 . S
C1509 C1493 1.429 . S
C1509 C1505 1.429 . S
C1509 C1510 1.523 . S
C1510 C1494 1.368 . S
C1510 C1506 1.368 . S
C1510 C1509 1.523 . S
H1511 C1486 0.950 1_556 S
H1512 C1488 0.950 1_556 S
H1513 C1489 0.949 . S
H1514 C1491 0.950 . S
H1515 C1493 0.950 . S
C1516 C1517 1.349 . S
C1516 C1518 1.327 . S
C1516 H1541 0.950 . S
C1517 C1516 1.349 . S
C1517 C1533 1.349 . S
C1518 C1516 1.327 . S
C1518 C1537 1.429 . S
C1518 H1542 0.950 . S
C1519 C1536 1.574 . S
C1519 C1538 1.368 . S
C1519 H1543 0.949 . S
H1520 C1524 0.949 . S
C1521 C1522 1.349 . S
C1521 C1523 1.327 . S
C1521 H1544 0.950 . S
C1522 C1521 1.349 . S
C1522 C1534 1.349 . S
C1523 C1521 1.327 . S
C1523 C1539 1.429 . S
C1523 H1545 0.950 . S
C1524 H1520 0.949 . S
C1524 C1532 1.574 . S
C1524 C1540 1.368 . S
H1525 C1533 0.950 . S
H1526 C1531 0.950 . S
H1527 C1532 0.949 . S
H1528 C1534 0.950 . S
H1529 C1535 0.950 . S
H1530 C1536 0.949 . S
C1531 H1526 0.950 . S
C1531 C1533 1.327 . S
C1531 C1537 1.429 . S
C1532 C1524 1.574 . S
C1532 H1527 0.949 . S
C1532 C1538 1.368 . S
C1533 C1517 1.349 . S
C1533 H1525 0.950 . S
C1533 C1531 1.327 . S
C1534 C1522 1.349 . S
C1534 H1528 0.950 . S
C1534 C1535 1.327 . S
C1535 H1529 0.950 . S
C1535 C1534 1.327 . S
C1535 C1539 1.429 . S
C1536 C1519 1.574 . S
C1536 H1530 0.949 . S
C1536 C1540 1.368 . S
C1537 C1518 1.429 . S
C1537 C1531 1.429 . S
C1537 C1538 1.523 . S
C1538 C1519 1.368 . S
C1538 C1532 1.368 . S
C1538 C1537 1.523 . S
C1539 C1523 1.429 . S
C1539 C1535 1.429 . S
C1539 C1540 1.523 . S
C1540 C1524 1.368 . S
C1540 C1536 1.368 . S
C1540 C1539 1.523 . S
H1541 C1516 0.950 . S
H1542 C1518 0.950 . S
H1543 C1519 0.949 . S
H1544 C1521 0.950 . S
H1545 C1523 0.950 . S
C1546 C1547 1.349 . S
C1546 C1548 1.327 . S
C1546 H1571 0.950 . S
C1547 C1546 1.349 . S
C1547 C1563 1.349 . S
C1548 C1546 1.327 . S
C1548 C1567 1.429 . S
C1548 H1572 0.950 . S
C1549 C1566 1.574 . S
C1549 C1568 1.368 . S
C1549 H1573 0.949 . S
H1550 C1554 0.949 . S
C1551 C1552 1.349 . S
C1551 C1553 1.327 . S
C1551 H1574 0.950 . S
C1552 C1551 1.349 . S
C1552 C1564 1.349 . S
C1553 C1551 1.327 . S
C1553 C1569 1.429 . S
C1553 H1575 0.950 . S
C1554 H1550 0.949 . S
C1554 C1562 1.574 . S
C1554 C1570 1.368 . S
H1555 C1563 0.950 . S
H1556 C1561 0.950 . S
H1557 C1562 0.949 . S
H1558 C1564 0.950 . S
H1559 C1565 0.950 . S
H1560 C1566 0.949 . S
C1561 H1556 0.950 . S
C1561 C1563 1.327 . S
C1561 C1567 1.429 . S
C1562 C1554 1.574 . S
C1562 H1557 0.949 . S
C1562 C1568 1.368 . S
C1563 C1547 1.349 . S
C1563 H1555 0.950 . S
C1563 C1561 1.327 . S
C1564 C1552 1.349 . S
C1564 H1558 0.950 . S
C1564 C1565 1.327 . S
C1565 H1559 0.950 . S
C1565 C1564 1.327 . S
C1565 C1569 1.429 . S
C1566 C1549 1.574 . S
C1566 H1560 0.949 . S
C1566 C1570 1.368 . S
C1567 C1548 1.429 . S
C1567 C1561 1.429 . S
C1567 C1568 1.523 . S
C1568 C1549 1.368 . S
C1568 C1562 1.368 . S
C1568 C1567 1.523 . S
C1569 C1553 1.429 . S
C1569 C1565 1.429 . S
C1569 C1570 1.523 . S
C1570 C1554 1.368 . S
C1570 C1566 1.368 . S
C1570 C1569 1.523 . S
H1571 C1546 0.950 . S
H1572 C1548 0.950 . S
H1573 C1549 0.949 . S
H1574 C1551 0.950 . S
H1575 C1553 0.950 . S
C1576 C1577 1.349 . S
C1576 C1578 1.327 . S
C1576 H1601 0.950 . S
C1577 C1576 1.349 . S
C1577 C1593 1.349 . S
C1578 C1576 1.327 . S
C1578 C1597 1.429 . S
C1578 H1602 0.950 . S
C1579 C1596 1.574 . S
C1579 C1598 1.368 . S
C1579 H1603 0.949 . S
H1580 C1584 0.949 . S
C1581 C1582 1.349 . S
C1581 C1583 1.327 . S
C1581 H1604 0.950 . S
C1582 C1581 1.349 . S
C1582 C1594 1.349 . S
C1583 C1581 1.327 . S
C1583 C1599 1.429 . S
C1583 H1605 0.950 . S
C1584 H1580 0.949 . S
C1584 C1592 1.574 . S
C1584 C1600 1.368 . S
H1585 C1593 0.950 . S
H1586 C1591 0.950 . S
H1587 C1592 0.949 . S
H1588 C1594 0.950 . S
H1589 C1595 0.950 . S
H1590 C1596 0.949 . S
C1591 H1586 0.950 . S
C1591 C1593 1.327 . S
C1591 C1597 1.429 . S
C1592 C1584 1.574 . S
C1592 H1587 0.949 . S
C1592 C1598 1.368 . S
C1593 C1577 1.349 . S
C1593 H1585 0.950 . S
C1593 C1591 1.327 . S
C1594 C1582 1.349 . S
C1594 H1588 0.950 . S
C1594 C1595 1.327 . S
C1595 H1589 0.950 . S
C1595 C1594 1.327 . S
C1595 C1599 1.429 . S
C1596 C1579 1.574 . S
C1596 H1590 0.949 . S
C1596 C1600 1.368 . S
C1597 C1578 1.429 . S
C1597 C1591 1.429 . S
C1597 C1598 1.523 . S
C1598 C1579 1.368 . S
C1598 C1592 1.368 . S
C1598 C1597 1.523 . S
C1599 C1583 1.429 . S
C1599 C1595 1.429 . S
C1599 C1600 1.523 . S
C1600 C1584 1.368 . S
C1600 C1596 1.368 . S
C1600 C1599 1.523 . S
H1601 C1576 0.950 . S
H1602 C1578 0.950 . S
H1603 C1579 0.949 . S
H1604 C1581 0.950 . S
H1605 C1583 0.950 . S
C1606 C1607 1.349 . S
C1606 C1608 1.327 . S
C1606 H1631 0.950 . S
C1607 C1606 1.349 . S
C1607 C1623 1.349 . S
C1608 C1606 1.327 . S
C1608 C1627 1.429 . S
C1608 H1632 0.950 . S
C1609 C1626 1.574 . S
C1609 C1628 1.368 . S
C1609 H1633 0.949 . S
H1610 C1614 0.949 . S
C1611 C1612 1.349 . S
C1611 C1613 1.327 . S
C1611 H1634 0.950 . S
C1612 C1611 1.349 . S
C1612 C1624 1.349 . S
C1613 C1611 1.327 . S
C1613 C1629 1.429 . S
C1613 H1635 0.950 . S
C1614 H1610 0.949 . S
C1614 C1622 1.574 . S
C1614 C1630 1.368 . S
H1615 C1623 0.950 . S
H1616 C1621 0.950 . S
H1617 C1622 0.949 . S
H1618 C1624 0.950 . S
H1619 C1625 0.950 . S
H1620 C1626 0.949 . S
C1621 H1616 0.950 . S
C1621 C1623 1.327 . S
C1621 C1627 1.429 . S
C1622 C1614 1.574 . S
C1622 H1617 0.949 . S
C1622 C1628 1.368 . S
C1623 C1607 1.349 . S
C1623 H1615 0.950 . S
C1623 C1621 1.327 . S
C1624 C1612 1.349 . S
C1624 H1618 0.950 . S
C1624 C1625 1.327 . S
C1625 H1619 0.950 . S
C1625 C1624 1.327 . S
C1625 C1629 1.429 . S
C1626 C1609 1.574 . S
C1626 H1620 0.949 . S
C1626 C1630 1.368 . S
C1627 C1608 1.429 . S
C1627 C1621 1.429 . S
C1627 C1628 1.523 . S
C1628 C1609 1.368 . S
C1628 C1622 1.368 . S
C1628 C1627 1.523 . S
C1629 C1613 1.429 . S
C1629 C1625 1.429 . S
C1629 C1630 1.523 . S
C1630 C1614 1.368 . S
C1630 C1626 1.368 . S
C1630 C1629 1.523 . S
H1631 C1606 0.950 . S
H1632 C1608 0.950 . S
H1633 C1609 0.949 . S
H1634 C1611 0.950 . S
H1635 C1613 0.950 . S
C1636 C1637 1.349 . S
C1636 C1638 1.327 . S
C1636 H1661 0.950 . S
C1637 C1636 1.349 . S
C1637 C1653 1.349 . S
C1638 C1636 1.327 . S
C1638 C1657 1.429 . S
C1638 H1662 0.950 . S
C1639 C1656 1.574 . S
C1639 C1658 1.368 . S
C1639 H1663 0.949 . S
H1640 C1644 0.949 . S
C1641 C1642 1.349 . S
C1641 C1643 1.327 . S
C1641 H1664 0.950 . S
C1642 C1641 1.349 . S
C1642 C1654 1.349 . S
C1643 C1641 1.327 . S
C1643 C1659 1.429 . S
C1643 H1665 0.950 . S
C1644 H1640 0.949 . S
C1644 C1652 1.574 . S
C1644 C1660 1.368 . S
H1645 C1653 0.950 . S
H1646 C1651 0.950 . S
H1647 C1652 0.949 . S
H1648 C1654 0.950 . S
H1649 C1655 0.950 . S
H1650 C1656 0.949 . S
C1651 H1646 0.950 . S
C1651 C1653 1.327 . S
C1651 C1657 1.429 . S
C1652 C1644 1.574 . S
C1652 H1647 0.949 . S
C1652 C1658 1.368 . S
C1653 C1637 1.349 . S
C1653 H1645 0.950 . S
C1653 C1651 1.327 . S
C1654 C1642 1.349 . S
C1654 H1648 0.950 . S
C1654 C1655 1.327 . S
C1655 H1649 0.950 . S
C1655 C1654 1.327 . S
C1655 C1659 1.429 . S
C1656 C1639 1.574 . S
C1656 H1650 0.949 . S
C1656 C1660 1.368 . S
C1657 C1638 1.429 . S
C1657 C1651 1.429 . S
C1657 C1658 1.523 . S
C1658 C1639 1.368 . S
C1658 C1652 1.368 . S
C1658 C1657 1.523 . S
C1659 C1643 1.429 . S
C1659 C1655 1.429 . S
C1659 C1660 1.523 . S
C1660 C1644 1.368 . S
C1660 C1656 1.368 . S
C1660 C1659 1.523 . S
H1661 C1636 0.950 . S
H1662 C1638 0.950 . S
H1663 C1639 0.949 . S
H1664 C1641 0.950 . S
H1665 C1643 0.950 . S
C1666 C1667 1.349 . S
C1666 C1668 1.327 . S
C1666 H1691 0.950 . S
C1667 C1666 1.349 . S
C1667 C1683 1.349 . S
C1668 C1666 1.327 . S
C1668 C1687 1.429 . S
C1668 H1692 0.950 . S
C1669 C1686 1.574 . S
C1669 C1688 1.368 . S
C1669 H1693 0.949 . S
H1670 C1674 0.949 . S
C1671 C1672 1.349 . S
C1671 C1673 1.327 . S
C1671 H1694 0.950 . S
C1672 C1671 1.349 . S
C1672 C1684 1.349 . S
C1673 C1671 1.327 . S
C1673 C1689 1.429 . S
C1673 H1695 0.950 . S
C1674 H1670 0.949 . S
C1674 C1682 1.574 . S
C1674 C1690 1.368 . S
H1675 C1683 0.950 . S
H1676 C1681 0.950 . S
H1677 C1682 0.949 . S
H1678 C1684 0.950 . S
H1679 C1685 0.950 . S
H1680 C1686 0.949 . S
C1681 H1676 0.950 . S
C1681 C1683 1.327 . S
C1681 C1687 1.429 . S
C1682 C1674 1.574 . S
C1682 H1677 0.949 . S
C1682 C1688 1.368 . S
C1683 C1667 1.349 . S
C1683 H1675 0.950 . S
C1683 C1681 1.327 . S
C1684 C1672 1.349 . S
C1684 H1678 0.950 . S
C1684 C1685 1.327 . S
C1685 H1679 0.950 . S
C1685 C1684 1.327 . S
C1685 C1689 1.429 . S
C1686 C1669 1.574 . S
C1686 H1680 0.949 . S
C1686 C1690 1.368 . S
C1687 C1668 1.429 . S
C1687 C1681 1.429 . S
C1687 C1688 1.523 . S
C1688 C1669 1.368 . S
C1688 C1682 1.368 . S
C1688 C1687 1.523 . S
C1689 C1673 1.429 . S
C1689 C1685 1.429 . S
C1689 C1690 1.523 . S
C1690 C1674 1.368 . S
C1690 C1686 1.368 . S
C1690 C1689 1.523 . S
H1691 C1666 0.950 . S
H1692 C1668 0.950 . S
H1693 C1669 0.949 . S
H1694 C1671 0.950 . S
H1695 C1673 0.950 . S
C1696 C1697 1.349 . S
C1696 C1698 1.327 . S
C1696 H1721 0.950 . S
C1697 C1696 1.349 . S
C1697 C1713 1.349 . S
C1698 C1696 1.327 . S
C1698 C1717 1.429 . S
C1698 H1722 0.950 . S
C1699 C1716 1.574 . S
C1699 C1718 1.368 . S
C1699 H1723 0.949 . S
H1700 C1704 0.949 . S
C1701 C1702 1.349 . S
C1701 C1703 1.327 . S
C1701 H1724 0.950 . S
C1702 C1701 1.349 . S
C1702 C1714 1.349 . S
C1703 C1701 1.327 . S
C1703 C1719 1.429 . S
C1703 H1725 0.950 . S
C1704 H1700 0.949 . S
C1704 C1712 1.574 . S
C1704 C1720 1.368 . S
H1705 C1713 0.950 . S
H1706 C1711 0.950 . S
H1707 C1712 0.949 . S
H1708 C1714 0.950 . S
H1709 C1715 0.950 . S
H1710 C1716 0.949 . S
C1711 H1706 0.950 . S
C1711 C1713 1.327 . S
C1711 C1717 1.429 . S
C1712 C1704 1.574 . S
C1712 H1707 0.949 . S
C1712 C1718 1.368 . S
C1713 C1697 1.349 . S
C1713 H1705 0.950 . S
C1713 C1711 1.327 . S
C1714 C1702 1.349 . S
C1714 H1708 0.950 . S
C1714 C1715 1.327 . S
C1715 H1709 0.950 . S
C1715 C1714 1.327 . S
C1715 C1719 1.429 . S
C1716 C1699 1.574 . S
C1716 H1710 0.949 . S
C1716 C1720 1.368 . S
C1717 C1698 1.429 . S
C1717 C1711 1.429 . S
C1717 C1718 1.523 . S
C1718 C1699 1.368 . S
C1718 C1712 1.368 . S
C1718 C1717 1.523 . S
C1719 C1703 1.429 . S
C1719 C1715 1.429 . S
C1719 C1720 1.523 . S
C1720 C1704 1.368 . S
C1720 C1716 1.368 . S
C1720 C1719 1.523 . S
H1721 C1696 0.950 . S
H1722 C1698 0.950 . S
H1723 C1699 0.949 . S
H1724 C1701 0.950 . S
H1725 C1703 0.950 . S
C1726 C1727 1.349 . S
C1726 C1728 1.327 . S
C1726 H1751 0.950 . S
C1727 C1726 1.349 . S
C1727 C1743 1.349 . S
C1728 C1726 1.327 . S
C1728 C1747 1.429 . S
C1728 H1752 0.950 . S
C1729 C1746 1.574 . S
C1729 C1748 1.368 . S
C1729 H1753 0.949 . S
H1730 C1734 0.949 . S
C1731 C1732 1.349 . S
C1731 C1733 1.327 . S
C1731 H1754 0.950 . S
C1732 C1731 1.349 . S
C1732 C1744 1.349 . S
C1733 C1731 1.327 . S
C1733 C1749 1.429 . S
C1733 H1755 0.950 . S
C1734 H1730 0.949 . S
C1734 C1742 1.574 . S
C1734 C1750 1.368 . S
H1735 C1743 0.950 . S
H1736 C1741 0.950 . S
H1737 C1742 0.949 . S
H1738 C1744 0.950 . S
H1739 C1745 0.950 . S
H1740 C1746 0.949 . S
C1741 H1736 0.950 . S
C1741 C1743 1.327 . S
C1741 C1747 1.429 . S
C1742 C1734 1.574 . S
C1742 H1737 0.949 . S
C1742 C1748 1.368 . S
C1743 C1727 1.349 . S
C1743 H1735 0.950 . S
C1743 C1741 1.327 . S
C1744 C1732 1.349 . S
C1744 H1738 0.950 . S
C1744 C1745 1.327 . S
C1745 H1739 0.950 . S
C1745 C1744 1.327 . S
C1745 C1749 1.429 . S
C1746 C1729 1.574 . S
C1746 H1740 0.949 . S
C1746 C1750 1.368 . S
C1747 C1728 1.429 . S
C1747 C1741 1.429 . S
C1747 C1748 1.523 . S
C1748 C1729 1.368 . S
C1748 C1742 1.368 . S
C1748 C1747 1.523 . S
C1749 C1733 1.429 . S
C1749 C1745 1.429 . S
C1749 C1750 1.523 . S
C1750 C1734 1.368 . S
C1750 C1746 1.368 . S
C1750 C1749 1.523 . S
H1751 C1726 0.950 . S
H1752 C1728 0.950 . S
H1753 C1729 0.949 . S
H1754 C1731 0.950 . S
H1755 C1733 0.950 . S
C1756 C1757 1.349 . S
C1756 C1758 1.327 . S
C1756 H1781 0.950 . S
C1757 C1756 1.349 . S
C1757 C1773 1.349 . S
C1758 C1756 1.327 . S
C1758 C1777 1.429 . S
C1758 H1782 0.950 . S
C1759 C1776 1.574 . S
C1759 C1778 1.368 . S
C1759 H1783 0.949 . S
H1760 C1764 0.949 . S
C1761 C1762 1.349 . S
C1761 C1763 1.327 . S
C1761 H1784 0.950 . S
C1762 C1761 1.349 . S
C1762 C1774 1.349 . S
C1763 C1761 1.327 . S
C1763 C1779 1.429 . S
C1763 H1785 0.950 . S
C1764 H1760 0.949 . S
C1764 C1772 1.574 . S
C1764 C1780 1.368 . S
H1765 C1773 0.950 . S
H1766 C1771 0.950 . S
H1767 C1772 0.949 . S
H1768 C1774 0.950 . S
H1769 C1775 0.950 . S
H1770 C1776 0.949 . S
C1771 H1766 0.950 . S
C1771 C1773 1.327 . S
C1771 C1777 1.429 . S
C1772 C1764 1.574 . S
C1772 H1767 0.949 . S
C1772 C1778 1.368 . S
C1773 C1757 1.349 . S
C1773 H1765 0.950 . S
C1773 C1771 1.327 . S
C1774 C1762 1.349 . S
C1774 H1768 0.950 . S
C1774 C1775 1.327 . S
C1775 H1769 0.950 . S
C1775 C1774 1.327 . S
C1775 C1779 1.429 . S
C1776 C1759 1.574 . S
C1776 H1770 0.949 . S
C1776 C1780 1.368 . S
C1777 C1758 1.429 . S
C1777 C1771 1.429 . S
C1777 C1778 1.523 . S
C1778 C1759 1.368 . S
C1778 C1772 1.368 . S
C1778 C1777 1.523 . S
C1779 C1763 1.429 . S
C1779 C1775 1.429 . S
C1779 C1780 1.523 . S
C1780 C1764 1.368 . S
C1780 C1776 1.368 . S
C1780 C1779 1.523 . S
H1781 C1756 0.950 . S
H1782 C1758 0.950 . S
H1783 C1759 0.949 . S
H1784 C1761 0.950 . S
H1785 C1763 0.950 . S
C1786 C1787 1.349 . S
C1786 C1788 1.327 . S
C1786 H1811 0.950 . S
C1787 C1786 1.349 . S
C1787 C1803 1.349 . S
C1788 C1786 1.327 . S
C1788 C1807 1.429 . S
C1788 H1812 0.950 . S
C1789 C1806 1.574 . S
C1789 C1808 1.368 . S
C1789 H1813 0.949 . S
H1790 C1794 0.949 . S
C1791 C1792 1.349 . S
C1791 C1793 1.327 . S
C1791 H1814 0.950 . S
C1792 C1791 1.349 . S
C1792 C1804 1.349 . S
C1793 C1791 1.327 . S
C1793 C1809 1.429 . S
C1793 H1815 0.950 . S
C1794 H1790 0.949 . S
C1794 C1802 1.574 . S
C1794 C1810 1.368 . S
H1795 C1803 0.950 . S
H1796 C1801 0.950 . S
H1797 C1802 0.949 . S
H1798 C1804 0.950 . S
H1799 C1805 0.950 . S
H1800 C1806 0.949 . S
C1801 H1796 0.950 . S
C1801 C1803 1.327 . S
C1801 C1807 1.429 . S
C1802 C1794 1.574 . S
C1802 H1797 0.949 . S
C1802 C1808 1.368 . S
C1803 C1787 1.349 . S
C1803 H1795 0.950 . S
C1803 C1801 1.327 . S
C1804 C1792 1.349 . S
C1804 H1798 0.950 . S
C1804 C1805 1.327 . S
C1805 H1799 0.950 . S
C1805 C1804 1.327 . S
C1805 C1809 1.429 . S
C1806 C1789 1.574 . S
C1806 H1800 0.949 . S
C1806 C1810 1.368 . S
C1807 C1788 1.429 . S
C1807 C1801 1.429 . S
C1807 C1808 1.523 . S
C1808 C1789 1.368 . S
C1808 C1802 1.368 . S
C1808 C1807 1.523 . S
C1809 C1793 1.429 . S
C1809 C1805 1.429 . S
C1809 C1810 1.523 . S
C1810 C1794 1.368 . S
C1810 C1806 1.368 . S
C1810 C1809 1.523 . S
H1811 C1786 0.950 . S
H1812 C1788 0.950 . S
H1813 C1789 0.949 . S
H1814 C1791 0.950 . S
H1815 C1793 0.950 . S
C1816 C1817 1.349 . S
C1816 C1818 1.327 . S
C1816 H1841 0.950 . S
C1817 C1816 1.349 . S
C1817 C1833 1.349 . S
C1818 C1816 1.327 . S
C1818 C1837 1.429 . S
C1818 H1842 0.950 . S
C1819 C1836 1.574 . S
C1819 C1838 1.368 . S
C1819 H1843 0.949 . S
H1820 C1824 0.949 . S
C1821 C1822 1.349 . S
C1821 C1823 1.327 . S
C1821 H1844 0.950 . S
C1822 C1821 1.349 . S
C1822 C1834 1.349 . S
C1823 C1821 1.327 . S
C1823 C1839 1.429 . S
C1823 H1845 0.950 . S
C1824 H1820 0.949 . S
C1824 C1832 1.574 . S
C1824 C1840 1.368 . S
H1825 C1833 0.950 . S
H1826 C1831 0.950 . S
H1827 C1832 0.949 . S
H1828 C1834 0.950 . S
H1829 C1835 0.950 . S
H1830 C1836 0.949 . S
C1831 H1826 0.950 . S
C1831 C1833 1.327 . S
C1831 C1837 1.429 . S
C1832 C1824 1.574 . S
C1832 H1827 0.949 . S
C1832 C1838 1.368 . S
C1833 C1817 1.349 . S
C1833 H1825 0.950 . S
C1833 C1831 1.327 . S
C1834 C1822 1.349 . S
C1834 H1828 0.950 . S
C1834 C1835 1.327 . S
C1835 H1829 0.950 . S
C1835 C1834 1.327 . S
C1835 C1839 1.429 . S
C1836 C1819 1.574 . S
C1836 H1830 0.949 . S
C1836 C1840 1.368 . S
C1837 C1818 1.429 . S
C1837 C1831 1.429 . S
C1837 C1838 1.523 . S
C1838 C1819 1.368 . S
C1838 C1832 1.368 . S
C1838 C1837 1.523 . S
C1839 C1823 1.429 . S
C1839 C1835 1.429 . S
C1839 C1840 1.523 . S
C1840 C1824 1.368 . S
C1840 C1836 1.368 . S
C1840 C1839 1.523 . S
H1841 C1816 0.950 . S
H1842 C1818 0.950 . S
H1843 C1819 0.949 . S
H1844 C1821 0.950 . S
H1845 C1823 0.950 . S
C1846 C1847 1.349 . S
C1846 C1848 1.327 . S
C1846 H1871 0.950 . S
C1847 C1846 1.349 . S
C1847 C1863 1.349 . S
C1848 C1846 1.327 . S
C1848 C1867 1.429 . S
C1848 H1872 0.950 . S
C1849 C1866 1.574 . S
C1849 C1868 1.368 . S
C1849 H1873 0.949 . S
H1850 C1854 0.949 . S
C1851 C1852 1.349 . S
C1851 C1853 1.327 . S
C1851 H1874 0.950 . S
C1852 C1851 1.349 . S
C1852 C1864 1.349 . S
C1853 C1851 1.327 . S
C1853 C1869 1.429 . S
C1853 H1875 0.950 . S
C1854 H1850 0.949 . S
C1854 C1862 1.574 . S
C1854 C1870 1.368 . S
H1855 C1863 0.950 . S
H1856 C1861 0.950 . S
H1857 C1862 0.949 . S
H1858 C1864 0.950 . S
H1859 C1865 0.950 . S
H1860 C1866 0.949 . S
C1861 H1856 0.950 . S
C1861 C1863 1.327 . S
C1861 C1867 1.429 . S
C1862 C1854 1.574 . S
C1862 H1857 0.949 . S
C1862 C1868 1.368 . S
C1863 C1847 1.349 . S
C1863 H1855 0.950 . S
C1863 C1861 1.327 . S
C1864 C1852 1.349 . S
C1864 H1858 0.950 . S
C1864 C1865 1.327 . S
C1865 H1859 0.950 . S
C1865 C1864 1.327 . S
C1865 C1869 1.429 . S
C1866 C1849 1.574 . S
C1866 H1860 0.949 . S
C1866 C1870 1.368 . S
C1867 C1848 1.429 . S
C1867 C1861 1.429 . S
C1867 C1868 1.523 . S
C1868 C1849 1.368 . S
C1868 C1862 1.368 . S
C1868 C1867 1.523 . S
C1869 C1853 1.429 . S
C1869 C1865 1.429 . S
C1869 C1870 1.523 . S
C1870 C1854 1.368 . S
C1870 C1866 1.368 . S
C1870 C1869 1.523 . S
H1871 C1846 0.950 . S
H1872 C1848 0.950 . S
H1873 C1849 0.949 . S
H1874 C1851 0.950 . S
H1875 C1853 0.950 . S
C1876 C1877 1.349 . S
C1876 C1878 1.327 . S
C1876 H1901 0.950 . S
C1877 C1876 1.349 . S
C1877 C1893 1.349 . S
C1878 C1876 1.327 . S
C1878 C1897 1.429 . S
C1878 H1902 0.950 . S
C1879 C1896 1.574 . S
C1879 C1898 1.368 . S
C1879 H1903 0.949 . S
H1880 C1884 0.949 . S
C1881 C1882 1.349 . S
C1881 C1883 1.327 . S
C1881 H1904 0.950 . S
C1882 C1881 1.349 . S
C1882 C1894 1.349 . S
C1883 C1881 1.327 . S
C1883 C1899 1.429 . S
C1883 H1905 0.950 . S
C1884 H1880 0.949 . S
C1884 C1892 1.574 . S
C1884 C1900 1.368 . S
H1885 C1893 0.950 . S
H1886 C1891 0.950 . S
H1887 C1892 0.949 . S
H1888 C1894 0.950 1_554 S
H1889 C1895 0.950 . S
H1890 C1896 0.949 . S
C1891 H1886 0.950 . S
C1891 C1893 1.327 . S
C1891 C1897 1.429 . S
C1892 C1884 1.574 . S
C1892 H1887 0.949 . S
C1892 C1898 1.368 . S
C1893 C1877 1.349 . S
C1893 H1885 0.950 . S
C1893 C1891 1.327 . S
C1894 C1882 1.349 . S
C1894 H1888 0.950 1_556 S
C1894 C1895 1.327 . S
C1895 H1889 0.950 . S
C1895 C1894 1.327 . S
C1895 C1899 1.429 . S
C1896 C1879 1.574 . S
C1896 H1890 0.949 . S
C1896 C1900 1.368 . S
C1897 C1878 1.429 . S
C1897 C1891 1.429 . S
C1897 C1898 1.523 . S
C1898 C1879 1.368 . S
C1898 C1892 1.368 . S
C1898 C1897 1.523 . S
C1899 C1883 1.429 . S
C1899 C1895 1.429 . S
C1899 C1900 1.523 . S
C1900 C1884 1.368 . S
C1900 C1896 1.368 . S
C1900 C1899 1.523 . S
H1901 C1876 0.950 . S
H1902 C1878 0.950 . S
H1903 C1879 0.949 . S
H1904 C1881 0.950 . S
H1905 C1883 0.950 . S
C1906 C1907 1.349 . S
C1906 C1908 1.327 . S
C1906 H1931 0.950 . S
C1907 C1906 1.349 . S
C1907 C1923 1.349 . S
C1908 C1906 1.327 . S
C1908 C1927 1.429 . S
C1908 H1932 0.950 . S
C1909 C1926 1.574 . S
C1909 C1928 1.368 . S
C1909 H1933 0.949 . S
H1910 C1914 0.949 . S
C1911 C1912 1.349 . S
C1911 C1913 1.327 . S
C1911 H1934 0.950 . S
C1912 C1911 1.349 . S
C1912 C1924 1.349 . S
C1913 C1911 1.327 . S
C1913 C1929 1.429 . S
C1913 H1935 0.950 . S
C1914 H1910 0.949 . S
C1914 C1922 1.574 . S
C1914 C1930 1.368 . S
H1915 C1923 0.950 . S
H1916 C1921 0.950 . S
H1917 C1922 0.949 . S
H1918 C1924 0.950 . S
H1919 C1925 0.950 . S
H1920 C1926 0.949 . S
C1921 H1916 0.950 . S
C1921 C1923 1.327 . S
C1921 C1927 1.429 . S
C1922 C1914 1.574 . S
C1922 H1917 0.949 . S
C1922 C1928 1.368 . S
C1923 C1907 1.349 . S
C1923 H1915 0.950 . S
C1923 C1921 1.327 . S
C1924 C1912 1.349 . S
C1924 H1918 0.950 . S
C1924 C1925 1.327 . S
C1925 H1919 0.950 . S
C1925 C1924 1.327 . S
C1925 C1929 1.429 . S
C1926 C1909 1.574 . S
C1926 H1920 0.949 . S
C1926 C1930 1.368 . S
C1927 C1908 1.429 . S
C1927 C1921 1.429 . S
C1927 C1928 1.523 . S
C1928 C1909 1.368 . S
C1928 C1922 1.368 . S
C1928 C1927 1.523 . S
C1929 C1913 1.429 . S
C1929 C1925 1.429 . S
C1929 C1930 1.523 . S
C1930 C1914 1.368 . S
C1930 C1926 1.368 . S
C1930 C1929 1.523 . S
H1931 C1906 0.950 . S
H1932 C1908 0.950 . S
H1933 C1909 0.949 . S
H1934 C1911 0.950 . S
H1935 C1913 0.950 . S
C1936 C1937 1.349 . S
C1936 C1938 1.327 . S
C1936 H1961 0.950 . S
C1937 C1936 1.349 . S
C1937 C1953 1.349 . S
C1938 C1936 1.327 . S
C1938 C1957 1.429 . S
C1938 H1962 0.950 . S
C1939 C1956 1.574 . S
C1939 C1958 1.368 . S
C1939 H1963 0.949 . S
H1940 C1944 0.949 1_565 S
C1941 C1942 1.349 . S
C1941 C1943 1.327 . S
C1941 H1964 0.950 . S
C1942 C1941 1.349 . S
C1942 C1954 1.351 . S
C1943 C1941 1.327 . S
C1943 C1959 1.429 . S
C1943 H1965 0.950 . S
C1944 H1940 0.949 1_545 S
C1944 C1952 1.574 . S
C1944 C1960 1.368 . S
H1945 C1953 0.950 . S
H1946 C1951 0.950 . S
H1947 C1952 0.949 . S
H1948 C1954 0.947 1_565 S
H1949 C1955 0.950 1_565 S
H1950 C1956 0.949 . S
C1951 H1946 0.950 . S
C1951 C1953 1.327 . S
C1951 C1957 1.429 . S
C1952 C1944 1.574 . S
C1952 H1947 0.949 . S
C1952 C1958 1.368 . S
C1953 C1937 1.349 . S
C1953 H1945 0.950 . S
C1953 C1951 1.327 . S
C1954 C1942 1.351 . S
C1954 H1948 0.947 1_545 S
C1954 C1955 1.327 . S
C1955 H1949 0.950 1_545 S
C1955 C1954 1.327 . S
C1955 C1959 1.429 . S
C1956 C1939 1.574 . S
C1956 H1950 0.949 . S
C1956 C1960 1.368 . S
C1957 C1938 1.429 . S
C1957 C1951 1.429 . S
C1957 C1958 1.523 . S
C1958 C1939 1.368 . S
C1958 C1952 1.368 . S
C1958 C1957 1.523 . S
C1959 C1943 1.429 . S
C1959 C1955 1.429 . S
C1959 C1960 1.523 . S
C1960 C1944 1.368 . S
C1960 C1956 1.368 . S
C1960 C1959 1.523 . S
H1961 C1936 0.950 . S
H1962 C1938 0.950 . S
H1963 C1939 0.949 . S
H1964 C1941 0.950 . S
H1965 C1943 0.950 . S
C1966 C1967 1.349 . S
C1966 C1968 1.327 . S
C1966 H1991 0.950 . S
C1967 C1966 1.349 . S
C1967 C1983 1.349 . S
C1968 C1966 1.327 . S
C1968 C1987 1.429 . S
C1968 H1992 0.950 . S
C1969 C1986 1.574 . S
C1969 C1988 1.368 . S
C1969 H1993 0.949 . S
H1970 C1974 0.949 . S
C1971 C1972 1.349 . S
C1971 C1973 1.327 . S
C1971 H1994 0.950 . S
C1972 C1971 1.349 . S
C1972 C1984 1.349 . S
C1973 C1971 1.327 . S
C1973 C1989 1.429 . S
C1973 H1995 0.950 . S
C1974 H1970 0.949 . S
C1974 C1982 1.574 . S
C1974 C1990 1.368 . S
H1975 C1983 0.950 . S
H1976 C1981 0.950 . S
H1977 C1982 0.949 . S
H1978 C1984 0.950 . S
H1979 C1985 0.950 . S
H1980 C1986 0.949 . S
C1981 H1976 0.950 . S
C1981 C1983 1.327 . S
C1981 C1987 1.429 . S
C1982 C1974 1.574 . S
C1982 H1977 0.949 . S
C1982 C1988 1.368 . S
C1983 C1967 1.349 . S
C1983 H1975 0.950 . S
C1983 C1981 1.327 . S
C1984 C1972 1.349 . S
C1984 H1978 0.950 . S
C1984 C1985 1.327 . S
C1985 H1979 0.950 . S
C1985 C1984 1.327 . S
C1985 C1989 1.429 . S
C1986 C1969 1.574 . S
C1986 H1980 0.949 . S
C1986 C1990 1.368 . S
C1987 C1968 1.429 . S
C1987 C1981 1.429 . S
C1987 C1988 1.523 . S
C1988 C1969 1.368 . S
C1988 C1982 1.368 . S
C1988 C1987 1.523 . S
C1989 C1973 1.429 . S
C1989 C1985 1.429 . S
C1989 C1990 1.523 . S
C1990 C1974 1.368 . S
C1990 C1986 1.368 . S
C1990 C1989 1.523 . S
H1991 C1966 0.950 . S
H1992 C1968 0.950 . S
H1993 C1969 0.949 . S
H1994 C1971 0.950 . S
H1995 C1973 0.950 . S
C1996 C1997 1.349 . S
C1996 C1998 1.327 . S
C1996 H2021 0.950 . S
C1997 C1996 1.349 . S
C1997 C2013 1.349 . S
C1998 C1996 1.327 . S
C1998 C2017 1.429 . S
C1998 H2022 0.950 . S
C1999 C2016 1.574 . S
C1999 C2018 1.368 . S
C1999 H2023 0.949 . S
H2000 C2004 0.949 . S
C2001 C2002 1.349 . S
C2001 C2003 1.327 . S
C2001 H2024 0.950 . S
C2002 C2001 1.349 . S
C2002 C2014 1.349 . S
C2003 C2001 1.327 . S
C2003 C2019 1.429 . S
C2003 H2025 0.950 . S
C2004 H2000 0.949 . S
C2004 C2012 1.574 . S
C2004 C2020 1.368 . S
H2005 C2013 0.950 . S
H2006 C2011 0.950 . S
H2007 C2012 0.949 . S
H2008 C2014 0.950 . S
H2009 C2015 0.950 . S
H2010 C2016 0.949 . S
C2011 H2006 0.950 . S
C2011 C2013 1.327 . S
C2011 C2017 1.429 . S
C2012 C2004 1.574 . S
C2012 H2007 0.949 . S
C2012 C2018 1.368 . S
C2013 C1997 1.349 . S
C2013 H2005 0.950 . S
C2013 C2011 1.327 . S
C2014 C2002 1.349 . S
C2014 H2008 0.950 . S
C2014 C2015 1.327 . S
C2015 H2009 0.950 . S
C2015 C2014 1.327 . S
C2015 C2019 1.429 . S
C2016 C1999 1.574 . S
C2016 H2010 0.949 . S
C2016 C2020 1.368 . S
C2017 C1998 1.429 . S
C2017 C2011 1.429 . S
C2017 C2018 1.523 . S
C2018 C1999 1.368 . S
C2018 C2012 1.368 . S
C2018 C2017 1.523 . S
C2019 C2003 1.429 . S
C2019 C2015 1.429 . S
C2019 C2020 1.523 . S
C2020 C2004 1.368 . S
C2020 C2016 1.368 . S
C2020 C2019 1.523 . S
H2021 C1996 0.950 . S
H2022 C1998 0.950 . S
H2023 C1999 0.949 . S
H2024 C2001 0.950 . S
H2025 C2003 0.950 . S
C2026 C2027 1.349 . S
C2026 C2028 1.327 . S
C2026 H2051 0.950 . S
C2027 C2026 1.349 . S
C2027 C2043 1.349 . S
C2028 C2026 1.327 . S
C2028 C2047 1.429 . S
C2028 H2052 0.950 . S
C2029 C2046 1.574 . S
C2029 C2048 1.368 . S
C2029 H2053 0.949 . S
H2030 C2034 0.949 . S
C2031 C2032 1.349 . S
C2031 C2033 1.327 . S
C2031 H2054 0.950 . S
C2032 C2031 1.349 . S
C2032 C2044 1.349 . S
C2033 C2031 1.327 . S
C2033 C2049 1.429 . S
C2033 H2055 0.950 . S
C2034 H2030 0.949 . S
C2034 C2042 1.574 . S
C2034 C2050 1.368 . S
H2035 C2043 0.950 . S
H2036 C2041 0.950 . S
H2037 C2042 0.949 . S
H2038 C2044 0.950 . S
H2039 C2045 0.950 . S
H2040 C2046 0.949 . S
C2041 H2036 0.950 . S
C2041 C2043 1.327 . S
C2041 C2047 1.429 . S
C2042 C2034 1.574 . S
C2042 H2037 0.949 . S
C2042 C2048 1.368 . S
C2043 C2027 1.349 . S
C2043 H2035 0.950 . S
C2043 C2041 1.327 . S
C2044 C2032 1.349 . S
C2044 H2038 0.950 . S
C2044 C2045 1.327 . S
C2045 H2039 0.950 . S
C2045 C2044 1.327 . S
C2045 C2049 1.429 . S
C2046 C2029 1.574 . S
C2046 H2040 0.949 . S
C2046 C2050 1.368 . S
C2047 C2028 1.429 . S
C2047 C2041 1.429 . S
C2047 C2048 1.523 . S
C2048 C2029 1.368 . S
C2048 C2042 1.368 . S
C2048 C2047 1.523 . S
C2049 C2033 1.429 . S
C2049 C2045 1.429 . S
C2049 C2050 1.523 . S
C2050 C2034 1.368 . S
C2050 C2046 1.368 . S
C2050 C2049 1.523 . S
H2051 C2026 0.950 . S
H2052 C2028 0.950 . S
H2053 C2029 0.949 . S
H2054 C2031 0.950 . S
H2055 C2033 0.950 . S
C2056 C2057 1.349 . S
C2056 C2058 1.327 . S
C2056 H2081 0.950 . S
C2057 C2056 1.349 . S
C2057 C2073 1.349 . S
C2058 C2056 1.327 . S
C2058 C2077 1.429 . S
C2058 H2082 0.950 . S
C2059 C2076 1.574 . S
C2059 C2078 1.368 . S
C2059 H2083 0.949 . S
H2060 C2064 0.949 . S
C2061 C2062 1.349 . S
C2061 C2063 1.327 . S
C2061 H2084 0.950 . S
C2062 C2061 1.349 . S
C2062 C2074 1.349 . S
C2063 C2061 1.327 . S
C2063 C2079 1.429 . S
C2063 H2085 0.950 . S
C2064 H2060 0.949 . S
C2064 C2072 1.574 . S
C2064 C2080 1.368 . S
H2065 C2073 0.950 . S
H2066 C2071 0.950 . S
H2067 C2072 0.949 . S
H2068 C2074 0.950 . S
H2069 C2075 0.950 . S
H2070 C2076 0.949 . S
C2071 H2066 0.950 . S
C2071 C2073 1.327 . S
C2071 C2077 1.429 . S
C2072 C2064 1.574 . S
C2072 H2067 0.949 . S
C2072 C2078 1.368 . S
C2073 C2057 1.349 . S
C2073 H2065 0.950 . S
C2073 C2071 1.327 . S
C2074 C2062 1.349 . S
C2074 H2068 0.950 . S
C2074 C2075 1.327 . S
C2075 H2069 0.950 . S
C2075 C2074 1.327 . S
C2075 C2079 1.429 . S
C2076 C2059 1.574 . S
C2076 H2070 0.949 . S
C2076 C2080 1.368 . S
C2077 C2058 1.429 . S
C2077 C2071 1.429 . S
C2077 C2078 1.523 . S
C2078 C2059 1.368 . S
C2078 C2072 1.368 . S
C2078 C2077 1.523 . S
C2079 C2063 1.429 . S
C2079 C2075 1.429 . S
C2079 C2080 1.523 . S
C2080 C2064 1.368 . S
C2080 C2076 1.368 . S
C2080 C2079 1.523 . S
H2081 C2056 0.950 . S
H2082 C2058 0.950 . S
H2083 C2059 0.949 . S
H2084 C2061 0.950 . S
H2085 C2063 0.950 . S
C2086 C2087 1.349 . S
C2086 C2088 1.327 . S
C2086 H2111 0.950 . S
C2087 C2086 1.349 . S
C2087 C2103 1.349 . S
C2088 C2086 1.327 . S
C2088 C2107 1.429 . S
C2088 H2112 0.950 . S
C2089 C2106 1.574 . S
C2089 C2108 1.368 . S
C2089 H2113 0.949 . S
H2090 C2094 0.949 . S
C2091 C2092 1.349 . S
C2091 C2093 1.327 . S
C2091 H2114 0.950 . S
C2092 C2091 1.349 . S
C2092 C2104 1.349 . S
C2093 C2091 1.327 . S
C2093 C2109 1.429 . S
C2093 H2115 0.950 . S
C2094 H2090 0.949 . S
C2094 C2102 1.574 . S
C2094 C2110 1.368 . S
H2095 C2103 0.950 . S
H2096 C2101 0.950 . S
H2097 C2102 0.949 . S
H2098 C2104 0.950 . S
H2099 C2105 0.950 . S
H2100 C2106 0.949 . S
C2101 H2096 0.950 . S
C2101 C2103 1.327 . S
C2101 C2107 1.429 . S
C2102 C2094 1.574 . S
C2102 H2097 0.949 . S
C2102 C2108 1.368 . S
C2103 C2087 1.349 . S
C2103 H2095 0.950 . S
C2103 C2101 1.327 . S
C2104 C2092 1.349 . S
C2104 H2098 0.950 . S
C2104 C2105 1.327 . S
C2105 H2099 0.950 . S
C2105 C2104 1.327 . S
C2105 C2109 1.429 . S
C2106 C2089 1.574 . S
C2106 H2100 0.949 . S
C2106 C2110 1.368 . S
C2107 C2088 1.429 . S
C2107 C2101 1.429 . S
C2107 C2108 1.523 . S
C2108 C2089 1.368 . S
C2108 C2102 1.368 . S
C2108 C2107 1.523 . S
C2109 C2093 1.429 . S
C2109 C2105 1.429 . S
C2109 C2110 1.523 . S
C2110 C2094 1.368 . S
C2110 C2106 1.368 . S
C2110 C2109 1.523 . S
H2111 C2086 0.950 . S
H2112 C2088 0.950 . S
H2113 C2089 0.949 . S
H2114 C2091 0.950 . S
H2115 C2093 0.950 . S
C2116 C2117 1.349 . S
C2116 C2118 1.327 . S
C2116 H2141 0.950 . S
C2117 C2116 1.349 . S
C2117 C2133 1.349 . S
C2118 C2116 1.327 . S
C2118 C2137 1.429 . S
C2118 H2142 0.950 . S
C2119 C2136 1.574 . S
C2119 C2138 1.368 . S
C2119 H2143 0.962 . S
H2120 C2124 0.949 . S
C2121 C2122 1.349 . S
C2121 C2123 1.327 . S
C2121 H2144 0.950 1_545 S
C2122 C2121 1.349 . S
C2122 C2134 1.349 . S
C2123 C2121 1.327 . S
C2123 C2139 1.429 . S
C2123 H2145 0.950 1_545 S
C2124 H2120 0.949 . S
C2124 C2132 1.574 . S
C2124 C2140 1.368 . S
H2125 C2133 0.950 . S
H2126 C2131 0.950 . S
H2127 C2132 0.949 . S
H2128 C2134 0.950 . S
H2129 C2135 0.950 . S
H2130 C2136 0.949 1_565 S
C2131 H2126 0.950 . S
C2131 C2133 1.327 . S
C2131 C2137 1.429 . S
C2132 C2124 1.574 . S
C2132 H2127 0.949 . S
C2132 C2138 1.368 . S
C2133 C2117 1.349 . S
C2133 H2125 0.950 . S
C2133 C2131 1.327 . S
C2134 C2122 1.349 . S
C2134 H2128 0.950 . S
C2134 C2135 1.327 . S
C2135 H2129 0.950 . S
C2135 C2134 1.327 . S
C2135 C2139 1.429 . S
C2136 C2119 1.574 . S
C2136 H2130 0.949 1_545 S
C2136 C2140 1.368 . S
C2137 C2118 1.429 . S
C2137 C2131 1.429 . S
C2137 C2138 1.523 . S
C2138 C2119 1.368 . S
C2138 C2132 1.368 . S
C2138 C2137 1.523 . S
C2139 C2123 1.429 . S
C2139 C2135 1.429 . S
C2139 C2140 1.523 . S
C2140 C2124 1.368 . S
C2140 C2136 1.368 . S
C2140 C2139 1.523 . S
H2141 C2116 0.950 . S
H2142 C2118 0.950 . S
H2143 C2119 0.962 . S
H2144 C2121 0.950 1_565 S
H2145 C2123 0.950 1_565 S
C2146 C2147 1.349 . S
C2146 C2148 1.327 . S
C2146 H2171 0.950 . S
C2147 C2146 1.349 . S
C2147 C2163 1.349 . S
C2148 C2146 1.327 . S
C2148 C2167 1.429 . S
C2148 H2172 0.950 . S
C2149 C2166 1.574 . S
C2149 C2168 1.368 . S
C2149 H2173 0.949 . S
H2150 C2154 0.949 . S
C2151 C2152 1.349 . S
C2151 C2153 1.327 . S
C2151 H2174 0.950 . S
C2152 C2151 1.349 . S
C2152 C2164 1.349 . S
C2153 C2151 1.327 . S
C2153 C2169 1.429 . S
C2153 H2175 0.950 . S
C2154 H2150 0.949 . S
C2154 C2162 1.574 . S
C2154 C2170 1.368 . S
H2155 C2163 0.950 . S
H2156 C2161 0.950 . S
H2157 C2162 0.949 . S
H2158 C2164 0.950 . S
H2159 C2165 0.950 . S
H2160 C2166 0.949 . S
C2161 H2156 0.950 . S
C2161 C2163 1.327 . S
C2161 C2167 1.429 . S
C2162 C2154 1.574 . S
C2162 H2157 0.949 . S
C2162 C2168 1.368 . S
C2163 C2147 1.349 . S
C2163 H2155 0.950 . S
C2163 C2161 1.327 . S
C2164 C2152 1.349 . S
C2164 H2158 0.950 . S
C2164 C2165 1.327 . S
C2165 H2159 0.950 . S
C2165 C2164 1.327 . S
C2165 C2169 1.429 . S
C2166 C2149 1.574 . S
C2166 H2160 0.949 . S
C2166 C2170 1.368 . S
C2167 C2148 1.429 . S
C2167 C2161 1.429 . S
C2167 C2168 1.523 . S
C2168 C2149 1.368 . S
C2168 C2162 1.368 . S
C2168 C2167 1.523 . S
C2169 C2153 1.429 . S
C2169 C2165 1.429 . S
C2169 C2170 1.523 . S
C2170 C2154 1.368 . S
C2170 C2166 1.368 . S
C2170 C2169 1.523 . S
H2171 C2146 0.950 . S
H2172 C2148 0.950 . S
H2173 C2149 0.949 . S
H2174 C2151 0.950 . S
H2175 C2153 0.950 . S
C2176 C2177 1.349 . S
C2176 C2178 1.327 . S
C2176 H2201 0.950 . S
C2177 C2176 1.349 . S
C2177 C2193 1.349 . S
C2178 C2176 1.327 . S
C2178 C2197 1.429 . S
C2178 H2202 0.950 . S
C2179 C2196 1.574 . S
C2179 C2198 1.368 . S
C2179 H2203 0.949 . S
H2180 C2184 0.949 . S
C2181 C2182 1.349 . S
C2181 C2183 1.327 . S
C2181 H2204 0.950 . S
C2182 C2181 1.349 . S
C2182 C2194 1.349 . S
C2183 C2181 1.327 . S
C2183 C2199 1.429 1_556 S
C2183 H2205 0.950 . S
C2184 H2180 0.949 . S
C2184 C2192 1.574 . S
C2184 C2200 1.368 . S
H2185 C2193 0.950 . S
H2186 C2191 0.950 . S
H2187 C2192 0.949 . S
H2188 C2194 0.950 . S
H2189 C2195 0.976 . S
H2190 C2196 0.949 . S
C2191 H2186 0.950 . S
C2191 C2193 1.327 . S
C2191 C2197 1.429 . S
C2192 C2184 1.574 . S
C2192 H2187 0.949 . S
C2192 C2198 1.368 . S
C2193 C2177 1.349 . S
C2193 H2185 0.950 . S
C2193 C2191 1.327 . S
C2194 C2182 1.349 . S
C2194 H2188 0.950 . S
C2194 C2195 1.308 1_556 S
C2195 H2189 0.976 . S
C2195 C2194 1.308 1_554 S
C2195 C2199 1.426 . S
C2196 C2179 1.574 . S
C2196 H2190 0.949 . S
C2196 C2200 1.368 . S
C2197 C2178 1.429 . S
C2197 C2191 1.429 . S
C2197 C2198 1.523 . S
C2198 C2179 1.368 . S
C2198 C2192 1.368 . S
C2198 C2197 1.523 . S
C2199 C2183 1.429 1_554 S
C2199 C2195 1.426 . S
C2199 C2200 1.523 . S
C2200 C2184 1.368 . S
C2200 C2196 1.368 . S
C2200 C2199 1.523 . S
H2201 C2176 0.950 . S
H2202 C2178 0.950 . S
H2203 C2179 0.949 . S
H2204 C2181 0.950 . S
H2205 C2183 0.950 . S
C2206 C2207 1.349 . S
C2206 C2208 1.327 . S
C2206 H2231 0.950 . S
C2207 C2206 1.349 . S
C2207 C2223 1.349 . S
C2208 C2206 1.327 . S
C2208 C2227 1.429 . S
C2208 H2232 0.950 . S
C2209 C2226 1.574 . S
C2209 C2228 1.368 . S
C2209 H2233 0.957 . S
H2210 C2214 0.949 . S
C2211 C2212 1.349 . S
C2211 C2213 1.327 . S
C2211 H2234 0.974 . S
C2212 C2211 1.349 . S
C2212 C2224 1.349 . S
C2213 C2211 1.327 . S
C2213 C2229 1.429 . S
C2213 H2235 0.951 . S
C2214 H2210 0.949 . S
C2214 C2222 1.574 . S
C2214 C2230 1.368 . S
H2215 C2223 0.950 . S
H2216 C2221 0.975 . S
H2217 C2222 0.949 . S
H2218 C2224 0.950 . S
H2219 C2225 0.950 . S
H2220 C2226 0.950 . S
C2221 H2216 0.975 . S
C2221 C2223 1.327 . S
C2221 C2227 1.429 . S
C2222 C2214 1.574 . S
C2222 H2217 0.949 . S
C2222 C2228 1.368 . S
C2223 C2207 1.349 . S
C2223 H2215 0.950 . S
C2223 C2221 1.327 . S
C2224 C2212 1.349 . S
C2224 H2218 0.950 . S
C2224 C2225 1.327 . S
C2225 H2219 0.950 . S
C2225 C2224 1.327 . S
C2225 C2229 1.429 . S
C2226 C2209 1.574 . S
C2226 H2220 0.950 . S
C2226 C2230 1.368 . S
C2227 C2208 1.429 . S
C2227 C2221 1.429 . S
C2227 C2228 1.523 . S
C2228 C2209 1.368 . S
C2228 C2222 1.368 . S
C2228 C2227 1.523 . S
C2229 C2213 1.429 . S
C2229 C2225 1.429 . S
C2229 C2230 1.523 . S
C2230 C2214 1.368 . S
C2230 C2226 1.368 . S
C2230 C2229 1.523 . S
H2231 C2206 0.950 . S
H2232 C2208 0.950 . S
H2233 C2209 0.957 . S
H2234 C2211 0.974 . S
H2235 C2213 0.951 . S
C2236 C2237 1.349 . S
C2236 C2238 1.327 . S
C2236 H2261 0.950 . S
C2237 C2236 1.349 . S
C2237 C2253 1.349 . S
C2238 C2236 1.327 . S
C2238 C2257 1.429 . S
C2238 H2262 0.950 . S
C2239 C2256 1.574 . S
C2239 C2258 1.368 . S
C2239 H2263 0.949 . S
H2240 C2244 0.949 . S
C2241 C2242 1.349 . S
C2241 C2243 1.327 . S
C2241 H2264 0.950 . S
C2242 C2241 1.349 . S
C2242 C2254 1.349 . S
C2243 C2241 1.327 . S
C2243 C2259 1.429 . S
C2243 H2265 0.950 . S
C2244 H2240 0.949 . S
C2244 C2252 1.574 . S
C2244 C2260 1.368 . S
H2245 C2253 0.950 . S
H2246 C2251 0.950 . S
H2247 C2252 0.949 . S
H2248 C2254 0.950 . S
H2249 C2255 0.950 . S
H2250 C2256 0.949 . S
C2251 H2246 0.950 . S
C2251 C2253 1.327 . S
C2251 C2257 1.429 . S
C2252 C2244 1.574 . S
C2252 H2247 0.949 . S
C2252 C2258 1.368 . S
C2253 C2237 1.349 . S
C2253 H2245 0.950 . S
C2253 C2251 1.327 . S
C2254 C2242 1.349 . S
C2254 H2248 0.950 . S
C2254 C2255 1.327 . S
C2255 H2249 0.950 . S
C2255 C2254 1.327 . S
C2255 C2259 1.429 . S
C2256 C2239 1.574 . S
C2256 H2250 0.949 . S
C2256 C2260 1.368 . S
C2257 C2238 1.429 . S
C2257 C2251 1.429 . S
C2257 C2258 1.523 . S
C2258 C2239 1.368 . S
C2258 C2252 1.368 . S
C2258 C2257 1.523 . S
C2259 C2243 1.429 . S
C2259 C2255 1.429 . S
C2259 C2260 1.523 . S
C2260 C2244 1.368 . S
C2260 C2256 1.368 . S
C2260 C2259 1.523 . S
H2261 C2236 0.950 . S
H2262 C2238 0.950 . S
H2263 C2239 0.949 . S
H2264 C2241 0.950 . S
H2265 C2243 0.950 . S
C2266 C2267 1.349 . S
C2266 C2268 1.327 . S
C2266 H2291 0.950 . S
C2267 C2266 1.349 . S
C2267 C2283 1.349 . S
C2268 C2266 1.327 . S
C2268 C2287 1.429 . S
C2268 H2292 0.950 . S
C2269 C2286 1.574 . S
C2269 C2288 1.368 . S
C2269 H2293 0.949 . S
H2270 C2274 0.949 . S
C2271 C2272 1.349 . S
C2271 C2273 1.327 . S
C2271 H2294 0.950 . S
C2272 C2271 1.349 . S
C2272 C2284 1.349 . S
C2273 C2271 1.327 . S
C2273 C2289 1.429 . S
C2273 H2295 0.950 . S
C2274 H2270 0.949 . S
C2274 C2282 1.574 . S
C2274 C2290 1.368 . S
H2275 C2283 0.950 . S
H2276 C2281 0.950 . S
H2277 C2282 0.949 . S
H2278 C2284 0.950 . S
H2279 C2285 0.950 . S
H2280 C2286 0.949 . S
C2281 H2276 0.950 . S
C2281 C2283 1.327 . S
C2281 C2287 1.429 . S
C2282 C2274 1.574 . S
C2282 H2277 0.949 . S
C2282 C2288 1.368 . S
C2283 C2267 1.349 . S
C2283 H2275 0.950 . S
C2283 C2281 1.327 . S
C2284 C2272 1.349 . S
C2284 H2278 0.950 . S
C2284 C2285 1.327 . S
C2285 H2279 0.950 . S
C2285 C2284 1.327 . S
C2285 C2289 1.429 . S
C2286 C2269 1.574 . S
C2286 H2280 0.949 . S
C2286 C2290 1.368 . S
C2287 C2268 1.429 . S
C2287 C2281 1.429 . S
C2287 C2288 1.523 . S
C2288 C2269 1.368 . S
C2288 C2282 1.368 . S
C2288 C2287 1.523 . S
C2289 C2273 1.429 . S
C2289 C2285 1.429 . S
C2289 C2290 1.523 . S
C2290 C2274 1.368 . S
C2290 C2286 1.368 . S
C2290 C2289 1.523 . S
H2291 C2266 0.950 . S
H2292 C2268 0.950 . S
H2293 C2269 0.949 . S
H2294 C2271 0.950 . S
H2295 C2273 0.950 . S
C2296 C2297 1.349 . S
C2296 C2298 1.327 . S
C2296 H2321 0.950 . S
C2297 C2296 1.349 . S
C2297 C2313 1.349 . S
C2298 C2296 1.327 . S
C2298 C2317 1.429 . S
C2298 H2322 0.950 . S
C2299 C2316 1.574 . S
C2299 C2318 1.368 . S
C2299 H2323 0.949 . S
H2300 C2304 0.949 . S
C2301 C2302 1.349 . S
C2301 C2303 1.327 . S
C2301 H2324 0.950 . S
C2302 C2301 1.349 . S
C2302 C2314 1.349 . S
C2303 C2301 1.327 . S
C2303 C2319 1.429 . S
C2303 H2325 0.950 . S
C2304 H2300 0.949 . S
C2304 C2312 1.574 . S
C2304 C2320 1.368 . S
H2305 C2313 0.950 . S
H2306 C2311 0.950 . S
H2307 C2312 0.949 . S
H2308 C2314 0.950 . S
H2309 C2315 0.950 . S
H2310 C2316 0.949 . S
C2311 H2306 0.950 . S
C2311 C2313 1.327 . S
C2311 C2317 1.429 . S
C2312 C2304 1.574 . S
C2312 H2307 0.949 . S
C2312 C2318 1.368 . S
C2313 C2297 1.349 . S
C2313 H2305 0.950 . S
C2313 C2311 1.327 . S
C2314 C2302 1.349 . S
C2314 H2308 0.950 . S
C2314 C2315 1.327 . S
C2315 H2309 0.950 . S
C2315 C2314 1.327 . S
C2315 C2319 1.429 . S
C2316 C2299 1.574 . S
C2316 H2310 0.949 . S
C2316 C2320 1.368 . S
C2317 C2298 1.429 . S
C2317 C2311 1.429 . S
C2317 C2318 1.523 . S
C2318 C2299 1.368 . S
C2318 C2312 1.368 . S
C2318 C2317 1.523 . S
C2319 C2303 1.429 . S
C2319 C2315 1.429 . S
C2319 C2320 1.523 . S
C2320 C2304 1.368 . S
C2320 C2316 1.368 . S
C2320 C2319 1.523 . S
H2321 C2296 0.950 . S
H2322 C2298 0.950 . S
H2323 C2299 0.949 . S
H2324 C2301 0.950 . S
H2325 C2303 0.950 . S
C2326 C2327 1.349 . S
C2326 C2328 1.327 . S
C2326 H2351 0.950 . S
C2327 C2326 1.349 . S
C2327 C2343 1.349 . S
C2328 C2326 1.327 . S
C2328 C2347 1.429 . S
C2328 H2352 0.950 . S
C2329 C2346 1.574 . S
C2329 C2348 1.368 . S
C2329 H2353 0.949 . S
H2330 C2334 0.949 . S
C2331 C2332 1.349 . S
C2331 C2333 1.327 . S
C2331 H2354 0.950 . S
C2332 C2331 1.349 . S
C2332 C2344 1.349 . S
C2333 C2331 1.327 . S
C2333 C2349 1.429 . S
C2333 H2355 0.950 . S
C2334 H2330 0.949 . S
C2334 C2342 1.574 . S
C2334 C2350 1.368 . S
H2335 C2343 0.950 . S
H2336 C2341 0.950 . S
H2337 C2342 0.949 . S
H2338 C2344 0.950 . S
H2339 C2345 0.950 . S
H2340 C2346 0.949 . S
C2341 H2336 0.950 . S
C2341 C2343 1.327 . S
C2341 C2347 1.429 . S
C2342 C2334 1.574 . S
C2342 H2337 0.949 . S
C2342 C2348 1.368 . S
C2343 C2327 1.349 . S
C2343 H2335 0.950 . S
C2343 C2341 1.327 . S
C2344 C2332 1.349 . S
C2344 H2338 0.950 . S
C2344 C2345 1.327 . S
C2345 H2339 0.950 . S
C2345 C2344 1.327 . S
C2345 C2349 1.429 . S
C2346 C2329 1.574 . S
C2346 H2340 0.949 . S
C2346 C2350 1.368 . S
C2347 C2328 1.429 . S
C2347 C2341 1.429 . S
C2347 C2348 1.523 . S
C2348 C2329 1.368 . S
C2348 C2342 1.368 . S
C2348 C2347 1.523 . S
C2349 C2333 1.429 . S
C2349 C2345 1.429 . S
C2349 C2350 1.523 . S
C2350 C2334 1.368 . S
C2350 C2346 1.368 . S
C2350 C2349 1.523 . S
H2351 C2326 0.950 . S
H2352 C2328 0.950 . S
H2353 C2329 0.949 . S
H2354 C2331 0.950 . S
H2355 C2333 0.950 . S
C2356 C2357 1.349 . S
C2356 C2358 1.327 . S
C2356 H2381 0.950 . S
C2357 C2356 1.349 . S
C2357 C2373 1.349 . S
C2358 C2356 1.327 . S
C2358 C2377 1.429 . S
C2358 H2382 0.950 . S
C2359 C2376 1.574 . S
C2359 C2378 1.368 . S
C2359 H2383 0.949 . S
H2360 C2364 0.949 . S
C2361 C2362 1.349 . S
C2361 C2363 1.327 . S
C2361 H2384 0.950 . S
C2362 C2361 1.349 . S
C2362 C2374 1.349 . S
C2363 C2361 1.327 . S
C2363 C2379 1.429 . S
C2363 H2385 0.950 . S
C2364 H2360 0.949 . S
C2364 C2372 1.574 . S
C2364 C2380 1.368 . S
H2365 C2373 0.950 . S
H2366 C2371 0.950 . S
H2367 C2372 0.949 . S
H2368 C2374 0.950 . S
H2369 C2375 0.950 . S
H2370 C2376 0.949 . S
C2371 H2366 0.950 . S
C2371 C2373 1.327 . S
C2371 C2377 1.429 . S
C2372 C2364 1.574 . S
C2372 H2367 0.949 . S
C2372 C2378 1.368 . S
C2373 C2357 1.349 . S
C2373 H2365 0.950 . S
C2373 C2371 1.327 . S
C2374 C2362 1.349 . S
C2374 H2368 0.950 . S
C2374 C2375 1.327 . S
C2375 H2369 0.950 . S
C2375 C2374 1.327 . S
C2375 C2379 1.429 . S
C2376 C2359 1.574 . S
C2376 H2370 0.949 . S
C2376 C2380 1.368 . S
C2377 C2358 1.429 . S
C2377 C2371 1.429 . S
C2377 C2378 1.523 . S
C2378 C2359 1.368 . S
C2378 C2372 1.368 . S
C2378 C2377 1.523 . S
C2379 C2363 1.429 . S
C2379 C2375 1.429 . S
C2379 C2380 1.523 . S
C2380 C2364 1.368 . S
C2380 C2376 1.368 . S
C2380 C2379 1.523 . S
H2381 C2356 0.950 . S
H2382 C2358 0.950 . S
H2383 C2359 0.949 . S
H2384 C2361 0.950 . S
H2385 C2363 0.950 . S
C2386 C2387 1.349 . S
C2386 C2388 1.327 . S
C2386 H2411 0.950 . S
C2387 C2386 1.349 . S
C2387 C2403 1.349 . S
C2388 C2386 1.327 . S
C2388 C2407 1.429 . S
C2388 H2412 0.950 . S
C2389 C2406 1.574 . S
C2389 C2408 1.368 . S
C2389 H2413 0.949 . S
H2390 C2394 0.949 . S
C2391 C2392 1.349 . S
C2391 C2393 1.327 . S
C2391 H2414 0.950 . S
C2392 C2391 1.349 . S
C2392 C2404 1.349 . S
C2393 C2391 1.327 . S
C2393 C2409 1.429 . S
C2393 H2415 0.950 . S
C2394 H2390 0.949 . S
C2394 C2402 1.574 . S
C2394 C2410 1.368 . S
H2395 C2403 0.950 . S
H2396 C2401 0.950 . S
H2397 C2402 0.949 . S
H2398 C2404 0.950 . S
H2399 C2405 0.950 . S
H2400 C2406 0.949 . S
C2401 H2396 0.950 . S
C2401 C2403 1.327 . S
C2401 C2407 1.429 . S
C2402 C2394 1.574 . S
C2402 H2397 0.949 . S
C2402 C2408 1.368 . S
C2403 C2387 1.349 . S
C2403 H2395 0.950 . S
C2403 C2401 1.327 . S
C2404 C2392 1.349 . S
C2404 H2398 0.950 . S
C2404 C2405 1.327 . S
C2405 H2399 0.950 . S
C2405 C2404 1.327 . S
C2405 C2409 1.429 . S
C2406 C2389 1.574 . S
C2406 H2400 0.949 . S
C2406 C2410 1.368 . S
C2407 C2388 1.429 . S
C2407 C2401 1.429 . S
C2407 C2408 1.523 . S
C2408 C2389 1.368 . S
C2408 C2402 1.368 . S
C2408 C2407 1.523 . S
C2409 C2393 1.429 . S
C2409 C2405 1.429 . S
C2409 C2410 1.523 . S
C2410 C2394 1.368 . S
C2410 C2406 1.368 . S
C2410 C2409 1.523 . S
H2411 C2386 0.950 . S
H2412 C2388 0.950 . S
H2413 C2389 0.949 . S
H2414 C2391 0.950 . S
H2415 C2393 0.950 . S
C2416 C2417 1.349 . S
C2416 C2418 1.327 . S
C2416 H2441 0.950 . S
C2417 C2416 1.349 . S
C2417 C2433 1.349 . S
C2418 C2416 1.327 . S
C2418 C2437 1.429 . S
C2418 H2442 0.950 . S
C2419 C2436 1.574 . S
C2419 C2438 1.368 . S
C2419 H2443 0.949 . S
H2420 C2424 0.949 . S
C2421 C2422 1.349 . S
C2421 C2423 1.327 . S
C2421 H2444 0.950 . S
C2422 C2421 1.349 . S
C2422 C2434 1.349 . S
C2423 C2421 1.327 . S
C2423 C2439 1.429 . S
C2423 H2445 0.950 . S
C2424 H2420 0.949 . S
C2424 C2432 1.574 . S
C2424 C2440 1.368 . S
H2425 C2433 0.950 . S
H2426 C2431 0.950 . S
H2427 C2432 0.949 . S
H2428 C2434 0.950 . S
H2429 C2435 0.950 . S
H2430 C2436 0.949 . S
C2431 H2426 0.950 . S
C2431 C2433 1.327 . S
C2431 C2437 1.429 . S
C2432 C2424 1.574 . S
C2432 H2427 0.949 . S
C2432 C2438 1.368 . S
C2433 C2417 1.349 . S
C2433 H2425 0.950 . S
C2433 C2431 1.327 . S
C2434 C2422 1.349 . S
C2434 H2428 0.950 . S
C2434 C2435 1.327 . S
C2435 H2429 0.950 . S
C2435 C2434 1.327 . S
C2435 C2439 1.429 . S
C2436 C2419 1.574 . S
C2436 H2430 0.949 . S
C2436 C2440 1.368 . S
C2437 C2418 1.429 . S
C2437 C2431 1.429 . S
C2437 C2438 1.523 . S
C2438 C2419 1.368 . S
C2438 C2432 1.368 . S
C2438 C2437 1.523 . S
C2439 C2423 1.429 . S
C2439 C2435 1.429 . S
C2439 C2440 1.523 . S
C2440 C2424 1.368 . S
C2440 C2436 1.368 . S
C2440 C2439 1.523 . S
H2441 C2416 0.950 . S
H2442 C2418 0.950 . S
H2443 C2419 0.949 . S
H2444 C2421 0.950 . S
H2445 C2423 0.950 . S
C2446 C2447 1.349 . S
C2446 C2448 1.327 . S
C2446 H2471 0.950 . S
C2447 C2446 1.349 . S
C2447 C2463 1.349 . S
C2448 C2446 1.327 . S
C2448 C2467 1.429 . S
C2448 H2472 0.950 . S
C2449 C2466 1.574 . S
C2449 C2468 1.368 . S
C2449 H2473 0.949 . S
H2450 C2454 0.949 . S
C2451 C2452 1.349 . S
C2451 C2453 1.327 . S
C2451 H2474 0.950 . S
C2452 C2451 1.349 . S
C2452 C2464 1.349 . S
C2453 C2451 1.327 . S
C2453 C2469 1.429 . S
C2453 H2475 0.950 . S
C2454 H2450 0.949 . S
C2454 C2462 1.574 . S
C2454 C2470 1.368 . S
H2455 C2463 0.950 . S
H2456 C2461 0.950 . S
H2457 C2462 0.949 . S
H2458 C2464 0.950 . S
H2459 C2465 0.950 . S
H2460 C2466 0.949 . S
C2461 H2456 0.950 . S
C2461 C2463 1.327 . S
C2461 C2467 1.429 . S
C2462 C2454 1.574 . S
C2462 H2457 0.949 . S
C2462 C2468 1.368 . S
C2463 C2447 1.349 . S
C2463 H2455 0.950 . S
C2463 C2461 1.327 . S
C2464 C2452 1.349 . S
C2464 H2458 0.950 . S
C2464 C2465 1.327 . S
C2465 H2459 0.950 . S
C2465 C2464 1.327 . S
C2465 C2469 1.429 . S
C2466 C2449 1.574 . S
C2466 H2460 0.949 . S
C2466 C2470 1.368 . S
C2467 C2448 1.429 . S
C2467 C2461 1.429 . S
C2467 C2468 1.523 . S
C2468 C2449 1.368 . S
C2468 C2462 1.368 . S
C2468 C2467 1.523 . S
C2469 C2453 1.429 . S
C2469 C2465 1.429 . S
C2469 C2470 1.523 . S
C2470 C2454 1.368 . S
C2470 C2466 1.368 . S
C2470 C2469 1.523 . S
H2471 C2446 0.950 . S
H2472 C2448 0.950 . S
H2473 C2449 0.949 . S
H2474 C2451 0.950 . S
H2475 C2453 0.950 . S
C2476 C2477 1.346 1_655 S
C2476 C2478 1.328 1_655 S
C2476 H2501 0.951 . S
C2477 C2476 1.346 1_455 S
C2477 C2493 1.349 . S
C2478 C2476 1.328 1_455 S
C2478 C2497 1.429 . S
C2478 H2502 0.950 1_455 S
C2479 C2496 1.574 . S
C2479 C2498 1.368 . S
C2479 H2503 0.949 . S
H2480 C2484 0.949 . S
C2481 C2482 1.349 . S
C2481 C2483 1.327 . S
C2481 H2504 0.950 . S
C2482 C2481 1.349 . S
C2482 C2494 1.349 1_554 S
C2483 C2481 1.327 . S
C2483 C2499 1.429 1_554 S
C2483 H2505 0.950 . S
C2484 H2480 0.949 . S
C2484 C2492 1.574 . S
C2484 C2500 1.368 . S
H2485 C2493 0.950 . S
H2486 C2491 0.950 . S
H2487 C2492 0.930 1_655 S
H2488 C2494 0.950 . S
H2489 C2495 0.950 . S
H2490 C2496 0.949 1_554 S
C2491 H2486 0.950 . S
C2491 C2493 1.327 . S
C2491 C2497 1.429 . S
C2492 C2484 1.574 . S
C2492 H2487 0.930 1_455 S
C2492 C2498 1.368 . S
C2493 C2477 1.349 . S
C2493 H2485 0.950 . S
C2493 C2491 1.327 . S
C2494 C2482 1.349 1_556 S
C2494 H2488 0.950 . S
C2494 C2495 1.327 . S
C2495 H2489 0.950 . S
C2495 C2494 1.327 . S
C2495 C2499 1.429 . S
C2496 C2479 1.574 . S
C2496 H2490 0.949 1_556 S
C2496 C2500 1.368 . S
C2497 C2478 1.429 . S
C2497 C2491 1.429 . S
C2497 C2498 1.523 . S
C2498 C2479 1.368 . S
C2498 C2492 1.368 . S
C2498 C2497 1.523 . S
C2499 C2483 1.429 1_556 S
C2499 C2495 1.429 . S
C2499 C2500 1.523 . S
C2500 C2484 1.368 . S
C2500 C2496 1.368 . S
C2500 C2499 1.523 . S
H2501 C2476 0.951 . S
H2502 C2478 0.950 1_655 S
H2503 C2479 0.949 . S
H2504 C2481 0.950 . S
H2505 C2483 0.950 . S
C2506 C2507 1.349 . S
C2506 C2508 1.327 . S
C2506 H2531 0.950 . S
C2507 C2506 1.349 . S
C2507 C2523 1.349 . S
C2508 C2506 1.327 . S
C2508 C2527 1.429 1_455 S
C2508 H2532 0.950 . S
C2509 C2526 1.574 . S
C2509 C2528 1.368 . S
C2509 H2533 0.949 . S
H2510 C2514 0.949 . S
C2511 C2512 1.349 . S
C2511 C2513 1.327 . S
C2511 H2534 0.950 . S
C2512 C2511 1.349 . S
C2512 C2524 1.349 . S
C2513 C2511 1.327 . S
C2513 C2529 1.429 . S
C2513 H2535 0.950 . S
C2514 H2510 0.949 . S
C2514 C2522 1.574 . S
C2514 C2530 1.368 . S
H2515 C2523 0.950 . S
H2516 C2521 0.950 . S
H2517 C2522 0.949 . S
H2518 C2524 0.950 . S
H2519 C2525 0.950 . S
H2520 C2526 0.949 . S
C2521 H2516 0.950 . S
C2521 C2523 1.327 1_655 S
C2521 C2527 1.429 . S
C2522 C2514 1.574 . S
C2522 H2517 0.949 . S
C2522 C2528 1.368 . S
C2523 C2507 1.349 . S
C2523 H2515 0.950 . S
C2523 C2521 1.327 1_455 S
C2524 C2512 1.349 . S
C2524 H2518 0.950 . S
C2524 C2525 1.327 . S
C2525 H2519 0.950 . S
C2525 C2524 1.327 . S
C2525 C2529 1.429 . S
C2526 C2509 1.574 . S
C2526 H2520 0.949 . S
C2526 C2530 1.368 . S
C2527 C2508 1.429 1_655 S
C2527 C2521 1.429 . S
C2527 C2528 1.523 . S
C2528 C2509 1.368 . S
C2528 C2522 1.368 . S
C2528 C2527 1.523 . S
C2529 C2513 1.429 . S
C2529 C2525 1.429 . S
C2529 C2530 1.523 . S
C2530 C2514 1.368 . S
C2530 C2526 1.368 . S
C2530 C2529 1.523 . S
H2531 C2506 0.950 . S
H2532 C2508 0.950 . S
H2533 C2509 0.949 . S
H2534 C2511 0.950 . S
H2535 C2513 0.950 . S
C2536 C2537 1.349 . S
C2536 C2538 1.327 . S
C2536 H2561 0.950 . S
C2537 C2536 1.349 . S
C2537 C2553 1.349 . S
C2538 C2536 1.327 . S
C2538 C2557 1.429 . S
C2538 H2562 0.950 . S
C2539 C2556 1.574 . S
C2539 C2558 1.368 . S
C2539 H2563 0.949 . S
H2540 C2544 0.949 . S
C2541 C2542 1.349 . S
C2541 C2543 1.327 . S
C2541 H2564 0.950 . S
C2542 C2541 1.349 . S
C2542 C2554 1.349 . S
C2543 C2541 1.327 . S
C2543 C2559 1.429 . S
C2543 H2565 0.950 . S
C2544 H2540 0.949 . S
C2544 C2552 1.574 . S
C2544 C2560 1.368 . S
H2545 C2553 0.950 . S
H2546 C2551 0.950 . S
H2547 C2552 0.949 . S
H2548 C2554 0.950 . S
H2549 C2555 0.950 . S
H2550 C2556 0.949 . S
C2551 H2546 0.950 . S
C2551 C2553 1.327 . S
C2551 C2557 1.429 . S
C2552 C2544 1.574 . S
C2552 H2547 0.949 . S
C2552 C2558 1.368 . S
C2553 C2537 1.349 . S
C2553 H2545 0.950 . S
C2553 C2551 1.327 . S
C2554 C2542 1.349 . S
C2554 H2548 0.950 . S
C2554 C2555 1.327 . S
C2555 H2549 0.950 . S
C2555 C2554 1.327 . S
C2555 C2559 1.429 . S
C2556 C2539 1.574 . S
C2556 H2550 0.949 . S
C2556 C2560 1.368 . S
C2557 C2538 1.429 . S
C2557 C2551 1.429 . S
C2557 C2558 1.523 . S
C2558 C2539 1.368 . S
C2558 C2552 1.368 . S
C2558 C2557 1.523 . S
C2559 C2543 1.429 . S
C2559 C2555 1.429 . S
C2559 C2560 1.523 . S
C2560 C2544 1.368 . S
C2560 C2556 1.368 . S
C2560 C2559 1.523 . S
H2561 C2536 0.950 . S
H2562 C2538 0.950 . S
H2563 C2539 0.949 . S
H2564 C2541 0.950 . S
H2565 C2543 0.950 . S
C2566 C2567 1.349 . S
C2566 C2568 1.327 . S
C2566 H2591 0.950 . S
C2567 C2566 1.349 . S
C2567 C2583 1.349 . S
C2568 C2566 1.327 . S
C2568 C2587 1.429 . S
C2568 H2592 0.950 . S
C2569 C2586 1.574 . S
C2569 C2588 1.368 . S
C2569 H2593 0.949 . S
H2570 C2574 0.949 . S
C2571 C2572 1.349 . S
C2571 C2573 1.327 . S
C2571 H2594 0.950 . S
C2572 C2571 1.349 . S
C2572 C2584 1.349 . S
C2573 C2571 1.327 . S
C2573 C2589 1.429 . S
C2573 H2595 0.950 . S
C2574 H2570 0.949 . S
C2574 C2582 1.574 . S
C2574 C2590 1.368 . S
H2575 C2583 0.950 . S
H2576 C2581 0.950 . S
H2577 C2582 0.949 . S
H2578 C2584 0.950 . S
H2579 C2585 0.950 . S
H2580 C2586 0.949 . S
C2581 H2576 0.950 . S
C2581 C2583 1.327 . S
C2581 C2587 1.429 . S
C2582 C2574 1.574 . S
C2582 H2577 0.949 . S
C2582 C2588 1.368 . S
C2583 C2567 1.349 . S
C2583 H2575 0.950 . S
C2583 C2581 1.327 . S
C2584 C2572 1.349 . S
C2584 H2578 0.950 . S
C2584 C2585 1.327 . S
C2585 H2579 0.950 . S
C2585 C2584 1.327 . S
C2585 C2589 1.429 . S
C2586 C2569 1.574 . S
C2586 H2580 0.949 . S
C2586 C2590 1.368 . S
C2587 C2568 1.429 . S
C2587 C2581 1.429 . S
C2587 C2588 1.523 . S
C2588 C2569 1.368 . S
C2588 C2582 1.368 . S
C2588 C2587 1.523 . S
C2589 C2573 1.429 . S
C2589 C2585 1.429 . S
C2589 C2590 1.523 . S
C2590 C2574 1.368 . S
C2590 C2586 1.368 . S
C2590 C2589 1.523 . S
H2591 C2566 0.950 . S
H2592 C2568 0.950 . S
H2593 C2569 0.949 . S
H2594 C2571 0.950 . S
H2595 C2573 0.950 . S
C2596 C2597 1.349 . S
C2596 C2598 1.327 . S
C2596 H2621 0.950 . S
C2597 C2596 1.349 . S
C2597 C2613 1.349 . S
C2598 C2596 1.327 . S
C2598 C2617 1.429 . S
C2598 H2622 0.950 . S
C2599 C2616 1.574 . S
C2599 C2618 1.368 . S
C2599 H2623 0.949 . S
H2600 C2604 0.949 . S
C2601 C2602 1.349 . S
C2601 C2603 1.327 . S
C2601 H2624 0.950 . S
C2602 C2601 1.349 . S
C2602 C2614 1.349 . S
C2603 C2601 1.327 . S
C2603 C2619 1.429 . S
C2603 H2625 0.950 . S
C2604 H2600 0.949 . S
C2604 C2612 1.574 . S
C2604 C2620 1.368 . S
H2605 C2613 0.950 . S
H2606 C2611 0.950 . S
H2607 C2612 0.949 . S
H2608 C2614 0.950 . S
H2609 C2615 0.950 . S
H2610 C2616 0.949 . S
C2611 H2606 0.950 . S
C2611 C2613 1.327 . S
C2611 C2617 1.429 . S
C2612 C2604 1.574 . S
C2612 H2607 0.949 . S
C2612 C2618 1.368 . S
C2613 C2597 1.349 . S
C2613 H2605 0.950 . S
C2613 C2611 1.327 . S
C2614 C2602 1.349 . S
C2614 H2608 0.950 . S
C2614 C2615 1.327 . S
C2615 H2609 0.950 . S
C2615 C2614 1.327 . S
C2615 C2619 1.429 . S
C2616 C2599 1.574 . S
C2616 H2610 0.949 . S
C2616 C2620 1.368 . S
C2617 C2598 1.429 . S
C2617 C2611 1.429 . S
C2617 C2618 1.523 . S
C2618 C2599 1.368 . S
C2618 C2612 1.368 . S
C2618 C2617 1.523 . S
C2619 C2603 1.429 . S
C2619 C2615 1.429 . S
C2619 C2620 1.523 . S
C2620 C2604 1.368 . S
C2620 C2616 1.368 . S
C2620 C2619 1.523 . S
H2621 C2596 0.950 . S
H2622 C2598 0.950 . S
H2623 C2599 0.949 . S
H2624 C2601 0.950 . S
H2625 C2603 0.950 . S
C2626 C2627 1.349 . S
C2626 C2628 1.327 . S
C2626 H2651 0.950 . S
C2627 C2626 1.349 . S
C2627 C2643 1.349 . S
C2628 C2626 1.327 . S
C2628 C2647 1.429 . S
C2628 H2652 0.950 . S
C2629 C2646 1.574 . S
C2629 C2648 1.368 . S
C2629 H2653 0.949 . S
H2630 C2634 0.949 . S
C2631 C2632 1.349 . S
C2631 C2633 1.327 . S
C2631 H2654 0.950 . S
C2632 C2631 1.349 . S
C2632 C2644 1.349 . S
C2633 C2631 1.327 . S
C2633 C2649 1.429 . S
C2633 H2655 0.950 . S
C2634 H2630 0.949 . S
C2634 C2642 1.574 . S
C2634 C2650 1.368 . S
H2635 C2643 0.950 . S
H2636 C2641 0.950 . S
H2637 C2642 0.949 . S
H2638 C2644 0.950 . S
H2639 C2645 0.950 . S
H2640 C2646 0.949 . S
C2641 H2636 0.950 . S
C2641 C2643 1.327 . S
C2641 C2647 1.429 . S
C2642 C2634 1.574 . S
C2642 H2637 0.949 . S
C2642 C2648 1.368 . S
C2643 C2627 1.349 . S
C2643 H2635 0.950 . S
C2643 C2641 1.327 . S
C2644 C2632 1.349 . S
C2644 H2638 0.950 . S
C2644 C2645 1.327 . S
C2645 H2639 0.950 . S
C2645 C2644 1.327 . S
C2645 C2649 1.429 . S
C2646 C2629 1.574 . S
C2646 H2640 0.949 . S
C2646 C2650 1.368 . S
C2647 C2628 1.429 . S
C2647 C2641 1.429 . S
C2647 C2648 1.523 . S
C2648 C2629 1.368 . S
C2648 C2642 1.368 . S
C2648 C2647 1.523 . S
C2649 C2633 1.429 . S
C2649 C2645 1.429 . S
C2649 C2650 1.523 . S
C2650 C2634 1.368 . S
C2650 C2646 1.368 . S
C2650 C2649 1.523 . S
H2651 C2626 0.950 . S
H2652 C2628 0.950 . S
H2653 C2629 0.949 . S
H2654 C2631 0.950 . S
H2655 C2633 0.950 . S
C2656 C2657 1.349 . S
C2656 C2658 1.327 . S
C2656 H2681 0.950 . S
C2657 C2656 1.349 . S
C2657 C2673 1.349 . S
C2658 C2656 1.327 . S
C2658 C2677 1.429 . S
C2658 H2682 0.950 . S
C2659 C2676 1.574 . S
C2659 C2678 1.368 . S
C2659 H2683 0.949 . S
H2660 C2664 0.949 . S
C2661 C2662 1.349 . S
C2661 C2663 1.327 . S
C2661 H2684 0.950 . S
C2662 C2661 1.349 . S
C2662 C2674 1.349 . S
C2663 C2661 1.327 . S
C2663 C2679 1.429 . S
C2663 H2685 0.950 . S
C2664 H2660 0.949 . S
C2664 C2672 1.574 . S
C2664 C2680 1.368 . S
H2665 C2673 0.950 . S
H2666 C2671 0.950 . S
H2667 C2672 0.949 . S
H2668 C2674 0.950 . S
H2669 C2675 0.950 . S
H2670 C2676 0.949 . S
C2671 H2666 0.950 . S
C2671 C2673 1.327 . S
C2671 C2677 1.429 . S
C2672 C2664 1.574 . S
C2672 H2667 0.949 . S
C2672 C2678 1.368 . S
C2673 C2657 1.349 . S
C2673 H2665 0.950 . S
C2673 C2671 1.327 . S
C2674 C2662 1.349 . S
C2674 H2668 0.950 . S
C2674 C2675 1.327 . S
C2675 H2669 0.950 . S
C2675 C2674 1.327 . S
C2675 C2679 1.429 . S
C2676 C2659 1.574 . S
C2676 H2670 0.949 . S
C2676 C2680 1.368 . S
C2677 C2658 1.429 . S
C2677 C2671 1.429 . S
C2677 C2678 1.523 . S
C2678 C2659 1.368 . S
C2678 C2672 1.368 . S
C2678 C2677 1.523 . S
C2679 C2663 1.429 . S
C2679 C2675 1.429 . S
C2679 C2680 1.523 . S
C2680 C2664 1.368 . S
C2680 C2676 1.368 . S
C2680 C2679 1.523 . S
H2681 C2656 0.950 . S
H2682 C2658 0.950 . S
H2683 C2659 0.949 . S
H2684 C2661 0.950 . S
H2685 C2663 0.950 . S
C2686 C2687 1.349 1_556 S
C2686 C2688 1.327 . S
C2686 H2711 0.950 . S
C2687 C2686 1.349 1_554 S
C2687 C2703 1.349 . S
C2688 C2686 1.327 . S
C2688 C2707 1.429 . S
C2688 H2712 0.950 . S
C2689 C2706 1.574 . S
C2689 C2708 1.368 . S
C2689 H2713 0.949 . S
H2690 C2694 0.949 . S
C2691 C2692 1.349 . S
C2691 C2693 1.327 . S
C2691 H2714 0.950 . S
C2692 C2691 1.349 . S
C2692 C2704 1.349 . S
C2693 C2691 1.327 . S
C2693 C2709 1.429 . S
C2693 H2715 0.950 . S
C2694 H2690 0.949 . S
C2694 C2702 1.574 . S
C2694 C2710 1.368 . S
H2695 C2703 0.950 . S
H2696 C2701 0.950 . S
H2697 C2702 0.949 . S
H2698 C2704 0.950 . S
H2699 C2705 0.950 . S
H2700 C2706 0.949 . S
C2701 H2696 0.950 . S
C2701 C2703 1.327 1_556 S
C2701 C2707 1.429 . S
C2702 C2694 1.574 . S
C2702 H2697 0.949 . S
C2702 C2708 1.368 . S
C2703 C2687 1.349 . S
C2703 H2695 0.950 . S
C2703 C2701 1.327 1_554 S
C2704 C2692 1.349 . S
C2704 H2698 0.950 . S
C2704 C2705 1.327 . S
C2705 H2699 0.950 . S
C2705 C2704 1.327 . S
C2705 C2709 1.429 . S
C2706 C2689 1.574 . S
C2706 H2700 0.949 . S
C2706 C2710 1.368 . S
C2707 C2688 1.429 . S
C2707 C2701 1.429 . S
C2707 C2708 1.523 . S
C2708 C2689 1.368 . S
C2708 C2702 1.368 . S
C2708 C2707 1.523 . S
C2709 C2693 1.429 . S
C2709 C2705 1.429 . S
C2709 C2710 1.523 . S
C2710 C2694 1.368 . S
C2710 C2706 1.368 . S
C2710 C2709 1.523 . S
H2711 C2686 0.950 . S
H2712 C2688 0.950 . S
H2713 C2689 0.949 . S
H2714 C2691 0.950 . S
H2715 C2693 0.950 . S
C2716 C2717 1.349 . S
C2716 C2718 1.327 . S
C2716 H2741 0.950 . S
C2717 C2716 1.349 . S
C2717 C2733 1.349 . S
C2718 C2716 1.327 . S
C2718 C2737 1.429 . S
C2718 H2742 0.950 . S
C2719 C2736 1.574 . S
C2719 C2738 1.368 . S
C2719 H2743 0.949 . S
H2720 C2724 0.949 . S
C2721 C2722 1.349 . S
C2721 C2723 1.327 . S
C2721 H2744 0.950 . S
C2722 C2721 1.349 . S
C2722 C2734 1.349 . S
C2723 C2721 1.327 . S
C2723 C2739 1.429 . S
C2723 H2745 0.950 . S
C2724 H2720 0.949 . S
C2724 C2732 1.574 . S
C2724 C2740 1.368 . S
H2725 C2733 0.950 . S
H2726 C2731 0.950 . S
H2727 C2732 0.949 . S
H2728 C2734 0.950 . S
H2729 C2735 0.950 . S
H2730 C2736 0.949 . S
C2731 H2726 0.950 . S
C2731 C2733 1.327 . S
C2731 C2737 1.429 . S
C2732 C2724 1.574 . S
C2732 H2727 0.949 . S
C2732 C2738 1.368 . S
C2733 C2717 1.349 . S
C2733 H2725 0.950 . S
C2733 C2731 1.327 . S
C2734 C2722 1.349 . S
C2734 H2728 0.950 . S
C2734 C2735 1.327 . S
C2735 H2729 0.950 . S
C2735 C2734 1.327 . S
C2735 C2739 1.429 . S
C2736 C2719 1.574 . S
C2736 H2730 0.949 . S
C2736 C2740 1.368 . S
C2737 C2718 1.429 . S
C2737 C2731 1.429 . S
C2737 C2738 1.523 . S
C2738 C2719 1.368 . S
C2738 C2732 1.368 . S
C2738 C2737 1.523 . S
C2739 C2723 1.429 . S
C2739 C2735 1.429 . S
C2739 C2740 1.523 . S
C2740 C2724 1.368 . S
C2740 C2736 1.368 . S
C2740 C2739 1.523 . S
H2741 C2716 0.950 . S
H2742 C2718 0.950 . S
H2743 C2719 0.949 . S
H2744 C2721 0.950 . S
H2745 C2723 0.950 . S
C2746 C2747 1.349 . S
C2746 C2748 1.327 . S
C2746 H2771 0.950 . S
C2747 C2746 1.349 . S
C2747 C2763 1.349 . S
C2748 C2746 1.327 . S
C2748 C2767 1.429 . S
C2748 H2772 0.950 . S
C2749 C2766 1.574 . S
C2749 C2768 1.368 . S
C2749 H2773 0.949 . S
H2750 C2754 0.949 . S
C2751 C2752 1.349 . S
C2751 C2753 1.327 . S
C2751 H2774 0.950 . S
C2752 C2751 1.349 . S
C2752 C2764 1.349 . S
C2753 C2751 1.327 . S
C2753 C2769 1.429 . S
C2753 H2775 0.950 . S
C2754 H2750 0.949 . S
C2754 C2762 1.574 . S
C2754 C2770 1.368 . S
H2755 C2763 0.950 . S
H2756 C2761 0.950 . S
H2757 C2762 0.949 . S
H2758 C2764 0.950 . S
H2759 C2765 0.950 . S
H2760 C2766 0.949 . S
C2761 H2756 0.950 . S
C2761 C2763 1.327 . S
C2761 C2767 1.429 . S
C2762 C2754 1.574 . S
C2762 H2757 0.949 . S
C2762 C2768 1.368 . S
C2763 C2747 1.349 . S
C2763 H2755 0.950 . S
C2763 C2761 1.327 . S
C2764 C2752 1.349 . S
C2764 H2758 0.950 . S
C2764 C2765 1.327 . S
C2765 H2759 0.950 . S
C2765 C2764 1.327 . S
C2765 C2769 1.429 . S
C2766 C2749 1.574 . S
C2766 H2760 0.949 . S
C2766 C2770 1.368 . S
C2767 C2748 1.429 . S
C2767 C2761 1.429 . S
C2767 C2768 1.523 . S
C2768 C2749 1.368 . S
C2768 C2762 1.368 . S
C2768 C2767 1.523 . S
C2769 C2753 1.429 . S
C2769 C2765 1.429 . S
C2769 C2770 1.523 . S
C2770 C2754 1.368 . S
C2770 C2766 1.368 . S
C2770 C2769 1.523 . S
H2771 C2746 0.950 . S
H2772 C2748 0.950 . S
H2773 C2749 0.949 . S
H2774 C2751 0.950 . S
H2775 C2753 0.950 . S
C2776 C2777 1.349 . S
C2776 C2778 1.327 . S
C2776 H2801 0.950 . S
C2777 C2776 1.349 . S
C2777 C2793 1.349 . S
C2778 C2776 1.327 . S
C2778 C2797 1.429 . S
C2778 H2802 0.950 . S
C2779 C2796 1.574 . S
C2779 C2798 1.368 . S
C2779 H2803 0.949 . S
H2780 C2784 0.949 . S
C2781 C2782 1.349 . S
C2781 C2783 1.327 . S
C2781 H2804 0.950 . S
C2782 C2781 1.349 . S
C2782 C2794 1.349 . S
C2783 C2781 1.327 . S
C2783 C2799 1.429 . S
C2783 H2805 0.950 . S
C2784 H2780 0.949 . S
C2784 C2792 1.574 . S
C2784 C2800 1.368 . S
H2785 C2793 0.950 . S
H2786 C2791 0.950 . S
H2787 C2792 0.949 . S
H2788 C2794 0.950 . S
H2789 C2795 0.950 . S
H2790 C2796 0.949 . S
C2791 H2786 0.950 . S
C2791 C2793 1.327 . S
C2791 C2797 1.429 . S
C2792 C2784 1.574 . S
C2792 H2787 0.949 . S
C2792 C2798 1.368 . S
C2793 C2777 1.349 . S
C2793 H2785 0.950 . S
C2793 C2791 1.327 . S
C2794 C2782 1.349 . S
C2794 H2788 0.950 . S
C2794 C2795 1.327 . S
C2795 H2789 0.950 . S
C2795 C2794 1.327 . S
C2795 C2799 1.429 . S
C2796 C2779 1.574 . S
C2796 H2790 0.949 . S
C2796 C2800 1.368 . S
C2797 C2778 1.429 . S
C2797 C2791 1.429 . S
C2797 C2798 1.523 . S
C2798 C2779 1.368 . S
C2798 C2792 1.368 . S
C2798 C2797 1.523 . S
C2799 C2783 1.429 . S
C2799 C2795 1.429 . S
C2799 C2800 1.523 . S
C2800 C2784 1.368 . S
C2800 C2796 1.368 . S
C2800 C2799 1.523 . S
H2801 C2776 0.950 . S
H2802 C2778 0.950 . S
H2803 C2779 0.949 . S
H2804 C2781 0.950 . S
H2805 C2783 0.950 . S
C2806 C2807 1.349 . S
C2806 C2808 1.327 . S
C2806 H2831 0.950 . S
C2807 C2806 1.349 . S
C2807 C2823 1.349 . S
C2808 C2806 1.327 . S
C2808 C2827 1.429 . S
C2808 H2832 0.950 . S
C2809 C2826 1.574 . S
C2809 C2828 1.368 . S
C2809 H2833 0.949 . S
H2810 C2814 0.949 . S
C2811 C2812 1.349 . S
C2811 C2813 1.327 . S
C2811 H2834 0.950 . S
C2812 C2811 1.349 . S
C2812 C2824 1.349 . S
C2813 C2811 1.327 . S
C2813 C2829 1.429 . S
C2813 H2835 0.950 . S
C2814 H2810 0.949 . S
C2814 C2822 1.574 . S
C2814 C2830 1.368 . S
H2815 C2823 0.950 . S
H2816 C2821 0.950 . S
H2817 C2822 0.949 . S
H2818 C2824 0.950 . S
H2819 C2825 0.950 . S
H2820 C2826 0.949 . S
C2821 H2816 0.950 . S
C2821 C2823 1.327 . S
C2821 C2827 1.429 . S
C2822 C2814 1.574 . S
C2822 H2817 0.949 . S
C2822 C2828 1.368 . S
C2823 C2807 1.349 . S
C2823 H2815 0.950 . S
C2823 C2821 1.327 . S
C2824 C2812 1.349 . S
C2824 H2818 0.950 . S
C2824 C2825 1.327 . S
C2825 H2819 0.950 . S
C2825 C2824 1.327 . S
C2825 C2829 1.429 . S
C2826 C2809 1.574 . S
C2826 H2820 0.949 . S
C2826 C2830 1.368 . S
C2827 C2808 1.429 . S
C2827 C2821 1.429 . S
C2827 C2828 1.523 . S
C2828 C2809 1.368 . S
C2828 C2822 1.368 . S
C2828 C2827 1.523 . S
C2829 C2813 1.429 . S
C2829 C2825 1.429 . S
C2829 C2830 1.523 . S
C2830 C2814 1.368 . S
C2830 C2826 1.368 . S
C2830 C2829 1.523 . S
H2831 C2806 0.950 . S
H2832 C2808 0.950 . S
H2833 C2809 0.949 . S
H2834 C2811 0.950 . S
H2835 C2813 0.950 . S
C2836 C2837 1.349 . S
C2836 C2838 1.327 . S
C2836 H2861 0.950 . S
C2837 C2836 1.349 . S
C2837 C2853 1.349 . S
C2838 C2836 1.327 . S
C2838 C2857 1.429 . S
C2838 H2862 0.950 . S
C2839 C2856 1.574 . S
C2839 C2858 1.368 . S
C2839 H2863 0.949 . S
H2840 C2844 0.949 . S
C2841 C2842 1.349 . S
C2841 C2843 1.327 . S
C2841 H2864 0.950 . S
C2842 C2841 1.349 . S
C2842 C2854 1.349 . S
C2843 C2841 1.327 . S
C2843 C2859 1.429 . S
C2843 H2865 0.950 . S
C2844 H2840 0.949 . S
C2844 C2852 1.574 . S
C2844 C2860 1.368 . S
H2845 C2853 0.950 . S
H2846 C2851 0.950 . S
H2847 C2852 0.949 . S
H2848 C2854 0.950 . S
H2849 C2855 0.950 . S
H2850 C2856 0.949 . S
C2851 H2846 0.950 . S
C2851 C2853 1.327 . S
C2851 C2857 1.429 . S
C2852 C2844 1.574 . S
C2852 H2847 0.949 . S
C2852 C2858 1.368 . S
C2853 C2837 1.349 . S
C2853 H2845 0.950 . S
C2853 C2851 1.327 . S
C2854 C2842 1.349 . S
C2854 H2848 0.950 . S
C2854 C2855 1.327 . S
C2855 H2849 0.950 . S
C2855 C2854 1.327 . S
C2855 C2859 1.429 . S
C2856 C2839 1.574 . S
C2856 H2850 0.949 . S
C2856 C2860 1.368 . S
C2857 C2838 1.429 . S
C2857 C2851 1.429 . S
C2857 C2858 1.523 . S
C2858 C2839 1.368 . S
C2858 C2852 1.368 . S
C2858 C2857 1.523 . S
C2859 C2843 1.429 . S
C2859 C2855 1.429 . S
C2859 C2860 1.523 . S
C2860 C2844 1.368 . S
C2860 C2856 1.368 . S
C2860 C2859 1.523 . S
H2861 C2836 0.950 . S
H2862 C2838 0.950 . S
H2863 C2839 0.949 . S
H2864 C2841 0.950 . S
H2865 C2843 0.950 . S
C2866 C2867 1.349 . S
C2866 C2868 1.327 . S
C2866 H2891 0.950 . S
C2867 C2866 1.349 . S
C2867 C2883 1.349 . S
C2868 C2866 1.327 . S
C2868 C2887 1.429 . S
C2868 H2892 0.950 . S
C2869 C2886 1.574 . S
C2869 C2888 1.368 . S
C2869 H2893 0.949 . S
H2870 C2874 0.949 . S
C2871 C2872 1.349 . S
C2871 C2873 1.327 . S
C2871 H2894 0.950 . S
C2872 C2871 1.349 . S
C2872 C2884 1.349 . S
C2873 C2871 1.327 . S
C2873 C2889 1.429 . S
C2873 H2895 0.950 . S
C2874 H2870 0.949 . S
C2874 C2882 1.574 . S
C2874 C2890 1.368 . S
H2875 C2883 0.950 . S
H2876 C2881 0.950 . S
H2877 C2882 0.949 . S
H2878 C2884 0.950 . S
H2879 C2885 0.950 . S
H2880 C2886 0.949 . S
C2881 H2876 0.950 . S
C2881 C2883 1.327 . S
C2881 C2887 1.429 . S
C2882 C2874 1.574 . S
C2882 H2877 0.949 . S
C2882 C2888 1.368 . S
C2883 C2867 1.349 . S
C2883 H2875 0.950 . S
C2883 C2881 1.327 . S
C2884 C2872 1.349 . S
C2884 H2878 0.950 . S
C2884 C2885 1.327 . S
C2885 H2879 0.950 . S
C2885 C2884 1.327 . S
C2885 C2889 1.429 . S
C2886 C2869 1.574 . S
C2886 H2880 0.949 . S
C2886 C2890 1.368 . S
C2887 C2868 1.429 . S
C2887 C2881 1.429 . S
C2887 C2888 1.523 . S
C2888 C2869 1.368 . S
C2888 C2882 1.368 . S
C2888 C2887 1.523 . S
C2889 C2873 1.429 . S
C2889 C2885 1.429 . S
C2889 C2890 1.523 . S
C2890 C2874 1.368 . S
C2890 C2886 1.368 . S
C2890 C2889 1.523 . S
H2891 C2866 0.950 . S
H2892 C2868 0.950 . S
H2893 C2869 0.949 . S
H2894 C2871 0.950 . S
H2895 C2873 0.950 . S
C2896 C2897 1.349 . S
C2896 C2898 1.327 . S
C2896 H2921 0.950 . S
C2897 C2896 1.349 . S
C2897 C2913 1.349 . S
C2898 C2896 1.327 . S
C2898 C2917 1.429 . S
C2898 H2922 0.950 . S
C2899 C2916 1.574 . S
C2899 C2918 1.368 . S
C2899 H2923 0.949 . S
H2900 C2904 0.949 . S
C2901 C2902 1.349 . S
C2901 C2903 1.327 . S
C2901 H2924 0.950 . S
C2902 C2901 1.349 . S
C2902 C2914 1.349 . S
C2903 C2901 1.327 . S
C2903 C2919 1.429 . S
C2903 H2925 0.950 . S
C2904 H2900 0.949 . S
C2904 C2912 1.574 . S
C2904 C2920 1.368 . S
H2905 C2913 0.950 . S
H2906 C2911 0.950 . S
H2907 C2912 0.949 . S
H2908 C2914 0.950 . S
H2909 C2915 0.950 . S
H2910 C2916 0.949 . S
C2911 H2906 0.950 . S
C2911 C2913 1.327 . S
C2911 C2917 1.429 . S
C2912 C2904 1.574 . S
C2912 H2907 0.949 . S
C2912 C2918 1.368 . S
C2913 C2897 1.349 . S
C2913 H2905 0.950 . S
C2913 C2911 1.327 . S
C2914 C2902 1.349 . S
C2914 H2908 0.950 . S
C2914 C2915 1.327 . S
C2915 H2909 0.950 . S
C2915 C2914 1.327 . S
C2915 C2919 1.429 . S
C2916 C2899 1.574 . S
C2916 H2910 0.949 . S
C2916 C2920 1.368 . S
C2917 C2898 1.429 . S
C2917 C2911 1.429 . S
C2917 C2918 1.523 . S
C2918 C2899 1.368 . S
C2918 C2912 1.368 . S
C2918 C2917 1.523 . S
C2919 C2903 1.429 . S
C2919 C2915 1.429 . S
C2919 C2920 1.523 . S
C2920 C2904 1.368 . S
C2920 C2916 1.368 . S
C2920 C2919 1.523 . S
H2921 C2896 0.950 . S
H2922 C2898 0.950 . S
H2923 C2899 0.949 . S
H2924 C2901 0.950 . S
H2925 C2903 0.950 . S
C2926 C2927 1.349 . S
C2926 C2928 1.327 . S
C2926 H2951 0.950 . S
C2927 C2926 1.349 . S
C2927 C2943 1.349 . S
C2928 C2926 1.327 . S
C2928 C2947 1.429 . S
C2928 H2952 0.950 . S
C2929 C2946 1.574 . S
C2929 C2948 1.368 . S
C2929 H2953 0.949 . S
H2930 C2934 0.949 . S
C2931 C2932 1.349 . S
C2931 C2933 1.327 . S
C2931 H2954 0.950 . S
C2932 C2931 1.349 . S
C2932 C2944 1.349 . S
C2933 C2931 1.327 . S
C2933 C2949 1.429 . S
C2933 H2955 0.950 . S
C2934 H2930 0.949 . S
C2934 C2942 1.574 . S
C2934 C2950 1.368 . S
H2935 C2943 0.950 . S
H2936 C2941 0.950 . S
H2937 C2942 0.949 . S
H2938 C2944 0.950 . S
H2939 C2945 0.950 . S
H2940 C2946 0.949 . S
C2941 H2936 0.950 . S
C2941 C2943 1.327 . S
C2941 C2947 1.429 . S
C2942 C2934 1.574 . S
C2942 H2937 0.949 . S
C2942 C2948 1.368 . S
C2943 C2927 1.349 . S
C2943 H2935 0.950 . S
C2943 C2941 1.327 . S
C2944 C2932 1.349 . S
C2944 H2938 0.950 . S
C2944 C2945 1.327 . S
C2945 H2939 0.950 . S
C2945 C2944 1.327 . S
C2945 C2949 1.429 . S
C2946 C2929 1.574 . S
C2946 H2940 0.949 . S
C2946 C2950 1.368 . S
C2947 C2928 1.429 . S
C2947 C2941 1.429 . S
C2947 C2948 1.523 . S
C2948 C2929 1.368 . S
C2948 C2942 1.368 . S
C2948 C2947 1.523 . S
C2949 C2933 1.429 . S
C2949 C2945 1.429 . S
C2949 C2950 1.523 . S
C2950 C2934 1.368 . S
C2950 C2946 1.368 . S
C2950 C2949 1.523 . S
H2951 C2926 0.950 . S
H2952 C2928 0.950 . S
H2953 C2929 0.949 . S
H2954 C2931 0.950 . S
H2955 C2933 0.950 . S
C2956 C2957 1.344 1_545 S
C2956 C2958 1.327 1_545 S
C2956 H2981 0.950 . S
C2957 C2956 1.344 1_565 S
C2957 C2973 1.386 . S
C2958 C2956 1.327 1_565 S
C2958 C2977 1.429 . S
C2958 H2982 0.950 . S
C2959 C2976 1.574 . S
C2959 C2978 1.368 . S
C2959 H2983 0.949 . S
H2960 C2964 0.949 . S
C2961 C2962 1.349 . S
C2961 C2963 1.327 . S
C2961 H2984 0.950 . S
C2962 C2961 1.349 . S
C2962 C2974 1.349 . S
C2963 C2961 1.327 . S
C2963 C2979 1.429 . S
C2963 H2985 0.950 . S
C2964 H2960 0.949 . S
C2964 C2972 1.574 . S
C2964 C2980 1.368 . S
H2965 C2973 0.950 . S
H2966 C2971 0.950 . S
H2967 C2972 0.949 . S
H2968 C2974 0.950 . S
H2969 C2975 0.950 . S
H2970 C2976 0.949 . S
C2971 H2966 0.950 . S
C2971 C2973 1.327 . S
C2971 C2977 1.429 . S
C2972 C2964 1.574 . S
C2972 H2967 0.949 . S
C2972 C2978 1.368 . S
C2973 C2957 1.386 . S
C2973 H2965 0.950 . S
C2973 C2971 1.327 . S
C2974 C2962 1.349 . S
C2974 H2968 0.950 . S
C2974 C2975 1.327 . S
C2975 H2969 0.950 . S
C2975 C2974 1.327 . S
C2975 C2979 1.429 . S
C2976 C2959 1.574 . S
C2976 H2970 0.949 . S
C2976 C2980 1.368 . S
C2977 C2958 1.429 . S
C2977 C2971 1.429 . S
C2977 C2978 1.523 . S
C2978 C2959 1.368 . S
C2978 C2972 1.368 . S
C2978 C2977 1.523 . S
C2979 C2963 1.429 . S
C2979 C2975 1.429 . S
C2979 C2980 1.523 . S
C2980 C2964 1.368 . S
C2980 C2976 1.368 . S
C2980 C2979 1.523 . S
H2981 C2956 0.950 . S
H2982 C2958 0.950 . S
H2983 C2959 0.949 . S
H2984 C2961 0.950 . S
H2985 C2963 0.950 . S
C2986 C2987 1.334 1_556 S
C2986 C2988 1.327 . S
C2986 H3011 0.950 . S
C2987 C2986 1.334 1_554 S
C2987 C3003 1.364 . S
C2988 C2986 1.327 . S
C2988 C3007 1.429 1_556 S
C2988 H3012 0.950 . S
C2989 C3006 1.574 . S
C2989 C3008 1.368 . S
C2989 H3013 0.949 . S
H2990 C2994 0.949 1_545 S
C2991 C2992 1.349 1_565 S
C2991 C2993 1.327 . S
C2991 H3014 0.950 . S
C2992 C2991 1.349 1_545 S
C2992 C3004 1.381 . S
C2993 C2991 1.327 . S
C2993 C3009 1.429 . S
C2993 H3015 0.950 . S
C2994 H2990 0.949 1_565 S
C2994 C3002 1.574 . S
C2994 C3010 1.368 1_556 S
H2995 C3003 0.950 . S
H2996 C3001 0.950 . S
H2997 C3002 0.949 . S
H2998 C3004 0.919 1_556 S
H2999 C3005 0.950 . S
H3000 C3006 0.949 . S
C3001 H2996 0.950 . S
C3001 C3003 1.327 . S
C3001 C3007 1.429 . S
C3002 C2994 1.574 . S
C3002 H2997 0.949 . S
C3002 C3008 1.368 1_556 S
C3003 C2987 1.364 . S
C3003 H2995 0.950 . S
C3003 C3001 1.327 . S
C3004 C2992 1.381 . S
C3004 H2998 0.919 1_554 S
C3004 C3005 1.327 1_554 S
C3005 H2999 0.950 . S
C3005 C3004 1.327 1_556 S
C3005 C3009 1.429 1_546 S
C3006 C2989 1.574 . S
C3006 H3000 0.949 . S
C3006 C3010 1.368 . S
C3007 C2988 1.429 1_554 S
C3007 C3001 1.429 . S
C3007 C3008 1.523 . S
C3008 C2989 1.368 . S
C3008 C3002 1.368 1_554 S
C3008 C3007 1.523 . S
C3009 C2993 1.429 . S
C3009 C3005 1.429 1_564 S
C3009 C3010 1.523 . S
C3010 C2994 1.368 1_554 S
C3010 C3006 1.368 . S
C3010 C3009 1.523 . S
H3011 C2986 0.950 . S
H3012 C2988 0.950 . S
H3013 C2989 0.949 . S
H3014 C2991 0.950 . S
H3015 C2993 0.950 . S
C3016 C3017 1.349 . S
C3016 C3018 1.327 . S
C3016 H3041 0.950 . S
C3017 C3016 1.349 . S
C3017 C3033 1.349 . S
C3018 C3016 1.327 . S
C3018 C3037 1.429 . S
C3018 H3042 0.950 . S
C3019 C3036 1.574 . S
C3019 C3038 1.368 . S
C3019 H3043 0.949 . S
H3020 C3024 0.949 . S
C3021 C3022 1.349 . S
C3021 C3023 1.327 . S
C3021 H3044 0.950 . S
C3022 C3021 1.349 . S
C3022 C3034 1.349 . S
C3023 C3021 1.327 . S
C3023 C3039 1.429 . S
C3023 H3045 0.950 . S
C3024 H3020 0.949 . S
C3024 C3032 1.574 . S
C3024 C3040 1.368 . S
H3025 C3033 0.950 . S
H3026 C3031 0.950 . S
H3027 C3032 0.949 . S
H3028 C3034 0.950 . S
H3029 C3035 0.950 . S
H3030 C3036 0.949 . S
C3031 H3026 0.950 . S
C3031 C3033 1.327 . S
C3031 C3037 1.429 . S
C3032 C3024 1.574 . S
C3032 H3027 0.949 . S
C3032 C3038 1.368 . S
C3033 C3017 1.349 . S
C3033 H3025 0.950 . S
C3033 C3031 1.327 . S
C3034 C3022 1.349 . S
C3034 H3028 0.950 . S
C3034 C3035 1.327 . S
C3035 H3029 0.950 . S
C3035 C3034 1.327 . S
C3035 C3039 1.429 . S
C3036 C3019 1.574 . S
C3036 H3030 0.949 . S
C3036 C3040 1.368 . S
C3037 C3018 1.429 . S
C3037 C3031 1.429 . S
C3037 C3038 1.523 . S
C3038 C3019 1.368 . S
C3038 C3032 1.368 . S
C3038 C3037 1.523 . S
C3039 C3023 1.429 . S
C3039 C3035 1.429 . S
C3039 C3040 1.523 . S
C3040 C3024 1.368 . S
C3040 C3036 1.368 . S
C3040 C3039 1.523 . S
H3041 C3016 0.950 . S
H3042 C3018 0.950 . S
H3043 C3019 0.949 . S
H3044 C3021 0.950 . S
H3045 C3023 0.950 . S
C3046 C3047 1.349 . S
C3046 C3048 1.327 . S
C3046 H3071 0.950 . S
C3047 C3046 1.349 . S
C3047 C3063 1.349 . S
C3048 C3046 1.327 . S
C3048 C3067 1.429 . S
C3048 H3072 0.950 . S
C3049 C3066 1.574 . S
C3049 C3068 1.368 . S
C3049 H3073 0.949 . S
H3050 C3054 0.949 . S
C3051 C3052 1.349 . S
C3051 C3053 1.327 . S
C3051 H3074 0.950 . S
C3052 C3051 1.349 . S
C3052 C3064 1.349 . S
C3053 C3051 1.327 . S
C3053 C3069 1.429 . S
C3053 H3075 0.950 . S
C3054 H3050 0.949 . S
C3054 C3062 1.574 . S
C3054 C3070 1.368 . S
H3055 C3063 0.950 . S
H3056 C3061 0.950 . S
H3057 C3062 0.949 . S
H3058 C3064 0.950 . S
H3059 C3065 0.950 . S
H3060 C3066 0.949 . S
C3061 H3056 0.950 . S
C3061 C3063 1.327 . S
C3061 C3067 1.429 . S
C3062 C3054 1.574 . S
C3062 H3057 0.949 . S
C3062 C3068 1.368 . S
C3063 C3047 1.349 . S
C3063 H3055 0.950 . S
C3063 C3061 1.327 . S
C3064 C3052 1.349 . S
C3064 H3058 0.950 . S
C3064 C3065 1.327 . S
C3065 H3059 0.950 . S
C3065 C3064 1.327 . S
C3065 C3069 1.429 . S
C3066 C3049 1.574 . S
C3066 H3060 0.949 . S
C3066 C3070 1.368 . S
C3067 C3048 1.429 . S
C3067 C3061 1.429 . S
C3067 C3068 1.523 . S
C3068 C3049 1.368 . S
C3068 C3062 1.368 . S
C3068 C3067 1.523 . S
C3069 C3053 1.429 . S
C3069 C3065 1.429 . S
C3069 C3070 1.523 . S
C3070 C3054 1.368 . S
C3070 C3066 1.368 . S
C3070 C3069 1.523 . S
H3071 C3046 0.950 . S
H3072 C3048 0.950 . S
H3073 C3049 0.949 . S
H3074 C3051 0.950 . S
H3075 C3053 0.950 . S
C3076 C3077 1.349 . S
C3076 C3078 1.327 . S
C3076 H3101 0.950 . S
C3077 C3076 1.349 . S
C3077 C3093 1.349 . S
C3078 C3076 1.327 . S
C3078 C3097 1.429 . S
C3078 H3102 0.950 . S
C3079 C3096 1.574 . S
C3079 C3098 1.368 . S
C3079 H3103 0.949 . S
H3080 C3084 0.949 . S
C3081 C3082 1.349 . S
C3081 C3083 1.327 . S
C3081 H3104 0.950 . S
C3082 C3081 1.349 . S
C3082 C3094 1.349 . S
C3083 C3081 1.327 . S
C3083 C3099 1.429 . S
C3083 H3105 0.950 . S
C3084 H3080 0.949 . S
C3084 C3092 1.574 . S
C3084 C3100 1.368 . S
H3085 C3093 0.950 . S
H3086 C3091 0.950 . S
H3087 C3092 0.949 . S
H3088 C3094 0.950 . S
H3089 C3095 0.950 . S
H3090 C3096 0.949 . S
C3091 H3086 0.950 . S
C3091 C3093 1.327 . S
C3091 C3097 1.429 . S
C3092 C3084 1.574 . S
C3092 H3087 0.949 . S
C3092 C3098 1.368 . S
C3093 C3077 1.349 . S
C3093 H3085 0.950 . S
C3093 C3091 1.327 . S
C3094 C3082 1.349 . S
C3094 H3088 0.950 . S
C3094 C3095 1.327 . S
C3095 H3089 0.950 . S
C3095 C3094 1.327 . S
C3095 C3099 1.429 . S
C3096 C3079 1.574 . S
C3096 H3090 0.949 . S
C3096 C3100 1.368 . S
C3097 C3078 1.429 . S
C3097 C3091 1.429 . S
C3097 C3098 1.523 . S
C3098 C3079 1.368 . S
C3098 C3092 1.368 . S
C3098 C3097 1.523 . S
C3099 C3083 1.429 . S
C3099 C3095 1.429 . S
C3099 C3100 1.523 . S
C3100 C3084 1.368 . S
C3100 C3096 1.368 . S
C3100 C3099 1.523 . S
H3101 C3076 0.950 . S
H3102 C3078 0.950 . S
H3103 C3079 0.949 . S
H3104 C3081 0.950 . S
H3105 C3083 0.950 . S
C3106 C3107 1.349 . S
C3106 C3108 1.327 . S
C3106 H3131 0.950 . S
C3107 C3106 1.349 . S
C3107 C3123 1.349 . S
C3108 C3106 1.327 . S
C3108 C3127 1.429 . S
C3108 H3132 0.950 . S
C3109 C3126 1.574 . S
C3109 C3128 1.368 . S
C3109 H3133 0.949 . S
H3110 C3114 0.949 . S
C3111 C3112 1.349 . S
C3111 C3113 1.327 . S
C3111 H3134 0.950 . S
C3112 C3111 1.349 . S
C3112 C3124 1.349 . S
C3113 C3111 1.327 . S
C3113 C3129 1.429 . S
C3113 H3135 0.950 . S
C3114 H3110 0.949 . S
C3114 C3122 1.574 . S
C3114 C3130 1.368 . S
H3115 C3123 0.950 . S
H3116 C3121 0.950 . S
H3117 C3122 0.949 . S
H3118 C3124 0.950 . S
H3119 C3125 0.950 . S
H3120 C3126 0.949 . S
C3121 H3116 0.950 . S
C3121 C3123 1.327 . S
C3121 C3127 1.429 . S
C3122 C3114 1.574 . S
C3122 H3117 0.949 . S
C3122 C3128 1.368 . S
C3123 C3107 1.349 . S
C3123 H3115 0.950 . S
C3123 C3121 1.327 . S
C3124 C3112 1.349 . S
C3124 H3118 0.950 . S
C3124 C3125 1.327 . S
C3125 H3119 0.950 . S
C3125 C3124 1.327 . S
C3125 C3129 1.429 . S
C3126 C3109 1.574 . S
C3126 H3120 0.949 . S
C3126 C3130 1.368 . S
C3127 C3108 1.429 . S
C3127 C3121 1.429 . S
C3127 C3128 1.523 . S
C3128 C3109 1.368 . S
C3128 C3122 1.368 . S
C3128 C3127 1.523 . S
C3129 C3113 1.429 . S
C3129 C3125 1.429 . S
C3129 C3130 1.523 . S
C3130 C3114 1.368 . S
C3130 C3126 1.368 . S
C3130 C3129 1.523 . S
H3131 C3106 0.950 . S
H3132 C3108 0.950 . S
H3133 C3109 0.949 . S
H3134 C3111 0.950 . S
H3135 C3113 0.950 . S
C3136 C3137 1.349 . S
C3136 C3138 1.327 . S
C3136 H3161 0.950 . S
C3137 C3136 1.349 . S
C3137 C3153 1.349 . S
C3138 C3136 1.327 . S
C3138 C3157 1.429 . S
C3138 H3162 0.950 . S
C3139 C3156 1.574 . S
C3139 C3158 1.368 . S
C3139 H3163 0.949 . S
H3140 C3144 0.949 . S
C3141 C3142 1.349 . S
C3141 C3143 1.327 . S
C3141 H3164 0.950 . S
C3142 C3141 1.349 . S
C3142 C3154 1.349 . S
C3143 C3141 1.327 . S
C3143 C3159 1.429 . S
C3143 H3165 0.950 . S
C3144 H3140 0.949 . S
C3144 C3152 1.574 . S
C3144 C3160 1.368 . S
H3145 C3153 0.950 . S
H3146 C3151 0.950 . S
H3147 C3152 0.949 . S
H3148 C3154 0.950 . S
H3149 C3155 0.950 . S
H3150 C3156 0.949 . S
C3151 H3146 0.950 . S
C3151 C3153 1.327 . S
C3151 C3157 1.429 . S
C3152 C3144 1.574 . S
C3152 H3147 0.949 . S
C3152 C3158 1.368 . S
C3153 C3137 1.349 . S
C3153 H3145 0.950 . S
C3153 C3151 1.327 . S
C3154 C3142 1.349 . S
C3154 H3148 0.950 . S
C3154 C3155 1.327 . S
C3155 H3149 0.950 . S
C3155 C3154 1.327 . S
C3155 C3159 1.429 . S
C3156 C3139 1.574 . S
C3156 H3150 0.949 . S
C3156 C3160 1.368 . S
C3157 C3138 1.429 . S
C3157 C3151 1.429 . S
C3157 C3158 1.523 . S
C3158 C3139 1.368 . S
C3158 C3152 1.368 . S
C3158 C3157 1.523 . S
C3159 C3143 1.429 . S
C3159 C3155 1.429 . S
C3159 C3160 1.523 . S
C3160 C3144 1.368 . S
C3160 C3156 1.368 . S
C3160 C3159 1.523 . S
H3161 C3136 0.950 . S
H3162 C3138 0.950 . S
H3163 C3139 0.949 . S
H3164 C3141 0.950 . S
H3165 C3143 0.950 . S
C3166 C3167 1.349 . S
C3166 C3168 1.327 . S
C3166 H3191 0.950 . S
C3167 C3166 1.349 . S
C3167 C3183 1.349 . S
C3168 C3166 1.327 . S
C3168 C3187 1.429 . S
C3168 H3192 0.950 . S
C3169 C3186 1.574 . S
C3169 C3188 1.368 . S
C3169 H3193 0.949 . S
H3170 C3174 0.949 . S
C3171 C3172 1.349 . S
C3171 C3173 1.327 . S
C3171 H3194 0.950 . S
C3172 C3171 1.349 . S
C3172 C3184 1.349 . S
C3173 C3171 1.327 . S
C3173 C3189 1.429 . S
C3173 H3195 0.950 . S
C3174 H3170 0.949 . S
C3174 C3182 1.574 . S
C3174 C3190 1.368 . S
H3175 C3183 0.950 . S
H3176 C3181 0.950 . S
H3177 C3182 0.949 . S
H3178 C3184 0.950 . S
H3179 C3185 0.950 . S
H3180 C3186 0.949 . S
C3181 H3176 0.950 . S
C3181 C3183 1.327 . S
C3181 C3187 1.429 . S
C3182 C3174 1.574 . S
C3182 H3177 0.949 . S
C3182 C3188 1.368 . S
C3183 C3167 1.349 . S
C3183 H3175 0.950 . S
C3183 C3181 1.327 . S
C3184 C3172 1.349 . S
C3184 H3178 0.950 . S
C3184 C3185 1.327 . S
C3185 H3179 0.950 . S
C3185 C3184 1.327 . S
C3185 C3189 1.429 . S
C3186 C3169 1.574 . S
C3186 H3180 0.949 . S
C3186 C3190 1.368 . S
C3187 C3168 1.429 . S
C3187 C3181 1.429 . S
C3187 C3188 1.523 . S
C3188 C3169 1.368 . S
C3188 C3182 1.368 . S
C3188 C3187 1.523 . S
C3189 C3173 1.429 . S
C3189 C3185 1.429 . S
C3189 C3190 1.523 . S
C3190 C3174 1.368 . S
C3190 C3186 1.368 . S
C3190 C3189 1.523 . S
H3191 C3166 0.950 . S
H3192 C3168 0.950 . S
H3193 C3169 0.949 . S
H3194 C3171 0.950 . S
H3195 C3173 0.950 . S
C3196 C3197 1.349 . S
C3196 C3198 1.327 . S
C3196 H3221 0.950 . S
C3197 C3196 1.349 . S
C3197 C3213 1.349 . S
C3198 C3196 1.327 . S
C3198 C3217 1.429 . S
C3198 H3222 0.950 . S
C3199 C3216 1.574 . S
C3199 C3218 1.368 . S
C3199 H3223 0.949 . S
H3200 C3204 0.949 . S
C3201 C3202 1.349 . S
C3201 C3203 1.327 . S
C3201 H3224 0.950 . S
C3202 C3201 1.349 . S
C3202 C3214 1.349 . S
C3203 C3201 1.327 . S
C3203 C3219 1.429 . S
C3203 H3225 0.950 . S
C3204 H3200 0.949 . S
C3204 C3212 1.574 . S
C3204 C3220 1.368 . S
H3205 C3213 0.950 . S
H3206 C3211 0.950 . S
H3207 C3212 0.949 . S
H3208 C3214 0.950 . S
H3209 C3215 0.950 . S
H3210 C3216 0.949 . S
C3211 H3206 0.950 . S
C3211 C3213 1.327 . S
C3211 C3217 1.429 . S
C3212 C3204 1.574 . S
C3212 H3207 0.949 . S
C3212 C3218 1.368 . S
C3213 C3197 1.349 . S
C3213 H3205 0.950 . S
C3213 C3211 1.327 . S
C3214 C3202 1.349 . S
C3214 H3208 0.950 . S
C3214 C3215 1.327 . S
C3215 H3209 0.950 . S
C3215 C3214 1.327 . S
C3215 C3219 1.429 . S
C3216 C3199 1.574 . S
C3216 H3210 0.949 . S
C3216 C3220 1.368 . S
C3217 C3198 1.429 . S
C3217 C3211 1.429 . S
C3217 C3218 1.523 . S
C3218 C3199 1.368 . S
C3218 C3212 1.368 . S
C3218 C3217 1.523 . S
C3219 C3203 1.429 . S
C3219 C3215 1.429 . S
C3219 C3220 1.523 . S
C3220 C3204 1.368 . S
C3220 C3216 1.368 . S
C3220 C3219 1.523 . S
H3221 C3196 0.950 . S
H3222 C3198 0.950 . S
H3223 C3199 0.949 . S
H3224 C3201 0.950 . S
H3225 C3203 0.950 . S
C3226 C3227 1.349 . S
C3226 C3228 1.327 . S
C3226 H3251 0.950 . S
C3227 C3226 1.349 . S
C3227 C3243 1.349 . S
C3228 C3226 1.327 . S
C3228 C3247 1.429 . S
C3228 H3252 0.950 . S
C3229 C3246 1.574 . S
C3229 C3248 1.368 . S
C3229 H3253 0.949 . S
H3230 C3234 0.949 . S
C3231 C3232 1.349 . S
C3231 C3233 1.327 . S
C3231 H3254 0.950 . S
C3232 C3231 1.349 . S
C3232 C3244 1.349 . S
C3233 C3231 1.327 . S
C3233 C3249 1.429 . S
C3233 H3255 0.950 . S
C3234 H3230 0.949 . S
C3234 C3242 1.574 . S
C3234 C3250 1.368 . S
H3235 C3243 0.950 . S
H3236 C3241 0.950 . S
H3237 C3242 0.949 . S
H3238 C3244 0.950 . S
H3239 C3245 0.950 . S
H3240 C3246 0.949 . S
C3241 H3236 0.950 . S
C3241 C3243 1.327 . S
C3241 C3247 1.429 . S
C3242 C3234 1.574 . S
C3242 H3237 0.949 . S
C3242 C3248 1.368 . S
C3243 C3227 1.349 . S
C3243 H3235 0.950 . S
C3243 C3241 1.327 . S
C3244 C3232 1.349 . S
C3244 H3238 0.950 . S
C3244 C3245 1.327 . S
C3245 H3239 0.950 . S
C3245 C3244 1.327 . S
C3245 C3249 1.429 . S
C3246 C3229 1.574 . S
C3246 H3240 0.949 . S
C3246 C3250 1.368 . S
C3247 C3228 1.429 . S
C3247 C3241 1.429 . S
C3247 C3248 1.523 . S
C3248 C3229 1.368 . S
C3248 C3242 1.368 . S
C3248 C3247 1.523 . S
C3249 C3233 1.429 . S
C3249 C3245 1.429 . S
C3249 C3250 1.523 . S
C3250 C3234 1.368 . S
C3250 C3246 1.368 . S
C3250 C3249 1.523 . S
H3251 C3226 0.950 . S
H3252 C3228 0.950 . S
H3253 C3229 0.949 . S
H3254 C3231 0.950 . S
H3255 C3233 0.950 . S
C3256 C3257 1.349 . S
C3256 C3258 1.327 . S
C3256 H3281 0.950 . S
C3257 C3256 1.349 . S
C3257 C3273 1.349 . S
C3258 C3256 1.327 . S
C3258 C3277 1.429 . S
C3258 H3282 0.950 . S
C3259 C3276 1.574 . S
C3259 C3278 1.368 . S
C3259 H3283 0.949 . S
H3260 C3264 0.949 . S
C3261 C3262 1.349 . S
C3261 C3263 1.327 . S
C3261 H3284 0.950 1_556 S
C3262 C3261 1.349 . S
C3262 C3274 1.349 . S
C3263 C3261 1.327 . S
C3263 C3279 1.429 . S
C3263 H3285 0.950 . S
C3264 H3260 0.949 . S
C3264 C3272 1.574 . S
C3264 C3280 1.368 . S
H3265 C3273 0.950 . S
H3266 C3271 0.950 . S
H3267 C3272 0.949 . S
H3268 C3274 0.950 . S
H3269 C3275 0.950 . S
H3270 C3276 0.949 . S
C3271 H3266 0.950 . S
C3271 C3273 1.327 . S
C3271 C3277 1.429 . S
C3272 C3264 1.574 . S
C3272 H3267 0.949 . S
C3272 C3278 1.368 . S
C3273 C3257 1.349 . S
C3273 H3265 0.950 . S
C3273 C3271 1.327 . S
C3274 C3262 1.349 . S
C3274 H3268 0.950 . S
C3274 C3275 1.327 . S
C3275 H3269 0.950 . S
C3275 C3274 1.327 . S
C3275 C3279 1.429 . S
C3276 C3259 1.574 . S
C3276 H3270 0.949 . S
C3276 C3280 1.368 . S
C3277 C3258 1.429 . S
C3277 C3271 1.429 . S
C3277 C3278 1.523 . S
C3278 C3259 1.368 . S
C3278 C3272 1.368 . S
C3278 C3277 1.523 . S
C3279 C3263 1.429 . S
C3279 C3275 1.429 . S
C3279 C3280 1.523 . S
C3280 C3264 1.368 . S
C3280 C3276 1.368 . S
C3280 C3279 1.523 . S
H3281 C3256 0.950 . S
H3282 C3258 0.950 . S
H3283 C3259 0.949 . S
H3284 C3261 0.950 1_554 S
H3285 C3263 0.950 . S
C3286 C3287 1.349 . S
C3286 C3288 1.327 . S
C3286 H3311 0.950 . S
C3287 C3286 1.349 . S
C3287 C3303 1.349 . S
C3288 C3286 1.327 . S
C3288 C3307 1.429 . S
C3288 H3312 0.950 . S
C3289 C3306 1.574 . S
C3289 C3308 1.368 . S
C3289 H3313 0.949 . S
H3290 C3294 0.949 . S
C3291 C3292 1.349 . S
C3291 C3293 1.327 . S
C3291 H3314 0.950 . S
C3292 C3291 1.349 . S
C3292 C3304 1.349 . S
C3293 C3291 1.327 . S
C3293 C3309 1.429 . S
C3293 H3315 0.950 . S
C3294 H3290 0.949 . S
C3294 C3302 1.574 . S
C3294 C3310 1.368 . S
H3295 C3303 0.950 . S
H3296 C3301 0.950 . S
H3297 C3302 0.949 . S
H3298 C3304 0.950 . S
H3299 C3305 0.950 . S
H3300 C3306 0.949 . S
C3301 H3296 0.950 . S
C3301 C3303 1.327 . S
C3301 C3307 1.429 . S
C3302 C3294 1.574 . S
C3302 H3297 0.949 . S
C3302 C3308 1.368 . S
C3303 C3287 1.349 . S
C3303 H3295 0.950 . S
C3303 C3301 1.327 . S
C3304 C3292 1.349 . S
C3304 H3298 0.950 . S
C3304 C3305 1.327 . S
C3305 H3299 0.950 . S
C3305 C3304 1.327 . S
C3305 C3309 1.429 . S
C3306 C3289 1.574 . S
C3306 H3300 0.949 . S
C3306 C3310 1.368 . S
C3307 C3288 1.429 . S
C3307 C3301 1.429 . S
C3307 C3308 1.523 . S
C3308 C3289 1.368 . S
C3308 C3302 1.368 . S
C3308 C3307 1.523 . S
C3309 C3293 1.429 . S
C3309 C3305 1.429 . S
C3309 C3310 1.523 . S
C3310 C3294 1.368 . S
C3310 C3306 1.368 . S
C3310 C3309 1.523 . S
H3311 C3286 0.950 . S
H3312 C3288 0.950 . S
H3313 C3289 0.949 . S
H3314 C3291 0.950 . S
H3315 C3293 0.950 . S
C3316 C3317 1.349 . S
C3316 C3318 1.327 . S
C3316 H3341 0.950 . S
C3317 C3316 1.349 . S
C3317 C3333 1.349 . S
C3318 C3316 1.327 . S
C3318 C3337 1.429 . S
C3318 H3342 0.950 . S
C3319 C3336 1.574 . S
C3319 C3338 1.368 . S
C3319 H3343 0.949 . S
H3320 C3324 0.949 . S
C3321 C3322 1.349 . S
C3321 C3323 1.327 . S
C3321 H3344 0.950 . S
C3322 C3321 1.349 . S
C3322 C3334 1.349 . S
C3323 C3321 1.327 . S
C3323 C3339 1.429 . S
C3323 H3345 0.950 . S
C3324 H3320 0.949 . S
C3324 C3332 1.574 . S
C3324 C3340 1.368 . S
H3325 C3333 0.950 . S
H3326 C3331 0.950 . S
H3327 C3332 0.949 . S
H3328 C3334 0.950 . S
H3329 C3335 0.950 . S
H3330 C3336 0.949 . S
C3331 H3326 0.950 . S
C3331 C3333 1.327 . S
C3331 C3337 1.429 . S
C3332 C3324 1.574 . S
C3332 H3327 0.949 . S
C3332 C3338 1.368 . S
C3333 C3317 1.349 . S
C3333 H3325 0.950 . S
C3333 C3331 1.327 . S
C3334 C3322 1.349 . S
C3334 H3328 0.950 . S
C3334 C3335 1.327 . S
C3335 H3329 0.950 . S
C3335 C3334 1.327 . S
C3335 C3339 1.429 . S
C3336 C3319 1.574 . S
C3336 H3330 0.949 . S
C3336 C3340 1.368 . S
C3337 C3318 1.429 . S
C3337 C3331 1.429 . S
C3337 C3338 1.523 . S
C3338 C3319 1.368 . S
C3338 C3332 1.368 . S
C3338 C3337 1.523 . S
C3339 C3323 1.429 . S
C3339 C3335 1.429 . S
C3339 C3340 1.523 . S
C3340 C3324 1.368 . S
C3340 C3336 1.368 . S
C3340 C3339 1.523 . S
H3341 C3316 0.950 . S
H3342 C3318 0.950 . S
H3343 C3319 0.949 . S
H3344 C3321 0.950 . S
H3345 C3323 0.950 . S
C3346 C3347 1.349 . S
C3346 C3348 1.327 . S
C3346 H3371 0.950 . S
C3347 C3346 1.349 . S
C3347 C3363 1.349 . S
C3348 C3346 1.327 . S
C3348 C3367 1.429 . S
C3348 H3372 0.950 . S
C3349 C3366 1.574 . S
C3349 C3368 1.368 . S
C3349 H3373 0.949 . S
H3350 C3354 0.949 . S
C3351 C3352 1.349 . S
C3351 C3353 1.327 . S
C3351 H3374 0.950 . S
C3352 C3351 1.349 . S
C3352 C3364 1.349 . S
C3353 C3351 1.327 . S
C3353 C3369 1.429 . S
C3353 H3375 0.950 . S
C3354 H3350 0.949 . S
C3354 C3362 1.574 . S
C3354 C3370 1.368 . S
H3355 C3363 0.950 . S
H3356 C3361 0.950 . S
H3357 C3362 0.949 . S
H3358 C3364 0.950 . S
H3359 C3365 0.950 . S
H3360 C3366 0.949 . S
C3361 H3356 0.950 . S
C3361 C3363 1.327 . S
C3361 C3367 1.429 . S
C3362 C3354 1.574 . S
C3362 H3357 0.949 . S
C3362 C3368 1.368 . S
C3363 C3347 1.349 . S
C3363 H3355 0.950 . S
C3363 C3361 1.327 . S
C3364 C3352 1.349 . S
C3364 H3358 0.950 . S
C3364 C3365 1.327 . S
C3365 H3359 0.950 . S
C3365 C3364 1.327 . S
C3365 C3369 1.429 . S
C3366 C3349 1.574 . S
C3366 H3360 0.949 . S
C3366 C3370 1.368 . S
C3367 C3348 1.429 . S
C3367 C3361 1.429 . S
C3367 C3368 1.523 . S
C3368 C3349 1.368 . S
C3368 C3362 1.368 . S
C3368 C3367 1.523 . S
C3369 C3353 1.429 . S
C3369 C3365 1.429 . S
C3369 C3370 1.523 . S
C3370 C3354 1.368 . S
C3370 C3366 1.368 . S
C3370 C3369 1.523 . S
H3371 C3346 0.950 . S
H3372 C3348 0.950 . S
H3373 C3349 0.949 . S
H3374 C3351 0.950 . S
H3375 C3353 0.950 . S
C3376 C3377 1.349 . S
C3376 C3378 1.327 . S
C3376 H3401 0.950 . S
C3377 C3376 1.349 . S
C3377 C3393 1.349 . S
C3378 C3376 1.327 . S
C3378 C3397 1.429 . S
C3378 H3402 0.950 . S
C3379 C3396 1.574 . S
C3379 C3398 1.368 . S
C3379 H3403 0.949 . S
H3380 C3384 0.949 . S
C3381 C3382 1.349 . S
C3381 C3383 1.327 . S
C3381 H3404 0.950 . S
C3382 C3381 1.349 . S
C3382 C3394 1.349 . S
C3383 C3381 1.327 . S
C3383 C3399 1.429 . S
C3383 H3405 0.950 . S
C3384 H3380 0.949 . S
C3384 C3392 1.574 . S
C3384 C3400 1.368 . S
H3385 C3393 0.950 . S
H3386 C3391 0.950 . S
H3387 C3392 0.949 . S
H3388 C3394 0.950 . S
H3389 C3395 0.950 . S
H3390 C3396 0.949 . S
C3391 H3386 0.950 . S
C3391 C3393 1.327 . S
C3391 C3397 1.429 . S
C3392 C3384 1.574 . S
C3392 H3387 0.949 . S
C3392 C3398 1.368 . S
C3393 C3377 1.349 . S
C3393 H3385 0.950 . S
C3393 C3391 1.327 . S
C3394 C3382 1.349 . S
C3394 H3388 0.950 . S
C3394 C3395 1.327 . S
C3395 H3389 0.950 . S
C3395 C3394 1.327 . S
C3395 C3399 1.429 . S
C3396 C3379 1.574 . S
C3396 H3390 0.949 . S
C3396 C3400 1.368 . S
C3397 C3378 1.429 . S
C3397 C3391 1.429 . S
C3397 C3398 1.523 . S
C3398 C3379 1.368 . S
C3398 C3392 1.368 . S
C3398 C3397 1.523 . S
C3399 C3383 1.429 . S
C3399 C3395 1.429 . S
C3399 C3400 1.523 . S
C3400 C3384 1.368 . S
C3400 C3396 1.368 . S
C3400 C3399 1.523 . S
H3401 C3376 0.950 . S
H3402 C3378 0.950 . S
H3403 C3379 0.949 . S
H3404 C3381 0.950 . S
H3405 C3383 0.950 . S
C3406 C3407 1.349 . S
C3406 C3408 1.327 . S
C3406 H3431 0.950 . S
C3407 C3406 1.349 . S
C3407 C3423 1.349 . S
C3408 C3406 1.327 . S
C3408 C3427 1.429 . S
C3408 H3432 0.950 . S
C3409 C3426 1.574 . S
C3409 C3428 1.368 . S
C3409 H3433 0.949 . S
H3410 C3414 0.949 . S
C3411 C3412 1.349 . S
C3411 C3413 1.327 . S
C3411 H3434 0.950 . S
C3412 C3411 1.349 . S
C3412 C3424 1.349 . S
C3413 C3411 1.327 . S
C3413 C3429 1.429 . S
C3413 H3435 0.950 . S
C3414 H3410 0.949 . S
C3414 C3422 1.574 . S
C3414 C3430 1.368 . S
H3415 C3423 0.950 . S
H3416 C3421 0.950 . S
H3417 C3422 0.949 . S
H3418 C3424 0.950 . S
H3419 C3425 0.950 . S
H3420 C3426 0.949 . S
C3421 H3416 0.950 . S
C3421 C3423 1.327 . S
C3421 C3427 1.429 . S
C3422 C3414 1.574 . S
C3422 H3417 0.949 . S
C3422 C3428 1.368 . S
C3423 C3407 1.349 . S
C3423 H3415 0.950 . S
C3423 C3421 1.327 . S
C3424 C3412 1.349 . S
C3424 H3418 0.950 . S
C3424 C3425 1.327 . S
C3425 H3419 0.950 . S
C3425 C3424 1.327 . S
C3425 C3429 1.429 . S
C3426 C3409 1.574 . S
C3426 H3420 0.949 . S
C3426 C3430 1.368 . S
C3427 C3408 1.429 . S
C3427 C3421 1.429 . S
C3427 C3428 1.523 . S
C3428 C3409 1.368 . S
C3428 C3422 1.368 . S
C3428 C3427 1.523 . S
C3429 C3413 1.429 . S
C3429 C3425 1.429 . S
C3429 C3430 1.523 . S
C3430 C3414 1.368 . S
C3430 C3426 1.368 . S
C3430 C3429 1.523 . S
H3431 C3406 0.950 . S
H3432 C3408 0.950 . S
H3433 C3409 0.949 . S
H3434 C3411 0.950 . S
H3435 C3413 0.950 . S
C3436 C3437 1.349 . S
C3436 C3438 1.327 . S
C3436 H3461 0.950 . S
C3437 C3436 1.349 . S
C3437 C3453 1.349 . S
C3438 C3436 1.327 . S
C3438 C3457 1.429 . S
C3438 H3462 0.950 . S
C3439 C3456 1.592 . S
C3439 C3458 1.368 . S
C3439 H3463 0.949 . S
H3440 C3444 0.949 . S
C3441 C3442 1.349 . S
C3441 C3443 1.327 . S
C3441 H3464 0.950 . S
C3442 C3441 1.349 . S
C3442 C3454 1.349 . S
C3443 C3441 1.327 . S
C3443 C3459 1.429 . S
C3443 H3465 0.950 . S
C3444 H3440 0.949 . S
C3444 C3452 1.574 . S
C3444 C3460 1.368 . S
H3445 C3453 0.950 . S
H3446 C3451 0.950 . S
H3447 C3452 0.949 . S
H3448 C3454 0.950 . S
H3449 C3455 0.950 1_655 S
H3450 C3456 0.916 1_455 S
C3451 H3446 0.950 . S
C3451 C3453 1.327 . S
C3451 C3457 1.429 . S
C3452 C3444 1.574 . S
C3452 H3447 0.949 . S
C3452 C3458 1.368 . S
C3453 C3437 1.349 . S
C3453 H3445 0.950 . S
C3453 C3451 1.327 . S
C3454 C3442 1.349 . S
C3454 H3448 0.950 . S
C3454 C3455 1.327 . S
C3455 H3449 0.950 1_455 S
C3455 C3454 1.327 . S
C3455 C3459 1.429 . S
C3456 C3439 1.592 . S
C3456 H3450 0.916 1_655 S
C3456 C3460 1.388 . S
C3457 C3438 1.429 . S
C3457 C3451 1.429 . S
C3457 C3458 1.523 . S
C3458 C3439 1.368 . S
C3458 C3452 1.368 . S
C3458 C3457 1.523 . S
C3459 C3443 1.429 . S
C3459 C3455 1.429 . S
C3459 C3460 1.523 1_455 S
C3460 C3444 1.368 . S
C3460 C3456 1.388 . S
C3460 C3459 1.523 1_655 S
H3461 C3436 0.950 . S
H3462 C3438 0.950 . S
H3463 C3439 0.949 . S
H3464 C3441 0.950 . S
H3465 C3443 0.950 . S
C3466 C3467 1.349 . S
C3466 C3468 1.327 . S
C3466 H3491 0.950 . S
C3467 C3466 1.349 . S
C3467 C3483 1.349 . S
C3468 C3466 1.327 . S
C3468 C3487 1.429 . S
C3468 H3492 0.950 . S
C3469 C3486 1.574 . S
C3469 C3488 1.368 . S
C3469 H3493 0.949 . S
H3470 C3474 0.949 . S
C3471 C3472 1.349 . S
C3471 C3473 1.327 . S
C3471 H3494 0.950 . S
C3472 C3471 1.349 . S
C3472 C3484 1.349 . S
C3473 C3471 1.327 . S
C3473 C3489 1.429 . S
C3473 H3495 0.950 . S
C3474 H3470 0.949 . S
C3474 C3482 1.574 . S
C3474 C3490 1.368 . S
H3475 C3483 0.950 . S
H3476 C3481 0.950 . S
H3477 C3482 0.949 . S
H3478 C3484 0.950 . S
H3479 C3485 0.950 . S
H3480 C3486 0.949 . S
C3481 H3476 0.950 . S
C3481 C3483 1.327 . S
C3481 C3487 1.429 . S
C3482 C3474 1.574 . S
C3482 H3477 0.949 . S
C3482 C3488 1.368 . S
C3483 C3467 1.349 . S
C3483 H3475 0.950 . S
C3483 C3481 1.327 . S
C3484 C3472 1.349 . S
C3484 H3478 0.950 . S
C3484 C3485 1.327 . S
C3485 H3479 0.950 . S
C3485 C3484 1.327 . S
C3485 C3489 1.429 . S
C3486 C3469 1.574 . S
C3486 H3480 0.949 . S
C3486 C3490 1.368 . S
C3487 C3468 1.429 . S
C3487 C3481 1.429 . S
C3487 C3488 1.523 . S
C3488 C3469 1.368 . S
C3488 C3482 1.368 . S
C3488 C3487 1.523 . S
C3489 C3473 1.429 . S
C3489 C3485 1.429 . S
C3489 C3490 1.523 . S
C3490 C3474 1.368 . S
C3490 C3486 1.368 . S
C3490 C3489 1.523 . S
H3491 C3466 0.950 . S
H3492 C3468 0.950 . S
H3493 C3469 0.949 . S
H3494 C3471 0.950 . S
H3495 C3473 0.950 . S
C3496 C3497 1.349 . S
C3496 C3498 1.327 . S
C3496 H3521 0.950 . S
C3497 C3496 1.349 . S
C3497 C3513 1.349 . S
C3498 C3496 1.327 . S
C3498 C3517 1.429 . S
C3498 H3522 0.950 . S
C3499 C3516 1.574 . S
C3499 C3518 1.368 . S
C3499 H3523 0.949 . S
H3500 C3504 0.949 . S
C3501 C3502 1.349 . S
C3501 C3503 1.327 . S
C3501 H3524 0.950 . S
C3502 C3501 1.349 . S
C3502 C3514 1.349 . S
C3503 C3501 1.327 . S
C3503 C3519 1.429 . S
C3503 H3525 0.950 . S
C3504 H3500 0.949 . S
C3504 C3512 1.574 . S
C3504 C3520 1.368 . S
H3505 C3513 0.950 . S
H3506 C3511 0.950 . S
H3507 C3512 0.949 . S
H3508 C3514 0.950 . S
H3509 C3515 0.950 . S
H3510 C3516 0.949 . S
C3511 H3506 0.950 . S
C3511 C3513 1.327 . S
C3511 C3517 1.429 . S
C3512 C3504 1.574 . S
C3512 H3507 0.949 . S
C3512 C3518 1.368 . S
C3513 C3497 1.349 . S
C3513 H3505 0.950 . S
C3513 C3511 1.327 . S
C3514 C3502 1.349 . S
C3514 H3508 0.950 . S
C3514 C3515 1.327 . S
C3515 H3509 0.950 . S
C3515 C3514 1.327 . S
C3515 C3519 1.429 . S
C3516 C3499 1.574 . S
C3516 H3510 0.949 . S
C3516 C3520 1.368 . S
C3517 C3498 1.429 . S
C3517 C3511 1.429 . S
C3517 C3518 1.523 . S
C3518 C3499 1.368 . S
C3518 C3512 1.368 . S
C3518 C3517 1.523 . S
C3519 C3503 1.429 . S
C3519 C3515 1.429 . S
C3519 C3520 1.523 . S
C3520 C3504 1.368 . S
C3520 C3516 1.368 . S
C3520 C3519 1.523 . S
H3521 C3496 0.950 . S
H3522 C3498 0.950 . S
H3523 C3499 0.949 . S
H3524 C3501 0.950 . S
H3525 C3503 0.950 . S
C3526 C3527 1.349 . S
C3526 C3528 1.327 . S
C3526 H3551 0.950 . S
C3527 C3526 1.349 . S
C3527 C3543 1.349 . S
C3528 C3526 1.327 . S
C3528 C3547 1.429 . S
C3528 H3552 0.950 . S
C3529 C3546 1.574 . S
C3529 C3548 1.368 . S
C3529 H3553 0.949 . S
H3530 C3534 0.949 . S
C3531 C3532 1.349 . S
C3531 C3533 1.327 . S
C3531 H3554 0.950 . S
C3532 C3531 1.349 . S
C3532 C3544 1.349 . S
C3533 C3531 1.327 . S
C3533 C3549 1.429 . S
C3533 H3555 0.950 . S
C3534 H3530 0.949 . S
C3534 C3542 1.574 . S
C3534 C3550 1.368 . S
H3535 C3543 0.950 . S
H3536 C3541 0.950 . S
H3537 C3542 0.949 . S
H3538 C3544 0.950 . S
H3539 C3545 0.950 . S
H3540 C3546 0.949 . S
C3541 H3536 0.950 . S
C3541 C3543 1.327 . S
C3541 C3547 1.429 . S
C3542 C3534 1.574 . S
C3542 H3537 0.949 . S
C3542 C3548 1.368 . S
C3543 C3527 1.349 . S
C3543 H3535 0.950 . S
C3543 C3541 1.327 . S
C3544 C3532 1.349 . S
C3544 H3538 0.950 . S
C3544 C3545 1.327 . S
C3545 H3539 0.950 . S
C3545 C3544 1.327 . S
C3545 C3549 1.429 . S
C3546 C3529 1.574 . S
C3546 H3540 0.949 . S
C3546 C3550 1.368 . S
C3547 C3528 1.429 . S
C3547 C3541 1.429 . S
C3547 C3548 1.523 . S
C3548 C3529 1.368 . S
C3548 C3542 1.368 . S
C3548 C3547 1.523 . S
C3549 C3533 1.429 . S
C3549 C3545 1.429 . S
C3549 C3550 1.523 . S
C3550 C3534 1.368 . S
C3550 C3546 1.368 . S
C3550 C3549 1.523 . S
H3551 C3526 0.950 . S
H3552 C3528 0.950 . S
H3553 C3529 0.949 . S
H3554 C3531 0.950 . S
H3555 C3533 0.950 . S
C3556 C3557 1.349 . S
C3556 C3558 1.327 . S
C3556 H3581 0.950 . S
C3557 C3556 1.349 . S
C3557 C3573 1.349 . S
C3558 C3556 1.327 . S
C3558 C3577 1.429 . S
C3558 H3582 0.950 . S
C3559 C3576 1.574 . S
C3559 C3578 1.368 . S
C3559 H3583 0.949 . S
H3560 C3564 0.949 1_455 S
C3561 C3562 1.349 1_655 S
C3561 C3563 1.327 . S
C3561 H3584 0.950 . S
C3562 C3561 1.349 1_455 S
C3562 C3574 1.349 . S
C3563 C3561 1.327 . S
C3563 C3579 1.429 . S
C3563 H3585 0.950 . S
C3564 H3560 0.949 1_655 S
C3564 C3572 1.574 . S
C3564 C3580 1.368 . S
H3565 C3573 0.950 . S
H3566 C3571 0.950 . S
H3567 C3572 0.949 . S
H3568 C3574 0.950 . S
H3569 C3575 0.950 . S
H3570 C3576 0.949 . S
C3571 H3566 0.950 . S
C3571 C3573 1.327 . S
C3571 C3577 1.429 . S
C3572 C3564 1.574 . S
C3572 H3567 0.949 . S
C3572 C3578 1.368 . S
C3573 C3557 1.349 . S
C3573 H3565 0.950 . S
C3573 C3571 1.327 . S
C3574 C3562 1.349 . S
C3574 H3568 0.950 . S
C3574 C3575 1.327 . S
C3575 H3569 0.950 . S
C3575 C3574 1.327 . S
C3575 C3579 1.429 1_455 S
C3576 C3559 1.574 . S
C3576 H3570 0.949 . S
C3576 C3580 1.368 . S
C3577 C3558 1.429 . S
C3577 C3571 1.429 . S
C3577 C3578 1.523 . S
C3578 C3559 1.368 . S
C3578 C3572 1.368 . S
C3578 C3577 1.523 . S
C3579 C3563 1.429 . S
C3579 C3575 1.429 1_655 S
C3579 C3580 1.523 . S
C3580 C3564 1.368 . S
C3580 C3576 1.368 . S
C3580 C3579 1.523 . S
H3581 C3556 0.950 . S
H3582 C3558 0.950 . S
H3583 C3559 0.949 . S
H3584 C3561 0.950 . S
H3585 C3563 0.950 . S
C3586 C3587 1.349 . S
C3586 C3588 1.327 . S
C3586 H3611 0.950 . S
C3587 C3586 1.349 . S
C3587 C3603 1.349 . S
C3588 C3586 1.327 . S
C3588 C3607 1.429 . S
C3588 H3612 0.950 . S
C3589 C3606 1.574 . S
C3589 C3608 1.368 . S
C3589 H3613 0.949 . S
H3590 C3594 0.949 . S
C3591 C3592 1.349 . S
C3591 C3593 1.327 . S
C3591 H3614 0.950 . S
C3592 C3591 1.349 . S
C3592 C3604 1.349 . S
C3593 C3591 1.327 . S
C3593 C3609 1.429 . S
C3593 H3615 0.950 . S
C3594 H3590 0.949 . S
C3594 C3602 1.574 . S
C3594 C3610 1.368 . S
H3595 C3603 0.950 . S
H3596 C3601 0.950 . S
H3597 C3602 0.949 . S
H3598 C3604 0.950 . S
H3599 C3605 0.950 . S
H3600 C3606 0.949 . S
C3601 H3596 0.950 . S
C3601 C3603 1.327 . S
C3601 C3607 1.429 . S
C3602 C3594 1.574 . S
C3602 H3597 0.949 . S
C3602 C3608 1.368 . S
C3603 C3587 1.349 . S
C3603 H3595 0.950 . S
C3603 C3601 1.327 . S
C3604 C3592 1.349 . S
C3604 H3598 0.950 . S
C3604 C3605 1.327 . S
C3605 H3599 0.950 . S
C3605 C3604 1.327 . S
C3605 C3609 1.429 . S
C3606 C3589 1.574 . S
C3606 H3600 0.949 . S
C3606 C3610 1.368 . S
C3607 C3588 1.429 . S
C3607 C3601 1.429 . S
C3607 C3608 1.523 . S
C3608 C3589 1.368 . S
C3608 C3602 1.368 . S
C3608 C3607 1.523 . S
C3609 C3593 1.429 . S
C3609 C3605 1.429 . S
C3609 C3610 1.523 . S
C3610 C3594 1.368 . S
C3610 C3606 1.368 . S
C3610 C3609 1.523 . S
H3611 C3586 0.950 . S
H3612 C3588 0.950 . S
H3613 C3589 0.949 . S
H3614 C3591 0.950 . S
H3615 C3593 0.950 . S
C3616 C3617 1.349 . S
C3616 C3618 1.327 . S
C3616 H3641 0.950 . S
C3617 C3616 1.349 . S
C3617 C3633 1.349 . S
C3618 C3616 1.327 . S
C3618 C3637 1.429 . S
C3618 H3642 0.950 . S
C3619 C3636 1.574 . S
C3619 C3638 1.368 . S
C3619 H3643 0.949 . S
H3620 C3624 0.949 . S
C3621 C3622 1.349 . S
C3621 C3623 1.327 . S
C3621 H3644 0.950 . S
C3622 C3621 1.349 . S
C3622 C3634 1.349 . S
C3623 C3621 1.327 . S
C3623 C3639 1.429 . S
C3623 H3645 0.950 . S
C3624 H3620 0.949 . S
C3624 C3632 1.574 . S
C3624 C3640 1.368 . S
H3625 C3633 0.950 . S
H3626 C3631 0.950 . S
H3627 C3632 0.949 . S
H3628 C3634 0.950 . S
H3629 C3635 0.950 . S
H3630 C3636 0.949 . S
C3631 H3626 0.950 . S
C3631 C3633 1.327 . S
C3631 C3637 1.429 . S
C3632 C3624 1.574 . S
C3632 H3627 0.949 . S
C3632 C3638 1.368 . S
C3633 C3617 1.349 . S
C3633 H3625 0.950 . S
C3633 C3631 1.327 . S
C3634 C3622 1.349 . S
C3634 H3628 0.950 . S
C3634 C3635 1.327 . S
C3635 H3629 0.950 . S
C3635 C3634 1.327 . S
C3635 C3639 1.429 . S
C3636 C3619 1.574 . S
C3636 H3630 0.949 . S
C3636 C3640 1.368 . S
C3637 C3618 1.429 . S
C3637 C3631 1.429 . S
C3637 C3638 1.523 . S
C3638 C3619 1.368 . S
C3638 C3632 1.368 . S
C3638 C3637 1.523 . S
C3639 C3623 1.429 . S
C3639 C3635 1.429 . S
C3639 C3640 1.523 . S
C3640 C3624 1.368 . S
C3640 C3636 1.368 . S
C3640 C3639 1.523 . S
H3641 C3616 0.950 . S
H3642 C3618 0.950 . S
H3643 C3619 0.949 . S
H3644 C3621 0.950 . S
H3645 C3623 0.950 . S
C3646 C3647 1.349 . S
C3646 C3648 1.327 . S
C3646 H3671 0.950 . S
C3647 C3646 1.349 . S
C3647 C3663 1.349 . S
C3648 C3646 1.327 . S
C3648 C3667 1.429 . S
C3648 H3672 0.950 . S
C3649 C3666 1.574 . S
C3649 C3668 1.368 . S
C3649 H3673 0.949 . S
H3650 C3654 0.949 . S
C3651 C3652 1.345 1_565 S
C3651 C3653 1.327 . S
C3651 H3674 0.950 . S
C3652 C3651 1.345 1_545 S
C3652 C3664 1.351 . S
C3653 C3651 1.327 . S
C3653 C3669 1.429 . S
C3653 H3675 0.950 . S
C3654 H3650 0.949 . S
C3654 C3662 1.574 . S
C3654 C3670 1.368 . S
H3655 C3663 0.950 . S
H3656 C3661 0.950 . S
H3657 C3662 0.949 . S
H3658 C3664 0.950 . S
H3659 C3665 0.950 . S
H3660 C3666 0.949 . S
C3661 H3656 0.950 . S
C3661 C3663 1.327 . S
C3661 C3667 1.429 . S
C3662 C3654 1.574 . S
C3662 H3657 0.949 . S
C3662 C3668 1.368 . S
C3663 C3647 1.349 . S
C3663 H3655 0.950 . S
C3663 C3661 1.327 . S
C3664 C3652 1.351 . S
C3664 H3658 0.950 . S
C3664 C3665 1.327 1_545 S
C3665 H3659 0.950 . S
C3665 C3664 1.327 1_565 S
C3665 C3669 1.429 . S
C3666 C3649 1.574 . S
C3666 H3660 0.949 . S
C3666 C3670 1.368 . S
C3667 C3648 1.429 . S
C3667 C3661 1.429 . S
C3667 C3668 1.523 . S
C3668 C3649 1.368 . S
C3668 C3662 1.368 . S
C3668 C3667 1.523 . S
C3669 C3653 1.429 . S
C3669 C3665 1.429 . S
C3669 C3670 1.523 . S
C3670 C3654 1.368 . S
C3670 C3666 1.368 . S
C3670 C3669 1.523 . S
H3671 C3646 0.950 . S
H3672 C3648 0.950 . S
H3673 C3649 0.949 . S
H3674 C3651 0.950 . S
H3675 C3653 0.950 . S
C3676 C3677 1.349 . S
C3676 C3678 1.327 . S
C3676 H3701 0.950 . S
C3677 C3676 1.349 . S
C3677 C3693 1.349 . S
C3678 C3676 1.327 . S
C3678 C3697 1.429 . S
C3678 H3702 0.950 . S
C3679 C3696 1.574 . S
C3679 C3698 1.368 . S
C3679 H3703 0.949 . S
H3680 C3684 0.949 . S
C3681 C3682 1.349 . S
C3681 C3683 1.327 . S
C3681 H3704 0.950 . S
C3682 C3681 1.349 . S
C3682 C3694 1.349 . S
C3683 C3681 1.327 . S
C3683 C3699 1.429 . S
C3683 H3705 0.950 . S
C3684 H3680 0.949 . S
C3684 C3692 1.574 . S
C3684 C3700 1.368 . S
H3685 C3693 0.950 . S
H3686 C3691 0.950 . S
H3687 C3692 0.949 . S
H3688 C3694 0.950 . S
H3689 C3695 0.950 . S
H3690 C3696 0.949 . S
C3691 H3686 0.950 . S
C3691 C3693 1.327 . S
C3691 C3697 1.429 . S
C3692 C3684 1.574 . S
C3692 H3687 0.949 . S
C3692 C3698 1.368 . S
C3693 C3677 1.349 . S
C3693 H3685 0.950 . S
C3693 C3691 1.327 . S
C3694 C3682 1.349 . S
C3694 H3688 0.950 . S
C3694 C3695 1.327 . S
C3695 H3689 0.950 . S
C3695 C3694 1.327 . S
C3695 C3699 1.429 . S
C3696 C3679 1.574 . S
C3696 H3690 0.949 . S
C3696 C3700 1.368 . S
C3697 C3678 1.429 . S
C3697 C3691 1.429 . S
C3697 C3698 1.523 . S
C3698 C3679 1.368 . S
C3698 C3692 1.368 . S
C3698 C3697 1.523 . S
C3699 C3683 1.429 . S
C3699 C3695 1.429 . S
C3699 C3700 1.523 . S
C3700 C3684 1.368 . S
C3700 C3696 1.368 . S
C3700 C3699 1.523 . S
H3701 C3676 0.950 . S
H3702 C3678 0.950 . S
H3703 C3679 0.949 . S
H3704 C3681 0.950 . S
H3705 C3683 0.950 . S
C3706 C3707 1.349 . S
C3706 C3708 1.327 . S
C3706 H3731 0.950 . S
C3707 C3706 1.349 . S
C3707 C3723 1.349 . S
C3708 C3706 1.327 . S
C3708 C3727 1.429 . S
C3708 H3732 0.950 . S
C3709 C3726 1.574 . S
C3709 C3728 1.368 . S
C3709 H3733 0.949 . S
H3710 C3714 0.949 . S
C3711 C3712 1.349 . S
C3711 C3713 1.327 . S
C3711 H3734 0.950 . S
C3712 C3711 1.349 . S
C3712 C3724 1.349 . S
C3713 C3711 1.327 . S
C3713 C3729 1.429 . S
C3713 H3735 0.950 . S
C3714 H3710 0.949 . S
C3714 C3722 1.574 . S
C3714 C3730 1.368 . S
H3715 C3723 0.950 . S
H3716 C3721 0.950 . S
H3717 C3722 0.949 . S
H3718 C3724 0.913 1_556 S
H3719 C3725 0.950 . S
H3720 C3726 0.949 . S
C3721 H3716 0.950 . S
C3721 C3723 1.327 . S
C3721 C3727 1.429 . S
C3722 C3714 1.574 . S
C3722 H3717 0.949 . S
C3722 C3728 1.368 . S
C3723 C3707 1.349 . S
C3723 H3715 0.950 . S
C3723 C3721 1.327 . S
C3724 C3712 1.349 . S
C3724 H3718 0.913 1_554 S
C3724 C3725 1.327 . S
C3725 H3719 0.950 . S
C3725 C3724 1.327 . S
C3725 C3729 1.429 . S
C3726 C3709 1.574 . S
C3726 H3720 0.949 . S
C3726 C3730 1.368 . S
C3727 C3708 1.429 . S
C3727 C3721 1.429 . S
C3727 C3728 1.523 . S
C3728 C3709 1.368 . S
C3728 C3722 1.368 . S
C3728 C3727 1.523 . S
C3729 C3713 1.429 . S
C3729 C3725 1.429 . S
C3729 C3730 1.523 . S
C3730 C3714 1.368 . S
C3730 C3726 1.368 . S
C3730 C3729 1.523 . S
H3731 C3706 0.950 . S
H3732 C3708 0.950 . S
H3733 C3709 0.949 . S
H3734 C3711 0.950 . S
H3735 C3713 0.950 . S
C3736 C3737 1.349 . S
C3736 C3738 1.327 . S
C3736 H3761 0.950 . S
C3737 C3736 1.349 . S
C3737 C3753 1.349 . S
C3738 C3736 1.327 . S
C3738 C3757 1.429 . S
C3738 H3762 0.950 . S
C3739 C3756 1.574 . S
C3739 C3758 1.368 . S
C3739 H3763 0.949 . S
H3740 C3744 0.949 . S
C3741 C3742 1.349 . S
C3741 C3743 1.327 . S
C3741 H3764 0.950 . S
C3742 C3741 1.349 . S
C3742 C3754 1.349 . S
C3743 C3741 1.327 . S
C3743 C3759 1.429 . S
C3743 H3765 0.950 . S
C3744 H3740 0.949 . S
C3744 C3752 1.574 . S
C3744 C3760 1.368 . S
H3745 C3753 0.950 . S
H3746 C3751 0.950 . S
H3747 C3752 0.949 . S
H3748 C3754 0.950 . S
H3749 C3755 0.950 . S
H3750 C3756 0.949 . S
C3751 H3746 0.950 . S
C3751 C3753 1.327 . S
C3751 C3757 1.429 . S
C3752 C3744 1.574 . S
C3752 H3747 0.949 . S
C3752 C3758 1.368 . S
C3753 C3737 1.349 . S
C3753 H3745 0.950 . S
C3753 C3751 1.327 . S
C3754 C3742 1.349 . S
C3754 H3748 0.950 . S
C3754 C3755 1.327 . S
C3755 H3749 0.950 . S
C3755 C3754 1.327 . S
C3755 C3759 1.429 . S
C3756 C3739 1.574 . S
C3756 H3750 0.949 . S
C3756 C3760 1.368 . S
C3757 C3738 1.429 . S
C3757 C3751 1.429 . S
C3757 C3758 1.523 . S
C3758 C3739 1.368 . S
C3758 C3752 1.368 . S
C3758 C3757 1.523 . S
C3759 C3743 1.429 . S
C3759 C3755 1.429 . S
C3759 C3760 1.523 . S
C3760 C3744 1.368 . S
C3760 C3756 1.368 . S
C3760 C3759 1.523 . S
H3761 C3736 0.950 . S
H3762 C3738 0.950 . S
H3763 C3739 0.949 . S
H3764 C3741 0.950 . S
H3765 C3743 0.950 . S
C3766 C3767 1.349 . S
C3766 C3768 1.327 . S
C3766 H3791 0.950 . S
C3767 C3766 1.349 . S
C3767 C3783 1.349 . S
C3768 C3766 1.327 . S
C3768 C3787 1.429 . S
C3768 H3792 0.950 . S
C3769 C3786 1.574 . S
C3769 C3788 1.368 1_556 S
C3769 H3793 0.949 . S
H3770 C3774 0.949 . S
C3771 C3772 1.349 . S
C3771 C3773 1.327 . S
C3771 H3794 0.950 . S
C3772 C3771 1.349 . S
C3772 C3784 1.349 1_556 S
C3773 C3771 1.327 . S
C3773 C3789 1.412 1_556 S
C3773 H3795 0.950 . S
C3774 H3770 0.949 . S
C3774 C3782 1.574 . S
C3774 C3790 1.368 . S
H3775 C3783 0.950 1_556 S
H3776 C3781 0.950 1_556 S
H3777 C3782 0.949 . S
H3778 C3784 0.950 . S
H3779 C3785 0.950 . S
H3780 C3786 0.949 . S
C3781 H3776 0.950 1_554 S
C3781 C3783 1.327 . S
C3781 C3787 1.429 . S
C3782 C3774 1.574 . S
C3782 H3777 0.949 . S
C3782 C3788 1.368 . S
C3783 C3767 1.349 . S
C3783 H3775 0.950 1_554 S
C3783 C3781 1.327 . S
C3784 C3772 1.349 1_554 S
C3784 H3778 0.950 . S
C3784 C3785 1.327 . S
C3785 H3779 0.950 . S
C3785 C3784 1.327 . S
C3785 C3789 1.440 . S
C3786 C3769 1.574 . S
C3786 H3780 0.949 . S
C3786 C3790 1.368 1_556 S
C3787 C3768 1.429 . S
C3787 C3781 1.429 . S
C3787 C3788 1.523 . S
C3788 C3769 1.368 1_554 S
C3788 C3782 1.368 . S
C3788 C3787 1.523 . S
C3789 C3773 1.412 1_554 S
C3789 C3785 1.440 . S
C3789 C3790 1.528 . S
C3790 C3774 1.368 . S
C3790 C3786 1.368 1_554 S
C3790 C3789 1.528 . S
H3791 C3766 0.950 . S
H3792 C3768 0.950 . S
H3793 C3769 0.949 . S
H3794 C3771 0.950 . S
H3795 C3773 0.950 . S
C3796 C3797 1.349 . S
C3796 C3798 1.327 . S
C3796 H3821 0.950 . S
C3797 C3796 1.349 . S
C3797 C3813 1.349 . S
C3798 C3796 1.327 . S
C3798 C3817 1.429 . S
C3798 H3822 0.950 . S
C3799 C3816 1.574 . S
C3799 C3818 1.368 . S
C3799 H3823 0.949 . S
H3800 C3804 0.949 . S
C3801 C3802 1.349 . S
C3801 C3803 1.327 . S
C3801 H3824 0.950 . S
C3802 C3801 1.349 . S
C3802 C3814 1.349 . S
C3803 C3801 1.327 . S
C3803 C3819 1.429 . S
C3803 H3825 0.950 . S
C3804 H3800 0.949 . S
C3804 C3812 1.574 . S
C3804 C3820 1.368 . S
H3805 C3813 0.950 . S
H3806 C3811 0.950 . S
H3807 C3812 0.949 . S
H3808 C3814 0.950 . S
H3809 C3815 0.950 . S
H3810 C3816 0.949 . S
C3811 H3806 0.950 . S
C3811 C3813 1.327 . S
C3811 C3817 1.429 . S
C3812 C3804 1.574 . S
C3812 H3807 0.949 . S
C3812 C3818 1.368 . S
C3813 C3797 1.349 . S
C3813 H3805 0.950 . S
C3813 C3811 1.327 . S
C3814 C3802 1.349 . S
C3814 H3808 0.950 . S
C3814 C3815 1.327 . S
C3815 H3809 0.950 . S
C3815 C3814 1.327 . S
C3815 C3819 1.429 . S
C3816 C3799 1.574 . S
C3816 H3810 0.949 . S
C3816 C3820 1.368 . S
C3817 C3798 1.429 . S
C3817 C3811 1.429 . S
C3817 C3818 1.523 . S
C3818 C3799 1.368 . S
C3818 C3812 1.368 . S
C3818 C3817 1.523 . S
C3819 C3803 1.429 . S
C3819 C3815 1.429 . S
C3819 C3820 1.523 . S
C3820 C3804 1.368 . S
C3820 C3816 1.368 . S
C3820 C3819 1.523 . S
H3821 C3796 0.950 . S
H3822 C3798 0.950 . S
H3823 C3799 0.949 . S
H3824 C3801 0.950 . S
H3825 C3803 0.950 . S
C3826 C3827 1.349 . S
C3826 C3828 1.327 . S
C3826 H3851 0.950 . S
C3827 C3826 1.349 . S
C3827 C3843 1.349 . S
C3828 C3826 1.327 . S
C3828 C3847 1.429 . S
C3828 H3852 0.950 . S
C3829 C3846 1.574 . S
C3829 C3848 1.368 . S
C3829 H3853 0.949 . S
H3830 C3834 0.949 . S
C3831 C3832 1.349 . S
C3831 C3833 1.327 . S
C3831 H3854 0.950 . S
C3832 C3831 1.349 . S
C3832 C3844 1.349 . S
C3833 C3831 1.327 . S
C3833 C3849 1.429 . S
C3833 H3855 0.950 . S
C3834 H3830 0.949 . S
C3834 C3842 1.574 . S
C3834 C3850 1.368 . S
H3835 C3843 0.950 . S
H3836 C3841 0.950 . S
H3837 C3842 0.949 . S
H3838 C3844 0.950 . S
H3839 C3845 0.950 . S
H3840 C3846 0.949 . S
C3841 H3836 0.950 . S
C3841 C3843 1.327 . S
C3841 C3847 1.429 . S
C3842 C3834 1.574 . S
C3842 H3837 0.949 . S
C3842 C3848 1.368 . S
C3843 C3827 1.349 . S
C3843 H3835 0.950 . S
C3843 C3841 1.327 . S
C3844 C3832 1.349 . S
C3844 H3838 0.950 . S
C3844 C3845 1.327 . S
C3845 H3839 0.950 . S
C3845 C3844 1.327 . S
C3845 C3849 1.429 . S
C3846 C3829 1.574 . S
C3846 H3840 0.949 . S
C3846 C3850 1.368 . S
C3847 C3828 1.429 . S
C3847 C3841 1.429 . S
C3847 C3848 1.523 . S
C3848 C3829 1.368 . S
C3848 C3842 1.368 . S
C3848 C3847 1.523 . S
C3849 C3833 1.429 . S
C3849 C3845 1.429 . S
C3849 C3850 1.523 . S
C3850 C3834 1.368 . S
C3850 C3846 1.368 . S
C3850 C3849 1.523 . S
H3851 C3826 0.950 . S
H3852 C3828 0.950 . S
H3853 C3829 0.949 . S
H3854 C3831 0.950 . S
H3855 C3833 0.950 . S
C977 C109 1.872 . S
C982 C367 1.831 . S
C1007 C61 1.449 . S
C1012 C378 1.647 . S
C1037 C74 1.485 . S
C1042 C447 1.504 . S
C1072 C460 1.227 . S
C1067 C96 1.241 . S
C1097 C25 2.389 . S
C1102 C516 2.400 . S
C1132 C567 1.910 . S
C1127 C40 1.923 . S
C1162 C596 2.441 . S
C1157 C46 2.439 . S
C1187 C5 2.008 . S
C1192 C647 2.318 . S
C1222 C338 0.925 . S
C1217 C229 0.827 . S
C1247 C249 0.733 . S
C1252 C380 0.735 . S
C1282 C418 0.863 . S
C1277 C271 0.820 . S
C1312 C487 1.636 . S
C1307 C172 1.575 . S
C1337 C236 0.427 . S
C1342 C521 0.445 . S
C1372 C538 1.565 . S
C1367 C242 1.548 . S
C1402 C601 0.233 . S
C1397 C278 0.158 . S
C1432 C618 2.062 . S
C1427 C179 2.068 . S
C1462 C340 1.377 . S
C1457 C159 1.099 1_556 S
C1487 C285 1.291 . S
C1492 C679 1.479 . S
C1522 C700 1.037 . S
C1517 C333 1.079 . S
C1552 C759 0.275 . S
C1547 C320 0.238 . S
C1577 C123 0.730 . S
C1582 C620 0.733 . S
C1607 C138 1.339 . S
C1612 C420 1.313 . S
C1637 C326 0.879 . S
C1642 C778 0.876 . S
C1672 C847 0.997 . S
C1667 C298 0.999 . S
C1702 C356 1.832 . S
C1697 C67 1.795 . S
C1732 C839 1.559 . S
C1727 C110 1.569 . S
C1757 C88 1.508 . S
C1762 C436 1.509 . S
C1787 C75 0.991 . S
C1792 C801 1.146 . S
C1822 C527 2.299 . S
C1817 C11 2.324 . S
C1847 C47 1.781 . S
C1852 C716 1.906 . S
C1882 C607 2.307 1_556 S
C1877 C32 2.247 . S
C1912 C876 2.332 . S
C1907 C26 2.371 1_655 S
C1942 C359 1.052 . S
C1937 C152 1.060 . S
C1972 C841 0.749 . S
C1967 C319 0.749 . S
C1997 C124 0.822 . S
C2002 C439 0.819 . S
C2027 C284 1.627 . S
C2032 C796 1.638 . S
C2057 C145 0.623 . S
C2062 C500 0.410 . S
C2092 C719 1.417 . S
C2087 C312 1.396 . S
C2117 C117 0.773 . S
C2122 C580 0.198 . S
C2147 C291 1.960 . S
C2152 C879 1.944 . S
C2177 C194 1.531 . S
C2182 C361 1.475 . S
C2207 C180 1.462 . S
C2212 C658 1.427 . S
C2237 C263 1.000 . S
C2242 C561 1.002 . S
C2267 C243 0.765 . S
C2272 C738 0.283 . S
C2302 C881 0.795 . S
C2297 C277 0.792 . S
C2327 C215 1.130 . S
C2332 C441 1.292 . S
C2362 C479 0.762 . S
C2357 C256 0.760 . S
C2392 C396 1.062 . S
C2387 C200 1.054 . S
C2417 C81 1.872 . S
C2422 C927 1.835 . S
C2452 C818 1.647 . S
C2447 C89 1.449 . S
C2477 C102 1.485 . S
C2482 C967 1.505 . S
C2507 C68 1.241 . S
C2512 C780 1.227 . S
C2537 C53 2.389 . S
C2542 C676 2.401 . S
C2572 C727 1.910 . S
C2567 C12 1.923 . S
C2602 C756 2.441 . S
C2597 C18 2.439 . S
C2632 C887 2.318 . S
C2627 C33 2.008 . S
C2662 C898 0.925 . S
C2657 C257 0.827 . S
C2687 C193 0.733 . S
C2692 C820 0.735 . S
C2722 C938 0.863 . S
C2717 C201 0.820 . S
C2752 C807 1.636 . S
C2747 C214 1.575 . S
C2782 C681 0.445 . S
C2777 C264 0.427 . S
C2807 C186 1.548 . S
C2812 C698 1.565 . S
C2842 C761 0.233 . S
C2837 C208 0.158 . S
C2867 C221 2.068 . S
C2872 C858 2.062 . S
C2902 C900 1.377 . S
C2897 C313 1.106 . S
C2927 C131 1.291 . S
C2932 C519 1.479 . S
C2962 C540 1.038 . S
C2957 C151 1.044 1_565 S
C2992 C599 0.275 . S
C2987 C166 0.248 . S
C3022 C860 0.733 . S
C3017 C305 0.731 . S
C3047 C292 1.339 . S
C3052 C940 1.313 . S
C3082 C458 0.876 . S
C3077 C144 0.879 . S
C3112 C407 0.997 . S
C3107 C116 0.954 1_565 S
C3137 C95 1.795 . S
C3142 C916 1.832 . S
C3172 C399 1.559 . S
C3167 C82 1.563 . S
C3197 C60 1.508 . S
C3202 C956 1.509 . S
C3227 C103 0.991 . S
C3232 C481 1.138 . S
C3257 C39 2.325 . S
C3262 C687 2.299 1_556 S
C3292 C556 1.907 . S
C3287 C19 1.781 . S
C3317 C4 2.247 . S
C3322 C767 2.307 . S
C3347 C54 2.371 . S
C3352 C636 2.332 . S
C3382 C919 1.052 . S
C3377 C334 1.060 . S
C3407 C165 0.749 . S
C3412 C401 0.743 . S
C3442 C959 0.819 . S
C3437 C306 0.822 . S
C3467 C130 1.627 . S
C3472 C476 1.638 . S
C3497 C327 0.623 . S
C3502 C660 0.410 . S
C3532 C559 1.417 . S
C3527 C158 1.402 . S
C3557 C299 0.773 . S
C3562 C740 0.198 . S
C3592 C639 1.944 . S
C3587 C137 1.960 . S
C3622 C921 1.475 . S
C3617 C250 1.531 . S
C3652 C498 1.428 . S
C3647 C222 1.462 . S
C3677 C235 1.001 . S
C3682 C721 1.002 . S
C3712 C578 0.283 . S
C3707 C187 0.765 . S
C3737 C207 0.792 . S
C3742 C641 0.795 . S
C3767 C173 1.130 . S
C3772 C961 1.292 . S
C3802 C799 0.762 . S
C3797 C228 0.759 . S
C3832 C836 1.062 . S
C3827 C270 1.054 . S
