# Generated by pormake.
# Topology ant, (3,6)-cn, num edge types: 1
# Building blocks:
#     Node 0, Type 0, BuildingBlock: OLANEW_clean_sbu_2, # of connection points: 3
#     Node 1, Type 0, BuildingBlock: OLANEW_clean_sbu_2, # of connection points: 3
#     Node 2, Type 0, BuildingBlock: OLANEW_clean_sbu_2, # of connection points: 3
#     Node 3, Type 0, BuildingBlock: OLANEW_clean_sbu_2, # of connection points: 3
#     Node 4, Type 0, BuildingBlock: OLANEW_clean_sbu_2, # of connection points: 3
#     Node 5, Type 0, BuildingBlock: OLANEW_clean_sbu_2, # of connection points: 3
#     Node 6, Type 0, BuildingBlock: OLANEW_clean_sbu_2, # of connection points: 3
#     Node 7, Type 0, BuildingBlock: OLANEW_clean_sbu_2, # of connection points: 3
#     Node 8, Type 1, BuildingBlock: MIDCAF_clean_sbu_0, # of connection points: 6
#     Node 9, Type 1, BuildingBlock: MIDCAF_clean_sbu_0, # of connection points: 6
#     Node 10, Type 1, BuildingBlock: MIDCAF_clean_sbu_0, # of connection points: 6
#     Node 11, Type 1, BuildingBlock: MIDCAF_clean_sbu_0, # of connection points: 6
#     Edge 12, Type (0, 1), BuildingBlock: XIVTED_clean_linker_0, # of connection points: 2
#     Edge 13, Type (0, 1), BuildingBlock: XIVTED_clean_linker_0, # of connection points: 2
#     Edge 14, Type (0, 1), BuildingBlock: XIVTED_clean_linker_0, # of connection points: 2
#     Edge 15, Type (0, 1), BuildingBlock: XIVTED_clean_linker_0, # of connection points: 2
#     Edge 16, Type (0, 1), BuildingBlock: XIVTED_clean_linker_0, # of connection points: 2
#     Edge 17, Type (0, 1), BuildingBlock: XIVTED_clean_linker_0, # of connection points: 2
#     Edge 18, Type (0, 1), BuildingBlock: XIVTED_clean_linker_0, # of connection points: 2
#     Edge 19, Type (0, 1), BuildingBlock: XIVTED_clean_linker_0, # of connection points: 2
#     Edge 20, Type (0, 1), BuildingBlock: XIVTED_clean_linker_0, # of connection points: 2
#     Edge 21, Type (0, 1), BuildingBlock: XIVTED_clean_linker_0, # of connection points: 2
#     Edge 22, Type (0, 1), BuildingBlock: XIVTED_clean_linker_0, # of connection points: 2
#     Edge 23, Type (0, 1), BuildingBlock: XIVTED_clean_linker_0, # of connection points: 2
#     Edge 24, Type (0, 1), BuildingBlock: XIVTED_clean_linker_0, # of connection points: 2
#     Edge 25, Type (0, 1), BuildingBlock: XIVTED_clean_linker_0, # of connection points: 2
#     Edge 26, Type (0, 1), BuildingBlock: XIVTED_clean_linker_0, # of connection points: 2
#     Edge 27, Type (0, 1), BuildingBlock: XIVTED_clean_linker_0, # of connection points: 2
#     Edge 28, Type (0, 1), BuildingBlock: XIVTED_clean_linker_0, # of connection points: 2
#     Edge 29, Type (0, 1), BuildingBlock: XIVTED_clean_linker_0, # of connection points: 2
#     Edge 30, Type (0, 1), BuildingBlock: XIVTED_clean_linker_0, # of connection points: 2
#     Edge 31, Type (0, 1), BuildingBlock: XIVTED_clean_linker_0, # of connection points: 2
#     Edge 32, Type (0, 1), BuildingBlock: XIVTED_clean_linker_0, # of connection points: 2
#     Edge 33, Type (0, 1), BuildingBlock: XIVTED_clean_linker_0, # of connection points: 2
#     Edge 34, Type (0, 1), BuildingBlock: XIVTED_clean_linker_0, # of connection points: 2
#     Edge 35, Type (0, 1), BuildingBlock: XIVTED_clean_linker_0, # of connection points: 2
# Relax obj value: 0.058
# Max RMSD: 0.137
# Mean RMSD: 0.094
data_MOF--net-ant--node1-OLANEW_clean_sbu_2--node2-MIDCAF_clean_sbu_0--edge1-XIVTED_clean_linker_0
_symmetry_space_group_name_H-M    P1
_symmetry_Int_Tables_number       1
_symmetry_cell_setting            triclinic
loop_
_symmetry_equiv_pos_as_xyz
'x, y, z'
_cell_length_a     31.442018
_cell_length_b     31.40173
_cell_length_c     72.967914
_cell_angle_alpha  93.062616
_cell_angle_beta   94.005268
_cell_angle_gamma 89.971528
loop_
_atom_site_label
_atom_site_type_symbol
_atom_site_fract_x
_atom_site_fract_y
_atom_site_fract_z
_atom_type_partial_charge
O0 O 0.10644 0.24041 0.01817 0.0
Cd1 Cd 0.15275 0.26871 0.04443 0.0
O2 O 0.07097 0.29749 0.00942 0.0
Cd3 Cd 0.09969 0.34461 0.02974 0.0
O4 O 0.11753 0.40814 0.04172 0.0
C5 C 0.09233 0.43918 0.03883 0.0
O6 O 0.05601 0.43193 0.02914 0.0
C7 C 0.07879 0.25781 0.00741 0.0
C8 C 0.18875 0.19962 0.0627 0.0
O9 O 0.15561 0.21866 0.0683 0.0
O10 O 0.20562 0.21387 0.04875 0.0
O11 O 0.06835 0.81052 0.2948 0.0
Cd12 Cd 0.06174 0.81643 0.32797 0.0
O13 O 0.01294 0.84848 0.28532 0.0
Cd14 Cd 0.98427 0.84879 0.31162 0.0
O15 O 0.92972 0.83596 0.3274 0.0
C16 C 0.90529 0.80531 0.32138 0.0
O17 O 0.915 0.78245 0.30665 0.0
C18 C 0.04642 0.82773 0.28191 0.0
C19 C 0.142 0.79654 0.34416 0.0
O20 O 0.11321 0.76782 0.3406 0.0
O21 O 0.13234 0.83509 0.34073 0.0
O22 O 0.74599 0.65473 0.5471 0.0
Cd23 Cd 0.79799 0.67459 0.57267 0.0
O24 O 0.77741 0.69309 0.52752 0.0
Cd25 Cd 0.80109 0.74057 0.54877 0.0
O26 O 0.78967 0.80416 0.56146 0.0
C27 C 0.78149 0.83535 0.55132 0.0
O28 O 0.7822 0.82923 0.53339 0.0
C29 C 0.75098 0.66419 0.53067 0.0
C30 C 0.82461 0.5985 0.58811 0.0
O31 O 0.79488 0.62106 0.59484 0.0
O32 O 0.84293 0.61271 0.57452 0.0
O33 O 0.61237 0.2666 0.79962 0.0
Cd34 Cd 0.60899 0.28309 0.83265 0.0
O35 O 0.56778 0.31521 0.78915 0.0
Cd36 Cd 0.53661 0.32036 0.81491 0.0
O37 O 0.47702 0.29984 0.82544 0.0
C38 C 0.46678 0.26088 0.82209 0.0
O39 O 0.49348 0.23542 0.81382 0.0
C40 C 0.59552 0.28667 0.78627 0.0
C41 C 0.69265 0.2763 0.84814 0.0
O42 O 0.66665 0.24478 0.84768 0.0
O43 O 0.67864 0.31148 0.84197 0.0
O44 O 0.05991 0.709 0.93366 0.0
Cd45 Cd 0.06148 0.69006 0.90079 0.0
O46 O 0.07997 0.64378 0.9386 0.0
Cd47 Cd 0.09255 0.58824 0.95471 0.0
O48 O 0.09307 0.51905 0.95338 0.0
C49 C 0.05949 0.50067 0.94618 0.0
O50 O 0.02611 0.52406 0.94166 0.0
C51 C 0.07021 0.68066 0.94491 0.0
C52 C 0.06427 0.76351 0.88125 0.0
O53 O 0.02865 0.74533 0.88349 0.0
O54 O 0.09854 0.74651 0.888 0.0
O55 O 0.69275 0.84417 0.22644 0.0
Cd56 Cd 0.7074 0.87712 0.1979 0.0
O57 O 0.62752 0.82344 0.21659 0.0
Cd58 Cd 0.61531 0.85984 0.19192 0.0
O59 O 0.56057 0.88544 0.17553 0.0
C60 C 0.5525 0.87545 0.15852 0.0
O61 O 0.57958 0.85121 0.14986 0.0
C62 C 0.65877 0.82367 0.22868 0.0
C63 C 0.79306 0.86859 0.18978 0.0
O64 O 0.77998 0.90201 0.19854 0.0
O65 O 0.76579 0.83906 0.18495 0.0
O66 O 0.45612 0.25729 0.50095 0.0
Cd67 Cd 0.41041 0.30451 0.48263 0.0
O68 O 0.44604 0.20667 0.47925 0.0
Cd69 Cd 0.4503 0.14296 0.46606 0.0
O70 O 0.44197 0.0862 0.44749 0.0
C71 C 0.41445 0.05764 0.44975 0.0
O72 O 0.39089 0.06166 0.46392 0.0
C73 C 0.46316 0.21944 0.49487 0.0
C74 C 0.45435 0.36799 0.46608 0.0
O75 O 0.44052 0.37482 0.48209 0.0
O76 O 0.44806 0.33098 0.45806 0.0
O77 O 0.30185 0.38686 0.73879 0.0
Cd78 Cd 0.33844 0.42966 0.71781 0.0
O79 O 0.25496 0.37498 0.71551 0.0
Cd80 Cd 0.19544 0.35189 0.701 0.0
O81 O 0.13766 0.32814 0.68542 0.0
C82 C 0.10681 0.35299 0.68149 0.0
O83 O 0.10995 0.39348 0.68695 0.0
C84 C 0.26755 0.36896 0.73213 0.0
C85 C 0.4097 0.38903 0.70451 0.0
O86 O 0.41365 0.41689 0.71801 0.0
O87 O 0.37211 0.38011 0.69743 0.0
Zn88 Zn 0.20673 0.77022 0.12988 0.0
Zn89 Zn 0.09927 0.87396 0.09638 0.0
Zn90 Zn 0.15377 0.82321 0.11318 0.0
C91 C 0.10296 0.80034 0.07365 0.0
C92 C 0.17769 0.91604 0.09956 0.0
O93 O 0.13183 0.8159 0.14088 0.0
O94 O 0.18007 0.7734 0.15377 0.0
C95 C 0.17079 0.72359 0.09975 0.0
O96 O 0.13024 0.7902 0.08672 0.0
O97 O 0.08337 0.83537 0.07475 0.0
O98 O 0.13969 0.92041 0.09322 0.0
O99 O 0.18944 0.88196 0.1076 0.0
O100 O 0.19673 0.71901 0.11348 0.0
O101 O 0.15288 0.76006 0.09725 0.0
O102 O 0.21833 0.85381 0.11598 0.0
O103 O 0.25934 0.80302 0.12757 0.0
C104 C 0.25538 0.83972 0.12146 0.0
O105 O 0.09931 0.83748 0.13083 0.0
O106 O 0.05811 0.8824 0.1154 0.0
C107 C 0.147 0.79598 0.15488 0.0
C108 C 0.06554 0.86083 0.12935 0.0
Zn109 Zn 0.51139 0.64456 0.35843 0.0
Zn110 Zn 0.57382 0.76136 0.40612 0.0
Zn111 Zn 0.54077 0.70558 0.38244 0.0
C112 C 0.49637 0.79424 0.39528 0.0
C113 C 0.63099 0.75275 0.37904 0.0
O114 O 0.54056 0.64261 0.39523 0.0
O115 O 0.52685 0.59377 0.37262 0.0
C116 C 0.44356 0.70143 0.3672 0.0
O117 O 0.49268 0.75678 0.38719 0.0
O118 O 0.5309 0.80594 0.40385 0.0
O119 O 0.62828 0.77031 0.39487 0.0
O120 O 0.60012 0.72924 0.37162 0.0
O121 O 0.4512 0.66566 0.35931 0.0
O122 O 0.47394 0.72322 0.37599 0.0
O123 O 0.57486 0.70928 0.3569 0.0
O124 O 0.5444 0.66017 0.33744 0.0
C125 C 0.5705 0.69068 0.34067 0.0
O126 O 0.56195 0.6734 0.40774 0.0
O127 O 0.57519 0.72724 0.42811 0.0
C128 C 0.53551 0.6032 0.38951 0.0
C129 C 0.57227 0.68765 0.42433 0.0
Zn130 Zn 0.69089 0.27564 0.60004 0.0
Zn131 Zn 0.76609 0.16846 0.64357 0.0
Zn132 Zn 0.7275 0.22182 0.62222 0.0
C133 C 0.82769 0.22639 0.6353 0.0
C134 C 0.73455 0.11916 0.61339 0.0
O135 O 0.67323 0.24881 0.63623 0.0
O136 O 0.64715 0.29624 0.61707 0.0
C137 C 0.77108 0.30719 0.60688 0.0
O138 O 0.79439 0.24372 0.62752 0.0
O139 O 0.82472 0.1911 0.64262 0.0
O140 O 0.75131 0.11536 0.62942 0.0
O141 O 0.72483 0.1565 0.60778 0.0
O142 O 0.7382 0.31389 0.59659 0.0
O143 O 0.77262 0.27512 0.61729 0.0
O144 O 0.70038 0.18487 0.59701 0.0
O145 O 0.67344 0.23516 0.57955 0.0
C146 C 0.68075 0.19632 0.58195 0.0
O147 O 0.69703 0.22454 0.64886 0.0
O148 O 0.73559 0.18074 0.66596 0.0
C149 C 0.64586 0.27783 0.632 0.0
C150 C 0.70541 0.20703 0.66428 0.0
Zn151 Zn 0.03222 0.13501 0.82079 0.0
Zn152 Zn 0.12787 0.13786 0.87167 0.0
Zn153 Zn 0.08041 0.15279 0.84832 0.0
C154 C 0.05188 0.12845 0.88564 0.0
C155 C 0.09639 0.21946 0.88001 0.0
O156 O 0.10857 0.18896 0.82805 0.0
O157 O 0.06963 0.16425 0.80348 0.0
C158 C 0.06209 0.05854 0.83719 0.0
O159 O 0.04609 0.15683 0.87354 0.0
O160 O 0.08373 0.1037 0.88449 0.0
O161 O 0.13204 0.20068 0.88146 0.0
O162 O 0.0655 0.20063 0.87013 0.0
O163 O 0.03607 0.07074 0.82448 0.0
O164 O 0.08328 0.08601 0.84748 0.0
O165 O 0.02486 0.18539 0.85827 0.0
O166 O 0.98576 0.17092 0.83221 0.0
C167 C 0.98987 0.18886 0.84822 0.0
O168 O 0.14346 0.1757 0.84322 0.0
O169 O 0.17461 0.11971 0.85511 0.0
C170 C 0.09961 0.18797 0.81063 0.0
C171 C 0.17688 0.15264 0.84586 0.0
H172 H 0.04288 0.51118 0.0379 0.0
H173 H 0.2244 0.6599 0.09029 0.0
H174 H 0.16807 0.46718 0.05615 0.0
H175 H 0.0937 0.70015 0.0819 0.0
H176 H 0.20607 0.59222 0.07369 0.0
H177 H 0.06248 0.58309 0.05027 0.0
C178 C 0.07451 0.51661 0.04447 0.0
C179 C 0.10381 0.48297 0.04608 0.0
C180 C 0.18139 0.61593 0.07528 0.0
C181 C 0.12645 0.56526 0.06013 0.0
C182 C 0.19188 0.65464 0.08469 0.0
C183 C 0.16055 0.68572 0.08736 0.0
C184 C 0.13909 0.60789 0.06856 0.0
C185 C 0.11891 0.67725 0.07988 0.0
C186 C 0.08563 0.55769 0.05151 0.0
C187 C 0.14434 0.49198 0.05468 0.0
N188 N 0.10927 0.63895 0.07089 0.0
N189 N 0.15441 0.53219 0.06138 0.0
H190 H 0.87202 0.85054 0.35011 0.0
H191 H 0.66693 0.70036 0.35292 0.0
H192 H 0.8474 0.74092 0.31259 0.0
H193 H 0.68491 0.82051 0.38402 0.0
H194 H 0.73367 0.7127 0.33844 0.0
H195 H 0.80479 0.83751 0.36366 0.0
C196 C 0.85255 0.82363 0.34476 0.0
C197 C 0.86538 0.79682 0.33018 0.0
C198 C 0.72283 0.73643 0.34836 0.0
C199 C 0.78814 0.78174 0.34561 0.0
C200 C 0.68462 0.72954 0.35651 0.0
C201 C 0.67007 0.75975 0.36947 0.0
C202 C 0.74687 0.77347 0.35347 0.0
C203 C 0.69487 0.79642 0.37405 0.0
C204 C 0.81405 0.81627 0.35246 0.0
C205 C 0.83875 0.76245 0.3238 0.0
N206 N 0.73199 0.8022 0.36609 0.0
N207 N 0.80138 0.75587 0.33156 0.0
H208 H 0.87111 0.53515 0.57171 0.0
H209 H 0.78559 0.3623 0.63624 0.0
H210 H 0.80002 0.56367 0.61933 0.0
H211 H 0.82316 0.33317 0.58138 0.0
H212 H 0.81471 0.43428 0.63515 0.0
H213 H 0.87583 0.46059 0.57991 0.0
C214 C 0.85726 0.52596 0.5841 0.0
C215 C 0.83445 0.55554 0.59468 0.0
C216 C 0.81798 0.41173 0.62358 0.0
C217 C 0.8399 0.47037 0.60413 0.0
C218 C 0.80204 0.37044 0.62433 0.0
C219 C 0.80286 0.34165 0.60902 0.0
C220 C 0.83405 0.42449 0.60724 0.0
C221 C 0.8227 0.35432 0.59358 0.0
C222 C 0.85993 0.48338 0.58874 0.0
C223 C 0.81733 0.54183 0.61062 0.0
N224 N 0.83698 0.39507 0.59296 0.0
N225 N 0.81999 0.50017 0.61474 0.0
H226 H 0.75839 0.33172 0.84457 0.0
H227 H 0.93841 0.16348 0.87406 0.0
H228 H 0.73126 0.20877 0.8649 0.0
H229 H 0.95589 0.26288 0.83685 0.0
H230 H 0.86673 0.19125 0.87911 0.0
H231 H 0.83466 0.31775 0.84992 0.0
C232 C 0.7684 0.3021 0.85046 0.0
C233 C 0.73836 0.27109 0.85404 0.0
C234 C 0.8867 0.20762 0.87021 0.0
C235 C 0.82565 0.25501 0.86022 0.0
C236 C 0.92763 0.19209 0.86751 0.0
C237 C 0.95284 0.21131 0.85517 0.0
C238 C 0.87122 0.24257 0.8605 0.0
C239 C 0.93729 0.24753 0.84657 0.0
C240 C 0.81197 0.29413 0.85346 0.0
C241 C 0.7533 0.23335 0.86173 0.0
N242 N 0.89733 0.26188 0.8493 0.0
N243 N 0.79591 0.2262 0.86442 0.0
H244 H 0.99605 0.45326 0.92726 0.0
H245 H 0.1524 0.25968 0.90546 0.0
H246 H 0.12533 0.44435 0.95089 0.0
H247 H 0.02341 0.26715 0.88134 0.0
H248 H 0.14029 0.32398 0.92448 0.0
H249 H 0.00233 0.38147 0.91311 0.0
C250 C 0.02557 0.43601 0.92969 0.0
C251 C 0.06046 0.45509 0.94006 0.0
C252 C 0.11453 0.31154 0.9151 0.0
C253 C 0.06794 0.37312 0.92376 0.0
C254 C 0.12147 0.27486 0.90416 0.0
C255 C 0.08899 0.25826 0.89165 0.0
C256 C 0.07488 0.33204 0.91347 0.0
C257 C 0.04945 0.27907 0.8907 0.0
C258 C 0.02916 0.39506 0.92155 0.0
C259 C 0.09778 0.43111 0.94284 0.0
N260 N 0.04358 0.31509 0.9014 0.0
N261 N 0.10067 0.39156 0.93457 0.0
H262 H 0.83405 0.798 0.17592 0.0
H263 H 0.02556 0.93015 0.14353 0.0
H264 H 0.85411 0.93113 0.19196 0.0
H265 H 0.03159 0.79345 0.14585 0.0
H266 H 0.96352 0.93095 0.16193 0.0
H267 H 0.9062 0.79469 0.1652 0.0
C268 C 0.85372 0.82645 0.17732 0.0
C269 C 0.83782 0.86503 0.18469 0.0
C270 C 0.97873 0.90078 0.15872 0.0
C271 C 0.92026 0.86148 0.17234 0.0
C272 C 0.01413 0.90035 0.14823 0.0
C273 C 0.03352 0.86169 0.1432 0.0
C274 C 0.96177 0.86212 0.16378 0.0
C275 C 0.0175 0.82391 0.14954 0.0
C276 C 0.89498 0.82446 0.17129 0.0
C277 C 0.86489 0.90078 0.18629 0.0
N278 N 0.98199 0.82495 0.15926 0.0
N279 N 0.9045 0.89828 0.17994 0.0
H280 H 0.46628 0.45173 0.47806 0.0
H281 H 0.55259 0.51872 0.38304 0.0
H282 H 0.48951 0.36274 0.43273 0.0
H283 H 0.51545 0.6092 0.42549 0.0
H284 H 0.54071 0.4608 0.40319 0.0
H285 H 0.4949 0.50916 0.46111 0.0
C286 C 0.47775 0.44416 0.46462 0.0
C287 C 0.47508 0.40238 0.45673 0.0
C288 C 0.53584 0.49337 0.40824 0.0
C289 C 0.50784 0.46803 0.43725 0.0
C290 C 0.54274 0.52646 0.39676 0.0
C291 C 0.53538 0.56891 0.40266 0.0
C292 C 0.52102 0.50269 0.42573 0.0
C293 C 0.5225 0.57708 0.42054 0.0
C294 C 0.49405 0.477 0.45494 0.0
C295 C 0.4906 0.39449 0.4393 0.0
N296 N 0.51535 0.54426 0.43138 0.0
N297 N 0.50603 0.42703 0.43011 0.0
H298 H 0.09185 0.27238 0.66626 0.0
H299 H 0.84331 0.31052 0.64396 0.0
H300 H 0.03164 0.39503 0.67392 0.0
H301 H 0.90618 0.19119 0.63281 0.0
H302 H 0.91278 0.34447 0.6518 0.0
H303 H 0.0252 0.24391 0.65141 0.0
C304 C 0.06466 0.29341 0.66475 0.0
C305 C 0.06726 0.33608 0.67152 0.0
C306 C 0.91153 0.31106 0.64726 0.0
C307 C 0.99062 0.30359 0.65452 0.0
C308 C 0.87189 0.29201 0.64243 0.0
C309 C 0.86919 0.24849 0.63726 0.0
C310 C 0.94862 0.28605 0.64719 0.0
C311 C 0.90702 0.225 0.63663 0.0
C312 C 0.02658 0.27714 0.65622 0.0
C313 C 0.03104 0.36188 0.66902 0.0
N314 N 0.94515 0.24399 0.64166 0.0
N315 N 0.99411 0.34513 0.66086 0.0
H316 H 0.49112 0.41997 0.70681 0.0
H317 H 0.59353 0.22739 0.65005 0.0
H318 H 0.41412 0.31336 0.68434 0.0
H319 H 0.62555 0.35863 0.64285 0.0
H320 H 0.53764 0.25173 0.67026 0.0
H321 H 0.55182 0.39018 0.69112 0.0
C322 C 0.48717 0.39001 0.6988 0.0
C323 C 0.4475 0.36927 0.69669 0.0
C324 C 0.55719 0.27501 0.6643 0.0
C325 C 0.51667 0.33499 0.67904 0.0
C326 C 0.58889 0.26123 0.65286 0.0
C327 C 0.61368 0.2912 0.64478 0.0
C328 C 0.55123 0.31888 0.66793 0.0
C329 C 0.60673 0.33468 0.64876 0.0
C330 C 0.52169 0.37321 0.68983 0.0
C331 C 0.44409 0.33055 0.68613 0.0
N332 N 0.57627 0.34728 0.66016 0.0
N333 N 0.47831 0.31456 0.67768 0.0
H334 H 0.52222 0.85404 0.12307 0.0
H335 H 0.28204 0.90742 0.14428 0.0
H336 H 0.48595 0.91917 0.17318 0.0
H337 H 0.31879 0.8258 0.09883 0.0
H338 H 0.35685 0.92955 0.15056 0.0
H339 H 0.449 0.86033 0.10999 0.0
C340 C 0.49905 0.87024 0.13125 0.0
C341 C 0.51018 0.88535 0.14941 0.0
C342 C 0.34838 0.90782 0.13886 0.0
C343 C 0.42598 0.89249 0.13448 0.0
C344 C 0.30565 0.8957 0.13513 0.0
C345 C 0.2945 0.86507 0.12095 0.0
C346 C 0.37992 0.88882 0.12836 0.0
C347 C 0.32626 0.84983 0.10979 0.0
C348 C 0.45717 0.87381 0.12375 0.0
C349 C 0.47875 0.90648 0.15922 0.0
N350 N 0.36761 0.86138 0.11387 0.0
N351 N 0.43799 0.90887 0.15174 0.0
H352 H 0.39844 0.30723 0.8333 0.0
H353 H 0.24705 0.10427 0.83888 0.0
H354 H 0.43782 0.17846 0.81946 0.0
H355 H 0.20224 0.23406 0.84149 0.0
H356 H 0.31799 0.13028 0.83285 0.0
H357 H 0.32718 0.28053 0.83794 0.0
C358 C 0.3922 0.27332 0.83135 0.0
C359 C 0.42418 0.24505 0.82599 0.0
C360 C 0.29246 0.15303 0.8345 0.0
C361 C 0.34259 0.21427 0.83121 0.0
C362 C 0.25202 0.13819 0.83791 0.0
C363 C 0.21857 0.16704 0.84033 0.0
C364 C 0.29961 0.19709 0.83384 0.0
C365 C 0.22677 0.21067 0.83914 0.0
C366 C 0.35142 0.25812 0.83389 0.0
C367 C 0.41415 0.20143 0.82357 0.0
N368 N 0.2665 0.22439 0.83609 0.0
N369 N 0.37427 0.18737 0.82623 0.0
H370 H 0.212 0.84886 0.3509 0.0
H371 H 0.37164 0.65344 0.36582 0.0
H372 H 0.17214 0.71763 0.35238 0.0
H373 H 0.41424 0.78393 0.3663 0.0
H374 H 0.29797 0.67765 0.36288 0.0
H375 H 0.28557 0.82726 0.35885 0.0
C376 C 0.21861 0.81558 0.35308 0.0
C377 C 0.18584 0.78495 0.35084 0.0
C378 C 0.3233 0.70118 0.36382 0.0
C379 C 0.26999 0.76004 0.3598 0.0
C380 C 0.36541 0.68733 0.36545 0.0
C381 C 0.39908 0.71682 0.36649 0.0
C382 C 0.31457 0.74492 0.36298 0.0
C383 C 0.3892 0.76032 0.36601 0.0
C384 C 0.26065 0.80329 0.35758 0.0
C385 C 0.19632 0.74234 0.35385 0.0
N386 N 0.34778 0.7731 0.36415 0.0
N387 N 0.23745 0.73116 0.35805 0.0
H388 H 0.76304 0.85528 0.5868 0.0
H389 H 0.74235 0.10637 0.57596 0.0
H390 H 0.77184 0.91138 0.53446 0.0
H391 H 0.71382 0.0417 0.62432 0.0
H392 H 0.74851 0.0364 0.55932 0.0
H393 H 0.74262 0.92438 0.60009 0.0
C394 C 0.76076 0.88218 0.57809 0.0
C395 C 0.76944 0.8775 0.55951 0.0
C396 C 0.74018 0.03769 0.57348 0.0
C397 C 0.74586 0.95722 0.57468 0.0
C398 C 0.73628 0.07757 0.5829 0.0
C399 C 0.72814 0.07967 0.60158 0.0
C400 C 0.7359 0.00011 0.58293 0.0
C401 C 0.72081 0.04146 0.60999 0.0
C402 C 0.74881 0.92171 0.58566 0.0
C403 C 0.76556 0.91357 0.54888 0.0
N404 N 0.72536 0.00342 0.60071 0.0
N405 N 0.75436 0.95202 0.55664 0.0
H406 H 0.24162 0.13892 0.04841 0.0
H407 H 0.19614 0.97831 0.1259 0.0
H408 H 0.17214 0.17064 0.0962 0.0
H409 H 0.21879 0.93848 0.07008 0.0
H410 H 0.21453 0.05168 0.11949 0.0
H411 H 0.25825 0.06901 0.06049 0.0
C412 C 0.23061 0.13156 0.06162 0.0
C413 C 0.20483 0.16037 0.07118 0.0
C414 C 0.21702 0.02662 0.10884 0.0
C415 C 0.22414 0.08074 0.08511 0.0
C416 C 0.20721 0.98471 0.11258 0.0
C417 C 0.20632 0.95253 0.09851 0.0
C418 C 0.22582 0.03617 0.09089 0.0
C419 C 0.21961 0.96251 0.08131 0.0
C420 C 0.24009 0.09166 0.06848 0.0
C421 C 0.19154 0.14915 0.08825 0.0
N422 N 0.22817 0.00365 0.07786 0.0
N423 N 0.20103 0.11008 0.09459 0.0
H424 H 0.44523 0.0462 0.41576 0.0
H425 H 0.42916 0.79658 0.41674 0.0
H426 H 0.37567 0.98139 0.45499 0.0
H427 H 0.48806 0.86359 0.37519 0.0
H428 H 0.39328 0.8626 0.42629 0.0
H429 H 0.44699 0.98006 0.3968 0.0
C430 C 0.42999 0.01808 0.42032 0.0
C431 C 0.4111 0.01907 0.43718 0.0
C432 C 0.4128 0.86262 0.41464 0.0
C433 C 0.41326 0.94289 0.41557 0.0
C434 C 0.43275 0.82478 0.40904 0.0
C435 C 0.46142 0.825 0.3952 0.0
C436 C 0.42246 0.90075 0.40649 0.0
C437 C 0.46597 0.86236 0.3859 0.0
C438 C 0.43078 0.9803 0.40942 0.0
C439 C 0.39111 0.98188 0.4422 0.0
N440 N 0.44746 0.89902 0.39196 0.0
N441 N 0.39343 0.94506 0.43162 0.0
H442 H 0.99936 0.80225 0.86146 0.0
H443 H 0.12491 0.02044 0.85817 0.0
H444 H 0.13225 0.81719 0.87989 0.0
H445 H 0.00823 0.99287 0.82489 0.0
H446 H 0.12775 0.94625 0.86658 0.0
H447 H 0.00118 0.87212 0.84821 0.0
C448 C 0.02899 0.82008 0.86261 0.0
C449 C 0.06565 0.80402 0.87189 0.0
C450 C 0.10176 0.95629 0.85729 0.0
C451 C 0.06782 0.88401 0.85692 0.0
C452 C 0.10005 0.99867 0.85251 0.0
C453 C 0.06615 0.01288 0.84089 0.0
C454 C 0.06898 0.92803 0.85063 0.0
C455 C 0.03493 0.98324 0.8339 0.0
C456 C 0.03003 0.85989 0.85499 0.0
C457 C 0.10321 0.82839 0.87289 0.0
N458 N 0.03682 0.94228 0.83906 0.0
N459 N 0.10321 0.86737 0.86567 0.0
H460 H 0.02275 0.28522 0.97999 0.0
H461 H 0.06268 0.07999 0.91579 0.0
H462 H 0.08852 0.17266 0.9982 0.0
H463 H 0.0005 0.19389 0.89703 0.0
H464 H 0.05474 0.10573 0.9475 0.0
H465 H 0.99883 0.24581 0.9514 0.0
C466 C 0.03164 0.25203 0.97813 0.0
C467 C 0.05846 0.23252 0.99141 0.0
C468 C 0.04194 0.12467 0.93644 0.0
C469 C 0.03117 0.18717 0.9586 0.0
C470 C 0.04616 0.1098 0.91829 0.0
C471 C 0.03338 0.13537 0.90369 0.0
C472 C 0.02508 0.16549 0.94 0.0
C473 C 0.01161 0.1734 0.90781 0.0
C474 C 0.01788 0.22949 0.96178 0.0
C475 C 0.06849 0.18927 0.98826 0.0
N476 N 0.00914 0.18783 0.92558 0.0
N477 N 0.05538 0.16827 0.97208 0.0
H478 H 0.1045 0.77179 0.26852 0.0
H479 H 0.1023 0.86358 0.16914 0.0
H480 H 0.01822 0.87191 0.25193 0.0
H481 H 0.14913 0.73845 0.18143 0.0
H482 H 0.0739 0.87051 0.19959 0.0
H483 H 0.12569 0.76306 0.23705 0.0
C484 C 0.09006 0.79203 0.25826 0.0
C485 C 0.05959 0.82268 0.26287 0.0
C486 C 0.0899 0.84134 0.1955 0.0
C487 C 0.08379 0.81285 0.22678 0.0
C488 C 0.10559 0.83716 0.17805 0.0
C489 C 0.12715 0.8 0.17261 0.0
C490 C 0.09691 0.80855 0.2077 0.0
C491 C 0.13254 0.7676 0.18506 0.0
C492 C 0.102 0.78685 0.24027 0.0
C493 C 0.0418 0.84785 0.24896 0.0
N494 N 0.11775 0.77273 0.20205 0.0
N495 N 0.05437 0.84257 0.23153 0.0
H496 H 0.66897 0.63617 0.53168 0.0
H497 H 0.63324 0.62664 0.42238 0.0
H498 H 0.76867 0.65066 0.49475 0.0
H499 H 0.54684 0.68656 0.45906 0.0
H500 H 0.67536 0.60041 0.44911 0.0
H501 H 0.6183 0.62046 0.50504 0.0
C502 C 0.68045 0.63475 0.51801 0.0
C503 C 0.72278 0.64555 0.51532 0.0
C504 C 0.64621 0.61786 0.4512 0.0
C505 C 0.66547 0.6269 0.48504 0.0
C506 C 0.62208 0.6325 0.43601 0.0
C507 C 0.58707 0.65913 0.43871 0.0
C508 C 0.63454 0.62951 0.469 0.0
C509 C 0.57398 0.66637 0.45656 0.0
C510 C 0.65157 0.62581 0.50287 0.0
C511 C 0.73607 0.64327 0.49735 0.0
N512 N 0.59811 0.65214 0.47111 0.0
N513 N 0.70737 0.63463 0.48284 0.0
H514 H 0.5797 0.3317 0.75517 0.0
H515 H 0.68512 0.15403 0.69037 0.0
H516 H 0.63844 0.21635 0.77428 0.0
H517 H 0.67308 0.2847 0.67544 0.0
H518 H 0.65359 0.17308 0.71929 0.0
H519 H 0.60069 0.31188 0.72403 0.0
C520 C 0.59691 0.30224 0.75283 0.0
C521 C 0.60761 0.27575 0.76737 0.0
C522 C 0.65732 0.19755 0.7096 0.0
C523 C 0.63101 0.25284 0.73192 0.0
C524 C 0.67516 0.18667 0.69309 0.0
C525 C 0.6812 0.21779 0.68046 0.0
C526 C 0.64559 0.23996 0.7136 0.0
C527 C 0.6679 0.25962 0.68465 0.0
C528 C 0.60886 0.29104 0.73509 0.0
C529 C 0.62982 0.23793 0.76356 0.0
N530 N 0.65079 0.26963 0.70096 0.0
N531 N 0.64066 0.2276 0.74622 0.0
H532 H 0.01736 0.73443 0.96276 0.0
H533 H 0.1585 0.74524 0.05714 0.0
H534 H 0.12509 0.65147 0.97223 0.0
H535 H 0.03055 0.7947 0.05117 0.0
H536 H 0.14715 0.70834 0.02667 0.0
H537 H 0.02195 0.75616 0.99547 0.0
C538 C 0.04169 0.72045 0.97181 0.0
C539 C 0.07064 0.69089 0.96487 0.0
C540 C 0.12136 0.72671 0.03219 0.0
C541 C 0.07663 0.71602 0.00226 0.0
C542 C 0.12773 0.7475 0.04961 0.0
C543 C 0.09534 0.77287 0.05669 0.0
C544 C 0.08267 0.73219 0.02172 0.0
C545 C 0.05645 0.77562 0.04617 0.0
C546 C 0.04425 0.73271 0.99048 0.0
C547 C 0.10165 0.67376 0.97713 0.0
N548 N 0.05137 0.75594 0.02917 0.0
N549 N 0.1042 0.68698 0.99524 0.0
H550 H 0.69568 0.84273 0.26339 0.0
H551 H 0.58338 0.64881 0.3078 0.0
H552 H 0.61137 0.75266 0.23246 0.0
H553 H 0.60742 0.76937 0.33797 0.0
H554 H 0.61208 0.67828 0.28088 0.0
H555 H 0.68144 0.80756 0.29173 0.0
C556 C 0.67473 0.81523 0.26254 0.0
C557 C 0.65438 0.80072 0.24561 0.0
C558 C 0.61167 0.69801 0.2935 0.0
C559 C 0.63859 0.76033 0.27771 0.0
C560 C 0.59536 0.68125 0.30888 0.0
C561 C 0.5932 0.70656 0.32524 0.0
C562 C 0.62621 0.74033 0.29446 0.0
C563 C 0.60916 0.74844 0.32578 0.0
C564 C 0.6665 0.7954 0.27867 0.0
C565 C 0.62737 0.7651 0.24525 0.0
N566 N 0.62496 0.7641 0.31059 0.0
N567 N 0.62031 0.7461 0.26104 0.0
H568 H 0.53056 0.17236 0.48346 0.0
H569 H 0.61467 0.14484 0.5876 0.0
H570 H 0.46194 0.20583 0.53123 0.0
H571 H 0.69438 0.1831 0.54573 0.0
H572 H 0.55699 0.12916 0.56384 0.0
H573 H 0.58738 0.14138 0.50358 0.0
C574 C 0.52681 0.1718 0.49809 0.0
C575 C 0.49197 0.19199 0.50581 0.0
C576 C 0.58781 0.13902 0.55976 0.0
C577 C 0.55584 0.15615 0.52865 0.0
C578 C 0.62095 0.14732 0.57328 0.0
C579 C 0.65903 0.16564 0.56856 0.0
C580 C 0.59331 0.1487 0.5415 0.0
C581 C 0.6653 0.16911 0.54986 0.0
C582 C 0.55915 0.15424 0.50952 0.0
C583 C 0.48862 0.19089 0.52482 0.0
N584 N 0.63236 0.16172 0.53699 0.0
N585 N 0.52032 0.17359 0.53562 0.0
H586 H 0.26291 0.37746 0.76929 0.0
H587 H 0.10651 0.17729 0.77348 0.0
H588 H 0.21764 0.29897 0.72162 0.0
H589 H 0.148 0.25865 0.82083 0.0
H590 H 0.1475 0.22108 0.75426 0.0
H591 H 0.22238 0.33328 0.78854 0.0
C592 C 0.24418 0.35108 0.76286 0.0
C593 C 0.24274 0.34255 0.74376 0.0
C594 C 0.14785 0.22924 0.76888 0.0
C595 C 0.19649 0.29166 0.76569 0.0
C596 C 0.12441 0.20429 0.77985 0.0
C597 C 0.12445 0.21397 0.79885 0.0
C598 C 0.17136 0.26429 0.77694 0.0
C599 C 0.14806 0.24939 0.80635 0.0
C600 C 0.221 0.32591 0.77384 0.0
C601 C 0.21831 0.30777 0.73616 0.0
N602 N 0.17059 0.27325 0.79539 0.0
N603 N 0.19613 0.2836 0.74714 0.0
loop_
_geom_bond_atom_site_label_1
_geom_bond_atom_site_label_2
_geom_bond_distance
_geom_bond_site_symmetry_2
_ccdc_geom_bond_type
O0 Cd1 2.300 . S
O0 C7 1.275 . S
Cd1 O0 2.300 . S
Cd1 O9 2.381 . S
Cd1 O10 2.378 . S
O2 Cd3 2.385 . S
O2 C7 1.255 . S
Cd3 O2 2.385 . S
Cd3 O4 2.317 . S
O4 Cd3 2.317 . S
O4 C5 1.232 . S
C5 O4 1.232 . S
C5 O6 1.218 . S
O6 C5 1.218 . S
C7 O0 1.275 . S
C7 O2 1.255 . S
C8 O9 1.258 . S
C8 O10 1.256 . S
O9 Cd1 2.381 . S
O9 C8 1.258 . S
O10 Cd1 2.378 . S
O10 C8 1.256 . S
O11 Cd12 2.300 . S
O11 C18 1.275 . S
Cd12 O11 2.300 . S
Cd12 O20 2.381 . S
Cd12 O21 2.378 . S
O13 Cd14 2.385 . S
O13 C18 1.255 . S
Cd14 O13 2.385 . S
Cd14 O15 2.317 . S
O15 Cd14 2.317 . S
O15 C16 1.231 1_455 S
C16 O15 1.231 1_655 S
C16 O17 1.219 . S
O17 C16 1.219 . S
C18 O11 1.275 . S
C18 O13 1.255 . S
C19 O20 1.258 . S
C19 O21 1.256 . S
O20 Cd12 2.381 . S
O20 C19 1.258 . S
O21 Cd12 2.378 . S
O21 C19 1.256 . S
O22 Cd23 2.300 . S
O22 C29 1.275 . S
Cd23 O22 2.300 . S
Cd23 O31 2.381 . S
Cd23 O32 2.378 . S
O24 Cd25 2.385 . S
O24 C29 1.255 . S
Cd25 O24 2.385 . S
Cd25 O26 2.317 . S
O26 Cd25 2.317 . S
O26 C27 1.232 . S
C27 O26 1.232 . S
C27 O28 1.218 . S
O28 C27 1.218 . S
C29 O22 1.275 . S
C29 O24 1.255 . S
C30 O31 1.258 . S
C30 O32 1.256 . S
O31 Cd23 2.381 . S
O31 C30 1.258 . S
O32 Cd23 2.378 . S
O32 C30 1.256 . S
O33 Cd34 2.300 . S
O33 C40 1.275 . S
Cd34 O33 2.300 . S
Cd34 O42 2.381 . S
Cd34 O43 2.378 . S
O35 Cd36 2.385 . S
O35 C40 1.255 . S
Cd36 O35 2.385 . S
Cd36 O37 2.317 . S
O37 Cd36 2.317 . S
O37 C38 1.232 . S
C38 O37 1.232 . S
C38 O39 1.218 . S
O39 C38 1.218 . S
C40 O33 1.275 . S
C40 O35 1.255 . S
C41 O42 1.258 . S
C41 O43 1.256 . S
O42 Cd34 2.381 . S
O42 C41 1.258 . S
O43 Cd34 2.378 . S
O43 C41 1.256 . S
O44 Cd45 2.300 . S
O44 C51 1.275 . S
Cd45 O44 2.300 . S
Cd45 O53 2.381 . S
Cd45 O54 2.378 . S
O46 Cd47 2.385 . S
O46 C51 1.255 . S
Cd47 O46 2.385 . S
Cd47 O48 2.317 . S
O48 Cd47 2.317 . S
O48 C49 1.232 . S
C49 O48 1.232 . S
C49 O50 1.218 . S
O50 C49 1.218 . S
C51 O44 1.275 . S
C51 O46 1.255 . S
C52 O53 1.258 . S
C52 O54 1.256 . S
O53 Cd45 2.381 . S
O53 C52 1.258 . S
O54 Cd45 2.378 . S
O54 C52 1.256 . S
O55 Cd56 2.300 . S
O55 C62 1.275 . S
Cd56 O55 2.300 . S
Cd56 O64 2.381 . S
Cd56 O65 2.378 . S
O57 Cd58 2.385 . S
O57 C62 1.255 . S
Cd58 O57 2.385 . S
Cd58 O59 2.317 . S
O59 Cd58 2.317 . S
O59 C60 1.232 . S
C60 O59 1.232 . S
C60 O61 1.218 . S
O61 C60 1.218 . S
C62 O55 1.275 . S
C62 O57 1.255 . S
C63 O64 1.258 . S
C63 O65 1.256 . S
O64 Cd56 2.381 . S
O64 C63 1.258 . S
O65 Cd56 2.378 . S
O65 C63 1.256 . S
O66 Cd67 2.300 . S
O66 C73 1.275 . S
Cd67 O66 2.300 . S
Cd67 O75 2.381 . S
Cd67 O76 2.378 . S
O68 Cd69 2.385 . S
O68 C73 1.255 . S
Cd69 O68 2.385 . S
Cd69 O70 2.317 . S
O70 Cd69 2.317 . S
O70 C71 1.232 . S
C71 O70 1.232 . S
C71 O72 1.218 . S
O72 C71 1.218 . S
C73 O66 1.275 . S
C73 O68 1.255 . S
C74 O75 1.258 . S
C74 O76 1.256 . S
O75 Cd67 2.381 . S
O75 C74 1.258 . S
O76 Cd67 2.378 . S
O76 C74 1.256 . S
O77 Cd78 2.300 . S
O77 C84 1.275 . S
Cd78 O77 2.300 . S
Cd78 O86 2.381 . S
Cd78 O87 2.378 . S
O79 Cd80 2.385 . S
O79 C84 1.255 . S
Cd80 O79 2.385 . S
Cd80 O81 2.317 . S
O81 Cd80 2.317 . S
O81 C82 1.232 . S
C82 O81 1.232 . S
C82 O83 1.218 . S
O83 C82 1.218 . S
C84 O77 1.275 . S
C84 O79 1.255 . S
C85 O86 1.258 . S
C85 O87 1.256 . S
O86 Cd78 2.381 . S
O86 C85 1.258 . S
O87 Cd78 2.378 . S
O87 C85 1.256 . S
Zn88 O94 1.920 . S
Zn88 O100 1.898 . S
Zn88 O103 1.905 . S
Zn89 O97 1.905 . S
Zn89 O98 1.898 . S
Zn89 O106 1.920 . S
Zn90 O93 2.080 . S
Zn90 O96 2.114 . S
Zn90 O99 2.120 . S
Zn90 O101 2.120 . S
Zn90 O102 2.114 . S
Zn90 O105 2.080 . S
C91 O96 1.166 . S
C91 O97 1.182 . S
C92 O98 1.167 . S
C92 O99 1.299 . S
O93 Zn90 2.080 . S
O93 C107 1.305 . S
O94 Zn88 1.920 . S
O94 C107 1.234 . S
C95 O100 1.167 . S
C95 O101 1.299 . S
O96 Zn90 2.114 . S
O96 C91 1.166 . S
O97 Zn89 1.905 . S
O97 C91 1.182 . S
O98 Zn89 1.898 . S
O98 C92 1.167 . S
O99 Zn90 2.120 . S
O99 C92 1.299 . S
O100 Zn88 1.898 . S
O100 C95 1.167 . S
O101 Zn90 2.120 . S
O101 C95 1.299 . S
O102 Zn90 2.114 . S
O102 C104 1.166 . S
O103 Zn88 1.905 . S
O103 C104 1.182 . S
C104 O102 1.166 . S
C104 O103 1.182 . S
O105 Zn90 2.080 . S
O105 C108 1.305 . S
O106 Zn89 1.920 . S
O106 C108 1.234 . S
C107 O93 1.305 . S
C107 O94 1.234 . S
C108 O105 1.305 . S
C108 O106 1.234 . S
Zn109 O115 1.920 . S
Zn109 O121 1.898 . S
Zn109 O124 1.905 . S
Zn110 O118 1.905 . S
Zn110 O119 1.898 . S
Zn110 O127 1.920 . S
Zn111 O114 2.080 . S
Zn111 O117 2.114 . S
Zn111 O120 2.120 . S
Zn111 O122 2.120 . S
Zn111 O123 2.114 . S
Zn111 O126 2.080 . S
C112 O117 1.166 . S
C112 O118 1.182 . S
C113 O119 1.167 . S
C113 O120 1.299 . S
O114 Zn111 2.080 . S
O114 C128 1.305 . S
O115 Zn109 1.920 . S
O115 C128 1.234 . S
C116 O121 1.167 . S
C116 O122 1.299 . S
O117 Zn111 2.114 . S
O117 C112 1.166 . S
O118 Zn110 1.905 . S
O118 C112 1.182 . S
O119 Zn110 1.898 . S
O119 C113 1.167 . S
O120 Zn111 2.120 . S
O120 C113 1.299 . S
O121 Zn109 1.898 . S
O121 C116 1.167 . S
O122 Zn111 2.120 . S
O122 C116 1.299 . S
O123 Zn111 2.114 . S
O123 C125 1.166 . S
O124 Zn109 1.905 . S
O124 C125 1.182 . S
C125 O123 1.166 . S
C125 O124 1.182 . S
O126 Zn111 2.080 . S
O126 C129 1.305 . S
O127 Zn110 1.920 . S
O127 C129 1.234 . S
C128 O114 1.305 . S
C128 O115 1.234 . S
C129 O126 1.305 . S
C129 O127 1.234 . S
Zn130 O136 1.920 . S
Zn130 O142 1.898 . S
Zn130 O145 1.905 . S
Zn131 O139 1.905 . S
Zn131 O140 1.898 . S
Zn131 O148 1.920 . S
Zn132 O135 2.080 . S
Zn132 O138 2.114 . S
Zn132 O141 2.120 . S
Zn132 O143 2.120 . S
Zn132 O144 2.114 . S
Zn132 O147 2.080 . S
C133 O138 1.166 . S
C133 O139 1.182 . S
C134 O140 1.167 . S
C134 O141 1.299 . S
O135 Zn132 2.080 . S
O135 C149 1.305 . S
O136 Zn130 1.920 . S
O136 C149 1.234 . S
C137 O142 1.167 . S
C137 O143 1.299 . S
O138 Zn132 2.114 . S
O138 C133 1.166 . S
O139 Zn131 1.905 . S
O139 C133 1.182 . S
O140 Zn131 1.898 . S
O140 C134 1.167 . S
O141 Zn132 2.120 . S
O141 C134 1.299 . S
O142 Zn130 1.898 . S
O142 C137 1.167 . S
O143 Zn132 2.120 . S
O143 C137 1.299 . S
O144 Zn132 2.114 . S
O144 C146 1.166 . S
O145 Zn130 1.905 . S
O145 C146 1.182 . S
C146 O144 1.166 . S
C146 O145 1.182 . S
O147 Zn132 2.080 . S
O147 C150 1.305 . S
O148 Zn131 1.920 . S
O148 C150 1.234 . S
C149 O135 1.305 . S
C149 O136 1.234 . S
C150 O147 1.305 . S
C150 O148 1.234 . S
Zn151 O157 1.920 . S
Zn151 O163 1.898 . S
Zn151 O166 1.905 . S
Zn152 O160 1.905 . S
Zn152 O161 1.898 . S
Zn152 O169 1.920 . S
Zn153 O156 2.080 . S
Zn153 O159 2.114 . S
Zn153 O162 2.120 . S
Zn153 O164 2.120 . S
Zn153 O165 2.114 . S
Zn153 O168 2.080 . S
C154 O159 1.166 . S
C154 O160 1.182 . S
C155 O161 1.167 . S
C155 O162 1.299 . S
O156 Zn153 2.080 . S
O156 C170 1.305 . S
O157 Zn151 1.920 . S
O157 C170 1.234 . S
C158 O163 1.167 . S
C158 O164 1.299 . S
O159 Zn153 2.114 . S
O159 C154 1.166 . S
O160 Zn152 1.905 . S
O160 C154 1.182 . S
O161 Zn152 1.898 . S
O161 C155 1.167 . S
O162 Zn153 2.120 . S
O162 C155 1.299 . S
O163 Zn151 1.898 . S
O163 C158 1.167 . S
O164 Zn153 2.120 . S
O164 C158 1.299 . S
O165 Zn153 2.114 . S
O165 C167 1.166 . S
O166 Zn151 1.905 . S
O166 C167 1.182 . S
C167 O165 1.166 . S
C167 O166 1.182 . S
O168 Zn153 2.080 . S
O168 C171 1.305 . S
O169 Zn152 1.920 . S
O169 C171 1.234 . S
C170 O156 1.305 . S
C170 O157 1.234 . S
C171 O168 1.305 . S
C171 O169 1.234 . S
H172 C178 0.930 . S
H173 C182 0.930 . S
H174 C187 0.929 . S
H175 C185 0.929 . S
H176 C180 0.929 . S
H177 C186 0.929 . S
C178 H172 0.930 . S
C178 C179 1.367 . S
C178 C186 1.378 . S
C179 C178 1.367 . S
C179 C187 1.433 . S
C180 H176 0.929 . S
C180 C182 1.378 . S
C180 C184 1.350 . S
C181 C184 1.463 . S
C181 C186 1.350 . S
C181 N189 1.427 . S
C182 H173 0.930 . S
C182 C180 1.378 . S
C182 C183 1.367 . S
C183 C182 1.367 . S
C183 C185 1.433 . S
C184 C180 1.350 . S
C184 C181 1.463 . S
C184 N188 1.427 . S
C185 H175 0.929 . S
C185 C183 1.433 . S
C185 N188 1.384 . S
C186 H177 0.929 . S
C186 C178 1.378 . S
C186 C181 1.350 . S
C187 H174 0.929 . S
C187 C179 1.433 . S
C187 N189 1.384 . S
N188 C184 1.427 . S
N188 C185 1.384 . S
N189 C181 1.427 . S
N189 C187 1.384 . S
H190 C196 0.930 . S
H191 C200 0.930 . S
H192 C205 0.929 . S
H193 C203 0.929 . S
H194 C198 0.929 . S
H195 C204 0.929 . S
C196 H190 0.930 . S
C196 C197 1.367 . S
C196 C204 1.378 . S
C197 C196 1.367 . S
C197 C205 1.433 . S
C198 H194 0.929 . S
C198 C200 1.378 . S
C198 C202 1.350 . S
C199 C202 1.463 . S
C199 C204 1.350 . S
C199 N207 1.427 . S
C200 H191 0.930 . S
C200 C198 1.378 . S
C200 C201 1.367 . S
C201 C200 1.367 . S
C201 C203 1.433 . S
C202 C198 1.350 . S
C202 C199 1.463 . S
C202 N206 1.427 . S
C203 H193 0.929 . S
C203 C201 1.433 . S
C203 N206 1.384 . S
C204 H195 0.929 . S
C204 C196 1.378 . S
C204 C199 1.350 . S
C205 H192 0.929 . S
C205 C197 1.433 . S
C205 N207 1.384 . S
N206 C202 1.427 . S
N206 C203 1.384 . S
N207 C199 1.427 . S
N207 C205 1.384 . S
H208 C214 0.930 . S
H209 C218 0.930 . S
H210 C223 0.929 . S
H211 C221 0.929 . S
H212 C216 0.929 . S
H213 C222 0.929 . S
C214 H208 0.930 . S
C214 C215 1.367 . S
C214 C222 1.378 . S
C215 C214 1.367 . S
C215 C223 1.433 . S
C216 H212 0.929 . S
C216 C218 1.378 . S
C216 C220 1.350 . S
C217 C220 1.463 . S
C217 C222 1.350 . S
C217 N225 1.427 . S
C218 H209 0.930 . S
C218 C216 1.378 . S
C218 C219 1.367 . S
C219 C218 1.367 . S
C219 C221 1.433 . S
C220 C216 1.350 . S
C220 C217 1.463 . S
C220 N224 1.427 . S
C221 H211 0.929 . S
C221 C219 1.433 . S
C221 N224 1.384 . S
C222 H213 0.929 . S
C222 C214 1.378 . S
C222 C217 1.350 . S
C223 H210 0.929 . S
C223 C215 1.433 . S
C223 N225 1.384 . S
N224 C220 1.427 . S
N224 C221 1.384 . S
N225 C217 1.427 . S
N225 C223 1.384 . S
H226 C232 0.930 . S
H227 C236 0.930 . S
H228 C241 0.929 . S
H229 C239 0.929 . S
H230 C234 0.929 . S
H231 C240 0.929 . S
C232 H226 0.930 . S
C232 C233 1.367 . S
C232 C240 1.378 . S
C233 C232 1.367 . S
C233 C241 1.433 . S
C234 H230 0.929 . S
C234 C236 1.378 . S
C234 C238 1.350 . S
C235 C238 1.463 . S
C235 C240 1.350 . S
C235 N243 1.427 . S
C236 H227 0.930 . S
C236 C234 1.378 . S
C236 C237 1.367 . S
C237 C236 1.367 . S
C237 C239 1.433 . S
C238 C234 1.350 . S
C238 C235 1.463 . S
C238 N242 1.427 . S
C239 H229 0.929 . S
C239 C237 1.433 . S
C239 N242 1.384 . S
C240 H231 0.929 . S
C240 C232 1.378 . S
C240 C235 1.350 . S
C241 H228 0.929 . S
C241 C233 1.433 . S
C241 N243 1.384 . S
N242 C238 1.427 . S
N242 C239 1.384 . S
N243 C235 1.427 . S
N243 C241 1.384 . S
H244 C250 0.930 . S
H245 C254 0.930 . S
H246 C259 0.929 . S
H247 C257 0.929 . S
H248 C252 0.929 . S
H249 C258 0.929 . S
C250 H244 0.930 . S
C250 C251 1.367 . S
C250 C258 1.378 . S
C251 C250 1.367 . S
C251 C259 1.433 . S
C252 H248 0.929 . S
C252 C254 1.378 . S
C252 C256 1.350 . S
C253 C256 1.463 . S
C253 C258 1.350 . S
C253 N261 1.427 . S
C254 H245 0.930 . S
C254 C252 1.378 . S
C254 C255 1.367 . S
C255 C254 1.367 . S
C255 C257 1.433 . S
C256 C252 1.350 . S
C256 C253 1.463 . S
C256 N260 1.427 . S
C257 H247 0.929 . S
C257 C255 1.433 . S
C257 N260 1.384 . S
C258 H249 0.929 . S
C258 C250 1.378 . S
C258 C253 1.350 . S
C259 H246 0.929 . S
C259 C251 1.433 . S
C259 N261 1.384 . S
N260 C256 1.427 . S
N260 C257 1.384 . S
N261 C253 1.427 . S
N261 C259 1.384 . S
H262 C268 0.930 . S
H263 C272 0.930 . S
H264 C277 0.929 . S
H265 C275 0.929 . S
H266 C270 0.929 . S
H267 C276 0.929 . S
C268 H262 0.930 . S
C268 C269 1.367 . S
C268 C276 1.378 . S
C269 C268 1.367 . S
C269 C277 1.433 . S
C270 H266 0.929 . S
C270 C272 1.378 . S
C270 C274 1.350 . S
C271 C274 1.463 . S
C271 C276 1.350 . S
C271 N279 1.427 . S
C272 H263 0.930 . S
C272 C270 1.378 . S
C272 C273 1.367 . S
C273 C272 1.367 . S
C273 C275 1.433 . S
C274 C270 1.350 . S
C274 C271 1.463 . S
C274 N278 1.427 . S
C275 H265 0.929 . S
C275 C273 1.433 . S
C275 N278 1.384 . S
C276 H267 0.929 . S
C276 C268 1.378 . S
C276 C271 1.350 . S
C277 H264 0.929 . S
C277 C269 1.433 . S
C277 N279 1.384 . S
N278 C274 1.427 . S
N278 C275 1.384 . S
N279 C271 1.427 . S
N279 C277 1.384 . S
H280 C286 0.930 . S
H281 C290 0.930 . S
H282 C295 0.929 . S
H283 C293 0.929 . S
H284 C288 0.929 . S
H285 C294 0.929 . S
C286 H280 0.930 . S
C286 C287 1.367 . S
C286 C294 1.378 . S
C287 C286 1.367 . S
C287 C295 1.433 . S
C288 H284 0.929 . S
C288 C290 1.378 . S
C288 C292 1.350 . S
C289 C292 1.463 . S
C289 C294 1.350 . S
C289 N297 1.427 . S
C290 H281 0.930 . S
C290 C288 1.378 . S
C290 C291 1.367 . S
C291 C290 1.367 . S
C291 C293 1.433 . S
C292 C288 1.350 . S
C292 C289 1.463 . S
C292 N296 1.427 . S
C293 H283 0.929 . S
C293 C291 1.433 . S
C293 N296 1.384 . S
C294 H285 0.929 . S
C294 C286 1.378 . S
C294 C289 1.350 . S
C295 H282 0.929 . S
C295 C287 1.433 . S
C295 N297 1.384 . S
N296 C292 1.427 . S
N296 C293 1.384 . S
N297 C289 1.427 . S
N297 C295 1.384 . S
H298 C304 0.930 . S
H299 C308 0.930 . S
H300 C313 0.929 . S
H301 C311 0.929 . S
H302 C306 0.929 . S
H303 C312 0.929 . S
C304 H298 0.930 . S
C304 C305 1.367 . S
C304 C312 1.378 . S
C305 C304 1.367 . S
C305 C313 1.433 . S
C306 H302 0.929 . S
C306 C308 1.378 . S
C306 C310 1.350 . S
C307 C310 1.463 . S
C307 C312 1.350 . S
C307 N315 1.427 . S
C308 H299 0.930 . S
C308 C306 1.378 . S
C308 C309 1.367 . S
C309 C308 1.367 . S
C309 C311 1.433 . S
C310 C306 1.350 . S
C310 C307 1.463 . S
C310 N314 1.427 . S
C311 H301 0.929 . S
C311 C309 1.433 . S
C311 N314 1.384 . S
C312 H303 0.929 . S
C312 C304 1.378 . S
C312 C307 1.350 . S
C313 H300 0.929 . S
C313 C305 1.433 . S
C313 N315 1.384 . S
N314 C310 1.427 . S
N314 C311 1.384 . S
N315 C307 1.427 . S
N315 C313 1.384 . S
H316 C322 0.930 . S
H317 C326 0.930 . S
H318 C331 0.929 . S
H319 C329 0.929 . S
H320 C324 0.929 . S
H321 C330 0.929 . S
C322 H316 0.930 . S
C322 C323 1.367 . S
C322 C330 1.378 . S
C323 C322 1.367 . S
C323 C331 1.433 . S
C324 H320 0.929 . S
C324 C326 1.378 . S
C324 C328 1.350 . S
C325 C328 1.463 . S
C325 C330 1.350 . S
C325 N333 1.427 . S
C326 H317 0.930 . S
C326 C324 1.378 . S
C326 C327 1.367 . S
C327 C326 1.367 . S
C327 C329 1.433 . S
C328 C324 1.350 . S
C328 C325 1.463 . S
C328 N332 1.427 . S
C329 H319 0.929 . S
C329 C327 1.433 . S
C329 N332 1.384 . S
C330 H321 0.929 . S
C330 C322 1.378 . S
C330 C325 1.350 . S
C331 H318 0.929 . S
C331 C323 1.433 . S
C331 N333 1.384 . S
N332 C328 1.427 . S
N332 C329 1.384 . S
N333 C325 1.427 . S
N333 C331 1.384 . S
H334 C340 0.930 . S
H335 C344 0.930 . S
H336 C349 0.929 . S
H337 C347 0.929 . S
H338 C342 0.929 . S
H339 C348 0.929 . S
C340 H334 0.930 . S
C340 C341 1.367 . S
C340 C348 1.378 . S
C341 C340 1.367 . S
C341 C349 1.433 . S
C342 H338 0.929 . S
C342 C344 1.378 . S
C342 C346 1.350 . S
C343 C346 1.463 . S
C343 C348 1.350 . S
C343 N351 1.427 . S
C344 H335 0.930 . S
C344 C342 1.378 . S
C344 C345 1.367 . S
C345 C344 1.367 . S
C345 C347 1.433 . S
C346 C342 1.350 . S
C346 C343 1.463 . S
C346 N350 1.427 . S
C347 H337 0.929 . S
C347 C345 1.433 . S
C347 N350 1.384 . S
C348 H339 0.929 . S
C348 C340 1.378 . S
C348 C343 1.350 . S
C349 H336 0.929 . S
C349 C341 1.433 . S
C349 N351 1.384 . S
N350 C346 1.427 . S
N350 C347 1.384 . S
N351 C343 1.427 . S
N351 C349 1.384 . S
H352 C358 0.930 . S
H353 C362 0.930 . S
H354 C367 0.929 . S
H355 C365 0.929 . S
H356 C360 0.929 . S
H357 C366 0.929 . S
C358 H352 0.930 . S
C358 C359 1.367 . S
C358 C366 1.378 . S
C359 C358 1.367 . S
C359 C367 1.433 . S
C360 H356 0.929 . S
C360 C362 1.378 . S
C360 C364 1.350 . S
C361 C364 1.463 . S
C361 C366 1.350 . S
C361 N369 1.427 . S
C362 H353 0.930 . S
C362 C360 1.378 . S
C362 C363 1.367 . S
C363 C362 1.367 . S
C363 C365 1.433 . S
C364 C360 1.350 . S
C364 C361 1.463 . S
C364 N368 1.427 . S
C365 H355 0.929 . S
C365 C363 1.433 . S
C365 N368 1.384 . S
C366 H357 0.929 . S
C366 C358 1.378 . S
C366 C361 1.350 . S
C367 H354 0.929 . S
C367 C359 1.433 . S
C367 N369 1.384 . S
N368 C364 1.427 . S
N368 C365 1.384 . S
N369 C361 1.427 . S
N369 C367 1.384 . S
H370 C376 0.930 . S
H371 C380 0.930 . S
H372 C385 0.929 . S
H373 C383 0.929 . S
H374 C378 0.929 . S
H375 C384 0.929 . S
C376 H370 0.930 . S
C376 C377 1.367 . S
C376 C384 1.378 . S
C377 C376 1.367 . S
C377 C385 1.433 . S
C378 H374 0.929 . S
C378 C380 1.378 . S
C378 C382 1.350 . S
C379 C382 1.463 . S
C379 C384 1.350 . S
C379 N387 1.427 . S
C380 H371 0.930 . S
C380 C378 1.378 . S
C380 C381 1.367 . S
C381 C380 1.367 . S
C381 C383 1.433 . S
C382 C378 1.350 . S
C382 C379 1.463 . S
C382 N386 1.427 . S
C383 H373 0.929 . S
C383 C381 1.433 . S
C383 N386 1.384 . S
C384 H375 0.929 . S
C384 C376 1.378 . S
C384 C379 1.350 . S
C385 H372 0.929 . S
C385 C377 1.433 . S
C385 N387 1.384 . S
N386 C382 1.427 . S
N386 C383 1.384 . S
N387 C379 1.427 . S
N387 C385 1.384 . S
H388 C394 0.930 . S
H389 C398 0.930 . S
H390 C403 0.929 . S
H391 C401 0.929 . S
H392 C396 0.929 . S
H393 C402 0.929 . S
C394 H388 0.930 . S
C394 C395 1.367 . S
C394 C402 1.378 . S
C395 C394 1.367 . S
C395 C403 1.433 . S
C396 H392 0.929 . S
C396 C398 1.378 . S
C396 C400 1.350 . S
C397 C400 1.463 1_565 S
C397 C402 1.350 . S
C397 N405 1.427 . S
C398 H389 0.930 . S
C398 C396 1.378 . S
C398 C399 1.367 . S
C399 C398 1.367 . S
C399 C401 1.433 . S
C400 C396 1.350 . S
C400 C397 1.463 1_545 S
C400 N404 1.427 . S
C401 H391 0.929 . S
C401 C399 1.433 . S
C401 N404 1.384 . S
C402 H393 0.929 . S
C402 C394 1.378 . S
C402 C397 1.350 . S
C403 H390 0.929 . S
C403 C395 1.433 . S
C403 N405 1.384 . S
N404 C400 1.427 . S
N404 C401 1.384 . S
N405 C397 1.427 . S
N405 C403 1.384 . S
H406 C412 0.930 . S
H407 C416 0.930 . S
H408 C421 0.929 . S
H409 C419 0.929 . S
H410 C414 0.929 . S
H411 C420 0.929 . S
C412 H406 0.930 . S
C412 C413 1.367 . S
C412 C420 1.378 1_545 S
C413 C412 1.367 . S
C413 C421 1.433 . S
C414 H410 0.929 . S
C414 C416 1.378 . S
C414 C418 1.350 . S
C415 C418 1.463 . S
C415 C420 1.350 . S
C415 N423 1.427 1_565 S
C416 H407 0.930 . S
C416 C414 1.378 . S
C416 C417 1.367 . S
C417 C416 1.367 . S
C417 C419 1.433 . S
C418 C414 1.350 . S
C418 C415 1.463 . S
C418 N422 1.427 . S
C419 H409 0.929 . S
C419 C417 1.433 . S
C419 N422 1.384 . S
C420 H411 0.929 . S
C420 C412 1.378 1_565 S
C420 C415 1.350 . S
C421 H408 0.929 . S
C421 C413 1.433 . S
C421 N423 1.384 . S
N422 C418 1.427 . S
N422 C419 1.384 . S
N423 C415 1.427 1_545 S
N423 C421 1.384 . S
H424 C430 0.930 . S
H425 C434 0.930 . S
H426 C439 0.929 . S
H427 C437 0.929 . S
H428 C432 0.929 . S
H429 C438 0.929 . S
C430 H424 0.930 . S
C430 C431 1.367 . S
C430 C438 1.378 . S
C431 C430 1.367 . S
C431 C439 1.433 . S
C432 H428 0.929 . S
C432 C434 1.378 . S
C432 C436 1.350 . S
C433 C436 1.463 1_545 S
C433 C438 1.350 . S
C433 N441 1.427 . S
C434 H425 0.930 . S
C434 C432 1.378 . S
C434 C435 1.367 . S
C435 C434 1.367 . S
C435 C437 1.433 . S
C436 C432 1.350 . S
C436 C433 1.463 1_565 S
C436 N440 1.427 . S
C437 H427 0.929 . S
C437 C435 1.433 . S
C437 N440 1.384 . S
C438 H429 0.929 . S
C438 C430 1.378 . S
C438 C433 1.350 . S
C439 H426 0.929 . S
C439 C431 1.433 . S
C439 N441 1.384 . S
N440 C436 1.427 . S
N440 C437 1.384 . S
N441 C433 1.427 . S
N441 C439 1.384 . S
H442 C448 0.930 . S
H443 C452 0.930 . S
H444 C457 0.929 . S
H445 C455 0.929 . S
H446 C450 0.929 . S
H447 C456 0.929 . S
C448 H442 0.930 . S
C448 C449 1.367 . S
C448 C456 1.378 . S
C449 C448 1.367 . S
C449 C457 1.433 . S
C450 H446 0.929 . S
C450 C452 1.378 . S
C450 C454 1.350 . S
C451 C454 1.463 1_565 S
C451 C456 1.350 . S
C451 N459 1.427 . S
C452 H443 0.930 . S
C452 C450 1.378 . S
C452 C453 1.367 . S
C453 C452 1.367 . S
C453 C455 1.433 . S
C454 C450 1.350 . S
C454 C451 1.463 1_545 S
C454 N458 1.427 . S
C455 H445 0.929 . S
C455 C453 1.433 . S
C455 N458 1.384 . S
C456 H447 0.929 . S
C456 C448 1.378 . S
C456 C451 1.350 . S
C457 H444 0.929 . S
C457 C449 1.433 . S
C457 N459 1.384 . S
N458 C454 1.427 . S
N458 C455 1.384 . S
N459 C451 1.427 . S
N459 C457 1.384 . S
H460 C466 0.930 . S
H461 C470 0.930 . S
H462 C475 0.929 . S
H463 C473 0.929 . S
H464 C468 0.929 . S
H465 C474 0.929 . S
C466 H460 0.930 . S
C466 C467 1.367 . S
C466 C474 1.378 1_554 S
C467 C466 1.367 . S
C467 C475 1.433 . S
C468 H464 0.929 . S
C468 C470 1.378 . S
C468 C472 1.350 . S
C469 C472 1.463 . S
C469 C474 1.350 . S
C469 N477 1.427 . S
C470 H461 0.930 . S
C470 C468 1.378 . S
C470 C471 1.367 . S
C471 C470 1.367 . S
C471 C473 1.433 . S
C472 C468 1.350 . S
C472 C469 1.463 . S
C472 N476 1.427 . S
C473 H463 0.929 . S
C473 C471 1.433 . S
C473 N476 1.384 . S
C474 H465 0.929 . S
C474 C466 1.378 1_556 S
C474 C469 1.350 . S
C475 H462 0.929 . S
C475 C467 1.433 . S
C475 N477 1.384 1_554 S
N476 C472 1.427 . S
N476 C473 1.384 . S
N477 C469 1.427 . S
N477 C475 1.384 1_556 S
H478 C484 0.930 . S
H479 C488 0.930 . S
H480 C493 0.929 . S
H481 C491 0.929 . S
H482 C486 0.929 . S
H483 C492 0.929 . S
C484 H478 0.930 . S
C484 C485 1.367 . S
C484 C492 1.378 . S
C485 C484 1.367 . S
C485 C493 1.433 . S
C486 H482 0.929 . S
C486 C488 1.378 . S
C486 C490 1.350 . S
C487 C490 1.463 . S
C487 C492 1.350 . S
C487 N495 1.427 . S
C488 H479 0.930 . S
C488 C486 1.378 . S
C488 C489 1.367 . S
C489 C488 1.367 . S
C489 C491 1.433 . S
C490 C486 1.350 . S
C490 C487 1.463 . S
C490 N494 1.427 . S
C491 H481 0.929 . S
C491 C489 1.433 . S
C491 N494 1.384 . S
C492 H483 0.929 . S
C492 C484 1.378 . S
C492 C487 1.350 . S
C493 H480 0.929 . S
C493 C485 1.433 . S
C493 N495 1.384 . S
N494 C490 1.427 . S
N494 C491 1.384 . S
N495 C487 1.427 . S
N495 C493 1.384 . S
H496 C502 0.930 . S
H497 C506 0.930 . S
H498 C511 0.929 . S
H499 C509 0.929 . S
H500 C504 0.929 . S
H501 C510 0.929 . S
C502 H496 0.930 . S
C502 C503 1.367 . S
C502 C510 1.378 . S
C503 C502 1.367 . S
C503 C511 1.433 . S
C504 H500 0.929 . S
C504 C506 1.378 . S
C504 C508 1.350 . S
C505 C508 1.463 . S
C505 C510 1.350 . S
C505 N513 1.427 . S
C506 H497 0.930 . S
C506 C504 1.378 . S
C506 C507 1.367 . S
C507 C506 1.367 . S
C507 C509 1.433 . S
C508 C504 1.350 . S
C508 C505 1.463 . S
C508 N512 1.427 . S
C509 H499 0.929 . S
C509 C507 1.433 . S
C509 N512 1.384 . S
C510 H501 0.929 . S
C510 C502 1.378 . S
C510 C505 1.350 . S
C511 H498 0.929 . S
C511 C503 1.433 . S
C511 N513 1.384 . S
N512 C508 1.427 . S
N512 C509 1.384 . S
N513 C505 1.427 . S
N513 C511 1.384 . S
H514 C520 0.930 . S
H515 C524 0.930 . S
H516 C529 0.929 . S
H517 C527 0.929 . S
H518 C522 0.929 . S
H519 C528 0.929 . S
C520 H514 0.930 . S
C520 C521 1.367 . S
C520 C528 1.378 . S
C521 C520 1.367 . S
C521 C529 1.433 . S
C522 H518 0.929 . S
C522 C524 1.378 . S
C522 C526 1.350 . S
C523 C526 1.463 . S
C523 C528 1.350 . S
C523 N531 1.427 . S
C524 H515 0.930 . S
C524 C522 1.378 . S
C524 C525 1.367 . S
C525 C524 1.367 . S
C525 C527 1.433 . S
C526 C522 1.350 . S
C526 C523 1.463 . S
C526 N530 1.427 . S
C527 H517 0.929 . S
C527 C525 1.433 . S
C527 N530 1.384 . S
C528 H519 0.929 . S
C528 C520 1.378 . S
C528 C523 1.350 . S
C529 H516 0.929 . S
C529 C521 1.433 . S
C529 N531 1.384 . S
N530 C526 1.427 . S
N530 C527 1.384 . S
N531 C523 1.427 . S
N531 C529 1.384 . S
H532 C538 0.930 . S
H533 C542 0.930 . S
H534 C547 0.929 . S
H535 C545 0.929 . S
H536 C540 0.929 . S
H537 C546 0.929 . S
C538 H532 0.930 . S
C538 C539 1.367 . S
C538 C546 1.378 1_556 S
C539 C538 1.367 . S
C539 C547 1.433 . S
C540 H536 0.929 . S
C540 C542 1.378 . S
C540 C544 1.350 . S
C541 C544 1.463 . S
C541 C546 1.350 . S
C541 N549 1.427 1_554 S
C542 H533 0.930 . S
C542 C540 1.378 . S
C542 C543 1.367 . S
C543 C542 1.367 . S
C543 C545 1.433 . S
C544 C540 1.350 . S
C544 C541 1.463 . S
C544 N548 1.427 . S
C545 H535 0.929 . S
C545 C543 1.433 . S
C545 N548 1.384 . S
C546 H537 0.929 . S
C546 C538 1.378 1_554 S
C546 C541 1.350 . S
C547 H534 0.929 . S
C547 C539 1.433 . S
C547 N549 1.384 . S
N548 C544 1.427 . S
N548 C545 1.384 . S
N549 C541 1.427 1_556 S
N549 C547 1.384 . S
H550 C556 0.930 . S
H551 C560 0.930 . S
H552 C565 0.929 . S
H553 C563 0.929 . S
H554 C558 0.929 . S
H555 C564 0.929 . S
C556 H550 0.930 . S
C556 C557 1.367 . S
C556 C564 1.378 . S
C557 C556 1.367 . S
C557 C565 1.433 . S
C558 H554 0.929 . S
C558 C560 1.378 . S
C558 C562 1.350 . S
C559 C562 1.463 . S
C559 C564 1.350 . S
C559 N567 1.427 . S
C560 H551 0.930 . S
C560 C558 1.378 . S
C560 C561 1.367 . S
C561 C560 1.367 . S
C561 C563 1.433 . S
C562 C558 1.350 . S
C562 C559 1.463 . S
C562 N566 1.427 . S
C563 H553 0.929 . S
C563 C561 1.433 . S
C563 N566 1.384 . S
C564 H555 0.929 . S
C564 C556 1.378 . S
C564 C559 1.350 . S
C565 H552 0.929 . S
C565 C557 1.433 . S
C565 N567 1.384 . S
N566 C562 1.427 . S
N566 C563 1.384 . S
N567 C559 1.427 . S
N567 C565 1.384 . S
H568 C574 0.930 . S
H569 C578 0.930 . S
H570 C583 0.929 . S
H571 C581 0.929 . S
H572 C576 0.929 . S
H573 C582 0.929 . S
C574 H568 0.930 . S
C574 C575 1.367 . S
C574 C582 1.378 . S
C575 C574 1.367 . S
C575 C583 1.433 . S
C576 H572 0.929 . S
C576 C578 1.378 . S
C576 C580 1.350 . S
C577 C580 1.463 . S
C577 C582 1.350 . S
C577 N585 1.427 . S
C578 H569 0.930 . S
C578 C576 1.378 . S
C578 C579 1.367 . S
C579 C578 1.367 . S
C579 C581 1.433 . S
C580 C576 1.350 . S
C580 C577 1.463 . S
C580 N584 1.427 . S
C581 H571 0.929 . S
C581 C579 1.433 . S
C581 N584 1.384 . S
C582 H573 0.929 . S
C582 C574 1.378 . S
C582 C577 1.350 . S
C583 H570 0.929 . S
C583 C575 1.433 . S
C583 N585 1.384 . S
N584 C580 1.427 . S
N584 C581 1.384 . S
N585 C577 1.427 . S
N585 C583 1.384 . S
H586 C592 0.930 . S
H587 C596 0.930 . S
H588 C601 0.929 . S
H589 C599 0.929 . S
H590 C594 0.929 . S
H591 C600 0.929 . S
C592 H586 0.930 . S
C592 C593 1.367 . S
C592 C600 1.378 . S
C593 C592 1.367 . S
C593 C601 1.433 . S
C594 H590 0.929 . S
C594 C596 1.378 . S
C594 C598 1.350 . S
C595 C598 1.463 . S
C595 C600 1.350 . S
C595 N603 1.427 . S
C596 H587 0.930 . S
C596 C594 1.378 . S
C596 C597 1.367 . S
C597 C596 1.367 . S
C597 C599 1.433 . S
C598 C594 1.350 . S
C598 C595 1.463 . S
C598 N602 1.427 . S
C599 H589 0.929 . S
C599 C597 1.433 . S
C599 N602 1.384 . S
C600 H591 0.929 . S
C600 C592 1.378 . S
C600 C595 1.350 . S
C601 H588 0.929 . S
C601 C593 1.433 . S
C601 N603 1.384 . S
N602 C598 1.427 . S
N602 C599 1.384 . S
N603 C595 1.427 . S
N603 C601 1.384 . S
C183 C95 1.453 . S
C179 C5 1.470 . S
C201 C113 1.505 . S
C197 C16 1.404 . S
C215 C30 1.425 . S
C219 C137 1.319 . S
C237 C167 1.199 1_655 S
C233 C41 1.302 . S
C255 C155 1.288 . S
C251 C49 1.127 . S
C269 C63 1.281 . S
C273 C108 1.205 1_655 S
C287 C74 1.607 . S
C291 C128 1.513 . S
C305 C82 1.374 1_655 S
C309 C133 1.469 . S
C323 C85 1.284 . S
C327 C149 1.214 . S
C341 C60 1.406 . S
C345 C104 1.446 . S
C363 C171 1.518 . S
C359 C38 1.402 . S
C381 C116 1.179 . S
C377 C19 1.312 . S
C395 C27 1.469 . S
C399 C134 1.468 . S
C413 C8 1.436 . S
C417 C92 1.320 . S
C435 C112 1.285 . S
C431 C71 1.116 . S
C453 C158 1.511 . S
C449 C52 1.609 . S
C471 C154 1.357 . S
C467 C7 1.468 . S
C489 C107 1.435 . S
C485 C18 1.477 . S
C503 C29 1.441 . S
C507 C129 1.309 . S
C521 C40 1.485 . S
C525 C150 1.448 . S
C543 C91 1.341 . S
C539 C51 1.466 . S
C557 C62 1.439 . S
C561 C125 1.393 . S
C579 C146 1.350 . S
C575 C73 1.478 . S
C597 C170 1.361 . S
C593 C84 1.416 . S
