# Generated by pormake.
# Topology ocu, (6,8)-cn, num edge types: 1
# Building blocks:
#     Node 0, Type 0, BuildingBlock: BETDEL_clean_sbu_0, # of connection points: 6
#     Node 1, Type 0, BuildingBlock: BETDEL_clean_sbu_0, # of connection points: 6
#     Node 2, Type 0, BuildingBlock: BETDEL_clean_sbu_0, # of connection points: 6
#     Node 3, Type 0, BuildingBlock: BETDEL_clean_sbu_0, # of connection points: 6
#     Node 4, Type 0, BuildingBlock: BETDEL_clean_sbu_0, # of connection points: 6
#     Node 5, Type 0, BuildingBlock: BETDEL_clean_sbu_0, # of connection points: 6
#     Node 6, Type 0, BuildingBlock: BETDEL_clean_sbu_0, # of connection points: 6
#     Node 7, Type 0, BuildingBlock: BETDEL_clean_sbu_0, # of connection points: 6
#     Node 8, Type 1, BuildingBlock: TAGTUT_clean_sbu_1, # of connection points: 8
#     Node 9, Type 1, BuildingBlock: TAGTUT_clean_sbu_1, # of connection points: 8
#     Node 10, Type 1, BuildingBlock: TAGTUT_clean_sbu_1, # of connection points: 8
#     Node 11, Type 1, BuildingBlock: TAGTUT_clean_sbu_1, # of connection points: 8
#     Node 12, Type 1, BuildingBlock: TAGTUT_clean_sbu_1, # of connection points: 8
#     Node 13, Type 1, BuildingBlock: TAGTUT_clean_sbu_1, # of connection points: 8
#     Edge 14, Type (0, 1), BuildingBlock: KIFKEQ_clean_linker_1, # of connection points: 2
#     Edge 15, Type (0, 1), BuildingBlock: KIFKEQ_clean_linker_1, # of connection points: 2
#     Edge 16, Type (0, 1), BuildingBlock: KIFKEQ_clean_linker_1, # of connection points: 2
#     Edge 17, Type (0, 1), BuildingBlock: KIFKEQ_clean_linker_1, # of connection points: 2
#     Edge 18, Type (0, 1), BuildingBlock: KIFKEQ_clean_linker_1, # of connection points: 2
#     Edge 19, Type (0, 1), BuildingBlock: KIFKEQ_clean_linker_1, # of connection points: 2
#     Edge 20, Type (0, 1), BuildingBlock: KIFKEQ_clean_linker_1, # of connection points: 2
#     Edge 21, Type (0, 1), BuildingBlock: KIFKEQ_clean_linker_1, # of connection points: 2
#     Edge 22, Type (0, 1), BuildingBlock: KIFKEQ_clean_linker_1, # of connection points: 2
#     Edge 23, Type (0, 1), BuildingBlock: KIFKEQ_clean_linker_1, # of connection points: 2
#     Edge 24, Type (0, 1), BuildingBlock: KIFKEQ_clean_linker_1, # of connection points: 2
#     Edge 25, Type (0, 1), BuildingBlock: KIFKEQ_clean_linker_1, # of connection points: 2
#     Edge 26, Type (0, 1), BuildingBlock: KIFKEQ_clean_linker_1, # of connection points: 2
#     Edge 27, Type (0, 1), BuildingBlock: KIFKEQ_clean_linker_1, # of connection points: 2
#     Edge 28, Type (0, 1), BuildingBlock: KIFKEQ_clean_linker_1, # of connection points: 2
#     Edge 29, Type (0, 1), BuildingBlock: KIFKEQ_clean_linker_1, # of connection points: 2
#     Edge 30, Type (0, 1), BuildingBlock: KIFKEQ_clean_linker_1, # of connection points: 2
#     Edge 31, Type (0, 1), BuildingBlock: KIFKEQ_clean_linker_1, # of connection points: 2
#     Edge 32, Type (0, 1), BuildingBlock: KIFKEQ_clean_linker_1, # of connection points: 2
#     Edge 33, Type (0, 1), BuildingBlock: KIFKEQ_clean_linker_1, # of connection points: 2
#     Edge 34, Type (0, 1), BuildingBlock: KIFKEQ_clean_linker_1, # of connection points: 2
#     Edge 35, Type (0, 1), BuildingBlock: KIFKEQ_clean_linker_1, # of connection points: 2
#     Edge 36, Type (0, 1), BuildingBlock: KIFKEQ_clean_linker_1, # of connection points: 2
#     Edge 37, Type (0, 1), BuildingBlock: KIFKEQ_clean_linker_1, # of connection points: 2
#     Edge 38, Type (0, 1), BuildingBlock: KIFKEQ_clean_linker_1, # of connection points: 2
#     Edge 39, Type (0, 1), BuildingBlock: KIFKEQ_clean_linker_1, # of connection points: 2
#     Edge 40, Type (0, 1), BuildingBlock: KIFKEQ_clean_linker_1, # of connection points: 2
#     Edge 41, Type (0, 1), BuildingBlock: KIFKEQ_clean_linker_1, # of connection points: 2
#     Edge 42, Type (0, 1), BuildingBlock: KIFKEQ_clean_linker_1, # of connection points: 2
#     Edge 43, Type (0, 1), BuildingBlock: KIFKEQ_clean_linker_1, # of connection points: 2
#     Edge 44, Type (0, 1), BuildingBlock: KIFKEQ_clean_linker_1, # of connection points: 2
#     Edge 45, Type (0, 1), BuildingBlock: KIFKEQ_clean_linker_1, # of connection points: 2
#     Edge 46, Type (0, 1), BuildingBlock: KIFKEQ_clean_linker_1, # of connection points: 2
#     Edge 47, Type (0, 1), BuildingBlock: KIFKEQ_clean_linker_1, # of connection points: 2
#     Edge 48, Type (0, 1), BuildingBlock: KIFKEQ_clean_linker_1, # of connection points: 2
#     Edge 49, Type (0, 1), BuildingBlock: KIFKEQ_clean_linker_1, # of connection points: 2
#     Edge 50, Type (0, 1), BuildingBlock: KIFKEQ_clean_linker_1, # of connection points: 2
#     Edge 51, Type (0, 1), BuildingBlock: KIFKEQ_clean_linker_1, # of connection points: 2
#     Edge 52, Type (0, 1), BuildingBlock: KIFKEQ_clean_linker_1, # of connection points: 2
#     Edge 53, Type (0, 1), BuildingBlock: KIFKEQ_clean_linker_1, # of connection points: 2
#     Edge 54, Type (0, 1), BuildingBlock: KIFKEQ_clean_linker_1, # of connection points: 2
#     Edge 55, Type (0, 1), BuildingBlock: KIFKEQ_clean_linker_1, # of connection points: 2
#     Edge 56, Type (0, 1), BuildingBlock: KIFKEQ_clean_linker_1, # of connection points: 2
#     Edge 57, Type (0, 1), BuildingBlock: KIFKEQ_clean_linker_1, # of connection points: 2
#     Edge 58, Type (0, 1), BuildingBlock: KIFKEQ_clean_linker_1, # of connection points: 2
#     Edge 59, Type (0, 1), BuildingBlock: KIFKEQ_clean_linker_1, # of connection points: 2
#     Edge 60, Type (0, 1), BuildingBlock: KIFKEQ_clean_linker_1, # of connection points: 2
#     Edge 61, Type (0, 1), BuildingBlock: KIFKEQ_clean_linker_1, # of connection points: 2
# Relax obj value: 0.090
# Max RMSD: 0.257
# Mean RMSD: 0.149
data_MOF--net-ocu--node1-BETDEL_clean_sbu_0--node2-TAGTUT_clean_sbu_1--edge1-KIFKEQ_clean_linker_1
_symmetry_space_group_name_H-M    P1
_symmetry_Int_Tables_number       1
_symmetry_cell_setting            triclinic
loop_
_symmetry_equiv_pos_as_xyz
'x, y, z'
_cell_length_a     38.482667
_cell_length_b     37.452715
_cell_length_c     39.303572
_cell_angle_alpha  91.436844
_cell_angle_beta   93.688826
_cell_angle_gamma 106.57898
loop_
_atom_site_label
_atom_site_type_symbol
_atom_site_fract_x
_atom_site_fract_y
_atom_site_fract_z
_atom_type_partial_charge
Dy0 Dy 0.29528 0.2533 0.27225 0.0
C1 C 0.20081 0.29605 0.18378 0.0
C2 C 0.33922 0.22298 0.31156 0.0
Dy3 Dy 0.23881 0.25823 0.22143 0.0
O4 O 0.34925 0.25591 0.29931 0.0
O5 O 0.30479 0.20772 0.30397 0.0
O6 O 0.32866 0.31126 0.26101 0.0
O7 O 0.2977 0.27561 0.22139 0.0
C8 C 0.31879 0.30782 0.22853 0.0
C9 C 0.21434 0.20304 0.26414 0.0
O10 O 0.26462 0.22534 0.18706 0.0
O11 O 0.29662 0.20867 0.23248 0.0
O12 O 0.18991 0.26017 0.18741 0.0
O13 O 0.23297 0.31016 0.19876 0.0
O14 O 0.20342 0.20114 0.23193 0.0
O15 O 0.236 0.23493 0.27197 0.0
O16 O 0.26987 0.28574 0.30714 0.0
O17 O 0.23583 0.30114 0.26255 0.0
C18 C 0.28579 0.2055 0.19948 0.0
C19 C 0.24785 0.30485 0.29526 0.0
Dy20 Dy 0.79502 0.23194 0.25406 0.0
C21 C 0.67811 0.28892 0.2033 0.0
C22 C 0.84689 0.20342 0.28317 0.0
Dy23 Dy 0.73198 0.26513 0.23498 0.0
O24 O 0.81506 0.18385 0.27033 0.0
O25 O 0.85034 0.23869 0.28051 0.0
O26 O 0.79507 0.21295 0.1993 0.0
O27 O 0.7466 0.21574 0.21897 0.0
C28 C 0.76097 0.21019 0.19226 0.0
C29 C 0.7647 0.28645 0.29719 0.0
O30 O 0.70225 0.21064 0.25494 0.0
O31 O 0.75188 0.2046 0.28844 0.0
O32 O 0.68792 0.29356 0.23567 0.0
O33 O 0.69795 0.27156 0.18807 0.0
O34 O 0.73099 0.28477 0.28921 0.0
O35 O 0.7798 0.28087 0.27086 0.0
O36 O 0.8267 0.28435 0.23248 0.0
O37 O 0.77779 0.30224 0.20816 0.0
C38 C 0.71639 0.19503 0.28004 0.0
C39 C 0.81323 0.30625 0.21302 0.0
Dy40 Dy 0.73887 0.75164 0.27748 0.0
C41 C 0.82307 0.74385 0.16235 0.0
C42 C 0.70425 0.76423 0.3326 0.0
Dy43 Dy 0.78821 0.75776 0.2169 0.0
O44 O 0.68811 0.74562 0.30484 0.0
O45 O 0.73909 0.77577 0.33021 0.0
O46 O 0.71853 0.689 0.26958 0.0
O47 O 0.73574 0.72263 0.2286 0.0
C48 C 0.72702 0.68964 0.23808 0.0
C49 C 0.80011 0.82004 0.25578 0.0
O50 O 0.74291 0.77739 0.19205 0.0
O51 O 0.71725 0.78894 0.24171 0.0
O52 O 0.83894 0.75666 0.19217 0.0
O53 O 0.78835 0.73919 0.16228 0.0
O54 O 0.80929 0.8203 0.22452 0.0
O55 O 0.79134 0.78713 0.26555 0.0
O56 O 0.78372 0.7313 0.30222 0.0
O57 O 0.80842 0.71911 0.25226 0.0
C58 C 0.72028 0.79176 0.20815 0.0
C59 C 0.80575 0.71636 0.28586 0.0
Dy60 Dy 0.27118 0.71611 0.24174 0.0
C61 C 0.2042 0.83579 0.24236 0.0
C62 C 0.2984 0.65921 0.2248 0.0
Dy63 Dy 0.23806 0.78223 0.23152 0.0
O64 O 0.31482 0.68707 0.24595 0.0
O65 O 0.26663 0.6619 0.21436 0.0
O66 O 0.27731 0.72609 0.2988 0.0
O67 O 0.27899 0.77033 0.26644 0.0
C68 C 0.27763 0.76095 0.29699 0.0
C69 C 0.23287 0.73631 0.17725 0.0
O70 O 0.29513 0.81051 0.22132 0.0
O71 O 0.31098 0.75597 0.21065 0.0
O72 O 0.18857 0.8027 0.22872 0.0
O73 O 0.23874 0.84005 0.24814 0.0
O74 O 0.23495 0.7714 0.17431 0.0
O75 O 0.22996 0.72794 0.20779 0.0
O76 O 0.21571 0.68939 0.25725 0.0
O77 O 0.20173 0.74508 0.26695 0.0
C78 C 0.31773 0.79274 0.21027 0.0
C79 C 0.19466 0.70844 0.26928 0.0
Dy80 Dy 0.29212 0.73759 0.75763 0.0
C81 C 0.1742 0.78936 0.70017 0.0
C82 C 0.34449 0.7111 0.78857 0.0
Dy83 Dy 0.22821 0.76961 0.7359 0.0
O84 O 0.31371 0.69063 0.77423 0.0
O85 O 0.34656 0.74616 0.7865 0.0
O86 O 0.29473 0.71893 0.70323 0.0
O87 O 0.24528 0.72138 0.72097 0.0
C88 C 0.26087 0.71629 0.69493 0.0
C89 C 0.25767 0.78998 0.79918 0.0
O90 O 0.19859 0.71437 0.75401 0.0
O91 O 0.24684 0.70721 0.78903 0.0
O92 O 0.18038 0.79286 0.73311 0.0
O93 O 0.19797 0.77587 0.6867 0.0
O94 O 0.22447 0.7891 0.78965 0.0
O95 O 0.2743 0.78511 0.77366 0.0
O96 O 0.32355 0.78955 0.73461 0.0
O97 O 0.27456 0.80865 0.71171 0.0
C98 C 0.21159 0.69794 0.77919 0.0
C99 C 0.30988 0.81202 0.716 0.0
Dy100 Dy 0.23507 0.24473 0.7714 0.0
C101 C 0.31746 0.23057 0.65929 0.0
C102 C 0.20185 0.26029 0.82631 0.0
Dy103 Dy 0.28706 0.2531 0.71302 0.0
O104 O 0.18536 0.23806 0.80057 0.0
O105 O 0.23614 0.27384 0.82188 0.0
O106 O 0.21047 0.18403 0.755 0.0
O107 O 0.23102 0.22437 0.71939 0.0
C108 C 0.21832 0.1901 0.7235 0.0
C109 C 0.30474 0.30777 0.76103 0.0
O110 O 0.24514 0.27763 0.68819 0.0
O111 O 0.2184 0.28734 0.7377 0.0
O112 O 0.32616 0.26487 0.67158 0.0
O113 O 0.29295 0.20909 0.67665 0.0
O114 O 0.31375 0.31344 0.72976 0.0
O115 O 0.29115 0.27358 0.76491 0.0
O116 O 0.27287 0.21452 0.79516 0.0
O117 O 0.30919 0.21645 0.74954 0.0
C118 C 0.22304 0.29257 0.70454 0.0
C119 C 0.29976 0.20553 0.78067 0.0
Dy120 Dy 0.78491 0.21723 0.74778 0.0
C121 C 0.71679 0.33211 0.76822 0.0
C122 C 0.82292 0.16907 0.7312 0.0
Dy123 Dy 0.74364 0.27767 0.74417 0.0
O124 O 0.83631 0.20035 0.74879 0.0
O125 O 0.78835 0.16348 0.72394 0.0
O126 O 0.79423 0.22807 0.80488 0.0
O127 O 0.79114 0.27082 0.77228 0.0
C128 C 0.79305 0.26237 0.80287 0.0
C129 C 0.73394 0.23299 0.68845 0.0
O130 O 0.79407 0.30909 0.72197 0.0
O131 O 0.81515 0.25789 0.711 0.0
O132 O 0.69897 0.30531 0.74648 0.0
O133 O 0.74921 0.32947 0.77568 0.0
O134 O 0.73094 0.26686 0.68754 0.0
O135 O 0.73753 0.22419 0.71891 0.0
O136 O 0.73315 0.18427 0.76705 0.0
O137 O 0.71031 0.23461 0.77726 0.0
C138 C 0.81705 0.29363 0.7082 0.0
C139 C 0.70893 0.19892 0.77975 0.0
Dy140 Dy 0.7817 0.73968 0.76674 0.0
C141 C 0.69828 0.79708 0.66984 0.0
C142 C 0.81695 0.70825 0.81396 0.0
Dy143 Dy 0.73332 0.76219 0.71417 0.0
O144 O 0.82903 0.74196 0.80381 0.0
O145 O 0.78458 0.69266 0.79985 0.0
O146 O 0.8304 0.76391 0.73753 0.0
O147 O 0.78841 0.78932 0.73573 0.0
C148 C 0.81815 0.78927 0.72359 0.0
C149 C 0.69748 0.71185 0.75713 0.0
O150 O 0.76134 0.7304 0.68032 0.0
O151 O 0.78081 0.69853 0.72381 0.0
O152 O 0.68918 0.76119 0.67327 0.0
O153 O 0.72806 0.8128 0.68837 0.0
O154 O 0.68466 0.73695 0.74347 0.0
O155 O 0.7271 0.71252 0.74463 0.0
O156 O 0.75459 0.77167 0.80099 0.0
O157 O 0.73256 0.80195 0.75787 0.0
C158 C 0.77651 0.70438 0.69087 0.0
C159 C 0.73804 0.79661 0.79073 0.0
C160 C 0.95143 0.08961 0.54463 0.0
C161 C 0.98567 0.08935 0.43996 0.0
C162 C 0.94169 0.94235 0.44455 0.0
Mg163 Mg 0.02038 0.08394 0.51126 0.0
O164 O 0.99309 0.03353 0.51153 0.0
Mg165 Mg 0.9432 0.01832 0.48772 0.0
Mg166 Mg 0.01222 0.99528 0.49045 0.0
O167 O 0.03165 0.95736 0.46896 0.0
Mg168 Mg 1.00579 0.90637 0.46593 0.0
Mg169 Mg 0.08157 0.97313 0.49259 0.0
C170 C 0.0834 0.04808 0.53487 0.0
C171 C 0.07594 0.03726 0.4402 0.0
O172 O 0.93198 0.0625 0.52467 0.0
O173 O 0.98607 0.10201 0.54423 0.0
O174 O 0.95979 0.06107 0.44674 0.0
O175 O 0.01325 0.10324 0.4609 0.0
O176 O 0.0725 0.07727 0.53117 0.0
O177 O 0.06343 0.01524 0.52556 0.0
C178 C 0.94846 0.9547 0.54121 0.0
O179 O 0.97985 0.95543 0.53098 0.0
O180 O 0.93029 0.97558 0.52846 0.0
O181 O 0.09422 0.93183 0.45451 0.0
O182 O 0.04196 0.89135 0.4322 0.0
O183 O 0.06489 0.92869 0.53206 0.0
C184 C 0.07654 0.9056 0.43295 0.0
O185 O 0.01241 0.88574 0.51592 0.0
O186 O 0.95345 0.91347 0.44653 0.0
C187 C 0.03933 0.89956 0.53767 0.0
O188 O 0.961 0.97489 0.45569 0.0
O189 O 0.04421 0.0355 0.45004 0.0
O190 O 0.0946 0.01693 0.45298 0.0
C191 C 0.42213 0.07799 0.04393 0.0
C192 C 0.43953 0.07051 0.93751 0.0
C193 C 0.44529 0.92466 0.96714 0.0
Mg194 Mg 0.49157 0.0828 0.00438 0.0
O195 O 0.47938 0.03158 0.01126 0.0
Mg196 Mg 0.42835 0.00203 -0.0037 0.0
Mg197 Mg 0.50876 0.99759 -0.00441 0.0
O198 O 0.53813 0.96377 0.97948 0.0
Mg199 Mg 0.526 0.91225 0.98455 0.0
Mg200 Mg 0.58914 0.9933 -0.00576 0.0
C201 C 0.57227 0.07068 0.02344 0.0
C202 C 0.55598 0.037 0.93495 0.0
O203 O 0.40761 0.04536 0.0293 0.0
O204 O 0.4552 0.09652 0.03987 0.0
O205 O 0.42322 0.03836 0.94845 0.0
O206 O 0.46867 0.09128 0.95349 0.0
O207 O 0.55047 0.09091 0.0176 0.0
O208 O 0.56143 0.03469 0.02188 0.0
C209 C 0.4611 0.95885 0.0565 0.0
O210 O 0.49178 0.96486 0.04336 0.0
O211 O 0.43498 0.97 0.04317 0.0
O212 O 0.60983 0.95058 0.96034 0.0
O213 O 0.56309 0.8987 0.94969 0.0
O214 O 0.59399 0.95609 0.04203 0.0
C215 C 0.59601 0.91781 0.94577 0.0
O216 O 0.54873 0.90303 0.03479 0.0
O217 O 0.46694 0.90409 0.972 0.0
C218 C 0.57743 0.92337 0.05173 0.0
O219 O 0.45636 0.9606 0.9693 0.0
O220 O 0.52538 0.03032 0.94818 0.0
O221 O 0.58253 0.02615 0.94767 0.0
C222 C 0.93882 0.59999 0.01312 0.0
C223 C 0.96053 0.56003 0.91695 0.0
C224 C 0.93963 0.42735 0.9738 0.0
Mg225 Mg 1.00639 0.58545 0.98412 0.0
O226 O 0.98681 0.53936 0.00249 0.0
Mg227 Mg 0.93516 0.5121 0.98692 0.0
Mg228 Mg 1.01003 0.49945 0.99335 0.0
O229 O 0.03311 0.45935 0.98442 0.0
Mg230 Mg 0.01349 0.41331 0.00337 0.0
Mg231 Mg 0.08457 0.4868 0.0003 0.0
C232 C 0.08043 0.57149 0.01256 0.0
C233 C 0.06204 0.52149 0.93057 0.0
O234 O 0.92142 0.56537 0.00675 0.0
O235 O 0.97235 0.6136 0.00744 0.0
O236 O 0.93841 0.53564 0.93338 0.0
O237 O 0.99057 0.5803 0.93114 0.0
O238 O 0.06298 0.59367 0.00083 0.0
O239 O 0.06453 0.53682 0.01664 0.0
C240 C 0.95858 0.47758 0.05643 0.0
O241 O 0.98887 0.47732 0.04461 0.0
O242 O 0.93496 0.48964 0.0396 0.0
O243 O 0.09833 0.43366 0.98102 0.0
O244 O 0.04776 0.38502 0.9804 0.0
O245 O 0.0807 0.46359 0.05375 0.0
C246 C 0.08128 0.39895 0.97481 0.0
O247 O 0.02909 0.41838 0.05664 0.0
O248 O 0.95702 0.40524 0.98586 0.0
C249 C 0.05896 0.43932 0.07058 0.0
O250 O 0.95546 0.46212 0.9701 0.0
O251 O 0.03153 0.52173 0.94201 0.0
O252 O 0.08532 0.50924 0.94769 0.0
C253 C 0.44045 0.59156 0.04513 0.0
C254 C 0.48587 0.59926 0.94462 0.0
C255 C 0.45288 0.45078 0.94976 0.0
Mg256 Mg 0.51555 0.59594 0.01864 0.0
O257 O 0.49317 0.54424 0.01575 0.0
Mg258 Mg 0.44523 0.52433 0.98895 0.0
Mg259 Mg 0.5178 0.50898 -0.00246 0.0
O260 O 0.5424 0.47377 0.97938 0.0
Mg261 Mg 0.51893 0.42239 0.97906 0.0
Mg262 Mg 0.59056 0.49358 0.00608 0.0
C263 C 0.58223 0.56694 0.04664 0.0
C264 C 0.58292 0.5548 0.95068 0.0
O265 O 0.42601 0.56418 0.02357 0.0
O266 O 0.47473 0.60799 0.04821 0.0
O267 O 0.46163 0.56864 0.94905 0.0
O268 O 0.51069 0.61501 0.9678 0.0
O269 O 0.56818 0.59404 0.04255 0.0
O270 O 0.56595 0.53358 0.03529 0.0
C271 C 0.45291 0.46411 0.045 0.0
O272 O 0.48583 0.46814 0.03733 0.0
O273 O 0.43291 0.48164 0.02966 0.0
O274 O 0.60871 0.45253 0.97118 0.0
O275 O 0.55868 0.40745 0.95056 0.0
O276 O 0.575 0.44939 0.04644 0.0
C277 C 0.593 0.42349 0.95175 0.0
O278 O 0.5237 0.40493 0.03027 0.0
O279 O 0.46638 0.4235 0.95484 0.0
C280 C 0.55011 0.41975 0.05223 0.0
O281 O 0.46971 0.4844 0.9598 0.0
O282 O 0.54969 0.54972 0.95785 0.0
O283 O 0.603 0.53721 0.96587 0.0
C284 C 0.92309 0.58022 0.54385 0.0
C285 C 0.94601 0.57937 0.43938 0.0
C286 C 0.95342 0.43231 0.46258 0.0
Mg287 Mg 0.99496 0.58797 0.50758 0.0
O288 O 0.98342 0.53635 0.51186 0.0
Mg289 Mg 0.93324 0.50676 0.49418 0.0
Mg290 Mg 0.01461 0.50486 0.49468 0.0
O291 O 0.04593 0.47359 0.47758 0.0
Mg292 Mg 0.03447 0.42197 0.48218 0.0
Mg293 Mg 0.09606 0.50336 0.49568 0.0
C294 C 0.07588 0.57723 0.52679 0.0
C295 C 0.06471 0.55183 0.4392 0.0
O296 O 0.91016 0.54754 0.52877 0.0
O297 O 0.95608 0.59984 0.54104 0.0
O298 O 0.92932 0.54623 0.44794 0.0
O299 O 0.97432 0.59915 0.45718 0.0
O300 O 0.05372 0.59717 0.52163 0.0
O301 O 0.06567 0.54128 0.52414 0.0
C302 C 0.96526 0.45967 0.55142 0.0
O303 O 0.99657 0.46834 0.5394 0.0
O304 O 0.93872 0.4708 0.53902 0.0
O305 O 0.11908 0.46333 0.46032 0.0
O306 O 0.07341 0.4106 0.44863 0.0
O307 O 0.10012 0.46321 0.5415 0.0
C308 C 0.10614 0.43061 0.44531 0.0
O309 O 0.05508 0.41036 0.53251 0.0
O310 O 0.97576 0.41257 0.46779 0.0
C311 C 0.08353 0.43008 0.55016 0.0
O312 O 0.96341 0.46827 0.46561 0.0
O313 O 0.03275 0.54141 0.44985 0.0
O314 O 0.0913 0.54113 0.45216 0.0
C315 C 0.44252 0.10456 0.50415 0.0
C316 C 0.47615 0.07036 0.41123 0.0
C317 C 0.4349 0.93131 0.46183 0.0
Mg318 Mg 0.51216 0.08728 0.48363 0.0
O319 O 0.48645 0.03999 0.49653 0.0
Mg320 Mg 0.43648 0.01719 0.47423 0.0
Mg321 Mg 0.50675 0.99753 0.48993 0.0
O322 O 0.52675 0.95475 0.48376 0.0
Mg323 Mg 0.50079 0.90861 0.49954 0.0
Mg324 Mg 0.57689 0.97789 0.50552 0.0
C325 C 0.57832 0.06414 0.51965 0.0
C326 C 0.56783 0.01778 0.43465 0.0
O327 O 0.42421 0.07127 0.49358 0.0
O328 O 0.47724 0.11639 0.50422 0.0
O329 O 0.45069 0.04507 0.42336 0.0
O330 O 0.50439 0.08846 0.42974 0.0
O331 O 0.56549 0.08946 0.50695 0.0
O332 O 0.55918 0.02991 0.52035 0.0
C333 C 0.44522 0.9758 0.54444 0.0
O334 O 0.47714 0.97516 0.53734 0.0
O335 O 0.42553 0.99019 0.52475 0.0
O336 O 0.5885 0.92315 0.48737 0.0
O337 O 0.53484 0.87832 0.47891 0.0
O338 O 0.5634 0.95194 0.55655 0.0
C339 C 0.56949 0.88974 0.47797 0.0
O340 O 0.50941 0.90928 0.55408 0.0
O341 O 0.44744 0.90657 0.4761 0.0
C342 C 0.53869 0.92801 0.57082 0.0
O343 O 0.45437 0.9652 0.4594 0.0
O344 O 0.53647 0.01981 0.44234 0.0
O345 O 0.58729 0.00316 0.45431 0.0
H346 H 0.21077 0.21905 0.33207 0.0
H347 H 0.1692 0.13218 0.25328 0.0
H348 H 0.17356 0.17978 0.37297 0.0
H349 H 0.13254 0.09266 0.29436 0.0
H350 H 0.11633 0.02115 0.39146 0.0
H351 H 0.14767 0.06123 0.34837 0.0
H352 H 0.10446 0.14906 0.38293 0.0
H353 H 0.07229 0.10831 0.42614 0.0
C354 C 0.19385 0.19148 0.32352 0.0
C355 C 0.19309 0.17862 0.28943 0.0
C356 C 0.17225 0.16916 0.34689 0.0
C357 C 0.14993 0.13316 0.33691 0.0
C358 C 0.14946 0.12023 0.30288 0.0
C359 C 0.1705 0.14282 0.27936 0.0
C360 C 0.11312 0.04889 0.38972 0.0
C361 C 0.09173 0.06151 0.41228 0.0
C362 C 0.13103 0.07181 0.36489 0.0
C363 C 0.12871 0.10838 0.36223 0.0
C364 C 0.10693 0.12104 0.38447 0.0
C365 C 0.08825 0.09765 0.409 0.0
H366 H 0.91742 0.23992 0.30411 0.0
H367 H 0.83811 0.13159 0.29856 0.0
H368 H 0.96176 0.21385 0.33386 0.0
H369 H 0.8812 0.10587 0.32951 0.0
H370 H 0.95938 0.058 0.37722 0.0
H371 H 0.93419 0.08756 0.33111 0.0
H372 H 0.97156 0.19322 0.38865 0.0
H373 H 0.99873 0.16386 0.43347 0.0
C374 C 0.9096 0.21051 0.3092 0.0
C375 C 0.8744 0.18772 0.29935 0.0
C376 C 0.9349 0.19558 0.32629 0.0
C377 C 0.92522 0.1577 0.33415 0.0
C378 C 0.89013 0.13491 0.32329 0.0
C379 C 0.86514 0.14972 0.30588 0.0
C380 C 0.96332 0.08783 0.37924 0.0
C381 C 0.98045 0.10868 0.40889 0.0
C382 C 0.94856 0.10473 0.35308 0.0
C383 C 0.94965 0.14252 0.35665 0.0
C384 C 0.97012 0.16409 0.38489 0.0
C385 C 0.98571 0.1473 0.41069 0.0
H386 H 0.86161 0.87822 0.25926 0.0
H387 H 0.75986 0.83627 0.30476 0.0
H388 H 0.88474 0.92203 0.30811 0.0
H389 H 0.7833 0.87897 0.35467 0.0
H390 H 0.88059 0.88397 0.44186 0.0
H391 H 0.83435 0.8674 0.39441 0.0
H392 H 0.88104 0.97388 0.3512 0.0
H393 H 0.92697 0.99084 0.39943 0.0
C394 C 0.84384 0.87921 0.27934 0.0
C395 C 0.80975 0.85278 0.27949 0.0
C396 C 0.85692 0.9044 0.30722 0.0
C397 C 0.83601 0.90329 0.33548 0.0
C398 C 0.80017 0.87988 0.33349 0.0
C399 C 0.78707 0.85498 0.30545 0.0
C400 C 0.87987 0.90449 0.42308 0.0
C401 C 0.90753 0.93833 0.42386 0.0
C402 C 0.85331 0.89514 0.39596 0.0
C403 C 0.85454 0.91918 0.36888 0.0
C404 C 0.87969 0.95484 0.3717 0.0
C405 C 0.90584 0.96455 0.39933 0.0
H406 H 0.23343 0.89155 0.28994 0.0
H407 H 0.13112 0.82597 0.2399 0.0
H408 H 0.20171 0.91041 0.33509 0.0
H409 H 0.09875 0.8466 0.28431 0.0
H410 H 0.05984 0.84157 0.39227 0.0
H411 H 0.08947 0.83092 0.34144 0.0
H412 H 0.1637 0.94219 0.35583 0.0
H413 H 0.13572 0.95168 0.40736 0.0
C414 C 0.20397 0.8825 0.28783 0.0
C415 C 0.1847 0.85697 0.26172 0.0
C416 C 0.18566 0.89327 0.31384 0.0
C417 C 0.14761 0.8793 0.31385 0.0
C418 C 0.12814 0.85688 0.28568 0.0
C419 C 0.14658 0.84561 0.2599 0.0
C420 C 0.08287 0.86338 0.38473 0.0
C421 C 0.09594 0.89706 0.40414 0.0
C422 C 0.0995 0.85763 0.35531 0.0
C423 C 0.12894 0.88581 0.34433 0.0
C424 C 0.14164 0.91958 0.36375 0.0
C425 C 0.12563 0.92495 0.39347 0.0
H426 H 0.1522 0.77293 0.63327 0.0
H427 H 0.12988 0.82819 0.72355 0.0
H428 H 0.10699 0.79411 0.59963 0.0
H429 H 0.08459 0.84967 0.68974 0.0
H430 H 0.07343 0.92969 0.59859 0.0
H431 H 0.09628 0.89686 0.64347 0.0
H432 H 0.03994 0.79151 0.59102 0.0
H433 H 0.01677 0.82453 0.54597 0.0
C434 C 0.13723 0.78922 0.64595 0.0
C435 C 0.14476 0.79945 0.68078 0.0
C436 C 0.11105 0.80093 0.62683 0.0
C437 C 0.09223 0.8234 0.64217 0.0
C438 C 0.09874 0.83235 0.67737 0.0
C439 C 0.12466 0.82021 0.69661 0.0
C440 C 0.06495 0.89947 0.59724 0.0
C441 C 0.04394 0.8796 0.56861 0.0
C442 C 0.07784 0.88066 0.62302 0.0
C443 C 0.07028 0.84171 0.62037 0.0
C444 C 0.0464 0.82161 0.59339 0.0
C445 C 0.03301 0.84046 0.56777 0.0
H446 H 0.20219 0.11396 0.72611 0.0
H447 H 0.21608 0.20357 0.65667 0.0
H448 H 0.18416 0.06849 0.67763 0.0
H449 H 0.19652 0.15942 0.60908 0.0
H450 H 0.15214 0.08963 0.52487 0.0
H451 H 0.19968 0.11478 0.57041 0.0
H452 H 0.13279 0.04509 0.64175 0.0
H453 H 0.08777 0.01753 0.59543 0.0
C454 C 0.20148 0.12382 0.70047 0.0
C455 C 0.20991 0.16209 0.69504 0.0
C456 C 0.19121 0.0979 0.67268 0.0
C457 C 0.18851 0.10994 0.63913 0.0
C458 C 0.19886 0.14853 0.63408 0.0
C459 C 0.20958 0.17415 0.66161 0.0
C460 C 0.14882 0.07844 0.55 0.0
C461 C 0.11637 0.05231 0.55708 0.0
C462 C 0.17567 0.09316 0.57628 0.0
C463 C 0.16925 0.08367 0.61028 0.0
C464 C 0.13884 0.05364 0.61618 0.0
C465 C 0.11278 0.03778 0.58958 0.0
H466 H 0.89507 0.19492 0.72356 0.0
H467 H 0.79975 0.10335 0.69403 0.0
H468 H 0.9272 0.17539 0.67892 0.0
H469 H 0.83259 0.08209 0.65045 0.0
H470 H 0.87988 0.08676 0.54733 0.0
H471 H 0.85064 0.1022 0.59653 0.0
H472 H 0.95444 0.13377 0.65565 0.0
H473 H 0.98371 0.12053 0.60604 0.0
C474 C 0.8815 0.16967 0.70836 0.0
C475 C 0.84491 0.15076 0.71194 0.0
C476 C 0.89991 0.15842 0.68266 0.0
C477 C 0.88225 0.12758 0.6605 0.0
C478 C 0.84662 0.10669 0.6663 0.0
C479 C 0.82799 0.11841 0.69162 0.0
C480 C 0.89641 0.09758 0.57073 0.0
C481 C 0.93407 0.10283 0.57273 0.0
C482 C 0.87964 0.10586 0.59913 0.0
C483 C 0.90009 0.11879 0.6303 0.0
C484 C 0.93786 0.12437 0.63204 0.0
C485 C 0.95468 0.11686 0.60349 0.0
H486 H 0.88441 0.79285 0.70129 0.0
H487 H 0.79655 0.84236 0.68723 0.0
H488 H 0.91736 0.83255 0.65899 0.0
H489 H 0.82806 0.88041 0.64297 0.0
H490 H 0.90414 0.9694 0.58703 0.0
H491 H 0.87435 0.93088 0.63123 0.0
H492 H 0.92437 0.84586 0.60253 0.0
H493 H 0.95605 0.88604 0.55924 0.0
C494 C 0.87191 0.81209 0.6889 0.0
C495 C 0.83768 0.81434 0.69771 0.0
C496 C 0.89075 0.83471 0.66419 0.0
C497 C 0.87575 0.86005 0.64702 0.0
C498 C 0.84122 0.862 0.65581 0.0
C499 C 0.82269 0.83976 0.68102 0.0
C500 C 0.90896 0.94251 0.59019 0.0
C501 C 0.9324 0.93079 0.56934 0.0
C502 C 0.89144 0.92006 0.6155 0.0
C503 C 0.89604 0.88456 0.62054 0.0
C504 C 0.92013 0.87304 0.59997 0.0
C505 C 0.93834 0.89602 0.57493 0.0
H506 H 0.34132 0.17522 0.21541 0.0
H507 H 0.26849 0.18579 0.13051 0.0
H508 H 0.37225 0.14388 0.17778 0.0
H509 H 0.29949 0.15351 0.09268 0.0
H510 H 0.34737 0.06022 0.0462 0.0
H511 H 0.31247 0.08934 0.08255 0.0
H512 H 0.41248 0.16339 0.12904 0.0
H513 H 0.44721 0.13495 0.0926 0.0
C514 C 0.33149 0.17054 0.18876 0.0
C515 C 0.30216 0.18324 0.17621 0.0
C516 C 0.34953 0.15267 0.16706 0.0
C517 C 0.33865 0.14626 0.13204 0.0
C518 C 0.30858 0.15781 0.11952 0.0
C519 C 0.29081 0.17639 0.14123 0.0
C520 C 0.36194 0.0827 0.06419 0.0
C521 C 0.40028 0.09504 0.06634 0.0
C522 C 0.34187 0.09957 0.0849 0.0
C523 C 0.35955 0.12873 0.1089 0.0
C524 C 0.39784 0.14085 0.11113 0.0
C525 C 0.41782 0.12455 0.09005 0.0
H526 H 0.88732 0.32287 0.21657 0.0
H527 H 0.79754 0.35882 0.17271 0.0
H528 H 0.92963 0.37104 0.187 0.0
H529 H 0.83985 0.40648 0.14285 0.0
H530 H 0.97054 0.41445 0.08038 0.0
H531 H 0.94056 0.3781 0.12603 0.0
H532 H 0.8904 0.4644 0.14968 0.0
H533 H 0.92083 0.50085 0.10384 0.0
C534 C 0.87659 0.34116 0.20083 0.0
C535 C 0.83898 0.33676 0.19667 0.0
C536 C 0.90088 0.36874 0.18395 0.0
C537 C 0.88805 0.3925 0.16273 0.0
C538 C 0.8506 0.38895 0.15952 0.0
C539 C 0.8263 0.36135 0.17632 0.0
C540 C 0.95473 0.42649 0.09642 0.0
C541 C 0.94822 0.46045 0.08881 0.0
C542 C 0.93721 0.40554 0.12244 0.0
C543 C 0.91276 0.41826 0.14108 0.0
C544 C 0.90865 0.45371 0.13529 0.0
C545 C 0.92615 0.47459 0.10925 0.0
H546 H 0.69786 0.78109 0.14004 0.0
H547 H 0.69172 0.84805 0.22908 0.0
H548 H 0.66199 0.81342 0.10576 0.0
H549 H 0.65659 0.88137 0.19427 0.0
H550 H 0.63424 0.95679 0.10021 0.0
H551 H 0.66721 0.92591 0.13996 0.0
H552 H 0.59519 0.81888 0.10466 0.0
H553 H 0.56172 0.84933 0.06599 0.0
C554 C 0.68898 0.8028 0.15237 0.0
C555 C 0.69775 0.81169 0.18753 0.0
C556 C 0.66825 0.82133 0.13264 0.0
C557 C 0.65627 0.85014 0.1471 0.0
C558 C 0.6654 0.85948 0.18217 0.0
C559 C 0.68539 0.84019 0.2022 0.0
C560 C 0.62492 0.92673 0.10139 0.0
C561 C 0.59497 0.90584 0.07968 0.0
C562 C 0.64392 0.90898 0.12421 0.0
C563 C 0.63415 0.86976 0.12541 0.0
C564 C 0.60377 0.84904 0.10434 0.0
C565 C 0.58433 0.86671 0.08222 0.0
H566 H 0.20142 0.66241 0.18038 0.0
H567 H 0.24946 0.7467 0.11085 0.0
H568 H 0.18039 0.61709 0.13361 0.0
H569 H 0.23047 0.70039 0.06326 0.0
H570 H 0.12389 0.63972 -0.00114 0.0
H571 H 0.17585 0.67593 0.03402 0.0
H572 H 0.17889 0.57751 0.08826 0.0
H573 H 0.12429 0.54165 0.05424 0.0
C574 C 0.20849 0.6709 0.15497 0.0
C575 C 0.22611 0.70821 0.14898 0.0
C576 C 0.19681 0.64463 0.12792 0.0
C577 C 0.20287 0.65493 0.09412 0.0
C578 C 0.22407 0.69159 0.0887 0.0
C579 C 0.23505 0.71819 0.11587 0.0
C580 C 0.13598 0.62551 0.01786 0.0
C581 C 0.11883 0.58833 0.02505 0.0
C582 C 0.16643 0.64634 0.03795 0.0
C583 C 0.18083 0.63026 0.06537 0.0
C584 C 0.16741 0.59136 0.06853 0.0
C585 C 0.1363 0.57059 0.04878 0.0
H586 H 0.24041 0.83904 0.84282 0.0
H587 H 0.31611 0.77509 0.83012 0.0
H588 H 0.27689 0.87082 0.89425 0.0
H589 H 0.35235 0.80628 0.88107 0.0
H590 H 0.39663 0.95321 0.93156 0.0
H591 H 0.34116 0.9168 0.89896 0.0
H592 H 0.35226 0.81656 0.94458 0.0
H593 H 0.40781 0.85271 0.97686 0.0
C594 C 0.26445 0.83129 0.85148 0.0
C595 C 0.27607 0.80517 0.83243 0.0
C596 C 0.28524 0.84944 0.88075 0.0
C597 C 0.31733 0.84095 0.89163 0.0
C598 C 0.32749 0.8131 0.87357 0.0
C599 C 0.30712 0.79556 0.84415 0.0
C600 C 0.38651 0.92363 0.93555 0.0
C601 C 0.40707 0.90556 0.95586 0.0
C602 C 0.35466 0.90281 0.91699 0.0
C603 C 0.34302 0.86379 0.91874 0.0
C604 C 0.36114 0.84652 0.94232 0.0
C605 C 0.39295 0.86723 0.96071 0.0
H606 H 0.23461 0.30111 0.88337 0.0
H607 H 0.12923 0.24749 0.832 0.0
H608 H 0.20613 0.32985 0.92565 0.0
H609 H 0.10069 0.2772 0.87361 0.0
H610 H 0.0566 0.32339 0.96222 0.0
H611 H 0.08644 0.28402 0.93223 0.0
H612 H 0.17866 0.37999 0.92143 0.0
H613 H 0.14941 0.4191 0.95201 0.0
C614 C 0.20527 0.29513 0.88144 0.0
C615 C 0.18403 0.27252 0.85435 0.0
C616 C 0.18901 0.31171 0.9055 0.0
C617 C 0.15126 0.30626 0.90265 0.0
C618 C 0.12982 0.28173 0.87665 0.0
C619 C 0.14611 0.26487 0.85273 0.0
C620 C 0.08343 0.33602 0.95377 0.0
C621 C 0.1005 0.37448 0.95924 0.0
C622 C 0.10044 0.31345 0.93653 0.0
C623 C 0.13481 0.3289 0.92438 0.0
C624 C 0.15239 0.36709 0.93092 0.0
C625 C 0.13548 0.38961 0.94824 0.0
H626 H 0.70179 0.12763 0.79758 0.0
H627 H 0.64811 0.21446 0.80087 0.0
H628 H 0.65432 0.08786 0.82835 0.0
H629 H 0.59956 0.17384 0.83099 0.0
H630 H 0.5638 0.11071 0.93158 0.0
H631 H 0.59384 0.1503 0.88737 0.0
H632 H 0.59249 0.05191 0.82656 0.0
H633 H 0.56439 0.01281 0.87185 0.0
C634 C 0.67954 0.13805 0.80442 0.0
C635 C 0.67892 0.17432 0.79706 0.0
C636 C 0.65197 0.11502 0.82174 0.0
C637 C 0.62289 0.12753 0.83187 0.0
C638 C 0.62172 0.16349 0.82371 0.0
C639 C 0.64954 0.18673 0.80651 0.0
C640 C 0.56883 0.09779 0.90814 0.0
C641 C 0.56222 0.05909 0.9048 0.0
C642 C 0.58596 0.12033 0.88279 0.0
C643 C 0.59633 0.10421 0.85381 0.0
C644 C 0.58575 0.06515 0.84902 0.0
C645 C 0.56934 0.04275 0.87464 0.0
H646 H 0.88751 0.71989 0.80242 0.0
H647 H 0.79882 0.64609 0.8507 0.0
H648 H 0.92408 0.67761 0.81274 0.0
H649 H 0.83635 0.60509 0.86416 0.0
H650 H 0.89694 0.52682 0.8783 0.0
H651 H 0.86296 0.56125 0.84501 0.0
H652 H 0.95745 0.65807 0.85345 0.0
H653 H 0.99177 0.62293 0.88382 0.0
C654 C 0.87637 0.69511 0.81637 0.0
C655 C 0.84075 0.68644 0.82649 0.0
C656 C 0.89724 0.67067 0.82212 0.0
C657 C 0.88334 0.63758 0.83915 0.0
C658 C 0.84779 0.62959 0.85003 0.0
C659 C 0.8265 0.65349 0.8432 0.0
C660 C 0.91086 0.55492 0.87159 0.0
C661 C 0.94646 0.57277 0.88512 0.0
C662 C 0.89117 0.57496 0.85309 0.0
C663 C 0.90667 0.61321 0.84836 0.0
C664 C 0.94409 0.62895 0.857 0.0
C665 C 0.96398 0.60863 0.87463 0.0
H666 H 0.21245 0.36895 0.20026 0.0
H667 H 0.13571 0.2748 0.14553 0.0
H668 H 0.17294 0.40762 0.1869 0.0
H669 H 0.09681 0.3142 0.13006 0.0
H670 H 0.12554 0.47039 0.104 0.0
H671 H 0.15764 0.43646 0.13908 0.0
H672 H 0.05741 0.34904 0.14729 0.0
H673 H 0.02531 0.38255 0.11061 0.0
C674 C 0.18727 0.3567 0.18482 0.0
C675 C 0.17734 0.31913 0.17323 0.0
C676 C 0.16453 0.37885 0.17731 0.0
C677 C 0.13171 0.3642 0.15731 0.0
C678 C 0.12156 0.3263 0.14611 0.0
C679 C 0.14405 0.30384 0.15434 0.0
C680 C 0.10997 0.44458 0.1142 0.0
C681 C 0.07325 0.42831 0.10317 0.0
C682 C 0.12847 0.42498 0.1345 0.0
C683 C 0.11036 0.38917 0.14479 0.0
C684 C 0.0724 0.37585 0.13849 0.0
C685 C 0.05391 0.39533 0.11784 0.0
H686 H 0.22762 0.6502 0.82488 0.0
H687 H 0.13745 0.67769 0.7715 0.0
H688 H 0.18498 0.60171 0.85381 0.0
H689 H 0.09487 0.6289 0.80037 0.0
H690 H 0.10473 0.50174 0.88585 0.0
H691 H 0.13732 0.54058 0.84249 0.0
H692 H 0.07936 0.62147 0.86134 0.0
H693 H 0.0472 0.58281 0.90474 0.0
C694 C 0.19875 0.64575 0.81916 0.0
C695 C 0.18593 0.66791 0.7961 0.0
C696 C 0.17433 0.61771 0.83542 0.0
C697 C 0.13664 0.61143 0.82906 0.0
C698 C 0.12379 0.63323 0.80569 0.0
C699 C 0.14821 0.66112 0.78923 0.0
C700 C 0.09819 0.5273 0.87994 0.0
C701 C 0.0734 0.53935 0.89864 0.0
C702 C 0.11695 0.54955 0.85531 0.0
C703 C 0.11126 0.58425 0.84905 0.0
C704 C 0.08409 0.59471 0.86551 0.0
C705 C 0.06535 0.57241 0.89021 0.0
H706 H 0.28025 0.16509 0.83743 0.0
H707 H 0.36735 0.19614 0.77035 0.0
H708 H 0.31434 0.13103 0.87149 0.0
H709 H 0.40179 0.16218 0.80483 0.0
H710 H 0.46717 0.13442 0.90227 0.0
H711 H 0.43429 0.1651 0.86275 0.0
H712 H 0.33628 0.07509 0.86977 0.0
H713 H 0.36907 0.04429 0.90896 0.0
C714 C 0.30667 0.16466 0.82978 0.0
C715 C 0.32078 0.18361 0.80086 0.0
C716 C 0.32626 0.1448 0.84935 0.0
C717 C 0.36105 0.14352 0.84114 0.0
C718 C 0.37527 0.16254 0.81225 0.0
C719 C 0.35535 0.18194 0.79227 0.0
C720 C 0.43876 0.12073 0.89497 0.0
C721 C 0.42108 0.08657 0.90908 0.0
C722 C 0.4198 0.13844 0.87217 0.0
C723 C 0.38229 0.123 0.86307 0.0
C724 C 0.36492 0.08831 0.87637 0.0
C725 C 0.38397 0.07033 0.89871 0.0
H726 H 0.77697 0.25055 0.86904 0.0
H727 H 0.82425 0.33643 0.80072 0.0
H728 H 0.79443 0.29619 0.91713 0.0
H729 H 0.84453 0.38119 0.8482 0.0
H730 H 0.89727 0.45658 0.92979 0.0
H731 H 0.84494 0.42005 0.89331 0.0
H732 H 0.84669 0.32184 0.94854 0.0
H733 H 0.89607 0.35874 0.9861 0.0
C734 C 0.79115 0.27926 0.86447 0.0
C735 C 0.80011 0.28995 0.83154 0.0
C736 C 0.80131 0.3055 0.89194 0.0
C737 C 0.82199 0.34252 0.8871 0.0
C738 C 0.82848 0.35338 0.85348 0.0
C739 C 0.81732 0.32747 0.82605 0.0
C740 C 0.88535 0.42752 0.93489 0.0
C741 C 0.90181 0.41011 0.95974 0.0
C742 C 0.85562 0.40632 0.91366 0.0
C743 C 0.84263 0.36732 0.91647 0.0
C744 C 0.85581 0.35147 0.94477 0.0
C745 C 0.88477 0.37274 0.96634 0.0
H746 H 0.72122 0.86265 0.7835 0.0
H747 H 0.71665 0.77589 0.85467 0.0
H748 H 0.68907 0.8925 0.82176 0.0
H749 H 0.68392 0.80552 0.89277 0.0
H750 H 0.58506 0.84407 0.9266 0.0
H751 H 0.62176 0.81646 0.89155 0.0
H752 H 0.69543 0.92561 0.88006 0.0
H753 H 0.65897 0.95332 0.91568 0.0
C754 C 0.71377 0.85013 0.80752 0.0
C755 C 0.72196 0.81692 0.816 0.0
C756 C 0.69532 0.86735 0.82954 0.0
C757 C 0.68367 0.85151 0.86046 0.0
C758 C 0.6922 0.81849 0.86914 0.0
C759 C 0.71135 0.80165 0.8474 0.0
C760 C 0.6091 0.86232 0.91671 0.0
C761 C 0.61883 0.90111 0.92412 0.0
C762 C 0.63036 0.84636 0.89672 0.0
C763 C 0.66174 0.86866 0.88288 0.0
C764 C 0.6714 0.90749 0.89008 0.0
C765 C 0.65051 0.92341 0.91067 0.0
H766 H 0.89466 0.74861 0.16028 0.0
H767 H 0.79057 0.7077 0.10281 0.0
H768 H 0.92188 0.71726 0.11889 0.0
H769 H 0.81787 0.67671 0.06105 0.0
H770 H 0.86943 0.58183 0.03352 0.0
H771 H 0.84129 0.62189 0.06469 0.0
H772 H 0.93764 0.71472 0.05936 0.0
H773 H 0.96611 0.67473 0.02865 0.0
C774 C 0.87785 0.73359 0.13836 0.0
C775 C 0.84059 0.73032 0.13473 0.0
C776 C 0.89341 0.71578 0.11459 0.0
C777 C 0.87189 0.69433 0.08689 0.0
C778 C 0.83495 0.69267 0.0824 0.0
C779 C 0.81943 0.71059 0.10613 0.0
C780 C 0.88449 0.61087 0.03864 0.0
C781 C 0.92019 0.62492 0.02896 0.0
C782 C 0.86825 0.63389 0.05628 0.0
C783 C 0.88739 0.67137 0.06457 0.0
C784 C 0.92247 0.68581 0.05368 0.0
C785 C 0.9387 0.66285 0.03603 0.0
H786 H 0.3587 0.86166 0.23271 0.0
H787 H 0.35238 0.77373 0.15739 0.0
H788 H 0.40807 0.90318 0.20443 0.0
H789 H 0.40054 0.81582 0.12786 0.0
H790 H 0.48462 0.89927 0.07599 0.0
H791 H 0.46171 0.85797 0.12224 0.0
H792 H 0.39887 0.93112 0.15216 0.0
H793 H 0.42186 0.97176 0.10695 0.0
C794 C 0.36827 0.85117 0.21027 0.0
C795 C 0.35131 0.815 0.19658 0.0
C796 C 0.39655 0.87483 0.19415 0.0
C797 C 0.40759 0.86309 0.16345 0.0
C798 C 0.39279 0.82571 0.15153 0.0
C799 C 0.36497 0.8017 0.16819 0.0
C800 C 0.4668 0.90684 0.09327 0.0
C801 C 0.45446 0.93821 0.0878 0.0
C802 C 0.45355 0.8832 0.11953 0.0
C803 C 0.42831 0.89112 0.14075 0.0
C804 C 0.4186 0.92428 0.13671 0.0
C805 C 0.43146 0.94746 0.11051 0.0
H806 H 0.784 0.17726 0.13843 0.0
H807 H 0.68966 0.20137 0.17596 0.0
H808 H 0.74611 0.14286 0.08848 0.0
H809 H 0.65277 0.16895 0.12575 0.0
H810 H 0.6077 0.14415 0.01809 0.0
H811 H 0.66153 0.18007 0.05289 0.0
H812 H 0.67674 0.07859 0.0919 0.0
H813 H 0.62226 0.04213 0.05744 0.0
C814 C 0.75546 0.17586 0.13565 0.0
C815 C 0.73975 0.19234 0.16077 0.0
C816 C 0.73395 0.15623 0.10725 0.0
C817 C 0.69687 0.15381 0.10341 0.0
C818 C 0.68151 0.17101 0.12809 0.0
C819 C 0.70264 0.1897 0.15669 0.0
C820 C 0.62304 0.12927 0.03326 0.0
C821 C 0.61015 0.09037 0.03581 0.0
C822 C 0.65396 0.14989 0.05293 0.0
C823 C 0.6728 0.13194 0.07505 0.0
C824 C 0.66258 0.09284 0.07473 0.0
C825 C 0.63137 0.07207 0.05512 0.0
H826 H 0.64203 0.71986 0.79308 0.0
H827 H 0.71416 0.65117 0.78438 0.0
H828 H 0.61398 0.68337 0.83974 0.0
H829 H 0.68564 0.61388 0.83078 0.0
H830 H 0.65422 0.57901 0.93685 0.0
H831 H 0.68104 0.61638 0.8906 0.0
H832 H 0.57523 0.62475 0.85486 0.0
H833 H 0.54829 0.58767 0.90204 0.0
C834 C 0.65174 0.69669 0.80101 0.0
C835 C 0.68047 0.6885 0.78508 0.0
C836 C 0.63546 0.67557 0.82773 0.0
C837 C 0.64735 0.64549 0.83931 0.0
C838 C 0.67602 0.63716 0.82309 0.0
C839 C 0.69241 0.65845 0.79637 0.0
C840 C 0.6365 0.58886 0.91928 0.0
C841 C 0.59891 0.5801 0.92332 0.0
C842 C 0.65198 0.61015 0.89242 0.0
C843 C 0.63044 0.62338 0.86847 0.0
C844 C 0.59287 0.61534 0.87284 0.0
C845 C 0.57732 0.59401 0.89994 0.0
H846 H 0.33838 0.63927 0.80224 0.0
H847 H 0.4137 0.74984 0.81185 0.0
H848 H 0.38255 0.61482 0.83302 0.0
H849 H 0.45916 0.72518 0.84146 0.0
H850 H 0.49622 0.67368 0.94003 0.0
H851 H 0.46872 0.70307 0.89561 0.0
H852 H 0.43723 0.59941 0.83484 0.0
H853 H 0.46284 0.5696 0.88052 0.0
C854 C 0.36477 0.65821 0.81046 0.0
C855 C 0.37257 0.69642 0.80508 0.0
C856 C 0.3904 0.64416 0.82775 0.0
C857 C 0.4247 0.66795 0.83966 0.0
C858 C 0.43293 0.70611 0.83303 0.0
C859 C 0.40698 0.72025 0.81606 0.0
C860 C 0.48448 0.65759 0.91667 0.0
C861 C 0.48089 0.61928 0.91386 0.0
C862 C 0.46868 0.67443 0.89108 0.0
C863 C 0.44966 0.65329 0.86202 0.0
C864 C 0.45042 0.61614 0.85745 0.0
C865 C 0.46542 0.59912 0.88338 0.0
H866 H 0.32422 0.3841 0.76003 0.0
H867 H 0.31166 0.29262 0.82723 0.0
H868 H 0.34791 0.42833 0.8088 0.0
H869 H 0.33676 0.33552 0.87498 0.0
H870 H 0.38544 0.40633 0.95998 0.0
H871 H 0.33712 0.37999 0.91535 0.0
H872 H 0.40157 0.44922 0.84217 0.0
H873 H 0.44753 0.47779 0.88764 0.0
C874 C 0.3264 0.37358 0.78527 0.0
C875 C 0.31646 0.33512 0.78995 0.0
C876 C 0.33998 0.39879 0.81321 0.0
C877 C 0.34455 0.38579 0.84612 0.0
C878 C 0.333 0.34711 0.85054 0.0
C879 C 0.31893 0.32222 0.82291 0.0
C880 C 0.38817 0.41692 0.93458 0.0
C881 C 0.42 0.44355 0.92683 0.0
C882 C 0.36087 0.40155 0.90884 0.0
C883 C 0.36605 0.4111 0.87466 0.0
C884 C 0.39635 0.44086 0.86794 0.0
C885 C 0.42293 0.45724 0.89399 0.0
H886 H 0.75045 0.38167 0.81956 0.0
H887 H 0.64579 0.33216 0.76516 0.0
H888 H 0.72143 0.40599 0.86406 0.0
H889 H 0.61659 0.35783 0.80923 0.0
H890 H 0.57479 0.35729 0.91489 0.0
H891 H 0.60529 0.34092 0.86711 0.0
H892 H 0.68801 0.44708 0.8814 0.0
H893 H 0.65819 0.46295 0.9299 0.0
C894 C 0.72129 0.37708 0.81658 0.0
C895 C 0.70021 0.35474 0.78921 0.0
C896 C 0.70464 0.39104 0.84211 0.0
C897 C 0.66664 0.38316 0.84052 0.0
C898 C 0.64588 0.36348 0.81157 0.0
C899 C 0.66256 0.34924 0.78612 0.0
C900 C 0.59975 0.37692 0.9081 0.0
C901 C 0.61414 0.41134 0.92621 0.0
C902 C 0.61693 0.36779 0.88041 0.0
C903 C 0.64867 0.39303 0.87006 0.0
C904 C 0.66365 0.427 0.88881 0.0
C905 C 0.64665 0.43599 0.91672 0.0
H906 H 0.64386 0.33609 0.23029 0.0
H907 H 0.64948 0.27398 0.13776 0.0
H908 H 0.60198 0.36498 0.20001 0.0
H909 H 0.60751 0.30255 0.10761 0.0
H910 H 0.52058 0.34571 0.06262 0.0
H911 H 0.54314 0.30953 0.105 0.0
H912 H 0.61521 0.41119 0.15266 0.0
H913 H 0.59294 0.44736 0.11036 0.0
C914 C 0.63563 0.32819 0.20364 0.0
C915 C 0.65008 0.3032 0.18615 0.0
C916 C 0.6117 0.34465 0.1864 0.0
C917 C 0.60147 0.3359 0.15156 0.0
C918 C 0.61454 0.3094 0.1346 0.0
C919 C 0.63881 0.29334 0.15171 0.0
C920 C 0.54036 0.36043 0.08279 0.0
C921 C 0.55558 0.39931 0.08277 0.0
C922 C 0.55338 0.33968 0.10691 0.0
C923 C 0.5813 0.35756 0.13167 0.0
C924 C 0.59365 0.39669 0.13385 0.0
C925 C 0.58101 0.41739 0.10952 0.0
H926 H 0.66741 0.62914 0.2362 0.0
H927 H 0.76497 0.67728 0.18584 0.0
H928 H 0.64261 0.58715 0.18634 0.0
H929 H 0.7399 0.63636 0.13524 0.0
H930 H 0.63881 0.63008 0.05288 0.0
H931 H 0.68519 0.64782 0.10023 0.0
H932 H 0.64645 0.53795 0.13956 0.0
H933 H 0.60038 0.51985 0.09145 0.0
C934 C 0.68403 0.62978 0.21487 0.0
C935 C 0.7173 0.65736 0.21385 0.0
C936 C 0.66997 0.6057 0.18638 0.0
C937 C 0.6891 0.60914 0.15672 0.0
C938 C 0.72439 0.63362 0.15758 0.0
C939 C 0.73845 0.6574 0.18614 0.0
C940 C 0.64115 0.60931 0.0709 0.0
C941 C 0.61586 0.57387 0.06889 0.0
C942 C 0.66782 0.61932 0.09789 0.0
C943 C 0.66911 0.59428 0.12367 0.0
C944 C 0.6459 0.5577 0.12 0.0
C945 C 0.61969 0.54739 0.09247 0.0
H946 H 0.36957 0.66046 0.23379 0.0
H947 H 0.27013 0.61062 0.17123 0.0
H948 H 0.40408 0.64004 0.19113 0.0
H949 H 0.30441 0.5917 0.12813 0.0
H950 H 0.37504 0.54731 0.06173 0.0
H951 H 0.3414 0.55573 0.10987 0.0
H952 H 0.42021 0.66244 0.13601 0.0
H953 H 0.45491 0.6532 0.0885 0.0
C954 C 0.35504 0.64423 0.21138 0.0
C955 C 0.31734 0.63743 0.20553 0.0
C956 C 0.3748 0.63308 0.18671 0.0
C957 C 0.35711 0.61521 0.15581 0.0
C958 C 0.31896 0.60539 0.15159 0.0
C959 C 0.29924 0.61619 0.17635 0.0
C960 C 0.385 0.57286 0.07743 0.0
C961 C 0.41754 0.59979 0.07114 0.0
C962 C 0.36575 0.57756 0.10518 0.0
C963 C 0.37827 0.60954 0.12702 0.0
C964 C 0.41031 0.63699 0.12019 0.0
C965 C 0.42989 0.63203 0.09266 0.0
H966 H 0.36126 0.38039 0.23621 0.0
H967 H 0.32525 0.28759 0.16249 0.0
H968 H 0.39723 0.41812 0.19348 0.0
H969 H 0.36189 0.32491 0.12024 0.0
H970 H 0.46267 0.39731 0.0662 0.0
H971 H 0.43218 0.35913 0.11184 0.0
H972 H 0.37848 0.44243 0.13496 0.0
H973 H 0.40789 0.47977 0.08934 0.0
C974 C 0.36112 0.36805 0.21096 0.0
C975 C 0.34019 0.33114 0.20269 0.0
C976 C 0.38177 0.38957 0.18654 0.0
C977 C 0.38264 0.37437 0.15356 0.0
C978 C 0.36214 0.33726 0.14551 0.0
C979 C 0.34087 0.31604 0.16964 0.0
C980 C 0.44461 0.40749 0.08125 0.0
C981 C 0.43755 0.44143 0.07398 0.0
C982 C 0.42702 0.38561 0.10723 0.0
C983 C 0.40292 0.39782 0.127 0.0
C984 C 0.397 0.43234 0.12039 0.0
C985 C 0.41374 0.45361 0.09407 0.0
H986 H 0.80088 0.72475 0.62769 0.0
H987 H 0.79016 0.6369 0.69862 0.0
H988 H 0.83417 0.69399 0.5912 0.0
H989 H 0.82292 0.60598 0.66203 0.0
H990 H 0.85801 0.54487 0.5711 0.0
H991 H 0.81987 0.57302 0.60434 0.0
H992 H 0.89535 0.68174 0.59536 0.0
H993 H 0.93355 0.65379 0.56277 0.0
C994 C 0.80493 0.69851 0.63521 0.0
C995 C 0.79251 0.68334 0.66614 0.0
C996 C 0.82439 0.681 0.61442 0.0
C997 C 0.83148 0.64739 0.62357 0.0
C998 C 0.81786 0.63157 0.65388 0.0
C999 C 0.79906 0.64943 0.67496 0.0
C1000 C 0.8665 0.57477 0.5762 0.0
C1001 C 0.89915 0.59684 0.5642 0.0
C1002 C 0.84463 0.59096 0.59539 0.0
C1003 C 0.85429 0.62983 0.60255 0.0
C1004 C 0.88667 0.65185 0.59015 0.0
C1005 C 0.90882 0.63565 0.57159 0.0
H1006 H 0.37534 0.81213 0.69342 0.0
H1007 H 0.30087 0.87885 0.69918 0.0
H1008 H 0.41218 0.85715 0.65682 0.0
H1009 H 0.33858 0.92489 0.66414 0.0
H1010 H 0.37441 0.95793 0.55843 0.0
H1011 H 0.34623 0.92345 0.60527 0.0
H1012 H 0.45123 0.9181 0.64725 0.0
H1013 H 0.47966 0.95226 0.59923 0.0
C1014 C 0.36741 0.83695 0.68755 0.0
C1015 C 0.33495 0.84176 0.69846 0.0
C1016 C 0.38864 0.86288 0.66678 0.0
C1017 C 0.37799 0.89431 0.65706 0.0
C1018 C 0.34698 0.90043 0.67034 0.0
C1019 C 0.32542 0.87417 0.69048 0.0
C1020 C 0.39171 0.94989 0.57779 0.0
C1021 C 0.42928 0.95757 0.57493 0.0
C1022 C 0.37551 0.9303 0.60493 0.0
C1023 C 0.39645 0.91816 0.63022 0.0
C1024 C 0.43428 0.92675 0.62799 0.0
C1025 C 0.45056 0.94628 0.60053 0.0
H1026 H 0.19408 0.34836 0.72669 0.0
H1027 H 0.2031 0.28546 0.63595 0.0
H1028 H 0.15986 0.38309 0.69239 0.0
H1029 H 0.16818 0.3191 0.6022 0.0
H1030 H 0.06839 0.35539 0.56177 0.0
H1031 H 0.10124 0.32385 0.59999 0.0
H1032 H 0.17139 0.43005 0.63963 0.0
H1033 H 0.13907 0.46207 0.60036 0.0
C1034 C 0.18868 0.34175 0.69953 0.0
C1035 C 0.20159 0.31396 0.68427 0.0
C1036 C 0.16917 0.36183 0.6798 0.0
C1037 C 0.16104 0.35397 0.64438 0.0
C1038 C 0.17364 0.32592 0.62933 0.0
C1039 C 0.19389 0.30664 0.64878 0.0
C1040 C 0.09045 0.37234 0.57886 0.0
C1041 C 0.10073 0.41161 0.57769 0.0
C1042 C 0.10955 0.35405 0.60073 0.0
C1043 C 0.13923 0.3742 0.62294 0.0
C1044 C 0.14864 0.41351 0.62303 0.0
C1045 C 0.13001 0.43191 0.60046 0.0
H1046 H 0.71408 0.24426 0.62278 0.0
H1047 H 0.72984 0.15934 0.68916 0.0
H1048 H 0.68773 0.1969 0.57773 0.0
H1049 H 0.7063 0.11208 0.64341 0.0
H1050 H 0.63829 0.11428 0.49912 0.0
H1051 H 0.68923 0.1515 0.53677 0.0
H1052 H 0.6479 0.08241 0.62023 0.0
H1053 H 0.59866 0.04412 0.5819 0.0
C1054 C 0.71299 0.21556 0.62733 0.0
C1055 C 0.72382 0.20544 0.65948 0.0
C1056 C 0.69828 0.1883 0.60135 0.0
C1057 C 0.69459 0.15035 0.60685 0.0
C1058 C 0.70807 0.14081 0.63836 0.0
C1059 C 0.72206 0.168 0.66451 0.0
C1060 C 0.64124 0.1062 0.52519 0.0
C1061 C 0.61445 0.07687 0.53792 0.0
C1062 C 0.6701 0.12777 0.5469 0.0
C1063 C 0.67198 0.12099 0.5819 0.0
C1064 C 0.6475 0.08872 0.59351 0.0
C1065 C 0.61913 0.06659 0.57154 0.0
H1066 H 0.82901 0.2799 0.3234 0.0
H1067 H 0.74622 0.3336 0.34202 0.0
H1068 H 0.86649 0.31443 0.37255 0.0
H1069 H 0.78429 0.3691 0.39115 0.0
H1070 H 0.91797 0.35987 0.47198 0.0
H1071 H 0.86404 0.32182 0.43866 0.0
H1072 H 0.84965 0.42022 0.39199 0.0
H1073 H 0.90401 0.45865 0.42531 0.0
C1074 C 0.81874 0.29878 0.33832 0.0
C1075 C 0.785 0.30426 0.32898 0.0
C1076 C 0.83997 0.31835 0.36654 0.0
C1077 C 0.82808 0.34425 0.38562 0.0
C1078 C 0.79388 0.34917 0.37683 0.0
C1079 C 0.77221 0.32886 0.34889 0.0
C1080 C 0.9028 0.3736 0.4553 0.0
C1081 C 0.91573 0.41206 0.45043 0.0
C1082 C 0.87191 0.35179 0.43636 0.0
C1083 C 0.85331 0.36809 0.4124 0.0
C1084 C 0.86366 0.40708 0.41037 0.0
C1085 C 0.89477 0.42903 0.42936 0.0
H1086 H 0.7313 0.82258 0.37784 0.0
H1087 H 0.63534 0.73139 0.34969 0.0
H1088 H 0.69821 0.84763 0.41806 0.0
H1089 H 0.60248 0.7546 0.39205 0.0
H1090 H 0.543 0.83764 0.42657 0.0
H1091 H 0.57585 0.80181 0.39656 0.0
H1092 H 0.66999 0.84698 0.46767 0.0
H1093 H 0.63755 0.88506 0.49595 0.0
C1094 C 0.7033 0.80733 0.3811 0.0
C1095 C 0.6856 0.77543 0.36052 0.0
C1096 C 0.68429 0.82147 0.40444 0.0
C1097 C 0.64736 0.80344 0.40827 0.0
C1098 C 0.63052 0.7699 0.38918 0.0
C1099 C 0.64933 0.75635 0.36512 0.0
C1100 C 0.57059 0.83951 0.43595 0.0
C1101 C 0.58798 0.86438 0.4632 0.0
C1102 C 0.58944 0.81868 0.41894 0.0
C1103 C 0.62587 0.82158 0.42938 0.0
C1104 C 0.64238 0.84476 0.45821 0.0
C1105 C 0.62379 0.86641 0.47461 0.0
H1106 H 0.16003 0.73788 0.31616 0.0
H1107 H 0.15981 0.63402 0.26543 0.0
H1108 H 0.11663 0.70334 0.35489 0.0
H1109 H 0.11621 0.59976 0.30392 0.0
H1110 H 0.11667 0.61724 0.44428 0.0
H1111 H 0.13678 0.65964 0.39875 0.0
H1112 H 0.05143 0.58992 0.32923 0.0
H1113 H 0.03052 0.54777 0.37561 0.0
C1114 C 0.14997 0.70781 0.31267 0.0
C1115 C 0.16383 0.6885 0.28834 0.0
C1116 C 0.12509 0.68815 0.33472 0.0
C1117 C 0.1133 0.64903 0.3323 0.0
C1118 C 0.12468 0.62996 0.30603 0.0
C1119 C 0.14996 0.64954 0.28433 0.0
C1120 C 0.10172 0.61158 0.41946 0.0
C1121 C 0.07247 0.57936 0.413 0.0
C1122 C 0.11293 0.63593 0.39358 0.0
C1123 C 0.09553 0.62795 0.36064 0.0
C1124 C 0.06505 0.5966 0.35456 0.0
C1125 C 0.0532 0.57261 0.38087 0.0
H1126 H 0.32244 0.15782 0.3434 0.0
H1127 H 0.41133 0.23886 0.30183 0.0
H1128 H 0.36112 0.11759 0.35424 0.0
H1129 H 0.44995 0.19781 0.31106 0.0
H1130 H 0.51166 0.13783 0.38724 0.0
H1131 H 0.48067 0.1754 0.35535 0.0
H1132 H 0.39047 0.07747 0.32842 0.0
H1133 H 0.42071 0.04007 0.36234 0.0
C1134 C 0.3504 0.167 0.33673 0.0
C1135 C 0.36414 0.20153 0.32232 0.0
C1136 C 0.37241 0.14363 0.34217 0.0
C1137 C 0.40851 0.154 0.33274 0.0
C1138 C 0.42234 0.18892 0.31863 0.0
C1139 C 0.40037 0.21259 0.31366 0.0
C1140 C 0.48583 0.12389 0.37348 0.0
C1141 C 0.46764 0.08641 0.37891 0.0
C1142 C 0.46795 0.14561 0.35507 0.0
C1143 C 0.43215 0.12978 0.34101 0.0
C1144 C 0.41728 0.0908 0.34059 0.0
C1145 C 0.43485 0.06922 0.35959 0.0
H1146 H 0.63804 0.77439 0.6249 0.0
H1147 H 0.69862 0.86485 0.69462 0.0
H1148 H 0.59237 0.80722 0.61328 0.0
H1149 H 0.652 0.89606 0.68565 0.0
H1150 H 0.59539 0.96323 0.61601 0.0
H1151 H 0.63209 0.93042 0.64649 0.0
H1152 H 0.54441 0.82783 0.63133 0.0
H1153 H 0.50841 0.8607 0.59858 0.0
C1154 C 0.64149 0.8013 0.63765 0.0
C1155 C 0.67222 0.81759 0.65981 0.0
C1156 C 0.61497 0.8198 0.63171 0.0
C1157 C 0.61821 0.85441 0.64869 0.0
C1158 C 0.64875 0.87 0.67151 0.0
C1159 C 0.67567 0.85213 0.67655 0.0
C1160 C 0.58332 0.93395 0.62029 0.0
C1161 C 0.54986 0.91417 0.60333 0.0
C1162 C 0.60452 0.91489 0.63787 0.0
C1163 C 0.592 0.87588 0.63983 0.0
C1164 C 0.55563 0.85753 0.62867 0.0
C1165 C 0.53462 0.87658 0.61052 0.0
H1166 H 0.73455 0.16228 0.33678 0.0
H1167 H 0.6438 0.16075 0.26528 0.0
H1168 H 0.6952 0.11391 0.36798 0.0
H1169 H 0.60439 0.11126 0.29622 0.0
H1170 H 0.62879 0.01093 0.40689 0.0
H1171 H 0.66204 0.04902 0.36389 0.0
H1172 H 0.57739 0.10354 0.35053 0.0
H1173 H 0.54324 0.06384 0.39223 0.0
C1174 C 0.70624 0.15136 0.32751 0.0
C1175 C 0.69226 0.16542 0.29864 0.0
C1176 C 0.68372 0.12331 0.34522 0.0
C1177 C 0.64675 0.10844 0.33432 0.0
C1178 C 0.63273 0.12231 0.3053 0.0
C1179 C 0.65531 0.15061 0.28761 0.0
C1180 C 0.6169 0.03057 0.39438 0.0
C1181 C 0.58393 0.03546 0.40397 0.0
C1182 C 0.63608 0.05252 0.36985 0.0
C1183 C 0.62292 0.08011 0.35467 0.0
C1184 C 0.58842 0.0827 0.36194 0.0
C1185 C 0.56896 0.06025 0.38619 0.0
H1186 H 0.83365 0.65994 0.26397 0.0
H1187 H 0.82786 0.72543 0.35412 0.0
H1188 H 0.8682 0.62551 0.29807 0.0
H1189 H 0.86311 0.69195 0.38773 0.0
H1190 H 0.96194 0.654 0.42739 0.0
H1191 H 0.92909 0.68577 0.38945 0.0
H1192 H 0.85763 0.5798 0.35071 0.0
H1193 H 0.89 0.54757 0.38966 0.0
C1194 C 0.83991 0.66724 0.29095 0.0
C1195 C 0.82783 0.69567 0.30612 0.0
C1196 C 0.85958 0.6473 0.31057 0.0
C1197 C 0.86866 0.65589 0.34577 0.0
C1198 C 0.85693 0.68461 0.36074 0.0
C1199 C 0.83653 0.70381 0.34139 0.0
C1200 C 0.93959 0.63715 0.41054 0.0
C1201 C 0.92894 0.59789 0.41186 0.0
C1202 C 0.92049 0.65557 0.38886 0.0
C1203 C 0.89043 0.63554 0.36704 0.0
C1204 C 0.88067 0.59624 0.36705 0.0
C1205 C 0.89933 0.57771 0.38941 0.0
H1206 H 0.29679 0.74987 0.36304 0.0
H1207 H 0.27968 0.83388 0.29642 0.0
H1208 H 0.32316 0.7977 0.40775 0.0
H1209 H 0.30313 0.88156 0.34169 0.0
H1210 H 0.37556 0.88196 0.48441 0.0
H1211 H 0.32342 0.84421 0.44842 0.0
H1212 H 0.36227 0.91106 0.3629 0.0
H1213 H 0.41281 0.94977 0.39952 0.0
C1214 C 0.29747 0.77844 0.35838 0.0
C1215 C 0.2866 0.78828 0.32613 0.0
C1216 C 0.31224 0.80598 0.38415 0.0
C1217 C 0.3158 0.84384 0.37831 0.0
C1218 C 0.30168 0.85295 0.34693 0.0
C1219 C 0.28777 0.82553 0.32101 0.0
C1220 C 0.37187 0.8894 0.45823 0.0
C1221 C 0.39836 0.91818 0.4444 0.0
C1222 C 0.34228 0.86755 0.4375 0.0
C1223 C 0.33927 0.87357 0.40241 0.0
C1224 C 0.3635 0.90536 0.38973 0.0
C1225 C 0.39265 0.92771 0.41071 0.0
H1226 H 0.23822 0.29602 0.36364 0.0
H1227 H 0.22084 0.36355 0.28054 0.0
H1228 H 0.20615 0.32776 0.40055 0.0
H1229 H 0.18972 0.39596 0.31776 0.0
H1230 H 0.16518 0.4671 0.41003 0.0
H1231 H 0.20215 0.43921 0.37481 0.0
H1232 H 0.13819 0.3294 0.39884 0.0
H1233 H 0.10076 0.35696 0.433 0.0
C1234 C 0.22827 0.31814 0.3534 0.0
C1235 C 0.23236 0.32724 0.31906 0.0
C1236 C 0.20962 0.33618 0.37453 0.0
C1237 C 0.19528 0.36448 0.36219 0.0
C1238 C 0.20058 0.37454 0.32823 0.0
C1239 C 0.21841 0.35587 0.30686 0.0
C1240 C 0.15902 0.43702 0.40782 0.0
C1241 C 0.12976 0.41439 0.42436 0.0
C1242 C 0.18016 0.42102 0.38754 0.0
C1243 C 0.1733 0.38199 0.38405 0.0
C1244 C 0.1445 0.3595 0.40111 0.0
C1245 C 0.12285 0.37539 0.42058 0.0
H1246 H 0.29775 0.16042 0.63185 0.0
H1247 H 0.3722 0.26972 0.62181 0.0
H1248 H 0.32628 0.13501 0.58782 0.0
H1249 H 0.40049 0.24438 0.5765 0.0
H1250 H 0.36951 0.09656 0.49818 0.0
H1251 H 0.33697 0.13273 0.52881 0.0
H1252 H 0.43909 0.20372 0.57503 0.0
H1253 H 0.47163 0.16851 0.54354 0.0
C1254 C 0.31997 0.17914 0.61978 0.0
C1255 C 0.33318 0.21689 0.63043 0.0
C1256 C 0.33607 0.16466 0.59421 0.0
C1257 C 0.36566 0.18768 0.57857 0.0
C1258 C 0.37797 0.22589 0.58833 0.0
C1259 C 0.3618 0.24042 0.61412 0.0
C1260 C 0.38502 0.12025 0.51447 0.0
C1261 C 0.42308 0.12925 0.51894 0.0
C1262 C 0.36639 0.14093 0.53205 0.0
C1263 C 0.38542 0.17071 0.55478 0.0
C1264 C 0.4236 0.18115 0.55753 0.0
C1265 C 0.44226 0.16073 0.53966 0.0
H1266 H 0.8283 0.36707 0.69604 0.0
H1267 H 0.87177 0.27431 0.67782 0.0
H1268 H 0.87436 0.40621 0.66344 0.0
H1269 H 0.91881 0.31423 0.64548 0.0
H1270 H 0.94738 0.38475 0.54686 0.0
H1271 H 0.91881 0.34284 0.59024 0.0
H1272 H 0.93836 0.43712 0.66207 0.0
H1273 H 0.96557 0.47888 0.61798 0.0
C1274 C 0.84795 0.35508 0.6854 0.0
C1275 C 0.84611 0.31744 0.68925 0.0
C1276 C 0.87474 0.37774 0.66704 0.0
C1277 C 0.90048 0.36341 0.65218 0.0
C1278 C 0.89924 0.32597 0.6566 0.0
C1279 C 0.87227 0.30315 0.67503 0.0
C1280 C 0.94658 0.39608 0.57235 0.0
C1281 C 0.95833 0.43463 0.57948 0.0
C1282 C 0.93038 0.37222 0.5972 0.0
C1283 C 0.9258 0.38683 0.62936 0.0
C1284 C 0.9409 0.42522 0.63727 0.0
C1285 C 0.95669 0.44905 0.6123 0.0
H1286 H 0.28679 0.68629 0.64116 0.0
H1287 H 0.18974 0.70603 0.67697 0.0
H1288 H 0.25089 0.65248 0.58996 0.0
H1289 H 0.15495 0.67449 0.62558 0.0
H1290 H 0.11102 0.65031 0.51928 0.0
H1291 H 0.16567 0.68696 0.55256 0.0
H1292 H 0.18169 0.58649 0.5932 0.0
H1293 H 0.12653 0.54935 0.5602 0.0
C1294 C 0.25811 0.68418 0.6377 0.0
C1295 C 0.24103 0.6992 0.66269 0.0
C1296 C 0.23778 0.66495 0.60859 0.0
C1297 C 0.20054 0.66157 0.60398 0.0
C1298 C 0.18385 0.67743 0.6285 0.0
C1299 C 0.20379 0.69565 0.65777 0.0
C1300 C 0.12676 0.63581 0.53444 0.0
C1301 C 0.11391 0.59711 0.5381 0.0
C1302 C 0.1582 0.65682 0.55312 0.0
C1303 C 0.1774 0.63937 0.57538 0.0
C1304 C 0.16727 0.60032 0.57585 0.0
C1305 C 0.13562 0.57918 0.55717 0.0
loop_
_geom_bond_atom_site_label_1
_geom_bond_atom_site_label_2
_geom_bond_distance
_geom_bond_site_symmetry_2
_ccdc_geom_bond_type
Dy0 O4 2.398 . S
Dy0 O5 2.491 . S
Dy0 O6 2.403 . S
Dy0 O7 2.664 . S
Dy0 O11 2.326 . S
Dy0 O15 2.310 . S
Dy0 O16 2.351 . S
C1 O12 1.185 . S
C1 O13 1.355 . S
C2 O4 1.185 . S
C2 O5 1.355 . S
Dy3 O7 2.310 . S
Dy3 O10 2.351 . S
Dy3 O12 2.398 . S
Dy3 O13 2.491 . S
Dy3 O14 2.403 . S
Dy3 O15 2.664 . S
Dy3 O17 2.326 . S
O4 Dy0 2.398 . S
O4 C2 1.185 . S
O5 Dy0 2.491 . S
O5 C2 1.355 . S
O6 Dy0 2.403 . S
O6 C8 1.254 . S
O7 Dy0 2.664 . S
O7 Dy3 2.310 . S
O7 C8 1.268 . S
C8 O6 1.254 . S
C8 O7 1.268 . S
C9 O14 1.254 . S
C9 O15 1.268 . S
O10 Dy3 2.351 . S
O10 C18 1.249 . S
O11 Dy0 2.326 . S
O11 C18 1.267 . S
O12 C1 1.185 . S
O12 Dy3 2.398 . S
O13 C1 1.355 . S
O13 Dy3 2.491 . S
O14 Dy3 2.403 . S
O14 C9 1.254 . S
O15 Dy0 2.310 . S
O15 Dy3 2.664 . S
O15 C9 1.268 . S
O16 Dy0 2.351 . S
O16 C19 1.249 . S
O17 Dy3 2.326 . S
O17 C19 1.267 . S
C18 O10 1.249 . S
C18 O11 1.267 . S
C19 O16 1.249 . S
C19 O17 1.267 . S
Dy20 O24 2.398 . S
Dy20 O25 2.491 . S
Dy20 O26 2.403 . S
Dy20 O27 2.664 . S
Dy20 O31 2.326 . S
Dy20 O35 2.310 . S
Dy20 O36 2.351 . S
C21 O32 1.185 . S
C21 O33 1.355 . S
C22 O24 1.185 . S
C22 O25 1.355 . S
Dy23 O27 2.310 . S
Dy23 O30 2.351 . S
Dy23 O32 2.398 . S
Dy23 O33 2.491 . S
Dy23 O34 2.403 . S
Dy23 O35 2.664 . S
Dy23 O37 2.326 . S
O24 Dy20 2.398 . S
O24 C22 1.185 . S
O25 Dy20 2.491 . S
O25 C22 1.355 . S
O26 Dy20 2.403 . S
O26 C28 1.254 . S
O27 Dy20 2.664 . S
O27 Dy23 2.310 . S
O27 C28 1.268 . S
C28 O26 1.254 . S
C28 O27 1.268 . S
C29 O34 1.254 . S
C29 O35 1.268 . S
O30 Dy23 2.351 . S
O30 C38 1.249 . S
O31 Dy20 2.326 . S
O31 C38 1.267 . S
O32 C21 1.185 . S
O32 Dy23 2.398 . S
O33 C21 1.355 . S
O33 Dy23 2.491 . S
O34 Dy23 2.403 . S
O34 C29 1.254 . S
O35 Dy20 2.310 . S
O35 Dy23 2.664 . S
O35 C29 1.268 . S
O36 Dy20 2.351 . S
O36 C39 1.249 . S
O37 Dy23 2.326 . S
O37 C39 1.267 . S
C38 O30 1.249 . S
C38 O31 1.267 . S
C39 O36 1.249 . S
C39 O37 1.267 . S
Dy40 O44 2.398 . S
Dy40 O45 2.491 . S
Dy40 O46 2.403 . S
Dy40 O47 2.664 . S
Dy40 O51 2.326 . S
Dy40 O55 2.310 . S
Dy40 O56 2.351 . S
C41 O52 1.185 . S
C41 O53 1.355 . S
C42 O44 1.185 . S
C42 O45 1.355 . S
Dy43 O47 2.310 . S
Dy43 O50 2.351 . S
Dy43 O52 2.398 . S
Dy43 O53 2.491 . S
Dy43 O54 2.403 . S
Dy43 O55 2.664 . S
Dy43 O57 2.326 . S
O44 Dy40 2.398 . S
O44 C42 1.185 . S
O45 Dy40 2.491 . S
O45 C42 1.355 . S
O46 Dy40 2.403 . S
O46 C48 1.254 . S
O47 Dy40 2.664 . S
O47 Dy43 2.310 . S
O47 C48 1.268 . S
C48 O46 1.254 . S
C48 O47 1.268 . S
C49 O54 1.254 . S
C49 O55 1.268 . S
O50 Dy43 2.351 . S
O50 C58 1.249 . S
O51 Dy40 2.326 . S
O51 C58 1.267 . S
O52 C41 1.185 . S
O52 Dy43 2.398 . S
O53 C41 1.355 . S
O53 Dy43 2.491 . S
O54 Dy43 2.403 . S
O54 C49 1.254 . S
O55 Dy40 2.310 . S
O55 Dy43 2.664 . S
O55 C49 1.268 . S
O56 Dy40 2.351 . S
O56 C59 1.249 . S
O57 Dy43 2.326 . S
O57 C59 1.267 . S
C58 O50 1.249 . S
C58 O51 1.267 . S
C59 O56 1.249 . S
C59 O57 1.267 . S
Dy60 O64 2.398 . S
Dy60 O65 2.491 . S
Dy60 O66 2.403 . S
Dy60 O67 2.664 . S
Dy60 O71 2.326 . S
Dy60 O75 2.310 . S
Dy60 O76 2.351 . S
C61 O72 1.185 . S
C61 O73 1.355 . S
C62 O64 1.185 . S
C62 O65 1.355 . S
Dy63 O67 2.310 . S
Dy63 O70 2.351 . S
Dy63 O72 2.398 . S
Dy63 O73 2.491 . S
Dy63 O74 2.403 . S
Dy63 O75 2.664 . S
Dy63 O77 2.326 . S
O64 Dy60 2.398 . S
O64 C62 1.185 . S
O65 Dy60 2.491 . S
O65 C62 1.355 . S
O66 Dy60 2.403 . S
O66 C68 1.254 . S
O67 Dy60 2.664 . S
O67 Dy63 2.310 . S
O67 C68 1.268 . S
C68 O66 1.254 . S
C68 O67 1.268 . S
C69 O74 1.254 . S
C69 O75 1.268 . S
O70 Dy63 2.351 . S
O70 C78 1.249 . S
O71 Dy60 2.326 . S
O71 C78 1.267 . S
O72 C61 1.185 . S
O72 Dy63 2.398 . S
O73 C61 1.355 . S
O73 Dy63 2.491 . S
O74 Dy63 2.403 . S
O74 C69 1.254 . S
O75 Dy60 2.310 . S
O75 Dy63 2.664 . S
O75 C69 1.268 . S
O76 Dy60 2.351 . S
O76 C79 1.249 . S
O77 Dy63 2.326 . S
O77 C79 1.267 . S
C78 O70 1.249 . S
C78 O71 1.267 . S
C79 O76 1.249 . S
C79 O77 1.267 . S
Dy80 O84 2.398 . S
Dy80 O85 2.491 . S
Dy80 O86 2.403 . S
Dy80 O87 2.664 . S
Dy80 O91 2.326 . S
Dy80 O95 2.310 . S
Dy80 O96 2.351 . S
C81 O92 1.185 . S
C81 O93 1.355 . S
C82 O84 1.185 . S
C82 O85 1.355 . S
Dy83 O87 2.310 . S
Dy83 O90 2.351 . S
Dy83 O92 2.398 . S
Dy83 O93 2.491 . S
Dy83 O94 2.403 . S
Dy83 O95 2.664 . S
Dy83 O97 2.326 . S
O84 Dy80 2.398 . S
O84 C82 1.185 . S
O85 Dy80 2.491 . S
O85 C82 1.355 . S
O86 Dy80 2.403 . S
O86 C88 1.254 . S
O87 Dy80 2.664 . S
O87 Dy83 2.310 . S
O87 C88 1.268 . S
C88 O86 1.254 . S
C88 O87 1.268 . S
C89 O94 1.254 . S
C89 O95 1.268 . S
O90 Dy83 2.351 . S
O90 C98 1.249 . S
O91 Dy80 2.326 . S
O91 C98 1.267 . S
O92 C81 1.185 . S
O92 Dy83 2.398 . S
O93 C81 1.355 . S
O93 Dy83 2.491 . S
O94 Dy83 2.403 . S
O94 C89 1.254 . S
O95 Dy80 2.310 . S
O95 Dy83 2.664 . S
O95 C89 1.268 . S
O96 Dy80 2.351 . S
O96 C99 1.249 . S
O97 Dy83 2.326 . S
O97 C99 1.267 . S
C98 O90 1.249 . S
C98 O91 1.267 . S
C99 O96 1.249 . S
C99 O97 1.267 . S
Dy100 O104 2.398 . S
Dy100 O105 2.491 . S
Dy100 O106 2.403 . S
Dy100 O107 2.664 . S
Dy100 O111 2.326 . S
Dy100 O115 2.310 . S
Dy100 O116 2.351 . S
C101 O112 1.185 . S
C101 O113 1.355 . S
C102 O104 1.185 . S
C102 O105 1.355 . S
Dy103 O107 2.310 . S
Dy103 O110 2.351 . S
Dy103 O112 2.398 . S
Dy103 O113 2.491 . S
Dy103 O114 2.403 . S
Dy103 O115 2.664 . S
Dy103 O117 2.326 . S
O104 Dy100 2.398 . S
O104 C102 1.185 . S
O105 Dy100 2.491 . S
O105 C102 1.355 . S
O106 Dy100 2.403 . S
O106 C108 1.254 . S
O107 Dy100 2.664 . S
O107 Dy103 2.310 . S
O107 C108 1.268 . S
C108 O106 1.254 . S
C108 O107 1.268 . S
C109 O114 1.254 . S
C109 O115 1.268 . S
O110 Dy103 2.351 . S
O110 C118 1.249 . S
O111 Dy100 2.326 . S
O111 C118 1.267 . S
O112 C101 1.185 . S
O112 Dy103 2.398 . S
O113 C101 1.355 . S
O113 Dy103 2.491 . S
O114 Dy103 2.403 . S
O114 C109 1.254 . S
O115 Dy100 2.310 . S
O115 Dy103 2.664 . S
O115 C109 1.268 . S
O116 Dy100 2.351 . S
O116 C119 1.249 . S
O117 Dy103 2.326 . S
O117 C119 1.267 . S
C118 O110 1.249 . S
C118 O111 1.267 . S
C119 O116 1.249 . S
C119 O117 1.267 . S
Dy120 O124 2.398 . S
Dy120 O125 2.491 . S
Dy120 O126 2.403 . S
Dy120 O127 2.664 . S
Dy120 O131 2.326 . S
Dy120 O135 2.310 . S
Dy120 O136 2.351 . S
C121 O132 1.185 . S
C121 O133 1.355 . S
C122 O124 1.185 . S
C122 O125 1.355 . S
Dy123 O127 2.310 . S
Dy123 O130 2.351 . S
Dy123 O132 2.398 . S
Dy123 O133 2.491 . S
Dy123 O134 2.403 . S
Dy123 O135 2.664 . S
Dy123 O137 2.326 . S
O124 Dy120 2.398 . S
O124 C122 1.185 . S
O125 Dy120 2.491 . S
O125 C122 1.355 . S
O126 Dy120 2.403 . S
O126 C128 1.254 . S
O127 Dy120 2.664 . S
O127 Dy123 2.310 . S
O127 C128 1.268 . S
C128 O126 1.254 . S
C128 O127 1.268 . S
C129 O134 1.254 . S
C129 O135 1.268 . S
O130 Dy123 2.351 . S
O130 C138 1.249 . S
O131 Dy120 2.326 . S
O131 C138 1.267 . S
O132 C121 1.185 . S
O132 Dy123 2.398 . S
O133 C121 1.355 . S
O133 Dy123 2.491 . S
O134 Dy123 2.403 . S
O134 C129 1.254 . S
O135 Dy120 2.310 . S
O135 Dy123 2.664 . S
O135 C129 1.268 . S
O136 Dy120 2.351 . S
O136 C139 1.249 . S
O137 Dy123 2.326 . S
O137 C139 1.267 . S
C138 O130 1.249 . S
C138 O131 1.267 . S
C139 O136 1.249 . S
C139 O137 1.267 . S
Dy140 O144 2.398 . S
Dy140 O145 2.491 . S
Dy140 O146 2.403 . S
Dy140 O147 2.664 . S
Dy140 O151 2.326 . S
Dy140 O155 2.310 . S
Dy140 O156 2.351 . S
C141 O152 1.185 . S
C141 O153 1.355 . S
C142 O144 1.185 . S
C142 O145 1.355 . S
Dy143 O147 2.310 . S
Dy143 O150 2.351 . S
Dy143 O152 2.398 . S
Dy143 O153 2.491 . S
Dy143 O154 2.403 . S
Dy143 O155 2.664 . S
Dy143 O157 2.326 . S
O144 Dy140 2.398 . S
O144 C142 1.185 . S
O145 Dy140 2.491 . S
O145 C142 1.355 . S
O146 Dy140 2.403 . S
O146 C148 1.254 . S
O147 Dy140 2.664 . S
O147 Dy143 2.310 . S
O147 C148 1.268 . S
C148 O146 1.254 . S
C148 O147 1.268 . S
C149 O154 1.254 . S
C149 O155 1.268 . S
O150 Dy143 2.351 . S
O150 C158 1.249 . S
O151 Dy140 2.326 . S
O151 C158 1.267 . S
O152 C141 1.185 . S
O152 Dy143 2.398 . S
O153 C141 1.355 . S
O153 Dy143 2.491 . S
O154 Dy143 2.403 . S
O154 C149 1.254 . S
O155 Dy140 2.310 . S
O155 Dy143 2.664 . S
O155 C149 1.268 . S
O156 Dy140 2.351 . S
O156 C159 1.249 . S
O157 Dy143 2.326 . S
O157 C159 1.267 . S
C158 O150 1.249 . S
C158 O151 1.267 . S
C159 O156 1.249 . S
C159 O157 1.267 . S
C160 O172 1.241 . S
C160 O173 1.280 . S
C161 O174 1.277 . S
C161 O175 1.245 . S
C162 O186 1.247 . S
C162 O188 1.289 . S
Mg163 O164 1.926 . S
Mg163 O173 1.984 . S
Mg163 O175 1.988 . S
Mg163 O176 2.061 1_655 S
O164 Mg163 1.926 . S
O164 Mg165 1.986 . S
O164 Mg166 1.917 1_655 S
Mg165 O164 1.986 . S
Mg165 O172 2.042 . S
Mg165 O174 2.041 . S
Mg165 O180 2.038 1_545 S
Mg165 O188 2.238 1_545 S
Mg166 O164 1.917 1_455 S
Mg166 O167 1.917 1_545 S
Mg166 O177 2.106 . S
Mg166 O179 2.079 1_445 S
Mg166 O188 2.106 1_445 S
Mg166 O189 2.079 . S
O167 Mg166 1.917 1_565 S
O167 Mg168 1.926 . S
O167 Mg169 1.986 . S
Mg168 O167 1.926 . S
Mg168 O182 1.984 . S
Mg168 O185 1.988 . S
Mg168 O186 2.061 1_455 S
Mg169 O167 1.986 . S
Mg169 O177 2.238 1_565 S
Mg169 O181 2.042 . S
Mg169 O183 2.041 . S
Mg169 O190 2.038 1_565 S
C170 O176 1.247 . S
C170 O177 1.289 . S
C171 O189 1.245 . S
C171 O190 1.274 . S
O172 C160 1.241 . S
O172 Mg165 2.042 . S
O173 C160 1.280 . S
O173 Mg163 1.984 . S
O174 C161 1.277 . S
O174 Mg165 2.041 . S
O175 C161 1.245 . S
O175 Mg163 1.988 . S
O176 Mg163 2.061 1_455 S
O176 C170 1.247 . S
O177 Mg166 2.106 . S
O177 Mg169 2.238 1_545 S
O177 C170 1.289 . S
C178 O179 1.245 . S
C178 O180 1.274 . S
O179 Mg166 2.079 1_665 S
O179 C178 1.245 . S
O180 Mg165 2.038 1_565 S
O180 C178 1.274 . S
O181 Mg169 2.042 . S
O181 C184 1.241 . S
O182 Mg168 1.984 . S
O182 C184 1.280 . S
O183 Mg169 2.041 . S
O183 C187 1.277 . S
C184 O181 1.241 . S
C184 O182 1.280 . S
O185 Mg168 1.988 . S
O185 C187 1.245 . S
O186 C162 1.247 . S
O186 Mg168 2.061 1_655 S
C187 O183 1.277 . S
C187 O185 1.245 . S
O188 C162 1.289 . S
O188 Mg165 2.238 1_565 S
O188 Mg166 2.106 1_665 S
O189 Mg166 2.079 . S
O189 C171 1.245 . S
O190 Mg169 2.038 1_545 S
O190 C171 1.274 . S
C191 O203 1.241 . S
C191 O204 1.280 . S
C192 O205 1.277 . S
C192 O206 1.245 . S
C193 O217 1.247 . S
C193 O219 1.289 . S
Mg194 O195 1.926 . S
Mg194 O204 1.984 . S
Mg194 O206 1.988 1_554 S
Mg194 O207 2.061 . S
O195 Mg194 1.926 . S
O195 Mg196 1.986 1_554 S
O195 Mg197 1.917 . S
Mg196 O195 1.986 1_556 S
Mg196 O203 2.042 1_556 S
Mg196 O205 2.041 . S
Mg196 O211 2.038 1_546 S
Mg196 O219 2.238 1_545 S
Mg197 O195 1.917 . S
Mg197 O198 1.917 1_544 S
Mg197 O208 2.106 . S
Mg197 O210 2.079 1_545 S
Mg197 O219 2.106 1_544 S
Mg197 O220 2.079 1_554 S
O198 Mg197 1.917 1_566 S
O198 Mg199 1.926 . S
O198 Mg200 1.986 1_556 S
Mg199 O198 1.926 . S
Mg199 O213 1.984 . S
Mg199 O216 1.988 1_556 S
Mg199 O217 2.061 . S
Mg200 O198 1.986 1_554 S
Mg200 O208 2.238 1_565 S
Mg200 O212 2.042 1_554 S
Mg200 O214 2.041 . S
Mg200 O221 2.038 1_564 S
C201 O207 1.247 . S
C201 O208 1.289 . S
C202 O220 1.245 . S
C202 O221 1.274 . S
O203 C191 1.241 . S
O203 Mg196 2.042 1_554 S
O204 C191 1.280 . S
O204 Mg194 1.984 . S
O205 C192 1.277 . S
O205 Mg196 2.041 . S
O206 C192 1.245 . S
O206 Mg194 1.988 1_556 S
O207 Mg194 2.061 . S
O207 C201 1.247 . S
O208 Mg197 2.106 . S
O208 Mg200 2.238 1_545 S
O208 C201 1.289 . S
C209 O210 1.245 . S
C209 O211 1.274 . S
O210 Mg197 2.079 1_565 S
O210 C209 1.245 . S
O211 Mg196 2.038 1_564 S
O211 C209 1.274 . S
O212 Mg200 2.042 1_556 S
O212 C215 1.241 . S
O213 Mg199 1.984 . S
O213 C215 1.280 . S
O214 Mg200 2.041 . S
O214 C218 1.277 . S
C215 O212 1.241 . S
C215 O213 1.280 . S
O216 Mg199 1.988 1_554 S
O216 C218 1.245 . S
O217 C193 1.247 . S
O217 Mg199 2.061 . S
C218 O214 1.277 . S
C218 O216 1.245 . S
O219 C193 1.289 . S
O219 Mg196 2.238 1_565 S
O219 Mg197 2.106 1_566 S
O220 Mg197 2.079 1_556 S
O220 C202 1.245 . S
O221 Mg200 2.038 1_546 S
O221 C202 1.274 . S
C222 O234 1.241 . S
C222 O235 1.280 . S
C223 O236 1.277 . S
C223 O237 1.245 . S
C224 O248 1.247 . S
C224 O250 1.289 . S
Mg225 O226 1.926 . S
Mg225 O235 1.984 . S
Mg225 O237 1.988 1_554 S
Mg225 O238 2.061 1_655 S
O226 Mg225 1.926 . S
O226 Mg227 1.986 1_554 S
O226 Mg228 1.917 1_655 S
Mg227 O226 1.986 1_556 S
Mg227 O234 2.042 1_556 S
Mg227 O236 2.041 . S
Mg227 O242 2.038 1_556 S
Mg227 O250 2.238 . S
Mg228 O226 1.917 1_455 S
Mg228 O229 1.917 1_554 S
Mg228 O239 2.106 . S
Mg228 O241 2.079 1_455 S
Mg228 O250 2.106 1_454 S
Mg228 O251 2.079 1_554 S
O229 Mg228 1.917 1_556 S
O229 Mg230 1.926 . S
O229 Mg231 1.986 1_556 S
Mg230 O229 1.926 . S
Mg230 O244 1.984 . S
Mg230 O247 1.988 1_556 S
Mg230 O248 2.061 1_455 S
Mg231 O229 1.986 1_554 S
Mg231 O239 2.238 . S
Mg231 O243 2.042 1_554 S
Mg231 O245 2.041 . S
Mg231 O252 2.038 1_554 S
C232 O238 1.247 . S
C232 O239 1.289 . S
C233 O251 1.245 . S
C233 O252 1.274 . S
O234 C222 1.241 . S
O234 Mg227 2.042 1_554 S
O235 C222 1.280 . S
O235 Mg225 1.984 . S
O236 C223 1.277 . S
O236 Mg227 2.041 . S
O237 C223 1.245 . S
O237 Mg225 1.988 1_556 S
O238 Mg225 2.061 1_455 S
O238 C232 1.247 . S
O239 Mg228 2.106 . S
O239 Mg231 2.238 . S
O239 C232 1.289 . S
C240 O241 1.245 . S
C240 O242 1.274 . S
O241 Mg228 2.079 1_655 S
O241 C240 1.245 . S
O242 Mg227 2.038 1_554 S
O242 C240 1.274 . S
O243 Mg231 2.042 1_556 S
O243 C246 1.241 . S
O244 Mg230 1.984 . S
O244 C246 1.280 . S
O245 Mg231 2.041 . S
O245 C249 1.277 . S
C246 O243 1.241 . S
C246 O244 1.280 . S
O247 Mg230 1.988 1_554 S
O247 C249 1.245 . S
O248 C224 1.247 . S
O248 Mg230 2.061 1_655 S
C249 O245 1.277 . S
C249 O247 1.245 . S
O250 C224 1.289 . S
O250 Mg227 2.238 . S
O250 Mg228 2.106 1_656 S
O251 Mg228 2.079 1_556 S
O251 C233 1.245 . S
O252 Mg231 2.038 1_556 S
O252 C233 1.274 . S
C253 O265 1.241 . S
C253 O266 1.280 . S
C254 O267 1.277 . S
C254 O268 1.245 . S
C255 O279 1.247 . S
C255 O281 1.289 . S
Mg256 O257 1.926 . S
Mg256 O266 1.984 . S
Mg256 O268 1.988 1_554 S
Mg256 O269 2.061 . S
O257 Mg256 1.926 . S
O257 Mg258 1.986 1_554 S
O257 Mg259 1.917 . S
Mg258 O257 1.986 1_556 S
Mg258 O265 2.042 1_556 S
Mg258 O267 2.041 . S
Mg258 O273 2.038 1_556 S
Mg258 O281 2.238 . S
Mg259 O257 1.917 . S
Mg259 O260 1.917 1_554 S
Mg259 O270 2.106 . S
Mg259 O272 2.079 . S
Mg259 O281 2.106 1_554 S
Mg259 O282 2.079 1_554 S
O260 Mg259 1.917 1_556 S
O260 Mg261 1.926 . S
O260 Mg262 1.986 1_556 S
Mg261 O260 1.926 . S
Mg261 O275 1.984 . S
Mg261 O278 1.988 1_556 S
Mg261 O279 2.061 . S
Mg262 O260 1.986 1_554 S
Mg262 O270 2.238 . S
Mg262 O274 2.042 1_554 S
Mg262 O276 2.041 . S
Mg262 O283 2.038 1_554 S
C263 O269 1.247 . S
C263 O270 1.289 . S
C264 O282 1.245 . S
C264 O283 1.274 . S
O265 C253 1.241 . S
O265 Mg258 2.042 1_554 S
O266 C253 1.280 . S
O266 Mg256 1.984 . S
O267 C254 1.277 . S
O267 Mg258 2.041 . S
O268 C254 1.245 . S
O268 Mg256 1.988 1_556 S
O269 Mg256 2.061 . S
O269 C263 1.247 . S
O270 Mg259 2.106 . S
O270 Mg262 2.238 . S
O270 C263 1.289 . S
C271 O272 1.245 . S
C271 O273 1.274 . S
O272 Mg259 2.079 . S
O272 C271 1.245 . S
O273 Mg258 2.038 1_554 S
O273 C271 1.274 . S
O274 Mg262 2.042 1_556 S
O274 C277 1.241 . S
O275 Mg261 1.984 . S
O275 C277 1.280 . S
O276 Mg262 2.041 . S
O276 C280 1.277 . S
C277 O274 1.241 . S
C277 O275 1.280 . S
O278 Mg261 1.988 1_554 S
O278 C280 1.245 . S
O279 C255 1.247 . S
O279 Mg261 2.061 . S
C280 O276 1.277 . S
C280 O278 1.245 . S
O281 C255 1.289 . S
O281 Mg258 2.238 . S
O281 Mg259 2.106 1_556 S
O282 Mg259 2.079 1_556 S
O282 C264 1.245 . S
O283 Mg262 2.038 1_556 S
O283 C264 1.274 . S
C284 O296 1.241 . S
C284 O297 1.280 . S
C285 O298 1.277 . S
C285 O299 1.245 . S
C286 O310 1.247 . S
C286 O312 1.289 . S
Mg287 O288 1.926 . S
Mg287 O297 1.984 . S
Mg287 O299 1.988 . S
Mg287 O300 2.061 1_655 S
O288 Mg287 1.926 . S
O288 Mg289 1.986 . S
O288 Mg290 1.917 1_655 S
Mg289 O288 1.986 . S
Mg289 O296 2.042 . S
Mg289 O298 2.041 . S
Mg289 O304 2.038 . S
Mg289 O312 2.238 . S
Mg290 O288 1.917 1_455 S
Mg290 O291 1.917 . S
Mg290 O301 2.106 . S
Mg290 O303 2.079 1_455 S
Mg290 O312 2.106 1_455 S
Mg290 O313 2.079 . S
O291 Mg290 1.917 . S
O291 Mg292 1.926 . S
O291 Mg293 1.986 . S
Mg292 O291 1.926 . S
Mg292 O306 1.984 . S
Mg292 O309 1.988 . S
Mg292 O310 2.061 1_455 S
Mg293 O291 1.986 . S
Mg293 O301 2.238 . S
Mg293 O305 2.042 . S
Mg293 O307 2.041 . S
Mg293 O314 2.038 . S
C294 O300 1.247 . S
C294 O301 1.289 . S
C295 O313 1.245 . S
C295 O314 1.274 . S
O296 C284 1.241 . S
O296 Mg289 2.042 . S
O297 C284 1.280 . S
O297 Mg287 1.984 . S
O298 C285 1.277 . S
O298 Mg289 2.041 . S
O299 C285 1.245 . S
O299 Mg287 1.988 . S
O300 Mg287 2.061 1_455 S
O300 C294 1.247 . S
O301 Mg290 2.106 . S
O301 Mg293 2.238 . S
O301 C294 1.289 . S
C302 O303 1.245 . S
C302 O304 1.274 . S
O303 Mg290 2.079 1_655 S
O303 C302 1.245 . S
O304 Mg289 2.038 . S
O304 C302 1.274 . S
O305 Mg293 2.042 . S
O305 C308 1.241 . S
O306 Mg292 1.984 . S
O306 C308 1.280 . S
O307 Mg293 2.041 . S
O307 C311 1.277 . S
C308 O305 1.241 . S
C308 O306 1.280 . S
O309 Mg292 1.988 . S
O309 C311 1.245 . S
O310 C286 1.247 . S
O310 Mg292 2.061 1_655 S
C311 O307 1.277 . S
C311 O309 1.245 . S
O312 C286 1.289 . S
O312 Mg289 2.238 . S
O312 Mg290 2.106 1_655 S
O313 Mg290 2.079 . S
O313 C295 1.245 . S
O314 Mg293 2.038 . S
O314 C295 1.274 . S
C315 O327 1.241 . S
C315 O328 1.280 . S
C316 O329 1.277 . S
C316 O330 1.245 . S
C317 O341 1.247 . S
C317 O343 1.289 . S
Mg318 O319 1.926 . S
Mg318 O328 1.984 . S
Mg318 O330 1.988 . S
Mg318 O331 2.061 . S
O319 Mg318 1.926 . S
O319 Mg320 1.986 . S
O319 Mg321 1.917 . S
Mg320 O319 1.986 . S
Mg320 O327 2.042 . S
Mg320 O329 2.041 . S
Mg320 O335 2.038 1_545 S
Mg320 O343 2.238 1_545 S
Mg321 O319 1.917 . S
Mg321 O322 1.917 1_545 S
Mg321 O332 2.106 . S
Mg321 O334 2.079 1_545 S
Mg321 O343 2.106 1_545 S
Mg321 O344 2.079 . S
O322 Mg321 1.917 1_565 S
O322 Mg323 1.926 . S
O322 Mg324 1.986 . S
Mg323 O322 1.926 . S
Mg323 O337 1.984 . S
Mg323 O340 1.988 . S
Mg323 O341 2.061 . S
Mg324 O322 1.986 . S
Mg324 O332 2.238 1_565 S
Mg324 O336 2.042 . S
Mg324 O338 2.041 . S
Mg324 O345 2.038 1_565 S
C325 O331 1.247 . S
C325 O332 1.289 . S
C326 O344 1.245 . S
C326 O345 1.274 . S
O327 C315 1.241 . S
O327 Mg320 2.042 . S
O328 C315 1.280 . S
O328 Mg318 1.984 . S
O329 C316 1.277 . S
O329 Mg320 2.041 . S
O330 C316 1.245 . S
O330 Mg318 1.988 . S
O331 Mg318 2.061 . S
O331 C325 1.247 . S
O332 Mg321 2.106 . S
O332 Mg324 2.238 1_545 S
O332 C325 1.289 . S
C333 O334 1.245 . S
C333 O335 1.274 . S
O334 Mg321 2.079 1_565 S
O334 C333 1.245 . S
O335 Mg320 2.038 1_565 S
O335 C333 1.274 . S
O336 Mg324 2.042 . S
O336 C339 1.241 . S
O337 Mg323 1.984 . S
O337 C339 1.280 . S
O338 Mg324 2.041 . S
O338 C342 1.277 . S
C339 O336 1.241 . S
C339 O337 1.280 . S
O340 Mg323 1.988 . S
O340 C342 1.245 . S
O341 C317 1.247 . S
O341 Mg323 2.061 . S
C342 O338 1.277 . S
C342 O340 1.245 . S
O343 C317 1.289 . S
O343 Mg320 2.238 1_565 S
O343 Mg321 2.106 1_565 S
O344 Mg321 2.079 . S
O344 C326 1.245 . S
O345 Mg324 2.038 1_545 S
O345 C326 1.274 . S
H346 C354 0.950 . S
H347 C359 0.950 . S
H348 C356 0.950 . S
H349 C358 0.950 . S
H350 C360 0.950 . S
H351 C362 0.950 . S
H352 C364 0.950 . S
H353 C365 0.950 . S
C354 H346 0.950 . S
C354 C355 1.386 . S
C354 C356 1.391 . S
C355 C354 1.386 . S
C355 C359 1.393 . S
C356 H348 0.950 . S
C356 C354 1.391 . S
C356 C357 1.400 . S
C357 C356 1.400 . S
C357 C358 1.398 . S
C357 C363 1.491 . S
C358 H349 0.950 . S
C358 C357 1.398 . S
C358 C359 1.391 . S
C359 H347 0.950 . S
C359 C355 1.393 . S
C359 C358 1.391 . S
C360 H350 0.950 . S
C360 C361 1.386 . S
C360 C362 1.391 . S
C361 C360 1.386 . S
C361 C365 1.393 . S
C362 H351 0.950 . S
C362 C360 1.391 . S
C362 C363 1.400 . S
C363 C357 1.491 . S
C363 C362 1.400 . S
C363 C364 1.398 . S
C364 H352 0.950 . S
C364 C363 1.398 . S
C364 C365 1.391 . S
C365 H353 0.950 . S
C365 C361 1.393 . S
C365 C364 1.391 . S
H366 C374 0.950 . S
H367 C379 0.950 . S
H368 C376 0.950 . S
H369 C378 0.950 . S
H370 C380 0.950 . S
H371 C382 0.950 . S
H372 C384 0.950 . S
H373 C385 0.950 . S
C374 H366 0.950 . S
C374 C375 1.386 . S
C374 C376 1.391 . S
C375 C374 1.386 . S
C375 C379 1.393 . S
C376 H368 0.950 . S
C376 C374 1.391 . S
C376 C377 1.400 . S
C377 C376 1.400 . S
C377 C378 1.398 . S
C377 C383 1.491 . S
C378 H369 0.950 . S
C378 C377 1.398 . S
C378 C379 1.391 . S
C379 H367 0.950 . S
C379 C375 1.393 . S
C379 C378 1.391 . S
C380 H370 0.950 . S
C380 C381 1.386 . S
C380 C382 1.391 . S
C381 C380 1.386 . S
C381 C385 1.393 . S
C382 H371 0.950 . S
C382 C380 1.391 . S
C382 C383 1.400 . S
C383 C377 1.491 . S
C383 C382 1.400 . S
C383 C384 1.398 . S
C384 H372 0.950 . S
C384 C383 1.398 . S
C384 C385 1.391 . S
C385 H373 0.950 . S
C385 C381 1.393 . S
C385 C384 1.391 . S
H386 C394 0.950 . S
H387 C399 0.950 . S
H388 C396 0.950 . S
H389 C398 0.950 . S
H390 C400 0.950 . S
H391 C402 0.950 . S
H392 C404 0.950 . S
H393 C405 0.950 . S
C394 H386 0.950 . S
C394 C395 1.386 . S
C394 C396 1.391 . S
C395 C394 1.386 . S
C395 C399 1.393 . S
C396 H388 0.950 . S
C396 C394 1.391 . S
C396 C397 1.400 . S
C397 C396 1.400 . S
C397 C398 1.398 . S
C397 C403 1.491 . S
C398 H389 0.950 . S
C398 C397 1.398 . S
C398 C399 1.391 . S
C399 H387 0.950 . S
C399 C395 1.393 . S
C399 C398 1.391 . S
C400 H390 0.950 . S
C400 C401 1.386 . S
C400 C402 1.391 . S
C401 C400 1.386 . S
C401 C405 1.393 . S
C402 H391 0.950 . S
C402 C400 1.391 . S
C402 C403 1.400 . S
C403 C397 1.491 . S
C403 C402 1.400 . S
C403 C404 1.398 . S
C404 H392 0.950 . S
C404 C403 1.398 . S
C404 C405 1.391 . S
C405 H393 0.950 . S
C405 C401 1.393 . S
C405 C404 1.391 . S
H406 C414 0.950 . S
H407 C419 0.950 . S
H408 C416 0.950 . S
H409 C418 0.950 . S
H410 C420 0.950 . S
H411 C422 0.950 . S
H412 C424 0.950 . S
H413 C425 0.950 . S
C414 H406 0.950 . S
C414 C415 1.386 . S
C414 C416 1.391 . S
C415 C414 1.386 . S
C415 C419 1.393 . S
C416 H408 0.950 . S
C416 C414 1.391 . S
C416 C417 1.400 . S
C417 C416 1.400 . S
C417 C418 1.398 . S
C417 C423 1.491 . S
C418 H409 0.950 . S
C418 C417 1.398 . S
C418 C419 1.391 . S
C419 H407 0.950 . S
C419 C415 1.393 . S
C419 C418 1.391 . S
C420 H410 0.950 . S
C420 C421 1.386 . S
C420 C422 1.391 . S
C421 C420 1.386 . S
C421 C425 1.393 . S
C422 H411 0.950 . S
C422 C420 1.391 . S
C422 C423 1.400 . S
C423 C417 1.491 . S
C423 C422 1.400 . S
C423 C424 1.398 . S
C424 H412 0.950 . S
C424 C423 1.398 . S
C424 C425 1.391 . S
C425 H413 0.950 . S
C425 C421 1.393 . S
C425 C424 1.391 . S
H426 C434 0.950 . S
H427 C439 0.950 . S
H428 C436 0.950 . S
H429 C438 0.950 . S
H430 C440 0.950 . S
H431 C442 0.950 . S
H432 C444 0.950 . S
H433 C445 0.950 . S
C434 H426 0.950 . S
C434 C435 1.386 . S
C434 C436 1.391 . S
C435 C434 1.386 . S
C435 C439 1.393 . S
C436 H428 0.950 . S
C436 C434 1.391 . S
C436 C437 1.400 . S
C437 C436 1.400 . S
C437 C438 1.398 . S
C437 C443 1.491 . S
C438 H429 0.950 . S
C438 C437 1.398 . S
C438 C439 1.391 . S
C439 H427 0.950 . S
C439 C435 1.393 . S
C439 C438 1.391 . S
C440 H430 0.950 . S
C440 C441 1.386 . S
C440 C442 1.391 . S
C441 C440 1.386 . S
C441 C445 1.393 . S
C442 H431 0.950 . S
C442 C440 1.391 . S
C442 C443 1.400 . S
C443 C437 1.491 . S
C443 C442 1.400 . S
C443 C444 1.398 . S
C444 H432 0.950 . S
C444 C443 1.398 . S
C444 C445 1.391 . S
C445 H433 0.950 . S
C445 C441 1.393 . S
C445 C444 1.391 . S
H446 C454 0.950 . S
H447 C459 0.950 . S
H448 C456 0.950 . S
H449 C458 0.950 . S
H450 C460 0.950 . S
H451 C462 0.950 . S
H452 C464 0.950 . S
H453 C465 0.950 . S
C454 H446 0.950 . S
C454 C455 1.386 . S
C454 C456 1.391 . S
C455 C454 1.386 . S
C455 C459 1.393 . S
C456 H448 0.950 . S
C456 C454 1.391 . S
C456 C457 1.400 . S
C457 C456 1.400 . S
C457 C458 1.398 . S
C457 C463 1.491 . S
C458 H449 0.950 . S
C458 C457 1.398 . S
C458 C459 1.391 . S
C459 H447 0.950 . S
C459 C455 1.393 . S
C459 C458 1.391 . S
C460 H450 0.950 . S
C460 C461 1.386 . S
C460 C462 1.391 . S
C461 C460 1.386 . S
C461 C465 1.393 . S
C462 H451 0.950 . S
C462 C460 1.391 . S
C462 C463 1.400 . S
C463 C457 1.491 . S
C463 C462 1.400 . S
C463 C464 1.398 . S
C464 H452 0.950 . S
C464 C463 1.398 . S
C464 C465 1.391 . S
C465 H453 0.950 . S
C465 C461 1.393 . S
C465 C464 1.391 . S
H466 C474 0.950 . S
H467 C479 0.950 . S
H468 C476 0.950 . S
H469 C478 0.950 . S
H470 C480 0.950 . S
H471 C482 0.950 . S
H472 C484 0.950 . S
H473 C485 0.950 . S
C474 H466 0.950 . S
C474 C475 1.386 . S
C474 C476 1.391 . S
C475 C474 1.386 . S
C475 C479 1.393 . S
C476 H468 0.950 . S
C476 C474 1.391 . S
C476 C477 1.400 . S
C477 C476 1.400 . S
C477 C478 1.398 . S
C477 C483 1.491 . S
C478 H469 0.950 . S
C478 C477 1.398 . S
C478 C479 1.391 . S
C479 H467 0.950 . S
C479 C475 1.393 . S
C479 C478 1.391 . S
C480 H470 0.950 . S
C480 C481 1.386 . S
C480 C482 1.391 . S
C481 C480 1.386 . S
C481 C485 1.393 . S
C482 H471 0.950 . S
C482 C480 1.391 . S
C482 C483 1.400 . S
C483 C477 1.491 . S
C483 C482 1.400 . S
C483 C484 1.398 . S
C484 H472 0.950 . S
C484 C483 1.398 . S
C484 C485 1.391 . S
C485 H473 0.950 . S
C485 C481 1.393 . S
C485 C484 1.391 . S
H486 C494 0.950 . S
H487 C499 0.950 . S
H488 C496 0.950 . S
H489 C498 0.950 . S
H490 C500 0.950 . S
H491 C502 0.950 . S
H492 C504 0.950 . S
H493 C505 0.950 . S
C494 H486 0.950 . S
C494 C495 1.386 . S
C494 C496 1.391 . S
C495 C494 1.386 . S
C495 C499 1.393 . S
C496 H488 0.950 . S
C496 C494 1.391 . S
C496 C497 1.400 . S
C497 C496 1.400 . S
C497 C498 1.398 . S
C497 C503 1.491 . S
C498 H489 0.950 . S
C498 C497 1.398 . S
C498 C499 1.391 . S
C499 H487 0.950 . S
C499 C495 1.393 . S
C499 C498 1.391 . S
C500 H490 0.950 . S
C500 C501 1.386 . S
C500 C502 1.391 . S
C501 C500 1.386 . S
C501 C505 1.393 . S
C502 H491 0.950 . S
C502 C500 1.391 . S
C502 C503 1.400 . S
C503 C497 1.491 . S
C503 C502 1.400 . S
C503 C504 1.398 . S
C504 H492 0.950 . S
C504 C503 1.398 . S
C504 C505 1.391 . S
C505 H493 0.950 . S
C505 C501 1.393 . S
C505 C504 1.391 . S
H506 C514 0.950 . S
H507 C519 0.950 . S
H508 C516 0.950 . S
H509 C518 0.950 . S
H510 C520 0.950 . S
H511 C522 0.950 . S
H512 C524 0.950 . S
H513 C525 0.950 . S
C514 H506 0.950 . S
C514 C515 1.386 . S
C514 C516 1.391 . S
C515 C514 1.386 . S
C515 C519 1.393 . S
C516 H508 0.950 . S
C516 C514 1.391 . S
C516 C517 1.400 . S
C517 C516 1.400 . S
C517 C518 1.398 . S
C517 C523 1.491 . S
C518 H509 0.950 . S
C518 C517 1.398 . S
C518 C519 1.391 . S
C519 H507 0.950 . S
C519 C515 1.393 . S
C519 C518 1.391 . S
C520 H510 0.950 . S
C520 C521 1.386 . S
C520 C522 1.391 . S
C521 C520 1.386 . S
C521 C525 1.393 . S
C522 H511 0.950 . S
C522 C520 1.391 . S
C522 C523 1.400 . S
C523 C517 1.491 . S
C523 C522 1.400 . S
C523 C524 1.398 . S
C524 H512 0.950 . S
C524 C523 1.398 . S
C524 C525 1.391 . S
C525 H513 0.950 . S
C525 C521 1.393 . S
C525 C524 1.391 . S
H526 C534 0.950 . S
H527 C539 0.950 . S
H528 C536 0.950 . S
H529 C538 0.950 . S
H530 C540 0.950 . S
H531 C542 0.950 . S
H532 C544 0.950 . S
H533 C545 0.950 . S
C534 H526 0.950 . S
C534 C535 1.386 . S
C534 C536 1.391 . S
C535 C534 1.386 . S
C535 C539 1.393 . S
C536 H528 0.950 . S
C536 C534 1.391 . S
C536 C537 1.400 . S
C537 C536 1.400 . S
C537 C538 1.398 . S
C537 C543 1.491 . S
C538 H529 0.950 . S
C538 C537 1.398 . S
C538 C539 1.391 . S
C539 H527 0.950 . S
C539 C535 1.393 . S
C539 C538 1.391 . S
C540 H530 0.950 . S
C540 C541 1.386 . S
C540 C542 1.391 . S
C541 C540 1.386 . S
C541 C545 1.393 . S
C542 H531 0.950 . S
C542 C540 1.391 . S
C542 C543 1.400 . S
C543 C537 1.491 . S
C543 C542 1.400 . S
C543 C544 1.398 . S
C544 H532 0.950 . S
C544 C543 1.398 . S
C544 C545 1.391 . S
C545 H533 0.950 . S
C545 C541 1.393 . S
C545 C544 1.391 . S
H546 C554 0.950 . S
H547 C559 0.950 . S
H548 C556 0.950 . S
H549 C558 0.950 . S
H550 C560 0.950 . S
H551 C562 0.950 . S
H552 C564 0.950 . S
H553 C565 0.950 . S
C554 H546 0.950 . S
C554 C555 1.386 . S
C554 C556 1.391 . S
C555 C554 1.386 . S
C555 C559 1.393 . S
C556 H548 0.950 . S
C556 C554 1.391 . S
C556 C557 1.400 . S
C557 C556 1.400 . S
C557 C558 1.398 . S
C557 C563 1.491 . S
C558 H549 0.950 . S
C558 C557 1.398 . S
C558 C559 1.391 . S
C559 H547 0.950 . S
C559 C555 1.393 . S
C559 C558 1.391 . S
C560 H550 0.950 . S
C560 C561 1.386 . S
C560 C562 1.391 . S
C561 C560 1.386 . S
C561 C565 1.393 . S
C562 H551 0.950 . S
C562 C560 1.391 . S
C562 C563 1.400 . S
C563 C557 1.491 . S
C563 C562 1.400 . S
C563 C564 1.398 . S
C564 H552 0.950 . S
C564 C563 1.398 . S
C564 C565 1.391 . S
C565 H553 0.950 . S
C565 C561 1.393 . S
C565 C564 1.391 . S
H566 C574 0.950 . S
H567 C579 0.950 . S
H568 C576 0.950 . S
H569 C578 0.950 . S
H570 C580 0.950 . S
H571 C582 0.950 . S
H572 C584 0.950 . S
H573 C585 0.950 . S
C574 H566 0.950 . S
C574 C575 1.386 . S
C574 C576 1.391 . S
C575 C574 1.386 . S
C575 C579 1.393 . S
C576 H568 0.950 . S
C576 C574 1.391 . S
C576 C577 1.400 . S
C577 C576 1.400 . S
C577 C578 1.398 . S
C577 C583 1.491 . S
C578 H569 0.950 . S
C578 C577 1.398 . S
C578 C579 1.391 . S
C579 H567 0.950 . S
C579 C575 1.393 . S
C579 C578 1.391 . S
C580 H570 0.950 . S
C580 C581 1.386 . S
C580 C582 1.391 . S
C581 C580 1.386 . S
C581 C585 1.393 . S
C582 H571 0.950 . S
C582 C580 1.391 . S
C582 C583 1.400 . S
C583 C577 1.491 . S
C583 C582 1.400 . S
C583 C584 1.398 . S
C584 H572 0.950 . S
C584 C583 1.398 . S
C584 C585 1.391 . S
C585 H573 0.950 . S
C585 C581 1.393 . S
C585 C584 1.391 . S
H586 C594 0.950 . S
H587 C599 0.950 . S
H588 C596 0.950 . S
H589 C598 0.950 . S
H590 C600 0.950 . S
H591 C602 0.950 . S
H592 C604 0.950 . S
H593 C605 0.950 . S
C594 H586 0.950 . S
C594 C595 1.386 . S
C594 C596 1.391 . S
C595 C594 1.386 . S
C595 C599 1.393 . S
C596 H588 0.950 . S
C596 C594 1.391 . S
C596 C597 1.400 . S
C597 C596 1.400 . S
C597 C598 1.398 . S
C597 C603 1.491 . S
C598 H589 0.950 . S
C598 C597 1.398 . S
C598 C599 1.391 . S
C599 H587 0.950 . S
C599 C595 1.393 . S
C599 C598 1.391 . S
C600 H590 0.950 . S
C600 C601 1.386 . S
C600 C602 1.391 . S
C601 C600 1.386 . S
C601 C605 1.393 . S
C602 H591 0.950 . S
C602 C600 1.391 . S
C602 C603 1.400 . S
C603 C597 1.491 . S
C603 C602 1.400 . S
C603 C604 1.398 . S
C604 H592 0.950 . S
C604 C603 1.398 . S
C604 C605 1.391 . S
C605 H593 0.950 . S
C605 C601 1.393 . S
C605 C604 1.391 . S
H606 C614 0.950 . S
H607 C619 0.950 . S
H608 C616 0.950 . S
H609 C618 0.950 . S
H610 C620 0.950 . S
H611 C622 0.950 . S
H612 C624 0.950 . S
H613 C625 0.950 . S
C614 H606 0.950 . S
C614 C615 1.386 . S
C614 C616 1.391 . S
C615 C614 1.386 . S
C615 C619 1.393 . S
C616 H608 0.950 . S
C616 C614 1.391 . S
C616 C617 1.400 . S
C617 C616 1.400 . S
C617 C618 1.398 . S
C617 C623 1.491 . S
C618 H609 0.950 . S
C618 C617 1.398 . S
C618 C619 1.391 . S
C619 H607 0.950 . S
C619 C615 1.393 . S
C619 C618 1.391 . S
C620 H610 0.950 . S
C620 C621 1.386 . S
C620 C622 1.391 . S
C621 C620 1.386 . S
C621 C625 1.393 . S
C622 H611 0.950 . S
C622 C620 1.391 . S
C622 C623 1.400 . S
C623 C617 1.491 . S
C623 C622 1.400 . S
C623 C624 1.398 . S
C624 H612 0.950 . S
C624 C623 1.398 . S
C624 C625 1.391 . S
C625 H613 0.950 . S
C625 C621 1.393 . S
C625 C624 1.391 . S
H626 C634 0.950 . S
H627 C639 0.950 . S
H628 C636 0.950 . S
H629 C638 0.950 . S
H630 C640 0.950 . S
H631 C642 0.950 . S
H632 C644 0.950 . S
H633 C645 0.950 . S
C634 H626 0.950 . S
C634 C635 1.386 . S
C634 C636 1.391 . S
C635 C634 1.386 . S
C635 C639 1.393 . S
C636 H628 0.950 . S
C636 C634 1.391 . S
C636 C637 1.400 . S
C637 C636 1.400 . S
C637 C638 1.398 . S
C637 C643 1.491 . S
C638 H629 0.950 . S
C638 C637 1.398 . S
C638 C639 1.391 . S
C639 H627 0.950 . S
C639 C635 1.393 . S
C639 C638 1.391 . S
C640 H630 0.950 . S
C640 C641 1.386 . S
C640 C642 1.391 . S
C641 C640 1.386 . S
C641 C645 1.393 . S
C642 H631 0.950 . S
C642 C640 1.391 . S
C642 C643 1.400 . S
C643 C637 1.491 . S
C643 C642 1.400 . S
C643 C644 1.398 . S
C644 H632 0.950 . S
C644 C643 1.398 . S
C644 C645 1.391 . S
C645 H633 0.950 . S
C645 C641 1.393 . S
C645 C644 1.391 . S
H646 C654 0.950 . S
H647 C659 0.950 . S
H648 C656 0.950 . S
H649 C658 0.950 . S
H650 C660 0.950 . S
H651 C662 0.950 . S
H652 C664 0.950 . S
H653 C665 0.950 . S
C654 H646 0.950 . S
C654 C655 1.386 . S
C654 C656 1.391 . S
C655 C654 1.386 . S
C655 C659 1.393 . S
C656 H648 0.950 . S
C656 C654 1.391 . S
C656 C657 1.400 . S
C657 C656 1.400 . S
C657 C658 1.398 . S
C657 C663 1.491 . S
C658 H649 0.950 . S
C658 C657 1.398 . S
C658 C659 1.391 . S
C659 H647 0.950 . S
C659 C655 1.393 . S
C659 C658 1.391 . S
C660 H650 0.950 . S
C660 C661 1.386 . S
C660 C662 1.391 . S
C661 C660 1.386 . S
C661 C665 1.393 . S
C662 H651 0.950 . S
C662 C660 1.391 . S
C662 C663 1.400 . S
C663 C657 1.491 . S
C663 C662 1.400 . S
C663 C664 1.398 . S
C664 H652 0.950 . S
C664 C663 1.398 . S
C664 C665 1.391 . S
C665 H653 0.950 . S
C665 C661 1.393 . S
C665 C664 1.391 . S
H666 C674 0.950 . S
H667 C679 0.950 . S
H668 C676 0.950 . S
H669 C678 0.950 . S
H670 C680 0.950 . S
H671 C682 0.950 . S
H672 C684 0.950 . S
H673 C685 0.950 . S
C674 H666 0.950 . S
C674 C675 1.386 . S
C674 C676 1.391 . S
C675 C674 1.386 . S
C675 C679 1.393 . S
C676 H668 0.950 . S
C676 C674 1.391 . S
C676 C677 1.400 . S
C677 C676 1.400 . S
C677 C678 1.398 . S
C677 C683 1.491 . S
C678 H669 0.950 . S
C678 C677 1.398 . S
C678 C679 1.391 . S
C679 H667 0.950 . S
C679 C675 1.393 . S
C679 C678 1.391 . S
C680 H670 0.950 . S
C680 C681 1.386 . S
C680 C682 1.391 . S
C681 C680 1.386 . S
C681 C685 1.393 . S
C682 H671 0.950 . S
C682 C680 1.391 . S
C682 C683 1.400 . S
C683 C677 1.491 . S
C683 C682 1.400 . S
C683 C684 1.398 . S
C684 H672 0.950 . S
C684 C683 1.398 . S
C684 C685 1.391 . S
C685 H673 0.950 . S
C685 C681 1.393 . S
C685 C684 1.391 . S
H686 C694 0.950 . S
H687 C699 0.950 . S
H688 C696 0.950 . S
H689 C698 0.950 . S
H690 C700 0.950 . S
H691 C702 0.950 . S
H692 C704 0.950 . S
H693 C705 0.950 . S
C694 H686 0.950 . S
C694 C695 1.386 . S
C694 C696 1.391 . S
C695 C694 1.386 . S
C695 C699 1.393 . S
C696 H688 0.950 . S
C696 C694 1.391 . S
C696 C697 1.400 . S
C697 C696 1.400 . S
C697 C698 1.398 . S
C697 C703 1.491 . S
C698 H689 0.950 . S
C698 C697 1.398 . S
C698 C699 1.391 . S
C699 H687 0.950 . S
C699 C695 1.393 . S
C699 C698 1.391 . S
C700 H690 0.950 . S
C700 C701 1.386 . S
C700 C702 1.391 . S
C701 C700 1.386 . S
C701 C705 1.393 . S
C702 H691 0.950 . S
C702 C700 1.391 . S
C702 C703 1.400 . S
C703 C697 1.491 . S
C703 C702 1.400 . S
C703 C704 1.398 . S
C704 H692 0.950 . S
C704 C703 1.398 . S
C704 C705 1.391 . S
C705 H693 0.950 . S
C705 C701 1.393 . S
C705 C704 1.391 . S
H706 C714 0.950 . S
H707 C719 0.950 . S
H708 C716 0.950 . S
H709 C718 0.950 . S
H710 C720 0.950 . S
H711 C722 0.950 . S
H712 C724 0.950 . S
H713 C725 0.950 . S
C714 H706 0.950 . S
C714 C715 1.386 . S
C714 C716 1.391 . S
C715 C714 1.386 . S
C715 C719 1.393 . S
C716 H708 0.950 . S
C716 C714 1.391 . S
C716 C717 1.400 . S
C717 C716 1.400 . S
C717 C718 1.398 . S
C717 C723 1.491 . S
C718 H709 0.950 . S
C718 C717 1.398 . S
C718 C719 1.391 . S
C719 H707 0.950 . S
C719 C715 1.393 . S
C719 C718 1.391 . S
C720 H710 0.950 . S
C720 C721 1.386 . S
C720 C722 1.391 . S
C721 C720 1.386 . S
C721 C725 1.393 . S
C722 H711 0.950 . S
C722 C720 1.391 . S
C722 C723 1.400 . S
C723 C717 1.491 . S
C723 C722 1.400 . S
C723 C724 1.398 . S
C724 H712 0.950 . S
C724 C723 1.398 . S
C724 C725 1.391 . S
C725 H713 0.950 . S
C725 C721 1.393 . S
C725 C724 1.391 . S
H726 C734 0.950 . S
H727 C739 0.950 . S
H728 C736 0.950 . S
H729 C738 0.950 . S
H730 C740 0.950 . S
H731 C742 0.950 . S
H732 C744 0.950 . S
H733 C745 0.950 . S
C734 H726 0.950 . S
C734 C735 1.386 . S
C734 C736 1.391 . S
C735 C734 1.386 . S
C735 C739 1.393 . S
C736 H728 0.950 . S
C736 C734 1.391 . S
C736 C737 1.400 . S
C737 C736 1.400 . S
C737 C738 1.398 . S
C737 C743 1.491 . S
C738 H729 0.950 . S
C738 C737 1.398 . S
C738 C739 1.391 . S
C739 H727 0.950 . S
C739 C735 1.393 . S
C739 C738 1.391 . S
C740 H730 0.950 . S
C740 C741 1.386 . S
C740 C742 1.391 . S
C741 C740 1.386 . S
C741 C745 1.393 . S
C742 H731 0.950 . S
C742 C740 1.391 . S
C742 C743 1.400 . S
C743 C737 1.491 . S
C743 C742 1.400 . S
C743 C744 1.398 . S
C744 H732 0.950 . S
C744 C743 1.398 . S
C744 C745 1.391 . S
C745 H733 0.950 . S
C745 C741 1.393 . S
C745 C744 1.391 . S
H746 C754 0.950 . S
H747 C759 0.950 . S
H748 C756 0.950 . S
H749 C758 0.950 . S
H750 C760 0.950 . S
H751 C762 0.950 . S
H752 C764 0.950 . S
H753 C765 0.950 . S
C754 H746 0.950 . S
C754 C755 1.386 . S
C754 C756 1.391 . S
C755 C754 1.386 . S
C755 C759 1.393 . S
C756 H748 0.950 . S
C756 C754 1.391 . S
C756 C757 1.400 . S
C757 C756 1.400 . S
C757 C758 1.398 . S
C757 C763 1.491 . S
C758 H749 0.950 . S
C758 C757 1.398 . S
C758 C759 1.391 . S
C759 H747 0.950 . S
C759 C755 1.393 . S
C759 C758 1.391 . S
C760 H750 0.950 . S
C760 C761 1.386 . S
C760 C762 1.391 . S
C761 C760 1.386 . S
C761 C765 1.393 . S
C762 H751 0.950 . S
C762 C760 1.391 . S
C762 C763 1.400 . S
C763 C757 1.491 . S
C763 C762 1.400 . S
C763 C764 1.398 . S
C764 H752 0.950 . S
C764 C763 1.398 . S
C764 C765 1.391 . S
C765 H753 0.950 . S
C765 C761 1.393 . S
C765 C764 1.391 . S
H766 C774 0.950 . S
H767 C779 0.950 . S
H768 C776 0.950 . S
H769 C778 0.950 . S
H770 C780 0.950 . S
H771 C782 0.950 . S
H772 C784 0.950 . S
H773 C785 0.950 . S
C774 H766 0.950 . S
C774 C775 1.386 . S
C774 C776 1.391 . S
C775 C774 1.386 . S
C775 C779 1.393 . S
C776 H768 0.950 . S
C776 C774 1.391 . S
C776 C777 1.400 . S
C777 C776 1.400 . S
C777 C778 1.398 . S
C777 C783 1.491 . S
C778 H769 0.950 . S
C778 C777 1.398 . S
C778 C779 1.391 . S
C779 H767 0.950 . S
C779 C775 1.393 . S
C779 C778 1.391 . S
C780 H770 0.950 . S
C780 C781 1.386 . S
C780 C782 1.391 . S
C781 C780 1.386 . S
C781 C785 1.393 . S
C782 H771 0.950 . S
C782 C780 1.391 . S
C782 C783 1.400 . S
C783 C777 1.491 . S
C783 C782 1.400 . S
C783 C784 1.398 . S
C784 H772 0.950 . S
C784 C783 1.398 . S
C784 C785 1.391 . S
C785 H773 0.950 . S
C785 C781 1.393 . S
C785 C784 1.391 . S
H786 C794 0.950 . S
H787 C799 0.950 . S
H788 C796 0.950 . S
H789 C798 0.950 . S
H790 C800 0.950 . S
H791 C802 0.950 . S
H792 C804 0.950 . S
H793 C805 0.950 . S
C794 H786 0.950 . S
C794 C795 1.386 . S
C794 C796 1.391 . S
C795 C794 1.386 . S
C795 C799 1.393 . S
C796 H788 0.950 . S
C796 C794 1.391 . S
C796 C797 1.400 . S
C797 C796 1.400 . S
C797 C798 1.398 . S
C797 C803 1.491 . S
C798 H789 0.950 . S
C798 C797 1.398 . S
C798 C799 1.391 . S
C799 H787 0.950 . S
C799 C795 1.393 . S
C799 C798 1.391 . S
C800 H790 0.950 . S
C800 C801 1.386 . S
C800 C802 1.391 . S
C801 C800 1.386 . S
C801 C805 1.393 . S
C802 H791 0.950 . S
C802 C800 1.391 . S
C802 C803 1.400 . S
C803 C797 1.491 . S
C803 C802 1.400 . S
C803 C804 1.398 . S
C804 H792 0.950 . S
C804 C803 1.398 . S
C804 C805 1.391 . S
C805 H793 0.950 . S
C805 C801 1.393 . S
C805 C804 1.391 . S
H806 C814 0.950 . S
H807 C819 0.950 . S
H808 C816 0.950 . S
H809 C818 0.950 . S
H810 C820 0.950 . S
H811 C822 0.950 . S
H812 C824 0.950 . S
H813 C825 0.950 . S
C814 H806 0.950 . S
C814 C815 1.386 . S
C814 C816 1.391 . S
C815 C814 1.386 . S
C815 C819 1.393 . S
C816 H808 0.950 . S
C816 C814 1.391 . S
C816 C817 1.400 . S
C817 C816 1.400 . S
C817 C818 1.398 . S
C817 C823 1.491 . S
C818 H809 0.950 . S
C818 C817 1.398 . S
C818 C819 1.391 . S
C819 H807 0.950 . S
C819 C815 1.393 . S
C819 C818 1.391 . S
C820 H810 0.950 . S
C820 C821 1.386 . S
C820 C822 1.391 . S
C821 C820 1.386 . S
C821 C825 1.393 . S
C822 H811 0.950 . S
C822 C820 1.391 . S
C822 C823 1.400 . S
C823 C817 1.491 . S
C823 C822 1.400 . S
C823 C824 1.398 . S
C824 H812 0.950 . S
C824 C823 1.398 . S
C824 C825 1.391 . S
C825 H813 0.950 . S
C825 C821 1.393 . S
C825 C824 1.391 . S
H826 C834 0.950 . S
H827 C839 0.950 . S
H828 C836 0.950 . S
H829 C838 0.950 . S
H830 C840 0.950 . S
H831 C842 0.950 . S
H832 C844 0.950 . S
H833 C845 0.950 . S
C834 H826 0.950 . S
C834 C835 1.386 . S
C834 C836 1.391 . S
C835 C834 1.386 . S
C835 C839 1.393 . S
C836 H828 0.950 . S
C836 C834 1.391 . S
C836 C837 1.400 . S
C837 C836 1.400 . S
C837 C838 1.398 . S
C837 C843 1.491 . S
C838 H829 0.950 . S
C838 C837 1.398 . S
C838 C839 1.391 . S
C839 H827 0.950 . S
C839 C835 1.393 . S
C839 C838 1.391 . S
C840 H830 0.950 . S
C840 C841 1.386 . S
C840 C842 1.391 . S
C841 C840 1.386 . S
C841 C845 1.393 . S
C842 H831 0.950 . S
C842 C840 1.391 . S
C842 C843 1.400 . S
C843 C837 1.491 . S
C843 C842 1.400 . S
C843 C844 1.398 . S
C844 H832 0.950 . S
C844 C843 1.398 . S
C844 C845 1.391 . S
C845 H833 0.950 . S
C845 C841 1.393 . S
C845 C844 1.391 . S
H846 C854 0.950 . S
H847 C859 0.950 . S
H848 C856 0.950 . S
H849 C858 0.950 . S
H850 C860 0.950 . S
H851 C862 0.950 . S
H852 C864 0.950 . S
H853 C865 0.950 . S
C854 H846 0.950 . S
C854 C855 1.386 . S
C854 C856 1.391 . S
C855 C854 1.386 . S
C855 C859 1.393 . S
C856 H848 0.950 . S
C856 C854 1.391 . S
C856 C857 1.400 . S
C857 C856 1.400 . S
C857 C858 1.398 . S
C857 C863 1.491 . S
C858 H849 0.950 . S
C858 C857 1.398 . S
C858 C859 1.391 . S
C859 H847 0.950 . S
C859 C855 1.393 . S
C859 C858 1.391 . S
C860 H850 0.950 . S
C860 C861 1.386 . S
C860 C862 1.391 . S
C861 C860 1.386 . S
C861 C865 1.393 . S
C862 H851 0.950 . S
C862 C860 1.391 . S
C862 C863 1.400 . S
C863 C857 1.491 . S
C863 C862 1.400 . S
C863 C864 1.398 . S
C864 H852 0.950 . S
C864 C863 1.398 . S
C864 C865 1.391 . S
C865 H853 0.950 . S
C865 C861 1.393 . S
C865 C864 1.391 . S
H866 C874 0.950 . S
H867 C879 0.950 . S
H868 C876 0.950 . S
H869 C878 0.950 . S
H870 C880 0.950 . S
H871 C882 0.950 . S
H872 C884 0.950 . S
H873 C885 0.950 . S
C874 H866 0.950 . S
C874 C875 1.386 . S
C874 C876 1.391 . S
C875 C874 1.386 . S
C875 C879 1.393 . S
C876 H868 0.950 . S
C876 C874 1.391 . S
C876 C877 1.400 . S
C877 C876 1.400 . S
C877 C878 1.398 . S
C877 C883 1.491 . S
C878 H869 0.950 . S
C878 C877 1.398 . S
C878 C879 1.391 . S
C879 H867 0.950 . S
C879 C875 1.393 . S
C879 C878 1.391 . S
C880 H870 0.950 . S
C880 C881 1.386 . S
C880 C882 1.391 . S
C881 C880 1.386 . S
C881 C885 1.393 . S
C882 H871 0.950 . S
C882 C880 1.391 . S
C882 C883 1.400 . S
C883 C877 1.491 . S
C883 C882 1.400 . S
C883 C884 1.398 . S
C884 H872 0.950 . S
C884 C883 1.398 . S
C884 C885 1.391 . S
C885 H873 0.950 . S
C885 C881 1.393 . S
C885 C884 1.391 . S
H886 C894 0.950 . S
H887 C899 0.950 . S
H888 C896 0.950 . S
H889 C898 0.950 . S
H890 C900 0.950 . S
H891 C902 0.950 . S
H892 C904 0.950 . S
H893 C905 0.950 . S
C894 H886 0.950 . S
C894 C895 1.386 . S
C894 C896 1.391 . S
C895 C894 1.386 . S
C895 C899 1.393 . S
C896 H888 0.950 . S
C896 C894 1.391 . S
C896 C897 1.400 . S
C897 C896 1.400 . S
C897 C898 1.398 . S
C897 C903 1.491 . S
C898 H889 0.950 . S
C898 C897 1.398 . S
C898 C899 1.391 . S
C899 H887 0.950 . S
C899 C895 1.393 . S
C899 C898 1.391 . S
C900 H890 0.950 . S
C900 C901 1.386 . S
C900 C902 1.391 . S
C901 C900 1.386 . S
C901 C905 1.393 . S
C902 H891 0.950 . S
C902 C900 1.391 . S
C902 C903 1.400 . S
C903 C897 1.491 . S
C903 C902 1.400 . S
C903 C904 1.398 . S
C904 H892 0.950 . S
C904 C903 1.398 . S
C904 C905 1.391 . S
C905 H893 0.950 . S
C905 C901 1.393 . S
C905 C904 1.391 . S
H906 C914 0.950 . S
H907 C919 0.950 . S
H908 C916 0.950 . S
H909 C918 0.950 . S
H910 C920 0.950 . S
H911 C922 0.950 . S
H912 C924 0.950 . S
H913 C925 0.950 . S
C914 H906 0.950 . S
C914 C915 1.386 . S
C914 C916 1.391 . S
C915 C914 1.386 . S
C915 C919 1.393 . S
C916 H908 0.950 . S
C916 C914 1.391 . S
C916 C917 1.400 . S
C917 C916 1.400 . S
C917 C918 1.398 . S
C917 C923 1.491 . S
C918 H909 0.950 . S
C918 C917 1.398 . S
C918 C919 1.391 . S
C919 H907 0.950 . S
C919 C915 1.393 . S
C919 C918 1.391 . S
C920 H910 0.950 . S
C920 C921 1.386 . S
C920 C922 1.391 . S
C921 C920 1.386 . S
C921 C925 1.393 . S
C922 H911 0.950 . S
C922 C920 1.391 . S
C922 C923 1.400 . S
C923 C917 1.491 . S
C923 C922 1.400 . S
C923 C924 1.398 . S
C924 H912 0.950 . S
C924 C923 1.398 . S
C924 C925 1.391 . S
C925 H913 0.950 . S
C925 C921 1.393 . S
C925 C924 1.391 . S
H926 C934 0.950 . S
H927 C939 0.950 . S
H928 C936 0.950 . S
H929 C938 0.950 . S
H930 C940 0.950 . S
H931 C942 0.950 . S
H932 C944 0.950 . S
H933 C945 0.950 . S
C934 H926 0.950 . S
C934 C935 1.386 . S
C934 C936 1.391 . S
C935 C934 1.386 . S
C935 C939 1.393 . S
C936 H928 0.950 . S
C936 C934 1.391 . S
C936 C937 1.400 . S
C937 C936 1.400 . S
C937 C938 1.398 . S
C937 C943 1.491 . S
C938 H929 0.950 . S
C938 C937 1.398 . S
C938 C939 1.391 . S
C939 H927 0.950 . S
C939 C935 1.393 . S
C939 C938 1.391 . S
C940 H930 0.950 . S
C940 C941 1.386 . S
C940 C942 1.391 . S
C941 C940 1.386 . S
C941 C945 1.393 . S
C942 H931 0.950 . S
C942 C940 1.391 . S
C942 C943 1.400 . S
C943 C937 1.491 . S
C943 C942 1.400 . S
C943 C944 1.398 . S
C944 H932 0.950 . S
C944 C943 1.398 . S
C944 C945 1.391 . S
C945 H933 0.950 . S
C945 C941 1.393 . S
C945 C944 1.391 . S
H946 C954 0.950 . S
H947 C959 0.950 . S
H948 C956 0.950 . S
H949 C958 0.950 . S
H950 C960 0.950 . S
H951 C962 0.950 . S
H952 C964 0.950 . S
H953 C965 0.950 . S
C954 H946 0.950 . S
C954 C955 1.386 . S
C954 C956 1.391 . S
C955 C954 1.386 . S
C955 C959 1.393 . S
C956 H948 0.950 . S
C956 C954 1.391 . S
C956 C957 1.400 . S
C957 C956 1.400 . S
C957 C958 1.398 . S
C957 C963 1.491 . S
C958 H949 0.950 . S
C958 C957 1.398 . S
C958 C959 1.391 . S
C959 H947 0.950 . S
C959 C955 1.393 . S
C959 C958 1.391 . S
C960 H950 0.950 . S
C960 C961 1.386 . S
C960 C962 1.391 . S
C961 C960 1.386 . S
C961 C965 1.393 . S
C962 H951 0.950 . S
C962 C960 1.391 . S
C962 C963 1.400 . S
C963 C957 1.491 . S
C963 C962 1.400 . S
C963 C964 1.398 . S
C964 H952 0.950 . S
C964 C963 1.398 . S
C964 C965 1.391 . S
C965 H953 0.950 . S
C965 C961 1.393 . S
C965 C964 1.391 . S
H966 C974 0.950 . S
H967 C979 0.950 . S
H968 C976 0.950 . S
H969 C978 0.950 . S
H970 C980 0.950 . S
H971 C982 0.950 . S
H972 C984 0.950 . S
H973 C985 0.950 . S
C974 H966 0.950 . S
C974 C975 1.386 . S
C974 C976 1.391 . S
C975 C974 1.386 . S
C975 C979 1.393 . S
C976 H968 0.950 . S
C976 C974 1.391 . S
C976 C977 1.400 . S
C977 C976 1.400 . S
C977 C978 1.398 . S
C977 C983 1.491 . S
C978 H969 0.950 . S
C978 C977 1.398 . S
C978 C979 1.391 . S
C979 H967 0.950 . S
C979 C975 1.393 . S
C979 C978 1.391 . S
C980 H970 0.950 . S
C980 C981 1.386 . S
C980 C982 1.391 . S
C981 C980 1.386 . S
C981 C985 1.393 . S
C982 H971 0.950 . S
C982 C980 1.391 . S
C982 C983 1.400 . S
C983 C977 1.491 . S
C983 C982 1.400 . S
C983 C984 1.398 . S
C984 H972 0.950 . S
C984 C983 1.398 . S
C984 C985 1.391 . S
C985 H973 0.950 . S
C985 C981 1.393 . S
C985 C984 1.391 . S
H986 C994 0.950 . S
H987 C999 0.950 . S
H988 C996 0.950 . S
H989 C998 0.950 . S
H990 C1000 0.950 . S
H991 C1002 0.950 . S
H992 C1004 0.950 . S
H993 C1005 0.950 . S
C994 H986 0.950 . S
C994 C995 1.386 . S
C994 C996 1.391 . S
C995 C994 1.386 . S
C995 C999 1.393 . S
C996 H988 0.950 . S
C996 C994 1.391 . S
C996 C997 1.400 . S
C997 C996 1.400 . S
C997 C998 1.398 . S
C997 C1003 1.491 . S
C998 H989 0.950 . S
C998 C997 1.398 . S
C998 C999 1.391 . S
C999 H987 0.950 . S
C999 C995 1.393 . S
C999 C998 1.391 . S
C1000 H990 0.950 . S
C1000 C1001 1.386 . S
C1000 C1002 1.391 . S
C1001 C1000 1.386 . S
C1001 C1005 1.393 . S
C1002 H991 0.950 . S
C1002 C1000 1.391 . S
C1002 C1003 1.400 . S
C1003 C997 1.491 . S
C1003 C1002 1.400 . S
C1003 C1004 1.398 . S
C1004 H992 0.950 . S
C1004 C1003 1.398 . S
C1004 C1005 1.391 . S
C1005 H993 0.950 . S
C1005 C1001 1.393 . S
C1005 C1004 1.391 . S
H1006 C1014 0.950 . S
H1007 C1019 0.950 . S
H1008 C1016 0.950 . S
H1009 C1018 0.950 . S
H1010 C1020 0.950 . S
H1011 C1022 0.950 . S
H1012 C1024 0.950 . S
H1013 C1025 0.950 . S
C1014 H1006 0.950 . S
C1014 C1015 1.386 . S
C1014 C1016 1.391 . S
C1015 C1014 1.386 . S
C1015 C1019 1.393 . S
C1016 H1008 0.950 . S
C1016 C1014 1.391 . S
C1016 C1017 1.400 . S
C1017 C1016 1.400 . S
C1017 C1018 1.398 . S
C1017 C1023 1.491 . S
C1018 H1009 0.950 . S
C1018 C1017 1.398 . S
C1018 C1019 1.391 . S
C1019 H1007 0.950 . S
C1019 C1015 1.393 . S
C1019 C1018 1.391 . S
C1020 H1010 0.950 . S
C1020 C1021 1.386 . S
C1020 C1022 1.391 . S
C1021 C1020 1.386 . S
C1021 C1025 1.393 . S
C1022 H1011 0.950 . S
C1022 C1020 1.391 . S
C1022 C1023 1.400 . S
C1023 C1017 1.491 . S
C1023 C1022 1.400 . S
C1023 C1024 1.398 . S
C1024 H1012 0.950 . S
C1024 C1023 1.398 . S
C1024 C1025 1.391 . S
C1025 H1013 0.950 . S
C1025 C1021 1.393 . S
C1025 C1024 1.391 . S
H1026 C1034 0.950 . S
H1027 C1039 0.950 . S
H1028 C1036 0.950 . S
H1029 C1038 0.950 . S
H1030 C1040 0.950 . S
H1031 C1042 0.950 . S
H1032 C1044 0.950 . S
H1033 C1045 0.950 . S
C1034 H1026 0.950 . S
C1034 C1035 1.386 . S
C1034 C1036 1.391 . S
C1035 C1034 1.386 . S
C1035 C1039 1.393 . S
C1036 H1028 0.950 . S
C1036 C1034 1.391 . S
C1036 C1037 1.400 . S
C1037 C1036 1.400 . S
C1037 C1038 1.398 . S
C1037 C1043 1.491 . S
C1038 H1029 0.950 . S
C1038 C1037 1.398 . S
C1038 C1039 1.391 . S
C1039 H1027 0.950 . S
C1039 C1035 1.393 . S
C1039 C1038 1.391 . S
C1040 H1030 0.950 . S
C1040 C1041 1.386 . S
C1040 C1042 1.391 . S
C1041 C1040 1.386 . S
C1041 C1045 1.393 . S
C1042 H1031 0.950 . S
C1042 C1040 1.391 . S
C1042 C1043 1.400 . S
C1043 C1037 1.491 . S
C1043 C1042 1.400 . S
C1043 C1044 1.398 . S
C1044 H1032 0.950 . S
C1044 C1043 1.398 . S
C1044 C1045 1.391 . S
C1045 H1033 0.950 . S
C1045 C1041 1.393 . S
C1045 C1044 1.391 . S
H1046 C1054 0.950 . S
H1047 C1059 0.950 . S
H1048 C1056 0.950 . S
H1049 C1058 0.950 . S
H1050 C1060 0.950 . S
H1051 C1062 0.950 . S
H1052 C1064 0.950 . S
H1053 C1065 0.950 . S
C1054 H1046 0.950 . S
C1054 C1055 1.386 . S
C1054 C1056 1.391 . S
C1055 C1054 1.386 . S
C1055 C1059 1.393 . S
C1056 H1048 0.950 . S
C1056 C1054 1.391 . S
C1056 C1057 1.400 . S
C1057 C1056 1.400 . S
C1057 C1058 1.398 . S
C1057 C1063 1.491 . S
C1058 H1049 0.950 . S
C1058 C1057 1.398 . S
C1058 C1059 1.391 . S
C1059 H1047 0.950 . S
C1059 C1055 1.393 . S
C1059 C1058 1.391 . S
C1060 H1050 0.950 . S
C1060 C1061 1.386 . S
C1060 C1062 1.391 . S
C1061 C1060 1.386 . S
C1061 C1065 1.393 . S
C1062 H1051 0.950 . S
C1062 C1060 1.391 . S
C1062 C1063 1.400 . S
C1063 C1057 1.491 . S
C1063 C1062 1.400 . S
C1063 C1064 1.398 . S
C1064 H1052 0.950 . S
C1064 C1063 1.398 . S
C1064 C1065 1.391 . S
C1065 H1053 0.950 . S
C1065 C1061 1.393 . S
C1065 C1064 1.391 . S
H1066 C1074 0.950 . S
H1067 C1079 0.950 . S
H1068 C1076 0.950 . S
H1069 C1078 0.950 . S
H1070 C1080 0.950 . S
H1071 C1082 0.950 . S
H1072 C1084 0.950 . S
H1073 C1085 0.950 . S
C1074 H1066 0.950 . S
C1074 C1075 1.386 . S
C1074 C1076 1.391 . S
C1075 C1074 1.386 . S
C1075 C1079 1.393 . S
C1076 H1068 0.950 . S
C1076 C1074 1.391 . S
C1076 C1077 1.400 . S
C1077 C1076 1.400 . S
C1077 C1078 1.398 . S
C1077 C1083 1.491 . S
C1078 H1069 0.950 . S
C1078 C1077 1.398 . S
C1078 C1079 1.391 . S
C1079 H1067 0.950 . S
C1079 C1075 1.393 . S
C1079 C1078 1.391 . S
C1080 H1070 0.950 . S
C1080 C1081 1.386 . S
C1080 C1082 1.391 . S
C1081 C1080 1.386 . S
C1081 C1085 1.393 . S
C1082 H1071 0.950 . S
C1082 C1080 1.391 . S
C1082 C1083 1.400 . S
C1083 C1077 1.491 . S
C1083 C1082 1.400 . S
C1083 C1084 1.398 . S
C1084 H1072 0.950 . S
C1084 C1083 1.398 . S
C1084 C1085 1.391 . S
C1085 H1073 0.950 . S
C1085 C1081 1.393 . S
C1085 C1084 1.391 . S
H1086 C1094 0.950 . S
H1087 C1099 0.950 . S
H1088 C1096 0.950 . S
H1089 C1098 0.950 . S
H1090 C1100 0.950 . S
H1091 C1102 0.950 . S
H1092 C1104 0.950 . S
H1093 C1105 0.950 . S
C1094 H1086 0.950 . S
C1094 C1095 1.386 . S
C1094 C1096 1.391 . S
C1095 C1094 1.386 . S
C1095 C1099 1.393 . S
C1096 H1088 0.950 . S
C1096 C1094 1.391 . S
C1096 C1097 1.400 . S
C1097 C1096 1.400 . S
C1097 C1098 1.398 . S
C1097 C1103 1.491 . S
C1098 H1089 0.950 . S
C1098 C1097 1.398 . S
C1098 C1099 1.391 . S
C1099 H1087 0.950 . S
C1099 C1095 1.393 . S
C1099 C1098 1.391 . S
C1100 H1090 0.950 . S
C1100 C1101 1.386 . S
C1100 C1102 1.391 . S
C1101 C1100 1.386 . S
C1101 C1105 1.393 . S
C1102 H1091 0.950 . S
C1102 C1100 1.391 . S
C1102 C1103 1.400 . S
C1103 C1097 1.491 . S
C1103 C1102 1.400 . S
C1103 C1104 1.398 . S
C1104 H1092 0.950 . S
C1104 C1103 1.398 . S
C1104 C1105 1.391 . S
C1105 H1093 0.950 . S
C1105 C1101 1.393 . S
C1105 C1104 1.391 . S
H1106 C1114 0.950 . S
H1107 C1119 0.950 . S
H1108 C1116 0.950 . S
H1109 C1118 0.950 . S
H1110 C1120 0.950 . S
H1111 C1122 0.950 . S
H1112 C1124 0.950 . S
H1113 C1125 0.950 . S
C1114 H1106 0.950 . S
C1114 C1115 1.386 . S
C1114 C1116 1.391 . S
C1115 C1114 1.386 . S
C1115 C1119 1.393 . S
C1116 H1108 0.950 . S
C1116 C1114 1.391 . S
C1116 C1117 1.400 . S
C1117 C1116 1.400 . S
C1117 C1118 1.398 . S
C1117 C1123 1.491 . S
C1118 H1109 0.950 . S
C1118 C1117 1.398 . S
C1118 C1119 1.391 . S
C1119 H1107 0.950 . S
C1119 C1115 1.393 . S
C1119 C1118 1.391 . S
C1120 H1110 0.950 . S
C1120 C1121 1.386 . S
C1120 C1122 1.391 . S
C1121 C1120 1.386 . S
C1121 C1125 1.393 . S
C1122 H1111 0.950 . S
C1122 C1120 1.391 . S
C1122 C1123 1.400 . S
C1123 C1117 1.491 . S
C1123 C1122 1.400 . S
C1123 C1124 1.398 . S
C1124 H1112 0.950 . S
C1124 C1123 1.398 . S
C1124 C1125 1.391 . S
C1125 H1113 0.950 . S
C1125 C1121 1.393 . S
C1125 C1124 1.391 . S
H1126 C1134 0.950 . S
H1127 C1139 0.950 . S
H1128 C1136 0.950 . S
H1129 C1138 0.950 . S
H1130 C1140 0.950 . S
H1131 C1142 0.950 . S
H1132 C1144 0.950 . S
H1133 C1145 0.950 . S
C1134 H1126 0.950 . S
C1134 C1135 1.386 . S
C1134 C1136 1.391 . S
C1135 C1134 1.386 . S
C1135 C1139 1.393 . S
C1136 H1128 0.950 . S
C1136 C1134 1.391 . S
C1136 C1137 1.400 . S
C1137 C1136 1.400 . S
C1137 C1138 1.398 . S
C1137 C1143 1.491 . S
C1138 H1129 0.950 . S
C1138 C1137 1.398 . S
C1138 C1139 1.391 . S
C1139 H1127 0.950 . S
C1139 C1135 1.393 . S
C1139 C1138 1.391 . S
C1140 H1130 0.950 . S
C1140 C1141 1.386 . S
C1140 C1142 1.391 . S
C1141 C1140 1.386 . S
C1141 C1145 1.393 . S
C1142 H1131 0.950 . S
C1142 C1140 1.391 . S
C1142 C1143 1.400 . S
C1143 C1137 1.491 . S
C1143 C1142 1.400 . S
C1143 C1144 1.398 . S
C1144 H1132 0.950 . S
C1144 C1143 1.398 . S
C1144 C1145 1.391 . S
C1145 H1133 0.950 . S
C1145 C1141 1.393 . S
C1145 C1144 1.391 . S
H1146 C1154 0.950 . S
H1147 C1159 0.950 . S
H1148 C1156 0.950 . S
H1149 C1158 0.950 . S
H1150 C1160 0.950 . S
H1151 C1162 0.950 . S
H1152 C1164 0.950 . S
H1153 C1165 0.950 . S
C1154 H1146 0.950 . S
C1154 C1155 1.386 . S
C1154 C1156 1.391 . S
C1155 C1154 1.386 . S
C1155 C1159 1.393 . S
C1156 H1148 0.950 . S
C1156 C1154 1.391 . S
C1156 C1157 1.400 . S
C1157 C1156 1.400 . S
C1157 C1158 1.398 . S
C1157 C1163 1.491 . S
C1158 H1149 0.950 . S
C1158 C1157 1.398 . S
C1158 C1159 1.391 . S
C1159 H1147 0.950 . S
C1159 C1155 1.393 . S
C1159 C1158 1.391 . S
C1160 H1150 0.950 . S
C1160 C1161 1.386 . S
C1160 C1162 1.391 . S
C1161 C1160 1.386 . S
C1161 C1165 1.393 . S
C1162 H1151 0.950 . S
C1162 C1160 1.391 . S
C1162 C1163 1.400 . S
C1163 C1157 1.491 . S
C1163 C1162 1.400 . S
C1163 C1164 1.398 . S
C1164 H1152 0.950 . S
C1164 C1163 1.398 . S
C1164 C1165 1.391 . S
C1165 H1153 0.950 . S
C1165 C1161 1.393 . S
C1165 C1164 1.391 . S
H1166 C1174 0.950 . S
H1167 C1179 0.950 . S
H1168 C1176 0.950 . S
H1169 C1178 0.950 . S
H1170 C1180 0.950 . S
H1171 C1182 0.950 . S
H1172 C1184 0.950 . S
H1173 C1185 0.950 . S
C1174 H1166 0.950 . S
C1174 C1175 1.386 . S
C1174 C1176 1.391 . S
C1175 C1174 1.386 . S
C1175 C1179 1.393 . S
C1176 H1168 0.950 . S
C1176 C1174 1.391 . S
C1176 C1177 1.400 . S
C1177 C1176 1.400 . S
C1177 C1178 1.398 . S
C1177 C1183 1.491 . S
C1178 H1169 0.950 . S
C1178 C1177 1.398 . S
C1178 C1179 1.391 . S
C1179 H1167 0.950 . S
C1179 C1175 1.393 . S
C1179 C1178 1.391 . S
C1180 H1170 0.950 . S
C1180 C1181 1.386 . S
C1180 C1182 1.391 . S
C1181 C1180 1.386 . S
C1181 C1185 1.393 . S
C1182 H1171 0.950 . S
C1182 C1180 1.391 . S
C1182 C1183 1.400 . S
C1183 C1177 1.491 . S
C1183 C1182 1.400 . S
C1183 C1184 1.398 . S
C1184 H1172 0.950 . S
C1184 C1183 1.398 . S
C1184 C1185 1.391 . S
C1185 H1173 0.950 . S
C1185 C1181 1.393 . S
C1185 C1184 1.391 . S
H1186 C1194 0.950 . S
H1187 C1199 0.950 . S
H1188 C1196 0.950 . S
H1189 C1198 0.950 . S
H1190 C1200 0.950 . S
H1191 C1202 0.950 . S
H1192 C1204 0.950 . S
H1193 C1205 0.950 . S
C1194 H1186 0.950 . S
C1194 C1195 1.386 . S
C1194 C1196 1.391 . S
C1195 C1194 1.386 . S
C1195 C1199 1.393 . S
C1196 H1188 0.950 . S
C1196 C1194 1.391 . S
C1196 C1197 1.400 . S
C1197 C1196 1.400 . S
C1197 C1198 1.398 . S
C1197 C1203 1.491 . S
C1198 H1189 0.950 . S
C1198 C1197 1.398 . S
C1198 C1199 1.391 . S
C1199 H1187 0.950 . S
C1199 C1195 1.393 . S
C1199 C1198 1.391 . S
C1200 H1190 0.950 . S
C1200 C1201 1.386 . S
C1200 C1202 1.391 . S
C1201 C1200 1.386 . S
C1201 C1205 1.393 . S
C1202 H1191 0.950 . S
C1202 C1200 1.391 . S
C1202 C1203 1.400 . S
C1203 C1197 1.491 . S
C1203 C1202 1.400 . S
C1203 C1204 1.398 . S
C1204 H1192 0.950 . S
C1204 C1203 1.398 . S
C1204 C1205 1.391 . S
C1205 H1193 0.950 . S
C1205 C1201 1.393 . S
C1205 C1204 1.391 . S
H1206 C1214 0.950 . S
H1207 C1219 0.950 . S
H1208 C1216 0.950 . S
H1209 C1218 0.950 . S
H1210 C1220 0.950 . S
H1211 C1222 0.950 . S
H1212 C1224 0.950 . S
H1213 C1225 0.950 . S
C1214 H1206 0.950 . S
C1214 C1215 1.386 . S
C1214 C1216 1.391 . S
C1215 C1214 1.386 . S
C1215 C1219 1.393 . S
C1216 H1208 0.950 . S
C1216 C1214 1.391 . S
C1216 C1217 1.400 . S
C1217 C1216 1.400 . S
C1217 C1218 1.398 . S
C1217 C1223 1.491 . S
C1218 H1209 0.950 . S
C1218 C1217 1.398 . S
C1218 C1219 1.391 . S
C1219 H1207 0.950 . S
C1219 C1215 1.393 . S
C1219 C1218 1.391 . S
C1220 H1210 0.950 . S
C1220 C1221 1.386 . S
C1220 C1222 1.391 . S
C1221 C1220 1.386 . S
C1221 C1225 1.393 . S
C1222 H1211 0.950 . S
C1222 C1220 1.391 . S
C1222 C1223 1.400 . S
C1223 C1217 1.491 . S
C1223 C1222 1.400 . S
C1223 C1224 1.398 . S
C1224 H1212 0.950 . S
C1224 C1223 1.398 . S
C1224 C1225 1.391 . S
C1225 H1213 0.950 . S
C1225 C1221 1.393 . S
C1225 C1224 1.391 . S
H1226 C1234 0.950 . S
H1227 C1239 0.950 . S
H1228 C1236 0.950 . S
H1229 C1238 0.950 . S
H1230 C1240 0.950 . S
H1231 C1242 0.950 . S
H1232 C1244 0.950 . S
H1233 C1245 0.950 . S
C1234 H1226 0.950 . S
C1234 C1235 1.386 . S
C1234 C1236 1.391 . S
C1235 C1234 1.386 . S
C1235 C1239 1.393 . S
C1236 H1228 0.950 . S
C1236 C1234 1.391 . S
C1236 C1237 1.400 . S
C1237 C1236 1.400 . S
C1237 C1238 1.398 . S
C1237 C1243 1.491 . S
C1238 H1229 0.950 . S
C1238 C1237 1.398 . S
C1238 C1239 1.391 . S
C1239 H1227 0.950 . S
C1239 C1235 1.393 . S
C1239 C1238 1.391 . S
C1240 H1230 0.950 . S
C1240 C1241 1.386 . S
C1240 C1242 1.391 . S
C1241 C1240 1.386 . S
C1241 C1245 1.393 . S
C1242 H1231 0.950 . S
C1242 C1240 1.391 . S
C1242 C1243 1.400 . S
C1243 C1237 1.491 . S
C1243 C1242 1.400 . S
C1243 C1244 1.398 . S
C1244 H1232 0.950 . S
C1244 C1243 1.398 . S
C1244 C1245 1.391 . S
C1245 H1233 0.950 . S
C1245 C1241 1.393 . S
C1245 C1244 1.391 . S
H1246 C1254 0.950 . S
H1247 C1259 0.950 . S
H1248 C1256 0.950 . S
H1249 C1258 0.950 . S
H1250 C1260 0.950 . S
H1251 C1262 0.950 . S
H1252 C1264 0.950 . S
H1253 C1265 0.950 . S
C1254 H1246 0.950 . S
C1254 C1255 1.386 . S
C1254 C1256 1.391 . S
C1255 C1254 1.386 . S
C1255 C1259 1.393 . S
C1256 H1248 0.950 . S
C1256 C1254 1.391 . S
C1256 C1257 1.400 . S
C1257 C1256 1.400 . S
C1257 C1258 1.398 . S
C1257 C1263 1.491 . S
C1258 H1249 0.950 . S
C1258 C1257 1.398 . S
C1258 C1259 1.391 . S
C1259 H1247 0.950 . S
C1259 C1255 1.393 . S
C1259 C1258 1.391 . S
C1260 H1250 0.950 . S
C1260 C1261 1.386 . S
C1260 C1262 1.391 . S
C1261 C1260 1.386 . S
C1261 C1265 1.393 . S
C1262 H1251 0.950 . S
C1262 C1260 1.391 . S
C1262 C1263 1.400 . S
C1263 C1257 1.491 . S
C1263 C1262 1.400 . S
C1263 C1264 1.398 . S
C1264 H1252 0.950 . S
C1264 C1263 1.398 . S
C1264 C1265 1.391 . S
C1265 H1253 0.950 . S
C1265 C1261 1.393 . S
C1265 C1264 1.391 . S
H1266 C1274 0.950 . S
H1267 C1279 0.950 . S
H1268 C1276 0.950 . S
H1269 C1278 0.950 . S
H1270 C1280 0.950 . S
H1271 C1282 0.950 . S
H1272 C1284 0.950 . S
H1273 C1285 0.950 . S
C1274 H1266 0.950 . S
C1274 C1275 1.386 . S
C1274 C1276 1.391 . S
C1275 C1274 1.386 . S
C1275 C1279 1.393 . S
C1276 H1268 0.950 . S
C1276 C1274 1.391 . S
C1276 C1277 1.400 . S
C1277 C1276 1.400 . S
C1277 C1278 1.398 . S
C1277 C1283 1.491 . S
C1278 H1269 0.950 . S
C1278 C1277 1.398 . S
C1278 C1279 1.391 . S
C1279 H1267 0.950 . S
C1279 C1275 1.393 . S
C1279 C1278 1.391 . S
C1280 H1270 0.950 . S
C1280 C1281 1.386 . S
C1280 C1282 1.391 . S
C1281 C1280 1.386 . S
C1281 C1285 1.393 . S
C1282 H1271 0.950 . S
C1282 C1280 1.391 . S
C1282 C1283 1.400 . S
C1283 C1277 1.491 . S
C1283 C1282 1.400 . S
C1283 C1284 1.398 . S
C1284 H1272 0.950 . S
C1284 C1283 1.398 . S
C1284 C1285 1.391 . S
C1285 H1273 0.950 . S
C1285 C1281 1.393 . S
C1285 C1284 1.391 . S
H1286 C1294 0.950 . S
H1287 C1299 0.950 . S
H1288 C1296 0.950 . S
H1289 C1298 0.950 . S
H1290 C1300 0.950 . S
H1291 C1302 0.950 . S
H1292 C1304 0.950 . S
H1293 C1305 0.950 . S
C1294 H1286 0.950 . S
C1294 C1295 1.386 . S
C1294 C1296 1.391 . S
C1295 C1294 1.386 . S
C1295 C1299 1.393 . S
C1296 H1288 0.950 . S
C1296 C1294 1.391 . S
C1296 C1297 1.400 . S
C1297 C1296 1.400 . S
C1297 C1298 1.398 . S
C1297 C1303 1.491 . S
C1298 H1289 0.950 . S
C1298 C1297 1.398 . S
C1298 C1299 1.391 . S
C1299 H1287 0.950 . S
C1299 C1295 1.393 . S
C1299 C1298 1.391 . S
C1300 H1290 0.950 . S
C1300 C1301 1.386 . S
C1300 C1302 1.391 . S
C1301 C1300 1.386 . S
C1301 C1305 1.393 . S
C1302 H1291 0.950 . S
C1302 C1300 1.391 . S
C1302 C1303 1.400 . S
C1303 C1297 1.491 . S
C1303 C1302 1.400 . S
C1303 C1304 1.398 . S
C1304 H1292 0.950 . S
C1304 C1303 1.398 . S
C1304 C1305 1.391 . S
C1305 H1293 0.950 . S
C1305 C1301 1.393 . S
C1305 C1304 1.391 . S
C361 C171 1.539 . S
C355 C9 1.569 . S
C381 C161 1.362 . S
C375 C22 1.360 . S
C401 C162 0.835 . S
C395 C49 0.860 . S
C415 C61 1.288 . S
C421 C184 1.258 . S
C435 C81 1.347 . S
C441 C187 1.343 . S
C461 C170 0.869 . S
C455 C108 0.848 . S
C475 C122 1.286 . S
C481 C160 1.259 . S
C495 C148 1.576 . S
C501 C178 1.550 . S
C521 C191 2.143 . S
C515 C18 2.145 . S
C535 C39 1.435 . S
C541 C240 1.401 . S
C561 C218 2.219 . S
C555 C58 2.209 . S
C581 C232 0.828 . S
C575 C69 0.831 . S
C595 C89 0.848 . S
C601 C193 0.851 . S
C621 C246 1.292 . S
C615 C102 1.337 . S
C635 C139 1.447 . S
C641 C202 1.414 . S
C655 C142 1.378 . S
C661 C223 1.368 . S
C675 C1 1.376 . S
C681 C249 1.360 . S
C695 C98 1.429 . S
C701 C233 1.394 . S
C721 C192 2.224 . S
C715 C119 2.218 . S
C741 C224 0.829 . S
C735 C128 0.832 . S
C755 C159 2.132 . S
C761 C215 2.151 . S
C775 C41 1.339 . S
C781 C222 1.291 . S
C801 C209 1.408 . S
C795 C78 1.444 . S
C815 C28 0.835 . S
C821 C201 0.811 . S
C835 C149 1.581 . S
C841 C264 1.550 . S
C855 C82 1.361 . S
C861 C254 1.344 . S
C881 C255 0.834 . S
C875 C109 0.867 . S
C901 C277 1.257 . S
C895 C121 1.284 . S
C915 C21 1.372 . S
C921 C280 1.364 . S
C941 C263 0.867 . S
C935 C48 0.865 . S
C955 C62 1.294 . S
C961 C253 1.264 . S
C975 C8 1.569 . S
C981 C271 1.535 . S
C995 C158 2.136 . S
C1001 C284 2.148 . S
C1021 C333 1.414 . S
C1015 C99 1.447 . S
C1035 C118 2.210 . S
C1041 C311 2.232 . S
C1055 C129 0.844 . S
C1061 C325 0.845 . S
C1081 C286 0.815 . S
C1075 C29 0.826 . S
C1095 C42 1.339 . S
C1101 C339 1.284 . S
C1121 C295 1.414 . S
C1115 C79 1.431 . S
C1141 C316 1.363 . S
C1135 C2 1.380 . S
C1161 C342 1.349 . S
C1155 C141 1.387 . S
C1175 C38 1.432 . S
C1181 C326 1.396 . S
C1195 C59 2.207 . S
C1201 C285 2.220 . S
C1221 C317 0.817 . S
C1215 C68 0.836 . S
C1235 C19 2.145 . S
C1241 C308 2.147 . S
C1255 C101 1.324 . S
C1261 C315 1.287 . S
C1281 C302 1.395 . S
C1275 C138 1.429 . S
C1301 C294 0.808 . S
C1295 C88 0.823 . S
