# Generated by pormake.
# Topology tsx, (6,3)-cn, num edge types: 1
# Building blocks:
#     Node 0, Type 0, BuildingBlock: LEVNOQ01_clean_sbu_1, # of connection points: 6
#     Node 1, Type 0, BuildingBlock: LEVNOQ01_clean_sbu_1, # of connection points: 6
#     Node 2, Type 1, BuildingBlock: OLANEW_clean_sbu_2, # of connection points: 3
#     Node 3, Type 1, BuildingBlock: OLANEW_clean_sbu_2, # of connection points: 3
#     Node 4, Type 1, BuildingBlock: OLANEW_clean_sbu_2, # of connection points: 3
#     Node 5, Type 1, BuildingBlock: OLANEW_clean_sbu_2, # of connection points: 3
#     Edge 6, Type (0, 1), BuildingBlock: TEMPAE_clean_linker_10, # of connection points: 2
#     Edge 7, Type (0, 1), BuildingBlock: TEMPAE_clean_linker_10, # of connection points: 2
#     Edge 8, Type (0, 1), BuildingBlock: TEMPAE_clean_linker_10, # of connection points: 2
#     Edge 9, Type (0, 1), BuildingBlock: TEMPAE_clean_linker_10, # of connection points: 2
#     Edge 10, Type (0, 1), BuildingBlock: TEMPAE_clean_linker_10, # of connection points: 2
#     Edge 11, Type (0, 1), BuildingBlock: TEMPAE_clean_linker_10, # of connection points: 2
#     Edge 12, Type (0, 1), BuildingBlock: TEMPAE_clean_linker_10, # of connection points: 2
#     Edge 13, Type (0, 1), BuildingBlock: TEMPAE_clean_linker_10, # of connection points: 2
#     Edge 14, Type (0, 1), BuildingBlock: TEMPAE_clean_linker_10, # of connection points: 2
#     Edge 15, Type (0, 1), BuildingBlock: TEMPAE_clean_linker_10, # of connection points: 2
#     Edge 16, Type (0, 1), BuildingBlock: TEMPAE_clean_linker_10, # of connection points: 2
#     Edge 17, Type (0, 1), BuildingBlock: TEMPAE_clean_linker_10, # of connection points: 2
# Relax obj value: 0.040
# Max RMSD: 0.095
# Mean RMSD: 0.049
data_MOF--net-tsx--node1-LEVNOQ01_clean_sbu_1--node2-OLANEW_clean_sbu_2--edge1-TEMPAE_clean_linker_10
_symmetry_space_group_name_H-M    P1
_symmetry_Int_Tables_number       1
_symmetry_cell_setting            triclinic
loop_
_symmetry_equiv_pos_as_xyz
'x, y, z'
_cell_length_a     20.696347
_cell_length_b     24.787064
_cell_length_c     35.162928
_cell_angle_alpha  103.28893
_cell_angle_beta   90.170251
_cell_angle_gamma 90.600094
loop_
_atom_site_label
_atom_site_type_symbol
_atom_site_fract_x
_atom_site_fract_y
_atom_site_fract_z
_atom_type_partial_charge
O0 O 0.1211 0.99075 0.07215 0.0
Mg1 Mg 0.14353 0.00721 0.01675 0.0
O2 O 0.02044 0.01578 0.06697 0.0
Mg3 Mg 0.02818 0.00943 0.00069 0.0
O4 O 0.11219 0.08017 0.00719 0.0
O5 O 0.21333 0.0647 0.02524 0.0
O6 O 0.04276 0.00365 0.93395 0.0
O7 O 0.96511 0.08983 0.00868 0.0
Mg8 Mg 0.90534 0.98569 0.95491 0.0
O9 O 0.94215 0.94505 0.99453 0.0
O10 O 0.95348 0.97295 0.90134 0.0
O11 O 0.87034 0.06468 0.98051 0.0
O12 O 0.84918 0.92184 0.96108 0.0
C13 C 0.13519 0.90736 0.97567 0.0
C14 C 0.06586 0.00198 0.08721 0.0
C15 C 0.17159 0.09726 0.01539 0.0
C16 C 0.01212 0.98757 0.90181 0.0
C17 C 0.90742 0.10129 0.00059 0.0
C18 C 0.89072 0.91358 0.98653 0.0
O19 O 0.17316 0.9439 0.96906 0.0
O20 O 0.0832 0.92329 0.99376 0.0
O21 O 0.61591 0.55738 0.60403 0.0
Mg22 Mg 0.6685 0.54974 0.55285 0.0
O23 O 0.52991 0.51361 0.57355 0.0
Mg24 Mg 0.54075 0.51098 0.50611 0.0
O25 O 0.6183 0.58003 0.51298 0.0
O26 O 0.71029 0.61845 0.54045 0.0
O27 O 0.56116 0.51518 0.44014 0.0
O28 O 0.46829 0.58342 0.51439 0.0
Mg29 Mg 0.4565 0.47488 0.45494 0.0
O30 O 0.45841 0.43847 0.50156 0.0
O31 O 0.51232 0.44223 0.40572 0.0
O32 O 0.41021 0.55224 0.46135 0.0
O33 O 0.38574 0.41981 0.45243 0.0
C34 C 0.67252 0.43124 0.50881 0.0
C35 C 0.56116 0.53452 0.60508 0.0
C36 C 0.6622 0.61871 0.51705 0.0
C37 C 0.55201 0.48133 0.40735 0.0
C38 C 0.42344 0.59008 0.4912 0.0
C39 C 0.40842 0.41029 0.48434 0.0
O40 O 0.70524 0.47086 0.52943 0.0
O41 O 0.61473 0.43816 0.4981 0.0
O42 O 0.01527 0.95137 0.3826 0.0
Cd43 Cd 0.0149 0.94599 0.45104 0.0
O44 O 0.07679 0.02635 0.39254 0.0
Cd45 Cd 0.07218 0.03891 0.45553 0.0
O46 O 0.00263 0.10397 0.47405 0.0
C47 C 0.94261 0.09252 0.47118 0.0
O48 O 0.92342 0.04045 0.46186 0.0
C49 C 0.04537 0.98807 0.36947 0.0
C50 C 0.11905 0.88581 0.46825 0.0
O51 O 0.06943 0.86182 0.44969 0.0
O52 O 0.11988 0.93879 0.47929 0.0
O53 O 0.98103 0.06219 0.62322 0.0
Cd54 Cd 0.97638 0.08812 0.56064 0.0
O55 O 0.06989 0.01569 0.60521 0.0
Cd56 Cd 0.03343 0.00087 0.54526 0.0
O57 O 0.94859 0.9541 0.51797 0.0
C58 C 0.9292 0.9206 0.53803 0.0
O59 O 0.96096 0.91923 0.57023 0.0
C60 C 0.0306 0.03751 0.63193 0.0
C61 C 0.08333 0.15668 0.55794 0.0
O62 O 0.02822 0.17706 0.56958 0.0
O63 O 0.08751 0.1039 0.54669 0.0
O64 O 0.49186 0.45564 0.89292 0.0
Cd65 Cd 0.50731 0.45882 0.96242 0.0
O66 O 0.56747 0.51863 0.89236 0.0
Cd67 Cd 0.56544 0.54629 0.95561 0.0
O68 O 0.49606 0.61028 0.97949 0.0
C69 C 0.43644 0.5971 0.97773 0.0
O70 O 0.41974 0.54462 0.96589 0.0
C71 C 0.52688 0.483 0.8743 0.0
C72 C 0.61291 0.3973 0.97673 0.0
O73 O 0.55886 0.37409 0.96429 0.0
O74 O 0.61762 0.45017 0.98265 0.0
O75 O 0.48929 0.57628 0.13371 0.0
Cd76 Cd 0.47868 0.5889 0.06739 0.0
O77 O 0.57367 0.52382 0.11494 0.0
Cd78 Cd 0.5322 0.50076 0.05617 0.0
O79 O 0.44709 0.45424 0.02925 0.0
C80 C 0.39895 0.45518 0.05175 0.0
O81 O 0.40266 0.48623 0.08742 0.0
C82 C 0.53891 0.55145 0.1422 0.0
C83 C 0.58379 0.65442 0.05619 0.0
O84 O 0.52789 0.6756 0.06445 0.0
O85 O 0.58969 0.60203 0.05202 0.0
C86 C 0.14975 0.19491 0.00905 0.0
C87 C 0.19325 0.15386 0.01378 0.0
C88 C 0.17163 0.24932 0.01017 0.0
C89 C 0.2382 0.26265 0.01653 0.0
C90 C 0.28229 0.22068 0.01975 0.0
C91 C 0.25934 0.16706 0.01816 0.0
C92 C 0.12334 0.29268 0.0058 0.0
C93 C 0.35378 0.23272 0.02646 0.0
C94 C 0.33618 0.3853 0.00204 0.0
C95 C 0.3457 0.41415 0.04094 0.0
C96 C 0.29414 0.33919 0.9928 0.0
C97 C 0.26275 0.32071 0.02331 0.0
C98 C 0.26783 0.35271 0.06215 0.0
C99 C 0.30868 0.39943 0.0704 0.0
C100 C 0.28792 0.30749 0.95083 0.0
C101 C 0.23599 0.33424 0.09569 0.0
H102 H 0.09866 0.18492 0.00533 0.0
H103 H 0.29364 0.13555 0.0212 0.0
H104 H 0.11362 0.32004 0.03486 0.0
H105 H 0.14273 0.31912 0.98684 0.0
H106 H 0.07676 0.27377 0.99334 0.0
H107 H 0.3816 0.19506 0.02771 0.0
H108 H 0.37393 0.25038 0.00271 0.0
H109 H 0.36145 0.26385 0.05436 0.0
H110 H 0.36374 0.39717 0.97902 0.0
H111 H 0.3153 0.42179 0.10052 0.0
H112 H 0.23773 0.29193 0.94414 0.0
H113 H 0.32016 0.27108 0.94576 0.0
H114 H 0.30184 0.33351 0.93026 0.0
H115 H 0.18505 0.32163 0.0885 0.0
H116 H 0.23715 0.36728 0.12305 0.0
H117 H 0.26165 0.29761 0.10114 0.0
C118 C 0.18371 0.81789 0.94183 0.0
C119 C 0.16227 0.85314 0.97627 0.0
C120 C 0.22193 0.77186 0.94318 0.0
C121 C 0.24126 0.76276 0.97991 0.0
C122 C 0.2176 0.79734 0.01473 0.0
C123 C 0.17752 0.84175 0.01243 0.0
C124 C 0.24463 0.73494 0.9054 0.0
C125 C 0.23846 0.79007 0.05443 0.0
C126 C 0.32093 0.6264 0.98316 0.0
C127 C 0.38667 0.64051 0.98247 0.0
C128 C 0.27289 0.66596 0.98307 0.0
C129 C 0.29113 0.72074 0.98195 0.0
C130 C 0.35745 0.73557 0.98229 0.0
C131 C 0.40442 0.69537 0.9828 0.0
C132 C 0.2027 0.64883 0.98315 0.0
C133 C 0.3789 0.79361 0.98108 0.0
H134 H 0.17232 0.82737 0.91397 0.0
H135 H 0.16193 0.87002 0.03906 0.0
H136 H 0.29698 0.74219 0.90168 0.0
H137 H 0.23801 0.69066 0.90598 0.0
H138 H 0.21835 0.74291 0.87967 0.0
H139 H 0.21103 0.81699 0.07848 0.0
H140 H 0.23215 0.74629 0.05634 0.0
H141 H 0.29061 0.80059 0.05888 0.0
H142 H 0.30692 0.5841 0.98306 0.0
H143 H 0.4551 0.70658 0.98209 0.0
H144 H 0.17874 0.65404 0.95597 0.0
H145 H 0.17736 0.67588 0.00804 0.0
H146 H 0.19659 0.60503 0.98527 0.0
H147 H 0.36179 0.80358 0.95359 0.0
H148 H 0.43229 0.79884 0.98277 0.0
H149 H 0.35717 0.82414 0.00566 0.0
C150 C 0.85985 0.87776 0.04434 0.0
C151 C 0.87763 0.86731 0.005 0.0
C152 C 0.82247 0.8387 0.05826 0.0
C153 C 0.80275 0.78877 0.03199 0.0
C154 C 0.82772 0.7756 0.99358 0.0
C155 C 0.86473 0.81527 0.98053 0.0
C156 C 0.79826 0.85368 0.09973 0.0
C157 C 0.80864 0.7228 0.9646 0.0
C158 C 0.70249 0.67478 0.06031 0.0
C159 C 0.63985 0.6895 0.05154 0.0
C160 C 0.75611 0.70812 0.05603 0.0
C161 C 0.74678 0.75617 0.04146 0.0
C162 C 0.68339 0.77118 0.03277 0.0
C163 C 0.63066 0.73805 0.03845 0.0
C164 C 0.82262 0.69164 0.06657 0.0
C165 C 0.67131 0.82136 0.01627 0.0
H166 H 0.86944 0.91833 0.06311 0.0
H167 H 0.87851 0.80757 0.95002 0.0
H168 H 0.74833 0.86962 0.09991 0.0
H169 H 0.79678 0.81682 0.11261 0.0
H170 H 0.82896 0.88635 0.11846 0.0
H171 H 0.84041 0.71464 0.93853 0.0
H172 H 0.81043 0.6867 0.97821 0.0
H173 H 0.7582 0.72628 0.95469 0.0
H174 H 0.70948 0.63749 0.07092 0.0
H175 H 0.58224 0.74928 0.03153 0.0
H176 H 0.84727 0.72722 0.08643 0.0
H177 H 0.85248 0.67992 0.03986 0.0
H178 H 0.82097 0.65614 0.08093 0.0
H179 H 0.69123 0.85916 0.03629 0.0
H180 H 0.61907 0.82767 0.01162 0.0
H181 H 0.6964 0.81665 0.98786 0.0
C182 C 0.82497 0.16816 0.03173 0.0
C183 C 0.8833 0.15823 0.01149 0.0
C184 C 0.78995 0.21639 0.03222 0.0
C185 C 0.81285 0.25437 0.01067 0.0
C186 C 0.87479 0.24691 0.99322 0.0
C187 C 0.90973 0.19887 0.99415 0.0
C188 C 0.72522 0.22358 0.05234 0.0
C189 C 0.90099 0.28613 0.96983 0.0
C190 C 0.67468 0.30979 0.96068 0.0
C191 C 0.66793 0.36343 0.98381 0.0
C192 C 0.7241 0.27527 0.96795 0.0
C193 C 0.76671 0.29423 -1e-05 0.0
C194 C 0.76109 0.34896 0.02298 0.0
C195 C 0.7121 0.3833 0.01426 0.0
C196 C 0.72927 0.21773 0.94199 0.0
C197 C 0.80455 0.37025 0.05785 0.0
H198 H 0.80468 0.13645 0.04505 0.0
H199 H 0.95465 0.19068 0.97815 0.0
H200 H 0.71828 0.26739 0.06795 0.0
H201 H 0.68613 0.21236 0.03017 0.0
H202 H 0.72009 0.1968 0.07355 0.0
H203 H 0.95392 0.2814 0.96524 0.0
H204 H 0.87687 0.27719 0.94078 0.0
H205 H 0.89086 0.32982 0.98438 0.0
H206 H 0.641 0.29467 0.93684 0.0
H207 H 0.70666 0.42481 0.03228 0.0
H208 H 0.71652 0.18644 0.95886 0.0
H209 H 0.77963 0.20981 0.93163 0.0
H210 H 0.6967 0.21149 0.91614 0.0
H211 H 0.79135 0.34939 0.08152 0.0
H212 H 0.80022 0.41574 0.06924 0.0
H213 H 0.85576 0.36041 0.05034 0.0
C214 C 0.70787 0.66251 0.4675 0.0
C215 C 0.66061 0.66323 0.49596 0.0
C216 C 0.73782 0.71197 0.46359 0.0
C217 C 0.71986 0.76251 0.48903 0.0
C218 C 0.66296 0.76403 0.51151 0.0
C219 C 0.63405 0.71388 0.51505 0.0
C220 C 0.79596 0.70876 0.43749 0.0
C221 C 0.63934 0.81755 0.53695 0.0
C222 C 0.86282 0.83922 0.54446 0.0
C223 C 0.87379 0.88225 0.52546 0.0
C224 C 0.81236 0.80095 0.53305 0.0
C225 C 0.77059 0.80603 0.50201 0.0
C226 C 0.78004 0.85041 0.48333 0.0
C227 C 0.83219 0.88769 0.49496 0.0
C228 C 0.80479 0.75433 0.554 0.0
C229 C 0.73647 0.85827 0.45062 0.0
H230 H 0.72793 0.62314 0.45245 0.0
H231 H 0.59694 0.71441 0.53685 0.0
H232 H 0.79799 0.74478 0.42376 0.0
H233 H 0.84053 0.70956 0.45527 0.0
H234 H 0.79547 0.66998 0.41415 0.0
H235 H 0.58715 0.81466 0.54366 0.0
H236 H 0.66664 0.82664 0.56497 0.0
H237 H 0.64727 0.85261 0.52267 0.0
H238 H 0.89464 0.83464 0.56803 0.0
H239 H 0.84017 0.92111 0.48025 0.0
H240 H 0.80879 0.7137 0.53287 0.0
H241 H 0.75642 0.75594 0.56767 0.0
H242 H 0.84181 0.75624 0.57723 0.0
H243 H 0.75667 0.83562 0.42232 0.0
H244 H 0.73371 0.90276 0.44987 0.0
H245 H 0.68684 0.8422 0.45326 0.0
C246 C 0.69086 0.33698 0.46544 0.0
C247 C 0.70113 0.37566 0.50085 0.0
C248 C 0.72358 0.28612 0.45748 0.0
C249 C 0.76595 0.2738 0.48604 0.0
C250 C 0.7733 0.31166 0.52261 0.0
C251 C 0.74135 0.36225 0.52936 0.0
C252 C 0.71537 0.247 0.41796 0.0
C253 C 0.81705 0.29979 0.55416 0.0
C254 C 0.83159 0.13093 0.48408 0.0
C255 C 0.89575 0.13737 0.47322 0.0
C256 C 0.78733 0.17418 0.48662 0.0
C257 C 0.80766 0.22422 0.47715 0.0
C258 C 0.87156 0.22961 0.46417 0.0
C259 C 0.91509 0.18643 0.46293 0.0
C260 C 0.71997 0.16739 0.50131 0.0
C261 C 0.89478 0.28186 0.45304 0.0
H262 H 0.65959 0.34743 0.44346 0.0
H263 H 0.74833 0.39178 0.5571 0.0
H264 H 0.76052 0.2468 0.40099 0.0
H265 H 0.70663 0.20402 0.4211 0.0
H266 H 0.67487 0.2592 0.40101 0.0
H267 H 0.81231 0.33105 0.58222 0.0
H268 H 0.80601 0.2582 0.55937 0.0
H269 H 0.86811 0.29971 0.54463 0.0
H270 H 0.81658 0.09278 0.49177 0.0
H271 H 0.96438 0.19102 0.45368 0.0
H272 H 0.68348 0.18005 0.48199 0.0
H273 H 0.71442 0.19482 0.53084 0.0
H274 H 0.70949 0.12402 0.50315 0.0
H275 H 0.85987 0.29443 0.43276 0.0
H276 H 0.94298 0.27673 0.43893 0.0
H277 H 0.89816 0.31616 0.47956 0.0
C278 C 0.33269 0.33033 0.47582 0.0
C279 C 0.37496 0.36738 0.50043 0.0
C280 C 0.2925 0.2942 0.49026 0.0
C281 C 0.29498 0.29422 0.53044 0.0
C282 C 0.3407 0.32865 0.55512 0.0
C283 C 0.38013 0.36528 0.53983 0.0
C284 C 0.24487 0.25809 0.46269 0.0
C285 C 0.34603 0.32893 0.59794 0.0
C286 C 0.13237 0.25047 0.56223 0.0
C287 C 0.14005 0.19306 0.55651 0.0
C288 C 0.1843 0.28485 0.55705 0.0
C289 C 0.24547 0.2613 0.54615 0.0
C290 C 0.2547 0.20402 0.54331 0.0
C291 C 0.20171 0.17043 0.54819 0.0
C292 C 0.17241 0.34575 0.5604 0.0
C293 C 0.31956 0.17763 0.53275 0.0
H294 H 0.32926 0.33073 0.44512 0.0
H295 H 0.41293 0.39354 0.55897 0.0
H296 H 0.2505 0.214 0.46371 0.0
H297 H 0.19478 0.27014 0.47185 0.0
H298 H 0.25097 0.26155 0.43196 0.0
H299 H 0.3943 0.34422 0.60988 0.0
H300 H 0.30899 0.35692 0.61432 0.0
H301 H 0.3375 0.28696 0.60316 0.0
H302 H 0.08506 0.26837 0.56911 0.0
H303 H 0.20832 0.1262 0.54445 0.0
H304 H 0.17457 0.35478 0.53094 0.0
H305 H 0.21048 0.37119 0.57864 0.0
H306 H 0.12451 0.35872 0.5733 0.0
H307 H 0.32877 0.17409 0.50121 0.0
H308 H 0.32183 0.13551 0.53861 0.0
H309 H 0.35882 0.20373 0.54935 0.0
C310 C 0.41574 0.69203 0.49844 0.0
C311 C 0.38585 0.6412 0.4986 0.0
C312 C 0.37843 0.73899 0.49806 0.0
C313 C 0.31009 0.73476 0.49886 0.0
C314 C 0.28037 0.68432 0.50219 0.0
C315 C 0.31865 0.6378 0.50123 0.0
C316 C 0.41197 0.79155 0.49369 0.0
C317 C 0.20783 0.67841 0.5043 0.0
C318 C 0.19863 0.85873 0.51375 0.0
C319 C 0.17393 0.85266 0.47588 0.0
C320 C 0.24535 0.82197 0.52175 0.0
C321 C 0.26893 0.77971 0.49082 0.0
C322 C 0.2471 0.77627 0.4521 0.0
C323 C 0.19883 0.81209 0.44526 0.0
C324 C 0.26616 0.82609 0.5635 0.0
C325 C 0.27242 0.733 0.41807 0.0
H326 H 0.4679 0.69413 0.49606 0.0
H327 H 0.29594 0.59824 0.50146 0.0
H328 H 0.4053 0.79632 0.46331 0.0
H329 H 0.39065 0.82837 0.51346 0.0
H330 H 0.46464 0.79101 0.49982 0.0
H331 H 0.19317 0.63935 0.51247 0.0
H332 H 0.18749 0.71392 0.52591 0.0
H333 H 0.18608 0.67847 0.47543 0.0
H334 H 0.17884 0.89015 0.53739 0.0
H335 H 0.1799 0.80802 0.41592 0.0
H336 H 0.31944 0.82335 0.56563 0.0
H337 H 0.24503 0.79076 0.57389 0.0
H338 H 0.25015 0.86528 0.58327 0.0
H339 H 0.32599 0.73203 0.41902 0.0
H340 H 0.25713 0.74073 0.3895 0.0
H341 H 0.25419 0.69144 0.41992 0.0
C342 C 0.1093 0.00687 0.15378 0.0
C343 C 0.05595 0.00014 0.12843 0.0
C344 C 0.10225 0.0045 0.19291 0.0
C345 C 0.0404 -0.00566 0.20697 0.0
C346 C 0.98612 0.98753 0.18157 0.0
C347 C 0.99449 0.99092 0.14251 0.0
C348 C 0.16118 0.01289 0.2192 0.0
C349 C 0.91955 0.97622 0.19556 0.0
C350 C 0.0446 0.93941 0.29907 0.0
C351 C 0.04029 0.98862 0.32788 0.0
C352 C 0.0424 0.94028 0.25931 0.0
C353 C 0.03353 0.99133 0.24844 0.0
C354 C 0.02545 0.04064 0.27762 0.0
C355 C 0.03013 0.03882 0.31707 0.0
C356 C 0.05263 0.88708 0.22904 0.0
C357 C 0.01399 0.09558 0.26721 0.0
H358 H 0.15681 0.01456 0.14309 0.0
H359 H 0.95326 0.98531 0.12284 0.0
H360 H 0.15419 0.04905 0.24404 0.0
H361 H 0.16816 0.97606 0.23163 0.0
H362 H 0.20589 0.02 0.20356 0.0
H363 H 0.88193 0.97481 0.17273 0.0
H364 H 0.91905 0.93594 0.20425 0.0
H365 H 0.90671 0.00861 0.22178 0.0
H366 H 0.05215 0.90063 0.30765 0.0
H367 H 0.02543 0.07669 0.33955 0.0
H368 H 0.099 0.88971 0.21376 0.0
H369 H 0.01367 0.88079 0.20667 0.0
H370 H 0.05398 0.85037 0.24213 0.0
H371 H 0.05831 0.1089 0.25406 0.0
H372 H 0.00098 0.12855 0.29313 0.0
H373 H 0.97469 0.09151 0.24517 0.0
C374 C 0.04354 0.94733 0.83342 0.0
C375 C 0.04107 0.99327 0.865 0.0
C376 C 0.05516 0.95415 0.79554 0.0
C377 C 0.06176 0.00836 0.78923 0.0
C378 C 0.06366 0.05459 0.82157 0.0
C379 C 0.05397 0.04634 0.8593 0.0
C380 C 0.05445 0.9037 0.76197 0.0
C381 C 0.06941 0.11308 0.81607 0.0
C382 C 0.10174 0.02524 0.68702 0.0
C383 C 0.03988 0.03145 0.67233 0.0
C384 C 0.11011 0.01877 0.72541 0.0
C385 C 0.05518 0.01711 0.74902 0.0
C386 C 0.99266 0.023 0.7341 0.0
C387 C 0.98589 0.03072 0.6961 0.0
C388 C 0.17743 0.01357 0.74068 0.0
C389 C 0.93267 0.02045 0.75807 0.0
H390 H 0.03318 0.90638 0.83811 0.0
H391 H 0.05095 0.08182 0.8839 0.0
H392 H 0.00773 0.90131 0.74608 0.0
H393 H 0.09346 0.90652 0.74093 0.0
H394 H 0.06035 0.8648 0.77218 0.0
H395 H 0.08004 0.1434 0.84401 0.0
H396 H 0.10784 0.11622 0.79475 0.0
H397 H 0.02322 0.12476 0.80417 0.0
H398 H 0.14355 0.02606 0.66866 0.0
H399 H 0.93797 0.03487 0.68463 0.0
H400 H 0.18231 0.97316 0.74886 0.0
H401 H 0.1864 0.04647 0.7675 0.0
H402 H 0.21515 0.01681 0.71888 0.0
H403 H 0.92961 0.9798 0.76617 0.0
H404 H 0.88772 0.02607 0.74214 0.0
H405 H 0.93507 0.05301 0.7856 0.0
C406 C 0.57383 0.55345 0.67717 0.0
C407 C 0.53848 0.52764 0.64365 0.0
C408 C 0.56174 0.54136 0.71335 0.0
C409 C 0.51179 0.50339 0.71665 0.0
C410 C 0.47306 0.47959 0.6836 0.0
C411 C 0.4873 0.49158 0.64723 0.0
C412 C 0.60434 0.56785 0.74778 0.0
C413 C 0.41844 0.43982 0.6861 0.0
C414 C 0.54599 0.44276 0.80371 0.0
C415 C 0.51368 0.48031 0.83298 0.0
C416 C 0.54065 0.44622 0.7645 0.0
C417 C 0.50261 0.48853 0.75489 0.0
C418 C 0.46603 0.52366 0.78425 0.0
C419 C 0.47237 0.51931 0.82312 0.0
C420 C 0.57973 0.40759 0.73392 0.0
C421 C 0.4243 0.56869 0.77513 0.0
H422 H 0.61305 0.58188 0.67496 0.0
H423 H 0.45976 0.47138 0.62153 0.0
H424 H 0.57447 0.59097 0.77215 0.0
H425 H 0.63025 0.53528 0.75855 0.0
H426 H 0.64075 0.59692 0.74027 0.0
H427 H 0.38294 0.43752 0.662 0.0
H428 H 0.43831 0.3978 0.68378 0.0
H429 H 0.39281 0.45196 0.7144 0.0
H430 H 0.57767 0.41253 0.81168 0.0
H431 H 0.44726 0.54809 0.84609 0.0
H432 H 0.62076 0.4309 0.72486 0.0
H433 H 0.54974 0.39077 0.70757 0.0
H434 H 0.5994 0.37247 0.74492 0.0
H435 H 0.45555 0.60277 0.76971 0.0
H436 H 0.39115 0.58619 0.79954 0.0
H437 H 0.39528 0.55254 0.74826 0.0
C438 C 0.58734 0.54888 0.36851 0.0
C439 C 0.57461 0.49394 0.37056 0.0
C440 C 0.59244 0.5631 0.33219 0.0
C441 C 0.58521 0.52124 0.29742 0.0
C442 C 0.5785 0.46511 0.29952 0.0
C443 C 0.5731 0.45218 0.3361 0.0
C444 C 0.60016 0.62335 0.33114 0.0
C445 C 0.57136 0.41911 0.26316 0.0
C446 C 0.50146 0.55339 0.20955 0.0
C447 C 0.55256 0.55024 0.18316 0.0
C448 C 0.51194 0.54573 0.24731 0.0
C449 C 0.57541 0.5362 0.25928 0.0
C450 C 0.62777 0.53614 0.23348 0.0
C451 C 0.61557 0.54228 0.19539 0.0
C452 C 0.45453 0.54498 0.27365 0.0
C453 C 0.69621 0.52764 0.24562 0.0
H454 H 0.58857 0.58134 0.3951 0.0
H455 H 0.56399 0.40957 0.33766 0.0
H456 H 0.63515 0.62832 0.30832 0.0
H457 H 0.55303 0.63934 0.32369 0.0
H458 H 0.61659 0.64913 0.35976 0.0
H459 H 0.57413 0.37741 0.26968 0.0
H460 H 0.52393 0.42258 0.24915 0.0
H461 H 0.60939 0.4226 0.24168 0.0
H462 H 0.45264 0.55913 0.20004 0.0
H463 H 0.65521 0.54032 0.17504 0.0
H464 H 0.46239 0.57467 0.30215 0.0
H465 H 0.44879 0.50309 0.27956 0.0
H466 H 0.40884 0.55564 0.26057 0.0
H467 H 0.70734 0.55537 0.2745 0.0
H468 H 0.73206 0.53561 0.22405 0.0
H469 H 0.70182 0.48438 0.24868 0.0
loop_
_geom_bond_atom_site_label_1
_geom_bond_atom_site_label_2
_geom_bond_distance
_geom_bond_site_symmetry_2
_ccdc_geom_bond_type
O0 Mg1 1.990 . S
O0 C14 1.253 . S
Mg1 O0 1.990 . S
Mg1 O4 2.180 . S
Mg1 O5 2.117 . S
Mg1 O19 2.030 1_545 S
O2 Mg3 2.072 . S
O2 C14 1.260 . S
Mg3 O2 2.072 . S
Mg3 O4 2.099 . S
Mg3 O6 2.079 1_554 S
Mg3 O7 2.072 1_455 S
Mg3 O9 2.099 1_444 S
Mg3 O20 2.079 1_544 S
O4 Mg1 2.180 . S
O4 Mg3 2.099 . S
O4 C15 1.279 . S
O5 Mg1 2.117 . S
O5 C15 1.250 . S
O6 Mg3 2.079 1_556 S
O6 C16 1.264 . S
O7 Mg3 2.072 1_655 S
O7 C17 1.260 . S
Mg8 O9 2.180 . S
Mg8 O10 2.030 1_565 S
Mg8 O11 1.990 1_565 S
Mg8 O12 2.117 . S
O9 Mg3 2.099 1_666 S
O9 Mg8 2.180 . S
O9 C18 1.265 1_556 S
O10 Mg8 2.030 1_545 S
O10 C16 1.248 1_655 S
O11 Mg8 1.990 1_545 S
O11 C17 1.253 1_556 S
O12 Mg8 2.117 . S
O12 C18 1.242 1_556 S
C13 O19 1.248 . S
C13 O20 1.264 1_554 S
C14 O0 1.253 . S
C14 O2 1.260 . S
C15 O4 1.279 . S
C15 O5 1.250 . S
C16 O6 1.264 . S
C16 O10 1.248 1_455 S
C17 O7 1.260 . S
C17 O11 1.253 1_554 S
C18 O9 1.265 1_554 S
C18 O12 1.242 1_554 S
O19 Mg1 2.030 1_565 S
O19 C13 1.248 . S
O20 Mg3 2.079 1_566 S
O20 C13 1.264 1_556 S
O21 Mg22 1.990 . S
O21 C35 1.253 . S
Mg22 O21 1.990 . S
Mg22 O25 2.180 . S
Mg22 O26 2.117 . S
Mg22 O40 2.030 . S
O23 Mg24 2.072 . S
O23 C35 1.260 . S
Mg24 O23 2.072 . S
Mg24 O25 2.099 . S
Mg24 O27 2.079 . S
Mg24 O28 2.072 . S
Mg24 O30 2.099 . S
Mg24 O41 2.079 . S
O25 Mg22 2.180 . S
O25 Mg24 2.099 . S
O25 C36 1.279 . S
O26 Mg22 2.117 . S
O26 C36 1.250 . S
O27 Mg24 2.079 . S
O27 C37 1.264 . S
O28 Mg24 2.072 . S
O28 C38 1.260 . S
Mg29 O30 2.180 . S
Mg29 O31 2.030 . S
Mg29 O32 1.990 . S
Mg29 O33 2.117 . S
O30 Mg24 2.099 . S
O30 Mg29 2.180 . S
O30 C39 1.279 . S
O31 Mg29 2.030 . S
O31 C37 1.248 . S
O32 Mg29 1.990 . S
O32 C38 1.253 . S
O33 Mg29 2.117 . S
O33 C39 1.250 . S
C34 O40 1.248 . S
C34 O41 1.264 . S
C35 O21 1.253 . S
C35 O23 1.260 . S
C36 O25 1.279 . S
C36 O26 1.250 . S
C37 O27 1.264 . S
C37 O31 1.248 . S
C38 O28 1.260 . S
C38 O32 1.253 . S
C39 O30 1.279 . S
C39 O33 1.250 . S
O40 Mg22 2.030 . S
O40 C34 1.248 . S
O41 Mg24 2.079 . S
O41 C34 1.264 . S
O42 Cd43 2.300 . S
O42 C49 1.275 1_565 S
Cd43 O42 2.300 . S
Cd43 O51 2.381 . S
Cd43 O52 2.378 . S
O44 Cd45 2.385 . S
O44 C49 1.255 . S
Cd45 O44 2.385 . S
Cd45 O46 2.317 1_455 S
O46 Cd45 2.317 1_655 S
O46 C47 1.232 . S
C47 O46 1.232 . S
C47 O48 1.218 . S
O48 C47 1.218 . S
C49 O42 1.275 1_545 S
C49 O44 1.255 . S
C50 O51 1.258 . S
C50 O52 1.256 . S
O51 Cd43 2.381 . S
O51 C50 1.258 . S
O52 Cd43 2.378 . S
O52 C50 1.256 . S
O53 Cd54 2.300 . S
O53 C60 1.275 . S
Cd54 O53 2.300 . S
Cd54 O62 2.381 . S
Cd54 O63 2.378 . S
O55 Cd56 2.385 . S
O55 C60 1.255 1_565 S
Cd56 O55 2.385 . S
Cd56 O57 2.317 1_455 S
O57 Cd56 2.317 1_655 S
O57 C58 1.232 . S
C58 O57 1.232 . S
C58 O59 1.218 . S
O59 C58 1.218 . S
C60 O53 1.275 . S
C60 O55 1.255 1_545 S
C61 O62 1.258 . S
C61 O63 1.256 . S
O62 Cd54 2.381 . S
O62 C61 1.258 . S
O63 Cd54 2.378 . S
O63 C61 1.256 . S
O64 Cd65 2.300 . S
O64 C71 1.275 . S
Cd65 O64 2.300 . S
Cd65 O73 2.381 . S
Cd65 O74 2.378 . S
O66 Cd67 2.385 . S
O66 C71 1.255 . S
Cd67 O66 2.385 . S
Cd67 O68 2.317 . S
O68 Cd67 2.317 . S
O68 C69 1.232 . S
C69 O68 1.232 . S
C69 O70 1.218 . S
O70 C69 1.218 . S
C71 O64 1.275 . S
C71 O66 1.255 . S
C72 O73 1.258 . S
C72 O74 1.256 . S
O73 Cd65 2.381 . S
O73 C72 1.258 . S
O74 Cd65 2.378 . S
O74 C72 1.256 . S
O75 Cd76 2.300 . S
O75 C82 1.275 . S
Cd76 O75 2.300 . S
Cd76 O84 2.381 . S
Cd76 O85 2.378 . S
O77 Cd78 2.385 . S
O77 C82 1.255 . S
Cd78 O77 2.385 . S
Cd78 O79 2.317 . S
O79 Cd78 2.317 . S
O79 C80 1.232 . S
C80 O79 1.232 . S
C80 O81 1.218 . S
O81 C80 1.218 . S
C82 O75 1.275 . S
C82 O77 1.255 . S
C83 O84 1.258 . S
C83 O85 1.256 . S
O84 Cd76 2.381 . S
O84 C83 1.258 . S
O85 Cd76 2.378 . S
O85 C83 1.256 . S
C86 C87 1.391 . S
C86 C88 1.394 . S
C86 H102 0.931 . S
C87 C86 1.391 . S
C87 C91 1.376 . S
C88 C86 1.394 . S
C88 C89 1.369 . S
C88 C92 1.531 . S
C89 C88 1.369 . S
C89 C90 1.410 . S
C89 C97 1.503 . S
C90 C89 1.410 . S
C90 C91 1.392 . S
C90 C93 1.511 . S
C91 C87 1.376 . S
C91 C90 1.392 . S
C91 H103 0.929 . S
C92 C88 1.531 . S
C92 H104 0.960 . S
C92 H105 0.962 . S
C92 H106 0.960 . S
C93 C90 1.511 . S
C93 H107 0.961 . S
C93 H108 0.961 . S
C93 H109 0.961 . S
C94 C95 1.370 . S
C94 C96 1.363 . S
C94 H110 0.931 1_554 S
C95 C94 1.370 . S
C95 C99 1.408 . S
C96 C94 1.363 . S
C96 C97 1.370 . S
C96 C100 1.524 1_554 S
C97 C89 1.503 . S
C97 C96 1.370 . S
C97 C98 1.403 . S
C98 C97 1.403 . S
C98 C99 1.404 . S
C98 C101 1.539 . S
C99 C95 1.408 . S
C99 C98 1.404 . S
C99 H111 0.930 . S
C100 C96 1.524 1_556 S
C100 H112 0.956 . S
C100 H113 0.961 . S
C100 H114 0.961 . S
C101 C98 1.539 . S
C101 H115 0.958 . S
C101 H116 0.961 . S
C101 H117 0.960 . S
H102 C86 0.931 . S
H103 C91 0.929 . S
H104 C92 0.960 . S
H105 C92 0.962 . S
H106 C92 0.960 . S
H107 C93 0.961 . S
H108 C93 0.961 . S
H109 C93 0.961 . S
H110 C94 0.931 1_556 S
H111 C99 0.930 . S
H112 C100 0.956 . S
H113 C100 0.961 . S
H114 C100 0.961 . S
H115 C101 0.958 . S
H116 C101 0.961 . S
H117 C101 0.960 . S
C118 C119 1.372 1_556 S
C118 C120 1.394 . S
C118 H134 0.931 . S
C119 C118 1.372 1_554 S
C119 C123 1.395 . S
C120 C118 1.394 . S
C120 C121 1.369 . S
C120 C124 1.531 . S
C121 C120 1.369 . S
C121 C122 1.410 1_556 S
C121 C129 1.503 . S
C122 C121 1.410 1_554 S
C122 C123 1.392 . S
C122 C125 1.511 . S
C123 C119 1.395 . S
C123 C122 1.392 . S
C123 H135 0.929 . S
C124 C120 1.531 . S
C124 H136 0.960 . S
C124 H137 0.962 . S
C124 H138 0.960 . S
C125 C122 1.511 . S
C125 H139 0.961 . S
C125 H140 0.961 . S
C125 H141 0.961 . S
C126 C127 1.370 . S
C126 C128 1.363 . S
C126 H142 0.931 1_556 S
C127 C126 1.370 . S
C127 C131 1.408 . S
C128 C126 1.363 . S
C128 C129 1.370 . S
C128 C132 1.524 1_556 S
C129 C121 1.503 . S
C129 C128 1.370 . S
C129 C130 1.403 . S
C130 C129 1.403 . S
C130 C131 1.404 . S
C130 C133 1.539 . S
C131 C127 1.408 . S
C131 C130 1.404 . S
C131 H143 0.930 . S
C132 C128 1.524 1_554 S
C132 H144 0.948 1_554 S
C132 H145 0.961 . S
C132 H146 0.961 . S
C133 C130 1.539 . S
C133 H147 0.958 . S
C133 H148 0.961 . S
C133 H149 0.960 . S
H134 C118 0.931 . S
H135 C123 0.929 . S
H136 C124 0.960 . S
H137 C124 0.962 . S
H138 C124 0.960 . S
H139 C125 0.961 . S
H140 C125 0.961 . S
H141 C125 0.961 . S
H142 C126 0.931 1_554 S
H143 C131 0.930 . S
H144 C132 0.948 1_556 S
H145 C132 0.961 . S
H146 C132 0.961 . S
H147 C133 0.958 . S
H148 C133 0.961 . S
H149 C133 0.960 . S
C150 C151 1.391 . S
C150 C152 1.394 . S
C150 H166 0.931 . S
C151 C150 1.391 . S
C151 C155 1.376 1_554 S
C152 C150 1.394 . S
C152 C153 1.369 . S
C152 C156 1.531 . S
C153 C152 1.369 . S
C153 C154 1.410 1_554 S
C153 C161 1.503 . S
C154 C153 1.410 1_556 S
C154 C155 1.392 . S
C154 C157 1.511 . S
C155 C151 1.376 1_556 S
C155 C154 1.392 . S
C155 H167 0.929 . S
C156 C152 1.531 . S
C156 H168 0.960 . S
C156 H169 0.962 . S
C156 H170 0.960 . S
C157 C154 1.511 . S
C157 H171 0.961 . S
C157 H172 0.961 . S
C157 H173 0.961 . S
C158 C159 1.370 . S
C158 C160 1.363 . S
C158 H174 0.931 . S
C159 C158 1.370 . S
C159 C163 1.408 . S
C160 C158 1.363 . S
C160 C161 1.370 . S
C160 C164 1.524 . S
C161 C153 1.503 . S
C161 C160 1.370 . S
C161 C162 1.403 . S
C162 C161 1.403 . S
C162 C163 1.404 . S
C162 C165 1.539 1_554 S
C163 C159 1.408 . S
C163 C162 1.404 . S
C163 H175 0.930 1_554 S
C164 C160 1.524 . S
C164 H176 0.956 . S
C164 H177 0.961 . S
C164 H178 0.961 . S
C165 C162 1.539 1_556 S
C165 H179 0.958 . S
C165 H180 0.961 . S
C165 H181 0.960 . S
H166 C150 0.931 . S
H167 C155 0.929 . S
H168 C156 0.960 . S
H169 C156 0.962 . S
H170 C156 0.960 . S
H171 C157 0.961 . S
H172 C157 0.961 . S
H173 C157 0.961 . S
H174 C158 0.931 . S
H175 C163 0.930 1_556 S
H176 C164 0.956 . S
H177 C164 0.961 . S
H178 C164 0.961 . S
H179 C165 0.958 . S
H180 C165 0.961 . S
H181 C165 0.960 . S
C182 C183 1.391 . S
C182 C184 1.394 . S
C182 H198 0.931 . S
C183 C182 1.391 . S
C183 C187 1.376 1_554 S
C184 C182 1.394 . S
C184 C185 1.369 . S
C184 C188 1.531 . S
C185 C184 1.369 . S
C185 C186 1.410 1_554 S
C185 C193 1.503 1_554 S
C186 C185 1.410 1_556 S
C186 C187 1.392 . S
C186 C189 1.511 . S
C187 C183 1.376 1_556 S
C187 C186 1.392 . S
C187 H199 0.929 . S
C188 C184 1.531 . S
C188 H200 0.960 . S
C188 H201 0.962 . S
C188 H202 0.960 . S
C189 C186 1.511 . S
C189 H203 0.961 . S
C189 H204 0.961 . S
C189 H205 0.961 . S
C190 C191 1.370 . S
C190 C192 1.363 . S
C190 H206 0.931 . S
C191 C190 1.370 . S
C191 C195 1.408 1_556 S
C192 C190 1.363 . S
C192 C193 1.370 . S
C192 C196 1.524 . S
C193 C185 1.503 1_556 S
C193 C192 1.370 . S
C193 C194 1.403 1_556 S
C194 C193 1.403 1_554 S
C194 C195 1.404 . S
C194 C197 1.539 . S
C195 C191 1.408 1_554 S
C195 C194 1.404 . S
C195 H207 0.930 . S
C196 C192 1.524 . S
C196 H208 0.956 . S
C196 H209 0.961 . S
C196 H210 0.961 . S
C197 C194 1.539 . S
C197 H211 0.958 . S
C197 H212 0.961 . S
C197 H213 0.960 . S
H198 C182 0.931 . S
H199 C187 0.929 . S
H200 C188 0.960 . S
H201 C188 0.962 . S
H202 C188 0.960 . S
H203 C189 0.961 . S
H204 C189 0.961 . S
H205 C189 0.961 . S
H206 C190 0.931 . S
H207 C195 0.930 . S
H208 C196 0.956 . S
H209 C196 0.961 . S
H210 C196 0.961 . S
H211 C197 0.958 . S
H212 C197 0.961 . S
H213 C197 0.960 . S
C214 C215 1.391 . S
C214 C216 1.394 . S
C214 H230 0.931 . S
C215 C214 1.391 . S
C215 C219 1.376 . S
C216 C214 1.394 . S
C216 C217 1.369 . S
C216 C220 1.531 . S
C217 C216 1.369 . S
C217 C218 1.410 . S
C217 C225 1.503 . S
C218 C217 1.410 . S
C218 C219 1.392 . S
C218 C221 1.511 . S
C219 C215 1.376 . S
C219 C218 1.392 . S
C219 H231 0.929 . S
C220 C216 1.531 . S
C220 H232 0.960 . S
C220 H233 0.962 . S
C220 H234 0.960 . S
C221 C218 1.511 . S
C221 H235 0.961 . S
C221 H236 0.961 . S
C221 H237 0.961 . S
C222 C223 1.370 . S
C222 C224 1.363 . S
C222 H238 0.931 . S
C223 C222 1.370 . S
C223 C227 1.408 . S
C224 C222 1.363 . S
C224 C225 1.370 . S
C224 C228 1.524 . S
C225 C217 1.503 . S
C225 C224 1.370 . S
C225 C226 1.403 . S
C226 C225 1.403 . S
C226 C227 1.404 . S
C226 C229 1.539 . S
C227 C223 1.408 . S
C227 C226 1.404 . S
C227 H239 0.930 . S
C228 C224 1.524 . S
C228 H240 0.956 . S
C228 H241 0.961 . S
C228 H242 0.961 . S
C229 C226 1.539 . S
C229 H243 0.958 . S
C229 H244 0.961 . S
C229 H245 0.960 . S
H230 C214 0.931 . S
H231 C219 0.929 . S
H232 C220 0.960 . S
H233 C220 0.962 . S
H234 C220 0.960 . S
H235 C221 0.961 . S
H236 C221 0.961 . S
H237 C221 0.961 . S
H238 C222 0.931 . S
H239 C227 0.930 . S
H240 C228 0.956 . S
H241 C228 0.961 . S
H242 C228 0.961 . S
H243 C229 0.958 . S
H244 C229 0.961 . S
H245 C229 0.960 . S
C246 C247 1.391 . S
C246 C248 1.394 . S
C246 H262 0.931 . S
C247 C246 1.391 . S
C247 C251 1.376 . S
C248 C246 1.394 . S
C248 C249 1.369 . S
C248 C252 1.531 . S
C249 C248 1.369 . S
C249 C250 1.410 . S
C249 C257 1.503 . S
C250 C249 1.410 . S
C250 C251 1.392 . S
C250 C253 1.511 . S
C251 C247 1.376 . S
C251 C250 1.392 . S
C251 H263 0.929 . S
C252 C248 1.531 . S
C252 H264 0.960 . S
C252 H265 0.962 . S
C252 H266 0.960 . S
C253 C250 1.511 . S
C253 H267 0.961 . S
C253 H268 0.961 . S
C253 H269 0.961 . S
C254 C255 1.370 . S
C254 C256 1.363 . S
C254 H270 0.931 . S
C255 C254 1.370 . S
C255 C259 1.408 . S
C256 C254 1.363 . S
C256 C257 1.370 . S
C256 C260 1.524 . S
C257 C249 1.503 . S
C257 C256 1.370 . S
C257 C258 1.403 . S
C258 C257 1.403 . S
C258 C259 1.404 . S
C258 C261 1.539 . S
C259 C255 1.408 . S
C259 C258 1.404 . S
C259 H271 0.930 . S
C260 C256 1.524 . S
C260 H272 0.956 . S
C260 H273 0.961 . S
C260 H274 0.961 . S
C261 C258 1.539 . S
C261 H275 0.958 . S
C261 H276 0.961 . S
C261 H277 0.960 . S
H262 C246 0.931 . S
H263 C251 0.929 . S
H264 C252 0.960 . S
H265 C252 0.962 . S
H266 C252 0.960 . S
H267 C253 0.961 . S
H268 C253 0.961 . S
H269 C253 0.961 . S
H270 C254 0.931 . S
H271 C259 0.930 . S
H272 C260 0.956 . S
H273 C260 0.961 . S
H274 C260 0.961 . S
H275 C261 0.958 . S
H276 C261 0.961 . S
H277 C261 0.960 . S
C278 C279 1.391 . S
C278 C280 1.394 . S
C278 H294 0.931 . S
C279 C278 1.391 . S
C279 C283 1.376 . S
C280 C278 1.394 . S
C280 C281 1.369 . S
C280 C284 1.531 . S
C281 C280 1.369 . S
C281 C282 1.410 . S
C281 C289 1.503 . S
C282 C281 1.410 . S
C282 C283 1.392 . S
C282 C285 1.511 . S
C283 C279 1.376 . S
C283 C282 1.392 . S
C283 H295 0.929 . S
C284 C280 1.531 . S
C284 H296 0.960 . S
C284 H297 0.962 . S
C284 H298 0.960 . S
C285 C282 1.511 . S
C285 H299 0.961 . S
C285 H300 0.961 . S
C285 H301 0.961 . S
C286 C287 1.370 . S
C286 C288 1.363 . S
C286 H302 0.931 . S
C287 C286 1.370 . S
C287 C291 1.408 . S
C288 C286 1.363 . S
C288 C289 1.370 . S
C288 C292 1.524 . S
C289 C281 1.503 . S
C289 C288 1.370 . S
C289 C290 1.403 . S
C290 C289 1.403 . S
C290 C291 1.404 . S
C290 C293 1.539 . S
C291 C287 1.408 . S
C291 C290 1.404 . S
C291 H303 0.930 . S
C292 C288 1.524 . S
C292 H304 0.956 . S
C292 H305 0.961 . S
C292 H306 0.961 . S
C293 C290 1.539 . S
C293 H307 0.958 . S
C293 H308 0.961 . S
C293 H309 0.960 . S
H294 C278 0.931 . S
H295 C283 0.929 . S
H296 C284 0.960 . S
H297 C284 0.962 . S
H298 C284 0.960 . S
H299 C285 0.961 . S
H300 C285 0.961 . S
H301 C285 0.961 . S
H302 C286 0.931 . S
H303 C291 0.930 . S
H304 C292 0.956 . S
H305 C292 0.961 . S
H306 C292 0.961 . S
H307 C293 0.958 . S
H308 C293 0.961 . S
H309 C293 0.960 . S
C310 C311 1.391 . S
C310 C312 1.394 . S
C310 H326 0.931 . S
C311 C310 1.391 . S
C311 C315 1.376 . S
C312 C310 1.394 . S
C312 C313 1.369 . S
C312 C316 1.531 . S
C313 C312 1.369 . S
C313 C314 1.410 . S
C313 C321 1.503 . S
C314 C313 1.410 . S
C314 C315 1.392 . S
C314 C317 1.511 . S
C315 C311 1.376 . S
C315 C314 1.392 . S
C315 H327 0.929 . S
C316 C312 1.531 . S
C316 H328 0.960 . S
C316 H329 0.962 . S
C316 H330 0.960 . S
C317 C314 1.511 . S
C317 H331 0.961 . S
C317 H332 0.961 . S
C317 H333 0.961 . S
C318 C319 1.370 . S
C318 C320 1.363 . S
C318 H334 0.931 . S
C319 C318 1.370 . S
C319 C323 1.408 . S
C320 C318 1.363 . S
C320 C321 1.370 . S
C320 C324 1.524 . S
C321 C313 1.503 . S
C321 C320 1.370 . S
C321 C322 1.403 . S
C322 C321 1.403 . S
C322 C323 1.404 . S
C322 C325 1.539 . S
C323 C319 1.408 . S
C323 C322 1.404 . S
C323 H335 0.930 . S
C324 C320 1.524 . S
C324 H336 0.956 . S
C324 H337 0.961 . S
C324 H338 0.961 . S
C325 C322 1.539 . S
C325 H339 0.958 . S
C325 H340 0.961 . S
C325 H341 0.960 . S
H326 C310 0.931 . S
H327 C315 0.929 . S
H328 C316 0.960 . S
H329 C316 0.962 . S
H330 C316 0.960 . S
H331 C317 0.961 . S
H332 C317 0.961 . S
H333 C317 0.961 . S
H334 C318 0.931 . S
H335 C323 0.930 . S
H336 C324 0.956 . S
H337 C324 0.961 . S
H338 C324 0.961 . S
H339 C325 0.958 . S
H340 C325 0.961 . S
H341 C325 0.960 . S
C342 C343 1.391 . S
C342 C344 1.394 . S
C342 H358 0.931 . S
C343 C342 1.391 . S
C343 C347 1.376 1_445 S
C344 C342 1.394 . S
C344 C345 1.369 . S
C344 C348 1.531 . S
C345 C344 1.369 . S
C345 C346 1.410 1_445 S
C345 C353 1.503 . S
C346 C345 1.410 1_665 S
C346 C347 1.392 . S
C346 C349 1.511 . S
C347 C343 1.376 1_665 S
C347 C346 1.392 . S
C347 H359 0.929 . S
C348 C344 1.531 . S
C348 H360 0.960 . S
C348 H361 0.962 . S
C348 H362 0.960 . S
C349 C346 1.511 . S
C349 H363 0.961 . S
C349 H364 0.961 . S
C349 H365 0.961 . S
C350 C351 1.370 1_565 S
C350 C352 1.363 . S
C350 H366 0.931 . S
C351 C350 1.370 1_545 S
C351 C355 1.408 . S
C352 C350 1.363 . S
C352 C353 1.370 1_565 S
C352 C356 1.524 . S
C353 C345 1.503 . S
C353 C352 1.370 1_545 S
C353 C354 1.403 . S
C354 C353 1.403 . S
C354 C355 1.404 . S
C354 C357 1.539 1_455 S
C355 C351 1.408 . S
C355 C354 1.404 . S
C355 H367 0.930 1_455 S
C356 C352 1.524 . S
C356 H368 0.956 . S
C356 H369 0.961 . S
C356 H370 0.961 . S
C357 C354 1.539 1_655 S
C357 H371 0.958 . S
C357 H372 0.961 . S
C357 H373 0.960 . S
H358 C342 0.931 . S
H359 C347 0.929 . S
H360 C348 0.960 . S
H361 C348 0.962 . S
H362 C348 0.960 . S
H363 C349 0.961 . S
H364 C349 0.961 . S
H365 C349 0.961 . S
H366 C350 0.931 . S
H367 C355 0.930 1_655 S
H368 C356 0.956 . S
H369 C356 0.961 . S
H370 C356 0.961 . S
H371 C357 0.958 . S
H372 C357 0.961 . S
H373 C357 0.960 . S
C374 C375 1.391 1_565 S
C374 C376 1.394 . S
C374 H390 0.931 . S
C375 C374 1.391 1_545 S
C375 C379 1.376 1_455 S
C376 C374 1.394 . S
C376 C377 1.369 1_565 S
C376 C380 1.531 . S
C377 C376 1.369 1_545 S
C377 C378 1.410 1_455 S
C377 C385 1.504 . S
C378 C377 1.410 1_655 S
C378 C379 1.392 . S
C378 C381 1.511 . S
C379 C375 1.376 1_655 S
C379 C378 1.392 . S
C379 H391 0.929 . S
C380 C376 1.531 . S
C380 H392 0.960 . S
C380 H393 0.962 . S
C380 H394 0.960 . S
C381 C378 1.511 . S
C381 H395 0.961 . S
C381 H396 0.961 . S
C381 H397 0.961 . S
C382 C383 1.370 1_455 S
C382 C384 1.363 . S
C382 H398 0.931 . S
C383 C382 1.370 1_655 S
C383 C387 1.408 . S
C384 C382 1.363 . S
C384 C385 1.375 . S
C384 C388 1.524 . S
C385 C377 1.504 . S
C385 C384 1.375 . S
C385 C386 1.398 1_445 S
C386 C385 1.398 1_665 S
C386 C387 1.404 1_565 S
C386 C389 1.539 . S
C387 C383 1.408 . S
C387 C386 1.404 1_545 S
C387 H399 0.930 1_545 S
C388 C384 1.524 . S
C388 H400 0.956 . S
C388 H401 0.961 . S
C388 H402 0.961 . S
C389 C386 1.539 . S
C389 H403 0.958 . S
C389 H404 0.961 . S
C389 H405 0.960 . S
H390 C374 0.931 . S
H391 C379 0.929 . S
H392 C380 0.960 . S
H393 C380 0.962 . S
H394 C380 0.960 . S
H395 C381 0.961 . S
H396 C381 0.961 . S
H397 C381 0.961 . S
H398 C382 0.931 . S
H399 C387 0.930 1_565 S
H400 C388 0.956 . S
H401 C388 0.961 . S
H402 C388 0.961 . S
H403 C389 0.958 . S
H404 C389 0.961 . S
H405 C389 0.960 . S
C406 C407 1.391 . S
C406 C408 1.394 . S
C406 H422 0.931 . S
C407 C406 1.391 . S
C407 C411 1.376 . S
C408 C406 1.394 . S
C408 C409 1.369 . S
C408 C412 1.531 . S
C409 C408 1.369 . S
C409 C410 1.410 . S
C409 C417 1.503 . S
C410 C409 1.410 . S
C410 C411 1.392 . S
C410 C413 1.511 . S
C411 C407 1.376 . S
C411 C410 1.392 . S
C411 H423 0.929 . S
C412 C408 1.531 . S
C412 H424 0.960 . S
C412 H425 0.962 . S
C412 H426 0.960 . S
C413 C410 1.511 . S
C413 H427 0.961 . S
C413 H428 0.961 . S
C413 H429 0.961 . S
C414 C415 1.370 . S
C414 C416 1.363 . S
C414 H430 0.931 . S
C415 C414 1.370 . S
C415 C419 1.408 . S
C416 C414 1.363 . S
C416 C417 1.370 . S
C416 C420 1.524 . S
C417 C409 1.503 . S
C417 C416 1.370 . S
C417 C418 1.403 . S
C418 C417 1.403 . S
C418 C419 1.404 . S
C418 C421 1.539 . S
C419 C415 1.408 . S
C419 C418 1.404 . S
C419 H431 0.930 . S
C420 C416 1.524 . S
C420 H432 0.956 . S
C420 H433 0.961 . S
C420 H434 0.961 . S
C421 C418 1.539 . S
C421 H435 0.958 . S
C421 H436 0.961 . S
C421 H437 0.960 . S
H422 C406 0.931 . S
H423 C411 0.929 . S
H424 C412 0.960 . S
H425 C412 0.962 . S
H426 C412 0.960 . S
H427 C413 0.961 . S
H428 C413 0.961 . S
H429 C413 0.961 . S
H430 C414 0.931 . S
H431 C419 0.930 . S
H432 C420 0.956 . S
H433 C420 0.961 . S
H434 C420 0.961 . S
H435 C421 0.958 . S
H436 C421 0.961 . S
H437 C421 0.960 . S
C438 C439 1.391 . S
C438 C440 1.394 . S
C438 H454 0.931 . S
C439 C438 1.391 . S
C439 C443 1.376 . S
C440 C438 1.394 . S
C440 C441 1.369 . S
C440 C444 1.531 . S
C441 C440 1.369 . S
C441 C442 1.410 . S
C441 C449 1.503 . S
C442 C441 1.410 . S
C442 C443 1.392 . S
C442 C445 1.511 . S
C443 C439 1.376 . S
C443 C442 1.392 . S
C443 H455 0.929 . S
C444 C440 1.531 . S
C444 H456 0.960 . S
C444 H457 0.962 . S
C444 H458 0.960 . S
C445 C442 1.511 . S
C445 H459 0.961 . S
C445 H460 0.961 . S
C445 H461 0.961 . S
C446 C447 1.370 . S
C446 C448 1.363 . S
C446 H462 0.931 . S
C447 C446 1.370 . S
C447 C451 1.408 . S
C448 C446 1.363 . S
C448 C449 1.370 . S
C448 C452 1.524 . S
C449 C441 1.503 . S
C449 C448 1.370 . S
C449 C450 1.403 . S
C450 C449 1.403 . S
C450 C451 1.404 . S
C450 C453 1.539 . S
C451 C447 1.408 . S
C451 C450 1.404 . S
C451 H463 0.930 . S
C452 C448 1.524 . S
C452 H464 0.956 . S
C452 H465 0.961 . S
C452 H466 0.961 . S
C453 C450 1.539 . S
C453 H467 0.958 . S
C453 H468 0.961 . S
C453 H469 0.960 . S
H454 C438 0.931 . S
H455 C443 0.929 . S
H456 C444 0.960 . S
H457 C444 0.962 . S
H458 C444 0.960 . S
H459 C445 0.961 . S
H460 C445 0.961 . S
H461 C445 0.961 . S
H462 C446 0.931 . S
H463 C451 0.930 . S
H464 C452 0.956 . S
H465 C452 0.961 . S
H466 C452 0.961 . S
H467 C453 0.958 . S
H468 C453 0.961 . S
H469 C453 0.960 . S
C95 C80 1.180 . S
C87 C15 1.226 . S
C119 C13 1.451 . S
C127 C69 1.232 . S
C151 C18 1.237 . S
C159 C83 1.446 . S
C183 C17 1.390 . S
C191 C72 1.395 . S
C215 C36 1.326 . S
C223 C58 1.221 . S
C247 C34 1.451 . S
C255 C47 1.232 . S
C287 C61 1.428 . S
C279 C39 1.314 . S
C319 C50 1.388 . S
C311 C38 1.342 . S
C343 C14 1.510 . S
C351 C49 1.527 . S
C375 C16 1.345 . S
C383 C60 1.386 1_655 S
C415 C71 1.526 . S
C407 C35 1.507 . S
C439 C37 1.403 . S
C447 C82 1.360 . S
